drugbank_target|P30996 Botulinum neurotoxin type F (DB13901)
 OpenBabel12092121133D

  0  0  0     0  0            999 V3000
M  V30 BEGIN CTAB
M  V30 COUNTS 20561 20775 0 0 0
M  V30 BEGIN ATOM
M  V30 1 H -0.908 1.98254 -0.117106 0
M  V30 2 N 0 1.576 0 0
M  V30 3 C 0.933 2.03868 1.02534 0
M  V30 4 C 1.911 0.928543 1.3348 0
M  V30 5 O 3.095 1.19667 1.45644 0
M  V30 6 C 0.222 2.43627 2.35294 0
M  V30 7 C -0.732 3.65373 2.2001 0
M  V30 8 S 0.101 5.13292 1.52614 0
M  V30 9 C 1.257 5.56322 2.86805 0
M  V30 10 H 1.49 2.90518 0.631377 0
M  V30 11 H -0.977 1.52953 0.210867 0
M  V30 12 H 0.981 2.67203 3.11629 0
M  V30 13 H -0.358 1.57376 2.7183 0
M  V30 14 H -1.165 3.90944 3.18086 0
M  V30 15 H -1.563 3.418 1.51819 0
M  V30 16 H 0.729 5.58782 3.83104 0
M  V30 17 H 1.672 6.56266 2.65933 0
M  V30 18 H 2.08 4.83886 2.90714 0
M  V30 19 N 1.4781 -0.272755 1.55222 0
M  V30 20 C 2.8891 -0.84378 1.66545 0
M  V30 21 C 3.2401 -1.87035 0.592641 0
M  V30 22 O 2.3651 -2.14761 -0.265818 0
M  V30 23 C 2.9601 -1.53723 3.01918 0
M  V30 24 C 1.5191 -2.05628 3.15268 0
M  V30 25 C 0.6661 -0.898424 2.62343 0
M  V30 26 H 3.6171 -0.0490998 1.58624 0
M  V30 27 H 3.6381 -2.40421 2.94921 0
M  V30 28 H 3.1501 -0.78983 3.79978 0
M  V30 29 H 1.2511 -2.83329 2.41983 0
M  V30 30 H 1.3641 -2.27142 4.21833 0
M  V30 31 H -0.2719 -1.29186 2.19506 0
M  V30 32 H 0.5111 -0.164528 3.42906 0
M  V30 33 N 2.9562 -1.48159 -0.537278 0
M  V30 34 C 4.2022 -1.56035 -1.29541 0
M  V30 35 C 4.5352 -0.230377 -1.92829 0
M  V30 36 O 3.8102 0.762952 -1.78911 0
M  V30 37 C 4.0932 -2.69323 -2.39034 0
M  V30 38 C 3.9462 -4.12002 -1.80485 0
M  V30 39 C 5.2652 -2.78408 -3.40847 0
M  V30 40 H 2.3842 -0.567992 -0.469632 0
M  V30 41 H 5.0262 -1.80302 -0.599277 0
M  V30 42 H 3.1762 -2.48763 -2.98412 0
M  V30 43 H 4.8482 -4.43981 -1.25215 0
M  V30 44 H 3.0912 -4.19344 -1.11055 0
M  V30 45 H 3.7622 -4.87077 -2.59731 0
M  V30 46 H 6.2382 -2.97012 -2.91416 0
M  V30 47 H 5.1142 -3.59416 -4.14863 0
M  V30 48 H 5.3752 -1.86269 -4.00944 0
M  V30 49 N 4.4343 0.785586 -1.36625 0
M  V30 50 C 5.3973 1.87999 -1.31107 0
M  V30 51 C 6.3973 1.59316 -0.217959 0
M  V30 52 O 7.5873 1.67656 -0.472977 0
M  V30 53 C 4.7193 3.24861 -1.03334 0
M  V30 54 H 5.9123 1.94307 -2.2844 0
M  V30 55 H 3.4653 0.983813 -1.21453 0
M  V30 56 H 4.2003 3.24235 -0.0647432 0
M  V30 57 H 3.9853 3.4707 -1.82441 0
M  V30 58 H 5.4753 4.04929 -1.02088 0
M  V30 59 N 5.9124 1.20967 1.01018 0
M  V30 60 C 7.1614 1.01796 1.74128 0
M  V30 61 C 7.4744 -0.449691 1.90361 0
M  V30 62 O 8.6804 -0.76068 2.60626 0
M  V30 63 C 7.1364 1.7727 3.13215 0
M  V30 64 C 6.7444 3.28171 3.04972 0
M  V30 65 C 8.4884 1.66489 3.90489 0
M  V30 66 C 6.3954 3.96156 4.39107 0
M  V30 67 H 5.3254 0.377276 0.652824 0
M  V30 68 H 7.9764 1.44651 1.12909 0
M  V30 69 H 6.3584 1.27205 3.75013 0
M  V30 70 H 7.5324 3.85499 2.52443 0
M  V30 71 H 5.8474 3.39437 2.41188 0
M  V30 72 H 8.4444 2.14617 4.89738 0
M  V30 73 H 8.7874 0.6222 4.11624 0
M  V30 74 H 9.3204 2.14003 3.35332 0
M  V30 75 H 6.0594 5.00604 4.23174 0
M  V30 76 H 5.5794 3.43617 4.91617 0
M  V30 77 H 7.2584 4.00774 5.07926 0
M  V30 78 N 7.3905 -1.2043 1.01659 0
M  V30 79 C 8.3385 -2.25249 0.580143 0
M  V30 80 C 9.3325 -1.65057 -0.381115 0
M  V30 81 O 10.5385 -1.78241 -0.251039 0
M  V30 82 H 6.9135 -0.732695 0.169299 0
M  V30 83 H 8.8845 -2.59389 1.47512 0
M  V30 84 C 7.6335 -3.47638 -0.065788 0
M  V30 85 H 6.9565 -3.94233 0.664874 0
M  V30 86 H 8.3965 -4.2268 -0.334282 0
M  V30 87 C 6.8555 -3.10447 -1.3086 0
M  V30 88 O 7.3855 -3.21981 -2.4019 0
M  V30 89 N 5.5915 -2.64996 -1.1927 0
M  V30 90 H 5.1385 -2.55811 -0.303064 0
M  V30 91 H 5.0965 -2.40482 -2.02523 0
M  V30 92 N 8.8686 -0.792821 -1.36206 0
M  V30 93 C 10.0936 -0.377701 -2.03932 0
M  V30 94 C 10.5186 0.998947 -1.59382 0
M  V30 95 O 9.8766 1.64421 -0.763903 0
M  V30 96 C 9.9246 -0.453635 -3.57735 0
M  V30 97 O 9.0286 0.538151 -4.08874 0
M  V30 98 H 8.3696 -0.159855 -0.644471 0
M  V30 99 H 10.8996 -1.07488 -1.7409 0
M  V30 100 H 10.9096 -0.318464 -4.06755 0
M  V30 101 H 9.5846 -1.45784 -3.89512 0
M  V30 102 H 8.1616 0.364359 -3.71116 0
M  V30 103 N 10.3467 1.47872 -0.545128 0
M  V30 104 C 11.5937 2.02493 -0.0165858 0
M  V30 105 C 11.9217 1.42073 1.32836 0
M  V30 106 O 11.1767 0.561459 1.87473 0
M  V30 107 C 11.4757 3.57131 0.13867 0
M  V30 108 C 11.1417 4.36411 -1.13384 0
M  V30 109 C 9.8037 4.57792 -1.48256 0
M  V30 110 C 12.1557 4.82223 -1.97764 0
M  V30 111 C 9.4837 5.22233 -2.67376 0
M  V30 112 C 11.8357 5.47977 -3.16076 0
M  V30 113 C 10.4997 5.67593 -3.51275 0
M  V30 114 H 9.7697 0.740975 -0.00606918 0
M  V30 115 H 12.4167 1.77683 -0.714207 0
M  V30 116 H 10.7217 3.80865 0.919172 0
M  V30 117 H 12.4187 3.97031 0.562782 0
M  V30 118 H 9.0087 4.2004 -0.852297 0
M  V30 119 H 13.1927 4.65493 -1.72132 0
M  V30 120 H 8.4487 5.35616 -2.94831 0
M  V30 121 H 12.6227 5.8244 -3.81755 0
M  V30 122 H 10.2497 6.17298 -4.43675 0
M  V30 123 N 11.8248 0.280983 1.55075 0
M  V30 124 C 12.7728 -0.619864 2.24188 0
M  V30 125 C 13.7668 -1.15315 1.24092 0
M  V30 126 O 14.9728 -1.1061 1.42005 0
M  V30 127 H 11.3478 -0.218459 0.719569 0
M  V30 128 H 13.3188 -0.0141831 2.98397 0
M  V30 129 C 12.0678 -1.7899 2.98091 0
M  V30 130 H 11.3908 -1.38874 3.74905 0
M  V30 131 H 12.8308 -2.39672 3.49762 0
M  V30 132 C 11.2898 -2.68192 2.03899 0
M  V30 133 O 11.8198 -3.6872 1.594 0
M  V30 134 N 10.0258 -2.35488 1.70275 0
M  V30 135 H 9.5728 -1.53787 2.06658 0
M  V30 136 H 9.5308 -2.95442 1.07524 0
M  V30 137 N 13.3029 -1.57598 0.00835791 0
M  V30 138 C 14.5329 -1.94931 -0.684496 0
M  V30 139 C 14.9409 -0.882233 -1.67372 0
M  V30 140 O 14.2839 0.146621 -1.83114 0
M  V30 141 C 14.3459 -3.283 -1.4649 0
M  V30 142 C 14.0099 -4.52548 -0.63634 0
M  V30 143 C 15.0069 -5.19839 0.0795586 0
M  V30 144 C 12.6919 -4.98942 -0.579849 0
M  V30 145 C 14.6859 -6.3183 0.840843 0
M  V30 146 C 12.3729 -6.10819 0.185155 0
M  V30 147 C 13.3709 -6.77121 0.894227 0
M  V30 148 O 13.0589 -7.86853 1.64673 0
M  V30 149 H 12.7909 -0.647249 -0.19505 0
M  V30 150 H 15.3449 -2.05318 0.0581272 0
M  V30 151 H 13.5749 -3.14345 -2.2522 0
M  V30 152 H 15.2639 -3.50685 -2.04389 0
M  V30 153 H 16.0299 -4.84979 0.0451202 0
M  V30 154 H 11.9089 -4.47155 -1.1213 0
M  V30 155 H 15.4529 -6.83513 1.39483 0
M  V30 156 H 11.3499 -6.4512 0.221384 0
M  V30 157 H 12.1179 -8.03412 1.56432 0
M  V30 158 N 14.781 0.264519 -1.55364 0
M  V30 159 C 15.729 1.34702 -1.89626 0
M  V30 160 C 16.723 1.50712 -0.773459 0
M  V30 161 O 17.929 1.52395 -0.957897 0
M  V30 162 H 14.304 0.450682 -0.601988 0
M  V30 163 H 16.275 1.0306 -2.80038 0
M  V30 164 C 15.024 2.6989 -2.19214 0
M  V30 165 H 14.347 2.58365 -3.05103 0
M  V30 166 H 15.787 3.44553 -2.47102 0
M  V30 167 C 14.246 3.21637 -1.00254 0
M  V30 168 O 14.776 4.00973 -0.241501 0
M  V30 169 N 12.982 2.7943 -0.797938 0
M  V30 170 H 12.529 2.15026 -1.4185 0
M  V30 171 H 12.487 3.144 -0.00363422 0
M  V30 172 N 16.2591 1.48442 0.529413 0
M  V30 173 C 17.5361 1.46978 1.29062 0
M  V30 174 C 17.9161 0.181769 2.10316 0
M  V30 175 O 17.2641 -0.836481 2.12639 0
M  V30 176 C 17.4741 2.7321 2.17157 0
M  V30 177 C 18.8221 3.21562 2.77278 0
M  V30 178 O 19.8461 2.74131 2.27444 0
M  V30 179 O 18.7051 4.04094 3.67927 0
M  V30 180 H 15.7991 0.587003 0.582543 0
M  V30 181 H 18.3451 1.60676 0.546021 0
M  V30 182 H 17.1171 3.58465 1.56903 0
M  V30 183 H 16.7401 2.62235 2.98862 0
M  V30 184 N 17.7372 -0.778329 1.37039 0
M  V30 185 C 19.1482 -1.35421 1.28523 0
M  V30 186 C 19.4992 -1.96075 -0.0700901 0
M  V30 187 O 18.6242 -1.93352 -0.971801 0
M  V30 188 C 19.2192 -2.46211 2.32735 0
M  V30 189 C 17.7782 -2.99585 2.27873 0
M  V30 190 C 16.9252 -1.72748 2.16918 0
M  V30 191 H 19.8762 -0.5791 1.47757 0
M  V30 192 H 19.8972 -3.2552 1.9702 0
M  V30 193 H 19.4092 -2.02036 3.31365 0
M  V30 194 H 17.5102 -3.48152 1.32745 0
M  V30 195 H 17.6232 -3.55646 3.21018 0
M  V30 196 H 15.9872 -1.95416 1.63354 0
M  V30 197 H 16.7702 -1.30686 3.17452 0
M  V30 198 N 19.2153 -1.21501 -1.00376 0
M  V30 199 C 20.4613 -1.03452 -1.74429 0
M  V30 200 C 20.7943 0.430764 -1.89362 0
M  V30 201 O 20.0693 1.31962 -1.42886 0
M  V30 202 C 20.3523 -1.73375 -3.15615 0
M  V30 203 C 20.2053 -3.27431 -3.08397 0
M  V30 204 C 21.5243 -1.47732 -4.14564 0
M  V30 205 H 18.6433 -0.377226 -0.633143 0
M  V30 206 H 21.2853 -1.49693 -1.17013 0
M  V30 207 H 19.4353 -1.34064 -3.64636 0
M  V30 208 H 21.1073 -3.76119 -2.67081 0
M  V30 209 H 19.3503 -3.5767 -2.45468 0
M  V30 210 H 20.0213 -3.71524 -4.08258 0
M  V30 211 H 22.4973 -1.8186 -3.74254 0
M  V30 212 H 21.3733 -1.99169 -5.11491 0
M  V30 213 H 21.6343 -0.407589 -4.40217 0
M  V30 214 N 20.6934 1.19889 -1.02296 0
M  V30 215 C 21.6414 2.24938 -0.592081 0
M  V30 216 C 22.6354 1.65257 0.372357 0
M  V30 217 O 23.8414 1.78371 0.241583 0
M  V30 218 H 20.2164 0.731787 -0.173182 0
M  V30 219 H 22.1874 2.58603 -1.48885 0
M  V30 220 C 20.9364 3.47668 0.047351 0
M  V30 221 H 20.2594 3.93875 -0.685772 0
M  V30 222 H 21.6994 4.22852 0.311862 0
M  V30 223 C 20.1584 3.11136 1.29212 0
M  V30 224 O 20.6884 3.2325 2.38479 0
M  V30 225 N 18.8944 2.65625 1.17863 0
M  V30 226 H 18.4414 2.55968 0.289493 0
M  V30 227 H 18.3994 2.41553 2.01245 0
M  V30 228 N 22.1715 0.800033 1.35784 0
M  V30 229 C 23.4485 0.30088 1.93272 0
M  V30 230 C 23.8285 -1.20857 1.73081 0
M  V30 231 O 23.1765 -2.00502 1.09596 0
M  V30 232 C 23.3865 0.70511 3.41803 0
M  V30 233 C 24.7345 0.690871 4.18942 0
M  V30 234 O 25.7585 0.646244 3.50289 0
M  V30 235 O 24.6175 0.74332 5.41421 0
M  V30 236 H 21.7115 0.0771605 0.823393 0
M  V30 237 H 24.2575 0.88329 1.449 0
M  V30 238 H 23.0295 1.74571 3.50201 0
M  V30 239 H 22.6525 0.0971541 3.97481 0
M  V30 240 N 23.6496 -1.47581 0.552962 0
M  V30 241 C 24.9266 -1.95563 -0.0381515 0
M  V30 242 C 25.3066 -1.49552 -1.48988 0
M  V30 243 O 24.6546 -0.732414 -2.16444 0
M  V30 244 C 24.8646 -3.48848 0.102919 0
M  V30 245 C 26.2126 -4.24577 -0.0446082 0
M  V30 246 O 27.2366 -3.56187 0.0302548 0
M  V30 247 O 26.0956 -5.46116 -0.204923 0
M  V30 248 H 23.1896 -0.824321 -0.0665067 0
M  V30 249 H 25.7356 -1.58001 0.619186 0
M  V30 250 H 24.5076 -3.75129 1.11328 0
M  V30 251 H 24.1306 -3.93165 -0.592224 0
M  V30 252 N 25.1277 -0.289203 -1.54924 0
M  V30 253 C 26.3557 0.326463 -2.04308 0
M  V30 254 C 26.7707 1.48413 -1.16701 0
M  V30 255 O 26.1277 1.81507 -0.190087 0
M  V30 256 C 26.1787 0.794014 -3.52672 0
M  V30 257 O 25.8997 -0.317564 -4.36948 0
M  V30 258 C 27.4007 1.47605 -4.18004 0
M  V30 259 H 24.6207 0.0726272 -0.667058 0
M  V30 260 H 27.1647 -0.425401 -2.00026 0
M  V30 261 H 25.3197 1.49593 -3.57352 0
M  V30 262 H 25.7337 0.0443186 -5.24481 0
M  V30 263 H 27.2077 1.75447 -5.23376 0
M  V30 264 H 27.6847 2.41224 -3.67025 0
M  V30 265 H 28.2907 0.81762 -4.17367 0
M  V30 266 N 26.6058 1.57591 -0.0167156 0
M  V30 267 C 27.8548 1.90461 0.663877 0
M  V30 268 C 28.1678 0.893515 1.73999 0
M  V30 269 O 29.3738 1.11302 2.47637 0
M  V30 270 C 27.8298 3.38155 1.23204 0
M  V30 271 C 27.4378 4.47597 0.189866 0
M  V30 272 C 29.1818 3.80111 1.88986 0
M  V30 273 C 27.0888 5.86379 0.768964 0
M  V30 274 H 26.0188 0.710738 0.251729 0
M  V30 275 H 28.6698 1.83326 -0.0799926 0
M  V30 276 H 27.0518 3.40182 2.02712 0
M  V30 277 H 28.2258 4.57112 -0.581846 0
M  V30 278 H 26.5408 4.14766 -0.368475 0
M  V30 279 H 29.1378 4.81145 2.33247 0
M  V30 280 H 29.4808 3.14511 2.72743 0
M  V30 281 H 30.0138 3.80454 1.16187 0
M  V30 282 H 26.7528 6.55493 -0.0301957 0
M  V30 283 H 26.2728 5.80496 1.50945 0
M  V30 284 H 27.9518 6.34563 1.26251 0
M  V30 285 N 28.0839 -0.256276 1.55502 0
M  V30 286 C 29.0139 -1.32102 1.92539 0
M  V30 287 C 29.9949 -1.50684 0.789194 0
M  V30 288 O 31.1799 -1.63449 1.04872 0
M  V30 289 C 28.3099 -2.67752 2.21192 0
M  V30 290 C 27.2639 -2.63878 3.36975 0
M  V30 291 C 26.5899 -4.03236 3.51147 0
M  V30 292 C 27.8899 -2.21682 4.72921 0
M  V30 293 H 29.5839 -1.01351 2.81724 0
M  V30 294 H 27.1299 -0.486105 1.35547 0
M  V30 295 H 29.0829 -3.42365 2.45691 0
M  V30 296 H 27.8069 -3.0012 1.28824 0
M  V30 297 H 26.4659 -1.91722 3.12471 0
M  V30 298 H 26.1139 -4.32854 2.56216 0
M  V30 299 H 25.8139 -4.01535 4.29003 0
M  V30 300 H 27.3379 -4.79563 3.77957 0
M  V30 301 H 28.7519 -2.86023 4.96854 0
M  V30 302 H 27.1489 -2.3111 5.53812 0
M  V30 303 H 28.2189 -1.16833 4.70615 0
M  V30 304 N 29.562 -1.4872 -0.521534 0
M  V30 305 C 30.792 -1.6061 -1.29954 0
M  V30 306 C 31.2 -0.268728 -1.87282 0
M  V30 307 O 30.543 0.753221 -1.67548 0
M  V30 308 C 30.605 -2.60013 -2.48261 0
M  V30 309 C 30.269 -4.04874 -2.11957 0
M  V30 310 C 31.266 -4.92304 -1.67132 0
M  V30 311 C 28.951 -4.5047 -2.22221 0
M  V30 312 C 30.945 -6.2336 -1.33047 0
M  V30 313 C 28.632 -5.81544 -1.87748 0
M  V30 314 C 29.63 -6.67812 -1.43234 0
M  V30 315 O 29.318 -7.96446 -1.09217 0
M  V30 316 H 29.05 -0.544116 -0.401141 0
M  V30 317 H 31.604 -1.95339 -0.634958 0
M  V30 318 H 29.834 -2.20422 -3.17728 0
M  V30 319 H 31.523 -2.61648 -3.10315 0
M  V30 320 H 32.289 -4.58312 -1.58665 0
M  V30 321 H 28.168 -3.83504 -2.55823 0
M  V30 322 H 31.712 -6.90649 -0.982299 0
M  V30 323 H 27.609 -6.15069 -1.95858 0
M  V30 324 H 28.377 -8.09275 -1.22542 0
M  V30 325 N 31.0401 0.771051 -1.3745 0
M  V30 326 C 31.9731 1.89166 -1.27638 0
M  V30 327 C 32.9511 1.61842 -0.156782 0
M  V30 328 O 34.1351 1.85569 -0.331111 0
M  V30 329 C 31.2621 3.24405 -0.973621 0
M  V30 330 C 30.3081 3.70638 -2.1102 0
M  V30 331 S 31.1411 3.84228 -3.73 0
M  V30 332 C 32.2971 5.22313 -3.44876 0
M  V30 333 H 32.5301 1.972 -2.22485 0
M  V30 334 H 30.0631 0.932224 -1.23081 0
M  V30 335 H 32.0211 4.02514 -0.805766 0
M  V30 336 H 30.6821 3.14071 -0.0426279 0
M  V30 337 H 29.8751 4.68685 -1.85338 0
M  V30 338 H 29.4771 2.99632 -2.23822 0
M  V30 339 H 31.7691 6.07505 -2.99908 0
M  V30 340 H 32.7121 5.53008 -4.42253 0
M  V30 341 H 33.1201 4.90284 -2.79789 0
M  V30 342 N 32.5182 1.22032 0.997298 0
M  V30 343 C 33.4502 0.944263 2.08845 0
M  V30 344 C 34.4632 -0.0754663 1.62625 0
M  V30 345 O 35.6522 0.157994 1.77799 0
M  V30 346 C 32.7522 0.397723 3.36558 0
M  V30 347 C 31.9252 1.47362 4.11829 0
M  V30 348 C 30.9842 0.934951 5.17827 0
M  V30 349 O 30.0102 1.62016 5.45655 0
M  V30 350 N 31.2122 -0.245895 5.79979 0
M  V30 351 H 33.9772 1.88363 2.33109 0
M  V30 352 H 31.5382 1.12661 1.16272 0
M  V30 353 H 33.5302 0.0227771 4.04694 0
M  V30 354 H 32.1002 -0.446646 3.09393 0
M  V30 355 H 31.3202 2.02208 3.38386 0
M  V30 356 H 32.6082 2.19764 4.58891 0
M  V30 357 H 32.0062 -0.819475 5.59733 0
M  V30 358 H 30.5632 -0.562272 6.4937 0
M  V30 359 N 33.9963 -1.19345 1.0293 0
M  V30 360 C 35.2453 -1.88363 0.721256 0
M  V30 361 C 35.5583 -1.80514 -0.753254 0
M  V30 362 O 36.7643 -2.44788 -1.17436 0
M  V30 363 C 35.2203 -3.37872 1.23978 0
M  V30 364 C 34.8283 -3.54278 2.74211 0
M  V30 365 C 36.5723 -4.12365 1.00775 0
M  V30 366 C 34.4793 -4.97682 3.19479 0
M  V30 367 H 33.4093 -0.705484 0.266098 0
M  V30 368 H 36.0603 -1.34928 1.24365 0
M  V30 369 H 34.4423 -3.90707 0.6453 0
M  V30 370 H 35.6163 -3.11769 3.39318 0
M  V30 371 H 33.9313 -2.93174 2.95699 0
M  V30 372 H 36.5283 -5.18119 1.32123 0
M  V30 373 H 36.8713 -4.16263 -0.0554308 0
M  V30 374 H 37.4043 -3.65668 1.56625 0
M  V30 375 H 34.1433 -4.98945 4.25128 0
M  V30 376 H 33.6633 -5.4095 2.591 0
M  V30 377 H 35.3423 -5.66337 3.12845 0
M  V30 378 N 35.4744 -0.807222 -1.35358 0
M  V30 379 C 36.8854 -0.44876 -1.81226 0
M  V30 380 C 37.2364 1.02929 -1.67033 0
M  V30 381 O 36.3614 1.79991 -1.20133 0
M  V30 382 C 36.9564 -0.807774 -3.2903 0
M  V30 383 C 35.5154 -0.501901 -3.73039 0
M  V30 384 C 34.6624 -1.03304 -2.57339 0
M  V30 385 H 37.6134 -0.998808 -1.23327 0
M  V30 386 H 37.6344 -0.10554 -3.80354 0
M  V30 387 H 37.1464 -1.88357 -3.39328 0
M  V30 388 H 35.2474 0.565128 -3.68289 0
M  V30 389 H 35.3604 -1.03497 -4.67787 0
M  V30 390 H 33.7244 -0.455339 -2.50597 0
M  V30 391 H 34.5074 -2.11496 -2.70415 0
M  V30 392 N 36.9525 1.47285 -0.560781 0
M  V30 393 C 38.1825 2.06555 -0.0429638 0
M  V30 394 C 38.5905 1.41339 1.25777 0
M  V30 395 O 37.9335 0.505182 1.76617 0
M  V30 396 C 37.9955 3.58827 0.219887 0
M  V30 397 C 37.6595 4.46105 -0.991944 0
M  V30 398 C 38.6565 4.84 -1.89843 0
M  V30 399 C 36.3415 4.87567 -1.20762 0
M  V30 400 C 38.3355 5.6216 -3.00425 0
M  V30 401 C 36.0225 5.65491 -2.31653 0
M  V30 402 C 37.0205 6.02699 -3.21315 0
M  V30 403 O 36.7085 6.79052 -4.30283 0
M  V30 404 H 36.4405 0.674537 -0.0444468 0
M  V30 405 H 38.9945 1.90225 -0.774818 0
M  V30 406 H 37.2245 3.73383 1.00609 0
M  V30 407 H 38.9135 4.00103 0.683522 0
M  V30 408 H 39.6795 4.52564 -1.74387 0
M  V30 409 H 35.5585 4.5807 -0.518893 0
M  V30 410 H 39.1025 5.9112 -3.70436 0
M  V30 411 H 34.9995 5.9634 -2.47081 0
M  V30 412 H 35.7675 6.9745 -4.28376 0
M  V30 413 N 38.4306 0.297415 1.54768 0
M  V30 414 C 39.3406 -0.58983 2.27064 0
M  V30 415 C 40.3566 -1.15144 1.30453 0
M  V30 416 O 41.5326 -1.17699 1.63428 0
M  V30 417 C 38.5976 -1.74714 2.9946 0
M  V30 418 C 37.6586 -1.21997 4.11601 0
M  V30 419 C 36.8916 -2.32212 4.80535 0
M  V30 420 O 37.1146 -3.52036 4.48806 0
M  V30 421 O 36.0486 -1.99106 5.68014 0
M  V30 422 H 39.8746 -0.00348199 3.037 0
M  V30 423 H 37.4596 0.0640035 1.49263 0
M  V30 424 H 39.3416 -2.42147 3.44881 0
M  V30 425 H 38.0166 -2.32016 2.25722 0
M  V30 426 H 36.9236 -0.511458 3.70587 0
M  V30 427 H 38.2566 -0.692419 4.87305 0
M  V30 428 N 39.9087 -1.5758 0.0250728 0
M  V30 429 C 40.8187 -2.1343 -0.973905 0
M  V30 430 C 41.8347 -1.08556 -1.35984 0
M  V30 431 O 43.0107 -1.40592 -1.44207 0
M  V30 432 C 40.0757 -2.64703 -2.23904 0
M  V30 433 C 39.1367 -3.84276 -1.91391 0
M  V30 434 C 38.3697 -4.33095 -3.11873 0
M  V30 435 O 38.5927 -3.81107 -4.24398 0
M  V30 436 O 37.5267 -5.24984 -2.94406 0
M  V30 437 H 41.3527 -2.99057 -0.529036 0
M  V30 438 H 38.9377 -1.48118 -0.195288 0
M  V30 439 H 40.8197 -2.97769 -2.98181 0
M  V30 440 H 39.4947 -1.82161 -2.6758 0
M  V30 441 H 38.4017 -3.56143 -1.14511 0
M  V30 442 H 39.7347 -4.67968 -1.52534 0
M  V30 443 N 41.3868 0.248026 -1.55636 0
M  V30 444 C 42.3338 1.30707 -1.90222 0
M  V30 445 C 43.3038 1.47881 -0.756332 0
M  V30 446 O 44.4888 1.61883 -1.00988 0
M  V30 447 C 41.6288 2.65769 -2.20138 0
M  V30 448 C 40.7418 2.56612 -3.47526 0
M  V30 449 C 39.8768 3.8402 -3.67017 0
M  V30 450 C 38.9158 3.69476 -4.8801 0
M  V30 451 N 38.0528 4.88774 -5.04029 0
M  V30 452 H 42.8928 1.00512 -2.80538 0
M  V30 453 H 40.4298 0.485055 -1.38873 0
M  V30 454 H 42.3878 3.44386 -2.35487 0
M  V30 455 H 41.0178 2.94115 -1.33027 0
M  V30 456 H 40.0698 1.69571 -3.40514 0
M  V30 457 H 41.3818 2.41774 -4.36287 0
M  V30 458 H 40.5358 4.7108 -3.8232 0
M  V30 459 H 39.2748 4.01754 -2.76487 0
M  V30 460 H 38.2798 2.80799 -4.72686 0
M  V30 461 H 39.5048 3.53238 -5.8 0
M  V30 462 H 37.4508 5.0687 -4.16435 0
M  V30 463 H 37.3678 4.76562 -5.86877 0
M  V30 464 H 38.6358 5.77335 -5.23741 0
M  V30 465 N 42.8649 1.48995 0.513639 0
M  V30 466 C 44.0899 1.61792 1.29762 0
M  V30 467 C 44.5149 0.284475 1.85936 0
M  V30 468 O 43.8729 -0.746185 1.65232 0
M  V30 469 C 43.9209 2.67993 2.41272 0
M  V30 470 O 43.0249 2.26287 3.44772 0
M  V30 471 H 42.3659 0.541963 0.38363 0
M  V30 472 H 44.8959 1.95097 0.616307 0
M  V30 473 H 44.9059 2.89772 2.87221 0
M  V30 474 H 43.5809 3.64791 1.9975 0
M  V30 475 H 42.1579 2.14788 3.04829 0
M  V30 476 N 44.343 -0.763751 1.37857 0
M  V30 477 C 45.29 -1.87726 1.34267 0
M  V30 478 C 46.26 -1.64807 0.206879 0
M  V30 479 O 47.445 -1.86613 0.397508 0
M  V30 480 C 44.585 -3.24896 1.16346 0
M  V30 481 C 43.698 -3.59716 2.39225 0
M  V30 482 C 42.833 -4.86137 2.14114 0
M  V30 483 C 41.872 -5.13711 3.32817 0
M  V30 484 N 41.009 -6.31323 3.07206 0
M  V30 485 H 45.849 -1.90129 2.29466 0
M  V30 486 H 43.386 -0.929433 1.14017 0
M  V30 487 H 45.344 -4.04036 1.03975 0
M  V30 488 H 43.974 -3.21847 0.247909 0
M  V30 489 H 43.026 -2.75498 2.62307 0
M  V30 490 H 44.338 -3.76027 3.27728 0
M  V30 491 H 43.492 -5.73198 1.9882 0
M  V30 492 H 42.231 -4.71945 1.22961 0
M  V30 493 H 41.236 -4.25123 3.48641 0
M  V30 494 H 42.461 -5.29807 4.24832 0
M  V30 495 H 40.407 -6.18474 2.1869 0
M  V30 496 H 40.324 -6.48087 3.89254 0
M  V30 497 H 41.592 -7.213 2.95546 0
M  V30 498 N 45.8211 -1.22559 -0.990812 0
M  V30 499 C 46.7681 -0.997519 -2.0813 0
M  V30 500 C 47.7381 0.0814702 -1.659 0
M  V30 501 O 48.9231 -0.0685424 -1.90677 0
M  V30 502 C 46.0631 -0.583615 -3.40129 0
M  V30 503 C 45.1761 -1.7336 -3.9569 0
M  V30 504 C 44.3111 -1.26748 -5.15857 0
M  V30 505 C 43.3501 -2.38888 -5.63559 0
M  V30 506 N 42.4871 -1.93308 -6.74964 0
M  V30 507 H 47.3271 -1.93099 -2.26973 0
M  V30 508 H 44.8641 -0.962114 -1.11273 0
M  V30 509 H 46.8221 -0.324801 -4.15934 0
M  V30 510 H 45.4521 0.312845 -3.2128 0
M  V30 511 H 44.5041 -2.10669 -3.16738 0
M  V30 512 H 45.8161 -2.57704 -4.27071 0
M  V30 513 H 44.9701 -0.966173 -5.98957 0
M  V30 514 H 43.7091 -0.394272 -4.86104 0
M  V30 515 H 42.7141 -2.69805 -4.79046 0
M  V30 516 H 43.9391 -3.26728 -5.95336 0
M  V30 517 H 41.8851 -1.08352 -6.4699 0
M  V30 518 H 41.8021 -2.71217 -7.05675 0
M  V30 519 H 43.0701 -1.66252 -7.61564 0
M  V30 520 N 47.2992 1.18797 -1.03562 0
M  V30 521 C 48.5292 1.92319 -0.754773 0
M  V30 522 C 48.9372 1.7612 0.691248 0
M  V30 523 O 48.2802 1.08491 1.48241 0
M  V30 524 C 48.3422 3.44284 -1.03484 0
M  V30 525 C 48.0062 3.84258 -2.47376 0
M  V30 526 C 49.0032 3.88459 -3.45537 0
M  V30 527 C 46.6882 4.15701 -2.81954 0
M  V30 528 C 48.6822 4.23545 -4.76328 0
M  V30 529 C 46.3692 4.50458 -4.12954 0
M  V30 530 C 47.3672 4.54356 -5.09951 0
M  V30 531 O 47.0552 4.88305 -6.38603 0
M  V30 532 H 46.7872 0.617527 -0.275021 0
M  V30 533 H 49.3412 1.51683 -1.38497 0
M  V30 534 H 47.5712 3.85135 -0.347513 0
M  V30 535 H 49.2602 3.99049 -0.7426 0
M  V30 536 H 50.0262 3.6431 -3.20162 0
M  V30 537 H 45.9052 4.11847 -2.0713 0
M  V30 538 H 49.4492 4.26502 -5.52035 0
M  V30 539 H 45.3462 4.74067 -4.38099 0
M  V30 540 H 46.1142 5.06227 -6.43177 0
M  V30 541 N 48.7773 0.814389 1.34928 0
M  V30 542 C 50.0073 0.41054 2.0248 0
M  V30 543 C 50.4153 -0.985625 1.61499 0
M  V30 544 O 49.7583 -1.64781 0.811976 0
M  V30 545 C 49.8203 0.423384 3.56998 0
M  V30 546 C 49.4843 1.77141 4.21272 0
M  V30 547 C 50.4813 2.73093 4.42398 0
M  V30 548 C 48.1663 2.05755 4.58225 0
M  V30 549 C 50.1603 3.95838 4.9959 0
M  V30 550 C 47.8473 3.28762 5.1513 0
M  V30 551 C 48.8453 4.23621 5.35755 0
M  V30 552 O 48.5333 5.44456 5.91458 0
M  V30 553 H 48.2653 0.163997 0.655806 0
M  V30 554 H 50.8193 1.10155 1.73364 0
M  V30 555 H 49.0493 -0.324276 3.85338 0
M  V30 556 H 50.7383 0.0407683 4.0588 0
M  V30 557 H 51.5043 2.5228 4.14222 0
M  V30 558 H 47.3833 1.32727 4.4148 0
M  V30 559 H 50.9273 4.69891 5.15605 0
M  V30 560 H 46.8243 3.49443 5.42734 0
M  V30 561 H 47.5923 5.4586 6.09901 0
M  V30 562 N 50.2554 -1.46986 0.568584 0
M  V30 563 C 51.2024 -2.30153 -0.172707 0
M  V30 564 C 52.1724 -1.39759 -0.897586 0
M  V30 565 O 53.3574 -1.68716 -0.891044 0
M  V30 566 C 50.4974 -3.23952 -1.1895 0
M  V30 567 C 49.6104 -4.29441 -0.469517 0
M  V30 568 C 48.7454 -5.1038 -1.47259 0
M  V30 569 C 47.7844 -6.07632 -0.738225 0
M  V30 570 N 46.9214 -6.8149 -1.68868 0
M  V30 571 H 51.7614 -2.93019 0.542596 0
M  V30 572 H 49.2984 -1.44422 0.279401 0
M  V30 573 H 51.2564 -3.76767 -1.79173 0
M  V30 574 H 49.8864 -2.62926 -1.87269 0
M  V30 575 H 48.9384 -3.79594 0.247467 0
M  V30 576 H 50.2504 -4.98689 0.105241 0
M  V30 577 H 49.4044 -5.67402 -2.14803 0
M  V30 578 H 48.1434 -4.4106 -2.08128 0
M  V30 579 H 47.1484 -5.49778 -0.0489293 0
M  V30 580 H 48.3734 -6.78966 -0.135129 0
M  V30 581 H 46.3194 -6.14891 -2.28573 0
M  V30 582 H 46.2364 -7.46948 -1.16636 0
M  V30 583 H 47.5044 -7.43078 -2.3549 0
M  V30 584 N 51.7335 -0.305618 -1.54608 0
M  V30 585 C 52.6965 0.555591 -2.22364 0
M  V30 586 C 53.6965 1.05768 -1.21119 0
M  V30 587 O 54.8865 0.952972 -1.45822 0
M  V30 588 C 52.0185 1.76974 -2.91364 0
M  V30 589 H 53.2115 -0.0364572 -2.99878 0
M  V30 590 H 50.7645 -0.0565007 -1.56198 0
M  V30 591 H 51.4995 2.40151 -2.17941 0
M  V30 592 H 51.2845 1.41732 -3.65588 0
M  V30 593 H 52.7745 2.38148 -3.43038 0
M  V30 594 N 53.2116 1.57565 -0.0334293 0
M  V30 595 C 54.4586 1.91978 0.644272 0
M  V30 596 C 54.7866 0.910231 1.71887 0
M  V30 597 O 54.0416 -0.0801961 1.95536 0
M  V30 598 C 54.3406 3.33112 1.29504 0
M  V30 599 C 54.0066 4.49537 0.350388 0
M  V30 600 C 52.6686 4.81115 0.0903974 0
M  V30 601 C 55.0206 5.20347 -0.298032 0
M  V30 602 C 52.3486 5.8086 -0.825746 0
M  V30 603 C 54.7006 6.2107 -1.20226 0
M  V30 604 C 53.3646 6.51088 -1.4711 0
M  V30 605 H 52.6346 0.702496 0.235756 0
M  V30 606 H 55.2816 1.91259 -0.0961176 0
M  V30 607 H 53.5866 3.30113 2.11028 0
M  V30 608 H 55.2836 3.57011 1.82603 0
M  V30 609 H 51.8736 4.24883 0.563205 0
M  V30 610 H 56.0576 4.96178 -0.110234 0
M  V30 611 H 51.3136 6.02461 -1.04169 0
M  V30 612 H 55.4876 6.75057 -1.71086 0
M  V30 613 H 53.1146 7.28193 -2.18264 0
M  V30 614 N 54.6897 -0.239769 1.55765 0
M  V30 615 C 55.5997 -1.31831 1.94056 0
M  V30 616 C 56.6157 -1.52275 0.841925 0
M  V30 617 O 57.7917 -1.65759 1.14394 0
M  V30 618 C 54.8567 -2.65156 2.23368 0
M  V30 619 C 53.9177 -2.53173 3.46701 0
M  V30 620 C 53.1507 -3.8014 3.74606 0
M  V30 621 O 53.3737 -4.82343 3.04469 0
M  V30 622 O 52.3077 -3.78344 4.68123 0
M  V30 623 H 56.1337 -1.02347 2.85935 0
M  V30 624 H 53.7187 -0.441123 1.42739 0
M  V30 625 H 55.6007 -3.43929 2.43497 0
M  V30 626 H 54.2757 -2.94358 1.34666 0
M  V30 627 H 53.1827 -1.72662 3.31871 0
M  V30 628 H 54.5157 -2.28915 4.35728 0
M  V30 629 N 56.1678 -1.49265 -0.50573 0
M  V30 630 C 57.4168 -1.57761 -1.25675 0
M  V30 631 C 57.7298 -0.267371 -1.93764 0
M  V30 632 O 58.9358 -0.230827 -2.70517 0
M  V30 633 C 57.3918 -2.78332 -2.28165 0
M  V30 634 C 56.9998 -4.16096 -1.66037 0
M  V30 635 C 58.7438 -2.96155 -3.04125 0
M  V30 636 C 56.6508 -5.27895 -2.6661 0
M  V30 637 H 55.5808 -0.587391 -0.472745 0
M  V30 638 H 58.2318 -1.75644 -0.53118 0
M  V30 639 H 56.6138 -2.53934 -3.03865 0
M  V30 640 H 57.7878 -4.50612 -0.963622 0
M  V30 641 H 56.1028 -4.03591 -1.02484 0
M  V30 642 H 58.6998 -3.76849 -3.79327 0
M  V30 643 H 59.0428 -2.06534 -3.61455 0
M  V30 644 H 59.5758 -3.2057 -2.35541 0
M  V30 645 H 56.3148 -6.1956 -2.14068 0
M  V30 646 H 55.8348 -4.97839 -3.34539 0
M  V30 647 H 57.5138 -5.57031 -3.29129 0
M  V30 648 N 57.6459 0.756429 -1.3826 0
M  V30 649 C 58.5789 1.87802 -1.29637 0
M  V30 650 C 59.5569 1.61667 -0.173939 0
M  V30 651 O 60.7409 1.85208 -0.350775 0
M  V30 652 C 57.8679 3.23354 -1.00797 0
M  V30 653 C 56.9139 3.68379 -2.14939 0
M  V30 654 S 57.7469 3.8025 -3.77054 0
M  V30 655 C 58.9029 5.18626 -3.50396 0
M  V30 656 H 59.1359 1.94829 -2.24564 0
M  V30 657 H 56.6689 0.919117 -1.24063 0
M  V30 658 H 58.6269 4.01637 -0.848413 0
M  V30 659 H 57.2879 3.14008 -0.0759369 0
M  V30 660 H 56.4809 4.66693 -1.90299 0
M  V30 661 H 56.0829 2.97242 -2.26988 0
M  V30 662 H 58.3749 6.04289 -3.06334 0
M  V30 663 H 59.3179 5.48286 -4.48094 0
M  V30 664 H 59.7259 4.87289 -2.84973 0
M  V30 665 N 59.124 1.23083 0.984299 0
M  V30 666 C 60.54 0.992637 1.24975 0
M  V30 667 C 60.74 -0.308618 1.99123 0
M  V30 668 O 59.796 -1.02905 2.30579 0
M  V30 669 C 61.109 2.19698 2.05312 0
M  V30 670 C 62.657 2.24147 2.18465 0
M  V30 671 C 63.132 3.44157 3.02192 0
M  V30 672 N 64.623 3.44372 3.09777 0
M  V30 673 C 65.358 4.33886 3.74874 0
M  V30 674 N 64.854 5.3363 4.41827 0
M  V30 675 N 66.647 4.21639 3.71721 0
M  V30 676 H 58.798 2.06731 0.487453 0
M  V30 677 H 61.061 0.906339 0.277944 0
M  V30 678 H 60.767 3.1411 1.58201 0
M  V30 679 H 60.641 2.20465 3.06064 0
M  V30 680 H 63.028 1.30277 2.64786 0
M  V30 681 H 63.109 2.27415 1.17115 0
M  V30 682 H 62.753 4.38332 2.56568 0
M  V30 683 H 62.683 3.3813 4.03702 0
M  V30 684 H 65.174 2.72201 2.62135 0
M  V30 685 H 65.487 5.98196 4.89266 0
M  V30 686 H 63.832 5.37534 4.40548 0
M  V30 687 H 67.023 3.42962 3.18582 0
M  V30 688 H 67.196 4.91604 4.22173 0
M  V30 689 N 60.6021 -1.18246 1.0419 0
M  V30 690 C 61.5501 -2.23968 0.627792 0
M  V30 691 C 62.5441 -1.65828 -0.346019 0
M  V30 692 O 63.7501 -1.78733 -0.213175 0
M  V30 693 H 60.1251 -0.728939 0.184802 0
M  V30 694 H 62.0961 -2.56202 1.52981 0
M  V30 695 C 60.8451 -3.47699 0.00796591 0
M  V30 696 H 60.1681 -3.92734 0.748347 0
M  V30 697 H 61.6081 -4.23294 -0.24455 0
M  V30 698 C 60.0671 -3.13153 -1.24246 0
M  V30 699 O 60.5971 -3.27003 -2.33307 0
M  V30 700 N 58.8031 -2.67467 -1.13622 0
M  V30 701 H 58.3501 -2.56396 -0.248734 0
M  V30 702 H 58.3081 -2.44724 -1.97377 0
M  V30 703 N 62.0802 -0.821533 -1.34494 0
M  V30 704 C 63.3262 -0.409552 -1.98622 0
M  V30 705 C 63.6592 1.0244 -1.64984 0
M  V30 706 O 62.9342 1.71325 -0.920758 0
M  V30 707 C 63.2172 -0.610458 -3.54888 0
M  V30 708 C 63.0702 -2.09043 -3.98273 0
M  V30 709 C 64.3892 -0.0455379 -4.40076 0
M  V30 710 H 61.5082 -0.15028 -0.721516 0
M  V30 711 H 64.1502 -1.03384 -1.59411 0
M  V30 712 H 62.3002 -0.079044 -3.8842 0
M  V30 713 H 63.9722 -2.68537 -3.75081 0
M  V30 714 H 62.2152 -2.58139 -3.48635 0
M  V30 715 H 62.8862 -2.18182 -5.07051 0
M  V30 716 H 65.3622 -0.499557 -4.1309 0
M  V30 717 H 64.2382 -0.215922 -5.48475 0
M  V30 718 H 64.4992 1.04939 -4.29465 0
M  V30 719 N 63.5583 1.46682 -0.576371 0
M  V30 720 C 64.8043 2.03287 -0.0679305 0
M  V30 721 C 65.1593 1.44063 1.27529 0
M  V30 722 O 64.4523 0.593973 1.82161 0
M  V30 723 C 64.6463 3.57345 0.062886 0
M  V30 724 C 64.4753 4.31509 -1.26611 0
M  V30 725 C 63.2453 4.70664 -1.83856 0
M  V30 726 C 65.4433 4.65444 -2.18783 0
M  V30 727 N 63.4253 5.29552 -3.10561 0
M  V30 728 C 64.7963 5.24835 -3.30072 0
M  V30 729 C 66.8513 4.47375 -2.18542 0
M  V30 730 C 65.5543 5.68063 -4.41244 0
M  V30 731 C 67.5803 4.91614 -3.28739 0
M  V30 732 C 66.9423 5.51071 -4.38748 0
M  V30 733 H 63.0413 0.779083 -0.0674836 0
M  V30 734 H 65.6253 1.78918 -0.767877 0
M  V30 735 H 63.7963 3.8144 0.731988 0
M  V30 736 H 65.5283 4.00592 0.575134 0
M  V30 737 H 62.2833 4.53224 -1.37424 0
M  V30 738 H 62.7073 5.63523 -3.75195 0
M  V30 739 H 67.3493 4.00747 -1.34765 0
M  V30 740 H 65.0673 6.13672 -5.25768 0
M  V30 741 H 68.6533 4.79389 -3.29662 0
M  V30 742 H 67.5333 5.84678 -5.22611 0
M  V30 743 N 65.0364 0.313813 1.54444 0
M  V30 744 C 66.2854 -0.292519 1.99568 0
M  V30 745 C 66.5984 -1.54011 1.20582 0
M  V30 746 O 67.8044 -2.22183 1.56035 0
M  V30 747 C 66.2604 -0.571752 3.55329 0
M  V30 748 C 65.8684 0.658229 4.43138 0
M  V30 749 C 67.6124 -1.13857 4.08946 0
M  V30 750 C 65.5194 0.351439 5.90355 0
M  V30 751 H 64.4494 -0.113079 0.745472 0
M  V30 752 H 67.1004 0.424518 1.78522 0
M  V30 753 H 65.4824 -1.34872 3.72325 0
M  V30 754 H 66.6564 1.43403 4.37918 0
M  V30 755 H 64.9714 1.14458 4.0036 0
M  V30 756 H 67.5684 -1.38257 5.16516 0
M  V30 757 H 67.9114 -2.08489 3.6033 0
M  V30 758 H 68.4444 -0.423015 3.95544 0
M  V30 759 H 65.1834 1.26667 6.43145 0
M  V30 760 H 64.7034 -0.386842 5.98551 0
M  V30 761 H 66.3824 -0.0423134 6.46986 0
M  V30 762 N 66.5145 -1.57545 0.0417849 0
M  V30 763 C 67.7635 -1.91494 -0.633492 0
M  V30 764 C 68.0765 -0.921084 -1.72556 0
M  V30 765 O 69.2825 -1.15228 -2.45835 0
M  V30 766 C 67.7385 -3.40072 -1.17808 0
M  V30 767 C 67.3465 -4.47843 -0.118633 0
M  V30 768 C 69.0905 -3.8307 -1.82915 0
M  V30 769 C 66.9975 -5.87529 -0.675578 0
M  V30 770 H 65.9275 -0.714653 -0.24039 0
M  V30 771 H 68.5785 -1.83175 0.109148 0
M  V30 772 H 66.9605 -3.43364 -1.97274 0
M  V30 773 H 68.1345 -4.56128 0.654494 0
M  V30 774 H 66.4495 -4.14128 0.434414 0
M  V30 775 H 69.0465 -4.84794 -2.25563 0
M  V30 776 H 69.3895 -3.1881 -2.67705 0
M  V30 777 H 69.9225 -3.82255 -1.10119 0
M  V30 778 H 66.6615 -6.55362 0.134475 0
M  V30 779 H 66.1815 -5.82824 -1.4169 0
M  V30 780 H 67.8605 -6.36491 -1.1614 0
M  V30 781 N 67.9926 0.231505 -1.5589 0
M  V30 782 C 69.4036 0.799327 -1.68724 0
M  V30 783 C 69.7546 1.85398 -0.642022 0
M  V30 784 O 68.8796 2.1539 0.208784 0
M  V30 785 C 69.4746 1.45664 -3.05888 0
M  V30 786 C 68.0336 1.97197 -3.20609 0
M  V30 787 C 67.1806 0.828552 -2.64632 0
M  V30 788 H 70.1316 0.00702616 -1.58698 0
M  V30 789 H 70.1526 2.32517 -3.01191 0
M  V30 790 H 69.6646 0.688808 -3.81939 0
M  V30 791 H 67.7656 2.76813 -2.4941 0
M  V30 792 H 67.8786 2.15878 -4.27707 0
M  V30 793 H 66.2426 1.23321 -2.22854 0
M  V30 794 H 67.0256 0.0735544 -3.43221 0
M  V30 795 N 69.4707 1.49531 0.497807 0
M  V30 796 C 70.3807 1.69176 1.62532 0
M  V30 797 C 71.3967 0.5744 1.64246 0
M  V30 798 O 72.5727 0.849497 1.82608 0
M  V30 799 C 69.6377 1.75695 2.98885 0
M  V30 800 C 68.6987 2.9929 3.07773 0
M  V30 801 C 67.9317 3.05488 4.37622 0
M  V30 802 O 68.1547 2.19192 5.26603 0
M  V30 803 O 67.0887 3.9798 4.51548 0
M  V30 804 H 70.9147 2.647 1.48887 0
M  V30 805 H 68.4997 1.3331 0.674441 0
M  V30 806 H 70.3817 1.82317 3.79919 0
M  V30 807 H 69.0567 0.8335 3.12785 0
M  V30 808 H 67.9637 2.98183 2.25915 0
M  V30 809 H 69.2967 3.91125 2.98801 0
M  V30 810 N 70.9488 -0.749086 1.3866 0
M  V30 811 C 72.3648 -1.05276 1.19955 0
M  V30 812 C 72.5648 -2.01435 0.05134 0
M  V30 813 O 71.6208 -2.45232 -0.60147 0
M  V30 814 C 72.9338 -1.62853 2.52783 0
M  V30 815 C 74.4818 -1.75002 2.59506 0
M  V30 816 C 74.9568 -2.35991 3.92521 0
M  V30 817 N 76.4478 -2.43416 3.94085 0
M  V30 818 C 77.1828 -2.91511 4.9377 0
M  V30 819 N 76.6788 -3.39608 6.03853 0
M  V30 820 N 78.4718 -2.90592 4.81157 0
M  V30 821 H 70.6228 -0.111066 2.12109 0
M  V30 822 H 72.8858 -0.111901 0.941373 0
M  V30 823 H 72.5918 -0.99664 3.37283 0
M  V30 824 H 72.4658 -2.61854 2.715 0
M  V30 825 H 74.8528 -2.37317 1.75398 0
M  V30 826 H 74.9338 -0.74693 2.44652 0
M  V30 827 H 74.5778 -1.74308 4.77053 0
M  V30 828 H 74.5078 -3.3695 4.04688 0
M  V30 829 H 76.9988 -2.09405 3.14576 0
M  V30 830 H 77.3118 -3.74775 6.75843 0
M  V30 831 H 75.6568 -3.37653 6.07466 0
M  V30 832 H 78.8478 -2.52332 3.94267 0
M  V30 833 H 79.0208 -3.27762 5.58996 0
M  V30 834 N 72.4269 -1.23603 -0.977757 0
M  V30 835 C 73.3749 -1.01704 -2.09187 0
M  V30 836 C 74.3689 0.0448214 -1.69341 0
M  V30 837 O 75.5749 -0.108902 -1.7967 0
M  V30 838 H 71.9499 -0.311803 -0.684312 0
M  V30 839 H 73.9209 -1.96207 -2.24823 0
M  V30 840 C 72.6699 -0.627746 -3.41986 0
M  V30 841 H 71.9929 -1.43656 -3.73099 0
M  V30 842 H 73.4329 -0.514053 -4.20872 0
M  V30 843 C 71.8919 0.664238 -3.30287 0
M  V30 844 O 72.4219 1.71268 -3.6336 0
M  V30 845 N 70.6279 0.641156 -2.83439 0
M  V30 846 H 70.1749 -0.212376 -2.56723 0
M  V30 847 H 70.1329 1.50583 -2.75993 0
M  V30 848 N 73.905 1.17692 -1.04816 0
M  V30 849 C 75.133 1.91786 -0.776254 0
M  V30 850 C 75.548 1.76604 0.667577 0
M  V30 851 O 74.905 1.10067 1.45573 0
M  V30 852 C 74.956 3.42967 -1.14263 0
M  V30 853 O 74.677 3.57678 -2.52978 0
M  V30 854 C 76.178 4.34144 -0.896311 0
M  V30 855 H 73.398 0.608624 -0.282519 0
M  V30 856 H 75.942 1.49268 -1.39783 0
M  V30 857 H 74.097 3.83245 -0.565874 0
M  V30 858 H 74.511 4.51319 -2.67229 0
M  V30 859 H 75.985 5.38744 -1.20244 0
M  V30 860 H 76.462 4.38876 0.168636 0
M  V30 861 H 77.068 3.99574 -1.45672 0
M  V30 862 N 75.3831 0.828654 1.34056 0
M  V30 863 C 76.6321 0.415828 1.97367 0
M  V30 864 C 76.9451 -1.02796 1.6641 0
M  V30 865 O 78.1511 -1.54497 2.23255 0
M  V30 866 C 76.6071 0.692601 3.53173 0
M  V30 867 C 76.2151 2.15038 3.93017 0
M  V30 868 C 77.9591 0.346222 4.23086 0
M  V30 869 C 75.8661 2.37174 5.41758 0
M  V30 870 H 74.7961 0.151755 0.738571 0
M  V30 871 H 77.4471 1.01581 1.52819 0
M  V30 872 H 75.8291 0.0223764 3.95994 0
M  V30 873 H 77.0031 2.86024 3.61285 0
M  V30 874 H 75.3181 2.45875 3.36057 0
M  V30 875 H 77.9151 0.48937 5.32456 0
M  V30 876 H 78.2581 -0.709842 4.10204 0
M  V30 877 H 78.7911 0.971258 3.85761 0
M  V30 878 H 75.5301 3.41308 5.59633 0
M  V30 879 H 75.0501 1.70738 5.74986 0
M  V30 880 H 76.7291 2.19818 6.08514 0
M  V30 881 N 76.8612 -1.46375 0.584142 0
M  V30 882 C 78.1092 -2.01978 0.0701287 0
M  V30 883 C 78.4302 -1.4579 -1.295 0
M  V30 884 O 77.7002 -0.64314 -1.85042 0
M  V30 885 H 76.2802 -0.746648 0.0229345 0
M  V30 886 H 78.9422 -1.79461 0.760245 0
M  V30 887 H 78.0382 -3.121 0.0022064 0
M  V30 888 N 78.3393 -0.321999 -1.54275 0
M  V30 889 C 79.5673 0.283052 -2.04955 0
M  V30 890 C 79.9823 1.45904 -1.19823 0
M  V30 891 O 79.3393 1.81063 -0.228545 0
M  V30 892 C 79.3903 0.719028 -3.54277 0
M  V30 893 O 79.1113 -0.410175 -4.36176 0
M  V30 894 C 80.6123 1.38705 -4.21041 0
M  V30 895 H 77.8323 0.0584616 -0.668448 0
M  V30 896 H 80.3763 -0.467734 -1.99079 0
M  V30 897 H 78.5313 1.41979 -3.60445 0
M  V30 898 H 78.9453 -0.0669416 -5.24457 0
M  V30 899 H 80.4193 1.64306 -5.2698 0
M  V30 900 H 80.8963 2.33385 -3.72059 0
M  V30 901 H 81.5023 0.728906 -4.19007 0
M  V30 902 N 79.8174 1.5752 -0.0501392 0
M  V30 903 C 80.7654 2.12651 0.942459 0
M  V30 904 C 81.7594 1.05807 1.32292 0
M  V30 905 O 82.9654 1.24217 1.3027 0
M  V30 906 H 79.3404 0.679673 0.321789 0
M  V30 907 H 81.3114 2.94951 0.452356 0
M  V30 908 C 80.0604 2.68565 2.20836 0
M  V30 909 H 79.3834 3.50439 1.92439 0
M  V30 910 H 80.8234 3.10761 2.8845 0
M  V30 911 C 79.2824 1.62291 2.95234 0
M  V30 912 O 79.8124 1.03508 3.88135 0
M  V30 913 N 78.0184 1.33836 2.57946 0
M  V30 914 H 77.5654 1.81826 1.82475 0
M  V30 915 H 77.5234 0.629595 3.08032 0
M  V30 916 N 81.2955 -0.223234 1.56011 0
M  V30 917 C 82.7065 -0.790368 1.69145 0
M  V30 918 C 83.0575 -1.85055 0.651845 0
M  V30 919 O 82.1825 -2.15498 -0.197359 0
M  V30 920 C 82.7775 -1.4404 3.06656 0
M  V30 921 C 81.3365 -1.95494 3.2165 0
M  V30 922 C 80.4835 -0.814506 2.65068 0
M  V30 923 H 83.4345 0.00139011 1.587 0
M  V30 924 H 83.4555 -2.30916 3.0242 0
M  V30 925 H 82.9675 -0.668543 3.82298 0
M  V30 926 H 81.0685 -2.75487 2.50874 0
M  V30 927 H 81.1815 -2.13607 4.28846 0
M  V30 928 H 79.5455 -1.22137 2.23505 0
M  V30 929 H 80.3285 -0.0553515 3.43255 0
M  V30 930 N 82.7736 -1.49793 -0.48987 0
M  V30 931 C 83.9986 -1.63836 -1.27172 0
M  V30 932 C 84.4236 -0.31402 -1.8546 0
M  V30 933 O 83.7816 0.719803 -1.66399 0
M  V30 934 C 83.8296 -2.71797 -2.36978 0
M  V30 935 O 82.9336 -2.31744 -3.41128 0
M  V30 936 H 82.2746 -0.547997 -0.37496 0
M  V30 937 H 84.8046 -1.96053 -0.585191 0
M  V30 938 H 84.8146 -2.94305 -2.82575 0
M  V30 939 H 83.4896 -3.67923 -1.93921 0
M  V30 940 H 82.0666 -2.1961 -3.01373 0
M  V30 941 N 84.2517 0.741722 -1.39055 0
M  V30 942 C 85.5287 1.49252 -1.26425 0
M  V30 943 C 85.9087 2.10705 0.129144 0
M  V30 944 O 85.2567 1.98045 1.13976 0
M  V30 945 C 85.4667 2.54934 -2.38347 0
M  V30 946 C 86.8147 3.21506 -2.77343 0
M  V30 947 O 87.8387 2.65245 -2.37747 0
M  V30 948 O 86.6977 4.23294 -3.45665 0
M  V30 949 H 83.7917 0.662451 -0.495064 0
M  V30 950 H 86.3377 0.776121 -1.50912 0
M  V30 951 H 85.1097 2.07857 -3.31529 0
M  V30 952 H 84.7327 3.34141 -2.15489 0
M  V30 953 N 85.7298 1.2412 0.971189 0
M  V30 954 C 86.9768 1.07881 1.71371 0
M  V30 955 C 87.3048 -0.382901 1.90694 0
M  V30 956 O 86.5598 -1.29945 1.46331 0
M  V30 957 C 86.8588 1.75983 3.11071 0
M  V30 958 C 86.5248 3.25909 3.11599 0
M  V30 959 C 85.1868 3.66813 3.11451 0
M  V30 960 C 87.5388 4.21771 3.062 0
M  V30 961 C 84.8668 5.02021 3.03631 0
M  V30 962 C 87.2188 5.56982 2.99923 0
M  V30 963 C 85.8828 5.97237 2.98102 0
M  V30 964 H 85.1528 0.394764 0.62709 0
M  V30 965 H 87.7998 1.54176 1.13587 0
M  V30 966 H 86.1048 1.22072 3.72298 0
M  V30 967 H 87.8018 1.60887 3.6731 0
M  V30 968 H 84.3918 2.93353 3.12477 0
M  V30 969 H 88.5758 3.91172 3.05447 0
M  V30 970 H 83.8318 5.32411 3.0058 0
M  V30 971 H 88.0058 6.30969 2.94704 0
M  V30 972 H 85.6328 7.01967 2.91798 0
M  V30 973 N 87.2079 -1.17134 1.05439 0
M  V30 974 C 88.4849 -1.83411 0.679699 0
M  V30 975 C 88.8649 -1.9368 -0.839726 0
M  V30 976 O 88.2129 -1.47325 -1.74664 0
M  V30 977 C 88.4229 -3.20918 1.37159 0
M  V30 978 C 89.7709 -3.96796 1.51123 0
M  V30 979 O 90.7949 -3.30406 1.3308 0
M  V30 980 O 89.6539 -5.15778 1.80651 0
M  V30 981 H 86.7479 -0.79154 0.239569 0
M  V30 982 H 89.2939 -1.24411 1.15413 0
M  V30 983 H 88.0659 -3.08428 2.40807 0
M  V30 984 H 87.6889 -3.87587 0.886674 0
M  V30 985 N 88.686 -0.835752 -1.33615 0
M  V30 986 C 90.097 -0.487099 -1.80234 0
M  V30 987 C 90.448 0.993627 -1.69179 0
M  V30 988 O 89.573 1.77403 -1.23924 0
M  V30 989 C 90.168 -0.877385 -3.27242 0
M  V30 990 C 88.727 -0.580915 -3.7189 0
M  V30 991 C 87.874 -1.0874 -2.5509 0
M  V30 992 H 90.825 -1.02474 -1.2118 0
M  V30 993 H 90.846 -0.186195 -3.80044 0
M  V30 994 H 90.358 -1.95512 -3.35256 0
M  V30 995 H 88.459 0.486881 -3.69405 0
M  V30 996 H 88.572 -1.13396 -4.65487 0
M  V30 997 H 86.936 -0.508392 -2.49575 0
M  V30 998 H 87.719 -2.17184 -2.65868 0
M  V30 999 N 90.1641 1.46063 -0.591896 0
M  V30 1000 C 91.5751 1.85944 -0.167822 0
M  V30 1001 C 91.9261 1.49429 1.27143 0
M  V30 1002 O 91.0511 0.913515 1.96173 0
M  V30 1003 C 91.6461 3.37489 -0.297794 0
M  V30 1004 C 90.2051 3.76332 0.0714732 0
M  V30 1005 C 89.3521 2.7006 -0.629509 0
M  V30 1006 H 92.3031 1.37087 -0.799555 0
M  V30 1007 H 92.3241 3.77532 0.474349 0
M  V30 1008 H 91.8361 3.64034 -1.3454 0
M  V30 1009 H 89.9371 3.55405 1.11886 0
M  V30 1010 H 90.0501 4.78088 -0.311245 0
M  V30 1011 H 88.4141 2.54607 -0.0687867 0
M  V30 1012 H 89.1971 2.99444 -1.67894 0
M  V30 1013 N 91.6422 0.330177 1.54103 0
M  V30 1014 C 92.6052 -0.520144 2.2322 0
M  V30 1015 C 93.6052 -1.03828 1.22786 0
M  V30 1016 O 94.7952 -0.929652 1.4732 0
M  V30 1017 C 91.9272 -1.72317 2.94142 0
M  V30 1018 H 93.1202 0.0841605 2.99782 0
M  V30 1019 H 90.6732 0.0813433 1.56088 0
M  V30 1020 H 91.4082 -2.36653 2.21734 0
M  V30 1021 H 91.1932 -1.35898 3.67796 0
M  V30 1022 H 92.6832 -2.3266 3.46784 0
M  V30 1023 N 93.1203 -1.57491 0.0584922 0
M  V30 1024 C 94.3453 -1.97711 -0.62652 0
M  V30 1025 C 94.7703 -0.936132 -1.63151 0
M  V30 1026 O 94.1283 0.099811 -1.81025 0
M  V30 1027 C 94.1763 -3.36989 -1.28338 0
M  V30 1028 O 93.2803 -3.35433 -2.39913 0
M  V30 1029 H 92.6213 -0.643868 -0.162266 0
M  V30 1030 H 95.1513 -2.04193 0.129064 0
M  V30 1031 H 95.1613 -3.73879 -1.63335 0
M  V30 1032 H 93.8363 -4.12289 -0.546889 0
M  V30 1033 H 92.4133 -3.10298 -2.06809 0
M  V30 1034 N 94.5984 0.214957 -1.56127 0
M  V30 1035 C 95.5284 1.2695 -1.95974 0
M  V30 1036 C 96.5094 1.48539 -0.828868 0
M  V30 1037 O 97.6944 1.60611 -1.09168 0
M  V30 1038 C 94.8244 2.61794 -2.28214 0
M  V30 1039 C 93.7784 2.54851 -3.43853 0
M  V30 1040 C 93.1044 3.93785 -3.61715 0
M  V30 1041 C 94.4044 2.09065 -4.78632 0
M  V30 1042 H 96.0984 0.93846 -2.84312 0
M  V30 1043 H 93.6444 0.449996 -1.36788 0
M  V30 1044 H 95.5974 3.35731 -2.54682 0
M  V30 1045 H 94.3214 2.96599 -1.36736 0
M  V30 1046 H 92.9804 1.8337 -3.17444 0
M  V30 1047 H 92.6284 4.25908 -2.67602 0
M  V30 1048 H 92.3284 3.90019 -4.39498 0
M  V30 1049 H 93.8524 4.69374 -3.90539 0
M  V30 1050 H 95.2664 2.7275 -5.04262 0
M  V30 1051 H 93.6634 2.16346 -5.59745 0
M  V30 1052 H 94.7334 1.04315 -4.73547 0
M  V30 1053 N 96.0765 1.50051 0.48192 0
M  V30 1054 C 97.0235 1.68122 1.58125 0
M  V30 1055 C 97.9935 0.522545 1.57666 0
M  V30 1056 O 99.1785 0.751844 1.75362 0
M  V30 1057 C 96.3185 1.77142 2.96167 0
M  V30 1058 C 95.4315 3.0444 3.06497 0
M  V30 1059 C 94.5665 3.04321 4.35387 0
M  V30 1060 C 93.6055 4.26118 4.3942 0
M  V30 1061 N 92.7425 4.238 5.59766 0
M  V30 1062 H 97.5825 2.6198 1.42022 0
M  V30 1063 H 95.1195 1.29877 0.690687 0
M  V30 1064 H 97.0775 1.80352 3.76203 0
M  V30 1065 H 95.7075 0.867329 3.1093 0
M  V30 1066 H 94.7595 3.10752 2.19402 0
M  V30 1067 H 96.0715 3.94426 3.05336 0
M  V30 1068 H 95.2255 3.062 5.23762 0
M  V30 1069 H 93.9645 2.12147 4.39141 0
M  V30 1070 H 92.9695 4.24463 3.49444 0
M  V30 1071 H 94.1945 5.19507 4.37366 0
M  V30 1072 H 92.1405 3.34474 5.64326 0
M  V30 1073 H 92.0575 5.07542 5.60301 0
M  V30 1074 H 93.3255 4.2981 6.50295 0
M  V30 1075 N 97.5546 -0.734337 1.39446 0
M  V30 1076 C 98.5026 -1.86971 1.38364 0
M  V30 1077 C 99.4966 -1.67288 0.266687 0
M  V30 1078 O 100.703 -1.74621 0.436755 0
M  V30 1079 H 97.0776 -0.615474 0.432082 0
M  V30 1080 H 99.0486 -1.85 2.34132 0
M  V30 1081 C 97.7976 -3.2466 1.24465 0
M  V30 1082 H 97.1206 -3.40402 2.09682 0
M  V30 1083 H 98.5606 -4.04292 1.27764 0
M  V30 1084 C 97.0196 -3.36867 -0.0468674 0
M  V30 1085 O 97.5496 -3.88618 -1.01681 0
M  V30 1086 N 95.7556 -2.90391 -0.110145 0
M  V30 1087 H 95.3026 -2.48466 0.679868 0
M  V30 1088 H 95.2606 -2.98939 -0.973799 0
M  V30 1089 N 99.0327 -1.24633 -0.964593 0
M  V30 1090 C 100.281 -1.08573 -1.70459 0
M  V30 1091 C 100.602 0.375655 -1.91347 0
M  V30 1092 O 99.8717 1.26779 -1.49345 0
M  V30 1093 H 98.4517 -0.398784 -0.631649 0
M  V30 1094 H 101.114 -1.56601 -1.16026 0
M  V30 1095 H 100.21 -1.58623 -2.68785 0
M  V30 1096 N 100.511 1.16574 -1.06058 0
M  V30 1097 C 101.736 1.91493 -0.796562 0
M  V30 1098 C 102.161 1.76773 0.642868 0
M  V30 1099 O 101.519 1.09142 1.44768 0
M  V30 1100 C 101.567 3.40293 -1.19303 0
M  V30 1101 O 100.671 4.11074 -0.330394 0
M  V30 1102 H 100.012 0.596678 -0.291326 0
M  V30 1103 H 102.542 1.47708 -1.41575 0
M  V30 1104 H 102.552 3.91057 -1.16356 0
M  V30 1105 H 101.227 3.50326 -2.24153 0
M  V30 1106 H 99.8038 3.70513 -0.421225 0
M  V30 1107 N 101.989 0.842826 1.3317 0
M  V30 1108 C 103.214 0.453129 2.02389 0
M  V30 1109 C 103.639 -0.939105 1.6298 0
M  V30 1110 O 102.997 -1.61472 0.8244 0
M  V30 1111 C 103.045 0.586094 3.55805 0
M  V30 1112 O 102.149 -0.386029 4.10589 0
M  V30 1113 H 101.49 0.183664 0.638094 0
M  V30 1114 H 104.02 1.13875 1.69981 0
M  V30 1115 H 104.03 0.469209 4.05293 0
M  V30 1116 H 102.705 1.6014 3.83833 0
M  V30 1117 H 101.282 -0.226371 3.72212 0
M  V30 1118 N 103.467 -1.45747 0.599634 0
M  V30 1119 C 104.43 -2.28917 -0.113835 0
M  V30 1120 C 105.43 -1.3933 -0.802729 0
M  V30 1121 O 106.62 -1.61534 -0.652103 0
M  V30 1122 C 103.752 -3.20152 -1.17114 0
M  V30 1123 H 104.945 -2.93478 0.617289 0
M  V30 1124 H 102.498 -1.52137 0.358327 0
M  V30 1125 H 103.233 -2.60374 -1.93329 0
M  V30 1126 H 103.018 -3.86133 -0.681468 0
M  V30 1127 H 104.508 -3.82708 -1.67105 0
M  V30 1128 N 104.945 -0.338344 -1.53925 0
M  V30 1129 C 106.175 0.260919 -2.04946 0
M  V30 1130 C 106.583 1.45174 -1.2133 0
M  V30 1131 O 105.926 1.82122 -0.240262 0
M  V30 1132 C 105.988 0.744596 -3.51704 0
M  V30 1133 C 105.652 -0.325883 -4.55837 0
M  V30 1134 C 106.649 -1.16687 -5.06636 0
M  V30 1135 C 104.334 -0.478317 -5.00017 0
M  V30 1136 C 106.328 -2.14588 -6.00192 0
M  V30 1137 C 104.015 -1.46073 -5.93385 0
M  V30 1138 C 105.013 -2.29297 -6.4336 0
M  V30 1139 O 104.701 -3.25867 -7.34892 0
M  V30 1140 H 104.433 0.0551207 -0.673749 0
M  V30 1141 H 106.987 -0.486984 -1.99544 0
M  V30 1142 H 105.217 1.54366 -3.54553 0
M  V30 1143 H 106.906 1.26383 -3.85723 0
M  V30 1144 H 107.672 -1.06016 -4.73271 0
M  V30 1145 H 103.551 0.159613 -4.60724 0
M  V30 1146 H 107.095 -2.79585 -6.39123 0
M  V30 1147 H 102.992 -1.56802 -6.26166 0
M  V30 1148 H 103.76 -3.21278 -7.5281 0
M  V30 1149 N 106.423 1.57458 -0.0668435 0
M  V30 1150 C 107.653 1.97337 0.611677 0
M  V30 1151 C 108.061 0.943744 1.63982 0
M  V30 1152 O 107.404 -0.0785584 1.83532 0
M  V30 1153 C 107.466 3.33511 1.34205 0
M  V30 1154 C 107.13 4.54598 0.467941 0
M  V30 1155 C 108.127 5.19186 -0.272439 0
M  V30 1156 C 105.812 5.0075 0.39427 0
M  V30 1157 C 107.806 6.28274 -1.07476 0
M  V30 1158 C 105.493 6.09711 -0.411729 0
M  V30 1159 C 106.491 6.73335 -1.14492 0
M  V30 1160 O 106.179 7.80199 -1.93763 0
M  V30 1161 H 105.911 0.654042 0.170893 0
M  V30 1162 H 108.465 2.04961 -0.134289 0
M  V30 1163 H 106.695 3.22487 2.13398 0
M  V30 1164 H 108.384 3.58029 1.91233 0
M  V30 1165 H 109.15 4.84477 -0.225086 0
M  V30 1166 H 105.029 4.51009 0.954569 0
M  V30 1167 H 108.573 6.77866 -1.64755 0
M  V30 1168 H 104.47 6.43854 -0.460664 0
M  V30 1169 H 105.238 7.97053 -1.86142 0
M  V30 1170 N 107.901 -0.206675 1.56239 0
M  V30 1171 C 109.178 -0.954051 1.70755 0
M  V30 1172 C 109.558 -2.01841 0.618353 0
M  V30 1173 O 108.906 -2.25444 -0.372434 0
M  V30 1174 C 109.116 -1.551 3.12642 0
M  V30 1175 C 110.464 -2.03757 3.72516 0
M  V30 1176 O 111.488 -1.64965 3.15698 0
M  V30 1177 O 110.347 -2.75103 4.72208 0
M  V30 1178 H 107.441 -0.446636 0.696021 0
M  V30 1179 H 109.987 -0.197283 1.68549 0
M  V30 1180 H 108.759 -0.783212 3.83382 0
M  V30 1181 H 108.382 -2.37291 3.19028 0
M  V30 1182 N 109.379 -1.50304 -0.473955 0
M  V30 1183 C 110.79 -1.54042 -1.0549 0
M  V30 1184 C 111.141 -0.342248 -1.93192 0
M  V30 1185 O 110.266 0.545157 -2.09421 0
M  V30 1186 C 110.861 -2.79152 -1.91989 0
M  V30 1187 C 109.42 -2.8558 -2.45196 0
M  V30 1188 C 108.567 -2.48295 -1.2347 0
M  V30 1189 H 111.518 -1.5661 -0.256693 0
M  V30 1190 H 111.539 -2.60845 -2.7702 0
M  V30 1191 H 111.051 -3.66339 -1.28131 0
M  V30 1192 H 109.152 -2.02738 -3.12615 0
M  V30 1193 H 109.265 -3.88403 -2.80499 0
M  V30 1194 H 107.629 -2.00669 -1.56856 0
M  V30 1195 H 108.412 -3.37787 -0.612789 0
M  V30 1196 N 110.857 0.726932 -1.39834 0
M  V30 1197 C 111.805 1.86235 -1.39353 0
M  V30 1198 C 112.799 1.67144 -0.275555 0
M  V30 1199 O 114.005 1.74387 -0.44601 0
M  V30 1200 H 110.38 0.613174 -0.43534 0
M  V30 1201 H 112.351 1.83756 -2.35109 0
M  V30 1202 C 111.1 3.23995 -1.26185 0
M  V30 1203 H 110.423 3.39285 -2.11484 0
M  V30 1204 H 111.863 4.03609 -1.29907 0
M  V30 1205 C 110.322 3.36888 0.0290018 0
M  V30 1206 O 110.852 3.89152 0.99619 0
M  V30 1207 N 109.058 2.90446 0.0947437 0
M  V30 1208 H 108.605 2.48102 -0.693035 0
M  V30 1209 H 108.563 2.99451 0.957932 0
M  V30 1210 N 112.336 1.25143 0.95797 0
M  V30 1211 C 113.566 1.12261 1.73439 0
M  V30 1212 C 113.974 -0.326715 1.86358 0
M  V30 1213 O 113.317 -1.2367 1.35836 0
M  V30 1214 C 113.379 1.69966 3.16784 0
M  V30 1215 C 113.043 3.18936 3.27305 0
M  V30 1216 C 114.04 4.15968 3.11877 0
M  V30 1217 C 111.725 3.59083 3.51234 0
M  V30 1218 C 113.719 5.51126 3.20217 0
M  V30 1219 C 111.406 4.9438 3.5921 0
M  V30 1220 C 112.404 5.90211 3.43716 0
M  V30 1221 O 112.092 7.23046 3.51368 0
M  V30 1222 H 111.824 0.392476 0.550399 0
M  V30 1223 H 114.378 1.65927 1.21068 0
M  V30 1224 H 112.608 1.10744 3.70503 0
M  V30 1225 H 114.297 1.52232 3.76272 0
M  V30 1226 H 115.063 3.86292 2.93264 0
M  V30 1227 H 110.942 2.84989 3.62356 0
M  V30 1228 H 114.486 6.25905 3.0804 0
M  V30 1229 H 110.383 5.23723 3.77339 0
M  V30 1230 H 111.151 7.31097 3.6802 0
M  V30 1231 N 113.814 -1.1601 1.06675 0
M  V30 1232 C 114.744 -2.22688 0.702307 0
M  V30 1233 C 115.725 -1.67306 -0.307032 0
M  V30 1234 O 116.91 -1.93352 -0.181305 0
M  V30 1235 C 114.04 -3.47178 0.092038 0
M  V30 1236 C 112.994 -4.15477 1.02777 0
M  V30 1237 C 112.32 -5.33963 0.28061 0
M  V30 1238 C 113.62 -4.66019 2.35846 0
M  V30 1239 H 115.314 -2.53429 1.59419 0
M  V30 1240 H 112.86 -1.21813 0.767961 0
M  V30 1241 H 114.813 -4.21037 -0.174814 0
M  V30 1242 H 113.537 -3.15749 -0.834877 0
M  V30 1243 H 112.196 -3.43549 1.27944 0
M  V30 1244 H 111.844 -4.98788 -0.649545 0
M  V30 1245 H 111.544 -5.806 0.904258 0
M  V30 1246 H 113.068 -6.10596 0.021396 0
M  V30 1247 H 114.482 -5.3144 2.15045 0
M  V30 1248 H 112.879 -5.23293 2.93743 0
M  V30 1249 H 113.949 -3.82023 2.98641 0
M  V30 1250 N 115.292 -0.849877 -1.32721 0
M  V30 1251 C 116.52 -0.464754 -2.01613 0
M  V30 1252 C 116.935 0.937191 -1.63897 0
M  V30 1253 O 116.292 1.61081 -0.857856 0
M  V30 1254 C 116.343 -0.588638 -3.56675 0
M  V30 1255 O 116.064 -1.93535 -3.93034 0
M  V30 1256 C 117.565 -0.2019 -4.4284 0
M  V30 1257 H 114.785 -0.183215 -0.645502 0
M  V30 1258 H 117.329 -1.1455 -1.69407 0
M  V30 1259 H 115.484 0.0443159 -3.87375 0
M  V30 1260 H 115.898 -1.92871 -4.87751 0
M  V30 1261 H 117.372 -0.339599 -5.50954 0
M  V30 1262 H 117.849 0.857224 -4.30753 0
M  V30 1263 H 118.455 -0.809733 -4.17521 0
M  V30 1264 N 116.77 1.45427 -0.607355 0
M  V30 1265 C 117.998 2.06614 -0.108814 0
M  V30 1266 C 118.413 1.45204 1.2067 0
M  V30 1267 O 117.77 0.566132 1.73497 0
M  V30 1268 C 117.821 3.61481 0.0375347 0
M  V30 1269 O 117.542 4.20598 -1.22593 0
M  V30 1270 C 119.043 4.39652 0.567561 0
M  V30 1271 H 116.263 0.66747 -0.0687351 0
M  V30 1272 H 118.807 1.86675 -0.835022 0
M  V30 1273 H 116.962 3.80762 0.714068 0
M  V30 1274 H 117.376 5.1377 -1.05547 0
M  V30 1275 H 118.85 5.48518 0.61905 0
M  V30 1276 H 119.327 4.09417 1.58978 0
M  V30 1277 H 119.933 4.25234 -0.0749202 0
M  V30 1278 N 118.248 0.346503 1.53744 0
M  V30 1279 C 119.525 -0.304532 1.93215 0
M  V30 1280 C 119.905 -1.67993 1.27834 0
M  V30 1281 O 119.253 -2.24411 0.430352 0
M  V30 1282 C 119.463 -0.373852 3.46992 0
M  V30 1283 C 120.811 -0.62329 4.2 0
M  V30 1284 O 121.835 -0.455847 3.53271 0
M  V30 1285 O 120.694 -0.947879 5.38217 0
M  V30 1286 H 117.788 -0.178318 0.807547 0
M  V30 1287 H 120.334 0.397895 1.64969 0
M  V30 1288 H 119.106 0.591224 3.86808 0
M  V30 1289 H 118.729 -1.12294 3.81413 0
M  V30 1290 N 119.726 -1.57421 0.075193 0
M  V30 1291 C 120.689 -2.11791 -0.876203 0
M  V30 1292 C 121.689 -1.04268 -1.22412 0
M  V30 1293 O 122.879 -1.30242 -1.15684 0
M  V30 1294 C 120.011 -2.62207 -2.17854 0
M  V30 1295 H 121.204 -2.9716 -0.40444 0
M  V30 1296 H 118.757 -1.55333 -0.173557 0
M  V30 1297 H 119.492 -1.803 -2.6956 0
M  V30 1298 H 119.277 -3.40802 -1.93897 0
M  V30 1299 H 120.767 -3.04335 -2.85955 0
M  V30 1300 N 121.204 0.198386 -1.56346 0
M  V30 1301 C 122.114 1.2664 -1.97483 0
M  V30 1302 C 123.13 1.49989 -0.882002 0
M  V30 1303 O 124.306 1.62668 -1.18748 0
M  V30 1304 C 121.371 2.59141 -2.30319 0
M  V30 1305 C 120.432 2.43892 -3.53292 0
M  V30 1306 C 119.665 3.70074 -3.84553 0
M  V30 1307 O 119.888 4.74101 -3.1715 0
M  V30 1308 O 118.822 3.658 -4.7799 0
M  V30 1309 H 122.648 0.947304 -2.88548 0
M  V30 1310 H 120.233 0.403123 -1.43859 0
M  V30 1311 H 122.115 3.37352 -2.5253 0
M  V30 1312 H 120.79 2.90684 -1.42423 0
M  V30 1313 H 119.697 1.63803 -3.36332 0
M  V30 1314 H 121.03 2.17282 -4.41644 0
M  V30 1315 N 122.682 1.50554 0.465978 0
M  V30 1316 C 123.629 1.6979 1.56333 0
M  V30 1317 C 124.599 0.539239 1.57103 0
M  V30 1318 O 125.784 0.770401 1.74555 0
M  V30 1319 C 122.924 1.80273 2.94271 0
M  V30 1320 C 122.037 3.07674 3.0325 0
M  V30 1321 C 121.172 3.08922 4.32135 0
M  V30 1322 C 120.211 4.30755 4.34875 0
M  V30 1323 N 119.348 4.29714 5.55239 0
M  V30 1324 H 124.188 2.63472 1.39235 0
M  V30 1325 H 121.725 1.30602 0.676873 0
M  V30 1326 H 123.683 1.84332 3.74269 0
M  V30 1327 H 122.313 0.900258 3.09992 0
M  V30 1328 H 121.365 3.13062 2.16094 0
M  V30 1329 H 122.677 3.97642 3.01135 0
M  V30 1330 H 121.831 3.11738 5.20485 0
M  V30 1331 H 120.57 2.16792 4.36866 0
M  V30 1332 H 119.575 4.28146 3.44922 0
M  V30 1333 H 120.8 5.24117 4.31831 0
M  V30 1334 H 118.746 3.4044 5.60746 0
M  V30 1335 H 118.663 5.13456 5.54886 0
M  V30 1336 H 119.931 4.36683 6.457 0
M  V30 1337 N 124.16 -0.719506 1.40217 0
M  V30 1338 C 125.437 -1.47221 1.28784 0
M  V30 1339 C 125.817 -2.10883 -0.0956067 0
M  V30 1340 O 125.165 -1.99833 -1.10811 0
M  V30 1341 C 125.375 -2.5111 2.42373 0
M  V30 1342 C 126.723 -3.17053 2.82423 0
M  V30 1343 O 127.747 -2.61429 2.41937 0
M  V30 1344 O 126.606 -4.17742 3.52355 0
M  V30 1345 H 123.7 -0.654491 0.50554 0
M  V30 1346 H 126.246 -0.752014 1.52128 0
M  V30 1347 H 125.018 -2.02556 3.34793 0
M  V30 1348 H 124.641 -3.3067 2.20778 0
M  V30 1349 N 125.638 -1.25649 -0.95132 0
M  V30 1350 C 127.054 -1.02542 -1.223 0
M  V30 1351 C 127.254 0.255715 -1.99871 0
M  V30 1352 O 126.31 0.967558 -2.33226 0
M  V30 1353 C 127.623 -2.25065 -1.99415 0
M  V30 1354 C 129.171 -2.29861 -2.12446 0
M  V30 1355 C 129.646 -3.52048 -2.92961 0
M  V30 1356 N 131.137 -3.52465 -3.00538 0
M  V30 1357 C 131.872 -4.43672 -3.63239 0
M  V30 1358 N 131.368 -5.45157 -4.27523 0
M  V30 1359 N 133.161 -4.31346 -3.60412 0
M  V30 1360 H 125.312 -2.07951 -0.432471 0
M  V30 1361 H 127.575 -0.91339 -0.253816 0
M  V30 1362 H 127.281 -3.18194 -1.49817 0
M  V30 1363 H 127.155 -2.28502 -3.00111 0
M  V30 1364 H 129.542 -1.37252 -2.61239 0
M  V30 1365 H 129.623 -2.3044 -1.11044 0
M  V30 1366 H 129.267 -4.44981 -2.44856 0
M  V30 1367 H 129.197 -3.48715 -3.94596 0
M  V30 1368 H 131.688 -2.79056 -2.54826 0
M  V30 1369 H 132.001 -6.10958 -4.73234 0
M  V30 1370 H 130.346 -5.49025 -4.26141 0
M  V30 1371 H 133.537 -3.51288 -3.09377 0
M  V30 1372 H 133.71 -5.02624 -4.0899 0
M  V30 1373 N 127.117 1.15442 -1.07289 0
M  V30 1374 C 128.347 1.89821 -0.815576 0
M  V30 1375 C 128.755 1.7823 0.634867 0
M  V30 1376 O 128.098 1.13152 1.44715 0
M  V30 1377 C 128.16 3.40817 -1.14385 0
M  V30 1378 C 127.824 3.76193 -2.59476 0
M  V30 1379 C 128.821 3.77269 -3.57721 0
M  V30 1380 C 126.506 4.0652 -2.95037 0
M  V30 1381 C 128.5 4.08176 -4.89562 0
M  V30 1382 C 126.187 4.37092 -4.27076 0
M  V30 1383 C 127.185 4.37902 -5.24148 0
M  V30 1384 O 126.873 4.67741 -6.53815 0
M  V30 1385 H 126.605 0.608465 -0.294528 0
M  V30 1386 H 129.159 1.472 -1.43252 0
M  V30 1387 H 127.389 3.83835 -0.469865 0
M  V30 1388 H 129.078 3.96485 -0.869179 0
M  V30 1389 H 129.844 3.5394 -3.3159 0
M  V30 1390 H 125.723 4.05049 -2.20128 0
M  V30 1391 H 129.267 4.08723 -5.65324 0
M  V30 1392 H 125.164 4.59889 -4.5296 0
M  V30 1393 H 125.932 4.85509 -6.58957 0
M  V30 1394 N 128.595 0.856903 1.32268 0
M  V30 1395 C 129.525 0.31858 2.31316 0
M  V30 1396 C 130.506 -0.583487 1.59779 0
M  V30 1397 O 131.691 -0.503259 1.87566 0
M  V30 1398 C 128.821 -0.491979 3.43798 0
M  V30 1399 C 127.775 0.315849 4.26833 0
M  V30 1400 C 127.101 -0.619586 5.31098 0
M  V30 1401 C 128.401 1.54282 4.98993 0
M  V30 1402 H 130.095 1.14621 2.76591 0
M  V30 1403 H 127.641 0.552613 1.32974 0
M  V30 1404 H 129.594 -0.879012 4.1213 0
M  V30 1405 H 128.318 -1.35299 2.97257 0
M  V30 1406 H 126.977 0.684664 3.6015 0
M  V30 1407 H 126.625 -1.47751 4.8081 0
M  V30 1408 H 126.325 -0.0830621 5.87541 0
M  V30 1409 H 127.849 -1.00375 6.02293 0
M  V30 1410 H 129.263 1.22796 5.59995 0
M  V30 1411 H 127.66 2.01745 5.65172 0
M  V30 1412 H 128.73 2.30285 4.26728 0
M  V30 1413 N 130.073 -1.45103 0.615059 0
M  V30 1414 C 131.02 -2.30586 -0.0993978 0
M  V30 1415 C 131.99 -1.42544 -0.852669 0
M  V30 1416 O 133.175 -1.71465 -0.836917 0
M  V30 1417 C 130.315 -3.27572 -1.08583 0
M  V30 1418 C 129.428 -4.30717 -0.332656 0
M  V30 1419 C 128.563 -5.14807 -1.30947 0
M  V30 1420 C 127.602 -6.09673 -0.544538 0
M  V30 1421 N 126.739 -6.86517 -1.47101 0
M  V30 1422 H 131.579 -2.91144 0.635542 0
M  V30 1423 H 129.116 -1.4346 0.325206 0
M  V30 1424 H 131.074 -3.82276 -1.67095 0
M  V30 1425 H 129.704 -2.68751 -1.78809 0
M  V30 1426 H 128.756 -3.78615 0.368107 0
M  V30 1427 H 130.068 -4.98102 0.263842 0
M  V30 1428 H 129.222 -5.73948 -1.96643 0
M  V30 1429 H 127.961 -4.47458 -1.9399 0
M  V30 1430 H 126.966 -5.49656 0.126003 0
M  V30 1431 H 128.191 -6.79052 0.080947 0
M  V30 1432 H 126.137 -6.21851 -2.08895 0
M  V30 1433 H 126.054 -7.50281 -0.928137 0
M  V30 1434 H 127.322 -7.50194 -2.11731 0
M  V30 1435 N 131.551 -0.354651 -1.53558 0
M  V30 1436 C 132.779 0.239515 -2.05509 0
M  V30 1437 C 133.194 1.4333 -1.2289 0
M  V30 1438 O 132.551 1.80538 -0.266899 0
M  V30 1439 C 132.602 0.643719 -3.55723 0
M  V30 1440 O 132.323 -0.502602 -4.35207 0
M  V30 1441 C 133.824 1.29743 -4.23889 0
M  V30 1442 H 131.044 0.0442697 -0.669538 0
M  V30 1443 H 133.588 -0.509856 -1.98042 0
M  V30 1444 H 131.743 1.34302 -3.63376 0
M  V30 1445 H 132.157 -0.178172 -5.24197 0
M  V30 1446 H 133.631 1.53091 -5.30346 0
M  V30 1447 H 134.108 2.25441 -3.76926 0
M  V30 1448 H 134.714 0.639865 -4.20459 0
M  V30 1449 N 133.029 1.57378 -0.0835403 0
M  V30 1450 C 134.257 1.98263 0.59157 0
M  V30 1451 C 134.672 0.962302 1.62435 0
M  V30 1452 O 134.029 -0.049581 1.82433 0
M  V30 1453 C 134.08 3.39214 1.24965 0
M  V30 1454 O 133.801 4.37339 0.258186 0
M  V30 1455 C 135.302 3.95038 2.01147 0
M  V30 1456 H 132.522 0.651773 0.159477 0
M  V30 1457 H 135.066 2.03878 -0.159415 0
M  V30 1458 H 133.221 3.34649 1.95164 0
M  V30 1459 H 133.635 5.19371 0.731734 0
M  V30 1460 H 135.109 4.95848 2.42567 0
M  V30 1461 H 135.586 3.32222 2.87272 0
M  V30 1462 H 136.192 4.0304 1.35789 0
M  V30 1463 N 134.507 -0.190092 1.56449 0
M  V30 1464 C 135.756 -0.907912 1.80111 0
M  V30 1465 C 136.069 -1.84214 0.657619 0
M  V30 1466 O 137.275 -2.60094 0.778663 0
M  V30 1467 C 135.731 -1.66485 3.19078 0
M  V30 1468 C 135.339 -0.7752 4.41242 0
M  V30 1469 C 137.083 -2.37201 3.52045 0
M  V30 1470 C 134.99 -1.53129 5.71231 0
M  V30 1471 H 133.92 -0.34276 0.671589 0
M  V30 1472 H 136.571 -0.161109 1.82791 0
M  V30 1473 H 134.953 -2.45572 3.10661 0
M  V30 1474 H 136.127 -0.0226298 4.60794 0
M  V30 1475 H 134.442 -0.178627 4.16017 0
M  V30 1476 H 137.039 -2.94329 4.46402 0
M  V30 1477 H 137.382 -3.11632 2.76028 0
M  V30 1478 H 137.915 -1.65075 3.61932 0
M  V30 1479 H 134.654 -0.82967 6.50228 0
M  V30 1480 H 134.174 -2.25767 5.55688 0
M  V30 1481 H 135.853 -2.08377 6.12526 0
M  V30 1482 N 135.985 -1.50799 -0.457987 0
M  V30 1483 C 136.932 -1.70617 -1.5543 0
M  V30 1484 C 137.902 -0.547562 -1.56815 0
M  V30 1485 O 139.087 -0.779647 -1.74144 0
M  V30 1486 C 136.227 -1.81831 -2.93311 0
M  V30 1487 C 135.34 -3.09278 -3.01615 0
M  V30 1488 C 134.475 -3.11209 -4.30491 0
M  V30 1489 C 133.514 -4.33055 -4.32585 0
M  V30 1490 N 132.651 -4.32652 -5.52952 0
M  V30 1491 H 137.491 -2.64207 -1.37836 0
M  V30 1492 H 135.028 -1.30959 -0.669937 0
M  V30 1493 H 136.986 -1.86314 -3.73287 0
M  V30 1494 H 135.616 -0.916685 -3.0951 0
M  V30 1495 H 134.668 -3.14203 -2.1443 0
M  V30 1496 H 135.98 -3.99233 -2.99022 0
M  V30 1497 H 135.134 -3.14494 -5.18824 0
M  V30 1498 H 133.873 -2.19106 -4.35711 0
M  V30 1499 H 132.878 -4.29969 -3.42647 0
M  V30 1500 H 134.103 -5.264 -4.29046 0
M  V30 1501 H 132.049 -3.43409 -5.58933 0
M  V30 1502 H 131.966 -5.16392 -5.52155 0
M  V30 1503 H 133.234 -4.40101 -6.43375 0
M  V30 1504 N 137.463 0.71206 -1.40597 0
M  V30 1505 C 138.393 1.83889 -1.43899 0
M  V30 1506 C 139.374 1.67442 -0.299504 0
M  V30 1507 O 140.559 1.87421 -0.508624 0
M  V30 1508 C 137.689 3.21877 -1.30431 0
M  V30 1509 C 136.643 3.53002 -2.42019 0
M  V30 1510 C 135.969 4.90172 -2.13626 0
M  V30 1511 C 137.269 3.53643 -3.84362 0
M  V30 1512 H 138.963 1.81383 -2.38203 0
M  V30 1513 H 136.509 0.871237 -1.14654 0
M  V30 1514 H 138.462 4.00404 -1.31357 0
M  V30 1515 H 137.186 3.24968 -0.326049 0
M  V30 1516 H 135.845 2.76818 -2.40349 0
M  V30 1517 H 135.493 4.89869 -1.14182 0
M  V30 1518 H 135.193 5.11962 -2.88389 0
M  V30 1519 H 136.717 5.71028 -2.1624 0
M  V30 1520 H 138.131 4.22203 -3.87837 0
M  V30 1521 H 136.528 3.86961 -4.58673 0
M  V30 1522 H 137.598 2.52954 -4.13693 0
M  V30 1523 N 138.941 1.26152 0.944643 0
M  V30 1524 C 140.188 1.11492 1.69044 0
M  V30 1525 C 140.516 -0.342366 1.91463 0
M  V30 1526 O 139.771 -1.26812 1.49054 0
M  V30 1527 C 140.07 1.82541 3.07268 0
M  V30 1528 C 139.736 3.32445 3.04616 0
M  V30 1529 C 138.398 3.73337 3.036 0
M  V30 1530 C 140.75 4.28171 2.97185 0
M  V30 1531 C 138.078 5.08348 2.92915 0
M  V30 1532 C 140.43 5.63218 2.88041 0
M  V30 1533 C 139.094 6.03426 2.85366 0
M  V30 1534 H 138.364 0.407977 0.618576 0
M  V30 1535 H 141.011 1.56551 1.10291 0
M  V30 1536 H 139.316 1.29941 3.69625 0
M  V30 1537 H 141.013 1.68642 3.63815 0
M  V30 1538 H 137.603 2.99915 3.06185 0
M  V30 1539 H 141.787 3.97563 2.97081 0
M  V30 1540 H 137.043 5.38667 2.89219 0
M  V30 1541 H 141.217 6.37078 2.81254 0
M  V30 1542 H 138.844 7.07999 2.76842 0
M  V30 1543 N 140.419 -1.14872 1.07899 0
M  V30 1544 C 141.366 -2.19791 0.704319 0
M  V30 1545 C 142.336 -1.63238 -0.306987 0
M  V30 1546 O 143.521 -1.8983 -0.192171 0
M  V30 1547 C 140.661 -3.44911 0.114244 0
M  V30 1548 C 139.774 -4.15637 1.1777 0
M  V30 1549 C 138.909 -5.28324 0.552037 0
M  V30 1550 C 137.948 -5.90875 1.59789 0
M  V30 1551 N 137.085 -6.95022 0.994404 0
M  V30 1552 H 141.925 -2.5119 1.60336 0
M  V30 1553 H 139.462 -1.23356 0.801352 0
M  V30 1554 H 141.42 -4.16477 -0.245544 0
M  V30 1555 H 140.05 -3.14011 -0.74813 0
M  V30 1556 H 139.102 -3.42512 1.65499 0
M  V30 1557 H 140.414 -4.5823 1.97046 0
M  V30 1558 H 139.568 -6.06538 0.1402 0
M  V30 1559 H 138.307 -4.86939 -0.272431 0
M  V30 1560 H 137.312 -5.11369 2.01945 0
M  V30 1561 H 138.537 -6.34337 2.42474 0
M  V30 1562 H 136.483 -6.55722 0.190939 0
M  V30 1563 H 136.4 -7.36073 1.72432 0
M  V30 1564 H 137.668 -7.77123 0.608253 0
M  V30 1565 N 141.898 -0.863906 -1.31812 0
M  V30 1566 C 143.314 -0.555004 -1.49639 0
M  V30 1567 C 143.514 0.912266 -1.79666 0
M  V30 1568 O 142.57 1.69479 -1.87171 0
M  V30 1569 C 143.883 -1.44998 -2.63431 0
M  V30 1570 C 145.431 -1.45138 -2.77316 0
M  V30 1571 C 145.906 -2.33179 -3.94197 0
M  V30 1572 N 147.397 -2.31025 -4.01474 0
M  V30 1573 C 148.132 -2.95871 -4.9117 0
M  V30 1574 N 147.628 -3.69863 -5.8581 0
M  V30 1575 N 149.421 -2.85211 -4.84367 0
M  V30 1576 H 141.572 -1.81339 -1.10589 0
M  V30 1577 H 143.835 -0.77505 -0.545895 0
M  V30 1578 H 143.541 -2.49377 -2.48 0
M  V30 1579 H 143.415 -1.14409 -3.59431 0
M  V30 1580 H 145.802 -0.415201 -2.92164 0
M  V30 1581 H 145.883 -1.79747 -1.82001 0
M  V30 1582 H 145.527 -3.3687 -3.80107 0
M  V30 1583 H 145.457 -1.95897 -4.88807 0
M  V30 1584 H 147.948 -1.77238 -3.33759 0
M  V30 1585 H 148.261 -4.16486 -6.50968 0
M  V30 1586 H 146.606 -3.73971 -5.85808 0
M  V30 1587 H 149.797 -2.26948 -4.09405 0
M  V30 1588 H 149.97 -3.36027 -5.54066 0
M  V30 1589 N 143.376 1.44774 -0.622745 0
M  V30 1590 C 144.625 2.01334 -0.121397 0
M  V30 1591 C 144.938 1.49505 1.26125 0
M  V30 1592 O 146.144 1.98139 1.85616 0
M  V30 1593 C 144.6 3.59516 -0.166298 0
M  V30 1594 C 144.208 4.20342 -1.54974 0
M  V30 1595 C 145.952 4.23582 0.279021 0
M  V30 1596 C 143.859 5.70721 -1.55021 0
M  V30 1597 H 142.789 0.752851 -0.0416172 0
M  V30 1598 H 145.44 1.66083 -0.780309 0
M  V30 1599 H 143.822 3.92027 0.559557 0
M  V30 1600 H 144.996 3.99381 -2.29851 0
M  V30 1601 H 143.311 3.68529 -1.93843 0
M  V30 1602 H 145.908 5.33868 0.298083 0
M  V30 1603 H 146.251 3.95327 1.30471 0
M  V30 1604 H 146.784 3.95843 -0.394063 0
M  V30 1605 H 143.523 6.03698 -2.55399 0
M  V30 1606 H 143.043 5.93829 -0.844245 0
M  V30 1607 H 144.722 6.34203 -1.28047 0
M  V30 1608 N 144.854 0.36279 1.53368 0
M  V30 1609 C 145.802 -0.500155 2.27159 0
M  V30 1610 C 146.796 -1.08575 1.3003 0
M  V30 1611 O 148.002 -1.02927 1.47668 0
M  V30 1612 H 144.377 -0.180009 0.730138 0
M  V30 1613 H 146.348 0.14401 2.98052 0
M  V30 1614 C 145.097 -1.62937 3.07159 0
M  V30 1615 H 144.42 -1.18806 3.8174 0
M  V30 1616 H 145.86 -2.20795 3.61975 0
M  V30 1617 C 144.319 -2.57007 2.17829 0
M  V30 1618 O 144.849 -3.59752 1.78721 0
M  V30 1619 N 143.055 -2.26131 1.82518 0
M  V30 1620 H 142.602 -1.42616 2.14519 0
M  V30 1621 H 142.56 -2.89327 1.23034 0
M  V30 1622 N 146.332 -1.57332 0.0918853 0
M  V30 1623 C 147.557 -1.98995 -0.584442 0
M  V30 1624 C 147.982 -0.970528 -1.61128 0
M  V30 1625 O 147.34 0.0613904 -1.81196 0
M  V30 1626 C 147.388 -3.39636 -1.21161 0
M  V30 1627 O 146.492 -3.40447 -2.32744 0
M  V30 1628 H 145.833 -0.647165 -0.148572 0
M  V30 1629 H 148.363 -2.03873 0.172347 0
M  V30 1630 H 148.373 -3.7726 -1.55367 0
M  V30 1631 H 147.048 -4.13356 -0.459313 0
M  V30 1632 H 145.625 -3.14614 -2.0018 0
M  V30 1633 N 147.81 0.181792 -1.56548 0
M  V30 1634 C 148.758 1.24461 -1.965 0
M  V30 1635 C 149.752 1.464 -0.852261 0
M  V30 1636 O 150.958 1.47103 -1.03733 0
M  V30 1637 H 147.333 0.418138 -0.625031 0
M  V30 1638 H 149.304 0.880714 -2.85107 0
M  V30 1639 C 148.053 2.57891 -2.33212 0
M  V30 1640 H 147.376 2.41829 -3.18369 0
M  V30 1641 H 148.816 3.3097 -2.65019 0
M  V30 1642 C 147.275 3.15871 -1.17163 0
M  V30 1643 O 147.805 3.9913 -0.453708 0
M  V30 1644 N 146.011 2.74808 -0.944936 0
M  V30 1645 H 145.558 2.07205 -1.53049 0
M  V30 1646 H 145.516 3.13939 -0.170286 0
M  V30 1647 N 149.288 1.51039 0.449983 0
M  V30 1648 C 150.699 1.557 1.03026 0
M  V30 1649 C 151.05 0.372939 1.92623 0
M  V30 1650 O 150.175 -0.511771 2.10261 0
M  V30 1651 C 150.77 2.82171 1.87523 0
M  V30 1652 C 149.329 2.89444 2.40622 0
M  V30 1653 C 148.476 2.50228 1.19504 0
M  V30 1654 H 151.427 1.56999 0.231745 0
M  V30 1655 H 151.448 2.65219 2.72835 0
M  V30 1656 H 150.96 3.68331 1.22286 0
M  V30 1657 H 149.061 2.07685 3.0935 0
M  V30 1658 H 149.174 3.92816 2.74285 0
M  V30 1659 H 147.538 2.03139 1.53644 0
M  V30 1660 H 148.321 3.38719 0.558972 0
M  V30 1661 N 150.766 -0.704594 1.40972 0
M  V30 1662 C 151.729 -1.80035 1.41845 0
M  V30 1663 C 152.729 -1.57774 0.310474 0
M  V30 1664 O 153.919 -1.64613 0.56992 0
M  V30 1665 C 151.051 -3.18284 1.22098 0
M  V30 1666 H 152.244 -1.80658 2.3938 0
M  V30 1667 H 149.797 -0.911329 1.26982 0
M  V30 1668 H 150.532 -3.23306 0.253672 0
M  V30 1669 H 150.317 -3.35843 2.02366 0
M  V30 1670 H 151.807 -3.98289 1.25522 0
M  V30 1671 N 152.244 -1.26651 -0.937939 0
M  V30 1672 C 153.492 -1.12165 -1.68118 0
M  V30 1673 C 153.813 0.334983 -1.92101 0
M  V30 1674 O 153.083 1.23583 -1.52 0
M  V30 1675 H 151.663 -0.412093 -0.623048 0
M  V30 1676 H 154.325 -1.59027 -1.12678 0
M  V30 1677 H 153.421 -1.64289 -2.6536 0
M  V30 1678 N 153.722 1.14298 -1.08507 0
M  V30 1679 C 154.669 2.19414 -0.715965 0
M  V30 1680 C 155.639 1.63399 0.298326 0
M  V30 1681 O 156.824 1.89929 0.182101 0
M  V30 1682 C 153.964 3.44845 -0.132534 0
M  V30 1683 C 153.077 4.15007 -1.19973 0
M  V30 1684 C 152.212 5.28024 -0.580048 0
M  V30 1685 C 151.251 5.9002 -1.62921 0
M  V30 1686 N 150.388 6.94485 -1.03125 0
M  V30 1687 H 155.228 2.50336 -1.61666 0
M  V30 1688 H 152.765 1.2293 -0.807882 0
M  V30 1689 H 154.723 4.16601 0.223454 0
M  V30 1690 H 153.353 3.14403 0.731467 0
M  V30 1691 H 152.405 3.41629 -1.67313 0
M  V30 1692 H 153.717 4.57178 -1.99473 0
M  V30 1693 H 152.871 6.06455 -0.172364 0
M  V30 1694 H 151.61 4.87076 0.246603 0
M  V30 1695 H 150.615 5.10291 -2.04654 0
M  V30 1696 H 151.84 6.33042 -2.45835 0
M  V30 1697 H 149.786 6.55612 -0.225711 0
M  V30 1698 H 149.703 7.35148 -1.76334 0
M  V30 1699 H 150.971 7.7679 -0.649458 0
M  V30 1700 N 155.201 0.870884 1.31352 0
M  V30 1701 C 156.447 0.482987 1.96965 0
M  V30 1702 C 156.78 -0.962462 1.68672 0
M  V30 1703 O 156.055 -1.6779 0.98371 0
M  V30 1704 C 156.338 0.741752 3.52378 0
M  V30 1705 C 156.191 2.2368 3.9024 0
M  V30 1706 C 157.51 0.208838 4.39604 0
M  V30 1707 H 154.629 0.176955 0.715441 0
M  V30 1708 H 157.271 1.09229 1.55464 0
M  V30 1709 H 155.421 0.223149 3.87859 0
M  V30 1710 H 157.093 2.82273 3.64856 0
M  V30 1711 H 155.336 2.70901 3.38814 0
M  V30 1712 H 156.007 2.3685 4.98604 0
M  V30 1713 H 158.483 0.652529 4.10952 0
M  V30 1714 H 157.359 0.419336 5.47296 0
M  V30 1715 H 157.62 -0.889275 4.33064 0
M  V30 1716 N 156.679 -1.44442 0.630414 0
M  V30 1717 C 157.609 -2.33418 -0.0618083 0
M  V30 1718 C 158.59 -1.48165 -0.835541 0
M  V30 1719 O 159.775 -1.76886 -0.801564 0
M  V30 1720 C 156.905 -3.31222 -1.04449 0
M  V30 1721 C 155.859 -4.26288 -0.382436 0
M  V30 1722 C 155.185 -5.13954 -1.47497 0
M  V30 1723 C 156.485 -5.1744 0.710865 0
M  V30 1724 H 158.179 -2.91548 0.681184 0
M  V30 1725 H 155.725 -1.40191 0.329026 0
M  V30 1726 H 157.678 -3.92351 -1.53748 0
M  V30 1727 H 156.402 -2.71299 -1.81836 0
M  V30 1728 H 155.061 -3.6649 0.0899054 0
M  V30 1729 H 154.709 -4.50385 -2.2397 0
M  V30 1730 H 154.409 -5.7837 -1.03737 0
M  V30 1731 H 155.933 -5.77955 -1.96979 0
M  V30 1732 H 157.347 -5.72509 0.300996 0
M  V30 1733 H 155.744 -5.90455 1.07156 0
M  V30 1734 H 156.814 -4.58496 1.57829 0
M  V30 1735 N 158.157 -0.370918 -1.53173 0
M  V30 1736 C 159.087 0.464847 -2.28826 0
M  V30 1737 C 160.068 1.07936 -1.31468 0
M  V30 1738 O 161.253 1.0956 -1.60344 0
M  V30 1739 C 158.383 1.60196 -3.08147 0
M  V30 1740 C 157.337 1.11443 -4.13237 0
M  V30 1741 C 156.663 2.3422 -4.80672 0
M  V30 1742 C 157.963 0.195384 -5.21934 0
M  V30 1743 H 159.657 -0.166329 -2.98938 0
M  V30 1744 H 157.203 -0.0814359 -1.4377 0
M  V30 1745 H 159.156 2.19332 -3.59822 0
M  V30 1746 H 157.88 2.26045 -2.35735 0
M  V30 1747 H 156.539 0.545727 -3.62515 0
M  V30 1748 H 156.187 2.98537 -4.04827 0
M  V30 1749 H 155.887 2.02269 -5.51689 0
M  V30 1750 H 157.411 2.94032 -5.35143 0
M  V30 1751 H 158.825 0.694375 -5.69079 0
M  V30 1752 H 157.222 -0.0335027 -6.00091 0
M  V30 1753 H 158.292 -0.760961 -4.78892 0
M  V30 1754 N 159.635 1.57281 -0.100228 0
M  V30 1755 C 160.567 2.11342 0.886972 0
M  V30 1756 C 161.58 1.05182 1.24261 0
M  V30 1757 O 162.769 1.32613 1.19483 0
M  V30 1758 C 159.869 2.5825 2.19454 0
M  V30 1759 C 159.042 3.88302 2.01346 0
M  V30 1760 C 158.101 4.21004 3.15661 0
M  V30 1761 O 157.127 4.9014 2.89398 0
M  V30 1762 N 158.329 3.76818 4.41575 0
M  V30 1763 H 161.094 2.96668 0.425216 0
M  V30 1764 H 158.655 1.61678 0.0847334 0
M  V30 1765 H 160.647 2.7717 2.94888 0
M  V30 1766 H 159.217 1.77907 2.57037 0
M  V30 1767 H 158.437 3.7848 1.10212 0
M  V30 1768 H 159.725 4.73375 1.8653 0
M  V30 1769 H 159.123 3.2102 4.65792 0
M  V30 1770 H 157.68 4.00882 5.13942 0
M  V30 1771 N 161.113 -0.173488 1.56642 0
M  V30 1772 C 162.023 -1.23482 1.99473 0
M  V30 1773 C 163.039 -1.48567 0.905752 0
M  V30 1774 O 164.215 -1.60758 1.21321 0
M  V30 1775 C 161.28 -2.55444 2.34413 0
M  V30 1776 C 160.341 -2.38241 3.57127 0
M  V30 1777 C 159.574 -3.63909 3.90392 0
M  V30 1778 O 159.797 -4.68996 3.24653 0
M  V30 1779 O 158.731 -3.58149 4.83749 0
M  V30 1780 H 162.557 -0.901279 2.90018 0
M  V30 1781 H 160.142 -0.380185 1.44482 0
M  V30 1782 H 162.024 -3.33292 2.57865 0
M  V30 1783 H 160.699 -2.88382 1.4703 0
M  V30 1784 H 159.606 -1.58431 3.38896 0
M  V30 1785 H 160.939 -2.10228 4.45045 0
M  V30 1786 N 162.591 -1.51276 -0.441967 0
M  V30 1787 C 163.84 -1.6295 -1.18871 0
M  V30 1788 C 164.153 -0.349312 -1.92456 0
M  V30 1789 O 165.359 -0.345355 -2.69295 0
M  V30 1790 C 163.815 -2.87759 -2.16155 0
M  V30 1791 C 163.423 -4.22764 -1.48239 0
M  V30 1792 C 165.167 -3.08788 -2.91291 0
M  V30 1793 C 163.074 -5.38728 -2.4398 0
M  V30 1794 H 162.004 -0.606913 -0.447406 0
M  V30 1795 H 164.655 -1.77739 -0.456205 0
M  V30 1796 H 163.037 -2.66593 -2.92821 0
M  V30 1797 H 164.211 -4.54293 -0.771635 0
M  V30 1798 H 162.526 -4.07575 -0.852741 0
M  V30 1799 H 165.123 -3.92599 -3.63002 0
M  V30 1800 H 165.466 -2.21679 -3.5237 0
M  V30 1801 H 165.999 -3.30272 -2.21733 0
M  V30 1802 H 162.738 -6.28082 -1.87598 0
M  V30 1803 H 162.258 -5.1158 -3.13123 0
M  V30 1804 H 163.937 -5.70489 -3.05207 0
M  V30 1805 N 164.069 0.697108 -1.41344 0
M  V30 1806 C 165.294 1.49096 -1.44171 0
M  V30 1807 C 165.719 1.88038 -0.0481568 0
M  V30 1808 O 165.077 1.54525 0.948243 0
M  V30 1809 C 165.125 2.73088 -2.3549 0
M  V30 1810 O 164.229 3.70514 -1.81088 0
M  V30 1811 H 163.57 0.448801 -0.489361 0
M  V30 1812 H 166.1 0.856992 -1.85787 0
M  V30 1813 H 166.11 3.21413 -2.51312 0
M  V30 1814 H 164.785 2.44081 -3.36745 0
M  V30 1815 H 163.362 3.29441 -1.74708 0
M  V30 1816 N 165.547 1.27147 0.931209 0
M  V30 1817 C 166.777 1.15914 1.71019 0
M  V30 1818 C 167.185 -0.287112 1.87009 0
M  V30 1819 O 166.528 -1.20761 1.38429 0
M  V30 1820 C 166.59 1.76647 3.13107 0
M  V30 1821 C 166.254 3.25807 3.20467 0
M  V30 1822 C 167.251 4.22489 3.02983 0
M  V30 1823 C 164.936 3.66452 3.43538 0
M  V30 1824 C 166.93 5.57794 3.08454 0
M  V30 1825 C 164.617 5.01888 3.48643 0
M  V30 1826 C 165.615 5.97369 3.31119 0
M  V30 1827 O 165.303 7.30337 3.35952 0
M  V30 1828 H 165.035 0.404062 0.54195 0
M  V30 1829 H 167.589 1.68457 1.17521 0
M  V30 1830 H 165.819 1.18578 3.68071 0
M  V30 1831 H 167.508 1.60179 3.72958 0
M  V30 1832 H 168.274 3.92425 2.85004 0
M  V30 1833 H 164.153 2.92611 3.5623 0
M  V30 1834 H 167.697 6.32298 2.94694 0
M  V30 1835 H 163.594 5.31609 3.66145 0
M  V30 1836 H 164.362 7.38739 3.5243 0
M  V30 1837 N 167.025 -1.13721 1.09112 0
M  V30 1838 C 167.988 -2.17222 0.731241 0
M  V30 1839 C 168.988 -1.59035 -0.237566 0
M  V30 1840 O 170.178 -1.74192 -0.0161704 0
M  V30 1841 C 167.31 -3.40804 0.0808443 0
M  V30 1842 H 168.503 -2.50573 1.64783 0
M  V30 1843 H 166.056 -1.28493 0.889897 0
M  V30 1844 H 166.791 -3.1304 -0.847127 0
M  V30 1845 H 166.576 -3.84306 0.777896 0
M  V30 1846 H 168.066 -4.1731 -0.155657 0
M  V30 1847 N 168.503 -0.877838 -1.30888 0
M  V30 1848 C 169.45 -0.337538 -2.28318 0
M  V30 1849 C 170.42 0.568346 -1.56074 0
M  V30 1850 O 171.605 0.498298 -1.84178 0
M  V30 1851 C 168.745 0.448142 -3.42178 0
M  V30 1852 C 167.858 -0.48615 -4.29256 0
M  V30 1853 C 166.993 0.314427 -5.30269 0
M  V30 1854 C 166.032 -0.615791 -6.08995 0
M  V30 1855 N 165.169 0.14902 -7.01942 0
M  V30 1856 H 170.009 -1.17356 -2.73919 0
M  V30 1857 H 167.546 -0.590094 -1.34745 0
M  V30 1858 H 169.504 0.919517 -4.06941 0
M  V30 1859 H 168.134 1.24879 -2.97666 0
M  V30 1860 H 167.186 -1.076 -3.64865 0
M  V30 1861 H 168.498 -1.19909 -4.84173 0
M  V30 1862 H 167.652 0.847969 -6.00745 0
M  V30 1863 H 166.391 1.06062 -4.76027 0
M  V30 1864 H 165.396 -1.16102 -5.37401 0
M  V30 1865 H 166.621 -1.36097 -6.65323 0
M  V30 1866 H 164.567 0.877884 -6.50099 0
M  V30 1867 H 164.484 -0.504433 -7.54315 0
M  V30 1868 H 165.752 0.663537 -7.76671 0
M  V30 1869 N 169.982 1.44106 -0.638065 0
M  V30 1870 C 171.393 1.85316 -0.226894 0
M  V30 1871 C 171.744 1.53399 1.22324 0
M  V30 1872 O 170.869 0.975463 1.93167 0
M  V30 1873 C 171.464 3.3637 -0.405013 0
M  V30 1874 C 170.023 3.76369 -0.0482902 0
M  V30 1875 C 169.17 2.67921 -0.715108 0
M  V30 1876 H 172.121 1.34474 -0.842764 0
M  V30 1877 H 172.142 3.7885 0.354 0
M  V30 1878 H 171.654 3.59569 -1.46053 0
M  V30 1879 H 169.755 3.58784 1.00522 0
M  V30 1880 H 169.868 4.76856 -0.463187 0
M  V30 1881 H 168.232 2.54259 -0.149753 0
M  V30 1882 H 169.015 2.93951 -1.77335 0
M  V30 1883 N 171.46 0.379036 1.52974 0
M  V30 1884 C 172.69 -0.20649 2.05566 0
M  V30 1885 C 173.098 -1.41906 1.25137 0
M  V30 1886 O 172.441 -1.81421 0.288464 0
M  V30 1887 C 172.503 -0.651086 3.53555 0
M  V30 1888 C 172.167 0.446626 4.54812 0
M  V30 1889 C 173.164 1.30079 5.03364 0
M  V30 1890 C 170.849 0.610719 4.98573 0
M  V30 1891 C 172.843 2.30426 5.94292 0
M  V30 1892 C 170.53 1.61754 5.89304 0
M  V30 1893 C 171.528 2.46274 6.37054 0
M  V30 1894 O 171.216 3.45237 7.25994 0
M  V30 1895 H 170.948 -0.0372381 0.674974 0
M  V30 1896 H 173.502 0.539718 1.98182 0
M  V30 1897 H 171.732 -1.44911 3.58522 0
M  V30 1898 H 173.421 -1.16112 3.88938 0
M  V30 1899 H 174.187 1.18527 4.70294 0
M  V30 1900 H 170.066 -0.0374044 4.60985 0
M  V30 1901 H 173.61 2.96432 6.31485 0
M  V30 1902 H 169.507 1.73348 6.21788 0
M  V30 1903 H 170.275 3.41124 7.44027 0
M  V30 1904 N 172.938 -1.57226 0.108567 0
M  V30 1905 C 173.868 -2.17778 -0.84232 0
M  V30 1906 C 174.849 -1.11487 -1.2847 0
M  V30 1907 O 176.034 -1.39681 -1.34918 0
M  V30 1908 C 173.164 -2.76888 -2.09644 0
M  V30 1909 C 172.118 -3.88669 -1.79221 0
M  V30 1910 C 171.444 -4.34541 -3.11574 0
M  V30 1911 C 172.744 -5.11251 -1.06864 0
M  V30 1912 H 174.438 -2.97489 -0.337774 0
M  V30 1913 H 171.984 -1.43097 -0.161025 0
M  V30 1914 H 173.937 -3.17904 -2.76614 0
M  V30 1915 H 172.661 -1.94451 -2.62405 0
M  V30 1916 H 171.32 -3.48213 -1.14644 0
M  V30 1917 H 170.968 -3.48977 -3.62249 0
M  V30 1918 H 170.668 -5.09914 -2.91996 0
M  V30 1919 H 172.192 -4.782 -3.7968 0
M  V30 1920 H 173.606 -5.49352 -1.63968 0
M  V30 1921 H 172.003 -5.9214 -0.974178 0
M  V30 1922 H 173.073 -4.8487 -0.0536168 0
M  V30 1923 N 174.416 0.165178 -1.56732 0
M  V30 1924 C 175.664 0.879068 -1.8198 0
M  V30 1925 C 175.985 1.82514 -0.686561 0
M  V30 1926 O 175.255 1.93694 0.293146 0
M  V30 1927 H 173.835 0.327608 -0.671329 0
M  V30 1928 H 176.497 0.163526 -1.94213 0
M  V30 1929 H 175.593 1.45228 -2.76252 0
M  V30 1930 N 175.894 1.51508 0.433938 0
M  V30 1931 C 176.842 1.73646 1.54757 0
M  V30 1932 C 177.836 0.602854 1.5831 0
M  V30 1933 O 179.042 0.784318 1.62014 0
M  V30 1934 H 175.417 0.548718 0.51421 0
M  V30 1935 H 177.388 2.66991 1.33261 0
M  V30 1936 C 176.137 1.88172 2.92381 0
M  V30 1937 H 175.46 2.74808 2.90381 0
M  V30 1938 H 176.9 2.07672 3.6966 0
M  V30 1939 C 175.359 0.64239 3.30719 0
M  V30 1940 O 175.889 -0.201362 4.01195 0
M  V30 1941 N 174.095 0.485489 2.86516 0
M  V30 1942 H 173.642 1.17318 2.29334 0
M  V30 1943 H 173.6 -0.342482 3.12529 0
M  V30 1944 N 177.372 -0.689602 1.41712 0
M  V30 1945 C 178.649 -1.44457 1.31877 0
M  V30 1946 C 179.029 -2.11039 -0.0508537 0
M  V30 1947 O 178.377 -2.02138 -1.06547 0
M  V30 1948 C 178.587 -2.45913 2.47645 0
M  V30 1949 C 179.935 -3.10991 2.89084 0
M  V30 1950 O 180.959 -2.56238 2.47428 0
M  V30 1951 O 179.818 -4.10174 3.61137 0
M  V30 1952 H 176.912 -0.64362 0.519309 0
M  V30 1953 H 179.458 -0.719576 1.53689 0
M  V30 1954 H 178.23 -1.95409 3.39015 0
M  V30 1955 H 177.853 -3.25913 2.27742 0
M  V30 1956 N 178.85 -1.27639 -0.924453 0
M  V30 1957 C 179.8 -1.07295 -2.01176 0
M  V30 1958 C 180.784 5.77352e-05 -1.609 0
M  V30 1959 O 181.976 -0.218855 -1.75642 0
M  V30 1960 C 179.105 -0.725592 -3.35544 0
M  V30 1961 C 178.191 -1.83691 -3.82254 0
M  V30 1962 N 178.582 -3.07697 -4.01443 0
M  V30 1963 C 176.88 -1.72433 -4.11319 0
M  V30 1964 C 177.581 -3.80037 -4.40394 0
M  V30 1965 N 176.557 -3.0782 -4.48049 0
M  V30 1966 H 180.359 -2.01399 -2.14046 0
M  V30 1967 H 177.873 -1.18401 -1.11153 0
M  V30 1968 H 179.87 -0.560959 -4.13109 0
M  V30 1969 H 178.53 0.207782 -3.24034 0
M  V30 1970 H 179.541 -3.43424 -3.8766 0
M  V30 1971 H 176.218 -0.862005 -4.08504 0
M  V30 1972 H 177.608 -4.86632 -4.63291 0
M  V30 1973 N 180.328 1.1314 -1.09713 0
M  V30 1974 C 181.556 1.88321 -0.856898 0
M  V30 1975 C 181.971 1.79276 0.592073 0
M  V30 1976 O 181.328 1.16142 1.40774 0
M  V30 1977 C 181.379 3.37812 -1.28706 0
M  V30 1978 O 181.1 3.46627 -2.67921 0
M  V30 1979 C 182.601 4.29952 -1.07964 0
M  V30 1980 H 179.821 0.596094 -0.308079 0
M  V30 1981 H 182.365 1.43205 -1.45988 0
M  V30 1982 H 180.52 3.805 -0.727912 0
M  V30 1983 H 180.934 4.39579 -2.8613 0
M  V30 1984 H 182.408 5.33159 -1.42986 0
M  V30 1985 H 182.885 4.39196 -0.0176577 0
M  V30 1986 H 183.491 3.93036 -1.62489 0
M  V30 1987 N 181.806 0.884767 1.30421 0
M  V30 1988 C 183.217 0.553656 1.78302 0
M  V30 1989 C 183.568 -0.930153 1.7275 0
M  V30 1990 O 182.693 -1.72681 1.30423 0
M  V30 1991 C 183.288 0.998234 3.2376 0
M  V30 1992 C 181.847 0.71854 3.69478 0
M  V30 1993 C 180.994 1.18132 2.50879 0
M  V30 1994 H 183.945 1.06901 1.17294 0
M  V30 1995 H 183.966 0.327118 3.79091 0
M  V30 1996 H 183.478 2.0782 3.27769 0
M  V30 1997 H 181.579 -0.349444 3.70958 0
M  V30 1998 H 181.692 1.30595 4.60958 0
M  V30 1999 H 180.056 0.600669 2.47516 0
M  V30 2000 H 180.839 2.26902 2.57624 0
M  V30 2001 N 183.284 -1.43765 0.645699 0
M  V30 2002 C 184.533 -2.01116 0.153412 0
M  V30 2003 C 184.846 -1.51493 -1.23731 0
M  V30 2004 O 186.052 -2.01067 -1.8244 0
M  V30 2005 C 184.508 -3.59206 0.223473 0
M  V30 2006 C 184.116 -4.17823 1.61642 0
M  V30 2007 C 185.86 -4.23972 -0.211597 0
M  V30 2008 C 183.767 -5.68183 1.64081 0
M  V30 2009 H 182.697 -0.752093 0.0535891 0
M  V30 2010 H 185.348 -1.6482 0.806633 0
M  V30 2011 H 183.73 -3.92867 -0.497118 0
M  V30 2012 H 184.904 -3.95674 2.36176 0
M  V30 2013 H 183.219 -3.65399 1.99681 0
M  V30 2014 H 185.816 -5.34275 -0.213112 0
M  V30 2015 H 186.159 -3.97352 -1.24165 0
M  V30 2016 H 186.692 -3.95166 0.456988 0
M  V30 2017 H 183.431 -5.99559 2.64971 0
M  V30 2018 H 182.951 -5.9241 0.938611 0
M  V30 2019 H 184.63 -6.32085 1.3812 0
M  V30 2020 N 184.763 -0.387143 -1.52771 0
M  V30 2021 C 186.04 0.253197 -1.93954 0
M  V30 2022 C 186.42 1.64545 -1.32243 0
M  V30 2023 O 185.768 2.23191 -0.489699 0
M  V30 2024 C 185.978 0.281722 -3.47861 0
M  V30 2025 C 187.326 0.511715 -4.21505 0
M  V30 2026 O 188.35 0.362023 -3.54356 0
M  V30 2027 O 187.209 0.804847 -5.40541 0
M  V30 2028 H 184.303 0.156845 -0.811991 0
M  V30 2029 H 186.849 -0.441494 -1.63856 0
M  V30 2030 H 185.621 -0.693571 -3.85104 0
M  V30 2031 H 185.244 1.02142 -3.84256 0
M  V30 2032 N 186.241 1.57166 -0.116904 0
M  V30 2033 C 187.151 2.18745 0.847812 0
M  V30 2034 C 188.167 1.163 1.29423 0
M  V30 2035 O 189.343 1.48761 1.35765 0
M  V30 2036 C 186.408 2.77307 2.0809 0
M  V30 2037 C 185.469 3.94781 1.68661 0
M  V30 2038 C 184.702 4.50541 2.86091 0
M  V30 2039 O 184.925 4.05202 4.01456 0
M  V30 2040 O 183.859 5.41256 2.63298 0
M  V30 2041 H 187.685 3.01632 0.353778 0
M  V30 2042 H 185.27 1.49005 0.108599 0
M  V30 2043 H 187.152 3.14647 2.80313 0
M  V30 2044 H 185.827 1.97452 2.56504 0
M  V30 2045 H 184.734 3.62214 0.935518 0
M  V30 2046 H 186.067 4.76065 1.24991 0
M  V30 2047 N 187.719 -0.156864 1.56817 0
M  V30 2048 C 188.966 -0.871125 1.82805 0
M  V30 2049 C 189.294 -1.81611 0.696262 0
M  V30 2050 O 188.549 -1.93141 -0.315459 0
M  V30 2051 C 188.848 -1.68737 3.1506 0
M  V30 2052 C 188.514 -0.890045 4.42028 0
M  V30 2053 C 187.176 -0.670042 4.76512 0
M  V30 2054 C 189.528 -0.331769 5.20143 0
M  V30 2055 C 186.856 0.119104 5.86579 0
M  V30 2056 C 189.208 0.444365 6.31037 0
M  V30 2057 C 187.872 0.675035 6.64078 0
M  V30 2058 H 187.142 -0.318767 0.668931 0
M  V30 2059 H 189.789 -0.135274 1.91022 0
M  V30 2060 H 188.094 -2.49304 3.0225 0
M  V30 2061 H 189.791 -2.24331 3.3238 0
M  V30 2062 H 186.381 -1.07157 4.14988 0
M  V30 2063 H 190.565 -0.489043 4.93885 0
M  V30 2064 H 185.821 0.307417 6.10627 0
M  V30 2065 H 189.995 0.884139 6.90765 0
M  V30 2066 H 187.622 1.28839 7.49203 0
M  V30 2067 N 189.197 -1.51736 -0.425897 0
M  V30 2068 C 190.422 -1.69082 -1.20108 0
M  V30 2069 C 190.847 -0.392398 -1.83962 0
M  V30 2070 O 190.205 0.64858 -1.69302 0
M  V30 2071 C 190.253 -2.81604 -2.25237 0
M  V30 2072 O 189.357 -2.46004 -3.30992 0
M  V30 2073 H 188.698 -0.563408 -0.35138 0
M  V30 2074 H 191.228 -1.98358 -0.501512 0
M  V30 2075 H 191.238 -3.06025 -2.69838 0
M  V30 2076 H 189.913 -3.75817 -1.78142 0
M  V30 2077 H 188.49 -2.32195 -2.91787 0
M  V30 2078 N 190.675 0.682077 -1.42076 0
M  V30 2079 C 192.086 1.26246 -1.37546 0
M  V30 2080 C 192.437 1.96092 -0.0651481 0
M  V30 2081 O 191.562 1.99587 0.836297 0
M  V30 2082 C 192.157 2.29594 -2.49143 0
M  V30 2083 C 190.716 2.83175 -2.47969 0
M  V30 2084 C 189.863 1.57395 -2.28303 0
M  V30 2085 H 192.814 0.475937 -1.51395 0
M  V30 2086 H 192.835 3.11175 -2.18976 0
M  V30 2087 H 192.347 1.78729 -3.44496 0
M  V30 2088 H 190.448 3.3818 -1.56413 0
M  V30 2089 H 190.561 3.32687 -3.44755 0
M  V30 2090 H 188.925 1.83699 -1.76428 0
M  V30 2091 H 189.708 1.08507 -3.25701 0
M  V30 2092 N 192.153 1.28127 0.917671 0
M  V30 2093 C 193.399 1.15223 1.66888 0
M  V30 2094 C 193.732 -0.299293 1.9188 0
M  V30 2095 O 193.007 -1.21805 1.51637 0
M  V30 2096 C 193.29 1.94706 3.02922 0
M  V30 2097 C 193.143 3.47898 2.85109 0
M  V30 2098 C 194.462 1.75939 4.03402 0
M  V30 2099 H 191.581 0.419946 0.605652 0
M  V30 2100 H 194.223 1.57398 1.06423 0
M  V30 2101 H 192.373 1.58864 3.54534 0
M  V30 2102 H 194.045 3.93624 2.40537 0
M  V30 2103 H 192.288 3.7373 2.20246 0
M  V30 2104 H 192.959 3.98765 3.81694 0
M  V30 2105 H 195.435 2.07209 3.60837 0
M  V30 2106 H 194.311 2.33931 4.96556 0
M  V30 2107 H 194.572 0.709877 4.36364 0
M  V30 2108 N 193.631 -1.12557 1.10312 0
M  V30 2109 C 194.859 -1.87864 0.866873 0
M  V30 2110 C 195.274 -1.79588 -0.582557 0
M  V30 2111 O 194.631 -1.16887 -1.40156 0
M  V30 2112 C 194.682 -3.37125 1.30496 0
M  V30 2113 O 194.403 -3.45201 2.69755 0
M  V30 2114 C 195.904 -4.29373 1.10243 0
M  V30 2115 H 193.124 -0.594452 0.311236 0
M  V30 2116 H 195.668 -1.42429 1.46745 0
M  V30 2117 H 193.823 -3.80109 0.748081 0
M  V30 2118 H 194.237 -4.38056 2.88457 0
M  V30 2119 H 195.711 -5.32394 1.45811 0
M  V30 2120 H 196.188 -4.39181 0.0409492 0
M  V30 2121 H 196.794 -3.92169 1.64571 0
M  V30 2122 N 195.109 -0.891671 -1.2995 0
M  V30 2123 C 196.525 -0.58662 -1.48428 0
M  V30 2124 C 196.725 0.873951 -1.81561 0
M  V30 2125 O 195.781 1.65471 -1.90724 0
M  V30 2126 C 197.094 -1.50553 -2.60296 0
M  V30 2127 C 198.642 -1.50988 -2.74175 0
M  V30 2128 C 199.117 -2.41488 -3.89163 0
M  V30 2129 N 200.608 -2.39489 -3.96483 0
M  V30 2130 C 201.343 -3.06223 -4.84784 0
M  V30 2131 N 200.839 -3.82206 -5.77833 0
M  V30 2132 N 202.632 -2.95421 -4.78208 0
M  V30 2133 H 194.783 -1.83644 -1.06718 0
M  V30 2134 H 197.046 -0.786455 -0.529332 0
M  V30 2135 H 196.752 -2.54581 -2.42654 0
M  V30 2136 H 196.626 -1.22008 -3.56923 0
M  V30 2137 H 199.013 -0.47708 -2.91218 0
M  V30 2138 H 199.094 -1.83567 -1.78148 0
M  V30 2139 H 198.738 -3.44857 -3.72876 0
M  V30 2140 H 198.668 -2.06222 -4.84541 0
M  V30 2141 H 201.159 -1.84278 -3.29924 0
M  V30 2142 H 201.472 -4.302 -6.41988 0
M  V30 2143 H 199.817 -3.86313 -5.77743 0
M  V30 2144 H 203.008 -2.35581 -4.04499 0
M  V30 2145 H 203.181 -3.47704 -5.46814 0
M  V30 2146 N 196.587 1.43421 -0.653314 0
M  V30 2147 C 197.815 2.06163 -0.174491 0
M  V30 2148 C 198.23 1.48969 1.1599 0
M  V30 2149 O 197.587 0.621042 1.71608 0
M  V30 2150 C 197.638 3.61417 -0.0774865 0
M  V30 2151 O 197.359 4.16485 -1.35912 0
M  V30 2152 C 198.86 4.41235 0.427402 0
M  V30 2153 H 196.08 0.664946 -0.0899353 0
M  V30 2154 H 198.624 1.83924 -0.893988 0
M  V30 2155 H 196.779 3.82841 0.59257 0
M  V30 2156 H 197.193 5.10153 -1.21839 0
M  V30 2157 H 198.667 5.5021 0.44423 0
M  V30 2158 H 199.144 4.14268 1.45873 0
M  V30 2159 H 199.75 4.2478 -0.210167 0
M  V30 2160 N 198.065 0.39524 1.52563 0
M  V30 2161 C 199.293 -0.184943 2.06072 0
M  V30 2162 C 199.708 -1.40021 1.26647 0
M  V30 2163 O 199.065 -1.79767 0.314672 0
M  V30 2164 C 199.116 -0.549179 3.57304 0
M  V30 2165 O 198.837 0.617813 4.33722 0
M  V30 2166 C 200.338 -1.18459 4.2718 0
M  V30 2167 H 197.558 -0.0265025 0.670476 0
M  V30 2168 H 200.102 0.562184 1.96621 0
M  V30 2169 H 198.257 -1.2462 3.66809 0
M  V30 2170 H 198.671 0.317091 5.23541 0
M  V30 2171 H 200.145 -1.38976 5.34219 0
M  V30 2172 H 200.622 -2.15368 3.82771 0
M  V30 2173 H 201.228 -0.528163 4.22008 0
M  V30 2174 N 199.544 -1.57102 0.125237 0
M  V30 2175 C 200.769 -2.0019 -0.542101 0
M  V30 2176 C 201.194 -1.00449 -1.59034 0
M  V30 2177 O 200.552 0.0229423 -1.81285 0
M  V30 2178 C 200.6 -3.42129 -1.13929 0
M  V30 2179 O 199.704 -3.45307 -2.2547 0
M  V30 2180 H 199.045 -0.650171 -0.134812 0
M  V30 2181 H 201.575 -2.03461 0.215553 0
M  V30 2182 H 201.585 -3.80471 -1.4733 0
M  V30 2183 H 200.26 -4.14237 -0.371531 0
M  V30 2184 H 198.837 -3.1879 -1.93462 0
M  V30 2185 N 201.022 0.148545 -1.56898 0
M  V30 2186 C 202.268 0.862694 -1.83536 0
M  V30 2187 C 202.601 1.80889 -0.706604 0
M  V30 2188 O 201.876 1.92328 0.289885 0
M  V30 2189 C 202.159 1.63853 -3.20662 0
M  V30 2190 C 202.012 0.713925 -4.44098 0
M  V30 2191 C 203.331 2.60133 -3.54991 0
M  V30 2192 H 200.45 0.312179 -0.667618 0
M  V30 2193 H 203.092 0.127953 -1.89569 0
M  V30 2194 H 201.242 2.26489 -3.1565 0
M  V30 2195 H 202.914 0.098686 -4.61194 0
M  V30 2196 H 201.157 0.0234019 -4.33794 0
M  V30 2197 H 201.828 1.29278 -5.36648 0
M  V30 2198 H 204.304 2.07616 -3.60603 0
M  V30 2199 H 203.18 3.11468 -4.51972 0
M  V30 2200 H 203.441 3.41417 -2.80868 0
M  V30 2201 N 202.5 1.5196 0.417844 0
M  V30 2202 C 203.448 1.75278 1.52907 0
M  V30 2203 C 204.442 0.619611 1.57662 0
M  V30 2204 O 205.648 0.801457 1.61173 0
M  V30 2205 H 202.023 0.554141 0.508362 0
M  V30 2206 H 203.994 2.68389 1.30422 0
M  V30 2207 C 202.743 1.91262 2.90369 0
M  V30 2208 H 202.066 2.77872 2.8745 0
M  V30 2209 H 203.506 2.11581 3.67436 0
M  V30 2210 C 201.965 0.677431 3.30019 0
M  V30 2211 O 202.495 -0.158799 4.01386 0
M  V30 2212 N 200.701 0.515851 2.85985 0
M  V30 2213 H 200.248 1.19744 2.28077 0
M  V30 2214 H 200.206 -0.309315 3.12875 0
M  V30 2215 N 203.978 -0.674533 1.42435 0
M  V30 2216 C 205.227 -1.43034 1.42212 0
M  V30 2217 C 205.54 -1.95555 0.0420788 0
M  V30 2218 O 206.746 -2.71374 -0.0827558 0
M  V30 2219 C 205.202 -2.58748 2.50155 0
M  V30 2220 C 204.81 -2.12925 3.94166 0
M  V30 2221 C 206.554 -3.36257 2.59098 0
M  V30 2222 C 204.461 -3.25723 4.93618 0
M  V30 2223 H 203.391 -0.537345 0.528939 0
M  V30 2224 H 206.042 -0.73024 1.68344 0
M  V30 2225 H 204.424 -3.31128 2.17188 0
M  V30 2226 H 205.598 -1.47697 4.36488 0
M  V30 2227 H 203.913 -1.48354 3.89076 0
M  V30 2228 H 206.51 -4.20264 3.30578 0
M  V30 2229 H 206.853 -3.82866 1.63461 0
M  V30 2230 H 207.386 -2.70947 2.9126 0
M  V30 2231 H 204.125 -2.84105 5.90732 0
M  V30 2232 H 203.645 -3.89732 4.55926 0
M  V30 2233 H 205.324 -3.91186 5.15347 0
M  V30 2234 N 205.456 -1.28612 -0.910864 0
M  V30 2235 C 206.403 -1.12786 -2.01365 0
M  V30 2236 C 207.373 -0.024201 -1.66082 0
M  V30 2237 O 208.558 -0.189667 -1.89855 0
M  V30 2238 C 205.698 -0.798743 -3.35729 0
M  V30 2239 C 204.811 -1.98173 -3.83864 0
M  V30 2240 C 203.946 -1.59298 -5.06752 0
M  V30 2241 C 202.985 -2.74245 -5.47226 0
M  V30 2242 N 202.122 -2.35842 -6.61304 0
M  V30 2243 H 206.962 -2.07142 -2.14234 0
M  V30 2244 H 204.499 -1.03093 -1.0493 0
M  V30 2245 H 206.457 -0.588662 -4.13026 0
M  V30 2246 H 205.087 0.10789 -3.2262 0
M  V30 2247 H 204.139 -2.30386 -3.02699 0
M  V30 2248 H 205.451 -2.84343 -4.09818 0
M  V30 2249 H 204.605 -1.34513 -5.916 0
M  V30 2250 H 203.344 -0.702618 -4.82612 0
M  V30 2251 H 202.349 -2.99725 -4.60918 0
M  V30 2252 H 203.574 -3.63928 -5.73353 0
M  V30 2253 H 201.52 -1.49279 -6.38789 0
M  V30 2254 H 201.437 -3.15546 -6.86998 0
M  V30 2255 H 202.705 -2.14348 -7.4945 0
M  V30 2256 N 206.934 1.1197 -1.10907 0
M  V30 2257 C 207.864 2.19928 -0.784473 0
M  V30 2258 C 208.845 1.6833 0.244726 0
M  V30 2259 O 210.03 1.93892 0.109418 0
M  V30 2260 C 207.16 3.46597 -0.220827 0
M  V30 2261 C 206.114 4.11376 -1.18127 0
M  V30 2262 C 205.44 5.32554 -0.478594 0
M  V30 2263 C 206.74 4.56945 -2.52979 0
M  V30 2264 H 208.434 2.47337 -1.68715 0
M  V30 2265 H 205.98 1.18879 -0.812642 0
M  V30 2266 H 207.933 4.21396 0.0184278 0
M  V30 2267 H 206.657 3.1863 0.717113 0
M  V30 2268 H 205.316 3.38564 -1.40606 0
M  V30 2269 H 204.964 5.00856 0.463976 0
M  V30 2270 H 204.664 5.76844 -1.11912 0
M  V30 2271 H 206.188 6.10096 -0.248 0
M  V30 2272 H 207.602 5.23093 -2.3462 0
M  V30 2273 H 205.999 5.1203 -3.12962 0
M  V30 2274 H 207.069 3.70676 -3.12614 0
M  V30 2275 N 208.412 0.89855 1.29475 0
M  V30 2276 C 209.637 0.538561 2.00285 0
M  V30 2277 C 210.062 -0.869135 1.66816 0
M  V30 2278 O 209.42 -1.57831 0.892145 0
M  V30 2279 C 209.468 0.736475 3.52999 0
M  V30 2280 O 208.572 -0.211537 4.11857 0
M  V30 2281 H 207.913 0.210563 0.62973 0
M  V30 2282 H 210.443 1.20982 1.64998 0
M  V30 2283 H 210.453 0.640685 4.02938 0
M  V30 2284 H 209.128 1.76276 3.76696 0
M  V30 2285 H 207.705 -0.0682991 3.72837 0
M  V30 2286 N 209.89 -1.43072 0.660911 0
M  V30 2287 C 211.118 -2.06067 0.185422 0
M  V30 2288 C 211.533 -1.49582 -1.15198 0
M  V30 2289 O 210.89 -0.630134 -1.71276 0
M  V30 2290 C 210.941 -3.61371 0.0966523 0
M  V30 2291 O 210.662 -4.15758 1.38119 0
M  V30 2292 C 212.163 -4.41455 -0.403996 0
M  V30 2293 H 209.383 -0.664459 0.0934604 0
M  V30 2294 H 211.927 -1.83447 0.90373 0
M  V30 2295 H 210.082 -3.8315 -0.572259 0
M  V30 2296 H 210.496 -5.09499 1.24542 0
M  V30 2297 H 211.97 -5.50437 -0.415045 0
M  V30 2298 H 212.447 -4.15036 -1.43674 0
M  V30 2299 H 213.053 -4.24663 0.232691 0
M  V30 2300 N 211.368 -0.403325 -1.52352 0
M  V30 2301 C 212.316 0.439752 -2.28405 0
M  V30 2302 C 213.31 1.05089 -1.32863 0
M  V30 2303 O 214.516 0.989759 -1.50345 0
M  V30 2304 H 210.891 0.160587 -0.734653 0
M  V30 2305 H 212.862 -0.222983 -2.97566 0
M  V30 2306 C 211.611 1.54736 -3.11371 0
M  V30 2307 H 210.934 1.08643 -3.84755 0
M  V30 2308 H 212.374 2.1112 -3.67701 0
M  V30 2309 C 210.833 2.51141 -2.24566 0
M  V30 2310 O 211.363 3.54887 -1.88196 0
M  V30 2311 N 209.569 2.21213 -1.8845 0
M  V30 2312 H 209.116 1.36878 -2.18225 0
M  V30 2313 H 209.074 2.85963 -1.30662 0
M  V30 2314 N 212.846 1.57033 -0.133567 0
M  V30 2315 C 214.092 1.95976 0.521649 0
M  V30 2316 C 214.425 1.01779 1.65393 0
M  V30 2317 O 213.7 0.0576581 1.94415 0
M  V30 2318 C 213.983 3.44738 1.04057 0
M  V30 2319 C 213.836 4.49711 -0.0892897 0
M  V30 2320 C 215.155 3.95682 1.92675 0
M  V30 2321 H 212.274 0.712579 0.188149 0
M  V30 2322 H 214.916 1.88813 -0.212076 0
M  V30 2323 H 213.066 3.50973 1.66583 0
M  V30 2324 H 214.738 4.55565 -0.725152 0
M  V30 2325 H 212.981 4.27261 -0.750378 0
M  V30 2326 H 213.652 5.51099 0.315284 0
M  V30 2327 H 216.128 3.91841 1.39998 0
M  V30 2328 H 215.004 5.00262 2.25897 0
M  V30 2329 H 215.265 3.37239 2.85872 0
M  V30 2330 N 214.325 -0.140222 1.56975 0
M  V30 2331 C 215.235 -1.19223 2.02047 0
M  V30 2332 C 216.251 -1.46612 0.937062 0
M  V30 2333 O 217.427 -1.58148 1.24704 0
M  V30 2334 C 214.492 -2.50414 2.39778 0
M  V30 2335 C 213.553 -2.30612 3.621 0
M  V30 2336 C 212.786 -3.55547 3.98023 0
M  V30 2337 O 213.009 -4.62004 3.34528 0
M  V30 2338 O 211.943 -3.47808 4.91237 0
M  V30 2339 H 215.769 -0.839559 2.91865 0
M  V30 2340 H 213.354 -0.349453 1.45256 0
M  V30 2341 H 215.236 -3.27747 2.64877 0
M  V30 2342 H 213.911 -2.85198 1.53114 0
M  V30 2343 H 212.818 -1.51207 3.4218 0
M  V30 2344 H 214.151 -2.00741 4.49404 0
M  V30 2345 N 215.803 -1.52179 -0.40978 0
M  V30 2346 C 217.028 -1.70347 -1.18308 0
M  V30 2347 C 217.453 -0.411887 -1.83535 0
M  V30 2348 O 216.811 0.630587 -1.6998 0
M  V30 2349 C 216.859 -2.83977 -2.22238 0
M  V30 2350 O 215.963 -2.495 -3.28365 0
M  V30 2351 H 215.304 -0.567103 -0.345384 0
M  V30 2352 H 217.834 -1.98879 -0.480445 0
M  V30 2353 H 217.844 -3.0887 -2.66577 0
M  V30 2354 H 216.519 -3.77685 -1.74146 0
M  V30 2355 H 215.096 -2.35277 -2.89308 0
M  V30 2356 N 217.281 0.66697 -1.42791 0
M  V30 2357 C 218.506 1.46004 -1.47301 0
M  V30 2358 C 218.931 1.87894 -0.0880317 0
M  V30 2359 O 218.289 1.56502 0.915253 0
M  V30 2360 C 218.337 2.68031 -2.41229 0
M  V30 2361 O 217.441 3.6659 -1.88906 0
M  V30 2362 H 216.782 0.43832 -0.49877 0
M  V30 2363 H 219.312 0.817391 -1.87563 0
M  V30 2364 H 219.322 3.1601 -2.58073 0
M  V30 2365 H 217.997 2.36883 -3.41847 0
M  V30 2366 H 216.574 3.25661 -1.81656 0
M  V30 2367 N 218.759 1.29093 0.90403 0
M  V30 2368 C 219.692 1.08176 2.00931 0
M  V30 2369 C 220.67 -0.005083 1.62599 0
M  V30 2370 O 221.854 0.144765 1.87943 0
M  V30 2371 C 218.981 0.645897 3.32484 0
M  V30 2372 C 218.027 1.73081 3.89801 0
M  V30 2373 S 218.86 3.32905 4.19446 0
M  V30 2374 C 220.016 2.91176 5.54046 0
M  V30 2375 H 220.249 2.01752 2.18365 0
M  V30 2376 H 217.782 1.13191 1.0501 0
M  V30 2377 H 219.74 0.401131 4.08535 0
M  V30 2378 H 218.401 -0.270188 3.12936 0
M  V30 2379 H 217.594 1.37768 4.84805 0
M  V30 2380 H 217.196 1.92888 3.20422 0
M  V30 2381 H 219.488 2.37952 6.34338 0
M  V30 2382 H 220.431 3.85014 5.94281 0
M  V30 2383 H 220.839 2.296 5.15698 0
M  V30 2384 N 220.237 -1.11381 1.11499 0
M  V30 2385 C 221.167 -2.19509 0.796125 0
M  V30 2386 C 222.148 -1.68458 -0.235796 0
M  V30 2387 O 223.333 -1.93947 -0.0991344 0
M  V30 2388 C 220.463 -3.46475 0.239205 0
M  V30 2389 C 219.417 -4.10744 1.20307 0
M  V30 2390 C 218.743 -5.32293 0.50683 0
M  V30 2391 C 220.043 -4.55597 2.55399 0
M  V30 2392 H 221.737 -2.46439 1.70024 0
M  V30 2393 H 219.283 -1.18446 0.818935 0
M  V30 2394 H 221.236 -4.214 0.00392006 0
M  V30 2395 H 219.96 -3.19006 -0.700206 0
M  V30 2396 H 218.619 -3.37813 1.42399 0
M  V30 2397 H 218.267 -5.01095 -0.437408 0
M  V30 2398 H 217.967 -5.76243 1.1497 0
M  V30 2399 H 219.491 -6.09956 0.280351 0
M  V30 2400 H 220.905 -5.21841 2.37391 0
M  V30 2401 H 219.302 -5.10363 3.15673 0
M  V30 2402 H 220.372 -3.69013 3.14575 0
M  V30 2403 N 221.715 -0.905404 -1.28997 0
M  V30 2404 C 222.645 -0.404212 -2.29975 0
M  V30 2405 C 223.626 0.523784 -1.61835 0
M  V30 2406 O 224.811 0.433298 -1.89304 0
M  V30 2407 C 221.941 0.364042 -3.45387 0
M  V30 2408 C 220.895 -0.474048 -4.25367 0
M  V30 2409 C 220.221 0.422045 -5.33032 0
M  V30 2410 C 221.521 -1.72696 -4.92923 0
M  V30 2411 H 223.215 -1.24807 -2.72146 0
M  V30 2412 H 220.761 -0.601585 -1.30832 0
M  V30 2413 H 222.714 0.725447 -4.15109 0
M  V30 2414 H 221.438 1.24174 -3.02074 0
M  V30 2415 H 220.097 -0.81786 -3.57361 0
M  V30 2416 H 219.745 1.29804 -4.85963 0
M  V30 2417 H 219.445 -0.135057 -5.87445 0
M  V30 2418 H 220.969 0.779517 -6.05604 0
M  V30 2419 H 222.383 -1.43495 -5.55051 0
M  V30 2420 H 220.78 -2.22582 -5.57295 0
M  V30 2421 H 221.85 -2.45964 -4.17887 0
M  V30 2422 N 223.193 1.4272 -0.668489 0
M  V30 2423 C 224.141 2.32586 0.0254857 0
M  V30 2424 C 225.135 1.49471 0.797176 0
M  V30 2425 O 226.341 1.65583 0.705853 0
M  V30 2426 H 222.716 0.751514 0.0270339 0
M  V30 2427 H 224.687 2.88823 -0.749936 0
M  V30 2428 C 223.436 3.3397 0.967427 0
M  V30 2429 H 222.759 3.97961 0.383048 0
M  V30 2430 H 224.199 3.9945 1.42181 0
M  V30 2431 C 222.658 2.65744 2.0708 0
M  V30 2432 O 223.188 2.48454 3.15648 0
M  V30 2433 N 221.394 2.2487 1.8407 0
M  V30 2434 H 220.941 2.39132 0.95778 0
M  V30 2435 H 220.899 1.79552 2.58086 0
M  V30 2436 N 224.671 0.411399 1.52136 0
M  V30 2437 C 225.601 -0.404015 2.29978 0
M  V30 2438 C 226.582 -1.04412 1.34284 0
M  V30 2439 O 227.767 -1.0527 1.63192 0
M  V30 2440 C 224.897 -1.5197 3.12286 0
M  V30 2441 C 223.851 -1.00448 4.16046 0
M  V30 2442 C 223.177 -2.21393 4.86712 0
M  V30 2443 C 224.477 -0.0569336 5.22269 0
M  V30 2444 H 226.171 0.245529 2.98392 0
M  V30 2445 H 223.717 0.119525 1.43503 0
M  V30 2446 H 225.67 -2.09715 3.6551 0
M  V30 2447 H 224.394 -2.19716 2.41646 0
M  V30 2448 H 223.053 -0.449421 3.63835 0
M  V30 2449 H 222.701 -2.87699 4.12599 0
M  V30 2450 H 222.401 -1.87571 5.56858 0
M  V30 2451 H 223.925 -2.7974 5.4275 0
M  V30 2452 H 225.339 -0.54325 5.7072 0
M  V30 2453 H 223.736 0.192594 5.99791 0
M  V30 2454 H 224.806 0.887663 4.76706 0
M  V30 2455 N 226.149 -1.5696 0.141893 0
M  V30 2456 C 227.079 -2.19516 -0.795936 0
M  V30 2457 C 228.06 -1.14187 -1.26077 0
M  V30 2458 O 229.245 -1.42511 -1.31925 0
M  V30 2459 C 226.375 -2.81272 -2.03723 0
M  V30 2460 C 225.329 -3.92384 -1.70936 0
M  V30 2461 C 224.655 -4.41052 -3.02287 0
M  V30 2462 C 225.955 -5.13403 -0.959954 0
M  V30 2463 H 227.649 -2.98138 -0.274596 0
M  V30 2464 H 225.195 -1.43406 -0.130636 0
M  V30 2465 H 227.148 -3.237 -2.69808 0
M  V30 2466 H 225.872 -1.99973 -2.58221 0
M  V30 2467 H 224.531 -3.50566 -1.07232 0
M  V30 2468 H 224.179 -3.56582 -3.54765 0
M  V30 2469 H 223.879 -5.15993 -2.81114 0
M  V30 2470 H 225.403 -4.86146 -3.69451 0
M  V30 2471 H 226.817 -5.52706 -1.52279 0
M  V30 2472 H 225.214 -5.94073 -0.848357 0
M  V30 2473 H 226.284 -4.84875 0.0492434 0
M  V30 2474 N 227.627 0.131896 -1.57047 0
M  V30 2475 C 228.873 0.843179 -1.84441 0
M  V30 2476 C 229.206 1.80129 -0.725749 0
M  V30 2477 O 228.481 1.92624 0.269469 0
M  V30 2478 C 228.764 1.60442 -3.22382 0
M  V30 2479 C 228.617 0.666782 -4.4483 0
M  V30 2480 C 229.936 2.56354 -3.5773 0
M  V30 2481 H 227.055 0.305081 -0.670891 0
M  V30 2482 H 229.697 0.107839 -1.89694 0
M  V30 2483 H 227.847 2.23128 -3.18035 0
M  V30 2484 H 229.519 0.0497646 -4.61273 0
M  V30 2485 H 227.762 -0.022609 -4.33794 0
M  V30 2486 H 228.433 1.23579 -5.37989 0
M  V30 2487 H 230.909 2.0378 -3.62785 0
M  V30 2488 H 229.785 3.06657 -4.5525 0
M  V30 2489 H 230.046 3.38419 -2.84473 0
M  V30 2490 N 229.106 1.52395 0.401703 0
M  V30 2491 C 230.036 1.79231 1.49661 0
M  V30 2492 C 231.017 0.643654 1.57452 0
M  V30 2493 O 232.202 0.889989 1.72606 0
M  V30 2494 C 229.332 1.94971 2.87409 0
M  V30 2495 C 228.286 3.10604 2.94465 0
M  V30 2496 C 227.612 3.11577 4.34538 0
M  V30 2497 C 228.912 4.49921 2.6527 0
M  V30 2498 H 230.606 2.70917 1.27454 0
M  V30 2499 H 228.152 1.30362 0.6117 0
M  V30 2500 H 230.105 2.12328 3.63999 0
M  V30 2501 H 228.829 0.999632 3.10926 0
M  V30 2502 H 227.488 2.93009 2.20321 0
M  V30 2503 H 227.136 2.14277 4.55076 0
M  V30 2504 H 226.836 3.89247 4.40183 0
M  V30 2505 H 228.36 3.31073 5.13053 0
M  V30 2506 H 229.774 4.67683 3.31581 0
M  V30 2507 H 228.171 5.29564 2.82281 0
M  V30 2508 H 229.241 4.57507 1.60671 0
M  V30 2509 N 230.584 -0.659388 1.43143 0
M  V30 2510 C 231.832 -1.41654 1.44147 0
M  V30 2511 C 232.153 -1.94893 0.0645739 0
M  V30 2512 O 231.423 -1.74044 -0.899198 0
M  V30 2513 H 230.003 -0.525708 0.530697 0
M  V30 2514 H 232.665 -0.778097 1.78694 0
M  V30 2515 H 231.761 -2.26195 2.1504 0
M  V30 2516 N 232.062 -1.29571 -0.897171 0
M  V30 2517 C 233.025 -1.14913 -1.98312 0
M  V30 2518 C 234.025 -0.0838629 -1.60581 0
M  V30 2519 O 235.215 -0.331006 -1.71026 0
M  V30 2520 C 232.347 -0.757835 -3.3237 0
M  V30 2521 H 233.54 -2.11377 -2.12743 0
M  V30 2522 H 231.093 -1.12793 -1.08201 0
M  V30 2523 H 231.828 0.206837 -3.2364 0
M  V30 2524 H 231.613 -1.52755 -3.61121 0
M  V30 2525 H 233.103 -0.678408 -4.12053 0
M  V30 2526 N 233.54 1.10788 -1.12088 0
M  V30 2527 C 234.788 1.8231 -0.872205 0
M  V30 2528 C 235.109 1.85419 0.603709 0
M  V30 2529 O 234.379 1.32963 1.43867 0
M  V30 2530 H 232.959 0.675137 -0.319686 0
M  V30 2531 H 235.621 1.34068 -1.41463 0
M  V30 2532 H 234.717 2.85955 -1.25045 0
M  V30 2533 N 235.018 0.912232 1.28515 0
M  V30 2534 C 236.429 0.591352 1.77087 0
M  V30 2535 C 236.78 -0.8933 1.74684 0
M  V30 2536 O 235.905 -1.69876 1.34056 0
M  V30 2537 C 236.5 1.06668 3.2157 0
M  V30 2538 C 235.059 0.79675 3.67871 0
M  V30 2539 C 234.206 1.23427 2.48316 0
M  V30 2540 H 237.157 1.09365 1.15 0
M  V30 2541 H 237.178 0.407455 3.78312 0
M  V30 2542 H 236.69 2.14726 3.23287 0
M  V30 2543 H 234.791 -0.270679 3.71616 0
M  V30 2544 H 234.904 1.40343 4.58084 0
M  V30 2545 H 233.268 0.653036 2.46186 0
M  V30 2546 H 234.051 2.32316 2.52753 0
M  V30 2547 N 236.496 -1.42363 0.676048 0
M  V30 2548 C 237.773 -1.95183 0.127726 0
M  V30 2549 C 238.153 -1.61641 -1.35777 0
M  V30 2550 O 237.501 -0.913216 -2.09458 0
M  V30 2551 C 237.711 -3.46721 0.398199 0
M  V30 2552 C 239.059 -4.23427 0.315383 0
M  V30 2553 O 240.083 -3.54649 0.332016 0
M  V30 2554 O 238.942 -5.45888 0.25865 0
M  V30 2555 H 236.036 -0.826992 0.00359427 0
M  V30 2556 H 238.582 -1.52184 0.750864 0
M  V30 2557 H 237.354 -3.64344 1.4272 0
M  V30 2558 H 236.977 -3.96769 -0.256885 0
M  V30 2559 N 237.974 -0.419461 -1.51915 0
M  V30 2560 C 239.223 0.154346 -2.01109 0
M  V30 2561 C 239.536 1.45338 -1.30905 0
M  V30 2562 O 240.742 2.10906 -1.7097 0
M  V30 2563 C 239.198 0.325615 -3.58424 0
M  V30 2564 C 238.806 -0.961934 -4.37551 0
M  V30 2565 C 240.55 0.854155 -4.15818 0
M  V30 2566 C 238.457 -0.757287 -5.86531 0
M  V30 2567 H 237.387 0.0614563 -0.751491 0
M  V30 2568 H 240.038 -0.54649 -1.75173 0
M  V30 2569 H 238.42 1.08903 -3.80731 0
M  V30 2570 H 239.594 -1.7323 -4.26999 0
M  V30 2571 H 237.909 -1.41766 -3.91524 0
M  V30 2572 H 240.506 1.02346 -5.24814 0
M  V30 2573 H 240.849 1.83172 -3.73837 0
M  V30 2574 H 241.382 0.149528 -3.97519 0
M  V30 2575 H 238.121 -1.70671 -6.32892 0
M  V30 2576 H 237.641 -0.0264061 -5.99794 0
M  V30 2577 H 239.32 -0.403482 -6.45741 0
M  V30 2578 N 239.452 1.56882 -0.150215 0
M  V30 2579 C 240.699 1.96228 0.500093 0
M  V30 2580 C 241.027 1.03522 1.64661 0
M  V30 2581 O 240.282 0.0650683 1.95592 0
M  V30 2582 C 240.581 3.41801 1.04437 0
M  V30 2583 C 240.247 4.50897 0.0159671 0
M  V30 2584 C 238.909 4.8046 -0.266731 0
M  V30 2585 C 241.261 5.16703 -0.683192 0
M  V30 2586 C 238.589 5.73135 -1.25434 0
M  V30 2587 C 240.941 6.10441 -1.65964 0
M  V30 2588 C 239.605 6.38382 -1.95 0
M  V30 2589 H 238.875 0.718048 0.182997 0
M  V30 2590 H 241.522 1.90019 -0.237724 0
M  V30 2591 H 239.827 3.44857 1.85959 0
M  V30 2592 H 241.524 3.69573 1.55618 0
M  V30 2593 H 238.114 4.27891 0.246485 0
M  V30 2594 H 242.298 4.93993 -0.477983 0
M  V30 2595 H 237.554 5.93074 -1.48571 0
M  V30 2596 H 241.728 6.60507 -2.20689 0
M  V30 2597 H 239.355 7.09996 -2.71679 0
M  V30 2598 N 240.93 -0.123565 1.57115 0
M  V30 2599 C 241.84 -1.17074 2.033 0
M  V30 2600 C 242.856 -1.4561 0.952559 0
M  V30 2601 O 244.032 -1.56817 1.26374 0
M  V30 2602 C 241.097 -2.47857 2.42421 0
M  V30 2603 C 240.158 -2.26758 3.64526 0
M  V30 2604 C 239.391 -3.51305 4.01771 0
M  V30 2605 O 239.614 -4.5843 3.39409 0
M  V30 2606 O 238.548 -3.42578 4.94898 0
M  V30 2607 H 242.374 -0.808555 2.92739 0
M  V30 2608 H 239.959 -0.334027 1.45618 0
M  V30 2609 H 241.841 -3.2492 2.68338 0
M  V30 2610 H 240.516 -2.83558 1.5613 0
M  V30 2611 H 239.423 -1.47569 3.43765 0
M  V30 2612 H 240.756 -1.95963 4.51508 0
M  V30 2613 N 242.408 -1.52605 -0.393616 0
M  V30 2614 C 243.633 -1.71592 -1.16495 0
M  V30 2615 C 244.058 -0.43133 -1.83088 0
M  V30 2616 O 243.416 0.612523 -1.7064 0
M  V30 2617 C 243.464 -2.86318 -2.19213 0
M  V30 2618 O 242.568 -2.52969 -3.257 0
M  V30 2619 H 241.909 -0.570734 -0.33935 0
M  V30 2620 H 244.439 -1.99377 -0.459324 0
M  V30 2621 H 244.449 -3.1168 -2.63286 0
M  V30 2622 H 243.124 -3.79511 -1.7013 0
M  V30 2623 H 241.701 -2.38332 -2.86797 0
M  V30 2624 N 243.887 0.651787 -1.4349 0
M  V30 2625 C 245.127 1.42345 -1.46688 0
M  V30 2626 C 245.491 1.91793 -0.0891023 0
M  V30 2627 O 246.692 2.688 0.00423594 0
M  V30 2628 C 244.963 2.57221 -2.48137 0
M  V30 2629 S 246.522 3.45725 -2.70221 0
M  V30 2630 H 243.34 0.485878 -0.51908 0
M  V30 2631 H 245.942 0.756578 -1.80267 0
M  V30 2632 H 244.646 2.1917 -3.46976 0
M  V30 2633 H 244.177 3.28757 -2.16061 0
M  V30 2634 H 246.192 4.53996 -2.00255 0
M  V30 2635 N 245.365 1.30045 0.890287 0
M  V30 2636 C 246.605 1.19839 1.65584 0
M  V30 2637 C 246.969 -0.244175 1.90441 0
M  V30 2638 O 248.17 -0.469378 2.6467 0
M  V30 2639 C 246.441 1.99876 2.96284 0
M  V30 2640 S 248 2.06309 3.87275 0
M  V30 2641 H 244.818 0.427157 0.568382 0
M  V30 2642 H 247.42 1.64453 1.05715 0
M  V30 2643 H 246.124 3.03809 2.75913 0
M  V30 2644 H 245.655 1.55903 3.61189 0
M  V30 2645 H 247.67 1.18661 4.81803 0
M  V30 2646 N 246.843 -1.10192 1.12674 0
M  V30 2647 C 248.073 -1.85713 0.905213 0
M  V30 2648 C 248.481 -1.81056 -0.549108 0
M  V30 2649 O 247.824 -1.19927 -1.39151 0
M  V30 2650 C 247.886 -3.34972 1.30516 0
M  V30 2651 C 247.55 -3.63385 2.77129 0
M  V30 2652 C 248.547 -3.59772 3.75313 0
M  V30 2653 C 246.232 -3.91981 3.14096 0
M  V30 2654 C 248.226 -3.84354 5.08479 0
M  V30 2655 C 245.913 -4.16218 4.47443 0
M  V30 2656 C 246.911 -4.12395 5.44444 0
M  V30 2657 O 246.599 -4.36014 6.75387 0
M  V30 2658 H 246.331 -0.593719 0.323223 0
M  V30 2659 H 248.885 -1.40198 1.50112 0
M  V30 2660 H 247.115 -3.81156 0.652463 0
M  V30 2661 H 248.804 -3.91886 1.05736 0
M  V30 2662 H 249.57 -3.37716 3.48099 0
M  V30 2663 H 245.449 -3.94085 2.39202 0
M  V30 2664 H 248.993 -3.81285 5.84181 0
M  V30 2665 H 244.89 -4.37754 4.74386 0
M  V30 2666 H 245.658 -4.53516 6.8137 0
M  V30 2667 N 248.321 -0.919034 -1.28029 0
M  V30 2668 C 249.732 -0.600735 -1.76771 0
M  V30 2669 C 250.083 0.884024 -1.75156 0
M  V30 2670 O 249.208 1.69163 -1.34956 0
M  V30 2671 C 249.803 -1.08372 -3.21 0
M  V30 2672 C 248.362 -0.816248 -3.67443 0
M  V30 2673 C 247.509 -1.24742 -2.47658 0
M  V30 2674 H 250.46 -1.09974 -1.14418 0
M  V30 2675 H 250.481 -0.427512 -3.78091 0
M  V30 2676 H 249.993 -2.16437 -3.22144 0
M  V30 2677 H 248.094 0.250968 -3.71754 0
M  V30 2678 H 248.207 -1.4277 -4.57333 0
M  V30 2679 H 246.571 -0.666083 -2.45836 0
M  V30 2680 H 247.354 -2.33653 -2.51518 0
M  V30 2681 N 249.799 1.42003 -0.683588 0
M  V30 2682 C 251.045 2.01712 -0.209825 0
M  V30 2683 C 251.378 1.53968 1.18353 0
M  V30 2684 O 250.653 0.745661 1.79639 0
M  V30 2685 C 250.936 3.59202 -0.254197 0
M  V30 2686 C 250.789 4.17102 -1.68363 0
M  V30 2687 C 252.108 4.38344 0.392709 0
M  V30 2688 H 249.227 0.732891 -0.0777189 0
M  V30 2689 H 251.869 1.68909 -0.87004 0
M  V30 2690 H 250.019 3.87278 0.307954 0
M  V30 2691 H 251.691 3.99946 -2.29871 0
M  V30 2692 H 249.934 3.72597 -2.22157 0
M  V30 2693 H 250.605 5.26249 -1.6663 0
M  V30 2694 H 253.081 4.16011 -0.0859162 0
M  V30 2695 H 251.957 5.47901 0.331063 0
M  V30 2696 H 252.218 4.16887 1.47164 0
M  V30 2697 N 251.277 0.427512 1.51691 0
M  V30 2698 C 252.693 0.0792977 1.59403 0
M  V30 2699 C 252.893 -1.41035 1.43914 0
M  V30 2700 O 251.949 -2.17922 1.27539 0
M  V30 2701 C 253.262 0.590636 2.94842 0
M  V30 2702 C 254.81 0.550215 3.08126 0
M  V30 2703 C 255.285 1.03836 4.46074 0
M  V30 2704 N 256.776 0.995943 4.52366 0
M  V30 2705 C 257.511 1.34463 5.57411 0
M  V30 2706 N 257.007 1.76569 6.69922 0
M  V30 2707 N 258.8 1.26343 5.47717 0
M  V30 2708 H 250.951 1.39687 1.60004 0
M  V30 2709 H 253.214 0.575003 0.753708 0
M  V30 2710 H 252.92 1.63251 3.11516 0
M  V30 2711 H 252.794 0.0102061 3.77199 0
M  V30 2712 H 255.181 -0.482654 2.91126 0
M  V30 2713 H 255.262 1.16693 2.27632 0
M  V30 2714 H 254.906 2.06965 4.63819 0
M  V30 2715 H 254.836 0.398286 5.25092 0
M  V30 2716 H 257.327 0.68661 3.7161 0
M  V30 2717 H 257.64 2.01438 7.46085 0
M  V30 2718 H 255.985 1.80488 6.71155 0
M  V30 2719 H 259.176 0.933209 4.58703 0
M  V30 2720 H 259.349 1.53846 6.29472 0
M  V30 2721 N 252.755 -1.56801 0.158532 0
M  V30 2722 C 253.702 -2.17337 -0.776729 0
M  V30 2723 C 254.672 -1.1096 -1.23601 0
M  V30 2724 O 255.857 -1.39054 -1.30647 0
M  V30 2725 C 252.997 -2.80822 -2.00582 0
M  V30 2726 C 252.11 -4.01624 -1.59129 0
M  V30 2727 C 251.245 -4.53072 -2.77306 0
M  V30 2728 C 250.284 -5.66314 -2.32282 0
M  V30 2729 N 249.421 -6.12329 -3.43508 0
M  V30 2730 H 254.261 -2.96918 -0.253701 0
M  V30 2731 H 251.798 -1.46661 -0.113504 0
M  V30 2732 H 253.756 -3.15779 -2.72652 0
M  V30 2733 H 252.386 -2.03866 -2.50277 0
M  V30 2734 H 251.438 -3.72571 -0.767806 0
M  V30 2735 H 252.75 -4.83633 -1.2207 0
M  V30 2736 H 251.904 -4.90145 -3.57551 0
M  V30 2737 H 250.643 -3.70095 -3.17617 0
M  V30 2738 H 249.648 -5.28806 -1.5048 0
M  V30 2739 H 250.873 -6.51085 -1.93043 0
M  V30 2740 H 248.819 -5.32284 -3.83418 0
M  V30 2741 H 248.736 -6.89293 -3.105 0
M  V30 2742 H 250.004 -6.5405 -4.24075 0
M  V30 2743 N 254.233 0.115231 -1.57178 0
M  V30 2744 C 255.163 1.1423 -2.03651 0
M  V30 2745 C 256.144 1.42967 -0.921655 0
M  V30 2746 O 257.329 1.53343 -1.19162 0
M  V30 2747 C 254.459 2.4675 -2.44401 0
M  V30 2748 C 253.413 2.32467 -3.59365 0
M  V30 2749 C 252.739 3.69984 -3.86026 0
M  V30 2750 C 254.039 1.78203 -4.90959 0
M  V30 2751 H 255.733 0.755749 -2.89705 0
M  V30 2752 H 253.279 0.362093 -1.39373 0
M  V30 2753 H 255.232 3.18854 -2.75517 0
M  V30 2754 H 253.956 2.87302 -1.55322 0
M  V30 2755 H 252.615 1.62811 -3.28463 0
M  V30 2756 H 252.263 4.08028 -2.94147 0
M  V30 2757 H 251.963 3.61279 -4.63412 0
M  V30 2758 H 253.487 4.43587 -4.19599 0
M  V30 2759 H 254.901 2.40128 -5.20587 0
M  V30 2760 H 253.298 1.8031 -5.72371 0
M  V30 2761 H 254.368 0.739876 -4.79222 0
M  V30 2762 N 255.711 1.52812 0.385517 0
M  V30 2763 C 256.96 1.67249 1.12741 0
M  V30 2764 C 257.273 0.4205 1.91027 0
M  V30 2765 O 258.479 0.445064 2.67827 0
M  V30 2766 C 256.935 2.95583 2.05326 0
M  V30 2767 C 256.543 4.27974 1.32447 0
M  V30 2768 C 258.287 3.19386 2.7963 0
M  V30 2769 C 256.194 5.47412 2.23818 0
M  V30 2770 H 255.124 0.6231 0.424573 0
M  V30 2771 H 257.775 1.79309 0.389924 0
M  V30 2772 H 256.157 2.77277 2.82725 0
M  V30 2773 H 257.331 4.56844 0.602495 0
M  V30 2774 H 255.646 4.10459 0.700885 0
M  V30 2775 H 258.243 4.05801 3.48181 0
M  V30 2776 H 258.586 2.34604 3.43899 0
M  V30 2777 H 259.119 3.38274 2.09322 0
M  V30 2778 H 255.858 6.34612 1.64157 0
M  V30 2779 H 255.378 5.22849 2.93921 0
M  V30 2780 H 257.057 5.81423 2.83824 0
M  V30 2781 N 257.189 -0.644168 1.43834 0
M  V30 2782 C 258.466 -1.40188 1.36406 0
M  V30 2783 C 258.846 -2.11094 0.0163124 0
M  V30 2784 O 258.194 -2.05426 -1.00062 0
M  V30 2785 C 258.404 -2.3791 2.55343 0
M  V30 2786 C 259.752 -3.01637 2.98832 0
M  V30 2787 O 260.776 -2.48237 2.55455 0
M  V30 2788 O 259.635 -3.98477 3.74003 0
M  V30 2789 H 256.729 -0.626773 0.539523 0
M  V30 2790 H 259.275 -0.670317 1.559 0
M  V30 2791 H 258.047 -1.84525 3.4506 0
M  V30 2792 H 257.67 -3.18503 2.37995 0
M  V30 2793 N 258.668 -1.30515 -0.883378 0
M  V30 2794 C 260.079 -1.17509 -1.45081 0
M  V30 2795 C 260.43 0.223605 -1.94922 0
M  V30 2796 O 259.555 1.12041 -1.85137 0
M  V30 2797 C 260.15 -2.12715 -2.63701 0
M  V30 2798 C 258.709 -2.03682 -3.16529 0
M  V30 2799 C 257.856 -2.02706 -1.89224 0
M  V30 2800 H 260.807 -1.42762 -0.693165 0
M  V30 2801 H 260.828 -1.70891 -3.39965 0
M  V30 2802 H 260.34 -3.14505 -2.27395 0
M  V30 2803 H 258.441 -1.05039 -3.57488 0
M  V30 2804 H 258.554 -2.92146 -3.7972 0
M  V30 2805 H 256.918 -1.4753 -2.07622 0
M  V30 2806 H 257.701 -3.06229 -1.55174 0
M  V30 2807 N 260.146 1.09593 -1.13257 0
M  V30 2808 C 261.423 1.78293 -0.804432 0
M  V30 2809 C 261.803 1.99004 0.70431 0
M  V30 2810 O 261.151 1.59007 1.641 0
M  V30 2811 C 261.361 3.10707 -1.5894 0
M  V30 2812 C 262.709 3.85443 -1.78099 0
M  V30 2813 O 263.733 3.20454 -1.55525 0
M  V30 2814 O 262.592 5.02108 -2.15753 0
M  V30 2815 H 259.686 0.773156 -0.293528 0
M  V30 2816 H 262.232 1.16164 -1.23709 0
M  V30 2817 H 261.004 2.91106 -2.61482 0
M  V30 2818 H 260.627 3.80558 -1.15157 0
M  V30 2819 N 261.624 0.925811 1.2754 0
M  V30 2820 C 262.87 0.566092 1.94739 0
M  V30 2821 C 263.203 -0.890057 1.72603 0
M  V30 2822 O 262.478 -1.63467 1.05399 0
M  V30 2823 C 262.761 0.89054 3.48915 0
M  V30 2824 C 262.614 2.4003 3.80402 0
M  V30 2825 C 263.933 0.395101 4.38323 0
M  V30 2826 H 261.052 0.20714 0.707292 0
M  V30 2827 H 263.694 1.15725 1.50691 0
M  V30 2828 H 261.844 0.387452 3.86563 0
M  V30 2829 H 263.516 2.97494 3.52555 0
M  V30 2830 H 261.759 2.85028 3.2702 0
M  V30 2831 H 262.43 2.57785 4.8811 0
M  V30 2832 H 264.906 0.826241 4.07814 0
M  V30 2833 H 263.782 0.651086 5.45025 0
M  V30 2834 H 264.043 -0.704798 4.36446 0
M  V30 2835 N 263.102 -1.41638 0.69111 0
M  V30 2836 C 264.348 -2.01598 0.220519 0
M  V30 2837 C 264.681 -1.54594 -1.17535 0
M  V30 2838 O 263.956 -0.755177 -1.79241 0
M  V30 2839 C 264.239 -3.59062 0.273243 0
M  V30 2840 C 264.092 -4.16203 1.70573 0
M  V30 2841 C 265.411 -4.38546 -0.369457 0
M  V30 2842 H 262.53 -0.732468 0.0816045 0
M  V30 2843 H 265.172 -1.68445 0.878986 0
M  V30 2844 H 263.322 -3.87435 -0.287411 0
M  V30 2845 H 264.994 -3.98722 2.31989 0
M  V30 2846 H 263.237 -3.71414 2.2413 0
M  V30 2847 H 263.908 -5.25358 1.69419 0
M  V30 2848 H 266.384 -4.1596 0.107977 0
M  V30 2849 H 265.26 -5.48069 -0.302002 0
M  V30 2850 H 265.521 -4.17662 -1.44951 0
M  V30 2851 N 264.58 -0.43555 -1.51462 0
M  V30 2852 C 265.81 0.130053 -2.0619 0
M  V30 2853 C 266.218 1.37164 -1.30317 0
M  V30 2854 O 265.561 1.80225 -0.355598 0
M  V30 2855 C 265.623 0.519418 -3.55728 0
M  V30 2856 C 265.287 -0.615119 -4.52841 0
M  V30 2857 C 266.284 -1.48671 -4.9819 0
M  V30 2858 C 263.969 -0.795341 -4.95963 0
M  V30 2859 C 265.963 -2.52324 -5.8533 0
M  V30 2860 C 263.65 -1.83514 -5.82894 0
M  V30 2861 C 264.648 -2.69748 -6.27475 0
M  V30 2862 O 264.336 -3.71944 -7.1268 0
M  V30 2863 H 264.068 0.0121612 -0.675891 0
M  V30 2864 H 266.622 -0.6129 -1.96043 0
M  V30 2865 H 264.852 1.31505 -3.63653 0
M  V30 2866 H 266.541 1.01597 -3.92979 0
M  V30 2867 H 267.307 -1.359 -4.65571 0
M  V30 2868 H 263.186 -0.133713 -4.60806 0
M  V30 2869 H 266.73 -3.19665 -6.20048 0
M  V30 2870 H 262.627 -1.96306 -6.14926 0
M  V30 2871 H 263.395 -3.68503 -7.30854 0
M  V30 2872 N 266.058 1.56714 -0.166846 0
M  V30 2873 C 267.335 1.88412 0.525373 0
M  V30 2874 C 267.715 1.07602 1.81618 0
M  V30 2875 O 267.063 0.168621 2.27877 0
M  V30 2876 C 267.273 3.40363 0.771613 0
M  V30 2877 C 268.621 4.10007 1.1036 0
M  V30 2878 O 269.645 3.45655 0.860304 0
M  V30 2879 O 268.504 5.2369 1.56239 0
M  V30 2880 H 265.598 0.781587 0.270278 0
M  V30 2881 H 268.144 1.68458 -0.204946 0
M  V30 2882 H 266.916 3.91046 -0.141093 0
M  V30 2883 H 266.539 3.65914 1.55541 0
M  V30 2884 N 267.536 -0.106894 1.57237 0
M  V30 2885 C 268.947 -0.662723 1.74542 0
M  V30 2886 C 269.298 -1.7971 0.787319 0
M  V30 2887 O 268.423 -2.16368 -0.0369636 0
M  V30 2888 C 269.018 -1.20896 3.16496 0
M  V30 2889 C 267.577 -1.71096 3.35266 0
M  V30 2890 C 266.724 -0.615642 2.7038 0
M  V30 2891 H 269.675 0.119106 1.58252 0
M  V30 2892 H 269.696 -2.07847 3.18716 0
M  V30 2893 H 269.208 -0.383122 3.86204 0
M  V30 2894 H 267.309 -2.56119 2.70618 0
M  V30 2895 H 267.422 -1.81208 4.43509 0
M  V30 2896 H 265.786 -1.05222 2.31949 0
M  V30 2897 H 266.569 0.199419 3.4272 0
M  V30 2898 N 269.014 -1.53014 -0.377408 0
M  V30 2899 C 270.239 -1.72818 -1.14668 0
M  V30 2900 C 270.664 -0.450725 -1.8262 0
M  V30 2901 O 270.022 0.59439 -1.7128 0
M  V30 2902 C 270.07 -2.88627 -2.16164 0
M  V30 2903 O 269.174 -2.56409 -3.22998 0
M  V30 2904 H 268.515 -0.574301 -0.333278 0
M  V30 2905 H 271.045 -1.99853 -0.438152 0
M  V30 2906 H 271.055 -3.14455 -2.59966 0
M  V30 2907 H 269.73 -3.81294 -1.66095 0
M  V30 2908 H 268.307 -2.4136 -2.84253 0
M  V30 2909 N 270.492 0.636531 -1.44174 0
M  V30 2910 C 271.44 1.76995 -1.50915 0
M  V30 2911 C 272.434 1.65053 -0.381295 0
M  V30 2912 O 273.64 1.71197 -0.55601 0
M  V30 2913 H 270.015 0.584247 -0.473455 0
M  V30 2914 H 271.986 1.68432 -2.4632 0
M  V30 2915 C 270.735 3.15314 -1.46534 0
M  V30 2916 H 270.058 3.25149 -2.32633 0
M  V30 2917 H 271.498 3.9453 -1.55312 0
M  V30 2918 C 269.957 3.3639 -0.185305 0
M  V30 2919 O 270.487 3.94699 0.746688 0
M  V30 2920 N 268.693 2.9046 -0.0901606 0
M  V30 2921 H 268.24 2.43193 -0.849416 0
M  V30 2922 H 268.198 3.04937 0.765553 0
M  V30 2923 N 271.97 1.30982 0.876444 0
M  V30 2924 C 273.2 1.23063 1.65949 0
M  V30 2925 C 273.608 -0.207537 1.88058 0
M  V30 2926 O 272.951 -1.14781 1.43426 0
M  V30 2927 C 273.013 1.89768 3.05333 0
M  V30 2928 C 272.677 3.39106 3.0636 0
M  V30 2929 C 273.674 4.3496 2.84791 0
M  V30 2930 C 271.359 3.80693 3.27686 0
M  V30 2931 C 273.353 5.70375 2.84519 0
M  V30 2932 C 271.04 5.16223 3.27043 0
M  V30 2933 C 272.038 6.10875 3.05485 0
M  V30 2934 O 271.726 7.43928 3.04674 0
M  V30 2935 H 271.458 0.426685 0.524324 0
M  V30 2936 H 274.012 1.7329 1.10271 0
M  V30 2937 H 272.242 1.34082 3.6271 0
M  V30 2938 H 273.931 1.75853 3.65829 0
M  V30 2939 H 274.697 4.0416 2.68103 0
M  V30 2940 H 270.576 3.07457 3.43499 0
M  V30 2941 H 274.12 6.44228 2.67611 0
M  V30 2942 H 270.017 5.4666 3.43269 0
M  V30 2943 H 270.785 7.53022 3.2078 0
M  V30 2944 N 273.449 -1.08991 1.13837 0
M  V30 2945 C 274.697 -1.80899 0.901098 0
M  V30 2946 C 275.018 -1.86356 -0.574134 0
M  V30 2947 O 274.288 -1.35235 -1.41733 0
M  V30 2948 H 272.868 -0.669966 0.330386 0
M  V30 2949 H 275.53 -1.318 1.43578 0
M  V30 2950 H 274.626 -2.83929 1.29578 0
M  V30 2951 N 274.927 -0.932562 -1.27047 0
M  V30 2952 C 276.174 -0.575559 -1.94148 0
M  V30 2953 C 276.502 0.883984 -1.73251 0
M  V30 2954 O 275.757 1.64655 -1.0577 0
M  V30 2955 C 276.056 -0.853713 -3.47054 0
M  V30 2956 C 275.722 -2.29577 -3.88079 0
M  V30 2957 C 274.384 -2.68999 -3.9899 0
M  V30 2958 C 276.736 -3.23331 -4.08787 0
M  V30 2959 C 274.064 -4.01289 -4.28 0
M  V30 2960 C 276.416 -4.55207 -4.39282 0
M  V30 2961 C 275.08 -4.94457 -4.48407 0
M  V30 2962 H 274.35 -0.210612 -0.710439 0
M  V30 2963 H 276.997 -1.17744 -1.51025 0
M  V30 2964 H 275.302 -0.169204 -3.91434 0
M  V30 2965 H 276.999 -0.55639 -3.97121 0
M  V30 2966 H 273.589 -1.97994 -3.80127 0
M  V30 2967 H 277.773 -2.94074 -3.99793 0
M  V30 2968 H 273.029 -4.31374 -4.33275 0
M  V30 2969 H 277.203 -5.27852 -4.54252 0
M  V30 2970 H 274.83 -5.96994 -4.7064 0
M  V30 2971 N 276.405 1.4127 -0.698611 0
M  V30 2972 C 277.653 2.00782 -0.230409 0
M  V30 2973 C 277.974 1.5562 1.17505 0
M  V30 2974 O 277.244 0.78815 1.79346 0
M  V30 2975 H 275.824 0.742464 -0.0821944 0
M  V30 2976 H 278.486 1.72852 -0.90045 0
M  V30 2977 H 277.582 3.11095 -0.25021 0
M  V30 2978 N 277.883 0.443576 1.51229 0
M  V30 2979 C 279.108 -0.121648 2.07043 0
M  V30 2980 C 279.533 -1.35156 1.30823 0
M  V30 2981 O 278.891 -1.7793 0.347934 0
M  V30 2982 C 278.939 -0.41624 3.5819 0
M  V30 2983 O 278.043 -1.50163 3.8409 0
M  V30 2984 H 277.384 0.000871367 0.663999 0
M  V30 2985 H 279.914 0.626706 1.94765 0
M  V30 2986 H 279.924 -0.664867 4.02546 0
M  V30 2987 H 278.599 0.482653 4.1309 0
M  V30 2988 H 277.176 -1.24248 3.51592 0
M  V30 2989 N 279.361 -1.56624 0.175154 0
M  V30 2990 C 280.61 -1.96173 -0.468921 0
M  V30 2991 C 280.923 -1.06401 -1.64128 0
M  V30 2992 O 282.129 -1.35648 -2.35185 0
M  V30 2993 C 280.585 -3.48833 -0.885633 0
M  V30 2994 C 280.193 -4.47237 0.261343 0
M  V30 2995 C 281.937 -3.97194 -1.49791 0
M  V30 2996 C 279.844 -5.9114 -0.175214 0
M  V30 2997 H 278.774 -0.732455 -0.178958 0
M  V30 2998 H 281.425 -1.81591 0.263997 0
M  V30 2999 H 279.807 -3.58848 -1.67464 0
M  V30 3000 H 280.981 -4.4894 1.03871 0
M  V30 3001 H 279.296 -4.08956 0.783827 0
M  V30 3002 H 281.893 -5.02167 -1.83665 0
M  V30 3003 H 282.236 -3.40351 -2.39722 0
M  V30 3004 H 282.769 -3.90212 -0.773267 0
M  V30 3005 H 279.508 -6.51865 0.689414 0
M  V30 3006 H 279.028 -5.92735 -0.91786 0
M  V30 3007 H 280.707 -6.44044 -0.617792 0
M  V30 3008 N 280.839 0.0985539 -1.57292 0
M  V30 3009 C 281.787 1.1387 -2.02821 0
M  V30 3010 C 282.781 1.41676 -0.928666 0
M  V30 3011 O 283.987 1.41398 -1.11385 0
M  V30 3012 H 280.362 0.384419 -0.646317 0
M  V30 3013 H 282.333 0.728347 -2.89375 0
M  V30 3014 C 281.082 2.45166 -2.46554 0
M  V30 3015 H 280.405 2.24613 -3.3074 0
M  V30 3016 H 281.845 3.16456 -2.8219 0
M  V30 3017 C 280.304 3.09216 -1.33742 0
M  V30 3018 O 280.834 3.96163 -0.66464 0
M  V30 3019 N 279.04 2.69413 -1.08928 0
M  V30 3020 H 278.587 1.98801 -1.63817 0
M  V30 3021 H 278.545 3.12594 -0.336458 0
M  V30 3022 N 282.317 1.53212 0.369288 0
M  V30 3023 C 283.566 1.68436 1.10961 0
M  V30 3024 C 283.879 0.440738 1.9057 0
M  V30 3025 O 285.085 0.473446 2.6734 0
M  V30 3026 C 283.541 2.97744 2.0218 0
M  V30 3027 C 283.149 4.29355 1.279 0
M  V30 3028 C 284.893 3.22334 2.76226 0
M  V30 3029 C 282.8 5.49755 2.17999 0
M  V30 3030 H 281.73 0.627568 0.41794 0
M  V30 3031 H 284.381 1.79713 0.370884 0
M  V30 3032 H 282.763 2.8026 2.79768 0
M  V30 3033 H 283.937 4.57458 0.554007 0
M  V30 3034 H 282.252 4.11179 0.657311 0
M  V30 3035 H 284.849 4.09471 3.43857 0
M  V30 3036 H 285.192 2.38238 3.41392 0
M  V30 3037 H 285.725 3.40475 2.05723 0
M  V30 3038 H 282.464 6.36318 1.57417 0
M  V30 3039 H 281.984 5.25937 2.88359 0
M  V30 3040 H 283.663 5.84401 2.77641 0
M  V30 3041 N 283.795 -0.628877 1.44509 0
M  V30 3042 C 285.041 -1.39045 1.47629 0
M  V30 3043 C 285.374 -1.93892 0.109343 0
M  V30 3044 O 284.649 -1.7379 -0.87334 0
M  V30 3045 C 284.932 -2.55408 2.53848 0
M  V30 3046 C 284.785 -2.05896 3.99909 0
M  V30 3047 C 286.104 -3.5759 2.56549 0
M  V30 3048 H 283.223 -0.504232 0.537512 0
M  V30 3049 H 285.865 -0.710854 1.76201 0
M  V30 3050 H 284.015 -3.13384 2.29615 0
M  V30 3051 H 285.687 -1.52734 4.35282 0
M  V30 3052 H 283.93 -1.37061 4.11578 0
M  V30 3053 H 284.601 -2.89681 4.69882 0
M  V30 3054 H 287.077 -3.09419 2.78207 0
M  V30 3055 H 285.953 -4.36527 3.32769 0
M  V30 3056 H 286.214 -4.11808 1.60832 0
M  V30 3057 N 285.273 -1.31445 -0.869486 0
M  V30 3058 C 286.501 -1.24122 -1.65534 0
M  V30 3059 C 286.916 0.193387 -1.87807 0
M  V30 3060 O 286.273 1.12557 -1.43656 0
M  V30 3061 C 286.324 -1.98229 -3.02304 0
M  V30 3062 O 286.045 -3.3609 -2.81026 0
M  V30 3063 C 287.546 -1.97751 -3.96749 0
M  V30 3064 H 284.766 -0.428868 -0.516055 0
M  V30 3065 H 287.31 -1.73328 -1.08525 0
M  V30 3066 H 285.465 -1.52782 -3.56001 0
M  V30 3067 H 285.879 -3.7383 -3.67902 0
M  V30 3068 H 287.353 -2.54114 -4.90031 0
M  V30 3069 H 287.83 -0.960137 -4.28577 0
M  V30 3070 H 288.436 -2.43079 -3.48988 0
M  V30 3071 N 286.751 1.08385 -1.14413 0
M  V30 3072 C 287.998 1.80776 -0.912482 0
M  V30 3073 C 288.326 1.86236 0.560934 0
M  V30 3074 O 287.581 1.33431 1.43159 0
M  V30 3075 C 287.88 3.26273 -1.45879 0
M  V30 3076 C 287.546 3.4093 -2.95089 0
M  V30 3077 C 286.208 3.44638 -3.35824 0
M  V30 3078 C 288.56 3.44591 -3.91033 0
M  V30 3079 C 285.888 3.49597 -4.71167 0
M  V30 3080 C 288.24 3.51086 -5.26233 0
M  V30 3081 C 286.904 3.53067 -5.6648 0
M  V30 3082 H 286.174 0.661507 -0.333901 0
M  V30 3083 H 288.821 1.27613 -1.42784 0
M  V30 3084 H 287.126 3.82146 -0.864376 0
M  V30 3085 H 288.823 3.80839 -1.2555 0
M  V30 3086 H 285.413 3.38736 -2.62594 0
M  V30 3087 H 289.597 3.40957 -3.60641 0
M  V30 3088 H 284.853 3.49424 -5.0171 0
M  V30 3089 H 289.027 3.52864 -6.00383 0
M  V30 3090 H 286.654 3.56662 -6.71339 0
M  V30 3091 N 288.23 0.939286 1.26551 0
M  V30 3092 C 289.455 0.602008 1.98471 0
M  V30 3093 C 289.88 -0.815624 1.69497 0
M  V30 3094 O 289.238 -1.54912 0.941905 0
M  V30 3095 C 289.286 0.848407 3.50477 0
M  V30 3096 O 288.39 -0.0804009 4.12322 0
M  V30 3097 H 287.731 0.23049 0.622712 0
M  V30 3098 H 290.261 1.2617 1.61066 0
M  V30 3099 H 290.271 0.768553 4.00696 0
M  V30 3100 H 288.946 1.88171 3.70897 0
M  V30 3101 H 287.523 0.0503508 3.72866 0
M  V30 3102 N 289.708 -1.40897 0.706093 0
M  V30 3103 C 291.119 -1.84023 0.315052 0
M  V30 3104 C 291.47 -1.5906 -1.14866 0
M  V30 3105 O 290.595 -1.06651 -1.88293 0
M  V30 3106 C 291.19 -3.34055 0.565038 0
M  V30 3107 C 289.749 -3.7571 0.227806 0
M  V30 3108 C 288.896 -2.64204 0.842122 0
M  V30 3109 H 291.847 -1.303 0.905963 0
M  V30 3110 H 291.868 -3.80107 -0.172843 0
M  V30 3111 H 291.38 -3.52192 1.63042 0
M  V30 3112 H 289.481 -3.63172 -0.832895 0
M  V30 3113 H 289.594 -4.74103 0.690174 0
M  V30 3114 H 287.958 -2.53255 0.270893 0
M  V30 3115 H 288.741 -2.85155 1.91158 0
M  V30 3116 N 291.186 -0.45159 -1.50991 0
M  V30 3117 C 292.096 0.358431 -2.31846 0
M  V30 3118 C 293.112 1.01438 -1.41373 0
M  V30 3119 O 294.288 1.00663 -1.74439 0
M  V30 3120 C 291.353 1.43704 -3.15515 0
M  V30 3121 C 290.414 0.799742 -4.21785 0
M  V30 3122 C 289.647 1.82696 -5.01456 0
M  V30 3123 O 289.87 3.05105 -4.81941 0
M  V30 3124 O 288.804 1.40958 -5.85162 0
M  V30 3125 H 292.63 -0.302032 -3.02194 0
M  V30 3126 H 290.215 -0.213825 -1.47862 0
M  V30 3127 H 292.097 2.06227 -3.67489 0
M  V30 3128 H 290.772 2.08133 -2.47916 0
M  V30 3129 H 289.679 0.136084 -3.73852 0
M  V30 3130 H 291.012 0.198718 -4.91799 0
M  V30 3131 N 292.664 1.56529 -0.183458 0
M  V30 3132 C 293.894 2.01331 0.463612 0
M  V30 3133 C 294.302 1.06278 1.5653 0
M  V30 3134 O 293.645 0.0577976 1.83609 0
M  V30 3135 C 293.707 3.42547 1.09096 0
M  V30 3136 C 293.371 4.56817 0.129442 0
M  V30 3137 C 294.368 5.15734 -0.656807 0
M  V30 3138 C 292.053 5.02295 0.02174 0
M  V30 3139 C 294.047 6.1857 -1.53784 0
M  V30 3140 C 291.734 6.04978 -0.862864 0
M  V30 3141 C 292.732 6.62988 -1.64123 0
M  V30 3142 O 292.42 7.63677 -2.51103 0
M  V30 3143 H 292.152 0.664917 0.121907 0
M  V30 3144 H 294.706 2.034 -0.285954 0
M  V30 3145 H 292.936 3.37428 1.88889 0
M  V30 3146 H 294.625 3.71228 1.64148 0
M  V30 3147 H 295.391 4.81473 -0.583839 0
M  V30 3148 H 291.27 4.56847 0.617392 0
M  V30 3149 H 294.814 6.63777 -2.14583 0
M  V30 3150 H 290.711 6.38663 -0.93699 0
M  V30 3151 H 291.479 7.81049 -2.44753 0
M  V30 3152 N 294.142 -0.090211 1.57342 0
M  V30 3153 C 295.052 -1.12735 2.05738 0
M  V30 3154 C 296.068 -1.43557 0.983231 0
M  V30 3155 O 297.244 -1.54101 1.29672 0
M  V30 3156 C 294.309 -2.42659 2.47624 0
M  V30 3157 C 293.37 -2.18975 3.69254 0
M  V30 3158 C 292.603 -3.42704 4.09133 0
M  V30 3159 O 292.826 -4.51127 3.49057 0
M  V30 3160 O 291.76 -3.32003 5.02053 0
M  V30 3161 H 295.586 -0.746279 2.94388 0
M  V30 3162 H 293.171 -0.303064 1.46294 0
M  V30 3163 H 295.053 -3.19155 2.7517 0
M  V30 3164 H 293.728 -2.80182 1.62109 0
M  V30 3165 H 292.635 -1.40244 3.46818 0
M  V30 3166 H 293.968 -1.86342 4.55563 0
M  V30 3167 N 295.62 -1.53406 -0.361157 0
M  V30 3168 C 296.85 -1.73465 -1.1222 0
M  V30 3169 C 297.258 -0.465486 -1.83384 0
M  V30 3170 O 296.601 0.571611 -1.7458 0
M  V30 3171 C 296.663 -2.84834 -2.19339 0
M  V30 3172 C 296.327 -4.25038 -1.67903 0
M  V30 3173 C 297.324 -5.07231 -1.14074 0
M  V30 3174 C 295.009 -4.71464 -1.73282 0
M  V30 3175 C 297.003 -6.33942 -0.663068 0
M  V30 3176 C 294.69 -5.98153 -1.25127 0
M  V30 3177 C 295.688 -6.79223 -0.717296 0
M  V30 3178 O 295.376 -8.03533 -0.242865 0
M  V30 3179 H 295.108 -0.583526 -0.341283 0
M  V30 3180 H 297.662 -2.00964 -0.424591 0
M  V30 3181 H 295.892 -2.5282 -2.92607 0
M  V30 3182 H 297.581 -2.9303 -2.80871 0
M  V30 3183 H 298.347 -4.72534 -1.09254 0
M  V30 3184 H 294.226 -4.08432 -2.13786 0
M  V30 3185 H 297.77 -6.97167 -0.245612 0
M  V30 3186 H 293.667 -6.32347 -1.29642 0
M  V30 3187 H 294.435 -8.177 -0.361786 0
M  V30 3188 N 297.098 0.621204 -1.44841 0
M  V30 3189 C 298.326 1.40752 -1.51646 0
M  V30 3190 C 298.741 1.88246 -0.144549 0
M  V30 3191 O 298.098 1.61422 0.851416 0
M  V30 3192 C 298.149 2.62119 -2.4895 0
M  V30 3193 O 297.87 2.16602 -3.80808 0
M  V30 3194 C 299.371 3.55135 -2.65319 0
M  V30 3195 H 296.591 0.431325 -0.514004 0
M  V30 3196 H 299.135 0.758835 -1.899 0
M  V30 3197 H 297.29 3.23058 -2.13805 0
M  V30 3198 H 297.704 2.95358 -4.33433 0
M  V30 3199 H 299.178 4.36874 -3.37409 0
M  V30 3200 H 299.655 4.04592 -1.70886 0
M  V30 3201 H 300.261 3.00058 -3.01405 0
M  V30 3202 N 298.576 1.31904 0.862503 0
M  V30 3203 C 299.823 1.22017 1.61611 0
M  V30 3204 C 300.151 -0.21991 1.93253 0
M  V30 3205 O 299.406 -1.17076 1.56817 0
M  V30 3206 C 299.705 2.01713 2.95037 0
M  V30 3207 C 299.371 3.51145 2.82857 0
M  V30 3208 C 298.033 3.91889 2.79243 0
M  V30 3209 C 300.385 4.46204 2.69353 0
M  V30 3210 C 297.713 5.25947 2.59993 0
M  V30 3211 C 300.065 5.80397 2.5164 0
M  V30 3212 C 298.729 6.20352 2.46413 0
M  V30 3213 H 297.999 0.44649 0.591378 0
M  V30 3214 H 300.646 1.63248 1.00111 0
M  V30 3215 H 298.951 1.53185 3.60613 0
M  V30 3216 H 300.648 1.91437 3.52353 0
M  V30 3217 H 297.238 3.1878 2.86491 0
M  V30 3218 H 301.422 4.15652 2.71196 0
M  V30 3219 H 296.678 5.5597 2.54376 0
M  V30 3220 H 300.852 6.53676 2.40169 0
M  V30 3221 H 298.479 7.24172 2.31256 0
M  V30 3222 N 300.054 -1.07777 1.14986 0
M  V30 3223 C 301.002 -2.16964 0.838406 0
M  V30 3224 C 301.996 -1.68372 -0.186386 0
M  V30 3225 O 303.202 -1.79951 -0.0418465 0
M  V30 3226 H 299.577 -0.708006 0.253439 0
M  V30 3227 H 301.548 -2.40454 1.76704 0
M  V30 3228 C 300.297 -3.4604 0.339335 0
M  V30 3229 H 299.62 -3.83813 1.11927 0
M  V30 3230 H 301.06 -4.23698 0.160021 0
M  V30 3231 C 299.519 -3.23569 -0.938325 0
M  V30 3232 O 300.049 -3.47752 -2.01077 0
M  V30 3233 N 298.255 -2.77079 -0.876117 0
M  V30 3234 H 297.802 -2.576 -0.00322037 0
M  V30 3235 H 297.76 -2.62422 -1.73153 0
M  V30 3236 N 301.532 -0.945985 -1.26051 0
M  V30 3237 C 302.809 -0.513816 -1.88731 0
M  V30 3238 C 303.189 1.00872 -1.8544 0
M  V30 3239 O 302.537 1.8708 -1.312 0
M  V30 3240 C 302.747 -1.08062 -3.31849 0
M  V30 3241 C 304.095 -1.1522 -4.08668 0
M  V30 3242 O 305.119 -1.03155 -3.40936 0
M  V30 3243 O 303.978 -1.34044 -5.29806 0
M  V30 3244 H 301.072 -0.168193 -0.809716 0
M  V30 3245 H 303.618 -1.03886 -1.34186 0
M  V30 3246 H 302.39 -2.1241 -3.2863 0
M  V30 3247 H 302.013 -0.538307 -3.93939 0
M  V30 3248 N 303.011 1.40521 -0.713556 0
M  V30 3249 C 304.26 2.00155 -0.249192 0
M  V30 3250 C 304.573 1.57224 1.16362 0
M  V30 3251 O 305.779 2.09542 1.72639 0
M  V30 3252 C 304.235 3.5773 -0.3946 0
M  V30 3253 C 303.843 4.09635 -1.81392 0
M  V30 3254 C 305.587 4.24499 0.00907364 0
M  V30 3255 C 303.494 5.59707 -1.91003 0
M  V30 3256 H 302.424 0.74868 -0.0894114 0
M  V30 3257 H 305.075 1.60784 -0.884352 0
M  V30 3258 H 303.457 3.94792 0.30911 0
M  V30 3259 H 304.631 3.83955 -2.54785 0
M  V30 3260 H 302.946 3.55456 -2.16888 0
M  V30 3261 H 305.543 5.34683 -0.0420404 0
M  V30 3262 H 305.886 4.02824 1.05065 0
M  V30 3263 H 306.419 3.92536 -0.645007 0
M  V30 3264 H 303.158 5.86234 -2.93275 0
M  V30 3265 H 302.678 5.87258 -1.22019 0
M  V30 3266 H 304.357 6.24776 -1.6812 0
M  V30 3267 N 304.489 0.459591 1.5075 0
M  V30 3268 C 305.714 -0.0996819 2.0716 0
M  V30 3269 C 306.139 -1.33761 1.32249 0
M  V30 3270 O 305.497 -1.77551 0.366786 0
M  V30 3271 C 305.545 -0.378226 3.58611 0
M  V30 3272 O 304.649 -1.46081 3.85661 0
M  V30 3273 H 303.99 0.00791392 0.663953 0
M  V30 3274 H 306.52 0.647329 1.9409 0
M  V30 3275 H 306.53 -0.622135 4.03229 0
M  V30 3276 H 305.205 0.526439 4.12555 0
M  V30 3277 H 303.782 -1.20511 3.5289 0
M  V30 3278 N 305.967 -1.56429 0.191757 0
M  V30 3279 C 307.215 -1.97095 -0.447006 0
M  V30 3280 C 307.536 -1.07967 -1.62383 0
M  V30 3281 O 306.806 -0.150248 -1.95323 0
M  V30 3282 H 305.386 -0.727832 -0.168135 0
M  V30 3283 H 308.048 -1.92911 0.27771 0
M  V30 3284 H 307.144 -3.01848 -0.793371 0
M  V30 3285 N 307.445 0.0818655 -1.57387 0
M  V30 3286 C 308.693 0.781368 -1.86384 0
M  V30 3287 C 309.014 1.78618 -0.782342 0
M  V30 3288 O 308.284 1.94976 0.190061 0
M  V30 3289 H 306.864 0.291562 -0.687751 0
M  V30 3290 H 309.526 0.060348 -1.94807 0
M  V30 3291 H 308.622 1.3038 -2.83562 0
M  V30 3292 N 308.923 1.53595 0.353017 0
M  V30 3293 C 309.873 1.77299 1.43349 0
M  V30 3294 C 310.857 0.627884 1.48143 0
M  V30 3295 O 312.049 0.88697 1.53173 0
M  V30 3296 C 309.178 1.97757 2.80619 0
M  V30 3297 C 308.264 3.18305 2.80254 0
M  V30 3298 N 308.655 4.39967 2.49526 0
M  V30 3299 C 306.953 3.19283 3.11407 0
M  V30 3300 C 307.654 5.21772 2.57156 0
M  V30 3301 N 306.63 4.58269 2.92388 0
M  V30 3302 H 310.432 2.68963 1.18474 0
M  V30 3303 H 307.946 1.52391 0.561306 0
M  V30 3304 H 309.943 2.1287 3.58458 0
M  V30 3305 H 308.603 1.07329 3.06448 0
M  V30 3306 H 309.614 4.67482 2.22893 0
M  V30 3307 H 306.291 2.3879 3.4247 0
M  V30 3308 H 307.681 6.2885 2.36638 0
M  V30 3309 N 310.401 -0.613514 1.45168 0
M  V30 3310 C 311.349 -1.74572 1.53712 0
M  V30 3311 C 312.343 -1.64426 0.407505 0
M  V30 3312 O 313.549 -1.70291 0.583176 0
M  V30 3313 H 309.924 -0.576641 0.48269 0
M  V30 3314 H 311.895 -1.64492 2.48968 0
M  V30 3315 C 310.644 -3.12943 1.51532 0
M  V30 3316 H 309.967 -3.21407 2.37776 0
M  V30 3317 H 311.407 -3.9201 1.61569 0
M  V30 3318 C 309.866 -3.36053 0.238798 0
M  V30 3319 O 310.396 -3.95837 -0.6838 0
M  V30 3320 N 308.602 -2.9028 0.136359 0
M  V30 3321 H 308.149 -2.41811 0.887999 0
M  V30 3322 H 308.107 -3.06116 -0.716944 0
M  V30 3323 N 311.879 -1.3236 -0.855495 0
M  V30 3324 C 313.104 -1.2601 -1.64731 0
M  V30 3325 C 313.529 0.169068 -1.87339 0
M  V30 3326 O 312.887 1.12016 -1.42556 0
M  V30 3327 C 312.935 -2.02417 -2.98429 0
M  V30 3328 O 312.039 -1.3714 -3.8893 0
M  V30 3329 H 311.38 -0.434325 -0.502253 0
M  V30 3330 H 313.91 -1.74661 -1.06558 0
M  V30 3331 H 313.92 -2.12559 -3.48257 0
M  V30 3332 H 312.595 -3.06343 -2.81295 0
M  V30 3333 H 311.172 -1.3554 -3.47395 0
M  V30 3334 N 313.357 1.07166 -1.15556 0
M  V30 3335 C 314.582 1.84053 -0.955988 0
M  V30 3336 C 315.007 1.81586 0.490739 0
M  V30 3337 O 314.365 1.21018 1.34997 0
M  V30 3338 C 314.413 3.28957 -1.47714 0
M  V30 3339 O 313.517 4.06795 -0.677593 0
M  V30 3340 H 312.858 0.569842 -0.340847 0
M  V30 3341 H 315.388 1.35178 -1.53584 0
M  V30 3342 H 315.398 3.79788 -1.4908 0
M  V30 3343 H 314.073 3.30068 -2.53037 0
M  V30 3344 H 312.65 3.6561 -0.733721 0
M  V30 3345 N 314.835 0.952656 1.25548 0
M  V30 3346 C 316.063 0.623496 1.97282 0
M  V30 3347 C 316.478 -0.803987 1.70826 0
M  V30 3348 O 315.835 -1.53755 0.983147 0
M  V30 3349 C 315.886 0.870209 3.5087 0
M  V30 3350 O 315.607 2.24156 3.76412 0
M  V30 3351 C 317.108 0.553164 4.39835 0
M  V30 3352 H 314.328 0.233931 0.628902 0
M  V30 3353 H 316.872 1.27649 1.59768 0
M  V30 3354 H 315.027 0.263652 3.86502 0
M  V30 3355 H 315.441 2.31021 4.70882 0
M  V30 3356 H 316.915 0.776342 5.46513 0
M  V30 3357 H 317.392 -0.512215 4.36203 0
M  V30 3358 H 317.998 1.13896 4.09766 0
M  V30 3359 N 316.313 -1.40141 0.720998 0
M  V30 3360 C 317.223 -2.34486 0.0731031 0
M  V30 3361 C 318.239 -1.57587 -0.737723 0
M  V30 3362 O 319.415 -1.89949 -0.669429 0
M  V30 3363 C 316.48 -3.36528 -0.833656 0
M  V30 3364 C 315.541 -4.29298 -0.0121673 0
M  V30 3365 C 314.774 -5.26466 -0.875742 0
M  V30 3366 O 314.997 -5.29745 -2.11485 0
M  V30 3367 O 313.931 -6.01092 -0.31185 0
M  V30 3368 H 317.757 -2.9152 0.851444 0
M  V30 3369 H 315.342 -1.41427 0.481527 0
M  V30 3370 H 317.224 -3.99093 -1.35289 0
M  V30 3371 H 315.899 -2.81899 -1.59105 0
M  V30 3372 H 314.806 -3.70001 0.552262 0
M  V30 3373 H 316.139 -4.87094 0.707129 0
M  V30 3374 N 317.792 -0.46758 -1.50504 0
M  V30 3375 C 319.017 0.0886943 -2.0721 0
M  V30 3376 C 319.442 1.33057 -1.32956 0
M  V30 3377 O 318.8 1.77354 -0.376197 0
M  V30 3378 C 318.848 0.359202 -3.58806 0
M  V30 3379 O 317.952 1.44034 -3.8643 0
M  V30 3380 H 317.293 -0.0114349 -0.663902 0
M  V30 3381 H 319.823 -0.657613 -1.93744 0
M  V30 3382 H 319.833 0.600742 -4.03553 0
M  V30 3383 H 318.508 -0.548311 -4.1227 0
M  V30 3384 H 317.085 1.18638 -3.53524 0
M  V30 3385 N 319.27 1.56325 -0.20005 0
M  V30 3386 C 320.517 1.97719 0.437411 0
M  V30 3387 C 320.845 1.08709 1.61284 0
M  V30 3388 O 320.1 0.127261 1.95286 0
M  V30 3389 C 320.399 3.4495 0.935103 0
M  V30 3390 C 320.065 4.5072 -0.12749 0
M  V30 3391 C 318.727 4.79368 -0.419451 0
M  V30 3392 C 321.079 5.14268 -0.847231 0
M  V30 3393 C 318.407 5.68854 -1.43604 0
M  V30 3394 C 320.759 6.04852 -1.85301 0
M  V30 3395 C 319.423 6.31855 -2.15211 0
M  V30 3396 H 318.693 0.723507 0.16006 0
M  V30 3397 H 321.34 1.89166 -0.298056 0
M  V30 3398 H 319.645 3.50599 1.74894 0
M  V30 3399 H 321.342 3.74337 1.43781 0
M  V30 3400 H 317.932 4.28458 0.11023 0
M  V30 3401 H 322.116 4.92222 -0.634901 0
M  V30 3402 H 317.372 5.88047 -1.67364 0
M  V30 3403 H 321.546 6.53152 -2.41591 0
M  V30 3404 H 319.173 7.00994 -2.94129 0
M  V30 3405 N 320.748 -0.0735177 1.57428 0
M  V30 3406 C 321.997 -0.771809 1.86349 0
M  V30 3407 C 322.31 -1.78828 0.792452 0
M  V30 3408 O 323.516 -2.53602 0.96945 0
M  V30 3409 C 321.972 -1.42358 3.30548 0
M  V30 3410 C 321.58 -0.445761 4.45777 0
M  V30 3411 C 323.324 -2.10434 3.6867 0
M  V30 3412 C 321.231 -1.10335 5.81016 0
M  V30 3413 H 320.161 -0.291999 0.695164 0
M  V30 3414 H 322.812 -0.0250749 1.83483 0
M  V30 3415 H 321.194 -2.21852 3.28021 0
M  V30 3416 H 322.368 0.319239 4.59693 0
M  V30 3417 H 320.683 0.130457 4.16196 0
M  V30 3418 H 323.28 -2.60405 4.67004 0
M  V30 3419 H 323.623 -2.90298 2.98383 0
M  V30 3420 H 324.156 -1.37773 3.7318 0
M  V30 3421 H 320.895 -0.345061 6.54591 0
M  V30 3422 H 320.415 -1.83925 5.70904 0
M  V30 3423 H 322.094 -1.62367 6.26295 0
M  V30 3424 N 322.226 -1.5378 -0.344866 0
M  V30 3425 C 323.189 -1.80981 -1.40637 0
M  V30 3426 C 324.189 -0.680816 -1.45676 0
M  V30 3427 O 325.379 -0.949095 -1.46075 0
M  V30 3428 C 322.511 -1.95063 -2.79577 0
M  V30 3429 H 323.704 -2.75803 -1.17783 0
M  V30 3430 H 321.257 -1.45173 -0.579181 0
M  V30 3431 H 321.992 -1.02379 -3.07716 0
M  V30 3432 H 321.777 -2.77198 -2.77315 0
M  V30 3433 H 323.267 -2.17629 -3.56409 0
M  V30 3434 N 323.704 0.605807 -1.45491 0
M  V30 3435 C 324.981 1.36522 -1.40075 0
M  V30 3436 C 325.361 2.10976 -0.0722744 0
M  V30 3437 O 324.709 2.08007 0.945808 0
M  V30 3438 C 324.919 2.31056 -2.61561 0
M  V30 3439 C 326.267 2.93608 -3.06724 0
M  V30 3440 O 327.291 2.41376 -2.61946 0
M  V30 3441 O 326.15 3.88421 -3.84437 0
M  V30 3442 H 323.244 0.612248 -0.555951 0
M  V30 3443 H 325.79 0.628747 -1.57623 0
M  V30 3444 H 324.562 1.75311 -3.49831 0
M  V30 3445 H 324.185 3.12081 -2.46356 0
M  V30 3446 N 325.182 1.32811 0.848464 0
M  V30 3447 C 326.593 1.21315 1.41914 0
M  V30 3448 C 326.944 -0.171847 1.95446 0
M  V30 3449 O 326.069 -1.07093 1.88043 0
M  V30 3450 C 326.664 2.19631 2.57968 0
M  V30 3451 C 325.223 2.12003 3.11017 0
M  V30 3452 C 324.37 2.07651 1.83783 0
M  V30 3453 H 327.321 1.44549 0.655071 0
M  V30 3454 H 327.342 1.79845 3.35315 0
M  V30 3455 H 326.854 3.20423 2.18976 0
M  V30 3456 H 324.955 1.14481 3.54577 0
M  V30 3457 H 325.068 3.02111 3.71841 0
M  V30 3458 H 323.432 1.52983 2.03638 0
M  V30 3459 H 324.215 3.10235 1.47 0
M  V30 3460 N 326.66 -1.06551 1.16123 0
M  V30 3461 C 327.623 -2.12132 0.867906 0
M  V30 3462 C 328.623 -1.60224 -0.135944 0
M  V30 3463 O 329.813 -1.73943 0.0946422 0
M  V30 3464 C 326.945 -3.396 0.297419 0
M  V30 3465 H 328.138 -2.39586 1.80385 0
M  V30 3466 H 325.691 -1.22574 0.969812 0
M  V30 3467 H 326.426 -3.17794 -0.64633 0
M  V30 3468 H 326.211 -3.78581 1.02073 0
M  V30 3469 H 327.701 -4.17455 0.110052 0
M  V30 3470 N 328.138 -0.959301 -1.25041 0
M  V30 3471 C 329.387 -0.612254 -1.92183 0
M  V30 3472 C 329.7 0.855347 -1.75907 0
M  V30 3473 O 330.906 1.31256 -2.37664 0
M  V30 3474 C 329.362 -1.04435 -3.44414 0
M  V30 3475 C 328.97 -2.53482 -3.69393 0
M  V30 3476 C 330.714 -0.770055 -4.17457 0
M  V30 3477 C 328.621 -2.90468 -5.15153 0
M  V30 3478 H 327.551 -0.225279 -0.719559 0
M  V30 3479 H 330.202 -1.16438 -1.41825 0
M  V30 3480 H 328.584 -0.4206 -3.9376 0
M  V30 3481 H 329.758 -3.20916 -3.30681 0
M  V30 3482 H 328.073 -2.78432 -3.0962 0
M  V30 3483 H 330.67 -1.02249 -5.24832 0
M  V30 3484 H 331.013 0.293611 -4.15263 0
M  V30 3485 H 331.546 -1.35437 -3.74034 0
M  V30 3486 H 328.285 -3.95871 -5.22462 0
M  V30 3487 H 327.805 -2.27711 -5.54894 0
M  V30 3488 H 329.484 -2.79914 -5.83315 0
M  V30 3489 N 329.616 1.39756 -0.72842 0
M  V30 3490 C 330.841 2.05472 -0.282159 0
M  V30 3491 C 331.266 1.54549 1.07221 0
M  V30 3492 O 330.624 0.686372 1.67805 0
M  V30 3493 C 330.672 3.59462 -0.286264 0
M  V30 3494 O 329.776 4.05918 0.728298 0
M  V30 3495 H 329.117 0.651226 -0.129618 0
M  V30 3496 H 331.647 1.78915 -0.992499 0
M  V30 3497 H 331.657 4.07798 -0.128373 0
M  V30 3498 H 330.332 3.95889 -1.27456 0
M  V30 3499 H 328.909 3.69012 0.537081 0
M  V30 3500 N 331.094 0.475555 1.50254 0
M  V30 3501 C 332.024 -0.30611 2.31485 0
M  V30 3502 C 333.005 -0.986228 1.38591 0
M  V30 3503 O 334.19 -0.982541 1.67511 0
M  V30 3504 C 331.32 -1.38588 3.1845 0
M  V30 3505 C 330.274 -0.827115 4.19932 0
M  V30 3506 C 329.6 -2.00551 4.95665 0
M  V30 3507 C 330.9 0.16463 5.2204 0
M  V30 3508 H 332.594 0.371866 2.97082 0
M  V30 3509 H 330.14 0.180282 1.42867 0
M  V30 3510 H 332.093 -1.94023 3.74076 0
M  V30 3511 H 330.817 -2.09269 2.50747 0
M  V30 3512 H 329.476 -0.294702 3.65414 0
M  V30 3513 H 329.124 -2.6994 4.2443 0
M  V30 3514 H 328.824 -1.63784 5.64313 0
M  V30 3515 H 330.348 -2.56468 5.54127 0
M  V30 3516 H 331.762 -0.300699 5.72511 0
M  V30 3517 H 330.159 0.446813 5.98434 0
M  V30 3518 H 331.229 1.08905 4.72512 0
M  V30 3519 N 332.573 -1.56217 0.208337 0
M  V30 3520 C 333.536 -2.18455 -0.693557 0
M  V30 3521 C 334.536 -1.14268 -1.13135 0
M  V30 3522 O 335.726 -1.39577 -1.0423 0
M  V30 3523 C 332.858 -2.79727 -1.94848 0
M  V30 3524 H 334.051 -2.99519 -0.15114 0
M  V30 3525 H 331.604 -1.56245 -0.041287 0
M  V30 3526 H 332.339 -2.02497 -2.53309 0
M  V30 3527 H 332.124 -3.56009 -1.64316 0
M  V30 3528 H 333.614 -3.27475 -2.59133 0
M  V30 3529 N 334.051 0.0651679 -1.57465 0
M  V30 3530 C 335.001 1.0838 -2.00594 0
M  V30 3531 C 335.985 1.34106 -0.889071 0
M  V30 3532 O 337.177 1.34295 -1.15299 0
M  V30 3533 C 334.306 2.39565 -2.45894 0
M  V30 3534 C 333.392 2.17085 -3.64328 0
M  V30 3535 N 333.783 1.64553 -4.78285 0
M  V30 3536 C 332.081 2.4753 -3.71006 0
M  V30 3537 C 332.782 1.57042 -5.60101 0
M  V30 3538 N 331.758 2.03328 -5.04141 0
M  V30 3539 H 335.56 0.671062 -2.86136 0
M  V30 3540 H 333.074 0.27213 -1.60104 0
M  V30 3541 H 335.071 3.13308 -2.75034 0
M  V30 3542 H 333.731 2.81549 -1.61741 0
M  V30 3543 H 334.742 1.33323 -5.00445 0
M  V30 3544 H 331.419 2.92835 -2.9758 0
M  V30 3545 H 332.809 1.17223 -6.61595 0
M  V30 3546 N 335.529 1.53961 0.336706 0
M  V30 3547 C 336.439 1.85432 1.43708 0
M  V30 3548 C 337.455 0.745053 1.57242 0
M  V30 3549 O 338.631 1.03804 1.72588 0
M  V30 3550 C 335.696 2.06349 2.78605 0
M  V30 3551 C 334.757 3.30191 2.74358 0
M  V30 3552 C 333.99 3.50101 4.02822 0
M  V30 3553 O 334.213 2.7371 5.00439 0
M  V30 3554 O 333.147 4.43547 4.06878 0
M  V30 3555 H 336.973 2.78975 1.20028 0
M  V30 3556 H 334.558 1.39701 0.52952 0
M  V30 3557 H 336.44 2.21513 3.58483 0
M  V30 3558 H 335.115 1.15995 3.02203 0
M  V30 3559 H 334.022 3.20425 1.93078 0
M  V30 3560 H 335.355 4.2056 2.55715 0
M  V30 3561 N 337.007 -0.598083 1.45811 0
M  V30 3562 C 337.937 -1.71873 1.58057 0
M  V30 3563 C 338.918 -1.64533 0.431615 0
M  V30 3564 O 340.103 -1.82787 0.65595 0
M  V30 3565 C 337.233 -3.10495 1.55597 0
M  V30 3566 C 336.187 -3.32654 2.69305 0
M  V30 3567 C 335.513 -4.71646 2.51902 0
M  V30 3568 C 336.813 -3.21981 4.11248 0
M  V30 3569 H 338.507 -1.61881 2.51863 0
M  V30 3570 H 336.053 -0.777372 1.21214 0
M  V30 3571 H 338.006 -3.88699 1.6276 0
M  V30 3572 H 336.73 -3.2135 0.583255 0
M  V30 3573 H 335.389 -2.56843 2.61586 0
M  V30 3574 H 335.037 -4.79246 1.52748 0
M  V30 3575 H 334.737 -4.87426 3.2816 0
M  V30 3576 H 336.261 -5.52038 2.60933 0
M  V30 3577 H 337.675 -3.90049 4.20161 0
M  V30 3578 H 336.072 -3.49289 4.87972 0
M  V30 3579 H 337.142 -2.1928 4.32486 0
M  V30 3580 N 338.485 -1.33259 -0.841409 0
M  V30 3581 C 339.734 -1.23921 -1.59143 0
M  V30 3582 C 340.047 0.1941 -1.94635 0
M  V30 3583 O 341.253 0.409474 -2.68394 0
M  V30 3584 C 339.709 -2.17119 -2.87032 0
M  V30 3585 C 339.317 -3.65606 -2.58914 0
M  V30 3586 C 341.061 -2.16648 -3.65053 0
M  V30 3587 C 338.968 -4.50726 -3.82884 0
M  V30 3588 H 337.898 -0.460264 -0.597221 0
M  V30 3589 H 340.549 -1.58307 -0.927959 0
M  V30 3590 H 338.931 -1.75663 -3.54906 0
M  V30 3591 H 340.105 -4.15487 -1.99267 0
M  V30 3592 H 338.42 -3.68341 -1.942 0
M  V30 3593 H 341.017 -2.77474 -4.57069 0
M  V30 3594 H 341.36 -1.16088 -3.99787 0
M  V30 3595 H 341.893 -2.56453 -3.041 0
M  V30 3596 H 338.632 -5.52151 -3.53283 0
M  V30 3597 H 338.152 -4.0559 -4.41879 0
M  V30 3598 H 339.831 -4.64401 -4.50489 0
M  V30 3599 N 339.963 1.05934 -1.16686 0
M  V30 3600 C 340.913 2.11764 -0.844978 0
M  V30 3601 C 341.897 1.59922 0.177178 0
M  V30 3602 O 343.089 1.76983 -0.0241768 0
M  V30 3603 C 340.218 3.41493 -0.351812 0
M  V30 3604 C 339.304 4.00152 -1.40496 0
M  V30 3605 N 339.695 4.32874 -2.61636 0
M  V30 3606 C 337.993 4.278 -1.26106 0
M  V30 3607 C 338.694 4.79552 -3.29249 0
M  V30 3608 N 337.67 4.79211 -2.56628 0
M  V30 3609 H 341.472 2.34916 -1.76612 0
M  V30 3610 H 338.986 1.23511 -1.05446 0
M  V30 3611 H 340.983 4.16773 -0.102796 0
M  V30 3612 H 339.643 3.19778 0.56322 0
M  V30 3613 H 340.654 4.23109 -2.98663 0
M  V30 3614 H 337.331 4.15511 -0.407081 0
M  V30 3615 H 338.721 5.14045 -4.32675 0
M  V30 3616 N 341.441 0.965919 1.2453 0
M  V30 3617 C 342.404 0.499547 2.2369 0
M  V30 3618 C 343.404 -0.40294 1.5567 0
M  V30 3619 O 344.594 -0.19865 1.73064 0
M  V30 3620 C 341.726 -0.276792 3.39774 0
M  V30 3621 H 342.919 1.37613 2.66463 0
M  V30 3622 H 340.472 0.750324 1.37112 0
M  V30 3623 H 341.207 -1.17055 3.02438 0
M  V30 3624 H 340.992 0.370826 3.90343 0
M  V30 3625 H 342.482 -0.592175 4.1338 0
M  V30 3626 N 342.919 -1.39368 0.735821 0
M  V30 3627 C 343.849 -2.33234 0.111506 0
M  V30 3628 C 344.83 -1.53954 -0.723334 0
M  V30 3629 O 346.015 -1.82344 -0.668147 0
M  V30 3630 C 343.145 -3.38057 -0.795917 0
M  V30 3631 C 342.099 -4.2795 -0.065172 0
M  V30 3632 C 341.425 -5.23479 -1.08967 0
M  V30 3633 C 342.725 -5.10741 1.09273 0
M  V30 3634 H 344.419 -2.85692 0.895571 0
M  V30 3635 H 341.965 -1.37364 0.432109 0
M  V30 3636 H 343.918 -4.02675 -1.24221 0
M  V30 3637 H 342.642 -2.8404 -1.61211 0
M  V30 3638 H 341.301 -3.64813 0.361511 0
M  V30 3639 H 340.949 -4.65758 -1.89944 0
M  V30 3640 H 340.649 -5.84472 -0.605489 0
M  V30 3641 H 342.173 -5.90974 -1.53565 0
M  V30 3642 H 343.587 -5.68699 0.724841 0
M  V30 3643 H 341.984 -5.8088 1.50659 0
M  V30 3644 H 343.054 -4.45525 1.91404 0
M  V30 3645 N 344.397 -0.483516 -1.5 0
M  V30 3646 C 345.347 0.32306 -2.257 0
M  V30 3647 C 346.331 0.950755 -1.29805 0
M  V30 3648 O 347.523 0.861247 -1.54634 0
M  V30 3649 C 344.652 1.39724 -3.13579 0
M  V30 3650 C 343.738 0.776663 -4.16928 0
M  V30 3651 N 344.129 -0.1104 -5.0568 0
M  V30 3652 C 342.427 1.03922 -4.33724 0
M  V30 3653 C 343.128 -0.46387 -5.79848 0
M  V30 3654 N 342.104 0.163987 -5.43353 0
M  V30 3655 H 345.906 -0.360086 -2.91686 0
M  V30 3656 H 343.42 -0.298456 -1.59634 0
M  V30 3657 H 345.417 1.98837 -3.66428 0
M  V30 3658 H 344.077 2.08225 -2.49143 0
M  V30 3659 H 345.088 -0.480069 -5.1567 0
M  V30 3660 H 341.765 1.71829 -3.80501 0
M  V30 3661 H 343.155 -1.18854 -6.61304 0
M  V30 3662 N 345.875 1.56104 -0.216619 0
M  V30 3663 C 347.123 1.97781 0.415593 0
M  V30 3664 C 347.444 1.10536 1.60645 0
M  V30 3665 O 346.714 0.181303 1.95059 0
M  V30 3666 H 345.294 0.730415 0.156534 0
M  V30 3667 H 347.956 1.92445 -0.308366 0
M  V30 3668 H 347.052 3.03072 0.74525 0
M  V30 3669 N 347.353 -0.0568162 1.57498 0
M  V30 3670 C 348.283 -1.06593 2.0775 0
M  V30 3671 C 349.264 -1.39448 0.974082 0
M  V30 3672 O 350.449 -1.48815 1.24771 0
M  V30 3673 C 347.579 -2.37509 2.5339 0
M  V30 3674 C 346.533 -2.1897 3.67745 0
M  V30 3675 C 345.859 -3.55402 3.99492 0
M  V30 3676 C 347.159 -1.59859 4.97235 0
M  V30 3677 H 348.853 -0.647706 2.9231 0
M  V30 3678 H 346.399 -0.310116 1.40621 0
M  V30 3679 H 348.352 -3.08409 2.87162 0
M  V30 3680 H 347.076 -2.8134 1.65878 0
M  V30 3681 H 345.735 -1.50508 3.3428 0
M  V30 3682 H 345.383 -3.9683 3.09088 0
M  V30 3683 H 345.083 -3.43831 4.76502 0
M  V30 3684 H 346.607 -4.27708 4.35773 0
M  V30 3685 H 348.021 -2.20642 5.29141 0
M  V30 3686 H 346.418 -1.58942 5.78669 0
M  V30 3687 H 347.488 -0.561506 4.81638 0
M  V30 3688 N 348.832 -1.54138 -0.328536 0
M  V30 3689 C 350.062 -1.75807 -1.08516 0
M  V30 3690 C 350.47 -0.50428 -1.82356 0
M  V30 3691 O 349.813 0.534451 -1.75754 0
M  V30 3692 C 349.875 -2.89423 -2.13248 0
M  V30 3693 C 349.539 -4.28504 -1.5885 0
M  V30 3694 C 350.536 -5.09536 -1.03289 0
M  V30 3695 C 348.221 -4.75034 -1.63243 0
M  V30 3696 C 350.215 -6.35206 -0.52845 0
M  V30 3697 C 347.902 -6.00672 -1.12411 0
M  V30 3698 C 348.9 -6.80592 -0.573062 0
M  V30 3699 O 348.588 -8.03867 -0.0723692 0
M  V30 3700 H 348.32 -0.590633 -0.328829 0
M  V30 3701 H 350.874 -2.01819 -0.381868 0
M  V30 3702 H 349.104 -2.5897 -2.87178 0
M  V30 3703 H 350.793 -2.98921 -2.74592 0
M  V30 3704 H 351.559 -4.74745 -0.99206 0
M  V30 3705 H 347.438 -4.12875 -2.05074 0
M  V30 3706 H 350.982 -6.97532 -0.0976774 0
M  V30 3707 H 346.879 -6.34955 -1.162 0
M  V30 3708 H 347.647 -8.18283 -0.188258 0
M  V30 3709 N 350.31 0.590341 -1.46126 0
M  V30 3710 C 351.558 1.34616 -1.50742 0
M  V30 3711 C 351.879 1.94363 -0.157486 0
M  V30 3712 O 351.149 1.78136 0.815136 0
M  V30 3713 H 349.729 0.499789 -0.555175 0
M  V30 3714 H 352.391 0.691953 -1.82203 0
M  V30 3715 H 351.487 2.15678 -2.25587 0
M  V30 3716 N 351.788 1.33704 0.83433 0
M  V30 3717 C 352.751 1.24244 1.92603 0
M  V30 3718 C 353.751 0.160383 1.59998 0
M  V30 3719 O 354.941 0.412228 1.69252 0
M  V30 3720 C 352.073 0.91555 3.28376 0
M  V30 3721 H 353.266 2.21287 2.02416 0
M  V30 3722 H 350.819 1.17827 1.02696 0
M  V30 3723 H 351.554 -0.0521886 3.24258 0
M  V30 3724 H 351.339 1.69811 3.53422 0
M  V30 3725 H 352.829 0.874231 4.08347 0
M  V30 3726 N 353.266 -1.05314 1.17247 0
M  V30 3727 C 354.682 -1.30452 0.919473 0
M  V30 3728 C 354.882 -1.9703 -0.42209 0
M  V30 3729 O 353.938 -2.24311 -1.15935 0
M  V30 3730 C 355.251 -2.17551 2.07586 0
M  V30 3731 C 356.799 -2.30937 2.11275 0
M  V30 3732 C 357.274 -3.21396 3.26296 0
M  V30 3733 N 358.765 -3.28981 3.26076 0
M  V30 3734 C 359.5 -3.99095 4.11716 0
M  V30 3735 N 358.996 -4.71648 5.07465 0
M  V30 3736 N 360.789 -3.95247 3.9967 0
M  V30 3737 H 352.94 -0.604988 2.03602 0
M  V30 3738 H 355.203 -0.329368 0.888944 0
M  V30 3739 H 354.909 -1.75921 3.0454 0
M  V30 3740 H 354.783 -3.18182 2.02584 0
M  V30 3741 H 357.17 -2.71809 1.14907 0
M  V30 3742 H 357.251 -1.2994 2.20339 0
M  V30 3743 H 356.895 -2.81238 4.22927 0
M  V30 3744 H 356.825 -4.22395 3.14467 0
M  V30 3745 H 359.316 -2.77286 2.5675 0
M  V30 3746 H 359.629 -5.22705 5.6921 0
M  V30 3747 H 357.974 -4.70594 5.11435 0
M  V30 3748 H 361.165 -3.37691 3.24164 0
M  V30 3749 H 361.338 -4.4962 4.66632 0
M  V30 3750 N 354.744 -0.972509 -1.24016 0
M  V30 3751 C 355.992 -0.635776 -1.91839 0
M  V30 3752 C 356.313 0.832312 -1.76345 0
M  V30 3753 O 355.583 1.5946 -1.13795 0
M  V30 3754 H 354.163 -0.232157 -0.710009 0
M  V30 3755 H 356.825 -1.23462 -1.50809 0
M  V30 3756 H 355.921 -0.880545 -2.99421 0
M  V30 3757 N 356.222 1.38976 -0.743202 0
M  V30 3758 C 357.468 2.0064 -0.295189 0
M  V30 3759 C 357.801 1.5885 1.11716 0
M  V30 3760 O 357.076 0.821181 1.76315 0
M  V30 3761 C 357.359 3.578 -0.406318 0
M  V30 3762 C 357.212 4.09586 -1.85903 0
M  V30 3763 C 358.531 4.39616 0.206439 0
M  V30 3764 H 355.65 0.728935 -0.108733 0
M  V30 3765 H 358.292 1.65067 -0.940897 0
M  V30 3766 H 356.442 3.88235 0.143419 0
M  V30 3767 H 358.114 3.89837 -2.46627 0
M  V30 3768 H 356.357 3.6284 -2.3776 0
M  V30 3769 H 357.028 5.18708 -1.888 0
M  V30 3770 H 359.504 4.15273 -0.262283 0
M  V30 3771 H 358.38 5.48812 0.0983819 0
M  V30 3772 H 358.641 4.22754 1.2935 0
M  V30 3773 N 357.7 0.491464 1.49741 0
M  V30 3774 C 358.928 -0.0535151 2.06831 0
M  V30 3775 C 359.343 -1.31683 1.35296 0
M  V30 3776 O 358.7 -1.77402 0.42836 0
M  V30 3777 C 358.751 -0.320835 3.60073 0
M  V30 3778 O 358.472 0.892394 4.28915 0
M  V30 3779 C 359.973 -0.910519 4.33848 0
M  V30 3780 H 357.193 0.0161909 0.670805 0
M  V30 3781 H 359.737 0.68609 1.92647 0
M  V30 3782 H 357.892 -1.0104 3.73991 0
M  V30 3783 H 358.306 0.649401 5.20464 0
M  V30 3784 H 359.78 -1.04721 5.41976 0
M  V30 3785 H 360.257 -1.90589 3.95692 0
M  V30 3786 H 360.863 -0.258712 4.24512 0
M  V30 3787 N 359.178 -1.55987 0.224894 0
M  V30 3788 C 360.408 -2.02489 -0.41007 0
M  V30 3789 C 360.816 -1.10391 -1.53657 0
M  V30 3790 O 360.159 -0.106458 -1.83391 0
M  V30 3791 C 360.221 -3.45319 -0.999757 0
M  V30 3792 C 359.885 -4.56999 -0.00827976 0
M  V30 3793 C 360.882 -5.13812 0.793314 0
M  V30 3794 C 358.567 -5.02176 0.111442 0
M  V30 3795 C 360.561 -6.14276 1.7013 0
M  V30 3796 C 358.248 -6.02477 1.02296 0
M  V30 3797 C 359.246 -6.58403 1.81643 0
M  V30 3798 O 358.934 -7.56751 2.71262 0
M  V30 3799 H 358.666 -0.667915 -0.104235 0
M  V30 3800 H 361.22 -2.0257 0.339782 0
M  V30 3801 H 359.45 -3.42318 -1.79876 0
M  V30 3802 H 361.139 -3.7545 -1.54248 0
M  V30 3803 H 361.905 -4.79756 0.711288 0
M  V30 3804 H 357.784 -4.58323 -0.49605 0
M  V30 3805 H 361.328 -6.57854 2.32107 0
M  V30 3806 H 357.225 -6.35954 1.10599 0
M  V30 3807 H 357.993 -7.74286 2.65375 0
M  V30 3808 N 360.656 0.0484629 -1.57525 0
M  V30 3809 C 361.566 1.07241 -2.08654 0
M  V30 3810 C 362.582 1.409 -1.02095 0
M  V30 3811 O 363.758 1.50609 -1.33712 0
M  V30 3812 C 360.823 2.36008 -2.5397 0
M  V30 3813 C 359.884 2.09108 -3.7493 0
M  V30 3814 C 359.117 3.31736 -4.18075 0
M  V30 3815 O 359.34 4.41714 -3.60895 0
M  V30 3816 O 358.274 3.18576 -5.10679 0
M  V30 3817 H 362.1 0.667965 -2.96263 0
M  V30 3818 H 359.685 0.26417 -1.47046 0
M  V30 3819 H 361.567 3.11747 -2.83535 0
M  V30 3820 H 360.242 2.75786 -1.69481 0
M  V30 3821 H 359.149 1.31 -3.50414 0
M  V30 3822 H 360.482 1.74198 -4.60343 0
M  V30 3823 N 362.134 1.5431 0.320358 0
M  V30 3824 C 363.044 1.86946 1.41734 0
M  V30 3825 C 364.06 0.761689 1.56443 0
M  V30 3826 O 365.236 1.05629 1.71477 0
M  V30 3827 C 362.301 2.09293 2.76401 0
M  V30 3828 C 361.362 3.33082 2.70841 0
M  V30 3829 C 360.595 3.54353 3.99086 0
M  V30 3830 O 360.818 2.79002 4.97508 0
M  V30 3831 O 359.752 4.47838 4.0215 0
M  V30 3832 H 363.578 2.80232 1.17062 0
M  V30 3833 H 361.163 1.40255 0.514673 0
M  V30 3834 H 363.045 2.25303 3.56113 0
M  V30 3835 H 361.72 1.19194 3.00956 0
M  V30 3836 H 360.627 3.22454 1.89668 0
M  V30 3837 H 361.96 4.23249 2.5124 0
M  V30 3838 N 363.613 -0.582584 1.46437 0
M  V30 3839 C 364.841 -1.36682 1.55324 0
M  V30 3840 C 365.256 -1.87796 0.194409 0
M  V30 3841 O 364.613 -1.63623 -0.808318 0
M  V30 3842 C 364.664 -2.55426 2.55812 0
M  V30 3843 O 364.385 -2.0643 3.86417 0
M  V30 3844 C 365.886 -3.47976 2.74641 0
M  V30 3845 H 363.106 -0.417545 0.525259 0
M  V30 3846 H 365.65 -0.708219 1.91845 0
M  V30 3847 H 363.805 -3.17275 2.22295 0
M  V30 3848 H 364.219 -2.83762 4.41111 0
M  V30 3849 H 365.693 -4.27775 3.48874 0
M  V30 3850 H 366.17 -3.99919 1.81553 0
M  V30 3851 H 366.776 -2.91962 3.09255 0
M  V30 3852 N 365.091 -1.34144 -0.827227 0
M  V30 3853 C 366.34 -1.25602 -1.5782 0
M  V30 3854 C 366.653 0.173445 -1.94829 0
M  V30 3855 O 367.859 0.380984 -2.68814 0
M  V30 3856 C 366.315 -2.20151 -2.84713 0
M  V30 3857 C 365.923 -3.68331 -2.55021 0
M  V30 3858 C 367.667 -2.20508 -3.62735 0
M  V30 3859 C 365.574 -4.54762 -3.78082 0
M  V30 3860 H 364.504 -0.466573 -0.592306 0
M  V30 3861 H 367.155 -1.59283 -0.911116 0
M  V30 3862 H 365.537 -1.79417 -3.53023 0
M  V30 3863 H 366.711 -4.17577 -1.94849 0
M  V30 3864 H 365.026 -3.7038 -1.90283 0
M  V30 3865 H 367.623 -2.82306 -4.54101 0
M  V30 3866 H 367.966 -1.20322 -3.98533 0
M  V30 3867 H 368.499 -2.59664 -3.01362 0
M  V30 3868 H 365.238 -5.55867 -3.47407 0
M  V30 3869 H 364.758 -4.10254 -4.37552 0
M  V30 3870 H 366.437 -4.69153 -4.45538 0
M  V30 3871 N 366.569 1.04691 -1.17803 0
M  V30 3872 C 367.479 2.16057 -0.914151 0
M  V30 3873 C 368.495 1.73589 0.119503 0
M  V30 3874 O 369.671 2.01308 -0.0609468 0
M  V30 3875 C 366.736 3.4394 -0.436603 0
M  V30 3876 C 365.797 4.00825 -1.53746 0
M  V30 3877 C 365.03 5.22604 -1.0826 0
M  V30 3878 O 365.253 5.70367 0.0612244 0
M  V30 3879 O 364.187 5.7186 -1.87775 0
M  V30 3880 H 368.013 2.41169 -1.84584 0
M  V30 3881 H 365.598 1.1453 -0.959334 0
M  V30 3882 H 367.48 4.21024 -0.178057 0
M  V30 3883 H 366.155 3.20316 0.466869 0
M  V30 3884 H 365.062 3.25158 -1.84995 0
M  V30 3885 H 366.395 4.28778 -2.41683 0
M  V30 3886 N 368.047 0.979072 1.23499 0
M  V30 3887 C 369.293 0.648178 1.92163 0
M  V30 3888 C 369.626 -0.816049 1.76222 0
M  V30 3889 O 368.901 -1.58849 1.12237 0
M  V30 3890 C 369.184 1.03773 3.44824 0
M  V30 3891 C 369.037 2.55948 3.69879 0
M  V30 3892 C 370.356 0.580653 4.36253 0
M  V30 3893 H 367.475 0.236952 0.69787 0
M  V30 3894 H 370.117 1.22012 1.45647 0
M  V30 3895 H 368.267 0.551058 3.84572 0
M  V30 3896 H 369.939 3.12179 3.3962 0
M  V30 3897 H 368.182 2.98641 3.14636 0
M  V30 3898 H 368.853 2.78255 4.76737 0
M  V30 3899 H 371.329 0.998465 4.03943 0
M  V30 3900 H 370.205 0.881663 5.41773 0
M  V30 3901 H 370.466 -0.519052 4.39042 0
M  V30 3902 N 369.525 -1.3858 0.750561 0
M  V30 3903 C 370.472 -2.30483 0.120835 0
M  V30 3904 C 371.442 -1.50022 -0.712923 0
M  V30 3905 O 372.627 -1.78662 -0.669676 0
M  V30 3906 C 369.767 -3.36431 -0.768666 0
M  V30 3907 C 368.88 -4.31927 0.0793922 0
M  V30 3908 C 368.015 -5.24944 -0.81283 0
M  V30 3909 C 367.054 -6.12088 0.0390447 0
M  V30 3910 N 366.191 -6.97412 -0.809969 0
M  V30 3911 H 371.031 -2.83761 0.91015 0
M  V30 3912 H 368.568 -1.39707 0.460463 0
M  V30 3913 H 370.526 -3.96462 -1.29898 0
M  V30 3914 H 369.156 -2.8457 -1.5238 0
M  V30 3915 H 368.208 -3.73382 0.727303 0
M  V30 3916 H 369.52 -4.93319 0.737401 0
M  V30 3917 H 368.674 -5.90078 -1.41042 0
M  V30 3918 H 367.413 -4.63911 -1.50458 0
M  V30 3919 H 366.418 -5.45952 0.649328 0
M  V30 3920 H 367.643 -6.75189 0.727809 0
M  V30 3921 H 365.589 -6.38931 -1.48672 0
M  V30 3922 H 365.506 -7.55712 -0.208789 0
M  V30 3923 H 366.774 -7.66959 -1.39263 0
M  V30 3924 N 371.003 -0.499398 -1.49478 0
M  V30 3925 C 371.935 0.316575 -2.27003 0
M  V30 3926 C 372.948 0.932047 -1.33479 0
M  V30 3927 O 374.137 0.815658 -1.58774 0
M  V30 3928 C 371.237 1.46055 -3.05812 0
M  V30 3929 C 370.41 0.952679 -4.26899 0
M  V30 3930 C 369.469 1.97407 -4.87767 0
M  V30 3931 O 368.495 1.54326 -5.4788 0
M  V30 3932 N 369.697 3.30436 -4.77276 0
M  V30 3933 H 372.462 -0.348168 -2.97671 0
M  V30 3934 H 370.023 -0.33185 -1.58463 0
M  V30 3935 H 372.015 2.14135 -3.43407 0
M  V30 3936 H 370.585 2.02948 -2.37762 0
M  V30 3937 H 369.805 0.0968248 -3.94081 0
M  V30 3938 H 371.093 0.59174 -5.05347 0
M  V30 3939 H 370.491 3.68126 -4.29534 0
M  V30 3940 H 369.048 3.94235 -5.19059 0
M  V30 3941 N 372.481 1.55866 -0.233164 0
M  V30 3942 C 373.444 2.1953 0.658715 0
M  V30 3943 C 374.444 1.16053 1.11303 0
M  V30 3944 O 375.634 1.41218 1.01996 0
M  V30 3945 C 372.766 2.82791 1.90373 0
M  V30 3946 H 373.959 2.99721 0.10347 0
M  V30 3947 H 371.512 1.56291 0.0164245 0
M  V30 3948 H 372.247 2.06501 2.50056 0
M  V30 3949 H 372.032 3.58578 1.58632 0
M  V30 3950 H 373.522 3.31556 2.53891 0
M  V30 3951 N 373.959 -0.0401083 1.57549 0
M  V30 3952 C 375.37 -0.588097 1.77196 0
M  V30 3953 C 375.721 -1.76209 0.862832 0
M  V30 3954 O 374.846 -2.16331 0.0548389 0
M  V30 3955 C 375.441 -1.07363 3.21339 0
M  V30 3956 C 374 -1.56723 3.42221 0
M  V30 3957 C 373.147 -0.50041 2.72747 0
M  V30 3958 H 376.098 0.186119 1.57605 0
M  V30 3959 H 376.119 -1.94143 3.27244 0
M  V30 3960 H 375.631 -0.218975 3.87482 0
M  V30 3961 H 373.732 -2.4441 2.81237 0
M  V30 3962 H 373.845 -1.62234 4.50796 0
M  V30 3963 H 372.209 -0.952894 2.36203 0
M  V30 3964 H 372.992 0.344599 3.41566 0
M  V30 3965 N 375.437 -1.54477 -0.31217 0
M  V30 3966 C 376.367 -1.87652 -1.38957 0
M  V30 3967 C 377.348 -0.734358 -1.53431 0
M  V30 3968 O 378.533 -0.98911 -1.67123 0
M  V30 3969 C 375.663 -2.11396 -2.75552 0
M  V30 3970 C 374.617 -3.27243 -2.75855 0
M  V30 3971 C 373.943 -3.36382 -4.15633 0
M  V30 3972 C 375.243 -4.64622 -2.38587 0
M  V30 3973 H 376.937 -2.77887 -1.11442 0
M  V30 3974 H 374.483 -1.33707 -0.534655 0
M  V30 3975 H 376.436 -2.33189 -3.51 0
M  V30 3976 H 375.16 -1.17921 -3.04569 0
M  V30 3977 H 373.819 -3.05356 -2.02863 0
M  V30 3978 H 373.467 -2.40445 -4.41809 0
M  V30 3979 H 373.167 -4.14249 -4.1674 0
M  V30 3980 H 374.691 -3.60422 -4.92877 0
M  V30 3981 H 376.105 -4.86219 -3.03749 0
M  V30 3982 H 374.502 -5.45121 -2.50925 0
M  V30 3983 H 375.572 -4.66097 -1.33723 0
M  V30 3984 N 376.915 0.57481 -1.46744 0
M  V30 3985 C 377.848 1.69827 -1.52427 0
M  V30 3986 C 378.826 1.58151 -0.377744 0
M  V30 3987 O 380.01 1.79257 -0.58303 0
M  V30 3988 C 377.137 3.07943 -1.41027 0
M  V30 3989 C 376.183 3.38116 -2.59961 0
M  V30 3990 S 377.016 3.29313 -4.22272 0
M  V30 3991 C 378.172 4.69953 -4.13394 0
M  V30 3992 H 378.405 1.64748 -2.47478 0
M  V30 3993 H 375.938 0.754203 -1.34726 0
M  V30 3994 H 377.896 3.87619 -1.35137 0
M  V30 3995 H 376.557 3.10504 -0.473909 0
M  V30 3996 H 375.75 4.38762 -2.47999 0
M  V30 3997 H 375.352 2.66024 -2.62882 0
M  V30 3998 H 377.644 5.60517 -3.80562 0
M  V30 3999 H 378.587 4.86972 -5.14066 0
M  V30 4000 H 378.995 4.47174 -3.44522 0
M  V30 4001 N 378.394 1.34581 0.820102 0
M  V30 4002 C 379.643 1.26437 1.57151 0
M  V30 4003 C 379.956 -0.163111 1.94919 0
M  V30 4004 O 381.162 -0.366722 2.69012 0
M  V30 4005 C 379.618 2.21658 2.83541 0
M  V30 4006 C 379.226 3.69679 2.53065 0
M  V30 4007 C 380.97 2.22428 3.61561 0
M  V30 4008 C 378.877 4.56761 3.75664 0
M  V30 4009 H 377.807 0.469707 0.589823 0
M  V30 4010 H 380.458 1.59763 0.902656 0
M  V30 4011 H 378.84 1.81287 3.52067 0
M  V30 4012 H 380.014 4.18605 1.92631 0
M  V30 4013 H 378.329 3.71384 1.88316 0
M  V30 4014 H 380.926 2.8471 4.52597 0
M  V30 4015 H 381.269 1.22434 3.97889 0
M  V30 4016 H 381.802 2.61259 2.99981 0
M  V30 4017 H 378.541 5.57702 3.44454 0
M  V30 4018 H 378.061 4.12568 4.35371 0
M  V30 4019 H 379.74 4.71509 4.43044 0
M  V30 4020 N 379.872 -1.04064 1.18357 0
M  V30 4021 C 380.835 -2.10243 0.912707 0
M  V30 4022 C 381.835 -1.60477 -0.101928 0
M  V30 4023 O 383.025 -1.73703 0.131517 0
M  V30 4024 C 380.157 -3.38893 0.369387 0
M  V30 4025 H 381.35 -2.35706 1.85426 0
M  V30 4026 H 378.903 -1.20489 0.995594 0
M  V30 4027 H 379.638 -3.19094 -0.578776 0
M  V30 4028 H 379.423 -3.76331 1.1008 0
M  V30 4029 H 380.913 -4.17128 0.198575 0
M  V30 4030 N 381.35 -0.985608 -1.22978 0
M  V30 4031 C 382.26 -0.538548 -2.28335 0
M  V30 4032 C 383.276 0.409163 -1.69121 0
M  V30 4033 O 384.452 0.277797 -1.99475 0
M  V30 4034 C 381.517 0.146867 -3.46389 0
M  V30 4035 C 380.578 -0.842896 -4.20944 0
M  V30 4036 C 379.811 -0.190095 -5.33361 0
M  V30 4037 O 380.034 1.01767 -5.61248 0
M  V30 4038 O 378.968 -0.891289 -5.95264 0
M  V30 4039 H 382.794 -1.41487 -2.68729 0
M  V30 4040 H 380.379 -0.753495 -1.29007 0
M  V30 4041 H 382.261 0.531125 -4.1804 0
M  V30 4042 H 380.936 0.997871 -3.07935 0
M  V30 4043 H 379.843 -1.27795 -3.51595 0
M  V30 4044 H 381.176 -1.66287 -4.6326 0
M  V30 4045 N 382.828 1.3818 -0.7579 0
M  V30 4046 C 383.775 2.30416 -0.133057 0
M  V30 4047 C 384.745 1.50398 0.704957 0
M  V30 4048 O 385.93 1.79014 0.660192 0
M  V30 4049 C 383.07 3.36834 0.750813 0
M  V30 4050 C 382.183 4.31879 -0.102297 0
M  V30 4051 C 381.318 5.25368 0.784979 0
M  V30 4052 C 380.357 6.12058 -0.0715046 0
M  V30 4053 N 379.494 6.97832 0.772972 0
M  V30 4054 H 384.334 2.83274 -0.925186 0
M  V30 4055 H 381.871 1.39461 -0.467866 0
M  V30 4056 H 383.829 3.97145 1.27794 0
M  V30 4057 H 382.459 2.85374 1.50868 0
M  V30 4058 H 381.511 3.72991 -0.747095 0
M  V30 4059 H 382.823 4.92921 -0.763552 0
M  V30 4060 H 381.977 5.90818 1.37911 0
M  V30 4061 H 380.716 4.64703 1.47996 0
M  V30 4062 H 379.721 5.456 -0.678272 0
M  V30 4063 H 380.946 6.74793 -0.763606 0
M  V30 4064 H 378.892 6.3971 1.45282 0
M  V30 4065 H 378.809 7.55812 0.168709 0
M  V30 4066 H 380.077 7.67687 1.35194 0
M  V30 4067 N 384.306 0.507319 1.49211 0
M  V30 4068 C 385.717 0.0611118 1.866 0
M  V30 4069 C 386.068 -1.35488 1.41907 0
M  V30 4070 O 385.193 -2.0108 0.799726 0
M  V30 4071 C 385.788 0.104125 3.3864 0
M  V30 4072 C 384.347 -0.28677 3.75306 0
M  V30 4073 C 383.494 0.473893 2.73221 0
M  V30 4074 H 386.445 0.719775 1.41439 0
M  V30 4075 H 386.466 -0.689672 3.74198 0
M  V30 4076 H 385.978 1.13482 3.71138 0
M  V30 4077 H 384.079 -1.32046 3.48417 0
M  V30 4078 H 384.192 0.0370745 4.79086 0
M  V30 4079 H 382.556 -0.0770644 2.54583 0
M  V30 4080 H 383.339 1.50478 3.08563 0
M  V30 4081 N 385.784 -1.5574 0.241426 0
M  V30 4082 C 387.033 -1.97986 -0.385295 0
M  V30 4083 C 387.346 -1.13267 -1.59468 0
M  V30 4084 O 388.552 -1.45501 -2.2922 0
M  V30 4085 C 387.008 -3.52275 -0.736884 0
M  V30 4086 C 386.616 -4.45726 0.450796 0
M  V30 4087 C 388.36 -4.03189 -1.3281 0
M  V30 4088 C 386.267 -5.91352 0.0756662 0
M  V30 4089 H 385.197 -0.739386 -0.147731 0
M  V30 4090 H 387.848 -1.80308 0.340779 0
M  V30 4091 H 386.23 -3.65628 -1.52094 0
M  V30 4092 H 387.404 -4.44131 1.22819 0
M  V30 4093 H 385.719 -4.05264 0.956573 0
M  V30 4094 H 388.316 -5.09505 -1.62201 0
M  V30 4095 H 388.659 -3.50212 -2.25071 0
M  V30 4096 H 389.192 -3.93141 -0.607069 0
M  V30 4097 H 385.931 -6.48354 0.965272 0
M  V30 4098 H 385.451 -5.96095 -0.665635 0
M  V30 4099 H 387.13 -6.46084 -0.344075 0
M  V30 4100 N 387.262 0.0317525 -1.57568 0
M  V30 4101 C 388.678 0.38735 -1.54828 0
M  V30 4102 C 388.878 1.7677 -0.967187 0
M  V30 4103 O 387.934 2.45581 -0.587063 0
M  V30 4104 C 389.247 0.291667 -2.99282 0
M  V30 4105 C 390.795 0.368946 -3.10818 0
M  V30 4106 C 391.27 0.302741 -4.56998 0
M  V30 4107 N 392.761 0.361617 -4.61786 0
M  V30 4108 C 393.496 0.333238 -5.72431 0
M  V30 4109 N 392.992 0.257308 -6.92322 0
M  V30 4110 N 394.785 0.382769 -5.60795 0
M  V30 4111 H 386.936 -0.871609 -1.93692 0
M  V30 4112 H 389.199 -0.331161 -0.888277 0
M  V30 4113 H 388.905 -0.656794 -3.45513 0
M  V30 4114 H 388.779 1.08638 -3.61217 0
M  V30 4115 H 391.166 1.30784 -2.64536 0
M  V30 4116 H 391.247 -0.455066 -2.5172 0
M  V30 4117 H 390.891 -0.632473 -5.03947 0
M  V30 4118 H 390.821 1.14482 -5.14005 0
M  V30 4119 H 393.312 0.422923 -3.75526 0
M  V30 4120 H 393.625 0.24068 -7.72425 0
M  V30 4121 H 391.97 0.223396 -6.94641 0
M  V30 4122 H 395.161 0.44006 -4.66027 0
M  V30 4123 H 395.334 0.357184 -6.47015 0
M  V30 4124 N 388.74 1.54641 0.303973 0
M  V30 4125 C 389.67 1.88386 1.3796 0
M  V30 4126 C 390.651 0.742485 1.5304 0
M  V30 4127 O 391.836 0.997959 1.66597 0
M  V30 4128 C 388.966 2.12854 2.74427 0
M  V30 4129 C 387.92 3.28702 2.74115 0
M  V30 4130 C 387.246 3.38582 4.13844 0
M  V30 4131 C 388.546 4.65881 2.3612 0
M  V30 4132 H 390.24 2.78474 1.09966 0
M  V30 4133 H 387.786 1.33988 0.527556 0
M  V30 4134 H 389.739 2.35047 3.49758 0
M  V30 4135 H 388.463 1.19535 3.03939 0
M  V30 4136 H 387.122 3.06428 2.0124 0
M  V30 4137 H 386.77 2.42784 4.40528 0
M  V30 4138 H 386.47 4.16453 4.14537 0
M  V30 4139 H 387.994 3.63031 4.90959 0
M  V30 4140 H 389.408 4.87823 3.01167 0
M  V30 4141 H 387.805 5.46444 2.48031 0
M  V30 4142 H 388.875 4.66799 1.3125 0
M  V30 4143 N 390.218 -0.567019 1.47046 0
M  V30 4144 C 391.128 -1.70247 1.6141 0
M  V30 4145 C 392.144 -1.66746 0.497157 0
M  V30 4146 O 393.32 -1.86371 0.763389 0
M  V30 4147 C 390.385 -3.06756 1.61561 0
M  V30 4148 C 389.446 -3.21399 2.84607 0
M  V30 4149 C 388.679 -4.51396 2.84741 0
M  V30 4150 O 388.902 -5.36255 1.94388 0
M  V30 4151 O 387.836 -4.69621 3.76483 0
M  V30 4152 H 391.662 -1.61073 2.57467 0
M  V30 4153 H 389.247 -0.735894 1.30019 0
M  V30 4154 H 391.129 -3.8801 1.64396 0
M  V30 4155 H 389.804 -3.16333 0.686684 0
M  V30 4156 H 388.711 -2.39579 2.8732 0
M  V30 4157 H 390.044 -3.16721 3.76761 0
M  V30 4158 N 391.696 -1.35014 -0.812953 0
M  V30 4159 C 392.606 -1.2951 -1.95613 0
M  V30 4160 C 393.622 -0.20107 -1.72834 0
M  V30 4161 O 394.798 -0.42932 -1.96771 0
M  V30 4162 C 391.863 -1.06033 -3.30088 0
M  V30 4163 C 390.924 -2.24688 -3.65805 0
M  V30 4164 C 390.157 -2.02322 -4.93864 0
M  V30 4165 O 390.38 -0.986464 -5.61805 0
M  V30 4166 O 389.314 -2.89525 -5.27692 0
M  V30 4167 H 393.14 -2.25705 -2.03202 0
M  V30 4168 H 390.725 -1.15321 -0.949811 0
M  V30 4169 H 392.607 -0.94763 -4.10607 0
M  V30 4170 H 391.282 -0.128852 -3.23443 0
M  V30 4171 H 390.189 -2.41521 -2.85689 0
M  V30 4172 H 391.522 -3.16261 -3.77147 0
M  V30 4173 N 393.175 1.03435 -1.18907 0
M  V30 4174 C 394.422 1.76743 -0.988334 0
M  V30 4175 C 394.75 1.88447 0.481441 0
M  V30 4176 O 394.005 1.39383 1.37371 0
M  V30 4177 C 394.304 3.19792 -1.59586 0
M  V30 4178 C 393.97 3.28108 -3.09283 0
M  V30 4179 C 392.632 3.30084 -3.5014 0
M  V30 4180 C 394.984 3.27696 -4.05296 0
M  V30 4181 C 392.312 3.29299 -4.85571 0
M  V30 4182 C 394.664 3.28451 -5.4065 0
M  V30 4183 C 393.328 3.28723 -5.80946 0
M  V30 4184 H 392.598 0.64675 -0.361657 0
M  V30 4185 H 395.245 1.21442 -1.48068 0
M  V30 4186 H 393.55 3.78136 -1.02568 0
M  V30 4187 H 395.247 3.75171 -1.41589 0
M  V30 4188 H 391.837 3.27294 -2.76725 0
M  V30 4189 H 396.021 3.25354 -3.74778 0
M  V30 4190 H 391.277 3.2783 -5.16079 0
M  V30 4191 H 395.451 3.27082 -6.14809 0
M  V30 4192 H 393.078 3.27868 -6.85862 0
M  V30 4193 N 394.653 0.992116 1.22453 0
M  V30 4194 C 395.583 0.561677 2.26644 0
M  V30 4195 C 396.564 -0.411055 1.65059 0
M  V30 4196 O 397.749 -0.301861 1.9184 0
M  V30 4197 C 394.879 -0.125247 3.47074 0
M  V30 4198 C 393.833 0.765948 4.21091 0
M  V30 4199 C 393.159 -0.0538484 5.34673 0
M  V30 4200 C 394.459 2.06242 4.79856 0
M  V30 4201 H 396.153 1.43259 2.62902 0
M  V30 4202 H 393.699 0.690283 1.26377 0
M  V30 4203 H 395.652 -0.437764 4.1912 0
M  V30 4204 H 394.376 -1.03069 3.0991 0
M  V30 4205 H 393.035 1.0621 3.50878 0
M  V30 4206 H 392.683 -0.960188 4.9375 0
M  V30 4207 H 392.383 0.539415 5.85119 0
M  V30 4208 H 393.907 -0.360477 6.09535 0
M  V30 4209 H 395.321 1.8139 5.43848 0
M  V30 4210 H 393.718 2.60444 5.40638 0
M  V30 4211 H 394.788 2.74167 3.99951 0
M  V30 4212 N 396.131 -1.37776 0.765217 0
M  V30 4213 C 397.359 -2.04124 0.337767 0
M  V30 4214 C 397.774 -1.57715 -1.03785 0
M  V30 4215 O 397.131 -0.755447 -1.6613 0
M  V30 4216 C 397.182 -3.59658 0.364442 0
M  V30 4217 O 396.903 -4.04367 1.68579 0
M  V30 4218 C 398.404 -4.43236 -0.0754221 0
M  V30 4219 H 395.624 -0.655696 0.142491 0
M  V30 4220 H 398.168 -1.76238 1.03732 0
M  V30 4221 H 396.323 -3.86339 -0.286471 0
M  V30 4222 H 396.737 -4.98857 1.61993 0
M  V30 4223 H 398.211 -5.52 -0.00560067 0
M  V30 4224 H 398.688 -4.2455 -1.12491 0
M  V30 4225 H 399.294 -4.21767 0.547055 0
M  V30 4226 N 397.609 -0.515225 -1.4894 0
M  V30 4227 C 398.856 0.024215 -2.02486 0
M  V30 4228 C 399.184 1.35671 -1.39368 0
M  V30 4229 O 398.439 1.88566 -0.523574 0
M  V30 4230 C 398.738 0.210595 -3.56779 0
M  V30 4231 C 398.404 -1.04569 -4.38607 0
M  V30 4232 C 397.066 -1.39002 -4.60686 0
M  V30 4233 C 399.418 -1.88008 -4.86109 0
M  V30 4234 C 396.746 -2.568 -5.27514 0
M  V30 4235 C 399.098 -3.04972 -5.54234 0
M  V30 4236 C 397.762 -3.39768 -5.74555 0
M  V30 4237 H 397.032 0.00886088 -0.740947 0
M  V30 4238 H 399.679 -0.678263 -1.79086 0
M  V30 4239 H 397.984 0.99572 -3.78936 0
M  V30 4240 H 399.681 0.642659 -3.95817 0
M  V30 4241 H 396.271 -0.767497 -4.21672 0
M  V30 4242 H 400.455 -1.62719 -4.68867 0
M  V30 4243 H 395.711 -2.8398 -5.41447 0
M  V30 4244 H 399.885 -3.69943 -5.90013 0
M  V30 4245 H 397.512 -4.31148 -6.26112 0
M  V30 4246 N 399.087 1.5561 -0.249682 0
M  V30 4247 C 400.335 1.98618 0.373548 0
M  V30 4248 C 400.656 1.13919 1.58264 0
M  V30 4249 O 399.926 0.222637 1.94631 0
M  V30 4250 H 398.506 0.733571 0.141006 0
M  V30 4251 H 401.168 1.91748 -0.349117 0
M  V30 4252 H 400.264 3.04584 0.680796 0
M  V30 4253 N 400.565 -0.0233959 1.57583 0
M  V30 4254 C 401.813 -0.711654 1.89156 0
M  V30 4255 C 402.134 -1.75591 0.848096 0
M  V30 4256 O 401.404 -1.95547 -0.117566 0
M  V30 4257 H 399.984 -0.265835 0.698098 0
M  V30 4258 H 402.646 0.0119948 1.94896 0
M  V30 4259 H 401.742 -1.19766 2.88206 0
M  V30 4260 N 402.043 -1.548 -0.295768 0
M  V30 4261 C 402.975 -1.82492 -1.3867 0
M  V30 4262 C 403.988 -0.708134 -1.46592 0
M  V30 4263 O 405.177 -0.985686 -1.48817 0
M  V30 4264 C 402.277 -1.95256 -2.76999 0
M  V30 4265 C 401.45 -3.25709 -2.91946 0
M  V30 4266 C 400.509 -3.28824 -4.10806 0
M  V30 4267 O 399.535 -4.02328 -4.02643 0
M  V30 4268 N 400.737 -2.5459 -5.21694 0
M  V30 4269 H 403.502 -2.76646 -1.15269 0
M  V30 4270 H 401.063 -1.54438 -0.485849 0
M  V30 4271 H 403.055 -1.94736 -3.54768 0
M  V30 4272 H 401.625 -1.08072 -2.93324 0
M  V30 4273 H 400.845 -3.38959 -2.01247 0
M  V30 4274 H 402.133 -4.11786 -2.98847 0
M  V30 4275 H 401.531 -1.94512 -5.31208 0
M  V30 4276 H 400.088 -2.59818 -5.97778 0
M  V30 4277 N 403.521 0.559213 -1.47345 0
M  V30 4278 C 404.798 1.31997 -1.44348 0
M  V30 4279 C 405.178 2.1064 -0.139358 0
M  V30 4280 O 404.526 2.1091 0.879153 0
M  V30 4281 C 404.736 2.22618 -2.68779 0
M  V30 4282 C 406.084 2.83701 -3.1591 0
M  V30 4283 O 407.108 2.32921 -2.69493 0
M  V30 4284 O 405.967 3.75993 -3.966 0
M  V30 4285 H 403.061 0.594251 -0.575147 0
M  V30 4286 H 405.607 0.578282 -1.59543 0
M  V30 4287 H 404.379 1.64093 -3.55231 0
M  V30 4288 H 404.002 3.04085 -2.5616 0
M  V30 4289 N 404.999 1.35443 0.805782 0
M  V30 4290 C 405.929 1.31095 1.93226 0
M  V30 4291 C 406.91 0.185244 1.69088 0
M  V30 4292 O 408.095 0.380332 1.90439 0
M  V30 4293 C 405.225 1.08299 3.29983 0
M  V30 4294 C 404.179 2.17519 3.68605 0
M  V30 4295 C 403.505 1.79887 5.03532 0
M  V30 4296 C 404.805 3.5949 3.78898 0
M  V30 4297 H 406.499 2.25352 1.97122 0
M  V30 4298 H 404.045 1.0848 0.946996 0
M  V30 4299 H 405.998 1.03897 4.08391 0
M  V30 4300 H 404.722 0.104885 3.26432 0
M  V30 4301 H 403.381 2.2102 2.92482 0
M  V30 4302 H 403.029 0.80693 4.96485 0
M  V30 4303 H 402.729 2.53001 5.30344 0
M  V30 4304 H 404.253 1.77011 5.84379 0
M  V30 4305 H 405.667 3.58307 4.47536 0
M  V30 4306 H 404.064 4.31371 4.1718 0
M  V30 4307 H 405.134 3.95584 2.80431 0
M  V30 4308 N 406.477 -1.02803 1.19454 0
M  V30 4309 C 407.425 -2.13213 0.929673 0
M  V30 4310 C 408.419 -1.69011 -0.114806 0
M  V30 4311 O 409.625 -1.79967 0.0345147 0
M  V30 4312 H 406 -0.69662 0.28324 0
M  V30 4313 H 407.971 -2.32744 1.86743 0
M  V30 4314 C 406.72 -3.4429 0.485797 0
M  V30 4315 H 406.043 -3.7872 1.28105 0
M  V30 4316 H 407.483 -4.22638 0.339582 0
M  V30 4317 C 405.942 -3.27258 -0.800244 0
M  V30 4318 O 406.472 -3.55967 -1.86146 0
M  V30 4319 N 404.678 -2.80545 -0.75781 0
M  V30 4320 H 404.225 -2.57382 0.106039 0
M  V30 4321 H 404.183 -2.6953 -1.61867 0
M  V30 4322 N 407.956 -0.998596 -1.21925 0
M  V30 4323 C 409.205 -0.673085 -1.90138 0
M  V30 4324 C 409.518 0.79895 -1.78539 0
M  V30 4325 O 410.724 1.23628 -2.4172 0
M  V30 4326 C 409.18 -1.15339 -3.40918 0
M  V30 4327 C 408.788 -2.65106 -3.61141 0
M  V30 4328 C 410.532 -0.902476 -4.14796 0
M  V30 4329 C 408.439 -3.0671 -5.05651 0
M  V30 4330 H 407.369 -0.248057 -0.712028 0
M  V30 4331 H 410.02 -1.20891 -1.38049 0
M  V30 4332 H 408.402 -0.545658 -3.92223 0
M  V30 4333 H 409.576 -3.31274 -3.20304 0
M  V30 4334 H 407.891 -2.88142 -3.00605 0
M  V30 4335 H 410.488 -1.18895 -5.21314 0
M  V30 4336 H 410.831 0.161349 -4.15987 0
M  V30 4337 H 411.364 -1.47269 -3.69536 0
M  V30 4338 H 408.103 -4.12292 -5.09603 0
M  V30 4339 H 407.623 -2.45249 -5.47369 0
M  V30 4340 H 409.302 -2.9833 -5.74115 0
M  V30 4341 N 409.434 1.37368 -0.772513 0
M  V30 4342 C 410.683 1.98918 -0.333861 0
M  V30 4343 C 410.996 1.62017 1.09589 0
M  V30 4344 O 412.202 2.16676 1.63596 0
M  V30 4345 C 410.658 3.55735 -0.545971 0
M  V30 4346 C 410.266 4.01573 -1.98603 0
M  V30 4347 C 412.01 4.24156 -0.170979 0
M  V30 4348 C 409.917 5.51102 -2.1457 0
M  V30 4349 H 408.847 0.744214 -0.121085 0
M  V30 4350 H 411.498 1.56888 -0.95175 0
M  V30 4351 H 409.88 3.95748 0.141387 0
M  V30 4352 H 411.054 3.72803 -2.7084 0
M  V30 4353 H 409.369 3.45937 -2.31769 0
M  V30 4354 H 411.966 5.34024 -0.26878 0
M  V30 4355 H 412.309 4.06917 0.878855 0
M  V30 4356 H 412.842 3.89447 -0.810914 0
M  V30 4357 H 409.581 5.73268 -3.17875 0
M  V30 4358 H 409.101 5.81554 -1.46817 0
M  V30 4359 H 410.78 6.17083 -1.94468 0
M  V30 4360 N 410.912 0.523116 1.48665 0
M  V30 4361 C 412.14 -0.0096312 2.06898 0
M  V30 4362 C 412.555 -1.28784 1.38059 0
M  V30 4363 O 411.912 -1.76453 0.465893 0
M  V30 4364 C 411.963 -0.244386 3.60673 0
M  V30 4365 O 411.684 0.983172 4.26925 0
M  V30 4366 C 413.185 -0.818289 4.35682 0
M  V30 4367 H 410.405 0.0304161 0.67031 0
M  V30 4368 H 412.949 0.726799 1.91149 0
M  V30 4369 H 411.104 -0.930847 3.76051 0
M  V30 4370 H 411.518 0.759653 5.1897 0
M  V30 4371 H 412.992 -0.93201 5.44075 0
M  V30 4372 H 413.469 -1.82153 3.99646 0
M  V30 4373 H 414.075 -0.168609 4.24966 0
M  V30 4374 N 412.39 -1.55475 0.257931 0
M  V30 4375 C 413.615 -2.04064 -0.370488 0
M  V30 4376 C 414.04 -1.13565 -1.49948 0
M  V30 4377 O 413.398 -0.130781 -1.80828 0
M  V30 4378 C 413.446 -3.50554 -0.845237 0
M  V30 4379 O 412.55 -3.63173 -1.95394 0
M  V30 4380 H 411.891 -0.659257 -0.0792243 0
M  V30 4381 H 414.421 -2.00903 0.387212 0
M  V30 4382 H 414.431 -3.91588 -1.14555 0
M  V30 4383 H 413.106 -4.15896 -0.0191259 0
M  V30 4384 H 411.683 -3.34039 -1.65748 0
M  V30 4385 N 413.868 0.0150385 -1.57593 0
M  V30 4386 C 414.831 0.995996 -2.06428 0
M  V30 4387 C 415.831 1.2818 -0.970903 0
M  V30 4388 O 417.021 1.22949 -1.23406 0
M  V30 4389 C 414.153 2.32506 -2.49307 0
M  V30 4390 H 415.346 0.573873 -2.94358 0
M  V30 4391 H 412.899 0.262186 -1.54085 0
M  V30 4392 H 413.634 2.79438 -1.64575 0
M  V30 4393 H 413.419 2.13087 -3.29145 0
M  V30 4394 H 414.909 3.02906 -2.87468 0
M  V30 4395 N 415.346 1.54954 0.287554 0
M  V30 4396 C 416.279 1.81737 1.3801 0
M  V30 4397 C 417.257 0.669412 1.48181 0
M  V30 4398 O 418.441 0.910839 1.65033 0
M  V30 4399 C 415.568 1.96606 2.75796 0
M  V30 4400 C 414.614 3.19098 2.82982 0
M  V30 4401 S 415.447 4.7683 2.43707 0
M  V30 4402 C 416.603 4.94653 3.83496 0
M  V30 4403 H 416.836 2.74122 1.15085 0
M  V30 4404 H 414.369 1.46538 0.486403 0
M  V30 4405 H 416.327 2.05858 3.55152 0
M  V30 4406 H 414.988 1.05136 2.95982 0
M  V30 4407 H 414.181 3.26344 3.84077 0
M  V30 4408 H 413.783 3.08361 2.11635 0
M  V30 4409 H 416.075 4.79502 4.78628 0
M  V30 4410 H 417.018 5.96728 3.8121 0
M  V30 4411 H 417.426 4.2272 3.74123 0
M  V30 4412 N 416.824 -0.551391 1.4764 0
M  V30 4413 C 417.771 -1.65796 1.60563 0
M  V30 4414 C 418.741 -1.59932 0.448428 0
M  V30 4415 O 419.926 -1.78679 0.669222 0
M  V30 4416 C 417.066 -3.04108 1.63133 0
M  V30 4417 C 416.179 -3.20365 2.89811 0
M  V30 4418 C 415.314 -4.49109 2.8368 0
M  V30 4419 C 414.353 -4.58819 4.05156 0
M  V30 4420 N 413.49 -5.78926 3.97227 0
M  V30 4421 H 418.33 -1.54088 2.5507 0
M  V30 4422 H 415.867 -0.75052 1.26513 0
M  V30 4423 H 417.825 -3.84207 1.62606 0
M  V30 4424 H 416.455 -3.14637 0.721341 0
M  V30 4425 H 415.507 -2.33659 3.00179 0
M  V30 4426 H 416.819 -3.23402 3.79753 0
M  V30 4427 H 415.973 -5.37475 2.81434 0
M  V30 4428 H 414.712 -4.4856 1.91431 0
M  V30 4429 H 413.717 -3.68864 4.077 0
M  V30 4430 H 414.942 -4.61124 4.98539 0
M  V30 4431 H 412.888 -5.79314 3.07785 0
M  V30 4432 H 412.805 -5.83367 4.80853 0
M  V30 4433 H 414.073 -6.69637 3.99007 0
M  V30 4434 N 418.302 -1.35869 -0.798587 0
M  V30 4435 C 419.212 -1.31578 -1.94228 0
M  V30 4436 C 420.228 -0.21939 -1.72611 0
M  V30 4437 O 421.404 -0.450167 -1.96305 0
M  V30 4438 C 418.469 -1.09528 -3.28944 0
M  V30 4439 C 417.53 -2.28556 -3.63402 0
M  V30 4440 C 416.763 -2.07549 -4.9169 0
M  V30 4441 O 416.986 -1.046 -5.60727 0
M  V30 4442 O 415.92 -2.95106 -5.24591 0
M  V30 4443 H 419.746 -2.27847 -2.00796 0
M  V30 4444 H 417.331 -1.16322 -0.937526 0
M  V30 4445 H 419.213 -0.991127 -4.09579 0
M  V30 4446 H 417.888 -0.16315 -3.23289 0
M  V30 4447 H 416.795 -2.44538 -2.83112 0
M  V30 4448 H 418.128 -3.20244 -3.73771 0
M  V30 4449 N 419.78 1.02168 -1.19998 0
M  V30 4450 C 420.727 2.10601 -0.944228 0
M  V30 4451 C 421.697 1.65639 0.123664 0
M  V30 4452 O 422.882 1.9079 -0.0199941 0
M  V30 4453 C 420.022 3.41504 -0.496865 0
M  V30 4454 C 419.135 3.99973 -1.63234 0
M  V30 4455 C 418.27 5.18915 -1.13579 0
M  V30 4456 C 417.309 5.69456 -2.24468 0
M  V30 4457 N 416.446 6.79665 -1.76068 0
M  V30 4458 H 421.286 2.31814 -1.8726 0
M  V30 4459 H 418.823 1.13686 -0.933483 0
M  V30 4460 H 420.781 4.16626 -0.218843 0
M  V30 4461 H 419.411 3.2038 0.394508 0
M  V30 4462 H 418.463 3.21997 -2.0254 0
M  V30 4463 H 419.775 4.33492 -2.46752 0
M  V30 4464 H 418.929 6.01222 -0.813429 0
M  V30 4465 H 417.668 4.8695 -0.270434 0
M  V30 4466 H 416.673 4.85757 -2.57526 0
M  V30 4467 H 417.898 6.03459 -3.11472 0
M  V30 4468 H 415.844 6.49538 -0.918516 0
M  V30 4469 H 415.761 7.12349 -2.5317 0
M  V30 4470 H 417.029 7.65549 -1.46817 0
M  V30 4471 N 421.258 1.00505 1.21394 0
M  V30 4472 C 422.507 0.683159 1.89778 0
M  V30 4473 C 422.82 -0.789471 1.7896 0
M  V30 4474 O 424.026 -1.22344 2.42372 0
M  V30 4475 C 422.482 1.17146 3.40301 0
M  V30 4476 C 422.09 2.67017 3.5973 0
M  V30 4477 C 423.834 0.924461 4.14311 0
M  V30 4478 C 421.741 3.09387 5.04017 0
M  V30 4479 H 420.671 0.25183 0.710702 0
M  V30 4480 H 423.322 1.21622 1.37406 0
M  V30 4481 H 421.704 0.566451 3.91928 0
M  V30 4482 H 422.878 3.32968 3.18542 0
M  V30 4483 H 421.193 2.89732 2.99073 0
M  V30 4484 H 423.79 1.21658 5.20676 0
M  V30 4485 H 424.133 -0.139286 4.16067 0
M  V30 4486 H 424.666 1.49226 3.6875 0
M  V30 4487 H 421.405 4.14989 5.07409 0
M  V30 4488 H 420.925 2.48149 5.46061 0
M  V30 4489 H 422.604 3.01371 5.72525 0
M  V30 4490 N 422.737 -1.36956 0.779787 0
M  V30 4491 C 423.967 -2.03459 0.358877 0
M  V30 4492 C 424.375 -1.58939 -1.02641 0
M  V30 4493 O 423.718 -0.769777 -1.66794 0
M  V30 4494 C 423.78 -3.5796 0.332393 0
M  V30 4495 C 423.444 -4.25644 1.66362 0
M  V30 4496 C 424.441 -4.49205 2.61746 0
M  V30 4497 C 422.126 -4.63313 1.94027 0
M  V30 4498 C 424.12 -5.09503 3.82996 0
M  V30 4499 C 421.807 -5.2333 3.15546 0
M  V30 4500 C 422.805 -5.46363 4.0985 0
M  V30 4501 O 422.493 -6.05122 5.29228 0
M  V30 4502 H 422.225 -0.659767 0.147254 0
M  V30 4503 H 424.779 -1.76111 1.05708 0
M  V30 4504 H 423.009 -3.84388 -0.422237 0
M  V30 4505 H 424.698 -4.05852 -0.0625389 0
M  V30 4506 H 425.464 -4.20508 2.41657 0
M  V30 4507 H 421.343 -4.44715 1.21448 0
M  V30 4508 H 424.887 -5.27397 4.56617 0
M  V30 4509 H 420.784 -5.51451 3.35517 0
M  V30 4510 H 421.552 -6.23595 5.30161 0
M  V30 4511 N 424.215 -0.530993 -1.48385 0
M  V30 4512 C 425.163 0.244595 -2.3131 0
M  V30 4513 C 426.157 0.93451 -1.41291 0
M  V30 4514 O 427.363 0.85878 -1.58193 0
M  V30 4515 H 423.738 0.0977472 -0.74562 0
M  V30 4516 H 425.709 -0.474369 -2.94605 0
M  V30 4517 C 424.458 1.2779 -3.23365 0
M  V30 4518 H 423.781 0.756439 -3.92579 0
M  V30 4519 H 425.221 1.79198 -3.84271 0
M  V30 4520 C 423.68 2.31205 -2.45042 0
M  V30 4521 O 424.21 3.37661 -2.17596 0
M  V30 4522 N 422.416 2.04446 -2.0652 0
M  V30 4523 H 421.963 1.17891 -2.2904 0
M  V30 4524 H 421.921 2.73861 -1.54427 0
M  V30 4525 N 425.693 1.55336 -0.266172 0
M  V30 4526 C 426.641 2.23587 0.641228 0
M  V30 4527 C 427.635 1.22986 1.16494 0
M  V30 4528 O 428.841 1.40943 1.1196 0
M  V30 4529 H 425.216 0.717452 0.225315 0
M  V30 4530 H 427.187 2.9837 0.0426561 0
M  V30 4531 C 425.936 2.96369 1.81826 0
M  V30 4532 H 425.259 3.73563 1.42445 0
M  V30 4533 H 426.699 3.47459 2.42998 0
M  V30 4534 C 425.158 2.0133 2.70125 0
M  V30 4535 O 425.688 1.55875 3.70224 0
M  V30 4536 N 423.894 1.6802 2.37102 0
M  V30 4537 H 423.441 2.05181 1.55751 0
M  V30 4538 H 423.399 1.047 2.96454 0
M  V30 4539 N 427.171 -0.0066808 1.57599 0
M  V30 4540 C 428.101 -0.999296 2.11036 0
M  V30 4541 C 429.082 -1.36278 1.01795 0
M  V30 4542 O 430.267 -1.4477 1.29442 0
M  V30 4543 C 427.397 -2.29328 2.60818 0
M  V30 4544 C 426.351 -2.07159 3.74525 0
M  V30 4545 C 425.677 -3.42512 4.10596 0
M  V30 4546 C 426.977 -1.43959 5.02069 0
M  V30 4547 H 428.671 -0.554382 2.94223 0
M  V30 4548 H 426.217 -0.265221 1.41536 0
M  V30 4549 H 428.17 -2.99117 2.96828 0
M  V30 4550 H 426.894 -2.7592 1.74745 0
M  V30 4551 H 425.553 -1.39797 3.38899 0
M  V30 4552 H 425.201 -3.86795 3.21556 0
M  V30 4553 H 424.901 -3.28498 4.87199 0
M  V30 4554 H 426.425 -4.13628 4.4916 0
M  V30 4555 H 427.839 -2.03696 5.35893 0
M  V30 4556 H 426.236 -1.40452 5.83432 0
M  V30 4557 H 427.306 -0.407992 4.83181 0
M  V30 4558 N 428.649 -1.55105 -0.279332 0
M  V30 4559 C 429.579 -1.90557 -1.34945 0
M  V30 4560 C 430.56 -0.766738 -1.51839 0
M  V30 4561 O 431.745 -1.02434 -1.64988 0
M  V30 4562 C 428.875 -2.17193 -2.71006 0
M  V30 4563 C 427.829 -3.33021 -2.68851 0
M  V30 4564 C 427.155 -3.45123 -4.08405 0
M  V30 4565 C 428.455 -4.69578 -2.28678 0
M  V30 4566 H 430.149 -2.80188 -1.05522 0
M  V30 4567 H 427.695 -1.34811 -0.506173 0
M  V30 4568 H 429.648 -2.40581 -3.45975 0
M  V30 4569 H 428.372 -1.24355 -3.01999 0
M  V30 4570 H 427.031 -3.0959 -1.9634 0
M  V30 4571 H 426.679 -2.49762 -4.3661 0
M  V30 4572 H 426.379 -4.22995 -4.07859 0
M  V30 4573 H 427.903 -3.70796 -4.85121 0
M  V30 4574 H 429.317 -4.92553 -2.93368 0
M  V30 4575 H 427.714 -5.5032 -2.39306 0
M  V30 4576 H 428.784 -4.68828 -1.23807 0
M  V30 4577 N 430.127 0.543554 -1.4793 0
M  V30 4578 C 431.09 1.63156 -1.60975 0
M  V30 4579 C 432.09 1.53346 -0.483899 0
M  V30 4580 O 433.28 1.5726 -0.749339 0
M  V30 4581 C 430.412 3.02743 -1.56716 0
M  V30 4582 H 431.605 1.52934 -2.57975 0
M  V30 4583 H 429.158 0.764557 -1.36324 0
M  V30 4584 H 429.893 3.18484 -0.611418 0
M  V30 4585 H 429.678 3.11272 -2.38438 0
M  V30 4586 H 431.168 3.81871 -1.6901 0
M  V30 4587 N 431.605 1.3629 0.791371 0
M  V30 4588 C 432.553 1.30514 1.92533 0
M  V30 4589 C 433.547 0.197285 1.68247 0
M  V30 4590 O 434.753 0.364176 1.76278 0
M  V30 4591 H 431.128 0.406263 0.632815 0
M  V30 4592 H 433.099 2.26282 1.94523 0
M  V30 4593 C 431.848 1.10933 3.29529 0
M  V30 4594 H 431.171 1.95427 3.48781 0
M  V30 4595 H 432.611 1.10937 4.0923 0
M  V30 4596 C 431.07 -0.186123 3.36385 0
M  V30 4597 O 431.6 -1.17664 3.84081 0
M  V30 4598 N 429.806 -0.230128 2.89687 0
M  V30 4599 H 429.353 0.576545 2.51065 0
M  V30 4600 H 429.311 -1.09658 2.94657 0
M  V30 4601 N 433.083 -1.0153 1.20538 0
M  V30 4602 C 434.313 -1.78487 1.04048 0
M  V30 4603 C 434.721 -1.84631 -0.413292 0
M  V30 4604 O 434.064 -1.29919 -1.29872 0
M  V30 4605 C 434.126 -3.24367 1.55003 0
M  V30 4606 C 433.79 -3.41827 3.0332 0
M  V30 4607 C 434.787 -3.30941 4.00966 0
M  V30 4608 C 432.472 -3.67602 3.42307 0
M  V30 4609 C 434.466 -3.45577 5.35589 0
M  V30 4610 C 432.153 -3.81881 4.77085 0
M  V30 4611 C 433.151 -3.70874 5.73534 0
M  V30 4612 O 432.839 -3.84714 7.05868 0
M  V30 4613 H 432.571 -0.568108 0.366373 0
M  V30 4614 H 435.125 -1.28677 1.60098 0
M  V30 4615 H 433.355 -3.75266 0.933397 0
M  V30 4616 H 435.044 -3.82963 1.34514 0
M  V30 4617 H 435.81 -3.10964 3.72191 0
M  V30 4618 H 431.689 -3.75256 2.67776 0
M  V30 4619 H 435.233 -3.36902 6.10854 0
M  V30 4620 H 431.13 -4.01359 5.0555 0
M  V30 4621 H 431.898 -4.01724 7.13134 0
M  V30 4622 N 434.561 -1.01147 -1.20859 0
M  V30 4623 C 435.471 -0.58686 -2.27141 0
M  V30 4624 C 436.487 0.373198 -1.69951 0
M  V30 4625 O 437.663 0.235423 -2.00019 0
M  V30 4626 C 434.728 0.0733602 -3.46622 0
M  V30 4627 C 433.789 -0.931995 -4.19061 0
M  V30 4628 C 433.022 -0.303186 -5.32838 0
M  V30 4629 O 433.245 0.898395 -5.63281 0
M  V30 4630 O 432.179 -1.01735 -5.9324 0
M  V30 4631 H 436.005 -1.47155 -2.65667 0
M  V30 4632 H 433.59 -0.780689 -1.2738 0
M  V30 4633 H 435.472 0.442333 -4.19072 0
M  V30 4634 H 434.147 0.932329 -3.09983 0
M  V30 4635 H 433.054 -1.35224 -3.48805 0
M  V30 4636 H 434.387 -1.76076 -4.59628 0
M  V30 4637 N 436.039 1.36541 -0.78704 0
M  V30 4638 C 436.986 2.30082 -0.181901 0
M  V30 4639 C 437.956 1.5186 0.672896 0
M  V30 4640 O 439.141 1.80374 0.622072 0
M  V30 4641 C 436.281 3.3835 0.679197 0
M  V30 4642 C 435.394 4.31565 -0.193882 0
M  V30 4643 C 434.529 5.26915 0.673364 0
M  V30 4644 C 433.568 6.11769 -0.201315 0
M  V30 4645 N 432.705 6.99315 0.624777 0
M  V30 4646 H 437.545 2.81248 -0.985064 0
M  V30 4647 H 435.082 1.38437 -0.497342 0
M  V30 4648 H 437.04 3.99767 1.19341 0
M  V30 4649 H 435.67 2.8851 1.44781 0
M  V30 4650 H 434.722 3.71323 -0.826044 0
M  V30 4651 H 436.034 4.91191 -0.867937 0
M  V30 4652 H 435.188 5.9361 1.25348 0
M  V30 4653 H 433.927 4.67737 1.38105 0
M  V30 4654 H 432.932 5.44039 -0.793849 0
M  V30 4655 H 434.157 6.73022 -0.906568 0
M  V30 4656 H 432.103 6.42648 1.3168 0
M  V30 4657 H 432.02 7.56 0.00835237 0
M  V30 4658 H 433.288 7.70382 1.18879 0
M  V30 4659 N 437.518 0.538854 1.48102 0
M  V30 4660 C 438.767 0.0059532 2.01699 0
M  V30 4661 C 439.08 -1.34476 1.42041 0
M  V30 4662 O 440.286 -1.96653 1.87189 0
M  V30 4663 C 438.742 -0.0397627 3.59878 0
M  V30 4664 C 438.35 1.30659 4.28523 0
M  V30 4665 C 440.094 -0.521024 4.2129 0
M  V30 4666 C 438.001 1.22098 5.78659 0
M  V30 4667 H 436.931 -0.00154456 0.753998 0
M  V30 4668 H 439.582 0.683963 1.70277 0
M  V30 4669 H 437.964 -0.783037 3.88181 0
M  V30 4670 H 439.138 2.06613 4.11883 0
M  V30 4671 H 437.453 1.7243 3.79021 0
M  V30 4672 H 440.05 -0.603184 5.31287 0
M  V30 4673 H 440.393 -1.52885 3.8721 0
M  V30 4674 H 440.926 0.166834 3.9745 0
M  V30 4675 H 437.665 2.20424 6.17328 0
M  V30 4676 H 437.185 0.50295 5.97688 0
M  V30 4677 H 438.864 0.915345 6.40492 0
M  V30 4678 N 438.996 -1.55193 0.274407 0
M  V30 4679 C 439.959 -2.212 -0.600279 0
M  V30 4680 C 440.959 -1.18963 -1.08187 0
M  V30 4681 O 442.149 -1.43873 -0.982158 0
M  V30 4682 C 439.281 -2.87739 -1.82809 0
M  V30 4683 H 440.474 -2.9989 -0.0239682 0
M  V30 4684 H 438.027 -1.5628 0.0250192 0
M  V30 4685 H 438.762 -2.13058 -2.44493 0
M  V30 4686 H 438.547 -3.62658 -1.49069 0
M  V30 4687 H 440.037 -3.38171 -2.45011 0
M  V30 4688 N 440.474 -0.00167713 -1.576 0
M  V30 4689 C 441.702 0.693759 -1.94922 0
M  V30 4690 C 442.117 1.67215 -0.876626 0
M  V30 4691 O 441.474 1.81929 0.144279 0
M  V30 4692 C 441.525 1.42416 -3.32265 0
M  V30 4693 O 441.246 0.485014 -4.35407 0
M  V30 4694 C 442.747 2.21395 -3.84056 0
M  V30 4695 H 439.967 0.193118 -0.642609 0
M  V30 4696 H 442.511 -0.0532952 -2.04431 0
M  V30 4697 H 440.666 2.12284 -3.24059 0
M  V30 4698 H 441.08 1.00053 -5.14868 0
M  V30 4699 H 442.554 2.67996 -4.82578 0
M  V30 4700 H 443.031 3.04142 -3.16851 0
M  V30 4701 H 443.637 1.56542 -3.95443 0
M  V30 4702 N 441.952 1.55251 0.271103 0
M  V30 4703 C 443.368 1.47133 0.618393 0
M  V30 4704 C 443.568 0.686994 1.89427 0
M  V30 4705 O 442.624 0.206609 2.51653 0
M  V30 4706 C 443.937 2.91361 0.743593 0
M  V30 4707 C 445.485 3.01587 0.837522 0
M  V30 4708 C 445.96 4.47073 0.994483 0
M  V30 4709 N 447.451 4.50909 1.05996 0
M  V30 4710 C 448.186 5.60698 1.20024 0
M  V30 4711 N 447.682 6.80348 1.30759 0
M  V30 4712 N 449.475 5.48444 1.23149 0
M  V30 4713 H 441.626 2.04698 -0.566784 0
M  V30 4714 H 443.889 0.928319 -0.192165 0
M  V30 4715 H 443.595 3.51483 -0.123493 0
M  V30 4716 H 443.469 3.40484 1.62328 0
M  V30 4717 H 445.856 2.4156 1.69507 0
M  V30 4718 H 445.937 2.55713 -0.0668086 0
M  V30 4719 H 445.581 5.07703 0.141582 0
M  V30 4720 H 445.511 4.90605 1.91349 0
M  V30 4721 H 448.002 3.6472 0.989316 0
M  V30 4722 H 448.315 7.59772 1.41303 0
M  V30 4723 H 446.66 6.83156 1.27761 0
M  V30 4724 H 449.851 4.53907 1.14394 0
M  V30 4725 H 450.024 6.34049 1.33738 0
M  V30 4726 N 443.43 -0.535701 1.48216 0
M  V30 4727 C 444.36 -1.65014 1.65204 0
M  V30 4728 C 445.341 -1.62554 0.501011 0
M  V30 4729 O 446.526 -1.7984 0.732886 0
M  V30 4730 C 443.656 -3.03616 1.68626 0
M  V30 4731 C 442.61 -3.20932 2.83172 0
M  V30 4732 C 441.936 -4.60537 2.71679 0
M  V30 4733 C 443.236 -3.04249 4.24535 0
M  V30 4734 H 444.93 -1.51053 2.58502 0
M  V30 4735 H 442.476 -0.725262 1.24402 0
M  V30 4736 H 444.429 -3.81446 1.79099 0
M  V30 4737 H 443.153 -3.18587 0.719026 0
M  V30 4738 H 441.812 -2.45517 2.72244 0
M  V30 4739 H 441.46 -4.72336 1.72937 0
M  V30 4740 H 441.16 -4.73069 3.48538 0
M  V30 4741 H 442.684 -5.40475 2.84112 0
M  V30 4742 H 444.098 -3.71877 4.36326 0
M  V30 4743 H 442.495 -3.28278 5.02348 0
M  V30 4744 H 443.565 -2.00739 4.41397 0
M  V30 4745 N 444.908 -1.36708 -0.784132 0
M  V30 4746 C 446.133 -1.34565 -1.5782 0
M  V30 4747 C 446.558 0.0695257 -1.87971 0
M  V30 4748 O 445.916 1.04302 -1.48293 0
M  V30 4749 C 445.964 -2.17952 -2.87279 0
M  V30 4750 O 445.068 -1.57563 -3.81114 0
M  V30 4751 H 444.409 -0.460337 -0.478524 0
M  V30 4752 H 446.939 -1.80064 -0.971495 0
M  V30 4753 H 446.949 -2.30721 -3.365 0
M  V30 4754 H 445.624 -3.20823 -2.64661 0
M  V30 4755 H 444.201 -1.53764 -3.39722 0
M  V30 4756 N 446.386 1.0089 -1.21074 0
M  V30 4757 C 447.296 2.13039 -0.982425 0
M  V30 4758 C 448.312 1.73881 0.0642161 0
M  V30 4759 O 449.488 2.01012 -0.12496 0
M  V30 4760 C 446.553 3.42377 -0.545803 0
M  V30 4761 C 445.614 3.95731 -1.6642 0
M  V30 4762 C 444.847 5.18896 -1.24832 0
M  V30 4763 O 445.07 5.70273 -0.120265 0
M  V30 4764 O 444.004 5.65597 -2.05873 0
M  V30 4765 H 447.83 2.35175 -1.92163 0
M  V30 4766 H 445.415 1.1142 -0.995285 0
M  V30 4767 H 447.297 4.20244 -0.311912 0
M  V30 4768 H 445.972 3.21639 0.364727 0
M  V30 4769 H 444.879 3.19108 -1.95246 0
M  V30 4770 H 446.212 4.20872 -2.55201 0
M  V30 4771 N 447.864 1.01787 1.20321 0
M  V30 4772 C 449.11 0.708985 1.90003 0
M  V30 4773 C 449.443 -0.759572 1.78729 0
M  V30 4774 O 448.718 -1.55198 1.17234 0
M  V30 4775 C 449.001 1.1469 3.41348 0
M  V30 4776 C 448.854 2.67586 3.61549 0
M  V30 4777 C 450.173 0.71915 4.34185 0
M  V30 4778 H 447.292 0.259034 0.689978 0
M  V30 4779 H 449.934 1.26584 1.41692 0
M  V30 4780 H 448.084 0.673128 3.82624 0
M  V30 4781 H 449.756 3.22826 3.29517 0
M  V30 4782 H 447.999 3.085 3.04976 0
M  V30 4783 H 448.67 2.93281 4.67643 0
M  V30 4784 H 451.146 1.12647 4.00562 0
M  V30 4785 H 450.022 1.05358 5.38694 0
M  V30 4786 H 450.283 -0.379111 4.40472 0
M  V30 4787 N 449.342 -1.36122 0.79427 0
M  V30 4788 C 450.29 -2.31871 0.184023 0
M  V30 4789 C 451.284 -1.56041 -0.659365 0
M  V30 4790 O 452.49 -1.71266 -0.553906 0
M  V30 4791 H 448.865 -0.750896 0.0407373 0
M  V30 4792 H 450.836 -2.80898 1.00693 0
M  V30 4793 C 449.585 -3.41324 -0.662813 0
M  V30 4794 H 448.908 -3.99793 -0.0231944 0
M  V30 4795 H 450.348 -4.10629 -1.05639 0
M  V30 4796 C 448.807 -2.83308 -1.82313 0
M  V30 4797 O 449.337 -2.75863 -2.91997 0
M  V30 4798 N 447.543 -2.40529 -1.63077 0
M  V30 4799 H 447.09 -2.46785 -0.738591 0
M  V30 4800 H 447.048 -2.02059 -2.40872 0
M  V30 4801 N 450.82 -0.546701 -1.47814 0
M  V30 4802 C 452.045 -0.021268 -2.07389 0
M  V30 4803 C 452.47 1.25822 -1.39822 0
M  V30 4804 O 451.828 1.75111 -0.46968 0
M  V30 4805 C 451.876 0.168502 -3.60206 0
M  V30 4806 O 450.98 1.23347 -3.93522 0
M  V30 4807 H 450.321 -0.0466108 -0.662362 0
M  V30 4808 H 452.851 -0.759387 -1.89985 0
M  V30 4809 H 452.861 0.385982 -4.0617 0
M  V30 4810 H 451.536 -0.766075 -4.08784 0
M  V30 4811 H 450.113 0.997319 -3.59316 0
M  V30 4812 N 452.299 1.55045 -0.282633 0
M  V30 4813 C 453.262 2.21515 0.588539 0
M  V30 4814 C 454.262 1.19535 1.07554 0
M  V30 4815 O 455.452 1.44391 0.974514 0
M  V30 4816 C 452.584 2.88704 1.8128 0
M  V30 4817 H 453.777 2.99899 0.00806397 0
M  V30 4818 H 451.33 1.56265 -0.0333067 0
M  V30 4819 H 452.065 2.14352 2.43359 0
M  V30 4820 H 451.85 3.63443 1.47144 0
M  V30 4821 H 453.34 3.39465 2.43214 0
M  V30 4822 N 453.777 0.010035 1.57597 0
M  V30 4823 C 455.188 -0.531426 1.78977 0
M  V30 4824 C 455.539 -1.73375 0.918454 0
M  V30 4825 O 454.664 -2.16047 0.123635 0
M  V30 4826 C 455.259 -0.97086 3.24592 0
M  V30 4827 C 453.818 -1.45756 3.47033 0
M  V30 4828 C 452.965 -0.413384 2.74201 0
M  V30 4829 H 455.916 0.236166 1.56933 0
M  V30 4830 H 455.937 -1.83633 3.33255 0
M  V30 4831 H 455.449 -0.0955893 3.87982 0
M  V30 4832 H 453.55 -2.35339 2.88871 0
M  V30 4833 H 453.663 -1.4781 4.55729 0
M  V30 4834 H 452.027 -0.877266 2.39115 0
M  V30 4835 H 452.81 0.453092 3.40297 0
M  V30 4836 N 455.255 -1.55392 -0.262866 0
M  V30 4837 C 456.666 -1.67079 -0.833158 0
M  V30 4838 C 457.017 -0.604539 -1.86654 0
M  V30 4839 O 456.142 0.252138 -2.14926 0
M  V30 4840 C 456.737 -3.02891 -1.51797 0
M  V30 4841 C 455.296 -3.16571 -2.03617 0
M  V30 4842 C 454.443 -2.62909 -0.881701 0
M  V30 4843 H 457.394 -1.58652 -0.0389986 0
M  V30 4844 H 457.415 -2.96445 -2.38538 0
M  V30 4845 H 456.927 -3.80473 -0.765619 0
M  V30 4846 H 455.028 -2.43782 -2.81782 0
M  V30 4847 H 455.141 -4.23271 -2.24452 0
M  V30 4848 H 453.505 -2.20324 -1.27786 0
M  V30 4849 H 454.288 -3.43003 -0.14269 0
M  V30 4850 N 456.733 0.527833 -1.48498 0
M  V30 4851 C 457.643 1.65907 -1.65867 0
M  V30 4852 C 458.659 1.6537 -0.541192 0
M  V30 4853 O 459.835 1.84282 -0.812534 0
M  V30 4854 C 456.9 3.02364 -1.69637 0
M  V30 4855 C 455.961 3.1374 -2.93028 0
M  V30 4856 C 455.194 4.43688 -2.96609 0
M  V30 4857 O 455.417 5.30913 -2.08538 0
M  V30 4858 O 454.351 4.59475 -3.88802 0
M  V30 4859 H 458.177 1.5419 -2.61647 0
M  V30 4860 H 455.762 0.701163 -1.31924 0
M  V30 4861 H 457.644 3.83515 -1.74625 0
M  V30 4862 H 456.319 3.14401 -0.770312 0
M  V30 4863 H 455.226 2.31877 -2.93571 0
M  V30 4864 H 456.559 3.06621 -3.85026 0
M  V30 4865 N 458.211 1.37122 0.776871 0
M  V30 4866 C 459.441 1.35034 1.56363 0
M  V30 4867 C 459.849 -0.0674681 1.8908 0
M  V30 4868 O 459.192 -1.03826 1.51545 0
M  V30 4869 C 459.254 2.11894 2.90415 0
M  V30 4870 C 458.918 3.60897 2.80362 0
M  V30 4871 C 459.915 4.54887 2.51742 0
M  V30 4872 C 457.6 4.03951 2.98545 0
M  V30 4873 C 459.594 5.89909 2.41426 0
M  V30 4874 C 457.281 5.3906 2.87849 0
M  V30 4875 C 458.279 6.31852 2.5933 0
M  V30 4876 O 457.967 7.64479 2.48651 0
M  V30 4877 H 457.699 0.464402 0.49123 0
M  V30 4878 H 460.253 1.80992 0.971127 0
M  V30 4879 H 458.483 1.60618 3.51765 0
M  V30 4880 H 460.172 2.02505 3.51776 0
M  V30 4881 H 460.938 4.22934 2.37385 0
M  V30 4882 H 456.817 3.3209 3.19746 0
M  V30 4883 H 460.361 6.62304 2.19086 0
M  V30 4884 H 456.258 5.70617 3.01773 0
M  V30 4885 H 457.026 7.74742 2.64039 0
M  V30 4886 N 459.689 -1.00246 1.21608 0
M  V30 4887 C 460.966 -1.71336 0.943568 0
M  V30 4888 C 461.346 -2.03972 -0.543943 0
M  V30 4889 O 460.694 -1.71545 -1.50946 0
M  V30 4890 C 460.904 -2.97094 1.83128 0
M  V30 4891 C 462.252 -3.70071 2.08165 0
M  V30 4892 O 463.276 -3.07081 1.80498 0
M  V30 4893 O 462.135 -4.83376 2.54971 0
M  V30 4894 H 459.229 -0.747386 0.354039 0
M  V30 4895 H 461.775 -1.05967 1.32549 0
M  V30 4896 H 460.547 -2.69407 2.83788 0
M  V30 4897 H 460.17 -3.70204 1.45034 0
M  V30 4898 N 461.167 -1.02423 -1.1978 0
M  V30 4899 C 462.416 -0.713265 -1.88667 0
M  V30 4900 C 462.729 0.7609 -1.80193 0
M  V30 4901 O 463.935 1.18473 -2.44288 0
M  V30 4902 C 462.391 -1.22545 -3.38394 0
M  V30 4903 C 461.999 -2.72706 -3.55437 0
M  V30 4904 C 463.743 -0.990257 -4.12788 0
M  V30 4905 C 461.65 -3.17367 -4.99031 0
M  V30 4906 H 460.58 -0.263105 -0.706606 0
M  V30 4907 H 463.231 -1.23792 -1.35454 0
M  V30 4908 H 461.613 -0.628732 -3.90977 0
M  V30 4909 H 462.787 -3.37993 -3.13205 0
M  V30 4910 H 461.102 -2.94453 -2.94425 0
M  V30 4911 H 463.699 -1.29926 -5.18675 0
M  V30 4912 H 464.042 0.0730761 -4.16236 0
M  V30 4913 H 464.575 -1.55074 -3.66329 0
M  V30 4914 H 461.314 -4.23009 -5.00743 0
M  V30 4915 H 460.834 -2.56805 -5.42044 0
M  V30 4916 H 462.513 -3.10441 -5.67658 0
M  V30 4917 N 462.645 1.35699 -0.801477 0
M  V30 4918 C 463.593 2.3177 -0.196317 0
M  V30 4919 C 464.587 1.56388 0.651081 0
M  V30 4920 O 465.793 1.71557 0.544815 0
M  V30 4921 H 462.168 0.750669 -0.0447189 0
M  V30 4922 H 464.139 2.8036 -1.02181 0
M  V30 4923 C 462.888 3.41671 0.644702 0
M  V30 4924 H 462.211 3.998 0.0019921 0
M  V30 4925 H 463.651 4.11184 1.0346 0
M  V30 4926 C 462.11 2.84271 1.80808 0
M  V30 4927 O 462.64 2.77408 2.9053 0
M  V30 4928 N 460.846 2.41391 1.61799 0
M  V30 4929 H 460.393 2.47173 0.725493 0
M  V30 4930 H 460.351 2.03334 2.39797 0
M  V30 4931 N 464.123 0.554532 1.47522 0
M  V30 4932 C 465.033 -0.197865 2.33764 0
M  V30 4933 C 466.049 -0.914576 1.48025 0
M  V30 4934 O 467.225 -0.884067 1.80959 0
M  V30 4935 C 464.29 -1.21628 3.24665 0
M  V30 4936 C 463.351 -0.507283 4.26292 0
M  V30 4937 C 462.584 -1.47718 5.1285 0
M  V30 4938 O 462.807 -2.7118 5.01814 0
M  V30 4939 O 461.741 -1.00313 5.93482 0
M  V30 4940 H 465.567 0.50949 2.99396 0
M  V30 4941 H 463.152 0.315176 1.46038 0
M  V30 4942 H 465.034 -1.80421 3.80823 0
M  V30 4943 H 463.709 -1.9056 2.61665 0
M  V30 4944 H 462.616 0.121778 3.73902 0
M  V30 4945 H 463.949 0.140544 4.91999 0
M  V30 4946 N 465.601 -1.54893 0.290851 0
M  V30 4947 C 466.831 -2.04047 -0.323818 0
M  V30 4948 C 467.239 -1.16809 -1.48837 0
M  V30 4949 O 466.582 -0.184145 -1.82775 0
M  V30 4950 C 466.644 -3.49248 -0.852395 0
M  V30 4951 C 466.308 -4.56623 0.185557 0
M  V30 4952 C 467.305 -5.09985 1.01053 0
M  V30 4953 C 464.99 -5.01252 0.324332 0
M  V30 4954 C 466.984 -6.06507 1.96031 0
M  V30 4955 C 464.671 -5.97596 1.27757 0
M  V30 4956 C 465.669 -6.50107 2.09405 0
M  V30 4957 O 465.357 -7.44565 3.03114 0
M  V30 4958 H 465.089 -0.671735 -0.0758129 0
M  V30 4959 H 467.643 -2.00947 0.425393 0
M  V30 4960 H 465.873 -3.49639 -1.65195 0
M  V30 4961 H 467.562 -3.81654 -1.38185 0
M  V30 4962 H 468.328 -4.76307 0.914129 0
M  V30 4963 H 464.207 -4.60015 -0.301213 0
M  V30 4964 H 467.751 -6.47418 2.598 0
M  V30 4965 H 463.648 -6.30691 1.37473 0
M  V30 4966 H 464.416 -7.62334 2.97976 0
M  V30 4967 N 467.08 -0.0183926 -1.57589 0
M  V30 4968 C 468.027 0.967022 -2.09565 0
M  V30 4969 C 468.997 1.32983 -0.995225 0
M  V30 4970 O 470.182 1.42501 -1.26878 0
M  V30 4971 C 467.322 2.24772 -2.61861 0
M  V30 4972 C 466.435 1.94232 -3.85873 0
M  V30 4973 C 465.57 3.16518 -4.26603 0
M  V30 4974 C 464.609 2.81748 -5.43401 0
M  V30 4975 N 463.746 3.96626 -5.79338 0
M  V30 4976 H 468.586 0.516874 -2.93483 0
M  V30 4977 H 466.123 0.243544 -1.4507 0
M  V30 4978 H 468.081 2.99667 -2.90268 0
M  V30 4979 H 466.711 2.67423 -1.8079 0
M  V30 4980 H 465.763 1.09625 -3.64262 0
M  V30 4981 H 467.075 1.64616 -4.70853 0
M  V30 4982 H 466.229 3.99743 -4.56389 0
M  V30 4983 H 464.968 3.49286 -3.40368 0
M  V30 4984 H 463.973 1.96933 -5.1332 0
M  V30 4985 H 465.198 2.50207 -6.31327 0
M  V30 4986 H 463.144 4.29257 -4.96059 0
M  V30 4987 H 463.061 3.70598 -6.58933 0
M  V30 4988 H 464.329 4.80586 -6.13724 0
M  V30 4989 N 468.558 1.5553 0.254621 0
M  V30 4990 C 469.835 1.6774 1.00611 0
M  V30 4991 C 470.215 0.555993 2.03647 0
M  V30 4992 O 469.563 -0.441583 2.24193 0
M  V30 4993 C 469.773 3.07725 1.6464 0
M  V30 4994 C 471.121 3.66074 2.15116 0
M  V30 4995 O 472.145 3.10476 1.74595 0
M  V30 4996 O 471.004 4.63526 2.89493 0
M  V30 4997 H 468.098 0.681958 0.467828 0
M  V30 4998 H 470.644 1.67863 0.24902 0
M  V30 4999 H 469.416 3.80792 0.900734 0
M  V30 5000 H 469.039 3.1158 2.46989 0
M  V30 5001 N 470.036 -0.519951 1.48776 0
M  V30 5002 C 471.266 -1.29783 1.60748 0
M  V30 5003 C 471.674 -1.87253 0.27072 0
M  V30 5004 O 471.017 -1.67628 -0.751438 0
M  V30 5005 C 471.079 -2.47984 2.60277 0
M  V30 5006 C 470.743 -2.11526 4.051 0
M  V30 5007 C 471.74 -1.66608 4.92481 0
M  V30 5008 C 469.425 -2.21742 4.50706 0
M  V30 5009 C 471.419 -1.32384 6.23501 0
M  V30 5010 C 469.106 -1.87129 5.81744 0
M  V30 5011 C 470.104 -1.42523 6.67964 0
M  V30 5012 O 469.792 -1.0837 7.96562 0
M  V30 5013 H 469.524 -0.400562 0.544542 0
M  V30 5014 H 472.078 -0.632879 1.95407 0
M  V30 5015 H 470.308 -3.17493 2.2076 0
M  V30 5016 H 471.997 -3.10036 2.61978 0
M  V30 5017 H 472.763 -1.58178 4.58481 0
M  V30 5018 H 468.642 -2.55415 3.83776 0
M  V30 5019 H 472.186 -0.974949 6.90754 0
M  V30 5020 H 468.083 -1.95204 6.15277 0
M  V30 5021 H 468.851 -1.21681 8.09405 0
M  V30 5022 N 471.514 -1.37532 -0.769588 0
M  V30 5023 C 472.761 -1.3286 -1.52822 0
M  V30 5024 C 473.089 0.0862597 -1.94309 0
M  V30 5025 O 472.344 1.05995 -1.6451 0
M  V30 5026 C 472.643 -2.21558 -2.8044 0
M  V30 5027 C 472.309 -3.69796 -2.57996 0
M  V30 5028 C 470.971 -4.10194 -2.51583 0
M  V30 5029 C 473.323 -4.63699 -2.37976 0
M  V30 5030 C 470.651 -5.42608 -2.23144 0
M  V30 5031 C 473.003 -5.96353 -2.1106 0
M  V30 5032 C 471.667 -6.35853 -2.03093 0
M  V30 5033 H 470.937 -0.486168 -0.559215 0
M  V30 5034 H 473.584 -1.69757 -0.886277 0
M  V30 5035 H 471.889 -1.77663 -3.49204 0
M  V30 5036 H 473.586 -2.15256 -3.38328 0
M  V30 5037 H 470.176 -3.37759 -2.63851 0
M  V30 5038 H 474.36 -4.33346 -2.41919 0
M  V30 5039 H 469.616 -5.72173 -2.15472 0
M  V30 5040 H 473.79 -6.68667 -1.94568 0
M  V30 5041 H 471.417 -7.38382 -1.8082 0
M  V30 5042 N 472.992 0.995999 -1.22138 0
M  V30 5043 C 473.924 2.08745 -0.946485 0
M  V30 5044 C 474.937 1.62633 0.0737356 0
M  V30 5045 O 476.126 1.77782 -0.159886 0
M  V30 5046 C 473.226 3.36516 -0.401305 0
M  V30 5047 C 472.399 4.11672 -1.47801 0
M  V30 5048 C 471.458 5.17728 -0.940461 0
M  V30 5049 O 470.484 5.45482 -1.62596 0
M  V30 5050 N 471.686 5.80005 0.239723 0
M  V30 5051 H 474.451 2.32908 -1.88611 0
M  V30 5052 H 472.012 1.16152 -1.12785 0
M  V30 5053 H 474.004 4.04691 -0.0270837 0
M  V30 5054 H 472.574 3.0944 0.443354 0
M  V30 5055 H 471.794 3.38171 -2.02568 0
M  V30 5056 H 473.082 4.58657 -2.20253 0
M  V30 5057 H 472.48 5.5982 0.813518 0
M  V30 5058 H 471.037 6.4943 0.555361 0
M  V30 5059 N 474.47 1.03057 1.19235 0
M  V30 5060 C 475.716 0.738841 1.89506 0
M  V30 5061 C 476.071 -0.724807 1.78225 0
M  V30 5062 O 475.364 -1.52118 1.16494 0
M  V30 5063 C 475.558 1.1268 3.39172 0
M  V30 5064 C 475.387 2.62662 3.65019 0
M  V30 5065 C 474.157 3.29658 3.82954 0
M  V30 5066 C 476.355 3.60873 3.66436 0
M  V30 5067 N 474.337 4.68726 3.96446 0
M  V30 5068 C 475.708 4.85566 3.8552 0
M  V30 5069 C 477.763 3.54647 3.49471 0
M  V30 5070 C 476.466 6.04783 3.89397 0
M  V30 5071 C 478.492 4.73281 3.54625 0
M  V30 5072 C 477.854 5.96789 3.74196 0
M  V30 5073 H 473.953 0.322256 0.712513 0
M  V30 5074 H 476.537 1.31822 1.43287 0
M  V30 5075 H 474.708 0.575612 3.84111 0
M  V30 5076 H 476.44 0.787145 3.96971 0
M  V30 5077 H 473.195 2.8007 3.81913 0
M  V30 5078 H 473.619 5.40971 4.07037 0
M  V30 5079 H 478.261 2.60143 3.33295 0
M  V30 5080 H 475.979 6.99654 4.04364 0
M  V30 5081 H 479.565 4.70094 3.42787 0
M  V30 5082 H 478.445 6.87051 3.78061 0
M  V30 5083 N 475.948 -1.35272 0.808662 0
M  V30 5084 C 476.895 -2.29764 0.218482 0
M  V30 5085 C 477.865 -1.52911 -0.648652 0
M  V30 5086 O 479.05 -1.81341 -0.593297 0
M  V30 5087 C 476.19 -3.39388 -0.625282 0
M  V30 5088 C 475.303 -4.31202 0.262516 0
M  V30 5089 C 474.438 -5.27919 -0.589451 0
M  V30 5090 C 473.477 -6.11371 0.298617 0
M  V30 5091 N 472.614 -7.0022 -0.513443 0
M  V30 5092 H 477.454 -2.79645 1.02968 0
M  V30 5093 H 474.991 -1.37629 0.519303 0
M  V30 5094 H 476.949 -4.01615 -1.12966 0
M  V30 5095 H 475.579 -2.90777 -1.40173 0
M  V30 5096 H 474.631 -3.69962 0.885013 0
M  V30 5097 H 475.943 -4.89748 0.945971 0
M  V30 5098 H 475.097 -5.95529 -1.15888 0
M  V30 5099 H 473.836 -4.69875 -1.30647 0
M  V30 5100 H 472.841 -5.42707 0.880301 0
M  V30 5101 H 474.066 -6.71494 1.01352 0
M  V30 5102 H 472.012 -6.44662 -1.21439 0
M  V30 5103 H 471.929 -7.55917 0.111922 0
M  V30 5104 H 473.197 -7.72175 -1.06608 0
M  V30 5105 N 477.426 -0.562348 -1.47226 0
M  V30 5106 C 478.656 -0.0451619 -2.06551 0
M  V30 5107 C 479.064 1.25626 -1.41473 0
M  V30 5108 O 478.407 1.76563 -0.507061 0
M  V30 5109 C 478.469 0.216068 -3.5885 0
M  V30 5110 C 478.133 -0.996691 -4.45999 0
M  V30 5111 C 479.13 -1.90358 -4.83797 0
M  V30 5112 C 476.815 -1.21281 -4.87438 0
M  V30 5113 C 478.809 -3.01023 -5.6184 0
M  V30 5114 C 476.496 -2.32255 -5.65244 0
M  V30 5115 C 477.494 -3.21956 -6.02356 0
M  V30 5116 O 477.182 -4.31005 -6.78594 0
M  V30 5117 H 476.914 -0.0451646 -0.67449 0
M  V30 5118 H 479.468 -0.776842 -1.90143 0
M  V30 5119 H 477.698 1.00212 -3.7349 0
M  V30 5120 H 479.387 0.679264 -4.00176 0
M  V30 5121 H 480.153 -1.74868 -4.52378 0
M  V30 5122 H 476.032 -0.523767 -4.58015 0
M  V30 5123 H 479.576 -3.71064 -5.90726 0
M  V30 5124 H 475.473 -2.47715 -5.96077 0
M  V30 5125 H 476.241 -4.29118 -6.96994 0
M  V30 5126 N 478.904 1.54736 -0.299062 0
M  V30 5127 C 480.152 1.99706 0.31017 0
M  V30 5128 C 480.473 1.18896 1.54559 0
M  V30 5129 O 479.743 0.284445 1.93824 0
M  V30 5130 H 478.323 0.737686 0.117596 0
M  V30 5131 H 480.985 1.9054 -0.409943 0
M  V30 5132 H 480.081 3.06596 0.58355 0
M  V30 5133 N 480.382 0.0267497 1.57577 0
M  V30 5134 C 481.312 -0.954308 2.13108 0
M  V30 5135 C 482.293 -1.34088 1.04663 0
M  V30 5136 O 483.478 -1.41992 1.32484 0
M  V30 5137 C 480.608 -2.23744 2.65624 0
M  V30 5138 C 479.562 -1.99168 3.78835 0
M  V30 5139 C 478.888 -3.33726 4.17769 0
M  V30 5140 C 480.188 -1.33277 5.0501 0
M  V30 5141 H 481.882 -0.491848 2.95332 0
M  V30 5142 H 479.428 -0.23514 1.42067 0
M  V30 5143 H 481.381 -2.92754 3.03106 0
M  V30 5144 H 480.105 -2.72151 1.80558 0
M  V30 5145 H 478.764 -1.32577 3.41788 0
M  V30 5146 H 478.412 -3.79888 3.29688 0
M  V30 5147 H 478.112 -3.18089 4.94058 0
M  V30 5148 H 479.636 -4.04008 4.57832 0
M  V30 5149 H 481.05 -1.92283 5.40093 0
M  V30 5150 H 479.447 -1.28045 5.8628 0
M  V30 5151 H 480.517 -0.305411 4.83937 0
M  V30 5152 N 481.861 -1.55662 -0.24637 0
M  V30 5153 C 483.138 -1.68272 -0.997198 0
M  V30 5154 C 483.518 -0.566785 -2.03349 0
M  V30 5155 O 482.866 0.429688 -2.24424 0
M  V30 5156 C 483.076 -3.08594 -1.63006 0
M  V30 5157 C 484.424 -3.6721 -2.13171 0
M  V30 5158 O 485.448 -3.11397 -1.72946 0
M  V30 5159 O 484.307 -4.65054 -2.87031 0
M  V30 5160 H 481.401 -0.684429 -0.464205 0
M  V30 5161 H 483.947 -1.67993 -0.240114 0
M  V30 5162 H 482.719 -3.81264 -0.880527 0
M  V30 5163 H 482.342 -3.12886 -2.45333 0
M  V30 5164 N 483.339 0.512053 -1.4905 0
M  V30 5165 C 484.286 1.6148 -1.64902 0
M  V30 5166 C 485.256 1.58687 -0.490673 0
M  V30 5167 O 486.441 1.76842 -0.71636 0
M  V30 5168 C 483.581 2.99676 -1.71139 0
M  V30 5169 C 482.694 3.12568 -2.98203 0
M  V30 5170 C 481.829 4.4143 -2.95487 0
M  V30 5171 C 480.868 4.47916 -4.17179 0
M  V30 5172 N 480.005 5.68191 -4.12437 0
M  V30 5173 H 484.845 1.47271 -2.59066 0
M  V30 5174 H 482.382 0.716713 -1.28459 0
M  V30 5175 H 484.34 3.79761 -1.72736 0
M  V30 5176 H 482.97 3.12614 -0.804508 0
M  V30 5177 H 482.022 2.25618 -3.06269 0
M  V30 5178 H 483.334 3.1322 -3.88194 0
M  V30 5179 H 482.488 5.29825 -2.95585 0
M  V30 5180 H 481.227 4.43326 -2.03256 0
M  V30 5181 H 480.232 3.57925 -4.17337 0
M  V30 5182 H 481.457 4.47744 -5.1059 0
M  V30 5183 H 479.403 5.7095 -3.23036 0
M  V30 5184 H 479.32 5.70413 -4.96151 0
M  V30 5185 H 480.588 6.58823 -4.16621 0
M  V30 5186 N 484.817 1.37938 0.762283 0
M  V30 5187 C 485.765 1.34569 1.89721 0
M  V30 5188 C 486.759 0.232929 1.67791 0
M  V30 5189 O 487.965 0.401485 1.75465 0
M  V30 5190 H 484.34 0.419594 0.624055 0
M  V30 5191 H 486.311 2.30357 1.8968 0
M  V30 5192 C 485.06 1.17898 3.27101 0
M  V30 5193 H 484.383 2.02781 3.44558 0
M  V30 5194 H 485.823 1.19593 4.06784 0
M  V30 5195 C 484.282 -0.114728 3.36705 0
M  V30 5196 O 484.812 -1.0949 3.8649 0
M  V30 5197 N 483.018 -0.16863 2.9011 0
M  V30 5198 H 482.565 0.62967 2.49786 0
M  V30 5199 H 482.523 -1.03383 2.96916 0
M  V30 5200 N 486.295 -0.989507 1.22664 0
M  V30 5201 C 487.258 -2.06183 1.00106 0
M  V30 5202 C 488.258 -1.60765 -0.0337726 0
M  V30 5203 O 489.448 -1.72989 0.205072 0
M  V30 5204 C 486.58 -3.37021 0.51279 0
M  V30 5205 H 487.773 -2.27629 1.95256 0
M  V30 5206 H 485.326 -1.16158 1.0458 0
M  V30 5207 H 486.061 -3.21261 -0.442917 0
M  V30 5208 H 485.846 -3.71323 1.25942 0
M  V30 5209 H 487.336 -4.1591 0.375315 0
M  V30 5210 N 487.773 -1.03688 -1.18687 0
M  V30 5211 C 489.05 -0.652397 -1.84399 0
M  V30 5212 C 489.43 0.868386 -1.92412 0
M  V30 5213 O 488.778 1.76832 -1.44716 0
M  V30 5214 C 488.988 -1.3238 -3.22919 0
M  V30 5215 C 490.336 -1.45216 -3.98996 0
M  V30 5216 O 491.36 -1.2816 -3.32345 0
M  V30 5217 O 490.219 -1.72975 -5.18403 0
M  V30 5218 H 487.313 -0.227793 -0.795009 0
M  V30 5219 H 489.859 -1.13553 -1.2611 0
M  V30 5220 H 488.631 -2.36202 -3.11968 0
M  V30 5221 H 488.254 -0.829039 -3.88861 0
M  V30 5222 N 489.251 1.34841 -0.815825 0
M  V30 5223 C 490.499 1.98107 -0.399744 0
M  V30 5224 C 490.82 1.65019 1.03894 0
M  V30 5225 O 490.09 0.937311 1.72021 0
M  V30 5226 H 488.67 0.732827 -0.144823 0
M  V30 5227 H 491.332 1.64599 -1.0437 0
M  V30 5228 H 490.428 3.07856 -0.512965 0
M  V30 5229 N 490.729 0.570148 1.46925 0
M  V30 5230 C 491.954 0.0542592 2.07329 0
M  V30 5231 C 492.379 -1.23582 1.41806 0
M  V30 5232 O 491.737 -1.74341 0.497479 0
M  V30 5233 C 491.785 -0.111175 3.60429 0
M  V30 5234 O 490.889 -1.17071 3.95434 0
M  V30 5235 H 490.23 0.0571425 0.661537 0
M  V30 5236 H 492.76 0.789516 1.88753 0
M  V30 5237 H 492.77 -0.321315 4.06733 0
M  V30 5238 H 491.445 0.831012 4.07513 0
M  V30 5239 H 490.022 -0.940029 3.60857 0
M  V30 5240 N 492.207 -1.54576 0.307264 0
M  V30 5241 C 493.437 -2.04378 -0.302158 0
M  V30 5242 C 493.845 -1.18381 -1.47589 0
M  V30 5243 O 493.188 -0.20352 -1.82569 0
M  V30 5244 C 493.25 -3.50133 -0.815305 0
M  V30 5245 C 492.914 -4.56401 0.233977 0
M  V30 5246 C 493.911 -5.08884 1.06456 0
M  V30 5247 C 491.596 -5.0088 0.377478 0
M  V30 5248 C 493.59 -6.04394 2.02452 0
M  V30 5249 C 491.277 -5.96208 1.34088 0
M  V30 5250 C 492.275 -6.47849 2.16288 0
M  V30 5251 O 491.963 -7.41308 3.10994 0
M  V30 5252 H 491.695 -0.672502 -0.0686839 0
M  V30 5253 H 494.249 -2.00484 0.446682 0
M  V30 5254 H 492.479 -3.51371 -1.61478 0
M  V30 5255 H 494.168 -3.83098 -1.34129 0
M  V30 5256 H 494.934 -4.75311 0.964596 0
M  V30 5257 H 490.813 -4.60309 -0.252405 0
M  V30 5258 H 494.357 -6.44626 2.66652 0
M  V30 5259 H 490.254 -6.29198 1.44154 0
M  V30 5260 H 491.022 -7.5913 3.06045 0
M  V30 5261 N 493.685 -0.035106 -1.57561 0
M  V30 5262 C 494.913 0.652258 -1.9635 0
M  V30 5263 C 495.328 1.65317 -0.911897 0
M  V30 5264 O 494.685 1.82194 0.105657 0
M  V30 5265 C 494.736 1.35337 -3.35211 0
M  V30 5266 O 494.457 0.392548 -4.36338 0
M  V30 5267 C 495.958 2.13199 -3.88666 0
M  V30 5268 H 493.178 0.179444 -0.646561 0
M  V30 5269 H 495.722 -0.0966459 -2.04271 0
M  V30 5270 H 493.877 2.05362 -3.28489 0
M  V30 5271 H 494.291 0.891097 -5.16875 0
M  V30 5272 H 495.765 2.577 -4.88154 0
M  V30 5273 H 496.242 2.97353 -3.23231 0
M  V30 5274 H 496.848 1.48118 -3.98674 0
M  V30 5275 N 495.163 1.55791 0.238111 0
M  V30 5276 C 496.409 1.78297 0.966337 0
M  V30 5277 C 496.742 0.601903 1.84637 0
M  V30 5278 O 496.017 -0.399499 1.90353 0
M  V30 5279 C 496.3 3.10758 1.81939 0
M  V30 5280 C 496.153 4.39283 0.966958 0
M  V30 5281 C 497.472 3.39519 2.80027 0
M  V30 5282 H 494.591 0.648654 0.349882 0
M  V30 5283 H 497.233 1.88525 0.236253 0
M  V30 5284 H 495.383 3.02168 2.44185 0
M  V30 5285 H 497.055 4.59873 0.362514 0
M  V30 5286 H 495.298 4.32948 0.271669 0
M  V30 5287 H 495.969 5.28368 1.59784 0
M  V30 5288 H 498.445 3.48128 2.27917 0
M  V30 5289 H 497.321 4.33402 3.36829 0
M  V30 5290 H 497.582 2.60864 3.56934 0
M  V30 5291 N 496.642 -0.504142 1.49319 0
M  V30 5292 C 497.59 -1.62689 1.66238 0
M  V30 5293 C 498.584 -1.6095 0.528349 0
M  V30 5294 O 499.79 -1.65496 0.707887 0
M  V30 5295 H 496.165 -0.539247 0.524134 0
M  V30 5296 H 498.136 -1.45571 2.60484 0
M  V30 5297 C 496.885 -3.00841 1.74328 0
M  V30 5298 H 496.208 -3.02884 2.60963 0
M  V30 5299 H 497.648 -3.78945 1.90202 0
M  V30 5300 C 496.107 -3.33355 0.487416 0
M  V30 5301 O 496.637 -3.99819 -0.388294 0
M  V30 5302 N 494.843 -2.88469 0.351306 0
M  V30 5303 H 494.39 -2.34557 1.06492 0
M  V30 5304 H 494.348 -3.10591 -0.487899 0
M  V30 5305 N 498.12 -1.38341 -0.754957 0
M  V30 5306 C 499.03 -1.3769 -1.89944 0
M  V30 5307 C 500.046 -0.274194 -1.71826 0
M  V30 5308 O 501.222 -0.512391 -1.94773 0
M  V30 5309 C 498.287 -1.19938 -3.25293 0
M  V30 5310 C 497.348 -2.40001 -3.55946 0
M  V30 5311 C 496.581 -2.23087 -4.84838 0
M  V30 5312 O 496.804 -1.22386 -5.57116 0
M  V30 5313 O 495.738 -3.11646 -5.14937 0
M  V30 5314 H 499.564 -2.3412 -1.93446 0
M  V30 5315 H 497.149 -1.19246 -0.900044 0
M  V30 5316 H 499.031 -1.12093 -4.06218 0
M  V30 5317 H 497.706 -0.265919 -3.22606 0
M  V30 5318 H 496.613 -2.53421 -2.75188 0
M  V30 5319 H 497.946 -3.31973 -3.63394 0
M  V30 5320 N 499.598 0.982988 -1.23187 0
M  V30 5321 C 500.546 2.09616 -1.00817 0
M  V30 5322 C 501.54 1.6932 0.0519995 0
M  V30 5323 O 502.746 1.79715 -0.101284 0
M  V30 5324 H 499.121 0.685628 -0.308899 0
M  V30 5325 H 501.092 2.25652 -1.95253 0
M  V30 5326 C 499.841 3.42249 -0.613243 0
M  V30 5327 H 499.164 3.73705 -1.42073 0
M  V30 5328 H 500.604 4.21086 -0.496208 0
M  V30 5329 C 499.063 3.30002 0.678233 0
M  V30 5330 O 499.593 3.6263 1.72807 0
M  V30 5331 N 497.799 2.83164 0.653165 0
M  V30 5332 H 497.346 2.56811 -0.201492 0
M  V30 5333 H 497.304 2.75352 1.51752 0
M  V30 5334 N 501.076 1.04316 1.18135 0
M  V30 5335 C 502.023 0.636398 2.21853 0
M  V30 5336 C 502.993 -0.357039 1.62217 0
M  V30 5337 O 504.178 -0.250453 1.89149 0
M  V30 5338 C 501.318 0.00812779 3.45099 0
M  V30 5339 C 500.431 1.04933 4.19062 0
M  V30 5340 C 499.566 0.389313 5.29771 0
M  V30 5341 C 498.605 1.41544 5.9551 0
M  V30 5342 N 497.742 0.78021 6.97751 0
M  V30 5343 H 502.582 1.52536 2.56002 0
M  V30 5344 H 500.119 0.76304 1.25762 0
M  V30 5345 H 502.077 -0.373497 4.15525 0
M  V30 5346 H 500.707 -0.844336 3.11562 0
M  V30 5347 H 499.759 1.54888 3.47439 0
M  V30 5348 H 501.071 1.82862 4.64072 0
M  V30 5349 H 500.225 -0.0463805 6.06682 0
M  V30 5350 H 498.964 -0.422038 4.8587 0
M  V30 5351 H 497.969 1.86124 5.17337 0
M  V30 5352 H 499.194 2.22854 6.41493 0
M  V30 5353 H 497.14 -0.0107899 6.55999 0
M  V30 5354 H 497.057 1.49716 7.41027 0
M  V30 5355 H 498.325 0.368996 7.78626 0
M  V30 5356 N 502.554 -1.34406 0.822964 0
M  V30 5357 C 503.801 -1.98284 0.411057 0
M  V30 5358 C 504.129 -1.65245 -1.02588 0
M  V30 5359 O 503.384 -0.91619 -1.72929 0
M  V30 5360 C 503.683 -3.52981 0.560268 0
M  V30 5361 C 503.349 -4.05931 1.96293 0
M  V30 5362 C 502.011 -4.20103 2.34664 0
M  V30 5363 C 504.363 -4.34412 2.87985 0
M  V30 5364 C 501.691 -4.60082 3.64062 0
M  V30 5365 C 504.043 -4.75838 4.16847 0
M  V30 5366 C 502.707 -4.88215 4.55195 0
M  V30 5367 H 501.977 -0.725573 0.150416 0
M  V30 5368 H 504.624 -1.60349 1.04692 0
M  V30 5369 H 502.929 -3.91477 -0.158982 0
M  V30 5370 H 504.626 -4.00385 0.222087 0
M  V30 5371 H 501.216 -3.95363 1.65487 0
M  V30 5372 H 505.4 -4.23001 2.59584 0
M  V30 5373 H 500.656 -4.67856 3.93599 0
M  V30 5374 H 504.83 -4.96834 4.87984 0
M  V30 5375 H 502.457 -5.18952 5.55512 0
M  V30 5376 N 504.032 -0.577932 -1.46621 0
M  V30 5377 C 504.98 0.170882 -2.31971 0
M  V30 5378 C 505.974 0.889086 -1.44193 0
M  V30 5379 O 507.18 0.808017 -1.60845 0
M  V30 5380 H 503.555 0.0739763 -0.748353 0
M  V30 5381 H 505.526 -0.567856 -2.92947 0
M  V30 5382 C 504.275 1.17438 -3.27267 0
M  V30 5383 H 503.598 0.63116 -3.94787 0
M  V30 5384 H 505.038 1.66882 -3.89778 0
M  V30 5385 C 503.497 2.23292 -2.52274 0
M  V30 5386 O 504.027 3.30567 -2.28229 0
M  V30 5387 N 502.233 1.97772 -2.12919 0
M  V30 5388 H 501.78 1.10545 -2.32675 0
M  V30 5389 H 501.738 2.68809 -1.63062 0
M  V30 5390 N 505.51 1.54411 -0.315457 0
M  V30 5391 C 506.42 2.27737 0.56329 0
M  V30 5392 C 507.436 1.31787 1.13614 0
M  V30 5393 O 508.612 1.64791 1.15784 0
M  V30 5394 C 505.677 3.01478 1.71207 0
M  V30 5395 C 504.738 4.12997 1.17185 0
M  V30 5396 C 503.971 4.83212 2.26588 0
M  V30 5397 O 504.194 4.52884 3.46775 0
M  V30 5398 O 503.128 5.70299 1.92463 0
M  V30 5399 H 506.954 3.03683 -0.0319614 0
M  V30 5400 H 504.539 1.49178 -0.0814188 0
M  V30 5401 H 506.421 3.47683 2.38106 0
M  V30 5402 H 505.096 2.28414 2.29366 0
M  V30 5403 H 504.003 3.71159 0.468174 0
M  V30 5404 H 505.336 4.8808 0.635501 0
M  V30 5405 N 506.988 0.0434614 1.5754 0
M  V30 5406 C 508.237 -0.631454 1.91561 0
M  V30 5407 C 508.55 -1.72457 0.92292 0
M  V30 5408 O 509.756 -2.45712 1.15489 0
M  V30 5409 C 508.212 -1.17447 3.40197 0
M  V30 5410 C 507.82 -0.113867 4.47855 0
M  V30 5411 C 509.564 -1.82507 3.83264 0
M  V30 5412 C 507.471 -0.669326 5.876 0
M  V30 5413 H 506.401 -0.239629 0.714908 0
M  V30 5414 H 509.052 0.111097 1.83163 0
M  V30 5415 H 507.434 -1.96909 3.43574 0
M  V30 5416 H 508.608 0.659348 4.56058 0
M  V30 5417 H 506.923 0.438821 4.14081 0
M  V30 5418 H 509.52 -2.25047 4.85034 0
M  V30 5419 H 509.863 -2.67365 3.19095 0
M  V30 5420 H 510.396 -1.09712 3.82372 0
M  V30 5421 H 507.135 0.141449 6.55347 0
M  V30 5422 H 506.655 -1.4107 5.82974 0
M  V30 5423 H 508.334 -1.15463 6.36614 0
M  V30 5424 N 508.466 -1.55915 -0.229846 0
M  V30 5425 C 509.696 -1.82352 -0.971152 0
M  V30 5426 C 510.104 -0.619231 -1.7878 0
M  V30 5427 O 509.447 0.421597 -1.78797 0
M  V30 5428 C 509.509 -3.02399 -1.9441 0
M  V30 5429 C 509.173 -4.37739 -1.31277 0
M  V30 5430 C 510.17 -5.15074 -0.706757 0
M  V30 5431 C 507.855 -4.84454 -1.32702 0
M  V30 5432 C 509.849 -6.37281 -0.123413 0
M  V30 5433 C 507.536 -6.06605 -0.739831 0
M  V30 5434 C 508.534 -6.82858 -0.139071 0
M  V30 5435 O 508.222 -8.027 0.439007 0
M  V30 5436 H 507.954 -0.61035 -0.290601 0
M  V30 5437 H 510.508 -2.03839 -0.252746 0
M  V30 5438 H 508.738 -2.76709 -2.70128 0
M  V30 5439 H 510.427 -3.15779 -2.55026 0
M  V30 5440 H 511.193 -4.80093 -0.688131 0
M  V30 5441 H 507.072 -4.25081 -1.78402 0
M  V30 5442 H 510.616 -6.96741 0.346124 0
M  V30 5443 H 506.513 -6.4106 -0.755841 0
M  V30 5444 H 507.281 -8.17824 0.332521 0
M  V30 5445 N 509.944 0.496216 -1.49584 0
M  V30 5446 C 510.891 1.59722 -1.66606 0
M  V30 5447 C 511.861 1.58158 -0.507477 0
M  V30 5448 O 513.046 1.76072 -0.735076 0
M  V30 5449 C 510.186 2.97844 -1.74308 0
M  V30 5450 C 509.299 3.09388 -3.01502 0
M  V30 5451 C 508.434 4.38271 -3.00153 0
M  V30 5452 C 507.473 4.43466 -4.21906 0
M  V30 5453 N 506.61 5.63784 -4.1844 0
M  V30 5454 H 511.45 1.44515 -2.60613 0
M  V30 5455 H 508.987 0.703048 -1.29212 0
M  V30 5456 H 510.945 3.77907 -1.76754 0
M  V30 5457 H 509.575 3.11743 -0.837619 0
M  V30 5458 H 508.627 2.22357 -3.08645 0
M  V30 5459 H 509.939 3.09085 -3.91494 0
M  V30 5460 H 509.093 5.2666 -3.01188 0
M  V30 5461 H 507.832 4.41146 -2.07947 0
M  V30 5462 H 506.837 3.53478 -4.21109 0
M  V30 5463 H 508.062 4.42303 -5.1531 0
M  V30 5464 H 506.008 5.67491 -3.29074 0
M  V30 5465 H 505.925 5.65118 -5.02173 0
M  V30 5466 H 507.193 6.54367 -4.23585 0
M  V30 5467 N 511.423 1.38739 0.74761 0
M  V30 5468 C 512.37 1.36449 1.86146 0
M  V30 5469 C 513.34 0.226098 1.64554 0
M  V30 5470 O 514.525 0.41926 1.86137 0
M  V30 5471 C 511.665 1.2013 3.23516 0
M  V30 5472 C 510.778 2.43407 3.56899 0
M  V30 5473 C 509.913 2.19773 4.83605 0
M  V30 5474 C 508.952 3.3879 5.09792 0
M  V30 5475 N 508.089 3.14553 6.27695 0
M  V30 5476 H 512.929 2.3167 1.87438 0
M  V30 5477 H 510.466 1.15094 0.916063 0
M  V30 5478 H 512.424 1.08683 4.02795 0
M  V30 5479 H 511.054 0.285453 3.21535 0
M  V30 5480 H 510.106 2.65504 2.72418 0
M  V30 5481 H 511.418 3.32094 3.72176 0
M  V30 5482 H 510.572 2.05496 5.70838 0
M  V30 5483 H 509.311 1.28461 4.70478 0
M  V30 5484 H 508.316 3.53579 4.21025 0
M  V30 5485 H 509.541 4.30986 5.24812 0
M  V30 5486 H 507.487 2.25893 6.1588 0
M  V30 5487 H 507.404 3.96791 6.435 0
M  V30 5488 H 508.672 3.03943 7.17801 0
M  V30 5489 N 512.901 -0.976442 1.23707 0
M  V30 5490 C 513.831 -2.08749 1.04624 0
M  V30 5491 C 514.812 -1.70057 -0.0380956 0
M  V30 5492 O 515.997 -1.93782 0.127308 0
M  V30 5493 C 513.127 -3.41335 0.640902 0
M  V30 5494 C 512.081 -3.93947 1.67302 0
M  V30 5495 C 511.407 -5.22774 1.12301 0
M  V30 5496 C 512.707 -4.22769 3.06697 0
M  V30 5497 H 514.401 -2.24972 1.97555 0
M  V30 5498 H 511.947 -1.08108 0.951247 0
M  V30 5499 H 513.9 -4.18489 0.494434 0
M  V30 5500 H 512.624 -3.24988 -0.324099 0
M  V30 5501 H 511.283 -3.18941 1.80755 0
M  V30 5502 H 510.931 -5.0278 0.148877 0
M  V30 5503 H 510.631 -5.58942 1.81267 0
M  V30 5504 H 512.155 -6.02546 0.988479 0
M  V30 5505 H 513.569 -4.90659 2.96524 0
M  V30 5506 H 511.966 -4.70147 3.72937 0
M  V30 5507 H 513.036 -3.29885 3.55392 0
M  V30 5508 N 514.379 -1.04941 -1.1758 0
M  V30 5509 C 515.609 -0.777166 -1.91425 0
M  V30 5510 C 516.017 0.670647 -1.76915 0
M  V30 5511 O 515.36 1.46965 -1.10213 0
M  V30 5512 C 515.422 -1.07495 -3.43052 0
M  V30 5513 C 515.086 -2.51844 -3.81345 0
M  V30 5514 C 516.083 -3.50047 -3.844 0
M  V30 5515 C 513.768 -2.86787 -4.12382 0
M  V30 5516 C 515.762 -4.81239 -4.17957 0
M  V30 5517 C 513.449 -4.18182 -4.45608 0
M  V30 5518 C 514.447 -5.15219 -4.48373 0
M  V30 5519 O 514.135 -6.44258 -4.80819 0
M  V30 5520 H 513.867 -0.282209 -0.614275 0
M  V30 5521 H 516.421 -1.40258 -1.50056 0
M  V30 5522 H 514.651 -0.392437 -3.84704 0
M  V30 5523 H 516.34 -0.78912 -3.98155 0
M  V30 5524 H 517.106 -3.24391 -3.60548 0
M  V30 5525 H 512.985 -2.11922 -4.09402 0
M  V30 5526 H 516.529 -5.56974 -4.2003 0
M  V30 5527 H 512.426 -4.43602 -4.68922 0
M  V30 5528 H 513.194 -6.49041 -4.98686 0
M  V30 5529 N 515.857 1.33968 -0.830081 0
M  V30 5530 C 517.082 2.02813 -0.433796 0
M  V30 5531 C 517.507 1.62076 0.954614 0
M  V30 5532 O 516.865 0.808955 1.62252 0
M  V30 5533 C 516.913 3.56348 -0.552115 0
M  V30 5534 O 516.017 4.10202 0.425191 0
M  V30 5535 H 515.358 0.639817 -0.177567 0
M  V30 5536 H 517.888 1.7106 -1.12248 0
M  V30 5537 H 517.898 4.05722 -0.430513 0
M  V30 5538 H 516.573 3.85344 -1.56471 0
M  V30 5539 H 515.15 3.71979 0.261878 0
M  V30 5540 N 517.335 0.585699 1.46312 0
M  V30 5541 C 518.582 0.0724211 2.0237 0
M  V30 5542 C 518.91 -1.28868 1.45683 0
M  V30 5543 O 518.165 -1.85853 0.612945 0
M  V30 5544 C 518.464 -0.0401312 3.57377 0
M  V30 5545 C 518.13 1.25376 4.33119 0
M  V30 5546 C 516.792 1.60824 4.5353 0
M  V30 5547 C 519.144 2.10987 4.76586 0
M  V30 5548 C 516.472 2.81676 5.14661 0
M  V30 5549 C 518.824 3.31068 5.39052 0
M  V30 5550 C 517.488 3.66794 5.5769 0
M  V30 5551 H 516.758 0.0265007 0.740526 0
M  V30 5552 H 519.405 0.762935 1.75646 0
M  V30 5553 H 517.71 -0.813791 3.83255 0
M  V30 5554 H 519.407 -0.453078 3.98432 0
M  V30 5555 H 515.997 0.967808 4.1753 0
M  V30 5556 H 520.181 1.84904 4.60569 0
M  V30 5557 H 515.437 3.0949 5.27282 0
M  V30 5558 H 519.611 3.97672 5.71691 0
M  V30 5559 H 517.238 4.60529 6.04828 0
M  V30 5560 N 518.813 -1.54241 0.323641 0
M  V30 5561 C 520.041 -2.04985 -0.280871 0
M  V30 5562 C 520.456 -1.19978 -1.45777 0
M  V30 5563 O 519.813 -0.230471 -1.81039 0
M  V30 5564 C 519.864 -3.54353 -0.715258 0
M  V30 5565 O 519.585 -4.36132 0.414817 0
M  V30 5566 C 521.086 -4.21189 -1.38257 0
M  V30 5567 H 518.306 -0.66851 -0.0577502 0
M  V30 5568 H 520.85 -1.99029 0.469852 0
M  V30 5569 H 519.005 -3.60596 -1.41596 0
M  V30 5570 H 519.419 -5.2445 0.0725227 0
M  V30 5571 H 520.893 -5.27154 -1.63745 0
M  V30 5572 H 521.37 -3.72307 -2.32989 0
M  V30 5573 H 521.976 -4.19085 -0.724447 0
M  V30 5574 N 520.291 -0.0518155 -1.57515 0
M  V30 5575 C 521.201 0.937539 -2.15052 0
M  V30 5576 C 522.217 1.34121 -1.10849 0
M  V30 5577 O 523.393 1.418 -1.4302 0
M  V30 5578 C 520.458 2.19379 -2.68466 0
M  V30 5579 C 519.519 1.84841 -3.87469 0
M  V30 5580 C 518.752 3.04477 -4.38326 0
M  V30 5581 O 518.975 4.17868 -3.88256 0
M  V30 5582 O 517.909 2.85453 -5.29906 0
M  V30 5583 H 521.735 0.478201 -2.99912 0
M  V30 5584 H 519.32 0.17012 -1.48428 0
M  V30 5585 H 521.202 2.93084 -3.02787 0
M  V30 5586 H 519.877 2.64449 -1.86677 0
M  V30 5587 H 518.784 1.08449 -3.58036 0
M  V30 5588 H 520.117 1.44569 -4.7049 0
M  V30 5589 N 521.769 1.56035 0.221574 0
M  V30 5590 C 522.994 1.83476 0.967026 0
M  V30 5591 C 523.419 0.632139 1.7716 0
M  V30 5592 O 522.777 -0.419082 1.7639 0
M  V30 5593 C 522.825 3.08907 1.86034 0
M  V30 5594 O 521.929 2.876 2.95567 0
M  V30 5595 H 521.27 0.604913 0.273817 0
M  V30 5596 H 523.8 2.03247 0.234893 0
M  V30 5597 H 523.81 3.3901 2.27016 0
M  V30 5598 H 522.485 3.96068 1.26898 0
M  V30 5599 H 521.062 2.6873 2.58532 0
M  V30 5600 N 523.247 -0.488276 1.49845 0
M  V30 5601 C 524.524 -1.24959 1.50481 0
M  V30 5602 C 524.904 -2.09735 0.239698 0
M  V30 5603 O 524.252 -2.14865 -0.777524 0
M  V30 5604 C 524.462 -2.0954 2.79095 0
M  V30 5605 C 525.81 -2.68305 3.29086 0
M  V30 5606 O 526.834 -2.19797 2.80299 0
M  V30 5607 O 525.693 -3.56643 4.14087 0
M  V30 5608 H 522.787 -0.566133 0.602845 0
M  V30 5609 H 525.333 -0.501504 1.6212 0
M  V30 5610 H 524.105 -1.46958 3.62656 0
M  V30 5611 H 523.728 -2.91517 2.70377 0
M  V30 5612 N 524.725 -1.39134 -0.740242 0
M  V30 5613 C 525.655 -1.40165 -1.86751 0
M  V30 5614 C 526.636 -0.265708 -1.68012 0
M  V30 5615 O 527.821 -0.47076 -1.88408 0
M  V30 5616 C 524.951 -1.2392 -3.2444 0
M  V30 5617 C 523.905 -2.34858 -3.57807 0
M  V30 5618 C 523.231 -2.03707 -4.94376 0
M  V30 5619 C 524.531 -3.77159 -3.61315 0
M  V30 5620 H 526.225 -2.345 -1.86145 0
M  V30 5621 H 523.771 -1.12875 -0.89416 0
M  V30 5622 H 525.724 -1.23263 -4.02969 0
M  V30 5623 H 524.448 -0.26051 -3.25559 0
M  V30 5624 H 523.107 -2.34723 -2.81604 0
M  V30 5625 H 522.755 -1.04289 -4.9207 0
M  V30 5626 H 522.455 -2.78016 -5.17669 0
M  V30 5627 H 523.979 -2.04691 -5.75268 0
M  V30 5628 H 525.393 -3.79252 -4.29931 0
M  V30 5629 H 523.79 -4.50784 -3.96124 0
M  V30 5630 H 524.86 -4.08513 -2.61238 0
M  V30 5631 N 526.204 0.969867 -1.24223 0
M  V30 5632 C 527.167 2.04564 -1.03373 0
M  V30 5633 C 528.167 1.60798 0.00819206 0
M  V30 5634 O 529.357 1.72641 -0.232567 0
M  V30 5635 C 526.489 3.36163 -0.566343 0
M  V30 5636 H 527.682 2.24494 -1.98853 0
M  V30 5637 H 525.235 1.1448 -1.06415 0
M  V30 5638 H 525.97 3.21925 0.391751 0
M  V30 5639 H 525.755 3.69273 -1.31834 0
M  V30 5640 H 527.245 4.1526 -0.441435 0
M  V30 5641 N 527.682 1.05563 1.17022 0
M  V30 5642 C 528.63 0.653887 2.2322 0
M  V30 5643 C 529.624 -0.326642 1.66221 0
M  V30 5644 O 530.83 -0.192301 1.7897 0
M  V30 5645 H 527.205 0.193297 0.726733 0
M  V30 5646 H 529.176 1.5596 2.54399 0
M  V30 5647 C 527.925 0.0485434 3.47666 0
M  V30 5648 H 527.248 0.79413 3.91834 0
M  V30 5649 H 528.688 -0.195133 4.23551 0
M  V30 5650 C 527.147 -1.20583 3.14581 0
M  V30 5651 O 527.677 -2.29475 3.29703 0
M  V30 5652 N 525.883 -1.10493 2.68774 0
M  V30 5653 H 525.43 -0.218795 2.56669 0
M  V30 5654 H 525.388 -1.94507 2.47011 0
M  V30 5655 N 529.16 -1.33526 0.837174 0
M  V30 5656 C 530.107 -2.29248 0.267169 0
M  V30 5657 C 531.077 -1.54252 -0.616071 0
M  V30 5658 O 532.262 -1.82559 -0.554699 0
M  V30 5659 C 529.402 -3.40638 -0.553152 0
M  V30 5660 C 528.515 -4.30548 0.353921 0
M  V30 5661 C 527.65 -5.29051 -0.477339 0
M  V30 5662 C 526.689 -6.106 0.42823 0
M  V30 5663 N 525.826 -7.01152 -0.364801 0
M  V30 5664 H 530.666 -2.77398 1.08877 0
M  V30 5665 H 528.203 -1.36496 0.54838 0
M  V30 5666 H 530.161 -4.03921 -1.04422 0
M  V30 5667 H 528.791 -2.93685 -1.33973 0
M  V30 5668 H 527.843 -3.68001 0.963289 0
M  V30 5669 H 529.155 -4.87631 1.04964 0
M  V30 5670 H 528.309 -5.97853 -1.0323 0
M  V30 5671 H 527.048 -4.72541 -1.2065 0
M  V30 5672 H 526.053 -5.40718 0.995219 0
M  V30 5673 H 527.278 -6.69193 1.15573 0
M  V30 5674 H 525.224 -6.47092 -1.07738 0
M  V30 5675 H 525.141 -7.5551 0.272238 0
M  V30 5676 H 526.409 -7.74263 -0.902054 0
M  V30 5677 N 530.638 -0.59345 -1.46 0
M  V30 5678 C 531.885 -0.0831523 -2.02329 0
M  V30 5679 C 532.213 1.28093 -1.46364 0
M  V30 5680 O 531.468 1.85526 -0.622793 0
M  V30 5681 C 531.767 0.021178 -3.57394 0
M  V30 5682 C 531.433 -1.27671 -4.32448 0
M  V30 5683 C 530.095 -1.63227 -4.5267 0
M  V30 5684 C 532.447 -2.13511 -4.7546 0
M  V30 5685 C 529.775 -2.84401 -5.1316 0
M  V30 5686 C 532.127 -3.33922 -5.37289 0
M  V30 5687 C 530.791 -3.69747 -5.55737 0
M  V30 5688 H 530.061 -0.0304276 -0.740375 0
M  V30 5689 H 532.708 -0.772239 -1.75239 0
M  V30 5690 H 531.013 0.793454 -3.83682 0
M  V30 5691 H 532.71 0.431942 -3.98667 0
M  V30 5692 H 529.3 -0.989937 -4.17011 0
M  V30 5693 H 533.484 -1.87344 -4.59582 0
M  V30 5694 H 528.74 -3.12282 -5.25633 0
M  V30 5695 H 532.914 -4.00698 -5.69574 0
M  V30 5696 H 530.541 -4.6373 -6.02377 0
M  V30 5697 N 532.116 1.54067 -0.331816 0
M  V30 5698 C 533.063 2.24623 0.530372 0
M  V30 5699 C 534.033 1.24009 1.10503 0
M  V30 5700 O 535.218 1.52712 1.14384 0
M  V30 5701 C 532.358 3.01374 1.68129 0
M  V30 5702 C 531.471 4.16821 1.13507 0
M  V30 5703 C 530.606 4.81085 2.25234 0
M  V30 5704 C 529.645 5.88621 1.67903 0
M  V30 5705 N 528.782 6.46713 2.73326 0
M  V30 5706 H 533.622 2.97898 -0.0778607 0
M  V30 5707 H 531.159 1.47014 -0.0501965 0
M  V30 5708 H 533.117 3.44125 2.35868 0
M  V30 5709 H 531.747 2.30419 2.26069 0
M  V30 5710 H 530.799 3.78796 0.348979 0
M  V30 5711 H 532.111 4.94203 0.675633 0
M  V30 5712 H 531.265 5.26846 3.00862 0
M  V30 5713 H 530.004 4.03102 2.74518 0
M  V30 5714 H 529.009 5.42254 0.907773 0
M  V30 5715 H 530.234 6.68506 1.19487 0
M  V30 5716 H 528.18 5.71599 3.21886 0
M  V30 5717 H 528.097 7.19532 2.3197 0
M  V30 5718 H 529.365 6.97129 3.48758 0
M  V30 5719 N 533.594 0.0601682 1.57485 0
M  V30 5720 C 534.84 -0.612501 1.93329 0
M  V30 5721 C 535.173 -1.6996 0.939526 0
M  V30 5722 O 534.448 -1.94472 -0.0330957 0
M  V30 5723 C 534.731 -1.20025 3.39508 0
M  V30 5724 C 534.584 -0.12059 4.49638 0
M  V30 5725 C 535.903 -2.10923 3.86264 0
M  V30 5726 H 533.022 -0.221185 0.703027 0
M  V30 5727 H 535.664 0.123768 1.89596 0
M  V30 5728 H 533.814 -1.82774 3.42821 0
M  V30 5729 H 535.486 0.51185 4.58452 0
M  V30 5730 H 533.729 0.550251 4.30296 0
M  V30 5731 H 534.4 -0.572019 5.49028 0
M  V30 5732 H 536.876 -1.58124 3.84884 0
M  V30 5733 H 535.752 -2.48987 4.8918 0
M  V30 5734 H 536.013 -3.01292 3.23536 0
M  V30 5735 N 535.072 -1.5615 -0.213296 0
M  V30 5736 C 536.019 -1.93086 -1.26437 0
M  V30 5737 C 536.989 -0.789086 -1.4616 0
M  V30 5738 O 538.174 -1.04569 -1.59593 0
M  V30 5739 C 535.314 -2.26003 -2.608 0
M  V30 5740 C 534.427 -3.53156 -2.48807 0
M  V30 5741 C 533.562 -3.7548 -3.7575 0
M  V30 5742 C 532.601 -4.96119 -3.58514 0
M  V30 5743 N 531.738 -5.14791 -4.77425 0
M  V30 5744 H 536.578 -2.82707 -0.942376 0
M  V30 5745 H 534.115 -1.39919 -0.454001 0
M  V30 5746 H 536.073 -2.431 -3.39055 0
M  V30 5747 H 534.703 -1.39546 -2.91079 0
M  V30 5748 H 533.755 -3.44207 -1.61944 0
M  V30 5749 H 535.067 -4.41565 -2.31996 0
M  V30 5750 H 534.221 -3.92718 -4.62447 0
M  V30 5751 H 532.96 -2.85368 -3.95495 0
M  V30 5752 H 531.965 -4.78823 -2.70201 0
M  V30 5753 H 533.19 -5.87724 -3.40231 0
M  V30 5754 H 531.136 -4.27623 -4.97468 0
M  V30 5755 H 531.053 -5.97347 -4.63371 0
M  V30 5756 H 532.321 -5.36471 -5.65525 0
M  V30 5757 N 536.55 0.480323 -1.50102 0
M  V30 5758 C 537.79 1.24301 -1.62261 0
M  V30 5759 C 538.154 1.89452 -0.311758 0
M  V30 5760 O 539.355 2.67022 -0.308696 0
M  V30 5761 C 537.626 2.26588 -2.76392 0
M  V30 5762 S 539.185 3.11919 -3.08629 0
M  V30 5763 H 536.003 0.42215 -0.57211 0
M  V30 5764 H 538.605 0.541591 -1.87848 0
M  V30 5765 H 537.309 1.7729 -3.70131 0
M  V30 5766 H 536.84 3.01371 -2.52862 0
M  V30 5767 H 538.855 4.27598 -2.51742 0
M  V30 5768 N 538.028 1.39524 0.732853 0
M  V30 5769 C 539.444 1.21176 1.03868 0
M  V30 5770 C 539.644 0.0748448 2.01361 0
M  V30 5771 O 538.7 -0.57281 2.45917 0
M  V30 5772 C 540.013 2.54667 1.59892 0
M  V30 5773 C 541.561 2.6153 1.71962 0
M  V30 5774 C 542.036 3.95248 2.31394 0
M  V30 5775 N 543.527 3.96899 2.38801 0
M  V30 5776 C 544.262 4.97138 2.85729 0
M  V30 5777 N 543.758 6.07775 3.32537 0
M  V30 5778 N 545.551 4.84516 2.84957 0
M  V30 5779 H 537.702 2.12225 0.086304 0
M  V30 5780 H 539.965 0.942614 0.100907 0
M  V30 5781 H 539.671 3.38423 0.95721 0
M  V30 5782 H 539.545 2.74538 2.58668 0
M  V30 5783 H 541.932 1.78156 2.35254 0
M  V30 5784 H 542.013 2.45507 0.718327 0
M  V30 5785 H 541.657 4.79054 1.68729 0
M  V30 5786 H 541.587 4.08593 3.32204 0
M  V30 5787 H 544.078 3.16998 2.05719 0
M  V30 5788 H 544.391 6.8017 3.66862 0
M  V30 5789 H 542.736 6.11366 3.30541 0
M  V30 5790 H 545.927 3.97185 2.47713 0
M  V30 5791 H 546.1 5.62783 3.21215 0
M  V30 5792 N 539.506 -0.963266 1.24736 0
M  V30 5793 C 540.454 -2.07985 1.04139 0
M  V30 5794 C 541.448 -1.69381 -0.0250556 0
M  V30 5795 O 542.654 -1.79531 0.129863 0
M  V30 5796 H 539.029 -0.680627 0.319768 0
M  V30 5797 H 541 -2.22517 1.98818 0
M  V30 5798 C 539.749 -3.4123 0.667615 0
M  V30 5799 H 539.072 -3.71397 1.48 0
M  V30 5800 H 540.512 -4.20244 0.563136 0
M  V30 5801 C 538.971 -3.3104 -0.625647 0
M  V30 5802 O 539.501 -3.65334 -1.67016 0
M  V30 5803 N 537.707 -2.84168 -0.608033 0
M  V30 5804 H 537.254 -2.56458 0.242323 0
M  V30 5805 H 537.212 -2.77732 -1.47352 0
M  V30 5806 N 540.985 -1.06182 -1.16461 0
M  V30 5807 C 542.213 -0.798583 -1.90867 0
M  V30 5808 C 542.628 0.646921 -1.77371 0
M  V30 5809 O 541.985 1.44279 -1.11758 0
M  V30 5810 C 542.036 -1.18258 -3.4161 0
M  V30 5811 O 541.757 -2.57135 -3.54701 0
M  V30 5812 C 543.258 -0.946917 -4.33069 0
M  V30 5813 H 540.478 -0.289603 -0.605286 0
M  V30 5814 H 543.022 -1.41515 -1.47627 0
M  V30 5815 H 541.177 -0.610562 -3.82558 0
M  V30 5816 H 541.591 -2.72477 -4.4817 0
M  V30 5817 H 543.065 -1.26523 -5.37304 0
M  V30 5818 H 543.542 0.117406 -4.39043 0
M  V30 5819 H 544.148 -1.50326 -3.97847 0
M  V30 5820 N 542.463 1.3308 -0.844243 0
M  V30 5821 C 543.693 2.01515 -0.455541 0
M  V30 5822 C 544.101 1.63655 0.949406 0
M  V30 5823 O 543.444 0.84848 1.62931 0
M  V30 5824 C 543.506 3.55967 -0.502801 0
M  V30 5825 C 543.17 4.17222 -1.86481 0
M  V30 5826 C 544.167 4.36205 -2.8288 0
M  V30 5827 C 541.852 4.53528 -2.15911 0
M  V30 5828 C 543.846 4.90649 -4.06869 0
M  V30 5829 C 541.533 5.07679 -3.40155 0
M  V30 5830 C 542.531 5.26186 -4.35451 0
M  V30 5831 O 542.219 5.79183 -5.57496 0
M  V30 5832 H 541.951 0.65199 -0.178565 0
M  V30 5833 H 544.505 1.70867 -1.1399 0
M  V30 5834 H 542.735 3.85965 0.23836 0
M  V30 5835 H 544.424 4.05688 -0.131169 0
M  V30 5836 H 545.19 4.085 -2.61444 0
M  V30 5837 H 541.069 4.38414 -1.42528 0
M  V30 5838 H 544.613 5.0501 -4.81259 0
M  V30 5839 H 540.51 5.34815 -3.61446 0
M  V30 5840 H 541.278 5.97591 -5.5931 0
M  V30 5841 N 543.941 0.601185 1.45683 0
M  V30 5842 C 545.188 0.0938811 2.02282 0
M  V30 5843 C 545.516 -1.27315 1.47041 0
M  V30 5844 O 544.771 -1.85193 0.632623 0
M  V30 5845 C 545.07 -0.00222425 3.574 0
M  V30 5846 C 544.736 1.29963 4.31764 0
M  V30 5847 C 543.398 1.65625 4.51798 0
M  V30 5848 C 545.75 2.1603 4.74321 0
M  V30 5849 C 543.078 2.87119 5.11644 0
M  V30 5850 C 545.43 3.36766 5.3551 0
M  V30 5851 C 544.094 3.72689 5.53768 0
M  V30 5852 H 543.364 0.0343535 0.740203 0
M  V30 5853 H 546.011 0.781522 1.74827 0
M  V30 5854 H 544.316 -0.773096 3.84097 0
M  V30 5855 H 546.013 -0.410794 3.9889 0
M  V30 5856 H 542.603 1.01204 4.1648 0
M  V30 5857 H 546.787 1.89778 4.58582 0
M  V30 5858 H 542.043 3.15065 5.2397 0
M  V30 5859 H 546.217 4.03713 5.67441 0
M  V30 5860 H 543.844 4.66918 5.99909 0
M  V30 5861 N 545.419 -1.53889 0.339982 0
M  V30 5862 C 546.668 -2.00035 -0.258604 0
M  V30 5863 C 546.981 -1.23179 -1.51942 0
M  V30 5864 O 548.187 -1.59784 -2.19503 0
M  V30 5865 C 546.643 -3.56249 -0.511359 0
M  V30 5866 C 546.251 -4.41957 0.733349 0
M  V30 5867 C 547.995 -4.1082 -1.069 0
M  V30 5868 C 545.902 -5.89673 0.451591 0
M  V30 5869 H 544.832 -0.747284 -0.10041 0
M  V30 5870 H 547.483 -1.77776 0.454758 0
M  V30 5871 H 545.865 -3.7456 -1.28533 0
M  V30 5872 H 547.039 -4.35421 1.50815 0
M  V30 5873 H 545.354 -3.9836 1.21237 0
M  V30 5874 H 547.951 -5.18789 -1.2947 0
M  V30 5875 H 548.294 -3.63817 -2.02343 0
M  V30 5876 H 548.827 -3.96205 -0.355817 0
M  V30 5877 H 545.566 -6.40903 1.37565 0
M  V30 5878 H 545.086 -5.99122 -0.285193 0
M  V30 5879 H 546.765 -6.46965 0.0675067 0
M  V30 5880 N 546.897 -0.0685191 -1.57451 0
M  V30 5881 C 547.844 0.899861 -2.12535 0
M  V30 5882 C 548.814 1.29749 -1.03703 0
M  V30 5883 O 549.999 1.38392 -1.31348 0
M  V30 5884 C 547.139 2.16328 -2.6888 0
M  V30 5885 C 546.252 1.81857 -3.91857 0
M  V30 5886 C 545.387 3.02786 -4.36457 0
M  V30 5887 C 544.426 2.64317 -5.5209 0
M  V30 5888 N 543.563 3.77994 -5.91663 0
M  V30 5889 H 548.403 0.423243 -2.94979 0
M  V30 5890 H 545.94 0.197268 -1.45771 0
M  V30 5891 H 547.898 2.90281 -2.99655 0
M  V30 5892 H 546.528 2.61536 -1.89206 0
M  V30 5893 H 545.58 0.979808 -3.67565 0
M  V30 5894 H 546.892 1.49553 -4.75852 0
M  V30 5895 H 546.046 3.85021 -4.68875 0
M  V30 5896 H 544.785 3.38281 -3.51308 0
M  V30 5897 H 543.79 1.80503 -5.19325 0
M  V30 5898 H 545.015 2.29995 -6.38967 0
M  V30 5899 H 542.961 4.13258 -5.09464 0
M  V30 5900 H 542.878 3.49447 -6.7039 0
M  V30 5901 H 544.146 4.60818 -6.28703 0
M  V30 5902 N 548.375 1.56261 0.205012 0
M  V30 5903 C 549.605 1.83874 0.942018 0
M  V30 5904 C 550.013 0.647595 1.77772 0
M  V30 5905 O 549.356 -0.393098 1.79445 0
M  V30 5906 C 549.418 3.05453 1.89575 0
M  V30 5907 C 549.082 4.39772 1.24296 0
M  V30 5908 C 550.079 5.16133 0.624724 0
M  V30 5909 C 547.764 4.86504 1.24978 0
M  V30 5910 C 549.758 6.37396 0.0220117 0
M  V30 5911 C 547.445 6.07705 0.643232 0
M  V30 5912 C 548.443 6.82993 0.0304164 0
M  V30 5913 O 548.131 8.019 -0.566654 0
M  V30 5914 H 547.863 0.614896 0.280854 0
M  V30 5915 H 550.417 2.04215 0.220285 0
M  V30 5916 H 548.647 2.80972 2.65691 0
M  V30 5917 H 550.336 3.19797 2.4997 0
M  V30 5918 H 551.102 4.81127 0.611666 0
M  V30 5919 H 546.981 4.27865 1.71616 0
M  V30 5920 H 550.525 6.96102 -0.456926 0
M  V30 5921 H 546.422 6.42181 0.653759 0
M  V30 5922 H 547.19 8.17192 -0.462588 0
M  V30 5923 N 549.853 -0.472356 1.50355 0
M  V30 5924 C 550.763 -1.59637 1.7191 0
M  V30 5925 C 551.779 -1.63247 0.602195 0
M  V30 5926 O 552.955 -1.81139 0.880369 0
M  V30 5927 C 550.02 -2.9586 1.80742 0
M  V30 5928 C 549.081 -3.02649 3.04471 0
M  V30 5929 C 548.314 -4.32374 3.12872 0
M  V30 5930 O 548.537 -5.22807 2.28099 0
M  V30 5931 O 547.471 -4.44728 4.05587 0
M  V30 5932 H 551.297 -1.44373 2.67189 0
M  V30 5933 H 548.882 -0.651717 1.34436 0
M  V30 5934 H 550.764 -3.7677 1.88739 0
M  V30 5935 H 549.439 -3.11325 0.88647 0
M  V30 5936 H 548.346 -2.20821 3.01975 0
M  V30 5937 H 549.679 -2.92119 3.9614 0
M  V30 5938 N 551.331 -1.39911 -0.725443 0
M  V30 5939 C 552.578 -1.37654 -1.48518 0
M  V30 5940 C 552.906 0.0243982 -1.94485 0
M  V30 5941 O 552.161 1.00708 -1.67799 0
M  V30 5942 C 552.46 -2.30368 -2.7325 0
M  V30 5943 C 552.126 -3.77817 -2.461 0
M  V30 5944 C 550.788 -4.17991 -2.38405 0
M  V30 5945 C 553.14 -4.71036 -2.23103 0
M  V30 5946 C 550.468 -5.49433 -2.05768 0
M  V30 5947 C 552.82 -6.02766 -1.9198 0
M  V30 5948 C 551.484 -6.41993 -1.82761 0
M  V30 5949 H 550.754 -0.503713 -0.543465 0
M  V30 5950 H 553.401 -1.7249 -0.831822 0
M  V30 5951 H 551.706 -1.88683 -3.43375 0
M  V30 5952 H 553.403 -2.2591 -3.31309 0
M  V30 5953 H 549.993 -3.45982 -2.52972 0
M  V30 5954 H 554.177 -4.40823 -2.2801 0
M  V30 5955 H 549.433 -5.78738 -1.9716 0
M  V30 5956 H 553.607 -6.74519 -1.73197 0
M  V30 5957 H 551.234 -7.43761 -1.57237 0
M  V30 5958 N 552.809 0.956637 -1.25245 0
M  V30 5959 C 553.739 2.07058 -1.07931 0
M  V30 5960 C 554.72 1.70096 0.0110361 0
M  V30 5961 O 555.905 1.93555 -0.158121 0
M  V30 5962 C 553.035 3.40272 -0.695124 0
M  V30 5963 C 551.989 3.91235 -1.73549 0
M  V30 5964 C 551.315 5.20921 -1.20604 0
M  V30 5965 C 552.615 4.17837 -3.13385 0
M  V30 5966 H 554.309 2.218 -2.01109 0
M  V30 5967 H 551.855 1.06581 -0.968326 0
M  V30 5968 H 553.808 4.1765 -0.560949 0
M  V30 5969 H 552.532 3.25462 0.272355 0
M  V30 5970 H 551.191 3.16025 -1.85807 0
M  V30 5971 H 550.839 5.02479 -0.228846 0
M  V30 5972 H 550.539 5.55987 -1.90136 0
M  V30 5973 H 552.063 6.00897 -1.08421 0
M  V30 5974 H 553.477 4.8588 -3.04292 0
M  V30 5975 H 551.874 4.64154 -3.80369 0
M  V30 5976 H 552.944 3.2419 -3.60595 0
M  V30 5977 N 554.287 1.06798 1.15896 0
M  V30 5978 C 555.234 0.683314 2.20453 0
M  V30 5979 C 556.204 -0.32255 1.62938 0
M  V30 5980 O 557.389 -0.210276 1.89638 0
M  V30 5981 C 554.529 0.0813266 3.45004 0
M  V30 5982 C 553.642 1.13799 4.16742 0
M  V30 5983 C 552.777 0.501598 5.28826 0
M  V30 5984 C 551.816 1.54144 5.92373 0
M  V30 5985 N 550.953 0.928038 6.9594 0
M  V30 5986 H 555.793 1.57932 2.52708 0
M  V30 5987 H 553.33 0.789544 1.24115 0
M  V30 5988 H 555.288 -0.285274 4.16224 0
M  V30 5989 H 553.918 -0.77806 3.13283 0
M  V30 5990 H 552.97 1.62223 3.44075 0
M  V30 5991 H 554.282 1.92664 4.60089 0
M  V30 5992 H 553.436 0.0823162 6.06644 0
M  V30 5993 H 552.175 -0.318883 4.86656 0
M  V30 5994 H 551.18 1.97056 5.13273 0
M  V30 5995 H 552.405 2.3641 6.36621 0
M  V30 5996 H 550.351 0.12836 6.55874 0
M  V30 5997 H 550.268 1.65401 7.37685 0
M  V30 5998 H 551.536 0.534071 7.77668 0
M  V30 5999 N 555.766 -1.3263 0.851289 0
M  V30 6000 C 557.012 -1.9766 0.453694 0
M  V30 6001 C 557.345 -1.67225 -0.987396 0
M  V30 6002 O 556.62 -0.958693 -1.69232 0
M  V30 6003 C 556.903 -3.5344 0.68936 0
M  V30 6004 C 556.756 -3.93517 2.17862 0
M  V30 6005 C 558.075 -4.39866 0.143555 0
M  V30 6006 H 555.194 -0.717989 0.166314 0
M  V30 6007 H 557.836 -1.57068 1.06909 0
M  V30 6008 H 555.986 -3.88147 0.165546 0
M  V30 6009 H 557.658 -3.69006 2.76826 0
M  V30 6010 H 555.901 -3.42798 2.65841 0
M  V30 6011 H 556.572 -5.02065 2.29422 0
M  V30 6012 H 559.048 -4.11875 0.591451 0
M  V30 6013 H 557.924 -5.47858 0.338043 0
M  V30 6014 H 558.185 -4.31696 -0.953466 0
M  V30 6015 N 557.244 -0.608902 -1.45362 0
M  V30 6016 C 558.655 -0.189511 -1.85736 0
M  V30 6017 C 559.006 1.2539 -1.50903 0
M  V30 6018 O 558.131 1.95094 -0.936347 0
M  V30 6019 C 558.726 -0.33716 -3.37118 0
M  V30 6020 C 557.285 0.0275487 -3.7639 0
M  V30 6021 C 556.432 -0.660983 -2.69307 0
M  V30 6022 H 559.383 -0.815499 -1.36144 0
M  V30 6023 H 559.404 0.430257 -3.7806 0
M  V30 6024 H 558.916 -1.38779 -3.62439 0
M  V30 6025 H 557.017 1.0773 -3.56686 0
M  V30 6026 H 557.13 -0.367018 -4.77692 0
M  V30 6027 H 555.494 -0.0984958 -2.54509 0
M  V30 6028 H 556.277 -1.71377 -2.97464 0
M  V30 6029 N 558.722 1.53707 -0.348139 0
M  V30 6030 C 559.67 2.26671 0.521808 0
M  V30 6031 C 560.664 1.28988 1.09811 0
M  V30 6032 O 561.87 1.4668 1.04332 0
M  V30 6033 H 558.245 0.728387 0.186968 0
M  V30 6034 H 560.216 2.98176 -0.115563 0
M  V30 6035 C 558.965 3.05591 1.6586 0
M  V30 6036 H 558.288 3.80589 1.22443 0
M  V30 6037 H 559.728 3.59851 2.24239 0
M  V30 6038 C 558.187 2.15366 2.59073 0
M  V30 6039 O 558.717 1.7528 3.61441 0
M  V30 6040 N 556.923 1.80352 2.27863 0
M  V30 6041 H 556.47 2.13149 1.44656 0
M  V30 6042 H 556.428 1.20268 2.90488 0
M  V30 6043 N 560.2 0.0768682 1.57412 0
M  V30 6044 C 561.13 -0.886026 2.16037 0
M  V30 6045 C 562.111 -1.30691 1.08876 0
M  V30 6046 O 563.296 -1.37705 1.36934 0
M  V30 6047 C 560.426 -2.1518 2.72608 0
M  V30 6048 C 559.38 -1.87015 3.8498 0
M  V30 6049 C 558.706 -3.20266 4.28175 0
M  V30 6050 C 560.006 -1.17143 5.08994 0
M  V30 6051 H 561.7 -0.397642 2.96748 0
M  V30 6052 H 559.246 -0.189823 1.42743 0
M  V30 6053 H 561.199 -2.82962 3.12266 0
M  V30 6054 H 559.923 -2.66269 1.89125 0
M  V30 6055 H 558.582 -1.21636 3.45833 0
M  V30 6056 H 558.23 -3.69207 3.41607 0
M  V30 6057 H 557.93 -3.0221 5.03927 0
M  V30 6058 H 559.454 -3.89237 4.70454 0
M  V30 6059 H 560.868 -1.75003 5.45937 0
M  V30 6060 H 559.265 -1.09328 5.90057 0
M  V30 6061 H 560.335 -0.151295 4.84664 0
M  V30 6062 N 561.678 -1.56367 -0.196722 0
M  V30 6063 C 562.608 -1.97442 -1.24655 0
M  V30 6064 C 563.589 -0.846147 -1.47561 0
M  V30 6065 O 564.774 -1.11035 -1.59326 0
M  V30 6066 C 561.904 -2.31253 -2.59112 0
M  V30 6067 C 560.858 -3.46804 -2.50821 0
M  V30 6068 C 560.184 -3.66286 -3.89536 0
M  V30 6069 C 561.484 -4.8104 -2.03465 0
M  V30 6070 H 563.178 -2.85388 -0.905216 0
M  V30 6071 H 560.724 -1.37304 -0.434002 0
M  V30 6072 H 562.677 -2.58583 -3.32736 0
M  V30 6073 H 561.401 -1.40188 -2.94983 0
M  V30 6074 H 560.06 -3.19563 -1.79653 0
M  V30 6075 H 559.708 -2.72555 -4.22756 0
M  V30 6076 H 559.408 -4.4402 -3.84864 0
M  V30 6077 H 560.932 -3.9599 -4.64784 0
M  V30 6078 H 562.346 -5.07411 -2.66846 0
M  V30 6079 H 560.743 -5.62232 -2.09798 0
M  V30 6080 H 561.813 -4.74732 -0.98781 0
M  V30 6081 N 563.156 0.464375 -1.50603 0
M  V30 6082 C 564.433 1.22549 -1.5245 0
M  V30 6083 C 564.813 2.09327 -0.273035 0
M  V30 6084 O 564.161 2.16074 0.743242 0
M  V30 6085 C 564.371 2.05074 -2.82393 0
M  V30 6086 C 565.719 2.63036 -3.33313 0
M  V30 6087 O 566.743 2.1531 -2.8376 0
M  V30 6088 O 565.602 3.5001 -4.19709 0
M  V30 6089 H 562.696 0.556471 -0.611775 0
M  V30 6090 H 565.242 0.475648 -1.62898 0
M  V30 6091 H 564.014 1.41169 -3.64948 0
M  V30 6092 H 563.637 2.87179 -2.7498 0
M  V30 6093 N 564.634 1.40294 0.718013 0
M  V30 6094 C 565.911 1.2894 1.47084 0
M  V30 6095 C 566.291 -0.0933625 2.10893 0
M  V30 6096 O 565.639 -1.10598 1.99951 0
M  V30 6097 C 565.849 2.4264 2.50852 0
M  V30 6098 C 567.197 2.8276 3.16752 0
M  V30 6099 O 568.221 2.42215 2.61171 0
M  V30 6100 O 567.08 3.528 4.17366 0
M  V30 6101 H 564.174 0.506236 0.653952 0
M  V30 6102 H 566.72 1.52208 0.750394 0
M  V30 6103 H 565.492 3.35009 2.022 0
M  V30 6104 H 565.115 2.21129 3.30435 0
M  V30 6105 N 566.112 -0.949982 1.2575 0
M  V30 6106 C 567.389 -1.6718 1.01539 0
M  V30 6107 C 567.769 -2.06095 -0.456942 0
M  V30 6108 O 567.117 -1.77792 -1.43534 0
M  V30 6109 C 567.327 -2.8906 1.95564 0
M  V30 6110 C 568.675 -3.60909 2.23673 0
M  V30 6111 O 569.699 -2.9915 1.9336 0
M  V30 6112 O 568.558 -4.72127 2.75243 0
M  V30 6113 H 565.652 -0.731697 0.385419 0
M  V30 6114 H 568.198 -1.00249 1.36924 0
M  V30 6115 H 566.97 -2.57128 2.94959 0
M  V30 6116 H 566.593 -3.63719 1.60605 0
M  V30 6117 N 567.59 -1.07411 -1.15328 0
M  V30 6118 C 568.839 -0.792643 -1.85473 0
M  V30 6119 C 569.152 0.683789 -1.83259 0
M  V30 6120 O 570.358 1.08005 -2.49093 0
M  V30 6121 C 568.814 -1.36787 -3.32892 0
M  V30 6122 C 568.422 -2.87536 -3.43551 0
M  V30 6123 C 570.166 -1.16444 -4.08217 0
M  V30 6124 C 568.073 -3.38247 -4.85122 0
M  V30 6125 H 567.003 -0.292838 -0.694811 0
M  V30 6126 H 569.654 -1.29426 -1.30082 0
M  V30 6127 H 568.036 -0.793993 -3.87958 0
M  V30 6128 H 569.21 -3.50973 -2.98588 0
M  V30 6129 H 567.525 -3.06676 -2.81672 0
M  V30 6130 H 570.122 -1.51808 -5.12697 0
M  V30 6131 H 570.465 -0.10353 -4.16171 0
M  V30 6132 H 570.998 -1.70472 -3.59422 0
M  V30 6133 H 567.737 -4.43866 -4.82351 0
M  V30 6134 H 567.257 -2.79564 -5.30664 0
M  V30 6135 H 568.936 -3.34238 -5.5398 0
M  V30 6136 N 569.068 1.32177 -0.85831 0
M  V30 6137 C 570.298 2.01021 -0.476889 0
M  V30 6138 C 570.706 1.64653 0.931995 0
M  V30 6139 O 570.049 0.865713 1.62022 0
M  V30 6140 C 570.111 3.55413 -0.540528 0
M  V30 6141 C 569.775 4.1522 -1.90895 0
M  V30 6142 C 570.772 4.3318 -2.87491 0
M  V30 6143 C 568.457 4.51212 -2.20709 0
M  V30 6144 C 570.451 4.86306 -4.1205 0
M  V30 6145 C 568.138 5.04042 -3.45521 0
M  V30 6146 C 569.136 5.21538 -4.41007 0
M  V30 6147 O 568.824 5.73238 -5.63608 0
M  V30 6148 H 568.556 0.650059 -0.18547 0
M  V30 6149 H 571.11 1.69648 -1.15796 0
M  V30 6150 H 569.34 3.86196 0.19741 0
M  V30 6151 H 571.029 4.05526 -0.174191 0
M  V30 6152 H 571.795 4.05704 -2.65762 0
M  V30 6153 H 567.674 4.36878 -1.4717 0
M  V30 6154 H 571.218 4.99877 -4.86589 0
M  V30 6155 H 567.115 5.30952 -3.67098 0
M  V30 6156 H 567.883 5.91625 -5.65617 0
M  V30 6157 N 570.547 0.616602 1.45037 0
M  V30 6158 C 571.775 0.121968 2.0654 0
M  V30 6159 C 572.19 -1.19743 1.45969 0
M  V30 6160 O 571.547 -1.73133 0.577168 0
M  V30 6161 C 571.598 -0.0145171 3.61497 0
M  V30 6162 O 571.319 1.25269 4.19809 0
M  V30 6163 C 572.82 -0.539555 4.40004 0
M  V30 6164 H 570.04 0.0729837 0.667019 0
M  V30 6165 H 572.584 0.846891 1.8614 0
M  V30 6166 H 570.739 -0.689809 3.81209 0
M  V30 6167 H 571.153 1.08816 5.13088 0
M  V30 6168 H 572.627 -0.584112 5.48901 0
M  V30 6169 H 573.104 -1.56368 4.10421 0
M  V30 6170 H 573.71 0.101995 4.25178 0
M  V30 6171 N 572.025 -1.5352 0.356285 0
M  V30 6172 C 573.271 -2.01414 -0.236653 0
M  V30 6173 C 573.604 -1.24339 -1.49176 0
M  V30 6174 O 572.879 -0.334496 -1.91602 0
M  V30 6175 C 573.162 -3.56059 -0.537982 0
M  V30 6176 C 573.015 -4.43835 0.730112 0
M  V30 6177 C 574.334 -4.19127 -1.34239 0
M  V30 6178 H 571.453 -0.732135 -0.0845386 0
M  V30 6179 H 574.095 -1.83854 0.479341 0
M  V30 6180 H 572.245 -3.71153 -1.14795 0
M  V30 6181 H 573.917 -4.40555 1.36782 0
M  V30 6182 H 572.16 -4.1218 1.3524 0
M  V30 6183 H 572.831 -5.49958 0.474358 0
M  V30 6184 H 575.307 -4.07809 -0.826498 0
M  V30 6185 H 574.183 -5.27378 -1.52198 0
M  V30 6186 H 574.444 -3.74581 -2.34822 0
M  V30 6187 N 573.503 -0.0852151 -1.57369 0
M  V30 6188 C 574.728 0.592872 -1.98746 0
M  V30 6189 C 575.153 1.61538 -0.963689 0
M  V30 6190 O 574.511 1.81168 0.069071 0
M  V30 6191 C 574.559 1.22599 -3.39119 0
M  V30 6192 O 573.663 2.34185 -3.39457 0
M  V30 6193 H 573.004 0.151314 -0.646529 0
M  V30 6194 H 575.534 -0.163703 -2.03944 0
M  V30 6195 H 575.544 1.56965 -3.76598 0
M  V30 6196 H 574.219 0.476831 -4.13158 0
M  V30 6197 H 572.796 2.01512 -3.13763 0
M  V30 6198 N 574.981 1.5647 0.188427 0
M  V30 6199 C 575.891 1.98285 1.2538 0
M  V30 6200 C 576.907 0.891535 1.49424 0
M  V30 6201 O 578.083 1.19782 1.61908 0
M  V30 6202 C 575.148 2.31965 2.57669 0
M  V30 6203 C 574.209 3.54838 2.41638 0
M  V30 6204 C 573.442 3.86901 3.67618 0
M  V30 6205 O 573.665 3.20163 4.72072 0
M  V30 6206 O 572.599 4.80309 3.62749 0
M  V30 6207 H 576.425 2.89145 0.928912 0
M  V30 6208 H 574.01 1.44112 0.393955 0
M  V30 6209 H 575.892 2.54673 3.35737 0
M  V30 6210 H 574.567 1.44271 2.89771 0
M  V30 6211 H 573.474 3.37369 1.61658 0
M  V30 6212 H 574.807 4.43019 2.14465 0
M  V30 6213 N 576.459 -0.456382 1.50847 0
M  V30 6214 C 577.707 -1.20497 1.62249 0
M  V30 6215 C 578.028 -1.92156 0.331839 0
M  V30 6216 O 577.298 -1.84751 -0.651443 0
M  V30 6217 H 575.878 -0.447775 0.597918 0
M  V30 6218 H 578.54 -0.525099 1.87693 0
M  V30 6219 H 577.636 -1.94492 2.44089 0
M  V30 6220 N 577.937 -1.40673 -0.710563 0
M  V30 6221 C 579.184 -1.39222 -1.47049 0
M  V30 6222 C 579.512 0.0037691 -1.945 0
M  V30 6223 O 578.767 0.989224 -1.68857 0
M  V30 6224 C 579.066 -2.33253 -2.70791 0
M  V30 6225 C 578.732 -3.80406 -2.42079 0
M  V30 6226 C 577.394 -4.20496 -2.33959 0
M  V30 6227 C 579.746 -4.73375 -2.18094 0
M  V30 6228 C 577.074 -5.51584 -1.99929 0
M  V30 6229 C 579.426 -6.04768 -1.85576 0
M  V30 6230 C 578.09 -6.43895 -1.75941 0
M  V30 6231 H 577.36 -0.509449 -0.538092 0
M  V30 6232 H 580.007 -1.73363 -0.81348 0
M  V30 6233 H 578.312 -1.92314 -3.41354 0
M  V30 6234 H 580.009 -2.29412 -3.28894 0
M  V30 6235 H 576.599 -3.48645 -2.49288 0
M  V30 6236 H 580.783 -4.43217 -2.23321 0
M  V30 6237 H 576.039 -5.80797 -1.91011 0
M  V30 6238 H 580.213 -6.76318 -1.66033 0
M  V30 6239 H 577.84 -7.45387 -1.4934 0
M  V30 6240 N 579.415 0.9433 -1.26252 0
M  V30 6241 C 580.363 2.06302 -1.07434 0
M  V30 6242 C 581.357 1.694 -0.00189471 0
M  V30 6243 O 582.563 1.79302 -0.158408 0
M  V30 6244 H 578.938 0.675453 -0.330556 0
M  V30 6245 H 580.909 2.19326 -2.02333 0
M  V30 6246 C 579.658 3.40125 -0.721817 0
M  V30 6247 H 578.981 3.68996 -1.5389 0
M  V30 6248 H 580.421 4.19295 -0.629922 0
M  V30 6249 C 578.88 3.31993 0.572902 0
M  V30 6250 O 579.41 3.67945 1.61182 0
M  V30 6251 N 577.616 2.85099 0.562748 0
M  V30 6252 H 577.163 2.5604 -0.283092 0
M  V30 6253 H 577.121 2.80041 1.42915 0
M  V30 6254 N 580.893 1.08022 1.14757 0
M  V30 6255 C 582.142 0.802468 1.8505 0
M  V30 6256 C 582.455 -0.674061 1.83619 0
M  V30 6257 O 583.661 -1.06683 2.49662 0
M  V30 6258 C 582.117 1.38551 3.32162 0
M  V30 6259 C 581.725 2.89354 3.42021 0
M  V30 6260 C 583.469 1.18608 4.07594 0
M  V30 6261 C 581.376 3.40815 4.83321 0
M  V30 6262 H 580.306 0.296518 0.693248 0
M  V30 6263 H 582.957 1.30114 1.29393 0
M  V30 6264 H 581.339 0.814556 3.87532 0
M  V30 6265 H 582.513 3.52552 2.96722 0
M  V30 6266 H 580.828 3.08165 2.80041 0
M  V30 6267 H 583.425 1.54525 5.11885 0
M  V30 6268 H 583.768 0.125599 4.1611 0
M  V30 6269 H 584.301 1.72375 3.58513 0
M  V30 6270 H 581.04 4.46418 4.79991 0
M  V30 6271 H 580.56 2.82374 5.29174 0
M  V30 6272 H 582.239 3.37171 5.522 0
M  V30 6273 N 582.371 -1.3172 0.865308 0
M  V30 6274 C 583.619 -1.96487 0.472995 0
M  V30 6275 C 583.94 -1.68761 -0.976975 0
M  V30 6276 O 583.21 -1.00051 -1.68424 0
M  V30 6277 H 581.79 -0.726947 0.171922 0
M  V30 6278 H 584.452 -1.60612 1.10407 0
M  V30 6279 H 583.548 -3.0574 0.62687 0
M  V30 6280 N 583.85 -0.624285 -1.44708 0
M  V30 6281 C 584.798 0.0969952 -2.32398 0
M  V30 6282 C 585.792 0.842762 -1.46949 0
M  V30 6283 O 586.998 0.756436 -1.63334 0
M  V30 6284 H 583.373 0.0501306 -0.750327 0
M  V30 6285 H 585.344 -0.660767 -2.90992 0
M  V30 6286 C 584.093 1.06967 -3.30837 0
M  V30 6287 H 583.416 0.505242 -3.96595 0
M  V30 6288 H 584.856 1.54397 -3.94889 0
M  V30 6289 C 583.315 2.15153 -2.5925 0
M  V30 6290 O 583.845 3.23139 -2.3863 0
M  V30 6291 N 582.051 1.90898 -2.19103 0
M  V30 6292 H 581.598 1.03086 -2.36074 0
M  V30 6293 H 581.556 2.63485 -1.71531 0
M  V30 6294 N 585.328 1.53329 -0.364422 0
M  V30 6295 C 586.258 2.28627 0.474543 0
M  V30 6296 C 587.239 1.31009 1.08492 0
M  V30 6297 O 588.424 1.59878 1.10239 0
M  V30 6298 C 585.554 3.07465 1.61501 0
M  V30 6299 C 584.508 4.1276 1.13194 0
M  V30 6300 C 583.834 4.79674 2.36255 0
M  V30 6301 C 585.134 5.21847 0.217507 0
M  V30 6302 H 586.828 2.99005 -0.153656 0
M  V30 6303 H 584.374 1.43803 -0.0753406 0
M  V30 6304 H 586.327 3.58889 2.20855 0
M  V30 6305 H 585.051 2.34775 2.27042 0
M  V30 6306 H 583.71 3.62281 0.56109 0
M  V30 6307 H 583.358 4.03557 3.00251 0
M  V30 6308 H 583.058 5.50827 2.04606 0
M  V30 6309 H 584.582 5.33892 2.96297 0
M  V30 6310 H 585.996 5.6878 0.718493 0
M  V30 6311 H 584.393 6.00099 -0.00806408 0
M  V30 6312 H 585.463 4.7921 -0.740653 0
M  V30 6313 N 586.806 0.0935595 1.57322 0
M  V30 6314 C 587.769 -0.851426 2.12799 0
M  V30 6315 C 588.769 -1.21187 1.0569 0
M  V30 6316 O 589.959 -1.14156 1.31583 0
M  V30 6317 C 587.091 -2.14779 2.64731 0
M  V30 6318 H 588.284 -0.369733 2.97612 0
M  V30 6319 H 585.837 -0.155417 1.55525 0
M  V30 6320 H 586.572 -2.67437 1.83434 0
M  V30 6321 H 586.357 -1.89907 3.43042 0
M  V30 6322 H 587.847 -2.82383 3.07651 0
M  V30 6323 N 588.284 -1.56567 -0.180126 0
M  V30 6324 C 589.53 -1.81761 -0.899497 0
M  V30 6325 C 589.863 -0.670015 -1.82276 0
M  V30 6326 O 589.138 0.328575 -1.91705 0
M  V30 6327 C 589.421 -3.17296 -1.7028 0
M  V30 6328 C 589.274 -4.4257 -0.803255 0
M  V30 6329 C 590.593 -3.49678 -2.67233 0
M  V30 6330 H 587.712 -0.661192 -0.325567 0
M  V30 6331 H 590.354 -1.89272 -0.16612 0
M  V30 6332 H 588.504 -3.11023 -2.32802 0
M  V30 6333 H 590.176 -4.60902 -0.191585 0
M  V30 6334 H 588.419 -4.33658 -0.110796 0
M  V30 6335 H 589.09 -5.33935 -1.40064 0
M  V30 6336 H 591.566 -3.56347 -2.14839 0
M  V30 6337 H 590.442 -4.45605 -3.20511 0
M  V30 6338 H 590.703 -2.73932 -3.47007 0
M  V30 6339 N 589.762 0.448376 -1.51087 0
M  V30 6340 C 590.71 1.56407 -1.72161 0
M  V30 6341 C 591.704 1.58878 -0.587721 0
M  V30 6342 O 592.91 1.62755 -0.768822 0
M  V30 6343 H 589.285 0.519423 -0.543786 0
M  V30 6344 H 591.256 1.35803 -2.65707 0
M  V30 6345 C 590.005 2.94163 -1.85373 0
M  V30 6346 H 589.328 2.9299 -2.72024 0
M  V30 6347 H 590.768 3.71625 -2.04135 0
M  V30 6348 C 589.227 3.31317 -0.610803 0
M  V30 6349 O 589.757 4.00985 0.239636 0
M  V30 6350 N 587.963 2.86966 -0.458127 0
M  V30 6351 H 587.51 2.30443 -1.15124 0
M  V30 6352 H 587.468 3.12188 0.372289 0
M  V30 6353 N 591.24 1.41047 0.703093 0
M  V30 6354 C 592.188 1.42494 1.83843 0
M  V30 6355 C 593.182 0.303885 1.66652 0
M  V30 6356 O 594.388 0.475544 1.73605 0
M  V30 6357 H 590.763 0.445685 0.605697 0
M  V30 6358 H 592.734 2.38194 1.79739 0
M  V30 6359 C 591.483 1.31666 3.21807 0
M  V30 6360 H 590.806 2.17212 3.35647 0
M  V30 6361 H 592.246 1.36738 4.01346 0
M  V30 6362 C 590.705 0.0281828 3.36888 0
M  V30 6363 O 591.235 -0.929995 3.90786 0
M  V30 6364 N 589.441 -0.0454322 2.90564 0
M  V30 6365 H 588.988 0.735046 2.4689 0
M  V30 6366 H 588.946 -0.906968 3.01034 0
M  V30 6367 N 592.718 -0.936591 1.26751 0
M  V30 6368 C 594.134 -1.21095 1.03963 0
M  V30 6369 C 594.334 -2.00156 -0.232372 0
M  V30 6370 O 593.39 -2.3434 -0.940274 0
M  V30 6371 C 594.703 -1.96775 2.27377 0
M  V30 6372 C 596.251 -2.09749 2.32324 0
M  V30 6373 C 596.726 -2.88832 3.55443 0
M  V30 6374 N 598.217 -2.96404 3.55948 0
M  V30 6375 C 598.952 -3.58036 4.47881 0
M  V30 6376 N 598.448 -4.21132 5.50109 0
M  V30 6377 N 600.241 -3.55353 4.35523 0
M  V30 6378 H 592.392 -0.408173 2.08441 0
M  V30 6379 H 594.655 -0.243139 0.91629 0
M  V30 6380 H 594.361 -1.46094 3.19921 0
M  V30 6381 H 594.235 -2.97424 2.31989 0
M  V30 6382 H 596.622 -2.5962 1.40291 0
M  V30 6383 H 596.703 -1.08347 2.31721 0
M  V30 6384 H 596.347 -2.39647 4.47808 0
M  V30 6385 H 596.277 -3.90499 3.53296 0
M  V30 6386 H 598.768 -2.51552 2.82011 0
M  V30 6387 H 599.081 -4.66071 6.16439 0
M  V30 6388 H 597.426 -4.19705 5.53961 0
M  V30 6389 H 600.617 -3.05256 3.54875 0
M  V30 6390 H 600.79 -4.03097 5.07363 0
M  V30 6391 N 594.196 -1.08629 -1.14182 0
M  V30 6392 C 595.444 -0.815731 -1.84906 0
M  V30 6393 C 595.765 0.660441 -1.83475 0
M  V30 6394 O 595.035 1.47888 -1.28476 0
M  V30 6395 H 593.615 -0.298773 -0.684648 0
M  V30 6396 H 596.277 -1.37274 -1.38354 0
M  V30 6397 H 595.373 -1.16193 -2.89665 0
M  V30 6398 N 595.674 1.31259 -0.872281 0
M  V30 6399 C 596.606 2.27396 -0.28697 0
M  V30 6400 C 597.619 1.53181 0.551297 0
M  V30 6401 O 598.808 1.74561 0.372914 0
M  V30 6402 C 595.908 3.33335 0.611617 0
M  V30 6403 C 595.081 4.36966 -0.194729 0
M  V30 6404 C 594.14 5.22387 0.632358 0
M  V30 6405 O 593.166 5.69169 0.0595691 0
M  V30 6406 N 594.368 5.46985 1.94391 0
M  V30 6407 H 597.133 2.78261 -1.11314 0
M  V30 6408 H 594.694 1.44306 -0.733994 0
M  V30 6409 H 596.686 3.87398 1.17068 0
M  V30 6410 H 595.256 2.82496 1.33846 0
M  V30 6411 H 594.476 3.82945 -0.935241 0
M  V30 6412 H 595.764 5.03273 -0.747935 0
M  V30 6413 H 595.162 5.10737 2.43237 0
M  V30 6414 H 593.719 6.03973 2.45071 0
M  V30 6415 N 597.152 0.631951 1.44375 0
M  V30 6416 C 598.377 0.142146 2.06912 0
M  V30 6417 C 598.802 -1.17456 1.4692 0
M  V30 6418 O 598.16 -1.72074 0.570975 0
M  V30 6419 C 598.208 0.0417952 3.60576 0
M  V30 6420 O 597.312 -1.00194 4.00044 0
M  V30 6421 H 596.653 0.0851491 0.658518 0
M  V30 6422 H 599.183 0.868863 1.85235 0
M  V30 6423 H 599.193 -0.148517 4.0773 0
M  V30 6424 H 597.868 1.0031 4.03622 0
M  V30 6425 H 596.445 -0.786131 3.64519 0
M  V30 6426 N 598.631 -1.53133 0.372548 0
M  V30 6427 C 599.88 -2.00539 -0.216115 0
M  V30 6428 C 600.193 -1.26374 -1.49295 0
M  V30 6429 O 601.399 -1.64404 -2.16064 0
M  V30 6430 C 599.855 -3.57253 -0.435678 0
M  V30 6431 C 599.463 -4.40302 0.82693 0
M  V30 6432 C 601.207 -4.12995 -0.981618 0
M  V30 6433 C 599.114 -5.88583 0.576567 0
M  V30 6434 H 598.044 -0.749246 -0.084536 0
M  V30 6435 H 600.695 -1.76771 0.492364 0
M  V30 6436 H 599.077 -3.77202 -1.20559 0
M  V30 6437 H 600.251 -4.32124 1.60017 0
M  V30 6438 H 598.566 -3.95699 1.29659 0
M  V30 6439 H 601.163 -5.21418 -1.18436 0
M  V30 6440 H 601.506 -3.68027 -1.94581 0
M  V30 6441 H 602.039 -3.96871 -0.271696 0
M  V30 6442 H 598.778 -6.37841 1.51128 0
M  V30 6443 H 598.298 -5.99592 -0.158047 0
M  V30 6444 H 599.977 -6.46676 0.204722 0
M  V30 6445 N 600.109 -0.101901 -1.5727 0
M  V30 6446 C 601.056 0.854577 -2.14396 0
M  V30 6447 C 602.026 1.27521 -1.06432 0
M  V30 6448 O 603.211 1.35575 -1.34253 0
M  V30 6449 C 600.351 2.10576 -2.73408 0
M  V30 6450 C 599.464 1.73504 -3.95626 0
M  V30 6451 C 598.599 2.9346 -4.42781 0
M  V30 6452 C 597.638 2.52547 -5.57572 0
M  V30 6453 N 596.775 3.65359 -5.99547 0
M  V30 6454 H 601.615 0.360578 -2.9581 0
M  V30 6455 H 599.152 0.166303 -1.46157 0
M  V30 6456 H 601.11 2.83859 -3.05745 0
M  V30 6457 H 599.74 2.57463 -1.94711 0
M  V30 6458 H 598.792 0.901622 -3.6956 0
M  V30 6459 H 600.104 1.39426 -4.78917 0
M  V30 6460 H 599.258 3.74988 -4.76937 0
M  V30 6461 H 597.997 3.30753 -3.58404 0
M  V30 6462 H 597.002 1.69446 -5.23037 0
M  V30 6463 H 598.227 2.1639 -6.43702 0
M  V30 6464 H 596.173 4.02358 -5.18116 0
M  V30 6465 H 596.09 3.35148 -6.77652 0
M  V30 6466 H 597.358 4.47378 -6.38336 0
M  V30 6467 N 601.587 1.56661 0.17182 0
M  V30 6468 C 602.517 1.99401 1.21498 0
M  V30 6469 C 603.498 0.869516 1.46197 0
M  V30 6470 O 604.683 1.13556 1.57539 0
M  V30 6471 C 601.813 2.35346 2.55401 0
M  V30 6472 C 600.767 3.5075 2.45272 0
M  V30 6473 C 600.093 3.72437 3.8366 0
M  V30 6474 C 601.393 4.84216 1.95787 0
M  V30 6475 H 603.087 2.86792 0.859699 0
M  V30 6476 H 600.633 1.37977 0.412103 0
M  V30 6477 H 602.586 2.63843 3.2858 0
M  V30 6478 H 601.31 1.44864 2.92715 0
M  V30 6479 H 599.969 3.2238 1.74547 0
M  V30 6480 H 599.617 2.79246 4.18367 0
M  V30 6481 H 599.317 4.50087 3.77751 0
M  V30 6482 H 600.841 4.03334 4.58426 0
M  V30 6483 H 602.255 5.11592 2.5874 0
M  V30 6484 H 600.652 5.65498 2.00827 0
M  V30 6485 H 601.722 4.76243 0.912159 0
M  V30 6486 N 603.065 -0.440357 1.51323 0
M  V30 6487 C 604.013 -1.55492 1.72988 0
M  V30 6488 C 605.007 -1.58564 0.596138 0
M  V30 6489 O 606.213 -1.62345 0.777443 0
M  V30 6490 H 602.588 -0.516532 0.546533 0
M  V30 6491 H 604.559 -1.34392 2.66423 0
M  V30 6492 C 603.308 -2.93176 1.86931 0
M  V30 6493 H 602.631 -2.91543 2.73574 0
M  V30 6494 H 604.071 -3.70537 2.06103 0
M  V30 6495 C 602.53 -3.30988 0.628365 0
M  V30 6496 O 603.06 -4.01106 -0.218367 0
M  V30 6497 N 601.266 -2.86719 0.473339 0
M  V30 6498 H 600.813 -2.2983 1.16345 0
M  V30 6499 H 600.771 -3.12381 -0.355727 0
M  V30 6500 N 604.543 -1.41418 -0.695603 0
M  V30 6501 C 605.954 -1.36335 -1.27552 0
M  V30 6502 C 606.305 -0.0464336 -1.96145 0
M  V30 6503 O 605.43 0.855304 -1.9878 0
M  V30 6504 C 606.025 -2.46941 -2.3196 0
M  V30 6505 C 604.584 -2.45256 -2.85529 0
M  V30 6506 C 603.731 -2.2679 -1.59566 0
M  V30 6507 H 606.682 -1.50934 -0.490362 0
M  V30 6508 H 606.703 -2.15997 -3.1325 0
M  V30 6509 H 606.215 -3.42775 -1.82008 0
M  V30 6510 H 604.316 -1.53179 -3.39657 0
M  V30 6511 H 604.429 -3.41565 -3.35961 0
M  V30 6512 H 602.793 -1.74667 -1.85374 0
M  V30 6513 H 603.576 -3.24651 -1.1161 0
M  V30 6514 N 606.021 0.929856 -1.27246 0
M  V30 6515 C 606.968 2.03017 -1.09785 0
M  V30 6516 C 607.938 1.661 0.000456744 0
M  V30 6517 O 609.123 1.90116 -0.161462 0
M  V30 6518 C 606.263 3.36878 -0.748816 0
M  V30 6519 C 605.376 3.86763 -1.92453 0
M  V30 6520 C 604.511 5.09061 -1.51758 0
M  V30 6521 C 603.55 5.51237 -2.66091 0
M  V30 6522 N 602.687 6.64732 -2.25999 0
M  V30 6523 H 607.527 2.17285 -2.03939 0
M  V30 6524 H 605.064 1.06448 -1.01524 0
M  V30 6525 H 607.022 4.13855 -0.527283 0
M  V30 6526 H 605.652 3.22424 0.155771 0
M  V30 6527 H 604.704 3.06086 -2.25867 0
M  V30 6528 H 606.016 4.13994 -2.78227 0
M  V30 6529 H 605.17 5.93532 -1.25716 0
M  V30 6530 H 603.909 4.83602 -0.630896 0
M  V30 6531 H 602.914 4.65316 -2.92849 0
M  V30 6532 H 604.139 5.78692 -3.55377 0
M  V30 6533 H 602.085 6.40935 -1.3978 0
M  V30 6534 H 602.002 6.91607 -3.05313 0
M  V30 6535 H 603.27 7.52549 -2.03199 0
M  V30 6536 N 607.499 1.09233 1.13605 0
M  V30 6537 C 608.748 0.82205 1.84188 0
M  V30 6538 C 609.061 -0.654548 1.84323 0
M  V30 6539 O 610.267 -1.04029 2.50779 0
M  V30 6540 C 608.723 1.42066 3.30674 0
M  V30 6541 C 608.331 2.92965 3.38933 0
M  V30 6542 C 610.075 1.22924 4.06313 0
M  V30 6543 C 607.982 3.45922 4.79679 0
M  V30 6544 H 606.912 0.303854 0.690064 0
M  V30 6545 H 609.563 1.31479 1.28006 0
M  V30 6546 H 607.945 0.855613 3.86646 0
M  V30 6547 H 609.119 3.55679 2.92966 0
M  V30 6548 H 607.434 3.11118 2.76757 0
M  V30 6549 H 610.031 1.59945 5.10217 0
M  V30 6550 H 610.374 0.169726 4.15954 0
M  V30 6551 H 610.907 1.76168 3.56665 0
M  V30 6552 H 607.646 4.51484 4.75229 0
M  V30 6553 H 607.166 2.87971 5.26149 0
M  V30 6554 H 608.845 3.43009 5.48592 0
M  V30 6555 N 608.977 -1.30795 0.87923 0
M  V30 6556 C 610.226 -1.95636 0.490875 0
M  V30 6557 C 610.539 -1.70214 -0.963674 0
M  V30 6558 O 611.745 -2.28991 -1.45861 0
M  V30 6559 C 610.201 -3.50271 0.826929 0
M  V30 6560 C 609.809 -3.84521 2.29886 0
M  V30 6561 C 611.553 -4.21456 0.507494 0
M  V30 6562 C 609.46 -5.32309 2.57685 0
M  V30 6563 H 608.39 -0.732238 0.179841 0
M  V30 6564 H 611.041 -1.48829 1.07341 0
M  V30 6565 H 609.423 -3.9562 0.173542 0
M  V30 6566 H 610.597 -3.50102 2.99609 0
M  V30 6567 H 608.912 -3.26425 2.58526 0
M  V30 6568 H 611.509 -5.30199 0.692293 0
M  V30 6569 H 611.852 -4.12614 -0.552718 0
M  V30 6570 H 612.385 -3.81772 1.11782 0
M  V30 6571 H 609.124 -5.46195 3.62424 0
M  V30 6572 H 608.644 -5.68048 1.92566 0
M  V30 6573 H 610.323 -5.99678 2.42889 0
M  V30 6574 N 610.455 -0.639598 -1.44038 0
M  V30 6575 C 611.732 -0.078012 -1.95444 0
M  V30 6576 C 612.112 1.39847 -1.58133 0
M  V30 6577 O 611.46 2.11714 -0.859614 0
M  V30 6578 C 611.67 -0.309832 -3.47622 0
M  V30 6579 C 613.018 -0.207521 -4.24093 0
M  V30 6580 O 614.042 -0.241653 -3.55379 0
M  V30 6581 O 612.901 -0.119641 -5.46369 0
M  V30 6582 H 609.995 0.0174534 -0.826816 0
M  V30 6583 H 612.541 -0.711891 -1.54046 0
M  V30 6584 H 611.313 -1.33401 -3.67858 0
M  V30 6585 H 610.936 0.357777 -3.95987 0
M  V30 6586 N 611.933 1.52934 -0.380664 0
M  V30 6587 C 613.158 2.06363 0.207157 0
M  V30 6588 C 613.583 1.25122 1.4045 0
M  V30 6589 O 612.941 0.274062 1.79217 0
M  V30 6590 C 612.989 3.56162 0.563996 0
M  V30 6591 O 612.093 3.77552 1.65917 0
M  V30 6592 H 611.434 0.663468 0.0265859 0
M  V30 6593 H 613.964 1.9719 -0.545635 0
M  V30 6594 H 613.974 3.99453 0.830752 0
M  V30 6595 H 612.649 4.14732 -0.311427 0
M  V30 6596 H 611.226 3.46154 1.3868 0
M  V30 6597 N 613.412 0.11024 1.57214 0
M  V30 6598 C 614.661 -0.549638 1.94067 0
M  V30 6599 C 614.974 -1.68388 0.995234 0
M  V30 6600 O 616.18 -2.40593 1.25807 0
M  V30 6601 C 614.636 -1.02912 3.44873 0
M  V30 6602 C 614.244 0.0761861 4.47935 0
M  V30 6603 C 615.988 -1.66087 3.9066 0
M  V30 6604 C 613.895 -0.419502 5.8991 0
M  V30 6605 H 612.825 -0.209092 0.724428 0
M  V30 6606 H 615.476 0.188683 1.82527 0
M  V30 6607 H 613.858 -1.82159 3.51616 0
M  V30 6608 H 615.032 0.852185 4.52851 0
M  V30 6609 H 613.347 0.614052 4.11847 0
M  V30 6610 H 615.944 -2.04272 4.94143 0
M  V30 6611 H 616.287 -2.53591 3.30148 0
M  V30 6612 H 616.82 -0.933959 3.86681 0
M  V30 6613 H 613.559 0.419277 6.54158 0
M  V30 6614 H 613.079 -1.16217 5.88433 0
M  V30 6615 H 614.758 -0.883577 6.40938 0
M  V30 6616 N 614.89 -1.56749 -0.16351 0
M  V30 6617 C 616.301 -1.72039 -0.725216 0
M  V30 6618 C 616.652 -0.72202 -1.82432 0
M  V30 6619 O 615.777 0.114942 -2.16095 0
M  V30 6620 C 616.372 -3.11932 -1.32227 0
M  V30 6621 C 614.931 -3.28879 -1.83072 0
M  V30 6622 C 614.078 -2.67984 -0.712716 0
M  V30 6623 H 617.029 -1.58579 0.0619772 0
M  V30 6624 H 617.05 -3.11015 -2.19202 0
M  V30 6625 H 616.562 -3.84572 -0.522103 0
M  V30 6626 H 614.663 -2.61209 -2.65708 0
M  V30 6627 H 614.776 -4.36688 -1.97079 0
M  V30 6628 H 613.14 -2.28005 -1.13515 0
M  V30 6629 H 613.923 -3.43216 0.0757361 0
M  V30 6630 N 616.368 0.432326 -1.51554 0
M  V30 6631 C 617.645 1.19288 -1.55015 0
M  V30 6632 C 618.025 2.08701 -0.317375 0
M  V30 6633 O 617.373 2.17602 0.697243 0
M  V30 6634 C 617.583 1.99037 -2.86679 0
M  V30 6635 C 618.931 2.55907 -3.38817 0
M  V30 6636 O 619.955 2.09243 -2.88263 0
M  V30 6637 O 618.814 3.41029 -4.27038 0
M  V30 6638 H 615.908 0.543369 -0.623441 0
M  V30 6639 H 618.454 0.440988 -1.6387 0
M  V30 6640 H 617.226 1.33397 -3.6786 0
M  V30 6641 H 616.849 2.81281 -2.8101 0
M  V30 6642 N 617.846 1.41785 0.688094 0
M  V30 6643 C 618.793 1.44221 1.80191 0
M  V30 6644 C 619.763 0.295688 1.63447 0
M  V30 6645 O 620.948 0.49783 1.84191 0
M  V30 6646 C 618.088 1.33743 3.1813 0
M  V30 6647 C 617.201 2.58325 3.46254 0
M  V30 6648 C 616.336 2.40086 4.73848 0
M  V30 6649 C 615.375 3.60107 4.94964 0
M  V30 6650 N 614.512 3.40892 6.13789 0
M  V30 6651 H 619.352 2.39411 1.77444 0
M  V30 6652 H 616.889 1.18876 0.866423 0
M  V30 6653 H 618.847 1.25669 3.97823 0
M  V30 6654 H 617.477 0.42157 3.20035 0
M  V30 6655 H 616.529 2.7682 2.60912 0
M  V30 6656 H 617.841 3.4758 3.57756 0
M  V30 6657 H 616.995 2.29522 5.61609 0
M  V30 6658 H 615.734 1.483 4.64606 0
M  V30 6659 H 614.739 3.71118 4.05649 0
M  V30 6660 H 615.964 4.52857 5.06061 0
M  V30 6661 H 613.91 2.51812 6.05745 0
M  V30 6662 H 613.827 4.23727 6.26092 0
M  V30 6663 H 615.095 3.34114 7.04264 0
M  V30 6664 N 619.324 -0.923095 1.27737 0
M  V30 6665 C 620.572 -1.66797 1.14119 0
M  V30 6666 C 620.893 -1.92479 -0.312541 0
M  V30 6667 O 620.163 -1.53432 -1.218 0
M  V30 6668 H 618.743 -0.618196 0.419336 0
M  V30 6669 H 621.405 -1.10815 1.60331 0
M  V30 6670 H 620.501 -2.63424 1.67374 0
M  V30 6671 N 620.802 -1.09834 -1.13024 0
M  V30 6672 C 621.732 -0.763451 -2.20666 0
M  V30 6673 C 622.713 0.260778 -1.68089 0
M  V30 6674 O 623.898 0.127915 -1.93778 0
M  V30 6675 C 621.028 -0.187744 -3.46792 0
M  V30 6676 C 619.982 -1.14196 -4.12484 0
M  V30 6677 C 619.308 -0.427755 -5.32986 0
M  V30 6678 C 620.608 -2.48607 -4.59338 0
M  V30 6679 H 622.302 -1.66347 -2.48936 0
M  V30 6680 H 619.848 -0.801261 -1.19649 0
M  V30 6681 H 621.801 0.0586375 -4.21359 0
M  V30 6682 H 620.525 0.747485 -3.17931 0
M  V30 6683 H 619.184 -1.37369 -3.3989 0
M  V30 6684 H 618.832 0.511747 -5.0039 0
M  V30 6685 H 618.532 -1.06403 -5.77886 0
M  V30 6686 H 620.056 -0.189772 -6.10305 0
M  V30 6687 H 621.47 -2.29618 -5.25308 0
M  V30 6688 H 619.867 -3.08062 -5.14993 0
M  V30 6689 H 620.937 -3.09062 -3.73642 0
M  V30 6690 N 622.28 1.30327 -0.886154 0
M  V30 6691 C 623.526 1.96388 -0.505941 0
M  V30 6692 C 623.859 1.69784 0.942712 0
M  V30 6693 O 623.134 1.00322 1.6663 0
M  V30 6694 C 623.417 3.51488 -0.782826 0
M  V30 6695 C 623.27 3.87603 -2.28219 0
M  V30 6696 C 624.589 4.39331 -0.260128 0
M  V30 6697 H 621.708 0.713327 -0.185292 0
M  V30 6698 H 624.35 1.54178 -1.11036 0
M  V30 6699 H 622.5 3.87572 -0.268399 0
M  V30 6700 H 624.172 3.61537 -2.86512 0
M  V30 6701 H 622.415 3.3563 -2.74837 0
M  V30 6702 H 623.086 4.95806 -2.42653 0
M  V30 6703 H 625.562 4.10162 -0.700444 0
M  V30 6704 H 624.438 5.46769 -0.483179 0
M  V30 6705 H 624.699 4.34072 0.838674 0
M  V30 6706 N 623.758 0.647228 1.43697 0
M  V30 6707 C 624.668 -0.0487997 2.34549 0
M  V30 6708 C 625.684 -0.818586 1.53542 0
M  V30 6709 O 626.86 -0.767195 1.86215 0
M  V30 6710 C 623.925 -1.00734 3.31743 0
M  V30 6711 C 622.986 -0.23515 4.28655 0
M  V30 6712 C 622.219 -1.14803 5.21206 0
M  V30 6713 O 622.442 -2.38717 5.18045 0
M  V30 6714 O 621.376 -0.623667 5.9866 0
M  V30 6715 H 625.202 0.698863 2.9555 0
M  V30 6716 H 622.787 0.407412 1.43738 0
M  V30 6717 H 624.669 -1.55837 3.91526 0
M  V30 6718 H 623.344 -1.73534 2.73254 0
M  V30 6719 H 622.251 0.359319 3.7237 0
M  V30 6720 H 623.584 0.453152 4.9011 0
M  V30 6721 N 625.236 -1.5273 0.388769 0
M  V30 6722 C 626.183 -2.26437 -0.446639 0
M  V30 6723 C 627.153 -1.28025 -1.05824 0
M  V30 6724 O 628.338 -1.56852 -1.08637 0
M  V30 6725 C 625.478 -3.07407 -1.56828 0
M  V30 6726 C 624.591 -4.20747 -0.979589 0
M  V30 6727 C 623.726 -4.89113 -2.07224 0
M  V30 6728 C 622.765 -5.94447 -1.45942 0
M  V30 6729 N 621.902 -6.56411 -2.49135 0
M  V30 6730 H 626.742 -2.97404 0.18837 0
M  V30 6731 H 624.279 -1.46727 0.104725 0
M  V30 6732 H 626.237 -3.52642 -2.22934 0
M  V30 6733 H 624.867 -2.3865 -2.17361 0
M  V30 6734 H 623.919 -3.7983 -0.208151 0
M  V30 6735 H 625.231 -4.9637 -0.491747 0
M  V30 6736 H 624.385 -5.3765 -2.81101 0
M  V30 6737 H 623.124 -4.13013 -2.59368 0
M  V30 6738 H 622.129 -5.4525 -0.705894 0
M  V30 6739 H 623.354 -6.7248 -0.945932 0
M  V30 6740 H 621.3 -5.83152 -3.00449 0
M  V30 6741 H 621.217 -7.27645 -2.05105 0
M  V30 6742 H 622.485 -7.09592 -3.22644 0
M  V30 6743 N 626.714 -0.118576 -1.57153 0
M  V30 6744 C 627.963 0.539339 -1.94355 0
M  V30 6745 C 628.276 1.67858 -1.00415 0
M  V30 6746 O 629.482 2.39922 -1.27081 0
M  V30 6747 C 627.938 1.01082 -3.45414 0
M  V30 6748 C 627.546 -0.0999402 -4.47889 0
M  V30 6749 C 629.29 1.64013 -3.91535 0
M  V30 6750 C 627.197 0.388212 -5.90124 0
M  V30 6751 H 626.127 0.205247 -0.725527 0
M  V30 6752 H 628.778 -0.19836 -1.82425 0
M  V30 6753 H 627.16 1.80292 -3.52577 0
M  V30 6754 H 628.334 -0.876189 -4.52393 0
M  V30 6755 H 626.649 -0.635885 -4.11516 0
M  V30 6756 H 629.246 2.01649 -4.95219 0
M  V30 6757 H 629.589 2.51836 -3.31488 0
M  V30 6758 H 630.122 0.913439 -3.87171 0
M  V30 6759 H 626.861 -0.453963 -6.53926 0
M  V30 6760 H 626.381 1.13095 -5.89041 0
M  V30 6761 H 628.06 0.849574 -6.41398 0
M  V30 6762 N 628.193 1.56834 0.155195 0
M  V30 6763 C 629.439 1.83169 0.870467 0
M  V30 6764 C 629.772 0.698929 1.81187 0
M  V30 6765 O 629.047 -0.298035 1.92203 0
M  V30 6766 C 629.33 3.19965 1.65211 0
M  V30 6767 C 629.183 4.43792 0.732744 0
M  V30 6768 C 630.502 3.53885 2.61636 0
M  V30 6769 H 627.621 0.666288 0.315006 0
M  V30 6770 H 630.263 1.89513 0.135988 0
M  V30 6771 H 628.413 3.14687 2.27825 0
M  V30 6772 H 630.085 4.61148 0.118236 0
M  V30 6773 H 628.328 4.3378 0.0417906 0
M  V30 6774 H 628.999 5.36095 1.31552 0
M  V30 6775 H 631.475 3.5972 2.09143 0
M  V30 6776 H 630.351 4.50648 3.13381 0
M  V30 6777 H 630.612 2.79418 3.42605 0
M  V30 6778 N 629.671 -0.424282 1.51781 0
M  V30 6779 C 630.618 -1.51591 1.74037 0
M  V30 6780 C 631.588 -1.55556 0.582358 0
M  V30 6781 O 632.773 -1.72364 0.818245 0
M  V30 6782 C 629.913 -2.89188 1.8832 0
M  V30 6783 C 629.026 -2.9465 3.1592 0
M  V30 6784 C 628.161 -4.23452 3.20721 0
M  V30 6785 C 627.2 -4.22831 4.42584 0
M  V30 6786 N 626.337 -5.43178 4.44862 0
M  V30 6787 H 631.177 -1.31917 2.67212 0
M  V30 6788 H 628.714 -0.640599 1.32419 0
M  V30 6789 H 630.672 -3.69044 1.94583 0
M  V30 6790 H 629.302 -3.07392 0.985402 0
M  V30 6791 H 628.354 -2.07378 3.18902 0
M  V30 6792 H 629.666 -2.90055 4.05795 0
M  V30 6793 H 628.82 -5.1169 3.25973 0
M  V30 6794 H 627.559 -4.30722 2.28757 0
M  V30 6795 H 626.564 -3.32984 4.37495 0
M  V30 6796 H 627.789 -4.17213 5.35826 0
M  V30 6797 H 625.735 -5.51145 3.55775 0
M  V30 6798 H 625.652 -5.40515 5.28563 0
M  V30 6799 H 626.92 -6.33412 4.54324 0
M  V30 6800 N 631.149 -1.42148 -0.680565 0
M  V30 6801 C 632.396 -1.4231 -1.44063 0
M  V30 6802 C 632.724 -0.037488 -1.94464 0
M  V30 6803 O 631.979 0.953184 -1.70918 0
M  V30 6804 C 632.278 -2.38945 -2.65782 0
M  V30 6805 C 631.944 -3.85455 -2.33956 0
M  V30 6806 C 630.606 -4.25364 -2.24987 0
M  V30 6807 C 632.958 -4.77895 -2.08004 0
M  V30 6808 C 630.286 -5.55701 -1.88184 0
M  V30 6809 C 632.638 -6.08568 -1.72706 0
M  V30 6810 C 631.302 -6.47482 -1.62244 0
M  V30 6811 H 630.572 -0.520748 -0.527164 0
M  V30 6812 H 633.219 -1.7505 -0.776524 0
M  V30 6813 H 631.524 -1.99511 -3.37198 0
M  V30 6814 H 633.221 -2.36336 -3.23954 0
M  V30 6815 H 629.811 -3.53855 -2.41836 0
M  V30 6816 H 633.995 -4.47854 -2.1387 0
M  V30 6817 H 629.251 -5.84718 -1.78648 0
M  V30 6818 H 633.425 -6.79688 -1.5165 0
M  V30 6819 H 631.052 -7.48387 -1.33496 0
M  V30 6820 N 632.627 0.916307 -1.28225 0
M  V30 6821 C 633.867 1.67964 -1.16479 0
M  V30 6822 C 634.231 1.8991 0.282494 0
M  V30 6823 O 635.432 2.63671 0.522607 0
M  V30 6824 C 633.703 3.00251 -1.93866 0
M  V30 6825 S 635.262 3.91353 -1.98465 0
M  V30 6826 H 632.08 0.576873 -0.415619 0
M  V30 6827 H 634.682 1.09006 -1.62289 0
M  V30 6828 H 633.386 2.81978 -2.98189 0
M  V30 6829 H 632.917 3.64257 -1.48595 0
M  V30 6830 H 634.932 4.84096 -1.0893 0
M  V30 6831 N 634.105 1.10431 1.1244 0
M  V30 6832 C 635.052 0.753103 2.18167 0
M  V30 6833 C 636.022 -0.270549 1.63882 0
M  V30 6834 O 637.207 -0.149837 1.90211 0
M  V30 6835 C 634.347 0.191046 3.44571 0
M  V30 6836 C 633.46 1.26999 4.12911 0
M  V30 6837 C 632.595 0.669586 5.26963 0
M  V30 6838 C 631.634 1.72912 5.87169 0
M  V30 6839 N 630.771 1.14898 6.92635 0
M  V30 6840 H 635.611 1.65892 2.47556 0
M  V30 6841 H 633.148 0.828631 1.21541 0
M  V30 6842 H 635.106 -0.152712 4.1692 0
M  V30 6843 H 633.736 -0.677997 3.15599 0
M  V30 6844 H 632.788 1.73087 3.3874 0
M  V30 6845 H 634.1 2.07204 4.53727 0
M  V30 6846 H 633.254 0.275274 6.06075 0
M  V30 6847 H 631.993 -0.163895 4.87425 0
M  V30 6848 H 630.998 2.13286 5.06744 0
M  V30 6849 H 632.223 2.56544 6.28778 0
M  V30 6850 H 630.169 0.336956 6.55134 0
M  V30 6851 H 630.086 1.88786 7.32049 0
M  V30 6852 H 631.354 0.78121 7.75576 0
M  V30 6853 N 635.583 -1.29855 0.893053 0
M  V30 6854 C 636.808 -2.00512 0.530066 0
M  V30 6855 C 637.233 -1.66446 -0.876199 0
M  V30 6856 O 636.591 -0.885446 -1.58207 0
M  V30 6857 C 636.639 -3.53308 0.721505 0
M  V30 6858 O 635.743 -4.11764 -0.228994 0
M  V30 6859 H 635.084 -0.630617 0.207891 0
M  V30 6860 H 637.614 -1.6551 1.20282 0
M  V30 6861 H 637.624 -4.03206 0.623599 0
M  V30 6862 H 636.299 -3.77439 1.74678 0
M  V30 6863 H 634.876 -3.72805 -0.0841034 0
M  V30 6864 N 637.061 -0.65484 -1.43351 0
M  V30 6865 C 638.307 -0.169142 -2.02093 0
M  V30 6866 C 638.64 1.21431 -1.51553 0
M  V30 6867 O 637.915 1.81105 -0.709317 0
M  V30 6868 C 638.198 -0.181775 -3.59641 0
M  V30 6869 C 638.051 -1.59926 -4.20409 0
M  V30 6870 C 639.37 0.480945 -4.37464 0
M  V30 6871 H 636.489 -0.0629371 -0.734308 0
M  V30 6872 H 639.131 -0.835833 -1.70628 0
M  V30 6873 H 637.281 0.385918 -3.86578 0
M  V30 6874 H 638.953 -2.21766 -4.04497 0
M  V30 6875 H 637.196 -2.14605 -3.76998 0
M  V30 6876 H 637.867 -1.55994 -5.295 0
M  V30 6877 H 640.343 -0.00208273 -4.161 0
M  V30 6878 H 639.219 0.441384 -5.47122 0
M  V30 6879 H 639.48 1.55533 -4.13838 0
M  V30 6880 N 638.539 1.52521 -0.396863 0
M  V30 6881 C 639.788 2.00857 0.184184 0
M  V30 6882 C 640.101 1.28733 1.47265 0
M  V30 6883 O 641.307 1.67821 2.13421 0
M  V30 6884 C 639.763 3.57901 0.378787 0
M  V30 6885 C 639.371 4.38931 -0.896873 0
M  V30 6886 C 641.115 4.14504 0.915789 0
M  V30 6887 C 639.022 5.87591 -0.670133 0
M  V30 6888 H 637.952 0.750496 0.0726055 0
M  V30 6889 H 640.603 1.75965 -0.520425 0
M  V30 6890 H 638.985 3.79072 1.14543 0
M  V30 6891 H 640.159 4.29524 -1.66872 0
M  V30 6892 H 638.474 3.93586 -1.35938 0
M  V30 6893 H 641.071 5.23236 1.10126 0
M  V30 6894 H 641.414 3.71076 1.88701 0
M  V30 6895 H 641.947 3.97253 0.208523 0
M  V30 6896 H 638.686 6.35355 -1.61257 0
M  V30 6897 H 638.206 5.99767 0.0626368 0
M  V30 6898 H 639.885 6.46268 -0.307577 0
M  V30 6899 N 640.017 0.126909 1.57088 0
M  V30 6900 C 641.428 -0.397201 1.82426 0
M  V30 6901 C 641.779 -1.66084 1.04453 0
M  V30 6902 O 640.904 -2.14534 0.283552 0
M  V30 6903 C 641.499 -0.727411 3.30899 0
M  V30 6904 C 640.058 -1.19612 3.56889 0
M  V30 6905 C 639.205 -0.20885 2.76512 0
M  V30 6906 H 642.156 0.351924 1.54749 0
M  V30 6907 H 642.177 -1.58407 3.45959 0
M  V30 6908 H 641.689 0.19247 3.87622 0
M  V30 6909 H 639.79 -2.13263 3.05532 0
M  V30 6910 H 639.903 -1.13598 4.65438 0
M  V30 6911 H 638.267 -0.697479 2.44964 0
M  V30 6912 H 639.05 0.704267 3.35998 0
M  V30 6913 N 641.495 -1.56914 -0.146875 0
M  V30 6914 C 642.911 -1.51582 -0.499518 0
M  V30 6915 C 643.111 -0.83535 -1.83369 0
M  V30 6916 O 642.167 -0.405932 -2.49216 0
M  V30 6917 C 643.48 -2.96349 -0.509711 0
M  V30 6918 C 645.028 -3.07288 -0.595217 0
M  V30 6919 C 645.503 -4.53562 -0.636071 0
M  V30 6920 N 646.994 -4.57906 -0.69829 0
M  V30 6921 C 647.729 -5.68462 -0.750886 0
M  V30 6922 N 647.225 -6.88588 -0.76282 0
M  V30 6923 N 649.018 -5.56496 -0.791777 0
M  V30 6924 H 641.169 -1.99547 0.727656 0
M  V30 6925 H 643.432 -0.910113 0.265327 0
M  V30 6926 H 643.138 -3.4939 0.402409 0
M  V30 6927 H 643.012 -3.52307 -1.34758 0
M  V30 6928 H 645.399 -2.54266 -1.49776 0
M  V30 6929 H 645.48 -2.54373 0.2698 0
M  V30 6930 H 645.124 -5.07222 0.262313 0
M  V30 6931 H 645.054 -5.04259 -1.51758 0
M  V30 6932 H 647.545 -3.71429 -0.696362 0
M  V30 6933 H 647.858 -7.68598 -0.804804 0
M  V30 6934 H 646.203 -6.91148 -0.730694 0
M  V30 6935 H 649.394 -4.61562 -0.779624 0
M  V30 6936 H 649.567 -6.42671 -0.829301 0
M  V30 6937 N 642.974 0.416227 -1.52004 0
M  V30 6938 C 643.921 1.50666 -1.74838 0
M  V30 6939 C 644.891 1.55245 -0.590599 0
M  V30 6940 O 646.076 1.71928 -0.827374 0
M  V30 6941 C 643.216 2.88185 -1.89851 0
M  V30 6942 C 642.329 2.92971 -3.17478 0
M  V30 6943 C 641.464 4.21745 -3.22962 0
M  V30 6944 C 640.503 4.20478 -4.4482 0
M  V30 6945 N 639.64 5.40811 -4.47736 0
M  V30 6946 H 644.48 1.30498 -2.67907 0
M  V30 6947 H 642.017 0.633568 -1.32757 0
M  V30 6948 H 643.975 3.68007 -1.96537 0
M  V30 6949 H 642.605 3.06865 -1.00169 0
M  V30 6950 H 641.657 2.05684 -3.19997 0
M  V30 6951 H 642.969 2.87899 -4.07328 0
M  V30 6952 H 642.123 5.09954 -3.28682 0
M  V30 6953 H 640.862 4.29503 -2.31038 0
M  V30 6954 H 639.867 3.30659 -4.39254 0
M  V30 6955 H 641.092 4.14366 -5.38031 0
M  V30 6956 H 639.038 5.4925 -3.58692 0
M  V30 6957 H 638.955 5.37705 -5.31422 0
M  V30 6958 H 640.223 6.30993 -4.57676 0
M  V30 6959 N 644.452 1.42507 0.673017 0
M  V30 6960 C 645.7 1.42789 1.43023 0
M  V30 6961 C 646.021 0.0459738 1.94946 0
M  V30 6962 O 645.291 -0.915765 1.73178 0
M  V30 6963 H 643.871 0.525657 0.530748 0
M  V30 6964 H 646.533 1.77944 0.795113 0
M  V30 6965 H 645.629 2.12872 2.28237 0
M  V30 6966 N 645.93 -0.909495 1.28709 0
M  V30 6967 C 647.158 -1.69272 1.18973 0
M  V30 6968 C 647.573 -1.87123 -0.251048 0
M  V30 6969 O 646.93 -1.40127 -1.16922 0
M  V30 6970 C 646.981 -3.08257 1.88839 0
M  V30 6971 O 646.702 -2.91228 3.27289 0
M  V30 6972 C 648.203 -4.02642 1.85457 0
M  V30 6973 H 645.423 -0.528999 0.412797 0
M  V30 6974 H 647.967 -1.13803 1.69909 0
M  V30 6975 H 646.122 -3.6053 1.41762 0
M  V30 6976 H 646.536 -3.79223 3.6234 0
M  V30 6977 H 648.01 -4.97613 2.38925 0
M  V30 6978 H 648.487 -4.31327 0.827893 0
M  V30 6979 H 649.093 -3.56298 2.32233 0
M  V30 6980 N 647.408 -1.11026 -1.11852 0
M  V30 6981 C 648.355 -0.764662 -2.17765 0
M  V30 6982 C 649.325 0.261854 -1.64023 0
M  V30 6983 O 650.51 0.139748 -1.90288 0
M  V30 6984 C 647.65 -0.209317 -3.44465 0
M  V30 6985 C 646.763 -1.29187 -4.12231 0
M  V30 6986 C 645.898 -0.697523 -5.266 0
M  V30 6987 C 644.937 -1.76023 -5.86244 0
M  V30 6988 N 644.074 -1.18569 -6.92016 0
M  V30 6989 H 648.914 -1.67202 -2.46673 0
M  V30 6990 H 646.451 -0.835065 -1.21099 0
M  V30 6991 H 648.409 0.130599 -4.16996 0
M  V30 6992 H 647.039 0.661251 -3.15955 0
M  V30 6993 H 646.091 -1.74881 -3.37818 0
M  V30 6994 H 647.403 -2.09607 -4.52622 0
M  V30 6995 H 646.557 -0.307412 -6.05921 0
M  V30 6996 H 645.296 0.138044 -4.87505 0
M  V30 6997 H 644.301 -2.1597 -5.05606 0
M  V30 6998 H 645.526 -2.59875 -6.27409 0
M  V30 6999 H 643.472 -0.371695 -6.54946 0
M  V30 7000 H 643.389 -1.92666 -7.31038 0
M  V30 7001 H 644.657 -0.82233 -7.7515 0
M  V30 7002 N 648.886 1.2938 -0.899927 0
M  V30 7003 C 649.849 2.25983 -0.382677 0
M  V30 7004 C 650.849 1.53366 0.483259 0
M  V30 7005 O 652.039 1.71798 0.28828 0
M  V30 7006 C 649.171 3.37878 0.452915 0
M  V30 7007 H 650.364 2.73252 -1.23586 0
M  V30 7008 H 647.917 1.40825 -0.678088 0
M  V30 7009 H 648.652 2.95949 1.32608 0
M  V30 7010 H 648.437 3.91742 -0.167562 0
M  V30 7011 H 649.927 4.09746 0.806107 0
M  V30 7012 N 650.364 0.662433 1.43002 0
M  V30 7013 C 651.775 0.258315 1.84904 0
M  V30 7014 C 652.126 -1.19703 1.55453 0
M  V30 7015 O 651.251 -1.91484 1.00811 0
M  V30 7016 C 651.846 0.462047 3.35635 0
M  V30 7017 C 650.405 0.112165 3.76233 0
M  V30 7018 C 649.552 0.760479 2.66668 0
M  V30 7019 H 652.503 0.865467 1.33024 0
M  V30 7020 H 652.524 -0.289646 3.79396 0
M  V30 7021 H 652.036 1.52135 3.57039 0
M  V30 7022 H 650.137 -0.944179 3.60439 0
M  V30 7023 H 650.25 0.544058 4.76001 0
M  V30 7024 H 648.614 0.192887 2.53969 0
M  V30 7025 H 649.397 1.82299 2.90898 0
M  V30 7026 N 651.842 -1.52309 0.404946 0
M  V30 7027 C 653.253 -1.86585 -0.0655926 0
M  V30 7028 C 653.604 -1.3239 -1.44801 0
M  V30 7029 O 652.729 -0.6615 -2.06042 0
M  V30 7030 C 653.324 -3.38566 -0.125801 0
M  V30 7031 C 651.883 -3.72497 -0.540666 0
M  V30 7032 C 651.03 -2.75806 0.287487 0
M  V30 7033 H 653.981 -1.45995 0.622185 0
M  V30 7034 H 654.002 -3.68658 -0.941888 0
M  V30 7035 H 653.514 -3.77981 0.880473 0
M  V30 7036 H 651.615 -3.38659 -1.55373 0
M  V30 7037 H 651.728 -4.78234 -0.287956 0
M  V30 7038 H 650.092 -2.53474 -0.249561 0
M  V30 7039 H 650.875 -3.18059 1.29203 0
M  V30 7040 N 653.32 -0.135238 -1.57019 0
M  V30 7041 C 654.736 0.221262 -1.58059 0
M  V30 7042 C 654.936 1.65538 -1.14889 0
M  V30 7043 O 653.992 2.37985 -0.843751 0
M  V30 7044 C 655.305 -0.0268114 -3.00688 0
M  V30 7045 C 656.853 0.0378206 -3.12977 0
M  V30 7046 C 657.328 -0.182769 -4.57635 0
M  V30 7047 N 658.819 -0.129292 -4.6302 0
M  V30 7048 C 659.554 -0.274648 -5.72742 0
M  V30 7049 N 659.05 -0.477075 -6.91155 0
M  V30 7050 N 660.843 -0.213077 -5.61696 0
M  V30 7051 H 652.994 -1.07177 -1.83376 0
M  V30 7052 H 655.257 -0.423338 -0.848227 0
M  V30 7053 H 654.963 -1.01889 -3.36618 0
M  V30 7054 H 654.837 0.697863 -3.70688 0
M  V30 7055 H 657.224 1.02043 -2.76896 0
M  V30 7056 H 657.305 -0.718996 -2.45487 0
M  V30 7057 H 656.949 -1.16243 -4.94419 0
M  V30 7058 H 656.879 0.59423 -5.23237 0
M  V30 7059 H 659.37 0.0229896 -3.77893 0
M  V30 7060 H 659.683 -0.578413 -7.70632 0
M  V30 7061 H 658.028 -0.513252 -6.93102 0
M  V30 7062 H 661.219 -0.0557796 -4.68067 0
M  V30 7063 H 661.392 -0.329796 -6.4716 0
M  V30 7064 N 654.798 1.5699 0.138552 0
M  V30 7065 C 655.728 2.01933 1.17241 0
M  V30 7066 C 656.709 0.90033 1.44319 0
M  V30 7067 O 657.894 1.16872 1.55095 0
M  V30 7068 C 655.024 2.40711 2.50351 0
M  V30 7069 C 653.978 3.55874 2.37776 0
M  V30 7070 C 653.304 3.80491 3.75674 0
M  V30 7071 C 654.604 4.8826 1.85472 0
M  V30 7072 H 656.298 2.88551 0.798672 0
M  V30 7073 H 653.844 1.3882 0.382743 0
M  V30 7074 H 655.797 2.70754 3.22909 0
M  V30 7075 H 654.521 1.5104 2.89576 0
M  V30 7076 H 653.18 3.2601 1.67669 0
M  V30 7077 H 652.828 2.88057 4.12349 0
M  V30 7078 H 652.528 4.57998 3.68119 0
M  V30 7079 H 654.052 4.12967 4.49767 0
M  V30 7080 H 655.466 5.16965 2.4783 0
M  V30 7081 H 653.863 5.69631 1.88787 0
M  V30 7082 H 654.933 4.78071 0.810935 0
M  V30 7083 N 656.276 -0.40816 1.52223 0
M  V30 7084 C 657.516 -1.16418 1.68006 0
M  V30 7085 C 657.88 -1.87749 0.401793 0
M  V30 7086 O 659.081 -2.65245 0.435743 0
M  V30 7087 C 657.352 -2.13143 2.86889 0
M  V30 7088 S 658.911 -2.96839 3.2316 0
M  V30 7089 H 655.729 -0.394373 0.5916 0
M  V30 7090 H 658.331 -0.451349 1.90219 0
M  V30 7091 H 657.035 -1.59428 3.78168 0
M  V30 7092 H 656.566 -2.88963 2.66953 0
M  V30 7093 H 658.581 -4.151 2.71857 0
M  V30 7094 N 657.755 -1.42862 -0.66545 0
M  V30 7095 C 659.004 -1.43119 -1.42126 0
M  V30 7096 C 659.317 -0.0545297 -1.95524 0
M  V30 7097 O 660.523 0.0654747 -2.71421 0
M  V30 7098 C 658.979 -2.51797 -2.5715 0
M  V30 7099 C 658.587 -3.95514 -2.10411 0
M  V30 7100 C 660.331 -2.61233 -3.346 0
M  V30 7101 C 658.238 -4.95682 -3.22573 0
M  V30 7102 H 657.168 -0.532349 -0.533966 0
M  V30 7103 H 659.819 -1.68806 -0.719506 0
M  V30 7104 H 658.201 -2.19292 -3.29738 0
M  V30 7105 H 659.375 -4.3742 -1.44915 0
M  V30 7106 H 657.69 -3.90012 -1.45874 0
M  V30 7107 H 660.287 -3.33248 -4.18151 0
M  V30 7108 H 660.63 -1.65896 -3.81817 0
M  V30 7109 H 661.163 -2.9298 -2.69087 0
M  V30 7110 H 657.902 -5.92529 -2.80338 0
M  V30 7111 H 657.422 -4.58399 -3.86821 0
M  V30 7112 H 659.101 -5.17828 -3.87896 0
M  V30 7113 N 659.233 0.902656 -1.29189 0
M  V30 7114 C 660.649 1.18296 -1.07137 0
M  V30 7115 C 660.849 2.00701 0.179223 0
M  V30 7116 O 659.905 2.3675 0.877812 0
M  V30 7117 C 661.218 1.90677 -2.32514 0
M  V30 7118 C 662.766 2.03515 -2.37804 0
M  V30 7119 C 663.241 2.79307 -3.62976 0
M  V30 7120 N 664.732 2.86862 -3.63681 0
M  V30 7121 C 665.467 3.46035 -4.57217 0
M  V30 7122 N 664.963 4.06399 -5.61081 0
M  V30 7123 N 666.756 3.43681 -4.44792 0
M  V30 7124 H 658.907 0.352765 -2.0945 0
M  V30 7125 H 661.17 0.21876 -0.922414 0
M  V30 7126 H 660.876 1.3756 -3.23682 0
M  V30 7127 H 660.75 2.91169 -2.39793 0
M  V30 7128 H 663.137 2.55809 -1.47125 0
M  V30 7129 H 663.218 1.02166 -2.34512 0
M  V30 7130 H 662.862 2.2769 -4.54004 0
M  V30 7131 H 662.792 3.80995 -3.63525 0
M  V30 7132 H 665.283 2.43987 -2.88581 0
M  V30 7133 H 665.596 4.49564 -6.2858 0
M  V30 7134 H 663.941 4.0487 -5.64894 0
M  V30 7135 H 667.132 2.9574 -3.62843 0
M  V30 7136 H 667.305 3.89503 -5.17872 0
M  V30 7137 N 660.711 1.11618 1.11262 0
M  V30 7138 C 661.957 0.867463 1.83311 0
M  V30 7139 C 662.29 -0.605366 1.84524 0
M  V30 7140 O 661.565 -1.44704 1.29965 0
M  V30 7141 C 661.848 1.43207 3.30399 0
M  V30 7142 C 661.701 2.97265 3.3757 0
M  V30 7143 C 663.02 1.08454 4.26528 0
M  V30 7144 H 660.139 0.316578 0.665543 0
M  V30 7145 H 662.781 1.38137 1.30454 0
M  V30 7146 H 660.931 0.994982 3.75543 0
M  V30 7147 H 662.603 3.49591 3.00971 0
M  V30 7148 H 660.846 3.33237 2.77733 0
M  V30 7149 H 661.517 3.31859 4.41105 0
M  V30 7150 H 663.993 1.4619 3.89574 0
M  V30 7151 H 662.869 1.50633 5.27826 0
M  V30 7152 H 663.13 -0.00444568 4.421 0
M  V30 7153 N 662.189 -1.289 0.906776 0
M  V30 7154 C 663.137 -2.29477 0.379873 0
M  V30 7155 C 664.131 -1.61068 -0.524747 0
M  V30 7156 O 665.337 -1.75344 -0.406765 0
M  V30 7157 H 661.712 -0.744742 0.10423 0
M  V30 7158 H 663.683 -2.71353 1.24137 0
M  V30 7159 C 662.432 -3.45713 -0.371154 0
M  V30 7160 H 661.755 -3.98551 0.315716 0
M  V30 7161 H 663.195 -4.18105 -0.704581 0
M  V30 7162 C 661.654 -2.9774 -1.57646 0
M  V30 7163 O 662.184 -2.99618 -2.67567 0
M  V30 7164 N 660.39 -2.53485 -1.42105 0
M  V30 7165 H 659.937 -2.52156 -0.526783 0
M  V30 7166 H 659.895 -2.21747 -2.22881 0
M  V30 7167 N 663.667 -0.670007 -1.42649 0
M  V30 7168 C 664.615 0.0230106 -2.32589 0
M  V30 7169 C 665.609 0.795585 -1.49555 0
M  V30 7170 O 666.815 0.70409 -1.65658 0
M  V30 7171 H 663.19 0.0262342 -0.751542 0
M  V30 7172 H 665.161 -0.753009 -2.88743 0
M  V30 7173 C 663.91 0.963872 -3.34073 0
M  V30 7174 H 663.233 0.378813 -3.98001 0
M  V30 7175 H 664.673 1.41755 -3.99602 0
M  V30 7176 C 663.132 2.06797 -2.65964 0
M  V30 7177 O 663.662 3.15383 -2.48789 0
M  V30 7178 N 661.868 1.83831 -2.25066 0
M  V30 7179 H 661.415 0.955235 -2.39234 0
M  V30 7180 H 661.373 2.57895 -1.79827 0
M  V30 7181 N 665.145 1.52092 -0.413018 0
M  V30 7182 C 666.37 2.06756 0.163338 0
M  V30 7183 C 666.795 1.28073 1.37764 0
M  V30 7184 O 666.153 0.312015 1.78595 0
M  V30 7185 C 666.201 3.57278 0.488322 0
M  V30 7186 O 665.305 3.80986 1.57871 0
M  V30 7187 H 664.646 0.663882 0.0125068 0
M  V30 7188 H 667.176 1.95988 -0.587339 0
M  V30 7189 H 667.186 4.01125 0.745836 0
M  V30 7190 H 665.861 4.13978 -0.399327 0
M  V30 7191 H 664.438 3.49017 1.31306 0
M  V30 7192 N 666.623 0.143563 1.56945 0
M  V30 7193 C 667.533 -0.810562 2.20152 0
M  V30 7194 C 668.549 -1.27431 1.1848 0
M  V30 7195 O 669.725 -1.33221 1.51044 0
M  V30 7196 C 666.79 -2.03353 2.80799 0
M  V30 7197 C 665.851 -1.61936 3.97587 0
M  V30 7198 C 665.084 -2.78403 4.55332 0
M  V30 7199 O 665.307 -3.94521 4.11958 0
M  V30 7200 O 664.241 -2.54073 5.45647 0
M  V30 7201 H 668.067 -0.30253 3.02189 0
M  V30 7202 H 665.652 -0.0832925 1.49168 0
M  V30 7203 H 667.534 -2.74932 3.19359 0
M  V30 7204 H 666.209 -2.53116 2.01777 0
M  V30 7205 H 665.116 -0.873904 3.6375 0
M  V30 7206 H 666.449 -1.16892 4.78118 0
M  V30 7207 N 668.101 -1.57061 -0.130224 0
M  V30 7208 C 669.031 -2.02552 -1.16168 0
M  V30 7209 C 670.012 -0.907971 -1.4384 0
M  V30 7210 O 671.197 -1.17693 -1.54473 0
M  V30 7211 C 668.327 -2.42035 -2.49071 0
M  V30 7212 C 667.281 -3.5713 -2.35886 0
M  V30 7213 C 666.607 -3.82478 -3.7365 0
M  V30 7214 C 667.907 -4.89236 -1.8288 0
M  V30 7215 H 669.601 -2.8897 -0.783359 0
M  V30 7216 H 667.147 -1.39021 -0.375376 0
M  V30 7217 H 669.1 -2.72462 -3.21469 0
M  V30 7218 H 667.824 -1.52573 -2.88771 0
M  V30 7219 H 666.483 -3.26895 -1.65938 0
M  V30 7220 H 666.131 -2.9024 -4.10816 0
M  V30 7221 H 665.831 -4.59944 -3.65685 0
M  V30 7222 H 667.355 -4.15347 -4.47571 0
M  V30 7223 H 668.769 -5.18272 -2.45085 0
M  V30 7224 H 667.166 -5.70624 -1.85763 0
M  V30 7225 H 668.236 -4.78494 -0.785571 0
M  V30 7226 N 669.579 0.400081 -1.52437 0
M  V30 7227 C 670.826 1.14619 -1.6694 0
M  V30 7228 C 671.154 1.90262 -0.403797 0
M  V30 7229 O 670.409 1.85835 0.61351 0
M  V30 7230 C 670.708 2.15914 -2.84808 0
M  V30 7231 C 670.374 1.57011 -4.2268 0
M  V30 7232 C 669.036 1.40672 -4.60179 0
M  V30 7233 C 671.388 1.14081 -5.08562 0
M  V30 7234 C 668.716 0.799335 -5.81229 0
M  V30 7235 C 671.068 0.547573 -6.30226 0
M  V30 7236 C 669.732 0.371389 -6.66466 0
M  V30 7237 H 669.002 0.419419 -0.610875 0
M  V30 7238 H 671.649 0.432227 -1.86558 0
M  V30 7239 H 669.954 2.93488 -2.59561 0
M  V30 7240 H 671.651 2.73533 -2.93225 0
M  V30 7241 H 668.241 1.70713 -3.93135 0
M  V30 7242 H 672.425 1.2551 -4.80168 0
M  V30 7243 H 667.681 0.65093 -6.07925 0
M  V30 7244 H 671.855 0.206575 -6.96094 0
M  V30 7245 H 669.482 -0.10135 -7.60132 0
M  V30 7246 N 671.057 1.43213 0.657864 0
M  V30 7247 C 672.304 1.44584 1.41781 0
M  V30 7248 C 672.632 0.0684208 1.9438 0
M  V30 7249 O 671.887 -0.925872 1.72413 0
M  V30 7250 C 672.186 2.43143 2.61947 0
M  V30 7251 C 671.852 3.89128 2.27794 0
M  V30 7252 C 670.514 4.28889 2.18191 0
M  V30 7253 C 672.866 4.81144 2.00375 0
M  V30 7254 C 670.194 5.58625 1.79319 0
M  V30 7255 C 672.546 6.11239 1.63003 0
M  V30 7256 C 671.21 6.49981 1.51922 0
M  V30 7257 H 670.48 0.529069 0.518813 0
M  V30 7258 H 673.127 1.76263 0.748577 0
M  V30 7259 H 671.432 2.04851 3.33981 0
M  V30 7260 H 673.129 2.4146 3.20153 0
M  V30 7261 H 669.719 3.57657 2.36176 0
M  V30 7262 H 673.903 4.512 2.06718 0
M  V30 7263 H 669.159 5.87486 1.69323 0
M  V30 7264 H 673.333 6.82014 1.40817 0
M  V30 7265 H 670.96 7.50416 1.21572 0
M  V30 7266 N 672.536 -0.895792 1.29666 0
M  V30 7267 C 673.782 -1.64908 1.18039 0
M  V30 7268 C 674.115 -1.9236 -0.266682 0
M  V30 7269 O 673.39 -1.53682 -1.19214 0
M  V30 7270 C 673.673 -2.99574 1.99819 0
M  V30 7271 C 673.526 -2.79163 3.52687 0
M  V30 7272 C 674.845 -4.00358 1.82761 0
M  V30 7273 H 671.964 -0.598437 0.430165 0
M  V30 7274 H 674.606 -1.03736 1.59182 0
M  V30 7275 H 672.756 -3.51786 1.64859 0
M  V30 7276 H 674.428 -2.33821 3.9765 0
M  V30 7277 H 672.671 -2.13871 3.77414 0
M  V30 7278 H 673.342 -3.74871 4.05186 0
M  V30 7279 H 675.818 -3.57268 2.13304 0
M  V30 7280 H 674.694 -4.92514 2.42325 0
M  V30 7281 H 674.955 -4.35096 0.783839 0
M  V30 7282 N 674.014 -1.12206 -1.10668 0
M  V30 7283 C 674.977 -0.790867 -2.15123 0
M  V30 7284 C 675.977 0.193618 -1.5963 0
M  V30 7285 O 677.167 -0.0318728 -1.74171 0
M  V30 7286 C 674.299 -0.174797 -3.40452 0
M  V30 7287 H 675.492 -1.7163 -2.45933 0
M  V30 7288 H 673.045 -0.924993 -1.2599 0
M  V30 7289 H 673.78 0.760478 -3.15257 0
M  V30 7290 H 673.565 -0.88358 -3.82015 0
M  V30 7291 H 675.055 0.0405162 -4.1758 0
M  V30 7292 N 675.492 1.28418 -0.913599 0
M  V30 7293 C 676.717 1.99643 -0.561899 0
M  V30 7294 C 677.142 1.67819 0.849608 0
M  V30 7295 O 676.5 0.910503 1.56779 0
M  V30 7296 C 676.548 3.52116 -0.777622 0
M  V30 7297 O 675.652 4.12076 0.163457 0
M  V30 7298 H 674.993 0.627229 -0.217898 0
M  V30 7299 H 677.523 1.63575 -1.229 0
M  V30 7300 H 677.533 4.02163 -0.687666 0
M  V30 7301 H 676.208 3.74613 -1.8066 0
M  V30 7302 H 674.785 3.72892 0.0247827 0
M  V30 7303 N 676.97 0.677563 1.42291 0
M  V30 7304 C 677.88 0.000962654 2.346 0
M  V30 7305 C 678.896 -0.785833 1.55244 0
M  V30 7306 O 680.072 -0.727523 1.87801 0
M  V30 7307 C 677.137 -0.936746 3.33805 0
M  V30 7308 C 676.198 -0.144173 4.29058 0
M  V30 7309 C 675.431 -1.03722 5.23524 0
M  V30 7310 O 675.654 -2.27675 5.22992 0
M  V30 7311 O 674.588 -0.496542 5.99848 0
M  V30 7312 H 678.414 0.761397 2.94001 0
M  V30 7313 H 675.999 0.43781 1.42841 0
M  V30 7314 H 677.881 -1.47497 3.94744 0
M  V30 7315 H 676.556 -1.67698 2.76874 0
M  V30 7316 H 675.463 0.438224 3.71524 0
M  V30 7317 H 676.796 0.55701 4.89038 0
M  V30 7318 N 678.448 -1.51871 0.421078 0
M  V30 7319 C 679.673 -2.0684 -0.152371 0
M  V30 7320 C 680.098 -1.28802 -1.37083 0
M  V30 7321 O 679.456 -0.321482 -1.78427 0
M  V30 7322 C 679.504 -3.57532 -0.469368 0
M  V30 7323 O 678.608 -3.81818 -1.55848 0
M  V30 7324 H 677.949 -0.663939 -0.00898586 0
M  V30 7325 H 680.479 -1.95674 0.597724 0
M  V30 7326 H 680.489 -4.01515 -0.724553 0
M  V30 7327 H 679.164 -4.13761 0.421276 0
M  V30 7328 H 677.741 -3.49709 -1.29453 0
M  V30 7329 N 679.926 -0.151884 -1.56866 0
M  V30 7330 C 681.151 0.508044 -2.01081 0
M  V30 7331 C 681.576 1.57306 -1.03134 0
M  V30 7332 O 680.934 1.81298 -0.0078309 0
M  V30 7333 C 680.982 1.08106 -3.44014 0
M  V30 7334 O 680.086 2.19577 -3.49084 0
M  V30 7335 H 679.427 0.123757 -0.652365 0
M  V30 7336 H 681.957 -0.250055 -2.03066 0
M  V30 7337 H 681.967 1.40851 -3.82916 0
M  V30 7338 H 680.642 0.301168 -4.14808 0
M  V30 7339 H 679.219 1.88023 -3.22027 0
M  V30 7340 N 681.404 1.57128 0.121893 0
M  V30 7341 C 682.634 1.88609 0.843227 0
M  V30 7342 C 683.042 0.740917 1.74089 0
M  V30 7343 O 682.385 -0.297426 1.81276 0
M  V30 7344 C 682.447 3.15073 1.73117 0
M  V30 7345 C 682.111 4.45742 1.0081 0
M  V30 7346 C 683.108 5.18719 0.350255 0
M  V30 7347 C 680.793 4.92444 0.99014 0
M  V30 7348 C 682.787 6.36617 -0.315889 0
M  V30 7349 C 680.474 6.10261 0.320196 0
M  V30 7350 C 681.472 6.82194 -0.331666 0
M  V30 7351 O 681.16 7.97769 -0.990927 0
M  V30 7352 H 680.892 0.628919 0.247865 0
M  V30 7353 H 683.446 2.05096 0.111725 0
M  V30 7354 H 681.676 2.9466 2.50424 0
M  V30 7355 H 683.365 3.32597 2.32667 0
M  V30 7356 H 684.131 4.83693 0.35577 0
M  V30 7357 H 680.01 4.36361 1.48695 0
M  V30 7358 H 683.554 6.92701 -0.825272 0
M  V30 7359 H 679.451 6.44743 0.312433 0
M  V30 7360 H 680.219 8.13591 -0.895113 0
M  V30 7361 N 682.882 -0.391992 1.52647 0
M  V30 7362 C 683.83 -1.4991 1.77848 0
M  V30 7363 C 684.824 -1.56587 0.646282 0
M  V30 7364 O 686.03 -1.59789 0.828698 0
M  V30 7365 H 682.405 -0.498883 0.56269 0
M  V30 7366 H 684.376 -1.25847 2.70564 0
M  V30 7367 C 683.125 -2.87081 1.96163 0
M  V30 7368 H 682.448 -2.82692 2.82711 0
M  V30 7369 H 683.888 -3.63792 2.17787 0
M  V30 7370 C 682.347 -3.28822 0.733348 0
M  V30 7371 O 682.877 -4.01598 -0.0906481 0
M  V30 7372 N 681.083 -2.85068 0.564317 0
M  V30 7373 H 680.63 -2.26012 1.23598 0
M  V30 7374 H 680.588 -3.13355 -0.256166 0
M  V30 7375 N 684.36 -1.4356 -0.65026 0
M  V30 7376 C 685.27 -1.514 -1.79207 0
M  V30 7377 C 686.286 -0.400895 -1.69319 0
M  V30 7378 O 687.462 -0.655458 -1.90436 0
M  V30 7379 C 684.527 -1.43737 -3.155 0
M  V30 7380 C 683.588 -2.65743 -3.37163 0
M  V30 7381 C 682.821 -2.58436 -4.66954 0
M  V30 7382 O 683.044 -1.63374 -5.46503 0
M  V30 7383 O 681.978 -3.48984 -4.90402 0
M  V30 7384 H 685.804 -2.47825 -1.75547 0
M  V30 7385 H 683.389 -1.25594 -0.809111 0
M  V30 7386 H 685.271 -1.41916 -3.96784 0
M  V30 7387 H 683.946 -0.504488 -3.19745 0
M  V30 7388 H 682.853 -2.73136 -2.55632 0
M  V30 7389 H 684.186 -3.58014 -3.37768 0
M  V30 7390 N 685.838 0.888903 -1.30139 0
M  V30 7391 C 686.786 2.0156 -1.16088 0
M  V30 7392 C 687.78 1.69239 -0.0737413 0
M  V30 7393 O 688.986 1.78468 -0.234313 0
M  V30 7394 H 685.361 0.660825 -0.358907 0
M  V30 7395 H 687.332 2.10547 -2.11453 0
M  V30 7396 C 686.081 3.36758 -0.865426 0
M  V30 7397 H 685.404 3.62137 -1.69402 0
M  V30 7398 H 686.844 4.16246 -0.807192 0
M  V30 7399 C 685.303 3.34124 0.431577 0
M  V30 7400 O 685.833 3.7445 1.45431 0
M  V30 7401 N 684.039 2.87229 0.441321 0
M  V30 7402 H 683.586 2.54609 -0.391433 0
M  V30 7403 H 683.544 2.8585 1.30909 0
M  V30 7404 N 687.317 1.12792 1.10072 0
M  V30 7405 C 688.594 0.796867 1.78632 0
M  V30 7406 C 688.974 -0.712739 1.98704 0
M  V30 7407 O 688.322 -1.64773 1.5831 0
M  V30 7408 C 688.532 1.57622 3.11378 0
M  V30 7409 C 689.88 1.76463 3.86194 0
M  V30 7410 O 690.904 1.54165 3.2111 0
M  V30 7411 O 689.763 2.13623 5.03018 0
M  V30 7412 H 686.857 0.290248 0.774394 0
M  V30 7413 H 689.403 1.23215 1.16688 0
M  V30 7414 H 688.175 2.60246 2.92212 0
M  V30 7415 H 687.798 1.13543 3.81043 0
M  V30 7416 N 688.795 -1.27931 0.920396 0
M  V30 7417 C 690.044 -1.93975 0.552867 0
M  V30 7418 C 690.357 -1.73193 -0.909035 0
M  V30 7419 O 691.563 -2.33515 -1.38502 0
M  V30 7420 C 690.019 -3.47463 0.937947 0
M  V30 7421 C 689.627 -3.77013 2.42003 0
M  V30 7422 C 691.371 -4.19628 0.64132 0
M  V30 7423 C 689.278 -5.23841 2.74489 0
M  V30 7424 H 688.208 -0.726146 0.203046 0
M  V30 7425 H 690.859 -1.45339 1.12022 0
M  V30 7426 H 689.241 -3.94867 0.299317 0
M  V30 7427 H 690.415 -3.40393 3.10595 0
M  V30 7428 H 688.73 -3.18035 2.6878 0
M  V30 7429 H 691.327 -5.27729 0.860622 0
M  V30 7430 H 691.67 -4.14164 -0.421168 0
M  V30 7431 H 692.203 -3.78022 1.23872 0
M  V30 7432 H 688.942 -5.34388 3.79618 0
M  V30 7433 H 688.462 -5.61634 2.1054 0
M  V30 7434 H 690.141 -5.91647 2.61845 0
M  V30 7435 N 690.273 -0.685099 -1.4193 0
M  V30 7436 C 691.221 -0.00165985 -2.326 0
M  V30 7437 C 692.215 0.779678 -1.50391 0
M  V30 7438 O 693.421 0.68648 -1.66395 0
M  V30 7439 H 689.796 0.0182616 -0.751778 0
M  V30 7440 H 691.767 -0.783592 -2.87928 0
M  V30 7441 C 690.516 0.928385 -3.35077 0
M  V30 7442 H 689.839 0.336578 -3.98381 0
M  V30 7443 H 691.279 1.37509 -4.01083 0
M  V30 7444 C 689.738 2.03964 -2.68142 0
M  V30 7445 O 690.268 3.12727 -2.5212 0
M  V30 7446 N 688.474 1.81433 -2.27003 0
M  V30 7447 H 688.021 0.929807 -2.40234 0
M  V30 7448 H 687.979 2.55973 -1.82552 0
M  V30 7449 N 691.751 1.51645 -0.429126 0
M  V30 7450 C 692.979 2.06433 0.138994 0
M  V30 7451 C 693.394 1.29735 1.37165 0
M  V30 7452 O 692.751 0.354638 1.79021 0
M  V30 7453 C 692.802 3.58439 0.469452 0
M  V30 7454 O 692.523 4.32238 -0.714273 0
M  V30 7455 C 694.024 4.29712 1.08914 0
M  V30 7456 H 691.244 0.6709 0.0115608 0
M  V30 7457 H 693.788 1.9532 -0.605843 0
M  V30 7458 H 691.943 3.69494 1.16419 0
M  V30 7459 H 692.357 5.22704 -0.433633 0
M  V30 7460 H 693.831 5.37182 1.27042 0
M  V30 7461 H 694.308 3.87473 2.06788 0
M  V30 7462 H 694.914 4.2308 0.434028 0
M  V30 7463 N 693.229 0.160201 1.56784 0
M  V30 7464 C 694.64 -0.358417 1.83227 0
M  V30 7465 C 694.991 -1.63831 1.07952 0
M  V30 7466 O 694.116 -2.13885 0.328995 0
M  V30 7467 C 694.711 -0.657058 3.32368 0
M  V30 7468 C 693.27 -1.12015 3.59346 0
M  V30 7469 C 692.417 -0.15015 2.76893 0
M  V30 7470 H 695.368 0.384669 1.53967 0
M  V30 7471 H 695.389 -1.51033 3.49241 0
M  V30 7472 H 694.901 0.274647 3.87127 0
M  V30 7473 H 693.002 -2.06734 3.09987 0
M  V30 7474 H 693.115 -1.037 4.67743 0
M  V30 7475 H 691.479 -0.645361 2.46388 0
M  V30 7476 H 692.262 0.775379 3.34429 0
M  V30 7477 N 694.707 -1.5719 -0.113559 0
M  V30 7478 C 695.654 -2.00736 -1.13901 0
M  V30 7479 C 696.624 -0.88044 -1.40846 0
M  V30 7480 O 697.809 -1.14507 -1.5262 0
M  V30 7481 C 694.949 -2.42132 -2.45899 0
M  V30 7482 C 694.062 -3.68264 -2.25844 0
M  V30 7483 C 693.197 -3.98617 -3.5111 0
M  V30 7484 C 692.236 -5.17915 -3.26236 0
M  V30 7485 N 691.373 -5.44111 -4.4372 0
M  V30 7486 H 696.213 -2.88128 -0.760677 0
M  V30 7487 H 693.75 -1.42523 -0.364099 0
M  V30 7488 H 695.708 -2.6417 -3.22908 0
M  V30 7489 H 694.338 -1.57775 -2.81615 0
M  V30 7490 H 693.39 -3.53809 -1.39726 0
M  V30 7491 H 694.702 -4.55425 -2.03444 0
M  V30 7492 H 693.856 -4.21333 -4.36536 0
M  V30 7493 H 692.595 -3.09942 -3.76546 0
M  V30 7494 H 691.6 -4.95038 -2.39202 0
M  V30 7495 H 692.825 -6.08172 -3.02165 0
M  V30 7496 H 690.771 -4.58394 -4.69266 0
M  V30 7497 H 690.688 -6.25606 -4.24444 0
M  V30 7498 H 691.956 -5.71351 -5.30263 0
M  V30 7499 N 696.185 0.383891 -1.52853 0
M  V30 7500 C 697.095 1.49343 -1.80925 0
M  V30 7501 C 698.111 1.59458 -0.696348 0
M  V30 7502 O 699.287 1.75698 -0.984481 0
M  V30 7503 C 696.352 2.84819 -1.97684 0
M  V30 7504 C 695.413 2.84382 -3.21598 0
M  V30 7505 C 694.646 4.13397 -3.37548 0
M  V30 7506 O 694.869 5.08619 -2.58192 0
M  V30 7507 O 693.803 4.20325 -4.30826 0
M  V30 7508 H 697.629 1.2855 -2.75152 0
M  V30 7509 H 695.214 0.572229 -1.38007 0
M  V30 7510 H 697.096 3.65125 -2.10385 0
M  V30 7511 H 695.771 3.05627 -1.06647 0
M  V30 7512 H 694.678 2.0284 -3.14336 0
M  V30 7513 H 696.011 2.68526 -4.12498 0
M  V30 7514 N 697.663 1.43903 0.642637 0
M  V30 7515 C 698.912 1.45362 1.39831 0
M  V30 7516 C 699.225 0.0856289 1.95412 0
M  V30 7517 O 700.431 -0.0222856 2.71491 0
M  V30 7518 C 698.887 2.55857 2.53111 0
M  V30 7519 C 698.495 3.98811 2.04092 0
M  V30 7520 C 700.239 2.66524 3.30402 0
M  V30 7521 C 698.146 5.00751 3.14647 0
M  V30 7522 H 697.076 0.540777 0.52543 0
M  V30 7523 H 699.727 1.69929 0.692559 0
M  V30 7524 H 698.109 2.2451 3.26207 0
M  V30 7525 H 699.283 4.3967 1.37938 0
M  V30 7526 H 697.598 3.92284 1.39651 0
M  V30 7527 H 700.195 3.39858 4.12796 0
M  V30 7528 H 700.538 1.71949 3.79129 0
M  V30 7529 H 701.071 2.97224 2.64392 0
M  V30 7530 H 697.81 5.96914 2.70876 0
M  V30 7531 H 697.33 4.64495 3.79479 0
M  V30 7532 H 699.009 5.23933 3.79609 0
M  V30 7533 N 699.141 -0.881989 1.30609 0
M  V30 7534 C 700.418 -1.61563 1.10258 0
M  V30 7535 C 700.798 -2.08228 -0.347053 0
M  V30 7536 O 700.146 -1.85151 -1.33908 0
M  V30 7537 C 700.356 -2.78287 2.10612 0
M  V30 7538 C 701.704 -3.48545 2.4249 0
M  V30 7539 O 702.728 -2.88479 2.08945 0
M  V30 7540 O 701.587 -4.56873 2.99883 0
M  V30 7541 H 698.681 -0.710238 0.423663 0
M  V30 7542 H 701.227 -0.928503 1.42045 0
M  V30 7543 H 699.999 -2.41131 3.08174 0
M  V30 7544 H 699.622 -3.54695 1.79659 0
M  V30 7545 N 700.619 -1.13374 -1.09472 0
M  V30 7546 C 701.896 -0.806329 -1.78207 0
M  V30 7547 C 702.276 0.702191 -1.99079 0
M  V30 7548 O 701.624 1.63931 -1.59182 0
M  V30 7549 C 701.834 -1.59271 -3.10538 0
M  V30 7550 C 703.182 -1.78509 -3.85253 0
M  V30 7551 O 704.206 -1.55866 -3.20288 0
M  V30 7552 O 703.065 -2.16287 -5.01879 0
M  V30 7553 H 700.159 -0.29435 -0.772843 0
M  V30 7554 H 702.705 -1.23833 -1.16033 0
M  V30 7555 H 701.477 -2.61792 -2.90828 0
M  V30 7556 H 701.1 -1.15562 -3.80436 0
M  V30 7557 N 702.098 1.27442 -0.927168 0
M  V30 7558 C 703.326 1.98498 -0.583622 0
M  V30 7559 C 703.741 1.69171 0.838241 0
M  V30 7560 O 703.098 0.951969 1.55704 0
M  V30 7561 C 703.149 3.52552 -0.799341 0
M  V30 7562 O 702.87 3.80851 -2.16527 0
M  V30 7563 C 704.371 4.4086 -0.464436 0
M  V30 7564 H 701.591 0.633487 -0.221213 0
M  V30 7565 H 704.135 1.62308 -1.24404 0
M  V30 7566 H 702.29 3.86955 -0.185728 0
M  V30 7567 H 702.704 4.75441 -2.21487 0
M  V30 7568 H 704.178 5.47967 -0.666075 0
M  V30 7569 H 704.655 4.35082 0.599995 0
M  V30 7570 H 705.261 4.11977 -1.05617 0
M  V30 7571 N 703.576 0.692616 1.41565 0
M  V30 7572 C 704.804 0.231279 2.05603 0
M  V30 7573 C 705.219 -1.11837 1.52111 0
M  V30 7574 O 704.576 -1.6983 0.66813 0
M  V30 7575 C 704.627 0.177125 3.61066 0
M  V30 7576 O 704.348 1.47346 4.12578 0
M  V30 7577 C 705.849 -0.30556 4.42246 0
M  V30 7578 H 703.069 0.108238 0.662213 0
M  V30 7579 H 705.613 0.944369 1.81389 0
M  V30 7580 H 703.768 -0.486769 3.8433 0
M  V30 7581 H 704.182 1.35861 5.06599 0
M  V30 7582 H 705.656 -0.29233 5.51225 0
M  V30 7583 H 706.133 -1.34393 4.18133 0
M  V30 7584 H 706.739 0.327229 4.24039 0
M  V30 7585 N 705.054 -1.51416 0.437162 0
M  V30 7586 C 706.002 -2.29328 -0.388765 0
M  V30 7587 C 706.996 -1.35171 -1.02104 0
M  V30 7588 O 708.202 -1.52513 -0.956024 0
M  V30 7589 H 704.577 -0.738048 -0.144183 0
M  V30 7590 H 706.548 -2.96995 0.289212 0
M  V30 7591 C 705.297 -3.14741 -1.47761 0
M  V30 7592 H 704.62 -3.8708 -1.00045 0
M  V30 7593 H 706.06 -3.72313 -2.02877 0
M  V30 7594 C 704.519 -2.30105 -2.46076 0
M  V30 7595 O 705.049 -1.96055 -3.50607 0
M  V30 7596 N 703.255 -1.93331 -2.1696 0
M  V30 7597 H 702.802 -2.2122 -1.31983 0
M  V30 7598 H 702.76 -1.36999 -2.82982 0
M  V30 7599 N 706.532 -0.168513 -1.56696 0
M  V30 7600 C 707.462 0.758563 -2.20835 0
M  V30 7601 C 708.443 1.24121 -1.1631 0
M  V30 7602 O 709.628 1.29487 -1.4473 0
M  V30 7603 C 706.758 1.9892 -2.8469 0
M  V30 7604 C 705.712 1.64252 -3.95228 0
M  V30 7605 C 705.038 2.94757 -4.46119 0
M  V30 7606 C 706.338 0.872675 -5.14958 0
M  V30 7607 H 708.032 0.223953 -2.98561 0
M  V30 7608 H 705.578 0.106277 -1.43607 0
M  V30 7609 H 707.531 2.64275 -3.28233 0
M  V30 7610 H 706.255 2.5479 -2.04327 0
M  V30 7611 H 704.914 1.01266 -3.52336 0
M  V30 7612 H 704.562 3.48662 -3.62552 0
M  V30 7613 H 704.262 2.72316 -5.2069 0
M  V30 7614 H 705.786 3.61147 -4.92347 0
M  V30 7615 H 707.2 1.42875 -5.55211 0
M  V30 7616 H 705.597 0.747402 -5.95428 0
M  V30 7617 H 706.667 -0.131535 -4.84722 0
M  V30 7618 N 708.01 1.57248 0.105221 0
M  V30 7619 C 708.958 2.02337 1.14728 0
M  V30 7620 C 709.952 0.922652 1.42069 0
M  V30 7621 O 711.158 1.10785 1.41869 0
M  V30 7622 H 707.533 0.644682 0.387155 0
M  V30 7623 H 709.504 2.89063 0.740607 0
M  V30 7624 C 708.253 2.45513 2.46209 0
M  V30 7625 H 707.576 3.29785 2.26013 0
M  V30 7626 H 709.016 2.80846 3.1765 0
M  V30 7627 C 707.475 1.3243 3.09781 0
M  V30 7628 O 708.005 0.647841 3.96442 0
M  V30 7629 N 706.211 1.07785 2.69872 0
M  V30 7630 H 705.758 1.62973 1.99493 0
M  V30 7631 H 705.716 0.323204 3.12734 0
M  V30 7632 N 709.488 -0.375779 1.53054 0
M  V30 7633 C 710.436 -1.48015 1.79428 0
M  V30 7634 C 711.43 -1.55893 0.662854 0
M  V30 7635 O 712.636 -1.58901 0.845599 0
M  V30 7636 H 709.011 -0.492887 0.56795 0
M  V30 7637 H 710.982 -1.22971 2.71884 0
M  V30 7638 C 709.731 -2.84984 1.99197 0
M  V30 7639 H 709.054 -2.79677 2.85693 0
M  V30 7640 H 710.494 -3.61462 2.21633 0
M  V30 7641 C 708.953 -3.28025 0.768183 0
M  V30 7642 O 709.483 -4.01671 -0.0480482 0
M  V30 7643 N 707.689 -2.84454 0.594521 0
M  V30 7644 H 707.236 -2.24688 1.25988 0
M  V30 7645 H 707.194 -3.13609 -0.222916 0
M  V30 7646 N 710.966 -1.44241 -0.634997 0
M  V30 7647 C 711.914 -1.51103 -1.76835 0
M  V30 7648 C 712.908 -0.383051 -1.65012 0
M  V30 7649 O 714.114 -0.557832 -1.71138 0
M  V30 7650 H 710.489 -0.474076 -0.583743 0
M  V30 7651 H 712.46 -2.46499 -1.68169 0
M  V30 7652 C 711.209 -1.4687 -3.15158 0
M  V30 7653 H 710.532 -2.32979 -3.24901 0
M  V30 7654 H 711.972 -1.55731 -3.94365 0
M  V30 7655 C 710.431 -0.188884 -3.3637 0
M  V30 7656 O 710.961 0.742487 -3.94778 0
M  V30 7657 N 709.167 -0.0932516 -2.9045 0
M  V30 7658 H 708.714 -0.852004 -2.43102 0
M  V30 7659 H 708.672 0.762308 -3.05018 0
M  V30 7660 N 712.444 0.87505 -1.31075 0
M  V30 7661 C 713.674 1.65818 -1.2324 0
M  V30 7662 C 714.082 1.8808 0.205536 0
M  V30 7663 O 713.425 1.43548 1.14628 0
M  V30 7664 C 713.487 3.05131 -1.90093 0
M  V30 7665 C 713.151 3.05999 -3.39432 0
M  V30 7666 C 714.148 2.84328 -4.35263 0
M  V30 7667 C 711.833 3.27281 -3.81041 0
M  V30 7668 C 713.827 2.83912 -5.70678 0
M  V30 7669 C 711.514 3.26493 -5.16571 0
M  V30 7670 C 712.512 3.04834 -6.112 0
M  V30 7671 O 712.2 3.03882 -7.44252 0
M  V30 7672 H 711.932 0.52387 -0.427242 0
M  V30 7673 H 714.486 1.10086 -1.73408 0
M  V30 7674 H 712.716 3.62568 -1.34468 0
M  V30 7675 H 714.405 3.65641 -1.76242 0
M  V30 7676 H 715.171 2.67673 -4.04445 0
M  V30 7677 H 711.05 3.43171 -3.07822 0
M  V30 7678 H 714.594 2.66925 -6.44513 0
M  V30 7679 H 710.491 3.42687 -5.47025 0
M  V30 7680 H 711.259 3.19979 -7.53363 0
M  V30 7681 N 713.922 1.13953 1.08869 0
M  V30 7682 C 715.338 0.878924 1.33218 0
M  V30 7683 C 715.538 -0.482478 1.95638 0
M  V30 7684 O 714.594 -1.22778 2.2064 0
M  V30 7685 C 715.907 2.00798 2.23832 0
M  V30 7686 C 717.455 2.04073 2.37325 0
M  V30 7687 C 717.93 3.16258 3.31278 0
M  V30 7688 N 719.421 3.15805 3.38853 0
M  V30 7689 C 720.156 3.99249 4.11567 0
M  V30 7690 N 719.652 4.92721 4.87029 0
M  V30 7691 N 721.445 3.87327 4.0735 0
M  V30 7692 H 713.596 2.01645 0.66731 0
M  V30 7693 H 715.859 0.878395 0.356547 0
M  V30 7694 H 715.565 2.98986 1.85203 0
M  V30 7695 H 715.439 1.92704 3.24261 0
M  V30 7696 H 717.826 1.06495 2.75214 0
M  V30 7697 H 717.907 2.16239 1.36654 0
M  V30 7698 H 717.551 4.14079 2.9411 0
M  V30 7699 H 717.481 3.0133 4.31866 0
M  V30 7700 H 719.972 2.48102 2.8505 0
M  V30 7701 H 720.285 5.52867 5.39961 0
M  V30 7702 H 718.63 4.96723 4.86098 0
M  V30 7703 H 721.821 3.13627 3.475 0
M  V30 7704 H 721.994 4.52585 4.63757 0
M  V30 7705 N 715.4 -1.26948 0.933913 0
M  V30 7706 C 716.348 -2.2862 0.428463 0
M  V30 7707 C 717.342 -1.62144 -0.490464 0
M  V30 7708 O 718.548 -1.76167 -0.36948 0
M  V30 7709 H 714.923 -0.742363 0.120003 0
M  V30 7710 H 716.894 -2.68659 1.29865 0
M  V30 7711 C 715.643 -3.46423 -0.29774 0
M  V30 7712 H 714.966 -3.97792 0.400183 0
M  V30 7713 H 716.406 -4.19505 -0.615736 0
M  V30 7714 C 714.865 -3.01017 -1.51295 0
M  V30 7715 O 715.395 -3.05226 -2.61151 0
M  V30 7716 N 713.601 -2.56442 -1.36696 0
M  V30 7717 H 713.148 -2.53217 -0.473178 0
M  V30 7718 H 713.106 -2.26424 -2.18127 0
M  V30 7719 N 716.879 -0.700114 -1.41195 0
M  V30 7720 C 717.827 -0.0263301 -2.32585 0
M  V30 7721 C 718.821 0.763683 -1.51209 0
M  V30 7722 O 720.027 0.668793 -1.67114 0
M  V30 7723 H 716.402 0.0102869 -0.75193 0
M  V30 7724 H 718.373 -0.814087 -2.8708 0
M  V30 7725 C 717.122 0.892793 -3.36042 0
M  V30 7726 H 716.445 0.294306 -3.98715 0
M  V30 7727 H 717.885 1.33247 -4.02518 0
M  V30 7728 C 716.344 2.01109 -2.7029 0
M  V30 7729 O 716.874 3.10035 -2.55423 0
M  V30 7730 N 715.08 1.79015 -2.28915 0
M  V30 7731 H 714.627 0.904275 -2.41207 0
M  V30 7732 H 714.585 2.54022 -1.85257 0
M  V30 7733 N 718.357 1.51182 -0.445186 0
M  V30 7734 C 719.287 2.30821 0.352686 0
M  V30 7735 C 720.268 1.36576 1.01395 0
M  V30 7736 O 721.453 1.65497 1.01609 0
M  V30 7737 C 718.583 3.15593 1.44976 0
M  V30 7738 C 717.537 4.1818 0.911553 0
M  V30 7739 C 716.863 4.91523 2.10497 0
M  V30 7740 C 718.163 5.22266 -0.059418 0
M  V30 7741 H 719.857 2.97771 -0.311936 0
M  V30 7742 H 717.403 1.43201 -0.151461 0
M  V30 7743 H 719.356 3.70091 2.01521 0
M  V30 7744 H 718.08 2.4648 2.14278 0
M  V30 7745 H 716.739 3.64746 0.368264 0
M  V30 7746 H 716.387 4.18906 2.78437 0
M  V30 7747 H 716.087 5.60898 1.7512 0
M  V30 7748 H 717.611 5.48847 2.6758 0
M  V30 7749 H 719.025 5.71789 0.415985 0
M  V30 7750 H 717.422 5.99213 -0.326152 0
M  V30 7751 H 718.492 4.7461 -0.993631 0
M  V30 7752 N 719.835 0.176821 1.56605 0
M  V30 7753 C 721.112 -0.513365 1.88743 0
M  V30 7754 C 721.492 -1.80929 1.08757 0
M  V30 7755 O 720.84 -2.27765 0.183127 0
M  V30 7756 C 721.05 -0.749925 3.40848 0
M  V30 7757 C 722.398 -1.07747 4.10701 0
M  V30 7758 O 723.422 -0.838277 3.46196 0
M  V30 7759 O 722.281 -1.52901 5.24675 0
M  V30 7760 H 719.375 -0.265296 0.783292 0
M  V30 7761 H 721.921 0.215669 1.68324 0
M  V30 7762 H 720.693 0.16599 3.90948 0
M  V30 7763 H 720.316 -1.53208 3.66897 0
M  V30 7764 N 721.313 -1.57302 -0.09688 0
M  V30 7765 C 722.223 -2.05258 -1.13606 0
M  V30 7766 C 723.239 -0.977137 -1.43972 0
M  V30 7767 O 724.415 -1.29018 -1.54649 0
M  V30 7768 C 721.48 -2.46593 -2.43706 0
M  V30 7769 C 720.541 -3.68322 -2.20538 0
M  V30 7770 C 719.774 -4.07676 -3.44435 0
M  V30 7771 O 719.997 -3.47141 -4.52603 0
M  V30 7772 O 718.931 -5.00641 -3.34129 0
M  V30 7773 H 722.757 -2.94069 -0.758752 0
M  V30 7774 H 720.342 -1.46164 -0.309263 0
M  V30 7775 H 722.224 -2.73814 -3.20318 0
M  V30 7776 H 720.899 -1.6092 -2.80867 0
M  V30 7777 H 719.806 -3.4622 -1.41713 0
M  V30 7778 H 721.139 -4.54769 -1.88271 0
M  V30 7779 N 722.791 0.367657 -1.53252 0
M  V30 7780 C 724.037 1.11216 -1.69584 0
M  V30 7781 C 724.37 1.89026 -0.445269 0
M  V30 7782 O 723.645 1.86342 0.557404 0
M  V30 7783 C 723.928 2.07308 -2.94441 0
M  V30 7784 C 723.781 1.3312 -4.2965 0
M  V30 7785 C 725.1 3.07459 -3.14892 0
M  V30 7786 H 722.219 0.40294 -0.617096 0
M  V30 7787 H 724.861 0.393201 -1.85887 0
M  V30 7788 H 723.011 2.68617 -2.80673 0
M  V30 7789 H 724.683 0.746111 -4.55226 0
M  V30 7790 H 722.926 0.633051 -4.29156 0
M  V30 7791 H 723.597 2.03443 -5.13142 0
M  V30 7792 H 726.073 2.56252 -3.27832 0
M  V30 7793 H 724.949 3.71919 -4.03693 0
M  V30 7794 H 725.21 3.77514 -2.30077 0
M  V30 7795 N 724.269 1.44576 0.627338 0
M  V30 7796 C 725.518 1.46837 1.38281 0
M  V30 7797 C 725.831 0.10635 1.95311 0
M  V30 7798 O 727.037 0.00651084 2.71499 0
M  V30 7799 C 725.493 2.58527 2.50384 0
M  V30 7800 C 725.101 4.00953 1.99851 0
M  V30 7801 C 726.845 2.70013 3.27557 0
M  V30 7802 C 724.752 5.0406 3.09318 0
M  V30 7803 H 723.682 0.546319 0.519664 0
M  V30 7804 H 726.333 1.70654 0.674497 0
M  V30 7805 H 724.715 2.27957 3.23808 0
M  V30 7806 H 725.889 4.41108 1.33267 0
M  V30 7807 H 724.204 3.93743 1.35482 0
M  V30 7808 H 726.801 3.44217 4.09168 0
M  V30 7809 H 727.144 1.75961 3.77284 0
M  V30 7810 H 727.677 3.00011 2.61224 0
M  V30 7811 H 724.416 5.99753 2.6453 0
M  V30 7812 H 723.936 4.68493 3.74532 0
M  V30 7813 H 725.615 5.2793 3.74031 0
M  V30 7814 N 725.747 -0.868086 1.31537 0
M  V30 7815 C 726.677 -1.99131 1.21939 0
M  V30 7816 C 727.658 -1.69768 0.106166 0
M  V30 7817 O 728.843 -1.92006 0.291081 0
M  V30 7818 C 725.973 -3.34676 0.927879 0
M  V30 7819 C 724.927 -3.7835 2.00088 0
M  V30 7820 C 724.253 -5.11375 1.56203 0
M  V30 7821 C 725.553 -3.95256 3.41424 0
M  V30 7822 H 727.247 -2.07419 2.15911 0
M  V30 7823 H 724.793 -0.996569 1.03945 0
M  V30 7824 H 726.746 -4.12793 0.847327 0
M  V30 7825 H 725.47 -3.26565 -0.0475042 0
M  V30 7826 H 724.129 -3.02474 2.07135 0
M  V30 7827 H 723.777 -4.99709 0.57445 0
M  V30 7828 H 723.477 -5.41568 2.27985 0
M  V30 7829 H 725.001 -5.92001 1.49558 0
M  V30 7830 H 726.415 -4.63764 3.3704 0
M  V30 7831 H 724.812 -4.36849 4.1144 0
M  V30 7832 H 725.882 -2.98579 3.82072 0
M  V30 7833 N 727.225 -1.14528 -1.08264 0
M  V30 7834 C 728.502 -0.825185 -1.77342 0
M  V30 7835 C 728.882 0.681037 -1.99813 0
M  V30 7836 O 728.23 1.62234 -1.60912 0
M  V30 7837 C 728.44 -1.62556 -3.08831 0
M  V30 7838 C 729.788 -1.82585 -3.83338 0
M  V30 7839 O 730.812 -1.59254 -3.18617 0
M  V30 7840 O 729.671 -2.21598 -4.99556 0
M  V30 7841 H 726.765 -0.302531 -0.769678 0
M  V30 7842 H 729.311 -1.25056 -1.14713 0
M  V30 7843 H 728.083 -2.64862 -2.88035 0
M  V30 7844 H 727.706 -1.1959 -3.79189 0
M  V30 7845 N 728.703 1.26451 -0.940633 0
M  V30 7846 C 729.933 1.97581 -0.603766 0
M  V30 7847 C 730.341 1.70246 0.825395 0
M  V30 7848 O 729.684 0.967001 1.56188 0
M  V30 7849 C 729.746 3.51256 -0.765463 0
M  V30 7850 C 729.41 4.0224 -2.16915 0
M  V30 7851 C 730.407 4.1402 -3.14457 0
M  V30 7852 C 728.092 4.36263 -2.48958 0
M  V30 7853 C 730.086 4.59117 -4.42143 0
M  V30 7854 C 727.773 4.81048 -3.76877 0
M  V30 7855 C 728.771 4.92436 -4.73282 0
M  V30 7856 O 728.459 5.36234 -5.98923 0
M  V30 7857 H 728.191 0.636948 -0.226436 0
M  V30 7858 H 730.745 1.61941 -1.2635 0
M  V30 7859 H 728.975 3.86669 -0.0485956 0
M  V30 7860 H 730.664 4.03597 -0.431738 0
M  V30 7861 H 731.43 3.87981 -2.91026 0
M  V30 7862 H 727.309 4.26634 -1.74656 0
M  V30 7863 H 730.853 4.6792 -5.17394 0
M  V30 7864 H 726.75 5.06531 -4.00121 0
M  V30 7865 H 727.518 5.54456 -6.02097 0
M  V30 7866 N 730.181 0.707592 1.40822 0
M  V30 7867 C 731.129 0.0386643 2.32568 0
M  V30 7868 C 732.123 -0.755653 1.51612 0
M  V30 7869 O 733.329 -0.659921 1.67467 0
M  V30 7870 H 729.704 -0.00629912 0.751974 0
M  V30 7871 H 731.675 0.8293 2.86645 0
M  V30 7872 C 730.424 -0.87496 3.36511 0
M  V30 7873 H 729.747 -0.273157 3.98866 0
M  V30 7874 H 731.187 -1.31111 4.03219 0
M  V30 7875 C 729.646 -1.99672 2.71353 0
M  V30 7876 O 730.176 -3.08676 2.57064 0
M  V30 7877 N 728.382 -1.77799 2.29861 0
M  V30 7878 H 727.929 -0.89147 2.41683 0
M  V30 7879 H 727.887 -2.53036 1.86601 0
M  V30 7880 N 731.66 -1.50943 0.453197 0
M  V30 7881 C 732.885 -2.07116 -0.108463 0
M  V30 7882 C 733.31 -1.31681 -1.3432 0
M  V30 7883 O 732.668 -0.359256 -1.77705 0
M  V30 7884 C 732.716 -3.58447 -0.393424 0
M  V30 7885 O 731.82 -3.85038 -1.47714 0
M  V30 7886 H 731.161 -0.66398 0.0050993 0
M  V30 7887 H 733.691 -1.94362 0.639095 0
M  V30 7888 H 733.701 -4.02961 -0.639222 0
M  V30 7889 H 732.376 -4.12774 0.508946 0
M  V30 7890 H 730.953 -3.52376 -1.22006 0
M  V30 7891 N 733.138 -0.185124 -1.56509 0
M  V30 7892 C 734.07 0.771401 -2.15829 0
M  V30 7893 C 735.083 1.18392 -1.11747 0
M  V30 7894 O 736.272 1.12137 -1.38879 0
M  V30 7895 C 733.372 2.05169 -2.69739 0
M  V30 7896 C 732.545 1.80056 -3.98621 0
M  V30 7897 C 731.604 2.92435 -4.37456 0
M  V30 7898 O 730.63 2.62473 -5.05071 0
M  V30 7899 N 731.832 4.20554 -4.00143 0
M  V30 7900 H 734.597 0.264184 -2.98533 0
M  V30 7901 H 732.158 -0.00281069 -1.619 0
M  V30 7902 H 734.15 2.7947 -2.92709 0
M  V30 7903 H 732.72 2.47041 -1.91545 0
M  V30 7904 H 731.94 0.895862 -3.83885 0
M  V30 7905 H 733.228 1.60662 -4.82768 0
M  V30 7906 H 732.626 4.47753 -3.45736 0
M  V30 7907 H 731.183 4.91514 -4.28085 0
M  V30 7908 N 734.616 1.57351 0.0885366 0
M  V30 7909 C 735.844 1.90631 0.804196 0
M  V30 7910 C 736.259 0.779474 1.71958 0
M  V30 7911 O 735.616 -0.248179 1.80805 0
M  V30 7912 C 735.667 3.23568 1.61202 0
M  V30 7913 O 735.388 4.31917 0.733447 0
M  V30 7914 C 736.889 3.70753 2.43016 0
M  V30 7915 H 734.109 0.630501 0.229585 0
M  V30 7916 H 736.653 2.044 0.0638092 0
M  V30 7917 H 734.808 3.11377 2.30485 0
M  V30 7918 H 735.222 5.08297 1.29361 0
M  V30 7919 H 736.696 4.66447 2.9518 0
M  V30 7920 H 737.173 2.98922 3.2178 0
M  V30 7921 H 737.779 3.85834 1.7892 0
M  V30 7922 N 736.094 -0.359525 1.53444 0
M  V30 7923 C 737.343 -1.09886 1.69139 0
M  V30 7924 C 737.656 -1.90285 0.452863 0
M  V30 7925 O 738.862 -2.67033 0.490459 0
M  V30 7926 C 737.318 -2.0028 2.99025 0
M  V30 7927 C 736.926 -1.25164 4.30161 0
M  V30 7928 C 738.67 -2.74168 3.24086 0
M  V30 7929 C 736.577 -2.14494 5.51132 0
M  V30 7930 H 735.507 -0.413936 0.630217 0
M  V30 7931 H 738.158 -0.359434 1.79945 0
M  V30 7932 H 736.54 -2.77978 2.82036 0
M  V30 7933 H 737.714 -0.524867 4.57801 0
M  V30 7934 H 736.029 -0.631116 4.11589 0
M  V30 7935 H 738.626 -3.41243 4.11652 0
M  V30 7936 H 738.969 -3.39868 2.40407 0
M  V30 7937 H 739.502 -2.0355 3.41778 0
M  V30 7938 H 736.241 -1.53362 6.37307 0
M  V30 7939 H 735.761 -2.85004 5.27762 0
M  V30 7940 H 737.44 -2.73914 5.86157 0
M  V30 7941 N 737.572 -1.44907 -0.619662 0
M  V30 7942 C 738.983 -1.42905 -1.20146 0
M  V30 7943 C 739.334 -0.150341 -1.95623 0
M  V30 7944 O 738.459 0.748732 -2.03034 0
M  V30 7945 C 739.054 -2.58889 -2.18545 0
M  V30 7946 C 737.613 -2.60046 -2.72127 0
M  V30 7947 C 736.76 -2.3493 -1.4732 0
M  V30 7948 H 739.711 -1.53321 -0.409666 0
M  V30 7949 H 739.732 -2.32298 -3.0136 0
M  V30 7950 H 739.244 -3.51941 -1.63583 0
M  V30 7951 H 737.345 -1.70968 -3.3106 0
M  V30 7952 H 737.458 -3.58893 -3.17384 0
M  V30 7953 H 735.822 -1.84248 -1.75855 0
M  V30 7954 H 736.605 -3.3011 -0.942442 0
M  V30 7955 N 739.05 0.861098 -1.31996 0
M  V30 7956 C 739.982 1.97551 -1.16216 0
M  V30 7957 C 740.995 1.625 -0.0988527 0
M  V30 7958 O 742.184 1.75091 -0.3472 0
M  V30 7959 C 739.284 3.30376 -0.755307 0
M  V30 7960 C 738.457 3.93711 -1.90552 0
M  V30 7961 C 737.516 5.04862 -1.48328 0
M  V30 7962 O 736.542 5.25204 -2.19431 0
M  V30 7963 N 737.744 5.79283 -0.375656 0
M  V30 7964 H 740.509 2.11632 -2.12208 0
M  V30 7965 H 738.07 1.03559 -1.24448 0
M  V30 7966 H 740.062 4.0213 -0.455364 0
M  V30 7967 H 738.632 3.12395 0.113269 0
M  V30 7968 H 737.852 3.14825 -2.37231 0
M  V30 7969 H 739.14 4.32762 -2.67571 0
M  V30 7970 H 738.538 5.65286 0.216284 0
M  V30 7971 H 737.095 6.5166 -0.135289 0
M  V30 7972 N 740.528 1.15101 1.07655 0
M  V30 7973 C 741.777 0.918528 1.79572 0
M  V30 7974 C 742.09 -0.555922 1.87534 0
M  V30 7975 O 743.296 -0.905893 2.55941 0
M  V30 7976 C 741.752 1.59394 3.22679 0
M  V30 7977 C 741.36 3.1052 3.22927 0
M  V30 7978 C 743.104 1.44289 3.99225 0
M  V30 7979 C 741.011 3.70862 4.60668 0
M  V30 7980 H 739.941 0.340006 0.672987 0
M  V30 7981 H 742.592 1.38079 1.20857 0
M  V30 7982 H 740.974 1.05936 3.81567 0
M  V30 7983 H 742.148 3.70708 2.737 0
M  V30 7984 H 740.463 3.25351 2.59876 0
M  V30 7985 H 743.06 1.86766 5.01022 0
M  V30 7986 H 743.403 0.389975 4.14469 0
M  V30 7987 H 743.936 1.94826 3.46825 0
M  V30 7988 H 740.675 4.7604 4.50628 0
M  V30 7989 H 740.195 3.15456 5.10145 0
M  V30 7990 H 741.874 3.71607 5.29639 0
M  V30 7991 N 742.006 -1.2595 0.947325 0
M  V30 7992 C 743.231 -1.98083 0.614633 0
M  V30 7993 C 743.656 -1.70013 -0.804815 0
M  V30 7994 O 743.014 -0.95175 -1.54309 0
M  V30 7995 C 743.062 -3.4993 0.870706 0
M  V30 7996 O 742.166 -4.12364 -0.0541451 0
M  V30 7997 H 741.507 -0.621232 0.234451 0
M  V30 7998 H 744.037 -1.60259 1.27193 0
M  V30 7999 H 744.047 -4.00198 0.794051 0
M  V30 8000 H 742.722 -3.69691 1.90529 0
M  V30 8001 H 741.299 -3.72826 0.0740917 0
M  V30 8002 N 743.484 -0.715051 -1.40445 0
M  V30 8003 C 744.432 -0.0509974 -2.32544 0
M  V30 8004 C 745.426 0.747602 -1.52011 0
M  V30 8005 O 746.632 0.651031 -1.67814 0
M  V30 8006 H 743.007 0.00231113 -0.751996 0
M  V30 8007 H 744.978 -0.84449 -2.86201 0
M  V30 8008 C 743.727 0.857101 -3.3697 0
M  V30 8009 H 743.05 0.252 -3.99005 0
M  V30 8010 H 744.49 1.28971 -4.03909 0
M  V30 8011 C 742.949 1.98231 -2.72408 0
M  V30 8012 O 743.479 3.07309 -2.58697 0
M  V30 8013 N 741.685 1.76577 -2.308 0
M  V30 8014 H 741.232 0.878641 -2.42152 0
M  V30 8015 H 741.19 2.52043 -1.87941 0
M  V30 8016 N 744.962 1.50701 -0.461195 0
M  V30 8017 C 746.378 1.59187 -0.114786 0
M  V30 8018 C 746.578 1.4702 1.37794 0
M  V30 8019 O 745.634 1.32361 2.15027 0
M  V30 8020 C 746.947 2.93453 -0.656167 0
M  V30 8021 C 748.495 3.06824 -0.618715 0
M  V30 8022 C 748.97 4.4365 -1.13747 0
M  V30 8023 N 750.461 4.50035 -1.09646 0
M  V30 8024 C 751.196 5.54278 -1.46846 0
M  V30 8025 N 750.692 6.65822 -1.91448 0
M  V30 8026 N 752.485 5.44767 -1.38512 0
M  V30 8027 H 744.636 1.56853 -1.43216 0
M  V30 8028 H 746.899 0.740712 -0.59165 0
M  V30 8029 H 746.605 3.07802 -1.7015 0
M  V30 8030 H 746.479 3.77082 -0.0942261 0
M  V30 8031 H 748.866 2.92129 0.417685 0
M  V30 8032 H 748.947 2.24976 -1.21734 0
M  V30 8033 H 748.591 4.59093 -2.17245 0
M  V30 8034 H 748.521 5.24074 -0.515153 0
M  V30 8035 H 751.012 3.69988 -0.769217 0
M  V30 8036 H 751.325 7.41413 -2.18007 0
M  V30 8037 H 749.67 6.66968 -1.95393 0
M  V30 8038 H 752.861 4.56511 -1.03516 0
M  V30 8039 H 753.034 6.25889 -1.6783 0
M  V30 8040 N 746.441 0.193421 1.56409 0
M  V30 8041 C 747.669 -0.451438 2.01915 0
M  V30 8042 C 748.084 -1.55306 1.07357 0
M  V30 8043 O 747.441 -1.82333 0.0781512 0
M  V30 8044 C 747.492 -1.00931 3.47124 0
M  V30 8045 O 747.213 0.0483623 4.38073 0
M  V30 8046 C 748.714 -1.73021 4.0814 0
M  V30 8047 H 745.934 -0.113495 0.661332 0
M  V30 8048 H 748.478 0.301636 2.02263 0
M  V30 8049 H 746.633 -1.71277 3.47481 0
M  V30 8050 H 747.047 -0.366644 5.23217 0
M  V30 8051 H 748.521 -2.07289 5.11601 0
M  V30 8052 H 748.998 -2.6333 3.51502 0
M  V30 8053 H 749.604 -1.07264 4.11551 0
M  V30 8054 N 747.919 -1.57396 -0.0801906 0
M  V30 8055 C 748.849 -2.06145 -1.09665 0
M  V30 8056 C 749.83 -0.953273 -1.40878 0
M  V30 8057 O 751.015 -1.22548 -1.50651 0
M  V30 8058 C 748.145 -2.49836 -2.41245 0
M  V30 8059 C 747.099 -3.64454 -2.24405 0
M  V30 8060 C 746.425 -3.94172 -3.61293 0
M  V30 8061 C 747.725 -4.94807 -1.67223 0
M  V30 8062 H 749.419 -2.91316 -0.691028 0
M  V30 8063 H 746.965 -1.40145 -0.330957 0
M  V30 8064 H 748.918 -2.82552 -3.12638 0
M  V30 8065 H 747.642 -1.61683 -2.83771 0
M  V30 8066 H 746.301 -3.32008 -1.55454 0
M  V30 8067 H 745.949 -3.03163 -4.01374 0
M  V30 8068 H 745.649 -4.71345 -3.50867 0
M  V30 8069 H 747.173 -4.29376 -4.3413 0
M  V30 8070 H 748.587 -5.25807 -2.28472 0
M  V30 8071 H 746.984 -5.76245 -1.67515 0
M  V30 8072 H 748.054 -4.80751 -0.632944 0
M  V30 8073 N 749.397 0.351382 -1.53633 0
M  V30 8074 C 750.345 1.45142 -1.8176 0
M  V30 8075 C 751.339 1.54819 -0.687571 0
M  V30 8076 O 752.545 1.57536 -0.870772 0
M  V30 8077 H 748.92 0.483789 -0.575719 0
M  V30 8078 H 750.891 1.1863 -2.73806 0
M  V30 8079 C 749.64 2.81779 -2.03706 0
M  V30 8080 H 748.963 2.75097 -2.90107 0
M  V30 8081 H 750.403 3.5789 -2.27356 0
M  V30 8082 C 748.862 3.26762 -0.820271 0
M  V30 8083 O 749.392 4.01697 -0.0158603 0
M  V30 8084 N 747.598 2.83472 -0.639699 0
M  V30 8085 H 747.145 2.22655 -1.29547 0
M  V30 8086 H 747.103 3.13924 0.172995 0
M  V30 8087 N 750.875 1.45233 0.611969 0
M  V30 8088 C 752.103 1.52539 1.39784 0
M  V30 8089 C 752.518 0.156533 1.8815 0
M  V30 8090 O 751.875 -0.84112 1.61961 0
M  V30 8091 C 751.926 2.50614 2.60528 0
M  V30 8092 O 751.647 3.8218 2.14173 0
M  V30 8093 C 753.148 2.67574 3.53439 0
M  V30 8094 H 750.368 0.51674 0.428043 0
M  V30 8095 H 752.912 1.90379 0.746727 0
M  V30 8096 H 751.067 2.15858 3.2169 0
M  V30 8097 H 751.481 4.35305 2.92592 0
M  V30 8098 H 752.955 3.40184 4.34717 0
M  V30 8099 H 753.432 1.73458 4.03496 0
M  V30 8100 H 754.038 3.0331 2.98133 0
M  V30 8101 N 752.353 -0.854086 1.3245 0
M  V30 8102 C 753.283 -1.97827 1.24044 0
M  V30 8103 C 754.264 -1.69646 0.124166 0
M  V30 8104 O 755.449 -1.91687 0.31143 0
M  V30 8105 C 752.579 -3.33673 0.963324 0
M  V30 8106 C 751.533 -3.76207 2.04089 0
M  V30 8107 C 750.859 -5.0969 1.61618 0
M  V30 8108 C 752.159 -3.91612 3.45597 0
M  V30 8109 H 753.853 -2.05118 2.18099 0
M  V30 8110 H 751.399 -0.985489 1.04996 0
M  V30 8111 H 753.352 -4.11871 0.891061 0
M  V30 8112 H 752.076 -3.26597 -0.0128649 0
M  V30 8113 H 750.735 -3.0026 2.10332 0
M  V30 8114 H 750.383 -4.99072 0.627418 0
M  V30 8115 H 750.083 -5.3912 2.33717 0
M  V30 8116 H 751.607 -5.90381 1.55829 0
M  V30 8117 H 753.021 -4.60163 3.4194 0
M  V30 8118 H 751.418 -4.3246 4.16051 0
M  V30 8119 H 752.488 -2.9451 3.85217 0
M  V30 8120 N 753.831 -1.1567 -1.07043 0
M  V30 8121 C 755.077 -0.9349 -1.79965 0
M  V30 8122 C 755.41 0.536464 -1.86643 0
M  V30 8123 O 754.685 1.39781 -1.35247 0
M  V30 8124 C 754.968 -1.55371 -3.24857 0
M  V30 8125 C 754.821 -3.09589 -3.26305 0
M  V30 8126 C 756.14 -1.24209 -4.22209 0
M  V30 8127 H 753.259 -0.341061 -0.653335 0
M  V30 8128 H 755.901 -1.42883 -1.25237 0
M  V30 8129 H 754.051 -1.13368 -3.71591 0
M  V30 8130 H 755.723 -3.60521 -2.87789 0
M  V30 8131 H 753.966 -3.43315 -2.65174 0
M  V30 8132 H 754.637 -3.48002 -4.28484 0
M  V30 8133 H 757.113 -1.60548 -3.8388 0
M  V30 8134 H 755.989 -1.70119 -5.21872 0
M  V30 8135 H 756.25 -0.15964 -4.41812 0
M  V30 8136 N 755.309 1.25446 -0.953992 0
M  V30 8137 C 756.241 2.25111 -0.431004 0
M  V30 8138 C 757.254 1.56377 0.452764 0
M  V30 8139 O 758.443 1.76579 0.261144 0
M  V30 8140 C 755.543 3.3655 0.39839 0
M  V30 8141 C 754.716 4.34843 -0.472229 0
M  V30 8142 C 753.775 5.25351 0.29886 0
M  V30 8143 O 752.801 5.68396 -0.302522 0
M  V30 8144 N 754.003 5.5824 1.59211 0
M  V30 8145 H 756.768 2.70619 -1.28785 0
M  V30 8146 H 754.329 1.39346 -0.824281 0
M  V30 8147 H 756.321 3.94059 0.921941 0
M  V30 8148 H 754.891 2.90436 1.15609 0
M  V30 8149 H 754.111 3.76222 -1.17689 0
M  V30 8150 H 755.399 4.97497 -1.06648 0
M  V30 8151 H 754.797 5.25172 2.10264 0
M  V30 8152 H 753.354 6.18336 2.06164 0
M  V30 8153 N 756.787 0.722489 1.40064 0
M  V30 8154 C 758.064 0.191829 1.94657 0
M  V30 8155 C 758.444 -1.30389 1.66018 0
M  V30 8156 O 757.792 -2.06342 0.981588 0
M  V30 8157 C 758.002 0.511978 3.45224 0
M  V30 8158 C 759.35 0.454426 4.22161 0
M  V30 8159 O 760.374 0.448438 3.53366 0
M  V30 8160 O 759.233 0.437986 5.44742 0
M  V30 8161 H 756.327 0.0307821 0.826427 0
M  V30 8162 H 758.873 0.800493 1.49634 0
M  V30 8163 H 757.645 1.54622 3.59455 0
M  V30 8164 H 757.268 -0.126296 3.97399 0
M  V30 8165 N 758.265 -1.50454 0.469181 0
M  V30 8166 C 759.213 -2.30101 -0.340033 0
M  V30 8167 C 760.207 -1.37306 -0.992135 0
M  V30 8168 O 761.413 -1.54506 -0.923458 0
M  V30 8169 H 757.788 -0.740941 -0.128495 0
M  V30 8170 H 759.759 -2.96315 0.352144 0
M  V30 8171 C 758.508 -3.17804 -1.41052 0
M  V30 8172 H 757.831 -3.89115 -0.918124 0
M  V30 8173 H 759.271 -3.76533 -1.94934 0
M  V30 8174 C 757.73 -2.35272 -2.4114 0
M  V30 8175 O 758.26 -2.03448 -3.4637 0
M  V30 8176 N 756.466 -1.97889 -2.1281 0
M  V30 8177 H 756.013 -2.2397 -1.27261 0
M  V30 8178 H 755.971 -1.42971 -2.80012 0
M  V30 8179 N 759.743 -0.201713 -1.56304 0
M  V30 8180 C 760.968 0.443815 -2.02596 0
M  V30 8181 C 761.393 1.53945 -1.08086 0
M  V30 8182 O 760.751 1.81182 -0.0655056 0
M  V30 8183 C 760.799 0.971066 -3.47279 0
M  V30 8184 O 759.903 2.0836 -3.55893 0
M  V30 8185 H 759.244 0.10294 -0.655972 0
M  V30 8186 H 761.774 -0.314533 -2.02168 0
M  V30 8187 H 761.784 1.28598 -3.87204 0
M  V30 8188 H 760.459 0.169048 -4.15556 0
M  V30 8189 H 759.036 1.77683 -3.27846 0
M  V30 8190 N 761.222 1.57436 0.0718424 0
M  V30 8191 C 762.452 1.91196 0.782795 0
M  V30 8192 C 762.86 0.795927 1.71644 0
M  V30 8193 O 762.203 -0.239604 1.82131 0
M  V30 8194 C 762.265 3.20421 1.63005 0
M  V30 8195 C 761.929 4.48724 0.865782 0
M  V30 8196 C 762.926 5.19571 0.185051 0
M  V30 8197 C 760.611 4.95345 0.832971 0
M  V30 8198 C 762.605 6.3529 -0.518264 0
M  V30 8199 C 760.292 6.1097 0.125884 0
M  V30 8200 C 761.29 6.80794 -0.548533 0
M  V30 8201 O 760.978 7.94213 -1.24423 0
M  V30 8202 H 760.71 0.636486 0.227731 0
M  V30 8203 H 763.264 2.05348 0.0464187 0
M  V30 8204 H 761.494 3.02478 2.40923 0
M  V30 8205 H 763.183 3.39831 2.21968 0
M  V30 8206 H 763.949 4.8458 0.201707 0
M  V30 8207 H 759.828 4.40871 1.34737 0
M  V30 8208 H 763.372 6.89725 -1.04523 0
M  V30 8209 H 759.269 6.45411 0.107155 0
M  V30 8210 H 760.037 8.10331 -1.1535 0
M  V30 8211 N 762.7 -0.34323 1.53817 0
M  V30 8212 C 763.946 -1.08504 1.71332 0
M  V30 8213 C 764.279 -1.88294 0.475285 0
M  V30 8214 O 763.554 -1.87205 -0.527688 0
M  V30 8215 C 763.837 -2.02597 2.97702 0
M  V30 8216 C 763.69 -1.26268 4.31713 0
M  V30 8217 C 765.009 -3.0241 3.19744 0
M  V30 8218 H 762.128 -0.393072 0.623429 0
M  V30 8219 H 764.77 -0.363579 1.86489 0
M  V30 8220 H 762.92 -2.64118 2.8491 0
M  V30 8221 H 764.592 -0.673594 4.56356 0
M  V30 8222 H 762.835 -0.564696 4.30109 0
M  V30 8223 H 763.506 -1.95253 5.16314 0
M  V30 8224 H 765.982 -2.51004 3.31868 0
M  V30 8225 H 764.858 -3.65449 4.09558 0
M  V30 8226 H 765.119 -3.73806 2.36054 0
M  V30 8227 N 764.178 -1.45556 -0.604258 0
M  V30 8228 C 765.589 -1.44171 -1.18624 0
M  V30 8229 C 765.94 -0.171081 -1.95453 0
M  V30 8230 O 765.065 0.727156 -2.03817 0
M  V30 8231 C 765.66 -2.61193 -2.15786 0
M  V30 8232 C 764.219 -2.62918 -2.69353 0
M  V30 8233 C 763.366 -2.36479 -1.4482 0
M  V30 8234 H 766.317 -1.53747 -0.393381 0
M  V30 8235 H 766.338 -2.35481 -2.98879 0
M  V30 8236 H 765.85 -3.53656 -1.59841 0
M  V30 8237 H 763.951 -1.7447 -3.29228 0
M  V30 8238 H 764.064 -3.6224 -3.13559 0
M  V30 8239 H 762.428 -1.86103 -1.73891 0
M  V30 8240 H 763.211 -3.31091 -0.907376 0
M  V30 8241 N 765.656 0.84705 -1.32902 0
M  V30 8242 C 767.072 1.13645 -1.12058 0
M  V30 8243 C 767.272 2.01281 0.093937 0
M  V30 8244 O 766.328 2.4026 0.776608 0
M  V30 8245 C 767.641 1.80644 -2.40392 0
M  V30 8246 C 769.189 1.93246 -2.46221 0
M  V30 8247 C 769.664 2.6366 -3.74496 0
M  V30 8248 N 771.155 2.71179 -3.75521 0
M  V30 8249 C 771.89 3.26332 -4.71482 0
M  V30 8250 N 771.386 3.82236 -5.77813 0
M  V30 8251 N 773.179 3.24507 -4.58968 0
M  V30 8252 H 765.33 0.263612 -2.10758 0
M  V30 8253 H 767.593 0.17944 -0.930863 0
M  V30 8254 H 767.299 1.23708 -3.29225 0
M  V30 8255 H 767.173 2.80736 -2.51926 0
M  V30 8256 H 769.56 2.49338 -1.57843 0
M  V30 8257 H 769.641 0.921272 -2.38634 0
M  V30 8258 H 769.285 2.08229 -4.63253 0
M  V30 8259 H 769.215 3.65234 -3.79357 0
M  V30 8260 H 771.706 2.31527 -2.9867 0
M  V30 8261 H 772.019 4.22499 -6.47082 0
M  V30 8262 H 770.364 3.80546 -5.81558 0
M  V30 8263 H 773.555 2.80085 -3.7506 0
M  V30 8264 H 773.728 3.67188 -5.33926 0
M  V30 8265 N 767.134 1.16236 1.06428 0
M  V30 8266 C 768.364 0.965782 1.82637 0
M  V30 8267 C 768.772 -0.489284 1.82764 0
M  V30 8268 O 768.115 -1.35133 1.24438 0
M  V30 8269 C 768.177 1.41458 3.30499 0
M  V30 8270 C 767.841 2.88926 3.54077 0
M  V30 8271 C 768.838 3.86939 3.47238 0
M  V30 8272 C 766.523 3.26814 3.81442 0
M  V30 8273 C 768.517 5.20841 3.67428 0
M  V30 8274 C 766.204 4.60886 4.01282 0
M  V30 8275 C 767.202 5.57708 3.94272 0
M  V30 8276 O 766.89 6.89357 4.13573 0
M  V30 8277 H 766.622 0.342569 0.582772 0
M  V30 8278 H 769.176 1.54641 1.35187 0
M  V30 8279 H 767.406 0.777426 3.78805 0
M  V30 8280 H 769.095 1.18563 3.88198 0
M  V30 8281 H 769.861 3.59014 3.26089 0
M  V30 8282 H 765.74 2.5203 3.86008 0
M  V30 8283 H 769.284 5.96401 3.61873 0
M  V30 8284 H 765.181 4.88522 4.21921 0
M  V30 8285 H 765.949 6.95913 4.30869 0
M  V30 8286 N 768.612 -1.24939 0.960631 0
M  V30 8287 C 769.889 -1.88118 0.535807 0
M  V30 8288 C 770.269 -1.86605 -0.987009 0
M  V30 8289 O 769.617 -1.33375 -1.85536 0
M  V30 8290 C 769.827 -3.30565 1.11927 0
M  V30 8291 C 771.175 -4.07296 1.19981 0
M  V30 8292 O 772.199 -3.39709 1.07126 0
M  V30 8293 O 771.058 -5.28206 1.40218 0
M  V30 8294 H 768.152 -0.807698 0.177631 0
M  V30 8295 H 770.698 -1.32964 1.05445 0
M  V30 8296 H 769.47 -3.26128 2.16231 0
M  V30 8297 H 769.093 -3.93284 0.584245 0
M  V30 8298 N 770.09 -0.729906 -1.39679 0
M  V30 8299 C 771.315 -0.284345 -2.05442 0
M  V30 8300 C 771.74 1.07056 -1.54663 0
M  V30 8301 O 771.098 1.67732 -0.688157 0
M  V30 8302 C 771.146 -0.290089 -3.59431 0
M  V30 8303 O 770.25 0.723978 -4.05995 0
M  V30 8304 H 769.591 -0.130311 -0.651088 0
M  V30 8305 H 772.121 -0.994403 -1.78809 0
M  V30 8306 H 772.131 -0.132712 -4.07784 0
M  V30 8307 H 770.806 -1.27877 -3.95753 0
M  V30 8308 H 769.383 0.533154 -3.69069 0
M  V30 8309 N 771.568 1.50203 -0.477153 0
M  V30 8310 C 772.516 2.30278 0.327826 0
M  V30 8311 C 773.51 1.37831 0.984839 0
M  V30 8312 O 774.716 1.54994 0.915251 0
M  V30 8313 H 771.091 0.741612 0.124564 0
M  V30 8314 H 773.062 2.96124 -0.367853 0
M  V30 8315 C 771.811 3.18548 1.39365 0
M  V30 8316 H 771.134 3.89596 0.897475 0
M  V30 8317 H 772.574 3.77561 1.92934 0
M  V30 8318 C 771.033 2.36548 2.39889 0
M  V30 8319 O 771.563 2.05282 3.45286 0
M  V30 8320 N 769.769 1.99015 2.11758 0
M  V30 8321 H 769.316 2.24641 1.26071 0
M  V30 8322 H 769.274 1.44454 2.7925 0
M  V30 8323 N 773.046 0.209999 1.56195 0
M  V30 8324 C 774.294 -0.423974 1.97603 0
M  V30 8325 C 774.615 -1.61112 1.09854 0
M  V30 8326 O 773.885 -1.95134 0.173032 0
M  V30 8327 H 772.465 -0.159629 0.729745 0
M  V30 8328 H 775.127 0.300205 1.92574 0
M  V30 8329 H 774.223 -0.75809 3.02753 0
M  V30 8330 N 774.524 -1.57472 -0.0634922 0
M  V30 8331 C 775.752 -1.91887 -0.773767 0
M  V30 8332 C 776.167 -0.806733 -1.70696 0
M  V30 8333 O 775.524 0.219383 -1.81177 0
M  V30 8334 C 775.575 -3.26092 -1.56034 0
M  V30 8335 O 775.296 -4.33029 -0.66464 0
M  V30 8336 C 776.797 -3.74573 -2.37087 0
M  V30 8337 H 774.017 -0.634074 -0.219525 0
M  V30 8338 H 776.561 -2.04476 -0.0312828 0
M  V30 8339 H 774.716 -3.15004 -2.25502 0
M  V30 8340 H 775.13 -5.10291 -1.21258 0
M  V30 8341 H 776.604 -4.71084 -2.87722 0
M  V30 8342 H 777.081 -3.04003 -3.16984 0
M  V30 8343 H 777.687 -3.88631 -1.72759 0
M  V30 8344 N 776.003 0.335068 -1.53997 0
M  V30 8345 C 777.228 1.09859 -1.75914 0
M  V30 8346 C 777.653 1.81308 -0.500915 0
M  V30 8347 O 777.011 1.72854 0.54693 0
M  V30 8348 C 777.059 2.08122 -2.94478 0
M  V30 8349 O 776.163 3.15805 -2.65219 0
M  V30 8350 H 775.504 0.317313 -0.583274 0
M  V30 8351 H 778.034 0.382872 -2.00986 0
M  V30 8352 H 778.044 2.51195 -3.21504 0
M  V30 8353 H 776.719 1.55517 -3.8573 0
M  V30 8354 H 775.296 2.77489 -2.49107 0
M  V30 8355 N 777.481 1.45874 0.596531 0
M  V30 8356 C 778.391 1.57947 1.73464 0
M  V30 8357 C 779.407 0.463461 1.67714 0
M  V30 8358 O 780.583 0.725685 1.87872 0
M  V30 8359 C 777.648 1.55348 3.09948 0
M  V30 8360 C 776.709 2.78074 3.27068 0
M  V30 8361 C 775.942 2.75589 4.57041 0
M  V30 8362 O 776.165 1.83545 5.40063 0
M  V30 8363 O 775.099 3.66945 4.77111 0
M  V30 8364 H 778.925 2.54169 1.66228 0
M  V30 8365 H 776.51 1.2851 0.76194 0
M  V30 8366 H 778.392 1.56545 3.91244 0
M  V30 8367 H 777.067 0.622811 3.17652 0
M  V30 8368 H 775.974 2.82435 2.45319 0
M  V30 8369 H 777.307 3.70303 3.24248 0
M  V30 8370 N 778.959 -0.83999 1.33349 0
M  V30 8371 C 780.208 -1.59011 1.2409 0
M  V30 8372 C 780.521 -1.94655 -0.192029 0
M  V30 8373 O 781.727 -2.68438 -0.406617 0
M  V30 8374 C 780.183 -2.86801 2.17425 0
M  V30 8375 C 779.791 -2.58525 3.65881 0
M  V30 8376 C 781.535 -3.64823 2.17036 0
M  V30 8377 C 779.442 -3.82404 4.51133 0
M  V30 8378 H 778.372 -0.596731 0.460899 0
M  V30 8379 H 781.023 -0.926274 1.58406 0
M  V30 8380 H 779.405 -3.54719 1.7604 0
M  V30 8381 H 780.579 -1.98824 4.15699 0
M  V30 8382 H 778.894 -1.93808 3.68548 0
M  V30 8383 H 781.491 -4.56774 2.7796 0
M  V30 8384 H 781.834 -3.99663 1.16513 0
M  V30 8385 H 782.367 -3.03826 2.56777 0
M  V30 8386 H 779.106 -3.52696 5.52527 0
M  V30 8387 H 778.626 -4.41447 4.0606 0
M  V30 8388 H 780.305 -4.49995 4.6488 0
M  V30 8389 N 780.437 -1.16799 -1.0581 0
M  V30 8390 C 781.347 -0.893492 -2.16919 0
M  V30 8391 C 782.363 0.136061 -1.73467 0
M  V30 8392 O 783.539 -0.0417348 -2.01357 0
M  V30 8393 C 780.604 -0.403763 -3.44341 0
M  V30 8394 C 779.665 -1.49914 -4.02274 0
M  V30 8395 C 778.898 -1.03269 -5.23614 0
M  V30 8396 O 779.121 0.115647 -5.70283 0
M  V30 8397 O 778.055 -1.8231 -5.73626 0
M  V30 8398 H 781.881 -1.82274 -2.42919 0
M  V30 8399 H 779.466 -0.948361 -1.1544 0
M  V30 8400 H 781.348 -0.137874 -4.21174 0
M  V30 8401 H 780.023 0.497413 -3.19855 0
M  V30 8402 H 778.93 -1.81883 -3.26909 0
M  V30 8403 H 780.263 -2.3758 -4.31064 0
M  V30 8404 N 781.915 1.24427 -0.967243 0
M  V30 8405 C 782.825 2.29109 -0.504592 0
M  V30 8406 C 783.841 1.68495 0.434224 0
M  V30 8407 O 785.017 1.99041 0.307379 0
M  V30 8408 C 782.082 3.46133 0.198273 0
M  V30 8409 C 781.143 4.22149 -0.780313 0
M  V30 8410 C 780.376 5.33585 -0.110896 0
M  V30 8411 O 780.599 5.59676 1.10088 0
M  V30 8412 O 779.533 5.96522 -0.802823 0
M  V30 8413 H 783.359 2.708 -1.37482 0
M  V30 8414 H 780.944 1.30111 -0.73426 0
M  V30 8415 H 782.826 4.17205 0.593124 0
M  V30 8416 H 781.501 3.0642 1.04347 0
M  V30 8417 H 780.408 3.53454 -1.22561 0
M  V30 8418 H 781.741 4.65677 -1.59392 0
M  V30 8419 N 783.393 0.737304 1.3929 0
M  V30 8420 C 784.623 0.296143 2.04467 0
M  V30 8421 C 785.031 -1.0748 1.55707 0
M  V30 8422 O 784.374 -1.69082 0.718123 0
M  V30 8423 C 784.436 0.222161 3.58813 0
M  V30 8424 C 784.1 1.53195 4.30558 0
M  V30 8425 C 785.097 2.47809 4.57041 0
M  V30 8426 C 782.782 1.79688 4.6906 0
M  V30 8427 C 784.776 3.67147 5.21039 0
M  V30 8428 C 782.463 2.99304 5.32785 0
M  V30 8429 C 783.461 3.92855 5.58708 0
M  V30 8430 O 783.149 5.1037 6.2111 0
M  V30 8431 H 782.881 0.126896 0.663983 0
M  V30 8432 H 785.435 1.00242 1.79278 0
M  V30 8433 H 783.665 -0.540239 3.82908 0
M  V30 8434 H 785.354 -0.187311 4.05468 0
M  V30 8435 H 786.12 2.28611 4.2774 0
M  V30 8436 H 781.999 1.07716 4.48239 0
M  V30 8437 H 785.543 4.40183 5.41188 0
M  V30 8438 H 781.44 3.18401 5.61508 0
M  V30 8439 H 782.208 5.10735 6.39603 0
M  V30 8440 N 784.871 -1.49948 0.485112 0
M  V30 8441 C 786.148 -1.95186 -0.12726 0
M  V30 8442 C 786.528 -1.42605 -1.5565 0
M  V30 8443 O 785.876 -0.632986 -2.19558 0
M  V30 8444 C 786.086 -3.48955 -0.0562117 0
M  V30 8445 C 787.434 -4.23932 -0.238106 0
M  V30 8446 O 788.458 -3.55955 -0.132145 0
M  V30 8447 O 787.317 -5.44614 -0.453658 0
M  V30 8448 H 784.411 -0.820433 -0.104014 0
M  V30 8449 H 786.957 -1.60659 0.546517 0
M  V30 8450 H 785.729 -3.79814 0.941122 0
M  V30 8451 H 785.352 -3.90056 -0.770834 0
M  V30 8452 N 786.349 -0.21828 -1.56081 0
M  V30 8453 C 787.595 0.414921 -1.9851 0
M  V30 8454 C 787.928 1.59648 -1.10573 0
M  V30 8455 O 787.203 1.93818 -0.162695 0
M  V30 8456 C 787.486 0.852647 -3.4986 0
M  V30 8457 C 787.339 -0.33232 -4.48571 0
M  V30 8458 C 788.658 1.70998 -4.05521 0
M  V30 8459 H 785.777 0.149344 -0.72171 0
M  V30 8460 H 788.419 -0.313858 -1.8739 0
M  V30 8461 H 786.569 1.47362 -3.59467 0
M  V30 8462 H 788.241 -0.970418 -4.50977 0
M  V30 8463 H 786.484 -0.980302 -4.22578 0
M  V30 8464 H 787.155 0.0168407 -5.51997 0
M  V30 8465 H 789.631 1.18606 -3.98838 0
M  V30 8466 H 788.507 1.98517 -5.11744 0
M  V30 8467 H 788.768 2.67219 -3.52202 0
M  V30 8468 N 787.827 1.57504 0.0551401 0
M  V30 8469 C 789.073 1.88334 0.752216 0
M  V30 8470 C 789.406 0.812742 1.76375 0
M  V30 8471 O 788.681 -0.175198 1.93709 0
M  V30 8472 C 788.964 3.29824 1.44528 0
M  V30 8473 C 788.817 4.47553 0.449026 0
M  V30 8474 C 790.136 3.69808 2.38601 0
M  V30 8475 H 787.255 0.684973 0.271995 0
M  V30 8476 H 789.897 1.89994 0.0151895 0
M  V30 8477 H 788.047 3.28539 2.07351 0
M  V30 8478 H 789.719 4.60967 -0.175277 0
M  V30 8479 H 787.962 4.33168 -0.234162 0
M  V30 8480 H 788.633 5.43376 0.971917 0
M  V30 8481 H 791.109 3.72293 1.85842 0
M  V30 8482 H 789.985 4.69665 2.84088 0
M  V30 8483 H 790.246 3.00641 3.24141 0
M  V30 8484 N 789.305 -0.326896 1.54172 0
M  V30 8485 C 790.582 -1.08326 1.62864 0
M  V30 8486 C 790.962 -2.06018 0.46039 0
M  V30 8487 O 790.31 -2.21889 -0.545685 0
M  V30 8488 C 790.52 -1.78816 2.9971 0
M  V30 8489 C 791.868 -2.31958 3.55641 0
M  V30 8490 O 792.892 -1.88888 3.01993 0
M  V30 8491 O 791.751 -3.10801 4.49517 0
M  V30 8492 H 788.845 -0.499131 0.659392 0
M  V30 8493 H 791.391 -0.327054 1.66519 0
M  V30 8494 H 790.163 -1.07739 3.76176 0
M  V30 8495 H 789.786 -2.61255 2.99719 0
M  V30 8496 N 790.784 -1.46188 -0.588786 0
M  V30 8497 C 792.031 -1.51184 -1.34721 0
M  V30 8498 C 792.359 -0.161084 -1.93832 0
M  V30 8499 O 791.614 0.842557 -1.76634 0
M  V30 8500 C 791.913 -2.55364 -2.50048 0
M  V30 8501 C 791.579 -3.99553 -2.08969 0
M  V30 8502 C 790.241 -4.38811 -1.9748 0
M  V30 8503 C 792.593 -4.90156 -1.77191 0
M  V30 8504 C 789.921 -5.66544 -1.52463 0
M  V30 8505 C 792.273 -6.1832 -1.33654 0
M  V30 8506 C 790.937 -6.5649 -1.20738 0
M  V30 8507 H 790.207 -0.55322 -0.49298 0
M  V30 8508 H 792.854 -1.79634 -0.663627 0
M  V30 8509 H 791.159 -2.20552 -3.23827 0
M  V30 8510 H 792.856 -2.5646 -3.08268 0
M  V30 8511 H 789.446 -3.68518 -2.18843 0
M  V30 8512 H 793.63 -4.60549 -1.84955 0
M  V30 8513 H 788.886 -5.94895 -1.411 0
M  V30 8514 H 793.06 -6.87956 -1.08117 0
M  V30 8515 H 790.687 -7.55362 -0.856307 0
M  V30 8516 N 792.262 0.832906 -1.33792 0
M  V30 8517 C 793.21 1.96455 -1.24532 0
M  V30 8518 C 794.204 1.68774 -0.145455 0
M  V30 8519 O 795.41 1.77314 -0.309797 0
M  V30 8520 H 791.785 0.645008 -0.386611 0
M  V30 8521 H 793.756 2.01389 -2.20193 0
M  V30 8522 C 792.505 3.32784 -1.00748 0
M  V30 8523 H 791.828 3.54626 -1.84609 0
M  V30 8524 H 793.268 4.12447 -0.98301 0
M  V30 8525 C 791.727 3.35654 0.289475 0
M  V30 8526 O 792.257 3.80281 1.29419 0
M  V30 8527 N 790.463 2.88843 0.3191 0
M  V30 8528 H 790.01 2.52719 -0.499069 0
M  V30 8529 H 789.968 2.91145 1.18667 0
M  V30 8530 N 793.74 1.17359 1.05189 0
M  V30 8531 C 794.986 0.963413 1.78455 0
M  V30 8532 C 795.319 -0.506703 1.87473 0
M  V30 8533 O 794.594 -1.37611 1.37453 0
M  V30 8534 C 794.877 1.60519 3.22344 0
M  V30 8535 C 794.73 3.14741 3.21338 0
M  V30 8536 C 796.049 1.3091 4.20179 0
M  V30 8537 H 793.168 0.351412 0.647826 0
M  V30 8538 H 795.81 1.44858 1.22948 0
M  V30 8539 H 793.96 1.19265 3.69741 0
M  V30 8540 H 795.632 3.65053 2.82017 0
M  V30 8541 H 793.875 3.4749 2.59679 0
M  V30 8542 H 794.546 3.54775 4.22894 0
M  V30 8543 H 797.022 1.66635 3.81277 0
M  V30 8544 H 795.898 1.784 5.191 0
M  V30 8545 H 796.159 0.229908 4.41502 0
M  V30 8546 N 795.218 -1.23913 0.973828 0
M  V30 8547 C 796.465 -1.92151 0.639079 0
M  V30 8548 C 796.793 -1.76064 -0.826545 0
M  V30 8549 O 796.048 -1.11126 -1.61088 0
M  V30 8550 C 796.347 -3.4406 0.967356 0
M  V30 8551 C 796.013 -3.80321 2.42212 0
M  V30 8552 C 794.675 -3.8993 2.81971 0
M  V30 8553 C 797.027 -3.97935 3.36596 0
M  V30 8554 C 794.355 -4.14575 4.15144 0
M  V30 8555 C 796.707 -4.24079 4.69404 0
M  V30 8556 C 795.371 -4.31908 5.08932 0
M  V30 8557 H 794.641 -0.70313 0.233856 0
M  V30 8558 H 797.288 -1.47072 1.22646 0
M  V30 8559 H 795.593 -3.90667 0.297807 0
M  V30 8560 H 797.29 -3.95077 0.686654 0
M  V30 8561 H 793.88 -3.73411 2.10385 0
M  V30 8562 H 798.064 -3.89908 3.07059 0
M  V30 8563 H 793.32 -4.18858 4.45385 0
M  V30 8564 H 797.494 -4.36652 5.42502 0
M  V30 8565 H 795.121 -4.50758 6.12145 0
M  V30 8566 N 796.696 -0.74468 -1.38897 0
M  V30 8567 C 797.943 -0.296884 -2.00312 0
M  V30 8568 C 798.271 1.11878 -1.59102 0
M  V30 8569 O 797.526 1.7789 -0.815702 0
M  V30 8570 C 797.825 -0.357302 -3.55609 0
M  V30 8571 C 797.491 -1.72736 -4.16501 0
M  V30 8572 C 796.153 -2.10232 -4.32846 0
M  V30 8573 C 798.505 -2.62647 -4.50184 0
M  V30 8574 C 795.833 -3.3713 -4.80167 0
M  V30 8575 C 798.185 -3.88926 -4.98918 0
M  V30 8576 C 796.849 -4.26503 -5.1347 0
M  V30 8577 H 796.119 -0.108638 -0.732993 0
M  V30 8578 H 798.766 -0.953419 -1.66079 0
M  V30 8579 H 797.071 0.382805 -3.89925 0
M  V30 8580 H 798.768 0.0074596 -4.00999 0
M  V30 8581 H 795.358 -1.42585 -4.04187 0
M  V30 8582 H 799.542 -2.34945 -4.37166 0
M  V30 8583 H 794.798 -3.66174 -4.89619 0
M  V30 8584 H 798.972 -4.58745 -5.23952 0
M  V30 8585 H 796.599 -5.24896 -5.49898 0
M  V30 8586 N 798.174 1.49689 -0.493057 0
M  V30 8587 C 799.404 2.06536 0.0512397 0
M  V30 8588 C 799.812 1.35459 1.32089 0
M  V30 8589 O 799.155 0.424145 1.78736 0
M  V30 8590 C 799.217 3.57452 0.383231 0
M  V30 8591 C 798.881 4.50163 -0.787555 0
M  V30 8592 C 799.878 4.92151 -1.67582 0
M  V30 8593 C 797.563 4.92565 -0.984109 0
M  V30 8594 C 799.557 5.7527 -2.74487 0
M  V30 8595 C 797.244 5.75463 -2.05634 0
M  V30 8596 C 798.242 6.16719 -2.93507 0
M  V30 8597 O 797.93 6.97961 -3.98881 0
M  V30 8598 H 797.662 0.675862 -0.0136516 0
M  V30 8599 H 800.216 1.9356 -0.687298 0
M  V30 8600 H 798.446 3.68408 1.17526 0
M  V30 8601 H 800.135 3.96572 0.8652 0
M  V30 8602 H 800.901 4.60043 -1.53575 0
M  V30 8603 H 796.78 4.5996 -0.309541 0
M  V30 8604 H 800.324 6.07392 -3.43104 0
M  V30 8605 H 796.221 6.06983 -2.19639 0
M  V30 8606 H 796.989 7.16253 -3.96137 0
M  V30 8607 N 799.652 0.226554 1.55963 0
M  V30 8608 C 800.582 -0.676079 2.23498 0
M  V30 8609 C 801.563 -1.19718 1.20837 0
M  V30 8610 O 802.748 -1.24027 1.49436 0
M  V30 8611 C 799.878 -1.88217 2.91876 0
M  V30 8612 C 798.832 -1.4947 4.01052 0
M  V30 8613 C 798.158 -2.77997 4.56751 0
M  V30 8614 C 799.458 -0.680951 5.17842 0
M  V30 8615 H 801.152 -0.112989 2.99187 0
M  V30 8616 H 798.698 -0.0529046 1.43903 0
M  V30 8617 H 800.651 -2.51911 3.37815 0
M  V30 8618 H 799.375 -2.47031 2.13643 0
M  V30 8619 H 798.034 -0.881199 3.55852 0
M  V30 8620 H 797.682 -3.34966 3.75243 0
M  V30 8621 H 797.382 -2.52803 5.30438 0
M  V30 8622 H 798.906 -3.42625 5.05411 0
M  V30 8623 H 800.32 -1.22171 5.60131 0
M  V30 8624 H 798.717 -0.525898 5.97791 0
M  V30 8625 H 799.787 0.311346 4.83899 0
M  V30 8626 N 801.13 -1.57531 -0.0467866 0
M  V30 8627 C 802.08 -2.01845 -1.06031 0
M  V30 8628 C 803.064 -0.904662 -1.33059 0
M  V30 8629 O 804.256 -1.16858 -1.32941 0
M  V30 8630 C 801.385 -2.48673 -2.36679 0
M  V30 8631 C 800.471 -3.66837 -2.12818 0
M  V30 8632 N 800.862 -4.80172 -1.5896 0
M  V30 8633 C 799.16 -3.73869 -2.43183 0
M  V30 8634 C 799.861 -5.61895 -1.50494 0
M  V30 8635 N 798.837 -5.0648 -1.97431 0
M  V30 8636 H 802.639 -2.869 -0.637623 0
M  V30 8637 H 800.153 -1.6041 -0.253427 0
M  V30 8638 H 802.15 -2.78671 -3.10077 0
M  V30 8639 H 800.81 -1.65016 -2.79642 0
M  V30 8640 H 801.821 -5.01967 -1.27474 0
M  V30 8641 H 798.498 -3.00977 -2.89342 0
M  V30 8642 H 799.888 -6.62918 -1.09494 0
M  V30 8643 N 802.608 0.318715 -1.54344 0
M  V30 8644 C 803.571 1.37545 -1.83342 0
M  V30 8645 C 804.571 1.445 -0.705444 0
M  V30 8646 O 805.761 1.44443 -0.973752 0
M  V30 8647 C 802.893 2.76225 -1.99781 0
M  V30 8648 H 804.086 1.13084 -2.77762 0
M  V30 8649 H 801.639 0.554457 -1.46135 0
M  V30 8650 H 802.374 3.05934 -1.07588 0
M  V30 8651 H 802.159 2.7257 -2.81865 0
M  V30 8652 H 803.649 3.52664 -2.23647 0
M  V30 8653 N 804.086 1.46499 0.581025 0
M  V30 8654 C 805.018 1.53225 1.70455 0
M  V30 8655 C 806.031 0.420443 1.57277 0
M  V30 8656 O 807.22 0.688888 1.64671 0
M  V30 8657 C 804.32 1.39803 3.08721 0
M  V30 8658 C 803.493 2.65132 3.47884 0
M  V30 8659 C 802.552 2.45886 4.65217 0
M  V30 8660 O 801.578 3.19615 4.70993 0
M  V30 8661 N 802.78 1.5216 5.60203 0
M  V30 8662 H 805.545 2.50098 1.65139 0
M  V30 8663 H 803.106 1.42576 0.76705 0
M  V30 8664 H 805.098 1.24697 3.8501 0
M  V30 8665 H 803.668 0.51104 3.08394 0
M  V30 8666 H 802.888 2.95169 2.61284 0
M  V30 8667 H 804.176 3.48385 3.70817 0
M  V30 8668 H 803.574 0.913646 5.58273 0
M  V30 8669 H 802.131 1.43017 6.35916 0
M  V30 8670 N 805.565 -0.825799 1.34232 0
M  V30 8671 C 806.512 -1.93651 1.2557 0
M  V30 8672 C 807.482 -1.65578 0.131536 0
M  V30 8673 O 808.667 -1.88231 0.312027 0
M  V30 8674 C 805.807 -3.29862 1.01415 0
M  V30 8675 C 804.92 -3.70247 2.22579 0
M  V30 8676 C 804.055 -4.95392 1.91731 0
M  V30 8677 C 803.094 -5.28349 3.09053 0
M  V30 8678 N 802.231 -6.44671 2.78107 0
M  V30 8679 H 807.071 -2.00392 2.20561 0
M  V30 8680 H 804.608 -0.980441 1.09662 0
M  V30 8681 H 806.566 -4.08356 0.854485 0
M  V30 8682 H 805.196 -3.22642 0.100936 0
M  V30 8683 H 804.248 -2.87169 2.49476 0
M  V30 8684 H 805.56 -3.90575 3.10246 0
M  V30 8685 H 804.714 -5.81665 1.72484 0
M  V30 8686 H 803.453 -4.77059 1.0132 0
M  V30 8687 H 802.458 -4.40574 3.289 0
M  V30 8688 H 803.683 -5.48622 4.00239 0
M  V30 8689 H 801.629 -6.278 1.9027 0
M  V30 8690 H 801.546 -6.65158 3.59306 0
M  V30 8691 H 802.814 -7.34022 2.62358 0
M  V30 8692 N 807.043 -1.17915 -1.04565 0
M  V30 8693 C 808.289 -0.972863 -1.77942 0
M  V30 8694 C 808.622 0.496753 -1.87739 0
M  V30 8695 O 807.897 1.3688 -1.38181 0
M  V30 8696 C 808.18 -1.62227 -3.21488 0
M  V30 8697 C 808.033 -3.16441 -3.19664 0
M  V30 8698 C 809.352 -1.33137 -4.19479 0
M  V30 8699 H 806.471 -0.354843 -0.645953 0
M  V30 8700 H 809.113 -1.45508 -1.22178 0
M  V30 8701 H 807.263 -1.21224 -3.69103 0
M  V30 8702 H 808.935 -3.66544 -2.80077 0
M  V30 8703 H 807.178 -3.48863 -2.57832 0
M  V30 8704 H 807.849 -3.57012 -4.21006 0
M  V30 8705 H 810.325 -1.68654 -3.80388 0
M  V30 8706 H 809.201 -1.81151 -5.18146 0
M  V30 8707 H 809.462 -0.253319 -4.41374 0
M  V30 8708 N 808.521 1.23394 -0.980386 0
M  V30 8709 C 809.932 1.73631 -0.686239 0
M  V30 8710 C 810.283 1.79259 0.797541 0
M  V30 8711 O 809.408 1.43046 1.62379 0
M  V30 8712 C 810.003 3.15332 -1.239 0
M  V30 8713 C 808.562 3.63024 -0.994494 0
M  V30 8714 C 807.709 2.41279 -1.36673 0
M  V30 8715 H 810.66 1.08918 -1.15423 0
M  V30 8716 H 810.681 3.75556 -0.611414 0
M  V30 8717 H 810.193 3.11204 -2.31892 0
M  V30 8718 H 808.294 3.72535 0.0693492 0
M  V30 8719 H 808.407 4.49825 -1.64906 0
M  V30 8720 H 806.771 2.42295 -0.785195 0
M  V30 8721 H 807.554 2.39822 -2.45642 0
M  V30 8722 N 809.999 0.752036 1.385 0
M  V30 8723 C 810.909 0.125318 2.34265 0
M  V30 8724 C 811.925 -0.702437 1.59191 0
M  V30 8725 O 813.101 -0.626951 1.91393 0
M  V30 8726 C 810.166 -0.758486 3.38301 0
M  V30 8727 C 809.227 0.0834636 4.29219 0
M  V30 8728 C 808.46 -0.758252 5.28286 0
M  V30 8729 O 808.683 -1.99632 5.34325 0
M  V30 8730 O 807.617 -0.177878 6.01637 0
M  V30 8731 H 811.443 0.91617 2.89551 0
M  V30 8732 H 809.028 0.512911 1.4032 0
M  V30 8733 H 810.91 -1.26365 4.02007 0
M  V30 8734 H 809.585 -1.52786 2.85374 0
M  V30 8735 H 808.492 0.634545 3.68679 0
M  V30 8736 H 809.825 0.815455 4.85398 0
M  V30 8737 N 811.477 -1.49425 0.500989 0
M  V30 8738 C 812.725 -2.02053 -0.0434495 0
M  V30 8739 C 813.046 -1.38285 -1.37486 0
M  V30 8740 O 812.316 -0.538171 -1.88363 0
M  V30 8741 H 810.896 -0.746757 -0.0190469 0
M  V30 8742 H 813.558 -1.83449 0.658227 0
M  V30 8743 H 812.654 -3.11619 -0.173129 0
M  V30 8744 N 812.955 -0.234822 -1.55841 0
M  V30 8745 C 813.865 0.680828 -2.24504 0
M  V30 8746 C 814.881 1.20306 -1.25708 0
M  V30 8747 O 816.057 1.24188 -1.58554 0
M  V30 8748 C 813.122 1.86636 -2.92178 0
M  V30 8749 C 812.183 1.3848 -4.06352 0
M  V30 8750 C 811.416 2.51382 -4.70789 0
M  V30 8751 O 811.639 3.69831 -4.34259 0
M  V30 8752 O 810.573 2.21828 -5.59532 0
M  V30 8753 H 814.399 0.12583 -3.03439 0
M  V30 8754 H 811.984 -0.00381817 -1.494 0
M  V30 8755 H 813.866 2.55845 -3.34845 0
M  V30 8756 H 812.541 2.40921 -2.16192 0
M  V30 8757 H 811.448 0.660341 -3.68226 0
M  V30 8758 H 812.781 0.888177 -4.8412 0
M  V30 8759 N 814.433 1.57553 0.0384317 0
M  V30 8760 C 815.661 1.93093 0.743141 0
M  V30 8761 C 816.076 0.833787 1.69391 0
M  V30 8762 O 815.433 -0.190532 1.81503 0
M  V30 8763 C 815.484 3.28533 1.50826 0
M  V30 8764 O 815.205 4.34032 0.595665 0
M  V30 8765 C 816.706 3.78297 2.31098 0
M  V30 8766 H 813.926 0.637486 0.20941 0
M  V30 8767 H 816.47 2.045 -0.00125154 0
M  V30 8768 H 814.625 3.18552 2.20462 0
M  V30 8769 H 815.039 5.12155 1.13124 0
M  V30 8770 H 816.513 4.75602 2.80191 0
M  V30 8771 H 816.99 3.09008 3.12107 0
M  V30 8772 H 817.596 3.91331 1.66555 0
M  V30 8773 N 815.911 -0.310526 1.54511 0
M  V30 8774 C 816.859 -1.40272 1.85544 0
M  V30 8775 C 817.853 -1.52941 0.728377 0
M  V30 8776 O 819.059 -1.55172 0.912234 0
M  V30 8777 H 815.434 -0.468355 0.588343 0
M  V30 8778 H 817.405 -1.11329 2.76855 0
M  V30 8779 C 816.154 -2.76279 2.11105 0
M  V30 8780 H 815.477 -2.67308 2.97298 0
M  V30 8781 H 816.917 -3.51736 2.36765 0
M  V30 8782 C 815.376 -3.24472 0.906618 0
M  V30 8783 O 815.906 -4.01514 0.122358 0
M  V30 8784 N 814.112 -2.81676 0.714632 0
M  V30 8785 H 813.659 -2.19143 1.35404 0
M  V30 8786 H 813.617 -3.14272 -0.089703 0
M  V30 8787 N 817.389 -1.46805 -0.573248 0
M  V30 8788 C 818.638 -1.51868 -1.32736 0
M  V30 8789 C 818.951 -0.178765 -1.94781 0
M  V30 8790 O 820.157 -0.107272 -2.71288 0
M  V30 8791 C 818.613 -2.67641 -2.40616 0
M  V30 8792 C 818.221 -4.08094 -1.84832 0
M  V30 8793 C 819.965 -2.81984 -3.17309 0
M  V30 8794 C 817.872 -5.15193 -2.90397 0
M  V30 8795 H 816.802 -0.56523 -0.49903 0
M  V30 8796 H 819.453 -1.7304 -0.610695 0
M  V30 8797 H 817.835 -2.39818 -3.15124 0
M  V30 8798 H 819.009 -4.45751 -1.16803 0
M  V30 8799 H 817.324 -3.985 -1.20775 0
M  V30 8800 H 819.921 -3.59166 -3.96111 0
M  V30 8801 H 820.264 -1.89842 -3.70494 0
M  V30 8802 H 820.797 -3.095 -2.4991 0
M  V30 8803 H 817.536 -6.09158 -2.42088 0
M  V30 8804 H 817.056 -4.82071 -3.56886 0
M  V30 8805 H 818.735 -5.41448 -3.54179 0
M  V30 8806 N 818.867 0.818669 -1.34668 0
M  V30 8807 C 820.092 1.61193 -1.30505 0
M  V30 8808 C 820.517 1.87734 0.117341 0
M  V30 8809 O 819.875 1.45591 1.08042 0
M  V30 8810 C 819.923 2.92733 -2.1057 0
M  V30 8811 O 819.027 3.85 -1.47813 0
M  V30 8812 H 818.368 0.490085 -0.44801 0
M  V30 8813 H 820.898 1.01701 -1.77534 0
M  V30 8814 H 820.908 3.42262 -2.22082 0
M  V30 8815 H 819.583 2.7274 -3.13984 0
M  V30 8816 H 818.16 3.43525 -1.45069 0
M  V30 8817 N 820.346 1.18468 1.03938 0
M  V30 8818 C 821.276 0.936389 2.13902 0
M  V30 8819 C 822.257 -0.126381 1.6963 0
M  V30 8820 O 823.442 0.0264757 1.94182 0
M  V30 8821 C 820.572 0.462729 3.44204 0
M  V30 8822 C 819.526 1.46613 4.02105 0
M  V30 8823 C 818.852 0.84994 5.27902 0
M  V30 8824 C 820.152 2.84323 4.3813 0
M  V30 8825 H 821.846 1.85602 2.3493 0
M  V30 8826 H 819.392 0.893806 1.12903 0
M  V30 8827 H 821.345 0.276382 4.20493 0
M  V30 8828 H 820.069 -0.492477 3.22866 0
M  V30 8829 H 818.728 1.63944 3.27899 0
M  V30 8830 H 818.376 -0.112493 5.02874 0
M  V30 8831 H 818.076 1.51988 5.67603 0
M  V30 8832 H 819.6 0.674152 6.06867 0
M  V30 8833 H 821.014 2.70636 5.054 0
M  V30 8834 H 819.411 3.48012 4.88884 0
M  V30 8835 H 820.481 3.37776 3.47901 0
M  V30 8836 N 821.824 -1.22873 0.986916 0
M  V30 8837 C 823.052 -1.95487 0.677663 0
M  V30 8838 C 823.467 -1.72978 -0.756572 0
M  V30 8839 O 822.824 -1.02517 -1.50985 0
M  V30 8840 C 822.875 -3.48337 0.966638 0
M  V30 8841 O 822.596 -3.70087 2.34451 0
M  V30 8842 C 824.097 -4.38142 0.674248 0
M  V30 8843 H 821.317 -0.622211 0.251185 0
M  V30 8844 H 823.861 -1.56187 1.32007 0
M  V30 8845 H 822.016 -3.85628 0.370137 0
M  V30 8846 H 822.43 -4.64332 2.43918 0
M  V30 8847 H 823.904 -5.44165 0.926759 0
M  V30 8848 H 824.381 -4.3745 -0.391728 0
M  V30 8849 H 824.987 -4.06469 1.25152 0
M  V30 8850 N 823.302 -0.75937 -1.38099 0
M  V30 8851 C 824.527 -0.327859 -2.04792 0
M  V30 8852 C 824.952 1.03752 -1.56899 0
M  V30 8853 O 824.31 1.66235 -0.723581 0
M  V30 8854 C 824.358 -0.366264 -3.58735 0
M  V30 8855 O 823.462 0.637697 -4.0744 0
M  V30 8856 H 822.803 -0.144092 -0.648177 0
M  V30 8857 H 825.333 -1.03211 -1.7666 0
M  V30 8858 H 825.343 -0.219179 -4.07411 0
M  V30 8859 H 824.018 -1.36243 -3.92951 0
M  V30 8860 H 822.595 0.454749 -3.70117 0
M  V30 8861 N 824.78 1.49157 -0.508906 0
M  V30 8862 C 826.005 2.07376 0.0315182 0
M  V30 8863 C 826.43 1.36575 1.2934 0
M  V30 8864 O 825.788 0.424963 1.76249 0
M  V30 8865 C 825.836 3.59661 0.260118 0
M  V30 8866 O 824.94 3.90255 1.33322 0
M  V30 8867 H 824.281 0.663334 -0.029739 0
M  V30 8868 H 826.811 1.91857 -0.710791 0
M  V30 8869 H 826.821 4.05056 0.489225 0
M  V30 8870 H 825.496 4.10601 -0.661794 0
M  V30 8871 H 824.073 3.56661 1.08844 0
M  V30 8872 N 826.258 0.243083 1.55714 0
M  V30 8873 C 827.507 -0.383188 1.98027 0
M  V30 8874 C 827.82 -1.59347 1.13436 0
M  V30 8875 O 829.026 -2.29065 1.45745 0
M  V30 8876 C 827.482 -0.733135 3.52354 0
M  V30 8877 C 827.09 0.455539 4.45678 0
M  V30 8878 C 828.834 -1.32381 4.03331 0
M  V30 8879 C 826.741 0.0819591 5.91343 0
M  V30 8880 H 825.671 -0.146944 0.739543 0
M  V30 8881 H 828.322 0.342697 1.80272 0
M  V30 8882 H 826.704 -1.51704 3.65789 0
M  V30 8883 H 827.878 1.23291 4.44 0
M  V30 8884 H 826.193 0.960886 4.05162 0
M  V30 8885 H 828.79 -1.61658 5.09677 0
M  V30 8886 H 829.133 -2.24698 3.50452 0
M  V30 8887 H 829.666 -0.602885 3.93205 0
M  V30 8888 H 826.405 0.972171 6.48251 0
M  V30 8889 H 825.925 -0.659291 5.96166 0
M  V30 8890 H 827.604 -0.3372 6.46121 0
M  V30 8891 N 827.736 -1.57571 -0.0300757 0
M  V30 8892 C 829.013 -1.80381 -0.756447 0
M  V30 8893 C 829.393 -0.840906 -1.93628 0
M  V30 8894 O 828.741 0.117143 -2.282 0
M  V30 8895 C 828.951 -3.2807 -1.19043 0
M  V30 8896 C 830.299 -3.93025 -1.60676 0
M  V30 8897 O 831.323 -3.32213 -1.28503 0
M  V30 8898 O 830.182 -5.00092 -2.20386 0
M  V30 8899 H 827.276 -0.741737 -0.365725 0
M  V30 8900 H 829.822 -1.69699 -0.00693177 0
M  V30 8901 H 828.594 -3.89748 -0.348128 0
M  V30 8902 H 828.217 -3.43637 -1.99999 0
M  V30 8903 N 829.214 0.302327 -1.54673 0
M  V30 8904 C 830.442 1.05669 -1.77881 0
M  V30 8905 C 830.857 1.80983 -0.537648 0
M  V30 8906 O 830.214 1.7573 0.492467 0
M  V30 8907 C 830.265 2.03828 -2.98557 0
M  V30 8908 O 829.986 1.3157 -4.17877 0
M  V30 8909 C 831.487 2.91314 -3.34143 0
M  V30 8910 H 828.707 0.313436 -0.593295 0
M  V30 8911 H 831.251 0.342003 -2.0162 0
M  V30 8912 H 829.406 2.70801 -2.7703 0
M  V30 8913 H 829.82 1.97481 -4.85903 0
M  V30 8914 H 831.294 3.56042 -4.21827 0
M  V30 8915 H 831.771 3.59544 -2.52239 0
M  V30 8916 H 832.377 2.29874 -3.57824 0
M  V30 8917 N 830.692 1.47107 0.565454 0
M  V30 8918 C 831.655 1.58535 1.65527 0
M  V30 8919 C 832.655 0.461081 1.54048 0
M  V30 8920 O 833.845 0.725911 1.58355 0
M  V30 8921 C 830.977 1.52204 3.05036 0
M  V30 8922 H 832.17 2.55676 1.56747 0
M  V30 8923 H 829.723 1.35174 0.78471 0
M  V30 8924 H 830.458 0.564071 3.19357 0
M  V30 8925 H 830.243 2.3379 3.14777 0
M  V30 8926 H 831.733 1.63322 3.84338 0
M  V30 8927 N 832.17 -0.811516 1.35101 0
M  V30 8928 C 833.1 -1.9378 1.30275 0
M  V30 8929 C 834.081 -1.69165 0.178075 0
M  V30 8930 O 835.266 -1.90599 0.372256 0
M  V30 8931 C 832.396 -3.30439 1.06899 0
M  V30 8932 C 831.35 -3.69523 2.15955 0
M  V30 8933 C 830.676 -5.0429 1.77751 0
M  V30 8934 C 831.976 -3.80419 3.57881 0
M  V30 8935 H 833.67 -1.98075 2.24514 0
M  V30 8936 H 831.216 -0.951586 1.08078 0
M  V30 8937 H 833.169 -4.08828 1.02164 0
M  V30 8938 H 831.893 -3.26473 0.0910462 0
M  V30 8939 H 830.552 -2.93416 2.19778 0
M  V30 8940 H 830.2 -4.96823 0.785876 0
M  V30 8941 H 829.9 -5.31411 2.5075 0
M  V30 8942 H 831.424 -5.85125 1.74533 0
M  V30 8943 H 832.838 -4.49051 3.56407 0
M  V30 8944 H 831.235 -4.19005 4.29598 0
M  V30 8945 H 832.305 -2.82105 3.94391 0
M  V30 8946 N 833.648 -1.19017 -1.03309 0
M  V30 8947 C 834.578 -0.94772 -2.13402 0
M  V30 8948 C 835.559 0.117383 -1.69694 0
M  V30 8949 O 836.744 -0.0367733 -1.94165 0
M  V30 8950 C 833.874 -0.480977 -3.43953 0
M  V30 8951 C 832.828 -1.48743 -4.01322 0
M  V30 8952 C 832.154 -0.877924 -5.27443 0
M  V30 8953 C 833.454 -2.86642 -4.36616 0
M  V30 8954 H 835.148 -1.86846 -2.33942 0
M  V30 8955 H 832.694 -0.899781 -1.12427 0
M  V30 8956 H 834.647 -0.298677 -4.2034 0
M  V30 8957 H 833.371 0.475348 -3.23122 0
M  V30 8958 H 832.03 -1.65681 -3.27025 0
M  V30 8959 H 831.678 0.0858232 -5.02927 0
M  V30 8960 H 831.378 -1.54996 -5.66789 0
M  V30 8961 H 832.902 -0.706326 -6.06501 0
M  V30 8962 H 834.316 -2.73312 -5.03958 0
M  V30 8963 H 832.713 -3.50599 -4.87032 0
M  V30 8964 H 833.783 -3.39617 -3.46105 0
M  V30 8965 N 835.127 1.22348 -0.993418 0
M  V30 8966 C 836.037 2.27987 -0.553076 0
M  V30 8967 C 837.053 1.69378 0.398386 0
M  V30 8968 O 838.229 1.99648 0.26509 0
M  V30 8969 C 835.294 3.46475 0.124809 0
M  V30 8970 C 834.355 4.20399 -0.869682 0
M  V30 8971 C 833.588 5.33229 -0.224052 0
M  V30 8972 O 833.811 5.61885 0.981915 0
M  V30 8973 O 832.745 5.94685 -0.929174 0
M  V30 8974 H 836.571 2.67822 -1.43195 0
M  V30 8975 H 834.156 1.28525 -0.761694 0
M  V30 8976 H 836.038 4.18369 0.504496 0
M  V30 8977 H 834.713 3.08565 0.978243 0
M  V30 8978 H 833.62 3.50774 -1.30031 0
M  V30 8979 H 834.953 4.62191 -1.69233 0
M  V30 8980 N 836.605 0.766683 1.37694 0
M  V30 8981 C 837.515 0.150158 2.34119 0
M  V30 8982 C 838.531 -0.685513 1.59927 0
M  V30 8983 O 839.707 -0.606616 1.92047 0
M  V30 8984 C 836.772 -0.722562 3.39087 0
M  V30 8985 C 835.833 0.128983 4.29106 0
M  V30 8986 C 835.066 -0.702178 5.29061 0
M  V30 8987 O 835.289 -1.93954 5.36412 0
M  V30 8988 O 834.223 -0.114056 6.01792 0
M  V30 8989 H 838.049 0.946829 2.88563 0
M  V30 8990 H 835.634 0.527765 1.39768 0
M  V30 8991 H 837.516 -1.22095 4.03325 0
M  V30 8992 H 836.191 -1.49751 2.86978 0
M  V30 8993 H 835.098 0.673612 3.67985 0
M  V30 8994 H 836.431 0.866892 4.84506 0
M  V30 8995 N 838.083 -1.48885 0.516809 0
M  V30 8996 C 839.308 -2.0739 -0.0205201 0
M  V30 8997 C 839.733 -1.37259 -1.28614 0
M  V30 8998 O 839.091 -0.434304 -1.76021 0
M  V30 8999 C 839.139 -3.59793 -0.24104 0
M  V30 9000 O 838.243 -3.90957 -1.31251 0
M  V30 9001 H 837.584 -0.663167 0.0332564 0
M  V30 9002 H 840.114 -1.91477 0.720956 0
M  V30 9003 H 840.124 -4.0531 -0.467737 0
M  V30 9004 H 838.799 -4.10244 0.68356 0
M  V30 9005 H 837.376 -3.57234 -1.06951 0
M  V30 9006 N 839.561 -0.251338 -1.55583 0
M  V30 9007 C 840.508 0.646337 -2.21565 0
M  V30 9008 C 841.478 1.16796 -1.18102 0
M  V30 9009 O 842.663 1.22162 -1.46564 0
M  V30 9010 C 839.803 1.83557 -2.92234 0
M  V30 9011 C 838.916 1.35006 -4.10363 0
M  V30 9012 C 838.051 2.4992 -4.68736 0
M  V30 9013 C 837.09 1.98253 -5.79105 0
M  V30 9014 N 836.227 3.06551 -6.31642 0
M  V30 9015 H 841.067 0.0769881 -2.97901 0
M  V30 9016 H 838.604 0.026238 -1.47077 0
M  V30 9017 H 840.562 2.53425 -3.31408 0
M  V30 9018 H 839.192 2.37733 -2.18364 0
M  V30 9019 H 838.244 0.545274 -3.76472 0
M  V30 9020 H 839.556 0.931435 -4.90026 0
M  V30 9021 H 838.71 3.27823 -5.10507 0
M  V30 9022 H 837.449 2.95086 -3.88298 0
M  V30 9023 H 836.454 1.18822 -5.36807 0
M  V30 9024 H 837.679 1.54051 -6.61396 0
M  V30 9025 H 835.625 3.51143 -5.54107 0
M  V30 9026 H 835.542 2.69033 -7.06511 0
M  V30 9027 H 836.81 3.84499 -6.78071 0
M  V30 9028 N 841.039 1.57585 0.0217189 0
M  V30 9029 C 842.316 1.80779 0.74687 0
M  V30 9030 C 842.696 0.851163 1.9318 0
M  V30 9031 O 842.044 -0.105039 2.28258 0
M  V30 9032 C 842.254 3.28696 1.17302 0
M  V30 9033 C 843.602 3.93871 1.58589 0
M  V30 9034 O 844.626 3.3289 1.2674 0
M  V30 9035 O 843.485 5.01254 2.1773 0
M  V30 9036 H 840.579 0.743666 0.361786 0
M  V30 9037 H 843.125 1.697 -0.00206785 0
M  V30 9038 H 841.897 3.89927 0.327453 0
M  V30 9039 H 841.52 3.44692 1.98174 0
M  V30 9040 N 842.517 -0.29412 1.54831 0
M  V30 9041 C 843.766 -1.02614 1.73647 0
M  V30 9042 C 844.079 -1.88193 0.533162 0
M  V30 9043 O 845.285 -2.64713 0.603275 0
M  V30 9044 C 843.741 -1.87417 3.07251 0
M  V30 9045 C 843.349 -1.06806 4.35082 0
M  V30 9046 C 845.093 -2.60176 3.35423 0
M  V30 9047 C 843 -1.90926 5.59733 0
M  V30 9048 H 841.93 -0.386834 0.647206 0
M  V30 9049 H 844.581 -0.282789 1.81308 0
M  V30 9050 H 842.963 -2.65765 2.93572 0
M  V30 9051 H 844.137 -0.330226 4.59615 0
M  V30 9052 H 842.452 -0.455979 4.13896 0
M  V30 9053 H 845.049 -3.23476 4.25755 0
M  V30 9054 H 845.392 -3.29365 2.54606 0
M  V30 9055 H 845.925 -1.88871 3.50103 0
M  V30 9056 H 842.664 -1.26194 6.43238 0
M  V30 9057 H 842.184 -2.62363 5.39375 0
M  V30 9058 H 843.863 -2.48807 5.97247 0
M  V30 9059 N 843.995 -1.47404 -0.557645 0
M  V30 9060 C 845.242 -1.54007 -1.31484 0
M  V30 9061 C 845.57 -0.202162 -1.93447 0
M  V30 9062 O 844.825 0.804901 -1.78381 0
M  V30 9063 C 845.124 -2.6061 -2.44575 0
M  V30 9064 C 844.79 -4.03896 -2.00446 0
M  V30 9065 C 843.452 -4.42901 -1.88127 0
M  V30 9066 C 845.804 -4.93804 -1.66754 0
M  V30 9067 C 843.132 -5.6965 -1.40411 0
M  V30 9068 C 845.484 -6.21016 -1.20509 0
M  V30 9069 C 844.148 -6.58903 -1.06786 0
M  V30 9070 H 843.418 -0.563552 -0.481134 0
M  V30 9071 H 846.065 -1.81001 -0.625375 0
M  V30 9072 H 844.37 -2.27371 -3.19076 0
M  V30 9073 H 846.067 -2.62941 -3.02759 0
M  V30 9074 H 842.657 -3.73077 -2.10977 0
M  V30 9075 H 846.841 -4.64369 -1.75144 0
M  V30 9076 H 842.097 -5.97755 -1.2845 0
M  V30 9077 H 846.271 -6.90095 -0.935001 0
M  V30 9078 H 843.898 -7.57008 -0.695891 0
M  V30 9079 N 845.473 0.80434 -1.35529 0
M  V30 9080 C 846.72 1.56154 -1.28927 0
M  V30 9081 C 847.048 1.94026 0.135682 0
M  V30 9082 O 846.303 1.61759 1.10148 0
M  V30 9083 C 846.602 2.85988 -2.14349 0
M  V30 9084 C 846.268 2.67323 -3.6311 0
M  V30 9085 C 844.93 2.61941 -4.03659 0
M  V30 9086 C 847.282 2.49699 -4.57493 0
M  V30 9087 C 844.61 2.3688 -5.36754 0
M  V30 9088 C 846.962 2.26168 -5.90788 0
M  V30 9089 C 845.626 2.19209 -6.30479 0
M  V30 9090 H 844.896 0.571407 -0.471779 0
M  V30 9091 H 847.543 0.929193 -1.67446 0
M  V30 9092 H 845.848 3.53612 -1.68718 0
M  V30 9093 H 847.545 3.43697 -2.06576 0
M  V30 9094 H 844.135 2.72361 -3.30934 0
M  V30 9095 H 848.319 2.52869 -4.27049 0
M  V30 9096 H 843.575 2.29964 -5.66504 0
M  V30 9097 H 847.749 2.11522 -6.63499 0
M  V30 9098 H 845.376 1.99553 -7.33541 0
M  V30 9099 N 846.951 1.19563 1.02676 0
M  V30 9100 C 848.176 1.02556 1.80269 0
M  V30 9101 C 848.601 -0.421056 1.83327 0
M  V30 9102 O 847.959 -1.30279 1.26084 0
M  V30 9103 C 848.007 1.60165 3.23078 0
M  V30 9104 O 847.111 0.832404 4.03912 0
M  V30 9105 H 846.452 0.362354 0.556413 0
M  V30 9106 H 848.982 1.58633 1.29216 0
M  V30 9107 H 848.992 1.6347 3.7382 0
M  V30 9108 H 847.667 2.65454 3.20167 0
M  V30 9109 H 846.244 0.872768 3.62543 0
M  V30 9110 N 848.429 -1.21819 0.999893 0
M  V30 9111 C 849.654 -1.95298 0.698094 0
M  V30 9112 C 850.079 -1.73273 -0.731982 0
M  V30 9113 O 849.437 -1.01634 -1.50134 0
M  V30 9114 C 849.485 -3.45922 1.01834 0
M  V30 9115 O 848.589 -4.12223 0.120801 0
M  V30 9116 H 847.93 -0.610729 0.260588 0
M  V30 9117 H 850.46 -1.5472 1.33876 0
M  V30 9118 H 850.47 -3.96471 0.963074 0
M  V30 9119 H 849.145 -3.61278 2.06037 0
M  V30 9120 H 847.722 -3.72177 0.232153 0
M  V30 9121 N 849.908 -0.773975 -1.37286 0
M  V30 9122 C 850.818 -0.162571 -2.34036 0
M  V30 9123 C 851.834 0.677022 -1.60289 0
M  V30 9124 O 853.01 0.596423 -1.92366 0
M  V30 9125 C 850.075 0.70457 -3.39465 0
M  V30 9126 C 849.136 -0.151738 -4.29032 0
M  V30 9127 C 848.369 0.674111 -5.29426 0
M  V30 9128 O 848.592 1.91107 -5.37433 0
M  V30 9129 O 847.526 0.0821398 -6.01844 0
M  V30 9130 H 851.352 -0.962119 -2.88057 0
M  V30 9131 H 848.937 -0.53517 -1.39486 0
M  V30 9132 H 850.819 1.19954 -4.03967 0
M  V30 9133 H 849.494 1.48227 -2.87768 0
M  V30 9134 H 848.401 -0.693118 -3.67623 0
M  V30 9135 H 849.734 -0.892575 -4.84039 0
M  V30 9136 N 851.386 1.48609 -0.524698 0
M  V30 9137 C 852.633 2.02497 0.0113214 0
M  V30 9138 C 852.961 1.40229 1.34781 0
M  V30 9139 O 852.216 0.53557 1.88229 0
M  V30 9140 C 852.515 3.56906 0.187873 0
M  V30 9141 C 852.181 4.37932 -1.07359 0
M  V30 9142 C 850.843 4.59792 -1.41933 0
M  V30 9143 C 853.195 4.84902 -1.911 0
M  V30 9144 C 850.523 5.25868 -2.60154 0
M  V30 9145 C 852.875 5.52281 -3.08495 0
M  V30 9146 C 851.539 5.7238 -3.4342 0
M  V30 9147 H 850.809 0.740988 0.0041428 0
M  V30 9148 H 853.456 1.78651 -0.689652 0
M  V30 9149 H 851.761 3.79563 0.971572 0
M  V30 9150 H 853.458 3.96218 0.617443 0
M  V30 9151 H 850.048 4.21175 -0.794331 0
M  V30 9152 H 854.232 4.67821 -1.65701 0
M  V30 9153 H 849.488 5.39628 -2.87422 0
M  V30 9154 H 853.662 5.87645 -3.73692 0
M  V30 9155 H 851.289 6.23354 -4.35126 0
M  V30 9156 N 852.864 0.259585 1.55447 0
M  V30 9157 C 854.113 -0.362163 1.98422 0
M  V30 9158 C 854.426 -1.58135 1.1512 0
M  V30 9159 O 855.632 -2.27506 1.48166 0
M  V30 9160 C 854.088 -0.695722 3.53111 0
M  V30 9161 C 853.696 0.502784 4.4517 0
M  V30 9162 C 855.44 -1.28096 4.04712 0
M  V30 9163 C 853.347 0.144674 5.91223 0
M  V30 9164 H 852.277 -0.139092 0.74106 0
M  V30 9165 H 854.928 0.361798 1.79898 0
M  V30 9166 H 853.31 -1.47816 3.67378 0
M  V30 9167 H 854.484 1.27994 4.42667 0
M  V30 9168 H 852.799 1.0038 4.0412 0
M  V30 9169 H 855.396 -1.56243 5.11363 0
M  V30 9170 H 855.739 -2.20969 3.52815 0
M  V30 9171 H 856.272 -0.561146 3.93822 0
M  V30 9172 H 853.011 1.04087 6.47183 0
M  V30 9173 H 852.531 -0.596023 5.96831 0
M  V30 9174 H 854.21 -0.268651 6.46442 0
M  V30 9175 N 854.342 -1.57594 -0.0133615 0
M  V30 9176 C 855.619 -1.81173 -0.737273 0
M  V30 9177 C 855.999 -0.861395 -1.92726 0
M  V30 9178 O 855.347 0.0929324 -2.28311 0
M  V30 9179 C 855.557 -3.29314 -1.15557 0
M  V30 9180 C 856.905 -3.94707 -1.56498 0
M  V30 9181 O 857.929 -3.33557 -1.24973 0
M  V30 9182 O 856.788 -5.02402 -2.15069 0
M  V30 9183 H 853.882 -0.745575 -0.357837 0
M  V30 9184 H 856.428 -1.69696 0.0110674 0
M  V30 9185 H 855.2 -3.90096 -0.30677 0
M  V30 9186 H 854.823 -3.45739 -1.96343 0
M  V30 9187 N 855.82 0.285905 -1.54985 0
M  V30 9188 C 857.048 1.03776 -1.78992 0
M  V30 9189 C 857.463 1.80402 -0.556814 0
M  V30 9190 O 856.82 1.76242 0.473801 0
M  V30 9191 C 856.871 2.0065 -3.00702 0
M  V30 9192 O 856.592 1.27131 -4.19249 0
M  V30 9193 C 858.093 2.87753 -3.37214 0
M  V30 9194 H 855.313 0.307126 -0.596586 0
M  V30 9195 H 857.857 0.3206 -2.01971 0
M  V30 9196 H 856.012 2.67847 -2.79887 0
M  V30 9197 H 856.426 1.92316 -4.8797 0
M  V30 9198 H 857.9 3.51548 -4.2558 0
M  V30 9199 H 858.377 3.56848 -2.56039 0
M  V30 9200 H 858.983 2.26065 -3.60242 0
M  V30 9201 N 857.298 1.47698 0.54982 0
M  V30 9202 C 858.547 1.53961 1.30303 0
M  V30 9203 C 858.86 0.209731 1.94472 0
M  V30 9204 O 860.066 0.150418 2.71083 0
M  V30 9205 C 858.522 2.71436 2.36328 0
M  V30 9206 C 858.13 4.10983 1.78316 0
M  V30 9207 C 859.874 2.86996 3.12783 0
M  V30 9208 C 857.781 5.19747 2.82164 0
M  V30 9209 H 856.711 0.573098 0.489975 0
M  V30 9210 H 859.362 1.73989 0.583089 0
M  V30 9211 H 857.744 2.44801 3.11269 0
M  V30 9212 H 858.918 4.47552 1.09697 0
M  V30 9213 H 857.233 4.00371 1.1442 0
M  V30 9214 H 859.83 3.65422 3.90347 0
M  V30 9215 H 860.173 1.95712 3.67427 0
M  V30 9216 H 860.706 3.13436 2.44954 0
M  V30 9217 H 857.445 6.12932 2.32366 0
M  V30 9218 H 856.965 4.87688 3.49171 0
M  V30 9219 H 858.644 5.47014 3.4552 0
M  V30 9220 N 858.776 -0.797141 1.35954 0
M  V30 9221 C 859.724 -1.93084 1.29697 0
M  V30 9222 C 860.718 -1.68329 0.190152 0
M  V30 9223 O 861.924 -1.7643 0.3567 0
M  V30 9224 H 858.299 -0.634531 0.403577 0
M  V30 9225 H 860.27 -1.95481 2.25455 0
M  V30 9226 C 859.019 -3.29996 1.09536 0
M  V30 9227 H 858.342 -3.49607 1.93946 0
M  V30 9228 H 859.782 -4.09696 1.09202 0
M  V30 9229 C 858.241 -3.36304 -0.200381 0
M  V30 9230 O 858.771 -3.83579 -1.19291 0
M  V30 9231 N 856.977 -2.89587 -0.242406 0
M  V30 9232 H 856.524 -2.51307 0.565897 0
M  V30 9233 H 856.482 -2.94189 -1.10906 0
M  V30 9234 N 860.254 -1.20106 -1.0204 0
M  V30 9235 C 861.201 -0.946468 -2.10501 0
M  V30 9236 C 862.171 0.121902 -1.65652 0
M  V30 9237 O 863.356 -0.0220244 -1.90787 0
M  V30 9238 C 860.496 -0.500499 -3.41451 0
M  V30 9239 C 859.609 -1.63659 -3.998 0
M  V30 9240 C 858.744 -1.14131 -5.18794 0
M  V30 9241 C 857.783 -2.25074 -5.69217 0
M  V30 9242 N 856.92 -1.76791 -6.79477 0
M  V30 9243 H 861.76 -1.87506 -2.31615 0
M  V30 9244 H 859.297 -0.934693 -1.13587 0
M  V30 9245 H 861.255 -0.223276 -4.16602 0
M  V30 9246 H 859.885 0.391099 -3.20422 0
M  V30 9247 H 858.937 -2.02882 -3.21781 0
M  V30 9248 H 860.249 -2.47213 -4.33229 0
M  V30 9249 H 859.403 -0.819826 -6.01135 0
M  V30 9250 H 858.142 -0.275615 -4.86921 0
M  V30 9251 H 857.147 -2.58043 -4.85483 0
M  V30 9252 H 858.372 -3.12114 -6.03127 0
M  V30 9253 H 856.318 -0.925428 -6.4944 0
M  V30 9254 H 856.235 -2.53928 -7.12079 0
M  V30 9255 H 857.503 -1.47631 -7.65392 0
M  V30 9256 N 861.732 1.21287 -1.00634 0
M  V30 9257 C 863.143 1.72136 -0.722914 0
M  V30 9258 C 863.494 1.8091 0.759338 0
M  V30 9259 O 862.619 1.46458 1.59308 0
M  V30 9260 C 863.214 3.12633 -1.30561 0
M  V30 9261 C 861.773 3.60833 -1.07127 0
M  V30 9262 C 860.92 2.38326 -1.4176 0
M  V30 9263 H 863.871 1.06445 -1.17708 0
M  V30 9264 H 863.892 3.74174 -0.690937 0
M  V30 9265 H 863.404 3.06215 -2.38441 0
M  V30 9266 H 861.505 3.72599 -0.00968671 0
M  V30 9267 H 861.618 4.46226 -1.74411 0
M  V30 9268 H 859.982 2.40575 -0.836412 0
M  V30 9269 H 860.765 2.34558 -2.50674 0
M  V30 9270 N 863.21 0.781244 1.36873 0
M  V30 9271 C 864.456 0.350407 1.9975 0
M  V30 9272 C 864.789 -1.07293 1.6187 0
M  V30 9273 O 864.064 -1.73983 0.869491 0
M  V30 9274 C 864.347 0.504834 3.56544 0
M  V30 9275 C 864.2 1.97127 4.04303 0
M  V30 9276 C 865.519 -0.0851272 4.40018 0
M  V30 9277 H 862.638 0.128794 0.725659 0
M  V30 9278 H 865.28 0.98606 1.6241 0
M  V30 9279 H 863.43 -0.0363006 3.88483 0
M  V30 9280 H 865.102 2.57284 3.82887 0
M  V30 9281 H 863.345 2.47676 3.56145 0
M  V30 9282 H 864.016 2.03033 5.13305 0
M  V30 9283 H 866.492 0.376704 4.14391 0
M  V30 9284 H 865.368 0.0530015 5.48874 0
M  V30 9285 H 865.629 -1.17642 4.2616 0
M  V30 9286 N 864.689 -1.48329 0.532571 0
M  V30 9287 C 865.637 -2.31336 -0.242133 0
M  V30 9288 C 866.631 -1.41391 -0.933006 0
M  V30 9289 O 867.837 -1.58284 -0.857096 0
M  V30 9290 H 864.212 -0.745724 -0.0969536 0
M  V30 9291 H 866.183 -2.94555 0.477504 0
M  V30 9292 C 864.932 -3.23501 -1.27446 0
M  V30 9293 H 864.255 -3.92659 -0.752261 0
M  V30 9294 H 865.695 -3.84461 -1.78789 0
M  V30 9295 C 864.154 -2.45288 -2.30944 0
M  V30 9296 O 864.684 -2.17955 -3.37429 0
M  V30 9297 N 862.89 -2.06737 -2.04226 0
M  V30 9298 H 862.437 -2.29166 -1.17647 0
M  V30 9299 H 862.395 -1.54719 -2.73696 0
M  V30 9300 N 866.167 -0.267825 -1.55308 0
M  V30 9301 C 867.13 0.60965 -2.20943 0
M  V30 9302 C 868.13 1.0869 -1.18504 0
M  V30 9303 O 869.32 0.988248 -1.43455 0
M  V30 9304 C 866.452 1.84027 -2.86961 0
M  V30 9305 H 867.645 0.0366806 -2.99878 0
M  V30 9306 H 865.198 -0.0183941 -1.56289 0
M  V30 9307 H 865.933 2.45394 -2.1202 0
M  V30 9308 H 865.718 1.50605 -3.62023 0
M  V30 9309 H 867.208 2.46442 -3.37129 0
M  V30 9310 N 867.645 1.57599 0.00500368 0
M  V30 9311 C 868.608 2.07058 0.982832 0
M  V30 9312 C 869.608 0.979045 1.27559 0
M  V30 9313 O 870.798 1.24187 1.22161 0
M  V30 9314 C 867.93 2.50782 2.30914 0
M  V30 9315 H 869.123 2.94718 0.555119 0
M  V30 9316 H 866.676 1.54249 0.25237 0
M  V30 9317 H 867.411 1.66351 2.78385 0
M  V30 9318 H 867.196 3.30495 2.10987 0
M  V30 9319 H 868.686 2.89391 3.0107 0
M  V30 9320 N 869.123 -0.277682 1.55134 0
M  V30 9321 C 870.053 -1.34742 1.90701 0
M  V30 9322 C 871.034 -1.51757 0.768354 0
M  V30 9323 O 872.219 -1.64879 1.02609 0
M  V30 9324 C 869.349 -2.70775 2.17481 0
M  V30 9325 C 868.303 -2.68497 3.33307 0
M  V30 9326 C 867.629 -4.08037 3.45557 0
M  V30 9327 C 868.929 -2.28178 4.69821 0
M  V30 9328 H 870.623 -1.05224 2.803 0
M  V30 9329 H 868.169 -0.504738 1.34864 0
M  V30 9330 H 870.122 -3.45719 2.40949 0
M  V30 9331 H 868.846 -3.01867 1.24676 0
M  V30 9332 H 867.505 -1.9601 3.09799 0
M  V30 9333 H 867.153 -4.36344 2.50226 0
M  V30 9334 H 866.853 -4.07409 4.23429 0
M  V30 9335 H 868.377 -4.84726 3.71312 0
M  V30 9336 H 869.791 -2.92843 4.92865 0
M  V30 9337 H 868.188 -2.3872 5.50575 0
M  V30 9338 H 869.258 -1.23308 4.6896 0
M  V30 9339 N 870.601 -1.47988 -0.541979 0
M  V30 9340 C 871.848 -1.55393 -1.29843 0
M  V30 9341 C 872.176 -0.222668 -1.93221 0
M  V30 9342 O 871.431 0.785936 -1.79225 0
M  V30 9343 C 871.73 -2.63189 -2.41798 0
M  V30 9344 C 871.396 -4.05999 -1.96151 0
M  V30 9345 C 870.058 -4.44872 -1.83419 0
M  V30 9346 C 872.41 -4.95545 -1.61507 0
M  V30 9347 C 869.738 -5.71108 -1.34361 0
M  V30 9348 C 872.09 -6.22259 -1.13915 0
M  V30 9349 C 870.754 -6.59998 -0.997911 0
M  V30 9350 H 870.024 -0.568623 -0.47513 0
M  V30 9351 H 872.671 -1.81654 -0.606142 0
M  V30 9352 H 870.976 -2.30743 -3.16647 0
M  V30 9353 H 872.673 -2.66138 -2.99953 0
M  V30 9354 H 869.263 -3.75294 -2.07008 0
M  V30 9355 H 873.447 -4.662 -1.70209 0
M  V30 9356 H 868.703 -5.99083 -1.22103 0
M  V30 9357 H 872.877 -6.91048 -0.861755 0
M  V30 9358 H 870.504 -7.57704 -0.615561 0
M  V30 9359 N 872.079 0.78992 -1.36375 0
M  V30 9360 C 873.328 1.54296 -1.29906 0
M  V30 9361 C 873.641 1.95234 0.119651 0
M  V30 9362 O 874.847 2.69762 0.306708 0
M  V30 9363 C 873.303 2.78533 -2.27919 0
M  V30 9364 C 872.911 2.44767 -3.75224 0
M  V30 9365 C 874.655 3.56516 -2.30427 0
M  V30 9366 C 872.562 3.65397 -4.65015 0
M  V30 9367 H 871.492 0.579214 -0.482729 0
M  V30 9368 H 874.143 0.866845 -1.61735 0
M  V30 9369 H 872.525 3.47941 -1.89084 0
M  V30 9370 H 873.699 1.83259 -4.22792 0
M  V30 9371 H 872.014 1.79996 -3.75487 0
M  V30 9372 H 874.611 4.46143 -2.94722 0
M  V30 9373 H 874.954 3.95063 -1.31266 0
M  V30 9374 H 875.487 2.94087 -2.67876 0
M  V30 9375 H 872.226 3.31946 -5.65236 0
M  V30 9376 H 871.746 4.26072 -4.22164 0
M  V30 9377 H 873.425 4.32431 -4.81261 0
M  V30 9378 N 873.557 1.20646 1.01402 0
M  V30 9379 C 874.834 0.927176 1.72229 0
M  V30 9380 C 875.214 -0.563382 2.03443 0
M  V30 9381 O 874.562 -1.52576 1.70096 0
M  V30 9382 C 874.772 1.80285 2.98828 0
M  V30 9383 C 876.12 2.04624 3.72041 0
M  V30 9384 O 877.144 1.77559 3.0879 0
M  V30 9385 O 876.003 2.50347 4.85787 0
M  V30 9386 H 873.097 0.346891 0.75073 0
M  V30 9387 H 875.643 1.31532 1.07227 0
M  V30 9388 H 874.415 2.81204 2.72102 0
M  V30 9389 H 874.038 1.41495 3.71571 0
M  V30 9390 N 875.035 -1.20752 1.01276 0
M  V30 9391 C 876.281 -1.90582 0.710627 0
M  V30 9392 C 876.636 -1.7713 -0.751184 0
M  V30 9393 O 875.929 -1.14223 -1.5383 0
M  V30 9394 C 876.123 -3.40808 1.07633 0
M  V30 9395 C 875.952 -3.68878 2.57214 0
M  V30 9396 C 874.722 -3.87805 3.23937 0
M  V30 9397 C 876.92 -3.71753 3.55393 0
M  V30 9398 N 874.902 -4.0336 4.62789 0
M  V30 9399 C 876.273 -3.92686 4.79789 0
M  V30 9400 C 878.328 -3.54697 3.4942 0
M  V30 9401 C 877.031 -3.98332 5.98936 0
M  V30 9402 C 879.057 -3.61612 4.67964 0
M  V30 9403 C 878.419 -3.83014 5.91168 0
M  V30 9404 H 874.518 -0.717219 0.311643 0
M  V30 9405 H 877.102 -1.45228 1.2968 0
M  V30 9406 H 875.273 -3.84923 0.518527 0
M  V30 9407 H 877.005 -3.98096 0.728128 0
M  V30 9408 H 873.76 -3.86029 2.74369 0
M  V30 9409 H 874.184 -4.15023 5.34869 0
M  V30 9410 H 878.826 -3.3712 2.55166 0
M  V30 9411 H 876.544 -4.14706 6.93574 0
M  V30 9412 H 880.13 -3.49728 4.64954 0
M  V30 9413 H 879.01 -3.88219 6.81363 0
M  V30 9414 N 876.513 -0.788492 -1.36457 0
M  V30 9415 C 877.762 -0.357052 -1.98515 0
M  V30 9416 C 878.075 1.0769 -1.63285 0
M  V30 9417 O 879.281 1.61057 -2.1857 0
M  V30 9418 C 877.737 -0.587449 -3.55073 0
M  V30 9419 C 877.345 -2.03276 -3.99228 0
M  V30 9420 C 879.089 -0.220468 -4.23927 0
M  V30 9421 C 876.996 -2.20987 -5.48561 0
M  V30 9422 H 875.926 -0.129762 -0.74275 0
M  V30 9423 H 878.577 -0.969995 -1.55767 0
M  V30 9424 H 876.959 0.0951918 -3.95886 0
M  V30 9425 H 878.133 -2.75173 -3.69617 0
M  V30 9426 H 876.448 -2.3579 -3.43208 0
M  V30 9427 H 879.045 -0.331085 -5.33674 0
M  V30 9428 H 879.388 0.831306 -4.07915 0
M  V30 9429 H 879.921 -0.856309 -3.88474 0
M  V30 9430 H 876.66 -3.24543 -5.69519 0
M  V30 9431 H 876.18 -1.53594 -5.79801 0
M  V30 9432 H 877.859 -2.01656 -6.14771 0
M  V30 9433 N 877.991 1.48044 -0.54043 0
M  V30 9434 C 879.216 2.07396 -0.0124765 0
M  V30 9435 C 879.641 1.39288 1.26414 0
M  V30 9436 O 878.999 0.462252 1.75308 0
M  V30 9437 C 879.047 3.60131 0.18377 0
M  V30 9438 O 878.151 3.92995 1.25014 0
M  V30 9439 H 877.492 0.662554 -0.0438026 0
M  V30 9440 H 880.022 1.90306 -0.751327 0
M  V30 9441 H 880.032 4.06003 0.403197 0
M  V30 9442 H 878.707 4.09105 -0.74874 0
M  V30 9443 H 877.284 3.5889 1.01254 0
M  V30 9444 N 879.47 0.276058 1.55163 0
M  V30 9445 C 880.417 -0.611006 2.22565 0
M  V30 9446 C 881.387 -1.14902 1.19945 0
M  V30 9447 O 882.572 -1.19815 1.48489 0
M  V30 9448 C 879.712 -1.78885 2.95117 0
M  V30 9449 C 878.825 -1.2846 4.12458 0
M  V30 9450 C 877.96 -2.42432 4.72652 0
M  V30 9451 C 876.999 -1.89015 5.82185 0
M  V30 9452 N 876.136 -2.96463 6.36439 0
M  V30 9453 H 880.976 -0.0295849 2.97985 0
M  V30 9454 H 878.513 -0.00283607 1.471 0
M  V30 9455 H 880.471 -2.48121 3.35398 0
M  V30 9456 H 879.101 -2.34229 2.22119 0
M  V30 9457 H 878.153 -0.485312 3.77292 0
M  V30 9458 H 879.465 -0.853358 4.91446 0
M  V30 9459 H 878.619 -3.19659 5.15658 0
M  V30 9460 H 877.358 -2.88872 3.92943 0
M  V30 9461 H 876.363 -1.10267 5.38629 0
M  V30 9462 H 877.588 -1.43509 6.63763 0
M  V30 9463 H 875.534 -3.42283 5.59623 0
M  V30 9464 H 875.451 -2.57759 7.10701 0
M  V30 9465 H 876.719 -3.73663 6.84103 0
M  V30 9466 N 880.948 -1.576 0.00335426 0
M  V30 9467 C 882.194 -1.90996 -0.681799 0
M  V30 9468 C 882.527 -0.877643 -1.73237 0
M  V30 9469 O 881.802 0.103183 -1.94226 0
M  V30 9470 C 882.085 -3.34961 -1.32187 0
M  V30 9471 C 881.938 -4.48911 -0.28261 0
M  V30 9472 C 883.257 -3.78408 -2.24711 0
M  V30 9473 H 880.376 -0.694596 -0.246386 0
M  V30 9474 H 883.018 -1.89919 0.055336 0
M  V30 9475 H 881.168 -3.36008 -1.95014 0
M  V30 9476 H 882.84 -4.59999 0.346241 0
M  V30 9477 H 881.083 -4.32 0.394768 0
M  V30 9478 H 881.754 -5.46609 -0.769576 0
M  V30 9479 H 884.23 -3.78934 -1.71897 0
M  V30 9480 H 883.106 -4.79885 -2.66461 0
M  V30 9481 H 883.367 -3.12464 -3.1276 0
M  V30 9482 N 882.426 0.269451 -1.5528 0
M  V30 9483 C 883.675 0.998381 -1.75258 0
M  V30 9484 C 883.988 1.87321 -0.563034 0
M  V30 9485 O 885.194 2.63719 -0.645313 0
M  V30 9486 C 883.65 1.82505 -3.10193 0
M  V30 9487 C 883.258 0.99871 -4.36726 0
M  V30 9488 C 885.002 2.54807 -3.3952 0
M  V30 9489 C 882.909 1.81997 -5.627 0
M  V30 9490 H 881.839 0.376488 -0.653278 0
M  V30 9491 H 884.49 0.253909 -1.81735 0
M  V30 9492 H 882.872 2.61061 -2.97763 0
M  V30 9493 H 884.046 0.257064 -4.60082 0
M  V30 9494 H 882.361 0.390074 -4.14569 0
M  V30 9495 H 884.958 3.16662 -4.30847 0
M  V30 9496 H 885.301 3.25273 -2.59813 0
M  V30 9497 H 885.834 1.83278 -3.53064 0
M  V30 9498 H 882.573 1.15945 -6.45164 0
M  V30 9499 H 882.093 2.53749 -5.43481 0
M  V30 9500 H 883.772 2.39274 -6.0113 0
M  V30 9501 N 883.904 1.48273 0.534124 0
M  V30 9502 C 885.32 1.34302 0.862272 0
M  V30 9503 C 885.52 0.350902 1.98421 0
M  V30 9504 O 884.576 -0.229364 2.51456 0
M  V30 9505 C 885.889 2.74227 1.23371 0
M  V30 9506 C 887.437 2.82684 1.34383 0
M  V30 9507 C 887.912 4.23301 1.74871 0
M  V30 9508 N 889.403 4.25954 1.81981 0
M  V30 9509 C 890.138 5.31693 2.14686 0
M  V30 9510 N 889.634 6.47714 2.45844 0
M  V30 9511 N 891.427 5.19084 2.15657 0
M  V30 9512 H 883.578 2.11397 -0.206215 0
M  V30 9513 H 885.841 0.947537 -0.0296116 0
M  V30 9514 H 885.547 3.48368 0.482967 0
M  V30 9515 H 885.421 3.07485 2.18478 0
M  V30 9516 H 887.808 2.08801 2.08534 0
M  V30 9517 H 887.889 2.5305 0.374063 0
M  V30 9518 H 887.533 4.97699 1.01282 0
M  V30 9519 H 887.463 4.50376 2.7289 0
M  V30 9520 H 889.954 3.42266 1.60196 0
M  V30 9521 H 890.267 7.2414 2.69892 0
M  V30 9522 H 888.612 6.50995 2.43372 0
M  V30 9523 H 891.803 4.27463 1.9077 0
M  V30 9524 H 891.976 6.01592 2.40813 0
M  V30 9525 N 885.382 -0.782676 1.36792 0
M  V30 9526 C 886.659 -1.52939 1.21939 0
M  V30 9527 C 887.039 -2.10228 -0.191639 0
M  V30 9528 O 886.387 -1.94574 -1.19805 0
M  V30 9529 C 886.597 -2.61898 2.30674 0
M  V30 9530 C 887.945 -3.29598 2.67676 0
M  V30 9531 O 888.969 -2.72186 2.29768 0
M  V30 9532 O 887.828 -4.3337 3.32946 0
M  V30 9533 H 884.922 -0.676856 0.47518 0
M  V30 9534 H 887.468 -0.82058 1.48542 0
M  V30 9535 H 886.24 -2.17607 3.25212 0
M  V30 9536 H 885.863 -3.40391 2.05475 0
M  V30 9537 N 886.86 -1.21182 -1.00761 0
M  V30 9538 C 888.107 -1.02746 -1.74498 0
M  V30 9539 C 888.435 0.439344 -1.89473 0
M  V30 9540 O 887.69 1.34232 -1.42409 0
M  V30 9541 C 887.989 -1.6667 -3.16158 0
M  V30 9542 C 887.655 -3.16515 -3.21137 0
M  V30 9543 C 886.317 -3.57405 -3.22203 0
M  V30 9544 C 888.669 -4.12495 -3.18587 0
M  V30 9545 C 885.997 -4.92786 -3.18401 0
M  V30 9546 C 888.349 -5.47833 -3.16326 0
M  V30 9547 C 887.013 -5.88124 -3.157 0
M  V30 9548 H 886.283 -0.375974 -0.638533 0
M  V30 9549 H 888.93 -1.50736 -1.18114 0
M  V30 9550 H 887.235 -1.10966 -3.75758 0
M  V30 9551 H 888.932 -1.49911 -3.71924 0
M  V30 9552 H 885.522 -2.83947 -3.21048 0
M  V30 9553 H 889.706 -3.81932 -3.16925 0
M  V30 9554 H 884.962 -5.23253 -3.16253 0
M  V30 9555 H 889.136 -6.21942 -3.13306 0
M  V30 9556 H 886.763 -6.92995 -3.12508 0
M  V30 9557 N 888.338 1.20213 -1.01915 0
M  V30 9558 C 889.566 1.93622 -0.729255 0
M  V30 9559 C 889.981 1.74923 0.710444 0
M  V30 9560 O 889.338 1.06484 1.48214 0
M  V30 9561 C 889.389 3.45651 -1.05865 0
M  V30 9562 O 889.11 3.63741 -2.44181 0
M  V30 9563 C 890.611 4.36201 -0.790176 0
M  V30 9564 H 887.831 0.615333 -0.267594 0
M  V30 9565 H 890.375 1.52633 -1.36101 0
M  V30 9566 H 888.53 3.84511 -0.47225 0
M  V30 9567 H 888.944 4.57702 -2.56143 0
M  V30 9568 H 890.418 5.41516 -1.07071 0
M  V30 9569 H 890.895 4.38334 0.275609 0
M  V30 9570 H 891.501 4.03008 -1.35885 0
M  V30 9571 N 889.816 0.795718 1.36037 0
M  V30 9572 C 891.044 0.383153 2.03321 0
M  V30 9573 C 891.459 -1.00246 1.59988 0
M  V30 9574 O 890.816 -1.64406 0.792265 0
M  V30 9575 C 890.867 0.444467 3.58757 0
M  V30 9576 O 890.588 1.77544 4.00512 0
M  V30 9577 C 892.089 0.0233291 4.43294 0
M  V30 9578 H 889.309 0.157061 0.652359 0
M  V30 9579 H 891.853 1.07632 1.73884 0
M  V30 9580 H 890.008 -0.200341 3.86882 0
M  V30 9581 H 890.422 1.73065 4.95125 0
M  V30 9582 H 891.896 0.117361 5.51875 0
M  V30 9583 H 892.373 -1.03007 4.2695 0
M  V30 9584 H 892.979 0.64087 4.20444 0
M  V30 9585 N 891.294 -1.47756 0.548274 0
M  V30 9586 C 892.204 -2.33678 -0.207773 0
M  V30 9587 C 893.22 -1.47636 -0.920843 0
M  V30 9588 O 894.396 -1.80583 -0.89173 0
M  V30 9589 C 891.461 -3.24147 -1.23003 0
M  V30 9590 C 890.522 -4.26073 -0.52535 0
M  V30 9591 C 889.755 -5.12219 -1.4989 0
M  V30 9592 O 889.978 -5.0066 -2.73305 0
M  V30 9593 O 888.912 -5.93051 -1.02828 0
M  V30 9594 H 892.738 -2.99609 0.496794 0
M  V30 9595 H 890.323 -1.4617 0.308982 0
M  V30 9596 H 892.205 -3.80055 -1.82034 0
M  V30 9597 H 890.88 -2.60855 -1.91668 0
M  V30 9598 H 889.787 -3.7395 0.105927 0
M  V30 9599 H 891.12 -4.92054 0.119686 0
M  V30 9600 N 892.772 -0.284283 -1.55015 0
M  V30 9601 C 893.735 0.586182 -2.21577 0
M  V30 9602 C 894.735 1.07427 -1.1965 0
M  V30 9603 O 895.925 0.972977 -1.44495 0
M  V30 9604 C 893.057 1.80973 -2.88897 0
M  V30 9605 H 894.25 0.00487253 -2.999 0
M  V30 9606 H 891.803 -0.0349696 -1.56261 0
M  V30 9607 H 892.538 2.43131 -2.14611 0
M  V30 9608 H 892.323 1.46757 -3.636 0
M  V30 9609 H 893.813 2.42853 -3.39724 0
M  V30 9610 N 894.251 1.57596 -0.0117121 0
M  V30 9611 C 895.479 1.9536 0.681334 0
M  V30 9612 C 895.894 0.887255 1.66653 0
M  V30 9613 O 895.251 -0.132692 1.82017 0
M  V30 9614 C 895.302 3.33165 1.40298 0
M  V30 9615 O 895.023 4.35707 0.45728 0
M  V30 9616 C 896.524 3.85458 2.18946 0
M  V30 9617 H 893.744 0.643826 0.189023 0
M  V30 9618 H 896.288 2.04392 -0.066311 0
M  V30 9619 H 894.443 3.25404 2.10216 0
M  V30 9620 H 894.857 5.15495 0.96773 0
M  V30 9621 H 896.331 4.84275 2.64918 0
M  V30 9622 H 896.808 3.18781 3.02118 0
M  V30 9623 H 897.414 3.96431 1.5402 0
M  V30 9624 N 895.729 -0.261212 1.5542 0
M  V30 9625 C 896.661 -1.34571 1.85535 0
M  V30 9626 C 897.674 -1.44979 0.740612 0
M  V30 9627 O 898.863 -1.46584 1.01859 0
M  V30 9628 C 895.963 -2.7258 2.01378 0
M  V30 9629 C 895.136 -2.84618 3.32131 0
M  V30 9630 C 894.195 -4.03379 3.37893 0
M  V30 9631 O 893.221 -3.93581 4.11197 0
M  V30 9632 N 894.423 -5.15893 2.66148 0
M  V30 9633 H 897.188 -1.09078 2.79145 0
M  V30 9634 H 894.749 -0.451327 1.55482 0
M  V30 9635 H 896.741 -3.50342 2.0259 0
M  V30 9636 H 895.311 -2.90844 1.14579 0
M  V30 9637 H 894.531 -1.93647 3.43358 0
M  V30 9638 H 895.819 -2.896 4.18341 0
M  V30 9639 H 895.217 -5.26743 2.06297 0
M  V30 9640 H 893.774 -5.91842 2.73069 0
M  V30 9641 N 897.207 -1.48554 -0.526253 0
M  V30 9642 C 898.154 -1.63354 -1.63046 0
M  V30 9643 C 899.124 -0.475509 -1.59148 0
M  V30 9644 O 900.309 -0.699453 -1.77517 0
M  V30 9645 C 897.449 -1.68271 -3.01295 0
M  V30 9646 C 896.562 -2.95207 -3.15399 0
M  V30 9647 C 895.697 -2.91262 -4.4423 0
M  V30 9648 C 894.736 -4.12886 -4.51876 0
M  V30 9649 N 893.873 -4.06996 -5.721 0
M  V30 9650 H 898.713 -2.57649 -1.49737 0
M  V30 9651 H 896.25 -1.27769 -0.728938 0
M  V30 9652 H 898.208 -1.69104 -3.81392 0
M  V30 9653 H 896.838 -0.774641 -3.13367 0
M  V30 9654 H 895.89 -3.04102 -2.2853 0
M  V30 9655 H 897.202 -3.85187 -3.1691 0
M  V30 9656 H 896.356 -2.90516 -5.32621 0
M  V30 9657 H 895.095 -1.99016 -4.45246 0
M  V30 9658 H 894.1 -4.13902 -3.61891 0
M  V30 9659 H 895.325 -5.06294 -4.52596 0
M  V30 9660 H 893.271 -3.17573 -5.74006 0
M  V30 9661 H 893.188 -4.90685 -5.75121 0
M  V30 9662 H 894.456 -4.10315 -6.62768 0
M  V30 9663 N 898.685 0.775411 -1.37205 0
M  V30 9664 C 899.91 1.5696 -1.35567 0
M  V30 9665 C 900.335 1.88012 0.0575554 0
M  V30 9666 O 899.693 1.48954 1.03355 0
M  V30 9667 C 899.741 2.85886 -2.19776 0
M  V30 9668 O 898.845 3.80103 -1.59987 0
M  V30 9669 H 898.186 0.475583 -0.463375 0
M  V30 9670 H 900.716 0.96001 -1.80679 0
M  V30 9671 H 900.726 3.35024 -2.32859 0
M  V30 9672 H 899.401 2.62613 -3.22502 0
M  V30 9673 H 897.978 3.38736 -1.55924 0
M  V30 9674 N 900.163 1.21714 1.00117 0
M  V30 9675 C 901.391 1.06278 1.77518 0
M  V30 9676 C 901.806 -0.387193 1.84787 0
M  V30 9677 O 901.163 -1.26854 1.31203 0
M  V30 9678 C 901.214 1.65795 3.21239 0
M  V30 9679 O 900.935 3.05119 3.14378 0
M  V30 9680 C 902.436 1.55521 4.15124 0
M  V30 9681 H 899.656 0.373013 0.557765 0
M  V30 9682 H 902.2 1.61133 1.25922 0
M  V30 9683 H 900.355 1.15022 3.69931 0
M  V30 9684 H 900.769 3.33643 4.04701 0
M  V30 9685 H 902.243 2.01902 5.13751 0
M  V30 9686 H 902.72 0.510307 4.36225 0
M  V30 9687 H 903.326 2.0556 3.72324 0
M  V30 9688 N 901.641 -1.19671 1.02551 0
M  V30 9689 C 902.887 -1.89548 0.721069 0
M  V30 9690 C 903.22 -1.79209 -0.748176 0
M  V30 9691 O 902.495 -1.1822 -1.54448 0
M  V30 9692 C 902.778 -3.4061 1.16861 0
M  V30 9693 C 902.631 -3.59838 2.69883 0
M  V30 9694 C 903.95 -4.33718 0.746782 0
M  V30 9695 H 901.069 -0.688315 0.263422 0
M  V30 9696 H 903.711 -1.40883 1.27483 0
M  V30 9697 H 901.861 -3.82188 0.697477 0
M  V30 9698 H 903.533 -3.27454 3.24917 0
M  V30 9699 H 901.776 -3.03005 3.10435 0
M  V30 9700 H 902.447 -4.65766 2.96253 0
M  V30 9701 H 904.923 -3.99837 1.15195 0
M  V30 9702 H 903.799 -5.38012 1.08786 0
M  V30 9703 H 904.06 -4.40704 -0.351057 0
M  V30 9704 N 903.119 -0.802921 -1.35613 0
M  V30 9705 C 904.396 -0.304993 -1.93208 0
M  V30 9706 C 904.776 1.20488 -1.73337 0
M  V30 9707 O 904.124 2.00268 -1.10022 0
M  V30 9708 C 904.334 -0.712383 -3.41652 0
M  V30 9709 C 905.682 -0.699785 -4.18794 0
M  V30 9710 O 906.706 -0.653698 -3.5015 0
M  V30 9711 O 905.565 -0.754842 -5.41262 0
M  V30 9712 H 902.659 -0.0789127 -0.823226 0
M  V30 9713 H 905.205 -0.886372 -1.44712 0
M  V30 9714 H 903.977 -1.75316 -3.49829 0
M  V30 9715 H 903.6 -0.105614 -3.9746 0
M  V30 9716 N 904.597 1.47463 -0.556102 0
M  V30 9717 C 905.544 2.29998 0.192213 0
M  V30 9718 C 906.514 1.38993 0.909403 0
M  V30 9719 O 907.699 1.67954 0.905316 0
M  V30 9720 C 904.839 3.22932 1.21692 0
M  V30 9721 C 903.952 4.29027 0.505908 0
M  V30 9722 C 903.087 5.09114 1.51581 0
M  V30 9723 C 902.126 6.06984 0.789714 0
M  V30 9724 N 901.263 6.80033 1.74639 0
M  V30 9725 H 906.103 2.93468 -0.517734 0
M  V30 9726 H 903.64 1.44654 -0.267147 0
M  V30 9727 H 905.598 3.75234 1.8236 0
M  V30 9728 H 904.228 2.61329 1.89491 0
M  V30 9729 H 903.28 3.7979 -0.215276 0
M  V30 9730 H 904.592 4.9876 -0.062958 0
M  V30 9731 H 903.746 5.6556 2.19606 0
M  V30 9732 H 902.485 4.3928 2.11859 0
M  V30 9733 H 901.49 5.49717 0.0955382 0
M  V30 9734 H 902.715 6.78827 0.192688 0
M  V30 9735 H 900.661 6.12931 2.33777 0
M  V30 9736 H 900.578 7.45933 1.22965 0
M  V30 9737 H 901.846 7.41054 2.41782 0
M  V30 9738 N 906.075 0.2925 1.54862 0
M  V30 9739 C 907.324 -0.319994 1.99146 0
M  V30 9740 C 907.637 -1.55658 1.18448 0
M  V30 9741 O 908.843 -2.24312 1.52959 0
M  V30 9742 C 907.299 -0.620665 3.54508 0
M  V30 9743 C 906.907 0.597098 4.44003 0
M  V30 9744 C 908.651 -1.19482 4.07338 0
M  V30 9745 C 906.558 0.270049 5.90783 0
M  V30 9746 H 905.488 -0.123342 0.743843 0
M  V30 9747 H 908.139 0.399876 1.7909 0
M  V30 9748 H 906.521 -1.3999 3.7043 0
M  V30 9749 H 907.695 1.37354 4.39853 0
M  V30 9750 H 906.01 1.0893 4.019 0
M  V30 9751 H 908.607 -1.45362 5.14562 0
M  V30 9752 H 908.95 -2.13435 3.57423 0
M  V30 9753 H 909.483 -0.477485 3.94924 0
M  V30 9754 H 906.222 1.17791 6.4483 0
M  V30 9755 H 905.742 -0.469292 5.97961 0
M  V30 9756 H 907.421 -0.131471 6.46866 0
M  V30 9757 N 907.553 -1.57587 0.0200696 0
M  V30 9758 C 908.516 -2.08595 -0.949767 0
M  V30 9759 C 909.516 -0.999215 -1.25985 0
M  V30 9760 O 910.706 -1.26115 -1.2017 0
M  V30 9761 C 907.838 -2.54424 -2.26895 0
M  V30 9762 H 909.031 -2.95563 -0.508161 0
M  V30 9763 H 906.584 -1.54631 -0.227798 0
M  V30 9764 H 907.319 -1.70758 -2.75703 0
M  V30 9765 H 907.104 -3.3381 -2.05702 0
M  V30 9766 H 908.594 -2.94144 -2.96427 0
M  V30 9767 N 909.032 0.252966 -1.55557 0
M  V30 9768 C 910.309 1.00432 -1.67847 0
M  V30 9769 C 910.689 2.03587 -0.55816 0
M  V30 9770 O 910.037 2.24239 0.439197 0
M  V30 9771 C 910.247 1.64313 -3.079 0
M  V30 9772 C 911.595 2.14726 -3.66303 0
M  V30 9773 O 912.619 1.74264 -3.10661 0
M  V30 9774 O 911.478 2.89 -4.63833 0
M  V30 9775 H 908.572 0.467102 -0.682455 0
M  V30 9776 H 911.118 0.247233 -1.67889 0
M  V30 9777 H 909.89 0.896681 -3.80888 0
M  V30 9778 H 909.513 2.46657 -3.11843 0
M  V30 9779 N 910.51 1.48831 0.518367 0
M  V30 9780 C 911.759 1.5669 1.27008 0
M  V30 9781 C 912.072 0.250934 1.93984 0
M  V30 9782 O 913.278 0.207884 2.70703 0
M  V30 9783 C 911.734 2.76387 2.30517 0
M  V30 9784 C 911.342 4.14673 1.69559 0
M  V30 9785 C 913.086 2.93566 3.06625 0
M  V30 9786 C 910.993 5.25616 2.71076 0
M  V30 9787 H 909.923 0.583362 0.477708 0
M  V30 9788 H 912.574 1.75187 0.546052 0
M  V30 9789 H 910.956 2.51348 3.06006 0
M  V30 9790 H 912.13 4.49779 1.00179 0
M  V30 9791 H 910.445 4.02708 1.05902 0
M  V30 9792 H 913.042 3.7362 3.82508 0
M  V30 9793 H 913.385 2.03462 3.63193 0
M  V30 9794 H 913.918 3.18562 2.38251 0
M  V30 9795 H 910.657 6.17723 2.19313 0
M  V30 9796 H 910.177 4.94985 3.38748 0
M  V30 9797 H 911.856 5.5422 3.3384 0
M  V30 9798 N 911.988 -0.768124 1.37614 0
M  V30 9799 C 913.213 -1.56239 1.36397 0
M  V30 9800 C 913.638 -1.8804 -0.0475839 0
M  V30 9801 O 912.996 -1.495 -1.02564 0
M  V30 9802 C 913.044 -2.84716 2.21289 0
M  V30 9803 O 912.148 -3.79249 1.62001 0
M  V30 9804 H 911.489 -0.473119 0.465891 0
M  V30 9805 H 914.019 -0.950415 1.81186 0
M  V30 9806 H 914.029 -3.33784 2.34632 0
M  V30 9807 H 912.704 -2.60899 3.2389 0
M  V30 9808 H 911.281 -3.37904 1.57719 0
M  V30 9809 N 913.466 -1.22244 -0.994698 0
M  V30 9810 C 914.396 -1.01513 -2.10279 0
M  V30 9811 C 915.377 0.0633365 -1.69982 0
M  V30 9812 O 916.562 -0.0985268 -1.9395 0
M  V30 9813 C 913.692 -0.59016 -3.42249 0
M  V30 9814 C 912.646 -1.61436 -3.96387 0
M  V30 9815 C 911.972 -1.04528 -5.24383 0
M  V30 9816 C 913.272 -3.00388 -4.27276 0
M  V30 9817 H 914.966 -1.94194 -2.2788 0
M  V30 9818 H 912.512 -0.935094 -1.09508 0
M  V30 9819 H 914.465 -0.432254 -4.19177 0
M  V30 9820 H 913.189 0.372308 -3.24471 0
M  V30 9821 H 911.848 -1.76001 -3.21589 0
M  V30 9822 H 911.496 -0.0742225 -5.02945 0
M  V30 9823 H 911.196 -1.72949 -5.61571 0
M  V30 9824 H 912.72 -0.898922 -6.03947 0
M  V30 9825 H 914.134 -2.89207 -4.95007 0
M  V30 9826 H 912.531 -3.65916 -4.75631 0
M  V30 9827 H 913.601 -3.50456 -3.35125 0
M  V30 9828 N 914.944 1.19125 -1.03184 0
M  V30 9829 C 916.193 1.8821 -0.725264 0
M  V30 9830 C 916.506 1.80674 0.749411 0
M  V30 9831 O 917.712 2.45037 1.16915 0
M  V30 9832 C 916.168 3.37607 -1.24697 0
M  V30 9833 C 915.776 3.53693 -2.74964 0
M  V30 9834 C 917.52 4.12149 -1.01652 0
M  V30 9835 C 915.427 4.97001 -3.20538 0
M  V30 9836 H 914.357 0.704916 -0.267599 0
M  V30 9837 H 917.008 1.34663 -1.24652 0
M  V30 9838 H 915.39 3.90569 -0.653614 0
M  V30 9839 H 916.564 3.11046 -3.39981 0
M  V30 9840 H 914.879 2.92544 -2.96322 0
M  V30 9841 H 917.476 5.17837 -1.33226 0
M  V30 9842 H 917.819 4.16274 0.0465712 0
M  V30 9843 H 918.352 3.65334 -1.57403 0
M  V30 9844 H 915.091 4.9804 -4.26189 0
M  V30 9845 H 914.611 5.40398 -2.60251 0
M  V30 9846 H 916.29 5.65669 -3.14049 0
M  V30 9847 N 916.422 0.810101 1.35185 0
M  V30 9848 C 917.668 0.392698 1.98962 0
M  V30 9849 C 918.001 -1.03835 1.64109 0
M  V30 9850 O 917.276 -1.721 0.9062 0
M  V30 9851 C 917.559 0.580349 3.55393 0
M  V30 9852 C 917.412 2.05658 4.00031 0
M  V30 9853 C 918.731 0.00822618 4.40099 0
M  V30 9854 H 915.85 0.144157 0.722764 0
M  V30 9855 H 918.492 1.02029 1.60281 0
M  V30 9856 H 916.642 0.0461106 3.88473 0
M  V30 9857 H 918.314 2.65348 3.77344 0
M  V30 9858 H 916.557 2.55174 3.50811 0
M  V30 9859 H 917.228 2.13875 5.08883 0
M  V30 9860 H 919.704 0.464517 4.13499 0
M  V30 9861 H 918.58 0.169414 5.48638 0
M  V30 9862 H 918.841 -1.08576 4.2856 0
M  V30 9863 N 917.9 -1.47166 0.563914 0
M  V30 9864 C 919.311 -1.86231 0.132307 0
M  V30 9865 C 919.662 -1.46976 -1.29971 0
M  V30 9866 O 918.787 -0.875911 -1.97881 0
M  V30 9867 C 919.382 -3.37996 0.233335 0
M  V30 9868 C 917.941 -3.76127 -0.143278 0
M  V30 9869 C 917.088 -2.71212 0.577857 0
M  V30 9870 H 920.039 -1.38588 0.773249 0
M  V30 9871 H 920.06 -3.76558 -0.546309 0
M  V30 9872 H 919.572 -3.66535 1.27568 0
M  V30 9873 H 917.673 -3.53205 -1.18648 0
M  V30 9874 H 917.786 -4.78595 0.219952 0
M  V30 9875 H 916.15 -2.54692 0.020186 0
M  V30 9876 H 916.933 -3.02593 1.62149 0
M  V30 9877 N 919.378 -0.300708 -1.54705 0
M  V30 9878 C 920.608 0.310819 -2.04249 0
M  V30 9879 C 921.016 1.4809 -1.17754 0
M  V30 9880 O 920.359 1.82654 -0.195779 0
M  V30 9881 C 920.421 0.83014 -3.49784 0
M  V30 9882 C 920.085 -0.214628 -4.56496 0
M  V30 9883 C 921.082 -1.04298 -5.09331 0
M  V30 9884 C 918.767 -0.356242 -5.01035 0
M  V30 9885 C 920.761 -1.99889 -6.05246 0
M  V30 9886 C 918.448 -1.3156 -5.96771 0
M  V30 9887 C 919.446 -2.1354 -6.4876 0
M  V30 9888 O 919.134 -3.07849 -7.4262 0
M  V30 9889 H 918.866 0.0715341 -0.672204 0
M  V30 9890 H 921.42 -0.438179 -2.00672 0
M  V30 9891 H 919.65 1.62966 -3.50684 0
M  V30 9892 H 921.339 1.35752 -3.82526 0
M  V30 9893 H 922.105 -0.944439 -4.75716 0
M  V30 9894 H 917.984 0.271916 -4.60197 0
M  V30 9895 H 921.528 -2.63917 -6.45751 0
M  V30 9896 H 917.425 -1.41486 -6.29803 0
M  V30 9897 H 918.193 -3.02824 -7.60421 0
M  V30 9898 N 920.856 1.57574 -0.0284266 0
M  V30 9899 C 922.102 1.92056 0.651327 0
M  V30 9900 C 922.435 0.905092 1.71819 0
M  V30 9901 O 921.71 -0.0722703 1.94366 0
M  V30 9902 C 921.993 3.37021 1.26841 0
M  V30 9903 C 921.846 4.49304 0.211157 0
M  V30 9904 C 923.165 3.81936 2.18662 0
M  V30 9905 H 920.284 0.698428 0.235304 0
M  V30 9906 H 922.926 1.89807 -0.0855435 0
M  V30 9907 H 921.076 3.39068 1.89644 0
M  V30 9908 H 922.748 4.5939 -0.419379 0
M  V30 9909 H 920.991 4.31317 -0.463445 0
M  V30 9910 H 921.662 5.47764 0.682518 0
M  V30 9911 H 924.138 3.8162 1.65847 0
M  V30 9912 H 923.014 4.84064 2.58792 0
M  V30 9913 H 923.275 3.174 3.07749 0
M  V30 9914 N 922.334 -0.244713 1.55689 0
M  V30 9915 C 923.582 -0.970525 1.77272 0
M  V30 9916 C 923.903 -1.85771 0.592804 0
M  V30 9917 O 923.173 -1.91952 -0.391323 0
M  V30 9918 H 921.753 -0.361342 0.653789 0
M  V30 9919 H 924.415 -0.262134 1.93129 0
M  V30 9920 H 923.511 -1.59096 2.68505 0
M  V30 9921 N 923.813 -1.49104 -0.510467 0
M  V30 9922 C 924.743 -1.67981 -1.62187 0
M  V30 9923 C 925.724 -0.528529 -1.6168 0
M  V30 9924 O 926.909 -0.763305 -1.7857 0
M  V30 9925 C 924.039 -1.73755 -3.0071 0
M  V30 9926 C 922.993 -2.88579 -3.1608 0
M  V30 9927 C 922.319 -2.79457 -4.5586 0
M  V30 9928 C 923.619 -4.29638 -2.97 0
M  V30 9929 H 925.313 -2.61029 -1.46643 0
M  V30 9930 H 922.859 -1.25615 -0.704042 0
M  V30 9931 H 924.812 -1.85548 -3.78352 0
M  V30 9932 H 923.536 -0.772996 -3.17321 0
M  V30 9933 H 922.195 -2.76372 -2.40861 0
M  V30 9934 H 921.843 -1.80929 -4.69333 0
M  V30 9935 H 921.543 -3.56518 -4.67086 0
M  V30 9936 H 923.067 -2.93245 -5.35574 0
M  V30 9937 H 924.481 -4.42575 -3.64418 0
M  V30 9938 H 922.878 -5.07847 -3.19704 0
M  V30 9939 H 923.948 -4.44741 -1.93219 0
M  V30 9940 N 925.291 0.760815 -1.38019 0
M  V30 9941 C 926.254 1.85604 -1.34476 0
M  V30 9942 C 927.254 1.58897 -0.24666 0
M  V30 9943 O 928.444 1.66776 -0.50314 0
M  V30 9944 C 925.576 3.22945 -1.09176 0
M  V30 9945 H 926.769 1.90155 -2.31908 0
M  V30 9946 H 924.322 0.961746 -1.23208 0
M  V30 9947 H 925.057 3.24066 -0.123216 0
M  V30 9948 H 924.842 3.43723 -1.88672 0
M  V30 9949 H 926.332 4.03022 -1.09375 0
M  V30 9950 N 926.769 1.22769 0.988202 0
M  V30 9951 C 927.699 1.02627 2.09738 0
M  V30 9952 C 928.68 -0.0543211 1.70013 0
M  V30 9953 O 929.865 0.108811 1.93895 0
M  V30 9954 C 926.995 0.608302 3.41931 0
M  V30 9955 C 925.949 1.63536 3.95525 0
M  V30 9956 C 925.275 1.07308 5.23822 0
M  V30 9957 C 926.575 3.02649 4.25677 0
M  V30 9958 H 928.269 1.954 2.26847 0
M  V30 9959 H 925.815 0.940888 1.09011 0
M  V30 9960 H 927.768 0.454478 4.18942 0
M  V30 9961 H 926.492 -0.355095 3.24664 0
M  V30 9962 H 925.151 1.77704 3.20651 0
M  V30 9963 H 924.799 0.100894 5.02899 0
M  V30 9964 H 924.499 1.75925 5.60646 0
M  V30 9965 H 926.023 0.930938 6.03462 0
M  V30 9966 H 927.437 2.91828 4.93467 0
M  V30 9967 H 925.834 3.68434 4.73684 0
M  V30 9968 H 926.904 3.52228 3.33262 0
M  V30 9969 N 928.247 -1.18576 1.03814 0
M  V30 9970 C 929.195 -2.24166 0.620678 0
M  V30 9971 C 930.189 -1.65718 -0.351282 0
M  V30 9972 O 931.395 -1.78665 -0.218848 0
M  V30 9973 H 927.77 -0.729522 0.182487 0
M  V30 9974 H 929.741 -2.56686 1.52166 0
M  V30 9975 C 928.49 -3.477 -0.00307331 0
M  V30 9976 H 927.813 -3.92969 0.735874 0
M  V30 9977 H 929.253 -4.23214 -0.257988 0
M  V30 9978 C 927.712 -3.12757 -1.2524 0
M  V30 9979 O 928.242 -3.26261 -2.34344 0
M  V30 9980 N 926.448 -2.67104 -1.14471 0
M  V30 9981 H 925.995 -2.56316 -0.256873 0
M  V30 9982 H 925.953 -2.44096 -1.98153 0
M  V30 9983 N 929.725 -0.817259 -1.34754 0
M  V30 9984 C 930.974 -0.39908 -1.97713 0
M  V30 9985 C 931.287 1.04203 -1.65533 0
M  V30 9986 O 932.493 1.56384 -2.21937 0
M  V30 9987 C 930.949 -0.662634 -3.53747 0
M  V30 9988 C 930.557 -2.11699 -3.94826 0
M  V30 9989 C 932.301 -0.31034 -4.23364 0
M  V30 9990 C 930.208 -2.32573 -5.4375 0
M  V30 9991 H 929.138 -0.145488 -0.739831 0
M  V30 9992 H 931.789 -1.00282 -1.53674 0
M  V30 9993 H 930.171 0.0111972 -3.95998 0
M  V30 9994 H 931.345 -2.82951 -3.63697 0
M  V30 9995 H 929.66 -2.43017 -3.3813 0
M  V30 9996 H 932.257 -0.44421 -5.32852 0
M  V30 9997 H 932.6 0.744594 -4.09587 0
M  V30 9998 H 933.133 -0.938518 -3.8657 0
M  V30 9999 H 929.872 -3.36551 -5.62507 0
M  V30 10000 H 929.392 -1.65858 -5.76412 0
M  V30 10001 H 931.071 -2.14651 -6.10356 0
M  V30 10002 N 931.203 1.46865 -0.571711 0
M  V30 10003 C 932.452 2.01636 -0.050881 0
M  V30 10004 C 932.765 1.45001 1.31279 0
M  V30 10005 O 933.971 1.91523 1.92435 0
M  V30 10006 C 932.427 3.59877 -0.0404114 0
M  V30 10007 C 932.035 4.25506 -1.40172 0
M  V30 10008 C 933.779 4.22346 0.42705 0
M  V30 10009 C 931.686 5.75795 -1.34958 0
M  V30 10010 H 930.616 0.753846 -0.0152514 0
M  V30 10011 H 933.267 1.68711 -0.721723 0
M  V30 10012 H 931.649 3.89829 0.696374 0
M  V30 10013 H 932.823 4.07178 -2.15737 0
M  V30 10014 H 931.138 3.75086 -1.8083 0
M  V30 10015 H 933.735 5.32499 0.484688 0
M  V30 10016 H 934.078 3.9052 1.44222 0
M  V30 10017 H 934.611 3.9698 -0.255326 0
M  V30 10018 H 931.35 6.12265 -2.3412 0
M  V30 10019 H 930.87 5.96419 -0.635962 0
M  V30 10020 H 932.549 6.38294 -1.05779 0
M  V30 10021 N 932.681 0.308908 1.54543 0
M  V30 10022 C 933.93 -0.298854 1.99474 0
M  V30 10023 C 934.243 -1.54393 1.20093 0
M  V30 10024 O 935.449 -2.22677 1.55329 0
M  V30 10025 C 933.905 -0.58303 3.55146 0
M  V30 10026 C 933.513 0.644157 4.43345 0
M  V30 10027 C 935.257 -1.15155 4.08582 0
M  V30 10028 C 933.164 0.332694 5.90463 0
M  V30 10029 H 932.094 -0.115445 0.74511 0
M  V30 10030 H 934.745 0.418848 1.78656 0
M  V30 10031 H 933.127 -1.36053 3.71894 0
M  V30 10032 H 934.301 1.42012 4.38371 0
M  V30 10033 H 932.616 1.13186 4.00722 0
M  V30 10034 H 935.213 -1.39896 5.16075 0
M  V30 10035 H 935.556 -2.09632 3.59667 0
M  V30 10036 H 936.089 -0.435571 3.95408 0
M  V30 10037 H 932.828 1.24624 6.43544 0
M  V30 10038 H 932.348 -0.405844 5.98425 0
M  V30 10039 H 934.027 -0.0628545 6.46969 0
M  V30 10040 N 934.159 -1.57557 0.0367827 0
M  V30 10041 C 935.069 -2.14148 -0.958017 0
M  V30 10042 C 936.085 -1.09564 -1.35173 0
M  V30 10043 O 937.261 -1.4166 -1.43158 0
M  V30 10044 C 934.326 -2.6636 -2.21931 0
M  V30 10045 C 933.387 -3.85688 -1.8853 0
M  V30 10046 C 932.62 -4.35401 -3.08645 0
M  V30 10047 O 932.843 -3.8425 -4.21554 0
M  V30 10048 O 931.777 -5.27158 -2.90497 0
M  V30 10049 H 935.603 -2.99442 -0.506797 0
M  V30 10050 H 933.188 -1.48259 -0.184275 0
M  V30 10051 H 935.07 -2.99976 -2.9596 0
M  V30 10052 H 933.745 -1.84145 -2.66219 0
M  V30 10053 H 932.652 -3.56985 -1.11861 0
M  V30 10054 H 933.985 -4.69089 -1.49052 0
M  V30 10055 N 935.637 0.236453 -1.55816 0
M  V30 10056 C 936.6 1.27633 -1.90375 0
M  V30 10057 C 937.6 1.40557 -0.781048 0
M  V30 10058 O 938.79 1.39078 -1.04895 0
M  V30 10059 C 935.922 2.65247 -2.14142 0
M  V30 10060 H 937.115 0.982019 -2.83366 0
M  V30 10061 H 934.668 0.476215 -1.48869 0
M  V30 10062 H 935.403 2.99801 -1.23653 0
M  V30 10063 H 935.188 2.57246 -2.95917 0
M  V30 10064 H 936.678 3.40313 -2.42026 0
M  V30 10065 N 937.115 1.49373 0.502552 0
M  V30 10066 C 938.025 1.68659 1.63068 0
M  V30 10067 C 939.041 0.569182 1.64427 0
M  V30 10068 O 940.217 0.843695 1.82876 0
M  V30 10069 C 937.282 1.74745 2.99441 0
M  V30 10070 C 936.343 2.98311 3.08721 0
M  V30 10071 C 935.576 3.04097 4.38589 0
M  V30 10072 O 935.799 2.17519 5.27297 0
M  V30 10073 O 934.733 3.96544 4.52809 0
M  V30 10074 H 938.559 2.64226 1.49727 0
M  V30 10075 H 936.144 1.33096 0.67867 0
M  V30 10076 H 938.026 1.8111 3.80496 0
M  V30 10077 H 936.701 0.823565 3.13048 0
M  V30 10078 H 935.608 2.97465 2.2686 0
M  V30 10079 H 936.941 3.90174 3.00041 0
M  V30 10080 N 938.594 -0.753485 1.38421 0
M  V30 10081 C 939.541 -1.86723 1.35659 0
M  V30 10082 C 940.511 -1.64648 0.219121 0
M  V30 10083 O 941.696 -1.86313 0.411366 0
M  V30 10084 C 938.836 -3.24023 1.18758 0
M  V30 10085 C 937.949 -3.57928 2.41892 0
M  V30 10086 C 937.084 -4.84532 2.17721 0
M  V30 10087 C 936.123 -5.11224 3.36626 0
M  V30 10088 N 935.26 -6.29023 3.11889 0
M  V30 10089 H 940.1 -1.88419 2.30873 0
M  V30 10090 H 937.637 -0.920934 1.14705 0
M  V30 10091 H 939.595 -4.03252 1.06974 0
M  V30 10092 H 938.225 -3.21654 0.27182 0
M  V30 10093 H 937.277 -2.73541 2.64347 0
M  V30 10094 H 938.589 -3.73581 3.30513 0
M  V30 10095 H 937.743 -5.71704 2.03074 0
M  V30 10096 H 936.482 -4.71018 1.26465 0
M  V30 10097 H 935.487 -4.2252 3.51791 0
M  V30 10098 H 936.712 -5.26635 4.28757 0
M  V30 10099 H 934.658 -6.16832 2.2328 0
M  V30 10100 H 934.575 -6.45177 3.9406 0
M  V30 10101 H 935.843 -7.19083 3.00898 0
M  V30 10102 N 940.072 -1.23292 -0.981677 0
M  V30 10103 C 941.32 -1.06214 -1.71939 0
M  V30 10104 C 941.641 0.401989 -1.90812 0
M  V30 10105 O 940.911 1.28825 -1.47584 0
M  V30 10106 H 939.491 -0.390042 -0.637084 0
M  V30 10107 H 942.153 -1.54988 -1.18173 0
M  V30 10108 H 941.249 -1.54904 -2.70945 0
M  V30 10109 N 941.55 1.18024 -1.04442 0
M  V30 10110 C 942.498 2.23834 -0.632557 0
M  V30 10111 C 943.492 1.65902 0.342488 0
M  V30 10112 O 944.698 1.78778 0.20937 0
M  V30 10113 H 941.073 0.728544 -0.186353 0
M  V30 10114 H 943.044 2.55876 -1.53526 0
M  V30 10115 C 941.793 3.47697 -0.0153661 0
M  V30 10116 H 941.116 3.92574 -0.756704 0
M  V30 10117 H 942.556 4.23345 0.235541 0
M  V30 10118 C 941.015 3.13416 1.23579 0
M  V30 10119 O 941.545 3.27499 2.3261 0
M  V30 10120 N 939.751 2.67708 1.13053 0
M  V30 10121 H 939.298 2.56449 0.243277 0
M  V30 10122 H 939.256 2.45143 1.96855 0
M  V30 10123 N 943.028 0.824394 1.34319 0
M  V30 10124 C 944.275 0.413167 1.9824 0
M  V30 10125 C 944.603 -1.02412 1.65354 0
M  V30 10126 O 943.858 -1.72831 0.91803 0
M  V30 10127 C 944.157 0.564024 3.52921 0
M  V30 10128 C 943.823 1.96725 4.05722 0
M  V30 10129 C 942.485 2.35111 4.19853 0
M  V30 10130 C 944.837 2.88447 4.34106 0
M  V30 10131 C 942.165 3.64551 4.59695 0
M  V30 10132 C 944.517 4.17353 4.75394 0
M  V30 10133 C 943.181 4.55714 4.8773 0
M  V30 10134 H 942.451 0.151188 0.725412 0
M  V30 10135 H 945.098 1.04863 1.60238 0
M  V30 10136 H 943.403 -0.154816 3.91494 0
M  V30 10137 H 945.1 0.226347 4.00361 0
M  V30 10138 H 941.69 1.65908 3.95187 0
M  V30 10139 H 945.874 2.60034 4.22725 0
M  V30 10140 H 941.13 3.94097 4.67437 0
M  V30 10141 H 945.304 4.88512 4.96315 0
M  V30 10142 H 942.931 5.56064 5.1836 0
M  V30 10143 N 944.506 -1.46559 0.579492 0
M  V30 10144 C 945.416 -2.34066 -0.15816 0
M  V30 10145 C 946.432 -1.49556 -0.88932 0
M  V30 10146 O 947.608 -1.82434 -0.853226 0
M  V30 10147 C 944.673 -3.26683 -1.161 0
M  V30 10148 C 943.734 -4.27092 -0.434855 0
M  V30 10149 C 942.967 -5.15283 -1.38992 0
M  V30 10150 O 943.19 -5.06345 -2.62623 0
M  V30 10151 O 942.124 -5.95099 -0.902253 0
M  V30 10152 H 945.95 -2.98488 0.560234 0
M  V30 10153 H 943.535 -1.45482 0.339918 0
M  V30 10154 H 945.417 -3.8383 -1.73932 0
M  V30 10155 H 944.092 -2.64862 -1.86091 0
M  V30 10156 H 942.999 -3.73641 0.185224 0
M  V30 10157 H 944.332 -4.9169 0.224031 0
M  V30 10158 N 945.984 -0.3171 -1.54377 0
M  V30 10159 C 946.894 0.560867 -2.27797 0
M  V30 10160 C 947.91 1.13473 -1.31908 0
M  V30 10161 O 949.086 1.15608 -1.64914 0
M  V30 10162 C 946.151 1.70886 -3.0166 0
M  V30 10163 C 945.212 1.16745 -4.13121 0
M  V30 10164 C 944.445 2.26073 -4.83453 0
M  V30 10165 O 944.668 3.46292 -4.53252 0
M  V30 10166 O 943.602 1.91856 -5.70504 0
M  V30 10167 H 947.428 -0.035193 -3.0368 0
M  V30 10168 H 945.013 -0.0830062 -1.49169 0
M  V30 10169 H 946.895 2.37736 -3.47936 0
M  V30 10170 H 945.57 2.29122 -2.28658 0
M  V30 10171 H 944.477 0.464224 -3.71209 0
M  V30 10172 H 945.81 0.630307 -4.88147 0
M  V30 10173 N 947.462 1.57535 -0.0451378 0
M  V30 10174 C 948.425 2.1008 0.916461 0
M  V30 10175 C 949.425 1.01913 1.2438 0
M  V30 10176 O 950.615 1.2801 1.18148 0
M  V30 10177 C 947.747 2.58001 2.22818 0
M  V30 10178 H 948.94 2.96334 0.461076 0
M  V30 10179 H 946.493 1.54974 0.203169 0
M  V30 10180 H 947.228 1.75123 2.72951 0
M  V30 10181 H 947.013 3.3704 2.00366 0
M  V30 10182 H 948.503 2.98822 2.9171 0
M  V30 10183 N 948.94 -0.228186 1.55939 0
M  V30 10184 C 950.187 -0.953552 1.78644 0
M  V30 10185 C 950.515 -1.84596 0.61275 0
M  V30 10186 O 949.77 -1.91502 -0.403175 0
M  V30 10187 C 950.069 -1.82924 3.0704 0
M  V30 10188 C 949.735 -1.09062 4.37511 0
M  V30 10189 C 948.397 -0.886565 4.72962 0
M  V30 10190 C 950.749 -0.568533 5.1809 0
M  V30 10191 C 948.077 -0.148413 5.86512 0
M  V30 10192 C 950.429 0.156243 6.32407 0
M  V30 10193 C 949.093 0.371612 6.66465 0
M  V30 10194 H 948.363 -0.348929 0.653704 0
M  V30 10195 H 951.01 -0.222211 1.90206 0
M  V30 10196 H 949.315 -2.62823 2.90571 0
M  V30 10197 H 951.012 -2.3925 3.21808 0
M  V30 10198 H 947.602 -1.25963 4.09672 0
M  V30 10199 H 951.786 -0.713673 4.91142 0
M  V30 10200 H 947.042 0.0287418 6.11393 0
M  V30 10201 H 951.216 0.568333 6.94077 0
M  V30 10202 H 948.843 0.945522 7.54297 0
M  V30 10203 N 950.418 -1.49637 -0.494624 0
M  V30 10204 C 951.328 -1.69522 -1.62172 0
M  V30 10205 C 952.344 -0.577894 -1.64123 0
M  V30 10206 O 953.52 -0.853382 -1.82426 0
M  V30 10207 C 950.585 -1.7633 -2.9851 0
M  V30 10208 C 949.646 -2.99944 -3.07135 0
M  V30 10209 C 948.879 -3.06419 -4.36971 0
M  V30 10210 O 949.102 -2.20312 -5.26136 0
M  V30 10211 O 948.036 -3.9894 -4.507 0
M  V30 10212 H 951.862 -2.65017 -1.48324 0
M  V30 10213 H 949.447 -1.33454 -0.671603 0
M  V30 10214 H 951.329 -1.83125 -3.7953 0
M  V30 10215 H 950.004 -0.840155 -3.12607 0
M  V30 10216 H 948.911 -2.98664 -2.2528 0
M  V30 10217 H 950.244 -3.9176 -2.97968 0
M  V30 10218 N 951.896 0.746133 -1.38819 0
M  V30 10219 C 952.826 1.87344 -1.39372 0
M  V30 10220 C 953.807 1.68123 -0.258583 0
M  V30 10221 O 954.992 1.88606 -0.462769 0
M  V30 10222 C 952.122 3.24962 -1.22543 0
M  V30 10223 C 951.076 3.58799 -2.33339 0
M  V30 10224 C 950.402 4.95235 -2.01609 0
M  V30 10225 C 951.702 3.62911 -3.75624 0
M  V30 10226 H 953.396 1.87138 -2.33709 0
M  V30 10227 H 950.942 0.898937 -1.12495 0
M  V30 10228 H 952.895 4.03488 -1.21554 0
M  V30 10229 H 951.619 3.25667 -0.246707 0
M  V30 10230 H 950.278 2.82596 -2.33527 0
M  V30 10231 H 949.926 4.92508 -1.02202 0
M  V30 10232 H 949.626 5.18843 -2.75819 0
M  V30 10233 H 951.15 5.76131 -2.02251 0
M  V30 10234 H 952.564 4.31535 -3.77426 0
M  V30 10235 H 950.961 3.98031 -4.491 0
M  V30 10236 H 952.031 2.62967 -4.07402 0
M  V30 10237 N 953.375 1.23811 0.975125 0
M  V30 10238 C 954.305 1.04846 2.08638 0
M  V30 10239 C 955.286 -0.0362859 1.70061 0
M  V30 10240 O 956.471 0.12937 1.93769 0
M  V30 10241 C 953.601 0.644534 3.41267 0
M  V30 10242 C 952.555 1.67722 3.93768 0
M  V30 10243 C 951.881 1.12857 5.22654 0
M  V30 10244 C 953.181 3.07147 4.22443 0
M  V30 10245 H 954.875 1.97795 2.24761 0
M  V30 10246 H 952.421 0.952397 1.08006 0
M  V30 10247 H 954.374 0.498887 4.18436 0
M  V30 10248 H 953.098 -0.320641 3.25022 0
M  V30 10249 H 951.757 1.81095 3.18748 0
M  V30 10250 H 951.405 0.154227 5.02764 0
M  V30 10251 H 951.105 1.81862 5.58749 0
M  V30 10252 H 952.629 0.994891 6.0244 0
M  V30 10253 H 954.043 2.97045 4.90344 0
M  V30 10254 H 952.44 3.73437 4.6975 0
M  V30 10255 H 953.51 3.55743 3.29507 0
M  V30 10256 N 954.853 -1.17469 1.05066 0
M  V30 10257 C 956.101 -1.87327 0.758485 0
M  V30 10258 C 956.422 -1.81358 -0.716549 0
M  V30 10259 O 955.692 -1.23868 -1.51768 0
M  V30 10260 H 954.272 -0.693512 0.277579 0
M  V30 10261 H 956.934 -1.4251 1.32954 0
M  V30 10262 H 956.03 -2.93101 1.0723 0
M  V30 10263 N 956.331 -0.831506 -1.3388 0
M  V30 10264 C 957.577 -0.424302 -1.98312 0
M  V30 10265 C 957.91 1.01211 -1.65741 0
M  V30 10266 O 957.185 1.70636 -0.933464 0
M  V30 10267 C 957.468 -0.636815 -3.54424 0
M  V30 10268 C 957.321 -2.11997 -3.96708 0
M  V30 10269 C 958.64 -0.0782411 -4.4003 0
M  V30 10270 H 955.759 -0.155637 -0.720379 0
M  V30 10271 H 958.401 -1.04566 -1.58638 0
M  V30 10272 H 956.551 -0.107907 -3.8835 0
M  V30 10273 H 958.223 -2.71317 -3.73075 0
M  V30 10274 H 956.466 -2.60723 -3.46707 0
M  V30 10275 H 957.137 -2.21944 -5.05416 0
M  V30 10276 H 959.613 -0.530243 -4.12708 0
M  V30 10277 H 958.489 -0.256676 -5.483 0
M  V30 10278 H 958.75 1.01745 -4.30233 0
M  V30 10279 N 957.809 1.4625 -0.587256 0
M  V30 10280 C 959.057 2.01963 -0.0744273 0
M  V30 10281 C 959.378 1.46065 1.29189 0
M  V30 10282 O 958.648 0.647077 1.84905 0
M  V30 10283 H 957.228 0.746597 -0.0245236 0
M  V30 10284 H 959.89 1.79299 -0.764063 0
M  V30 10285 H 958.986 3.12099 -0.00884894 0
M  V30 10286 N 959.287 0.325282 1.54207 0
M  V30 10287 C 960.536 -0.27768 1.99779 0
M  V30 10288 C 960.849 -1.5311 1.21723 0
M  V30 10289 O 962.055 -2.21017 1.57682 0
M  V30 10290 C 960.511 -0.545329 3.55745 0
M  V30 10291 C 960.119 0.691143 4.42637 0
M  V30 10292 C 961.863 -1.10815 4.09781 0
M  V30 10293 C 959.77 0.395302 5.90077 0
M  V30 10294 H 958.7 -0.107536 0.746292 0
M  V30 10295 H 961.351 0.437773 1.78202 0
M  V30 10296 H 959.733 -1.32101 3.73317 0
M  V30 10297 H 960.907 1.46653 4.3684 0
M  V30 10298 H 959.222 1.1743 3.99499 0
M  V30 10299 H 961.819 -1.34414 5.1753 0
M  V30 10300 H 962.162 -2.05806 3.6187 0
M  V30 10301 H 962.695 -0.393608 3.95848 0
M  V30 10302 H 959.434 1.31443 6.42186 0
M  V30 10303 H 958.954 -0.34235 5.98822 0
M  V30 10304 H 960.633 0.00576877 6.47 0
M  V30 10305 N 960.765 -1.57509 0.0534917 0
M  V30 10306 C 961.695 -2.14698 -0.917999 0
M  V30 10307 C 962.676 -1.06924 -1.32292 0
M  V30 10308 O 963.861 -1.34875 -1.39723 0
M  V30 10309 C 960.991 -2.69383 -2.19203 0
M  V30 10310 C 959.945 -3.82161 -1.9271 0
M  V30 10311 C 959.271 -4.23373 -3.26587 0
M  V30 10312 C 960.571 -5.07199 -1.24686 0
M  V30 10313 H 962.265 -2.96125 -0.44165 0
M  V30 10314 H 959.811 -1.42446 -0.210993 0
M  V30 10315 H 961.764 -3.08031 -2.87567 0
M  V30 10316 H 960.488 -1.85151 -2.69048 0
M  V30 10317 H 959.147 -3.43989 -1.26757 0
M  V30 10318 H 958.795 -3.36089 -3.74237 0
M  V30 10319 H 958.495 -4.99385 -3.09658 0
M  V30 10320 H 960.019 -4.64623 -3.96178 0
M  V30 10321 H 961.433 -5.43279 -1.83088 0
M  V30 10322 H 959.83 -5.88369 -1.18076 0
M  V30 10323 H 960.9 -4.84386 -0.223227 0
M  V30 10324 N 962.243 0.219913 -1.56058 0
M  V30 10325 C 963.173 1.27572 -1.9557 0
M  V30 10326 C 964.154 1.48801 -0.824148 0
M  V30 10327 O 965.339 1.60957 -1.08658 0
M  V30 10328 C 962.469 2.62517 -2.27381 0
M  V30 10329 C 961.423 2.55941 -3.43042 0
M  V30 10330 C 960.749 3.94931 -3.60463 0
M  V30 10331 C 962.049 2.10584 -4.77966 0
M  V30 10332 H 963.743 0.947482 -2.84013 0
M  V30 10333 H 961.289 0.454337 -1.36645 0
M  V30 10334 H 963.242 3.36538 -2.53615 0
M  V30 10335 H 961.966 2.97031 -1.35794 0
M  V30 10336 H 960.625 1.84377 -3.1686 0
M  V30 10337 H 960.273 4.26756 -2.66249 0
M  V30 10338 H 959.973 3.91413 -4.38258 0
M  V30 10339 H 961.497 4.70611 -3.89046 0
M  V30 10340 H 962.911 2.74349 -5.03394 0
M  V30 10341 H 961.308 2.18122 -5.59055 0
M  V30 10342 H 962.378 1.05818 -4.73213 0
M  V30 10343 N 963.721 1.49897 0.486681 0
M  V30 10344 C 964.631 1.70379 1.6127 0
M  V30 10345 C 965.647 0.58659 1.63814 0
M  V30 10346 O 966.823 0.863044 1.81971 0
M  V30 10347 C 963.888 1.77911 2.97571 0
M  V30 10348 C 962.949 3.01569 3.0554 0
M  V30 10349 C 962.182 3.08732 4.35339 0
M  V30 10350 O 962.405 2.23099 5.2496 0
M  V30 10351 O 961.339 4.01325 4.48578 0
M  V30 10352 H 965.165 2.65799 1.46916 0
M  V30 10353 H 962.75 1.33808 0.664516 0
M  V30 10354 H 964.632 1.85135 3.78554 0
M  V30 10355 H 963.307 0.856722 3.12157 0
M  V30 10356 H 962.214 2.99854 2.23693 0
M  V30 10357 H 963.547 3.93335 2.95886 0
M  V30 10358 N 965.199 -0.738761 1.39212 0
M  V30 10359 C 966.446 -1.49824 1.36231 0
M  V30 10360 C 966.774 -1.94453 -0.0429552 0
M  V30 10361 O 966.029 -1.6683 -1.02304 0
M  V30 10362 C 966.328 -2.75435 2.2775 0
M  V30 10363 C 965.994 -2.49694 3.75451 0
M  V30 10364 C 964.656 -2.42383 4.15697 0
M  V30 10365 C 967.008 -2.27587 4.68885 0
M  V30 10366 C 964.336 -2.11001 5.47444 0
M  V30 10367 C 966.688 -1.97723 6.00906 0
M  V30 10368 C 965.352 -1.88879 6.4022 0
M  V30 10369 H 964.622 -0.548247 0.498504 0
M  V30 10370 H 967.269 -0.848244 1.71689 0
M  V30 10371 H 965.574 -3.45159 1.85398 0
M  V30 10372 H 967.271 -3.33449 2.22739 0
M  V30 10373 H 963.861 -2.56261 3.43552 0
M  V30 10374 H 968.045 -2.32206 4.38628 0
M  V30 10375 H 963.301 -2.02673 5.76831 0
M  V30 10376 H 967.475 -1.79625 6.72836 0
M  V30 10377 H 965.102 -1.64327 7.42227 0
M  V30 10378 N 966.677 -1.24326 -0.968545 0
M  V30 10379 C 967.923 -1.08406 -1.71394 0
M  V30 10380 C 968.256 0.376353 -1.90518 0
M  V30 10381 O 967.531 1.27816 -1.46606 0
M  V30 10382 C 967.814 -1.82344 -3.1052 0
M  V30 10383 C 967.667 -3.3613 -2.98893 0
M  V30 10384 C 968.986 -1.59545 -4.10163 0
M  V30 10385 H 966.105 -0.395205 -0.622079 0
M  V30 10386 H 968.747 -1.52983 -1.12677 0
M  V30 10387 H 966.897 -1.44452 -3.60646 0
M  V30 10388 H 968.569 -3.83614 -2.56199 0
M  V30 10389 H 966.812 -3.64553 -2.35124 0
M  V30 10390 H 967.483 -3.83064 -3.97449 0
M  V30 10391 H 969.959 -1.92504 -3.68892 0
M  V30 10392 H 968.835 -2.13736 -5.05577 0
M  V30 10393 H 969.096 -0.533503 -4.38869 0
M  V30 10394 N 968.156 1.1691 -1.05688 0
M  V30 10395 C 969.567 1.68915 -0.795273 0
M  V30 10396 C 969.918 1.83968 0.681925 0
M  V30 10397 O 969.043 1.53083 1.52953 0
M  V30 10398 C 969.638 3.06814 -1.43703 0
M  V30 10399 C 968.197 3.55965 -1.22335 0
M  V30 10400 C 967.344 2.32099 -1.51741 0
M  V30 10401 H 970.295 1.01357 -1.22116 0
M  V30 10402 H 970.316 3.70907 -0.849016 0
M  V30 10403 H 969.828 2.95826 -2.51214 0
M  V30 10404 H 967.929 3.72222 -0.16771 0
M  V30 10405 H 968.042 4.38427 -1.9318 0
M  V30 10406 H 966.406 2.36811 -0.937696 0
M  V30 10407 H 967.189 2.23715 -2.60397 0
M  V30 10408 N 969.634 0.838594 1.33437 0
M  V30 10409 C 970.544 0.274048 2.32994 0
M  V30 10410 C 971.56 -0.599776 1.63336 0
M  V30 10411 O 972.736 -0.503963 1.94993 0
M  V30 10412 C 969.801 -0.541804 3.4244 0
M  V30 10413 C 968.862 0.356262 4.27819 0
M  V30 10414 C 968.095 -0.420747 5.32039 0
M  V30 10415 O 968.318 -1.65247 5.45939 0
M  V30 10416 O 967.252 0.205101 6.0155 0
M  V30 10417 H 971.078 1.09846 2.83139 0
M  V30 10418 H 968.663 0.601111 1.36774 0
M  V30 10419 H 970.545 -1.00544 4.0923 0
M  V30 10420 H 969.22 -1.34328 2.94513 0
M  V30 10421 H 968.127 0.867726 3.63897 0
M  V30 10422 H 969.46 1.1225 4.79229 0
M  V30 10423 N 971.112 -1.45937 0.595003 0
M  V30 10424 C 972.042 -2.33198 -0.11871 0
M  V30 10425 C 973.023 -1.46083 -0.871423 0
M  V30 10426 O 974.208 -1.74879 -0.844461 0
M  V30 10427 C 971.338 -3.28576 -1.12495 0
M  V30 10428 C 970.292 -4.25229 -0.486275 0
M  V30 10429 C 969.618 -5.10204 -1.59986 0
M  V30 10430 C 970.918 -5.19019 0.584473 0
M  V30 10431 H 972.612 -2.93122 0.609886 0
M  V30 10432 H 970.158 -1.40951 0.294742 0
M  V30 10433 H 972.111 -3.88485 -1.6327 0
M  V30 10434 H 970.835 -2.66784 -1.88398 0
M  V30 10435 H 969.494 -3.666 0.000507962 0
M  V30 10436 H 969.142 -4.44789 -2.34886 0
M  V30 10437 H 968.842 -5.75669 -1.1781 0
M  V30 10438 H 970.366 -5.7298 -2.11014 0
M  V30 10439 H 971.78 -5.73073 0.161297 0
M  V30 10440 H 970.177 -5.92893 0.927256 0
M  V30 10441 H 971.247 -4.62208 1.46601 0
M  V30 10442 N 972.59 -0.333456 -1.54032 0
M  V30 10443 C 973.818 0.267813 -2.05159 0
M  V30 10444 C 974.233 1.4501 -1.20903 0
M  V30 10445 O 973.59 1.80888 -0.241994 0
M  V30 10446 C 973.641 0.69268 -3.54802 0
M  V30 10447 O 973.362 -0.442579 -4.35859 0
M  V30 10448 C 974.863 1.35572 -4.2206 0
M  V30 10449 H 972.083 0.0534924 -0.668864 0
M  V30 10450 H 974.627 -0.482515 -1.98726 0
M  V30 10451 H 972.782 1.39297 -3.6149 0
M  V30 10452 H 973.196 -0.105915 -5.24393 0
M  V30 10453 H 974.67 1.60385 -5.28186 0
M  V30 10454 H 975.147 2.30614 -3.73783 0
M  V30 10455 H 975.753 0.697748 -4.19537 0
M  V30 10456 N 974.068 1.57479 -0.061844 0
M  V30 10457 C 975.317 1.92285 0.609055 0
M  V30 10458 C 975.63 0.942983 1.71369 0
M  V30 10459 O 976.836 1.18349 2.44348 0
M  V30 10460 C 975.292 3.41545 1.13468 0
M  V30 10461 C 974.9 4.47958 0.0615926 0
M  V30 10462 C 976.644 3.85368 1.78022 0
M  V30 10463 C 974.551 5.88341 0.600705 0
M  V30 10464 H 973.481 0.717656 0.23127 0
M  V30 10465 H 976.132 1.83021 -0.132466 0
M  V30 10466 H 974.514 3.45848 1.92886 0
M  V30 10467 H 975.688 4.55258 -0.712527 0
M  V30 10468 H 974.003 4.13541 -0.487116 0
M  V30 10469 H 976.6 4.87627 2.19371 0
M  V30 10470 H 976.943 3.22193 2.63623 0
M  V30 10471 H 977.476 3.83626 1.05242 0
M  V30 10472 H 974.215 6.55138 -0.217922 0
M  V30 10473 H 973.735 5.84581 1.34257 0
M  V30 10474 H 975.414 6.37918 1.08025 0
M  V30 10475 N 975.546 -0.211634 1.56173 0
M  V30 10476 C 976.957 -0.777776 1.69728 0
M  V30 10477 C 977.308 -1.84566 0.66558 0
M  V30 10478 O 976.433 -2.15639 -0.181338 0
M  V30 10479 C 977.028 -1.41757 3.07718 0
M  V30 10480 C 975.587 -1.93098 3.23094 0
M  V30 10481 C 974.734 -0.794785 2.65666 0
M  V30 10482 H 977.685 0.0131839 1.58695 0
M  V30 10483 H 977.706 -2.28662 3.04128 0
M  V30 10484 H 977.218 -0.640114 3.82785 0
M  V30 10485 H 975.319 -2.73615 2.52914 0
M  V30 10486 H 975.432 -2.10414 4.30422 0
M  V30 10487 H 973.796 -1.20473 2.24407 0
M  V30 10488 H 974.579 -0.0298408 3.43287 0
M  V30 10489 N 977.024 -1.50153 -0.478725 0
M  V30 10490 C 978.27 -1.60998 -1.23318 0
M  V30 10491 C 978.603 -0.305868 -1.91776 0
M  V30 10492 O 977.878 0.692158 -1.81767 0
M  V30 10493 C 978.161 -2.78495 -2.28282 0
M  V30 10494 C 978.014 -4.18767 -1.64178 0
M  V30 10495 C 979.333 -2.91569 -3.2966 0
M  V30 10496 H 976.452 -0.585983 -0.446982 0
M  V30 10497 H 979.094 -1.82514 -0.528063 0
M  V30 10498 H 977.244 -2.60281 -2.8842 0
M  V30 10499 H 978.916 -4.48552 -1.07696 0
M  V30 10500 H 977.159 -4.23379 -0.94514 0
M  V30 10501 H 977.83 -4.96894 -2.40417 0
M  V30 10502 H 980.306 -3.08219 -2.79536 0
M  V30 10503 H 979.182 -3.75419 -4.0044 0
M  V30 10504 H 979.443 -2.01859 -3.93326 0
M  V30 10505 N 978.502 0.731368 -1.39602 0
M  V30 10506 C 979.751 1.48647 -1.36334 0
M  V30 10507 C 980.064 1.95565 0.0367383 0
M  V30 10508 O 981.27 2.7082 0.192017 0
M  V30 10509 C 979.726 2.68616 -2.39528 0
M  V30 10510 C 979.334 2.28632 -3.85268 0
M  V30 10511 C 981.078 3.46422 -2.45341 0
M  V30 10512 C 978.985 3.45345 -4.80095 0
M  V30 10513 H 977.915 0.558218 -0.506861 0
M  V30 10514 H 980.566 0.797467 -1.65266 0
M  V30 10515 H 978.948 3.39609 -2.03671 0
M  V30 10516 H 980.122 1.65162 -4.30184 0
M  V30 10517 H 978.437 1.63909 -3.82783 0
M  V30 10518 H 981.034 4.33241 -3.13379 0
M  V30 10519 H 981.377 3.8914 -1.47904 0
M  V30 10520 H 981.91 2.82461 -2.80108 0
M  V30 10521 H 978.649 3.07674 -5.78807 0
M  V30 10522 H 978.169 4.07784 -4.39855 0
M  V30 10523 H 979.848 4.1163 -4.99169 0
M  V30 10524 N 979.98 1.24838 0.961938 0
M  V30 10525 C 980.91 1.07053 2.07514 0
M  V30 10526 C 981.891 -0.0182465 1.7009 0
M  V30 10527 O 983.076 0.149915 1.9362 0
M  V30 10528 C 980.206 0.680693 3.40564 0
M  V30 10529 C 979.16 1.71889 3.91967 0
M  V30 10530 C 978.486 1.18395 5.21428 0
M  V30 10531 C 979.786 3.1161 4.19161 0
M  V30 10532 H 981.48 2.00167 2.22651 0
M  V30 10533 H 979.026 0.963799 1.0699 0
M  V30 10534 H 980.979 0.54324 4.17884 0
M  V30 10535 H 979.703 -0.28615 3.25344 0
M  V30 10536 H 978.362 1.84465 3.16809 0
M  V30 10537 H 978.01 0.207543 5.02572 0
M  V30 10538 H 977.71 1.87778 5.56788 0
M  V30 10539 H 979.234 1.05873 6.01351 0
M  V30 10540 H 980.648 3.0223 4.87165 0
M  V30 10541 H 979.045 3.78398 4.65763 0
M  V30 10542 H 980.115 3.59218 3.25715 0
M  V30 10543 N 981.458 -1.16348 1.06306 0
M  V30 10544 C 982.704 -1.87158 0.781007 0
M  V30 10545 C 983.037 -1.81499 -0.690784 0
M  V30 10546 O 982.312 -1.23074 -1.50609 0
M  V30 10547 C 982.595 -3.3672 1.27639 0
M  V30 10548 C 982.448 -3.51069 2.81194 0
M  V30 10549 C 983.767 -4.31122 0.884388 0
M  V30 10550 H 980.886 -0.679586 0.285187 0
M  V30 10551 H 983.528 -1.36756 1.31901 0
M  V30 10552 H 981.678 -3.79775 0.818715 0
M  V30 10553 H 983.35 -3.16952 3.35171 0
M  V30 10554 H 981.593 -2.92976 3.19918 0
M  V30 10555 H 982.264 -4.56105 3.10921 0
M  V30 10556 H 984.74 -3.95969 1.27858 0
M  V30 10557 H 983.616 -5.34279 1.25847 0
M  V30 10558 H 983.877 -4.41598 -0.210673 0
M  V30 10559 N 982.937 -0.845659 -1.3299 0
M  V30 10560 C 984.184 -0.444653 -1.97558 0
M  V30 10561 C 984.512 0.997682 -1.66963 0
M  V30 10562 O 983.767 1.71349 -0.94541 0
M  V30 10563 C 984.066 -0.6201 -3.51979 0
M  V30 10564 C 983.732 -2.03155 -4.02541 0
M  V30 10565 C 982.394 -2.4176 -4.16059 0
M  V30 10566 C 984.746 -2.95317 -4.29462 0
M  V30 10567 C 982.074 -3.71818 -4.53837 0
M  V30 10568 C 984.426 -4.24863 -4.68694 0
M  V30 10569 C 983.09 -4.63416 -4.80419 0
M  V30 10570 H 982.36 -0.16271 -0.722915 0
M  V30 10571 H 985.007 -1.07399 -1.58549 0
M  V30 10572 H 983.312 0.092513 -3.91691 0
M  V30 10573 H 985.009 -0.290012 -3.9995 0
M  V30 10574 H 981.599 -1.72174 -3.92497 0
M  V30 10575 H 985.783 -2.66726 -4.18534 0
M  V30 10576 H 981.039 -4.01484 -4.61108 0
M  V30 10577 H 985.213 -4.96347 -4.8848 0
M  V30 10578 H 982.84 -5.6424 -5.09448 0
M  V30 10579 N 984.415 1.45619 -0.602734 0
M  V30 10580 C 985.643 2.06647 -0.102253 0
M  V30 10581 C 986.058 1.4482 1.21131 0
M  V30 10582 O 985.415 0.560621 1.73676 0
M  V30 10583 C 985.466 3.61467 0.0490113 0
M  V30 10584 O 985.187 4.20985 -1.21257 0
M  V30 10585 C 986.688 4.39469 0.581517 0
M  V30 10586 H 983.908 0.667685 -0.0666155 0
M  V30 10587 H 986.452 1.86939 -0.829091 0
M  V30 10588 H 984.607 3.80534 0.726153 0
M  V30 10589 H 985.021 5.14103 -1.03915 0
M  V30 10590 H 986.495 5.48318 0.636462 0
M  V30 10591 H 986.972 4.0891 1.60277 0
M  V30 10592 H 987.578 4.25256 -0.061419 0
M  V30 10593 N 985.893 0.34162 1.53853 0
M  V30 10594 C 987.142 -0.256475 2.00063 0
M  V30 10595 C 987.455 -1.51811 1.23341 0
M  V30 10596 O 988.661 -2.19332 1.60017 0
M  V30 10597 C 987.117 -0.507567 3.56303 0
M  V30 10598 C 986.725 0.738052 4.41879 0
M  V30 10599 C 988.469 -1.06463 4.10933 0
M  V30 10600 C 986.376 0.457865 5.89625 0
M  V30 10601 H 985.306 -0.0996143 0.747391 0
M  V30 10602 H 987.957 0.456649 1.77727 0
M  V30 10603 H 986.339 -1.28134 3.74697 0
M  V30 10604 H 987.513 1.51278 4.3526 0
M  V30 10605 H 985.828 1.21661 3.98231 0
M  V30 10606 H 988.425 -1.28918 5.18926 0
M  V30 10607 H 988.768 -2.01956 3.64032 0
M  V30 10608 H 989.301 -0.351601 3.96243 0
M  V30 10609 H 986.04 1.38247 6.40756 0
M  V30 10610 H 985.56 -0.278818 5.99152 0
M  V30 10611 H 987.239 0.0743914 6.46957 0
M  V30 10612 N 987.371 -1.57444 0.0701946 0
M  V30 10613 C 988.318 -2.12631 -0.897599 0
M  V30 10614 C 989.288 -1.03841 -1.29639 0
M  V30 10615 O 990.473 -1.31495 -1.38253 0
M  V30 10616 C 987.613 -2.6911 -2.16041 0
M  V30 10617 C 986.726 -3.9205 -1.8144 0
M  V30 10618 C 985.861 -4.36778 -3.02321 0
M  V30 10619 C 984.9 -5.52371 -2.63729 0
M  V30 10620 N 984.037 -5.92065 -3.77364 0
M  V30 10621 H 988.877 -2.95024 -0.420104 0
M  V30 10622 H 986.414 -1.45792 -0.195716 0
M  V30 10623 H 988.372 -2.99963 -2.89962 0
M  V30 10624 H 987.002 -1.89484 -2.61334 0
M  V30 10625 H 986.054 -3.67669 -0.975896 0
M  V30 10626 H 987.366 -4.76011 -1.49046 0
M  V30 10627 H 986.52 -4.69285 -3.84521 0
M  V30 10628 H 985.259 -3.51668 -3.37907 0
M  V30 10629 H 984.264 -5.19517 -1.7995 0
M  V30 10630 H 985.489 -6.39212 -2.29315 0
M  V30 10631 H 983.435 -5.09904 -4.12715 0
M  V30 10632 H 983.352 -6.70762 -3.48733 0
M  V30 10633 H 984.62 -6.29193 -4.60148 0
M  V30 10634 N 988.849 0.203349 -1.56283 0
M  V30 10635 C 990.074 0.945548 -1.84592 0
M  V30 10636 C 990.499 1.7641 -0.652772 0
M  V30 10637 O 989.857 1.76867 0.398468 0
M  V30 10638 C 989.905 1.82416 -3.11057 0
M  V30 10639 O 989.009 2.92191 -2.9103 0
M  V30 10640 H 988.35 0.266739 -0.608068 0
M  V30 10641 H 990.88 0.211158 -2.03507 0
M  V30 10642 H 990.89 2.23044 -3.41636 0
M  V30 10643 H 989.565 1.22267 -3.97522 0
M  V30 10644 H 988.142 2.55378 -2.71728 0
M  V30 10645 N 990.327 1.50405 0.470755 0
M  V30 10646 C 991.557 1.64928 1.24428 0
M  V30 10647 C 991.965 0.332139 1.86262 0
M  V30 10648 O 991.308 -0.695919 1.70008 0
M  V30 10649 C 991.37 2.6829 2.39293 0
M  V30 10650 C 991.034 4.11835 1.98093 0
M  V30 10651 C 992.031 4.97693 1.50326 0
M  V30 10652 C 989.716 4.57753 2.06803 0
M  V30 10653 C 991.71 6.27516 1.11813 0
M  V30 10654 C 989.397 5.87582 1.67902 0
M  V30 10655 C 990.395 6.72289 1.20485 0
M  V30 10656 O 990.083 7.99694 0.821219 0
M  V30 10657 H 989.815 0.557418 0.382442 0
M  V30 10658 H 992.369 1.97382 0.568292 0
M  V30 10659 H 990.599 2.31079 3.10063 0
M  V30 10660 H 992.288 2.7203 3.01255 0
M  V30 10661 H 993.054 4.63434 1.43018 0
M  V30 10662 H 988.933 3.91966 2.42659 0
M  V30 10663 H 992.477 6.93586 0.747317 0
M  V30 10664 H 988.374 6.21362 1.74869 0
M  V30 10665 H 989.142 8.12968 0.950038 0
M  V30 10666 N 991.805 -0.723954 1.39988 0
M  V30 10667 C 993.054 -1.47922 1.3712 0
M  V30 10668 C 993.367 -1.95582 -0.0263665 0
M  V30 10669 O 994.573 -2.70918 -0.177652 0
M  V30 10670 C 993.029 -2.67342 2.40949 0
M  V30 10671 C 992.637 -2.26586 3.86475 0
M  V30 10672 C 994.381 -3.45116 2.47174 0
M  V30 10673 C 992.288 -3.42794 4.81919 0
M  V30 10674 H 991.218 -0.555522 0.509815 0
M  V30 10675 H 993.869 -0.788692 1.65686 0
M  V30 10676 H 992.251 -3.38524 2.0547 0
M  V30 10677 H 993.425 -1.62878 4.31054 0
M  V30 10678 H 991.74 -1.61876 3.83647 0
M  V30 10679 H 994.337 -4.31573 3.15672 0
M  V30 10680 H 994.68 -3.8835 1.49966 0
M  V30 10681 H 995.213 -2.80971 2.81602 0
M  V30 10682 H 991.952 -3.046 5.8043 0
M  V30 10683 H 991.472 -4.05445 4.42012 0
M  V30 10684 H 993.151 -4.08977 5.01345 0
M  V30 10685 N 993.283 -1.25346 -0.955304 0
M  V30 10686 C 994.56 -1.00829 -1.67609 0
M  V30 10687 C 994.94 0.465675 -2.059 0
M  V30 10688 O 994.288 1.44287 -1.77182 0
M  V30 10689 C 994.498 -1.94337 -2.89886 0
M  V30 10690 C 995.846 -2.22142 -3.61854 0
M  V30 10691 O 996.87 -1.9209 -2.99967 0
M  V30 10692 O 995.729 -2.73239 -4.73289 0
M  V30 10693 H 992.823 -0.382314 -0.733325 0
M  V30 10694 H 995.369 -1.36498 -1.00829 0
M  V30 10695 H 994.141 -2.93867 -2.58376 0
M  V30 10696 H 993.764 -1.59062 -3.64397 0
M  V30 10697 N 994.761 1.15782 -1.06922 0
M  V30 10698 C 995.986 1.90896 -0.810771 0
M  V30 10699 C 996.411 1.77246 0.629714 0
M  V30 10700 O 995.769 1.10215 1.43953 0
M  V30 10701 C 995.817 3.39397 -1.21829 0
M  V30 10702 O 994.921 4.10818 -0.360934 0
M  V30 10703 H 994.262 0.594497 -0.295752 0
M  V30 10704 H 996.792 1.46652 -1.42669 0
M  V30 10705 H 996.802 3.90181 -1.19259 0
M  V30 10706 H 995.477 3.4865 -2.2675 0
M  V30 10707 H 994.054 3.7019 -0.448748 0
M  V30 10708 N 996.239 0.8527 1.3254 0
M  V30 10709 C 997.469 0.468363 2.01221 0
M  V30 10710 C 997.877 -0.938966 1.64256 0
M  V30 10711 O 997.22 -1.62387 0.858837 0
M  V30 10712 C 997.282 0.525457 3.55639 0
M  V30 10713 C 996.946 1.89133 4.16026 0
M  V30 10714 C 997.943 2.85652 4.34395 0
M  V30 10715 C 995.628 2.18795 4.52144 0
M  V30 10716 C 997.622 4.09985 4.88048 0
M  V30 10717 C 995.309 3.43381 5.05502 0
M  V30 10718 C 996.307 4.38792 5.23403 0
M  V30 10719 O 995.995 5.61173 5.75622 0
M  V30 10720 H 995.727 0.182712 0.65084 0
M  V30 10721 H 998.281 1.15076 1.70138 0
M  V30 10722 H 996.511 -0.213779 3.86109 0
M  V30 10723 H 998.2 0.156999 4.05596 0
M  V30 10724 H 998.966 2.6404 4.06827 0
M  V30 10725 H 994.845 1.45317 4.37498 0
M  V30 10726 H 998.389 4.84465 5.01936 0
M  V30 10727 H 994.286 3.64844 5.32503 0
M  V30 10728 H 995.054 5.63104 5.94017 0
M  V30 10729 N 997.718 -1.45297 0.610449 0
M  V30 10730 C 998.628 -2.34349 -0.108475 0
M  V30 10731 C 999.644 -1.51409 -0.857397 0
M  V30 10732 O 1000.82 -1.84202 -0.814337 0
M  V30 10733 C 997.885 -3.29072 -1.09144 0
M  V30 10734 C 996.946 -4.27918 -0.344165 0
M  V30 10735 C 996.179 -5.18116 -1.28031 0
M  V30 10736 O 996.402 -5.11802 -2.51824 0
M  V30 10737 O 995.336 -5.96879 -0.775821 0
M  V30 10738 H 999.162 -2.97232 0.623421 0
M  V30 10739 H 996.747 -1.44728 0.3707 0
M  V30 10740 H 998.629 -3.87433 -1.65751 0
M  V30 10741 H 997.304 -2.68749 -1.80431 0
M  V30 10742 H 996.211 -3.73164 0.264437 0
M  V30 10743 H 997.544 -4.91104 0.328275 0
M  V30 10744 N 999.196 -0.349774 -1.5367 0
M  V30 10745 C 1000.14 0.519396 -2.26727 0
M  V30 10746 C 1001.14 1.09673 -1.29105 0
M  V30 10747 O 1002.34 1.04176 -1.46791 0
M  V30 10748 H 998.719 0.186192 -0.728585 0
M  V30 10749 H 1000.69 -0.118736 -2.98164 0
M  V30 10750 C 999.439 1.65535 -3.05767 0
M  V30 10751 H 998.762 1.22038 -3.80719 0
M  V30 10752 H 1000.2 2.23856 -3.6009 0
M  V30 10753 C 998.661 2.58844 -2.15642 0
M  V30 10754 O 999.191 3.61254 -1.75665 0
M  V30 10755 N 997.397 2.27671 -1.80595 0
M  V30 10756 H 996.944 1.44429 -2.13302 0
M  V30 10757 H 996.902 2.90359 -1.20577 0
M  V30 10758 N 1000.67 1.57404 -0.0785433 0
M  V30 10759 C 1001.62 2.13104 0.88631 0
M  V30 10760 C 1002.59 1.04527 1.29086 0
M  V30 10761 O 1003.78 1.32226 1.37553 0
M  V30 10762 C 1000.92 2.70252 2.14611 0
M  V30 10763 C 1000.03 3.93007 1.79358 0
M  V30 10764 C 999.164 4.38376 3 0
M  V30 10765 C 998.203 5.53761 2.60796 0
M  V30 10766 N 997.34 5.94058 3.74219 0
M  V30 10767 H 1002.18 2.95243 0.404452 0
M  V30 10768 H 999.717 1.45894 0.187982 0
M  V30 10769 H 1001.67 3.01497 2.88367 0
M  V30 10770 H 1000.3 1.90868 2.60326 0
M  V30 10771 H 999.357 3.68181 0.956384 0
M  V30 10772 H 1000.67 4.76795 1.4652 0
M  V30 10773 H 999.823 4.71317 3.82027 0
M  V30 10774 H 998.562 3.53455 3.36037 0
M  V30 10775 H 997.567 5.20464 1.77192 0
M  V30 10776 H 998.792 6.40419 2.25922 0
M  V30 10777 H 996.738 5.12085 4.10005 0
M  V30 10778 H 996.655 6.72602 3.45171 0
M  V30 10779 H 997.923 6.31624 4.56805 0
M  V30 10780 N 1002.15 -0.195058 1.56388 0
M  V30 10781 C 1003.1 -1.26122 1.95438 0
M  V30 10782 C 1004.09 -1.47117 0.839818 0
M  V30 10783 O 1005.3 -1.47978 1.02482 0
M  V30 10784 H 1001.67 -0.423422 0.621464 0
M  V30 10785 H 1003.65 -0.904854 2.8435 0
M  V30 10786 C 1002.39 -2.59858 2.31017 0
M  V30 10787 H 1001.72 -2.44519 3.16308 0
M  V30 10788 H 1003.16 -3.33205 2.62203 0
M  V30 10789 C 1001.62 -3.16853 1.14481 0
M  V30 10790 O 1002.15 -3.995 0.419853 0
M  V30 10791 N 1000.35 -2.75599 0.921604 0
M  V30 10792 H 999.9 -2.08495 1.51287 0
M  V30 10793 H 999.858 -3.14072 0.143663 0
M  V30 10794 N 1003.63 -1.50653 -0.462772 0
M  V30 10795 C 1004.58 -1.70122 -1.55971 0
M  V30 10796 C 1005.55 -0.542581 -1.56988 0
M  V30 10797 O 1006.73 -0.774114 -1.74391 0
M  V30 10798 C 1003.87 -1.80899 -2.93887 0
M  V30 10799 C 1002.98 -3.08318 -3.02595 0
M  V30 10800 C 1002.12 -3.09841 -4.31477 0
M  V30 10801 C 1001.16 -4.3168 -4.33957 0
M  V30 10802 N 1000.3 -4.30894 -5.54323 0
M  V30 10803 H 1005.14 -2.63768 -1.38674 0
M  V30 10804 H 1002.67 -1.30746 -0.674091 0
M  V30 10805 H 1004.63 -1.85128 -3.73876 0
M  V30 10806 H 1003.26 -0.906854 -3.098 0
M  V30 10807 H 1002.31 -3.13521 -2.15427 0
M  V30 10808 H 1003.62 -3.98282 -3.00288 0
M  V30 10809 H 1002.78 -3.12845 -5.1982 0
M  V30 10810 H 1001.52 -2.17722 -4.36404 0
M  V30 10811 H 1000.52 -4.28879 -3.4401 0
M  V30 10812 H 1001.75 -5.25035 -4.30715 0
M  V30 10813 H 999.694 -3.41633 -5.6002 0
M  V30 10814 H 999.611 -5.14636 -5.53792 0
M  V30 10815 H 1000.88 -4.38056 -6.44769 0
M  V30 10816 N 1005.11 0.71652 -1.4037 0
M  V30 10817 C 1006.07 1.81231 -1.40313 0
M  V30 10818 C 1007.07 1.58032 -0.297087 0
M  V30 10819 O 1008.26 1.65091 -0.555944 0
M  V30 10820 C 1005.39 3.19308 -1.19395 0
M  V30 10821 H 1006.59 1.8268 -2.3784 0
M  V30 10822 H 1004.14 0.922062 -1.26205 0
M  V30 10823 H 1004.87 3.2351 -0.226252 0
M  V30 10824 H 1004.66 3.37546 -1.99512 0
M  V30 10825 H 1006.15 3.99339 -1.22141 0
M  V30 10826 N 1006.59 1.25851 0.948643 0
M  V30 10827 C 1007.84 1.10347 1.68838 0
M  V30 10828 C 1008.15 -0.354262 1.92365 0
M  V30 10829 O 1009.35 -0.629847 2.64093 0
M  V30 10830 C 1007.81 1.92659 3.03991 0
M  V30 10831 C 1007.42 3.42962 2.88238 0
M  V30 10832 C 1009.16 1.85743 3.81707 0
M  V30 10833 C 1007.07 4.17547 4.18818 0
M  V30 10834 H 1006 0.409342 0.63321 0
M  V30 10835 H 1008.65 1.50098 1.05559 0
M  V30 10836 H 1007.03 1.45736 3.68208 0
M  V30 10837 H 1008.21 3.97601 2.32917 0
M  V30 10838 H 1006.52 3.51035 2.23972 0
M  V30 10839 H 1009.12 2.38758 4.78434 0
M  V30 10840 H 1009.46 0.826568 4.08012 0
M  V30 10841 H 1009.99 2.30449 3.2425 0
M  V30 10842 H 1006.73 5.21072 3.97699 0
M  V30 10843 H 1006.25 3.6769 4.73882 0
M  V30 10844 H 1007.93 4.25589 4.87322 0
M  V30 10845 N 1008.06 -1.15214 1.07534 0
M  V30 10846 C 1009.01 -2.20013 0.697337 0
M  V30 10847 C 1009.98 -1.6314 -0.312168 0
M  V30 10848 O 1011.17 -1.89768 -0.198196 0
M  V30 10849 C 1008.31 -3.44945 0.103293 0
M  V30 10850 C 1007.42 -4.16009 1.1645 0
M  V30 10851 C 1006.55 -5.28496 0.535261 0
M  V30 10852 C 1005.59 -5.9138 1.57912 0
M  V30 10853 N 1004.73 -6.95335 0.972332 0
M  V30 10854 H 1009.57 -2.51698 1.59538 0
M  V30 10855 H 1007.11 -1.2361 0.797431 0
M  V30 10856 H 1009.07 -4.16397 -0.258766 0
M  V30 10857 H 1007.7 -3.13772 -0.758096 0
M  V30 10858 H 1006.75 -3.43035 1.64411 0
M  V30 10859 H 1008.06 -4.58853 1.9559 0
M  V30 10860 H 1007.21 -6.06579 0.120942 0
M  V30 10861 H 1005.95 -4.8685 -0.287889 0
M  V30 10862 H 1004.96 -5.12008 2.0032 0
M  V30 10863 H 1006.18 -6.35103 2.40459 0
M  V30 10864 H 1004.13 -6.55779 0.170119 0
M  V30 10865 H 1004.05 -7.36616 1.70095 0
M  V30 10866 H 1005.31 -7.77312 0.583577 0
M  V30 10867 N 1009.54 -0.859717 -1.32086 0
M  V30 10868 C 1010.51 -0.313005 -2.27053 0
M  V30 10869 C 1011.51 0.530191 -1.51808 0
M  V30 10870 O 1012.7 0.340972 -1.7083 0
M  V30 10871 C 1009.83 0.5566 -3.36325 0
M  V30 10872 H 1011.02 -1.15125 -2.76923 0
M  V30 10873 H 1008.57 -0.634463 -1.42843 0
M  V30 10874 H 1009.31 1.41645 -2.91731 0
M  V30 10875 H 1009.09 -0.0470197 -3.92072 0
M  V30 10876 H 1010.58 0.931725 -4.07073 0
M  V30 10877 N 1011.02 1.44971 -0.618145 0
M  V30 10878 C 1012.27 2.01372 -0.115004 0
M  V30 10879 C 1012.58 1.49104 1.26599 0
M  V30 10880 O 1013.79 1.97549 1.86244 0
M  V30 10881 C 1012.24 3.59567 -0.154883 0
M  V30 10882 C 1011.85 4.20832 -1.53639 0
M  V30 10883 C 1013.6 4.23491 0.292468 0
M  V30 10884 C 1011.5 5.7121 -1.53208 0
M  V30 10885 H 1010.43 0.752979 -0.0392267 0
M  V30 10886 H 1013.08 1.66329 -0.775032 0
M  V30 10887 H 1011.47 3.91847 0.572001 0
M  V30 10888 H 1012.64 4.00109 -2.28582 0
M  V30 10889 H 1010.96 3.69143 -1.92672 0
M  V30 10890 H 1013.55 5.33771 0.315032 0
M  V30 10891 H 1013.9 3.9491 1.31725 0
M  V30 10892 H 1014.43 3.95967 -0.381493 0
M  V30 10893 H 1011.17 6.04506 -2.53481 0
M  V30 10894 H 1010.69 5.94094 -0.825387 0
M  V30 10895 H 1012.37 6.34606 -1.26032 0
M  V30 10896 N 1012.5 0.357919 1.53482 0
M  V30 10897 C 1013.45 -0.507364 2.26999 0
M  V30 10898 C 1014.44 -1.08987 1.29685 0
M  V30 10899 O 1015.65 -1.03396 1.47341 0
M  V30 10900 H 1012.02 -0.182326 0.729562 0
M  V30 10901 H 1013.99 0.134547 2.98097 0
M  V30 10902 C 1012.74 -1.63911 3.06641 0
M  V30 10903 H 1012.06 -1.20017 3.81361 0
M  V30 10904 H 1013.5 -2.21943 3.61272 0
M  V30 10905 C 1011.96 -2.57697 2.17011 0
M  V30 10906 O 1012.49 -3.60318 1.77578 0
M  V30 10907 N 1010.7 -2.2671 1.818 0
M  V30 10908 H 1010.25 -1.43296 2.14065 0
M  V30 10909 H 1010.2 -2.89716 1.22115 0
M  V30 10910 N 1013.98 -1.5736 0.0868897 0
M  V30 10911 C 1014.92 -2.14793 -0.892571 0
M  V30 10912 C 1015.92 -1.08866 -1.29787 0
M  V30 10913 O 1017.12 -1.27223 -1.27335 0
M  V30 10914 H 1013.5 -0.686998 -0.305838 0
M  V30 10915 H 1015.47 -2.95927 -0.383393 0
M  V30 10916 C 1014.22 -2.73646 -2.14507 0
M  V30 10917 H 1013.54 -3.54835 -1.84207 0
M  V30 10918 H 1014.98 -3.17409 -2.81118 0
M  V30 10919 C 1013.44 -1.69138 -2.91366 0
M  V30 10920 O 1013.97 -1.12539 -3.85614 0
M  V30 10921 N 1012.18 -1.3982 -2.54752 0
M  V30 10922 H 1011.72 -1.86035 -1.78182 0
M  V30 10923 H 1011.68 -0.701316 -3.06478 0
M  V30 10924 N 1015.45 0.186762 -1.56489 0
M  V30 10925 C 1016.68 0.925916 -1.85584 0
M  V30 10926 C 1017.1 1.75708 -0.671446 0
M  V30 10927 O 1016.46 1.7728 0.379687 0
M  V30 10928 C 1016.51 1.79107 -3.12975 0
M  V30 10929 O 1015.61 2.89088 -2.94112 0
M  V30 10930 H 1014.96 0.260275 -0.610863 0
M  V30 10931 H 1017.49 0.189561 -2.0372 0
M  V30 10932 H 1017.5 2.19408 -3.43983 0
M  V30 10933 H 1016.17 1.18044 -3.98796 0
M  V30 10934 H 1014.75 2.52482 -2.74422 0
M  V30 10935 N 1016.93 1.50896 0.454776 0
M  V30 10936 C 1017.86 1.73885 1.5584 0
M  V30 10937 C 1018.84 0.588172 1.59607 0
M  V30 10938 O 1020.03 0.829054 1.75614 0
M  V30 10939 C 1017.16 1.84796 2.94054 0
M  V30 10940 C 1016.11 3.00111 3.05152 0
M  V30 10941 C 1015.44 2.96183 4.45174 0
M  V30 10942 C 1016.74 4.40365 2.80849 0
M  V30 10943 H 1018.43 2.66292 1.36854 0
M  V30 10944 H 1015.98 1.28142 0.656936 0
M  V30 10945 H 1017.93 1.99462 3.71204 0
M  V30 10946 H 1016.66 0.890235 3.14233 0
M  V30 10947 H 1015.31 2.85121 2.30438 0
M  V30 10948 H 1014.96 1.98224 4.62295 0
M  V30 10949 H 1014.66 3.73608 4.53532 0
M  V30 10950 H 1016.19 3.1292 5.24322 0
M  V30 10951 H 1017.6 4.55795 3.47741 0
M  V30 10952 H 1016 5.19363 3.00636 0
M  V30 10953 H 1017.07 4.51606 1.76579 0
M  V30 10954 N 1018.41 -0.709066 1.40748 0
M  V30 10955 C 1019.66 -1.4646 1.38681 0
M  V30 10956 C 1019.97 -1.95599 -0.0056209 0
M  V30 10957 O 1021.18 -2.71091 -0.148907 0
M  V30 10958 C 1019.63 -2.64771 2.43771 0
M  V30 10959 C 1019.24 -2.22474 3.88856 0
M  V30 10960 C 1020.99 -3.42475 2.50821 0
M  V30 10961 C 1018.89 -3.37663 4.85528 0
M  V30 10962 H 1017.82 -0.550084 0.515678 0
M  V30 10963 H 1020.47 -0.771074 1.66513 0
M  V30 10964 H 1018.86 -3.36325 2.09048 0
M  V30 10965 H 1020.03 -1.58297 4.32757 0
M  V30 10966 H 1018.35 -1.57798 3.85342 0
M  V30 10967 H 1020.94 -4.28201 3.20232 0
M  V30 10968 H 1021.29 -3.86738 1.54076 0
M  V30 10969 H 1021.82 -2.77969 2.84567 0
M  V30 10970 H 1018.56 -2.98426 5.83628 0
M  V30 10971 H 1018.08 -4.00734 4.46287 0
M  V30 10972 H 1019.76 -4.03636 5.05655 0
M  V30 10973 N 1019.89 -1.26353 -0.941956 0
M  V30 10974 C 1020.8 -1.09618 -2.07415 0
M  V30 10975 C 1021.82 -0.0298963 -1.73974 0
M  V30 10976 O 1022.99 -0.233466 -2.00042 0
M  V30 10977 C 1020.06 -0.73013 -3.38925 0
M  V30 10978 C 1019.12 -1.87574 -3.86153 0
M  V30 10979 C 1018.35 -1.52706 -5.11387 0
M  V30 10980 O 1018.57 -0.428438 -5.68789 0
M  V30 10981 O 1017.51 -2.36154 -5.53638 0
M  V30 10982 H 1021.33 -2.04598 -2.2444 0
M  V30 10983 H 1018.92 -1.05407 -1.05876 0
M  V30 10984 H 1020.8 -0.538684 -4.17943 0
M  V30 10985 H 1019.48 0.190282 -3.2314 0
M  V30 10986 H 1018.38 -2.12214 -3.08084 0
M  V30 10987 H 1019.72 -2.77585 -4.06457 0
M  V30 10988 N 1021.37 1.14642 -1.08144 0
M  V30 10989 C 1022.78 1.37604 -0.808537 0
M  V30 10990 C 1022.98 1.92868 0.583452 0
M  V30 10991 O 1022.04 2.13964 1.34073 0
M  V30 10992 C 1023.35 2.3396 -1.889 0
M  V30 10993 C 1024.9 2.47605 -1.9147 0
M  V30 10994 C 1025.38 3.47258 -2.98623 0
M  V30 10995 N 1026.87 3.548 -2.97777 0
M  V30 10996 C 1027.6 4.31751 -3.77331 0
M  V30 10997 N 1027.1 5.11966 -4.66757 0
M  V30 10998 N 1028.89 4.2692 -3.65645 0
M  V30 10999 H 1021.04 0.771154 -1.97906 0
M  V30 11000 H 1023.3 0.401694 -0.858688 0
M  V30 11001 H 1023.01 2.00484 -2.88962 0
M  V30 11002 H 1022.88 3.33833 -1.756 0
M  V30 11003 H 1025.27 2.80375 -0.920548 0
M  V30 11004 H 1025.35 1.47702 -2.08848 0
M  V30 11005 H 1025 3.15223 -3.98243 0
M  V30 11006 H 1024.93 4.46935 -2.7849 0
M  V30 11007 H 1027.42 2.97553 -2.3296 0
M  V30 11008 H 1027.73 5.67951 -5.24072 0
M  V30 11009 H 1026.08 5.11245 -4.70801 0
M  V30 11010 H 1029.27 3.63322 -2.95152 0
M  V30 11011 H 1029.44 4.8664 -4.27885 0
M  V30 11012 N 1022.85 0.866709 1.31628 0
M  V30 11013 C 1023.76 0.323408 2.3236 0
M  V30 11014 C 1024.77 -0.564995 1.64572 0
M  V30 11015 O 1025.95 -0.462489 1.96018 0
M  V30 11016 C 1023.01 -0.469045 3.43513 0
M  V30 11017 C 1022.07 0.446928 4.26967 0
M  V30 11018 C 1021.31 -0.307799 5.32812 0
M  V30 11019 O 1021.53 -1.5363 5.49321 0
M  V30 11020 O 1020.46 0.332653 6.0098 0
M  V30 11021 H 1024.29 1.15827 2.80745 0
M  V30 11022 H 1021.87 0.629987 1.35468 0
M  V30 11023 H 1023.76 -0.918405 4.1127 0
M  V30 11024 H 1022.43 -1.28051 2.97296 0
M  V30 11025 H 1021.34 0.944719 3.61975 0
M  V30 11026 H 1022.67 1.2239 4.76741 0
M  V30 11027 N 1024.32 -1.44642 0.625825 0
M  V30 11028 C 1025.29 -2.29085 -0.072526 0
M  V30 11029 C 1026.29 -1.40755 -0.777467 0
M  V30 11030 O 1027.48 -1.62684 -0.622861 0
M  V30 11031 C 1024.61 -3.22212 -1.1132 0
M  V30 11032 H 1025.8 -2.92317 0.670124 0
M  V30 11033 H 1023.35 -1.51466 0.38571 0
M  V30 11034 H 1024.09 -2.63819 -1.88601 0
M  V30 11035 H 1023.87 -3.87299 -0.611709 0
M  V30 11036 H 1025.36 -3.8566 -1.60175 0
M  V30 11037 N 1025.8 -0.366053 -1.5329 0
M  V30 11038 C 1026.75 0.480205 -2.25749 0
M  V30 11039 C 1027.72 1.07713 -1.2644 0
M  V30 11040 O 1028.9 1.10953 -1.55222 0
M  V30 11041 C 1026.04 1.61374 -3.05045 0
M  V30 11042 C 1025.16 1.04194 -4.19246 0
M  V30 11043 C 1024.29 2.14462 -4.85983 0
M  V30 11044 C 1023.33 1.5475 -5.92215 0
M  V30 11045 N 1022.47 2.58852 -6.52641 0
M  V30 11046 H 1027.31 -0.144199 -2.97651 0
M  V30 11047 H 1024.84 -0.0829321 -1.46866 0
M  V30 11048 H 1026.8 2.28144 -3.49294 0
M  V30 11049 H 1025.43 2.2088 -2.35397 0
M  V30 11050 H 1024.48 0.264514 -3.79479 0
M  V30 11051 H 1025.8 0.565379 -4.95585 0
M  V30 11052 H 1024.95 2.89051 -5.33418 0
M  V30 11053 H 1023.69 2.6547 -4.09117 0
M  V30 11054 H 1022.69 0.786759 -5.44142 0
M  V30 11055 H 1023.92 1.04566 -6.71001 0
M  V30 11056 H 1021.87 3.09073 -5.78627 0
M  V30 11057 H 1021.78 2.15884 -7.24521 0
M  V30 11058 H 1023.05 3.33142 -7.04724 0
M  V30 11059 N 1027.28 1.57312 -0.0952337 0
M  V30 11060 C 1028.53 1.95449 0.563155 0
M  V30 11061 C 1028.88 0.976396 1.65784 0
M  V30 11062 O 1028.17 0.00241533 1.916 0
M  V30 11063 C 1028.37 3.37937 1.16332 0
M  V30 11064 C 1028.2 4.49517 0.128308 0
M  V30 11065 C 1026.97 5.04437 -0.295252 0
M  V30 11066 C 1029.16 5.10257 -0.643571 0
M  V30 11067 N 1027.15 5.99573 -1.31852 0
M  V30 11068 C 1028.52 6.01113 -1.51867 0
M  V30 11069 C 1030.57 4.92996 -0.697074 0
M  V30 11070 C 1029.28 6.76559 -2.44256 0
M  V30 11071 C 1031.3 5.69104 -1.60857 0
M  V30 11072 C 1030.66 6.59626 -2.47129 0
M  V30 11073 H 1026.76 0.761844 0.176402 0
M  V30 11074 H 1029.35 1.93886 -0.177833 0
M  V30 11075 H 1027.52 3.40193 1.87413 0
M  V30 11076 H 1029.25 3.63253 1.78408 0
M  V30 11077 H 1026 4.7351 0.0925153 0
M  V30 11078 H 1026.43 6.51843 -1.82836 0
M  V30 11079 H 1031.07 4.22777 -0.0442422 0
M  V30 11080 H 1028.79 7.4604 -3.10564 0
M  V30 11081 H 1032.37 5.57761 -1.65511 0
M  V30 11082 H 1031.25 7.17487 -3.16515 0
M  V30 11083 N 1028.76 -0.17846 1.56586 0
M  V30 11084 C 1029.7 -1.22104 1.95855 0
M  V30 11085 C 1030.67 -1.44366 0.821447 0
M  V30 11086 O 1031.86 -1.57224 1.08098 0
M  V30 11087 C 1029 -2.55701 2.31757 0
M  V30 11088 C 1028.11 -2.40879 3.5861 0
M  V30 11089 C 1027.25 -3.67293 3.83757 0
M  V30 11090 C 1026.29 -3.47373 5.03982 0
M  V30 11091 N 1025.42 -4.65839 5.25298 0
M  V30 11092 H 1030.26 -0.879168 2.84736 0
M  V30 11093 H 1027.8 -0.422721 1.40895 0
M  V30 11094 H 1029.76 -3.33556 2.50592 0
M  V30 11095 H 1028.39 -2.87898 1.45995 0
M  V30 11096 H 1027.44 -1.54236 3.47729 0
M  V30 11097 H 1028.75 -2.22102 4.46623 0
M  V30 11098 H 1027.91 -4.53584 4.02922 0
M  V30 11099 H 1026.65 -3.89041 2.94107 0
M  V30 11100 H 1025.65 -2.59467 4.84723 0
M  V30 11101 H 1026.88 -3.27055 5.95157 0
M  V30 11102 H 1024.82 -4.8782 4.38598 0
M  V30 11103 H 1024.74 -4.4995 6.0752 0
M  V30 11104 H 1026.01 -5.53435 5.48936 0
M  V30 11105 N 1030.24 -1.51135 -0.446768 0
M  V30 11106 C 1031.15 -1.74595 -1.56696 0
M  V30 11107 C 1032.16 -0.629816 -1.62201 0
M  V30 11108 O 1033.34 -0.910987 -1.79619 0
M  V30 11109 C 1030.4 -1.85738 -2.9275 0
M  V30 11110 C 1029.46 -3.09564 -2.97437 0
M  V30 11111 C 1028.7 -3.20165 -4.27001 0
M  V30 11112 O 1028.92 -2.36939 -5.1886 0
M  V30 11113 O 1027.85 -4.13077 -4.3778 0
M  V30 11114 H 1031.68 -2.69601 -1.39817 0
M  V30 11115 H 1029.26 -1.35523 -0.628805 0
M  V30 11116 H 1031.15 -1.95107 -3.73512 0
M  V30 11117 H 1029.82 -0.939184 -3.09776 0
M  V30 11118 H 1028.73 -3.05679 -2.15664 0
M  V30 11119 H 1030.06 -4.01041 -2.85353 0
M  V30 11120 N 1031.71 0.701592 -1.41122 0
M  V30 11121 C 1032.96 1.45722 -1.39456 0
M  V30 11122 C 1033.28 1.95599 -0.00475228 0
M  V30 11123 O 1034.48 2.71166 0.134529 0
M  V30 11124 C 1032.94 2.63475 -2.45172 0
M  V30 11125 C 1032.55 2.20409 -3.90031 0
M  V30 11126 C 1034.29 3.4114 -2.52633 0
M  V30 11127 C 1032.2 3.35084 -4.87312 0
M  V30 11128 H 1031.13 0.547341 -0.518588 0
M  V30 11129 H 1033.78 0.762233 -1.6692 0
M  V30 11130 H 1032.16 3.35212 -2.10829 0
M  V30 11131 H 1033.33 1.56 -4.3359 0
M  V30 11132 H 1031.65 1.55752 -3.86174 0
M  V30 11133 H 1034.25 4.26496 -3.22498 0
M  V30 11134 H 1034.59 3.85915 -1.56125 0
M  V30 11135 H 1035.12 2.76456 -2.86037 0
M  V30 11136 H 1031.86 2.95327 -5.85203 0
M  V30 11137 H 1031.38 3.98362 -4.48406 0
M  V30 11138 H 1033.06 4.00949 -5.07788 0
M  V30 11139 N 1033.19 1.2685 0.935242 0
M  V30 11140 C 1034.42 1.15371 1.71386 0
M  V30 11141 C 1034.83 -0.293048 1.86917 0
M  V30 11142 O 1034.17 -1.212 1.38044 0
M  V30 11143 C 1034.23 1.75652 3.13666 0
M  V30 11144 C 1033.9 3.24788 3.215 0
M  V30 11145 C 1034.9 4.21525 3.04323 0
M  V30 11146 C 1032.58 3.65359 3.447 0
M  V30 11147 C 1034.57 5.56812 3.10224 0
M  V30 11148 C 1032.26 5.00778 3.50235 0
M  V30 11149 C 1033.26 5.96314 3.33014 0
M  V30 11150 O 1032.95 7.29266 3.38269 0
M  V30 11151 H 1032.68 0.40234 0.54323 0
M  V30 11152 H 1035.23 1.68083 1.18056 0
M  V30 11153 H 1033.46 1.17408 3.68446 0
M  V30 11154 H 1035.15 1.58994 3.73465 0
M  V30 11155 H 1035.92 3.91519 2.86249 0
M  V30 11156 H 1031.8 2.91479 3.57157 0
M  V30 11157 H 1035.34 6.3136 2.967 0
M  V30 11158 H 1031.24 5.30444 3.67831 0
M  V30 11159 H 1032.01 7.37616 3.54774 0
M  V30 11160 N 1034.67 -1.14067 1.0875 0
M  V30 11161 C 1035.9 -1.89582 0.841038 0
M  V30 11162 C 1036.32 -1.78226 -0.601436 0
M  V30 11163 O 1035.68 -1.12491 -1.42181 0
M  V30 11164 C 1035.73 -3.37415 1.27213 0
M  V30 11165 O 1034.83 -4.10191 0.426246 0
M  V30 11166 H 1034.17 -0.589716 0.305173 0
M  V30 11167 H 1036.7 -1.44364 1.44984 0
M  V30 11168 H 1036.71 -3.88234 1.25451 0
M  V30 11169 H 1035.39 -3.44999 2.32268 0
M  V30 11170 H 1033.96 -3.69429 0.507585 0
M  V30 11171 N 1036.15 -0.873678 -1.31166 0
M  V30 11172 C 1037.39 -0.496513 -1.97247 0
M  V30 11173 C 1037.75 0.941605 -1.67784 0
M  V30 11174 O 1037.04 1.65469 -0.965947 0
M  V30 11175 C 1037.24 -0.69462 -3.50585 0
M  V30 11176 C 1037.07 -2.15044 -3.94951 0
M  V30 11177 C 1035.84 -2.79278 -4.21108 0
M  V30 11178 C 1038.03 -3.1231 -4.08616 0
M  V30 11179 N 1036.02 -4.15574 -4.51853 0
M  V30 11180 C 1037.39 -4.33646 -4.43115 0
M  V30 11181 C 1039.44 -3.08251 -3.91006 0
M  V30 11182 C 1038.14 -5.51447 -4.61842 0
M  V30 11183 C 1040.17 -4.25314 -4.10929 0
M  V30 11184 C 1039.53 -5.45413 -4.45763 0
M  V30 11185 H 1035.63 -0.230797 -0.747166 0
M  V30 11186 H 1038.22 -1.12905 -1.58621 0
M  V30 11187 H 1036.39 -0.0916484 -3.88292 0
M  V30 11188 H 1038.12 -0.285475 -4.03692 0
M  V30 11189 H 1034.87 -2.30207 -4.13886 0
M  V30 11190 H 1035.3 -4.85932 -4.7138 0
M  V30 11191 H 1039.94 -2.16505 -3.6316 0
M  V30 11192 H 1037.66 -6.43707 -4.88535 0
M  V30 11193 H 1041.24 -4.2363 -3.98785 0
M  V30 11194 H 1040.12 -6.34487 -4.60865 0
M  V30 11195 N 1037.63 1.44308 -0.633487 0
M  V30 11196 C 1038.88 2.01239 -0.136356 0
M  V30 11197 C 1039.19 1.50438 1.25011 0
M  V30 11198 O 1040.39 1.99513 1.84138 0
M  V30 11199 C 1038.85 3.59382 -0.193011 0
M  V30 11200 C 1038.46 4.19178 -1.58093 0
M  V30 11201 C 1040.2 4.23778 0.247534 0
M  V30 11202 C 1038.11 5.69553 -1.59258 0
M  V30 11203 H 1037.04 0.752521 -0.0472109 0
M  V30 11204 H 1039.69 1.65498 -0.79263 0
M  V30 11205 H 1038.07 3.92432 0.530408 0
M  V30 11206 H 1039.25 3.97662 -2.32813 0
M  V30 11207 H 1037.56 3.67079 -1.96576 0
M  V30 11208 H 1040.16 5.34075 0.258401 0
M  V30 11209 H 1040.5 3.96285 1.27529 0
M  V30 11210 H 1041.03 3.9554 -0.423469 0
M  V30 11211 H 1037.77 6.01784 -2.59878 0
M  V30 11212 H 1037.29 5.93185 -0.888352 0
M  V30 11213 H 1038.97 6.33234 -1.32756 0
M  V30 11214 N 1039.1 0.374177 1.53094 0
M  V30 11215 C 1040.35 -0.213131 2.01677 0
M  V30 11216 C 1040.68 -1.47715 1.26071 0
M  V30 11217 O 1039.96 -1.91199 0.356834 0
M  V30 11218 C 1040.24 -0.496392 3.56662 0
M  V30 11219 C 1040.09 0.781859 4.42953 0
M  V30 11220 C 1041.41 -1.29339 4.20666 0
M  V30 11221 H 1038.53 -0.0759885 0.733072 0
M  V30 11222 H 1041.17 0.500765 1.83282 0
M  V30 11223 H 1039.32 -1.10455 3.72467 0
M  V30 11224 H 1041 1.41914 4.38928 0
M  V30 11225 H 1039.24 1.40041 4.10574 0
M  V30 11226 H 1039.91 0.538508 5.49367 0
M  V30 11227 H 1042.39 -0.778848 4.08746 0
M  V30 11228 H 1041.26 -1.46033 5.29118 0
M  V30 11229 H 1041.52 -2.30435 3.77296 0
M  V30 11230 N 1040.58 -1.57259 0.103575 0
M  V30 11231 C 1041.81 -1.99424 -0.569638 0
M  V30 11232 C 1042.23 -0.982475 -1.60403 0
M  V30 11233 O 1041.59 0.0479231 -1.81237 0
M  V30 11234 C 1041.64 -3.40527 -1.18633 0
M  V30 11235 O 1040.74 -3.42167 -2.30208 0
M  V30 11236 H 1040.08 -0.648251 -0.143759 0
M  V30 11237 H 1042.61 -2.03739 0.187493 0
M  V30 11238 H 1042.62 -3.78404 -1.5256 0
M  V30 11239 H 1041.3 -4.13686 -0.428582 0
M  V30 11240 H 1039.88 -3.16093 -1.97837 0
M  V30 11241 N 1042.06 0.170153 -1.56679 0
M  V30 11242 C 1043.01 1.22997 -1.9742 0
M  V30 11243 C 1044 1.45762 -0.863117 0
M  V30 11244 O 1045.21 1.46328 -1.04824 0
M  V30 11245 H 1041.58 0.413482 -0.628122 0
M  V30 11246 H 1043.55 0.859502 -2.85754 0
M  V30 11247 C 1042.3 2.5615 -2.35122 0
M  V30 11248 H 1041.63 2.39456 -3.20158 0
M  V30 11249 H 1043.07 3.28991 -2.67471 0
M  V30 11250 C 1041.53 3.14992 -1.19507 0
M  V30 11251 O 1042.06 3.98781 -0.483357 0
M  V30 11252 N 1040.26 2.74098 -0.965332 0
M  V30 11253 H 1039.81 2.06062 -1.54585 0
M  V30 11254 H 1039.77 3.13803 -0.193611 0
M  V30 11255 N 1043.54 1.5137 0.438746 0
M  V30 11256 C 1044.78 1.65173 1.18698 0
M  V30 11257 C 1045.14 0.362753 1.88949 0
M  V30 11258 O 1044.43 -0.641351 1.80547 0
M  V30 11259 C 1044.63 2.79221 2.23093 0
M  V30 11260 C 1044.46 4.19085 1.63088 0
M  V30 11261 C 1043.23 4.85042 1.41642 0
M  V30 11262 C 1045.42 5.02225 1.10789 0
M  V30 11263 N 1043.41 6.09024 0.772198 0
M  V30 11264 C 1044.78 6.17197 0.588854 0
M  V30 11265 C 1046.83 4.87764 0.999516 0
M  V30 11266 C 1045.53 7.19295 -0.0279103 0
M  V30 11267 C 1047.56 5.90068 0.396648 0
M  V30 11268 C 1046.92 7.04311 -0.111855 0
M  V30 11269 H 1043.02 0.658316 0.422071 0
M  V30 11270 H 1045.61 1.88593 0.483808 0
M  V30 11271 H 1043.78 2.57468 2.908 0
M  V30 11272 H 1045.51 2.82213 2.90066 0
M  V30 11273 H 1042.26 4.42886 1.67776 0
M  V30 11274 H 1042.69 6.75383 0.467568 0
M  V30 11275 H 1047.33 3.99695 1.37853 0
M  V30 11276 H 1045.05 8.07013 -0.419056 0
M  V30 11277 H 1048.63 5.80948 0.314715 0
M  V30 11278 H 1047.51 7.82118 -0.571021 0
M  V30 11279 N 1045.02 -0.694098 1.41492 0
M  V30 11280 C 1045.95 -1.82042 1.46229 0
M  V30 11281 C 1046.93 -1.67047 0.320803 0
M  V30 11282 O 1048.11 -1.86758 0.53245 0
M  V30 11283 C 1045.24 -3.2019 1.34519 0
M  V30 11284 C 1044.2 -3.49892 2.46495 0
M  V30 11285 C 1043.52 -4.87411 2.1985 0
M  V30 11286 C 1044.82 -3.4872 3.88834 0
M  V30 11287 H 1046.52 -1.78335 2.40493 0
M  V30 11288 H 1044.06 -0.856566 1.15754 0
M  V30 11289 H 1046.02 -3.98699 1.36445 0
M  V30 11290 H 1044.74 -3.24527 0.367406 0
M  V30 11291 H 1043.4 -2.73734 2.43854 0
M  V30 11292 H 1043.05 -4.88375 1.20411 0
M  V30 11293 H 1042.75 -5.08248 2.94885 0
M  V30 11294 H 1044.27 -5.68228 2.23494 0
M  V30 11295 H 1045.68 -4.1723 3.93182 0
M  V30 11296 H 1044.08 -3.81089 4.63564 0
M  V30 11297 H 1045.15 -2.47665 4.16881 0
M  V30 11298 N 1046.49 -1.27344 -0.928501 0
M  V30 11299 C 1047.72 -1.16447 -1.7102 0
M  V30 11300 C 1048.14 0.278799 -1.8673 0
M  V30 11301 O 1047.49 1.18989 -1.38376 0
M  V30 11302 C 1047.55 -1.84242 -3.11026 0
M  V30 11303 O 1047.27 -3.2293 -2.96054 0
M  V30 11304 C 1048.77 -1.7946 -4.05351 0
M  V30 11305 H 1045.99 -0.404898 -0.535069 0
M  V30 11306 H 1048.53 -1.68201 -1.16313 0
M  V30 11307 H 1046.69 -1.36395 -3.62595 0
M  V30 11308 H 1047.1 -3.5667 -3.8456 0
M  V30 11309 H 1048.57 -2.31511 -5.01105 0
M  V30 11310 H 1049.05 -0.763771 -4.32508 0
M  V30 11311 H 1049.66 -2.26918 -3.59706 0
M  V30 11312 N 1047.97 1.13488 -1.09353 0
M  V30 11313 C 1049.39 1.36739 -0.823086 0
M  V30 11314 C 1049.59 1.93476 0.562963 0
M  V30 11315 O 1048.64 2.15374 1.31796 0
M  V30 11316 C 1049.96 2.31943 -1.91371 0
M  V30 11317 C 1051.51 2.4556 -1.94085 0
M  V30 11318 C 1051.98 3.44072 -3.02289 0
M  V30 11319 N 1053.47 3.51622 -3.01524 0
M  V30 11320 C 1054.21 4.27724 -3.8189 0
M  V30 11321 N 1053.7 5.06987 -4.72161 0
M  V30 11322 N 1055.5 4.23018 -3.70152 0
M  V30 11323 H 1047.65 0.75012 -1.98713 0
M  V30 11324 H 1049.91 0.392564 -0.862901 0
M  V30 11325 H 1049.62 1.97408 -2.91072 0
M  V30 11326 H 1049.49 3.31952 -1.79131 0
M  V30 11327 H 1051.88 2.79382 -0.950234 0
M  V30 11328 H 1051.96 1.45479 -2.10403 0
M  V30 11329 H 1051.6 3.10981 -4.01564 0
M  V30 11330 H 1051.53 4.43956 -2.83214 0
M  V30 11331 H 1054.02 2.95066 -2.36103 0
M  V30 11332 H 1054.34 5.6236 -5.30067 0
M  V30 11333 H 1052.68 5.06222 -4.76197 0
M  V30 11334 H 1055.87 3.60171 -2.98989 0
M  V30 11335 H 1056.04 4.82075 -4.33022 0
M  V30 11336 N 1049.45 0.880621 1.30701 0
M  V30 11337 C 1050.7 0.492957 1.95583 0
M  V30 11338 C 1051.01 -0.961863 1.70316 0
M  V30 11339 O 1052.22 -1.45617 2.29146 0
M  V30 11340 C 1050.68 0.830656 3.50183 0
M  V30 11341 C 1050.28 2.30295 3.84276 0
M  V30 11342 C 1052.03 0.511979 4.21401 0
M  V30 11343 C 1049.93 2.58251 5.32034 0
M  V30 11344 H 1048.86 0.18062 0.732047 0
M  V30 11345 H 1051.52 1.075 1.48715 0
M  V30 11346 H 1049.9 0.177752 3.95601 0
M  V30 11347 H 1051.07 2.99981 3.49783 0
M  V30 11348 H 1049.39 2.58873 3.2615 0
M  V30 11349 H 1051.98 0.697935 5.30125 0
M  V30 11350 H 1052.33 -0.548327 4.12673 0
M  V30 11351 H 1052.86 1.12189 3.81652 0
M  V30 11352 H 1049.6 3.63005 5.45809 0
M  V30 11353 H 1049.12 1.9317 5.67843 0
M  V30 11354 H 1050.8 2.43527 5.99419 0
M  V30 11355 N 1050.93 -1.4397 0.641131 0
M  V30 11356 C 1051.88 -2.32495 -0.0698668 0
M  V30 11357 C 1052.87 -1.47922 -0.825555 0
M  V30 11358 O 1054.08 -1.64206 -0.737323 0
M  V30 11359 H 1050.45 -0.750861 -0.0413706 0
M  V30 11360 H 1052.42 -2.90201 0.694682 0
M  V30 11361 C 1051.17 -3.32063 -1.03098 0
M  V30 11362 H 1050.5 -3.97157 -0.458923 0
M  V30 11363 H 1051.94 -3.96664 -1.49778 0
M  V30 11364 C 1050.39 -2.61743 -2.12113 0
M  V30 11365 O 1050.92 -2.42385 -3.20332 0
M  V30 11366 N 1049.13 -2.21316 -1.88328 0
M  V30 11367 H 1048.68 -2.37261 -1.00324 0
M  V30 11368 H 1048.64 -1.74594 -2.61465 0
M  V30 11369 N 1052.41 -0.382291 -1.52893 0
M  V30 11370 C 1053.64 0.202408 -2.05908 0
M  V30 11371 C 1054.05 1.4109 -1.25456 0
M  V30 11372 O 1053.41 1.80027 -0.29942 0
M  V30 11373 C 1053.46 0.579452 -3.56826 0
M  V30 11374 O 1053.18 -0.58102 -4.3423 0
M  V30 11375 C 1054.68 1.22076 -4.2616 0
M  V30 11376 H 1051.9 0.0321859 -0.670228 0
M  V30 11377 H 1054.44 -0.545494 -1.9709 0
M  V30 11378 H 1052.6 1.27726 -3.65739 0
M  V30 11379 H 1053.01 -0.272693 -5.23791 0
M  V30 11380 H 1054.49 1.435 -5.33021 0
M  V30 11381 H 1054.96 2.18605 -3.80931 0
M  V30 11382 H 1055.57 0.563922 -4.21545 0
M  V30 11383 N 1053.89 1.57202 -0.111913 0
M  V30 11384 C 1054.82 2.11995 0.871242 0
M  V30 11385 C 1055.83 1.06102 1.23475 0
M  V30 11386 O 1057.02 1.33497 1.18494 0
M  V30 11387 C 1054.12 2.59874 2.17528 0
M  V30 11388 C 1053.29 3.89788 1.98455 0
M  V30 11389 C 1052.35 4.23339 3.12523 0
M  V30 11390 O 1051.38 4.92277 2.85748 0
M  V30 11391 N 1052.58 3.80089 4.38762 0
M  V30 11392 H 1055.34 2.96976 0.403157 0
M  V30 11393 H 1052.91 1.61737 0.0727159 0
M  V30 11394 H 1054.9 2.79354 2.9282 0
M  V30 11395 H 1053.47 1.79812 2.55707 0
M  V30 11396 H 1052.69 3.79288 1.07396 0
M  V30 11397 H 1053.98 4.74748 1.83007 0
M  V30 11398 H 1053.37 3.24473 4.63394 0
M  V30 11399 H 1051.93 4.04691 5.10949 0
M  V30 11400 N 1055.36 -0.161842 1.56767 0
M  V30 11401 C 1056.61 -0.876925 1.82527 0
M  V30 11402 C 1056.94 -1.81831 0.690492 0
M  V30 11403 O 1056.19 -1.9304 -0.32159 0
M  V30 11404 C 1056.49 -1.69736 3.14522 0
M  V30 11405 C 1056.16 -0.904075 4.41743 0
M  V30 11406 C 1054.82 -0.685168 4.76297 0
M  V30 11407 C 1057.17 -0.348282 5.20035 0
M  V30 11408 C 1054.5 0.10048 5.86614 0
M  V30 11409 C 1056.85 0.424327 6.31175 0
M  V30 11410 C 1055.52 0.653948 6.64289 0
M  V30 11411 H 1054.79 -0.320889 0.667915 0
M  V30 11412 H 1057.43 -0.141338 1.90978 0
M  V30 11413 H 1055.74 -2.50262 3.01456 0
M  V30 11414 H 1057.44 -2.25386 3.31666 0
M  V30 11415 H 1054.03 -1.08474 4.14646 0
M  V30 11416 H 1058.21 -0.504721 4.93727 0
M  V30 11417 H 1053.47 0.288029 6.10721 0
M  V30 11418 H 1057.64 0.862203 6.91042 0
M  V30 11419 H 1055.27 1.26459 7.49608 0
M  V30 11420 N 1056.84 -1.516 -0.430713 0
M  V30 11421 C 1057.79 -1.73975 -1.54387 0
M  V30 11422 C 1058.78 -0.606222 -1.58181 0
M  V30 11423 O 1059.99 -0.787764 -1.61846 0
M  V30 11424 H 1056.36 -0.549811 -0.513041 0
M  V30 11425 H 1058.34 -2.67274 -1.32692 0
M  V30 11426 C 1057.08 -1.88794 -2.9198 0
M  V30 11427 H 1056.41 -2.75425 -2.89795 0
M  V30 11428 H 1057.85 -2.08458 -3.69217 0
M  V30 11429 C 1056.31 -0.649427 -3.30581 0
M  V30 11430 O 1056.84 0.192823 -4.01237 0
M  V30 11431 N 1055.04 -0.491586 -2.86412 0
M  V30 11432 H 1054.59 -1.17806 -2.29084 0
M  V30 11433 H 1054.55 0.33583 -3.12601 0
M  V30 11434 N 1058.32 0.686584 -1.41858 0
M  V30 11435 C 1059.27 1.80038 -1.44413 0
M  V30 11436 C 1060.24 1.63415 -0.297427 0
M  V30 11437 O 1061.42 1.84138 -0.499789 0
M  V30 11438 C 1058.56 3.17988 -1.34082 0
M  V30 11439 C 1057.67 3.45979 -2.58693 0
M  V30 11440 C 1056.81 4.73592 -2.4059 0
M  V30 11441 C 1055.85 4.94581 -3.60633 0
M  V30 11442 N 1054.99 6.13426 -3.41545 0
M  V30 11443 H 1059.83 1.77189 -2.396 0
M  V30 11444 H 1057.36 0.865158 -1.18968 0
M  V30 11445 H 1059.32 3.97689 -1.26092 0
M  V30 11446 H 1057.95 3.1999 -0.424975 0
M  V30 11447 H 1057 2.60617 -2.77097 0
M  V30 11448 H 1058.31 3.57386 -3.47961 0
M  V30 11449 H 1057.47 5.61364 -2.30119 0
M  V30 11450 H 1056.21 4.64448 -1.48794 0
M  V30 11451 H 1055.21 4.05254 -3.71549 0
M  V30 11452 H 1056.44 5.05578 -4.53395 0
M  V30 11453 H 1054.38 6.05477 -2.52456 0
M  V30 11454 H 1054.3 6.25641 -4.24393 0
M  V30 11455 H 1055.57 7.03908 -3.34864 0
M  V30 11456 N 1059.8 1.27835 0.921735 0
M  V30 11457 C 1061.21 1.05369 1.19873 0
M  V30 11458 C 1061.41 -0.208997 2.00413 0
M  V30 11459 O 1060.47 -0.912861 2.35421 0
M  V30 11460 C 1061.78 2.29658 1.94108 0
M  V30 11461 C 1063.33 2.34756 2.07023 0
M  V30 11462 C 1063.81 3.5879 2.84664 0
M  V30 11463 N 1065.3 3.59383 2.9223 0
M  V30 11464 C 1066.03 4.52029 3.52785 0
M  V30 11465 N 1065.53 5.54986 4.14683 0
M  V30 11466 N 1067.32 4.39641 3.50246 0
M  V30 11467 H 1059.47 2.08903 0.383819 0
M  V30 11468 H 1061.73 0.919065 0.232429 0
M  V30 11469 H 1061.44 3.21604 1.4235 0
M  V30 11470 H 1061.31 2.35444 2.94696 0
M  V30 11471 H 1063.7 1.43312 2.57965 0
M  V30 11472 H 1063.78 2.32969 1.05636 0
M  V30 11473 H 1063.43 4.50574 2.34404 0
M  V30 11474 H 1063.36 3.57829 3.86349 0
M  V30 11475 H 1065.85 2.84927 2.48244 0
M  V30 11476 H 1066.16 6.21837 4.58845 0
M  V30 11477 H 1064.51 5.58822 4.13211 0
M  V30 11478 H 1067.7 3.58413 3.01094 0
M  V30 11479 H 1067.87 5.12033 3.97148 0
M  V30 11480 N 1061.28 -1.12907 1.09954 0
M  V30 11481 C 1062.22 -2.18485 0.743848 0
M  V30 11482 C 1063.19 -1.63766 -0.277494 0
M  V30 11483 O 1064.38 -1.90146 -0.157899 0
M  V30 11484 C 1061.52 -3.44649 0.176437 0
M  V30 11485 C 1060.63 -4.13445 1.25248 0
M  V30 11486 C 1059.77 -5.27242 0.647242 0
M  V30 11487 C 1058.8 -5.87897 1.70421 0
M  V30 11488 N 1057.94 -6.93116 1.1196 0
M  V30 11489 H 1062.78 -2.48257 1.64841 0
M  V30 11490 H 1060.32 -1.21891 0.823471 0
M  V30 11491 H 1062.28 -4.16852 -0.170384 0
M  V30 11492 H 1060.91 -3.15309 -0.69137 0
M  V30 11493 H 1059.96 -3.39471 1.7165 0
M  V30 11494 H 1061.27 -4.54601 2.05279 0
M  V30 11495 H 1060.42 -6.06186 0.249579 0
M  V30 11496 H 1059.16 -4.87351 -0.184556 0
M  V30 11497 H 1058.17 -5.07643 2.11136 0
M  V30 11498 H 1059.39 -6.2986 2.53877 0
M  V30 11499 H 1057.34 -6.55271 0.309181 0
M  V30 11500 H 1057.26 -7.32843 1.85681 0
M  V30 11501 H 1058.52 -7.759 0.748326 0
M  V30 11502 N 1062.75 -0.88754 -1.30232 0
M  V30 11503 C 1063.66 -0.360333 -2.31816 0
M  V30 11504 C 1064.68 0.538741 -1.6545 0
M  V30 11505 O 1065.86 0.431246 -1.96729 0
M  V30 11506 C 1062.92 0.414336 -3.44215 0
M  V30 11507 C 1061.98 -0.514799 -4.26202 0
M  V30 11508 C 1061.21 0.222994 -5.33234 0
M  V30 11509 O 1061.44 1.44871 -5.51696 0
M  V30 11510 O 1060.37 -0.428221 -6.00375 0
M  V30 11511 H 1064.2 -1.20279 -2.78867 0
M  V30 11512 H 1061.78 -0.651459 -1.34448 0
M  V30 11513 H 1063.66 0.852859 -4.12679 0
M  V30 11514 H 1062.34 1.23305 -2.99295 0
M  V30 11515 H 1061.25 -1.00219 -3.60426 0
M  V30 11516 H 1062.58 -1.29959 -4.74733 0
M  V30 11517 N 1064.23 1.43628 -0.648757 0
M  V30 11518 C 1065.16 2.29045 0.0841858 0
M  V30 11519 C 1066.18 1.42262 0.791537 0
M  V30 11520 O 1067.37 1.66243 0.650039 0
M  V30 11521 C 1064.47 3.19075 1.14212 0
M  V30 11522 C 1063.64 4.34372 0.513799 0
M  V30 11523 C 1062.7 5.05307 1.46803 0
M  V30 11524 O 1061.72 5.60729 0.978346 0
M  V30 11525 N 1062.93 5.08393 2.80209 0
M  V30 11526 H 1065.69 2.9259 -0.648948 0
M  V30 11527 H 1063.25 1.54268 -0.491209 0
M  V30 11528 H 1065.24 3.63395 1.78119 0
M  V30 11529 H 1063.81 2.57161 1.77728 0
M  V30 11530 H 1063.03 3.93024 -0.304262 0
M  V30 11531 H 1064.32 5.08745 0.0749871 0
M  V30 11532 H 1063.72 4.64729 3.22557 0
M  V30 11533 H 1062.28 5.56445 3.3943 0
M  V30 11534 N 1065.71 0.390394 1.52688 0
M  V30 11535 C 1066.64 -0.48838 2.22913 0
M  V30 11536 C 1067.62 -1.06319 1.23025 0
M  V30 11537 O 1068.81 -1.11462 1.52015 0
M  V30 11538 C 1065.93 -1.67612 2.9432 0
M  V30 11539 C 1064.98 -1.22646 4.08485 0
M  V30 11540 S 1065.81 -0.207092 5.35099 0
M  V30 11541 C 1066.97 -1.40058 6.10028 0
M  V30 11542 H 1067.2 0.107949 2.97104 0
M  V30 11543 H 1064.73 0.174588 1.5341 0
M  V30 11544 H 1066.69 -2.35728 3.36069 0
M  V30 11545 H 1065.35 -2.24375 2.19806 0
M  V30 11546 H 1064.55 -2.11331 4.57554 0
M  V30 11547 H 1064.15 -0.624197 3.68754 0
M  V30 11548 H 1066.44 -2.32747 6.36266 0
M  V30 11549 H 1067.38 -0.950804 7.01687 0
M  V30 11550 H 1067.79 -1.61789 5.40818 0
M  V30 11551 N 1067.19 -1.57141 0.120249 0
M  V30 11552 C 1068.42 -1.993 -0.544346 0
M  V30 11553 C 1068.83 -0.998858 -1.60684 0
M  V30 11554 O 1068.17 0.0162197 -1.83693 0
M  V30 11555 C 1068.23 -3.37874 -1.22808 0
M  V30 11556 C 1067.9 -4.55924 -0.313374 0
M  V30 11557 C 1068.89 -5.17962 0.448501 0
M  V30 11558 C 1066.58 -5.018 -0.224082 0
M  V30 11559 C 1068.57 -6.24264 1.28739 0
M  V30 11560 C 1066.26 -6.07963 0.618437 0
M  V30 11561 C 1067.26 -6.69061 1.3728 0
M  V30 11562 O 1066.94 -7.73173 2.20133 0
M  V30 11563 H 1066.68 -0.659466 -0.148596 0
M  V30 11564 H 1069.23 -2.04387 0.203779 0
M  V30 11565 H 1067.46 -3.29545 -2.02329 0
M  V30 11566 H 1069.15 -3.64314 -1.7897 0
M  V30 11567 H 1069.92 -4.83434 0.389395 0
M  V30 11568 H 1065.79 -4.53989 -0.80094 0
M  V30 11569 H 1069.34 -6.71883 1.87667 0
M  V30 11570 H 1065.24 -6.4192 0.678932 0
M  V30 11571 H 1066 -7.90276 2.13088 0
M  V30 11572 N 1068.67 0.153526 -1.5685 0
M  V30 11573 C 1069.6 1.2147 -1.94365 0
M  V30 11574 C 1070.61 1.39532 -0.838726 0
M  V30 11575 O 1071.8 1.39219 -1.11715 0
M  V30 11576 C 1068.9 2.5806 -2.19677 0
M  V30 11577 C 1068.07 2.61062 -3.50949 0
M  V30 11578 C 1067.13 3.79144 -3.64878 0
M  V30 11579 O 1066.16 3.64319 -4.37333 0
M  V30 11580 N 1067.36 4.96333 -3.01054 0
M  V30 11581 H 1070.13 0.895889 -2.85996 0
M  V30 11582 H 1067.69 0.343147 -1.58222 0
M  V30 11583 H 1069.68 3.35553 -2.26243 0
M  V30 11584 H 1068.25 2.8226 -1.34343 0
M  V30 11585 H 1067.47 1.69533 -3.55882 0
M  V30 11586 H 1068.76 2.60094 -4.37297 0
M  V30 11587 H 1068.15 5.1128 -2.42093 0
M  V30 11588 H 1066.71 5.71625 -3.13191 0
M  V30 11589 N 1070.14 1.51827 0.422667 0
M  V30 11590 C 1071.11 1.7359 1.49663 0
M  V30 11591 C 1072.11 0.605811 1.48952 0
M  V30 11592 O 1073.3 0.87354 1.50715 0
M  V30 11593 C 1070.43 1.80585 2.8914 0
M  V30 11594 H 1071.62 2.69453 1.31664 0
M  V30 11595 H 1069.18 1.42038 0.652298 0
M  V30 11596 H 1069.91 0.865895 3.12526 0
M  V30 11597 H 1069.7 2.62729 2.9106 0
M  V30 11598 H 1071.19 1.99212 3.67021 0
M  V30 11599 N 1071.62 -0.679052 1.4222 0
M  V30 11600 C 1072.55 -1.80481 1.48152 0
M  V30 11601 C 1073.53 -1.66698 0.338502 0
M  V30 11602 O 1074.72 -1.86183 0.552228 0
M  V30 11603 C 1071.85 -3.18746 1.37908 0
M  V30 11604 C 1070.8 -3.47258 2.50192 0
M  V30 11605 C 1070.13 -4.85052 2.25008 0
M  V30 11606 C 1071.43 -3.44576 3.92511 0
M  V30 11607 H 1073.12 -1.75774 2.42371 0
M  V30 11608 H 1070.67 -0.844241 1.16656 0
M  V30 11609 H 1072.62 -3.97229 1.40666 0
M  V30 11610 H 1071.35 -3.24119 0.401806 0
M  V30 11611 H 1070 -2.71133 2.46744 0
M  V30 11612 H 1069.65 -4.8707 1.25584 0
M  V30 11613 H 1069.35 -5.05092 3.00259 0
M  V30 11614 H 1070.88 -5.65825 2.29508 0
M  V30 11615 H 1072.29 -4.13036 3.97585 0
M  V30 11616 H 1070.69 -3.76151 4.67579 0
M  V30 11617 H 1071.76 -2.4323 4.19484 0
M  V30 11618 N 1073.1 -1.28322 -0.914942 0
M  V30 11619 C 1074.03 -1.07947 -2.02188 0
M  V30 11620 C 1075.05 -0.0315743 -1.62769 0
M  V30 11621 O 1076.23 -0.274503 -1.76377 0
M  V30 11622 C 1073.33 -0.61805 -3.33217 0
M  V30 11623 C 1072.51 -1.74109 -4.01254 0
M  V30 11624 C 1071.57 -1.27325 -5.10563 0
M  V30 11625 O 1070.59 -1.97526 -5.33828 0
M  V30 11626 N 1071.79 -0.1358 -5.80341 0
M  V30 11627 H 1074.56 -2.03275 -2.20225 0
M  V30 11628 H 1072.12 -1.20059 -1.08616 0
M  V30 11629 H 1074.11 -0.288693 -4.03669 0
M  V30 11630 H 1072.68 0.242348 -3.11659 0
M  V30 11631 H 1071.9 -2.2401 -3.24366 0
M  V30 11632 H 1073.19 -2.49448 -4.43456 0
M  V30 11633 H 1072.59 0.449846 -5.63909 0
M  V30 11634 H 1071.15 0.134289 -6.51662 0
M  V30 11635 N 1074.58 1.12322 -1.10551 0
M  V30 11636 C 1075.53 2.20166 -0.750317 0
M  V30 11637 C 1076.52 1.67484 0.254066 0
M  V30 11638 O 1077.73 1.79637 0.114309 0
M  V30 11639 H 1074.1 0.717642 -0.22471 0
M  V30 11640 H 1076.07 2.47378 -1.66873 0
M  V30 11641 C 1074.82 3.47126 -0.199651 0
M  V30 11642 H 1074.14 3.88011 -0.963735 0
M  V30 11643 H 1075.58 4.23999 0.0108033 0
M  V30 11644 C 1074.04 3.19526 1.06792 0
M  V30 11645 O 1074.57 3.39368 2.14923 0
M  V30 11646 N 1072.78 2.73324 0.987032 0
M  V30 11647 H 1072.33 2.57378 0.106997 0
M  V30 11648 H 1072.28 2.55234 1.83584 0
M  V30 11649 N 1076.06 0.894434 1.2976 0
M  V30 11650 C 1076.99 0.325525 2.26877 0
M  V30 11651 C 1078 -0.525218 1.54095 0
M  V30 11652 O 1079.19 -0.343231 1.75169 0
M  V30 11653 C 1076.29 -0.554952 3.34325 0
M  V30 11654 C 1075.46 0.268868 4.36573 0
M  V30 11655 C 1074.52 -0.543601 5.23385 0
M  V30 11656 O 1073.55 0.0370454 5.69188 0
M  V30 11657 N 1074.75 -1.85079 5.50205 0
M  V30 11658 H 1077.52 1.16021 2.76332 0
M  V30 11659 H 1075.08 0.758382 1.43039 0
M  V30 11660 H 1077.07 -1.10476 3.89329 0
M  V30 11661 H 1075.64 -1.29031 2.84727 0
M  V30 11662 H 1074.86 1.0001 3.81302 0
M  V30 11663 H 1076.15 0.833248 5.01931 0
M  V30 11664 H 1075.54 -2.34533 5.14792 0
M  V30 11665 H 1074.1 -2.34784 6.08046 0
M  V30 11666 N 1077.53 -1.43282 0.656365 0
M  V30 11667 C 1078.78 -2.02075 0.171293 0
M  V30 11668 C 1079.11 -1.51682 -1.21269 0
M  V30 11669 O 1078.39 -0.711243 -1.81029 0
M  V30 11670 C 1078.67 -3.59621 0.185602 0
M  V30 11671 C 1078.52 -4.20239 1.60373 0
M  V30 11672 C 1079.84 -4.37515 -0.476289 0
M  V30 11673 H 1076.96 -0.73424 0.0637185 0
M  V30 11674 H 1079.6 -1.70539 0.837648 0
M  V30 11675 H 1077.75 -3.86619 -0.381804 0
M  V30 11676 H 1079.43 -4.0426 2.22197 0
M  V30 11677 H 1077.67 -3.76769 2.15006 0
M  V30 11678 H 1078.34 -5.29333 1.56557 0
M  V30 11679 H 1080.82 -4.16099 0.00651073 0
M  V30 11680 H 1079.69 -5.47169 -0.435562 0
M  V30 11681 H 1079.95 -4.14003 -1.55093 0
M  V30 11682 N 1079.01 -0.398486 -1.52479 0
M  V30 11683 C 1080.29 0.238776 -1.94137 0
M  V30 11684 C 1080.67 1.63558 -1.33462 0
M  V30 11685 O 1080.02 2.22821 -0.506272 0
M  V30 11686 C 1080.23 0.255863 -3.48061 0
M  V30 11687 C 1081.58 0.480376 -4.21874 0
M  V30 11688 O 1082.6 0.335679 -3.54615 0
M  V30 11689 O 1081.46 0.764654 -5.41124 0
M  V30 11690 H 1078.55 0.150806 -0.813134 0
M  V30 11691 H 1081.1 -0.453659 -1.63524 0
M  V30 11692 H 1079.87 -0.722171 -3.84578 0
M  V30 11693 H 1079.49 0.99284 -3.85004 0
M  V30 11694 N 1080.49 1.57075 -0.12858 0
M  V30 11695 C 1081.45 2.14643 0.803813 0
M  V30 11696 C 1082.45 1.08363 1.18803 0
M  V30 11697 O 1083.64 1.34093 1.11197 0
M  V30 11698 C 1080.78 2.6945 2.08829 0
M  V30 11699 H 1081.97 2.98362 0.303347 0
M  V30 11700 H 1079.52 1.55833 0.120735 0
M  V30 11701 H 1080.26 1.89345 2.63285 0
M  V30 11702 H 1080.04 3.47187 1.82218 0
M  V30 11703 H 1081.53 3.13865 2.7546 0
M  V30 11704 N 1081.97 -0.145205 1.5693 0
M  V30 11705 C 1083.22 -0.855955 1.82637 0
M  V30 11706 C 1083.53 -1.82255 0.710109 0
M  V30 11707 O 1084.74 -2.57758 0.852837 0
M  V30 11708 C 1083.19 -1.57278 3.23715 0
M  V30 11709 C 1082.8 -0.648507 4.43281 0
M  V30 11710 C 1084.55 -2.27021 3.58695 0
M  V30 11711 C 1082.45 -1.36706 5.75383 0
M  V30 11712 H 1081.38 -0.323385 0.68113 0
M  V30 11713 H 1084.03 -0.10869 1.83178 0
M  V30 11714 H 1082.42 -2.36574 3.17567 0
M  V30 11715 H 1083.59 0.109355 4.6067 0
M  V30 11716 H 1081.9 -0.0594029 4.16358 0
M  V30 11717 H 1084.5 -2.81423 4.54648 0
M  V30 11718 H 1084.84 -3.03598 2.8484 0
M  V30 11719 H 1085.38 -1.54642 3.66512 0
M  V30 11720 H 1082.12 -0.6431 6.52338 0
M  V30 11721 H 1081.64 -2.09759 5.61926 0
M  V30 11722 H 1083.32 -1.90748 6.18243 0
M  V30 11723 N 1083.45 -1.52049 -0.414609 0
M  V30 11724 C 1084.39 -1.74998 -1.5048 0
M  V30 11725 C 1085.36 -0.592251 -1.55182 0
M  V30 11726 O 1086.55 -0.829203 -1.7184 0
M  V30 11727 C 1083.69 -1.90157 -2.87983 0
M  V30 11728 C 1082.8 -3.17789 -2.92633 0
M  V30 11729 C 1081.94 -3.23411 -4.21401 0
M  V30 11730 C 1080.98 -4.45267 -4.20004 0
M  V30 11731 N 1080.11 -4.48312 -5.40334 0
M  V30 11732 H 1084.95 -2.68046 -1.30212 0
M  V30 11733 H 1082.49 -1.32824 -0.632154 0
M  V30 11734 H 1084.45 -1.96929 -3.67797 0
M  V30 11735 H 1083.08 -1.00496 -3.06758 0
M  V30 11736 H 1082.13 -3.20216 -2.05343 0
M  V30 11737 H 1083.44 -4.07634 -2.87465 0
M  V30 11738 H 1082.6 -3.29224 -5.09604 0
M  V30 11739 H 1081.34 -2.31495 -4.29257 0
M  V30 11740 H 1080.34 -4.39606 -3.30192 0
M  V30 11741 H 1081.57 -5.38472 -4.13793 0
M  V30 11742 H 1079.51 -3.59277 -5.48868 0
M  V30 11743 H 1079.43 -5.31994 -5.37139 0
M  V30 11744 H 1080.7 -4.58347 -6.30506 0
M  V30 11745 N 1084.93 0.6715 -1.42579 0
M  V30 11746 C 1086.15 1.45972 -1.46628 0
M  V30 11747 C 1086.57 1.88636 -0.0785986 0
M  V30 11748 O 1085.93 1.58345 0.907372 0
M  V30 11749 C 1085.98 2.70668 -2.39627 0
M  V30 11750 O 1085.7 2.29793 -3.72997 0
M  V30 11751 C 1087.2 3.64201 -2.52731 0
M  V30 11752 H 1084.42 0.449044 -0.498598 0
M  V30 11753 H 1086.96 0.824811 -1.87129 0
M  V30 11754 H 1085.12 3.3034 -2.02371 0
M  V30 11755 H 1085.53 3.10341 -4.22834 0
M  V30 11756 H 1087.01 4.48412 -3.21918 0
M  V30 11757 H 1087.48 4.10323 -1.56626 0
M  V30 11758 H 1088.09 3.1042 -2.90722 0
M  V30 11759 N 1086.4 1.28806 0.908124 0
M  V30 11760 C 1087.37 1.13228 1.99279 0
M  V30 11761 C 1088.37 0.0702456 1.60646 0
M  V30 11762 O 1089.56 0.316494 1.71301 0
M  V30 11763 C 1086.69 0.729629 3.33 0
M  V30 11764 H 1087.88 2.09566 2.14528 0
M  V30 11765 H 1085.43 1.11872 1.09153 0
M  V30 11766 H 1086.17 -0.234268 3.23453 0
M  V30 11767 H 1085.95 1.49688 3.62403 0
M  V30 11768 H 1087.44 0.643449 4.12613 0
M  V30 11769 N 1087.88 -1.11734 1.11145 0
M  V30 11770 C 1089.13 -1.82766 0.853194 0
M  V30 11771 C 1089.44 -1.85408 -0.623168 0
M  V30 11772 O 1090.65 -2.52509 -0.997574 0
M  V30 11773 C 1089.11 -3.28215 1.47658 0
M  V30 11774 C 1088.71 -3.33911 2.98676 0
M  V30 11775 C 1090.46 -4.04168 1.29803 0
M  V30 11776 C 1088.36 -4.73739 3.54013 0
M  V30 11777 H 1087.29 -0.684807 0.315523 0
M  V30 11778 H 1089.95 -1.25756 1.33633 0
M  V30 11779 H 1088.33 -3.85138 0.921116 0
M  V30 11780 H 1089.5 -2.86887 3.606 0
M  V30 11781 H 1087.82 -2.71437 3.15771 0
M  V30 11782 H 1090.41 -5.07429 1.68582 0
M  V30 11783 H 1090.76 -4.15606 0.240302 0
M  V30 11784 H 1091.29 -3.53623 1.82196 0
M  V30 11785 H 1088.03 -4.67497 4.59485 0
M  V30 11786 H 1087.55 -5.21186 2.9686 0
M  V30 11787 H 1089.23 -5.42691 3.52271 0
M  V30 11788 N 1089.36 -0.901303 -1.29284 0
M  V30 11789 C 1090.27 -0.3849 -2.31421 0
M  V30 11790 C 1091.29 0.521163 -1.66012 0
M  V30 11791 O 1092.46 0.410356 -1.97175 0
M  V30 11792 C 1089.53 0.377804 -3.44635 0
M  V30 11793 C 1088.59 -0.559974 -4.25632 0
M  V30 11794 C 1087.82 0.166425 -5.3344 0
M  V30 11795 O 1088.04 1.39012 -5.53202 0
M  V30 11796 O 1086.98 -0.491875 -5.99887 0
M  V30 11797 H 1090.8 -1.2323 -2.77575 0
M  V30 11798 H 1088.39 -0.665683 -1.3375 0
M  V30 11799 H 1090.27 0.809041 -4.13561 0
M  V30 11800 H 1088.95 1.20124 -3.00586 0
M  V30 11801 H 1087.85 -1.04036 -3.59343 0
M  V30 11802 H 1089.19 -1.34987 -4.73328 0
M  V30 11803 N 1090.84 1.42931 -0.663954 0
M  V30 11804 C 1092.07 2.05729 -0.189532 0
M  V30 11805 C 1092.48 1.49914 1.15423 0
M  V30 11806 O 1091.82 0.629324 1.72584 0
M  V30 11807 C 1091.88 3.59482 -0.0354748 0
M  V30 11808 C 1091.54 4.37935 -1.30622 0
M  V30 11809 C 1092.54 4.69297 -2.23733 0
M  V30 11810 C 1090.23 4.77761 -1.5508 0
M  V30 11811 C 1092.22 5.39407 -3.39586 0
M  V30 11812 C 1089.91 5.47613 -2.71224 0
M  V30 11813 C 1090.91 5.7836 -3.63302 0
M  V30 11814 O 1090.59 6.46783 -4.77417 0
M  V30 11815 H 1090.33 0.669678 -0.0922342 0
M  V30 11816 H 1092.88 1.84243 -0.907943 0
M  V30 11817 H 1091.11 3.79584 0.738412 0
M  V30 11818 H 1092.8 4.03947 0.397679 0
M  V30 11819 H 1093.56 4.39038 -2.06084 0
M  V30 11820 H 1089.44 4.53229 -0.842863 0
M  V30 11821 H 1092.99 5.63323 -4.11476 0
M  V30 11822 H 1088.88 5.77289 -2.88804 0
M  V30 11823 H 1089.65 6.6527 -4.76821 0
M  V30 11824 N 1092.32 0.406567 1.52266 0
M  V30 11825 C 1093.26 -0.420182 2.26943 0
M  V30 11826 C 1094.23 -1.04323 1.29251 0
M  V30 11827 O 1095.42 -1.06799 1.5811 0
M  V30 11828 C 1092.56 -1.5323 3.09216 0
M  V30 11829 C 1091.67 -0.930419 4.21862 0
M  V30 11830 C 1090.81 -2.01502 4.91498 0
M  V30 11831 C 1089.84 -1.38994 5.9611 0
M  V30 11832 N 1088.98 -2.41458 6.59274 0
M  V30 11833 H 1093.82 0.223066 2.97164 0
M  V30 11834 H 1091.36 0.121842 1.46595 0
M  V30 11835 H 1093.32 -2.18803 3.5522 0
M  V30 11836 H 1091.95 -2.14561 2.41171 0
M  V30 11837 H 1091 -0.163809 3.80047 0
M  V30 11838 H 1092.31 -0.433785 4.9691 0
M  V30 11839 H 1091.46 -2.74807 5.40894 0
M  V30 11840 H 1090.2 -2.5453 4.16012 0
M  V30 11841 H 1089.21 -0.642213 5.46036 0
M  V30 11842 H 1090.43 -0.867386 6.73538 0
M  V30 11843 H 1088.38 -2.93623 5.86619 0
M  V30 11844 H 1088.3 -1.96599 7.2999 0
M  V30 11845 H 1089.56 -3.14341 7.13309 0
M  V30 11846 N 1093.79 -1.57004 0.136909 0
M  V30 11847 C 1095.02 -1.99866 -0.523177 0
M  V30 11848 C 1095.43 -1.01584 -1.59616 0
M  V30 11849 O 1094.78 -0.00326426 -1.837 0
M  V30 11850 C 1094.84 -3.39157 -1.19217 0
M  V30 11851 C 1094.5 -4.56231 -0.265 0
M  V30 11852 C 1095.5 -5.17457 0.503412 0
M  V30 11853 C 1093.18 -5.02009 -0.170846 0
M  V30 11854 C 1095.18 -6.22863 1.35353 0
M  V30 11855 C 1092.86 -6.07273 0.682884 0
M  V30 11856 C 1093.86 -6.67568 1.44369 0
M  V30 11857 O 1093.55 -7.70795 2.28321 0
M  V30 11858 H 1093.28 -0.661005 -0.141593 0
M  V30 11859 H 1095.84 -2.04159 0.225445 0
M  V30 11860 H 1094.07 -3.31672 -1.98823 0
M  V30 11861 H 1095.76 -3.66191 -1.75096 0
M  V30 11862 H 1096.52 -4.82994 0.440648 0
M  V30 11863 H 1092.4 -4.54813 -0.752744 0
M  V30 11864 H 1095.94 -6.69855 1.94783 0
M  V30 11865 H 1091.84 -6.41163 0.746978 0
M  V30 11866 H 1092.61 -7.87971 2.21458 0
M  V30 11867 N 1095.27 0.136881 -1.57004 0
M  V30 11868 C 1096.22 1.18782 -1.99984 0
M  V30 11869 C 1097.21 1.43899 -0.893841 0
M  V30 11870 O 1098.42 1.44072 -1.07904 0
M  V30 11871 H 1094.8 0.400065 -0.636751 0
M  V30 11872 H 1096.77 0.798696 -2.87512 0
M  V30 11873 C 1095.52 2.51105 -2.40502 0
M  V30 11874 H 1094.84 2.32611 -3.25165 0
M  V30 11875 H 1096.28 3.23244 -2.74389 0
M  V30 11876 C 1094.74 3.12386 -1.26161 0
M  V30 11877 O 1095.27 3.97666 -0.567836 0
M  V30 11878 N 1093.47 2.71989 -1.02326 0
M  V30 11879 H 1093.02 2.02736 -1.58921 0
M  V30 11880 H 1092.98 3.13322 -0.26013 0
M  V30 11881 N 1096.75 1.52266 0.40654 0
M  V30 11882 C 1097.7 1.76409 1.516 0
M  V30 11883 C 1098.69 0.631311 1.57197 0
M  V30 11884 O 1099.9 0.813413 1.60573 0
M  V30 11885 H 1096.27 0.557904 0.50423 0
M  V30 11886 H 1098.24 2.69351 1.28424 0
M  V30 11887 C 1096.99 1.93415 2.88939 0
M  V30 11888 H 1096.32 2.8 2.85377 0
M  V30 11889 H 1097.76 2.14306 3.65854 0
M  V30 11890 C 1096.22 0.701938 3.29506 0
M  V30 11891 O 1096.75 -0.128965 4.01493 0
M  V30 11892 N 1094.95 0.537089 2.85594 0
M  V30 11893 H 1094.5 1.21435 2.27181 0
M  V30 11894 H 1094.46 -0.286055 3.13096 0
M  V30 11895 N 1098.23 -0.663929 1.42933 0
M  V30 11896 C 1099.46 -1.44981 1.47187 0
M  V30 11897 C 1099.87 -1.89009 0.0850091 0
M  V30 11898 O 1099.21 -1.59413 -0.912855 0
M  V30 11899 C 1099.27 -2.72409 2.34592 0
M  V30 11900 C 1098.94 -2.5039 3.82301 0
M  V30 11901 C 1099.93 -2.14295 4.73681 0
M  V30 11902 C 1097.62 -2.65047 4.2668 0
M  V30 11903 C 1099.61 -1.93139 6.07434 0
M  V30 11904 C 1097.3 -2.43506 5.60489 0
M  V30 11905 C 1098.3 -2.07607 6.50683 0
M  V30 11906 O 1097.98 -1.86284 7.82019 0
M  V30 11907 H 1097.72 -0.452238 0.502451 0
M  V30 11908 H 1100.27 -0.822228 1.88225 0
M  V30 11909 H 1098.5 -3.37689 1.88422 0
M  V30 11910 H 1100.19 -3.34327 2.30174 0
M  V30 11911 H 1100.96 -2.02557 4.40676 0
M  V30 11912 H 1096.83 -2.91966 3.56759 0
M  V30 11913 H 1100.38 -1.65042 6.77796 0
M  V30 11914 H 1096.28 -2.54844 5.93064 0
M  V30 11915 H 1097.04 -2.00795 7.93488 0
M  V30 11916 N 1099.71 -1.29285 -0.901281 0
M  V30 11917 C 1100.93 -1.20048 -1.68511 0
M  V30 11918 C 1101.35 0.239128 -1.8728 0
M  V30 11919 O 1100.71 1.16027 -1.40869 0
M  V30 11920 C 1100.76 -1.90798 -3.07048 0
M  V30 11921 O 1100.48 -3.29137 -2.89138 0
M  V30 11922 C 1101.98 -1.88017 -4.01453 0
M  V30 11923 H 1099.2 -0.416157 -0.52636 0
M  V30 11924 H 1101.74 -1.7063 -1.12719 0
M  V30 11925 H 1099.9 -1.44055 -3.5962 0
M  V30 11926 H 1100.31 -3.64747 -3.76908 0
M  V30 11927 H 1101.79 -2.42088 -4.96082 0
M  V30 11928 H 1102.26 -0.855341 -4.30791 0
M  V30 11929 H 1102.87 -2.34497 -3.54812 0
M  V30 11930 N 1101.18 1.11143 -1.11736 0
M  V30 11931 C 1102.41 1.87285 -0.891007 0
M  V30 11932 C 1102.83 1.79758 0.553971 0
M  V30 11933 O 1102.19 1.16221 1.39149 0
M  V30 11934 C 1102.24 3.33924 -1.36114 0
M  V30 11935 O 1101.34 4.08917 -0.534851 0
M  V30 11936 H 1100.69 0.581418 -0.320701 0
M  V30 11937 H 1103.22 1.40469 -1.4876 0
M  V30 11938 H 1103.23 3.84772 -1.35701 0
M  V30 11939 H 1101.9 3.38719 -2.41334 0
M  V30 11940 H 1100.48 3.67954 -0.605355 0
M  V30 11941 N 1102.66 0.908147 1.28804 0
M  V30 11942 C 1103.94 0.457561 1.90173 0
M  V30 11943 C 1104.32 -1.06333 1.82364 0
M  V30 11944 O 1103.67 -1.90892 1.25589 0
M  V30 11945 C 1103.88 0.981624 3.34911 0
M  V30 11946 C 1105.23 1.03037 4.11908 0
M  V30 11947 O 1106.25 0.929878 3.43848 0
M  V30 11948 O 1105.11 1.18257 5.33552 0
M  V30 11949 H 1102.2 0.144081 0.814352 0
M  V30 11950 H 1104.75 0.998565 1.37211 0
M  V30 11951 H 1103.52 2.02561 3.34791 0
M  V30 11952 H 1103.14 0.421122 3.95364 0
M  V30 11953 N 1104.14 -1.42577 0.671525 0
M  V30 11954 C 1105.05 -2.34598 -0.00898225 0
M  V30 11955 C 1106.07 -1.54909 -0.792407 0
M  V30 11956 O 1107.24 -1.87491 -0.735477 0
M  V30 11957 C 1104.31 -3.33405 -0.950888 0
M  V30 11958 C 1103.37 -4.28993 -0.16236 0
M  V30 11959 C 1102.6 -5.2308 -1.0594 0
M  V30 11960 O 1102.82 -5.22022 -2.2989 0
M  V30 11961 O 1101.76 -5.99632 -0.521966 0
M  V30 11962 H 1105.58 -2.94321 0.748927 0
M  V30 11963 H 1103.17 -1.43025 0.43175 0
M  V30 11964 H 1105.05 -3.94115 -1.49169 0
M  V30 11965 H 1103.73 -2.7616 -1.68871 0
M  V30 11966 H 1102.63 -3.71707 0.42247 0
M  V30 11967 H 1103.97 -4.8927 0.536274 0
M  V30 11968 N 1105.62 -0.414636 -1.52048 0
M  V30 11969 C 1106.57 0.408141 -2.27163 0
M  V30 11970 C 1107.54 1.03636 -1.29803 0
M  V30 11971 O 1108.72 1.05959 -1.58674 0
M  V30 11972 C 1105.86 1.51588 -3.10024 0
M  V30 11973 C 1104.97 0.908034 -4.22349 0
M  V30 11974 C 1104.11 1.98893 -4.9256 0
M  V30 11975 C 1103.15 1.35831 -5.96839 0
M  V30 11976 N 1102.28 2.37958 -6.60545 0
M  V30 11977 H 1107.12 -0.238822 -2.97041 0
M  V30 11978 H 1104.66 -0.129614 -1.46528 0
M  V30 11979 H 1106.62 2.16916 -3.56375 0
M  V30 11980 H 1105.25 2.13279 -2.42305 0
M  V30 11981 H 1104.3 0.143652 -3.80129 0
M  V30 11982 H 1105.61 0.407426 -4.97133 0
M  V30 11983 H 1104.77 2.71935 -5.42343 0
M  V30 11984 H 1103.51 2.5232 -4.17356 0
M  V30 11985 H 1102.51 0.613246 -5.46369 0
M  V30 11986 H 1103.74 0.831655 -6.73988 0
M  V30 11987 H 1101.68 2.90508 -5.88167 0
M  V30 11988 H 1101.6 1.92725 -7.31022 0
M  V30 11989 H 1102.87 3.10553 -7.14966 0
M  V30 11990 N 1107.1 1.56929 -0.145233 0
M  V30 11991 C 1108.04 2.17958 0.812237 0
M  V30 11992 C 1109.04 1.13608 1.25657 0
M  V30 11993 O 1110.24 1.31861 1.22526 0
M  V30 11994 H 1106.62 0.697876 0.28013 0
M  V30 11995 H 1108.59 2.97146 0.273297 0
M  V30 11996 C 1107.34 2.81418 2.04203 0
M  V30 11997 H 1106.66 3.61427 1.70911 0
M  V30 11998 H 1108.1 3.27624 2.69144 0
M  V30 11999 C 1106.56 1.79835 2.84888 0
M  V30 12000 O 1107.09 1.26773 3.81171 0
M  V30 12001 N 1105.3 1.49179 2.49387 0
M  V30 12002 H 1104.84 1.9252 1.71154 0
M  V30 12003 H 1104.8 0.81458 3.03664 0
M  V30 12004 N 1108.58 -0.128553 1.57075 0
M  V30 12005 C 1109.99 -0.481794 1.52154 0
M  V30 12006 C 1110.19 -1.82381 0.856694 0
M  V30 12007 O 1109.25 -2.48725 0.434989 0
M  V30 12008 C 1110.56 -0.475091 2.96923 0
M  V30 12009 C 1112.11 -0.559315 3.07962 0
M  V30 12010 C 1112.58 -0.583095 4.54273 0
M  V30 12011 N 1114.07 -0.644803 4.5869 0
M  V30 12012 C 1114.81 -0.684493 5.693 0
M  V30 12013 N 1114.31 -0.682407 6.89431 0
M  V30 12014 N 1116.1 -0.726777 5.57382 0
M  V30 12015 H 1108.25 0.750894 1.98684 0
M  V30 12016 H 1110.51 0.27593 0.906955 0
M  V30 12017 H 1110.22 0.443157 3.48897 0
M  V30 12018 H 1110.09 -1.30637 3.53856 0
M  V30 12019 H 1112.48 -1.46798 2.55997 0
M  V30 12020 H 1112.56 0.299468 2.54041 0
M  V30 12021 H 1112.2 0.32149 5.06881 0
M  V30 12022 H 1112.13 -1.45863 5.05996 0
M  V30 12023 H 1114.63 -0.652967 3.72216 0
M  V30 12024 H 1114.94 -0.715051 7.69485 0
M  V30 12025 H 1113.28 -0.649984 6.91954 0
M  V30 12026 H 1116.47 -0.725704 4.6244 0
M  V30 12027 H 1116.65 -0.754242 6.43596 0
M  V30 12028 N 1110.05 -1.5248 -0.398459 0
M  V30 12029 C 1110.98 -1.79549 -1.49279 0
M  V30 12030 C 1111.96 -0.647004 -1.57315 0
M  V30 12031 O 1113.15 -0.893661 -1.72416 0
M  V30 12032 C 1110.28 -1.95582 -2.86993 0
M  V30 12033 C 1109.23 -3.1123 -2.93803 0
M  V30 12034 C 1108.56 -3.12501 -4.33874 0
M  V30 12035 C 1109.86 -4.50485 -2.64312 0
M  V30 12036 H 1111.55 -2.71187 -1.26877 0
M  V30 12037 H 1109.1 -1.30492 -0.608924 0
M  V30 12038 H 1111.05 -2.13102 -3.63546 0
M  V30 12039 H 1109.78 -1.00625 -3.10712 0
M  V30 12040 H 1108.44 -2.93477 -2.19697 0
M  V30 12041 H 1108.08 -2.15245 -4.54619 0
M  V30 12042 H 1107.78 -3.90183 -4.39353 0
M  V30 12043 H 1109.31 -3.32164 -5.12347 0
M  V30 12044 H 1110.72 -4.68387 -3.30585 0
M  V30 12045 H 1109.12 -5.30163 -2.81153 0
M  V30 12046 H 1110.19 -4.57848 -1.59696 0
M  V30 12047 N 1111.53 0.65634 -1.43283 0
M  V30 12048 C 1112.44 1.79847 -1.50639 0
M  V30 12049 C 1113.46 1.69487 -0.393714 0
M  V30 12050 O 1114.63 1.90712 -0.647379 0
M  V30 12051 C 1111.7 3.16107 -1.42398 0
M  V30 12052 C 1110.76 3.38287 -2.64312 0
M  V30 12053 C 1109.99 4.68046 -2.56454 0
M  V30 12054 O 1110.22 5.4719 -1.61056 0
M  V30 12055 O 1109.15 4.91877 -3.46902 0
M  V30 12056 H 1112.98 1.76596 -2.47078 0
M  V30 12057 H 1110.56 0.814428 -1.25249 0
M  V30 12058 H 1112.44 3.97382 -1.40233 0
M  V30 12059 H 1111.12 3.19956 -0.490929 0
M  V30 12060 H 1110.02 2.56788 -2.72049 0
M  V30 12061 H 1111.36 3.39282 -3.56579 0
M  V30 12062 N 1113.01 1.29761 0.894412 0
M  V30 12063 C 1114.23 1.21064 1.68399 0
M  V30 12064 C 1114.66 -0.224608 1.86754 0
M  V30 12065 O 1114.02 -1.16199 1.39167 0
M  V30 12066 C 1114.07 1.93468 3.04306 0
M  V30 12067 O 1113.17 1.25533 3.9283 0
M  V30 12068 H 1112.51 0.419223 0.514925 0
M  V30 12069 H 1115.04 1.71421 1.11696 0
M  V30 12070 H 1115.05 2.02127 3.54413 0
M  V30 12071 H 1113.73 2.97857 2.90265 0
M  V30 12072 H 1112.3 1.25168 3.51266 0
M  V30 12073 N 1114.49 -1.10549 1.12324 0
M  V30 12074 C 1115.4 -2.20428 0.803032 0
M  V30 12075 C 1116.41 -1.72756 -0.207674 0
M  V30 12076 O 1117.59 -2.01357 -0.0415623 0
M  V30 12077 C 1114.65 -3.45716 0.261032 0
M  V30 12078 C 1113.72 -4.08129 1.33152 0
M  V30 12079 C 1112.95 -5.27436 0.815288 0
M  V30 12080 O 1113.17 -5.69317 -0.351361 0
M  V30 12081 O 1112.11 -5.80674 1.58434 0
M  V30 12082 H 1115.93 -2.50249 1.72073 0
M  V30 12083 H 1113.52 -1.19263 0.899815 0
M  V30 12084 H 1115.4 -4.21384 -0.0364007 0
M  V30 12085 H 1114.07 -3.17525 -0.629249 0
M  V30 12086 H 1112.98 -3.3415 1.6821 0
M  V30 12087 H 1114.31 -4.4052 2.19552 0
M  V30 12088 N 1115.97 -0.914965 -1.28321 0
M  V30 12089 C 1117.2 -0.563835 -1.98757 0
M  V30 12090 C 1117.6 0.859528 -1.68549 0
M  V30 12091 O 1116.95 1.58105 -0.935336 0
M  V30 12092 C 1117.01 -0.694539 -3.52727 0
M  V30 12093 C 1116.67 -2.08767 -4.06528 0
M  V30 12094 C 1117.67 -3.06052 -4.20272 0
M  V30 12095 C 1115.35 -2.40118 -4.4119 0
M  V30 12096 C 1117.35 -4.32803 -4.67932 0
M  V30 12097 C 1115.04 -3.67108 -4.88544 0
M  V30 12098 C 1116.03 -4.63265 -5.01871 0
M  V30 12099 O 1115.72 -5.87997 -5.48192 0
M  V30 12100 H 1115.45 -0.213557 -0.641381 0
M  V30 12101 H 1118.01 -1.23062 -1.64453 0
M  V30 12102 H 1116.24 0.0293186 -3.86689 0
M  V30 12103 H 1117.93 -0.350335 -4.04385 0
M  V30 12104 H 1118.69 -2.8315 -3.93765 0
M  V30 12105 H 1114.57 -1.66025 -4.30066 0
M  V30 12106 H 1118.12 -5.07861 -4.78249 0
M  V30 12107 H 1114.01 -3.89834 -5.14489 0
M  V30 12108 H 1114.78 -5.90804 -5.66474 0
M  V30 12109 N 1117.44 1.42219 -0.679077 0
M  V30 12110 C 1118.39 2.32599 0.00820028 0
M  V30 12111 C 1119.39 1.50059 0.786046 0
M  V30 12112 O 1120.59 1.66103 0.693528 0
M  V30 12113 H 1116.97 0.751694 0.0214483 0
M  V30 12114 H 1118.94 2.88257 -0.77138 0
M  V30 12115 C 1117.69 3.3468 0.942581 0
M  V30 12116 H 1117.01 3.98234 0.353463 0
M  V30 12117 H 1118.45 4.00496 1.39208 0
M  V30 12118 C 1116.91 2.67275 2.05099 0
M  V30 12119 O 1117.44 2.50793 3.13793 0
M  V30 12120 N 1115.64 2.26232 1.82394 0
M  V30 12121 H 1115.19 2.39838 0.939983 0
M  V30 12122 H 1115.15 1.81465 2.56744 0
M  V30 12123 N 1118.92 0.422693 1.51826 0
M  V30 12124 C 1120.17 -0.150066 2.01141 0
M  V30 12125 C 1120.48 -1.45059 1.31214 0
M  V30 12126 O 1121.69 -2.10542 1.71419 0
M  V30 12127 C 1120.15 -0.317985 3.58492 0
M  V30 12128 C 1119.75 0.971244 4.37345 0
M  V30 12129 C 1121.5 -0.845303 4.15999 0
M  V30 12130 C 1119.4 0.769769 5.86369 0
M  V30 12131 H 1118.33 -0.0598567 0.75162 0
M  V30 12132 H 1120.99 0.550217 1.75057 0
M  V30 12133 H 1119.37 -1.08092 3.80962 0
M  V30 12134 H 1120.54 1.74138 4.26629 0
M  V30 12135 H 1118.86 1.42599 3.91222 0
M  V30 12136 H 1121.45 -1.01229 5.2503 0
M  V30 12137 H 1121.8 -1.82375 3.74226 0
M  V30 12138 H 1122.33 -0.141067 3.9755 0
M  V30 12139 H 1119.07 1.72017 6.32527 0
M  V30 12140 H 1118.59 0.0391717 5.99787 0
M  V30 12141 H 1120.27 0.417225 6.45653 0
M  V30 12142 N 1120.4 -1.5685 0.153553 0
M  V30 12143 C 1121.35 -2.18385 -0.800667 0
M  V30 12144 C 1122.34 -1.14272 -1.25053 0
M  V30 12145 O 1123.55 -1.32509 -1.21825 0
M  V30 12146 H 1119.92 -0.699352 -0.276425 0
M  V30 12147 H 1121.89 -2.97287 -0.257535 0
M  V30 12148 C 1120.64 -2.82497 -2.02708 0
M  V30 12149 H 1119.97 -3.62328 -1.68992 0
M  V30 12150 H 1121.41 -3.29047 -2.67403 0
M  V30 12151 C 1119.86 -1.81343 -2.8393 0
M  V30 12152 O 1120.39 -1.28793 -3.80493 0
M  V30 12153 N 1118.6 -1.50499 -2.48593 0
M  V30 12154 H 1118.15 -1.93425 -1.70131 0
M  V30 12155 H 1118.11 -0.830672 -3.03228 0
M  V30 12156 N 1121.88 0.120221 -1.57141 0
M  V30 12157 C 1122.83 1.16654 -2.01233 0
M  V30 12158 C 1123.82 1.42943 -0.909053 0
M  V30 12159 O 1125.03 1.4292 -1.09426 0
M  V30 12160 H 1121.4 0.393289 -0.640958 0
M  V30 12161 H 1123.37 0.768156 -2.88343 0
M  V30 12162 C 1122.12 2.4854 -2.43152 0
M  V30 12163 H 1121.44 2.29149 -3.27614 0
M  V30 12164 H 1122.88 3.20315 -2.77802 0
M  V30 12165 C 1121.34 3.1103 -1.29468 0
M  V30 12166 O 1121.87 3.97042 -0.609982 0
M  V30 12167 N 1120.08 2.70888 -1.05205 0
M  V30 12168 H 1119.63 2.01039 -1.61062 0
M  V30 12169 H 1119.58 3.13028 -0.293347 0
M  V30 12170 N 1123.36 1.52689 0.390367 0
M  V30 12171 C 1124.61 1.6689 1.13272 0
M  V30 12172 C 1124.92 0.414433 1.91159 0
M  V30 12173 O 1126.12 0.436559 2.67967 0
M  V30 12174 C 1124.58 2.94929 2.06264 0
M  V30 12175 C 1124.19 4.27551 1.33805 0
M  V30 12176 C 1125.93 3.18497 2.80642 0
M  V30 12177 C 1123.84 5.46698 2.25554 0
M  V30 12178 H 1122.77 0.621749 0.426549 0
M  V30 12179 H 1125.42 1.79185 0.395615 0
M  V30 12180 H 1123.8 2.76378 2.83604 0
M  V30 12181 H 1124.98 4.56651 0.616997 0
M  V30 12182 H 1123.29 4.10234 0.713913 0
M  V30 12183 H 1125.89 4.04693 3.49467 0
M  V30 12184 H 1126.23 2.33511 3.44642 0
M  V30 12185 H 1126.76 3.37607 2.10395 0
M  V30 12186 H 1123.5 6.34088 1.66171 0
M  V30 12187 H 1123.02 5.21913 2.95579 0
M  V30 12188 H 1124.7 5.80519 2.85668 0
M  V30 12189 N 1124.83 -0.648732 1.43629 0
M  V30 12190 C 1125.74 -1.79046 1.51591 0
M  V30 12191 C 1126.76 -1.69276 0.402697 0
M  V30 12192 O 1127.94 -1.90366 0.657484 0
M  V30 12193 C 1125 -3.15347 1.44073 0
M  V30 12194 C 1124.06 -3.3688 2.66102 0
M  V30 12195 C 1123.3 -4.66679 2.58933 0
M  V30 12196 O 1123.52 -5.46328 1.63956 0
M  V30 12197 O 1122.45 -4.9003 3.49506 0
M  V30 12198 H 1126.28 -1.75283 2.48011 0
M  V30 12199 H 1123.86 -0.807774 1.2568 0
M  V30 12200 H 1125.75 -3.96633 1.42339 0
M  V30 12201 H 1124.42 -3.19691 0.50789 0
M  V30 12202 H 1123.33 -2.55341 2.73407 0
M  V30 12203 H 1124.66 -3.37386 3.58373 0
M  V30 12204 N 1126.31 -1.30234 -0.887518 0
M  V30 12205 C 1127.22 -1.18316 -2.02579 0
M  V30 12206 C 1128.24 -0.103658 -1.73691 0
M  V30 12207 O 1129.41 -0.3181 -1.98872 0
M  V30 12208 C 1126.48 -0.873222 -3.35523 0
M  V30 12209 C 1125.54 -2.03783 -3.7785 0
M  V30 12210 C 1124.77 -1.74258 -5.0445 0
M  V30 12211 O 1125 -0.669295 -5.6646 0
M  V30 12212 O 1123.93 -2.59423 -5.43124 0
M  V30 12213 H 1127.76 -2.13933 -2.15561 0
M  V30 12214 H 1125.34 -1.09803 -1.0131 0
M  V30 12215 H 1127.22 -0.715463 -4.15282 0
M  V30 12216 H 1125.9 0.053056 -3.23657 0
M  V30 12217 H 1124.81 -2.2509 -2.98806 0
M  V30 12218 H 1126.14 -2.94574 -3.94318 0
M  V30 12219 N 1127.79 1.09952 -1.12909 0
M  V30 12220 C 1128.7 2.19999 -0.81471 0
M  V30 12221 C 1129.72 1.72864 0.19851 0
M  V30 12222 O 1130.89 2.01376 0.0308832 0
M  V30 12223 C 1127.96 3.45573 -0.279363 0
M  V30 12224 C 1127.02 4.07417 -1.35314 0
M  V30 12225 C 1126.25 5.26996 -0.843247 0
M  V30 12226 O 1126.47 5.69495 0.321164 0
M  V30 12227 O 1125.41 5.79826 -1.61511 0
M  V30 12228 H 1129.23 2.49333 -1.73398 0
M  V30 12229 H 1126.82 1.18784 -0.906128 0
M  V30 12230 H 1128.7 4.21398 0.0140531 0
M  V30 12231 H 1127.38 3.17854 0.612401 0
M  V30 12232 H 1126.28 3.33253 -1.6998 0
M  V30 12233 H 1127.62 4.39349 -2.21885 0
M  V30 12234 N 1129.27 0.921757 1.27833 0
M  V30 12235 C 1130.2 0.433466 2.29441 0
M  V30 12236 C 1131.18 -0.503133 1.62489 0
M  V30 12237 O 1132.36 -0.409156 1.89841 0
M  V30 12238 C 1129.49 -0.320029 3.45822 0
M  V30 12239 C 1128.45 0.528178 4.24728 0
M  V30 12240 C 1127.77 -0.354132 5.33526 0
M  V30 12241 C 1129.07 1.78959 4.90684 0
M  V30 12242 H 1130.77 1.28263 2.70535 0
M  V30 12243 H 1128.31 0.618197 1.30055 0
M  V30 12244 H 1130.27 -0.672526 4.15999 0
M  V30 12245 H 1128.99 -1.20317 3.0363 0
M  V30 12246 H 1127.65 0.863302 3.5629 0
M  V30 12247 H 1127.3 -1.23605 4.87576 0
M  V30 12248 H 1127 0.209855 5.87225 0
M  V30 12249 H 1128.52 -0.702333 6.06547 0
M  V30 12250 H 1129.94 1.50552 5.53179 0
M  V30 12251 H 1128.33 2.29661 5.54415 0
M  V30 12252 H 1129.4 2.51265 4.14721 0
M  V30 12253 N 1130.75 -1.41857 0.686609 0
M  V30 12254 C 1131.69 -2.326 0.0041351 0
M  V30 12255 C 1132.69 -1.50474 -0.778077 0
M  V30 12256 O 1133.89 -1.66468 -0.684709 0
M  V30 12257 H 1130.27 -0.751797 -0.0174615 0
M  V30 12258 H 1132.24 -2.87844 0.786656 0
M  V30 12259 C 1130.99 -3.35175 -0.924819 0
M  V30 12260 H 1130.31 -3.98416 -0.332339 0
M  V30 12261 H 1131.75 -4.01229 -1.37082 0
M  V30 12262 C 1130.21 -2.68359 -2.03679 0
M  V30 12263 O 1130.74 -2.52453 -3.12459 0
M  V30 12264 N 1128.95 -2.27196 -1.81192 0
M  V30 12265 H 1128.49 -2.40333 -0.92725 0
M  V30 12266 H 1128.45 -1.82824 -2.55778 0
M  V30 12267 N 1132.22 -0.430739 -1.51599 0
M  V30 12268 C 1133.17 0.384024 -2.27583 0
M  V30 12269 C 1134.14 1.02254 -1.30895 0
M  V30 12270 O 1135.33 1.0427 -1.59789 0
M  V30 12271 C 1132.47 1.48291 -3.11615 0
M  V30 12272 C 1131.58 0.863187 -4.23288 0
M  V30 12273 C 1130.71 1.93657 -4.94642 0
M  V30 12274 C 1129.75 1.29493 -5.98246 0
M  V30 12275 N 1128.89 2.30939 -6.63032 0
M  V30 12276 H 1133.73 -0.270314 -2.96771 0
M  V30 12277 H 1131.27 -0.145148 -1.46382 0
M  V30 12278 H 1133.23 2.13124 -3.58656 0
M  V30 12279 H 1131.86 2.10697 -2.44554 0
M  V30 12280 H 1130.91 0.103326 -3.8026 0
M  V30 12281 H 1132.22 0.354676 -4.97537 0
M  V30 12282 H 1131.37 2.66167 -5.45197 0
M  V30 12283 H 1130.11 2.4788 -4.20008 0
M  V30 12284 H 1129.12 0.555262 -5.46989 0
M  V30 12285 H 1130.34 0.760122 -6.74833 0
M  V30 12286 H 1128.29 2.84254 -5.91216 0
M  V30 12287 H 1128.21 1.84961 -7.33025 0
M  V30 12288 H 1129.47 3.02953 -7.1822 0
M  V30 12289 N 1133.7 1.56767 -0.161869 0
M  V30 12290 C 1134.65 2.17502 0.772102 0
M  V30 12291 C 1135.62 1.11223 1.23364 0
M  V30 12292 O 1136.8 1.39332 1.30351 0
M  V30 12293 C 1133.94 2.81248 1.99984 0
M  V30 12294 C 1133.06 4.01962 1.58274 0
M  V30 12295 C 1132.19 4.53662 2.76341 0
M  V30 12296 C 1131.23 5.66807 2.31076 0
M  V30 12297 N 1130.37 6.13059 3.42203 0
M  V30 12298 H 1135.21 2.96971 0.247382 0
M  V30 12299 H 1132.75 1.46685 0.110382 0
M  V30 12300 H 1134.7 3.16359 2.7198 0
M  V30 12301 H 1133.33 2.04398 2.49842 0
M  V30 12302 H 1132.39 3.72733 0.759874 0
M  V30 12303 H 1133.7 4.83891 1.2104 0
M  V30 12304 H 1132.85 4.90905 3.56507 0
M  V30 12305 H 1131.59 3.7077 3.16829 0
M  V30 12306 H 1130.6 5.29125 1.49354 0
M  V30 12307 H 1131.82 6.51494 1.91657 0
M  V30 12308 H 1129.77 5.33099 3.82285 0
M  V30 12309 H 1129.68 6.89953 3.09033 0
M  V30 12310 H 1130.95 6.54951 4.22682 0
M  V30 12311 N 1135.18 -0.111886 1.57202 0
M  V30 12312 C 1136.43 -0.819623 1.85499 0
M  V30 12313 C 1136.76 -1.7919 0.748629 0
M  V30 12314 O 1136.03 -1.92952 -0.244918 0
M  V30 12315 C 1136.32 -1.56324 3.24399 0
M  V30 12316 C 1136.17 -0.610081 4.45643 0
M  V30 12317 C 1137.49 -2.51777 3.60966 0
M  V30 12318 H 1134.61 -0.296512 0.674722 0
M  V30 12319 H 1137.25 -0.0836741 1.89816 0
M  V30 12320 H 1135.4 -2.1906 3.2085 0
M  V30 12321 H 1137.07 0.00898038 4.61299 0
M  V30 12322 H 1135.32 0.0778488 4.3373 0
M  V30 12323 H 1135.99 -1.16718 5.39519 0
M  V30 12324 H 1138.46 -1.99143 3.65351 0
M  V30 12325 H 1137.34 -3.00835 4.59118 0
M  V30 12326 H 1137.6 -3.34769 2.8876 0
M  V30 12327 N 1136.66 -1.52894 -0.382264 0
M  V30 12328 C 1137.88 -1.72453 -1.15216 0
M  V30 12329 C 1138.31 -0.444925 -1.82762 0
M  V30 12330 O 1137.67 0.599825 -1.7109 0
M  V30 12331 C 1137.71 -2.87939 -2.17079 0
M  V30 12332 O 1136.82 -2.55383 -3.23811 0
M  V30 12333 H 1136.16 -0.57324 -0.335099 0
M  V30 12334 H 1138.69 -1.99713 -0.444495 0
M  V30 12335 H 1138.7 -3.13628 -2.60963 0
M  V30 12336 H 1137.37 -3.80765 -1.67305 0
M  V30 12337 H 1135.95 -2.40457 -2.85018 0
M  V30 12338 N 1138.14 0.641106 -1.43971 0
M  V30 12339 C 1139.07 1.76489 -1.52885 0
M  V30 12340 C 1140.05 1.65742 -0.38258 0
M  V30 12341 O 1141.23 1.84653 -0.601397 0
M  V30 12342 C 1138.36 3.14977 -1.4631 0
M  V30 12343 C 1137.32 3.40502 -2.59311 0
M  V30 12344 C 1136.64 4.78916 -2.37789 0
M  V30 12345 C 1137.94 3.34048 -4.01509 0
M  V30 12346 H 1139.64 1.69286 -2.46946 0
M  V30 12347 H 1137.18 0.813015 -1.18853 0
M  V30 12348 H 1139.14 3.9336 -1.51149 0
M  V30 12349 H 1137.86 3.2294 -0.487599 0
M  V30 12350 H 1136.52 2.64495 -2.53846 0
M  V30 12351 H 1136.17 4.8357 -1.38454 0
M  V30 12352 H 1135.87 4.96954 -3.13545 0
M  V30 12353 H 1137.39 5.59541 -2.4443 0
M  V30 12354 H 1138.81 4.0235 -4.08396 0
M  V30 12355 H 1137.2 3.63622 -4.77388 0
M  V30 12356 H 1138.27 2.32022 -4.25786 0
M  V30 12357 N 1139.62 1.30703 0.880598 0
M  V30 12358 C 1140.58 1.17429 1.96832 0
M  V30 12359 C 1141.58 0.104305 1.60461 0
M  V30 12360 O 1142.77 0.352758 1.70591 0
M  V30 12361 C 1139.9 0.800099 3.31378 0
M  V30 12362 H 1141.09 2.14069 2.10034 0
M  V30 12363 H 1138.65 1.14162 1.06755 0
M  V30 12364 H 1139.38 -0.165606 3.23877 0
M  V30 12365 H 1139.17 1.57341 3.59146 0
M  V30 12366 H 1140.66 0.730826 4.11155 0
M  V30 12367 N 1141.09 -1.09351 1.1349 0
M  V30 12368 C 1142.03 -2.15291 0.756645 0
M  V30 12369 C 1143 -1.60548 -0.257497 0
M  V30 12370 O 1144.19 -1.87912 -0.14882 0
M  V30 12371 C 1141.32 -3.38481 0.121799 0
M  V30 12372 C 1140.36 -4.11949 1.10456 0
M  V30 12373 S 1141.19 -4.6605 2.63738 0
M  V30 12374 C 1142.35 -5.92539 2.01615 0
M  V30 12375 H 1142.58 -2.47044 1.65398 0
M  V30 12376 H 1140.12 -1.21312 0.955129 0
M  V30 12377 H 1142.07 -4.09809 -0.238086 0
M  V30 12378 H 1140.74 -3.04945 -0.752821 0
M  V30 12379 H 1139.93 -5.00317 0.608195 0
M  V30 12380 H 1139.53 -3.46486 1.40795 0
M  V30 12381 H 1141.82 -6.63593 1.36569 0
M  V30 12382 H 1142.77 -6.46856 2.88068 0
M  V30 12383 H 1143.17 -5.45094 1.46741 0
M  V30 12384 N 1142.57 -0.928524 -1.27343 0
M  V30 12385 C 1143.52 -0.426873 -2.26818 0
M  V30 12386 C 1144.49 0.506663 -1.58184 0
M  V30 12387 O 1145.67 0.425641 -1.85992 0
M  V30 12388 C 1142.81 0.313523 -3.43673 0
M  V30 12389 C 1141.93 -0.65422 -4.27018 0
M  V30 12390 C 1141.06 0.106102 -5.31094 0
M  V30 12391 C 1140.1 -0.854293 -6.06109 0
M  V30 12392 N 1139.24 -0.126545 -7.01986 0
M  V30 12393 H 1144.08 -1.28014 -2.69103 0
M  V30 12394 H 1141.61 -0.642515 -1.32326 0
M  V30 12395 H 1143.57 0.75912 -4.10236 0
M  V30 12396 H 1142.2 1.13102 -3.02337 0
M  V30 12397 H 1141.25 -1.21834 -3.60362 0
M  V30 12398 H 1142.57 -1.38817 -4.79094 0
M  V30 12399 H 1141.72 0.611577 -6.0361 0
M  V30 12400 H 1140.46 0.873009 -4.79823 0
M  V30 12401 H 1139.46 -1.37101 -5.32432 0
M  V30 12402 H 1140.69 -1.621 -6.5947 0
M  V30 12403 H 1138.64 0.622102 -6.53044 0
M  V30 12404 H 1138.55 -0.800046 -7.51755 0
M  V30 12405 H 1139.82 0.358251 -7.78676 0
M  V30 12406 N 1144.05 1.41491 -0.694123 0
M  V30 12407 C 1145 2.32594 -0.0164704 0
M  V30 12408 C 1145.99 1.50884 0.770086 0
M  V30 12409 O 1147.2 1.66829 0.675871 0
M  V30 12410 H 1143.57 0.751879 0.0134743 0
M  V30 12411 H 1145.54 2.87423 -0.80191 0
M  V30 12412 C 1144.29 3.35661 0.90703 0
M  V30 12413 H 1143.62 3.98587 0.311205 0
M  V30 12414 H 1145.06 4.0195 1.34952 0
M  V30 12415 C 1143.51 2.69436 2.02253 0
M  V30 12416 O 1144.04 2.54107 3.11115 0
M  V30 12417 N 1142.25 2.28154 1.79984 0
M  V30 12418 H 1141.8 2.40821 0.914492 0
M  V30 12419 H 1141.76 1.84178 2.54805 0
M  V30 12420 N 1145.53 0.438773 1.51369 0
M  V30 12421 C 1146.78 -0.128723 2.01289 0
M  V30 12422 C 1147.09 -1.43659 1.32745 0
M  V30 12423 O 1148.3 -2.08712 1.73642 0
M  V30 12424 C 1146.75 -0.279945 3.5881 0
M  V30 12425 C 1146.36 1.01758 4.3629 0
M  V30 12426 C 1148.1 -0.801133 4.16872 0
M  V30 12427 C 1146.01 0.831918 5.85519 0
M  V30 12428 H 1144.94 -0.0518814 0.752213 0
M  V30 12429 H 1147.59 0.568753 1.74463 0
M  V30 12430 H 1145.97 -1.04046 3.82087 0
M  V30 12431 H 1147.15 1.78653 4.24758 0
M  V30 12432 H 1145.46 1.46741 3.89687 0
M  V30 12433 H 1148.06 -0.956548 5.26074 0
M  V30 12434 H 1148.4 -1.78396 3.76139 0
M  V30 12435 H 1148.94 -0.0988934 3.97677 0
M  V30 12436 H 1145.67 1.78716 6.30667 0
M  V30 12437 H 1145.19 0.102785 5.99712 0
M  V30 12438 H 1146.87 0.485681 6.45174 0
M  V30 12439 N 1147.01 -1.56678 0.170181 0
M  V30 12440 C 1147.92 -2.21496 -0.773079 0
M  V30 12441 C 1148.93 -1.20626 -1.25401 0
M  V30 12442 O 1150.11 -1.53283 -1.30638 0
M  V30 12443 C 1147.17 -2.8421 -1.98558 0
M  V30 12444 C 1146.23 -4.00278 -1.55164 0
M  V30 12445 C 1145.47 -4.59992 -2.70634 0
M  V30 12446 O 1145.69 -4.18595 -3.87472 0
M  V30 12447 O 1144.62 -5.49881 -2.44775 0
M  V30 12448 H 1148.45 -3.02659 -0.251195 0
M  V30 12449 H 1146.03 -1.49288 -0.0579621 0
M  V30 12450 H 1147.92 -3.2398 -2.69472 0
M  V30 12451 H 1146.59 -2.06045 -2.49654 0
M  V30 12452 H 1145.5 -3.6518 -0.812038 0
M  V30 12453 H 1146.83 -4.80033 -1.0876 0
M  V30 12454 N 1148.48 0.103547 -1.57259 0
M  V30 12455 C 1149.9 0.457527 -1.52901 0
M  V30 12456 C 1150.1 1.80995 -0.8856 0
M  V30 12457 O 1149.16 2.48001 -0.474504 0
M  V30 12458 C 1150.47 0.427793 -2.97641 0
M  V30 12459 C 1152.02 0.51025 -3.08813 0
M  V30 12460 C 1152.49 0.51075 -4.55143 0
M  V30 12461 N 1153.98 0.571748 -4.59658 0
M  V30 12462 C 1154.72 0.593836 -5.70317 0
M  V30 12463 N 1154.21 0.572638 -6.90429 0
M  V30 12464 N 1156.01 0.638011 -5.58467 0
M  V30 12465 H 1148.16 -0.782408 -1.97464 0
M  V30 12466 H 1150.42 -0.290324 -0.90245 0
M  V30 12467 H 1150.13 -0.498608 -3.48148 0
M  V30 12468 H 1150 1.24991 -3.55889 0
M  V30 12469 H 1152.39 1.42707 -2.583 0
M  V30 12470 H 1152.47 -0.339846 -2.53532 0
M  V30 12471 H 1152.11 -0.40209 -5.06306 0
M  V30 12472 H 1152.04 1.37794 -5.08252 0
M  V30 12473 H 1154.53 0.593668 -3.73208 0
M  V30 12474 H 1154.85 0.592542 -7.70525 0
M  V30 12475 H 1153.19 0.539818 -6.929 0
M  V30 12476 H 1156.38 0.652042 -4.63536 0
M  V30 12477 H 1156.56 0.651756 -6.44714 0
M  V30 12478 N 1149.96 1.53094 0.37415 0
M  V30 12479 C 1151.21 1.68861 1.11769 0
M  V30 12480 C 1151.54 0.436032 1.89549 0
M  V30 12481 O 1150.79 -0.581879 1.86849 0
M  V30 12482 C 1151.09 2.88432 2.11049 0
M  V30 12483 C 1150.76 4.25284 1.49814 0
M  V30 12484 C 1149.42 4.62501 1.32841 0
M  V30 12485 C 1151.77 5.10425 1.05433 0
M  V30 12486 C 1149.1 5.82502 0.700567 0
M  V30 12487 C 1151.45 6.31064 0.440525 0
M  V30 12488 C 1150.11 6.67 0.258216 0
M  V30 12489 H 1149.38 0.617906 0.40899 0
M  V30 12490 H 1152.03 1.87265 0.4005 0
M  V30 12491 H 1150.34 2.64505 2.8904 0
M  V30 12492 H 1152.03 2.97825 2.68517 0
M  V30 12493 H 1148.62 3.95976 1.64016 0
M  V30 12494 H 1152.81 4.82229 1.17342 0
M  V30 12495 H 1148.06 6.08942 0.547652 0
M  V30 12496 H 1152.24 6.96344 0.0883962 0
M  V30 12497 H 1149.86 7.59851 -0.230354 0
M  V30 12498 N 1151.44 -0.633461 1.44309 0
M  V30 12499 C 1152.37 -1.7583 1.45462 0
M  V30 12500 C 1153.35 -1.59545 0.313723 0
M  V30 12501 O 1154.53 -1.8146 0.51034 0
M  V30 12502 C 1151.66 -3.13375 1.28506 0
M  V30 12503 C 1150.71 -3.48315 2.46128 0
M  V30 12504 S 1151.54 -3.46058 4.08662 0
M  V30 12505 C 1152.7 -4.86226 3.94125 0
M  V30 12506 H 1152.93 -1.74585 2.4064 0
M  V30 12507 H 1150.46 -0.807868 1.31578 0
M  V30 12508 H 1152.42 -3.92748 1.19411 0
M  V30 12509 H 1151.08 -3.12161 0.348432 0
M  V30 12510 H 1150.27 -4.48397 2.30122 0
M  V30 12511 H 1149.88 -2.76399 2.51951 0
M  V30 12512 H 1152.17 -5.75393 3.57671 0
M  V30 12513 H 1153.11 -5.07287 4.9403 0
M  V30 12514 H 1153.52 -4.60691 3.26227 0
M  V30 12515 N 1152.92 -1.31168 -0.873655 0
M  V30 12516 C 1154.15 -1.23595 -1.65927 0
M  V30 12517 C 1154.56 0.199349 -1.87745 0
M  V30 12518 O 1153.92 1.13013 -1.43298 0
M  V30 12519 C 1153.97 -1.97268 -3.02932 0
M  V30 12520 O 1153.69 -3.35196 -2.82091 0
M  V30 12521 C 1155.19 -1.9649 -3.97374 0
M  V30 12522 H 1152.41 -0.427228 -0.517414 0
M  V30 12523 H 1154.96 -1.72983 -1.09074 0
M  V30 12524 H 1153.11 -1.51651 -3.56484 0
M  V30 12525 H 1153.52 -3.7266 -3.69087 0
M  V30 12526 H 1155 -2.52557 -4.90835 0
M  V30 12527 H 1155.48 -0.946525 -4.28879 0
M  V30 12528 H 1156.08 -2.4197 -3.49758 0
M  V30 12529 N 1154.4 1.08748 -1.14068 0
M  V30 12530 C 1155.31 2.19123 -0.837998 0
M  V30 12531 C 1156.32 1.73065 0.180164 0
M  V30 12532 O 1157.5 2.01398 0.00952285 0
M  V30 12533 C 1154.56 3.45257 -0.316 0
M  V30 12534 C 1153.62 4.05959 -1.39628 0
M  V30 12535 C 1152.86 5.26072 -0.899095 0
M  V30 12536 O 1153.08 5.69804 0.260744 0
M  V30 12537 O 1152.01 5.7808 -1.67652 0
M  V30 12538 H 1155.84 2.4748 -1.76033 0
M  V30 12539 H 1153.43 1.17816 -0.918675 0
M  V30 12540 H 1155.31 4.21389 -0.0306425 0
M  V30 12541 H 1153.98 3.18486 0.578654 0
M  V30 12542 H 1152.89 3.31432 -1.73505 0
M  V30 12543 H 1154.22 4.36971 -2.26533 0
M  V30 12544 N 1155.87 0.935264 1.26849 0
M  V30 12545 C 1157.1 0.595704 1.98661 0
M  V30 12546 C 1157.52 -0.821001 1.69237 0
M  V30 12547 O 1156.88 -1.55211 0.936982 0
M  V30 12548 C 1156.93 0.837275 3.50745 0
M  V30 12549 O 1156.03 -0.0934914 4.12294 0
M  V30 12550 H 1155.38 0.228512 0.623441 0
M  V30 12551 H 1157.91 1.25658 1.61466 0
M  V30 12552 H 1157.92 0.755827 4.00938 0
M  V30 12553 H 1156.59 1.86993 3.71492 0
M  V30 12554 H 1155.17 0.0385124 3.7288 0
M  V30 12555 N 1157.35 -1.41121 0.701616 0
M  V30 12556 C 1158.58 -2.05973 0.242896 0
M  V30 12557 C 1159 -1.52474 -1.10151 0
M  V30 12558 O 1158.36 -0.654224 -1.69085 0
M  V30 12559 C 1158.41 -3.59943 0.217614 0
M  V30 12560 O 1157.51 -4.04454 -0.805629 0
M  V30 12561 H 1156.85 -0.653581 0.117166 0
M  V30 12562 H 1159.38 -1.80777 0.958175 0
M  V30 12563 H 1159.39 -4.07969 0.0505267 0
M  V30 12564 H 1158.07 -3.98249 1.19877 0
M  V30 12565 H 1156.65 -3.6792 -0.607404 0
M  V30 12566 N 1158.83 -0.446794 -1.51134 0
M  V30 12567 C 1160.08 0.118047 -2.01354 0
M  V30 12568 C 1160.39 1.42953 -1.33505 0
M  V30 12569 O 1161.6 2.07788 -1.74747 0
M  V30 12570 C 1160.05 0.260912 -3.58953 0
M  V30 12571 C 1159.66 -1.0407 -4.35745 0
M  V30 12572 C 1161.41 0.779014 -4.17291 0
M  V30 12573 C 1159.31 -0.862958 -5.8507 0
M  V30 12574 H 1158.24 0.0478915 -0.752478 0
M  V30 12575 H 1160.89 -0.577997 -1.74159 0
M  V30 12576 H 1159.28 1.02018 -3.82633 0
M  V30 12577 H 1160.45 -1.80903 -4.23805 0
M  V30 12578 H 1158.77 -1.48805 -3.88904 0
M  V30 12579 H 1161.36 0.928636 -5.26574 0
M  V30 12580 H 1161.71 1.76399 -3.7708 0
M  V30 12581 H 1162.24 0.0778022 -3.97724 0
M  V30 12582 H 1158.98 -1.82059 -6.2971 0
M  V30 12583 H 1158.5 -0.134588 -5.99649 0
M  V30 12584 H 1160.18 -0.51989 -6.44908 0
M  V30 12585 N 1160.31 1.56586 -0.178487 0
M  V30 12586 C 1161.53 2.01915 0.473841 0
M  V30 12587 C 1161.96 1.05789 1.55533 0
M  V30 12588 O 1161.32 0.0386018 1.81259 0
M  V30 12589 C 1161.36 3.45799 1.02251 0
M  V30 12590 O 1160.47 3.52761 2.1362 0
M  V30 12591 H 1159.81 0.654372 0.112666 0
M  V30 12592 H 1162.34 2.02613 -0.284486 0
M  V30 12593 H 1162.35 3.85252 1.34332 0
M  V30 12594 H 1161.02 4.1526 0.230719 0
M  V30 12595 H 1159.6 3.25172 1.8253 0
M  V30 12596 N 1161.79 -0.095206 1.57312 0
M  V30 12597 C 1163.02 -0.811092 1.90013 0
M  V30 12598 C 1163.42 -1.72807 0.770359 0
M  V30 12599 O 1162.77 -1.81755 -0.266615 0
M  V30 12600 C 1162.83 -1.67744 3.17966 0
M  V30 12601 C 1162.49 -0.932301 4.47389 0
M  V30 12602 C 1163.49 -0.262161 5.19239 0
M  V30 12603 C 1161.18 -0.906414 4.94054 0
M  V30 12604 C 1163.17 0.423898 6.35989 0
M  V30 12605 C 1160.86 -0.216569 6.10716 0
M  V30 12606 C 1161.85 0.447408 6.81533 0
M  V30 12607 O 1161.54 1.12619 7.95972 0
M  V30 12608 H 1161.27 -0.237154 0.633035 0
M  V30 12609 H 1163.83 -0.0768976 2.05256 0
M  V30 12610 H 1162.06 -2.45387 2.98868 0
M  V30 12611 H 1163.75 -2.26988 3.36498 0
M  V30 12612 H 1164.51 -0.273621 4.84228 0
M  V30 12613 H 1160.39 -1.41267 4.38822 0
M  V30 12614 H 1163.94 0.942727 6.91201 0
M  V30 12615 H 1159.83 -0.202955 6.45181 0
M  V30 12616 H 1160.6 1.03308 8.11954 0
M  V30 12617 N 1163.26 -1.53291 -0.366026 0
M  V30 12618 C 1164.19 -1.82675 -1.45437 0
M  V30 12619 C 1165.18 -0.680227 -1.55907 0
M  V30 12620 O 1166.36 -0.930032 -1.70482 0
M  V30 12621 C 1163.49 -2.01626 -2.8278 0
M  V30 12622 C 1162.44 -3.17391 -2.87135 0
M  V30 12623 C 1161.77 -3.21634 -4.27148 0
M  V30 12624 C 1163.07 -4.5599 -2.54697 0
M  V30 12625 H 1164.76 -2.73818 -1.21096 0
M  V30 12626 H 1162.31 -1.31754 -0.581108 0
M  V30 12627 H 1164.26 -2.20765 -3.58944 0
M  V30 12628 H 1162.99 -1.07193 -3.08508 0
M  V30 12629 H 1161.65 -2.98071 -2.13422 0
M  V30 12630 H 1161.29 -2.2484 -4.49951 0
M  V30 12631 H 1160.99 -3.99414 -4.30978 0
M  V30 12632 H 1162.52 -3.42957 -5.05186 0
M  V30 12633 H 1163.93 -4.75294 -3.20575 0
M  V30 12634 H 1162.33 -5.36008 -2.69844 0
M  V30 12635 H 1163.4 -4.61133 -1.49949 0
M  V30 12636 N 1164.74 0.6258 -1.44643 0
M  V30 12637 C 1165.68 1.75056 -1.46392 0
M  V30 12638 C 1166.65 1.59376 -0.322179 0
M  V30 12639 O 1167.84 1.81187 -0.519956 0
M  V30 12640 C 1164.96 3.12689 -1.30166 0
M  V30 12641 C 1164.01 3.47005 -2.47972 0
M  V30 12642 S 1164.84 3.43885 -4.10491 0
M  V30 12643 C 1166 4.84129 -3.96698 0
M  V30 12644 H 1166.23 1.73306 -2.41562 0
M  V30 12645 H 1163.77 0.800879 -1.32005 0
M  V30 12646 H 1165.72 3.9211 -1.21492 0
M  V30 12647 H 1164.38 3.11972 -0.364982 0
M  V30 12648 H 1163.58 4.47171 -2.32496 0
M  V30 12649 H 1163.18 2.75059 -2.53414 0
M  V30 12650 H 1165.47 5.73488 -3.60718 0
M  V30 12651 H 1166.41 5.0466 -4.96713 0
M  V30 12652 H 1166.82 4.58954 -3.28666 0
M  V30 12653 N 1166.22 1.31629 0.866686 0
M  V30 12654 C 1167.17 1.19556 1.97421 0
M  V30 12655 C 1168.14 0.0805578 1.65905 0
M  V30 12656 O 1169.32 0.253997 1.89102 0
M  V30 12657 C 1166.46 0.912234 3.32825 0
M  V30 12658 C 1165.58 2.11088 3.76916 0
M  V30 12659 C 1164.71 1.76406 5.01053 0
M  V30 12660 C 1163.75 2.9266 5.37602 0
M  V30 12661 N 1162.89 2.58152 6.52918 0
M  V30 12662 H 1167.73 2.14294 2.0708 0
M  V30 12663 H 1165.26 1.06595 1.0137 0
M  V30 12664 H 1167.22 0.72851 4.1079 0
M  V30 12665 H 1165.85 0.00167404 3.228 0
M  V30 12666 H 1164.9 2.40527 2.94705 0
M  V30 12667 H 1166.22 2.98089 3.99931 0
M  V30 12668 H 1165.37 1.54515 5.86694 0
M  V30 12669 H 1164.11 0.866018 4.79949 0
M  V30 12670 H 1163.11 3.15196 4.50479 0
M  V30 12671 H 1164.34 3.83179 5.6067 0
M  V30 12672 H 1162.28 1.70874 6.33355 0
M  V30 12673 H 1162.2 3.38682 6.75892 0
M  V30 12674 H 1163.47 2.39662 7.41743 0
M  V30 12675 N 1167.7 -1.08142 1.14644 0
M  V30 12676 C 1168.63 -2.17139 0.858667 0
M  V30 12677 C 1169.61 -1.69064 -0.187452 0
M  V30 12678 O 1170.8 -1.94151 -0.0435458 0
M  V30 12679 C 1167.93 -3.45648 0.33834 0
M  V30 12680 C 1166.88 -4.07129 1.32021 0
M  V30 12681 C 1166.21 -5.30623 0.659075 0
M  V30 12682 C 1167.51 -4.48095 2.68343 0
M  V30 12683 H 1169.2 -2.41468 1.77012 0
M  V30 12684 H 1166.75 -1.16052 0.852523 0
M  V30 12685 H 1168.7 -4.21216 0.124611 0
M  V30 12686 H 1167.42 -3.2088 -0.608553 0
M  V30 12687 H 1166.08 -3.33596 1.52016 0
M  V30 12688 H 1165.73 -5.02142 -0.293711 0
M  V30 12689 H 1165.43 -5.72714 1.31427 0
M  V30 12690 H 1166.95 -6.08903 0.454933 0
M  V30 12691 H 1168.37 -5.14828 2.5224 0
M  V30 12692 H 1166.76 -5.01113 3.30161 0
M  V30 12693 H 1167.83 -3.59852 3.25015 0
M  V30 12694 N 1169.18 -0.941978 -1.26351 0
M  V30 12695 C 1170.43 -0.585711 -1.93009 0
M  V30 12696 C 1170.74 0.879507 -1.74711 0
M  V30 12697 O 1171.95 1.34518 -2.35833 0
M  V30 12698 C 1170.4 -0.996787 -3.45821 0
M  V30 12699 C 1170.01 -2.48367 -3.72851 0
M  V30 12700 C 1171.75 -0.712452 -4.18479 0
M  V30 12701 C 1169.66 -2.83341 -5.19107 0
M  V30 12702 H 1168.59 -0.215342 -0.722595 0
M  V30 12703 H 1171.24 -1.14472 -1.43417 0
M  V30 12704 H 1169.62 -0.366295 -3.94302 0
M  V30 12705 H 1170.8 -3.16328 -3.35072 0
M  V30 12706 H 1169.11 -2.74139 -3.13427 0
M  V30 12707 H 1171.71 -0.95007 -5.26192 0
M  V30 12708 H 1172.05 0.350811 -4.14819 0
M  V30 12709 H 1172.59 -1.3027 -3.75865 0
M  V30 12710 H 1169.32 -3.88633 -5.27868 0
M  V30 12711 H 1168.84 -2.20043 -5.5798 0
M  V30 12712 H 1170.52 -2.71849 -5.87118 0
M  V30 12713 N 1170.66 1.40747 -0.709091 0
M  V30 12714 C 1171.6 2.32564 -0.0411392 0
M  V30 12715 C 1172.6 1.51692 0.75404 0
M  V30 12716 O 1173.8 1.67537 0.658139 0
M  V30 12717 H 1170.18 0.75198 0.00549889 0
M  V30 12718 H 1172.15 2.86556 -0.83235 0
M  V30 12719 C 1170.9 3.36604 0.871378 0
M  V30 12720 H 1170.22 3.98895 0.268912 0
M  V30 12721 H 1171.66 4.03359 1.30682 0
M  V30 12722 C 1170.12 2.71566 1.99384 0
M  V30 12723 O 1170.65 2.57392 3.08403 0
M  V30 12724 N 1168.86 2.3005 1.77554 0
M  V30 12725 H 1168.4 2.41778 0.888898 0
M  V30 12726 H 1168.36 1.8687 2.52838 0
M  V30 12727 N 1172.13 0.454803 1.50895 0
M  V30 12728 C 1173.04 -0.353495 2.31921 0
M  V30 12729 C 1174.06 -1.01136 1.41589 0
M  V30 12730 O 1175.24 -1.00291 1.74653 0
M  V30 12731 C 1172.3 -1.43032 3.15821 0
M  V30 12732 C 1171.36 -0.790763 4.21954 0
M  V30 12733 C 1170.59 -1.81628 5.01843 0
M  V30 12734 O 1170.82 -3.04078 4.8259 0
M  V30 12735 O 1169.75 -1.39713 5.8546 0
M  V30 12736 H 1173.58 0.308463 3.02129 0
M  V30 12737 H 1171.16 0.216971 1.47816 0
M  V30 12738 H 1173.04 -2.05444 3.67927 0
M  V30 12739 H 1171.72 -2.07605 2.48358 0
M  V30 12740 H 1170.63 -0.128127 3.73881 0
M  V30 12741 H 1171.96 -0.188251 4.9184 0
M  V30 12742 N 1173.61 -1.56489 0.186789 0
M  V30 12743 C 1174.57 -2.17478 -0.723596 0
M  V30 12744 C 1175.57 -1.12698 -1.14699 0
M  V30 12745 O 1176.76 -1.38128 -1.06143 0
M  V30 12746 C 1173.9 -2.77015 -1.98685 0
M  V30 12747 H 1175.09 -2.99282 -0.192403 0
M  V30 12748 H 1172.64 -1.56174 -0.0628153 0
M  V30 12749 H 1173.38 -1.98987 -2.56076 0
M  V30 12750 H 1173.16 -3.53711 -1.69207 0
M  V30 12751 H 1174.65 -3.23872 -2.63622 0
M  V30 12752 N 1175.09 0.086862 -1.5736 0
M  V30 12753 C 1176.04 1.10478 -2.02641 0
M  V30 12754 C 1177.01 1.39331 -0.904219 0
M  V30 12755 O 1178.19 1.50654 -1.17081 0
M  V30 12756 C 1175.33 2.41754 -2.4627 0
M  V30 12757 C 1174.44 2.19561 -3.72044 0
M  V30 12758 C 1173.58 3.44294 -4.04519 0
M  V30 12759 C 1172.62 3.17399 -5.23378 0
M  V30 12760 N 1171.76 4.3442 -5.51564 0
M  V30 12761 H 1176.6 0.711663 -2.89378 0
M  V30 12762 H 1174.13 0.339856 -1.4312 0
M  V30 12763 H 1176.09 3.18378 -2.69613 0
M  V30 12764 H 1174.72 2.78896 -1.62532 0
M  V30 12765 H 1173.77 1.337 -3.5613 0
M  V30 12766 H 1175.08 1.95685 -4.58812 0
M  V30 12767 H 1174.24 4.29321 -4.28682 0
M  V30 12768 H 1172.98 3.71232 -3.16289 0
M  V30 12769 H 1171.98 2.30765 -4.99026 0
M  V30 12770 H 1173.21 2.91799 -6.13213 0
M  V30 12771 H 1171.15 4.61418 -4.66293 0
M  V30 12772 H 1171.07 4.13764 -6.3272 0
M  V30 12773 H 1172.34 5.20489 -5.80269 0
M  V30 12774 N 1176.57 1.53483 0.357892 0
M  V30 12775 C 1177.81 1.70289 1.10134 0
M  V30 12776 C 1178.15 0.457296 1.88739 0
M  V30 12777 O 1177.42 -0.545527 1.86693 0
M  V30 12778 C 1177.7 2.95755 2.05429 0
M  V30 12779 C 1177.56 4.30489 1.30382 0
M  V30 12780 C 1178.88 3.16844 3.05447 0
M  V30 12781 H 1176 0.61965 0.399003 0
M  V30 12782 H 1178.64 1.86133 0.381357 0
M  V30 12783 H 1176.79 2.82377 2.66825 0
M  V30 12784 H 1178.46 4.55692 0.71711 0
M  V30 12785 H 1176.7 4.2955 0.605712 0
M  V30 12786 H 1177.37 5.14427 2.00171 0
M  V30 12787 H 1179.85 3.29458 2.54159 0
M  V30 12788 H 1178.73 4.06053 3.69341 0
M  V30 12789 H 1178.99 2.32476 3.76041 0
M  V30 12790 N 1178.05 -0.61812 1.44973 0
M  V30 12791 C 1179.29 -1.37468 1.48145 0
M  V30 12792 C 1179.61 -1.94628 0.120366 0
M  V30 12793 O 1178.88 -1.76548 -0.848982 0
M  V30 12794 H 1177.46 -0.510293 0.545536 0
M  V30 12795 H 1180.13 -0.726598 1.8085 0
M  V30 12796 H 1179.22 -2.19944 2.2143 0
M  V30 12797 N 1179.52 -1.32087 -0.859693 0
M  V30 12798 C 1180.47 -1.20601 -1.96784 0
M  V30 12799 C 1181.44 -0.089355 -1.65859 0
M  V30 12800 O 1182.63 -0.264022 -1.88964 0
M  V30 12801 C 1179.77 -0.929872 -3.32336 0
M  V30 12802 C 1178.88 -2.13084 -3.75791 0
M  V30 12803 C 1178.01 -1.79061 -5.00111 0
M  V30 12804 C 1177.05 -2.95507 -5.36043 0
M  V30 12805 N 1176.19 -2.61611 -6.5154 0
M  V30 12806 H 1181.03 -2.1539 -2.0594 0
M  V30 12807 H 1178.57 -1.07131 -1.00803 0
M  V30 12808 H 1180.52 -0.750285 -4.10398 0
M  V30 12809 H 1179.15 -0.0187929 -3.22795 0
M  V30 12810 H 1178.21 -2.42086 -2.93425 0
M  V30 12811 H 1179.52 -3.00205 -3.98344 0
M  V30 12812 H 1178.67 -1.57625 -5.85866 0
M  V30 12813 H 1177.41 -0.891459 -4.79483 0
M  V30 12814 H 1176.42 -3.17581 -4.48801 0
M  V30 12815 H 1177.64 -3.86147 -5.5863 0
M  V30 12816 H 1175.59 -1.74231 -6.32439 0
M  V30 12817 H 1175.5 -3.42262 -6.74087 0
M  V30 12818 H 1176.77 -2.43592 -7.40461 0
M  V30 12819 N 1181 1.07532 -1.15215 0
M  V30 12820 C 1181.93 2.1668 -0.870171 0
M  V30 12821 C 1182.91 1.69161 0.178483 0
M  V30 12822 O 1184.1 1.94172 0.0332489 0
M  V30 12823 C 1181.23 3.45464 -0.356666 0
M  V30 12824 C 1180.18 4.06424 -1.34179 0
M  V30 12825 C 1179.51 5.30266 -0.687206 0
M  V30 12826 C 1180.81 4.46666 -2.70715 0
M  V30 12827 H 1182.5 2.40526 -1.7829 0
M  V30 12828 H 1180.05 1.15598 -0.858665 0
M  V30 12829 H 1182 4.21144 -0.146947 0
M  V30 12830 H 1180.72 3.21199 0.591527 0
M  V30 12831 H 1179.38 3.32786 -1.53783 0
M  V30 12832 H 1179.03 5.0229 0.267077 0
M  V30 12833 H 1178.73 5.72009 -1.34462 0
M  V30 12834 H 1180.26 6.08653 -0.487218 0
M  V30 12835 H 1181.67 5.13483 -2.54966 0
M  V30 12836 H 1180.07 4.99355 -3.32813 0
M  V30 12837 H 1181.14 3.58123 -3.26919 0
M  V30 12838 N 1182.48 0.948665 1.2585 0
M  V30 12839 C 1183.43 0.462904 2.2611 0
M  V30 12840 C 1184.4 -0.481433 1.5897 0
M  V30 12841 O 1185.58 -0.395997 1.86645 0
M  V30 12842 C 1182.72 -0.258808 3.44128 0
M  V30 12843 C 1181.84 0.722072 4.25923 0
M  V30 12844 C 1180.97 -0.0215958 5.31196 0
M  V30 12845 C 1180.01 0.950612 6.04673 0
M  V30 12846 N 1179.15 0.238209 7.01696 0
M  V30 12847 H 1183.99 1.32279 2.67032 0
M  V30 12848 H 1181.52 0.663485 1.31287 0
M  V30 12849 H 1183.48 -0.693759 4.11391 0
M  V30 12850 H 1182.11 -1.08278 3.04098 0
M  V30 12851 H 1181.16 1.27552 3.58378 0
M  V30 12852 H 1182.48 1.46421 4.76825 0
M  V30 12853 H 1181.63 -0.51547 6.04506 0
M  V30 12854 H 1180.37 -0.796563 4.81151 0
M  V30 12855 H 1179.37 1.45554 5.30183 0
M  V30 12856 H 1180.6 1.72571 6.56808 0
M  V30 12857 H 1178.54 -0.518129 6.53951 0
M  V30 12858 H 1178.46 0.919542 7.50387 0
M  V30 12859 H 1179.73 -0.234325 7.79148 0
M  V30 12860 N 1183.96 -1.40369 0.716545 0
M  V30 12861 C 1184.91 -2.3071 0.0645944 0
M  V30 12862 C 1185.88 -1.48239 -0.749294 0
M  V30 12863 O 1187.06 -1.76975 -0.713045 0
M  V30 12864 C 1184.2 -3.34456 -0.850478 0
M  V30 12865 C 1183.31 -4.31992 -0.0259594 0
M  V30 12866 C 1182.45 -5.22806 -0.940599 0
M  V30 12867 C 1181.49 -6.12001 -0.110228 0
M  V30 12868 N 1180.62 -6.9523 -0.979796 0
M  V30 12869 H 1185.46 -2.85896 0.840682 0
M  V30 12870 H 1183 -1.40789 0.426258 0
M  V30 12871 H 1184.96 -3.93177 -1.39528 0
M  V30 12872 H 1183.59 -2.8077 -1.59274 0
M  V30 12873 H 1182.64 -3.75045 0.636036 0
M  V30 12874 H 1183.95 -4.94971 0.616883 0
M  V30 12875 H 1183.11 -5.86463 -1.5539 0
M  V30 12876 H 1181.85 -4.60104 -1.61726 0
M  V30 12877 H 1180.85 -5.47373 0.516001 0
M  V30 12878 H 1182.08 -6.76763 0.562944 0
M  V30 12879 H 1180.02 -6.35115 -1.64209 0
M  V30 12880 H 1179.94 -7.54978 -0.393012 0
M  V30 12881 H 1181.21 -7.63335 -1.57924 0
M  V30 12882 N 1185.44 -0.462799 -1.50652 0
M  V30 12883 C 1186.67 0.0928413 -2.06391 0
M  V30 12884 C 1187.07 1.34791 -1.3277 0
M  V30 12885 O 1186.42 1.79555 -0.388048 0
M  V30 12886 C 1186.48 0.45517 -3.56607 0
M  V30 12887 C 1186.14 -0.696698 -4.51658 0
M  V30 12888 C 1187.14 -1.57633 -4.95427 0
M  V30 12889 C 1184.83 -0.884669 -4.94448 0
M  V30 12890 C 1186.82 -2.62841 -5.80684 0
M  V30 12891 C 1184.51 -1.93998 -5.79489 0
M  V30 12892 C 1185.5 -2.81022 -6.22508 0
M  V30 12893 O 1185.19 -3.84738 -7.05856 0
M  V30 12894 H 1184.92 -3.18898e-05 -0.676 0
M  V30 12895 H 1187.48 -0.648161 -1.94905 0
M  V30 12896 H 1185.71 1.24924 -3.65966 0
M  V30 12897 H 1187.4 0.944923 -3.94748 0
M  V30 12898 H 1188.16 -1.44276 -4.63044 0
M  V30 12899 H 1184.04 -0.216807 -4.6049 0
M  V30 12900 H 1187.59 -3.30797 -6.14182 0
M  V30 12901 H 1183.48 -2.07366 -6.11285 0
M  V30 12902 H 1184.25 -3.81626 -7.24088 0
M  V30 12903 N 1186.91 1.56388 -0.195085 0
M  V30 12904 C 1188.19 1.89329 0.491303 0
M  V30 12905 C 1188.57 1.10861 1.79647 0
M  V30 12906 O 1187.92 0.209696 2.27536 0
M  V30 12907 C 1188.13 3.417 0.710096 0
M  V30 12908 C 1189.48 4.11931 1.02947 0
M  V30 12909 O 1190.5 3.4715 0.797817 0
M  V30 12910 O 1189.36 5.26423 1.46767 0
M  V30 12911 H 1186.45 0.786335 0.256137 0
M  V30 12912 H 1189 1.68061 -0.235298 0
M  V30 12913 H 1187.77 3.90727 -0.211604 0
M  V30 12914 H 1187.4 3.6866 1.48916 0
M  V30 12915 N 1188.39 -0.0785156 1.57404 0
M  V30 12916 C 1189.34 -1.11278 2.04255 0
M  V30 12917 C 1190.33 -1.40482 0.946633 0
M  V30 12918 O 1191.54 -1.39968 1.13177 0
M  V30 12919 H 1187.92 -0.376157 0.65116 0
M  V30 12920 H 1189.89 -0.691437 2.90279 0
M  V30 12921 C 1188.64 -2.42006 2.49656 0
M  V30 12922 H 1187.96 -2.20383 3.33574 0
M  V30 12923 H 1189.4 -3.12837 2.86197 0
M  V30 12924 C 1187.86 -3.07488 1.37669 0
M  V30 12925 O 1188.39 -3.95285 0.715036 0
M  V30 12926 N 1186.59 -2.68004 1.1235 0
M  V30 12927 H 1186.14 -1.96698 1.66336 0
M  V30 12928 H 1186.1 -3.12141 0.376238 0
M  V30 12929 N 1189.87 -1.5367 -0.349747 0
M  V30 12930 C 1190.82 -1.77604 -1.42972 0
M  V30 12931 C 1191.8 -0.631036 -1.48009 0
M  V30 12932 O 1193 -0.890228 -1.52983 0
M  V30 12933 C 1190.13 -1.98354 -2.80198 0
M  V30 12934 C 1189.21 -3.18901 -2.79576 0
M  V30 12935 N 1189.6 -4.40497 -2.48589 0
M  V30 12936 C 1187.9 -3.19945 -3.10727 0
M  V30 12937 C 1188.6 -5.22318 -2.56045 0
M  V30 12938 N 1187.58 -4.5889 -2.91412 0
M  V30 12939 H 1191.38 -2.69215 -1.17901 0
M  V30 12940 H 1188.89 -1.5251 -0.558062 0
M  V30 12941 H 1190.89 -2.13632 -3.58004 0
M  V30 12942 H 1189.55 -1.07981 -3.06219 0
M  V30 12943 H 1190.56 -4.67955 -2.21898 0
M  V30 12944 H 1187.24 -2.39519 -3.41961 0
M  V30 12945 H 1188.63 -6.29352 -2.35299 0
M  V30 12946 N 1191.35 0.610423 -1.45298 0
M  V30 12947 C 1192.59 1.37154 -1.49388 0
M  V30 12948 C 1192.93 1.93737 -0.134025 0
M  V30 12949 O 1192.2 1.74888 0.851138 0
M  V30 12950 C 1192.49 2.52155 -2.5708 0
M  V30 12951 C 1192.34 2.00786 -4.02498 0
M  V30 12952 C 1193.66 3.54294 -2.61082 0
M  V30 12953 H 1190.78 0.497346 -0.54389 0
M  V30 12954 H 1193.42 0.688358 -1.77092 0
M  V30 12955 H 1191.57 3.10434 -2.33587 0
M  V30 12956 H 1193.24 1.47178 -4.37191 0
M  V30 12957 H 1191.48 1.31809 -4.1329 0
M  V30 12958 H 1192.15 2.83674 -4.73533 0
M  V30 12959 H 1194.63 3.05851 -2.82125 0
M  V30 12960 H 1193.51 4.32254 -3.38301 0
M  V30 12961 H 1193.77 4.09726 -1.66063 0
M  V30 12962 N 1192.83 1.32541 0.852676 0
M  V30 12963 C 1193.77 1.21643 1.96142 0
M  V30 12964 C 1194.74 0.0981496 1.6581 0
M  V30 12965 O 1195.93 0.27404 1.88822 0
M  V30 12966 C 1193.07 0.947483 3.31838 0
M  V30 12967 C 1192.18 2.15074 3.74656 0
M  V30 12968 C 1191.32 1.81711 4.99154 0
M  V30 12969 C 1190.36 2.98346 5.34468 0
M  V30 12970 N 1189.49 2.65062 6.50143 0
M  V30 12971 H 1194.33 2.16479 2.04795 0
M  V30 12972 H 1191.87 1.07664 1.00234 0
M  V30 12973 H 1193.83 0.772038 4.09994 0
M  V30 12974 H 1192.46 0.0359112 3.2278 0
M  V30 12975 H 1191.51 2.43639 2.92137 0
M  V30 12976 H 1192.82 3.02314 3.96747 0
M  V30 12977 H 1191.98 1.60729 5.85022 0
M  V30 12978 H 1190.71 0.916875 4.79004 0
M  V30 12979 H 1189.72 3.19956 4.47111 0
M  V30 12980 H 1190.94 3.89104 5.56574 0
M  V30 12981 H 1188.89 1.77582 6.31507 0
M  V30 12982 H 1188.81 3.45832 6.72262 0
M  V30 12983 H 1190.08 2.47516 7.39159 0
M  V30 12984 N 1194.3 -1.0692 1.15784 0
M  V30 12985 C 1195.53 -1.83849 0.959903 0
M  V30 12986 C 1195.95 -1.8169 -0.486873 0
M  V30 12987 O 1195.31 -1.21305 -1.34739 0
M  V30 12988 C 1195.36 -3.28642 1.48414 0
M  V30 12989 O 1194.46 -4.0665 0.686249 0
M  V30 12990 H 1193.81 -0.569115 0.342059 0
M  V30 12991 H 1196.34 -1.34851 1.53871 0
M  V30 12992 H 1196.35 -3.7947 1.49888 0
M  V30 12993 H 1195.02 -3.29529 2.53739 0
M  V30 12994 H 1193.6 -3.65453 0.741501 0
M  V30 12995 N 1195.78 -0.955326 -1.25345 0
M  V30 12996 C 1197.06 -0.527828 -1.88344 0
M  V30 12997 C 1197.44 0.994911 -1.86185 0
M  V30 12998 O 1196.79 1.86099 -1.32587 0
M  V30 12999 C 1197 -1.10525 -3.31037 0
M  V30 13000 C 1198.35 -1.18253 -4.07801 0
M  V30 13001 O 1199.37 -1.05685 -3.4016 0
M  V30 13002 O 1198.23 -1.37978 -5.28795 0
M  V30 13003 H 1195.32 -0.174206 -0.808444 0
M  V30 13004 H 1197.87 -1.0488 -1.3341 0
M  V30 13005 H 1196.64 -2.14847 -3.27042 0
M  V30 13006 H 1196.26 -0.567568 -3.93528 0
M  V30 13007 N 1197.26 1.39987 -0.723979 0
M  V30 13008 C 1198.19 2.3332 -0.0917282 0
M  V30 13009 C 1199.17 1.53335 0.736361 0
M  V30 13010 O 1200.36 1.81771 0.683582 0
M  V30 13011 C 1197.49 3.3737 0.824549 0
M  V30 13012 C 1196.44 4.2788 0.101452 0
M  V30 13013 C 1195.77 5.22536 1.13401 0
M  V30 13014 C 1197.07 5.11649 -1.04939 0
M  V30 13015 H 1198.76 2.86441 -0.871318 0
M  V30 13016 H 1196.31 1.37725 -0.420448 0
M  V30 13017 H 1198.26 4.01607 1.27631 0
M  V30 13018 H 1196.98 2.82663 1.63613 0
M  V30 13019 H 1195.64 3.65107 -0.330569 0
M  V30 13020 H 1195.29 4.64131 1.93886 0
M  V30 13021 H 1194.99 5.83938 0.65502 0
M  V30 13022 H 1196.52 5.89651 1.58569 0
M  V30 13023 H 1197.93 5.69293 -0.6766 0
M  V30 13024 H 1196.33 5.82137 -1.45729 0
M  V30 13025 H 1197.4 4.47132 -1.8762 0
M  V30 13026 N 1198.74 0.470782 1.50404 0
M  V30 13027 C 1199.67 -0.313458 2.31386 0
M  V30 13028 C 1200.65 -0.990623 1.38278 0
M  V30 13029 O 1201.84 -0.987854 1.67198 0
M  V30 13030 C 1198.97 -1.39599 3.18009 0
M  V30 13031 C 1197.92 -0.840443 4.19667 0
M  V30 13032 C 1197.25 -2.02124 4.95025 0
M  V30 13033 C 1198.55 0.148055 5.2209 0
M  V30 13034 H 1200.24 0.362432 2.97198 0
M  V30 13035 H 1197.79 0.175745 1.42924 0
M  V30 13036 H 1199.74 -1.9521 3.73458 0
M  V30 13037 H 1198.46 -2.10064 2.50081 0
M  V30 13038 H 1197.12 -0.306302 3.65318 0
M  V30 13039 H 1196.77 -2.71286 4.23571 0
M  V30 13040 H 1196.47 -1.65574 5.6379 0
M  V30 13041 H 1197.99 -2.58226 5.5331 0
M  V30 13042 H 1199.41 -0.318874 5.72413 0
M  V30 13043 H 1197.8 0.427811 5.98573 0
M  V30 13044 H 1198.87 1.07404 4.72855 0
M  V30 13045 N 1200.22 -1.56282 0.203376 0
M  V30 13046 C 1201.17 -2.20822 -0.730784 0
M  V30 13047 C 1202.16 -1.18193 -1.21354 0
M  V30 13048 O 1203.37 -1.36318 -1.17547 0
M  V30 13049 H 1199.74 -0.707792 -0.254036 0
M  V30 13050 H 1201.71 -2.97955 -0.162825 0
M  V30 13051 C 1200.46 -2.88803 -1.93618 0
M  V30 13052 H 1199.78 -3.67521 -1.57379 0
M  V30 13053 H 1201.22 -3.37387 -2.56799 0
M  V30 13054 C 1199.68 -1.90285 -2.78017 0
M  V30 13055 O 1200.21 -1.40833 -3.76203 0
M  V30 13056 N 1198.42 -1.58332 -2.43679 0
M  V30 13057 H 1197.97 -1.9874 -1.63891 0
M  V30 13058 H 1197.92 -0.926722 -3.00432 0
M  V30 13059 N 1201.7 0.070167 -1.57444 0
M  V30 13060 C 1202.93 0.78076 -1.91279 0
M  V30 13061 C 1203.33 1.71559 -0.797754 0
M  V30 13062 O 1202.68 1.82156 0.237665 0
M  V30 13063 C 1202.74 1.62664 -3.20594 0
M  V30 13064 C 1202.4 0.861007 -4.48816 0
M  V30 13065 C 1203.4 0.179522 -5.1959 0
M  V30 13066 C 1201.08 0.8277 -4.95434 0
M  V30 13067 C 1203.08 -0.525024 -6.35234 0
M  V30 13068 C 1200.77 0.119382 -6.10983 0
M  V30 13069 C 1201.76 -0.555778 -6.80735 0
M  V30 13070 O 1201.45 -1.25268 -7.9408 0
M  V30 13071 H 1201.18 0.227053 -0.636728 0
M  V30 13072 H 1203.74 0.0442334 -2.05352 0
M  V30 13073 H 1201.97 2.40601 -3.02734 0
M  V30 13074 H 1203.66 2.21606 -3.40067 0
M  V30 13075 H 1204.42 0.19655 -4.84602 0
M  V30 13076 H 1200.3 1.34268 -4.41014 0
M  V30 13077 H 1203.85 -1.05257 -6.89613 0
M  V30 13078 H 1199.74 0.100287 -6.45422 0
M  V30 13079 H 1200.51 -1.16212 -8.10208 0
M  V30 13080 N 1203.17 1.53854 0.341593 0
M  V30 13081 C 1204.42 1.7041 1.07905 0
M  V30 13082 C 1204.74 0.475039 1.89744 0
M  V30 13083 O 1205.94 0.521589 2.66443 0
M  V30 13084 C 1204.4 3.01342 1.96776 0
M  V30 13085 C 1204.01 4.31592 1.20135 0
M  V30 13086 C 1205.75 3.27264 2.70367 0
M  V30 13087 C 1203.66 5.53598 2.08047 0
M  V30 13088 H 1202.59 0.635005 0.406553 0
M  V30 13089 H 1205.24 1.80353 0.338409 0
M  V30 13090 H 1203.62 2.85261 2.74667 0
M  V30 13091 H 1204.79 4.58382 0.471404 0
M  V30 13092 H 1203.11 4.12298 0.583039 0
M  V30 13093 H 1205.71 4.15607 3.36415 0
M  V30 13094 H 1206.05 2.44357 3.37039 0
M  V30 13095 H 1206.58 3.4413 1.99548 0
M  V30 13096 H 1203.32 6.39053 1.45914 0
M  V30 13097 H 1202.84 5.31052 2.78825 0
M  V30 13098 H 1204.52 5.89314 2.67055 0
M  V30 13099 N 1204.65 -0.602709 1.4562 0
M  V30 13100 C 1205.58 -1.72374 1.5751 0
M  V30 13101 C 1206.56 -1.64669 0.426389 0
M  V30 13102 O 1207.75 -1.82994 0.650143 0
M  V30 13103 C 1204.88 -3.10987 1.5461 0
M  V30 13104 C 1203.83 -3.33507 2.68248 0
M  V30 13105 C 1203.16 -4.72443 2.50403 0
M  V30 13106 C 1204.46 -3.23285 4.10224 0
M  V30 13107 H 1206.15 -1.62679 2.51348 0
M  V30 13108 H 1203.7 -0.781217 1.20967 0
M  V30 13109 H 1205.65 -3.89214 1.61525 0
M  V30 13110 H 1204.37 -3.21533 0.573049 0
M  V30 13111 H 1203.03 -2.57672 2.60769 0
M  V30 13112 H 1202.68 -4.79729 1.51226 0
M  V30 13113 H 1202.38 -4.88466 3.26611 0
M  V30 13114 H 1203.91 -5.52864 2.59179 0
M  V30 13115 H 1205.32 -3.91381 4.1892 0
M  V30 13116 H 1203.72 -3.50837 4.86861 0
M  V30 13117 H 1204.79 -2.20652 4.31788 0
M  V30 13118 N 1206.13 -1.32992 -0.845635 0
M  V30 13119 C 1207.41 -1.14671 -1.58461 0
M  V30 13120 C 1207.79 0.289498 -2.09106 0
M  V30 13121 O 1207.13 1.28751 -1.88773 0
M  V30 13122 C 1207.34 -2.18206 -2.72373 0
M  V30 13123 C 1208.69 -2.5201 -3.41726 0
M  V30 13124 O 1209.72 -2.16821 -2.82608 0
M  V30 13125 O 1208.58 -3.12368 -4.48429 0
M  V30 13126 H 1205.67 -0.443088 -0.698285 0
M  V30 13127 H 1208.22 -1.44552 -0.888978 0
M  V30 13128 H 1206.99 -3.14707 -2.32541 0
M  V30 13129 H 1206.61 -1.89372 -3.49605 0
M  V30 13130 N 1207.61 1.06304 -1.1635 0
M  V30 13131 C 1208.56 2.12032 -0.83825 0
M  V30 13132 C 1209.54 1.59864 0.182254 0
M  V30 13133 O 1210.73 1.7699 -0.0185576 0
M  V30 13134 C 1207.86 3.41603 -0.340968 0
M  V30 13135 C 1206.95 4.00596 -1.39225 0
M  V30 13136 N 1207.34 4.33703 -2.6026 0
M  V30 13137 C 1205.64 4.28199 -1.24748 0
M  V30 13138 C 1206.34 4.80595 -3.27725 0
M  V30 13139 N 1205.31 4.80023 -2.55105 0
M  V30 13140 H 1209.12 2.35475 -1.75866 0
M  V30 13141 H 1206.63 1.23845 -1.05053 0
M  V30 13142 H 1208.63 4.16804 -0.0895629 0
M  V30 13143 H 1207.29 3.19598 0.57337 0
M  V30 13144 H 1208.3 4.24055 -2.97318 0
M  V30 13145 H 1204.98 4.15638 -0.393887 0
M  V30 13146 H 1206.37 5.15416 -4.31041 0
M  V30 13147 N 1209.09 0.96196 1.24836 0
M  V30 13148 C 1210.5 0.667561 1.44968 0
M  V30 13149 C 1210.7 -0.772521 1.86103 0
M  V30 13150 O 1209.76 -1.54704 1.99557 0
M  V30 13151 C 1211.07 1.64675 2.516 0
M  V30 13152 C 1212.62 1.65874 2.65433 0
M  V30 13153 C 1213.09 2.62576 3.75257 0
M  V30 13154 N 1214.58 2.60984 3.82677 0
M  V30 13155 C 1215.32 3.32484 4.67163 0
M  V30 13156 N 1214.82 4.13482 5.55882 0
M  V30 13157 N 1216.61 3.21336 4.61193 0
M  V30 13158 H 1208.76 1.89248 0.964307 0
M  V30 13159 H 1211.02 0.814443 0.485167 0
M  V30 13160 H 1210.73 2.67572 2.2825 0
M  V30 13161 H 1210.6 1.415 3.49653 0
M  V30 13162 H 1212.99 0.636912 2.88145 0
M  V30 13163 H 1213.07 1.9311 1.67756 0
M  V30 13164 H 1212.71 3.6489 3.53295 0
M  V30 13165 H 1212.64 2.32622 4.72435 0
M  V30 13166 H 1215.14 2.02187 3.19263 0
M  V30 13167 H 1215.45 4.6494 6.17293 0
M  V30 13168 H 1213.79 4.17578 5.55566 0
M  V30 13169 H 1216.98 2.57524 3.90895 0
M  V30 13170 H 1217.16 3.77323 5.26812 0
M  V30 13171 N 1210.56 -1.39601 0.731392 0
M  V30 13172 C 1211.79 -2.05411 0.286532 0
M  V30 13173 C 1212.21 -1.54777 -1.06892 0
M  V30 13174 O 1211.57 -0.689942 -1.67659 0
M  V30 13175 C 1211.62 -3.594 0.293914 0
M  V30 13176 O 1210.72 -4.06072 -0.719657 0
M  V30 13177 H 1210.06 -0.650949 0.131004 0
M  V30 13178 H 1212.59 -1.78703 0.996305 0
M  V30 13179 H 1212.6 -4.0777 0.137052 0
M  V30 13180 H 1211.28 -3.95617 1.28298 0
M  V30 13181 H 1209.86 -3.69125 -0.529226 0
M  V30 13182 N 1212.04 -0.478751 -1.50152 0
M  V30 13183 C 1213.29 0.07531 -2.01559 0
M  V30 13184 C 1213.6 1.40089 -1.36508 0
M  V30 13185 O 1214.81 2.04035 -1.79115 0
M  V30 13186 C 1213.27 0.184714 -3.59426 0
M  V30 13187 C 1212.87 -1.13289 -4.33439 0
M  V30 13188 C 1214.62 0.690326 -4.18849 0
M  V30 13189 C 1212.53 -0.986866 -5.83108 0
M  V30 13190 H 1211.46 0.0319196 -0.753324 0
M  V30 13191 H 1214.11 -0.614809 -1.72894 0
M  V30 13192 H 1212.49 0.938788 -3.84711 0
M  V30 13193 H 1213.66 -1.89852 -4.19872 0
M  V30 13194 H 1211.98 -1.57021 -3.8566 0
M  V30 13195 H 1214.57 0.816733 -5.28426 0
M  V30 13196 H 1214.92 1.68361 -3.80737 0
M  V30 13197 H 1215.45 -0.00657846 -3.97799 0
M  V30 13198 H 1212.19 -1.95375 -6.25707 0
M  V30 13199 H 1211.71 -0.261752 -5.99229 0
M  V30 13200 H 1213.39 -0.656567 -6.4366 0
M  V30 13201 N 1213.52 1.56172 -0.211661 0
M  V30 13202 C 1214.45 2.22843 0.697375 0
M  V30 13203 C 1215.43 1.19689 1.20866 0
M  V30 13204 O 1216.62 1.48245 1.25447 0
M  V30 13205 C 1213.75 2.90067 1.90993 0
M  V30 13206 C 1212.7 3.99608 1.5329 0
M  V30 13207 C 1212.03 4.54078 2.82343 0
M  V30 13208 C 1213.33 5.17169 0.730333 0
M  V30 13209 H 1215.02 2.99065 0.141533 0
M  V30 13210 H 1212.57 1.43846 0.0666337 0
M  V30 13211 H 1214.52 3.35396 2.55123 0
M  V30 13212 H 1213.24 2.11276 2.49058 0
M  V30 13213 H 1211.9 3.54995 0.915115 0
M  V30 13214 H 1211.55 3.72029 3.38531 0
M  V30 13215 H 1211.25 5.28001 2.57853 0
M  V30 13216 H 1212.77 5.02119 3.47432 0
M  V30 13217 H 1214.19 5.5894 1.2751 0
M  V30 13218 H 1212.59 5.97262 0.582916 0
M  V30 13219 H 1213.66 4.84174 -0.265157 0
M  V30 13220 N 1215 -0.0618163 1.57479 0
M  V30 13221 C 1216.25 -0.757569 1.87364 0
M  V30 13222 C 1216.57 -1.77607 0.805025 0
M  V30 13223 O 1215.84 -1.95202 -0.165216 0
M  V30 13224 H 1214.42 -0.28278 0.691408 0
M  V30 13225 H 1217.08 -0.0355354 1.94868 0
M  V30 13226 H 1216.18 -1.26758 2.85199 0
M  V30 13227 N 1216.48 -1.54033 -0.333429 0
M  V30 13228 C 1217.39 -1.85737 -1.43314 0
M  V30 13229 C 1218.4 -0.748398 -1.57083 0
M  V30 13230 O 1219.58 -1.04171 -1.72367 0
M  V30 13231 C 1216.64 -2.06942 -2.78165 0
M  V30 13232 C 1215.7 -3.30774 -2.73655 0
M  V30 13233 C 1214.94 -3.50957 -4.02075 0
M  V30 13234 O 1215.16 -2.74774 -4.99855 0
M  V30 13235 O 1214.09 -4.44412 -4.05933 0
M  V30 13236 H 1217.92 -2.7923 -1.19434 0
M  V30 13237 H 1215.51 -1.39814 -0.526546 0
M  V30 13238 H 1217.39 -2.22276 -3.58011 0
M  V30 13239 H 1216.06 -1.16638 -3.01956 0
M  V30 13240 H 1214.97 -3.20835 -1.92395 0
M  V30 13241 H 1216.3 -4.21103 -2.54819 0
M  V30 13242 N 1217.95 0.594978 -1.45938 0
M  V30 13243 C 1218.89 1.71909 -1.51591 0
M  V30 13244 C 1219.9 1.57671 -0.405416 0
M  V30 13245 O 1221.09 1.65321 -0.673144 0
M  V30 13246 C 1218.19 3.10041 -1.3685 0
M  V30 13247 C 1217.36 3.50399 -2.61801 0
M  V30 13248 C 1216.42 4.67542 -2.41435 0
M  V30 13249 O 1215.45 4.74022 -3.15106 0
M  V30 13250 N 1216.65 5.6163 -1.46808 0
M  V30 13251 H 1219.41 1.67518 -2.48511 0
M  V30 13252 H 1216.97 0.78062 -1.41838 0
M  V30 13253 H 1218.97 3.86183 -1.21017 0
M  V30 13254 H 1217.54 3.08868 -0.481589 0
M  V30 13255 H 1216.76 2.64088 -2.92662 0
M  V30 13256 H 1218.04 3.74125 -3.44831 0
M  V30 13257 H 1217.44 5.5912 -0.860333 0
M  V30 13258 H 1216 6.37252 -1.36942 0
M  V30 13259 N 1219.43 1.33438 0.838571 0
M  V30 13260 C 1220.66 1.27951 1.62592 0
M  V30 13261 C 1221.08 -0.149502 1.88207 0
M  V30 13262 O 1220.43 -1.09174 1.46244 0
M  V30 13263 C 1220.48 2.0523 2.97595 0
M  V30 13264 O 1220.2 3.42557 2.73105 0
M  V30 13265 C 1221.71 2.06957 3.92025 0
M  V30 13266 H 1218.93 0.440796 0.505905 0
M  V30 13267 H 1221.47 1.75814 1.0445 0
M  V30 13268 H 1219.62 1.61049 3.52338 0
M  V30 13269 H 1220.04 3.82314 3.59076 0
M  V30 13270 H 1221.51 2.65481 4.83967 0
M  V30 13271 H 1221.99 1.0599 4.26219 0
M  V30 13272 H 1222.6 2.51158 3.4322 0
M  V30 13273 N 1220.91 -1.05686 1.16912 0
M  V30 13274 C 1221.86 -2.15417 0.877404 0
M  V30 13275 C 1222.85 -1.6868 -0.155986 0
M  V30 13276 O 1224.06 -1.79998 -0.00938156 0
M  V30 13277 H 1220.43 -0.70332 0.266168 0
M  V30 13278 H 1222.4 -2.37228 1.81012 0
M  V30 13279 C 1221.15 -3.45372 0.401696 0
M  V30 13280 H 1220.48 -3.81732 1.18832 0
M  V30 13281 H 1221.92 -4.2334 0.236418 0
M  V30 13282 C 1220.38 -3.25209 -0.87981 0
M  V30 13283 O 1220.91 -3.51322 -1.94771 0
M  V30 13284 N 1219.11 -2.78614 -0.825997 0
M  V30 13285 H 1218.66 -2.57564 0.0432439 0
M  V30 13286 H 1218.62 -2.65503 -1.68391 0
M  V30 13287 N 1222.39 -0.968567 -1.24324 0
M  V30 13288 C 1223.3 -0.50703 -2.29055 0
M  V30 13289 C 1224.31 0.432431 -1.68541 0
M  V30 13290 O 1225.49 0.30526 -1.99073 0
M  V30 13291 C 1222.56 0.194589 -3.46153 0
M  V30 13292 C 1221.62 -0.784805 -4.22066 0
M  V30 13293 C 1220.85 -0.116574 -5.33573 0
M  V30 13294 O 1221.07 1.09492 -5.59792 0
M  V30 13295 O 1220.01 -0.809171 -5.96436 0
M  V30 13296 H 1223.83 -1.3777 -2.70653 0
M  V30 13297 H 1221.42 -0.735645 -1.30033 0
M  V30 13298 H 1223.3 0.588684 -4.17268 0
M  V30 13299 H 1221.97 1.04021 -3.06531 0
M  V30 13300 H 1220.88 -1.22938 -3.53323 0
M  V30 13301 H 1222.21 -1.59887 -4.65507 0
M  V30 13302 N 1223.87 1.39211 -0.738786 0
M  V30 13303 C 1224.8 2.33209 -0.11647 0
M  V30 13304 C 1225.78 1.54108 0.720056 0
M  V30 13305 O 1226.96 1.82486 0.664264 0
M  V30 13306 C 1224.09 3.38226 0.78872 0
M  V30 13307 C 1223.05 4.27963 0.0560636 0
M  V30 13308 C 1222.37 5.2371 1.07852 0
M  V30 13309 C 1223.67 5.10508 -1.1036 0
M  V30 13310 H 1225.37 2.85501 -0.901649 0
M  V30 13311 H 1222.91 1.37272 -0.435032 0
M  V30 13312 H 1224.87 4.02938 1.23364 0
M  V30 13313 H 1223.59 2.84382 1.60606 0
M  V30 13314 H 1222.25 3.64735 -0.369274 0
M  V30 13315 H 1221.9 4.66161 1.88953 0
M  V30 13316 H 1221.6 5.846 0.593048 0
M  V30 13317 H 1223.12 5.91299 1.52307 0
M  V30 13318 H 1224.53 5.68544 -0.736943 0
M  V30 13319 H 1222.93 5.80558 -1.51895 0
M  V30 13320 H 1224 4.45117 -1.92352 0
M  V30 13321 N 1225.34 0.486708 1.49896 0
M  V30 13322 C 1226.57 -0.0622999 2.07306 0
M  V30 13323 C 1226.99 -1.31353 1.3464 0
M  V30 13324 O 1226.35 -1.76861 0.398752 0
M  V30 13325 C 1226.4 -0.313481 3.59235 0
M  V30 13326 O 1225.5 -1.39101 3.88233 0
M  V30 13327 H 1224.85 0.0198885 0.663702 0
M  V30 13328 H 1227.38 0.682232 1.92891 0
M  V30 13329 H 1227.39 -0.549302 4.04285 0
M  V30 13330 H 1226.06 0.600767 4.11538 0
M  V30 13331 H 1224.64 -1.14127 3.55006 0
M  V30 13332 N 1226.82 -1.56058 0.219941 0
M  V30 13333 C 1228.1 -1.90087 -0.46112 0
M  V30 13334 C 1228.48 -1.13705 -1.77861 0
M  V30 13335 O 1227.83 -0.245868 -2.27173 0
M  V30 13336 C 1228.04 -3.42786 -0.655644 0
M  V30 13337 C 1229.39 -4.13517 -0.963803 0
M  V30 13338 O 1230.41 -3.48376 -0.742488 0
M  V30 13339 O 1229.27 -5.28692 -1.38374 0
M  V30 13340 H 1226.36 -0.790311 -0.243595 0
M  V30 13341 H 1228.91 -1.67665 0.262005 0
M  V30 13342 H 1227.68 -3.90341 0.273738 0
M  V30 13343 H 1227.3 -3.70982 -1.43032 0
M  V30 13344 N 1228.3 0.053464 -1.57509 0
M  V30 13345 C 1229.23 1.06151 -2.07977 0
M  V30 13346 C 1230.21 1.3924 -0.977047 0
M  V30 13347 O 1231.4 1.48549 -1.25087 0
M  V30 13348 C 1228.53 2.36969 -2.53895 0
M  V30 13349 C 1227.48 2.18186 -3.6821 0
M  V30 13350 C 1226.81 3.54551 -4.00247 0
M  V30 13351 C 1228.11 1.588 -4.97574 0
M  V30 13352 H 1229.8 0.641483 -2.92447 0
M  V30 13353 H 1227.35 0.307122 -1.40687 0
M  V30 13354 H 1229.3 3.07797 -2.87817 0
M  V30 13355 H 1228.02 2.80986 -1.66476 0
M  V30 13356 H 1226.68 1.49796 -3.34599 0
M  V30 13357 H 1226.33 3.96171 -3.09932 0
M  V30 13358 H 1226.03 3.42816 -4.77232 0
M  V30 13359 H 1227.56 4.2678 -4.36682 0
M  V30 13360 H 1228.97 2.19515 -5.29609 0
M  V30 13361 H 1227.37 1.57711 -5.79006 0
M  V30 13362 H 1228.44 0.551254 -4.81756 0
M  V30 13363 N 1229.78 1.54207 0.325255 0
M  V30 13364 C 1231.03 1.72587 1.06497 0
M  V30 13365 C 1231.36 0.497228 1.87727 0
M  V30 13366 O 1230.63 -0.505804 1.87808 0
M  V30 13367 C 1230.92 3.00046 1.99109 0
M  V30 13368 C 1230.77 4.33158 1.21221 0
M  V30 13369 C 1232.09 3.23251 2.98658 0
M  V30 13370 H 1229.21 0.627974 0.38577 0
M  V30 13371 H 1231.85 1.869 0.34179 0
M  V30 13372 H 1230 2.87973 2.60775 0
M  V30 13373 H 1231.67 4.57111 0.620289 0
M  V30 13374 H 1229.91 4.30739 0.514462 0
M  V30 13375 H 1230.59 5.18558 1.89214 0
M  V30 13376 H 1233.06 3.34774 2.47114 0
M  V30 13377 H 1231.94 4.13796 3.60645 0
M  V30 13378 H 1232.2 2.40401 3.71026 0
M  V30 13379 N 1231.26 -0.58723 1.46251 0
M  V30 13380 C 1232.49 -1.37174 1.5489 0
M  V30 13381 C 1232.9 -1.87857 0.188445 0
M  V30 13382 O 1232.26 -1.63365 -0.813509 0
M  V30 13383 C 1232.31 -2.56237 2.55 0
M  V30 13384 O 1232.03 -2.07655 3.8576 0
M  V30 13385 C 1233.53 -3.48846 2.73535 0
M  V30 13386 H 1230.75 -0.419211 0.523931 0
M  V30 13387 H 1233.29 -0.714307 1.91619 0
M  V30 13388 H 1231.45 -3.1798 2.21287 0
M  V30 13389 H 1231.86 -2.85161 4.40208 0
M  V30 13390 H 1233.34 -4.2888 3.47514 0
M  V30 13391 H 1233.81 -4.00493 1.80282 0
M  V30 13392 H 1234.42 -2.92942 3.08326 0
M  V30 13393 N 1232.74 -1.33881 -0.831482 0
M  V30 13394 C 1233.96 -1.28961 -1.62431 0
M  V30 13395 C 1234.39 0.135249 -1.87613 0
M  V30 13396 O 1233.74 1.09426 -1.44553 0
M  V30 13397 C 1233.79 -2.07767 -2.94729 0
M  V30 13398 O 1232.9 -1.44133 -3.86393 0
M  V30 13399 H 1232.24 -0.443313 -0.494337 0
M  V30 13400 H 1234.77 -1.76555 -1.0339 0
M  V30 13401 H 1234.78 -2.18806 -3.44366 0
M  V30 13402 H 1233.45 -3.11367 -2.75724 0
M  V30 13403 H 1232.03 -1.41784 -3.44894 0
M  V30 13404 N 1234.21 1.05064 -1.1747 0
M  V30 13405 C 1235.44 1.81761 -0.988464 0
M  V30 13406 C 1235.86 1.83028 0.463272 0
M  V30 13407 O 1235.21 1.25846 1.32171 0
M  V30 13408 C 1235.26 3.2782 -1.5237 0
M  V30 13409 O 1234.99 3.26726 -2.91859 0
M  V30 13410 C 1236.49 4.212 -1.38223 0
M  V30 13411 H 1233.71 0.572712 -0.349631 0
M  V30 13412 H 1236.25 1.32477 -1.55789 0
M  V30 13413 H 1234.41 3.7437 -0.996272 0
M  V30 13414 H 1234.82 4.18151 -3.16623 0
M  V30 13415 H 1236.29 5.2166 -1.80485 0
M  V30 13416 H 1236.77 4.37962 -0.329491 0
M  V30 13417 H 1237.38 3.80506 -1.89988 0
M  V30 13418 N 1235.69 0.975146 1.23809 0
M  V30 13419 C 1236.62 0.530389 2.27396 0
M  V30 13420 C 1237.6 -0.433763 1.64476 0
M  V30 13421 O 1238.79 -0.32827 1.91405 0
M  V30 13422 C 1235.92 -0.173066 3.46869 0
M  V30 13423 C 1234.87 0.707844 4.22106 0
M  V30 13424 C 1234.2 -0.127527 5.34548 0
M  V30 13425 C 1235.5 1.99609 4.82652 0
M  V30 13426 H 1237.19 1.39622 2.64851 0
M  V30 13427 H 1234.74 0.672802 1.27316 0
M  V30 13428 H 1236.69 -0.495481 4.18477 0
M  V30 13429 H 1235.41 -1.0733 3.0846 0
M  V30 13430 H 1234.07 1.01364 3.52308 0
M  V30 13431 H 1233.72 -1.02814 4.9238 0
M  V30 13432 H 1233.42 0.458728 5.85807 0
M  V30 13433 H 1234.95 -0.444443 6.0898 0
M  V30 13434 H 1236.36 1.73878 5.46296 0
M  V30 13435 H 1234.76 2.52969 5.44175 0
M  V30 13436 H 1235.83 2.68629 4.03691 0
M  V30 13437 N 1237.17 -1.38817 0.746158 0
M  V30 13438 C 1238.12 -2.32373 0.102785 0
M  V30 13439 C 1239.11 -1.53638 -0.713556 0
M  V30 13440 O 1240.32 -1.69223 -0.613488 0
M  V30 13441 H 1236.69 -0.751861 0.0144405 0
M  V30 13442 H 1238.66 -2.84249 0.908032 0
M  V30 13443 C 1237.41 -3.38796 -0.781827 0
M  V30 13444 H 1236.74 -3.99467 -0.163057 0
M  V30 13445 H 1238.18 -4.06682 -1.19941 0
M  V30 13446 C 1236.63 -2.76756 -1.92113 0
M  V30 13447 O 1237.16 -2.65478 -3.0147 0
M  V30 13448 N 1235.37 -2.34676 -1.71392 0
M  V30 13449 H 1234.92 -2.44049 -0.824483 0
M  V30 13450 H 1234.88 -1.93508 -2.47794 0
M  V30 13451 N 1238.65 -0.49465 -1.49636 0
M  V30 13452 C 1239.87 0.051305 -2.07337 0
M  V30 13453 C 1240.3 1.30637 -1.35335 0
M  V30 13454 O 1239.66 1.76647 -0.408126 0
M  V30 13455 C 1239.7 0.294425 -3.59396 0
M  V30 13456 O 1238.81 1.3704 -3.88965 0
M  V30 13457 H 1238.15 -0.023408 -0.663587 0
M  V30 13458 H 1240.68 -0.692451 -1.92526 0
M  V30 13459 H 1240.69 0.527854 -4.04571 0
M  V30 13460 H 1239.36 -0.622583 -4.11214 0
M  V30 13461 H 1237.94 1.12242 -3.55607 0
M  V30 13462 N 1240.13 1.55939 -0.228214 0
M  V30 13463 C 1241.35 2.0332 0.409364 0
M  V30 13464 C 1241.78 1.10683 1.52088 0
M  V30 13465 O 1241.13 0.0962484 1.81044 0
M  V30 13466 C 1241.18 3.48877 0.911981 0
M  V30 13467 O 1240.29 3.59378 2.02289 0
M  V30 13468 H 1239.63 0.657625 0.0917909 0
M  V30 13469 H 1242.16 2.01605 -0.348802 0
M  V30 13470 H 1242.17 3.89331 1.22007 0
M  V30 13471 H 1240.84 4.15783 0.0984902 0
M  V30 13472 H 1239.42 3.30815 1.72093 0
M  V30 13473 N 1241.6 -0.0451101 1.57535 0
M  V30 13474 C 1242.85 -0.738072 1.87711 0
M  V30 13475 C 1243.17 -1.7737 0.824579 0
M  V30 13476 O 1244.37 -2.51812 1.01503 0
M  V30 13477 C 1242.83 -1.36373 3.33062 0
M  V30 13478 C 1242.44 -0.365283 4.46508 0
M  V30 13479 C 1244.18 -2.0375 3.72406 0
M  V30 13480 C 1242.09 -0.998371 5.82912 0
M  V30 13481 H 1241.02 -0.279413 0.700317 0
M  V30 13482 H 1243.67 0.00802425 1.83498 0
M  V30 13483 H 1242.05 -2.15899 3.31969 0
M  V30 13484 H 1243.22 0.402102 4.59042 0
M  V30 13485 H 1241.54 0.205505 4.15893 0
M  V30 13486 H 1244.14 -2.51939 4.71625 0
M  V30 13487 H 1244.48 -2.84869 3.03571 0
M  V30 13488 H 1245.01 -1.3102 3.75604 0
M  V30 13489 H 1241.75 -0.226935 6.55107 0
M  V30 13490 H 1241.27 -1.73598 5.74129 0
M  V30 13491 H 1242.95 -1.51044 6.29122 0
M  V30 13492 N 1243.08 -1.54377 -0.317073 0
M  V30 13493 C 1244.49 -1.64062 -0.891105 0
M  V30 13494 C 1244.84 -0.538863 -1.88655 0
M  V30 13495 O 1243.97 0.32718 -2.13912 0
M  V30 13496 C 1244.56 -2.97395 -1.62302 0
M  V30 13497 C 1243.12 -3.09253 -2.14568 0
M  V30 13498 C 1242.27 -2.59664 -0.973146 0
M  V30 13499 H 1245.22 -1.58418 -0.0944829 0
M  V30 13500 H 1245.24 -2.87918 -2.48764 0
M  V30 13501 H 1244.75 -3.77562 -0.898268 0
M  V30 13502 H 1242.86 -2.33774 -2.90139 0
M  V30 13503 H 1242.97 -4.15159 -2.39123 0
M  V30 13504 H 1241.33 -2.15719 -1.35416 0
M  V30 13505 H 1242.12 -3.42294 -0.262611 0
M  V30 13506 N 1244.56 0.579466 -1.4656 0
M  V30 13507 C 1245.81 1.33756 -1.52038 0
M  V30 13508 C 1246.14 1.93725 -0.173423 0
M  V30 13509 O 1245.39 1.77167 0.831293 0
M  V30 13510 C 1245.69 2.48417 -2.56951 0
M  V30 13511 C 1245.36 2.0642 -4.00876 0
M  V30 13512 C 1244.02 1.94682 -4.4006 0
M  V30 13513 C 1246.37 1.74066 -4.91274 0
M  V30 13514 C 1243.7 1.48852 -5.67503 0
M  V30 13515 C 1246.05 1.29714 -6.19158 0
M  V30 13516 C 1244.71 1.16555 -6.57245 0
M  V30 13517 H 1243.98 0.489447 -0.556347 0
M  V30 13518 H 1246.63 0.652176 -1.80053 0
M  V30 13519 H 1244.94 3.22416 -2.2261 0
M  V30 13520 H 1246.63 3.06629 -2.58418 0
M  V30 13521 H 1243.22 2.16492 -3.69904 0
M  V30 13522 H 1247.41 1.82019 -4.61717 0
M  V30 13523 H 1242.66 1.3731 -5.95782 0
M  V30 13524 H 1246.84 1.03734 -6.88631 0
M  V30 13525 H 1244.46 0.808193 -7.55892 0
M  V30 13526 N 1246.04 1.3432 0.824371 0
M  V30 13527 C 1246.95 1.27847 1.96704 0
M  V30 13528 C 1247.96 0.18641 1.72999 0
M  V30 13529 O 1249.14 0.412623 1.97128 0
M  V30 13530 C 1246.21 1.03231 3.30975 0
M  V30 13531 C 1245.27 2.21579 3.67697 0
M  V30 13532 C 1244.5 1.98128 4.95561 0
M  V30 13533 O 1244.72 0.938798 5.62621 0
M  V30 13534 O 1243.66 2.85041 5.30128 0
M  V30 13535 H 1247.48 2.23974 2.05108 0
M  V30 13536 H 1245.07 1.14512 0.959554 0
M  V30 13537 H 1246.95 0.912784 4.11395 0
M  V30 13538 H 1245.62 0.101425 3.23541 0
M  V30 13539 H 1244.53 2.3909 2.87727 0
M  V30 13540 H 1245.86 3.13052 3.79815 0
M  V30 13541 N 1247.52 -1.0444 1.18026 0
M  V30 13542 C 1248.45 -2.14297 0.927314 0
M  V30 13543 C 1249.43 -1.69575 -0.13357 0
M  V30 13544 O 1250.61 -1.94191 0.0182439 0
M  V30 13545 C 1247.74 -3.44397 0.448134 0
M  V30 13546 C 1246.7 -4.02723 1.44907 0
M  V30 13547 C 1246.02 -5.28257 0.827555 0
M  V30 13548 C 1247.32 -4.39331 2.82463 0
M  V30 13549 H 1249.02 -2.35715 1.84605 0
M  V30 13550 H 1246.56 -1.13281 0.889012 0
M  V30 13551 H 1248.52 -4.20606 0.258554 0
M  V30 13552 H 1247.24 -3.22654 -0.506159 0
M  V30 13553 H 1245.9 -3.28591 1.62552 0
M  V30 13554 H 1245.55 -5.02822 -0.13381 0
M  V30 13555 H 1245.25 -5.68242 1.49581 0
M  V30 13556 H 1246.77 -6.07147 0.64842 0
M  V30 13557 H 1248.18 -5.06543 2.68491 0
M  V30 13558 H 1246.58 -4.90355 3.45936 0
M  V30 13559 H 1247.65 -3.4933 3.36299 0
M  V30 13560 N 1248.99 -0.981699 -1.2329 0
M  V30 13561 C 1250.22 -0.669025 -1.96313 0
M  V30 13562 C 1250.64 0.757624 -1.72168 0
M  V30 13563 O 1250 1.51626 -0.993942 0
M  V30 13564 C 1250.05 -0.966875 -3.47396 0
M  V30 13565 O 1249.15 -0.0595933 -4.12357 0
M  V30 13566 H 1248.5 -0.251493 -0.61453 0
M  V30 13567 H 1251.03 -1.31564 -1.56691 0
M  V30 13568 H 1251.04 -0.904112 -3.97857 0
M  V30 13569 H 1249.71 -2.00651 -3.64296 0
M  V30 13570 H 1248.29 -0.176878 -3.7248 0
M  V30 13571 N 1250.47 1.3842 -0.753509 0
M  V30 13572 C 1251.7 2.04929 -0.319174 0
M  V30 13573 C 1252.12 1.56457 1.04416 0
M  V30 13574 O 1251.48 0.716527 1.6654 0
M  V30 13575 C 1251.53 3.58887 -0.351054 0
M  V30 13576 O 1250.63 4.07166 0.654963 0
M  V30 13577 H 1249.97 0.648782 -0.141343 0
M  V30 13578 H 1252.5 1.77096 -1.02461 0
M  V30 13579 H 1252.51 4.075 -0.201907 0
M  V30 13580 H 1251.19 3.93525 -1.34576 0
M  V30 13581 H 1249.77 3.69921 0.470435 0
M  V30 13582 N 1251.95 0.502579 1.49372 0
M  V30 13583 C 1253.18 -0.0380876 2.06565 0
M  V30 13584 C 1253.59 -1.31224 1.36297 0
M  V30 13585 O 1252.93 -1.78463 0.435517 0
M  V30 13586 C 1252.99 -0.360462 3.57688 0
M  V30 13587 C 1252.66 0.816203 4.49652 0
M  V30 13588 C 1253.65 1.70713 4.91073 0
M  V30 13589 C 1251.34 1.01545 4.91929 0
M  V30 13590 C 1253.33 2.78144 5.73511 0
M  V30 13591 C 1251.02 2.09294 5.74142 0
M  V30 13592 C 1252.02 2.97428 6.14838 0
M  V30 13593 O 1251.71 4.03317 6.95407 0
M  V30 13594 H 1251.44 0.0179548 0.675762 0
M  V30 13595 H 1253.99 0.699609 1.93118 0
M  V30 13596 H 1252.22 -1.15177 3.69149 0
M  V30 13597 H 1253.91 -0.839931 3.97115 0
M  V30 13598 H 1254.68 1.56502 4.59056 0
M  V30 13599 H 1250.56 0.338822 4.59753 0
M  V30 13600 H 1254.1 3.46965 6.05195 0
M  V30 13601 H 1250 2.235 6.05572 0
M  V30 13602 H 1250.77 4.00689 7.13716 0
M  V30 13603 N 1253.43 -1.55816 0.23648 0
M  V30 13604 C 1254.66 -2.03083 -0.395584 0
M  V30 13605 C 1255.07 -1.11599 -1.52286 0
M  V30 13606 O 1254.43 -0.128403 -1.82048 0
M  V30 13607 C 1254.48 -3.49776 -0.913197 0
M  V30 13608 O 1254.2 -4.37773 0.169151 0
M  V30 13609 C 1255.7 -4.12756 -1.617 0
M  V30 13610 H 1252.92 -0.66421 -0.0952146 0
M  V30 13611 H 1255.47 -2.01354 0.357299 0
M  V30 13612 H 1253.62 -3.52072 -1.6163 0
M  V30 13613 H 1254.03 -5.24029 -0.222217 0
M  V30 13614 H 1255.51 -5.17123 -1.93101 0
M  V30 13615 H 1255.99 -3.58631 -2.53537 0
M  V30 13616 H 1256.59 -4.14353 -0.958736 0
M  V30 13617 N 1254.91 0.036755 -1.57557 0
M  V30 13618 C 1255.85 1.05823 -2.07133 0
M  V30 13619 C 1256.85 1.37923 -0.983546 0
M  V30 13620 O 1258.05 1.36918 -1.16848 0
M  V30 13621 H 1254.43 0.358761 -0.660905 0
M  V30 13622 H 1256.4 0.614232 -2.9201 0
M  V30 13623 C 1255.15 2.35302 -2.55985 0
M  V30 13624 H 1254.47 2.11461 -3.393 0
M  V30 13625 H 1255.91 3.05139 -2.94391 0
M  V30 13626 C 1254.37 3.0373 -1.45773 0
M  V30 13627 O 1254.9 3.9325 -0.819587 0
M  V30 13628 N 1253.11 2.64931 -1.19416 0
M  V30 13629 H 1252.65 1.92219 -1.71492 0
M  V30 13630 H 1252.61 3.11033 -0.458865 0
M  V30 13631 N 1256.39 1.54543 0.308881 0
M  V30 13632 C 1257.66 1.64118 1.06418 0
M  V30 13633 C 1258.04 0.484402 2.05467 0
M  V30 13634 O 1257.39 -0.519752 2.2251 0
M  V30 13635 C 1257.6 3.01776 1.75306 0
M  V30 13636 C 1258.95 3.58324 2.27792 0
M  V30 13637 O 1259.97 3.04177 1.85351 0
M  V30 13638 O 1258.83 4.53113 3.05533 0
M  V30 13639 H 1255.93 0.665172 0.491401 0
M  V30 13640 H 1258.47 1.66889 0.307598 0
M  V30 13641 H 1257.24 3.77407 1.03341 0
M  V30 13642 H 1256.87 3.02748 2.57739 0
M  V30 13643 N 1257.86 -0.571685 1.46866 0
M  V30 13644 C 1258.81 -1.67992 1.58263 0
M  V30 13645 C 1259.78 -1.60535 0.426345 0
M  V30 13646 O 1260.97 -1.79584 0.644534 0
M  V30 13647 C 1258.11 -3.06327 1.58927 0
M  V30 13648 C 1257.22 -3.24328 2.85369 0
M  V30 13649 C 1256.35 -4.52976 2.77464 0
M  V30 13650 C 1255.39 -4.64359 3.98795 0
M  V30 13651 N 1254.53 -5.84345 3.89211 0
M  V30 13652 H 1259.37 -1.57589 2.52922 0
M  V30 13653 H 1256.91 -0.767883 1.25467 0
M  V30 13654 H 1258.86 -3.86411 1.57296 0
M  V30 13655 H 1257.49 -3.15601 0.677912 0
M  V30 13656 H 1256.55 -2.37774 2.96931 0
M  V30 13657 H 1257.86 -3.28605 3.7526 0
M  V30 13658 H 1257.01 -5.41303 2.74001 0
M  V30 13659 H 1255.75 -4.51155 1.85231 0
M  V30 13660 H 1254.76 -3.74448 4.02578 0
M  V30 13661 H 1255.98 -4.6795 4.92137 0
M  V30 13662 H 1253.93 -5.835 2.99772 0
M  V30 13663 H 1253.84 -5.89938 4.72768 0
M  V30 13664 H 1255.11 -6.75072 3.89741 0
M  V30 13665 N 1259.34 -1.34755 -0.817236 0
M  V30 13666 C 1260.59 -1.26771 -1.56882 0
M  V30 13667 C 1260.9 0.158962 -1.94953 0
M  V30 13668 O 1262.11 0.360996 -2.69089 0
M  V30 13669 C 1260.57 -2.22261 -2.83069 0
M  V30 13670 C 1260.17 -3.70216 -2.52277 0
M  V30 13671 C 1261.92 -2.23197 -3.61086 0
M  V30 13672 C 1259.82 -4.57559 -3.74691 0
M  V30 13673 H 1258.75 -0.470961 -0.588822 0
M  V30 13674 H 1261.41 -1.59955 -0.899254 0
M  V30 13675 H 1259.79 -1.82036 -3.5168 0
M  V30 13676 H 1260.96 -4.19014 -1.9174 0
M  V30 13677 H 1259.28 -3.71784 -1.87525 0
M  V30 13678 H 1261.87 -2.85673 -4.5199 0
M  V30 13679 H 1262.22 -1.2328 -3.97628 0
M  V30 13680 H 1262.75 -2.61897 -2.99424 0
M  V30 13681 H 1259.49 -5.58434 -3.43267 0
M  V30 13682 H 1259.01 -4.13494 -4.34491 0
M  V30 13683 H 1260.69 -4.72451 -4.42039 0
M  V30 13684 N 1260.82 1.03812 -1.18578 0
M  V30 13685 C 1261.75 2.13802 -0.938665 0
M  V30 13686 C 1262.73 1.69643 0.124575 0
M  V30 13687 O 1263.92 1.94179 -0.0285421 0
M  V30 13688 C 1261.05 3.44154 -0.466392 0
M  V30 13689 C 1260 4.01949 -1.47041 0
M  V30 13690 C 1259.33 5.27811 -0.855558 0
M  V30 13691 C 1260.63 4.37827 -2.84789 0
M  V30 13692 H 1262.32 2.34732 -1.85852 0
M  V30 13693 H 1259.87 1.12808 -0.895007 0
M  V30 13694 H 1261.82 4.20463 -0.280856 0
M  V30 13695 H 1260.54 3.22918 0.489041 0
M  V30 13696 H 1259.2 3.27725 -1.64293 0
M  V30 13697 H 1258.85 5.02886 0.107142 0
M  V30 13698 H 1258.55 5.67441 -1.52592 0
M  V30 13699 H 1260.07 6.06795 -0.680609 0
M  V30 13700 H 1261.49 5.05112 -2.71173 0
M  V30 13701 H 1259.88 4.88514 -3.48532 0
M  V30 13702 H 1260.95 3.47541 -3.38147 0
M  V30 13703 N 1262.3 0.988223 1.22768 0
M  V30 13704 C 1263.55 0.656941 1.90702 0
M  V30 13705 C 1263.86 -0.814058 1.77855 0
M  V30 13706 O 1265.07 -1.25673 2.40663 0
M  V30 13707 C 1263.52 1.12445 3.41883 0
M  V30 13708 C 1263.13 2.62034 3.63376 0
M  V30 13709 C 1264.87 0.867277 4.15546 0
M  V30 13710 C 1262.78 3.02412 5.08233 0
M  V30 13711 H 1261.71 0.242012 0.714105 0
M  V30 13712 H 1264.36 1.19716 1.39069 0
M  V30 13713 H 1262.74 0.512386 3.92671 0
M  V30 13714 H 1263.92 3.28546 3.23101 0
M  V30 13715 H 1262.23 2.85583 3.03037 0
M  V30 13716 H 1264.83 1.14471 5.22303 0
M  V30 13717 H 1265.17 -0.196611 4.15835 0
M  V30 13718 H 1265.71 1.4413 3.70771 0
M  V30 13719 H 1262.44 4.07957 5.1308 0
M  V30 13720 H 1261.96 2.406 5.49429 0
M  V30 13721 H 1263.64 2.93452 5.76624 0
M  V30 13722 N 1263.78 -1.38018 0.760839 0
M  V30 13723 C 1265.02 -1.99194 0.316984 0
M  V30 13724 C 1265.34 -1.61083 -1.10958 0
M  V30 13725 O 1266.54 -2.15281 -1.65428 0
M  V30 13726 C 1265 -3.56185 0.515792 0
M  V30 13727 C 1264.61 -4.03242 1.95191 0
M  V30 13728 C 1266.35 -4.24285 0.135013 0
M  V30 13729 C 1264.26 -5.52902 2.0989 0
M  V30 13730 H 1263.19 -0.745214 0.114771 0
M  V30 13731 H 1265.84 -1.5769 0.938415 0
M  V30 13732 H 1264.22 -3.95613 -0.174934 0
M  V30 13733 H 1265.4 -3.75086 2.6767 0
M  V30 13734 H 1263.71 -3.47889 2.28827 0
M  V30 13735 H 1266.31 -5.34233 0.223495 0
M  V30 13736 H 1266.65 -4.06158 -0.913322 0
M  V30 13737 H 1267.18 -3.90121 0.777868 0
M  V30 13738 H 1263.92 -5.75942 3.13003 0
M  V30 13739 H 1263.44 -5.82778 1.41881 0
M  V30 13740 H 1265.12 -6.18709 1.89229 0
M  V30 13741 N 1265.25 -0.510493 -1.49103 0
M  V30 13742 C 1266.48 0.0271324 -2.06582 0
M  V30 13743 C 1266.89 1.30499 -1.36991 0
M  V30 13744 O 1266.23 1.78229 -0.444976 0
M  V30 13745 C 1266.3 0.341488 -3.57874 0
M  V30 13746 C 1265.96 -0.840037 -4.49213 0
M  V30 13747 C 1266.96 -1.73315 -4.90161 0
M  V30 13748 C 1264.64 -1.04153 -4.91383 0
M  V30 13749 C 1266.64 -2.81182 -5.72028 0
M  V30 13750 C 1264.32 -2.12336 -5.73024 0
M  V30 13751 C 1265.32 -3.00684 -6.13252 0
M  V30 13752 O 1265.01 -4.06999 -6.93258 0
M  V30 13753 H 1264.74 -0.0215383 -0.675657 0
M  V30 13754 H 1267.3 -0.709841 -1.92744 0
M  V30 13755 H 1265.53 1.13218 -3.69755 0
M  V30 13756 H 1267.21 0.818859 -3.97554 0
M  V30 13757 H 1267.98 -1.58934 -4.58219 0
M  V30 13758 H 1263.86 -0.363199 -4.59567 0
M  V30 13759 H 1267.4 -3.50169 -6.03347 0
M  V30 13760 H 1263.3 -2.26708 -6.04379 0
M  V30 13761 H 1264.07 -4.04469 -7.11581 0
M  V30 13762 N 1266.73 1.55688 -0.24474 0
M  V30 13763 C 1267.98 1.98891 0.380603 0
M  V30 13764 C 1268.31 1.13283 1.58105 0
M  V30 13765 O 1267.56 0.183141 1.94841 0
M  V30 13766 C 1267.86 3.47487 0.835923 0
M  V30 13767 C 1267.53 4.5017 -0.256528 0
M  V30 13768 C 1266.19 4.7797 -0.556573 0
M  V30 13769 C 1268.54 5.1163 -0.994174 0
M  V30 13770 C 1265.87 5.64508 -1.59838 0
M  V30 13771 C 1268.22 5.99297 -2.02548 0
M  V30 13772 C 1266.88 6.25432 -2.3322 0
M  V30 13773 H 1266.15 0.727794 0.139273 0
M  V30 13774 H 1268.8 1.88235 -0.352113 0
M  V30 13775 H 1267.11 3.55464 1.64781 0
M  V30 13776 H 1268.8 3.78301 1.33001 0
M  V30 13777 H 1265.39 4.28598 -0.0125284 0
M  V30 13778 H 1269.58 4.90202 -0.775617 0
M  V30 13779 H 1264.83 5.83012 -1.84138 0
M  V30 13780 H 1269.01 6.45964 -2.60198 0
M  V30 13781 H 1266.63 6.92282 -3.14085 0
M  V30 13782 N 1268.21 -0.0283989 1.57574 0
M  V30 13783 C 1269.16 -1.04723 2.07692 0
M  V30 13784 C 1270.15 -1.37399 0.990847 0
M  V30 13785 O 1271.36 -1.36297 1.17572 0
M  V30 13786 H 1267.73 -0.355251 0.662798 0
M  V30 13787 H 1269.7 -0.598737 2.92331 0
M  V30 13788 C 1268.45 -2.33941 2.57229 0
M  V30 13789 H 1267.78 -2.09659 3.40416 0
M  V30 13790 H 1269.22 -3.03574 2.96005 0
M  V30 13791 C 1267.67 -3.02953 1.47381 0
M  V30 13792 O 1268.2 -3.9281 0.840431 0
M  V30 13793 N 1266.41 -2.64294 1.20819 0
M  V30 13794 H 1265.96 -1.91307 1.72509 0
M  V30 13795 H 1265.92 -3.10786 0.475353 0
M  V30 13796 N 1269.69 -1.54705 -0.300681 0
M  V30 13797 C 1271.1 -1.45926 -0.646359 0
M  V30 13798 C 1271.3 -0.65072 -1.90704 0
M  V30 13799 O 1270.36 -0.158547 -2.52002 0
M  V30 13800 C 1271.67 -2.89889 -0.799059 0
M  V30 13801 C 1273.22 -2.99934 -0.894923 0
M  V30 13802 C 1273.7 -4.45093 -1.07962 0
M  V30 13803 N 1275.19 -4.48804 -1.14581 0
M  V30 13804 C 1275.92 -5.58305 -1.30702 0
M  V30 13805 N 1275.42 -6.77729 -1.43719 0
M  V30 13806 N 1277.21 -5.45994 -1.33593 0
M  V30 13807 H 1269.36 -2.05742 0.527617 0
M  V30 13808 H 1271.62 -0.931817 0.174415 0
M  V30 13809 H 1271.33 -3.51655 0.0563954 0
M  V30 13810 H 1271.2 -3.37325 -1.68796 0
M  V30 13811 H 1273.59 -2.38281 -1.74086 0
M  V30 13812 H 1273.67 -2.55794 0.0179973 0
M  V30 13813 H 1273.32 -5.0734 -0.238444 0
M  V30 13814 H 1273.25 -4.86864 -2.00677 0
M  V30 13815 H 1275.74 -3.62766 -1.05874 0
M  V30 13816 H 1276.05 -7.56937 -1.55776 0
M  V30 13817 H 1274.4 -6.80594 -1.40774 0
M  V30 13818 H 1277.59 -4.51641 -1.23035 0
M  V30 13819 H 1277.76 -6.31381 -1.45813 0
M  V30 13820 N 1271.17 0.563888 -1.47167 0
M  V30 13821 C 1272.1 1.68137 -1.62025 0
M  V30 13822 C 1273.08 1.63481 -0.469899 0
M  V30 13823 O 1274.26 1.81206 -0.698432 0
M  V30 13824 C 1271.39 3.06779 -1.62801 0
M  V30 13825 C 1270.35 3.26278 -2.76996 0
M  V30 13826 C 1269.67 4.65638 -2.62841 0
M  V30 13827 C 1270.97 3.12295 -4.18651 0
M  V30 13828 H 1272.67 1.55958 -2.55573 0
M  V30 13829 H 1270.21 0.74887 -1.22996 0
M  V30 13830 H 1272.17 3.84795 -1.71787 0
M  V30 13831 H 1270.89 3.19901 -0.658097 0
M  V30 13832 H 1269.55 2.50668 -2.67509 0
M  V30 13833 H 1269.2 4.75551 -1.63892 0
M  V30 13834 H 1268.9 4.79635 -3.39447 0
M  V30 13835 H 1270.42 5.45798 -2.73746 0
M  V30 13836 H 1271.83 3.80136 -4.2915 0
M  V30 13837 H 1270.23 3.37805 -4.95992 0
M  V30 13838 H 1271.3 2.09126 -4.37486 0
M  V30 13839 N 1272.64 1.35187 0.810078 0
M  V30 13840 C 1273.87 1.31181 1.59609 0
M  V30 13841 C 1274.28 -0.113556 1.88859 0
M  V30 13842 O 1273.63 -1.07491 1.48968 0
M  V30 13843 C 1273.69 2.04749 2.95496 0
M  V30 13844 C 1273.35 3.53952 2.89079 0
M  V30 13845 C 1274.35 4.48612 2.6276 0
M  V30 13846 C 1272.03 3.96551 3.08306 0
M  V30 13847 C 1274.03 5.83846 2.5574 0
M  V30 13848 C 1271.71 5.31881 3.00909 0
M  V30 13849 C 1272.71 6.2534 2.74661 0
M  V30 13850 O 1272.4 7.58188 2.6722 0
M  V30 13851 H 1272.13 0.452285 0.502408 0
M  V30 13852 H 1274.69 1.78571 1.01497 0
M  V30 13853 H 1272.92 1.51992 3.55577 0
M  V30 13854 H 1274.61 1.93866 3.5661 0
M  V30 13855 H 1275.37 4.1702 2.47628 0
M  V30 13856 H 1271.25 3.24194 3.27749 0
M  V30 13857 H 1274.79 6.56765 2.35172 0
M  V30 13858 H 1270.69 5.63088 3.15598 0
M  V30 13859 H 1271.46 7.68073 2.82853 0
M  V30 13860 N 1274.12 -1.03182 1.19127 0
M  V30 13861 C 1275.07 -2.11394 0.926339 0
M  V30 13862 C 1276.04 -1.65528 -0.137703 0
M  V30 13863 O 1277.22 -1.908 0.00381804 0
M  V30 13864 C 1274.36 -3.41913 0.467894 0
M  V30 13865 C 1273.48 -4.01343 1.59837 0
M  V30 13866 C 1272.61 -5.1986 1.09175 0
M  V30 13867 C 1271.65 -5.71339 2.19632 0
M  V30 13868 N 1270.79 -6.81133 1.703 0
M  V30 13869 H 1275.63 -2.33393 1.85288 0
M  V30 13870 H 1273.17 -1.14473 0.923811 0
M  V30 13871 H 1275.12 -4.16796 0.183513 0
M  V30 13872 H 1273.75 -3.20034 -0.421656 0
M  V30 13873 H 1272.81 -3.23702 1.99803 0
M  V30 13874 H 1274.12 -4.35568 2.43068 0
M  V30 13875 H 1273.27 -6.0189 0.762427 0
M  V30 13876 H 1272.01 -4.87161 0.22914 0
M  V30 13877 H 1271.02 -4.87923 2.53399 0
M  V30 13878 H 1272.24 -6.06078 3.06344 0
M  V30 13879 H 1270.19 -6.50293 0.863415 0
M  V30 13880 H 1270.1 -7.1447 2.47122 0
M  V30 13881 H 1271.37 -7.66766 1.40321 0
M  V30 13882 N 1275.6 -0.99472 -1.22242 0
M  V30 13883 C 1276.55 -0.546504 -2.24236 0
M  V30 13884 C 1277.52 0.422101 -1.60647 0
M  V30 13885 O 1278.7 0.326452 -1.87987 0
M  V30 13886 C 1275.84 0.130909 -3.44852 0
M  V30 13887 C 1274.96 -0.879653 -4.22949 0
M  V30 13888 C 1274.09 -0.175569 -5.3091 0
M  V30 13889 C 1273.13 -1.17438 -6.00729 0
M  V30 13890 N 1272.27 -0.498474 -7.00328 0
M  V30 13891 H 1277.11 -1.42099 -2.61939 0
M  V30 13892 H 1274.64 -0.711755 -1.28734 0
M  V30 13893 H 1276.6 0.540596 -4.13683 0
M  V30 13894 H 1275.23 0.96917 -3.07907 0
M  V30 13895 H 1274.28 -1.40765 -3.53397 0
M  V30 13896 H 1275.6 -1.64017 -4.71062 0
M  V30 13897 H 1274.75 0.290756 -6.06003 0
M  V30 13898 H 1273.49 0.617438 -4.83776 0
M  V30 13899 H 1272.49 -1.65131 -5.24416 0
M  V30 13900 H 1273.72 -1.96829 -6.4995 0
M  V30 13901 H 1271.66 0.275063 -6.55423 0
M  V30 13902 H 1271.58 -1.19741 -7.46457 0
M  V30 13903 H 1272.85 -0.0550119 -7.79481 0
M  V30 13904 N 1277.08 1.37613 -0.768148 0
M  V30 13905 C 1278.33 1.99023 -0.327543 0
M  V30 13906 C 1278.64 1.61669 1.10103 0
M  V30 13907 O 1279.85 2.16155 1.64284 0
M  V30 13908 C 1278.3 3.55906 -0.534674 0
M  V30 13909 C 1277.91 4.02201 -1.97327 0
M  V30 13910 C 1279.65 4.24208 -0.157512 0
M  V30 13911 C 1277.56 5.51781 -2.12819 0
M  V30 13912 H 1276.49 0.744595 -0.118722 0
M  V30 13913 H 1279.14 1.5719 -0.946764 0
M  V30 13914 H 1277.52 3.95701 0.153951 0
M  V30 13915 H 1278.7 3.73661 -2.69655 0
M  V30 13916 H 1277.01 3.46671 -2.30669 0
M  V30 13917 H 1279.61 5.34107 -0.251824 0
M  V30 13918 H 1279.95 4.06636 0.89177 0
M  V30 13919 H 1280.49 3.89703 -0.798546 0
M  V30 13920 H 1277.23 5.74274 -3.16053 0
M  V30 13921 H 1276.75 5.82017 -1.4497 0
M  V30 13922 H 1278.42 6.17697 -1.92508 0
M  V30 13923 N 1278.56 0.518393 1.4883 0
M  V30 13924 C 1279.5 -0.250684 2.29435 0
M  V30 13925 C 1280.47 -0.944481 1.36634 0
M  V30 13926 O 1281.66 -0.947766 1.65596 0
M  V30 13927 C 1278.8 -1.29871 3.1973 0
M  V30 13928 C 1277.91 -0.61493 4.27601 0
M  V30 13929 C 1277.05 -1.64489 5.05091 0
M  V30 13930 C 1276.09 -0.943932 6.04778 0
M  V30 13931 N 1275.22 -1.91889 6.75369 0
M  V30 13932 H 1280.06 0.44288 2.94691 0
M  V30 13933 H 1277.6 0.230246 1.45287 0
M  V30 13934 H 1279.56 -1.91851 3.70471 0
M  V30 13935 H 1278.19 -1.96081 2.56422 0
M  V30 13936 H 1277.24 0.118552 3.80215 0
M  V30 13937 H 1278.55 -0.063994 4.98759 0
M  V30 13938 H 1277.71 -2.33928 5.59788 0
M  V30 13939 H 1276.44 -2.2297 4.33746 0
M  V30 13940 H 1275.45 -0.235407 5.49296 0
M  V30 13941 H 1276.67 -0.365383 6.78116 0
M  V30 13942 H 1274.62 -2.493 6.06783 0
M  V30 13943 H 1274.54 -1.41909 7.42562 0
M  V30 13944 H 1275.81 -2.60563 7.34661 0
M  V30 13945 N 1280.03 -1.55556 0.252993 0
M  V30 13946 C 1281.31 -1.91022 -0.420696 0
M  V30 13947 C 1281.69 -1.17452 -1.75409 0
M  V30 13948 O 1281.04 -0.294 -2.26601 0
M  V30 13949 C 1281.25 -3.441 -0.582787 0
M  V30 13950 C 1282.6 -4.15468 -0.875873 0
M  V30 13951 O 1283.62 -3.49872 -0.668425 0
M  V30 13952 O 1282.48 -5.31508 -1.27128 0
M  V30 13953 H 1279.57 -0.7953 -0.226776 0
M  V30 13954 H 1282.12 -1.67072 0.297511 0
M  V30 13955 H 1280.89 -3.89673 0.356474 0
M  V30 13956 H 1280.52 -3.73933 -1.3513 0
M  V30 13957 N 1281.51 0.0200419 -1.57587 0
M  V30 13958 C 1282.74 0.724241 -1.94344 0
M  V30 13959 C 1283.16 1.67612 -0.853688 0
M  V30 13960 O 1282.52 1.80303 0.189873 0
M  V30 13961 C 1282.57 1.44967 -3.30177 0
M  V30 13962 O 1281.67 2.56326 -3.23064 0
M  V30 13963 H 1281.01 0.194142 -0.634984 0
M  V30 13964 H 1283.54 -0.0271756 -2.04582 0
M  V30 13965 H 1283.55 1.81758 -3.65278 0
M  V30 13966 H 1282.23 0.75161 -4.09052 0
M  V30 13967 H 1280.81 2.22011 -2.99609 0
M  V30 13968 N 1282.99 1.54862 0.292472 0
M  V30 13969 C 1284.22 1.78877 1.04966 0
M  V30 13970 C 1284.64 0.550724 1.79857 0
M  V30 13971 O 1284 -0.499054 1.74296 0
M  V30 13972 C 1284.05 3.00106 1.99922 0
M  V30 13973 O 1283.15 2.73827 3.0837 0
M  V30 13974 H 1282.49 0.591802 0.301108 0
M  V30 13975 H 1285.02 2.01965 0.3273 0
M  V30 13976 H 1285.03 3.28309 2.42233 0
M  V30 13977 H 1283.71 3.89872 1.44821 0
M  V30 13978 H 1282.28 2.56665 2.70513 0
M  V30 13979 N 1284.47 -0.556076 1.47464 0
M  V30 13980 C 1285.72 -1.30955 1.53407 0
M  V30 13981 C 1286.03 -1.94559 0.201485 0
M  V30 13982 O 1287.24 -2.71144 0.138925 0
M  V30 13983 C 1285.69 -2.37476 2.70431 0
M  V30 13984 C 1285.3 -1.80057 4.10224 0
M  V30 13985 C 1287.04 -3.13997 2.85668 0
M  V30 13986 C 1284.95 -2.84365 5.18547 0
M  V30 13987 H 1283.88 -0.4924 0.571015 0
M  V30 13988 H 1286.53 -0.590459 1.73741 0
M  V30 13989 H 1284.91 -3.12304 2.43479 0
M  V30 13990 H 1286.09 -1.11593 4.47083 0
M  V30 13991 H 1284.4 -1.16116 3.99882 0
M  V30 13992 H 1287 -3.91892 3.63764 0
M  V30 13993 H 1287.34 -3.68253 1.94153 0
M  V30 13994 H 1287.88 -2.46281 3.12395 0
M  V30 13995 H 1284.62 -2.34963 6.11942 0
M  V30 13996 H 1284.14 -3.51235 4.86203 0
M  V30 13997 H 1285.81 -3.47836 5.45545 0
M  V30 13998 N 1285.95 -1.35615 -0.802897 0
M  V30 13999 C 1286.88 -1.31506 -1.92947 0
M  V30 14000 C 1287.86 -0.188843 -1.69048 0
M  V30 14001 O 1289.04 -0.384384 -1.90358 0
M  V30 14002 C 1286.17 -1.09001 -3.29752 0
M  V30 14003 C 1285.13 -2.18303 -3.68141 0
M  V30 14004 C 1284.45 -1.80959 -5.03148 0
M  V30 14005 C 1285.75 -3.60296 -3.78132 0
M  V30 14006 H 1287.45 -2.25771 -1.96642 0
M  V30 14007 H 1284.99 -1.08682 -0.944685 0
M  V30 14008 H 1286.95 -1.04766 -4.08169 0
M  V30 14009 H 1285.67 -0.111832 -3.26408 0
M  V30 14010 H 1284.33 -2.21642 -2.92011 0
M  V30 14011 H 1283.98 -0.817495 -4.96312 0
M  V30 14012 H 1283.68 -2.54129 -5.29804 0
M  V30 14013 H 1285.2 -1.78255 -5.84001 0
M  V30 14014 H 1286.62 -3.59259 -4.46773 0
M  V30 14015 H 1285.01 -4.32258 -4.16261 0
M  V30 14016 H 1286.08 -3.9618 -2.79588 0
M  V30 14017 N 1287.43 1.02549 -1.19673 0
M  V30 14018 C 1288.7 1.73106 -0.9107 0
M  V30 14019 C 1289.08 2.02897 0.582769 0
M  V30 14020 O 1288.43 1.68633 1.54192 0
M  V30 14021 C 1288.64 3.00535 -1.77425 0
M  V30 14022 C 1289.99 3.73976 -2.01065 0
M  V30 14023 O 1291.01 3.1047 -1.74605 0
M  V30 14024 O 1289.87 4.88153 -2.457 0
M  V30 14025 H 1286.97 0.754006 -0.339711 0
M  V30 14026 H 1289.51 1.08477 -1.30502 0
M  V30 14027 H 1288.28 2.74773 -2.78595 0
M  V30 14028 H 1287.91 3.72904 -1.37943 0
M  V30 14029 N 1288.9 1.00119 1.21713 0
M  V30 14030 C 1289.84 0.503256 2.22582 0
M  V30 14031 C 1290.81 -0.440971 1.56506 0
M  V30 14032 O 1292 -0.364583 1.84941 0
M  V30 14033 C 1289.13 -0.269453 3.37626 0
M  V30 14034 C 1288.17 0.622002 4.2194 0
M  V30 14035 S 1289 2.08218 4.93361 0
M  V30 14036 C 1290.16 1.3192 6.1184 0
M  V30 14037 H 1290.39 1.35798 2.64474 0
M  V30 14038 H 1287.93 0.808819 1.3152 0
M  V30 14039 H 1289.88 -0.709213 4.04327 0
M  V30 14040 H 1288.55 -1.09955 2.94226 0
M  V30 14041 H 1287.74 0.0270176 5.03993 0
M  V30 14042 H 1287.34 0.998876 3.60414 0
M  V30 14043 H 1289.63 0.591116 6.74916 0
M  V30 14044 H 1290.58 2.1153 6.75767 0
M  V30 14045 H 1290.98 0.828844 5.58382 0
M  V30 14046 N 1290.38 -1.37203 0.775435 0
M  V30 14047 C 1291.8 -1.52962 0.455488 0
M  V30 14048 C 1292 -1.73284 -1.02834 0
M  V30 14049 O 1291.05 -1.75631 -1.81411 0
M  V30 14050 C 1292.37 -2.72389 1.27377 0
M  V30 14051 C 1293.91 -2.86252 1.26604 0
M  V30 14052 C 1294.39 -4.08666 2.06775 0
M  V30 14053 N 1295.88 -4.15786 2.04148 0
M  V30 14054 C 1296.62 -5.09548 2.6296 0
M  V30 14055 N 1296.11 -6.08845 3.30574 0
M  V30 14056 N 1297.9 -5.02059 2.5277 0
M  V30 14057 H 1290.06 -1.22265 1.73681 0
M  V30 14058 H 1292.32 -0.595638 0.737509 0
M  V30 14059 H 1292.02 -2.63849 2.32544 0
M  V30 14060 H 1291.9 -3.66171 0.905467 0
M  V30 14061 H 1294.29 -2.94261 0.222345 0
M  V30 14062 H 1294.37 -1.93418 1.67401 0
M  V30 14063 H 1294.01 -4.01419 3.11168 0
M  V30 14064 H 1293.94 -5.00621 1.63358 0
M  V30 14065 H 1296.43 -3.44683 1.54926 0
M  V30 14066 H 1296.74 -6.76926 3.72815 0
M  V30 14067 H 1295.09 -6.09113 3.34674 0
M  V30 14068 H 1298.28 -4.23431 1.99559 0
M  V30 14069 H 1298.45 -5.74947 2.98898 0
M  V30 14070 N 1291.86 -0.526279 -1.48553 0
M  V30 14071 C 1293.09 0.00522012 -2.06599 0
M  V30 14072 C 1293.5 1.29039 -1.38368 0
M  V30 14073 O 1292.84 1.77747 -0.463854 0
M  V30 14074 C 1292.9 0.303512 -3.58216 0
M  V30 14075 C 1292.57 -0.887635 -4.48297 0
M  V30 14076 C 1293.56 -1.78504 -4.88295 0
M  V30 14077 C 1291.25 -1.09359 -4.90251 0
M  V30 14078 C 1293.24 -2.87233 -5.69013 0
M  V30 14079 C 1290.93 -2.18402 -5.7074 0
M  V30 14080 C 1291.93 -3.07172 -6.10028 0
M  V30 14081 O 1291.62 -4.14329 -6.88902 0
M  V30 14082 H 1291.35 -0.0287033 -0.67539 0
M  V30 14083 H 1293.9 -0.730244 -1.91981 0
M  V30 14084 H 1292.13 1.0929 -3.70935 0
M  V30 14085 H 1293.82 0.776647 -3.98401 0
M  V30 14086 H 1294.59 -1.63785 -4.56508 0
M  V30 14087 H 1290.47 -0.411922 -4.59156 0
M  V30 14088 H 1294.01 -3.56549 -5.99599 0
M  V30 14089 H 1289.91 -2.33106 -6.0194 0
M  V30 14090 H 1290.67 -4.11993 -7.07251 0
M  V30 14091 N 1293.34 1.5542 -0.261239 0
M  V30 14092 C 1294.25 2.25627 0.642625 0
M  V30 14093 C 1295.26 1.27732 1.18155 0
M  V30 14094 O 1296.44 1.60639 1.21479 0
M  V30 14095 C 1293.5 2.95303 1.8165 0
M  V30 14096 C 1292.57 4.08644 1.31563 0
M  V30 14097 C 1291.8 4.74988 2.43355 0
M  V30 14098 O 1292.02 4.40474 3.62407 0
M  V30 14099 O 1290.96 5.63217 2.12299 0
M  V30 14100 H 1294.78 3.03609 0.0743091 0
M  V30 14101 H 1292.37 1.49372 -0.0291754 0
M  V30 14102 H 1294.25 3.3914 2.50125 0
M  V30 14103 H 1292.92 2.2025 2.37217 0
M  V30 14104 H 1291.83 3.69294 0.597746 0
M  V30 14105 H 1293.16 4.85558 0.805878 0
M  V30 14106 N 1294.82 -0.0116844 1.57596 0
M  V30 14107 C 1295.76 -1.02514 2.08791 0
M  V30 14108 C 1296.76 -1.36341 1.00536 0
M  V30 14109 O 1297.96 -1.35042 1.19011 0
M  V30 14110 H 1294.34 -0.348201 0.666528 0
M  V30 14111 H 1296.31 -0.567698 2.9295 0
M  V30 14112 C 1295.06 -2.312 2.59696 0
M  V30 14113 H 1294.38 -2.06036 3.42621 0
M  V30 14114 H 1295.82 -3.00417 2.99208 0
M  V30 14115 C 1294.28 -3.01372 1.50586 0
M  V30 14116 O 1294.81 -3.91896 0.882046 0
M  V30 14117 N 1293.02 -2.62997 1.23616 0
M  V30 14118 H 1292.56 -1.89466 1.74529 0
M  V30 14119 H 1292.52 -3.10264 0.508289 0
M  V30 14120 N 1296.29 -1.55015 -0.284256 0
M  V30 14121 C 1297.24 -1.87898 -1.37102 0
M  V30 14122 C 1298.24 -0.754231 -1.51683 0
M  V30 14123 O 1299.44 -0.93844 -1.53601 0
M  V30 14124 H 1295.82 -0.596208 -0.458301 0
M  V30 14125 H 1297.79 -2.78704 -1.06613 0
M  V30 14126 C 1296.54 -2.15764 -2.72656 0
M  V30 14127 H 1295.86 -3.01792 -2.62224 0
M  V30 14128 H 1297.3 -2.42701 -3.47667 0
M  V30 14129 C 1295.76 -0.961561 -3.22886 0
M  V30 14130 O 1296.29 -0.190489 -4.01248 0
M  V30 14131 N 1294.49 -0.762338 -2.80422 0
M  V30 14132 H 1294.04 -1.39104 -2.16813 0
M  V30 14133 H 1294 0.0363482 -3.14379 0
M  V30 14134 N 1297.77 0.548248 -1.47757 0
M  V30 14135 C 1298.72 1.65453 -1.60916 0
M  V30 14136 C 1299.69 1.59836 -0.451831 0
M  V30 14137 O 1300.87 1.78536 -0.673023 0
M  V30 14138 C 1298.01 3.0376 -1.6378 0
M  V30 14139 C 1297.13 3.19747 -2.90492 0
M  V30 14140 C 1296.26 4.48505 -2.84635 0
M  V30 14141 C 1295.3 4.57956 -4.06132 0
M  V30 14142 N 1294.44 5.78079 -3.98458 0
M  V30 14143 H 1299.28 1.53545 -2.55398 0
M  V30 14144 H 1296.81 0.747826 -1.26673 0
M  V30 14145 H 1298.77 3.8386 -1.63424 0
M  V30 14146 H 1297.4 3.14483 -0.728036 0
M  V30 14147 H 1296.45 2.3302 -3.00676 0
M  V30 14148 H 1297.77 3.22594 -3.8044 0
M  V30 14149 H 1296.92 5.36875 -2.82577 0
M  V30 14150 H 1295.66 4.48151 -1.92385 0
M  V30 14151 H 1294.66 3.67995 -4.08484 0
M  V30 14152 H 1295.89 4.60062 -4.9952 0
M  V30 14153 H 1293.84 5.78657 -3.09017 0
M  V30 14154 H 1293.75 5.82342 -4.82093 0
M  V30 14155 H 1295.02 6.68786 -4.00431 0
M  V30 14156 N 1299.25 1.36039 0.795694 0
M  V30 14157 C 1300.5 1.29919 1.5533 0
M  V30 14158 C 1300.82 -0.123325 1.94109 0
M  V30 14159 O 1300.08 -1.09115 1.62457 0
M  V30 14160 C 1300.38 2.16166 2.84617 0
M  V30 14161 C 1300.04 3.64805 2.65006 0
M  V30 14162 C 1298.71 4.05319 2.59365 0
M  V30 14163 C 1301.06 4.59073 2.46781 0
M  V30 14164 C 1298.39 5.38251 2.33458 0
M  V30 14165 C 1300.74 5.92216 2.22402 0
M  V30 14166 C 1299.4 6.31862 2.1519 0
M  V30 14167 H 1298.67 0.475408 0.568391 0
M  V30 14168 H 1301.32 1.68035 0.918512 0
M  V30 14169 H 1299.62 1.70967 3.5253 0
M  V30 14170 H 1301.32 2.0876 3.42375 0
M  V30 14171 H 1297.91 3.32662 2.70248 0
M  V30 14172 H 1302.1 4.28651 2.50144 0
M  V30 14173 H 1297.35 5.67957 2.26352 0
M  V30 14174 H 1301.53 6.64833 2.07293 0
M  V30 14175 H 1299.15 7.34797 1.94878 0
M  V30 14176 N 1300.73 -1.01913 1.20215 0
M  V30 14177 C 1301.98 -1.74878 1.00502 0
M  V30 14178 C 1302.29 -1.90022 -0.463792 0
M  V30 14179 O 1303.5 -2.60055 -0.779982 0
M  V30 14180 C 1301.95 -3.1452 1.74943 0
M  V30 14181 C 1301.56 -3.07397 3.259 0
M  V30 14182 C 1303.3 -3.91713 1.63589 0
M  V30 14183 C 1301.21 -4.42032 3.92889 0
M  V30 14184 H 1300.14 -0.655603 0.372426 0
M  V30 14185 H 1302.79 -1.13978 1.4381 0
M  V30 14186 H 1301.17 -3.75946 1.24421 0
M  V30 14187 H 1302.35 -2.55294 3.83617 0
M  V30 14188 H 1300.66 -2.43698 3.37639 0
M  V30 14189 H 1303.26 -4.91316 2.1098 0
M  V30 14190 H 1303.6 -4.12074 0.591665 0
M  V30 14191 H 1304.14 -3.3691 2.11511 0
M  V30 14192 H 1300.88 -4.26874 4.97453 0
M  V30 14193 H 1300.4 -4.94151 3.39962 0
M  V30 14194 H 1302.07 -5.10884 3.96997 0
M  V30 14195 N 1302.21 -1.00763 -1.2118 0
M  V30 14196 C 1303.48 -0.607236 -1.85935 0
M  V30 14197 C 1303.86 0.915048 -1.90237 0
M  V30 14198 O 1303.21 1.80308 -1.40361 0
M  V30 14199 C 1303.42 -1.24466 -3.26051 0
M  V30 14200 C 1304.77 -1.35443 -4.02418 0
M  V30 14201 O 1305.79 -1.20018 -3.35372 0
M  V30 14202 O 1304.65 -1.60282 -5.22467 0
M  V30 14203 H 1301.75 -0.208338 -0.800328 0
M  V30 14204 H 1304.29 -1.10444 -1.28842 0
M  V30 14205 H 1303.06 -2.28524 -3.17635 0
M  V30 14206 H 1302.69 -0.733966 -3.90767 0
M  V30 14207 N 1303.68 1.3679 -0.7827 0
M  V30 14208 C 1304.93 1.98664 -0.348634 0
M  V30 14209 C 1305.25 1.62827 1.08382 0
M  V30 14210 O 1306.45 2.17886 1.61982 0
M  V30 14211 C 1304.91 3.55319 -0.572392 0
M  V30 14212 C 1304.52 4.00086 -2.01582 0
M  V30 14213 C 1306.26 4.24017 -0.202496 0
M  V30 14214 C 1304.17 5.49493 -2.18659 0
M  V30 14215 H 1303.1 0.743294 -0.126612 0
M  V30 14216 H 1305.75 1.56177 -0.963383 0
M  V30 14217 H 1304.13 3.95842 0.111973 0
M  V30 14218 H 1305.3 3.7078 -2.73603 0
M  V30 14219 H 1303.62 3.44205 -2.34333 0
M  V30 14220 H 1306.22 5.3381 -0.308459 0
M  V30 14221 H 1306.56 4.07559 0.84859 0
M  V30 14222 H 1307.09 3.88834 -0.839834 0
M  V30 14223 H 1303.83 5.7089 -3.22126 0
M  V30 14224 H 1303.35 5.80447 -1.51134 0
M  V30 14225 H 1305.03 6.15621 -1.99048 0
M  V30 14226 N 1305.16 0.53415 1.48272 0
M  V30 14227 C 1306.39 0.00368464 2.074 0
M  V30 14228 C 1306.81 -1.27003 1.38751 0
M  V30 14229 O 1306.17 -1.75502 0.454817 0
M  V30 14230 C 1306.22 -0.199034 3.6005 0
M  V30 14231 O 1305.32 -1.26679 3.92462 0
M  V30 14232 H 1304.66 0.0409936 0.662733 0
M  V30 14233 H 1307.19 0.743253 1.90622 0
M  V30 14234 H 1307.2 -0.420404 4.05828 0
M  V30 14235 H 1305.88 0.731391 4.09418 0
M  V30 14236 H 1304.46 -1.02775 3.58457 0
M  V30 14237 N 1306.64 -1.55279 0.269478 0
M  V30 14238 C 1307.89 -1.99077 -0.348224 0
M  V30 14239 C 1308.21 -1.15925 -1.568 0
M  V30 14240 O 1307.48 -0.247404 -1.94331 0
M  V30 14241 H 1306.06 -0.735307 -0.131653 0
M  V30 14242 H 1308.72 -1.91288 0.373506 0
M  V30 14243 H 1307.82 -3.05427 -0.641953 0
M  V30 14244 N 1308.12 0.00332656 -1.576 0
M  V30 14245 C 1309.35 0.69893 -1.94418 0
M  V30 14246 C 1309.76 1.68021 -0.8698 0
M  V30 14247 O 1309.1 1.83 0.160193 0
M  V30 14248 C 1309.16 1.4892 -3.27205 0
M  V30 14249 C 1308.83 0.669874 -4.52064 0
M  V30 14250 C 1309.82 -0.0410157 -5.19884 0
M  V30 14251 C 1307.51 0.616824 -4.98498 0
M  V30 14252 C 1309.5 -0.793976 -6.32436 0
M  V30 14253 C 1307.19 -0.139864 -6.1094 0
M  V30 14254 C 1308.19 -0.844001 -6.77765 0
M  V30 14255 O 1307.87 -1.58835 -7.88052 0
M  V30 14256 H 1307.61 0.199843 -0.645785 0
M  V30 14257 H 1310.16 -0.0429034 -2.05355 0
M  V30 14258 H 1308.39 2.27544 -3.12667 0
M  V30 14259 H 1310.08 2.06983 -3.4916 0
M  V30 14260 H 1310.85 -0.00916281 -4.84999 0
M  V30 14261 H 1306.72 1.15442 -4.46312 0
M  V30 14262 H 1310.27 -1.34411 -6.84529 0
M  V30 14263 H 1306.17 -0.173549 -6.45267 0
M  V30 14264 H 1306.93 -1.50471 -8.0455 0
M  V30 14265 N 1309.6 1.55164 0.276031 0
M  V30 14266 C 1310.84 1.7528 1.00604 0
M  V30 14267 C 1311.17 0.555256 1.86928 0
M  V30 14268 O 1310.44 -0.429917 1.91124 0
M  V30 14269 H 1309.02 0.646377 0.374441 0
M  V30 14270 H 1311.68 1.92562 0.300992 0
M  V30 14271 H 1310.77 2.65245 1.64473 0
M  V30 14272 N 1311.07 -0.540404 1.48045 0
M  V30 14273 C 1312.3 -1.32656 1.59427 0
M  V30 14274 C 1312.72 -1.86419 0.250924 0
M  V30 14275 O 1312.08 -1.63861 -0.775838 0
M  V30 14276 C 1312.13 -2.46062 2.63602 0
M  V30 14277 O 1311.23 -3.48794 2.20038 0
M  V30 14278 H 1310.58 -0.393334 0.534962 0
M  V30 14279 H 1313.11 -0.651363 1.93955 0
M  V30 14280 H 1313.12 -2.92396 2.84549 0
M  V30 14281 H 1311.79 -2.06291 3.61133 0
M  V30 14282 H 1310.37 -3.0865 2.0926 0
M  V30 14283 N 1312.55 -1.36459 -0.788468 0
M  V30 14284 C 1313.5 -1.30924 -1.92254 0
M  V30 14285 C 1314.49 -0.200866 -1.68205 0
M  V30 14286 O 1315.7 -0.367927 -1.762 0
M  V30 14287 H 1312.08 -0.407609 -0.631949 0
M  V30 14288 H 1314.05 -2.26695 -1.94041 0
M  V30 14289 C 1312.8 -1.11635 -3.29292 0
M  V30 14290 H 1312.12 -1.96168 -3.48365 0
M  V30 14291 H 1313.56 -1.11808 -4.08993 0
M  V30 14292 C 1312.02 0.178963 -3.36424 0
M  V30 14293 O 1312.55 1.16846 -3.8433 0
M  V30 14294 N 1310.75 0.223962 -2.89736 0
M  V30 14295 H 1310.3 -0.581888 -2.50942 0
M  V30 14296 H 1310.26 1.0903 -2.94889 0
M  V30 14297 N 1314.03 1.01274 -1.20754 0
M  V30 14298 C 1315.28 1.74342 -1.01428 0
M  V30 14299 C 1315.59 1.90265 0.453708 0
M  V30 14300 O 1316.8 2.60465 0.76618 0
M  V30 14301 C 1315.25 3.13588 -1.76609 0
M  V30 14302 C 1314.86 3.05664 -3.27526 0
M  V30 14303 C 1316.61 3.9084 -1.65664 0
M  V30 14304 C 1314.51 4.39942 -3.95228 0
M  V30 14305 H 1313.44 0.653619 -0.375897 0
M  V30 14306 H 1316.09 1.13214 -1.44412 0
M  V30 14307 H 1314.48 3.75281 -1.26413 0
M  V30 14308 H 1315.65 2.53256 -3.84965 0
M  V30 14309 H 1313.97 2.41904 -3.38927 0
M  V30 14310 H 1316.56 4.9019 -2.13583 0
M  V30 14311 H 1316.91 4.11754 -0.61351 0
M  V30 14312 H 1317.44 3.35783 -2.13294 0
M  V30 14313 H 1314.18 4.24229 -4.9971 0
M  V30 14314 H 1313.7 4.92342 -3.42578 0
M  V30 14315 H 1315.38 5.08771 -3.99701 0
M  V30 14316 N 1315.51 1.01404 1.20644 0
M  V30 14317 C 1316.73 0.720839 1.9447 0
M  V30 14318 C 1317.16 -0.711711 1.74116 0
M  V30 14319 O 1316.52 -1.48938 1.03379 0
M  V30 14320 C 1316.57 1.05864 3.4471 0
M  V30 14321 O 1315.67 0.168901 4.12054 0
M  V30 14322 H 1315.01 0.267698 0.607646 0
M  V30 14323 H 1317.54 1.35672 1.53147 0
M  V30 14324 H 1317.55 1.00928 3.9532 0
M  V30 14325 H 1316.23 2.1024 3.58848 0
M  V30 14326 H 1314.8 0.275572 3.7188 0
M  V30 14327 N 1316.99 -1.36373 0.789944 0
M  V30 14328 C 1318.24 -1.98476 0.359165 0
M  V30 14329 C 1318.55 -1.634 -1.07517 0
M  V30 14330 O 1319.76 -2.18742 -1.60824 0
M  V30 14331 C 1318.21 -3.55011 0.591228 0
M  V30 14332 C 1317.82 -3.99011 2.03701 0
M  V30 14333 C 1319.56 -4.23903 0.224979 0
M  V30 14334 C 1317.47 -5.48325 2.2157 0
M  V30 14335 H 1316.4 -0.742612 0.130552 0
M  V30 14336 H 1319.05 -1.55664 0.971652 0
M  V30 14337 H 1317.43 -3.95895 -0.0909788 0
M  V30 14338 H 1318.61 -3.69324 2.75566 0
M  V30 14339 H 1316.92 -3.42957 2.36155 0
M  V30 14340 H 1319.52 -5.33638 0.336764 0
M  V30 14341 H 1319.86 -4.08004 -0.826964 0
M  V30 14342 H 1320.4 -3.88383 0.860443 0
M  V30 14343 H 1317.13 -5.69173 3.25149 0
M  V30 14344 H 1316.65 -5.79637 1.54211 0
M  V30 14345 H 1318.33 -6.14556 2.0231 0
M  V30 14346 N 1318.47 -0.542005 -1.47987 0
M  V30 14347 C 1319.41 0.227398 -2.31486 0
M  V30 14348 C 1320.41 0.923984 -1.41982 0
M  V30 14349 O 1321.61 0.847 -1.58827 0
M  V30 14350 H 1317.99 0.0922034 -0.746326 0
M  V30 14351 H 1319.96 -0.49625 -2.94245 0
M  V30 14352 C 1318.71 1.25384 -3.24306 0
M  V30 14353 H 1318.03 0.727243 -3.9313 0
M  V30 14354 H 1319.47 1.76337 -3.85592 0
M  V30 14355 C 1317.93 2.29378 -2.46754 0
M  V30 14356 O 1318.46 3.36034 -2.201 0
M  V30 14357 N 1316.67 2.02905 -2.08033 0
M  V30 14358 H 1316.21 1.16186 -2.2991 0
M  V30 14359 H 1316.17 2.72705 -1.56458 0
M  V30 14360 N 1319.94 1.55134 -0.277709 0
M  V30 14361 C 1321.19 1.99259 0.337662 0
M  V30 14362 C 1321.51 1.16755 1.56183 0
M  V30 14363 O 1320.78 0.257707 1.94198 0
M  V30 14364 H 1319.36 0.735995 0.127751 0
M  V30 14365 H 1322.02 1.91087 -0.383646 0
M  V30 14366 H 1321.12 3.05763 0.625747 0
M  V30 14367 N 1321.42 0.00503138 1.57599 0
M  V30 14368 C 1322.37 -1.00294 2.09866 0
M  V30 14369 C 1323.36 -1.35267 1.01977 0
M  V30 14370 O 1324.57 -1.33772 1.20437 0
M  V30 14371 H 1320.94 -0.341112 0.670184 0
M  V30 14372 H 1322.92 -0.536595 2.93536 0
M  V30 14373 C 1321.66 -2.28432 2.62133 0
M  V30 14374 H 1320.99 -2.02391 3.44787 0
M  V30 14375 H 1322.43 -2.97227 3.02378 0
M  V30 14376 C 1320.89 -2.99758 1.53774 0
M  V30 14377 O 1321.42 -3.90939 0.923563 0
M  V30 14378 N 1319.62 -2.61671 1.26398 0
M  V30 14379 H 1319.17 -1.87605 1.76528 0
M  V30 14380 H 1319.13 -3.09707 0.541168 0
M  V30 14381 N 1322.9 -1.55308 -0.267798 0
M  V30 14382 C 1324.15 -1.7642 -1.00019 0
M  V30 14383 C 1324.48 -0.566559 -1.85752 0
M  V30 14384 O 1323.75 0.435752 -1.89556 0
M  V30 14385 C 1324.04 -3.07229 -1.87836 0
M  V30 14386 C 1323.89 -4.37358 -1.05061 0
M  V30 14387 C 1325.21 -3.34113 -2.86455 0
M  V30 14388 H 1322.33 -0.641859 -0.362197 0
M  V30 14389 H 1324.97 -1.8804 -0.272188 0
M  V30 14390 H 1323.12 -2.97454 -2.49907 0
M  V30 14391 H 1324.79 -4.59098 -0.450208 0
M  V30 14392 H 1323.03 -4.32351 -0.354242 0
M  V30 14393 H 1323.71 -5.25223 -1.69838 0
M  V30 14394 H 1326.18 -3.43715 -2.34519 0
M  V30 14395 H 1325.06 -4.26896 -3.45038 0
M  V30 14396 H 1325.32 -2.54005 -3.61848 0
M  V30 14397 N 1324.38 0.532545 -1.4833 0
M  V30 14398 C 1325.61 1.31141 -1.59642 0
M  V30 14399 C 1326.02 1.87476 -0.254835 0
M  V30 14400 O 1325.36 1.66985 0.765622 0
M  V30 14401 C 1325.42 2.50182 -2.58165 0
M  V30 14402 C 1325.08 2.14953 -4.03292 0
M  V30 14403 C 1326.08 1.70777 -4.91051 0
M  V30 14404 C 1323.77 2.25555 -4.4881 0
M  V30 14405 C 1325.76 1.37665 -6.22356 0
M  V30 14406 C 1323.45 1.92055 -5.80136 0
M  V30 14407 C 1324.45 1.48181 -6.66732 0
M  V30 14408 O 1324.13 1.15119 -7.95615 0
M  V30 14409 H 1323.87 0.405164 -0.541127 0
M  V30 14410 H 1326.42 0.649423 -1.94863 0
M  V30 14411 H 1324.65 3.19353 -2.1806 0
M  V30 14412 H 1326.34 3.12246 -2.5934 0
M  V30 14413 H 1327.1 1.62059 -4.57124 0
M  V30 14414 H 1322.98 2.5866 -3.81597 0
M  V30 14415 H 1326.53 1.03348 -6.89902 0
M  V30 14416 H 1322.42 2.00413 -6.136 0
M  V30 14417 H 1323.19 1.28539 -8.08344 0
M  V30 14418 N 1325.86 1.36875 0.78122 0
M  V30 14419 C 1327.1 1.30886 1.53466 0
M  V30 14420 C 1327.42 -0.107218 1.95306 0
M  V30 14421 O 1328.62 -0.289525 2.69952 0
M  V30 14422 C 1327.08 2.29688 2.77076 0
M  V30 14423 C 1326.69 3.76775 2.42373 0
M  V30 14424 C 1328.43 2.32692 3.55042 0
M  V30 14425 C 1326.34 4.67332 3.62428 0
M  V30 14426 H 1325.27 0.486408 0.576128 0
M  V30 14427 H 1327.92 1.62283 0.856529 0
M  V30 14428 H 1326.3 1.91296 3.4673 0
M  V30 14429 H 1327.48 4.2395 1.80563 0
M  V30 14430 H 1325.79 3.76625 1.77602 0
M  V30 14431 H 1328.39 2.97556 4.44257 0
M  V30 14432 H 1328.73 1.33779 3.94219 0
M  V30 14433 H 1329.26 2.69743 2.92375 0
M  V30 14434 H 1326 5.67339 3.2834 0
M  V30 14435 H 1325.52 4.24868 4.23376 0
M  V30 14436 H 1327.2 4.84005 4.29358 0
M  V30 14437 N 1327.33 -1.00632 1.21289 0
M  V30 14438 C 1328.56 -1.77709 1.05371 0
M  V30 14439 C 1328.97 -1.84933 -0.39956 0
M  V30 14440 O 1328.31 -1.30881 -1.28903 0
M  V30 14441 C 1328.38 -3.23206 1.5741 0
M  V30 14442 C 1328.04 -3.39563 3.05852 0
M  V30 14443 C 1329.04 -3.27952 4.03415 0
M  V30 14444 C 1326.72 -3.65048 3.4503 0
M  V30 14445 C 1328.72 -3.41587 5.38142 0
M  V30 14446 C 1326.4 -3.78325 4.7991 0
M  V30 14447 C 1327.4 -3.66601 5.76275 0
M  V30 14448 O 1327.09 -3.79458 7.08708 0
M  V30 14449 H 1326.82 -0.565369 0.370585 0
M  V30 14450 H 1329.38 -1.27483 1.6105 0
M  V30 14451 H 1327.61 -3.74562 0.96126 0
M  V30 14452 H 1329.29 -3.81953 1.37356 0
M  V30 14453 H 1330.06 -3.0819 3.74492 0
M  V30 14454 H 1325.94 -3.73256 2.70557 0
M  V30 14455 H 1329.48 -3.32353 6.13341 0
M  V30 14456 H 1325.38 -3.97591 5.08519 0
M  V30 14457 H 1326.15 -3.96413 7.161 0
M  V30 14458 N 1328.81 -1.02043 -1.20104 0
M  V30 14459 C 1330.04 -0.731142 -1.94085 0
M  V30 14460 C 1330.46 0.702467 -1.74491 0
M  V30 14461 O 1329.82 1.48387 -1.04168 0
M  V30 14462 C 1329.87 -1.07691 -3.44144 0
M  V30 14463 O 1328.97 -0.190751 -4.11959 0
M  V30 14464 H 1328.31 -0.270917 -0.606218 0
M  V30 14465 H 1330.84 -1.36483 -1.52426 0
M  V30 14466 H 1330.85 -1.03023 -3.94779 0
M  V30 14467 H 1329.53 -2.1214 -3.57728 0
M  V30 14468 H 1328.1 -0.29529 -3.71729 0
M  V30 14469 N 1330.29 1.35952 -0.797165 0
M  V30 14470 C 1331.52 2.0328 -0.385316 0
M  V30 14471 C 1331.93 1.60095 1.00076 0
M  V30 14472 O 1331.29 0.794014 1.64322 0
M  V30 14473 C 1331.34 3.5871 -0.448284 0
M  V30 14474 O 1331.06 4.00323 -1.7797 0
M  V30 14475 C 1332.56 4.43291 -0.0280465 0
M  V30 14476 H 1329.78 0.652192 -0.157756 0
M  V30 14477 H 1332.33 1.73769 -1.07817 0
M  V30 14478 H 1330.48 3.86903 0.196224 0
M  V30 14479 H 1330.9 4.94941 -1.73592 0
M  V30 14480 H 1332.37 5.51862 -0.123234 0
M  V30 14481 H 1332.85 4.27059 1.02552 0
M  V30 14482 H 1333.45 4.20375 -0.645343 0
M  V30 14483 N 1331.77 0.549846 1.47697 0
M  V30 14484 C 1332.72 -0.215119 2.31603 0
M  V30 14485 C 1333.71 -0.916441 1.4247 0
M  V30 14486 O 1334.92 -0.838565 1.59274 0
M  V30 14487 H 1331.29 -0.0882441 0.746805 0
M  V30 14488 H 1333.26 0.511847 2.93977 0
M  V30 14489 C 1332.01 -1.23662 3.24966 0
M  V30 14490 H 1331.33 -0.706384 3.9351 0
M  V30 14491 H 1332.77 -1.7429 3.86522 0
M  V30 14492 C 1331.23 -2.28066 2.47967 0
M  V30 14493 O 1331.76 -3.34862 2.21879 0
M  V30 14494 N 1329.97 -2.01799 2.09106 0
M  V30 14495 H 1329.52 -1.14965 2.30523 0
M  V30 14496 H 1329.47 -2.71872 1.57902 0
M  V30 14497 N 1333.25 -1.54984 0.285932 0
M  V30 14498 C 1334.66 -1.59455 -0.0679061 0
M  V30 14499 C 1334.86 -1.30308 -1.53695 0
M  V30 14500 O 1333.92 -1.06918 -2.28746 0
M  V30 14501 C 1335.23 -2.9903 0.316469 0
M  V30 14502 C 1336.78 -3.11885 0.263982 0
M  V30 14503 C 1337.25 -4.53744 0.622956 0
M  V30 14504 N 1338.75 -4.59618 0.574917 0
M  V30 14505 C 1339.48 -5.67429 0.825339 0
M  V30 14506 N 1338.98 -6.83341 1.14094 0
M  V30 14507 N 1340.77 -5.57028 0.75341 0
M  V30 14508 H 1332.92 -1.72194 1.2435 0
M  V30 14509 H 1335.18 -0.80348 0.503114 0
M  V30 14510 H 1334.89 -3.25232 1.33855 0
M  V30 14511 H 1334.76 -3.75688 -0.337371 0
M  V30 14512 H 1337.15 -2.85441 -0.748832 0
M  V30 14513 H 1337.23 -2.37416 0.952233 0
M  V30 14514 H 1336.88 -4.80915 1.63351 0
M  V30 14515 H 1336.81 -5.26528 -0.0872039 0
M  V30 14516 H 1339.3 -3.76356 0.341305 0
M  V30 14517 H 1339.61 -7.61471 1.3184 0
M  V30 14518 H 1337.95 -6.8493 1.17883 0
M  V30 14519 H 1341.15 -4.6535 0.506611 0
M  V30 14520 H 1341.32 -6.4097 0.95195 0
M  V30 14521 N 1334.72 -0.0133892 -1.57594 0
M  V30 14522 C 1335.67 0.991796 -2.10395 0
M  V30 14523 C 1336.67 1.34724 -1.02693 0
M  V30 14524 O 1337.87 1.33131 -1.21145 0
M  V30 14525 H 1334.25 0.337553 -0.671984 0
M  V30 14526 H 1336.22 0.52102 -2.93816 0
M  V30 14527 C 1334.97 2.27039 -2.63341 0
M  V30 14528 H 1334.29 2.00559 -3.45855 0
M  V30 14529 H 1335.73 2.95619 -3.0395 0
M  V30 14530 C 1334.19 2.98939 -1.55362 0
M  V30 14531 O 1334.72 3.90444 -0.944282 0
M  V30 14532 N 1332.93 2.60997 -1.27784 0
M  V30 14533 H 1332.47 1.86666 -1.77521 0
M  V30 14534 H 1332.43 3.09416 -0.557585 0
M  V30 14535 N 1336.2 1.55448 0.259558 0
M  V30 14536 C 1337.13 1.85678 1.34373 0
M  V30 14537 C 1338.15 0.742155 1.449 0
M  V30 14538 O 1339.34 1.02015 1.46476 0
M  V30 14539 C 1336.44 2.01668 2.72366 0
M  V30 14540 C 1335.61 3.32434 2.84265 0
M  V30 14541 C 1334.67 3.38322 4.03019 0
M  V30 14542 O 1333.69 4.11616 3.93143 0
M  V30 14543 N 1334.9 2.66697 5.1561 0
M  V30 14544 H 1337.66 2.79261 1.08781 0
M  V30 14545 H 1335.22 1.5553 0.449672 0
M  V30 14546 H 1337.21 2.02963 3.50126 0
M  V30 14547 H 1335.78 1.14889 2.90722 0
M  V30 14548 H 1335 3.43564 1.93281 0
M  V30 14549 H 1336.29 4.18649 2.89155 0
M  V30 14550 H 1335.69 2.06857 5.26523 0
M  V30 14551 H 1334.25 2.73699 5.91551 0
M  V30 14552 N 1337.68 -0.524672 1.4861 0
M  V30 14553 C 1338.93 -1.28021 1.56898 0
M  V30 14554 C 1339.26 -1.92948 0.245203 0
M  V30 14555 O 1338.51 -1.8013 -0.764966 0
M  V30 14556 C 1338.81 -2.3871 2.65993 0
M  V30 14557 C 1338.48 -1.914 4.08261 0
M  V30 14558 C 1337.14 -1.78215 4.46982 0
M  V30 14559 C 1339.49 -1.55713 4.97396 0
M  V30 14560 C 1336.82 -1.27687 5.72637 0
M  V30 14561 C 1339.17 -1.06645 6.23546 0
M  V30 14562 C 1337.83 -0.920818 6.61118 0
M  V30 14563 H 1337.1 -0.468461 0.57413 0
M  V30 14564 H 1339.75 -0.584901 1.82349 0
M  V30 14565 H 1338.06 -3.13932 2.34422 0
M  V30 14566 H 1339.75 -2.96827 2.6962 0
M  V30 14567 H 1336.34 -2.02614 3.77684 0
M  V30 14568 H 1340.53 -1.64757 4.68155 0
M  V30 14569 H 1335.78 -1.15103 6.00468 0
M  V30 14570 H 1339.96 -0.781048 6.92006 0
M  V30 14571 H 1337.58 -0.527091 7.5837 0
M  V30 14572 N 1339.16 -1.37287 -0.77395 0
M  V30 14573 C 1340.41 -1.32112 -1.5294 0
M  V30 14574 C 1340.73 0.0946137 -1.9477 0
M  V30 14575 O 1340 1.03817 -1.66129 0
M  V30 14576 H 1338.58 -0.486047 -0.567245 0
M  V30 14577 H 1341.24 -1.71752 -0.921263 0
M  V30 14578 H 1340.34 -1.95873 -2.42982 0
M  V30 14579 N 1340.64 0.999871 -1.21821 0
M  V30 14580 C 1341.89 1.73257 -1.03271 0
M  V30 14581 C 1342.2 1.90736 0.433502 0
M  V30 14582 O 1343.4 2.61263 0.738511 0
M  V30 14583 C 1341.86 3.11697 -1.79925 0
M  V30 14584 C 1341.47 3.02173 -3.3075 0
M  V30 14585 C 1343.21 3.89061 -1.698 0
M  V30 14586 C 1341.12 4.35725 -3.99872 0
M  V30 14587 H 1340.05 0.649595 -0.382809 0
M  V30 14588 H 1342.7 1.11676 -1.45605 0
M  V30 14589 H 1341.08 3.73919 -1.30386 0
M  V30 14590 H 1342.26 2.49158 -3.8763 0
M  V30 14591 H 1340.57 2.38296 -3.41473 0
M  V30 14592 H 1343.17 4.87897 -2.1877 0
M  V30 14593 H 1343.51 4.11081 -0.657148 0
M  V30 14594 H 1344.04 3.33502 -2.16844 0
M  V30 14595 H 1340.78 4.18906 -5.04181 0
M  V30 14596 H 1340.3 4.8868 -3.47781 0
M  V30 14597 H 1341.98 5.04503 -4.05075 0
M  V30 14598 N 1342.11 1.02678 1.19562 0
M  V30 14599 C 1343.34 0.740493 1.92874 0
M  V30 14600 C 1343.75 -0.704287 1.75603 0
M  V30 14601 O 1343.1 -1.49042 1.07389 0
M  V30 14602 C 1343.16 1.00929 3.45041 0
M  V30 14603 C 1342.82 2.4452 3.86081 0
M  V30 14604 C 1343.82 3.42647 3.9101 0
M  V30 14605 C 1341.5 2.78865 4.1778 0
M  V30 14606 C 1343.5 4.73175 4.27065 0
M  V30 14607 C 1341.18 4.09603 4.53507 0
M  V30 14608 C 1342.18 5.06568 4.58124 0
M  V30 14609 O 1341.87 6.34965 4.93026 0
M  V30 14610 H 1341.6 0.270435 0.619549 0
M  V30 14611 H 1344.16 1.37369 1.52706 0
M  V30 14612 H 1342.39 0.31895 3.85382 0
M  V30 14613 H 1344.08 0.712994 3.99589 0
M  V30 14614 H 1344.84 3.17452 3.66673 0
M  V30 14615 H 1340.72 2.04071 4.13372 0
M  V30 14616 H 1344.26 5.48857 4.30583 0
M  V30 14617 H 1340.16 4.34573 4.77302 0
M  V30 14618 H 1340.93 6.39406 5.10982 0
M  V30 14619 N 1343.59 -1.35528 0.804364 0
M  V30 14620 C 1344.54 -2.31728 0.20125 0
M  V30 14621 C 1345.53 -1.56527 -0.647751 0
M  V30 14622 O 1346.74 -1.71672 -0.541163 0
M  V30 14623 H 1343.12 -0.750572 0.0463165 0
M  V30 14624 H 1345.09 -2.80142 1.02777 0
M  V30 14625 C 1343.84 -3.41807 -0.637429 0
M  V30 14626 H 1343.16 -3.99799 0.00651699 0
M  V30 14627 H 1344.6 -4.11403 -1.02585 0
M  V30 14628 C 1343.06 -2.84655 -1.80202 0
M  V30 14629 O 1343.59 -2.78026 -2.89939 0
M  V30 14630 N 1341.79 -2.41735 -1.61285 0
M  V30 14631 H 1341.34 -2.47327 -0.720231 0
M  V30 14632 H 1341.3 -2.03844 -2.39364 0
M  V30 14633 N 1345.07 -0.557671 -1.47404 0
M  V30 14634 C 1346.3 -0.0366797 -2.07368 0
M  V30 14635 C 1346.72 1.2478 -1.40754 0
M  V30 14636 O 1346.08 1.74757 -0.48268 0
M  V30 14637 C 1346.13 0.141728 -3.60321 0
M  V30 14638 O 1345.23 1.20419 -3.94427 0
M  V30 14639 H 1344.57 -0.0515319 -0.661997 0
M  V30 14640 H 1347.1 -0.773485 -1.89416 0
M  V30 14641 H 1347.11 0.355787 -4.06446 0
M  V30 14642 H 1345.79 -0.796433 -4.08203 0
M  V30 14643 H 1344.36 0.970589 -3.60047 0
M  V30 14644 N 1346.55 1.54831 -0.294147 0
M  V30 14645 C 1347.97 1.59489 0.0594489 0
M  V30 14646 C 1348.17 1.31121 1.53002 0
M  V30 14647 O 1347.22 1.08129 2.28176 0
M  V30 14648 C 1348.53 2.98858 -0.332323 0
M  V30 14649 C 1350.08 3.1174 -0.280518 0
M  V30 14650 C 1350.56 4.53407 -0.64701 0
M  V30 14651 N 1352.05 4.59307 -0.599284 0
M  V30 14652 C 1352.78 5.66983 -0.85542 0
M  V30 14653 N 1352.28 6.82726 -1.17717 0
M  V30 14654 N 1354.07 5.56621 -0.78294 0
M  V30 14655 H 1346.22 1.71532 -1.25262 0
M  V30 14656 H 1348.49 0.800801 -0.507368 0
M  V30 14657 H 1348.19 3.24517 -1.35578 0
M  V30 14658 H 1348.07 3.75862 0.317443 0
M  V30 14659 H 1350.45 2.85834 0.733683 0
M  V30 14660 H 1350.53 2.36907 -0.96481 0
M  V30 14661 H 1350.18 4.80042 -1.65899 0
M  V30 14662 H 1350.11 5.26567 0.0592796 0
M  V30 14663 H 1352.6 3.76169 -0.361259 0
M  V30 14664 H 1352.91 7.60761 -1.35877 0
M  V30 14665 H 1351.26 6.84295 -1.21513 0
M  V30 14666 H 1354.45 4.65075 -0.531282 0
M  V30 14667 H 1354.62 6.40456 -0.985929 0
M  V30 14668 N 1348.03 0.0217466 1.57585 0
M  V30 14669 C 1348.96 -0.961069 2.12804 0
M  V30 14670 C 1349.94 -1.3442 1.04237 0
M  V30 14671 O 1351.12 -1.42412 1.32032 0
M  V30 14672 C 1348.25 -2.24586 2.64912 0
M  V30 14673 C 1347.21 -2.0037 3.78201 0
M  V30 14674 C 1346.53 -3.35051 4.16708 0
M  V30 14675 C 1347.83 -1.34879 5.04584 0
M  V30 14676 H 1349.53 -0.501222 2.95175 0
M  V30 14677 H 1347.07 -0.239649 1.41992 0
M  V30 14678 H 1349.03 -2.93715 3.02175 0
M  V30 14679 H 1347.75 -2.72723 1.79693 0
M  V30 14680 H 1346.41 -1.33662 3.41365 0
M  V30 14681 H 1346.06 -3.80932 3.28481 0
M  V30 14682 H 1345.76 -3.19656 4.93045 0
M  V30 14683 H 1347.28 -4.05459 4.56547 0
M  V30 14684 H 1348.7 -1.93997 5.3948 0
M  V30 14685 H 1347.09 -1.29906 5.85871 0
M  V30 14686 H 1348.16 -0.320774 4.83838 0
M  V30 14687 N 1349.51 -1.55583 -0.251311 0
M  V30 14688 C 1350.73 -1.81597 -1.00186 0
M  V30 14689 C 1351.16 -0.598216 -1.78334 0
M  V30 14690 O 1350.51 0.452667 -1.75558 0
M  V30 14691 C 1350.56 -3.05301 -1.91895 0
M  V30 14692 O 1349.67 -2.81907 -3.01002 0
M  V30 14693 H 1349.01 -0.599578 -0.285311 0
M  V30 14694 H 1351.54 -2.02762 -0.273638 0
M  V30 14695 H 1351.55 -3.34616 -2.33444 0
M  V30 14696 H 1350.22 -3.93574 -1.34433 0
M  V30 14697 H 1348.8 -2.63747 -2.63613 0
M  V30 14698 N 1350.98 0.516783 -1.48886 0
M  V30 14699 C 1351.89 1.6467 -1.67095 0
M  V30 14700 C 1352.91 1.64963 -0.553466 0
M  V30 14701 O 1354.09 1.83673 -0.826206 0
M  V30 14702 C 1351.15 3.01095 -1.71879 0
M  V30 14703 C 1350.21 3.11554 -2.95352 0
M  V30 14704 C 1349.44 4.41471 -2.99898 0
M  V30 14705 O 1349.67 5.29348 -2.12477 0
M  V30 14706 O 1348.6 4.56573 -3.92205 0
M  V30 14707 H 1352.43 1.52242 -2.62785 0
M  V30 14708 H 1350.01 0.69134 -1.32442 0
M  V30 14709 H 1351.89 3.82207 -1.77471 0
M  V30 14710 H 1350.57 3.1382 -0.793656 0
M  V30 14711 H 1349.48 2.29689 -2.95286 0
M  V30 14712 H 1350.81 3.03751 -3.87294 0
M  V30 14713 N 1352.46 1.37696 0.766659 0
M  V30 14714 C 1353.71 1.33382 1.52765 0
M  V30 14715 C 1354.04 -0.0800569 1.94035 0
M  V30 14716 O 1353.32 -1.03848 1.64456 0
M  V30 14717 C 1353.6 2.2776 2.78922 0
M  V30 14718 C 1353.45 3.77949 2.43874 0
M  V30 14719 C 1354.77 2.20494 3.80881 0
M  V30 14720 H 1351.89 0.485836 0.554195 0
M  V30 14721 H 1354.53 1.68438 0.879119 0
M  V30 14722 H 1352.68 1.97994 3.34261 0
M  V30 14723 H 1354.35 4.18333 1.9441 0
M  V30 14724 H 1352.6 3.96269 1.76503 0
M  V30 14725 H 1353.27 4.39428 3.34077 0
M  V30 14726 H 1355.74 2.46742 3.35048 0
M  V30 14727 H 1354.62 2.88663 4.66867 0
M  V30 14728 H 1354.88 1.19951 4.25516 0
M  V30 14729 N 1353.94 -0.993397 1.22349 0
M  V30 14730 C 1354.89 -2.10463 0.990358 0
M  V30 14731 C 1355.88 -1.6927 -0.0663528 0
M  V30 14732 O 1357.09 -1.79794 0.0860444 0
M  V30 14733 H 1353.46 -0.688222 0.303075 0
M  V30 14734 H 1355.43 -2.273 1.93333 0
M  V30 14735 C 1354.18 -3.42757 0.584205 0
M  V30 14736 H 1353.51 -3.74896 1.38899 0
M  V30 14737 H 1354.95 -4.21492 0.46049 0
M  V30 14738 C 1353.4 -3.29416 -0.706187 0
M  V30 14739 O 1353.93 -3.61152 -1.75875 0
M  V30 14740 N 1352.14 -2.82601 -0.677148 0
M  V30 14741 H 1351.69 -2.56972 0.179712 0
M  V30 14742 H 1351.65 -2.74056 -1.54081 0
M  V30 14743 N 1355.42 -1.03311 -1.19015 0
M  V30 14744 C 1356.67 -0.727266 -1.88132 0
M  V30 14745 C 1356.98 0.747488 -1.80754 0
M  V30 14746 O 1358.19 1.16654 -2.45161 0
M  V30 14747 C 1356.64 -1.25056 -3.37474 0
M  V30 14748 C 1356.25 -2.7534 -3.534 0
M  V30 14749 C 1357.99 -1.02091 -4.12041 0
M  V30 14750 C 1355.9 -3.21066 -4.96659 0
M  V30 14751 H 1354.83 -0.268349 -0.704631 0
M  V30 14752 H 1357.48 -1.24795 -1.3453 0
M  V30 14753 H 1355.86 -0.65777 -3.90499 0
M  V30 14754 H 1357.04 -3.40311 -3.10684 0
M  V30 14755 H 1355.35 -2.96633 -2.92229 0
M  V30 14756 H 1357.95 -1.33777 -5.17695 0
M  V30 14757 H 1358.29 0.0421413 -4.16279 0
M  V30 14758 H 1358.83 -1.57792 -3.65166 0
M  V30 14759 H 1355.56 -4.26719 -4.97586 0
M  V30 14760 H 1355.08 -2.60826 -5.4012 0
M  V30 14761 H 1356.76 -3.14651 -5.65335 0
M  V30 14762 N 1356.9 1.35099 -0.81154 0
M  V30 14763 C 1357.86 2.28033 -0.230947 0
M  V30 14764 C 1358.86 1.49798 0.584575 0
M  V30 14765 O 1360.05 1.6949 0.402336 0
M  V30 14766 C 1357.18 3.341 0.677486 0
M  V30 14767 H 1358.37 2.80893 -1.05067 0
M  V30 14768 H 1355.93 1.45038 -0.582554 0
M  V30 14769 H 1356.66 2.86435 1.5207 0
M  V30 14770 H 1356.45 3.91986 0.0943563 0
M  V30 14771 H 1357.94 4.0345 1.07787 0
M  V30 14772 N 1358.37 0.56548 1.47106 0
M  V30 14773 C 1359.31 -0.215154 2.28188 0
M  V30 14774 C 1360.32 -0.871671 1.37498 0
M  V30 14775 O 1361.51 -0.744131 1.6225 0
M  V30 14776 C 1358.61 -1.32289 3.12014 0
M  V30 14777 C 1357.78 -0.761594 4.30719 0
M  V30 14778 C 1356.84 -1.75486 4.96076 0
M  V30 14779 O 1355.87 -1.29771 5.5421 0
M  V30 14780 N 1357.07 -3.0885 4.9152 0
M  V30 14781 H 1359.83 0.480405 2.95825 0
M  V30 14782 H 1357.39 0.402099 1.56827 0
M  V30 14783 H 1359.39 -1.98628 3.52603 0
M  V30 14784 H 1357.96 -1.92156 2.46566 0
M  V30 14785 H 1357.18 0.078794 3.94121 0
M  V30 14786 H 1358.46 -0.366072 5.07481 0
M  V30 14787 H 1357.86 -3.4863 4.45504 0
M  V30 14788 H 1356.42 -3.70725 5.36103 0
M  V30 14789 N 1359.85 -1.54672 0.302354 0
M  V30 14790 C 1360.8 -2.25022 -0.58887 0
M  V30 14791 C 1361.79 -1.25671 -1.13592 0
M  V30 14792 O 1363 -1.43518 -1.0864 0
M  V30 14793 H 1359.38 -0.722515 -0.208509 0
M  V30 14794 H 1361.35 -2.98388 0.0269928 0
M  V30 14795 C 1360.1 -3.00532 -1.74859 0
M  V30 14796 H 1359.42 -3.76786 -1.33688 0
M  V30 14797 H 1360.86 -3.53036 -2.34823 0
M  V30 14798 C 1359.32 -2.0758 -2.65353 0
M  V30 14799 O 1359.85 -1.64473 -3.66485 0
M  V30 14800 N 1358.05 -1.73508 -2.33116 0
M  V30 14801 H 1357.6 -2.0876 -1.5092 0
M  V30 14802 H 1357.56 -1.11591 -2.9393 0
M  V30 14803 N 1361.33 -0.0301034 -1.57571 0
M  V30 14804 C 1362.28 0.969425 -2.11435 0
M  V30 14805 C 1363.27 1.33627 -1.04116 0
M  V30 14806 O 1364.48 1.31839 -1.2255 0
M  V30 14807 H 1360.85 0.330407 -0.675526 0
M  V30 14808 H 1362.82 0.489828 -2.94352 0
M  V30 14809 C 1361.57 2.24233 -2.65734 0
M  V30 14810 H 1360.9 1.9688 -3.47963 0
M  V30 14811 H 1362.34 2.92378 -3.07068 0
M  V30 14812 C 1360.8 2.97274 -1.58524 0
M  V30 14813 O 1361.33 3.8942 -0.985641 0
M  V30 14814 N 1359.53 2.59627 -1.30545 0
M  V30 14815 H 1359.08 1.84773 -1.79491 0
M  V30 14816 H 1359.04 3.08807 -0.590372 0
M  V30 14817 N 1362.81 1.55714 0.243056 0
M  V30 14818 C 1364.09 1.68483 0.993614 0
M  V30 14819 C 1364.47 0.571112 2.03228 0
M  V30 14820 O 1363.81 -0.42491 2.24515 0
M  V30 14821 C 1364.02 3.0894 1.62349 0
M  V30 14822 C 1365.37 3.67663 2.12389 0
M  V30 14823 O 1366.4 3.11764 1.72283 0
M  V30 14824 O 1365.25 4.65664 2.8604 0
M  V30 14825 H 1362.35 0.685415 0.462747 0
M  V30 14826 H 1364.89 1.68043 0.236538 0
M  V30 14827 H 1363.67 3.81451 0.87241 0
M  V30 14828 H 1363.29 3.13407 2.44667 0
M  V30 14829 N 1364.29 -0.50888 1.49158 0
M  V30 14830 C 1365.54 -1.26008 1.57496 0
M  V30 14831 C 1365.85 -1.9382 0.263281 0
M  V30 14832 O 1367.05 -2.70565 0.225117 0
M  V30 14833 C 1365.51 -2.28752 2.7785 0
M  V30 14834 C 1365.12 -1.66915 4.15744 0
M  V30 14835 C 1366.86 -3.0475 2.95513 0
M  V30 14836 C 1364.77 -2.67724 5.27331 0
M  V30 14837 H 1363.7 -0.473984 0.586392 0
M  V30 14838 H 1366.35 -0.534886 1.75531 0
M  V30 14839 H 1364.73 -3.044 2.53292 0
M  V30 14840 H 1365.91 -0.973131 4.50407 0
M  V30 14841 H 1364.22 -1.03336 4.03374 0
M  V30 14842 H 1366.82 -3.80121 3.76048 0
M  V30 14843 H 1367.16 -3.6189 2.05771 0
M  V30 14844 H 1367.69 -2.36217 3.20072 0
M  V30 14845 H 1364.43 -2.15375 6.19107 0
M  V30 14846 H 1363.95 -3.35589 4.97132 0
M  V30 14847 H 1365.63 -3.30304 5.56335 0
M  V30 14848 N 1365.76 -1.381 -0.759346 0
M  V30 14849 C 1367.01 -1.33311 -1.51364 0
M  V30 14850 C 1367.33 0.0761325 -1.95452 0
M  V30 14851 O 1368.53 0.246541 -2.70378 0
M  V30 14852 C 1366.99 -2.34067 -2.73387 0
M  V30 14853 C 1366.6 -3.80583 -2.36348 0
M  V30 14854 C 1368.34 -2.38311 -3.51295 0
M  V30 14855 C 1366.25 -4.73039 -3.54948 0
M  V30 14856 H 1365.18 -0.495512 -0.568317 0
M  V30 14857 H 1367.83 -1.63625 -0.830602 0
M  V30 14858 H 1366.21 -1.96788 -3.43643 0
M  V30 14859 H 1367.38 -4.26769 -1.73796 0
M  V30 14860 H 1365.7 -3.79403 -1.71587 0
M  V30 14861 H 1368.3 -3.04586 -4.39467 0
M  V30 14862 H 1368.64 -1.40034 -3.92041 0
M  V30 14863 H 1369.17 -2.74361 -2.88047 0
M  V30 14864 H 1365.91 -5.7249 -3.19273 0
M  V30 14865 H 1365.43 -4.3155 -4.16563 0
M  V30 14866 H 1367.11 -4.90775 -4.21603 0
M  V30 14867 N 1367.24 0.986894 -1.22875 0
M  V30 14868 C 1368.47 1.7601 -1.08185 0
M  V30 14869 C 1368.88 1.85545 0.370088 0
M  V30 14870 O 1368.22 1.32915 1.26804 0
M  V30 14871 C 1368.29 3.20661 -1.62532 0
M  V30 14872 C 1367.95 3.34655 -3.11216 0
M  V30 14873 C 1368.95 3.21493 -4.08581 0
M  V30 14874 C 1366.63 3.59512 -3.50794 0
M  V30 14875 C 1368.63 3.32983 -5.43508 0
M  V30 14876 C 1366.31 3.70642 -4.85868 0
M  V30 14877 C 1367.31 3.57387 -5.82034 0
M  V30 14878 O 1367 3.68135 -7.14655 0
M  V30 14879 H 1366.73 0.559402 -0.379533 0
M  V30 14880 H 1369.28 1.24905 -1.63058 0
M  V30 14881 H 1367.51 3.72985 -1.02073 0
M  V30 14882 H 1369.2 3.7972 -1.43415 0
M  V30 14883 H 1369.97 3.02193 -3.79347 0
M  V30 14884 H 1365.85 3.68904 -2.76461 0
M  V30 14885 H 1369.39 3.22553 -6.18551 0
M  V30 14886 H 1365.29 3.89451 -5.1478 0
M  V30 14887 H 1366.06 3.84971 -7.22316 0
M  V30 14888 N 1368.72 1.0394 1.18466 0
M  V30 14889 C 1369.67 0.623063 2.241 0
M  V30 14890 C 1370.66 -0.349518 1.65755 0
M  V30 14891 O 1371.87 -0.216947 1.78688 0
M  V30 14892 H 1368.24 0.183263 0.729327 0
M  V30 14893 H 1370.21 1.52439 2.56524 0
M  V30 14894 C 1368.96 0.000626805 3.477 0
M  V30 14895 H 1368.29 0.740056 3.92891 0
M  V30 14896 H 1369.73 -0.253484 4.23242 0
M  V30 14897 C 1368.19 -1.24907 3.1289 0
M  V30 14898 O 1368.72 -2.33996 3.2651 0
M  V30 14899 N 1366.92 -1.14187 2.67226 0
M  V30 14900 H 1366.47 -0.254146 2.56343 0
M  V30 14901 H 1366.43 -1.97893 2.44307 0
M  V30 14902 N 1370.2 -1.34667 0.818693 0
M  V30 14903 C 1371.42 -2.03173 0.416585 0
M  V30 14904 C 1371.85 -1.61261 -0.968321 0
M  V30 14905 O 1371.21 -0.79517 -1.62932 0
M  V30 14906 C 1371.25 -3.56803 0.521884 0
M  V30 14907 O 1370.36 -4.09827 -0.459953 0
M  V30 14908 H 1369.7 -0.6413 0.172136 0
M  V30 14909 H 1372.23 -1.72006 1.10794 0
M  V30 14910 H 1372.24 -4.06073 0.3961 0
M  V30 14911 H 1370.91 -3.86656 1.53198 0
M  V30 14912 H 1369.49 -3.71744 -0.293405 0
M  V30 14913 N 1371.68 -0.573274 -1.46804 0
M  V30 14914 C 1373.09 -0.23423 -1.57872 0
M  V30 14915 C 1373.29 1.26342 -1.56971 0
M  V30 14916 O 1372.35 2.04459 -1.48165 0
M  V30 14917 C 1373.66 -0.875097 -2.87685 0
M  V30 14918 C 1375.21 -0.847812 -3.01299 0
M  V30 14919 C 1375.68 -1.46804 -4.33835 0
M  V30 14920 N 1377.18 -1.43196 -4.4051 0
M  V30 14921 C 1377.91 -1.88133 -5.41658 0
M  V30 14922 N 1377.41 -2.41001 -6.49531 0
M  V30 14923 N 1379.2 -1.79107 -5.32801 0
M  V30 14924 H 1371.35 -1.54612 -1.45633 0
M  V30 14925 H 1373.61 -0.645703 -0.694098 0
M  V30 14926 H 1373.32 -1.92826 -2.94127 0
M  V30 14927 H 1373.19 -0.377671 -3.75305 0
M  V30 14928 H 1375.58 0.196707 -2.94444 0
M  V30 14929 H 1375.66 -1.38316 -2.1518 0
M  V30 14930 H 1375.31 -2.51171 -4.41447 0
M  V30 14931 H 1375.24 -0.908 -5.18713 0
M  V30 14932 H 1377.73 -1.04541 -3.63152 0
M  V30 14933 H 1378.04 -2.73172 -7.22908 0
M  V30 14934 H 1376.38 -2.45021 -6.50377 0
M  V30 14935 H 1379.58 -1.37569 -4.47429 0
M  V30 14936 H 1379.75 -2.14445 -6.11488 0
M  V30 14937 N 1373.15 1.5451 -0.310553 0
M  V30 14938 C 1374.38 2.04442 0.297807 0
M  V30 14939 C 1374.79 1.18695 1.47337 0
M  V30 14940 O 1374.14 0.207405 1.82525 0
M  V30 14941 C 1374.2 3.50306 0.807851 0
M  V30 14942 C 1373.86 4.5635 -0.24369 0
M  V30 14943 C 1374.86 5.08656 -1.07539 0
M  V30 14944 C 1372.54 5.00798 -0.388138 0
M  V30 14945 C 1374.54 6.03961 -2.03738 0
M  V30 14946 C 1372.22 5.95921 -1.35357 0
M  V30 14947 C 1373.22 6.47387 -2.17667 0
M  V30 14948 O 1372.91 7.40644 -3.12571 0
M  V30 14949 H 1372.64 0.672646 0.0672525 0
M  V30 14950 H 1375.2 2.00389 -0.450948 0
M  V30 14951 H 1373.43 3.51714 1.6073 0
M  V30 14952 H 1375.12 3.83383 1.33314 0
M  V30 14953 H 1375.88 4.75105 -0.97471 0
M  V30 14954 H 1371.76 4.60361 0.242608 0
M  V30 14955 H 1375.3 6.44057 -2.68023 0
M  V30 14956 H 1371.2 6.2889 -1.45493 0
M  V30 14957 H 1371.97 7.58477 -3.0766 0
M  V30 14958 N 1374.63 0.0384594 1.57553 0
M  V30 14959 C 1375.57 -0.969185 2.077 0
M  V30 14960 C 1376.58 -1.2829 1.00227 0
M  V30 14961 O 1377.77 -1.24592 1.27824 0
M  V30 14962 C 1374.87 -2.29414 2.49444 0
M  V30 14963 C 1374.04 -2.16422 3.80106 0
M  V30 14964 C 1373.1 -3.31931 4.08299 0
M  V30 14965 O 1372.13 -3.08401 4.78412 0
M  V30 14966 N 1373.33 -4.56015 3.59208 0
M  V30 14967 H 1376.09 -0.541252 2.94772 0
M  V30 14968 H 1373.65 -0.148084 1.61221 0
M  V30 14969 H 1375.65 -3.05533 2.6539 0
M  V30 14970 H 1374.22 -2.63817 1.67688 0
M  V30 14971 H 1373.44 -1.24973 3.73866 0
M  V30 14972 H 1374.72 -2.04954 4.65694 0
M  V30 14973 H 1374.12 -4.78025 3.02503 0
M  V30 14974 H 1372.68 -5.29271 3.80415 0
M  V30 14975 N 1376.11 -1.55841 -0.234795 0
M  V30 14976 C 1377.06 -1.92165 -1.31055 0
M  V30 14977 C 1378.05 -0.802106 -1.49207 0
M  V30 14978 O 1379.26 -0.986832 -1.50538 0
M  V30 14979 H 1375.63 -0.610487 -0.439101 0
M  V30 14980 H 1377.61 -2.81955 -0.976926 0
M  V30 14981 C 1376.35 -2.24329 -2.65654 0
M  V30 14982 H 1375.68 -3.09982 -2.5249 0
M  V30 14983 H 1377.12 -2.53639 -3.3977 0
M  V30 14984 C 1375.58 -1.0638 -3.19664 0
M  V30 14985 O 1376.11 -0.318047 -4.00439 0
M  V30 14986 N 1374.31 -0.851167 -2.77855 0
M  V30 14987 H 1373.86 -1.45932 -2.12277 0
M  V30 14988 H 1373.82 -0.0636875 -3.14335 0
M  V30 14989 N 1377.59 0.500963 -1.49426 0
M  V30 14990 C 1378.84 1.25509 -1.58915 0
M  V30 14991 C 1379.16 1.92534 -0.275868 0
M  V30 14992 O 1378.42 1.81324 0.736212 0
M  V30 14993 C 1378.72 2.34448 -2.69757 0
M  V30 14994 C 1378.38 1.8488 -4.11254 0
M  V30 14995 C 1377.05 1.71081 -4.49761 0
M  V30 14996 C 1379.4 1.4778 -4.9981 0
M  V30 14997 C 1376.73 1.18561 -5.74596 0
M  V30 14998 C 1379.08 0.967118 -6.25164 0
M  V30 14999 C 1377.74 0.815523 -6.62499 0
M  V30 15000 H 1377.01 0.459268 -0.58151 0
M  V30 15001 H 1379.66 0.555817 -1.83256 0
M  V30 15002 H 1377.96 3.10163 -2.39387 0
M  V30 15003 H 1379.66 2.925 -2.74308 0
M  V30 15004 H 1376.25 1.9658 -3.8086 0
M  V30 15005 H 1380.44 1.57288 -4.70717 0
M  V30 15006 H 1375.69 1.05536 -6.02223 0
M  V30 15007 H 1379.87 0.670857 -6.93161 0
M  V30 15008 H 1377.49 0.406375 -7.59113 0
M  V30 15009 N 1379.07 1.38501 0.752011 0
M  V30 15010 C 1380.29 1.38212 1.54636 0
M  V30 15011 C 1380.72 -0.0256356 1.88083 0
M  V30 15012 O 1380.08 -1.00812 1.50687 0
M  V30 15013 C 1380.12 2.24597 2.82114 0
M  V30 15014 O 1379.23 1.66415 3.77332 0
M  V30 15015 H 1378.57 0.47138 0.46765 0
M  V30 15016 H 1381.1 1.82283 0.929205 0
M  V30 15017 H 1381.11 2.38511 3.31023 0
M  V30 15018 H 1379.78 3.26913 2.57101 0
M  V30 15019 H 1378.36 1.61651 3.36041 0
M  V30 15020 N 1380.55 -0.980364 1.23396 0
M  V30 15021 C 1381.79 -1.71592 1.06015 0
M  V30 15022 C 1382.11 -1.91401 -0.403103 0
M  V30 15023 O 1383.31 -2.62405 -0.696853 0
M  V30 15024 C 1381.77 -3.08795 1.84861 0
M  V30 15025 C 1381.38 -2.96873 3.35515 0
M  V30 15026 C 1383.12 -3.8631 1.75968 0
M  V30 15027 C 1381.03 -4.29308 4.06753 0
M  V30 15028 H 1379.96 -0.643423 0.393095 0
M  V30 15029 H 1382.61 -1.09345 1.47363 0
M  V30 15030 H 1380.99 -3.71797 1.36318 0
M  V30 15031 H 1382.17 -2.4296 3.91544 0
M  V30 15032 H 1380.48 -2.32833 3.45221 0
M  V30 15033 H 1383.08 -4.84355 2.26504 0
M  V30 15034 H 1383.42 -4.09983 0.722464 0
M  V30 15035 H 1383.95 -3.3001 2.22122 0
M  V30 15036 H 1380.69 -4.10831 5.10782 0
M  V30 15037 H 1380.21 -4.83086 3.55511 0
M  V30 15038 H 1381.89 -4.97995 4.1305 0
M  V30 15039 N 1382.02 -1.04567 -1.17913 0
M  V30 15040 C 1383.25 -0.772146 -1.92491 0
M  V30 15041 C 1383.67 0.665297 -1.75942 0
M  V30 15042 O 1383.03 1.46144 -1.07292 0
M  V30 15043 C 1383.08 -1.14966 -3.41782 0
M  V30 15044 O 1382.18 -0.278091 -4.11461 0
M  V30 15045 H 1381.52 -0.283715 -0.600335 0
M  V30 15046 H 1384.05 -1.39685 -1.49496 0
M  V30 15047 H 1384.06 -1.11374 -3.92505 0
M  V30 15048 H 1382.74 -2.1968 -3.53148 0
M  V30 15049 H 1381.32 -0.374073 -3.71019 0
M  V30 15050 N 1383.5 1.34231 -0.825823 0
M  V30 15051 C 1384.75 1.98196 -0.415276 0
M  V30 15052 C 1385.08 1.65463 1.02236 0
M  V30 15053 O 1384.33 0.919868 1.72734 0
M  V30 15054 C 1384.63 3.52861 -0.56778 0
M  V30 15055 C 1384.3 4.05512 -1.97157 0
M  V30 15056 C 1382.96 4.19602 -2.35557 0
M  V30 15057 C 1385.31 4.33798 -2.88909 0
M  V30 15058 C 1382.64 4.59307 -3.6504 0
M  V30 15059 C 1384.99 4.74949 -4.17859 0
M  V30 15060 C 1383.65 4.87245 -4.56233 0
M  V30 15061 H 1382.92 0.725251 -0.15196 0
M  V30 15062 H 1385.57 1.60126 -1.05033 0
M  V30 15063 H 1383.88 3.9151 0.15065 0
M  V30 15064 H 1385.57 4.00336 -0.230608 0
M  V30 15065 H 1382.16 3.9501 -1.66328 0
M  V30 15066 H 1386.35 4.22448 -2.60483 0
M  V30 15067 H 1381.6 4.67017 -3.94594 0
M  V30 15068 H 1385.78 4.95795 -4.8904 0
M  V30 15069 H 1383.4 5.17768 -5.56615 0
M  V30 15070 N 1384.98 0.581051 1.46498 0
M  V30 15071 C 1386.23 0.07442 2.03264 0
M  V30 15072 C 1386.58 -1.27069 1.44469 0
M  V30 15073 O 1385.87 -1.8197 0.599785 0
M  V30 15074 C 1386.07 -0.0514774 3.57363 0
M  V30 15075 C 1385.9 1.27988 4.31102 0
M  V30 15076 C 1384.67 1.85358 4.70075 0
M  V30 15077 C 1386.86 2.20268 4.64743 0
M  V30 15078 N 1384.85 3.1225 5.28558 0
M  V30 15079 C 1386.22 3.31746 5.23779 0
M  V30 15080 C 1388.27 2.19969 4.46675 0
M  V30 15081 C 1386.98 4.43056 5.66652 0
M  V30 15082 C 1389 3.30307 4.90562 0
M  V30 15083 C 1388.36 4.40505 5.49667 0
M  V30 15084 H 1384.46 0.0699705 0.778863 0
M  V30 15085 H 1387.05 0.773585 1.78672 0
M  V30 15086 H 1385.22 -0.719807 3.81672 0
M  V30 15087 H 1386.95 -0.562342 4.00774 0
M  V30 15088 H 1383.7 1.3887 4.52782 0
M  V30 15089 H 1384.13 3.76992 5.62322 0
M  V30 15090 H 1388.77 1.36044 4.00315 0
M  V30 15091 H 1386.49 5.27724 6.11991 0
M  V30 15092 H 1390.07 3.31191 4.78334 0
M  V30 15093 H 1388.95 5.24475 5.83006 0
M  V30 15094 N 1386.46 -1.54343 0.318742 0
M  V30 15095 C 1387.7 -2.00777 -0.285699 0
M  V30 15096 C 1388.04 -1.20664 -1.52164 0
M  V30 15097 O 1387.31 -0.287674 -1.92361 0
M  V30 15098 C 1387.59 -3.54641 -0.624649 0
M  V30 15099 C 1387.45 -4.45483 0.621663 0
M  V30 15100 C 1388.77 -4.15729 -1.4442 0
M  V30 15101 H 1385.89 -0.729856 -0.102367 0
M  V30 15102 H 1388.53 -1.84968 0.434364 0
M  V30 15103 H 1386.68 -3.68243 -1.23811 0
M  V30 15104 H 1388.35 -4.43759 1.25998 0
M  V30 15105 H 1386.59 -4.15356 1.25148 0
M  V30 15106 H 1387.26 -5.50951 0.340106 0
M  V30 15107 H 1389.74 -4.05672 -0.925699 0
M  V30 15108 H 1388.62 -5.23509 -1.65013 0
M  V30 15109 H 1388.88 -3.68743 -2.43887 0
M  V30 15110 N 1387.94 -0.0468143 -1.5753 0
M  V30 15111 C 1389.35 0.309707 -1.56566 0
M  V30 15112 C 1389.55 1.7173 -1.05408 0
M  V30 15113 O 1388.61 2.4235 -0.708723 0
M  V30 15114 C 1389.92 0.142151 -3.00364 0
M  V30 15115 C 1391.47 0.213585 -3.1227 0
M  V30 15116 C 1391.94 0.0746102 -4.57939 0
M  V30 15117 N 1393.43 0.131027 -4.63015 0
M  V30 15118 C 1394.17 0.0475409 -5.7338 0
M  V30 15119 N 1393.67 -0.0880445 -6.92744 0
M  V30 15120 N 1395.46 0.102809 -5.62006 0
M  V30 15121 H 1387.61 -0.967057 -1.89108 0
M  V30 15122 H 1389.87 -0.375018 -0.870669 0
M  V30 15123 H 1389.58 -0.828171 -3.4181 0
M  V30 15124 H 1389.45 0.905006 -3.66182 0
M  V30 15125 H 1391.84 1.17438 -2.70726 0
M  V30 15126 H 1391.92 -0.57995 -2.49139 0
M  V30 15127 H 1391.56 -0.882839 -5.00168 0
M  V30 15128 H 1391.49 0.887235 -5.19072 0
M  V30 15129 H 1393.99 0.235246 -3.77167 0
M  V30 15130 H 1394.3 -0.144574 -7.72665 0
M  V30 15131 H 1392.64 -0.12307 -6.94891 0
M  V30 15132 H 1395.83 0.207259 -4.67641 0
M  V30 15133 H 1396.01 0.0342865 -6.47991 0
M  V30 15134 N 1389.41 1.55964 0.226527 0
M  V30 15135 C 1390.66 1.77944 0.94967 0
M  V30 15136 C 1390.98 0.614478 1.85697 0
M  V30 15137 O 1392.18 0.717793 2.6184 0
M  V30 15138 C 1390.64 3.15108 1.73881 0
M  V30 15139 C 1390.25 4.39314 0.877894 0
M  V30 15140 C 1391.99 3.46418 2.45347 0
M  V30 15141 C 1389.9 5.67505 1.6641 0
M  V30 15142 H 1388.83 0.663412 0.35833 0
M  V30 15143 H 1391.48 1.82366 0.203695 0
M  V30 15144 H 1389.86 3.04849 2.52751 0
M  V30 15145 H 1391.03 4.60616 0.130089 0
M  V30 15146 H 1389.35 4.15487 0.2756 0
M  V30 15147 H 1391.95 4.39416 3.0466 0
M  V30 15148 H 1392.29 2.68685 3.17985 0
M  V30 15149 H 1392.82 3.57984 1.73471 0
M  V30 15150 H 1389.56 6.48116 0.981089 0
M  V30 15151 H 1389.08 5.50272 2.38665 0
M  V30 15152 H 1390.76 6.075 2.22605 0
M  V30 15153 N 1390.89 -0.493031 1.4969 0
M  V30 15154 C 1392.3 -1.0744 1.52688 0
M  V30 15155 C 1392.65 -1.93612 0.317652 0
M  V30 15156 O 1391.78 -2.0871 -0.571745 0
M  V30 15157 C 1392.37 -1.95523 2.76688 0
M  V30 15158 C 1390.93 -2.48808 2.82438 0
M  V30 15159 C 1390.08 -1.26617 2.46705 0
M  V30 15160 H 1393.03 -0.276589 1.56271 0
M  V30 15161 H 1393.05 -2.80315 2.57301 0
M  V30 15162 H 1392.56 -1.32779 3.6468 0
M  V30 15163 H 1390.67 -3.15168 1.98746 0
M  V30 15164 H 1390.78 -2.85416 3.84805 0
M  V30 15165 H 1389.14 -1.59396 1.98658 0
M  V30 15166 H 1389.93 -0.655695 3.3698 0
M  V30 15167 N 1392.37 -1.38898 -0.744656 0
M  V30 15168 C 1393.32 -1.36845 -1.85855 0
M  V30 15169 C 1394.29 -0.2296 -1.64505 0
M  V30 15170 O 1395.47 -0.423221 -1.86047 0
M  V30 15171 C 1392.61 -1.20818 -3.2326 0
M  V30 15172 C 1391.73 -2.44166 -3.5638 0
M  V30 15173 C 1390.86 -2.20801 -4.83136 0
M  V30 15174 C 1389.9 -3.39874 -5.0907 0
M  V30 15175 N 1389.04 -3.15888 -6.27024 0
M  V30 15176 H 1393.88 -2.32068 -1.86945 0
M  V30 15177 H 1391.41 -1.15289 -0.913611 0
M  V30 15178 H 1393.37 -1.0954 -4.02563 0
M  V30 15179 H 1392 -0.292295 -3.21474 0
M  V30 15180 H 1391.05 -2.66083 -2.71852 0
M  V30 15181 H 1392.37 -3.32885 -3.71469 0
M  V30 15182 H 1391.52 -2.0671 -5.704 0
M  V30 15183 H 1390.26 -1.29462 -4.70203 0
M  V30 15184 H 1389.26 -3.54474 -4.20271 0
M  V30 15185 H 1390.49 -4.32102 -5.23894 0
M  V30 15186 H 1388.43 -2.27204 -6.15398 0
M  V30 15187 H 1388.35 -3.9816 -6.42655 0
M  V30 15188 H 1389.62 -3.0547 -7.17153 0
M  V30 15189 N 1393.85 0.973806 -1.23914 0
M  V30 15190 C 1394.8 2.05229 -0.993221 0
M  V30 15191 C 1395.78 1.60776 0.0631684 0
M  V30 15192 O 1396.97 1.76365 -0.149794 0
M  V30 15193 C 1394.1 3.38132 -0.593421 0
M  V30 15194 C 1393.19 3.89165 -1.68556 0
M  V30 15195 N 1393.58 4.13203 -2.91714 0
M  V30 15196 C 1391.88 4.17765 -1.56167 0
M  V30 15197 C 1392.58 4.54961 -3.62471 0
M  V30 15198 N 1391.56 4.59778 -2.90009 0
M  V30 15199 H 1395.36 2.21781 -1.92848 0
M  V30 15200 H 1392.87 1.15711 -1.1395 0
M  V30 15201 H 1394.87 4.14991 -0.398491 0
M  V30 15202 H 1393.53 3.2297 0.33472 0
M  V30 15203 H 1394.54 4.00832 -3.27954 0
M  V30 15204 H 1391.22 4.11571 -0.701112 0
M  V30 15205 H 1392.61 4.82022 -4.68085 0
M  V30 15206 N 1395.33 1.05191 1.17357 0
M  V30 15207 C 1396.56 0.781238 1.9126 0
M  V30 15208 C 1396.96 -0.66688 1.77057 0
M  V30 15209 O 1396.31 -1.4673 1.10526 0
M  V30 15210 C 1396.37 1.08225 3.42823 0
M  V30 15211 C 1396.03 2.52655 3.80808 0
M  V30 15212 C 1397.03 3.50864 3.83654 0
M  V30 15213 C 1394.72 2.87664 4.11771 0
M  V30 15214 C 1396.71 4.82127 4.16932 0
M  V30 15215 C 1394.4 4.1913 4.44717 0
M  V30 15216 C 1395.39 5.16172 4.47276 0
M  V30 15217 O 1395.08 6.4528 4.79447 0
M  V30 15218 H 1394.81 0.283516 0.613673 0
M  V30 15219 H 1397.37 1.40577 1.49758 0
M  V30 15220 H 1395.6 0.400623 3.84619 0
M  V30 15221 H 1397.29 0.797593 3.97987 0
M  V30 15222 H 1398.05 3.25158 3.59857 0
M  V30 15223 H 1393.93 2.12793 4.0895 0
M  V30 15224 H 1397.48 5.57867 4.18844 0
M  V30 15225 H 1393.37 4.44599 4.67976 0
M  V30 15226 H 1394.14 6.50101 4.97304 0
M  V30 15227 N 1396.8 -1.33791 0.83293 0
M  V30 15228 C 1397.75 -2.29332 0.25989 0
M  V30 15229 C 1398.72 -1.54056 -0.620965 0
M  V30 15230 O 1399.91 -1.82382 -0.560492 0
M  V30 15231 C 1397.05 -3.40461 -0.563964 0
M  V30 15232 C 1396.16 -4.30658 0.34025 0
M  V30 15233 C 1395.29 -5.28897 -0.494134 0
M  V30 15234 C 1394.33 -6.10733 0.408842 0
M  V30 15235 N 1393.47 -7.01032 -0.38706 0
M  V30 15236 H 1398.31 -2.77743 1.07996 0
M  V30 15237 H 1395.85 -1.3667 0.544043 0
M  V30 15238 H 1397.81 -4.03587 -1.05704 0
M  V30 15239 H 1396.44 -2.93258 -1.34905 0
M  V30 15240 H 1395.49 -3.68305 0.9516 0
M  V30 15241 H 1396.8 -4.87962 1.03415 0
M  V30 15242 H 1395.95 -5.97522 -1.05128 0
M  V30 15243 H 1394.69 -4.72155 -1.2215 0
M  V30 15244 H 1393.7 -5.41031 0.978046 0
M  V30 15245 H 1394.92 -6.69557 1.13448 0
M  V30 15246 H 1392.87 -6.46747 -1.09792 0
M  V30 15247 H 1392.79 -7.55592 0.248249 0
M  V30 15248 H 1394.05 -7.73973 -0.926631 0
M  V30 15249 N 1398.28 -0.588812 -1.46187 0
M  V30 15250 C 1399.69 -0.163897 -1.85979 0
M  V30 15251 C 1400.04 1.27458 -1.49161 0
M  V30 15252 O 1399.17 1.96365 -0.909372 0
M  V30 15253 C 1399.76 -0.29067 -3.37551 0
M  V30 15254 C 1398.32 0.0794165 -3.76316 0
M  V30 15255 C 1397.47 -0.623807 -2.70192 0
M  V30 15256 H 1400.42 -0.79666 -1.37255 0
M  V30 15257 H 1400.44 0.482316 -3.77431 0
M  V30 15258 H 1399.95 -1.33771 -3.64317 0
M  V30 15259 H 1398.06 1.12636 -3.55168 0
M  V30 15260 H 1398.17 -0.301153 -4.78153 0
M  V30 15261 H 1396.53 -0.0634124 -2.54621 0
M  V30 15262 H 1397.32 -1.67261 -2.99797 0
M  V30 15263 N 1399.76 1.54172 -0.326923 0
M  V30 15264 C 1400.69 2.20703 0.580137 0
M  V30 15265 C 1401.67 1.18523 1.11315 0
M  V30 15266 O 1402.86 1.47276 1.17652 0
M  V30 15267 C 1399.98 2.87137 1.79638 0
M  V30 15268 C 1399.03 4.03064 1.39432 0
M  V30 15269 S 1399.86 5.33785 0.428179 0
M  V30 15270 C 1401.02 6.03715 1.65163 0
M  V30 15271 H 1401.25 2.97296 0.0149964 0
M  V30 15272 H 1398.78 1.54 -0.111004 0
M  V30 15273 H 1400.74 3.26035 2.49423 0
M  V30 15274 H 1399.4 2.1034 2.33272 0
M  V30 15275 H 1398.6 4.48424 2.3007 0
M  V30 15276 H 1398.2 3.65858 0.776144 0
M  V30 15277 H 1400.49 6.26098 2.58858 0
M  V30 15278 H 1401.43 6.97156 1.24014 0
M  V30 15279 H 1401.84 5.33666 1.84014 0
M  V30 15280 N 1401.24 0.0551678 1.57503 0
M  V30 15281 C 1402.19 -0.935665 2.12951 0
M  V30 15282 C 1403.18 -1.31954 1.06229 0
M  V30 15283 O 1404.39 -1.29873 1.24632 0
M  V30 15284 H 1400.76 -0.319618 0.680697 0
M  V30 15285 H 1402.73 -0.442937 2.95094 0
M  V30 15286 C 1401.48 -2.19977 2.69268 0
M  V30 15287 H 1400.8 -1.91319 3.51051 0
M  V30 15288 H 1402.24 -2.87456 3.11681 0
M  V30 15289 C 1400.7 -2.94714 1.63233 0
M  V30 15290 O 1401.23 -3.87803 1.04747 0
M  V30 15291 N 1399.44 -2.57518 1.34659 0
M  V30 15292 H 1398.99 -1.81894 1.82407 0
M  V30 15293 H 1398.94 -3.07829 0.639425 0
M  V30 15294 N 1402.72 -1.56081 -0.218252 0
M  V30 15295 C 1403.67 -1.89082 -1.27405 0
M  V30 15296 C 1404.65 -0.754204 -1.42129 0
M  V30 15297 O 1405.84 -1.01668 -1.44888 0
M  V30 15298 C 1402.97 -2.21387 -2.62379 0
M  V30 15299 C 1402.06 -3.41448 -2.51543 0
M  V30 15300 N 1402.45 -4.5998 -2.10362 0
M  V30 15301 C 1400.75 -3.45128 -2.82494 0
M  V30 15302 C 1401.45 -5.42139 -2.10857 0
M  V30 15303 N 1400.42 -4.81936 -2.51472 0
M  V30 15304 H 1404.23 -2.78238 -0.946609 0
M  V30 15305 H 1401.74 -1.56691 -0.426801 0
M  V30 15306 H 1403.74 -2.43205 -3.38611 0
M  V30 15307 H 1402.4 -1.33545 -2.95966 0
M  V30 15308 H 1403.41 -4.85077 -1.8144 0
M  V30 15309 H 1400.08 -2.67638 -3.20431 0
M  V30 15310 H 1401.47 -6.47029 -1.81114 0
M  V30 15311 N 1404.2 0.485086 -1.49949 0
M  V30 15312 C 1405.14 1.60559 -1.68296 0
M  V30 15313 C 1406.14 1.60264 -0.548802 0
M  V30 15314 O 1407.34 1.64581 -0.728905 0
M  V30 15315 H 1403.72 0.532529 -0.530958 0
M  V30 15316 H 1405.69 1.42242 -2.62316 0
M  V30 15317 C 1404.44 2.98596 -1.78145 0
M  V30 15318 H 1403.76 2.99536 -2.64799 0
M  V30 15319 H 1405.2 3.76492 -1.95012 0
M  V30 15320 C 1403.66 3.32708 -0.529828 0
M  V30 15321 O 1404.19 4.00281 0.337347 0
M  V30 15322 N 1402.4 2.87998 -0.388012 0
M  V30 15323 H 1401.94 2.33182 -1.0947 0
M  V30 15324 H 1401.9 3.11187 0.448307 0
M  V30 15325 N 1405.67 1.39291 0.737279 0
M  V30 15326 C 1407.09 1.20845 1.04253 0
M  V30 15327 C 1407.29 0.0684513 2.01384 0
M  V30 15328 O 1406.35 -0.580615 2.45734 0
M  V30 15329 C 1407.66 2.54158 1.60699 0
M  V30 15330 C 1409.21 2.60983 1.72791 0
M  V30 15331 C 1409.68 3.94511 2.32647 0
M  V30 15332 N 1411.17 3.96138 2.4006 0
M  V30 15333 C 1411.91 4.96229 2.87306 0
M  V30 15334 N 1411.4 6.06716 3.34465 0
M  V30 15335 N 1413.2 4.83609 2.86494 0
M  V30 15336 H 1405.35 2.12196 0.0930416 0
M  V30 15337 H 1407.61 0.942289 0.103899 0
M  V30 15338 H 1407.32 3.38118 0.96795 0
M  V30 15339 H 1407.19 2.73715 2.59538 0
M  V30 15340 H 1409.58 1.77408 2.35818 0
M  V30 15341 H 1409.66 2.45278 0.726118 0
M  V30 15342 H 1409.3 4.78516 1.70249 0
M  V30 15343 H 1409.23 4.07536 3.33499 0
M  V30 15344 H 1411.72 3.16344 2.06725 0
M  V30 15345 H 1412.04 6.79002 3.6902 0
M  V30 15346 H 1410.38 6.10313 3.3248 0
M  V30 15347 H 1413.57 3.96396 2.48973 0
M  V30 15348 H 1413.75 5.6176 3.23001 0
M  V30 15349 N 1407.15 -0.967221 1.24429 0
M  V30 15350 C 1408.06 -2.09582 1.05417 0
M  V30 15351 C 1409.08 -1.73999 -0.00516127 0
M  V30 15352 O 1410.25 -2.00472 0.193115 0
M  V30 15353 C 1407.32 -3.40327 0.661697 0
M  V30 15354 C 1406.38 -3.89854 1.79756 0
M  V30 15355 C 1405.61 -5.1436 1.42372 0
M  V30 15356 O 1405.84 -5.69536 0.313754 0
M  V30 15357 O 1404.77 -5.58283 2.24952 0
M  V30 15358 H 1408.6 -2.28517 2.00034 0
M  V30 15359 H 1406.18 -1.07978 1.03253 0
M  V30 15360 H 1408.06 -4.18943 0.454369 0
M  V30 15361 H 1406.74 -3.22691 -0.255348 0
M  V30 15362 H 1405.64 -3.12297 2.05964 0
M  V30 15363 H 1406.98 -4.11967 2.69339 0
M  V30 15364 N 1408.63 -1.05812 -1.16797 0
M  V30 15365 C 1409.86 -0.79137 -1.90843 0
M  V30 15366 C 1410.27 0.657481 -1.77409 0
M  V30 15367 O 1409.61 1.46142 -1.11302 0
M  V30 15368 C 1409.67 -1.10042 -3.42244 0
M  V30 15369 C 1409.34 -2.54671 -3.79463 0
M  V30 15370 C 1410.33 -3.52894 -3.81788 0
M  V30 15371 C 1408.02 -2.89843 -4.10239 0
M  V30 15372 C 1410.01 -4.84332 -4.14369 0
M  V30 15373 C 1407.7 -4.21482 -4.42488 0
M  V30 15374 C 1408.7 -5.18537 -4.44532 0
M  V30 15375 O 1408.39 -6.47814 -4.76018 0
M  V30 15376 H 1408.12 -0.286766 -0.612161 0
M  V30 15377 H 1410.67 -1.41369 -1.4901 0
M  V30 15378 H 1408.9 -0.421015 -3.84401 0
M  V30 15379 H 1410.59 -0.818688 -3.97558 0
M  V30 15380 H 1411.36 -3.27062 -3.58128 0
M  V30 15381 H 1407.24 -2.14959 -4.07816 0
M  V30 15382 H 1410.78 -5.60081 -4.15879 0
M  V30 15383 H 1406.68 -4.47075 -4.65612 0
M  V30 15384 H 1407.44 -6.52729 -4.93849 0
M  V30 15385 N 1410.11 1.33347 -0.840014 0
M  V30 15386 C 1411.34 2.01952 -0.449793 0
M  V30 15387 C 1411.75 1.63197 0.949317 0
M  V30 15388 O 1411.11 0.84589 1.61713 0
M  V30 15389 C 1411.16 3.57102 -0.562178 0
M  V30 15390 O 1410.88 3.94458 -1.90616 0
M  V30 15391 C 1412.38 4.42978 -0.169062 0
M  V30 15392 H 1409.6 0.646843 -0.178425 0
M  V30 15393 H 1412.14 1.70251 -1.1329 0
M  V30 15394 H 1410.3 3.87331 0.0730345 0
M  V30 15395 H 1410.71 4.89167 -1.8925 0
M  V30 15396 H 1412.19 5.51191 -0.298742 0
M  V30 15397 H 1412.66 4.30106 0.889137 0
M  V30 15398 H 1413.27 4.18109 -0.778756 0
M  V30 15399 N 1411.59 0.596556 1.45873 0
M  V30 15400 C 1412.83 0.0850976 2.0152 0
M  V30 15401 C 1413.15 -1.28799 1.47208 0
M  V30 15402 O 1414.35 -1.89156 1.94762 0
M  V30 15403 C 1412.81 0.101488 3.59757 0
M  V30 15404 C 1412.42 1.47374 4.23066 0
M  V30 15405 C 1414.16 -0.355303 4.2301 0
M  V30 15406 C 1412.07 1.44711 5.73422 0
M  V30 15407 H 1411 0.0280444 0.753478 0
M  V30 15408 H 1413.65 0.750255 1.67462 0
M  V30 15409 H 1412.03 -0.630108 3.90955 0
M  V30 15410 H 1413.21 2.22617 4.03458 0
M  V30 15411 H 1411.52 1.87171 3.71962 0
M  V30 15412 H 1414.12 -0.394236 5.33245 0
M  V30 15413 H 1414.46 -1.37573 3.92911 0
M  V30 15414 H 1414.99 0.32267 3.96489 0
M  V30 15415 H 1411.73 2.44479 6.08203 0
M  V30 15416 H 1411.25 0.737102 5.95254 0
M  V30 15417 H 1412.93 1.16598 6.36407 0
M  V30 15418 N 1413.06 -1.53996 0.335095 0
M  V30 15419 C 1414.31 -1.99952 -0.264954 0
M  V30 15420 C 1414.63 -1.22696 -1.52332 0
M  V30 15421 O 1415.83 -1.59086 -2.20009 0
M  V30 15422 C 1414.29 -3.56085 -0.522667 0
M  V30 15423 C 1413.9 -4.42188 0.719314 0
M  V30 15424 C 1415.64 -4.10478 -1.08204 0
M  V30 15425 C 1413.55 -5.89814 0.432867 0
M  V30 15426 H 1412.48 -0.746962 -0.102782 0
M  V30 15427 H 1415.13 -1.77919 0.449111 0
M  V30 15428 H 1413.51 -3.7415 -1.29722 0
M  V30 15429 H 1414.68 -4.35898 1.49432 0
M  V30 15430 H 1413 -3.98743 1.19972 0
M  V30 15431 H 1415.6 -5.18375 -1.31116 0
M  V30 15432 H 1415.94 -3.63173 -2.03497 0
M  V30 15433 H 1416.47 -3.96091 -0.368395 0
M  V30 15434 H 1413.21 -6.41336 1.35529 0
M  V30 15435 H 1412.73 -5.99028 -0.304214 0
M  V30 15436 H 1414.41 -6.46983 0.0469657 0
M  V30 15437 N 1414.54 -0.0635198 -1.57472 0
M  V30 15438 C 1415.49 0.924358 -2.13444 0
M  V30 15439 C 1416.48 1.31389 -1.06927 0
M  V30 15440 O 1417.69 1.2921 -1.25319 0
M  V30 15441 H 1414.06 0.316003 -0.682383 0
M  V30 15442 H 1416.04 0.427281 -2.95325 0
M  V30 15443 C 1414.78 2.18546 -2.70431 0
M  V30 15444 H 1414.11 1.89455 -3.52061 0
M  V30 15445 H 1415.55 2.85799 -3.13201 0
M  V30 15446 C 1414.01 2.93845 -1.64794 0
M  V30 15447 O 1414.54 3.87242 -1.06802 0
M  V30 15448 N 1412.74 2.568 -1.36023 0
M  V30 15449 H 1412.29 1.80924 -1.83369 0
M  V30 15450 H 1412.25 3.07486 -0.655741 0
M  V30 15451 N 1416.02 1.56195 0.209972 0
M  V30 15452 C 1417.26 1.81525 0.939574 0
M  V30 15453 C 1417.62 0.638789 1.81062 0
M  V30 15454 O 1418.82 0.771648 2.57486 0
M  V30 15455 C 1417.1 3.11809 1.7467 0
M  V30 15456 S 1418.65 3.58494 2.53036 0
M  V30 15457 H 1415.47 0.637211 0.31541 0
M  V30 15458 H 1418.07 1.94431 0.204175 0
M  V30 15459 H 1416.78 3.95463 1.09715 0
M  V30 15460 H 1416.31 3.01742 2.52419 0
M  V30 15461 H 1418.32 3.2275 3.76891 0
M  V30 15462 N 1417.5 -0.477127 1.50204 0
M  V30 15463 C 1418.43 -1.59442 1.63259 0
M  V30 15464 C 1419.41 -1.55327 0.480864 0
M  V30 15465 O 1420.59 -1.75038 0.699578 0
M  V30 15466 C 1417.72 -2.98009 1.6096 0
M  V30 15467 C 1416.77 -3.20301 2.8162 0
M  V30 15468 S 1417.6 -3.00849 4.43001 0
M  V30 15469 C 1418.75 -4.41769 4.43386 0
M  V30 15470 H 1418.99 -1.48128 2.5777 0
M  V30 15471 H 1416.52 -0.66403 1.39392 0
M  V30 15472 H 1418.48 -3.779 1.60319 0
M  V30 15473 H 1417.14 -3.06718 0.676948 0
M  V30 15474 H 1416.33 -4.21515 2.76299 0
M  V30 15475 H 1415.93 -2.48173 2.79797 0
M  V30 15476 H 1418.23 -5.34294 4.16576 0
M  V30 15477 H 1419.17 -4.52135 5.44958 0
M  V30 15478 H 1419.58 -4.23565 3.73166 0
M  V30 15479 N 1418.98 -1.3968 -0.729882 0
M  V30 15480 C 1420.22 -1.36911 -1.4866 0
M  V30 15481 C 1420.55 0.0326011 -1.94973 0
M  V30 15482 O 1419.82 0.984789 -1.69348 0
M  V30 15483 H 1418.4 -0.503848 -0.551495 0
M  V30 15484 H 1421.06 -1.74596 -0.866155 0
M  V30 15485 H 1420.15 -2.03504 -2.36628 0
M  V30 15486 N 1420.45 0.960609 -1.2494 0
M  V30 15487 C 1421.4 2.07763 -1.04581 0
M  V30 15488 C 1422.4 1.69386 0.0214505 0
M  V30 15489 O 1423.6 1.79503 -0.133683 0
M  V30 15490 H 1419.98 0.679944 -0.321216 0
M  V30 15491 H 1421.95 2.22094 -1.99291 0
M  V30 15492 C 1420.7 3.41088 -0.674876 0
M  V30 15493 H 1420.02 3.71082 -1.4879 0
M  V30 15494 H 1421.46 4.20123 -0.572079 0
M  V30 15495 C 1419.92 3.31172 0.6186 0
M  V30 15496 O 1420.45 3.65688 1.66238 0
M  V30 15497 N 1418.66 2.84297 0.601984 0
M  V30 15498 H 1418.2 2.56406 -0.24778 0
M  V30 15499 H 1418.16 2.78045 1.4676 0
M  V30 15500 N 1421.93 1.0643 1.16234 0
M  V30 15501 C 1422.88 0.670457 2.22728 0
M  V30 15502 C 1423.87 -0.31428 1.66459 0
M  V30 15503 O 1425.08 -0.178996 1.79108 0
M  V30 15504 H 1421.46 0.198692 0.725276 0
M  V30 15505 H 1423.43 1.57846 2.53233 0
M  V30 15506 C 1422.18 0.074379 3.4762 0
M  V30 15507 H 1421.5 0.823227 3.91233 0
M  V30 15508 H 1422.94 -0.163652 4.23684 0
M  V30 15509 C 1421.4 -1.18242 3.15469 0
M  V30 15510 O 1421.93 -2.27018 3.314 0
M  V30 15511 N 1420.13 -1.08493 2.69588 0
M  V30 15512 H 1419.68 -0.199714 2.56825 0
M  V30 15513 H 1419.64 -1.92666 2.48449 0
M  V30 15514 N 1423.41 -1.329 0.847073 0
M  V30 15515 C 1424.36 -2.3097 0.27487 0
M  V30 15516 C 1425.35 -1.58508 -0.597625 0
M  V30 15517 O 1426.56 -1.73307 -0.486273 0
M  V30 15518 H 1422.93 -0.748719 0.0701719 0
M  V30 15519 H 1424.9 -2.7673 1.11638 0
M  V30 15520 C 1423.65 -3.43662 -0.528363 0
M  V30 15521 H 1422.98 -3.99576 0.133707 0
M  V30 15522 H 1424.42 -4.14458 -0.894443 0
M  V30 15523 C 1422.88 -2.90244 -1.71055 0
M  V30 15524 O 1423.41 -2.87109 -2.80947 0
M  V30 15525 N 1421.61 -2.46743 -1.53512 0
M  V30 15526 H 1421.16 -2.49493 -0.641181 0
M  V30 15527 H 1421.12 -2.11356 -2.32757 0
M  V30 15528 N 1424.89 -0.604284 -1.45555 0
M  V30 15529 C 1426.11 -0.102634 -2.07146 0
M  V30 15530 C 1426.54 1.20239 -1.44652 0
M  V30 15531 O 1425.9 1.73133 -0.538033 0
M  V30 15532 C 1425.94 0.0270231 -3.6059 0
M  V30 15533 O 1425.05 1.0781 -3.98059 0
M  V30 15534 H 1424.39 -0.0725667 -0.660023 0
M  V30 15535 H 1426.92 -0.833355 -1.86859 0
M  V30 15536 H 1426.93 0.226299 -4.07372 0
M  V30 15537 H 1425.6 -0.925896 -4.05463 0
M  V30 15538 H 1424.18 0.855552 -3.62953 0
M  V30 15539 N 1426.37 1.53816 -0.343257 0
M  V30 15540 C 1427.61 2.00512 0.252845 0
M  V30 15541 C 1427.94 1.23274 1.51091 0
M  V30 15542 O 1427.21 0.339841 1.9293 0
M  V30 15543 H 1425.79 0.740751 0.0964202 0
M  V30 15544 H 1428.45 1.89288 -0.464347 0
M  V30 15545 H 1427.54 3.08142 0.495499 0
M  V30 15546 N 1427.84 0.0718701 1.57436 0
M  V30 15547 C 1429.09 -0.592107 1.94591 0
M  V30 15548 C 1429.45 -1.67215 0.951678 0
M  V30 15549 O 1428.74 -1.91582 -0.0260281 0
M  V30 15550 C 1428.93 -1.21336 3.36173 0
M  V30 15551 C 1428.76 -0.195025 4.49277 0
M  V30 15552 C 1427.53 0.220335 5.04819 0
M  V30 15553 C 1429.73 0.567752 5.11157 0
M  V30 15554 N 1427.71 1.22937 6.01465 0
M  V30 15555 C 1429.08 1.42926 6.03301 0
M  V30 15556 C 1431.14 0.623812 4.93977 0
M  V30 15557 C 1429.84 2.34185 6.8011 0
M  V30 15558 C 1431.87 1.52391 5.71429 0
M  V30 15559 C 1431.23 2.3731 6.63222 0
M  V30 15560 H 1427.33 -0.187692 0.759141 0
M  V30 15561 H 1429.91 0.149031 1.94129 0
M  V30 15562 H 1428.08 -1.92442 3.37373 0
M  V30 15563 H 1429.81 -1.83781 3.60564 0
M  V30 15564 H 1426.57 -0.162798 4.7332 0
M  V30 15565 H 1426.99 1.7314 6.54486 0
M  V30 15566 H 1431.64 -0.0185243 4.22796 0
M  V30 15567 H 1429.35 2.99455 7.50568 0
M  V30 15568 H 1432.94 1.57212 5.60157 0
M  V30 15569 H 1431.82 3.05829 7.22107 0
M  V30 15570 N 1429.32 -1.56304 -0.201686 0
M  V30 15571 C 1430.27 -1.94021 -1.24999 0
M  V30 15572 C 1431.24 -0.799926 -1.45569 0
M  V30 15573 O 1432.42 -1.05752 -1.58811 0
M  V30 15574 C 1429.56 -2.27935 -2.59113 0
M  V30 15575 C 1428.68 -3.54995 -2.46176 0
M  V30 15576 C 1427.81 -3.78262 -3.72949 0
M  V30 15577 C 1426.85 -4.9877 -3.54817 0
M  V30 15578 N 1425.99 -5.18325 -4.73586 0
M  V30 15579 H 1430.83 -2.834 -0.92134 0
M  V30 15580 H 1428.37 -1.40252 -0.44359 0
M  V30 15581 H 1430.32 -2.45613 -3.37239 0
M  V30 15582 H 1428.95 -1.41705 -2.90034 0
M  V30 15583 H 1428.01 -3.45401 -1.59381 0
M  V30 15584 H 1429.32 -4.43277 -2.28708 0
M  V30 15585 H 1428.47 -3.96144 -4.59516 0
M  V30 15586 H 1427.21 -2.88299 -3.93364 0
M  V30 15587 H 1426.22 -4.80818 -2.66635 0
M  V30 15588 H 1427.44 -5.90237 -3.35854 0
M  V30 15589 H 1425.39 -4.31308 -4.94277 0
M  V30 15590 H 1425.3 -6.00774 -4.58919 0
M  V30 15591 H 1426.57 -5.40659 -5.61523 0
M  V30 15592 N 1430.8 0.469154 -1.50455 0
M  V30 15593 C 1432.05 1.21788 -1.60781 0
M  V30 15594 C 1432.36 1.93054 -0.314576 0
M  V30 15595 O 1433.57 2.69873 -0.296773 0
M  V30 15596 C 1432.02 2.21305 -2.83817 0
M  V30 15597 C 1431.63 1.55833 -4.20024 0
M  V30 15598 C 1433.38 2.96808 -3.03489 0
M  V30 15599 C 1431.28 2.53648 -5.34244 0
M  V30 15600 H 1430.21 0.45827 -0.598752 0
M  V30 15601 H 1432.86 0.488159 -1.76888 0
M  V30 15602 H 1431.25 2.97577 -2.61273 0
M  V30 15603 H 1432.42 0.853371 -4.52829 0
M  V30 15604 H 1430.74 0.926046 -4.05972 0
M  V30 15605 H 1433.33 3.70017 -3.85994 0
M  V30 15606 H 1433.68 3.56307 -2.15293 0
M  V30 15607 H 1434.21 2.27648 -3.26223 0
M  V30 15608 H 1430.95 1.98885 -6.246 0
M  V30 15609 H 1430.47 3.22291 -5.05854 0
M  V30 15610 H 1432.15 3.15438 -5.64897 0
M  V30 15611 N 1432.28 1.40065 0.722464 0
M  V30 15612 C 1433.5 1.4146 1.5167 0
M  V30 15613 C 1433.93 0.0142653 1.88095 0
M  V30 15614 O 1433.29 -0.975934 1.52791 0
M  V30 15615 C 1433.33 2.30531 2.77287 0
M  V30 15616 O 1432.44 1.74382 3.73717 0
M  V30 15617 H 1431.78 0.481194 0.457546 0
M  V30 15618 H 1434.31 1.84213 0.890331 0
M  V30 15619 H 1434.32 2.45479 3.25889 0
M  V30 15620 H 1432.99 3.32292 2.50109 0
M  V30 15621 H 1431.57 1.68743 3.32536 0
M  V30 15622 N 1433.76 -0.95397 1.25448 0
M  V30 15623 C 1434.69 -2.06828 1.08372 0
M  V30 15624 C 1435.67 -1.70098 -0.00741585 0
M  V30 15625 O 1436.85 -1.93521 0.16224 0
M  V30 15626 C 1433.98 -3.40124 0.702365 0
M  V30 15627 C 1432.94 -3.90865 1.74381 0
M  V30 15628 C 1432.26 -5.20663 1.21712 0
M  V30 15629 C 1433.56 -4.17169 3.14273 0
M  V30 15630 H 1435.26 -2.21372 2.01581 0
M  V30 15631 H 1432.8 -1.06374 0.970592 0
M  V30 15632 H 1434.76 -4.17529 0.569837 0
M  V30 15633 H 1433.48 -3.2552 -0.265428 0
M  V30 15634 H 1432.14 -3.15628 1.86479 0
M  V30 15635 H 1431.79 -5.02429 0.23954 0
M  V30 15636 H 1431.49 -5.55581 1.91319 0
M  V30 15637 H 1433.01 -6.00665 1.097 0
M  V30 15638 H 1434.43 -4.85231 3.05325 0
M  V30 15639 H 1432.82 -4.63344 3.81356 0
M  V30 15640 H 1433.89 -3.23421 3.61285 0
M  V30 15641 N 1435.24 -1.07045 -1.15668 0
M  V30 15642 C 1436.65 -0.795369 -1.38369 0
M  V30 15643 C 1436.85 0.601829 -1.92303 0
M  V30 15644 O 1435.91 1.36109 -2.12675 0
M  V30 15645 C 1437.22 -1.86659 -2.35752 0
M  V30 15646 C 1438.77 -1.89098 -2.49421 0
M  V30 15647 C 1439.24 -2.95296 -3.50092 0
M  V30 15648 N 1440.73 -2.94378 -3.57625 0
M  V30 15649 C 1441.47 -3.73194 -4.35331 0
M  V30 15650 N 1440.97 -4.61851 -5.16397 0
M  V30 15651 N 1442.76 -3.61554 -4.30389 0
M  V30 15652 H 1434.91 -1.97162 -0.790004 0
M  V30 15653 H 1437.17 -0.854816 -0.40987 0
M  V30 15654 H 1436.88 -2.87036 -2.03232 0
M  V30 15655 H 1436.75 -1.72406 -3.35494 0
M  V30 15656 H 1439.14 -0.893752 -2.8124 0
M  V30 15657 H 1439.22 -2.07429 -1.49689 0
M  V30 15658 H 1438.86 -3.95217 -3.19008 0
M  V30 15659 H 1438.79 -2.74212 -4.49572 0
M  V30 15660 H 1441.29 -2.3011 -2.99763 0
M  V30 15661 H 1441.6 -5.18629 -5.72926 0
M  V30 15662 H 1439.94 -4.65902 -5.15714 0
M  V30 15663 H 1443.13 -2.91672 -3.66122 0
M  V30 15664 H 1443.31 -4.23221 -4.90701 0
M  V30 15665 N 1436.71 1.32449 -0.85411 0
M  V30 15666 C 1437.94 2.01463 -0.471188 0
M  V30 15667 C 1438.36 1.64195 0.931954 0
M  V30 15668 O 1437.71 0.862994 1.60806 0
M  V30 15669 C 1437.76 3.56486 -0.600022 0
M  V30 15670 O 1437.49 3.92414 -1.94789 0
M  V30 15671 C 1438.99 4.42773 -0.216036 0
M  V30 15672 H 1436.21 0.644914 -0.185275 0
M  V30 15673 H 1438.75 1.6904 -1.1509 0
M  V30 15674 H 1436.91 3.87387 0.0319488 0
M  V30 15675 H 1437.32 4.87133 -1.94427 0
M  V30 15676 H 1438.79 5.50843 -0.357186 0
M  V30 15677 H 1439.27 4.31025 0.843468 0
M  V30 15678 H 1439.88 4.1726 -0.823058 0
M  V30 15679 N 1438.19 0.611994 1.45232 0
M  V30 15680 C 1439.44 0.109073 2.02506 0
M  V30 15681 C 1439.77 -1.25876 1.47881 0
M  V30 15682 O 1439.05 -1.83131 0.65524 0
M  V30 15683 C 1439.33 0.0749288 3.60022 0
M  V30 15684 C 1439.18 1.47374 4.24972 0
M  V30 15685 C 1440.5 -0.610602 4.35844 0
M  V30 15686 H 1437.62 0.0411101 0.735853 0
M  V30 15687 H 1440.26 0.78481 1.73034 0
M  V30 15688 H 1438.41 -0.500511 3.85262 0
M  V30 15689 H 1440.08 2.0966 4.10902 0
M  V30 15690 H 1438.33 2.03319 3.83202 0
M  V30 15691 H 1439 1.40206 5.33897 0
M  V30 15692 H 1441.47 -0.121445 4.15923 0
M  V30 15693 H 1440.35 -0.603614 5.45571 0
M  V30 15694 H 1440.61 -1.6775 4.09038 0
M  V30 15695 N 1439.67 -1.53632 0.351409 0
M  V30 15696 C 1441.09 -1.596 -0.000214515 0
M  V30 15697 C 1441.29 -1.36709 -1.4803 0
M  V30 15698 O 1440.34 -1.16524 -2.24006 0
M  V30 15699 C 1441.65 -2.97419 0.443013 0
M  V30 15700 C 1443.2 -3.10485 0.396025 0
M  V30 15701 C 1443.68 -4.50693 0.814843 0
M  V30 15702 N 1445.17 -4.56766 0.76934 0
M  V30 15703 C 1445.9 -5.63418 1.06526 0
M  V30 15704 N 1445.4 -6.77887 1.42974 0
M  V30 15705 N 1447.19 -5.53331 0.988986 0
M  V30 15706 H 1439.34 -1.66765 1.31542 0
M  V30 15707 H 1441.61 -0.781418 0.53674 0
M  V30 15708 H 1441.31 -3.19262 1.47529 0
M  V30 15709 H 1441.19 -3.76781 -0.177725 0
M  V30 15710 H 1443.57 -2.8836 -0.627092 0
M  V30 15711 H 1443.65 -2.33163 1.05207 0
M  V30 15712 H 1443.3 -4.73554 1.83601 0
M  V30 15713 H 1443.23 -5.26424 0.136193 0
M  V30 15714 H 1445.72 -3.74569 0.500623 0
M  V30 15715 H 1446.03 -7.55194 1.64018 0
M  V30 15716 H 1444.38 -6.79314 1.46827 0
M  V30 15717 H 1447.57 -4.62783 0.703526 0
M  V30 15718 H 1447.74 -6.36355 1.22295 0
M  V30 15719 N 1441.15 -0.0802183 -1.57396 0
M  V30 15720 C 1442.42 0.628419 -1.8523 0
M  V30 15721 C 1442.8 1.87272 -0.974288 0
M  V30 15722 O 1442.15 2.2846 -0.0427687 0
M  V30 15723 C 1442.36 0.958033 -3.35593 0
M  V30 15724 C 1443.71 1.3279 -4.03301 0
M  V30 15725 O 1444.73 1.04951 -3.40388 0
M  V30 15726 O 1443.59 1.84865 -5.14283 0
M  V30 15727 H 1440.69 0.312945 -0.765503 0
M  V30 15728 H 1443.23 -0.111788 -1.69331 0
M  V30 15729 H 1442.01 0.074648 -3.91229 0
M  V30 15730 H 1441.63 1.75472 -3.56785 0
M  V30 15731 N 1442.63 1.56409 0.193394 0
M  V30 15732 C 1443.87 1.82511 0.920268 0
M  V30 15733 C 1444.23 0.657957 1.80374 0
M  V30 15734 O 1445.43 0.798914 2.56653 0
M  V30 15735 C 1443.7 3.13644 1.71354 0
M  V30 15736 S 1445.26 3.61158 2.4922 0
M  V30 15737 H 1442.08 0.64052 0.308634 0
M  V30 15738 H 1444.68 1.94637 0.183542 0
M  V30 15739 H 1443.38 3.96604 1.05514 0
M  V30 15740 H 1442.92 3.04402 2.49205 0
M  V30 15741 H 1444.93 3.26729 3.73447 0
M  V30 15742 N 1444.1 -0.461169 1.50702 0
M  V30 15743 C 1445.01 -1.58355 1.73092 0
M  V30 15744 C 1446.03 -1.62795 0.61431 0
M  V30 15745 O 1447.21 -1.8048 0.893806 0
M  V30 15746 C 1444.27 -2.94509 1.82936 0
M  V30 15747 C 1443.33 -3.00378 3.06711 0
M  V30 15748 C 1442.56 -4.30037 3.16076 0
M  V30 15749 O 1442.79 -5.21097 2.31978 0
M  V30 15750 O 1441.72 -4.41702 4.08881 0
M  V30 15751 H 1445.55 -1.42384 2.68255 0
M  V30 15752 H 1443.13 -0.641709 1.34916 0
M  V30 15753 H 1445.01 -3.75357 1.91534 0
M  V30 15754 H 1443.69 -3.10658 0.909581 0
M  V30 15755 H 1442.6 -2.18571 3.03608 0
M  V30 15756 H 1443.93 -2.89167 3.983 0
M  V30 15757 N 1445.58 -1.40446 -0.715026 0
M  V30 15758 C 1446.83 -1.38059 -1.47046 0
M  V30 15759 C 1447.14 0.0139125 -1.95595 0
M  V30 15760 O 1448.35 0.160398 -2.71026 0
M  V30 15761 C 1446.81 -2.42646 -2.65802 0
M  V30 15762 C 1446.41 -3.8791 -2.2412 0
M  V30 15763 C 1448.16 -2.49367 -3.43535 0
M  V30 15764 C 1446.06 -4.84092 -3.39719 0
M  V30 15765 H 1444.99 -0.513341 -0.552265 0
M  V30 15766 H 1447.65 -1.66185 -0.778126 0
M  V30 15767 H 1446.03 -2.07621 -3.37208 0
M  V30 15768 H 1447.2 -4.32082 -1.6013 0
M  V30 15769 H 1445.52 -3.8467 -1.5943 0
M  V30 15770 H 1448.11 -3.18414 -4.29554 0
M  V30 15771 H 1448.46 -1.52436 -3.87388 0
M  V30 15772 H 1448.99 -2.83386 -2.79173 0
M  V30 15773 H 1445.73 -5.82358 -3.00898 0
M  V30 15774 H 1445.25 -4.44584 -4.02623 0
M  V30 15775 H 1446.93 -5.03939 -4.05776 0
M  V30 15776 N 1447.06 0.947303 -1.25952 0
M  V30 15777 C 1448.31 1.68721 -1.10527 0
M  V30 15778 C 1448.62 1.92403 0.352215 0
M  V30 15779 O 1449.83 2.6416 0.627036 0
M  V30 15780 C 1448.28 3.03785 -1.92983 0
M  V30 15781 C 1447.89 2.87873 -3.43268 0
M  V30 15782 C 1449.64 3.81509 -1.86149 0
M  V30 15783 C 1447.54 4.18373 -4.17993 0
M  V30 15784 H 1446.47 0.632774 -0.410016 0
M  V30 15785 H 1449.12 1.054 -1.5021 0
M  V30 15786 H 1447.51 3.68052 -1.46128 0
M  V30 15787 H 1448.68 2.32493 -3.97848 0
M  V30 15788 H 1446.99 2.23598 -3.51273 0
M  V30 15789 H 1449.59 4.78179 -2.39267 0
M  V30 15790 H 1449.93 4.07923 -0.83091 0
M  V30 15791 H 1450.47 3.24005 -2.30794 0
M  V30 15792 H 1447.21 3.97145 -5.21494 0
M  V30 15793 H 1446.73 4.7349 -3.68194 0
M  V30 15794 H 1448.41 4.86869 -4.26108 0
M  V30 15795 N 1448.54 1.07657 1.15099 0
M  V30 15796 C 1449.78 0.812636 1.86461 0
M  V30 15797 C 1450.14 -0.654311 1.80932 0
M  V30 15798 O 1449.43 -1.47429 1.22373 0
M  V30 15799 C 1449.63 1.25903 3.3449 0
M  V30 15800 C 1449.46 2.76783 3.54431 0
M  V30 15801 C 1448.23 3.44432 3.69722 0
M  V30 15802 C 1450.42 3.74974 3.51993 0
M  V30 15803 N 1448.41 4.83922 3.77747 0
M  V30 15804 C 1449.78 5.0032 3.66169 0
M  V30 15805 C 1451.83 3.68087 3.35285 0
M  V30 15806 C 1450.53 6.19598 3.65364 0
M  V30 15807 C 1452.56 4.86832 3.3578 0
M  V30 15808 C 1451.92 6.11013 3.50489 0
M  V30 15809 H 1448.02 0.349967 0.699319 0
M  V30 15810 H 1450.61 1.37343 1.38003 0
M  V30 15811 H 1448.78 0.725898 3.81556 0
M  V30 15812 H 1450.51 0.942315 3.93577 0
M  V30 15813 H 1447.26 2.94841 3.70629 0
M  V30 15814 H 1447.69 5.56527 3.85495 0
M  V30 15815 H 1452.33 2.73021 3.2283 0
M  V30 15816 H 1450.05 7.14982 3.76597 0
M  V30 15817 H 1453.63 4.83183 3.24076 0
M  V30 15818 H 1452.51 7.01358 3.50809 0
M  V30 15819 N 1450.02 -1.31994 0.861122 0
M  V30 15820 C 1451.24 -2.01211 0.481865 0
M  V30 15821 C 1451.66 -1.64687 -0.923233 0
M  V30 15822 O 1451.02 -0.87151 -1.60346 0
M  V30 15823 C 1451.07 -3.56162 0.618919 0
M  V30 15824 O 1450.79 -3.91376 1.96868 0
M  V30 15825 C 1452.29 -4.42652 0.239514 0
M  V30 15826 H 1449.51 -0.643922 0.188693 0
M  V30 15827 H 1452.05 -1.68427 1.15985 0
M  V30 15828 H 1450.21 -3.87398 -0.0114042 0
M  V30 15829 H 1450.62 -4.86095 1.97008 0
M  V30 15830 H 1452.1 -5.50646 0.386394 0
M  V30 15831 H 1452.57 -4.31466 -0.820598 0
M  V30 15832 H 1453.18 -4.16818 0.845175 0
M  V30 15833 N 1451.49 -0.619688 -1.44906 0
M  V30 15834 C 1452.42 0.0791121 -2.33366 0
M  V30 15835 C 1453.41 0.846503 -1.47541 0
M  V30 15836 O 1454.59 0.814657 -1.76287 0
M  V30 15837 C 1451.72 1.06901 -3.30438 0
M  V30 15838 C 1450.67 0.41403 -4.25993 0
M  V30 15839 C 1450 1.51303 -5.12846 0
M  V30 15840 C 1451.3 -0.672483 -5.17953 0
M  V30 15841 H 1452.99 -0.659551 -2.92045 0
M  V30 15842 H 1450.54 -0.318623 -1.40431 0
M  V30 15843 H 1452.49 1.56653 -3.912 0
M  V30 15844 H 1451.22 1.83842 -2.69944 0
M  V30 15845 H 1449.88 -0.0627315 -3.66546 0
M  V30 15846 H 1449.52 2.27303 -4.48712 0
M  V30 15847 H 1449.22 1.08022 -5.77586 0
M  V30 15848 H 1450.75 2.01258 -5.76479 0
M  V30 15849 H 1452.16 -0.258542 -5.72717 0
M  V30 15850 H 1450.56 -1.02776 -5.91234 0
M  V30 15851 H 1451.63 -1.54425 -4.59653 0
M  V30 15852 N 1452.97 1.53444 -0.359552 0
M  V30 15853 C 1453.9 2.23121 0.524379 0
M  V30 15854 C 1454.92 1.24324 1.05106 0
M  V30 15855 O 1456.11 1.50584 0.958476 0
M  V30 15856 C 1453.21 2.91055 1.7361 0
M  V30 15857 C 1452.38 4.16306 1.34195 0
M  V30 15858 C 1451.44 4.67504 2.41508 0
M  V30 15859 O 1450.46 5.3133 2.04149 0
M  V30 15860 N 1451.67 4.44801 3.73005 0
M  V30 15861 H 1454.43 2.99612 -0.072427 0
M  V30 15862 H 1451.99 1.60846 -0.184438 0
M  V30 15863 H 1453.98 3.22216 2.44865 0
M  V30 15864 H 1452.55 2.18052 2.23991 0
M  V30 15865 H 1451.77 3.91513 0.459501 0
M  V30 15866 H 1453.06 4.97746 1.05483 0
M  V30 15867 H 1452.46 3.9379 4.06136 0
M  V30 15868 H 1451.02 4.80528 4.40382 0
M  V30 15869 N 1454.45 0.0885642 1.57351 0
M  V30 15870 C 1455.73 -0.618587 1.85561 0
M  V30 15871 C 1456.11 -1.86753 0.984206 0
M  V30 15872 O 1455.46 -2.28434 0.0548839 0
M  V30 15873 C 1455.67 -0.940222 3.36096 0
M  V30 15874 C 1457.01 -1.30649 4.04 0
M  V30 15875 O 1458.04 -1.03144 3.4094 0
M  V30 15876 O 1456.9 -1.82135 5.15256 0
M  V30 15877 H 1453.99 -0.308881 0.767152 0
M  V30 15878 H 1456.54 0.120767 1.6927 0
M  V30 15879 H 1455.31 -0.0538991 3.91263 0
M  V30 15880 H 1454.93 -1.73577 3.5771 0
M  V30 15881 N 1455.93 -1.56509 -0.185096 0
M  V30 15882 C 1457.16 -1.85327 -0.91986 0
M  V30 15883 C 1457.57 -0.672294 -1.76425 0
M  V30 15884 O 1456.93 0.358854 -1.78937 0
M  V30 15885 C 1456.98 -3.13047 -1.80787 0
M  V30 15886 O 1456.7 -4.26591 -0.997569 0
M  V30 15887 C 1458.2 -3.55114 -2.65347 0
M  V30 15888 H 1455.42 -0.615196 -0.267909 0
M  V30 15889 H 1457.97 -2.03622 -0.189338 0
M  V30 15890 H 1456.12 -2.96619 -2.4919 0
M  V30 15891 H 1456.53 -4.99384 -1.60362 0
M  V30 15892 H 1458.01 -4.47419 -3.23295 0
M  V30 15893 H 1458.49 -2.78576 -3.39547 0
M  V30 15894 H 1459.09 -3.74105 -2.023 0
M  V30 15895 N 1457.41 0.45317 -1.50944 0
M  V30 15896 C 1458.63 1.23136 -1.6689 0
M  V30 15897 C 1459.06 1.84639 -0.359185 0
M  V30 15898 O 1458.41 1.68106 0.678983 0
M  V30 15899 C 1458.46 2.30275 -2.77499 0
M  V30 15900 O 1457.57 3.35371 -2.39999 0
M  V30 15901 H 1456.91 0.361475 -0.556984 0
M  V30 15902 H 1459.44 0.537174 -1.97422 0
M  V30 15903 H 1459.45 2.75309 -3.01113 0
M  V30 15904 H 1458.12 1.84885 -3.72546 0
M  V30 15905 H 1456.7 2.95924 -2.26899 0
M  V30 15906 N 1458.88 1.40823 0.707568 0
M  V30 15907 C 1460.13 1.39259 1.46463 0
M  V30 15908 C 1460.45 -0.00157854 1.95 0
M  V30 15909 O 1459.72 -0.957723 1.70893 0
M  V30 15910 H 1458.3 0.512558 0.543409 0
M  V30 15911 H 1460.97 1.75952 0.838269 0
M  V30 15912 H 1460.06 2.07243 2.3336 0
M  V30 15913 N 1460.36 -0.94061 1.26453 0
M  V30 15914 C 1461.31 -2.06073 1.07873 0
M  V30 15915 C 1462.3 -1.69399 0.0055001 0
M  V30 15916 O 1463.51 -1.79267 0.162224 0
M  V30 15917 H 1459.89 -0.674748 0.331993 0
M  V30 15918 H 1461.86 -2.18895 2.02799 0
M  V30 15919 C 1460.61 -3.39971 0.729054 0
M  V30 15920 H 1459.93 -3.68667 1.54675 0
M  V30 15921 H 1461.37 -4.1916 0.638844 0
M  V30 15922 C 1459.83 -3.32114 -0.565835 0
M  V30 15923 O 1460.36 -3.68287 -1.60399 0
M  V30 15924 N 1458.56 -2.85218 -0.556679 0
M  V30 15925 H 1458.11 -2.55979 0.288541 0
M  V30 15926 H 1458.07 -2.80344 -1.42318 0
M  V30 15927 N 1461.84 -1.08266 -1.14527 0
M  V30 15928 C 1462.79 -0.711332 -2.19565 0
M  V30 15929 C 1463.76 0.301774 -1.63336 0
M  V30 15930 O 1464.94 0.186109 -1.8989 0
M  V30 15931 C 1462.08 -0.125255 -3.44873 0
M  V30 15932 C 1461.2 -1.19096 -4.15259 0
M  V30 15933 C 1460.33 -0.568901 -5.28145 0
M  V30 15934 C 1459.37 -1.61675 -5.90362 0
M  V30 15935 N 1458.51 -1.01659 -6.94701 0
M  V30 15936 H 1463.35 -1.61137 -2.50677 0
M  V30 15937 H 1460.88 -0.805286 -1.231 0
M  V30 15938 H 1462.84 0.232247 -4.16553 0
M  V30 15939 H 1461.47 0.738101 -3.14248 0
M  V30 15940 H 1460.52 -1.66591 -3.41982 0
M  V30 15941 H 1461.84 -1.98508 -4.57598 0
M  V30 15942 H 1460.99 -0.159563 -6.0649 0
M  V30 15943 H 1459.73 0.256884 -4.87023 0
M  V30 15944 H 1458.73 -2.03576 -5.10722 0
M  V30 15945 H 1459.96 -2.44498 -6.33559 0
M  V30 15946 H 1457.9 -0.211872 -6.55658 0
M  V30 15947 H 1457.82 -1.74781 -7.35518 0
M  V30 15948 H 1459.09 -0.63306 -7.76925 0
M  V30 15949 N 1463.32 1.31536 -0.86811 0
M  V30 15950 C 1464.23 2.32326 -0.32588 0
M  V30 15951 C 1465.25 1.64632 0.563243 0
M  V30 15952 O 1466.42 1.96067 0.460403 0
M  V30 15953 C 1463.49 3.43562 0.46539 0
M  V30 15954 C 1462.55 4.26919 -0.451472 0
M  V30 15955 C 1461.78 5.32844 0.302129 0
M  V30 15956 O 1462 5.49485 1.53045 0
M  V30 15957 O 1460.94 6.00944 -0.339048 0
M  V30 15958 H 1464.76 2.80622 -1.16126 0
M  V30 15959 H 1462.35 1.35401 -0.631428 0
M  V30 15960 H 1464.23 4.11368 0.914028 0
M  V30 15961 H 1462.91 2.97432 1.27734 0
M  V30 15962 H 1461.81 3.61874 -0.948571 0
M  V30 15963 H 1463.15 4.7661 -1.22897 0
M  V30 15964 N 1464.8 0.627364 1.44575 0
M  V30 15965 C 1465.75 -0.0920488 2.32418 0
M  V30 15966 C 1466.74 -0.839633 1.47128 0
M  V30 15967 O 1467.95 -0.752958 1.63495 0
M  V30 15968 H 1464.32 -0.0485336 0.750432 0
M  V30 15969 H 1466.29 0.666959 2.90851 0
M  V30 15970 C 1465.04 -1.06262 3.31064 0
M  V30 15971 H 1464.36 -0.4968 3.96701 0
M  V30 15972 H 1465.8 -1.53556 3.95217 0
M  V30 15973 C 1464.26 -2.14601 2.59707 0
M  V30 15974 O 1464.79 -3.2263 2.39317 0
M  V30 15975 N 1463 -1.90431 2.19509 0
M  V30 15976 H 1462.55 -1.02584 2.36293 0
M  V30 15977 H 1462.5 -2.6312 1.72091 0
M  V30 15978 N 1466.28 -1.53251 0.367684 0
M  V30 15979 C 1467.21 -2.28728 -0.469676 0
M  V30 15980 C 1468.19 -1.3124 -1.08213 0
M  V30 15981 O 1469.37 -1.60112 -1.09898 0
M  V30 15982 C 1466.5 -3.07808 -1.60846 0
M  V30 15983 C 1465.46 -4.13 -1.12315 0
M  V30 15984 C 1464.78 -4.80176 -2.35234 0
M  V30 15985 C 1466.08 -5.21892 -0.2064 0
M  V30 15986 H 1467.78 -2.98972 0.160019 0
M  V30 15987 H 1465.32 -1.43786 0.0784011 0
M  V30 15988 H 1467.27 -3.59358 -2.20091 0
M  V30 15989 H 1466 -2.35258 -2.26542 0
M  V30 15990 H 1464.66 -3.62399 -0.553378 0
M  V30 15991 H 1464.31 -4.04196 -2.99391 0
M  V30 15992 H 1464.01 -5.51261 -2.03433 0
M  V30 15993 H 1465.53 -5.34521 -2.9516 0
M  V30 15994 H 1466.94 -5.68932 -0.706386 0
M  V30 15995 H 1465.34 -6.00096 0.0208362 0
M  V30 15996 H 1466.41 -4.79051 0.750851 0
M  V30 15997 N 1467.75 -0.0969077 -1.57302 0
M  V30 15998 C 1469 0.566072 -1.93594 0
M  V30 15999 C 1469.32 1.69226 -0.980922 0
M  V30 16000 O 1470.52 2.41651 -1.23763 0
M  V30 16001 C 1468.98 1.05832 -3.43988 0
M  V30 16002 C 1468.59 -0.038207 -4.47984 0
M  V30 16003 C 1470.33 1.69393 -3.89238 0
M  V30 16004 C 1468.24 0.4695 -5.89533 0
M  V30 16005 H 1467.17 0.215226 -0.72263 0
M  V30 16006 H 1469.82 -0.173202 -1.82681 0
M  V30 16007 H 1468.2 1.85134 -3.50059 0
M  V30 16008 H 1469.37 -0.813761 -4.53558 0
M  V30 16009 H 1467.69 -0.579113 -4.12353 0
M  V30 16010 H 1470.29 2.08454 -4.92393 0
M  V30 16011 H 1470.63 2.56381 -3.27986 0
M  V30 16012 H 1471.16 0.966709 -3.85875 0
M  V30 16013 H 1467.9 -0.363802 -6.5449 0
M  V30 16014 H 1467.42 1.21202 -5.87427 0
M  V30 16015 H 1469.1 0.937885 -6.40166 0
M  V30 16016 N 1469.23 1.56605 0.176793 0
M  V30 16017 C 1470.48 1.81682 0.894302 0
M  V30 16018 C 1470.81 0.67311 1.82481 0
M  V30 16019 O 1470.06 -0.339995 1.92724 0
M  V30 16020 C 1470.36 3.12888 1.7273 0
M  V30 16021 C 1470.03 4.40861 0.946186 0
M  V30 16022 C 1468.69 4.75622 0.730586 0
M  V30 16023 C 1471.04 5.19679 0.397889 0
M  V30 16024 C 1468.37 5.86683 -0.0444995 0
M  V30 16025 C 1470.72 6.31551 -0.36408 0
M  V30 16026 C 1469.38 6.64883 -0.59053 0
M  V30 16027 H 1468.65 0.664823 0.327248 0
M  V30 16028 H 1471.3 1.90834 0.159555 0
M  V30 16029 H 1469.61 2.99055 2.53128 0
M  V30 16030 H 1471.3 3.295 2.2854 0
M  V30 16031 H 1467.89 4.13592 1.12426 0
M  V30 16032 H 1472.08 4.93223 0.55181 0
M  V30 16033 H 1467.33 6.10968 -0.229739 0
M  V30 16034 H 1471.51 6.91833 -0.796223 0
M  V30 16035 H 1469.13 7.50781 -1.19301 0
M  V30 16036 N 1470.71 -0.445159 1.51182 0
M  V30 16037 C 1472.13 -0.781023 1.39184 0
M  V30 16038 C 1472.33 -1.95988 0.468076 0
M  V30 16039 O 1471.38 -2.52374 -0.0796822 0
M  V30 16040 C 1472.69 -1.06874 2.81067 0
M  V30 16041 C 1474.24 -1.17364 2.90163 0
M  V30 16042 C 1474.72 -1.49433 4.32936 0
M  V30 16043 N 1476.21 -1.56373 4.36006 0
M  V30 16044 C 1476.94 -1.82743 5.435 0
M  V30 16045 N 1476.44 -2.06958 6.61166 0
M  V30 16046 N 1478.23 -1.84461 5.30971 0
M  V30 16047 H 1470.38 0.331347 2.098 0
M  V30 16048 H 1472.65 0.0858102 0.944108 0
M  V30 16049 H 1472.35 -0.275306 3.50621 0
M  V30 16050 H 1472.23 -1.99839 3.19913 0
M  V30 16051 H 1474.61 -1.95771 2.20812 0
M  V30 16052 H 1474.69 -0.22318 2.54825 0
M  V30 16053 H 1474.34 -0.715573 5.02834 0
M  V30 16054 H 1474.27 -2.45673 4.65782 0
M  V30 16055 H 1476.76 -1.39595 3.51172 0
M  V30 16056 H 1477.07 -2.26427 7.38885 0
M  V30 16057 H 1475.42 -2.04297 6.64295 0
M  V30 16058 H 1478.61 -1.65057 4.38034 0
M  V30 16059 H 1478.78 -2.04675 6.14827 0
M  V30 16060 N 1472.19 -1.41197 -0.700089 0
M  V30 16061 C 1473.42 -1.43449 -1.4868 0
M  V30 16062 C 1473.83 -0.0368799 -1.89164 0
M  V30 16063 O 1473.17 0.953129 -1.57039 0
M  V30 16064 C 1473.23 -2.27583 -2.78291 0
M  V30 16065 C 1472.89 -3.75805 -2.60038 0
M  V30 16066 C 1473.89 -4.68074 -2.2628 0
M  V30 16067 C 1471.58 -4.19796 -2.75819 0
M  V30 16068 C 1473.57 -6.02322 -2.08535 0
M  V30 16069 C 1471.26 -5.5411 -2.57692 0
M  V30 16070 C 1472.26 -6.45189 -2.24099 0
M  V30 16071 O 1471.94 -7.77025 -2.06125 0
M  V30 16072 H 1471.68 -0.490779 -0.464879 0
M  V30 16073 H 1474.23 -1.86071 -0.869864 0
M  V30 16074 H 1472.46 -1.79767 -3.42375 0
M  V30 16075 H 1474.15 -2.21591 -3.40077 0
M  V30 16076 H 1474.91 -4.35379 -2.13707 0
M  V30 16077 H 1470.79 -3.49213 -3.0095 0
M  V30 16078 H 1474.34 -6.73376 -1.82238 0
M  V30 16079 H 1470.23 -5.86386 -2.69854 0
M  V30 16080 H 1471 -7.88121 -2.20924 0
M  V30 16081 N 1473.67 0.933891 -1.2695 0
M  V30 16082 C 1474.58 2.06713 -1.10936 0
M  V30 16083 C 1475.59 1.73952 -0.0409734 0
M  V30 16084 O 1476.77 1.9989 -0.246199 0
M  V30 16085 C 1473.83 3.38453 -0.751696 0
M  V30 16086 C 1472.89 3.84951 -1.90029 0
M  V30 16087 C 1472.13 5.10404 -1.55959 0
M  V30 16088 O 1472.35 5.68504 -0.464646 0
M  V30 16089 O 1471.28 5.52123 -2.39675 0
M  V30 16090 H 1475.11 2.23133 -2.06023 0
M  V30 16091 H 1472.69 1.05202 -1.06079 0
M  V30 16092 H 1474.58 4.17591 -0.565285 0
M  V30 16093 H 1473.25 3.23255 0.169703 0
M  V30 16094 H 1472.16 3.06727 -2.14172 0
M  V30 16095 H 1473.49 4.04681 -2.80167 0
M  V30 16096 N 1475.14 1.08871 1.13951 0
M  V30 16097 C 1476.05 0.734869 2.22793 0
M  V30 16098 C 1477.07 -0.260699 1.72036 0
M  V30 16099 O 1478.25 -0.103461 2.01134 0
M  V30 16100 C 1475.31 0.154599 3.46355 0
M  V30 16101 C 1474.37 1.20539 4.1203 0
M  V30 16102 C 1473.6 0.652712 5.29694 0
M  V30 16103 O 1473.83 -0.526264 5.67967 0
M  V30 16104 O 1472.76 1.40503 5.85271 0
M  V30 16105 H 1476.59 1.64297 2.55422 0
M  V30 16106 H 1474.17 0.862716 1.21974 0
M  V30 16107 H 1476.05 -0.165962 4.21073 0
M  V30 16108 H 1474.73 -0.726592 3.1544 0
M  V30 16109 H 1473.64 1.57855 3.39164 0
M  V30 16110 H 1474.97 2.05902 4.47063 0
M  V30 16111 N 1476.62 -1.31073 0.875073 0
M  V30 16112 C 1477.55 -2.30855 0.350468 0
M  V30 16113 C 1478.53 -1.60569 -0.561384 0
M  V30 16114 O 1479.72 -1.88242 -0.477329 0
M  V30 16115 C 1476.85 -3.44444 -0.444493 0
M  V30 16116 C 1475.8 -4.26357 0.374716 0
M  V30 16117 C 1475.13 -5.31903 -0.546243 0
M  V30 16118 C 1476.43 -4.96817 1.61153 0
M  V30 16119 H 1478.12 -2.74983 1.18427 0
M  V30 16120 H 1475.67 -1.32199 0.570909 0
M  V30 16121 H 1477.62 -4.13304 -0.82206 0
M  V30 16122 H 1476.34 -2.99096 -1.31185 0
M  V30 16123 H 1475 -3.59171 0.734295 0
M  V30 16124 H 1474.65 -4.82803 -1.41102 0
M  V30 16125 H 1474.35 -5.876 -0.00198173 0
M  V30 16126 H 1475.88 -6.03621 -0.920542 0
M  V30 16127 H 1477.29 -5.58247 1.30511 0
M  V30 16128 H 1475.69 -5.62334 2.09524 0
M  V30 16129 H 1476.76 -4.2351 2.36151 0
M  V30 16130 N 1478.1 -0.635022 -1.4424 0
M  V30 16131 C 1479.05 0.0797218 -2.32463 0
M  V30 16132 C 1480.04 0.831818 -1.47571 0
M  V30 16133 O 1481.25 0.744277 -1.63892 0
M  V30 16134 H 1477.62 0.0445532 -0.750679 0
M  V30 16135 H 1479.59 -0.682374 -2.90493 0
M  V30 16136 C 1478.34 1.04505 -3.31623 0
M  V30 16137 H 1477.67 0.475755 -3.96959 0
M  V30 16138 H 1479.11 1.51458 -3.96026 0
M  V30 16139 C 1477.57 2.13221 -2.60842 0
M  V30 16140 O 1478.1 3.21357 -2.41025 0
M  V30 16141 N 1476.3 1.89264 -2.20516 0
M  V30 16142 H 1475.85 1.01329 -2.36834 0
M  V30 16143 H 1475.81 2.62203 -1.73484 0
M  V30 16144 N 1479.58 1.53054 -0.375806 0
M  V30 16145 C 1480.99 1.5958 -0.0251765 0
M  V30 16146 C 1481.19 1.39047 1.45836 0
M  V30 16147 O 1480.25 1.20073 2.22123 0
M  V30 16148 C 1481.56 2.96676 -0.490274 0
M  V30 16149 C 1483.11 3.09815 -0.44537 0
M  V30 16150 C 1483.59 4.4934 -0.886442 0
M  V30 16151 N 1485.08 4.55484 -0.84191 0
M  V30 16152 C 1485.81 5.61652 -1.15476 0
M  V30 16153 N 1485.31 6.75526 -1.53741 0
M  V30 16154 N 1487.1 5.51688 -1.07689 0
M  V30 16155 H 1479.25 1.64651 -1.34178 0
M  V30 16156 H 1481.52 0.77278 -0.549104 0
M  V30 16157 H 1481.22 3.16874 -1.52589 0
M  V30 16158 H 1481.1 3.77016 0.11776 0
M  V30 16159 H 1483.48 2.89321 0.581138 0
M  V30 16160 H 1483.56 2.3146 -1.08903 0
M  V30 16161 H 1483.21 4.70573 -1.91111 0
M  V30 16162 H 1483.14 5.26141 -0.219925 0
M  V30 16163 H 1485.63 3.73725 -0.56015 0
M  V30 16164 H 1485.94 7.52489 -1.76012 0
M  V30 16165 H 1484.29 6.76892 -1.57616 0
M  V30 16166 H 1487.48 4.61605 -0.777062 0
M  V30 16167 H 1487.65 6.34329 -1.32403 0
M  V30 16168 N 1481.06 0.105248 1.57248 0
M  V30 16169 C 1482.31 -0.555797 1.93891 0
M  V30 16170 C 1482.62 -1.68703 0.989883 0
M  V30 16171 O 1483.82 -2.40991 1.25043 0
M  V30 16172 C 1482.28 -1.04006 3.44544 0
M  V30 16173 C 1481.89 0.0619641 4.47957 0
M  V30 16174 C 1483.63 -1.67327 3.90131 0
M  V30 16175 C 1481.54 -0.438229 5.89774 0
M  V30 16176 H 1480.47 -0.211391 0.723761 0
M  V30 16177 H 1483.12 0.182887 1.82586 0
M  V30 16178 H 1481.5 -1.83275 3.51036 0
M  V30 16179 H 1482.68 0.837803 4.5312 0
M  V30 16180 H 1480.99 0.600973 4.1204 0
M  V30 16181 H 1483.59 -2.0584 4.93492 0
M  V30 16182 H 1483.93 -2.54638 3.29341 0
M  V30 16183 H 1484.46 -0.946231 3.86382 0
M  V30 16184 H 1481.2 0.398506 6.54288 0
M  V30 16185 H 1480.72 -1.18085 5.88061 0
M  V30 16186 H 1482.4 -0.903922 6.40655 0
M  V30 16187 N 1482.53 -1.56697 -0.168486 0
M  V30 16188 C 1483.76 -1.86652 -0.904195 0
M  V30 16189 C 1484.18 -0.691906 -1.74912 0
M  V30 16190 O 1483.54 0.358971 -1.77711 0
M  V30 16191 C 1483.59 -3.15043 -1.75442 0
M  V30 16192 O 1482.69 -2.97466 -2.85636 0
M  V30 16193 H 1482.04 -0.613859 -0.253128 0
M  V30 16194 H 1484.57 -2.03927 -0.165773 0
M  V30 16195 H 1484.58 -3.4652 -2.15378 0
M  V30 16196 H 1483.25 -4.00147 -1.13381 0
M  V30 16197 H 1481.83 -2.7735 -2.49262 0
M  V30 16198 N 1484.01 0.437135 -1.51416 0
M  V30 16199 C 1484.96 1.55124 -1.73319 0
M  V30 16200 C 1485.95 1.58437 -0.599511 0
M  V30 16201 O 1487.16 1.62179 -0.780896 0
M  V30 16202 H 1483.54 0.515368 -0.547632 0
M  V30 16203 H 1485.51 1.33824 -2.66709 0
M  V30 16204 C 1484.26 2.92778 -1.87554 0
M  V30 16205 H 1483.58 2.9096 -2.74194 0
M  V30 16206 H 1485.02 3.70097 -2.06891 0
M  V30 16207 C 1483.48 3.30854 -0.635408 0
M  V30 16208 O 1484.01 4.01152 0.20983 0
M  V30 16209 N 1482.21 2.86618 -0.47944 0
M  V30 16210 H 1481.76 2.29582 -1.16834 0
M  V30 16211 H 1481.72 3.12456 0.349078 0
M  V30 16212 N 1485.49 1.41566 0.692592 0
M  V30 16213 C 1486.72 1.44236 1.47917 0
M  V30 16214 C 1487.13 0.0469112 1.89142 0
M  V30 16215 O 1486.47 -0.944788 1.57542 0
M  V30 16216 C 1486.53 2.29056 2.7708 0
M  V30 16217 C 1486.2 3.77179 2.58041 0
M  V30 16218 C 1487.19 4.69267 2.23795 0
M  V30 16219 C 1484.88 4.21253 2.73589 0
M  V30 16220 C 1486.87 6.03419 2.05338 0
M  V30 16221 C 1484.56 5.55469 2.54749 0
M  V30 16222 C 1485.56 6.46368 2.20675 0
M  V30 16223 O 1485.25 7.78107 2.02002 0
M  V30 16224 H 1484.98 0.493237 0.462269 0
M  V30 16225 H 1487.53 1.8653 0.859984 0
M  V30 16226 H 1485.76 1.8158 3.41417 0
M  V30 16227 H 1487.45 2.23392 3.38897 0
M  V30 16228 H 1488.22 4.36506 2.11395 0
M  V30 16229 H 1484.1 3.50804 2.99094 0
M  V30 16230 H 1487.64 6.74333 1.78665 0
M  V30 16231 H 1483.54 5.87809 2.66741 0
M  V30 16232 H 1484.31 7.89282 2.16741 0
M  V30 16233 N 1486.97 -0.927146 1.27443 0
M  V30 16234 C 1488.22 -1.66941 1.13197 0
M  V30 16235 C 1488.53 -1.92939 -0.32156 0
M  V30 16236 O 1489.74 -2.65124 -0.584931 0
M  V30 16237 C 1488.19 -3.00677 1.97791 0
M  V30 16238 C 1487.8 -2.82376 3.47805 0
M  V30 16239 C 1489.54 -3.78499 1.92195 0
M  V30 16240 C 1487.45 -4.1167 4.24596 0
M  V30 16241 H 1486.38 -0.626171 0.420031 0
M  V30 16242 H 1489.03 -1.02997 1.51868 0
M  V30 16243 H 1487.41 -3.65681 1.51965 0
M  V30 16244 H 1488.59 -2.26135 4.01497 0
M  V30 16245 H 1486.9 -2.17982 3.54786 0
M  V30 16246 H 1489.5 -4.74312 2.46844 0
M  V30 16247 H 1489.84 -4.0655 0.895702 0
M  V30 16248 H 1490.38 -3.20292 2.35919 0
M  V30 16249 H 1487.12 -3.88798 5.27747 0
M  V30 16250 H 1486.64 -4.67573 3.75681 0
M  V30 16251 H 1488.31 -4.80028 4.338 0
M  V30 16252 N 1488.45 -1.09474 -1.13372 0
M  V30 16253 C 1489.39 -0.729274 -2.20872 0
M  V30 16254 C 1490.39 0.270036 -1.67234 0
M  V30 16255 O 1491.59 0.131445 -1.79519 0
M  V30 16256 H 1487.97 -0.217852 -0.719753 0
M  V30 16257 H 1489.94 -1.64505 -2.48959 0
M  V30 16258 C 1488.69 -0.166518 -3.47301 0
M  V30 16259 H 1488.01 -0.926666 -3.88913 0
M  V30 16260 H 1489.45 0.0512617 -4.23969 0
M  V30 16261 C 1487.91 1.09836 -3.18493 0
M  V30 16262 O 1488.44 2.18152 -3.37302 0
M  V30 16263 N 1486.65 1.01307 -2.7237 0
M  V30 16264 H 1486.19 0.131551 -2.57264 0
M  V30 16265 H 1486.15 1.86011 -2.5347 0
M  V30 16266 N 1489.92 1.30607 -0.882012 0
M  V30 16267 C 1490.87 2.2821 -0.344826 0
M  V30 16268 C 1491.84 1.56254 0.563361 0
M  V30 16269 O 1493.03 1.84336 0.492416 0
M  V30 16270 C 1490.17 3.42319 0.437216 0
M  V30 16271 C 1489.28 4.29098 -0.499851 0
M  V30 16272 C 1488.41 5.30366 0.297497 0
M  V30 16273 C 1487.45 6.08795 -0.63523 0
M  V30 16274 N 1486.59 7.01986 0.12661 0
M  V30 16275 H 1491.43 2.73543 -1.18229 0
M  V30 16276 H 1488.97 1.34556 -0.594392 0
M  V30 16277 H 1490.93 4.07232 0.906521 0
M  V30 16278 H 1489.56 2.98063 1.23928 0
M  V30 16279 H 1488.61 3.6452 -1.08764 0
M  V30 16280 H 1489.92 4.83787 -1.21454 0
M  V30 16281 H 1489.07 6.01013 0.828786 0
M  V30 16282 H 1487.81 4.76364 1.04542 0
M  V30 16283 H 1486.82 5.37028 -1.17817 0
M  V30 16284 H 1488.04 6.64885 -1.3822 0
M  V30 16285 H 1485.99 6.50376 0.857125 0
M  V30 16286 H 1485.91 7.5415 -0.528512 0
M  V30 16287 H 1487.17 7.76879 0.638738 0
M  V30 16288 N 1491.4 0.642663 1.43901 0
M  V30 16289 C 1492.65 0.160564 2.02765 0
M  V30 16290 C 1493 -1.20827 1.49729 0
M  V30 16291 O 1492.3 -1.79263 0.676425 0
M  V30 16292 C 1492.49 0.100139 3.5726 0
M  V30 16293 C 1492.32 1.46157 4.25286 0
M  V30 16294 C 1491.09 2.05128 4.6179 0
M  V30 16295 C 1493.29 2.39781 4.54983 0
M  V30 16296 N 1491.27 3.34387 5.14839 0
M  V30 16297 C 1492.64 3.53663 5.09237 0
M  V30 16298 C 1494.7 2.38716 4.36943 0
M  V30 16299 C 1493.4 4.66691 5.4735 0
M  V30 16300 C 1495.42 3.50816 4.76112 0
M  V30 16301 C 1494.79 4.63422 5.30489 0
M  V30 16302 H 1490.89 0.102942 0.775195 0
M  V30 16303 H 1493.47 0.84867 1.7523 0
M  V30 16304 H 1491.64 -0.557279 3.84381 0
M  V30 16305 H 1493.37 -0.391854 4.02798 0
M  V30 16306 H 1490.13 1.57949 4.46485 0
M  V30 16307 H 1490.55 4.00502 5.45827 0
M  V30 16308 H 1495.19 1.529 3.94185 0
M  V30 16309 H 1492.91 5.53206 5.89057 0
M  V30 16310 H 1496.5 3.51181 4.63857 0
M  V30 16311 H 1495.38 5.4873 5.60237 0
M  V30 16312 N 1492.88 -1.52852 0.383918 0
M  V30 16313 C 1494.13 -2.00694 -0.201206 0
M  V30 16314 C 1494.44 -1.2748 -1.48352 0
M  V30 16315 O 1495.65 -1.66005 -2.14836 0
M  V30 16316 C 1494.11 -3.57567 -0.409117 0
M  V30 16317 C 1493.71 -4.39675 0.859628 0
M  V30 16318 C 1495.46 -4.13713 -0.950899 0
M  V30 16319 C 1493.36 -5.88138 0.620292 0
M  V30 16320 H 1492.29 -0.749854 -0.0789656 0
M  V30 16321 H 1494.95 -1.764 0.505488 0
M  V30 16322 H 1493.33 -3.78088 -1.17753 0
M  V30 16323 H 1494.5 -4.30923 1.63224 0
M  V30 16324 H 1492.82 -3.94724 1.32597 0
M  V30 16325 H 1495.41 -5.22284 -1.14558 0
M  V30 16326 H 1495.76 -3.69463 -1.9184 0
M  V30 16327 H 1496.29 -3.97062 -0.242195 0
M  V30 16328 H 1493.03 -6.367 1.55864 0
M  V30 16329 H 1492.55 -5.99693 -0.113483 0
M  V30 16330 H 1494.23 -6.46506 0.252775 0
M  V30 16331 N 1494.36 -0.113586 -1.5719 0
M  V30 16332 C 1495.61 0.54572 -1.95008 0
M  V30 16333 C 1495.93 1.67031 -0.996541 0
M  V30 16334 O 1495.19 1.9569 -0.0194353 0
M  V30 16335 C 1495.49 1.1238 -3.39272 0
M  V30 16336 C 1495.15 0.12112 -4.50737 0
M  V30 16337 C 1493.82 -0.154607 -4.80952 0
M  V30 16338 C 1496.17 -0.562502 -5.18156 0
M  V30 16339 C 1493.5 -1.12033 -5.75904 0
M  V30 16340 C 1495.85 -1.51682 -6.14146 0
M  V30 16341 C 1494.51 -1.80059 -6.42756 0
M  V30 16342 H 1493.78 0.199693 -0.713585 0
M  V30 16343 H 1496.43 -0.193344 -1.90521 0
M  V30 16344 H 1494.73 1.93951 -3.40426 0
M  V30 16345 H 1496.43 1.64195 -3.65843 0
M  V30 16346 H 1493.02 0.34621 -4.27199 0
M  V30 16347 H 1497.21 -0.362645 -4.94973 0
M  V30 16348 H 1492.46 -1.34699 -5.96377 0
M  V30 16349 H 1496.64 -2.05225 -6.65474 0
M  V30 16350 H 1494.26 -2.55046 -7.16139 0
M  V30 16351 N 1495.84 1.56784 0.160173 0
M  V30 16352 C 1497.08 1.82891 0.876278 0
M  V30 16353 C 1497.42 0.693173 1.81408 0
M  V30 16354 O 1496.69 -0.304136 1.92107 0
M  V30 16355 C 1496.97 3.19439 1.66226 0
M  V30 16356 C 1496.83 4.43557 0.746831 0
M  V30 16357 C 1498.15 3.53053 2.62758 0
M  V30 16358 H 1495.27 0.665285 0.31712 0
M  V30 16359 H 1497.91 1.89469 0.142004 0
M  V30 16360 H 1496.06 3.13962 2.28823 0
M  V30 16361 H 1497.73 4.61109 0.132876 0
M  V30 16362 H 1495.97 4.33764 0.0555625 0
M  V30 16363 H 1496.64 5.35675 1.33253 0
M  V30 16364 H 1499.12 3.59054 2.10284 0
M  V30 16365 H 1498 4.4965 3.14811 0
M  V30 16366 H 1498.26 2.78329 3.4349 0
M  V30 16367 N 1497.32 -0.429099 1.51646 0
M  V30 16368 C 1498.54 -1.20006 1.68541 0
M  V30 16369 C 1498.96 -1.84806 0.386264 0
M  V30 16370 O 1498.32 -1.7106 -0.635988 0
M  V30 16371 C 1498.37 -2.27801 2.80694 0
M  V30 16372 O 1498.09 -1.65649 4.05576 0
M  V30 16373 C 1499.59 -3.17927 3.08929 0
M  V30 16374 H 1496.81 -0.361388 0.565367 0
M  V30 16375 H 1499.35 -0.507432 1.98104 0
M  V30 16376 H 1497.51 -2.92766 2.53706 0
M  V30 16377 H 1497.92 -2.36955 4.67924 0
M  V30 16378 H 1499.4 -3.8968 3.90965 0
M  V30 16379 H 1499.87 -3.79157 2.21668 0
M  V30 16380 H 1500.48 -2.58654 3.37606 0
M  V30 16381 N 1498.79 -1.41931 -0.685074 0
M  V30 16382 C 1500.04 -1.41147 -1.44085 0
M  V30 16383 C 1500.36 -0.0275793 -1.95581 0
M  V30 16384 O 1501.56 0.102873 -2.71305 0
M  V30 16385 C 1500.02 -2.4823 -2.60596 0
M  V30 16386 C 1499.63 -3.92576 -2.15842 0
M  V30 16387 C 1501.37 -2.56597 -3.38169 0
M  V30 16388 C 1499.28 -4.91189 -3.29374 0
M  V30 16389 H 1498.21 -0.52494 -0.541252 0
M  V30 16390 H 1500.86 -1.67798 -0.7427 0
M  V30 16391 H 1499.24 -2.14727 -3.32729 0
M  V30 16392 H 1500.41 -4.35381 -1.50929 0
M  V30 16393 H 1498.73 -3.87965 -1.51235 0
M  V30 16394 H 1501.33 -3.27453 -4.22704 0
M  V30 16395 H 1501.67 -1.60618 -3.84067 0
M  V30 16396 H 1502.2 -2.89244 -2.73099 0
M  V30 16397 H 1498.94 -5.88609 -2.88477 0
M  V30 16398 H 1498.46 -4.53024 -3.93102 0
M  V30 16399 H 1500.14 -5.12433 -3.94996 0
M  V30 16400 N 1500.27 0.920374 -1.27933 0
M  V30 16401 C 1501.5 1.70275 -1.17533 0
M  V30 16402 C 1501.91 1.86904 0.266903 0
M  V30 16403 O 1501.27 1.39131 1.18105 0
M  V30 16404 C 1501.32 3.09847 -1.86219 0
M  V30 16405 O 1501.04 2.93992 -3.24808 0
M  V30 16406 C 1502.54 4.042 -1.82037 0
M  V30 16407 H 1499.76 0.53248 -0.408297 0
M  V30 16408 H 1502.31 1.1524 -1.68938 0
M  V30 16409 H 1500.46 3.61719 -1.38701 0
M  V30 16410 H 1500.88 3.82281 -3.59112 0
M  V30 16411 H 1502.35 4.99621 -2.34697 0
M  V30 16412 H 1502.83 4.32013 -0.791295 0
M  V30 16413 H 1503.43 3.58254 -2.29203 0
M  V30 16414 N 1501.75 1.10074 1.1279 0
M  V30 16415 C 1502.7 0.740977 2.20482 0
M  V30 16416 C 1503.69 -0.261163 1.67375 0
M  V30 16417 O 1504.9 -0.121923 1.79587 0
M  V30 16418 H 1501.27 0.221666 0.718588 0
M  V30 16419 H 1503.24 1.65823 2.48083 0
M  V30 16420 C 1501.99 0.184934 3.47208 0
M  V30 16421 H 1501.32 0.947278 3.88416 0
M  V30 16422 H 1502.76 -0.0287769 4.2399 0
M  V30 16423 C 1501.21 -1.08145 3.19071 0
M  V30 16424 O 1501.74 -2.1636 3.38454 0
M  V30 16425 N 1499.95 -0.998609 2.72903 0
M  V30 16426 H 1499.5 -0.117906 2.5733 0
M  V30 16427 H 1499.46 -1.84664 2.54453 0
M  V30 16428 N 1503.23 -1.30138 0.888926 0
M  V30 16429 C 1504.18 -2.29979 0.348212 0
M  V30 16430 C 1505.17 -1.60329 -0.546894 0
M  V30 16431 O 1506.38 -1.74767 -0.43089 0
M  V30 16432 H 1502.75 -0.746107 0.0939563 0
M  V30 16433 H 1504.72 -2.73038 1.20385 0
M  V30 16434 C 1503.47 -3.45169 -0.418762 0
M  V30 16435 H 1502.79 -3.98949 0.260761 0
M  V30 16436 H 1504.23 -4.17094 -0.762133 0
M  V30 16437 C 1502.69 -2.95539 -1.61734 0
M  V30 16438 O 1503.22 -2.95902 -2.7167 0
M  V30 16439 N 1501.43 -2.51502 -1.45585 0
M  V30 16440 H 1500.98 -2.51406 -0.561483 0
M  V30 16441 H 1500.93 -2.18654 -2.25916 0
M  V30 16442 N 1504.71 -0.650285 -1.43559 0
M  V30 16443 C 1506.12 -0.317586 -1.56408 0
M  V30 16444 C 1506.32 1.17844 -1.63447 0
M  V30 16445 O 1505.38 1.96318 -1.58794 0
M  V30 16446 C 1506.69 -1.02636 -2.82642 0
M  V30 16447 C 1508.24 -1.00633 -2.96381 0
M  V30 16448 C 1508.71 -1.69595 -4.25443 0
M  V30 16449 N 1510.2 -1.66345 -4.323 0
M  V30 16450 C 1510.94 -2.16581 -5.30924 0
M  V30 16451 N 1510.44 -2.75092 -6.35843 0
M  V30 16452 N 1512.23 -2.07098 -5.22558 0
M  V30 16453 H 1504.38 -1.62114 -1.37233 0
M  V30 16454 H 1506.64 -0.681588 -0.658895 0
M  V30 16455 H 1506.35 -2.08146 -2.83493 0
M  V30 16456 H 1506.22 -0.576081 -3.72775 0
M  V30 16457 H 1508.61 0.0403519 -2.95072 0
M  V30 16458 H 1508.69 -1.49528 -2.07545 0
M  V30 16459 H 1508.33 -2.74218 -4.27512 0
M  V30 16460 H 1508.26 -1.18168 -5.1317 0
M  V30 16461 H 1510.76 -1.23644 -3.571 0
M  V30 16462 H 1511.07 -3.11108 -7.07412 0
M  V30 16463 H 1509.41 -2.79152 -6.36474 0
M  V30 16464 H 1512.6 -1.61093 -4.39507 0
M  V30 16465 H 1512.78 -2.46557 -5.99261 0
M  V30 16466 N 1506.18 1.52647 -0.392018 0
M  V30 16467 C 1507.11 2.29446 0.433228 0
M  V30 16468 C 1508.09 1.32945 1.06111 0
M  V30 16469 O 1509.28 1.61841 1.07337 0
M  V30 16470 C 1506.41 3.10328 1.55929 0
M  V30 16471 C 1505.36 4.14735 1.05731 0
M  V30 16472 C 1504.69 4.83858 2.27565 0
M  V30 16473 C 1505.99 5.22154 0.123346 0
M  V30 16474 H 1507.68 2.9868 -0.207563 0
M  V30 16475 H 1505.23 1.43643 -0.101266 0
M  V30 16476 H 1507.18 3.62814 2.14346 0
M  V30 16477 H 1505.91 2.38832 2.22771 0
M  V30 16478 H 1504.57 3.63234 0.495653 0
M  V30 16479 H 1504.21 4.08907 2.92923 0
M  V30 16480 H 1503.91 5.54428 1.94637 0
M  V30 16481 H 1505.44 5.39149 2.86619 0
M  V30 16482 H 1506.85 5.69983 0.615784 0
M  V30 16483 H 1505.25 5.99987 -0.116304 0
M  V30 16484 H 1506.32 4.77796 -0.826969 0
M  V30 16485 N 1507.66 0.121921 1.57128 0
M  V30 16486 C 1508.91 -0.534313 1.94909 0
M  V30 16487 C 1509.23 -1.67029 1.0063 0
M  V30 16488 O 1508.5 -1.95798 0.0631366 0
M  V30 16489 H 1507.08 -0.200372 0.719625 0
M  V30 16490 H 1509.74 0.191546 1.93956 0
M  V30 16491 H 1508.84 -0.926974 2.98016 0
M  V30 16492 N 1509.14 -1.56867 -0.151857 0
M  V30 16493 C 1510.09 -1.98842 -1.20685 0
M  V30 16494 C 1511.08 -0.88007 -1.44745 0
M  V30 16495 O 1512.29 -1.06524 -1.45095 0
M  V30 16496 H 1508.66 -0.632904 -0.406123 0
M  V30 16497 H 1510.63 -2.86737 -0.826095 0
M  V30 16498 C 1509.38 -2.38095 -2.53389 0
M  V30 16499 H 1508.71 -3.2293 -2.35703 0
M  V30 16500 H 1510.15 -2.71292 -3.25847 0
M  V30 16501 C 1508.61 -1.23175 -3.13575 0
M  V30 16502 O 1509.14 -0.529864 -3.9819 0
M  V30 16503 N 1507.34 -0.997255 -2.72953 0
M  V30 16504 H 1506.89 -1.56979 -2.04243 0
M  V30 16505 H 1506.85 -0.23022 -3.13556 0
M  V30 16506 N 1510.62 0.421051 -1.51871 0
M  V30 16507 C 1511.84 1.19568 -1.69465 0
M  V30 16508 C 1512.27 1.83835 -0.398269 0
M  V30 16509 O 1511.63 1.69508 0.643172 0
M  V30 16510 C 1511.67 2.24337 -2.82321 0
M  V30 16511 O 1510.78 3.30205 -2.47059 0
M  V30 16512 H 1510.12 0.349579 -0.564527 0
M  V30 16513 H 1512.65 0.495177 -1.98517 0
M  V30 16514 H 1512.66 2.6886 -3.06885 0
M  V30 16515 H 1511.33 1.76941 -3.76384 0
M  V30 16516 H 1509.91 2.91045 -2.33125 0
M  V30 16517 N 1512.1 1.42293 0.677538 0
M  V30 16518 C 1513.51 1.25158 0.990334 0
M  V30 16519 C 1513.71 0.153803 2.00912 0
M  V30 16520 O 1512.77 -0.475868 2.47975 0
M  V30 16521 C 1514.08 2.60745 1.49775 0
M  V30 16522 C 1515.63 2.68077 1.61566 0
M  V30 16523 C 1516.1 4.04024 2.15705 0
M  V30 16524 N 1517.6 4.05964 2.23042 0
M  V30 16525 C 1518.33 5.07968 2.66 0
M  V30 16526 N 1517.83 6.20356 3.08432 0
M  V30 16527 N 1519.62 4.95325 2.65725 0
M  V30 16528 H 1511.77 2.124 0.00295822 0
M  V30 16529 H 1514.03 0.945848 0.06384 0
M  V30 16530 H 1513.74 3.41919 0.823672 0
M  V30 16531 H 1513.61 2.84476 2.47695 0
M  V30 16532 H 1516 1.87251 2.28082 0
M  V30 16533 H 1516.08 2.48137 0.621434 0
M  V30 16534 H 1515.73 4.85306 1.498 0
M  V30 16535 H 1515.66 4.21314 3.15914 0
M  V30 16536 H 1518.15 3.24827 1.93122 0
M  V30 16537 H 1518.46 6.94043 3.39889 0
M  V30 16538 H 1516.8 6.23865 3.06296 0
M  V30 16539 H 1520 4.06599 2.31936 0
M  V30 16540 H 1520.17 5.74954 2.98884 0
M  V30 16541 N 1513.57 -0.913576 1.28419 0
M  V30 16542 C 1514.82 -1.65731 1.14961 0
M  V30 16543 C 1515.14 -1.93269 -0.301079 0
M  V30 16544 O 1516.34 -2.6573 -0.556778 0
M  V30 16545 C 1514.8 -2.98562 2.00969 0
M  V30 16546 C 1514.41 -2.78671 3.5078 0
M  V30 16547 C 1516.15 -3.76439 1.96198 0
M  V30 16548 C 1514.06 -4.07144 4.28938 0
M  V30 16549 H 1512.99 -0.621681 0.426648 0
M  V30 16550 H 1515.64 -1.0138 1.52952 0
M  V30 16551 H 1514.02 -3.64049 1.55835 0
M  V30 16552 H 1515.19 -2.21864 4.03873 0
M  V30 16553 H 1513.51 -2.14206 3.57078 0
M  V30 16554 H 1516.11 -4.71668 2.51861 0
M  V30 16555 H 1516.45 -4.05577 0.938771 0
M  V30 16556 H 1516.98 -3.17772 2.39303 0
M  V30 16557 H 1513.72 -3.83178 5.31841 0
M  V30 16558 H 1513.24 -4.63562 3.80619 0
M  V30 16559 H 1514.92 -4.754 4.38866 0
M  V30 16560 N 1515.05 -1.1067 -1.12204 0
M  V30 16561 C 1516.28 -0.871601 -1.87314 0
M  V30 16562 C 1516.69 0.581644 -1.80038 0
M  V30 16563 O 1516.03 1.4129 -1.17401 0
M  V30 16564 C 1516.1 -1.24458 -3.37269 0
M  V30 16565 C 1515.76 -2.70536 -3.6832 0
M  V30 16566 C 1516.76 -3.68769 -3.66477 0
M  V30 16567 C 1514.44 -3.06982 -3.97577 0
M  V30 16568 C 1516.44 -5.01471 -3.93454 0
M  V30 16569 C 1514.12 -4.39871 -4.24213 0
M  V30 16570 C 1515.12 -5.36924 -4.22139 0
M  V30 16571 O 1514.81 -6.6742 -4.48113 0
M  V30 16572 H 1514.54 -0.312472 -0.599447 0
M  V30 16573 H 1517.09 -1.47562 -1.4288 0
M  V30 16574 H 1515.32 -0.583674 -3.8227 0
M  V30 16575 H 1517.01 -0.986569 -3.93728 0
M  V30 16576 H 1517.78 -3.41957 -3.43934 0
M  V30 16577 H 1513.66 -2.32062 -3.98332 0
M  V30 16578 H 1517.2 -5.77215 -3.9175 0
M  V30 16579 H 1513.1 -4.6642 -4.46231 0
M  V30 16580 H 1513.87 -6.73088 -4.6572 0
M  V30 16581 N 1516.53 1.29665 -0.895815 0
M  V30 16582 C 1517.78 1.94995 -0.515749 0
M  V30 16583 C 1518.09 1.71427 0.94192 0
M  V30 16584 O 1519.3 2.3083 1.42933 0
M  V30 16585 C 1517.75 3.4919 -0.871468 0
M  V30 16586 C 1517.36 3.81562 -2.34764 0
M  V30 16587 C 1519.11 4.20775 -0.561123 0
M  V30 16588 C 1517.01 5.28984 -2.64442 0
M  V30 16589 H 1515.94 0.729889 -0.189151 0
M  V30 16590 H 1518.59 1.4745 -1.09228 0
M  V30 16591 H 1516.98 3.95366 -0.223908 0
M  V30 16592 H 1518.15 3.46258 -3.04043 0
M  V30 16593 H 1516.47 3.23107 -2.62661 0
M  V30 16594 H 1519.06 5.29275 -0.759755 0
M  V30 16595 H 1519.41 4.13285 0.500129 0
M  V30 16596 H 1519.94 3.80317 -1.16635 0
M  V30 16597 H 1516.68 5.41535 -3.69351 0
M  V30 16598 H 1516.2 5.6555 -1.99784 0
M  V30 16599 H 1517.88 5.96536 -2.50506 0
M  V30 16600 N 1518.01 0.657889 1.43212 0
M  V30 16601 C 1518.96 -0.0427288 2.32561 0
M  V30 16602 C 1519.95 -0.808236 1.48875 0
M  V30 16603 O 1521.16 -0.718109 1.65055 0
M  V30 16604 H 1517.53 -0.0326049 0.751293 0
M  V30 16605 H 1519.5 0.728503 2.89371 0
M  V30 16606 C 1518.25 -0.99216 3.33244 0
M  V30 16607 H 1517.57 -0.412542 3.97666 0
M  V30 16608 H 1519.01 -1.45138 3.98385 0
M  V30 16609 C 1517.47 -2.09044 2.64201 0
M  V30 16610 O 1518 -3.17481 2.46107 0
M  V30 16611 N 1516.21 -1.85732 2.23499 0
M  V30 16612 H 1515.76 -0.975483 2.38416 0
M  V30 16613 H 1515.71 -2.5941 1.77634 0
M  V30 16614 N 1519.49 -1.52437 0.400108 0
M  V30 16615 C 1520.73 -2.01312 -0.178252 0
M  V30 16616 C 1521.06 -1.28797 -1.46411 0
M  V30 16617 O 1520.33 -0.411211 -1.91536 0
M  V30 16618 H 1518.91 -0.743819 -0.0688613 0
M  V30 16619 H 1521.57 -1.87434 0.53428 0
M  V30 16620 H 1520.66 -3.09768 -0.380793 0
M  V30 16621 N 1520.96 -0.130252 -1.57061 0
M  V30 16622 C 1521.91 0.832998 -2.17173 0
M  V30 16623 C 1522.91 1.26735 -1.12403 0
M  V30 16624 O 1524.11 1.23778 -1.30686 0
M  V30 16625 H 1520.49 0.286777 -0.695171 0
M  V30 16626 H 1522.46 0.301639 -2.96872 0
M  V30 16627 C 1521.21 2.06879 -2.79457 0
M  V30 16628 H 1520.53 1.74352 -3.5978 0
M  V30 16629 H 1521.97 2.72258 -3.25041 0
M  V30 16630 C 1520.43 2.86591 -1.77108 0
M  V30 16631 O 1520.96 3.82363 -1.2313 0
M  V30 16632 N 1519.17 2.508 -1.46792 0
M  V30 16633 H 1518.71 1.72984 -1.90878 0
M  V30 16634 H 1518.67 3.04428 -0.785566 0
M  V30 16635 N 1522.44 1.56945 0.143535 0
M  V30 16636 C 1523.37 2.0156 1.17881 0
M  V30 16637 C 1524.35 0.895744 1.44604 0
M  V30 16638 O 1525.54 1.16379 1.55466 0
M  V30 16639 C 1522.67 2.39915 2.51114 0
M  V30 16640 C 1521.62 3.55117 2.38905 0
M  V30 16641 C 1520.95 3.79296 3.7688 0
M  V30 16642 C 1522.25 4.87668 1.87021 0
M  V30 16643 H 1523.94 2.88296 0.80783 0
M  V30 16644 H 1521.49 1.38698 0.387149 0
M  V30 16645 H 1523.44 2.69727 3.23767 0
M  V30 16646 H 1522.17 1.5012 2.90055 0
M  V30 16647 H 1520.83 3.25476 1.68703 0
M  V30 16648 H 1520.47 2.86747 4.13262 0
M  V30 16649 H 1520.17 4.56827 3.69571 0
M  V30 16650 H 1521.7 4.11537 4.51076 0
M  V30 16651 H 1523.11 5.16176 2.4947 0
M  V30 16652 H 1521.51 5.69029 1.90594 0
M  V30 16653 H 1522.58 4.77811 0.82611 0
M  V30 16654 N 1523.92 -0.412991 1.52093 0
M  V30 16655 C 1525.17 -1.15737 1.65191 0
M  V30 16656 C 1525.48 -1.91753 0.38601 0
M  V30 16657 O 1526.69 -2.68586 0.396731 0
M  V30 16658 C 1525.15 -2.10619 2.91835 0
M  V30 16659 C 1524.75 -1.40137 4.25518 0
M  V30 16660 C 1526.5 -2.85339 3.14296 0
M  V30 16661 C 1524.4 -2.33645 5.4329 0
M  V30 16662 H 1523.33 -0.435732 0.615348 0
M  V30 16663 H 1525.99 -0.422172 1.78578 0
M  V30 16664 H 1524.37 -2.87675 2.72138 0
M  V30 16665 H 1525.54 -0.684719 4.55684 0
M  V30 16666 H 1523.86 -0.774734 4.09129 0
M  V30 16667 H 1526.45 -3.55437 3.99461 0
M  V30 16668 H 1526.8 -3.48071 2.28369 0
M  V30 16669 H 1527.33 -2.15384 3.34447 0
M  V30 16670 H 1524.07 -1.75566 6.31551 0
M  V30 16671 H 1523.59 -3.03294 5.17467 0
M  V30 16672 H 1525.27 -2.94255 5.76215 0
M  V30 16673 N 1525.4 -1.4265 -0.669982 0
M  V30 16674 C 1526.65 -1.43589 -1.43213 0
M  V30 16675 C 1526.98 -0.0537998 -1.94125 0
M  V30 16676 O 1526.25 0.922727 -1.71219 0
M  V30 16677 C 1526.54 -2.46433 -2.62569 0
M  V30 16678 C 1526.39 -3.93851 -2.17258 0
M  V30 16679 C 1527.71 -2.46208 -3.64787 0
M  V30 16680 H 1524.83 -0.522859 -0.519411 0
M  V30 16681 H 1527.47 -1.74094 -0.760997 0
M  V30 16682 H 1525.62 -2.20551 -3.19828 0
M  V30 16683 H 1527.29 -4.30732 -1.6513 0
M  V30 16684 H 1525.53 -4.07487 -1.48786 0
M  V30 16685 H 1526.21 -4.61398 -3.03012 0
M  V30 16686 H 1528.68 -2.69237 -3.17255 0
M  V30 16687 H 1527.56 -3.20138 -4.45873 0
M  V30 16688 H 1527.82 -1.48979 -4.16242 0
M  V30 16689 N 1526.88 0.906753 -1.28902 0
M  V30 16690 C 1527.79 2.04313 -1.15296 0
M  V30 16691 C 1528.8 1.73826 -0.0778619 0
M  V30 16692 O 1529.98 1.99322 -0.288543 0
M  V30 16693 C 1527.04 3.36782 -0.823317 0
M  V30 16694 C 1526.11 3.80834 -1.98152 0
M  V30 16695 C 1525.34 5.06981 -1.66751 0
M  V30 16696 O 1525.56 5.67391 -0.58513 0
M  V30 16697 O 1524.5 5.46915 -2.51332 0
M  V30 16698 H 1528.32 2.18713 -2.10709 0
M  V30 16699 H 1525.91 1.02928 -1.08287 0
M  V30 16700 H 1527.79 4.16298 -0.653735 0
M  V30 16701 H 1526.46 3.23542 0.101097 0
M  V30 16702 H 1525.37 3.02115 -2.2063 0
M  V30 16703 H 1526.7 3.98648 -2.88688 0
M  V30 16704 N 1528.36 1.11264 1.11616 0
M  V30 16705 C 1529.3 0.769295 2.17602 0
M  V30 16706 C 1530.27 -0.258362 1.64078 0
M  V30 16707 O 1531.46 -0.135698 1.90317 0
M  V30 16708 C 1528.6 0.216647 3.44419 0
M  V30 16709 C 1527.71 1.30064 4.11955 0
M  V30 16710 C 1526.85 0.708729 5.26451 0
M  V30 16711 C 1525.88 1.7727 5.85868 0
M  V30 16712 N 1525.02 1.20042 6.91762 0
M  V30 16713 H 1529.86 1.67727 2.46316 0
M  V30 16714 H 1527.4 0.83764 1.20921 0
M  V30 16715 H 1529.36 -0.121724 4.17022 0
M  V30 16716 H 1527.99 -0.654525 3.16095 0
M  V30 16717 H 1527.04 1.756 3.37445 0
M  V30 16718 H 1528.35 2.1057 4.52174 0
M  V30 16719 H 1527.5 0.320307 6.05854 0
M  V30 16720 H 1526.24 -0.127668 4.87533 0
M  V30 16721 H 1525.25 2.17046 5.05145 0
M  V30 16722 H 1526.47 2.6121 6.26854 0
M  V30 16723 H 1524.42 0.385633 6.54866 0
M  V30 16724 H 1524.34 1.94221 7.30626 0
M  V30 16725 H 1525.6 0.838825 7.74974 0
M  V30 16726 N 1529.83 -1.29188 0.902679 0
M  V30 16727 C 1531.06 -2.00113 0.544953 0
M  V30 16728 C 1531.48 -1.67093 -0.863805 0
M  V30 16729 O 1530.84 -0.897179 -1.57545 0
M  V30 16730 C 1530.89 -3.52762 0.747741 0
M  V30 16731 O 1529.99 -4.11923 -0.198388 0
M  V30 16732 H 1529.33 -0.629054 0.212572 0
M  V30 16733 H 1531.86 -1.64611 1.21508 0
M  V30 16734 H 1531.87 -4.02732 0.653546 0
M  V30 16735 H 1530.55 -3.76131 1.77478 0
M  V30 16736 H 1529.13 -3.72857 -0.0563959 0
M  V30 16737 N 1531.31 -0.665475 -1.42861 0
M  V30 16738 C 1532.56 -0.181149 -2.00885 0
M  V30 16739 C 1532.87 1.21629 -1.53186 0
M  V30 16740 O 1534.08 1.79648 -2.03565 0
M  V30 16741 C 1532.54 -0.273017 -3.58863 0
M  V30 16742 C 1532.14 -1.67392 -4.15553 0
M  V30 16743 C 1533.89 0.153075 -4.24224 0
M  V30 16744 C 1531.79 -1.71905 -5.65864 0
M  V30 16745 H 1530.72 -0.0639619 -0.751282 0
M  V30 16746 H 1533.38 -0.829299 -1.63691 0
M  V30 16747 H 1531.76 0.44286 -3.93516 0
M  V30 16748 H 1532.93 -2.41613 -3.92377 0
M  V30 16749 H 1531.25 -2.04704 -3.62609 0
M  V30 16750 H 1533.84 0.139369 -5.34518 0
M  V30 16751 H 1534.19 1.1867 -3.99028 0
M  V30 16752 H 1534.72 -0.511472 -3.94498 0
M  V30 16753 H 1531.46 -2.73218 -5.95846 0
M  V30 16754 H 1530.98 -1.02027 -5.91059 0
M  V30 16755 H 1532.66 -1.46829 -6.30119 0
M  V30 16756 N 1532.79 1.52222 -0.408187 0
M  V30 16757 C 1534.01 2.06703 0.169901 0
M  V30 16758 C 1534.44 1.27635 1.3817 0
M  V30 16759 O 1533.8 0.306343 1.78693 0
M  V30 16760 C 1533.85 3.57121 0.499663 0
M  V30 16761 O 1532.95 3.80483 1.5908 0
M  V30 16762 H 1532.29 0.663839 0.0146145 0
M  V30 16763 H 1534.82 1.96174 -0.581113 0
M  V30 16764 H 1534.83 4.00886 0.758567 0
M  V30 16765 H 1533.51 4.14103 -0.386182 0
M  V30 16766 H 1532.08 3.48599 1.32413 0
M  V30 16767 N 1534.27 0.138579 1.5699 0
M  V30 16768 C 1535.22 -0.821469 2.17611 0
M  V30 16769 C 1536.21 -1.26137 1.13074 0
M  V30 16770 O 1537.42 -1.23084 1.31341 0
M  V30 16771 H 1533.79 -0.283086 0.696682 0
M  V30 16772 H 1535.76 -0.285891 2.97027 0
M  V30 16773 C 1534.51 -2.05395 2.8055 0
M  V30 16774 H 1533.83 -1.72442 3.60699 0
M  V30 16775 H 1535.27 -2.70531 3.2648 0
M  V30 16776 C 1533.73 -2.85647 1.78626 0
M  V30 16777 O 1534.26 -3.81705 1.25156 0
M  V30 16778 N 1532.47 -2.50018 1.4812 0
M  V30 16779 H 1532.02 -1.71969 1.91793 0
M  V30 16780 H 1531.97 -3.04007 0.8017 0
M  V30 16781 N 1535.75 -1.57019 -0.13521 0
M  V30 16782 C 1536.68 -2.02182 -1.16811 0
M  V30 16783 C 1537.66 -0.9034 -1.44127 0
M  V30 16784 O 1538.84 -1.17202 -1.54846 0
M  V30 16785 C 1535.97 -2.41243 -2.49838 0
M  V30 16786 C 1534.93 -3.56379 -2.37018 0
M  V30 16787 C 1534.25 -3.8129 -3.74863 0
M  V30 16788 C 1535.55 -4.88653 -1.84432 0
M  V30 16789 H 1537.25 -2.8872 -0.792529 0
M  V30 16790 H 1534.79 -1.38901 -0.379788 0
M  V30 16791 H 1536.74 -2.7144 -3.22332 0
M  V30 16792 H 1535.47 -1.51656 -2.89254 0
M  V30 16793 H 1534.13 -3.26366 -1.66975 0
M  V30 16794 H 1533.78 -2.88934 -4.11735 0
M  V30 16795 H 1533.48 -4.58781 -3.67143 0
M  V30 16796 H 1535 -4.13924 -4.48887 0
M  V30 16797 H 1536.41 -5.17492 -2.46729 0
M  V30 16798 H 1534.81 -5.70032 -1.87574 0
M  V30 16799 H 1535.88 -4.78242 -0.800759 0
M  V30 16800 N 1537.22 0.404919 -1.52309 0
M  V30 16801 C 1538.47 1.14921 -1.66246 0
M  V30 16802 C 1538.79 1.90919 -0.396868 0
M  V30 16803 O 1538.06 1.86856 0.588361 0
M  V30 16804 H 1536.64 0.427223 -0.612772 0
M  V30 16805 H 1539.31 0.461091 -1.89367 0
M  V30 16806 H 1538.4 1.86095 -2.5055 0
M  V30 16807 N 1538.7 1.43003 0.662408 0
M  V30 16808 C 1539.98 1.34613 1.41911 0
M  V30 16809 C 1540.36 -0.0105336 2.11097 0
M  V30 16810 O 1539.71 -1.02667 2.04137 0
M  V30 16811 C 1539.92 2.52297 2.41137 0
M  V30 16812 C 1541.27 2.94972 3.05412 0
M  V30 16813 O 1542.29 2.52277 2.51465 0
M  V30 16814 O 1541.15 3.68906 4.03201 0
M  V30 16815 H 1538.24 0.531508 0.633583 0
M  V30 16816 H 1540.79 1.55035 0.690088 0
M  V30 16817 H 1539.56 3.42685 1.88898 0
M  V30 16818 H 1539.18 2.33926 3.21503 0
M  V30 16819 N 1540.18 -0.899904 1.29381 0
M  V30 16820 C 1541.43 -1.64502 1.16713 0
M  V30 16821 C 1541.74 -1.93577 -0.280563 0
M  V30 16822 O 1542.95 -2.66305 -0.528563 0
M  V30 16823 C 1541.4 -2.96414 2.04125 0
M  V30 16824 C 1541.01 -2.74935 3.53716 0
M  V30 16825 C 1542.76 -3.74337 2.0018 0
M  V30 16826 C 1540.66 -4.02571 4.33232 0
M  V30 16827 H 1539.59 -0.617121 0.433218 0
M  V30 16828 H 1542.24 -0.997521 1.54019 0
M  V30 16829 H 1540.63 -3.62375 1.59687 0
M  V30 16830 H 1541.8 -2.17567 4.06203 0
M  V30 16831 H 1540.12 -2.10407 3.5933 0
M  V30 16832 H 1542.71 -4.6897 2.56849 0
M  V30 16833 H 1543.06 -4.04559 0.981735 0
M  V30 16834 H 1543.59 -3.15216 2.4266 0
M  V30 16835 H 1540.33 -3.77516 5.35875 0
M  V30 16836 H 1539.85 -4.59499 3.85514 0
M  V30 16837 H 1541.53 -4.70719 4.43884 0
M  V30 16838 N 1541.66 -1.11854 -1.11024 0
M  V30 16839 C 1542.61 -0.749858 -2.15316 0
M  V30 16840 C 1543.59 0.248202 -1.58974 0
M  V30 16841 O 1544.78 0.054644 -1.76916 0
M  V30 16842 C 1541.91 -0.199423 -3.4272 0
M  V30 16843 C 1541 -1.22541 -4.06011 0
M  V30 16844 N 1541.39 -2.42104 -4.44094 0
M  V30 16845 C 1539.69 -1.06935 -4.32991 0
M  V30 16846 C 1540.39 -3.07572 -4.93735 0
M  V30 16847 N 1539.37 -2.35038 -4.90161 0
M  V30 16848 H 1543.17 -1.65978 -2.42546 0
M  V30 16849 H 1540.68 -0.998423 -1.28083 0
M  V30 16850 H 1542.68 0.0828628 -4.16818 0
M  V30 16851 H 1541.34 0.705033 -3.16953 0
M  V30 16852 H 1542.35 -2.79529 -4.35986 0
M  V30 16853 H 1539.03 -0.221683 -4.16911 0
M  V30 16854 H 1540.42 -4.0936 -5.32799 0
M  V30 16855 N 1543.14 1.28707 -0.909517 0
M  V30 16856 C 1544.38 1.95443 -0.541281 0
M  V30 16857 C 1544.72 1.71457 0.911934 0
M  V30 16858 O 1543.99 1.03312 1.64794 0
M  V30 16859 C 1544.27 3.50019 -0.846097 0
M  V30 16860 C 1544.13 3.83423 -2.35173 0
M  V30 16861 C 1545.45 4.3879 -0.339328 0
M  V30 16862 H 1542.56 0.709869 -0.198128 0
M  V30 16863 H 1545.21 1.52151 -1.13799 0
M  V30 16864 H 1543.36 3.87025 -0.338262 0
M  V30 16865 H 1545.03 3.5631 -2.92986 0
M  V30 16866 H 1543.27 3.30618 -2.80846 0
M  V30 16867 H 1543.94 4.91348 -2.51557 0
M  V30 16868 H 1546.42 4.08832 -0.774312 0
M  V30 16869 H 1545.29 5.45809 -0.581722 0
M  V30 16870 H 1545.56 4.35514 0.760244 0
M  V30 16871 N 1544.61 0.673042 1.42506 0
M  V30 16872 C 1545.84 0.201349 2.0642 0
M  V30 16873 C 1546.26 -1.132 1.50224 0
M  V30 16874 O 1545.62 -1.70368 0.620024 0
M  V30 16875 C 1545.67 0.14505 3.60308 0
M  V30 16876 O 1544.77 -0.886953 4.02749 0
M  V30 16877 H 1544.12 0.103975 0.655809 0
M  V30 16878 H 1546.65 0.921559 1.8267 0
M  V30 16879 H 1546.66 -0.0316792 4.07988 0
M  V30 16880 H 1545.33 1.11829 4.00583 0
M  V30 16881 H 1543.91 -0.681408 3.66621 0
M  V30 16882 N 1546.09 -1.52004 0.416254 0
M  V30 16883 C 1547.37 -1.94403 -0.216103 0
M  V30 16884 C 1547.75 -1.35362 -1.61989 0
M  V30 16885 O 1547.1 -0.532242 -2.22215 0
M  V30 16886 C 1547.31 -3.48336 -0.215225 0
M  V30 16887 C 1548.66 -4.22406 -0.431109 0
M  V30 16888 O 1549.68 -3.54982 -0.294271 0
M  V30 16889 O 1548.54 -5.4198 -0.70145 0
M  V30 16890 H 1545.63 -0.814838 -0.141306 0
M  V30 16891 H 1548.18 -1.62983 0.472712 0
M  V30 16892 H 1546.95 -3.83709 0.767004 0
M  V30 16893 H 1546.57 -3.86137 -0.947841 0
M  V30 16894 N 1547.57 -0.146903 -1.56914 0
M  V30 16895 C 1548.52 0.809917 -2.18044 0
M  V30 16896 C 1549.51 1.25536 -1.13741 0
M  V30 16897 O 1550.72 1.22385 -1.31992 0
M  V30 16898 H 1547.09 0.279387 -0.698174 0
M  V30 16899 H 1549.06 0.270135 -2.97175 0
M  V30 16900 C 1547.81 2.03904 -2.81635 0
M  V30 16901 H 1547.14 1.70526 -3.61609 0
M  V30 16902 H 1548.58 2.68795 -3.2791 0
M  V30 16903 C 1547.04 2.84696 -1.80138 0
M  V30 16904 O 1547.57 3.81036 -1.27179 0
M  V30 16905 N 1545.77 2.49229 -1.49444 0
M  V30 16906 H 1545.32 1.70949 -1.92702 0
M  V30 16907 H 1545.28 3.03577 -0.817811 0
M  V30 16908 N 1549.05 1.57088 0.126881 0
M  V30 16909 C 1550.3 1.83624 0.834582 0
M  V30 16910 C 1550.61 0.731331 1.81414 0
M  V30 16911 O 1551.82 0.88286 2.56745 0
M  V30 16912 C 1550.27 3.25529 1.5349 0
M  V30 16913 C 1549.88 4.44008 0.59673 0
M  V30 16914 C 1551.62 3.6132 2.22819 0
M  V30 16915 C 1549.53 5.76939 1.29982 0
M  V30 16916 H 1548.46 0.684858 0.315414 0
M  V30 16917 H 1551.11 1.83292 0.087305 0
M  V30 16918 H 1549.49 3.20306 2.32852 0
M  V30 16919 H 1550.67 4.60511 -0.163109 0
M  V30 16920 H 1548.98 4.16399 0.0108081 0
M  V30 16921 H 1551.58 4.57902 2.76098 0
M  V30 16922 H 1551.92 2.88363 3.00254 0
M  V30 16923 H 1552.46 3.68291 1.50354 0
M  V30 16924 H 1549.2 6.53044 0.566925 0
M  V30 16925 H 1548.72 5.64336 2.03187 0
M  V30 16926 H 1550.39 6.20427 1.8352 0
M  V30 16927 N 1550.53 -0.396836 1.52522 0
M  V30 16928 C 1551.46 -1.49088 1.79708 0
M  V30 16929 C 1552.44 -1.57246 0.648678 0
M  V30 16930 O 1553.62 -1.72321 0.895495 0
M  V30 16931 C 1550.75 -2.86785 1.95887 0
M  V30 16932 C 1549.71 -2.93472 3.11542 0
M  V30 16933 C 1549.03 -4.33542 3.12963 0
M  V30 16934 C 1550.33 -2.63832 4.50766 0
M  V30 16935 H 1552.03 -1.26588 2.71322 0
M  V30 16936 H 1549.57 -0.607535 1.30557 0
M  V30 16937 H 1551.53 -3.63319 2.13489 0
M  V30 16938 H 1550.25 -3.10605 1.00955 0
M  V30 16939 H 1548.91 -2.19384 2.93711 0
M  V30 16940 H 1548.56 -4.5439 2.15729 0
M  V30 16941 H 1548.26 -4.38938 3.9065 0
M  V30 16942 H 1549.78 -5.11993 3.32709 0
M  V30 16943 H 1551.19 -3.30086 4.68739 0
M  V30 16944 H 1549.59 -2.80589 5.30462 0
M  V30 16945 H 1550.66 -1.59209 4.58018 0
M  V30 16946 N 1552.01 -1.43353 -0.654814 0
M  V30 16947 C 1553.25 -1.44885 -1.41473 0
M  V30 16948 C 1553.58 -0.0725577 -1.94365 0
M  V30 16949 O 1552.84 0.9222 -1.72609 0
M  V30 16950 C 1553.13 -2.437 -2.61429 0
M  V30 16951 C 1552.8 -3.89612 -2.26965 0
M  V30 16952 C 1551.46 -4.29353 -2.17278 0
M  V30 16953 C 1553.81 -4.81569 -1.99351 0
M  V30 16954 C 1551.14 -5.59005 -1.7813 0
M  V30 16955 C 1553.49 -6.11584 -1.61702 0
M  V30 16956 C 1552.16 -6.50303 -1.50539 0
M  V30 16957 H 1551.43 -0.530172 -0.517686 0
M  V30 16958 H 1554.08 -1.76422 -0.744824 0
M  V30 16959 H 1552.38 -2.05561 -3.33544 0
M  V30 16960 H 1554.08 -2.42141 -3.19638 0
M  V30 16961 H 1550.67 -3.58159 -2.35414 0
M  V30 16962 H 1554.85 -4.51639 -2.05757 0
M  V30 16963 H 1550.11 -5.87845 -1.68072 0
M  V30 16964 H 1554.28 -6.82312 -1.39365 0
M  V30 16965 H 1551.91 -7.50673 -1.19975 0
M  V30 16966 N 1553.48 0.89303 -1.29857 0
M  V30 16967 C 1554.43 1.9979 -1.15554 0
M  V30 16968 C 1555.4 1.66033 -0.0471157 0
M  V30 16969 O 1556.59 1.89575 -0.215846 0
M  V30 16970 C 1553.73 3.34595 -0.844993 0
M  V30 16971 C 1552.84 3.81093 -2.03451 0
M  V30 16972 C 1551.97 5.04506 -1.66275 0
M  V30 16973 C 1551.01 5.4339 -2.8177 0
M  V30 16974 N 1550.15 6.57987 -2.44945 0
M  V30 16975 H 1554.99 2.11355 -2.10079 0
M  V30 16976 H 1552.53 1.03497 -1.04531 0
M  V30 16977 H 1554.48 4.12175 -0.645598 0
M  V30 16978 H 1553.11 3.22738 0.0633626 0
M  V30 16979 H 1552.17 2.99491 -2.34541 0
M  V30 16980 H 1553.48 4.05855 -2.8997 0
M  V30 16981 H 1552.63 5.89688 -1.42664 0
M  V30 16982 H 1551.37 4.81597 -0.769144 0
M  V30 16983 H 1550.38 4.56738 -3.06056 0
M  V30 16984 H 1551.6 5.68276 -3.71805 0
M  V30 16985 H 1549.55 6.36669 -1.58079 0
M  V30 16986 H 1549.46 6.82579 -3.24996 0
M  V30 16987 H 1550.73 7.46421 -2.24669 0
M  V30 16988 N 1554.96 1.12442 1.10429 0
M  V30 16989 C 1556.21 0.874466 1.81758 0
M  V30 16990 C 1556.52 -0.601487 1.86122 0
M  V30 16991 O 1557.73 -0.968037 2.53656 0
M  V30 16992 C 1556.19 1.51478 3.2647 0
M  V30 16993 C 1555.79 3.02552 3.30403 0
M  V30 16994 C 1557.54 1.34511 4.02625 0
M  V30 16995 C 1555.44 3.59518 4.69575 0
M  V30 16996 H 1554.37 0.323494 0.681078 0
M  V30 16997 H 1557.03 1.35091 1.24188 0
M  V30 16998 H 1555.41 0.966 3.84037 0
M  V30 16999 H 1556.58 3.63924 2.82659 0
M  V30 17000 H 1554.9 3.18917 2.67733 0
M  V30 17001 H 1557.49 1.74492 5.05427 0
M  V30 17002 H 1557.84 0.288788 4.15297 0
M  V30 17003 H 1558.37 1.86311 3.51473 0
M  V30 17004 H 1555.11 4.6491 4.62103 0
M  V30 17005 H 1554.63 3.02922 5.17686 0
M  V30 17006 H 1556.31 3.58581 5.38543 0
M  V30 17007 N 1556.44 -1.28223 0.91633 0
M  V30 17008 C 1557.69 -1.95153 0.551639 0
M  V30 17009 C 1558.02 -1.71938 -0.902829 0
M  V30 17010 O 1557.29 -1.04184 -1.64243 0
M  V30 17011 C 1557.58 -3.49565 0.864647 0
M  V30 17012 C 1557.43 -3.82171 2.37203 0
M  V30 17013 C 1558.75 -4.38604 0.362593 0
M  V30 17014 H 1555.87 -0.708808 0.20189 0
M  V30 17015 H 1558.51 -1.51545 1.14604 0
M  V30 17016 H 1556.66 -3.8684 0.358782 0
M  V30 17017 H 1558.33 -3.54751 2.94872 0
M  V30 17018 H 1556.57 -3.29124 2.82595 0
M  V30 17019 H 1557.25 -4.90007 2.54159 0
M  V30 17020 H 1559.72 -4.08416 0.795983 0
M  V30 17021 H 1558.6 -5.45493 0.61066 0
M  V30 17022 H 1558.86 -4.35911 -0.737137 0
M  V30 17023 N 1557.92 -0.68059 -1.42147 0
M  V30 17024 C 1559.17 -0.204857 -2.01059 0
M  V30 17025 C 1559.49 1.19475 -1.54113 0
M  V30 17026 O 1558.76 1.80334 -0.765279 0
M  V30 17027 H 1557.34 -0.0727459 -0.743449 0
M  V30 17028 H 1560 -0.878396 -1.73983 0
M  V30 17029 H 1559.09 -0.210628 -3.11388 0
M  V30 17030 N 1559.4 1.51781 -0.424309 0
M  V30 17031 C 1560.64 2.03879 0.145828 0
M  V30 17032 C 1561 1.30226 1.41086 0
M  V30 17033 O 1562.2 1.72629 2.06041 0
M  V30 17034 C 1560.47 3.55454 0.372466 0
M  V30 17035 S 1562.03 4.29305 0.907876 0
M  V30 17036 H 1558.85 0.709986 0.0379529 0
M  V30 17037 H 1561.45 1.86676 -0.58072 0
M  V30 17038 H 1560.15 4.06633 -0.554778 0
M  V30 17039 H 1559.69 3.76928 1.12646 0
M  V30 17040 H 1561.7 4.4541 2.18687 0
M  V30 17041 N 1560.87 0.155222 1.56834 0
M  V30 17042 C 1562.15 -0.539327 1.88018 0
M  V30 17043 C 1562.53 -1.8241 1.06253 0
M  V30 17044 O 1561.88 -2.27996 0.151721 0
M  V30 17045 C 1562.09 -0.796826 3.39782 0
M  V30 17046 C 1563.44 -1.13397 4.09178 0
M  V30 17047 O 1564.46 -0.885907 3.45007 0
M  V30 17048 O 1563.32 -1.60117 5.22518 0
M  V30 17049 H 1560.41 -0.276066 0.779562 0
M  V30 17050 H 1562.96 0.192451 1.68605 0
M  V30 17051 H 1561.73 0.112097 3.91139 0
M  V30 17052 H 1561.35 -1.5825 3.6475 0
M  V30 17053 N 1562.35 -1.57153 -0.118549 0
M  V30 17054 C 1563.63 -1.75846 -0.856587 0
M  V30 17055 C 1564.01 -0.730801 -1.98047 0
M  V30 17056 O 1563.36 0.245156 -2.27181 0
M  V30 17057 C 1563.57 -3.20864 -1.37286 0
M  V30 17058 C 1564.91 -3.83378 -1.82501 0
M  V30 17059 O 1565.94 -3.24469 -1.46964 0
M  V30 17060 O 1564.8 -4.86922 -2.48132 0
M  V30 17061 H 1561.89 -0.72002 -0.406817 0
M  V30 17062 H 1564.44 -1.69392 -0.102254 0
M  V30 17063 H 1563.21 -3.87177 -0.566531 0
M  V30 17064 H 1562.83 -3.31858 -2.18988 0
M  V30 17065 N 1563.83 0.388742 -1.5273 0
M  V30 17066 C 1564.74 1.49916 -1.8045 0
M  V30 17067 C 1565.76 1.59679 -0.691282 0
M  V30 17068 O 1566.93 1.7601 -0.978898 0
M  V30 17069 C 1564 2.85445 -1.96779 0
M  V30 17070 C 1563.06 2.85402 -3.20693 0
M  V30 17071 C 1562.29 4.14466 -3.36234 0
M  V30 17072 O 1562.51 5.09436 -2.56576 0
M  V30 17073 O 1561.45 4.2169 -4.29489 0
M  V30 17074 H 1565.27 1.29423 -2.74743 0
M  V30 17075 H 1562.86 0.576607 -1.37825 0
M  V30 17076 H 1564.74 3.65791 -2.09224 0
M  V30 17077 H 1563.42 3.05964 -1.05676 0
M  V30 17078 H 1562.32 2.03836 -3.1369 0
M  V30 17079 H 1563.66 2.69835 -4.11643 0
M  V30 17080 N 1565.31 1.43698 0.647203 0
M  V30 17081 C 1566.54 1.49085 1.43462 0
M  V30 17082 C 1566.95 0.110605 1.88476 0
M  V30 17083 O 1566.31 -0.880365 1.59862 0
M  V30 17084 C 1566.36 2.44186 2.66562 0
M  V30 17085 O 1566.08 3.76844 2.23429 0
M  V30 17086 C 1567.58 2.58876 3.59858 0
M  V30 17087 H 1564.8 0.506148 0.440517 0
M  V30 17088 H 1567.34 1.88502 0.792931 0
M  V30 17089 H 1565.5 2.07949 3.26858 0
M  V30 17090 H 1565.91 4.2804 3.0312 0
M  V30 17091 H 1567.39 3.29482 4.42883 0
M  V30 17092 H 1567.86 1.63567 4.07606 0
M  V30 17093 H 1568.47 2.95949 3.05441 0
M  V30 17094 N 1566.79 -0.886131 1.30328 0
M  V30 17095 C 1568.02 -1.66857 1.2183 0
M  V30 17096 C 1568.42 -1.87899 -0.221474 0
M  V30 17097 O 1567.77 -1.42571 -1.15841 0
M  V30 17098 C 1567.83 -3.06732 1.87499 0
M  V30 17099 C 1567.49 -3.08865 3.36825 0
M  V30 17100 C 1568.49 -2.88008 4.32836 0
M  V30 17101 C 1566.18 -3.305 3.78253 0
M  V30 17102 C 1568.17 -2.8874 5.6825 0
M  V30 17103 C 1565.86 -3.30861 5.13784 0
M  V30 17104 C 1566.85 -3.10005 6.08593 0
M  V30 17105 O 1566.54 -3.10181 7.41649 0
M  V30 17106 H 1566.27 -0.527473 0.422786 0
M  V30 17107 H 1568.83 -1.11553 1.72468 0
M  V30 17108 H 1567.06 -3.63695 1.31389 0
M  V30 17109 H 1568.75 -3.67122 1.73136 0
M  V30 17110 H 1569.51 -2.71093 4.02161 0
M  V30 17111 H 1565.39 -3.45769 3.04902 0
M  V30 17112 H 1568.94 -2.7238 6.42227 0
M  V30 17113 H 1564.83 -3.47312 5.441 0
M  V30 17114 H 1565.6 -3.26354 7.50623 0
M  V30 17115 N 1568.26 -1.13026 -1.09832 0
M  V30 17116 C 1569.51 -0.890736 -1.82191 0
M  V30 17117 C 1569.84 0.581818 -1.8528 0
M  V30 17118 O 1569.12 1.43037 -1.31798 0
M  V30 17119 C 1569.4 -1.47403 -3.28549 0
M  V30 17120 C 1569.25 -3.0154 -3.33757 0
M  V30 17121 C 1570.57 -1.13876 -4.25112 0
M  V30 17122 H 1567.69 -0.325028 -0.661457 0
M  V30 17123 H 1570.33 -1.39787 -1.28684 0
M  V30 17124 H 1568.48 -1.04272 -3.74245 0
M  V30 17125 H 1570.16 -3.53395 -2.96495 0
M  V30 17126 H 1568.4 -3.36746 -2.73467 0
M  V30 17127 H 1569.07 -3.37449 -4.36843 0
M  V30 17128 H 1571.55 -1.51139 -3.87681 0
M  V30 17129 H 1570.42 -1.57343 -5.25865 0
M  V30 17130 H 1570.68 -0.051854 -4.4207 0
M  V30 17131 N 1569.74 1.27735 -0.923117 0
M  V30 17132 C 1570.99 1.94185 -0.56004 0
M  V30 17133 C 1571.31 1.72945 0.90084 0
M  V30 17134 O 1570.58 1.07453 1.63801 0
M  V30 17135 H 1569.16 0.718568 -0.204129 0
M  V30 17136 H 1571.82 1.55535 -1.17451 0
M  V30 17137 H 1570.92 3.02644 -0.762424 0
M  V30 17138 N 1571.22 0.688118 1.41784 0
M  V30 17139 C 1572.47 0.213085 2.00571 0
M  V30 17140 C 1572.78 -1.19176 1.55101 0
M  V30 17141 O 1573.99 -1.76387 2.06397 0
M  V30 17142 C 1572.44 0.330075 3.58383 0
M  V30 17143 C 1572.05 1.73981 4.12837 0
M  V30 17144 C 1573.8 -0.0855651 4.24414 0
M  V30 17145 C 1571.7 1.80886 5.63058 0
M  V30 17146 H 1570.63 0.075906 0.750169 0
M  V30 17147 H 1573.28 0.855236 1.62351 0
M  V30 17148 H 1571.67 -0.380199 3.94171 0
M  V30 17149 H 1572.84 2.47825 3.88484 0
M  V30 17150 H 1571.16 2.10447 3.59306 0
M  V30 17151 H 1573.75 -0.0543142 5.34672 0
M  V30 17152 H 1574.1 -1.12307 4.00865 0
M  V30 17153 H 1574.63 0.574169 3.93635 0
M  V30 17154 H 1571.37 2.82663 5.91424 0
M  V30 17155 H 1570.89 1.11417 5.89361 0
M  V30 17156 H 1572.57 1.56835 6.27704 0
M  V30 17157 N 1572.7 -1.51554 0.432352 0
M  V30 17158 C 1574.11 -1.59377 0.0843863 0
M  V30 17159 C 1574.31 -1.44364 -1.40575 0
M  V30 17160 O 1573.37 -1.28234 -2.17514 0
M  V30 17161 C 1574.68 -2.94652 0.600046 0
M  V30 17162 C 1576.23 -3.07949 0.560049 0
M  V30 17163 C 1576.71 -4.4574 1.0526 0
M  V30 17164 N 1578.2 -4.52046 1.01038 0
M  V30 17165 C 1578.93 -5.56979 1.36242 0
M  V30 17166 N 1578.43 -6.69355 1.78707 0
M  V30 17167 N 1580.22 -5.47311 1.2809 0
M  V30 17168 H 1572.37 -1.59558 1.40197 0
M  V30 17169 H 1574.64 -0.751868 0.577406 0
M  V30 17170 H 1574.34 -3.10993 1.64245 0
M  V30 17171 H 1574.22 -3.77193 0.0222482 0
M  V30 17172 H 1576.6 -2.91279 -0.473357 0
M  V30 17173 H 1576.68 -2.27259 1.17419 0
M  V30 17174 H 1576.33 -4.63156 2.08445 0
M  V30 17175 H 1576.26 -5.24962 0.415047 0
M  V30 17176 H 1578.75 -3.71389 0.69847 0
M  V30 17177 H 1579.06 -7.45438 2.03819 0
M  V30 17178 H 1577.41 -6.70576 1.82629 0
M  V30 17179 H 1580.6 -4.58403 0.947848 0
M  V30 17180 H 1580.77 -6.28978 1.55855 0
M  V30 17181 N 1574.18 -0.163538 -1.56749 0
M  V30 17182 C 1575.41 0.489178 -2.00725 0
M  V30 17183 C 1575.81 1.57869 -1.04279 0
M  V30 17184 O 1575.16 1.83668 -0.0344434 0
M  V30 17185 C 1575.22 1.13443 -3.41132 0
M  V30 17186 C 1574.88 0.187525 -4.56615 0
M  V30 17187 C 1575.88 -0.591169 -5.16528 0
M  V30 17188 C 1573.57 0.0856149 -5.02227 0
M  V30 17189 C 1575.56 -1.45905 -6.20476 0
M  V30 17190 C 1573.25 -0.785859 -6.06026 0
M  V30 17191 C 1574.24 -1.55678 -6.65021 0
M  V30 17192 O 1573.93 -2.41371 -7.66809 0
M  V30 17193 H 1573.66 0.130353 -0.663313 0
M  V30 17194 H 1576.22 -0.260065 -2.03747 0
M  V30 17195 H 1574.45 1.93165 -3.34999 0
M  V30 17196 H 1576.14 1.68856 -3.69111 0
M  V30 17197 H 1576.9 -0.522563 -4.82177 0
M  V30 17198 H 1572.78 0.675439 -4.56025 0
M  V30 17199 H 1576.33 -2.06125 -6.66452 0
M  V30 17200 H 1572.22 -0.855696 -6.39803 0
M  V30 17201 H 1572.99 -2.34801 -7.84099 0
M  V30 17202 N 1575.65 1.57214 0.110213 0
M  V30 17203 C 1576.9 1.85312 0.816439 0
M  V30 17204 C 1577.23 0.749901 1.79462 0
M  V30 17205 O 1576.48 -0.257948 1.93993 0
M  V30 17206 C 1576.78 3.19933 1.59304 0
M  V30 17207 C 1576.45 4.44477 0.75835 0
M  V30 17208 C 1575.11 4.78292 0.528201 0
M  V30 17209 C 1577.46 5.20899 0.177117 0
M  V30 17210 C 1574.79 5.85966 -0.293292 0
M  V30 17211 C 1577.14 6.29439 -0.631615 0
M  V30 17212 C 1575.81 6.6178 -0.871998 0
M  V30 17213 H 1575.08 0.678104 0.298756 0
M  V30 17214 H 1577.72 1.91339 0.0784721 0
M  V30 17215 H 1576.03 3.09522 2.40216 0
M  V30 17216 H 1577.73 3.38897 2.14359 0
M  V30 17217 H 1574.32 4.17988 0.94783 0
M  V30 17218 H 1578.5 4.95119 0.342121 0
M  V30 17219 H 1573.76 6.09444 -0.488665 0
M  V30 17220 H 1577.93 6.87834 -1.08894 0
M  V30 17221 H 1575.56 7.45045 -1.51037 0
M  V30 17222 N 1577.13 -0.380637 1.52934 0
M  V30 17223 C 1578.08 -1.46544 1.78307 0
M  V30 17224 C 1579.05 -1.53825 0.626671 0
M  V30 17225 O 1580.23 -1.6995 0.867276 0
M  V30 17226 C 1577.37 -2.83676 1.96525 0
M  V30 17227 C 1576.49 -2.85481 3.24229 0
M  V30 17228 C 1575.62 -4.14092 3.32718 0
M  V30 17229 C 1574.66 -4.09982 4.54512 0
M  V30 17230 N 1573.8 -5.30214 4.60237 0
M  V30 17231 H 1578.64 -1.24209 2.7088 0
M  V30 17232 H 1576.18 -0.60241 1.34199 0
M  V30 17233 H 1578.13 -3.63319 2.05073 0
M  V30 17234 H 1576.76 -3.04443 1.07304 0
M  V30 17235 H 1575.82 -1.98159 3.24711 0
M  V30 17236 H 1577.13 -2.78313 4.13936 0
M  V30 17237 H 1576.28 -5.02144 3.40494 0
M  V30 17238 H 1575.02 -4.23993 2.41 0
M  V30 17239 H 1574.03 -3.20317 4.46852 0
M  V30 17240 H 1575.25 -4.01696 5.47556 0
M  V30 17241 H 1573.2 -5.40729 3.71414 0
M  V30 17242 H 1573.11 -5.25155 5.43827 0
M  V30 17243 H 1574.38 -6.2014 4.72279 0
M  V30 17244 N 1578.61 -1.44039 -0.639573 0
M  V30 17245 C 1579.86 -1.46594 -1.40136 0
M  V30 17246 C 1580.19 -0.0949646 -1.93968 0
M  V30 17247 O 1579.46 0.886201 -1.73138 0
M  V30 17248 C 1579.75 -2.51947 -2.57283 0
M  V30 17249 C 1579.6 -3.98371 -2.08855 0
M  V30 17250 C 1580.92 -2.53891 -3.59482 0
M  V30 17251 H 1578.04 -0.533759 -0.508203 0
M  V30 17252 H 1580.68 -1.75669 -0.723898 0
M  V30 17253 H 1578.83 -2.27285 -3.15077 0
M  V30 17254 H 1580.5 -4.34137 -1.55956 0
M  V30 17255 H 1578.75 -4.10551 -1.40109 0
M  V30 17256 H 1579.42 -4.67721 -2.93157 0
M  V30 17257 H 1581.89 -2.75906 -3.11473 0
M  V30 17258 H 1580.77 -3.29524 -4.38982 0
M  V30 17259 H 1581.03 -1.57774 -4.12989 0
M  V30 17260 N 1580.09 0.879207 -1.30796 0
M  V30 17261 C 1581.34 1.6315 -1.19951 0
M  V30 17262 C 1581.66 1.92958 0.244468 0
M  V30 17263 O 1580.92 1.55316 1.19061 0
M  V30 17264 C 1581.22 2.97578 -1.97945 0
M  V30 17265 C 1580.88 2.873 -3.47519 0
M  V30 17266 C 1579.55 2.84204 -3.88306 0
M  V30 17267 C 1581.9 2.75006 -4.42743 0
M  V30 17268 C 1579.23 2.6666 -5.22599 0
M  V30 17269 C 1581.58 2.59 -5.7715 0
M  V30 17270 C 1580.24 2.54282 -6.17168 0
M  V30 17271 H 1579.51 0.597008 -0.438934 0
M  V30 17272 H 1582.16 1.02179 -1.61962 0
M  V30 17273 H 1580.46 3.62532 -1.48587 0
M  V30 17274 H 1582.16 3.54759 -1.86941 0
M  V30 17275 H 1578.75 2.90522 -3.15111 0
M  V30 17276 H 1582.93 2.7646 -4.12169 0
M  V30 17277 H 1578.19 2.61426 -5.5269 0
M  V30 17278 H 1582.36 2.48462 -6.50568 0
M  V30 17279 H 1579.99 2.40446 -7.21172 0
M  V30 17280 N 1581.57 1.13606 1.09231 0
M  V30 17281 C 1582.52 0.810747 2.18013 0
M  V30 17282 C 1583.51 -0.207782 1.68121 0
M  V30 17283 O 1584.72 -0.0647274 1.79884 0
M  V30 17284 H 1581.09 0.244415 0.711172 0
M  V30 17285 H 1583.06 1.73632 2.42682 0
M  V30 17286 C 1581.81 0.295302 3.46444 0
M  V30 17287 H 1581.13 1.07037 3.85205 0
M  V30 17288 H 1582.57 0.106127 4.23867 0
M  V30 17289 C 1581.03 -0.979398 3.2235 0
M  V30 17290 O 1581.56 -2.05483 3.45166 0
M  V30 17291 N 1579.77 -0.911282 2.75942 0
M  V30 17292 H 1579.32 -0.035979 2.57575 0
M  V30 17293 H 1579.27 -1.76476 2.60199 0
M  V30 17294 N 1583.05 -1.27244 0.929878 0
M  V30 17295 C 1584.27 -1.98373 0.587845 0
M  V30 17296 C 1584.69 -1.69349 -0.834638 0
M  V30 17297 O 1584.05 -0.955281 -1.55501 0
M  V30 17298 C 1584.1 -3.52381 0.806843 0
M  V30 17299 O 1583.82 -3.8039 2.17337 0
M  V30 17300 C 1585.32 -4.40761 0.473818 0
M  V30 17301 H 1582.54 -0.633015 0.22256 0
M  V30 17302 H 1585.08 -1.62043 1.2475 0
M  V30 17303 H 1583.24 -3.86914 0.193963 0
M  V30 17304 H 1583.65 -4.74968 2.22498 0
M  V30 17305 H 1585.13 -5.47824 0.677736 0
M  V30 17306 H 1585.6 -4.35209 -0.590734 0
M  V30 17307 H 1586.21 -4.11751 1.06493 0
M  V30 17308 N 1584.52 -0.695628 -1.41417 0
M  V30 17309 C 1585.43 -0.0308378 -2.3458 0
M  V30 17310 C 1586.45 0.766 -1.56232 0
M  V30 17311 O 1587.63 0.703548 -1.88712 0
M  V30 17312 C 1584.69 0.894162 -3.34971 0
M  V30 17313 C 1583.75 0.0895231 -4.29207 0
M  V30 17314 C 1582.98 0.970467 -5.24802 0
M  V30 17315 O 1583.21 2.20997 -5.25848 0
M  V30 17316 O 1582.14 0.420114 -6.00432 0
M  V30 17317 H 1585.97 -0.798775 -2.93007 0
M  V30 17318 H 1583.55 -0.455964 -1.42272 0
M  V30 17319 H 1585.43 1.42458 -3.9659 0
M  V30 17320 H 1584.11 1.64159 -2.78987 0
M  V30 17321 H 1583.02 -0.4855 -3.70936 0
M  V30 17322 H 1584.35 -0.619241 -4.88289 0
M  V30 17323 N 1586 1.51322 -0.440383 0
M  V30 17324 C 1586.93 2.30708 0.360013 0
M  V30 17325 C 1587.91 1.36254 1.01828 0
M  V30 17326 O 1589.1 1.65174 1.02134 0
M  V30 17327 C 1586.23 3.15132 1.45977 0
M  V30 17328 C 1585.18 4.17889 0.924825 0
M  V30 17329 C 1584.51 4.90853 2.12056 0
M  V30 17330 C 1585.81 5.22282 -0.0428362 0
M  V30 17331 H 1587.5 2.97868 -0.30248 0
M  V30 17332 H 1585.05 1.43249 -0.146914 0
M  V30 17333 H 1587 3.69449 2.02695 0
M  V30 17334 H 1585.72 2.45798 2.1506 0
M  V30 17335 H 1584.38 3.64627 0.379842 0
M  V30 17336 H 1584.03 4.1802 2.79765 0
M  V30 17337 H 1583.73 5.60339 1.769 0
M  V30 17338 H 1585.26 5.47995 2.69322 0
M  V30 17339 H 1586.67 5.71654 0.434137 0
M  V30 17340 H 1585.07 5.99314 -0.307126 0
M  V30 17341 H 1586.14 4.74923 -0.978557 0
M  V30 17342 N 1587.48 0.171848 1.5666 0
M  V30 17343 C 1588.76 -0.519355 1.88579 0
M  V30 17344 C 1589.14 -1.81273 1.08182 0
M  V30 17345 O 1588.48 -2.27822 0.175895 0
M  V30 17346 C 1588.69 -0.760743 3.40608 0
M  V30 17347 C 1590.04 -1.09051 4.10357 0
M  V30 17348 O 1591.07 -0.849264 3.45928 0
M  V30 17349 O 1589.93 -1.54566 5.24187 0
M  V30 17350 H 1587.02 -0.267782 0.782446 0
M  V30 17351 H 1589.57 0.210323 1.68392 0
M  V30 17352 H 1588.34 0.153577 3.90999 0
M  V30 17353 H 1587.96 -1.54372 3.66408 0
M  V30 17354 N 1588.96 -1.5727 -0.101874 0
M  V30 17355 C 1589.9 -2.01577 -1.12406 0
M  V30 17356 C 1590.87 -0.890883 -1.40187 0
M  V30 17357 O 1592.06 -1.15638 -1.51764 0
M  V30 17358 C 1589.2 -2.43952 -2.44093 0
M  V30 17359 C 1588.31 -3.69932 -2.23101 0
M  V30 17360 C 1587.45 -4.01215 -3.48138 0
M  V30 17361 C 1586.49 -5.20325 -3.22379 0
M  V30 17362 N 1585.62 -5.47394 -4.39664 0
M  V30 17363 H 1590.46 -2.88685 -0.739244 0
M  V30 17364 H 1588 -1.42789 -0.353497 0
M  V30 17365 H 1589.96 -2.66563 -3.20936 0
M  V30 17366 H 1588.59 -1.59863 -2.80435 0
M  V30 17367 H 1587.64 -3.54838 -1.37092 0
M  V30 17368 H 1588.95 -4.56924 -2.00054 0
M  V30 17369 H 1588.11 -4.24566 -4.33392 0
M  V30 17370 H 1586.85 -3.12732 -3.74233 0
M  V30 17371 H 1585.85 -4.96802 -2.35517 0
M  V30 17372 H 1587.08 -6.10401 -2.97637 0
M  V30 17373 H 1585.02 -4.61869 -4.65847 0
M  V30 17374 H 1584.94 -6.28743 -4.19783 0
M  V30 17375 H 1586.21 -5.75276 -5.26002 0
M  V30 17376 N 1590.44 0.372521 -1.53134 0
M  V30 17377 C 1591.66 1.13668 -1.72879 0
M  V30 17378 C 1592.08 1.83246 -0.454588 0
M  V30 17379 O 1591.44 1.73302 0.572062 0
M  V30 17380 C 1591.49 2.17226 -2.88955 0
M  V30 17381 O 1591.21 1.50483 -4.11445 0
M  V30 17382 C 1592.71 3.06243 -3.20516 0
M  V30 17383 H 1589.93 0.340156 -0.57839 0
M  V30 17384 H 1592.47 0.433557 -1.99851 0
M  V30 17385 H 1590.63 2.83148 -2.64397 0
M  V30 17386 H 1591.04 2.19425 -4.76396 0
M  V30 17387 H 1592.52 3.74901 -4.05158 0
M  V30 17388 H 1592.99 3.70669 -2.35587 0
M  V30 17389 H 1593.6 2.45946 -3.46973 0
M  V30 17390 N 1591.91 1.44376 0.631925 0
M  V30 17391 C 1592.82 1.5367 1.77264 0
M  V30 17392 C 1593.84 0.422425 1.68794 0
M  V30 17393 O 1595.02 0.679656 1.89585 0
M  V30 17394 C 1592.08 1.47743 3.13644 0
M  V30 17395 C 1591.14 2.70015 3.33752 0
M  V30 17396 C 1590.37 2.64362 4.63626 0
M  V30 17397 O 1590.6 1.7032 5.44378 0
M  V30 17398 O 1589.53 3.55201 4.85918 0
M  V30 17399 H 1593.36 2.5004 1.72376 0
M  V30 17400 H 1590.94 1.26614 0.793052 0
M  V30 17401 H 1592.82 1.46958 3.94945 0
M  V30 17402 H 1591.5 0.545165 3.19076 0
M  V30 17403 H 1590.41 2.76369 2.52133 0
M  V30 17404 H 1591.74 3.62286 3.33181 0
M  V30 17405 N 1593.39 -0.872258 1.31261 0
M  V30 17406 C 1594.64 -1.6199 1.20176 0
M  V30 17407 C 1594.95 -1.94129 -0.239439 0
M  V30 17408 O 1596.16 -2.67366 -0.471956 0
M  V30 17409 C 1594.62 -2.92017 2.10366 0
M  V30 17410 C 1594.22 -2.6737 3.59468 0
M  V30 17411 C 1595.97 -3.70007 2.08075 0
M  V30 17412 C 1593.87 -3.93291 4.41674 0
M  V30 17413 H 1592.8 -0.607793 0.446211 0
M  V30 17414 H 1595.46 -0.964627 1.561 0
M  V30 17415 H 1593.84 -3.58907 1.67338 0
M  V30 17416 H 1595.01 -2.08902 4.10727 0
M  V30 17417 H 1593.33 -2.02738 3.63712 0
M  V30 17418 H 1595.92 -4.63416 2.66739 0
M  V30 17419 H 1596.27 -4.02385 1.06733 0
M  V30 17420 H 1596.8 -3.09998 2.49291 0
M  V30 17421 H 1593.54 -3.66064 5.43762 0
M  V30 17422 H 1593.06 -4.51218 3.95174 0
M  V30 17423 H 1594.74 -4.61197 4.53769 0
M  V30 17424 N 1594.87 -1.14184 -1.08627 0
M  V30 17425 C 1595.78 -0.84033 -2.19033 0
M  V30 17426 C 1596.8 0.178322 -1.73084 0
M  V30 17427 O 1597.97 0.00737963 -2.01399 0
M  V30 17428 C 1595.04 -0.319674 -3.45223 0
M  V30 17429 C 1594.1 -1.4006 -4.0581 0
M  V30 17430 C 1593.33 -0.904693 -5.25976 0
M  V30 17431 O 1593.55 0.25468 -5.69831 0
M  V30 17432 O 1592.49 -1.68267 -5.77901 0
M  V30 17433 H 1596.31 -1.76296 -2.47292 0
M  V30 17434 H 1593.9 -0.919929 -1.17719 0
M  V30 17435 H 1595.78 -0.0351268 -4.21385 0
M  V30 17436 H 1594.46 0.575264 -3.18547 0
M  V30 17437 H 1593.36 -1.73858 -3.31247 0
M  V30 17438 H 1594.7 -2.26998 -4.3673 0
M  V30 17439 N 1596.35 1.26749 -0.936613 0
M  V30 17440 C 1597.58 1.98059 -0.598357 0
M  V30 17441 C 1597.99 1.6979 0.825646 0
M  V30 17442 O 1597.35 0.963514 1.54992 0
M  V30 17443 C 1597.4 3.51948 -0.825519 0
M  V30 17444 O 1597.12 3.79232 -2.19351 0
M  V30 17445 C 1598.62 4.40503 -0.497186 0
M  V30 17446 H 1595.84 0.631826 -0.225914 0
M  V30 17447 H 1598.39 1.61379 -1.25607 0
M  V30 17448 H 1596.54 3.86806 -0.214479 0
M  V30 17449 H 1596.95 4.73782 -2.25014 0
M  V30 17450 H 1598.43 5.47457 -0.706779 0
M  V30 17451 H 1598.91 4.35516 0.567645 0
M  V30 17452 H 1599.51 4.11181 -1.08675 0
M  V30 17453 N 1597.83 0.703118 1.41046 0
M  V30 17454 C 1598.76 0.0570815 2.3343 0
M  V30 17455 C 1599.74 -0.759042 1.52225 0
M  V30 17456 O 1600.92 -0.710491 1.80736 0
M  V30 17457 C 1598.05 -0.874541 3.36109 0
M  V30 17458 C 1597.01 -0.16496 4.27682 0
M  V30 17459 C 1596.33 -1.21145 5.20795 0
M  V30 17460 C 1597.63 0.97332 5.13151 0
M  V30 17461 H 1599.33 0.828699 2.87703 0
M  V30 17462 H 1596.87 0.399956 1.38334 0
M  V30 17463 H 1598.83 -1.33579 3.99668 0
M  V30 17464 H 1597.55 -1.67791 2.80203 0
M  V30 17465 H 1596.21 0.276332 3.65557 0
M  V30 17466 H 1595.86 -2.00755 4.61201 0
M  V30 17467 H 1595.56 -0.741633 5.82901 0
M  V30 17468 H 1597.08 -1.67305 5.87232 0
M  V30 17469 H 1598.49 0.592013 5.70235 0
M  V30 17470 H 1596.89 1.37071 5.84236 0
M  V30 17471 H 1597.96 1.80961 4.49868 0
M  V30 17472 N 1599.3 -1.51086 0.448402 0
M  V30 17473 C 1600.53 -2.06293 -0.112531 0
M  V30 17474 C 1600.94 -1.31478 -1.36052 0
M  V30 17475 O 1600.29 -0.370897 -1.79917 0
M  V30 17476 C 1600.35 -3.56156 -0.489178 0
M  V30 17477 C 1600.01 -4.52302 0.653568 0
M  V30 17478 C 1601.01 -4.96909 1.52898 0
M  V30 17479 C 1598.69 -4.9527 0.837448 0
M  V30 17480 C 1600.69 -5.83165 2.57288 0
M  V30 17481 C 1598.37 -5.81314 1.8846 0
M  V30 17482 C 1599.37 -6.25161 2.75069 0
M  V30 17483 O 1599.06 -7.09495 3.77985 0
M  V30 17484 H 1598.79 -0.67597 -0.00641865 0
M  V30 17485 H 1601.35 -1.95515 0.629533 0
M  V30 17486 H 1599.58 -3.64757 -1.28411 0
M  V30 17487 H 1601.27 -3.93828 -0.982548 0
M  V30 17488 H 1602.03 -4.64399 1.3985 0
M  V30 17489 H 1597.91 -4.60676 0.172857 0
M  V30 17490 H 1601.45 -6.1731 3.24921 0
M  V30 17491 H 1597.35 -6.13236 2.01523 0
M  V30 17492 H 1598.12 -7.27697 3.74699 0
M  V30 17493 N 1600.78 -0.180154 -1.56567 0
M  V30 17494 C 1602.01 0.471692 -2.01965 0
M  V30 17495 C 1602.43 1.5542 -1.05954 0
M  V30 17496 O 1601.79 1.81255 -0.0405307 0
M  V30 17497 C 1601.84 1.01883 -3.45908 0
M  V30 17498 O 1600.94 2.13245 -3.52988 0
M  V30 17499 H 1600.28 0.11197 -0.654491 0
M  V30 17500 H 1602.81 -0.286642 -2.02582 0
M  V30 17501 H 1602.82 1.33922 -3.85395 0
M  V30 17502 H 1601.5 0.226299 -4.15284 0
M  V30 17503 H 1600.08 1.82184 -3.25367 0
M  V30 17504 N 1602.26 1.57322 0.0935319 0
M  V30 17505 C 1603.21 2.03184 1.13222 0
M  V30 17506 C 1604.2 0.933184 1.41379 0
M  V30 17507 O 1605.41 1.11836 1.41042 0
M  V30 17508 H 1601.78 0.647541 0.382354 0
M  V30 17509 H 1603.75 2.89606 0.719105 0
M  V30 17510 C 1602.5 2.47336 2.44378 0
M  V30 17511 H 1601.83 3.31456 2.23556 0
M  V30 17512 H 1603.27 2.83199 3.15554 0
M  V30 17513 C 1601.73 1.34728 3.08788 0
M  V30 17514 O 1602.26 0.677285 3.95949 0
M  V30 17515 N 1600.46 1.09787 2.69063 0
M  V30 17516 H 1600.01 1.64451 1.98277 0
M  V30 17517 H 1599.97 0.346436 3.12485 0
M  V30 17518 N 1603.74 -0.364395 1.53329 0
M  V30 17519 C 1604.65 -1.47027 1.82812 0
M  V30 17520 C 1605.66 -1.58559 0.716598 0
M  V30 17521 O 1606.84 -1.7443 1.00678 0
M  V30 17522 C 1603.91 -2.82278 2.01295 0
M  V30 17523 C 1602.97 -2.80264 3.25193 0
M  V30 17524 C 1602.2 -4.09065 3.42785 0
M  V30 17525 O 1602.42 -5.0529 2.64648 0
M  V30 17526 O 1601.36 -4.14804 4.36144 0
M  V30 17527 H 1605.18 -1.25035 2.76767 0
M  V30 17528 H 1602.77 -0.554608 1.38724 0
M  V30 17529 H 1604.65 -3.62416 2.15017 0
M  V30 17530 H 1603.32 -3.04244 1.10531 0
M  V30 17531 H 1602.23 -1.9882 3.16893 0
M  V30 17532 H 1603.56 -2.63252 4.15884 0
M  V30 17533 N 1605.22 -1.44709 -0.62426 0
M  V30 17534 C 1606.63 -1.42523 -1.20599 0
M  V30 17535 C 1606.98 -0.144129 -1.9567 0
M  V30 17536 O 1606.1 0.755175 -2.02796 0
M  V30 17537 C 1606.7 -2.58194 -2.19365 0
M  V30 17538 C 1605.26 -2.59181 -2.72951 0
M  V30 17539 C 1604.4 -2.34461 -1.48065 0
M  V30 17540 H 1607.36 -1.5319 -0.414532 0
M  V30 17541 H 1607.38 -2.3134 -3.02096 0
M  V30 17542 H 1606.89 -3.5142 -1.64699 0
M  V30 17543 H 1604.99 -1.69916 -3.31601 0
M  V30 17544 H 1605.1 -3.57884 -3.18521 0
M  V30 17545 H 1603.47 -1.83688 -1.76439 0
M  V30 17546 H 1604.25 -3.2981 -0.952918 0
M  V30 17547 N 1606.69 0.865285 -1.31722 0
M  V30 17548 C 1607.97 1.60146 -1.12306 0
M  V30 17549 C 1608.35 2.08653 0.320508 0
M  V30 17550 O 1607.7 1.86841 1.31539 0
M  V30 17551 C 1607.91 2.75583 -2.14138 0
M  V30 17552 C 1609.26 3.45429 -2.46909 0
M  V30 17553 O 1610.28 2.85795 -2.12602 0
M  V30 17554 O 1609.14 4.53017 -3.05676 0
M  V30 17555 H 1606.23 0.704786 -0.432673 0
M  V30 17556 H 1608.78 0.910339 -1.43216 0
M  V30 17557 H 1607.55 2.37187 -3.1122 0
M  V30 17558 H 1607.18 3.52378 -1.84161 0
M  V30 17559 N 1608.17 1.14759 1.0802 0
M  V30 17560 C 1609.58 0.928711 1.61963 0
M  V30 17561 C 1609.93 -0.531568 1.88862 0
M  V30 17562 O 1609.06 -1.40129 1.64902 0
M  V30 17563 C 1609.65 1.67943 2.94246 0
M  V30 17564 C 1608.21 1.50602 3.44958 0
M  V30 17565 C 1607.36 1.69938 2.19126 0
M  V30 17566 H 1610.31 1.29882 0.911945 0
M  V30 17567 H 1610.33 1.14493 3.62866 0
M  V30 17568 H 1609.84 2.7422 2.74636 0
M  V30 17569 H 1607.95 0.466901 3.69663 0
M  V30 17570 H 1608.06 2.27857 4.21447 0
M  V30 17571 H 1606.42 1.12534 2.28491 0
M  V30 17572 H 1607.21 2.77566 2.0202 0
M  V30 17573 N 1609.65 -1.26251 0.943322 0
M  V30 17574 C 1610.88 -1.98278 0.608341 0
M  V30 17575 C 1611.3 -1.69756 -0.810208 0
M  V30 17576 O 1610.66 -0.946846 -1.54611 0
M  V30 17577 C 1610.71 -3.50205 0.859591 0
M  V30 17578 O 1609.81 -4.12345 -0.0672371 0
M  V30 17579 H 1609.15 -0.621973 0.232477 0
M  V30 17580 H 1611.68 -1.60662 1.26684 0
M  V30 17581 H 1611.69 -4.00449 0.781341 0
M  V30 17582 H 1610.37 -3.70294 1.89354 0
M  V30 17583 H 1608.94 -3.72848 0.0622543 0
M  V30 17584 N 1611.13 -0.710588 -1.40671 0
M  V30 17585 C 1612.38 -0.244967 -2.00207 0
M  V30 17586 C 1612.69 1.16693 -1.56978 0
M  V30 17587 O 1613.9 1.73081 -2.09177 0
M  V30 17588 C 1612.35 -0.387049 -3.57813 0
M  V30 17589 C 1611.96 -1.80527 -4.10017 0
M  V30 17590 C 1613.71 0.0180338 -4.24496 0
M  V30 17591 C 1611.61 -1.89821 -5.60109 0
M  V30 17592 H 1610.54 -0.087831 -0.748867 0
M  V30 17593 H 1613.19 -0.880956 -1.6097 0
M  V30 17594 H 1611.58 0.317442 -3.94726 0
M  V30 17595 H 1612.75 -2.53974 -3.84492 0
M  V30 17596 H 1611.06 -2.16137 -3.55913 0
M  V30 17597 H 1613.66 -0.0307544 -5.34691 0
M  V30 17598 H 1614 1.05915 -4.02601 0
M  V30 17599 H 1614.54 -0.63672 -3.92671 0
M  V30 17600 H 1611.28 -2.92036 -5.86852 0
M  V30 17601 H 1610.8 -1.20779 -5.87514 0
M  V30 17602 H 1612.48 -1.66801 -6.25129 0
M  V30 17603 N 1612.61 1.50847 -0.456408 0
M  V30 17604 C 1613.54 2.31077 0.335523 0
M  V30 17605 C 1614.52 1.37326 1.00377 0
M  V30 17606 O 1615.7 1.66247 1.00376 0
M  V30 17607 C 1612.83 3.16662 1.42627 0
M  V30 17608 C 1611.79 4.18846 0.88045 0
M  V30 17609 C 1611.11 4.93074 2.06838 0
M  V30 17610 C 1612.41 5.22208 -0.0982288 0
M  V30 17611 H 1614.11 2.97531 -0.334056 0
M  V30 17612 H 1611.65 1.43085 -0.162099 0
M  V30 17613 H 1613.61 3.71578 1.98765 0
M  V30 17614 H 1612.33 2.48066 2.12441 0
M  V30 17615 H 1610.99 3.65009 0.341147 0
M  V30 17616 H 1610.64 4.20963 2.75316 0
M  V30 17617 H 1610.34 5.62184 1.70947 0
M  V30 17618 H 1611.86 5.5082 2.63494 0
M  V30 17619 H 1613.28 5.72082 0.373481 0
M  V30 17620 H 1611.67 5.98954 -0.370674 0
M  V30 17621 H 1612.74 4.73859 -1.02887 0
M  V30 17622 N 1614.09 0.188454 1.56469 0
M  V30 17623 C 1615.03 -0.735074 2.18781 0
M  V30 17624 C 1616 -1.21459 1.133 0
M  V30 17625 O 1617.19 -1.27967 1.41524 0
M  V30 17626 C 1614.33 -1.95181 2.84602 0
M  V30 17627 C 1613.44 -1.51428 4.0459 0
M  V30 17628 C 1612.58 -2.68601 4.58287 0
M  V30 17629 C 1611.61 -2.21422 5.70648 0
M  V30 17630 N 1610.75 -3.31749 6.18779 0
M  V30 17631 H 1615.59 -0.19694 2.97349 0
M  V30 17632 H 1613.13 -0.0854693 1.46851 0
M  V30 17633 H 1615.09 -2.66571 3.2093 0
M  V30 17634 H 1613.72 -2.46337 2.0861 0
M  V30 17635 H 1612.77 -0.6965 3.73969 0
M  V30 17636 H 1614.08 -1.1281 4.85876 0
M  V30 17637 H 1613.23 -3.48123 4.96885 0
M  V30 17638 H 1611.97 -3.1049 3.76095 0
M  V30 17639 H 1610.98 -1.40352 5.31584 0
M  V30 17640 H 1612.2 -1.80572 6.54653 0
M  V30 17641 H 1610.15 -3.73181 5.39511 0
M  V30 17642 H 1610.07 -2.97277 6.95099 0
M  V30 17643 H 1611.33 -4.11504 6.62031 0
M  V30 17644 N 1615.56 -1.5737 -0.0851874 0
M  V30 17645 C 1616.51 -2.03781 -1.12142 0
M  V30 17646 C 1617.51 -0.940669 -1.40882 0
M  V30 17647 O 1618.71 -1.12582 -1.40447 0
M  V30 17648 H 1615.09 -0.64956 -0.378914 0
M  V30 17649 H 1617.06 -2.89983 -0.703736 0
M  V30 17650 C 1615.81 -2.48628 -2.43062 0
M  V30 17651 H 1615.13 -3.32637 -2.21795 0
M  V30 17652 H 1616.57 -2.84869 -3.14048 0
M  V30 17653 C 1615.03 -1.36364 -3.08069 0
M  V30 17654 O 1615.56 -0.698273 -3.95584 0
M  V30 17655 N 1613.76 -1.11213 -2.68477 0
M  V30 17656 H 1613.31 -1.655 -1.97402 0
M  V30 17657 H 1613.27 -0.363003 -3.12297 0
M  V30 17658 N 1617.04 0.356258 -1.53521 0
M  V30 17659 C 1618.27 1.11666 -1.73823 0
M  V30 17660 C 1618.68 1.83235 -0.471338 0
M  V30 17661 O 1618.02 1.74762 0.566035 0
M  V30 17662 C 1618.08 2.18429 -2.85533 0
M  V30 17663 C 1617.75 1.66545 -4.25572 0
M  V30 17664 C 1618.75 1.12454 -5.07592 0
M  V30 17665 C 1616.43 1.71776 -4.72015 0
M  V30 17666 C 1618.42 0.642826 -6.3415 0
M  V30 17667 C 1616.11 1.23217 -5.98549 0
M  V30 17668 C 1617.11 0.695609 -6.79449 0
M  V30 17669 O 1616.8 0.217211 -8.03606 0
M  V30 17670 H 1616.53 0.339418 -0.584612 0
M  V30 17671 H 1619.08 0.418173 -2.01098 0
M  V30 17672 H 1617.31 2.91798 -2.53753 0
M  V30 17673 H 1619 2.79934 -2.93925 0
M  V30 17674 H 1619.77 1.07745 -4.72881 0
M  V30 17675 H 1615.65 2.12481 -4.09112 0
M  V30 17676 H 1619.19 0.223354 -6.97242 0
M  V30 17677 H 1615.09 1.27623 -6.32758 0
M  V30 17678 H 1615.86 0.335679 -8.17811 0
M  V30 17679 N 1618.52 1.45038 0.616577 0
M  V30 17680 C 1619.77 1.49797 1.37595 0
M  V30 17681 C 1620.12 0.134243 1.91931 0
M  V30 17682 O 1619.41 -0.852613 1.71584 0
M  V30 17683 C 1619.61 2.50545 2.54876 0
M  V30 17684 C 1619.44 3.9658 2.12024 0
M  V30 17685 C 1618.21 4.64628 1.98618 0
M  V30 17686 C 1620.4 4.85377 1.70041 0
M  V30 17687 N 1618.39 5.95423 1.49481 0
M  V30 17688 C 1619.76 6.0573 1.32255 0
M  V30 17689 C 1621.81 4.72315 1.57552 0
M  V30 17690 C 1620.52 7.14469 0.832279 0
M  V30 17691 C 1622.54 5.81093 1.09929 0
M  V30 17692 C 1621.9 7.00596 0.731022 0
M  V30 17693 H 1618 0.603131 0.497752 0
M  V30 17694 H 1620.59 1.81456 0.70582 0
M  V30 17695 H 1618.76 2.20853 3.19497 0
M  V30 17696 H 1620.49 2.45508 3.21726 0
M  V30 17697 H 1617.24 4.1965 2.19524 0
M  V30 17698 H 1617.67 6.64949 1.2717 0
M  V30 17699 H 1622.31 3.80347 1.84652 0
M  V30 17700 H 1620.03 8.06234 0.548815 0
M  V30 17701 H 1623.61 5.73018 1.00704 0
M  V30 17702 H 1622.49 7.83335 0.368177 0
M  V30 17703 N 1620 -0.858287 1.32179 0
M  V30 17704 C 1621.25 -1.60902 1.2229 0
M  V30 17705 C 1621.57 -1.93797 -0.216227 0
M  V30 17706 O 1620.84 -1.59312 -1.14002 0
M  V30 17707 H 1619.42 -0.596529 0.449624 0
M  V30 17708 H 1622.08 -1.02686 1.65655 0
M  V30 17709 H 1621.17 -2.54755 1.80295 0
M  V30 17710 N 1621.48 -1.1533 -1.07409 0
M  V30 17711 C 1622.42 -0.845328 -2.16696 0
M  V30 17712 C 1623.42 0.181009 -1.6843 0
M  V30 17713 O 1624.62 0.0361013 -1.79964 0
M  V30 17714 H 1621 -0.255698 -0.707193 0
M  V30 17715 H 1622.97 -1.7747 -2.39889 0
M  V30 17716 C 1621.72 -0.350381 -3.4593 0
M  V30 17717 H 1621.04 -1.13152 -3.83454 0
M  V30 17718 H 1622.48 -0.173547 -4.23645 0
M  V30 17719 C 1620.94 0.927991 -3.23867 0
M  V30 17720 O 1621.47 1.99965 -3.48392 0
M  V30 17721 N 1619.68 0.867266 -2.77357 0
M  V30 17722 H 1619.22 -0.00500352 -2.576 0
M  V30 17723 H 1619.18 1.72314 -2.62974 0
M  V30 17724 N 1622.95 1.25748 -0.950004 0
M  V30 17725 C 1624.18 1.97127 -0.618432 0
M  V30 17726 C 1624.59 1.70855 0.81272 0
M  V30 17727 O 1623.93 0.978581 1.55465 0
M  V30 17728 C 1624 3.50678 -0.791546 0
M  V30 17729 C 1623.66 4.00617 -2.19899 0
M  V30 17730 C 1624.66 4.11672 -3.17525 0
M  V30 17731 C 1622.34 4.34401 -2.52193 0
M  V30 17732 C 1624.34 4.55818 -4.45543 0
M  V30 17733 C 1622.02 4.78234 -3.80441 0
M  V30 17734 C 1623.02 4.88905 -4.76929 0
M  V30 17735 O 1622.71 5.31768 -6.02891 0
M  V30 17736 H 1622.44 0.635248 -0.231163 0
M  V30 17737 H 1625 1.60997 -1.2755 0
M  V30 17738 H 1623.23 3.86623 -0.0773298 0
M  V30 17739 H 1624.91 4.03265 -0.461719 0
M  V30 17740 H 1625.68 3.85807 -2.93901 0
M  V30 17741 H 1621.56 4.25324 -1.77821 0
M  V30 17742 H 1625.1 4.64062 -5.20857 0
M  V30 17743 H 1621 5.03543 -4.03874 0
M  V30 17744 H 1621.77 5.49966 -6.06201 0
M  V30 17745 N 1624.43 0.718038 1.40292 0
M  V30 17746 C 1625.36 0.0818367 2.33357 0
M  V30 17747 C 1626.34 -0.742854 1.53022 0
M  V30 17748 O 1627.53 -0.691281 1.8148 0
M  V30 17749 C 1624.66 -0.838843 3.37017 0
M  V30 17750 C 1623.61 -0.119589 4.27833 0
M  V30 17751 C 1622.94 -1.15615 5.22051 0
M  V30 17752 C 1624.24 1.02769 5.1209 0
M  V30 17753 H 1625.93 0.859167 2.86808 0
M  V30 17754 H 1623.48 0.414606 1.37902 0
M  V30 17755 H 1625.43 -1.29332 4.01063 0
M  V30 17756 H 1624.15 -1.6481 2.81967 0
M  V30 17757 H 1622.81 0.315088 3.65243 0
M  V30 17758 H 1622.46 -1.95852 4.63304 0
M  V30 17759 H 1622.16 -0.679767 5.83655 0
M  V30 17760 H 1623.69 -1.61068 5.88973 0
M  V30 17761 H 1625.1 0.652461 5.69575 0
M  V30 17762 H 1623.5 1.4326 5.82749 0
M  V30 17763 H 1624.57 1.85723 4.47923 0
M  V30 17764 N 1625.91 -1.50602 0.464402 0
M  V30 17765 C 1626.84 -2.31252 -0.323263 0
M  V30 17766 C 1627.82 -1.37856 -0.996476 0
M  V30 17767 O 1629.01 -1.66777 -0.994933 0
M  V30 17768 C 1626.14 -3.17414 -1.40945 0
M  V30 17769 C 1625.09 -4.19307 -0.858226 0
M  V30 17770 C 1624.42 -4.94164 -2.0422 0
M  V30 17771 C 1625.72 -5.22148 0.125921 0
M  V30 17772 H 1627.41 -2.97349 0.34983 0
M  V30 17773 H 1624.96 -1.42997 0.169685 0
M  V30 17774 H 1626.91 -3.72627 -1.96791 0
M  V30 17775 H 1625.63 -2.49189 -2.11122 0
M  V30 17776 H 1624.29 -3.65185 -0.321785 0
M  V30 17777 H 1623.94 -4.22417 -2.7308 0
M  V30 17778 H 1623.64 -5.63083 -1.67963 0
M  V30 17779 H 1625.16 -5.5221 -2.60569 0
M  V30 17780 H 1626.58 -5.72272 -0.343136 0
M  V30 17781 H 1624.98 -5.98749 0.402433 0
M  V30 17782 H 1626.05 -4.73307 1.05399 0
M  V30 17783 N 1627.39 -0.19675 -1.56367 0
M  V30 17784 C 1628.62 0.446491 -2.01718 0
M  V30 17785 C 1629.03 1.55621 -1.07604 0
M  V30 17786 O 1628.37 1.83553 -0.0733943 0
M  V30 17787 C 1628.43 1.06182 -3.43461 0
M  V30 17788 C 1628.1 0.0906278 -4.5691 0
M  V30 17789 C 1629.09 -0.700599 -5.15158 0
M  V30 17790 C 1626.78 -0.0209341 -5.02296 0
M  V30 17791 C 1628.77 -1.59034 -6.17241 0
M  V30 17792 C 1626.46 -0.91423 -6.04223 0
M  V30 17793 C 1627.46 -1.6975 -6.61569 0
M  V30 17794 O 1627.14 -2.57582 -7.61516 0
M  V30 17795 H 1626.88 0.116254 -0.665929 0
M  V30 17796 H 1629.43 -0.303224 -2.03149 0
M  V30 17797 H 1627.66 1.86015 -3.39021 0
M  V30 17798 H 1629.35 1.60988 -3.72609 0
M  V30 17799 H 1630.12 -0.624723 -4.8096 0
M  V30 17800 H 1625.99 0.578557 -4.57355 0
M  V30 17801 H 1629.54 -2.20215 -6.6193 0
M  V30 17802 H 1625.44 -0.991215 -6.37844 0
M  V30 17803 H 1626.2 -2.5138 -7.78942 0
M  V30 17804 N 1628.87 1.57413 0.0768405 0
M  V30 17805 C 1629.81 2.04373 1.1106 0
M  V30 17806 C 1630.81 0.948127 1.40381 0
M  V30 17807 O 1632.01 1.13325 1.39848 0
M  V30 17808 H 1628.39 0.65156 0.375464 0
M  V30 17809 H 1630.36 2.90352 0.688348 0
M  V30 17810 C 1629.11 2.49914 2.41741 0
M  V30 17811 H 1628.43 3.33808 2.20027 0
M  V30 17812 H 1629.87 2.8653 3.12532 0
M  V30 17813 C 1628.33 1.37996 3.07341 0
M  V30 17814 O 1628.86 0.719242 3.95209 0
M  V30 17815 N 1627.07 1.12635 2.67884 0
M  V30 17816 H 1626.61 1.66545 1.96521 0
M  V30 17817 H 1626.57 0.37956 3.121 0
M  V30 17818 N 1630.34 -0.348112 1.53707 0
M  V30 17819 C 1631.29 -1.42729 1.81375 0
M  V30 17820 C 1632.26 -1.52461 0.659159 0
M  V30 17821 O 1633.45 -1.68072 0.903129 0
M  V30 17822 C 1630.59 -2.79443 2.02498 0
M  V30 17823 C 1629.7 -2.7854 3.30211 0
M  V30 17824 C 1628.83 -4.06942 3.41426 0
M  V30 17825 C 1627.87 -4.00248 4.63106 0
M  V30 17826 N 1627.01 -5.20332 4.7138 0
M  V30 17827 H 1631.85 -1.18436 2.73454 0
M  V30 17828 H 1629.39 -0.573809 1.35447 0
M  V30 17829 H 1631.35 -3.58888 2.12733 0
M  V30 17830 H 1629.98 -3.02099 1.13737 0
M  V30 17831 H 1629.03 -1.91227 3.28841 0
M  V30 17832 H 1630.34 -2.69471 4.19746 0
M  V30 17833 H 1629.49 -4.94808 3.51069 0
M  V30 17834 H 1628.23 -4.18786 2.49939 0
M  V30 17835 H 1627.24 -3.10767 4.53546 0
M  V30 17836 H 1628.46 -3.89991 5.55953 0
M  V30 17837 H 1626.41 -5.32729 3.828 0
M  V30 17838 H 1626.33 -5.13502 5.54844 0
M  V30 17839 H 1627.59 -6.09982 4.85326 0
M  V30 17840 N 1631.82 -1.45363 -0.608876 0
M  V30 17841 C 1632.77 -1.53936 -1.71966 0
M  V30 17842 C 1633.74 -0.385352 -1.61568 0
M  V30 17843 O 1634.92 -0.598622 -1.81166 0
M  V30 17844 C 1632.06 -1.51079 -3.10272 0
M  V30 17845 C 1631.18 -2.77022 -3.31486 0
M  V30 17846 C 1630.31 -2.65846 -4.59891 0
M  V30 17847 C 1629.35 -3.86848 -4.74357 0
M  V30 17848 N 1628.49 -3.74214 -5.94061 0
M  V30 17849 H 1633.33 -2.4883 -1.63974 0
M  V30 17850 H 1630.87 -1.23472 -0.799565 0
M  V30 17851 H 1632.82 -1.47411 -3.90289 0
M  V30 17852 H 1631.45 -0.597374 -3.17224 0
M  V30 17853 H 1630.51 -2.90783 -2.45253 0
M  V30 17854 H 1631.82 -3.66776 -3.38049 0
M  V30 17855 H 1630.97 -2.60136 -5.48101 0
M  V30 17856 H 1629.71 -1.73689 -4.55723 0
M  V30 17857 H 1628.72 -3.92918 -3.84572 0
M  V30 17858 H 1629.94 -4.80069 -4.80324 0
M  V30 17859 H 1627.89 -2.84825 -5.9094 0
M  V30 17860 H 1627.8 -4.57601 -6.01779 0
M  V30 17861 H 1629.07 -3.72434 -6.84772 0
M  V30 17862 N 1633.3 0.851265 -1.32632 0
M  V30 17863 C 1634.53 1.63568 -1.26211 0
M  V30 17864 C 1634.94 1.8842 0.171578 0
M  V30 17865 O 1634.28 1.45592 1.12021 0
M  V30 17866 C 1634.34 3.01653 -1.95566 0
M  V30 17867 C 1634.01 2.99827 -3.44896 0
M  V30 17868 C 1635 2.76431 -4.4032 0
M  V30 17869 C 1632.69 3.20355 -3.86883 0
M  V30 17870 C 1634.68 2.73572 -5.75706 0
M  V30 17871 C 1632.37 3.17122 -5.22376 0
M  V30 17872 C 1633.37 2.9376 -6.16599 0
M  V30 17873 O 1633.06 2.90408 -7.49612 0
M  V30 17874 H 1632.79 0.516079 -0.436622 0
M  V30 17875 H 1635.34 1.06941 -1.75365 0
M  V30 17876 H 1633.57 3.60083 -1.40986 0
M  V30 17877 H 1635.26 3.62403 -1.82809 0
M  V30 17878 H 1636.03 2.60335 -4.09208 0
M  V30 17879 H 1631.91 3.37563 -3.13962 0
M  V30 17880 H 1635.45 2.55257 -6.49222 0
M  V30 17881 H 1631.35 3.32764 -5.53117 0
M  V30 17882 H 1632.12 3.06338 -7.59012 0
M  V30 17883 N 1634.78 1.15898 1.06796 0
M  V30 17884 C 1636.01 0.959978 1.82943 0
M  V30 17885 C 1636.42 -0.495084 1.82608 0
M  V30 17886 O 1635.76 -1.35528 1.24008 0
M  V30 17887 C 1635.82 1.40408 3.30947 0
M  V30 17888 C 1635.49 2.87801 3.54993 0
M  V30 17889 C 1636.48 3.85834 3.48465 0
M  V30 17890 C 1634.17 3.25601 3.82478 0
M  V30 17891 C 1636.16 5.19672 3.6908 0
M  V30 17892 C 1633.85 4.59609 4.02744 0
M  V30 17893 C 1634.85 5.56454 3.96041 0
M  V30 17894 O 1634.53 6.8804 4.1576 0
M  V30 17895 H 1634.27 0.340717 0.583856 0
M  V30 17896 H 1636.82 1.54211 1.35677 0
M  V30 17897 H 1635.05 0.765395 3.7905 0
M  V30 17898 H 1636.74 1.1733 3.88572 0
M  V30 17899 H 1637.51 3.57977 3.27227 0
M  V30 17900 H 1633.38 2.50803 3.86806 0
M  V30 17901 H 1636.93 5.95249 3.63764 0
M  V30 17902 H 1632.83 4.8718 4.23469 0
M  V30 17903 H 1633.59 6.94541 4.33076 0
M  V30 17904 N 1636.26 -1.25243 0.956659 0
M  V30 17905 C 1637.19 -2.28159 0.496574 0
M  V30 17906 C 1638.17 -1.63814 -0.458132 0
M  V30 17907 O 1639.35 -1.90897 -0.356648 0
M  V30 17908 C 1636.48 -3.46573 -0.22454 0
M  V30 17909 C 1635.44 -4.2311 0.645104 0
M  V30 17910 C 1634.76 -5.343 -0.206867 0
M  V30 17911 C 1636.06 -4.85562 1.92422 0
M  V30 17912 H 1637.76 -2.66895 1.35675 0
M  V30 17913 H 1635.3 -1.28301 0.653827 0
M  V30 17914 H 1637.26 -4.17695 -0.55755 0
M  V30 17915 H 1635.98 -3.06833 -1.11898 0
M  V30 17916 H 1634.64 -3.53774 0.961228 0
M  V30 17917 H 1634.29 -4.908 -1.10112 0
M  V30 17918 H 1633.99 -5.86423 0.371714 0
M  V30 17919 H 1635.51 -6.08253 -0.534798 0
M  V30 17920 H 1636.92 -5.48817 1.65749 0
M  V30 17921 H 1635.32 -5.47871 2.44862 0
M  V30 17922 H 1636.39 -4.07634 2.62607 0
M  V30 17923 N 1637.73 -0.725468 -1.3991 0
M  V30 17924 C 1638.98 -0.269251 -2.00702 0
M  V30 17925 C 1639.31 1.1406 -1.57545 0
M  V30 17926 O 1638.56 1.78997 -0.79111 0
M  V30 17927 C 1638.86 -0.308261 -3.56068 0
M  V30 17928 C 1638.53 -1.66979 -4.18842 0
M  V30 17929 C 1637.19 -2.04247 -4.35702 0
M  V30 17930 C 1639.54 -2.56418 -4.53761 0
M  V30 17931 C 1636.87 -3.3048 -4.84768 0
M  V30 17932 C 1639.22 -3.82014 -5.0423 0
M  V30 17933 C 1637.89 -4.19386 -5.19299 0
M  V30 17934 H 1637.16 -0.0985258 -0.734421 0
M  V30 17935 H 1639.8 -0.930441 -1.67377 0
M  V30 17936 H 1638.11 0.436504 -3.89361 0
M  V30 17937 H 1639.81 0.0627207 -4.00951 0
M  V30 17938 H 1636.4 -1.37001 -4.06114 0
M  V30 17939 H 1640.58 -2.28898 -4.40363 0
M  V30 17940 H 1635.84 -3.59392 -4.94619 0
M  V30 17941 H 1640.01 -4.51481 -5.30225 0
M  V30 17942 H 1637.64 -5.17268 -5.5708 0
M  V30 17943 N 1639.21 1.50354 -0.472382 0
M  V30 17944 C 1640.16 2.30173 0.335135 0
M  V30 17945 C 1641.15 1.37517 0.98921 0
M  V30 17946 O 1642.36 1.54703 0.920168 0
M  V30 17947 H 1638.74 0.741212 0.126918 0
M  V30 17948 H 1640.71 2.96239 -0.358449 0
M  V30 17949 C 1639.46 3.18104 1.40375 0
M  V30 17950 H 1638.78 3.8931 0.90984 0
M  V30 17951 H 1640.22 3.76947 1.94132 0
M  V30 17952 C 1638.68 2.35785 2.40639 0
M  V30 17953 O 1639.21 2.04185 3.45936 0
M  V30 17954 N 1637.41 1.98342 2.12389 0
M  V30 17955 H 1636.96 2.2424 1.26784 0
M  V30 17956 H 1636.92 1.43567 2.79707 0
M  V30 17957 N 1640.69 0.205039 1.56261 0
M  V30 17958 C 1641.62 -0.706815 2.22545 0
M  V30 17959 C 1642.6 -1.21372 1.19176 0
M  V30 17960 O 1643.79 -1.26074 1.47712 0
M  V30 17961 C 1640.92 -1.92221 2.89255 0
M  V30 17962 C 1639.87 -1.54982 3.98954 0
M  V30 17963 C 1639.2 -2.84265 4.52877 0
M  V30 17964 C 1640.5 -0.75225 5.16854 0
M  V30 17965 H 1642.19 -0.15421 2.99003 0
M  V30 17966 H 1639.74 -0.0727309 1.43816 0
M  V30 17967 H 1641.69 -2.56542 3.34311 0
M  V30 17968 H 1640.41 -2.49952 2.10218 0
M  V30 17969 H 1639.07 -0.930155 3.54604 0
M  V30 17970 H 1638.72 -3.40105 3.70591 0
M  V30 17971 H 1638.42 -2.60089 5.26904 0
M  V30 17972 H 1639.95 -3.49557 5.00642 0
M  V30 17973 H 1641.36 -1.29878 5.58395 0
M  V30 17974 H 1639.76 -0.60823 5.9701 0
M  V30 17975 H 1640.83 0.24463 4.84283 0
M  V30 17976 N 1642.17 -1.57451 -0.0684915 0
M  V30 17977 C 1643.1 -2.06954 -1.0813 0
M  V30 17978 C 1644.08 -0.963716 -1.40166 0
M  V30 17979 O 1645.27 -1.23664 -1.49736 0
M  V30 17980 C 1642.4 -2.51622 -2.39381 0
M  V30 17981 C 1641.35 -3.66111 -2.2169 0
M  V30 17982 C 1640.68 -3.96846 -3.58354 0
M  V30 17983 C 1641.98 -4.96036 -1.63541 0
M  V30 17984 H 1643.67 -2.91822 -0.66936 0
M  V30 17985 H 1641.22 -1.40387 -0.320533 0
M  V30 17986 H 1643.17 -2.84867 -3.1053 0
M  V30 17987 H 1641.89 -1.63788 -2.82562 0
M  V30 17988 H 1640.55 -3.33155 -1.52982 0
M  V30 17989 H 1640.2 -3.06137 -3.9911 0
M  V30 17990 H 1639.9 -4.73939 -3.47354 0
M  V30 17991 H 1641.42 -4.3259 -4.30927 0
M  V30 17992 H 1642.84 -5.27491 -2.24559 0
M  V30 17993 H 1641.23 -5.77474 -1.63228 0
M  V30 17994 H 1642.3 -4.81208 -0.597199 0
M  V30 17995 N 1643.65 0.339955 -1.5389 0
M  V30 17996 C 1645.06 0.683287 -1.44234 0
M  V30 17997 C 1645.26 1.92298 -0.601976 0
M  V30 17998 O 1644.32 2.52324 -0.0943623 0
M  V30 17999 C 1645.63 0.872576 -2.87761 0
M  V30 18000 C 1647.18 0.970965 -2.97559 0
M  V30 18001 C 1647.66 1.19254 -4.42202 0
M  V30 18002 N 1649.15 1.25966 -4.45743 0
M  V30 18003 C 1649.88 1.44869 -5.54798 0
M  V30 18004 N 1649.38 1.6092 -6.73852 0
M  V30 18005 N 1651.17 1.47445 -5.42417 0
M  V30 18006 H 1643.32 -0.475086 -2.07019 0
M  V30 18007 H 1645.58 -0.150644 -0.935954 0
M  V30 18008 H 1645.29 0.033117 -3.51684 0
M  V30 18009 H 1645.16 1.77326 -3.32919 0
M  V30 18010 H 1647.55 1.80094 -2.33774 0
M  V30 18011 H 1647.63 0.0471065 -2.55757 0
M  V30 18012 H 1647.28 0.367482 -5.06569 0
M  V30 18013 H 1647.21 2.13002 -4.81599 0
M  V30 18014 H 1649.7 1.15072 -3.59954 0
M  V30 18015 H 1650.01 1.74989 -7.52727 0
M  V30 18016 H 1648.36 1.58049 -6.7679 0
M  V30 18017 H 1651.55 1.34489 -4.48364 0
M  V30 18018 H 1651.72 1.61834 -6.27466 0
M  V30 18019 N 1645.13 1.45684 0.601159 0
M  V30 18020 C 1646.07 1.54846 1.71147 0
M  V30 18021 C 1647.04 0.393914 1.61361 0
M  V30 18022 O 1648.23 0.608222 1.80846 0
M  V30 18023 C 1645.37 1.52723 3.09467 0
M  V30 18024 C 1644.48 2.78776 3.30012 0
M  V30 18025 C 1643.62 2.68281 4.58474 0
M  V30 18026 C 1642.65 3.89358 4.72299 0
M  V30 18027 N 1641.79 3.77359 5.92068 0
M  V30 18028 H 1646.63 2.49696 1.62653 0
M  V30 18029 H 1644.17 1.23894 0.793006 0
M  V30 18030 H 1646.13 1.49479 3.89502 0
M  V30 18031 H 1644.76 0.614189 3.16903 0
M  V30 18032 H 1643.81 2.9208 2.43708 0
M  V30 18033 H 1645.12 3.68563 3.36099 0
M  V30 18034 H 1644.27 2.63039 5.46713 0
M  V30 18035 H 1643.01 1.76103 4.54795 0
M  V30 18036 H 1642.02 3.94952 3.82482 0
M  V30 18037 H 1643.24 4.82609 4.77771 0
M  V30 18038 H 1641.19 2.87955 5.89422 0
M  V30 18039 H 1641.11 4.60786 5.99343 0
M  V30 18040 H 1642.37 3.76061 6.82787 0
M  V30 18041 N 1646.6 -0.84422 1.33082 0
M  V30 18042 C 1647.88 -1.58339 1.1484 0
M  V30 18043 C 1648.26 -2.09136 -0.287273 0
M  V30 18044 O 1647.61 -1.8891 -1.2855 0
M  V30 18045 C 1647.82 -2.72141 2.18496 0
M  V30 18046 C 1649.17 -3.41457 2.52373 0
M  V30 18047 O 1650.19 -2.82377 2.17122 0
M  V30 18048 O 1649.05 -4.48096 3.12845 0
M  V30 18049 H 1646.14 -0.697813 0.443831 0
M  V30 18050 H 1648.69 -0.88744 1.44646 0
M  V30 18051 H 1647.46 -2.32206 3.14954 0
M  V30 18052 H 1647.08 -3.49404 1.89744 0
M  V30 18053 N 1648.08 -1.16463 -1.0618 0
M  V30 18054 C 1649.03 -0.87224 -2.13683 0
M  V30 18055 C 1650 0.179784 -1.65124 0
M  V30 18056 O 1651.18 0.0447406 -1.90748 0
M  V30 18057 C 1648.32 -0.380728 -3.42993 0
M  V30 18058 C 1647.44 -1.49571 -4.05281 0
M  V30 18059 C 1646.57 -0.959099 -5.2247 0
M  V30 18060 C 1645.61 -2.05021 -5.76743 0
M  V30 18061 N 1644.75 -1.5291 -6.85247 0
M  V30 18062 H 1649.59 -1.79288 -2.38033 0
M  V30 18063 H 1647.12 -0.894379 -1.16787 0
M  V30 18064 H 1649.08 -0.0773816 -4.17128 0
M  V30 18065 H 1647.71 0.502966 -3.18857 0
M  V30 18066 H 1646.76 -1.915 -3.28682 0
M  V30 18067 H 1648.08 -2.31904 -4.41613 0
M  V30 18068 H 1647.23 -0.609003 -6.03636 0
M  V30 18069 H 1645.97 -0.105086 -4.87587 0
M  V30 18070 H 1644.97 -2.40899 -4.94214 0
M  V30 18071 H 1646.2 -2.90821 -6.13678 0
M  V30 18072 H 1644.15 -0.697639 -6.5228 0
M  V30 18073 H 1644.06 -2.28859 -7.20527 0
M  V30 18074 H 1645.33 -1.20762 -7.70089 0
M  V30 18075 N 1649.56 1.24734 -0.963288 0
M  V30 18076 C 1650.79 1.9646 -0.639305 0
M  V30 18077 C 1651.2 1.71708 0.794553 0
M  V30 18078 O 1650.54 0.995015 1.54419 0
M  V30 18079 C 1650.6 3.49818 -0.828696 0
M  V30 18080 C 1650.27 3.98262 -2.24135 0
M  V30 18081 C 1651.26 4.08281 -3.21874 0
M  V30 18082 C 1648.95 4.31701 -2.56786 0
M  V30 18083 C 1650.94 4.51067 -4.50352 0
M  V30 18084 C 1648.63 4.74172 -3.85492 0
M  V30 18085 C 1649.63 4.83819 -4.82087 0
M  V30 18086 O 1649.32 5.25344 -6.08497 0
M  V30 18087 H 1649.05 0.63276 -0.237888 0
M  V30 18088 H 1651.6 1.59635 -1.29251 0
M  V30 18089 H 1649.83 3.86519 -0.118332 0
M  V30 18090 H 1651.52 4.02753 -0.504465 0
M  V30 18091 H 1652.29 3.82668 -2.97976 0
M  V30 18092 H 1648.17 4.23414 -1.82323 0
M  V30 18093 H 1651.71 4.58512 -5.2575 0
M  V30 18094 H 1647.61 4.99231 -4.09192 0
M  V30 18095 H 1648.37 5.43506 -6.12 0
M  V30 18096 N 1651.04 0.732878 1.39523 0
M  V30 18097 C 1652.29 0.276787 1.99792 0
M  V30 18098 C 1652.6 -1.14181 1.58814 0
M  V30 18099 O 1653.81 -1.69731 2.11905 0
M  V30 18100 C 1652.26 0.443924 3.57152 0
M  V30 18101 C 1651.87 1.87027 4.07093 0
M  V30 18102 C 1653.61 0.0495022 4.24471 0
M  V30 18103 C 1651.52 1.98708 5.57018 0
M  V30 18104 H 1650.45 0.0997337 0.747375 0
M  V30 18105 H 1653.1 0.906454 1.59548 0
M  V30 18106 H 1651.48 -0.254605 3.95181 0
M  V30 18107 H 1652.66 2.60059 3.80403 0
M  V30 18108 H 1650.97 2.21772 3.52429 0
M  V30 18109 H 1653.57 0.115815 5.34575 0
M  V30 18110 H 1653.91 -0.994967 4.04235 0
M  V30 18111 H 1654.45 0.69911 3.91609 0
M  V30 18112 H 1651.18 3.01336 5.82131 0
M  V30 18113 H 1650.7 1.30111 5.85518 0
M  V30 18114 H 1652.38 1.76725 6.22396 0
M  V30 18115 N 1652.52 -1.50101 0.480349 0
M  V30 18116 C 1653.74 -2.06785 -0.068848 0
M  V30 18117 C 1654.16 -1.34316 -1.32683 0
M  V30 18118 O 1653.52 -0.415196 -1.77714 0
M  V30 18119 C 1653.57 -3.59826 -0.347522 0
M  V30 18120 O 1653.29 -4.29565 0.860569 0
M  V30 18121 C 1654.79 -4.33161 -0.94266 0
M  V30 18122 H 1652.01 -0.670906 0.0112172 0
M  V30 18123 H 1654.55 -1.93151 0.671788 0
M  V30 18124 H 1652.71 -3.73232 -1.0381 0
M  V30 18125 H 1653.12 -5.20931 0.610796 0
M  V30 18126 H 1654.6 -5.41184 -1.08736 0
M  V30 18127 H 1655.07 -3.94268 -1.93518 0
M  V30 18128 H 1655.68 -4.24309 -0.290178 0
M  V30 18129 N 1653.99 -0.213323 -1.5615 0
M  V30 18130 C 1654.92 0.695003 -2.22917 0
M  V30 18131 C 1655.9 1.20738 -1.19818 0
M  V30 18132 O 1657.09 1.25289 -1.48379 0
M  V30 18133 C 1654.22 1.90685 -2.9027 0
M  V30 18134 C 1653.17 1.52865 -3.9977 0
M  V30 18135 C 1652.5 2.81859 -4.54378 0
M  V30 18136 C 1653.8 0.724829 -5.17246 0
M  V30 18137 H 1655.49 0.138351 -2.9908 0
M  V30 18138 H 1653.04 0.0651029 -1.43853 0
M  V30 18139 H 1654.99 2.54766 -3.35667 0
M  V30 18140 H 1653.72 2.48833 -2.11541 0
M  V30 18141 H 1652.38 0.911336 -3.55092 0
M  V30 18142 H 1652.02 3.38135 -3.72389 0
M  V30 18143 H 1651.72 2.57291 -5.28275 0
M  V30 18144 H 1653.25 3.46897 -5.02489 0
M  V30 18145 H 1654.66 1.26915 -5.59076 0
M  V30 18146 H 1653.06 0.57656 -5.97324 0
M  V30 18147 H 1654.13 -0.270309 -4.84146 0
M  V30 18148 N 1655.47 1.57485 0.0601405 0
M  V30 18149 C 1656.42 2.0554 1.08886 0
M  V30 18150 C 1657.41 0.962963 1.39368 0
M  V30 18151 O 1658.62 1.14802 1.38638 0
M  V30 18152 H 1655 0.655506 0.368532 0
M  V30 18153 H 1656.97 2.91066 0.657513 0
M  V30 18154 C 1655.72 2.52464 2.39076 0
M  V30 18155 H 1655.04 3.36123 2.16475 0
M  V30 18156 H 1656.48 2.89829 3.09476 0
M  V30 18157 C 1654.94 1.41248 3.05861 0
M  V30 18158 O 1655.47 0.761119 3.94423 0
M  V30 18159 N 1653.67 1.1547 2.66674 0
M  V30 18160 H 1653.22 1.6862 1.94744 0
M  V30 18161 H 1653.18 0.412641 3.1168 0
M  V30 18162 N 1656.95 -0.331789 1.54068 0
M  V30 18163 C 1658.18 -1.09484 1.76148 0
M  V30 18164 C 1658.6 -1.81201 0.504772 0
M  V30 18165 O 1657.96 -1.7297 -0.54325 0
M  V30 18166 C 1658.01 -2.07495 2.94921 0
M  V30 18167 O 1657.11 -3.15239 2.65891 0
M  V30 18168 H 1656.45 -0.316071 0.583948 0
M  V30 18169 H 1658.98 -0.378593 2.01067 0
M  V30 18170 H 1658.99 -2.5051 3.22038 0
M  V30 18171 H 1657.67 -1.54696 3.8606 0
M  V30 18172 H 1656.24 -2.76958 2.49697 0
M  V30 18173 N 1658.43 -1.46001 -0.593424 0
M  V30 18174 C 1659.68 -1.50457 -1.34933 0
M  V30 18175 C 1660 -0.153383 -1.94396 0
M  V30 18176 O 1659.27 0.818894 -1.77963 0
M  V30 18177 H 1657.85 -0.554119 -0.50096 0
M  V30 18178 H 1660.51 -1.82057 -0.695798 0
M  V30 18179 H 1659.61 -2.25131 -2.16154 0
M  V30 18180 N 1659.91 0.83715 -1.33527 0
M  V30 18181 C 1661.16 1.58747 -1.24428 0
M  V30 18182 C 1661.47 1.94696 0.187885 0
M  V30 18183 O 1662.67 2.68524 0.400903 0
M  V30 18184 C 1661.13 2.86337 -2.18035 0
M  V30 18185 C 1660.74 2.57745 -3.66431 0
M  V30 18186 C 1662.48 3.6436 -2.17812 0
M  V30 18187 C 1660.39 3.81443 -4.51946 0
M  V30 18188 H 1659.32 0.595749 -0.462168 0
M  V30 18189 H 1661.97 0.922901 -1.58603 0
M  V30 18190 H 1660.35 3.54344 -1.76795 0
M  V30 18191 H 1661.53 1.97939 -4.16121 0
M  V30 18192 H 1659.84 1.93023 -3.68959 0
M  V30 18193 H 1662.44 4.56181 -2.78932 0
M  V30 18194 H 1662.78 3.99414 -1.17364 0
M  V30 18195 H 1663.31 3.03279 -2.57423 0
M  V30 18196 H 1660.05 3.51519 -5.53276 0
M  V30 18197 H 1659.57 4.40582 -4.06998 0
M  V30 18198 H 1661.25 4.49004 -4.65837 0
M  V30 18199 N 1661.38 1.17024 1.05561 0
M  V30 18200 C 1662.31 0.906823 2.15172 0
M  V30 18201 C 1663.3 -0.149745 1.6944 0
M  V30 18202 O 1664.48 -0.000287092 1.942 0
M  V30 18203 C 1661.61 0.415251 3.44809 0
M  V30 18204 C 1660.56 1.41058 4.04088 0
M  V30 18205 C 1659.89 0.777109 5.29023 0
M  V30 18206 C 1661.19 2.78258 4.42007 0
M  V30 18207 H 1662.88 1.82347 2.37466 0
M  V30 18208 H 1660.43 0.878162 1.14124 0
M  V30 18209 H 1662.38 0.218407 4.20834 0
M  V30 18210 H 1661.11 -0.536924 3.22156 0
M  V30 18211 H 1659.77 1.5941 3.30127 0
M  V30 18212 H 1659.41 -0.181784 5.02671 0
M  V30 18213 H 1659.11 1.44151 5.69644 0
M  V30 18214 H 1660.64 0.590455 6.07738 0
M  V30 18215 H 1662.05 2.63645 5.09082 0
M  V30 18216 H 1660.45 3.41241 4.93634 0
M  V30 18217 H 1661.52 3.3295 3.52523 0
M  V30 18218 N 1662.86 -1.24221 0.969889 0
M  V30 18219 C 1663.81 -2.27299 0.493765 0
M  V30 18220 C 1664.8 -1.63483 -0.443824 0
M  V30 18221 O 1666.01 -1.77153 -0.318873 0
M  V30 18222 H 1662.39 -0.738622 0.141216 0
M  V30 18223 H 1664.36 -2.6483 1.37506 0
M  V30 18224 C 1663.11 -3.47134 -0.198399 0
M  V30 18225 H 1662.43 -3.96483 0.51395 0
M  V30 18226 H 1663.87 -4.21097 -0.495334 0
M  V30 18227 C 1662.33 -3.05227 -1.42612 0
M  V30 18228 O 1662.86 -3.1258 -2.52302 0
M  V30 18229 N 1661.06 -2.60252 -1.29295 0
M  V30 18230 H 1660.61 -2.54468 -0.400461 0
M  V30 18231 H 1660.57 -2.32579 -2.11553 0
M  V30 18232 N 1664.34 -0.740267 -1.39132 0
M  V30 18233 C 1665.59 -0.287379 -1.99642 0
M  V30 18234 C 1665.9 1.13337 -1.59418 0
M  V30 18235 O 1667.11 1.68605 -2.12802 0
M  V30 18236 C 1665.56 -0.462859 -3.56911 0
M  V30 18237 C 1665.17 -1.89184 -4.06095 0
M  V30 18238 C 1666.92 -0.0720122 -4.24439 0
M  V30 18239 C 1664.82 -2.01659 -5.55957 0
M  V30 18240 H 1663.75 -0.103696 -0.746835 0
M  V30 18241 H 1666.4 -0.914902 -1.59065 0
M  V30 18242 H 1664.79 0.233644 -3.9531 0
M  V30 18243 H 1665.96 -2.62072 -3.79018 0
M  V30 18244 H 1664.28 -2.23638 -3.51248 0
M  V30 18245 H 1666.87 -0.144163 -5.34506 0
M  V30 18246 H 1667.22 0.973516 -4.04757 0
M  V30 18247 H 1667.75 -0.719868 -3.91232 0
M  V30 18248 H 1664.49 -3.04419 -5.80525 0
M  V30 18249 H 1664.01 -1.33214 -5.8482 0
M  V30 18250 H 1665.69 -1.80023 -6.2145 0
M  V30 18251 N 1665.82 1.49844 -0.488302 0
M  V30 18252 C 1666.77 2.30515 0.310703 0
M  V30 18253 C 1667.76 1.38559 0.974569 0
M  V30 18254 O 1668.97 1.5567 0.903708 0
M  V30 18255 H 1665.34 0.742517 0.119049 0
M  V30 18256 H 1667.31 2.95842 -0.389849 0
M  V30 18257 C 1666.06 3.19575 1.36994 0
M  V30 18258 H 1665.38 3.90253 0.868497 0
M  V30 18259 H 1666.82 3.78984 1.90123 0
M  V30 18260 C 1665.28 2.38324 2.38124 0
M  V30 18261 O 1665.81 2.07842 3.43751 0
M  V30 18262 N 1664.02 2.00583 2.10273 0
M  V30 18263 H 1663.57 2.25572 1.24399 0
M  V30 18264 H 1663.52 1.46525 2.78169 0
M  V30 18265 N 1667.3 0.221601 1.56034 0
M  V30 18266 C 1668.23 -0.720818 2.1757 0
M  V30 18267 C 1669.24 -1.15751 1.14479 0
M  V30 18268 O 1670.43 -1.08865 1.41459 0
M  V30 18269 C 1667.53 -1.98817 2.74454 0
M  V30 18270 C 1666.7 -1.70703 4.02715 0
M  V30 18271 C 1665.76 -2.82146 4.44162 0
M  V30 18272 O 1664.79 -2.50614 5.11059 0
M  V30 18273 N 1665.99 -4.11101 4.09849 0
M  V30 18274 H 1668.76 -0.194436 2.99069 0
M  V30 18275 H 1666.32 0.0405962 1.61849 0
M  V30 18276 H 1668.31 -2.72562 2.99152 0
M  V30 18277 H 1666.88 -2.42503 1.97258 0
M  V30 18278 H 1666.1 -0.806022 3.85872 0
M  V30 18279 H 1667.39 -1.49351 4.86387 0
M  V30 18280 H 1666.78 -4.39562 3.56092 0
M  V30 18281 H 1665.34 -4.81389 4.3944 0
M  V30 18282 N 1668.77 -1.57515 -0.0517878 0
M  V30 18283 C 1669.71 -2.01812 -1.08649 0
M  V30 18284 C 1670.72 -0.92719 -1.33817 0
M  V30 18285 O 1671.91 -1.20483 -1.31705 0
M  V30 18286 C 1669.01 -2.35903 -2.43316 0
M  V30 18287 C 1668.18 -3.67095 -2.37824 0
M  V30 18288 C 1667.24 -3.8863 -3.54758 0
M  V30 18289 O 1666.27 -4.59974 -3.3528 0
M  V30 18290 N 1667.47 -3.32516 -4.75829 0
M  V30 18291 H 1670.23 -2.91191 -0.709094 0
M  V30 18292 H 1667.79 -1.60109 -0.240125 0
M  V30 18293 H 1669.79 -2.47466 -3.20223 0
M  V30 18294 H 1668.36 -1.52312 -2.72983 0
M  V30 18295 H 1667.58 -3.66099 -1.46168 0
M  V30 18296 H 1668.86 -4.53199 -2.31275 0
M  V30 18297 H 1668.26 -2.74645 -4.94557 0
M  V30 18298 H 1666.82 -3.49496 -5.50178 0
M  V30 18299 N 1670.25 0.323614 -1.54242 0
M  V30 18300 C 1671.67 0.66795 -1.4495 0
M  V30 18301 C 1671.87 1.91649 -0.622338 0
M  V30 18302 O 1670.93 2.52209 -0.121119 0
M  V30 18303 C 1672.24 0.842006 -2.88671 0
M  V30 18304 C 1673.79 0.93935 -2.98572 0
M  V30 18305 C 1674.26 1.14557 -4.43442 0
M  V30 18306 N 1675.75 1.21231 -4.47054 0
M  V30 18307 C 1676.49 1.38976 -5.56303 0
M  V30 18308 N 1675.98 1.53764 -6.75521 0
M  V30 18309 N 1677.78 1.41684 -5.4395 0
M  V30 18310 H 1669.93 -0.497017 -2.06503 0
M  V30 18311 H 1672.19 -0.160563 -0.934304 0
M  V30 18312 H 1671.9 -0.00418568 -3.517 0
M  V30 18313 H 1671.77 1.73785 -3.34782 0
M  V30 18314 H 1674.16 1.77605 -2.35671 0
M  V30 18315 H 1674.24 0.0199775 -2.55792 0
M  V30 18316 H 1673.88 0.313732 -5.0693 0
M  V30 18317 H 1673.81 2.07882 -4.83831 0
M  V30 18318 H 1676.3 1.11247 -3.61154 0
M  V30 18319 H 1676.62 1.66996 -7.54541 0
M  V30 18320 H 1674.96 1.50862 -6.78429 0
M  V30 18321 H 1678.15 1.29726 -4.49765 0
M  V30 18322 H 1678.33 1.5517 -6.29147 0
M  V30 18323 N 1671.73 1.46313 0.585673 0
M  V30 18324 C 1672.98 1.51171 1.34134 0
M  V30 18325 C 1673.3 0.163691 1.94312 0
M  V30 18326 O 1672.57 -0.809444 1.78395 0
M  V30 18327 H 1671.15 0.556768 0.498014 0
M  V30 18328 H 1673.81 1.82423 0.686133 0
M  V30 18329 H 1672.91 2.26274 2.14957 0
M  V30 18330 N 1673.21 -0.830057 1.33969 0
M  V30 18331 C 1674.46 -1.58821 1.26111 0
M  V30 18332 C 1674.79 -1.9345 -0.170484 0
M  V30 18333 O 1674.06 -1.59433 -1.11407 0
M  V30 18334 C 1674.35 -2.89243 2.14501 0
M  V30 18335 C 1674.2 -2.61239 3.66162 0
M  V30 18336 C 1675.52 -3.90752 2.02487 0
M  V30 18337 H 1672.64 -0.576255 0.459455 0
M  V30 18338 H 1675.28 -0.956736 1.64154 0
M  V30 18339 H 1673.43 -3.43133 1.82186 0
M  V30 18340 H 1675.1 -2.13713 4.08809 0
M  V30 18341 H 1673.34 -1.94796 3.87604 0
M  V30 18342 H 1674.02 -3.54212 4.23365 0
M  V30 18343 H 1676.49 -3.46194 2.30844 0
M  V30 18344 H 1675.37 -4.79825 2.6657 0
M  V30 18345 H 1675.63 -4.30649 0.999704 0
M  V30 18346 N 1674.69 -1.17582 -1.04939 0
M  V30 18347 C 1675.92 -0.990398 -1.81656 0
M  V30 18348 C 1676.33 0.461324 -1.83077 0
M  V30 18349 O 1675.69 1.32037 -1.25986 0
M  V30 18350 C 1675.74 -1.52719 -3.27657 0
M  V30 18351 O 1675.46 -2.92206 -3.26415 0
M  V30 18352 C 1676.96 -1.38671 -4.21053 0
M  V30 18353 H 1674.18 -0.35024 -0.57234 0
M  V30 18354 H 1676.72 -1.5593 -1.32311 0
M  V30 18355 H 1674.88 -1.00026 -3.74264 0
M  V30 18356 H 1675.29 -3.17068 -4.17814 0
M  V30 18357 H 1676.77 -1.8104 -5.21468 0
M  V30 18358 H 1677.24 -0.334151 -4.37927 0
M  V30 18359 H 1677.85 -1.90393 -3.80303 0
M  V30 18360 N 1676.17 1.23705 -0.976463 0
M  V30 18361 C 1677.08 2.28728 -0.521605 0
M  V30 18362 C 1678.09 1.68813 0.421691 0
M  V30 18363 O 1679.27 1.99263 0.292579 0
M  V30 18364 C 1676.33 3.4627 0.172545 0
M  V30 18365 C 1675.39 4.21557 -0.811664 0
M  V30 18366 C 1674.63 5.33488 -0.150546 0
M  V30 18367 O 1674.85 5.60478 1.05926 0
M  V30 18368 O 1673.78 5.95909 -0.847132 0
M  V30 18369 H 1677.61 2.6977 -1.39491 0
M  V30 18370 H 1675.19 1.29562 -0.743909 0
M  V30 18371 H 1677.08 4.17634 0.562103 0
M  V30 18372 H 1675.75 3.07187 1.02067 0
M  V30 18373 H 1674.66 3.52533 -1.25185 0
M  V30 18374 H 1675.99 4.6448 -1.62848 0
M  V30 18375 N 1677.64 0.747635 1.38738 0
M  V30 18376 C 1678.89 0.300552 1.99853 0
M  V30 18377 C 1679.21 -1.11986 1.59638 0
M  V30 18378 O 1678.48 -1.76477 0.850447 0
M  V30 18379 H 1677.06 0.108134 0.739132 0
M  V30 18380 H 1679.72 0.960405 1.69594 0
M  V30 18381 H 1678.82 0.358956 3.10029 0
M  V30 18382 N 1679.12 -1.49583 0.496242 0
M  V30 18383 C 1680.35 -2.07342 -0.0490986 0
M  V30 18384 C 1680.77 -1.35474 -1.30493 0
M  V30 18385 O 1680.13 -0.410005 -1.76603 0
M  V30 18386 C 1680.18 -3.59427 -0.290601 0
M  V30 18387 O 1679.28 -3.89111 -1.36626 0
M  V30 18388 H 1678.62 -0.663562 0.0241141 0
M  V30 18389 H 1681.15 -1.92452 0.6945 0
M  V30 18390 H 1681.16 -4.04627 -0.523549 0
M  V30 18391 H 1679.84 -4.11147 0.626959 0
M  V30 18392 H 1678.41 -3.55726 -1.11864 0
M  V30 18393 N 1680.6 -0.229873 -1.55915 0
M  V30 18394 C 1681.85 0.400157 -1.98813 0
M  V30 18395 C 1682.18 1.58821 -1.11756 0
M  V30 18396 O 1681.45 1.93692 -0.177094 0
M  V30 18397 C 1681.74 0.826623 -3.50484 0
M  V30 18398 C 1681.59 -0.365647 -4.48311 0
M  V30 18399 C 1682.91 1.6798 -4.06781 0
M  V30 18400 H 1680.03 0.143977 -0.7228 0
M  V30 18401 H 1682.67 -0.327775 -1.87151 0
M  V30 18402 H 1680.82 1.44687 -3.60552 0
M  V30 18403 H 1682.49 -1.00391 -4.50244 0
M  V30 18404 H 1680.73 -1.01168 -4.21838 0
M  V30 18405 H 1681.41 -0.0241816 -5.51995 0
M  V30 18406 H 1683.88 1.15639 -3.99708 0
M  V30 18407 H 1682.76 1.94708 -5.13206 0
M  V30 18408 H 1683.02 2.64594 -3.54179 0
M  V30 18409 N 1682.08 1.5754 0.0434337 0
M  V30 18410 C 1683.32 1.88608 0.737108 0
M  V30 18411 C 1683.65 0.825342 1.7612 0
M  V30 18412 O 1682.91 -0.175437 1.94912 0
M  V30 18413 C 1683.21 3.26402 1.45591 0
M  V30 18414 C 1682.87 4.47294 0.56915 0
M  V30 18415 C 1681.53 4.80102 0.324866 0
M  V30 18416 C 1683.89 5.21181 -0.0439735 0
M  V30 18417 C 1681.21 5.84195 -0.541556 0
M  V30 18418 C 1683.57 6.26194 -0.898013 0
M  V30 18419 C 1682.23 6.57486 -1.1519 0
M  V30 18420 H 1681.5 0.690166 0.269727 0
M  V30 18421 H 1684.15 1.915 -0.00275199 0
M  V30 18422 H 1682.45 3.19431 2.26872 0
M  V30 18423 H 1684.15 3.47684 1.99793 0
M  V30 18424 H 1680.74 4.21632 0.769694 0
M  V30 18425 H 1684.92 4.96125 0.131816 0
M  V30 18426 H 1680.18 6.06823 -0.746711 0
M  V30 18427 H 1684.35 6.82596 -1.37969 0
M  V30 18428 H 1681.98 7.37969 -1.82501 0
M  V30 18429 N 1683.56 -0.31543 1.54411 0
M  V30 18430 C 1684.49 -1.39353 1.87358 0
M  V30 18431 C 1685.47 -1.53586 0.731118 0
M  V30 18432 O 1686.65 -1.67332 0.98558 0
M  V30 18433 C 1683.78 -2.75998 2.10814 0
M  V30 18434 C 1682.74 -2.76545 3.2666 0
M  V30 18435 C 1682.06 -4.16343 3.35504 0
M  V30 18436 C 1683.36 -2.39567 4.64117 0
M  V30 18437 H 1685.06 -1.12028 2.77651 0
M  V30 18438 H 1682.6 -0.537476 1.33593 0
M  V30 18439 H 1684.55 -3.51491 2.32447 0
M  V30 18440 H 1683.28 -3.04817 1.17278 0
M  V30 18441 H 1681.94 -2.03507 3.04927 0
M  V30 18442 H 1681.59 -4.42316 2.39512 0
M  V30 18443 H 1681.29 -4.17613 4.13368 0
M  V30 18444 H 1682.81 -4.93637 3.59381 0
M  V30 18445 H 1684.22 -3.04775 4.85577 0
M  V30 18446 H 1682.62 -2.52075 5.4459 0
M  V30 18447 H 1683.69 -1.34707 4.65813 0
M  V30 18448 N 1685.03 -1.46622 -0.577906 0
M  V30 18449 C 1685.98 -1.57926 -1.70769 0
M  V30 18450 C 1686.98 -0.447509 -1.63382 0
M  V30 18451 O 1688.18 -0.624559 -1.68817 0
M  V30 18452 H 1684.56 -0.496618 -0.56469 0
M  V30 18453 H 1686.53 -2.52908 -1.58367 0
M  V30 18454 C 1685.28 -1.59124 -3.09152 0
M  V30 18455 H 1684.6 -2.45549 -3.15509 0
M  V30 18456 H 1686.04 -1.71087 -3.8795 0
M  V30 18457 C 1684.5 -0.320734 -3.3537 0
M  V30 18458 O 1685.03 0.586999 -3.97388 0
M  V30 18459 N 1683.24 -0.207156 -2.89861 0
M  V30 18460 H 1682.78 -0.946744 -2.39572 0
M  V30 18461 H 1682.74 0.642028 -3.07775 0
M  V30 18462 N 1686.51 0.822941 -1.34408 0
M  V30 18463 C 1687.74 1.60854 -1.29652 0
M  V30 18464 C 1688.15 1.88742 0.131572 0
M  V30 18465 O 1687.49 1.47936 1.08907 0
M  V30 18466 C 1687.56 2.97437 -2.0192 0
M  V30 18467 C 1687.22 2.92443 -3.51178 0
M  V30 18468 C 1688.22 2.67029 -4.46085 0
M  V30 18469 C 1685.9 3.12076 -3.93591 0
M  V30 18470 C 1687.9 2.61299 -5.81379 0
M  V30 18471 C 1685.58 3.05971 -5.28985 0
M  V30 18472 C 1686.58 2.80615 -6.22691 0
M  V30 18473 O 1686.27 2.74442 -7.55603 0
M  V30 18474 H 1686 0.506701 -0.447471 0
M  V30 18475 H 1688.55 1.03197 -1.77594 0
M  V30 18476 H 1686.78 3.57012 -1.48592 0
M  V30 18477 H 1688.47 3.58444 -1.90455 0
M  V30 18478 H 1689.24 2.51596 -4.14638 0
M  V30 18479 H 1685.12 3.30828 -3.21051 0
M  V30 18480 H 1688.66 2.41428 -6.54491 0
M  V30 18481 H 1684.56 3.20957 -5.60051 0
M  V30 18482 H 1685.33 2.90169 -7.65339 0
M  V30 18483 N 1687.99 1.18137 1.04314 0
M  V30 18484 C 1688.94 0.906125 2.12269 0
M  V30 18485 C 1689.91 -0.153492 1.65389 0
M  V30 18486 O 1691.09 -0.0143887 1.90795 0
M  V30 18487 C 1688.23 0.435247 3.42344 0
M  V30 18488 C 1687.35 1.56 4.0285 0
M  V30 18489 C 1686.48 1.0421 5.20878 0
M  V30 18490 C 1685.52 2.14171 5.73409 0
M  V30 18491 N 1684.66 1.63792 6.82727 0
M  V30 18492 H 1689.5 1.83052 2.35151 0
M  V30 18493 H 1687.03 0.912846 1.1535 0
M  V30 18494 H 1688.99 0.143733 4.16952 0
M  V30 18495 H 1687.62 -0.452175 3.19617 0
M  V30 18496 H 1686.67 1.96705 3.25594 0
M  V30 18497 H 1687.99 2.389 4.37868 0
M  V30 18498 H 1687.14 0.704959 6.0259 0
M  V30 18499 H 1685.88 0.182643 4.87358 0
M  V30 18500 H 1684.88 2.48732 4.90319 0
M  V30 18501 H 1686.11 3.00547 6.08973 0
M  V30 18502 H 1684.05 0.801323 6.51087 0
M  V30 18503 H 1683.97 2.40293 7.16795 0
M  V30 18504 H 1685.24 1.32998 7.6807 0
M  V30 18505 N 1689.47 -1.23186 0.98301 0
M  V30 18506 C 1690.4 -2.27054 0.544858 0
M  V30 18507 C 1691.38 -1.64749 -0.423281 0
M  V30 18508 O 1692.56 -1.91611 -0.316075 0
M  V30 18509 C 1689.69 -3.46972 -0.150976 0
M  V30 18510 C 1688.65 -4.21647 0.734707 0
M  V30 18511 C 1687.97 -5.34618 -0.0934874 0
M  V30 18512 C 1689.27 -4.81372 2.02679 0
M  V30 18513 H 1690.97 -2.63957 1.41305 0
M  V30 18514 H 1688.51 -1.26885 0.680895 0
M  V30 18515 H 1690.47 -4.18784 -0.468825 0
M  V30 18516 H 1689.19 -3.09137 -1.05364 0
M  V30 18517 H 1687.85 -3.51655 1.03605 0
M  V30 18518 H 1687.5 -4.93025 -0.996768 0
M  V30 18519 H 1687.2 -5.85503 0.496019 0
M  V30 18520 H 1688.72 -6.09251 -0.405658 0
M  V30 18521 H 1690.14 -5.45178 1.77353 0
M  V30 18522 H 1688.53 -5.42554 2.56429 0
M  V30 18523 H 1689.6 -4.01972 2.71194 0
M  V30 18524 N 1690.95 -0.754982 -1.38339 0
M  V30 18525 C 1692.18 -0.322156 -2.04073 0
M  V30 18526 C 1692.58 1.05488 -1.57063 0
M  V30 18527 O 1691.93 1.68154 -0.739597 0
M  V30 18528 C 1691.99 -0.267836 -3.58501 0
M  V30 18529 C 1691.65 -1.58665 -4.28572 0
M  V30 18530 C 1692.65 -2.53609 -4.53849 0
M  V30 18531 C 1690.34 -1.85647 -4.66734 0
M  V30 18532 C 1692.33 -3.73753 -5.16321 0
M  V30 18533 C 1690.02 -3.06065 -5.28931 0
M  V30 18534 C 1691.01 -3.99938 -5.53659 0
M  V30 18535 O 1690.7 -5.18238 -6.14561 0
M  V30 18536 H 1690.43 -0.135341 -0.662313 0
M  V30 18537 H 1692.99 -1.02517 -1.77987 0
M  V30 18538 H 1691.22 0.491434 -3.83565 0
M  V30 18539 H 1692.91 0.135662 -4.05673 0
M  V30 18540 H 1693.67 -2.3404 -4.24794 0
M  V30 18541 H 1689.55 -1.13415 -4.46831 0
M  V30 18542 H 1693.1 -4.47039 -5.35539 0
M  V30 18543 H 1688.99 -3.25526 -5.57408 0
M  V30 18544 H 1689.76 -5.18838 -6.33047 0
M  V30 18545 N 1692.42 1.49318 -0.504168 0
M  V30 18546 C 1693.33 2.32958 0.277053 0
M  V30 18547 C 1694.35 1.44838 0.964266 0
M  V30 18548 O 1695.53 1.77856 0.944947 0
M  V30 18549 C 1692.59 3.20352 1.32572 0
M  V30 18550 C 1691.65 4.24326 0.651606 0
M  V30 18551 C 1690.89 5.07544 1.65031 0
M  V30 18552 O 1691.11 4.92326 2.88047 0
M  V30 18553 O 1690.04 5.89737 1.20388 0
M  V30 18554 H 1693.87 3.00952 -0.40763 0
M  V30 18555 H 1691.45 1.47023 -0.265453 0
M  V30 18556 H 1693.34 3.74483 1.93237 0
M  V30 18557 H 1692.01 2.5505 1.99327 0
M  V30 18558 H 1690.92 3.741 0.00513384 0
M  V30 18559 H 1692.25 4.92193 0.0264424 0
M  V30 18560 N 1693.9 0.238138 1.5579 0
M  V30 18561 C 1695.15 -0.388263 1.98335 0
M  V30 18562 C 1695.47 -1.59104 1.12743 0
M  V30 18563 O 1694.74 -1.9479 0.208201 0
M  V30 18564 H 1693.32 -0.14644 0.732505 0
M  V30 18565 H 1695.98 0.334891 1.92001 0
M  V30 18566 H 1695.08 -0.703359 3.04071 0
M  V30 18567 N 1695.38 -1.57561 -0.0350783 0
M  V30 18568 C 1696.63 -1.89276 -0.728172 0
M  V30 18569 C 1696.96 -0.835137 -1.75326 0
M  V30 18570 O 1696.23 0.150516 -1.93917 0
M  V30 18571 C 1696.52 -3.31638 -1.40316 0
M  V30 18572 C 1696.37 -4.48089 -0.391996 0
M  V30 18573 C 1697.69 -3.72816 -2.33872 0
M  V30 18574 H 1694.81 -0.688381 -0.26325 0
M  V30 18575 H 1697.45 -1.89998 0.00900661 0
M  V30 18576 H 1695.6 -3.31153 -2.0315 0
M  V30 18577 H 1697.27 -4.60706 0.233965 0
M  V30 18578 H 1695.52 -4.32834 0.289305 0
M  V30 18579 H 1696.19 -5.4457 -0.902641 0
M  V30 18580 H 1698.66 -3.74629 -1.81086 0
M  V30 18581 H 1697.54 -4.73245 -2.78084 0
M  V30 18582 H 1697.8 -3.04744 -3.20287 0
M  V30 18583 N 1696.86 0.307236 -1.54576 0
M  V30 18584 C 1697.77 1.4014 -1.88143 0
M  V30 18585 C 1698.78 1.5579 -0.774952 0
M  V30 18586 O 1699.96 1.70574 -1.07082 0
M  V30 18587 C 1697.03 2.74613 -2.11633 0
M  V30 18588 C 1696.09 2.68001 -3.35371 0
M  V30 18589 C 1695.32 3.96061 -3.57731 0
M  V30 18590 O 1695.54 4.95119 -2.83219 0
M  V30 18591 O 1694.48 3.98331 -4.51238 0
M  V30 18592 H 1698.3 1.14677 -2.81217 0
M  V30 18593 H 1695.89 0.502739 -1.40687 0
M  V30 18594 H 1697.77 3.54186 -2.2832 0
M  V30 18595 H 1696.44 2.99933 -1.21746 0
M  V30 18596 H 1695.35 1.86922 -3.24054 0
M  V30 18597 H 1696.68 2.47635 -4.25368 0
M  V30 18598 N 1698.34 1.46926 0.570122 0
M  V30 18599 C 1699.58 1.53113 1.32982 0
M  V30 18600 C 1699.92 0.187401 1.93294 0
M  V30 18601 O 1699.19 -0.802585 1.77169 0
M  V30 18602 C 1699.47 2.63936 2.44969 0
M  V30 18603 C 1699.33 4.07882 1.8961 0
M  V30 18604 C 1700.65 2.70753 3.46959 0
M  V30 18605 H 1697.76 0.557398 0.482158 0
M  V30 18606 H 1700.41 1.78923 0.639259 0
M  V30 18607 H 1698.56 2.42059 3.03874 0
M  V30 18608 H 1700.23 4.41084 1.35066 0
M  V30 18609 H 1698.47 4.16768 1.20361 0
M  V30 18610 H 1699.14 4.81175 2.70508 0
M  V30 18611 H 1701.62 2.90452 2.97954 0
M  V30 18612 H 1700.49 3.50093 4.2276 0
M  V30 18613 H 1700.76 1.77299 4.04991 0
M  V30 18614 N 1699.82 -0.815801 1.34842 0
M  V30 18615 C 1701.06 -1.56747 1.26938 0
M  V30 18616 C 1701.38 -1.9497 -0.156887 0
M  V30 18617 O 1702.58 -2.69128 -0.358132 0
M  V30 18618 C 1701.04 -2.82832 2.22562 0
M  V30 18619 C 1700.65 -2.51883 3.70485 0
M  V30 18620 C 1702.39 -3.60849 2.23581 0
M  V30 18621 C 1700.3 -3.74204 4.57957 0
M  V30 18622 H 1699.23 -0.58832 0.471588 0
M  V30 18623 H 1701.88 -0.897551 1.60051 0
M  V30 18624 H 1700.26 -3.51486 1.8241 0
M  V30 18625 H 1701.44 -1.91294 4.19217 0
M  V30 18626 H 1699.75 -1.87129 3.71983 0
M  V30 18627 H 1702.35 -4.51686 2.86154 0
M  V30 18628 H 1702.69 -3.97496 1.23703 0
M  V30 18629 H 1703.22 -2.99146 2.62215 0
M  V30 18630 H 1699.96 -3.42672 5.58799 0
M  V30 18631 H 1699.48 -4.34051 4.13956 0
M  V30 18632 H 1701.16 -4.41536 4.72921 0
M  V30 18633 N 1701.29 -1.18689 -1.03686 0
M  V30 18634 C 1702.54 -0.978948 -1.7635 0
M  V30 18635 C 1702.86 0.49195 -1.89312 0
M  V30 18636 O 1704.06 0.818501 -2.58868 0
M  V30 18637 C 1702.52 -1.70255 -3.17083 0
M  V30 18638 C 1702.13 -3.21301 -3.12201 0
M  V30 18639 C 1703.87 -1.57756 -3.94098 0
M  V30 18640 C 1701.78 -3.86284 -4.47815 0
M  V30 18641 H 1700.71 -0.362652 -0.661059 0
M  V30 18642 H 1703.36 -1.42102 -1.161 0
M  V30 18643 H 1701.74 -1.18826 -3.77752 0
M  V30 18644 H 1702.91 -3.79785 -2.6096 0
M  V30 18645 H 1701.23 -3.33984 -2.48684 0
M  V30 18646 H 1703.83 -2.03664 -4.94394 0
M  V30 18647 H 1704.17 -0.530427 -4.12907 0
M  V30 18648 H 1704.7 -2.06486 -3.40012 0
M  V30 18649 H 1701.44 -4.91061 -4.34211 0
M  V30 18650 H 1700.96 -3.32589 -4.99144 0
M  V30 18651 H 1702.64 -3.89369 -5.16721 0
M  V30 18652 N 1702.77 1.22662 -0.989529 0
M  V30 18653 C 1704.19 1.43445 -0.699687 0
M  V30 18654 C 1704.39 1.87778 0.730875 0
M  V30 18655 O 1703.44 2.02953 1.5022 0
M  V30 18656 C 1704.76 2.47869 -1.70239 0
M  V30 18657 C 1706.3 2.61672 -1.71746 0
M  V30 18658 C 1706.78 3.69315 -2.7087 0
M  V30 18659 N 1708.27 3.76768 -2.69444 0
M  V30 18660 C 1709.01 4.59641 -3.42808 0
M  V30 18661 N 1708.5 5.46533 -4.25762 0
M  V30 18662 N 1710.29 4.53921 -3.3153 0
M  V30 18663 H 1702.45 0.921912 -1.91349 0
M  V30 18664 H 1704.71 0.466905 -0.825048 0
M  V30 18665 H 1704.41 2.22233 -2.7259 0
M  V30 18666 H 1704.29 3.46415 -1.49254 0
M  V30 18667 H 1706.68 2.86655 -0.70094 0
M  V30 18668 H 1706.76 1.63413 -1.96799 0
M  V30 18669 H 1706.4 3.4508 -3.72669 0
M  V30 18670 H 1706.33 4.67136 -2.43088 0
M  V30 18671 H 1708.82 3.1468 -2.09249 0
M  V30 18672 H 1709.13 6.06783 -4.78575 0
M  V30 18673 H 1707.48 5.46126 -4.2985 0
M  V30 18674 H 1710.67 3.85062 -2.66168 0
M  V30 18675 H 1710.84 5.18277 -3.88964 0
M  V30 18676 N 1704.25 0.762308 1.37937 0
M  V30 18677 C 1705.2 0.140412 2.30372 0
M  V30 18678 C 1706.17 -0.700152 1.50622 0
M  V30 18679 O 1707.35 -0.654474 1.79224 0
M  V30 18680 C 1704.49 -0.740056 3.37071 0
M  V30 18681 C 1703.6 0.116084 4.31844 0
M  V30 18682 C 1702.74 -0.768203 5.25616 0
M  V30 18683 C 1701.78 0.0910442 6.12032 0
M  V30 18684 N 1700.92 -0.75069 6.98075 0
M  V30 18685 H 1705.76 0.934224 2.82977 0
M  V30 18686 H 1703.29 0.472316 1.39311 0
M  V30 18687 H 1705.25 -1.26525 3.97551 0
M  V30 18688 H 1703.88 -1.49956 2.85855 0
M  V30 18689 H 1702.93 0.758999 3.72751 0
M  V30 18690 H 1704.24 0.779285 4.92675 0
M  V30 18691 H 1703.4 -1.36024 5.91255 0
M  V30 18692 H 1702.14 -1.46511 4.65173 0
M  V30 18693 H 1701.14 0.695687 5.45381 0
M  V30 18694 H 1702.37 0.785145 6.74546 0
M  V30 18695 H 1700.31 -1.43239 6.40171 0
M  V30 18696 H 1700.23 -0.144579 7.55862 0
M  V30 18697 H 1701.5 -1.32742 7.68114 0
M  V30 18698 N 1705.73 -1.49049 0.51208 0
M  V30 18699 C 1706.68 -2.30981 -0.273991 0
M  V30 18700 C 1707.67 -1.40092 -0.952402 0
M  V30 18701 O 1708.88 -1.57088 -0.878828 0
M  V30 18702 H 1705.25 -0.744317 -0.107221 0
M  V30 18703 H 1707.22 -2.95185 0.436866 0
M  V30 18704 C 1705.97 -3.21714 -1.31892 0
M  V30 18705 H 1705.29 -3.91585 -0.806302 0
M  V30 18706 H 1706.73 -3.81961 -1.8407 0
M  V30 18707 C 1705.19 -2.42082 -2.34303 0
M  V30 18708 O 1705.72 -2.13285 -3.40401 0
M  V30 18709 N 1703.93 -2.03903 -2.07055 0
M  V30 18710 H 1703.48 -2.27523 -1.20794 0
M  V30 18711 H 1703.43 -1.50932 -2.75802 0
M  V30 18712 N 1707.21 -0.246397 -1.55662 0
M  V30 18713 C 1708.45 0.377739 -1.98539 0
M  V30 18714 C 1708.77 1.58504 -1.13585 0
M  V30 18715 O 1708.04 1.94677 -0.218528 0
M  V30 18716 H 1706.62 0.142554 -0.733272 0
M  V30 18717 H 1709.29 -0.345069 -1.91821 0
M  V30 18718 H 1708.38 0.687224 -3.0444 0
M  V30 18719 N 1708.68 1.57577 0.026722 0
M  V30 18720 C 1710.09 1.77689 0.573022 0
M  V30 18721 C 1710.45 0.877771 1.7547 0
M  V30 18722 O 1709.57 0.0732156 2.16276 0
M  V30 18723 C 1710.17 3.22239 1.0463 0
M  V30 18724 C 1708.72 3.4354 1.5381 0
M  V30 18725 C 1707.87 2.73163 0.47722 0
M  V30 18726 H 1710.82 1.57441 -0.199502 0
M  V30 18727 H 1710.84 3.28882 1.91355 0
M  V30 18728 H 1710.36 3.87654 0.186047 0
M  V30 18729 H 1708.46 2.83304 2.42012 0
M  V30 18730 H 1708.57 4.52158 1.58398 0
M  V30 18731 H 1706.93 2.37004 0.932793 0
M  V30 18732 H 1707.72 3.41261 -0.373605 0
M  V30 18733 N 1710.16 -0.299034 1.54737 0
M  V30 18734 C 1711.41 -1.03164 1.7332 0
M  V30 18735 C 1711.72 -1.88362 0.527184 0
M  V30 18736 O 1712.93 -2.64903 0.594868 0
M  V30 18737 C 1711.39 -1.88391 3.06654 0
M  V30 18738 C 1710.99 -1.08187 4.34741 0
M  V30 18739 C 1712.74 -2.6124 3.34595 0
M  V30 18740 C 1710.64 -1.92702 5.59124 0
M  V30 18741 H 1709.57 -0.388887 0.645975 0
M  V30 18742 H 1712.23 -0.288544 1.81217 0
M  V30 18743 H 1710.61 -2.66696 2.92727 0
M  V30 18744 H 1711.78 -0.344817 4.59508 0
M  V30 18745 H 1710.1 -0.469118 4.13749 0
M  V30 18746 H 1712.69 -3.24826 4.24726 0
M  V30 18747 H 1713.04 -3.30172 2.53559 0
M  V30 18748 H 1713.57 -1.89982 3.49502 0
M  V30 18749 H 1710.31 -1.28236 6.42834 0
M  V30 18750 H 1709.83 -2.64074 5.38539 0
M  V30 18751 H 1711.51 -2.50702 5.96454 0
M  V30 18752 N 1711.64 -1.47227 -0.562322 0
M  V30 18753 C 1712.92 -1.44069 -1.32301 0
M  V30 18754 C 1713.3 -0.134912 -2.10668 0
M  V30 18755 O 1712.64 0.883603 -2.10724 0
M  V30 18756 C 1712.85 -2.68309 -2.23184 0
M  V30 18757 C 1714.2 -3.1531 -2.84367 0
M  V30 18758 O 1715.23 -2.69001 -2.33489 0
M  V30 18759 O 1714.09 -3.95805 -3.7683 0
M  V30 18760 H 1711.18 -0.573892 -0.595464 0
M  V30 18761 H 1713.73 -1.59421 -0.581648 0
M  V30 18762 H 1712.5 -3.54884 -1.64842 0
M  V30 18763 H 1712.12 -2.55518 -3.04625 0
M  V30 18764 N 1713.12 0.808639 -1.35273 0
M  V30 18765 C 1714.37 1.56071 -1.27768 0
M  V30 18766 C 1714.68 1.9505 0.146545 0
M  V30 18767 O 1715.89 2.69314 0.343855 0
M  V30 18768 C 1714.34 2.81648 -2.24059 0
M  V30 18769 C 1713.95 2.49915 -3.71815 0
M  V30 18770 C 1715.69 3.59658 -2.25492 0
M  V30 18771 C 1713.6 3.7177 -4.59936 0
M  V30 18772 H 1712.53 0.585811 -0.474701 0
M  V30 18773 H 1715.18 0.889051 -1.60525 0
M  V30 18774 H 1713.56 3.50514 -1.84271 0
M  V30 18775 H 1714.74 1.89068 -4.20226 0
M  V30 18776 H 1713.05 1.85154 -3.72971 0
M  V30 18777 H 1715.65 4.50162 -2.88545 0
M  V30 18778 H 1715.99 3.96835 -1.2581 0
M  V30 18779 H 1716.53 2.97751 -2.63798 0
M  V30 18780 H 1713.26 3.39704 -5.60608 0
M  V30 18781 H 1712.78 4.3185 -4.16252 0
M  V30 18782 H 1714.46 4.39022 -4.75256 0
M  V30 18783 N 1714.6 1.19237 1.03055 0
M  V30 18784 C 1715.82 1.01983 1.80594 0
M  V30 18785 C 1716.25 -0.426875 1.83192 0
M  V30 18786 O 1715.6 -1.30678 1.2567 0
M  V30 18787 C 1715.65 1.59139 3.23585 0
M  V30 18788 O 1714.76 0.819576 4.04174 0
M  V30 18789 H 1714.1 0.360585 0.557561 0
M  V30 18790 H 1716.63 1.58222 1.29719 0
M  V30 18791 H 1716.64 1.62283 3.74337 0
M  V30 18792 H 1715.31 2.64436 3.21009 0
M  V30 18793 H 1713.89 0.861253 3.62818 0
M  V30 18794 N 1716.07 -1.22136 0.99602 0
M  V30 18795 C 1717.02 -2.262 0.541868 0
M  V30 18796 C 1718.02 -1.64387 -0.409047 0
M  V30 18797 O 1719.22 -1.7779 -0.281224 0
M  V30 18798 H 1715.6 -0.73546 0.156851 0
M  V30 18799 H 1717.57 -2.61853 1.43092 0
M  V30 18800 C 1716.32 -3.47476 -0.124723 0
M  V30 18801 H 1715.64 -3.95303 0.597934 0
M  V30 18802 H 1717.08 -4.22053 -0.405902 0
M  V30 18803 C 1715.54 -3.08183 -1.36105 0
M  V30 18804 O 1716.07 -3.17862 -2.45615 0
M  V30 18805 N 1714.28 -2.62936 -1.23746 0
M  V30 18806 H 1713.82 -2.5526 -0.346394 0
M  V30 18807 H 1713.78 -2.37014 -2.06572 0
M  V30 18808 N 1717.55 -0.769612 -1.37531 0
M  V30 18809 C 1718.78 -0.344282 -2.04015 0
M  V30 18810 C 1719.2 1.03281 -1.58046 0
M  V30 18811 O 1718.55 1.65888 -0.760746 0
M  V30 18812 C 1718.6 -0.375922 -3.5954 0
M  V30 18813 O 1718.32 -1.69869 -4.03827 0
M  V30 18814 C 1719.83 0.0612715 -4.43258 0
M  V30 18815 H 1717.05 -0.144584 -0.655238 0
M  V30 18816 H 1719.59 -1.04294 -1.75906 0
M  V30 18817 H 1717.74 0.274136 -3.86429 0
M  V30 18818 H 1718.16 -1.63584 -4.98338 0
M  V30 18819 H 1719.63 -0.012022 -5.51999 0
M  V30 18820 H 1720.11 1.11136 -4.24906 0
M  V30 18821 H 1720.72 -0.560517 -4.2159 0
M  V30 18822 N 1719.03 1.48775 -0.519977 0
M  V30 18823 C 1720.31 1.95429 0.0816701 0
M  V30 18824 C 1720.69 1.46199 1.52279 0
M  V30 18825 O 1720.04 0.684057 2.1802 0
M  V30 18826 C 1720.25 3.48991 -0.0252472 0
M  V30 18827 C 1721.59 4.24372 0.139099 0
M  V30 18828 O 1722.62 3.56166 0.0490322 0
M  V30 18829 O 1721.48 5.45524 0.326426 0
M  V30 18830 H 1718.57 0.822637 0.0848378 0
M  V30 18831 H 1721.12 1.5934 -0.583865 0
M  V30 18832 H 1719.89 3.77514 -1.02951 0
M  V30 18833 H 1719.51 3.91749 0.679588 0
M  V30 18834 N 1720.51 0.254649 1.55529 0
M  V30 18835 C 1721.46 -0.657787 2.23105 0
M  V30 18836 C 1722.45 -1.17402 1.22119 0
M  V30 18837 O 1723.66 -1.13002 1.40109 0
M  V30 18838 H 1720.03 -0.230628 0.715762 0
M  V30 18839 H 1722 -0.0647759 2.9833 0
M  V30 18840 C 1720.75 -1.84018 2.95013 0
M  V30 18841 H 1720.07 -1.45211 3.72497 0
M  V30 18842 H 1721.51 -2.45568 3.45648 0
M  V30 18843 C 1719.97 -2.7161 1.99322 0
M  V30 18844 O 1720.5 -3.7137 1.53125 0
M  V30 18845 N 1718.71 -2.38342 1.66258 0
M  V30 18846 H 1718.26 -1.57268 2.04021 0
M  V30 18847 H 1718.21 -2.97222 1.025 0
M  V30 18848 N 1721.99 -1.57589 -0.0183649 0
M  V30 18849 C 1723.23 -1.89757 -0.707008 0
M  V30 18850 C 1723.56 -0.853257 -1.74785 0
M  V30 18851 O 1722.82 0.144406 -1.95166 0
M  V30 18852 C 1723.12 -3.28677 -1.4038 0
M  V30 18853 C 1722.78 -4.48142 -0.497917 0
M  V30 18854 C 1721.44 -4.80558 -0.248444 0
M  V30 18855 C 1723.8 -5.21046 0.126883 0
M  V30 18856 C 1721.12 -5.8326 0.634428 0
M  V30 18857 C 1723.48 -6.24686 0.997521 0
M  V30 18858 C 1722.14 -6.5557 1.25635 0
M  V30 18859 H 1721.41 -0.694369 -0.258713 0
M  V30 18860 H 1724.06 -1.91471 0.0332176 0
M  V30 18861 H 1722.36 -3.23 -2.21761 0
M  V30 18862 H 1724.06 -3.50818 -1.94236 0
M  V30 18863 H 1720.65 -4.22803 -0.702519 0
M  V30 18864 H 1724.83 -4.96272 -0.0528705 0
M  V30 18865 H 1720.09 -6.05558 0.843157 0
M  V30 18866 H 1724.26 -6.80315 1.48811 0
M  V30 18867 H 1721.89 -7.34972 1.94218 0
M  V30 18868 N 1723.46 0.290824 -1.54893 0
M  V30 18869 C 1724.71 1.02627 -1.74916 0
M  V30 18870 C 1725.04 1.86572 -0.538921 0
M  V30 18871 O 1724.32 1.88888 0.463844 0
M  V30 18872 C 1724.6 1.92376 -3.04407 0
M  V30 18873 C 1724.45 1.11542 -4.3575 0
M  V30 18874 C 1725.77 2.91383 -3.29824 0
M  V30 18875 H 1722.89 0.371685 -0.636411 0
M  V30 18876 H 1725.53 0.300072 -1.87615 0
M  V30 18877 H 1723.68 2.54295 -2.93711 0
M  V30 18878 H 1725.36 0.518312 -4.58379 0
M  V30 18879 H 1723.6 0.418386 -4.31778 0
M  V30 18880 H 1724.27 1.77616 -5.22644 0
M  V30 18881 H 1726.75 2.39595 -3.40196 0
M  V30 18882 H 1725.62 3.51338 -4.21726 0
M  V30 18883 H 1725.88 3.65579 -2.48606 0
M  V30 18884 N 1724.94 1.47523 0.554506 0
M  V30 18885 C 1726.36 1.33101 0.880699 0
M  V30 18886 C 1726.56 0.323524 1.98886 0
M  V30 18887 O 1725.61 -0.263996 2.51116 0
M  V30 18888 C 1726.93 2.725 1.27138 0
M  V30 18889 C 1728.48 2.80805 1.38266 0
M  V30 18890 C 1728.95 4.20851 1.80688 0
M  V30 18891 N 1730.44 4.23406 1.87834 0
M  V30 18892 C 1731.18 5.28684 2.21993 0
M  V30 18893 N 1730.67 6.44264 2.54746 0
M  V30 18894 N 1732.47 5.16063 2.2279 0
M  V30 18895 H 1724.62 2.11661 -0.177062 0
M  V30 18896 H 1726.88 0.947856 -0.0165508 0
M  V30 18897 H 1726.59 3.47669 0.53093 0
M  V30 18898 H 1726.46 3.04445 2.22695 0
M  V30 18899 H 1728.85 2.05907 2.11391 0
M  V30 18900 H 1728.93 2.52511 0.408901 0
M  V30 18901 H 1728.57 4.96256 1.08131 0
M  V30 18902 H 1728.5 4.46572 2.79071 0
M  V30 18903 H 1730.99 3.40025 1.64897 0
M  V30 18904 H 1731.31 7.20351 2.79846 0
M  V30 18905 H 1729.65 6.4758 2.52321 0
M  V30 18906 H 1732.84 4.24793 1.96642 0
M  V30 18907 H 1733.01 5.98216 2.49081 0
M  V30 18908 N 1726.42 -0.801453 1.357 0
M  V30 18909 C 1727.37 -1.91355 1.29043 0
M  V30 18910 C 1728.34 -1.65314 0.161381 0
M  V30 18911 O 1729.52 -1.87638 0.345928 0
M  V30 18912 C 1726.66 -3.27979 1.07348 0
M  V30 18913 C 1725.78 -3.66172 2.29221 0
M  V30 18914 C 1724.91 -4.91853 2.00635 0
M  V30 18915 C 1723.95 -5.22688 3.18533 0
M  V30 18916 N 1723.09 -6.3955 2.8969 0
M  V30 18917 H 1727.93 -1.96381 2.24139 0
M  V30 18918 H 1725.46 -0.960502 1.11413 0
M  V30 18919 H 1727.42 -4.06748 0.928002 0
M  V30 18920 H 1726.05 -3.22408 0.159115 0
M  V30 18921 H 1725.1 -2.82623 2.54615 0
M  V30 18922 H 1726.42 -3.84916 3.1724 0
M  V30 18923 H 1725.57 -5.78459 1.82947 0
M  V30 18924 H 1724.31 -4.75154 1.09908 0
M  V30 18925 H 1723.31 -4.34569 3.36793 0
M  V30 18926 H 1724.54 -5.41313 4.10069 0
M  V30 18927 H 1722.48 -6.24266 2.01562 0
M  V30 18928 H 1722.4 -6.58569 3.71245 0
M  V30 18929 H 1723.67 -7.29171 2.75555 0
M  V30 18930 N 1727.9 -1.19782 -1.02421 0
M  V30 18931 C 1728.85 -0.936475 -2.12915 0
M  V30 18932 C 1729.84 0.10941 -1.69046 0
M  V30 18933 O 1731.05 -0.04026 -1.79955 0
M  V30 18934 H 1727.42 -0.285462 -0.695712 0
M  V30 18935 H 1729.39 -1.87485 -2.32146 0
M  V30 18936 C 1728.14 -0.496786 -3.44133 0
M  V30 18937 H 1727.46 -1.29314 -3.78309 0
M  V30 18938 H 1728.9 -0.353073 -4.22527 0
M  V30 18939 C 1727.36 0.789792 -3.27512 0
M  V30 18940 O 1727.89 1.85009 -3.56559 0
M  V30 18941 N 1726.1 0.748849 -2.80786 0
M  V30 18942 H 1725.65 -0.114256 -2.57346 0
M  V30 18943 H 1725.6 1.61005 -2.70046 0
M  V30 18944 N 1729.38 1.21606 -1.00248 0
M  V30 18945 C 1730.65 1.86191 -0.599348 0
M  V30 18946 C 1731.03 1.89847 0.923104 0
M  V30 18947 O 1730.38 1.39595 1.80902 0
M  V30 18948 C 1730.59 3.26576 -1.23082 0
M  V30 18949 C 1731.94 4.02989 -1.33736 0
M  V30 18950 O 1732.96 3.35877 -1.18595 0
M  V30 18951 O 1731.82 5.23142 -1.58065 0
M  V30 18952 H 1728.92 0.801204 -0.204943 0
M  V30 18953 H 1731.46 1.29309 -1.09897 0
M  V30 18954 H 1730.24 3.18601 -2.27176 0
M  V30 18955 H 1729.86 3.91074 -0.717394 0
M  V30 18956 N 1730.86 0.776895 1.37121 0
M  V30 18957 C 1731.79 0.180738 2.32799 0
M  V30 18958 C 1732.77 -0.677284 1.56035 0
M  V30 18959 O 1733.95 -0.613687 1.84249 0
M  V30 18960 C 1731.08 -0.695148 3.40272 0
M  V30 18961 C 1730.04 0.0619772 4.27955 0
M  V30 18962 C 1729.36 -0.933688 5.26485 0
M  V30 18963 C 1730.66 1.24396 5.0727 0
M  V30 18964 H 1732.36 0.980039 2.82906 0
M  V30 18965 H 1729.9 0.472722 1.3602 0
M  V30 18966 H 1731.85 -1.12205 4.06187 0
M  V30 18967 H 1730.58 -1.52702 2.88703 0
M  V30 18968 H 1729.24 0.469717 3.63578 0
M  V30 18969 H 1728.89 -1.76025 4.71194 0
M  V30 18970 H 1728.59 -0.431608 5.86013 0
M  V30 18971 H 1730.11 -1.35942 5.95275 0
M  V30 18972 H 1731.52 0.89345 5.66295 0
M  V30 18973 H 1729.92 1.67848 5.76149 0
M  V30 18974 H 1730.99 2.04553 4.39643 0
M  V30 18975 N 1732.33 -1.48497 0.527859 0
M  V30 18976 C 1733.3 -2.2809 -0.225312 0
M  V30 18977 C 1734.3 -1.35251 -0.869707 0
M  V30 18978 O 1735.49 -1.58163 -0.730086 0
M  V30 18979 C 1732.62 -3.14061 -1.32584 0
M  V30 18980 H 1733.81 -2.96139 0.473465 0
M  V30 18981 H 1731.36 -1.53703 0.283724 0
M  V30 18982 H 1732.1 -2.50638 -2.05794 0
M  V30 18983 H 1731.88 -3.82351 -0.868922 0
M  V30 18984 H 1733.37 -3.74106 -1.85566 0
M  V30 18985 N 1733.81 -0.262893 -1.55392 0
M  V30 18986 C 1735.04 0.360534 -2.0343 0
M  V30 18987 C 1735.45 1.50917 -1.14108 0
M  V30 18988 O 1734.79 1.83077 -0.15118 0
M  V30 18989 C 1734.85 0.91519 -3.47656 0
M  V30 18990 C 1734.52 -0.103245 -4.56883 0
M  V30 18991 C 1735.52 -0.918464 -5.11723 0
M  V30 18992 C 1733.2 -0.233956 -5.01755 0
M  V30 18993 C 1735.19 -1.8507 -6.09941 0
M  V30 18994 C 1732.88 -1.16968 -5.99801 0
M  V30 18995 C 1733.88 -1.97656 -6.53774 0
M  V30 18996 O 1733.57 -2.89648 -7.49906 0
M  V30 18997 H 1733.3 0.0879049 -0.67026 0
M  V30 18998 H 1735.85 -0.389114 -2.01681 0
M  V30 18999 H 1734.08 1.71469 -3.46605 0
M  V30 19000 H 1735.77 1.4504 -3.79102 0
M  V30 19001 H 1736.54 -0.828152 -4.77877 0
M  V30 19002 H 1732.42 0.384057 -4.59397 0
M  V30 19003 H 1735.96 -2.48091 -6.51994 0
M  V30 19004 H 1731.86 -1.26085 -6.33066 0
M  V30 19005 H 1732.63 -2.84191 -7.67579 0
M  V30 19006 N 1735.29 1.57597 0.0100073 0
M  V30 19007 C 1736.54 1.89308 0.696075 0
M  V30 19008 C 1736.85 0.863884 1.75489 0
M  V30 19009 O 1738.06 1.07087 2.49489 0
M  V30 19010 C 1736.51 3.36017 1.2892 0
M  V30 19011 C 1736.12 4.47211 0.265731 0
M  V30 19012 C 1737.87 3.76852 1.95404 0
M  V30 19013 C 1735.77 5.84991 0.868277 0
M  V30 19014 H 1734.7 0.706368 0.263744 0
M  V30 19015 H 1737.35 1.83435 -0.0488972 0
M  V30 19016 H 1735.74 3.36696 2.08451 0
M  V30 19017 H 1736.91 4.58033 -0.504256 0
M  V30 19018 H 1735.22 4.15332 -0.298096 0
M  V30 19019 H 1737.82 4.77121 2.41371 0
M  V30 19020 H 1738.16 3.09841 2.78036 0
M  V30 19021 H 1738.7 3.7843 1.22621 0
M  V30 19022 H 1735.44 6.5545 0.0809513 0
M  V30 19023 H 1734.96 5.77853 1.60766 0
M  V30 19024 H 1736.64 6.32331 1.36993 0
M  V30 19025 N 1736.77 -0.282606 1.55045 0
M  V30 19026 C 1737.72 -1.36902 1.88044 0
M  V30 19027 C 1738.71 -1.51603 0.755845 0
M  V30 19028 O 1739.92 -1.53501 0.940074 0
M  V30 19029 H 1736.29 -0.457666 0.596696 0
M  V30 19030 H 1738.26 -1.06317 2.78818 0
M  V30 19031 C 1737.01 -2.72426 2.16054 0
M  V30 19032 H 1736.33 -2.61903 3.02071 0
M  V30 19033 H 1737.77 -3.47409 2.43071 0
M  V30 19034 C 1736.23 -3.22784 0.964996 0
M  V30 19035 O 1736.76 -4.01228 0.194759 0
M  V30 19036 N 1734.97 -2.80341 0.765322 0
M  V30 19037 H 1734.52 -2.16665 1.39335 0
M  V30 19038 H 1734.47 -3.14383 -0.0330026 0
M  V30 19039 N 1738.25 -1.47815 -0.546675 0
M  V30 19040 C 1739.49 -1.5521 -1.30529 0
M  V30 19041 C 1739.82 -0.218129 -1.92971 0
M  V30 19042 O 1739.1 0.774298 -1.78423 0
M  V30 19043 C 1739.38 -2.67799 -2.40739 0
M  V30 19044 C 1739.24 -4.10847 -1.83097 0
M  V30 19045 C 1740.55 -2.76238 -3.42608 0
M  V30 19046 H 1737.67 -0.564998 -0.473229 0
M  V30 19047 H 1740.32 -1.79917 -0.610713 0
M  V30 19048 H 1738.47 -2.46863 -2.99985 0
M  V30 19049 H 1740.14 -4.43177 -1.28031 0
M  V30 19050 H 1738.38 -4.1863 -1.13716 0
M  V30 19051 H 1739.05 -4.85418 -2.62818 0
M  V30 19052 H 1741.53 -2.95156 -2.93296 0
M  V30 19053 H 1740.4 -3.56774 -4.17137 0
M  V30 19054 H 1740.66 -1.83719 -4.02119 0
M  V30 19055 N 1739.72 0.794246 -1.36123 0
M  V30 19056 C 1740.97 1.55421 -1.30277 0
M  V30 19057 C 1741.3 1.93834 0.119134 0
M  V30 19058 O 1740.58 1.6233 1.07141 0
M  V30 19059 C 1740.86 2.83454 -2.22094 0
M  V30 19060 C 1740.71 2.51439 -3.72959 0
M  V30 19061 C 1742.03 3.85246 -2.12776 0
M  V30 19062 H 1739.15 0.563871 -0.474572 0
M  V30 19063 H 1741.79 0.912877 -1.66633 0
M  V30 19064 H 1739.94 3.38182 -1.9122 0
M  V30 19065 H 1741.62 2.02799 -4.14331 0
M  V30 19066 H 1739.86 1.84451 -3.92632 0
M  V30 19067 H 1740.53 3.42863 -4.32608 0
M  V30 19068 H 1743.01 3.39952 -2.39942 0
M  V30 19069 H 1741.88 4.72588 -2.79198 0
M  V30 19070 H 1742.14 4.27847 -1.11353 0
M  V30 19071 N 1741.2 1.20323 1.01785 0
M  V30 19072 C 1742.48 0.921703 1.72522 0
M  V30 19073 C 1742.86 -0.569838 2.03264 0
M  V30 19074 O 1742.21 -1.53115 1.69611 0
M  V30 19075 C 1742.42 1.79335 2.99399 0
M  V30 19076 C 1743.76 2.03442 3.72688 0
M  V30 19077 O 1744.79 1.76578 3.09352 0
M  V30 19078 O 1743.65 2.48803 4.86579 0
M  V30 19079 H 1740.74 0.344505 0.751828 0
M  V30 19080 H 1743.29 1.31191 1.07644 0
M  V30 19081 H 1742.06 2.80339 2.72994 0
M  V30 19082 H 1741.68 1.40314 3.72018 0
M  V30 19083 N 1742.68 -1.21073 1.00892 0
M  V30 19084 C 1744.1 -1.42314 0.72242 0
M  V30 19085 C 1744.3 -1.88917 -0.700908 0
M  V30 19086 O 1743.35 -2.05318 -1.46973 0
M  V30 19087 C 1744.66 -2.4513 1.74161 0
M  V30 19088 C 1746.21 -2.58907 1.75887 0
M  V30 19089 C 1746.69 -3.64959 2.76711 0
M  V30 19090 N 1748.18 -3.72434 2.75404 0
M  V30 19091 C 1748.91 -4.54129 3.50077 0
M  V30 19092 N 1748.41 -5.39691 4.34403 0
M  V30 19093 N 1750.2 -4.48589 3.38709 0
M  V30 19094 H 1742.35 -0.891353 1.92792 0
M  V30 19095 H 1744.62 -0.45372 0.832371 0
M  V30 19096 H 1744.32 -2.17868 2.76091 0
M  V30 19097 H 1744.2 -3.43996 1.54746 0
M  V30 19098 H 1746.58 -2.85503 0.746455 0
M  V30 19099 H 1746.66 -1.60261 1.99374 0
M  V30 19100 H 1746.31 -3.39107 3.78112 0
M  V30 19101 H 1746.24 -4.63209 2.50489 0
M  V30 19102 H 1748.73 -3.11311 2.14228 0
M  V30 19103 H 1749.04 -5.99092 4.88168 0
M  V30 19104 H 1747.39 -5.39219 4.38484 0
M  V30 19105 H 1750.58 -3.80778 2.7226 0
M  V30 19106 H 1750.75 -5.12023 3.97161 0
M  V30 19107 N 1744.16 -0.784156 -1.36707 0
M  V30 19108 C 1745.41 -0.353434 -1.98986 0
M  V30 19109 C 1745.73 1.07714 -1.62551 0
M  V30 19110 O 1745 1.7416 -0.896938 0
M  V30 19111 H 1743.58 -0.127693 -0.736005 0
M  V30 19112 H 1746.24 -1.00503 -1.66988 0
M  V30 19113 H 1745.34 -0.441028 -3.08968 0
M  V30 19114 N 1745.64 1.48215 -0.535727 0
M  V30 19115 C 1746.88 2.028 -0.00373305 0
M  V30 19116 C 1747.22 1.41143 1.33388 0
M  V30 19117 O 1746.49 0.559227 1.86287 0
M  V30 19118 C 1746.77 3.59925 0.112186 0
M  V30 19119 C 1746.63 4.32053 -1.251 0
M  V30 19120 C 1747.95 4.32083 0.836177 0
M  V30 19121 H 1745.06 0.736995 -0.00283063 0
M  V30 19122 H 1747.71 1.76877 -0.693868 0
M  V30 19123 H 1745.86 3.82142 0.69996 0
M  V30 19124 H 1747.53 4.21238 -1.88033 0
M  V30 19125 H 1745.77 3.93246 -1.83139 0
M  V30 19126 H 1746.44 5.4046 -1.12283 0
M  V30 19127 H 1748.92 4.1473 0.337333 0
M  V30 19128 H 1747.79 5.41699 0.886196 0
M  V30 19129 H 1748.06 3.99772 1.88771 0
M  V30 19130 N 1747.11 0.27113 1.5525 0
M  V30 19131 C 1748.02 -0.628245 2.26031 0
M  V30 19132 C 1749.04 -1.17339 1.28481 0
M  V30 19133 O 1750.22 -1.20453 1.61409 0
M  V30 19134 C 1747.28 -1.79766 2.96454 0
M  V30 19135 C 1746.34 -1.28958 4.09473 0
M  V30 19136 C 1745.58 -2.40326 4.76528 0
M  V30 19137 O 1745.8 -3.59595 4.42772 0
M  V30 19138 O 1744.73 -2.08708 5.64557 0
M  V30 19139 H 1748.56 -0.0549756 3.0365 0
M  V30 19140 H 1746.14 0.0386859 1.4935 0
M  V30 19141 H 1748.03 -2.4796 3.40725 0
M  V30 19142 H 1746.7 -2.35809 2.21756 0
M  V30 19143 H 1745.61 -0.57422 3.69667 0
M  V30 19144 H 1746.94 -0.774945 4.86061 0
M  V30 19145 N 1748.59 -1.576 -0.00164943 0
M  V30 19146 C 1749.82 -1.94493 -0.69686 0
M  V30 19147 C 1750.23 -0.871587 -1.67929 0
M  V30 19148 O 1749.57 0.158245 -1.83017 0
M  V30 19149 C 1749.64 -3.27363 -1.48572 0
M  V30 19150 C 1749.3 -4.52135 -0.665063 0
M  V30 19151 C 1750.3 -5.19879 0.0465481 0
M  V30 19152 C 1747.98 -4.98564 -0.611519 0
M  V30 19153 C 1749.98 -6.32351 0.800706 0
M  V30 19154 C 1747.66 -6.10925 0.146365 0
M  V30 19155 C 1748.66 -6.77675 0.851213 0
M  V30 19156 O 1748.35 -7.87883 1.59674 0
M  V30 19157 H 1748.08 -0.645998 -0.199156 0
M  V30 19158 H 1750.63 -2.05351 0.0450887 0
M  V30 19159 H 1748.86 -3.12909 -2.27211 0
M  V30 19160 H 1750.55 -3.4938 -2.06611 0
M  V30 19161 H 1751.32 -4.84998 0.014324 0
M  V30 19162 H 1747.2 -4.46434 -1.14967 0
M  V30 19163 H 1750.74 -6.84385 1.3514 0
M  V30 19164 H 1746.64 -6.45248 0.180416 0
M  V30 19165 H 1747.41 -8.04389 1.51327 0
M  V30 19166 N 1750.07 0.274379 -1.55193 0
M  V30 19167 C 1751.49 0.621497 -1.47002 0
M  V30 19168 C 1751.69 1.89572 -0.682995 0
M  V30 19169 O 1750.74 2.51696 -0.201296 0
M  V30 19170 C 1752.06 0.749741 -2.91203 0
M  V30 19171 C 1753.6 0.843886 -3.01409 0
M  V30 19172 C 1754.08 1.00392 -4.46862 0
M  V30 19173 N 1755.57 1.06947 -4.50684 0
M  V30 19174 C 1756.3 1.21207 -5.60443 0
M  V30 19175 N 1755.8 1.32195 -6.80071 0
M  V30 19176 N 1757.59 1.24307 -5.48183 0
M  V30 19177 H 1749.74 -0.562462 -2.04817 0
M  V30 19178 H 1752.01 -0.190205 -0.928723 0
M  V30 19179 H 1751.71 -0.116074 -3.51508 0
M  V30 19180 H 1751.59 1.63046 -3.40141 0
M  V30 19181 H 1753.97 1.70017 -2.41202 0
M  V30 19182 H 1754.06 -0.061411 -2.55726 0
M  V30 19183 H 1753.7 0.152298 -5.07672 0
M  V30 19184 H 1753.63 1.92384 -4.902 0
M  V30 19185 H 1756.12 0.997012 -3.64511 0
M  V30 19186 H 1756.43 1.42906 -7.59472 0
M  V30 19187 H 1754.78 1.29202 -6.82885 0
M  V30 19188 H 1757.97 1.15352 -4.53665 0
M  V30 19189 H 1758.14 1.35076 -6.33765 0
M  V30 19190 N 1751.55 1.48103 0.538828 0
M  V30 19191 C 1752.48 1.64856 1.65363 0
M  V30 19192 C 1753.46 0.497579 1.6266 0
M  V30 19193 O 1754.64 0.729088 1.79994 0
M  V30 19194 C 1751.77 1.67984 3.03971 0
M  V30 19195 C 1750.73 2.82494 3.21529 0
M  V30 19196 C 1750.05 2.70706 4.6111 0
M  V30 19197 C 1751.35 4.23892 3.05145 0
M  V30 19198 H 1753.05 2.58183 1.51598 0
M  V30 19199 H 1750.59 1.24249 0.727886 0
M  V30 19200 H 1752.55 1.78294 3.81824 0
M  V30 19201 H 1751.27 0.712299 3.18738 0
M  V30 19202 H 1749.93 2.71725 2.46091 0
M  V30 19203 H 1749.58 1.7194 4.727 0
M  V30 19204 H 1749.28 3.47539 4.73804 0
M  V30 19205 H 1750.8 2.82971 5.41073 0
M  V30 19206 H 1752.22 4.3554 3.72797 0
M  V30 19207 H 1750.61 5.01654 3.29338 0
M  V30 19208 H 1751.68 4.40973 2.01671 0
M  V30 19209 N 1753.03 -0.787016 1.36542 0
M  V30 19210 C 1754.26 -1.5736 1.33871 0
M  V30 19211 C 1754.66 -1.89024 -0.0814846 0
M  V30 19212 O 1754.01 -1.50771 -1.04947 0
M  V30 19213 C 1754.07 -2.91978 2.09735 0
M  V30 19214 C 1753.73 -2.8303 3.58808 0
M  V30 19215 C 1754.73 -2.55108 4.53008 0
M  V30 19216 C 1752.42 -3.01531 4.01727 0
M  V30 19217 C 1754.41 -2.45793 5.88103 0
M  V30 19218 C 1752.1 -2.91838 5.36911 0
M  V30 19219 C 1753.09 -2.64007 6.29912 0
M  V30 19220 O 1752.78 -2.54312 7.62614 0
M  V30 19221 H 1752.51 -0.494659 0.460748 0
M  V30 19222 H 1755.07 -0.984519 1.80268 0
M  V30 19223 H 1753.3 -3.52946 1.58005 0
M  V30 19224 H 1754.99 -3.53268 1.99891 0
M  V30 19225 H 1755.75 -2.40514 4.21163 0
M  V30 19226 H 1751.63 -3.22199 3.2971 0
M  V30 19227 H 1755.18 -2.23991 6.60662 0
M  V30 19228 H 1751.07 -3.05995 5.68364 0
M  V30 19229 H 1751.84 -2.69776 7.72763 0
M  V30 19230 N 1754.5 -1.20861 -1.01145 0
M  V30 19231 C 1755.47 -0.963742 -2.07954 0
M  V30 19232 C 1756.47 0.0627362 -1.60678 0
M  V30 19233 O 1757.66 -0.173867 -1.7333 0
M  V30 19234 C 1754.79 -0.451977 -3.3789 0
M  V30 19235 H 1755.98 -1.91123 -2.3111 0
M  V30 19236 H 1753.54 -1.0247 -1.18024 0
M  V30 19237 H 1754.27 0.500735 -3.20411 0
M  V30 19238 H 1754.06 -1.19231 -3.73532 0
M  V30 19239 H 1755.55 -0.300308 -4.16519 0
M  V30 19240 N 1755.98 1.20536 -1.01532 0
M  V30 19241 C 1757.26 1.85545 -0.619063 0
M  V30 19242 C 1757.64 1.90816 0.902916 0
M  V30 19243 O 1756.99 1.41506 1.79411 0
M  V30 19244 C 1757.2 3.25252 -1.26539 0
M  V30 19245 C 1758.55 4.01547 -1.38003 0
M  V30 19246 O 1759.57 3.34601 -1.22151 0
M  V30 19247 O 1758.43 5.21436 -1.63605 0
M  V30 19248 H 1755.52 0.798985 -0.21343 0
M  V30 19249 H 1758.07 1.28136 -1.11262 0
M  V30 19250 H 1756.84 3.16174 -2.30542 0
M  V30 19251 H 1756.46 3.90292 -0.758833 0
M  V30 19252 N 1757.46 0.791395 1.36289 0
M  V30 19253 C 1758.69 0.376696 2.03442 0
M  V30 19254 C 1759.1 -1.00753 1.59669 0
M  V30 19255 O 1758.46 -1.64657 0.787042 0
M  V30 19256 C 1758.51 0.433074 3.58897 0
M  V30 19257 O 1758.23 1.76272 4.01073 0
M  V30 19258 C 1759.73 0.00925475 4.43299 0
M  V30 19259 H 1756.95 0.154989 0.652855 0
M  V30 19260 H 1759.5 1.07079 1.74225 0
M  V30 19261 H 1757.65 -0.212623 3.86816 0
M  V30 19262 H 1758.07 1.71492 4.95672 0
M  V30 19263 H 1759.54 0.0998386 5.5191 0
M  V30 19264 H 1760.02 -1.04362 4.26621 0
M  V30 19265 H 1760.62 0.627518 4.20645 0
M  V30 19266 N 1758.94 -1.47929 0.54358 0
M  V30 19267 C 1759.89 -2.29827 -0.211706 0
M  V30 19268 C 1760.86 -1.38217 -0.921154 0
M  V30 19269 O 1762.04 -1.67181 -0.919522 0
M  V30 19270 C 1759.18 -3.21889 -1.24425 0
M  V30 19271 C 1758.29 -4.28583 -0.542264 0
M  V30 19272 C 1757.43 -5.0781 -1.55892 0
M  V30 19273 C 1756.47 -6.06293 -0.841146 0
M  V30 19274 N 1755.61 -6.78528 -1.80399 0
M  V30 19275 H 1760.45 -2.93896 0.492835 0
M  V30 19276 H 1757.98 -1.44875 0.254873 0
M  V30 19277 H 1759.94 -3.73674 -1.85535 0
M  V30 19278 H 1758.57 -2.59713 -1.917 0
M  V30 19279 H 1757.62 -3.79959 0.183069 0
M  V30 19280 H 1758.93 -4.98796 0.0206703 0
M  V30 19281 H 1758.09 -5.63678 -2.24393 0
M  V30 19282 H 1756.83 -4.37468 -2.15576 0
M  V30 19283 H 1755.83 -5.49616 -0.14214 0
M  V30 19284 H 1757.06 -6.78639 -0.250232 0
M  V30 19285 H 1755 -6.10927 -2.38965 0
M  V30 19286 H 1754.92 -7.44863 -1.29285 0
M  V30 19287 H 1756.19 -7.38978 -2.48056 0
M  V30 19288 N 1760.42 -0.27936 -1.55104 0
M  V30 19289 C 1761.64 0.342295 -2.04556 0
M  V30 19290 C 1762.07 1.48367 -1.15624 0
M  V30 19291 O 1761.43 1.8063 -0.15572 0
M  V30 19292 C 1761.47 0.796785 -3.51687 0
M  V30 19293 O 1760.58 1.90364 -3.65835 0
M  V30 19294 H 1759.92 0.07012 -0.660287 0
M  V30 19295 H 1762.45 -0.414896 -2.00349 0
M  V30 19296 H 1762.46 1.09141 -3.93131 0
M  V30 19297 H 1761.13 -0.0382637 -4.15882 0
M  V30 19298 H 1759.71 1.61123 -3.36294 0
M  V30 19299 N 1761.9 1.57599 -0.0067085 0
M  V30 19300 C 1762.81 2.1228 0.998709 0
M  V30 19301 C 1763.82 1.06964 1.37239 0
M  V30 19302 O 1765 1.38902 1.45836 0
M  V30 19303 C 1762.06 2.62076 2.26973 0
M  V30 19304 C 1761.12 3.8202 1.95855 0
M  V30 19305 C 1760.36 4.29431 3.16898 0
M  V30 19306 O 1760.58 3.76136 4.2881 0
M  V30 19307 O 1759.51 5.21518 3.00504 0
M  V30 19308 H 1763.34 2.9842 0.563849 0
M  V30 19309 H 1760.92 1.47881 0.212535 0
M  V30 19310 H 1762.81 2.94274 3.01631 0
M  V30 19311 H 1761.48 1.79031 2.69684 0
M  V30 19312 H 1760.39 3.54785 1.18653 0
M  V30 19313 H 1761.72 4.66159 1.57977 0
M  V30 19314 N 1763.37 -0.266145 1.55336 0
M  V30 19315 C 1764.32 -1.32914 1.88686 0
M  V30 19316 C 1765.29 -1.48752 0.739048 0
M  V30 19317 O 1766.48 -1.63048 0.990951 0
M  V30 19318 C 1763.62 -2.68317 2.17026 0
M  V30 19319 C 1762.73 -2.60644 3.44512 0
M  V30 19320 C 1761.86 -3.88271 3.62517 0
M  V30 19321 C 1760.9 -3.75137 4.83672 0
M  V30 19322 N 1760.04 -4.94614 4.98299 0
M  V30 19323 H 1764.88 -1.03774 2.79347 0
M  V30 19324 H 1762.42 -0.501205 1.38298 0
M  V30 19325 H 1764.37 -3.47107 2.31458 0
M  V30 19326 H 1763 -2.95645 1.29591 0
M  V30 19327 H 1762.06 -1.73527 3.38515 0
M  V30 19328 H 1763.37 -2.46842 4.3344 0
M  V30 19329 H 1762.52 -4.75503 3.76804 0
M  V30 19330 H 1761.26 -4.04949 2.71787 0
M  V30 19331 H 1760.27 -2.86289 4.69381 0
M  V30 19332 H 1761.49 -3.59973 5.75844 0
M  V30 19333 H 1759.44 -5.11689 4.10501 0
M  V30 19334 H 1759.35 -4.83369 5.81284 0
M  V30 19335 H 1760.62 -5.83399 5.16978 0
M  V30 19336 N 1764.85 -1.48386 -0.530967 0
M  V30 19337 C 1765.76 -1.65516 -1.66257 0
M  V30 19338 C 1766.78 -0.5377 -1.65483 0
M  V30 19339 O 1767.95 -0.808642 -1.84453 0
M  V30 19340 C 1765.02 -1.68999 -3.02722 0
M  V30 19341 C 1764.08 -2.92365 -3.14358 0
M  V30 19342 C 1763.31 -2.95672 -4.44313 0
M  V30 19343 O 1763.54 -2.07417 -5.31352 0
M  V30 19344 O 1762.47 -3.87831 -4.60294 0
M  V30 19345 H 1766.3 -2.61321 -1.54742 0
M  V30 19346 H 1763.88 -1.31776 -0.703946 0
M  V30 19347 H 1765.76 -1.73816 -3.83883 0
M  V30 19348 H 1764.44 -0.763675 -3.14563 0
M  V30 19349 H 1763.34 -2.93081 -2.32496 0
M  V30 19350 H 1764.68 -3.84378 -3.07433 0
M  V30 19351 N 1766.33 0.779763 -1.36958 0
M  V30 19352 C 1767.28 1.89278 -1.32071 0
M  V30 19353 C 1768.25 1.65037 -0.18766 0
M  V30 19354 O 1769.43 1.87064 -0.375736 0
M  V30 19355 C 1766.57 3.2623 -1.12552 0
M  V30 19356 C 1765.68 3.62479 -2.35017 0
M  V30 19357 C 1764.82 4.88599 -2.08434 0
M  V30 19358 C 1763.86 5.17555 -3.26808 0
M  V30 19359 N 1763 6.3486 -2.99828 0
M  V30 19360 H 1767.84 1.9279 -2.27235 0
M  V30 19361 H 1765.37 0.942656 -1.12927 0
M  V30 19362 H 1767.33 4.0522 -0.992595 0
M  V30 19363 H 1765.96 3.22114 -0.210387 0
M  V30 19364 H 1765.01 2.78536 -2.59079 0
M  V30 19365 H 1766.32 3.7982 -3.23324 0
M  V30 19366 H 1765.48 5.75476 -1.92127 0
M  V30 19367 H 1764.22 4.73346 -1.17453 0
M  V30 19368 H 1763.22 4.29156 -3.43664 0
M  V30 19369 H 1764.45 5.34721 -4.18629 0
M  V30 19370 H 1762.39 6.20981 -2.11468 0
M  V30 19371 H 1762.31 6.52579 -3.81676 0
M  V30 19372 H 1763.58 7.24695 -2.8712 0
M  V30 19373 N 1767.81 1.21396 1.00503 0
M  V30 19374 C 1769.06 1.02536 1.73693 0
M  V30 19375 C 1769.37 -0.441584 1.9055 0
M  V30 19376 O 1770.58 -0.749579 2.60947 0
M  V30 19377 C 1769.03 1.78602 3.12457 0
M  V30 19378 C 1768.64 3.29466 3.03573 0
M  V30 19379 C 1770.38 1.68149 3.89777 0
M  V30 19380 C 1768.29 3.98021 4.37416 0
M  V30 19381 H 1767.22 0.380052 0.651212 0
M  V30 19382 H 1769.87 1.4513 1.12292 0
M  V30 19383 H 1768.25 1.288 3.74468 0
M  V30 19384 H 1769.43 3.8657 2.50799 0
M  V30 19385 H 1767.74 3.4046 2.39741 0
M  V30 19386 H 1770.34 2.167 4.8882 0
M  V30 19387 H 1770.68 0.639716 4.11355 0
M  V30 19388 H 1771.22 2.15428 3.34418 0
M  V30 19389 H 1767.95 5.02401 4.21039 0
M  V30 19390 H 1767.47 3.45706 4.9015 0
M  V30 19391 H 1769.15 4.02932 5.06216 0
M  V30 19392 N 1769.29 -1.19996 1.0217 0
M  V30 19393 C 1770.53 -1.88818 0.709281 0
M  V30 19394 C 1770.85 -1.80032 -0.764702 0
M  V30 19395 O 1772.05 -2.44037 -1.18988 0
M  V30 19396 C 1770.51 -3.38652 1.2183 0
M  V30 19397 C 1770.12 -3.56012 2.71955 0
M  V30 19398 C 1771.86 -4.12996 0.981542 0
M  V30 19399 C 1769.77 -4.997 3.16313 0
M  V30 19400 H 1768.7 -0.70716 0.261613 0
M  V30 19401 H 1771.35 -1.35715 1.23506 0
M  V30 19402 H 1769.73 -3.91109 0.620478 0
M  V30 19403 H 1770.91 -3.13918 3.37331 0
M  V30 19404 H 1769.22 -2.95046 2.93831 0
M  V30 19405 H 1771.82 -5.18948 1.28831 0
M  V30 19406 H 1772.16 -4.1622 -0.0818616 0
M  V30 19407 H 1772.69 -3.66656 1.543 0
M  V30 19408 H 1769.43 -5.01635 4.21951 0
M  V30 19409 H 1768.95 -5.42585 2.5566 0
M  V30 19410 H 1770.63 -5.68312 3.09242 0
M  V30 19411 N 1770.76 -0.798611 -1.35867 0
M  V30 19412 C 1772.18 -0.481385 -1.52167 0
M  V30 19413 C 1772.38 0.99878 -1.75005 0
M  V30 19414 O 1771.44 1.78404 -1.78685 0
M  V30 19415 C 1772.75 -1.31982 -2.70188 0
M  V30 19416 C 1774.3 -1.31445 -2.84062 0
M  V30 19417 C 1774.77 -2.13682 -4.05098 0
M  V30 19418 N 1776.26 -2.11176 -4.12261 0
M  V30 19419 C 1777 -2.71571 -5.05012 0
M  V30 19420 N 1776.49 -3.40861 -6.03147 0
M  V30 19421 N 1778.29 -2.61255 -4.97697 0
M  V30 19422 H 1770.44 -1.75731 -1.19299 0
M  V30 19423 H 1772.7 -0.747512 -0.583034 0
M  V30 19424 H 1772.41 -2.36989 -2.59864 0
M  V30 19425 H 1772.28 -0.967488 -3.64581 0
M  V30 19426 H 1774.67 -0.272258 -2.93841 0
M  V30 19427 H 1774.75 -1.7066 -1.90549 0
M  V30 19428 H 1774.39 -3.17937 -3.96079 0
M  V30 19429 H 1774.32 -1.71832 -4.97776 0
M  V30 19430 H 1776.81 -1.60754 -3.42004 0
M  V30 19431 H 1777.13 -3.84251 -6.705 0
M  V30 19432 H 1775.47 -3.44964 -6.03345 0
M  V30 19433 H 1778.66 -2.06717 -4.19983 0
M  V30 19434 H 1778.84 -3.08613 -5.69791 0
M  V30 19435 N 1772.24 1.47639 -0.551417 0
M  V30 19436 C 1773.47 2.06878 -0.0298904 0
M  V30 19437 C 1773.88 1.40493 1.26123 0
M  V30 19438 O 1773.24 0.499513 1.75531 0
M  V30 19439 C 1773.29 3.61074 0.175449 0
M  V30 19440 O 1773.01 4.2497 -1.06454 0
M  V30 19441 C 1774.51 4.37166 0.734919 0
M  V30 19442 H 1771.73 0.669607 -0.0432142 0
M  V30 19443 H 1774.28 1.89726 -0.763178 0
M  V30 19444 H 1772.43 3.7776 0.858848 0
M  V30 19445 H 1772.85 5.17424 -0.858644 0
M  V30 19446 H 1774.32 5.45756 0.827915 0
M  V30 19447 H 1774.8 4.03052 1.74486 0
M  V30 19448 H 1775.4 4.2521 0.0874045 0
M  V30 19449 N 1773.72 0.287581 1.54954 0
M  V30 19450 C 1774.95 -0.331442 2.04735 0
M  V30 19451 C 1775.37 -1.47752 1.16409 0
M  V30 19452 O 1774.73 -1.80545 0.165297 0
M  V30 19453 C 1774.78 -0.778123 3.52105 0
M  V30 19454 O 1773.88 -1.88422 3.66839 0
M  V30 19455 H 1773.22 -0.0666173 0.66065 0
M  V30 19456 H 1775.75 0.425516 2.00126 0
M  V30 19457 H 1775.76 -1.07054 3.93705 0
M  V30 19458 H 1774.44 0.0603184 4.15856 0
M  V30 19459 H 1773.01 -1.59338 3.37144 0
M  V30 19460 N 1775.2 -1.57593 0.0150662 0
M  V30 19461 C 1776.15 -2.10501 -0.989557 0
M  V30 19462 C 1777.14 -1.02836 -1.34615 0
M  V30 19463 O 1778.35 -1.21286 -1.33002 0
M  V30 19464 H 1774.72 -0.672343 -0.336838 0
M  V30 19465 H 1776.69 -2.93871 -0.517893 0
M  V30 19466 C 1775.44 -2.63583 -2.26759 0
M  V30 19467 H 1774.76 -3.46069 -2.00191 0
M  V30 19468 H 1776.2 -3.04264 -2.95295 0
M  V30 19469 C 1774.66 -1.5568 -2.98773 0
M  V30 19470 O 1775.19 -0.948437 -3.90343 0
M  V30 19471 N 1773.4 -1.28062 -2.60861 0
M  V30 19472 H 1772.95 -1.77719 -1.86477 0
M  V30 19473 H 1772.9 -0.560878 -3.09357 0
M  V30 19474 N 1776.68 0.257904 -1.55475 0
M  V30 19475 C 1777.61 1.32303 -1.92401 0
M  V30 19476 C 1778.59 1.50767 -0.787617 0
M  V30 19477 O 1779.77 1.63559 -1.047 0
M  V30 19478 C 1776.9 2.67984 -2.20912 0
M  V30 19479 C 1775.86 2.64231 -3.36699 0
M  V30 19480 C 1775.18 4.03604 -3.50725 0
M  V30 19481 C 1776.48 2.22177 -4.72689 0
M  V30 19482 H 1778.18 1.01646 -2.81618 0
M  V30 19483 H 1775.72 0.487523 -1.35496 0
M  V30 19484 H 1777.68 3.42622 -2.45332 0
M  V30 19485 H 1776.4 3.00254 -1.2851 0
M  V30 19486 H 1775.06 1.92049 -3.1227 0
M  V30 19487 H 1774.71 4.33122 -2.55763 0
M  V30 19488 H 1774.41 4.01983 -4.28583 0
M  V30 19489 H 1775.93 4.79959 -3.77455 0
M  V30 19490 H 1777.34 2.86543 -4.96554 0
M  V30 19491 H 1775.74 2.3169 -5.5357 0
M  V30 19492 H 1776.81 1.17326 -4.70492 0
M  V30 19493 N 1778.15 1.48666 0.52309 0
M  V30 19494 C 1779.1 1.64155 1.6479 0
M  V30 19495 C 1780.1 0.507838 1.61609 0
M  V30 19496 O 1781.3 0.686784 1.66383 0
M  V30 19497 H 1777.68 0.517234 0.545869 0
M  V30 19498 H 1779.65 2.58611 1.48871 0
M  V30 19499 C 1778.4 1.70488 3.03033 0
M  V30 19500 H 1777.72 2.5709 3.06178 0
M  V30 19501 H 1779.16 1.85367 3.81333 0
M  V30 19502 C 1777.62 0.444984 3.33948 0
M  V30 19503 O 1778.15 -0.439107 3.99293 0
M  V30 19504 N 1776.36 0.314593 2.88892 0
M  V30 19505 H 1775.9 1.03501 2.35893 0
M  V30 19506 H 1775.86 -0.527357 3.09946 0
M  V30 19507 N 1779.63 -0.772489 1.37369 0
M  V30 19508 C 1780.91 -1.52029 1.23072 0
M  V30 19509 C 1781.29 -2.10365 -0.176011 0
M  V30 19510 O 1780.64 -1.95459 -1.18356 0
M  V30 19511 C 1780.85 -2.60176 2.32614 0
M  V30 19512 C 1782.2 -3.27599 2.70118 0
M  V30 19513 O 1783.22 -2.70471 2.31785 0
M  V30 19514 O 1782.08 -4.30883 3.36158 0
M  V30 19515 H 1779.17 -0.673306 0.480196 0
M  V30 19516 H 1781.72 -0.809518 1.49147 0
M  V30 19517 H 1780.49 -2.15185 3.2682 0
M  V30 19518 H 1780.11 -3.38855 2.07998 0
M  V30 19519 N 1781.11 -1.21927 -0.998575 0
M  V30 19520 C 1782.34 -1.06735 -1.77827 0
M  V30 19521 C 1782.76 0.378154 -1.8426 0
M  V30 19522 O 1782.12 1.27301 -1.2909 0
M  V30 19523 C 1782.17 -1.67662 -3.19252 0
M  V30 19524 O 1781.27 -0.926448 -4.01859 0
M  V30 19525 H 1780.61 -0.375241 -0.547805 0
M  V30 19526 H 1783.14 -1.61605 -1.25478 0
M  V30 19527 H 1783.15 -1.72151 -3.69903 0
M  V30 19528 H 1781.83 -2.72854 -3.13885 0
M  V30 19529 H 1780.4 -0.957145 -3.60407 0
M  V30 19530 N 1782.59 1.19452 -1.02805 0
M  V30 19531 C 1783.52 2.24875 -0.628752 0
M  V30 19532 C 1784.5 1.66207 0.361844 0
M  V30 19533 O 1785.68 1.92652 0.244743 0
M  V30 19534 C 1782.81 3.47293 0.0220954 0
M  V30 19535 C 1781.77 4.1863 -0.890693 0
M  V30 19536 C 1781.09 5.34597 -0.104997 0
M  V30 19537 C 1782.39 4.73518 -2.20405 0
M  V30 19538 H 1784.09 2.5853 -1.51005 0
M  V30 19539 H 1781.63 1.24271 -0.727518 0
M  V30 19540 H 1783.59 4.20235 0.313073 0
M  V30 19541 H 1782.31 3.12835 0.938182 0
M  V30 19542 H 1780.97 3.47568 -1.16585 0
M  V30 19543 H 1780.62 4.96385 0.813098 0
M  V30 19544 H 1780.32 5.83258 -0.712983 0
M  V30 19545 H 1781.84 6.10337 0.179259 0
M  V30 19546 H 1783.26 5.3822 -1.97465 0
M  V30 19547 H 1781.65 5.32663 -2.76388 0
M  V30 19548 H 1782.72 3.9163 -2.85926 0
M  V30 19549 N 1784.07 0.805805 1.35442 0
M  V30 19550 C 1785.31 0.385046 1.98398 0
M  V30 19551 C 1785.64 -1.05114 1.64244 0
M  V30 19552 O 1784.91 -1.72711 0.924532 0
M  V30 19553 H 1783.49 0.139386 0.733881 0
M  V30 19554 H 1786.15 1.03147 1.65368 0
M  V30 19555 H 1785.24 0.490126 3.08227 0
M  V30 19556 N 1785.54 -1.47344 0.559239 0
M  V30 19557 C 1786.48 -2.28095 -0.224826 0
M  V30 19558 C 1787.49 -1.37127 -0.877492 0
M  V30 19559 O 1788.68 -1.61933 -0.751002 0
M  V30 19560 C 1785.78 -3.1145 -1.33611 0
M  V30 19561 C 1784.95 -4.30392 -0.779845 0
M  V30 19562 C 1784.01 -4.95327 -1.77587 0
M  V30 19563 O 1783.04 -5.53654 -1.32119 0
M  V30 19564 N 1784.24 -4.90206 -3.10931 0
M  V30 19565 H 1787 -2.96026 0.46786 0
M  V30 19566 H 1784.56 -1.56996 0.395448 0
M  V30 19567 H 1786.56 -3.51758 -2.00121 0
M  V30 19568 H 1785.13 -2.45749 -1.932 0
M  V30 19569 H 1784.35 -3.94151 0.0620861 0
M  V30 19570 H 1785.63 -5.07322 -0.387581 0
M  V30 19571 H 1785.03 -4.44022 -3.50515 0
M  V30 19572 H 1783.59 -5.34527 -3.72994 0
M  V30 19573 N 1787.02 -0.295795 -1.54799 0
M  V30 19574 C 1788.27 0.315754 -1.99213 0
M  V30 19575 C 1788.58 1.55405 -1.18779 0
M  V30 19576 O 1789.79 2.23986 -1.53436 0
M  V30 19577 C 1788.25 0.613119 -3.54639 0
M  V30 19578 C 1787.85 -0.606546 -4.43875 0
M  V30 19579 C 1789.6 1.18615 -4.07591 0
M  V30 19580 C 1787.51 -0.282622 -5.90724 0
M  V30 19581 H 1786.44 0.121758 -0.744104 0
M  V30 19582 H 1789.09 -0.403686 -1.79005 0
M  V30 19583 H 1787.47 1.39202 -3.70728 0
M  V30 19584 H 1788.64 -1.3829 -4.39559 0
M  V30 19585 H 1786.96 -1.09785 -4.01667 0
M  V30 19586 H 1789.55 1.44266 -5.1487 0
M  V30 19587 H 1789.9 2.12674 -3.57876 0
M  V30 19588 H 1790.43 0.469078 -3.95025 0
M  V30 19589 H 1787.17 -1.19164 -6.44578 0
M  V30 19590 H 1786.69 0.456564 -5.9806 0
M  V30 19591 H 1788.37 0.117703 -6.46893 0
M  V30 19592 N 1788.5 1.57583 -0.0234236 0
M  V30 19593 C 1789.75 1.90742 0.655764 0
M  V30 19594 C 1790.06 0.900914 1.73617 0
M  V30 19595 O 1791.27 1.12355 2.47161 0
M  V30 19596 C 1789.73 3.38676 1.21763 0
M  V30 19597 C 1789.33 4.47674 0.170811 0
M  V30 19598 C 1791.08 3.80912 1.87366 0
M  V30 19599 C 1788.98 5.86702 0.743996 0
M  V30 19600 H 1787.91 0.711803 0.248701 0
M  V30 19601 H 1790.57 1.8329 -0.0877955 0
M  V30 19602 H 1788.95 3.41042 2.01262 0
M  V30 19603 H 1790.12 4.5686 -0.601298 0
M  V30 19604 H 1788.44 4.14606 -0.386127 0
M  V30 19605 H 1791.03 4.82133 2.31197 0
M  V30 19606 H 1791.38 3.15669 2.71402 0
M  V30 19607 H 1791.91 3.80945 1.14566 0
M  V30 19608 H 1788.65 6.55474 -0.0580976 0
M  V30 19609 H 1788.17 5.81133 1.48472 0
M  V30 19610 H 1789.85 6.35094 1.23549 0
M  V30 19611 N 1789.98 -0.249655 1.5561 0
M  V30 19612 C 1791.23 -0.979529 1.77576 0
M  V30 19613 C 1791.56 -1.85078 0.588198 0
M  V30 19614 O 1790.83 -1.90052 -0.4136 0
M  V30 19615 C 1791.12 -1.84238 3.094 0
M  V30 19616 C 1790.97 -0.9995 4.38554 0
M  V30 19617 C 1792.29 -2.82536 3.37433 0
M  V30 19618 H 1789.41 -0.354681 0.646042 0
M  V30 19619 H 1792.05 -0.250224 1.88345 0
M  V30 19620 H 1790.2 -2.46419 3.0035 0
M  V30 19621 H 1791.87 -0.396599 4.59592 0
M  V30 19622 H 1790.11 -0.30376 4.32735 0
M  V30 19623 H 1790.79 -1.63697 5.27169 0
M  V30 19624 H 1793.26 -2.30491 3.46429 0
M  V30 19625 H 1792.14 -3.40033 4.30893 0
M  V30 19626 H 1792.4 -3.58859 2.58211 0
M  V30 19627 N 1791.46 -1.48941 -0.515198 0
M  V30 19628 C 1792.39 -1.59148 -1.63545 0
M  V30 19629 C 1793.37 -0.441179 -1.565 0
M  V30 19630 O 1794.55 -0.654805 -1.76761 0
M  V30 19631 C 1791.68 -1.53324 -3.02009 0
M  V30 19632 C 1790.73 -2.73377 -3.27364 0
M  V30 19633 S 1791.56 -4.35201 -3.12026 0
M  V30 19634 C 1792.71 -4.31999 -4.5291 0
M  V30 19635 H 1792.95 -2.53917 -1.5464 0
M  V30 19636 H 1790.48 -1.37656 -0.69929 0
M  V30 19637 H 1792.44 -1.5065 -3.81857 0
M  V30 19638 H 1791.1 -0.598671 -3.08342 0
M  V30 19639 H 1790.29 -2.65482 -4.2841 0
M  V30 19640 H 1789.89 -2.7339 -2.55213 0
M  V30 19641 H 1792.19 -4.02844 -5.44723 0
M  V30 19642 H 1793.13 -5.33275 -4.65858 0
M  V30 19643 H 1793.54 -3.62265 -4.32925 0
M  V30 19644 N 1792.94 0.765193 -1.37777 0
M  V30 19645 C 1794.21 1.51374 -1.23876 0
M  V30 19646 C 1794.59 2.10455 0.164852 0
M  V30 19647 O 1793.94 1.96084 1.17318 0
M  V30 19648 C 1794.15 2.58939 -2.33991 0
M  V30 19649 C 1795.5 3.26162 -2.71852 0
M  V30 19650 O 1796.52 2.69238 -2.33216 0
M  V30 19651 O 1795.38 4.29094 -3.38438 0
M  V30 19652 H 1792.48 0.670749 -0.48376 0
M  V30 19653 H 1795.02 0.801597 -1.49574 0
M  V30 19654 H 1793.79 2.13448 -3.27957 0
M  V30 19655 H 1793.42 3.37747 -2.09793 0
M  V30 19656 N 1794.41 1.22455 0.992094 0
M  V30 19657 C 1795.64 1.07677 1.77258 0
M  V30 19658 C 1796.06 -0.368377 1.84458 0
M  V30 19659 O 1795.42 -1.26614 1.29763 0
M  V30 19660 C 1795.47 1.69353 3.18358 0
M  V30 19661 O 1794.57 0.947746 4.01362 0
M  V30 19662 H 1793.91 0.378141 0.545807 0
M  V30 19663 H 1796.44 1.62269 1.2462 0
M  V30 19664 H 1796.45 1.7411 3.68985 0
M  V30 19665 H 1795.13 2.74515 3.12433 0
M  V30 19666 H 1793.71 0.976245 3.59894 0
M  V30 19667 N 1795.89 -1.18905 1.03437 0
M  V30 19668 C 1797.14 -1.88055 0.729268 0
M  V30 19669 C 1797.45 -1.80833 -0.745564 0
M  V30 19670 O 1798.66 -2.45285 -1.16393 0
M  V30 19671 C 1797.12 -3.37341 1.25415 0
M  V30 19672 C 1796.72 -3.53107 2.75716 0
M  V30 19673 C 1798.47 -4.11932 1.02529 0
M  V30 19674 C 1796.37 -4.96317 3.21595 0
M  V30 19675 H 1795.3 -0.704345 0.269098 0
M  V30 19676 H 1797.96 -1.34397 1.24938 0
M  V30 19677 H 1796.34 -3.90429 0.661925 0
M  V30 19678 H 1797.51 -3.10322 3.40642 0
M  V30 19679 H 1795.83 -2.91913 2.96944 0
M  V30 19680 H 1798.42 -5.17552 1.34328 0
M  V30 19681 H 1798.77 -4.16283 -0.0377114 0
M  V30 19682 H 1799.3 -3.64998 1.5818 0
M  V30 19683 H 1796.04 -4.97131 4.27248 0
M  V30 19684 H 1795.56 -5.39842 2.61401 0
M  V30 19685 H 1797.24 -5.65 3.15253 0
M  V30 19686 N 1797.37 -0.812977 -1.35013 0
M  V30 19687 C 1798.62 -0.395562 -1.98191 0
M  V30 19688 C 1798.94 1.04242 -1.64799 0
M  V30 19689 O 1798.21 1.72219 -0.933678 0
M  V30 19690 H 1796.79 -0.143276 -0.733131 0
M  V30 19691 H 1799.45 -1.04023 -1.64819 0
M  V30 19692 H 1798.55 -0.506466 -3.07963 0
M  V30 19693 N 1798.85 1.47045 -0.567045 0
M  V30 19694 C 1799.8 2.31838 0.188075 0
M  V30 19695 C 1800.79 1.4353 0.899752 0
M  V30 19696 O 1802 1.60241 0.81992 0
M  V30 19697 H 1798.37 0.747783 0.0795226 0
M  V30 19698 H 1800.34 2.9336 -0.546121 0
M  V30 19699 C 1799.09 3.26387 1.19861 0
M  V30 19700 H 1798.41 3.94308 0.660412 0
M  V30 19701 H 1799.85 3.8853 1.69767 0
M  V30 19702 C 1798.31 2.50612 2.25157 0
M  V30 19703 O 1798.84 2.25771 3.3225 0
M  V30 19704 N 1797.05 2.11447 1.99345 0
M  V30 19705 H 1796.6 2.31849 1.12267 0
M  V30 19706 H 1796.55 1.61064 2.7001 0
M  V30 19707 N 1800.33 0.304 1.5464 0
M  V30 19708 C 1801.27 -0.586475 2.25085 0
M  V30 19709 C 1802.27 -1.13458 1.25792 0
M  V30 19710 O 1803.47 -1.08487 1.43633 0
M  V30 19711 H 1799.85 -0.20774 0.722737 0
M  V30 19712 H 1801.82 0.0301682 2.98385 0
M  V30 19713 C 1800.57 -1.74539 3.00718 0
M  V30 19714 H 1799.89 -1.33287 3.76928 0
M  V30 19715 H 1801.33 -2.34447 3.53285 0
M  V30 19716 C 1799.79 -2.65132 2.07862 0
M  V30 19717 O 1800.32 -3.6631 1.64863 0
M  V30 19718 N 1798.53 -2.32932 1.73756 0
M  V30 19719 H 1798.07 -1.50698 2.08921 0
M  V30 19720 H 1798.03 -2.93811 1.11904 0
M  V30 19721 N 1801.8 -1.57568 0.0317802 0
M  V30 19722 C 1803.04 -1.93776 -0.650407 0
M  V30 19723 C 1803.41 -0.908617 -1.69139 0
M  V30 19724 O 1804.61 -1.15698 -2.42626 0
M  V30 19725 C 1802.88 -3.34887 -1.24843 0
M  V30 19726 S 1804.44 -3.93025 -1.95132 0
M  V30 19727 H 1801.26 -0.678007 -0.214074 0
M  V30 19728 H 1803.86 -1.95264 0.0960817 0
M  V30 19729 H 1802.56 -4.07602 -0.478395 0
M  V30 19730 H 1802.09 -3.36848 -2.03216 0
M  V30 19731 H 1804.11 -3.76676 -3.23001 0
M  V30 19732 N 1803.28 0.241399 -1.5574 0
M  V30 19733 C 1804.51 0.986075 -1.81891 0
M  V30 19734 C 1804.93 1.78734 -0.608254 0
M  V30 19735 O 1804.28 1.77527 0.423129 0
M  V30 19736 C 1804.33 1.91956 -3.06325 0
M  V30 19737 O 1804.05 1.15071 -4.22718 0
M  V30 19738 C 1805.56 2.77977 -3.45317 0
M  V30 19739 H 1802.78 0.289913 -0.605137 0
M  V30 19740 H 1805.32 0.262622 -2.02807 0
M  V30 19741 H 1803.47 2.59721 -2.87443 0
M  V30 19742 H 1803.89 1.78261 -4.93278 0
M  V30 19743 H 1805.36 3.39215 -4.35474 0
M  V30 19744 H 1805.84 3.49369 -2.66154 0
M  V30 19745 H 1806.45 2.15655 -3.66569 0
M  V30 19746 N 1804.76 1.49212 0.507292 0
M  V30 19747 C 1805.69 1.60013 1.62699 0
M  V30 19748 C 1806.67 0.449472 1.56264 0
M  V30 19749 O 1807.86 0.66417 1.76412 0
M  V30 19750 C 1804.98 1.54923 3.01192 0
M  V30 19751 C 1804.03 2.7511 3.2591 0
M  V30 19752 S 1804.86 4.3685 3.09714 0
M  V30 19753 C 1806.02 4.34395 4.50613 0
M  V30 19754 H 1806.25 2.54733 1.53291 0
M  V30 19755 H 1803.78 1.38025 0.69198 0
M  V30 19756 H 1805.74 1.52673 3.81053 0
M  V30 19757 H 1804.4 0.615015 3.0802 0
M  V30 19758 H 1803.6 2.6775 4.26996 0
M  V30 19759 H 1803.2 2.7474 2.5376 0
M  V30 19760 H 1805.49 4.05727 5.42579 0
M  V30 19761 H 1806.43 5.35738 4.63023 0
M  V30 19762 H 1806.84 3.64556 4.30998 0
M  V30 19763 N 1806.24 -0.757876 1.38181 0
M  V30 19764 C 1807.19 -1.8929 1.35174 0
M  V30 19765 C 1808.18 -1.67716 0.238284 0
M  V30 19766 O 1809.39 -1.75336 0.407085 0
M  V30 19767 H 1805.76 -0.622712 0.421585 0
M  V30 19768 H 1807.73 -1.88943 2.30961 0
M  V30 19769 C 1806.48 -3.26723 1.18942 0
M  V30 19770 H 1805.8 -3.43909 2.0388 0
M  V30 19771 H 1807.24 -4.06401 1.20891 0
M  V30 19772 C 1805.7 -3.3674 -0.103978 0
M  V30 19773 O 1806.23 -3.86838 -1.08256 0
M  V30 19774 N 1804.44 -2.90163 -0.159367 0
M  V30 19775 H 1803.99 -2.49583 0.637642 0
M  V30 19776 H 1803.94 -2.97245 -1.02435 0
M  V30 19777 N 1807.72 -1.22979 -0.985586 0
M  V30 19778 C 1808.96 -1.05877 -1.72616 0
M  V30 19779 C 1809.29 0.405097 -1.90235 0
M  V30 19780 O 1808.55 1.31642 -1.44807 0
M  V30 19781 C 1808.85 -1.72346 -3.131 0
M  V30 19782 C 1808.51 -3.22256 -3.15376 0
M  V30 19783 C 1807.17 -3.63159 -3.15704 0
M  V30 19784 C 1809.53 -4.18174 -3.11094 0
M  V30 19785 C 1806.85 -4.98448 -3.09461 0
M  V30 19786 C 1809.21 -5.53449 -3.06393 0
M  V30 19787 C 1807.87 -5.93722 -3.05041 0
M  V30 19788 H 1807.14 -0.38743 -0.631648 0
M  V30 19789 H 1809.79 -1.52842 -1.15375 0
M  V30 19790 H 1808.09 -1.17725 -3.73695 0
M  V30 19791 H 1809.79 -1.56595 -3.6916 0
M  V30 19792 H 1806.38 -2.89692 -3.15875 0
M  V30 19793 H 1810.56 -3.87586 -3.09985 0
M  V30 19794 H 1805.82 -5.28873 -3.06763 0
M  V30 19795 H 1809.99 -6.27492 -3.02037 0
M  V30 19796 H 1807.62 -6.98519 -2.99958 0
M  V30 19797 N 1809.19 1.18355 -1.04066 0
M  V30 19798 C 1810.13 2.21482 -0.58977 0
M  V30 19799 C 1811.14 1.59198 0.340576 0
M  V30 19800 O 1812.33 1.77988 0.135094 0
M  V30 19801 C 1809.43 3.3853 0.158397 0
M  V30 19802 C 1808.6 4.30392 -0.779824 0
M  V30 19803 C 1807.66 5.26147 -0.0749517 0
M  V30 19804 O 1806.69 5.64812 -0.705381 0
M  V30 19805 N 1807.89 5.68137 1.19168 0
M  V30 19806 H 1810.65 2.60791 -1.47676 0
M  V30 19807 H 1808.21 1.33141 -0.921151 0
M  V30 19808 H 1810.21 3.99611 0.639788 0
M  V30 19809 H 1808.78 2.97913 0.946929 0
M  V30 19810 H 1808 3.66915 -1.44107 0
M  V30 19811 H 1809.28 4.88668 -1.41707 0
M  V30 19812 H 1808.68 5.38777 1.7244 0
M  V30 19813 H 1807.24 6.31415 1.61735 0
M  V30 19814 N 1810.67 0.820125 1.3458 0
M  V30 19815 C 1811.62 0.22828 2.31477 0
M  V30 19816 C 1812.61 -0.629439 1.57272 0
M  V30 19817 O 1813.82 -0.521091 1.72292 0
M  V30 19818 H 1810.2 0.0550728 0.749981 0
M  V30 19819 H 1812.17 1.0604 2.78923 0
M  V30 19820 C 1810.92 -0.597495 3.42528 0
M  V30 19821 H 1810.24 0.0531749 3.99765 0
M  V30 19822 H 1811.68 -0.977765 4.12572 0
M  V30 19823 C 1810.14 -1.76868 2.86739 0
M  V30 19824 O 1810.67 -2.86674 2.81391 0
M  V30 19825 N 1808.87 -1.58453 2.436 0
M  V30 19826 H 1808.42 -0.691318 2.4815 0
M  V30 19827 H 1808.38 -2.36969 2.06624 0
M  V30 19828 N 1812.15 -1.46743 0.574835 0
M  V30 19829 C 1813.1 -2.31935 -0.175778 0
M  V30 19830 C 1814.09 -1.44005 -0.892128 0
M  V30 19831 O 1815.3 -1.60674 -0.81141 0
M  V30 19832 H 1811.67 -0.748195 -0.0755558 0
M  V30 19833 H 1813.64 -2.93066 0.561671 0
M  V30 19834 C 1812.39 -3.27018 -1.18128 0
M  V30 19835 H 1811.72 -3.94652 -0.639492 0
M  V30 19836 H 1813.16 -3.89424 -1.67704 0
M  V30 19837 C 1811.62 -2.51802 -2.23824 0
M  V30 19838 O 1812.15 -2.2753 -3.31048 0
M  V30 19839 N 1810.35 -2.12501 -1.98221 0
M  V30 19840 H 1809.9 -2.32441 -1.11035 0
M  V30 19841 H 1809.86 -1.62494 -2.69153 0
M  V30 19842 N 1813.63 -0.312197 -1.54477 0
M  V30 19843 C 1814.58 0.57453 -2.25393 0
M  V30 19844 C 1815.57 1.12789 -1.26392 0
M  V30 19845 O 1816.78 1.07724 -1.44207 0
M  V30 19846 H 1813.15 0.203904 -0.723828 0
M  V30 19847 H 1815.12 -0.0459918 -2.98365 0
M  V30 19848 C 1813.87 1.72942 -3.01639 0
M  V30 19849 H 1813.19 1.31286 -3.7763 0
M  V30 19850 H 1814.63 2.3257 -3.54524 0
M  V30 19851 C 1813.09 2.64026 -2.09266 0
M  V30 19852 O 1813.62 3.65431 -1.66803 0
M  V30 19853 N 1811.83 2.32007 -1.74989 0
M  V30 19854 H 1811.38 1.49588 -2.09717 0
M  V30 19855 H 1811.33 2.93213 -1.1346 0
M  V30 19856 N 1815.11 1.57549 -0.040136 0
M  V30 19857 C 1816.35 1.9187 0.634838 0
M  V30 19858 C 1816.68 0.918178 1.7203 0
M  V30 19859 O 1815.95 -0.0386563 1.95862 0
M  V30 19860 H 1814.53 0.708245 0.237483 0
M  V30 19861 H 1817.19 1.9469 -0.0905369 0
M  V30 19862 H 1816.28 2.92799 1.08053 0
M  V30 19863 N 1816.58 -0.233136 1.55866 0
M  V30 19864 C 1817.81 -0.980602 1.82754 0
M  V30 19865 C 1818.23 -1.77624 0.618988 0
M  V30 19866 O 1817.59 -1.76074 -0.432148 0
M  V30 19867 C 1817.64 -1.88319 3.07519 0
M  V30 19868 O 1816.74 -2.97692 2.85401 0
M  V30 19869 H 1816.09 -0.278295 0.602867 0
M  V30 19870 H 1818.62 -0.249956 2.03067 0
M  V30 19871 H 1818.63 -2.29523 3.37318 0
M  V30 19872 H 1817.3 -1.29831 3.95116 0
M  V30 19873 H 1815.88 -2.60517 2.66805 0
M  V30 19874 N 1818.06 -1.49479 -0.499372 0
M  V30 19875 C 1819.01 -1.66756 -1.62158 0
M  V30 19876 C 1820.01 -0.533485 -1.6078 0
M  V30 19877 O 1821.21 -0.713167 -1.65269 0
M  V30 19878 H 1817.59 -0.525853 -0.537571 0
M  V30 19879 H 1819.56 -2.60947 -1.44738 0
M  V30 19880 C 1818.31 -1.75287 -3.00283 0
M  V30 19881 H 1817.63 -2.61928 -3.02049 0
M  V30 19882 H 1819.07 -1.91411 -3.78336 0
M  V30 19883 C 1817.53 -0.498056 -3.33198 0
M  V30 19884 O 1818.06 0.375528 -3.99941 0
M  V30 19885 N 1816.26 -0.360513 -2.88355 0
M  V30 19886 H 1815.81 -1.0724 -2.34216 0
M  V30 19887 H 1815.77 0.477981 -3.10745 0
M  V30 19888 N 1819.54 0.750537 -1.38581 0
M  V30 19889 C 1820.79 1.50512 -1.34272 0
M  V30 19890 C 1821.1 1.95496 0.0636858 0
M  V30 19891 O 1822.31 2.7053 0.22932 0
M  V30 19892 C 1820.77 2.71891 -2.35803 0
M  V30 19893 C 1820.37 2.3392 -3.8208 0
M  V30 19894 C 1822.12 3.4977 -2.40543 0
M  V30 19895 C 1820.02 3.51928 -4.7529 0
M  V30 19896 H 1818.95 0.56515 -0.49912 0
M  V30 19897 H 1821.61 0.820167 -1.64151 0
M  V30 19898 H 1819.99 3.42383 -1.98972 0
M  V30 19899 H 1821.16 1.71075 -4.27867 0
M  V30 19900 H 1819.48 1.69168 -3.80488 0
M  V30 19901 H 1822.07 4.37519 -3.07379 0
M  V30 19902 H 1822.42 3.91141 -1.42527 0
M  V30 19903 H 1822.95 2.86294 -2.76189 0
M  V30 19904 H 1819.69 3.15621 -5.74512 0
M  V30 19905 H 1819.21 4.13807 -4.34194 0
M  V30 19906 H 1820.89 4.1847 -4.93449 0
M  V30 19907 N 1821.02 1.235 0.979051 0
M  V30 19908 C 1822.27 1.0658 1.71713 0
M  V30 19909 C 1822.59 -0.397927 1.90897 0
M  V30 19910 O 1821.86 -1.28511 1.47857 0
M  V30 19911 H 1820.44 0.391397 0.636253 0
M  V30 19912 H 1823.1 1.55239 1.17843 0
M  V30 19913 H 1822.2 1.5548 2.70615 0
M  V30 19914 N 1822.5 -1.17802 1.04693 0
M  V30 19915 C 1823.43 -2.23847 0.664448 0
M  V30 19916 C 1824.41 -1.66761 -0.335356 0
M  V30 19917 O 1825.59 -1.93017 -0.214062 0
M  V30 19918 C 1822.72 -3.47284 0.0331587 0
M  V30 19919 C 1821.68 -4.1716 0.95718 0
M  V30 19920 C 1821 -5.34362 0.190034 0
M  V30 19921 C 1822.3 -4.69951 2.2791 0
M  V30 19922 H 1824 -2.56095 1.55099 0
M  V30 19923 H 1821.54 -1.23097 0.747196 0
M  V30 19924 H 1823.5 -4.2068 -0.246178 0
M  V30 19925 H 1822.22 -3.14288 -0.888294 0
M  V30 19926 H 1820.88 -3.45669 1.221 0
M  V30 19927 H 1820.53 -4.97615 -0.734025 0
M  V30 19928 H 1820.23 -5.8205 0.805684 0
M  V30 19929 H 1821.75 -6.10545 -0.0821372 0
M  V30 19930 H 1823.17 -5.3501 2.06003 0
M  V30 19931 H 1821.56 -5.28198 2.84828 0
M  V30 19932 H 1822.63 -3.87032 2.9212 0
M  V30 19933 N 1823.98 -0.827251 -1.34143 0
M  V30 19934 C 1824.91 -0.267015 -2.31968 0
M  V30 19935 C 1825.89 0.618906 -1.58441 0
M  V30 19936 O 1827.07 0.544882 -1.86399 0
M  V30 19937 C 1824.2 0.568379 -3.42617 0
M  V30 19938 C 1823.16 -0.220767 -4.2743 0
M  V30 19939 C 1822.48 0.737643 -5.29587 0
M  V30 19940 C 1823.78 -1.43137 -5.02304 0
M  V30 19941 H 1825.48 -1.08436 -2.79073 0
M  V30 19942 H 1823.02 -0.522879 -1.34171 0
M  V30 19943 H 1824.97 0.970525 -4.10072 0
M  V30 19944 H 1823.7 1.41882 -2.94172 0
M  V30 19945 H 1822.36 -0.604333 -3.61585 0
M  V30 19946 H 1822.01 1.58416 -4.77403 0
M  V30 19947 H 1821.71 0.213815 -5.87211 0
M  V30 19948 H 1823.23 1.13755 -5.9991 0
M  V30 19949 H 1824.64 -1.10301 -5.62589 0
M  V30 19950 H 1823.04 -1.89115 -5.69522 0
M  V30 19951 H 1824.11 -2.2073 -4.31748 0
M  V30 19952 N 1825.45 1.46436 -0.582609 0
M  V30 19953 C 1826.7 2.01986 -0.0680147 0
M  V30 19954 C 1827.02 1.45654 1.29653 0
M  V30 19955 O 1826.29 0.641203 1.85109 0
M  V30 19956 H 1824.87 0.746671 -0.022153 0
M  V30 19957 H 1827.53 1.79541 -0.758367 0
M  V30 19958 H 1826.63 3.121 0.00106001 0
M  V30 19959 N 1826.93 0.320385 1.54309 0
M  V30 19960 C 1828.18 -0.283143 2.00511 0
M  V30 19961 C 1828.51 -1.52391 1.2086 0
M  V30 19962 O 1827.76 -1.93716 0.277955 0
M  V30 19963 C 1828.06 -0.665444 3.5115 0
M  V30 19964 C 1827.73 0.475789 4.48383 0
M  V30 19965 C 1826.39 0.789037 4.74687 0
M  V30 19966 C 1828.74 1.24253 5.06172 0
M  V30 19967 C 1826.07 1.87181 5.5604 0
M  V30 19968 C 1828.42 2.31537 5.88705 0
M  V30 19969 C 1827.08 2.63447 6.13312 0
M  V30 19970 H 1826.35 -0.103609 0.733721 0
M  V30 19971 H 1829 0.443504 1.86294 0
M  V30 19972 H 1827.31 -1.47247 3.63078 0
M  V30 19973 H 1829 -1.14391 3.84338 0
M  V30 19974 H 1825.59 0.221559 4.28027 0
M  V30 19975 H 1829.78 1.01379 4.85835 0
M  V30 19976 H 1825.03 2.12354 5.73337 0
M  V30 19977 H 1829.21 2.91395 6.32504 0
M  V30 19978 H 1826.83 3.47477 6.76139 0
M  V30 19979 N 1828.41 -1.57525 0.0484906 0
M  V30 19980 C 1829.36 -2.07883 -0.936407 0
M  V30 19981 C 1830.34 -0.983413 -1.27349 0
M  V30 19982 O 1831.54 -1.24678 -1.25636 0
M  V30 19983 C 1828.66 -2.6252 -2.2122 0
M  V30 19984 C 1827.75 -3.79027 -1.90262 0
M  V30 19985 N 1828.14 -4.889 -1.29653 0
M  V30 19986 C 1826.44 -3.87881 -2.20147 0
M  V30 19987 C 1827.14 -5.69963 -1.16265 0
M  V30 19988 N 1826.12 -5.17485 -1.66465 0
M  V30 19989 H 1829.92 -2.90229 -0.463091 0
M  V30 19990 H 1827.43 -1.61649 -0.156032 0
M  V30 19991 H 1829.43 -2.96899 -2.92671 0
M  V30 19992 H 1828.09 -1.81612 -2.6916 0
M  V30 19993 H 1829.1 -5.08753 -0.969081 0
M  V30 19994 H 1825.78 -3.17911 -2.70626 0
M  V30 19995 H 1827.17 -6.68323 -0.692351 0
M  V30 19996 N 1829.89 0.224867 -1.55988 0
M  V30 19997 C 1831.11 0.970897 -1.83271 0
M  V30 19998 C 1831.54 1.77293 -0.628399 0
M  V30 19999 O 1830.9 1.76301 0.422804 0
M  V30 20000 C 1830.94 1.86686 -3.08514 0
M  V30 20001 O 1830.05 2.96174 -2.86975 0
M  V30 20002 H 1829.39 0.275093 -0.604334 0
M  V30 20003 H 1831.92 0.239183 -2.03197 0
M  V30 20004 H 1831.93 2.27731 -3.3853 0
M  V30 20005 H 1830.6 1.27733 -3.95799 0
M  V30 20006 H 1829.18 2.59099 -2.68183 0
M  V30 20007 N 1831.37 1.49742 0.491438 0
M  V30 20008 C 1832.31 1.67614 1.61271 0
M  V30 20009 C 1833.31 0.542004 1.60495 0
M  V30 20010 O 1834.51 0.721922 1.64889 0
M  V30 20011 H 1830.89 0.528696 0.534775 0
M  V30 20012 H 1832.86 2.61711 1.43352 0
M  V30 20013 C 1831.61 1.76877 2.99349 0
M  V30 20014 H 1830.93 2.63526 3.00656 0
M  V30 20015 H 1832.37 1.93414 3.77315 0
M  V30 20016 C 1830.83 0.515719 3.32929 0
M  V30 20017 O 1831.36 -0.354312 4.00134 0
M  V30 20018 N 1829.57 0.3758 2.8816 0
M  V30 20019 H 1829.11 1.08481 2.33644 0
M  V30 20020 H 1829.07 -0.461494 3.10995 0
M  V30 20021 N 1832.84 -0.743177 1.38977 0
M  V30 20022 C 1833.79 -1.87846 1.37174 0
M  V30 20023 C 1834.79 -1.67454 0.256059 0
M  V30 20024 O 1835.99 -1.74895 0.425658 0
M  V30 20025 H 1832.37 -0.618206 0.428166 0
M  V30 20026 H 1834.34 -1.86483 2.32952 0
M  V30 20027 C 1833.09 -3.25443 1.22401 0
M  V30 20028 H 1832.41 -3.41727 2.07516 0
M  V30 20029 H 1833.85 -4.05095 1.25195 0
M  V30 20030 C 1832.31 -3.36831 -0.0682569 0
M  V30 20031 O 1832.84 -3.87964 -1.04147 0
M  V30 20032 N 1831.05 -2.90315 -0.128582 0
M  V30 20033 H 1830.59 -2.48893 0.664077 0
M  V30 20034 H 1830.55 -2.98315 -0.992762 0
M  V30 20035 N 1834.32 -1.24018 -0.972487 0
M  V30 20036 C 1835.25 -1.0529 -2.08414 0
M  V30 20037 C 1836.23 0.0326663 -1.70069 0
M  V30 20038 O 1837.42 -0.133494 -1.93741 0
M  V30 20039 C 1834.55 -0.651796 -3.41129 0
M  V30 20040 C 1833.5 -1.68559 -3.9341 0
M  V30 20041 C 1832.83 -1.1397 -5.22413 0
M  V30 20042 C 1834.13 -3.08046 -4.21788 0
M  V30 20043 H 1835.82 -1.98272 -2.2434 0
M  V30 20044 H 1833.37 -0.954694 -1.07804 0
M  V30 20045 H 1835.32 -0.507792 -4.18329 0
M  V30 20046 H 1834.05 0.313722 -3.2509 0
M  V30 20047 H 1832.7 -1.81773 -3.18362 0
M  V30 20048 H 1832.35 -0.164928 -5.0273 0
M  V30 20049 H 1832.05 -1.83051 -5.5836 0
M  V30 20050 H 1833.58 -1.00771 -6.02227 0
M  V30 20051 H 1834.99 -2.98088 -4.8971 0
M  V30 20052 H 1833.39 -3.74436 -4.68954 0
M  V30 20053 H 1834.46 -3.56444 -3.28749 0
M  V30 20054 N 1835.8 1.17245 -1.05316 0
M  V30 20055 C 1837.05 1.87813 -0.765112 0
M  V30 20056 C 1837.38 1.80907 0.706147 0
M  V30 20057 O 1836.65 1.21793 1.51647 0
M  V30 20058 C 1836.94 3.3779 -1.24779 0
M  V30 20059 C 1836.79 3.53441 -2.78208 0
M  V30 20060 C 1838.11 4.31857 -0.847805 0
M  V30 20061 H 1835.23 0.681979 -0.279415 0
M  V30 20062 H 1837.87 1.37869 -1.30737 0
M  V30 20063 H 1836.02 3.80456 -0.786487 0
M  V30 20064 H 1837.69 3.19782 -3.32472 0
M  V30 20065 H 1835.94 2.95678 -3.17423 0
M  V30 20066 H 1836.61 4.58725 -3.07043 0
M  V30 20067 H 1839.08 3.97039 -1.24496 0
M  V30 20068 H 1837.96 5.35326 -1.21313 0
M  V30 20069 H 1838.22 4.41403 0.248104 0
M  V30 20070 N 1837.28 0.834353 1.33702 0
M  V30 20071 C 1838.24 0.269618 2.27609 0
M  V30 20072 C 1839.24 -0.559065 1.50768 0
M  V30 20073 O 1840.43 -0.373511 1.70149 0
M  V30 20074 C 1837.56 -0.620682 3.35202 0
M  V30 20075 H 1838.76 1.09819 2.79069 0
M  V30 20076 H 1836.31 0.607087 1.44028 0
M  V30 20077 H 1837.04 -1.47187 2.88975 0
M  V30 20078 H 1836.83 -0.0278102 3.9209 0
M  V30 20079 H 1838.32 -1.00924 4.05221 0
M  V30 20080 N 1838.76 -1.46125 0.590367 0
M  V30 20081 C 1839.98 -2.07234 0.0828625 0
M  V30 20082 C 1840.41 -1.43498 -1.21614 0
M  V30 20083 O 1839.76 -0.521488 -1.73638 0
M  V30 20084 C 1839.81 -3.60548 -0.0614302 0
M  V30 20085 O 1838.92 -3.97012 -1.11603 0
M  V30 20086 H 1838.26 -0.660685 0.0662654 0
M  V30 20087 H 1840.79 -1.87646 0.815486 0
M  V30 20088 H 1840.8 -4.07137 -0.265161 0
M  V30 20089 H 1839.47 -4.06328 0.887164 0
M  V30 20090 H 1838.05 -3.6212 -0.890146 0
M  V30 20091 N 1840.23 -0.328564 -1.54137 0
M  V30 20092 C 1841.46 0.277044 -2.05541 0
M  V30 20093 C 1841.88 1.44613 -1.20285 0
M  V30 20094 O 1841.24 1.80043 -0.213107 0
M  V30 20095 C 1841.29 0.684495 -3.54044 0
M  V30 20096 O 1840.39 1.78629 -3.71706 0
M  V30 20097 H 1839.74 0.049078 -0.662184 0
M  V30 20098 H 1842.27 -0.478426 -1.98928 0
M  V30 20099 H 1842.28 0.965784 -3.96405 0
M  V30 20100 H 1840.95 -0.170554 -4.1555 0
M  V30 20101 H 1839.53 1.50343 -3.4125 0
M  V30 20102 N 1841.71 1.57497 -0.0568439 0
M  V30 20103 C 1842.96 1.94017 0.610648 0
M  V30 20104 C 1843.31 0.935679 1.68115 0
M  V30 20105 O 1842.61 -0.0443081 1.91549 0
M  V30 20106 C 1842.8 3.35 1.24538 0
M  V30 20107 C 1842.63 4.4907 0.237887 0
M  V30 20108 C 1841.4 5.05007 -0.172154 0
M  V30 20109 C 1843.6 5.11675 -0.518951 0
M  V30 20110 N 1841.58 6.0261 -1.17192 0
M  V30 20111 C 1842.95 6.04637 -1.37163 0
M  V30 20112 C 1845.01 4.94549 -0.576647 0
M  V30 20113 C 1843.71 6.82314 -2.27685 0
M  V30 20114 C 1845.73 5.72857 -1.46931 0
M  V30 20115 C 1845.1 6.65456 -2.3097 0
M  V30 20116 H 1841.2 0.757316 0.194927 0
M  V30 20117 H 1843.78 1.94262 -0.1305 0
M  V30 20118 H 1841.95 3.35521 1.95653 0
M  V30 20119 H 1843.68 3.58794 1.87214 0
M  V30 20120 H 1840.44 4.73143 0.207956 0
M  V30 20121 H 1840.86 6.56108 -1.66886 0
M  V30 20122 H 1845.5 4.22759 0.0588676 0
M  V30 20123 H 1843.22 7.53391 -2.92279 0
M  V30 20124 H 1846.81 5.61631 -1.5186 0
M  V30 20125 H 1845.69 7.24992 -2.98924 0
M  V30 20126 N 1843.19 -0.216591 1.56105 0
M  V30 20127 C 1844.42 -0.955625 1.8317 0
M  V30 20128 C 1844.83 -1.78247 0.634397 0
M  V30 20129 O 1844.17 -1.79148 -0.406391 0
M  V30 20130 C 1844.23 -1.91834 3.04039 0
M  V30 20131 C 1843.9 -1.27553 4.38838 0
M  V30 20132 C 1844.89 -0.662972 5.15656 0
M  V30 20133 C 1842.58 -1.28582 4.85564 0
M  V30 20134 C 1844.57 -0.0692674 6.37362 0
M  V30 20135 C 1842.26 -0.688269 6.07212 0
M  V30 20136 C 1843.26 -0.0810524 6.82952 0
M  V30 20137 O 1842.95 0.507186 8.02298 0
M  V30 20138 H 1842.68 -0.285405 0.612797 0
M  V30 20139 H 1845.23 -0.235419 2.04046 0
M  V30 20140 H 1843.46 -2.67767 2.78994 0
M  V30 20141 H 1845.15 -2.52334 3.17934 0
M  V30 20142 H 1845.92 -0.647319 4.80661 0
M  V30 20143 H 1841.8 -1.74784 4.26581 0
M  V30 20144 H 1845.34 0.405305 6.96422 0
M  V30 20145 H 1841.24 -0.701352 6.41679 0
M  V30 20146 H 1842.01 0.401989 8.17512 0
M  V30 20147 N 1844.67 -1.5 -0.48349 0
M  V30 20148 C 1845.9 -1.63867 -1.25821 0
M  V30 20149 C 1846.31 -0.316335 -1.86537 0
M  V30 20150 O 1845.65 0.710307 -1.69412 0
M  V30 20151 C 1845.71 -2.66251 -2.41559 0
M  V30 20152 C 1845.38 -4.10141 -2.01577 0
M  V30 20153 C 1846.37 -4.964 -1.5454 0
M  V30 20154 C 1844.06 -4.55983 -2.10677 0
M  V30 20155 C 1846.05 -6.26546 -1.17129 0
M  V30 20156 C 1843.74 -5.86137 -1.72877 0
M  V30 20157 C 1844.74 -6.71243 -1.2618 0
M  V30 20158 O 1844.42 -7.98969 -0.888988 0
M  V30 20159 H 1844.16 -0.554155 -0.387154 0
M  V30 20160 H 1846.71 -1.96893 -0.585005 0
M  V30 20161 H 1844.94 -2.28442 -3.12011 0
M  V30 20162 H 1846.63 -2.69466 -3.03551 0
M  V30 20163 H 1847.4 -4.62205 -1.46942 0
M  V30 20164 H 1843.27 -3.89895 -2.45974 0
M  V30 20165 H 1846.82 -6.92927 -0.806093 0
M  V30 20166 H 1842.72 -6.19857 -1.80131 0
M  V30 20167 H 1843.48 -8.12133 -1.01893 0
M  V30 20168 N 1846.15 0.735796 -1.39369 0
M  V30 20169 C 1847.09 1.87116 -1.38168 0
M  V30 20170 C 1848.09 1.67315 -0.264936 0
M  V30 20171 O 1849.29 1.74666 -0.434928 0
M  V30 20172 H 1845.67 0.615926 -0.431438 0
M  V30 20173 H 1847.64 1.85245 -2.33938 0
M  V30 20174 C 1846.39 3.2479 -1.24125 0
M  V30 20175 H 1845.71 3.40621 -2.09325 0
M  V30 20176 H 1847.15 4.04426 -1.27341 0
M  V30 20177 C 1845.61 3.36862 0.050393 0
M  V30 20178 O 1846.14 3.88511 1.02088 0
M  V30 20179 N 1844.35 2.90379 0.113184 0
M  V30 20180 H 1843.89 2.48537 -0.677267 0
M  V30 20181 H 1843.85 2.98837 0.976928 0
M  V30 20182 N 1847.63 1.24532 0.965897 0
M  V30 20183 C 1848.57 1.03699 2.08205 0
M  V30 20184 C 1849.57 -0.0286308 1.69376 0
M  V30 20185 O 1850.77 0.126073 1.79558 0
M  V30 20186 H 1847.15 0.318331 0.6813 0
M  V30 20187 H 1849.12 1.98348 2.22937 0
M  V30 20188 C 1847.87 0.660411 3.41371 0
M  V30 20189 H 1847.19 1.47216 3.71709 0
M  V30 20190 H 1848.63 0.554264 4.20362 0
M  V30 20191 C 1847.09 -0.632633 3.30907 0
M  V30 20192 O 1847.62 -1.67786 3.6498 0
M  V30 20193 N 1845.83 -0.61403 2.84039 0
M  V30 20194 H 1845.37 0.236909 2.56508 0
M  V30 20195 H 1845.33 -1.47938 2.7742 0
M  V30 20196 N 1849.1 -1.16685 1.05936 0
M  V30 20197 C 1850.35 -1.86466 0.768993 0
M  V30 20198 C 1850.67 -1.82374 -0.707038 0
M  V30 20199 O 1851.87 -2.47699 -1.11164 0
M  V30 20200 C 1850.33 -3.34605 1.32543 0
M  V30 20201 C 1849.94 -3.47179 2.83144 0
M  V30 20202 C 1851.68 -4.09665 1.11244 0
M  V30 20203 C 1849.59 -4.89384 3.3205 0
M  V30 20204 H 1848.52 -0.698479 0.283978 0
M  V30 20205 H 1851.17 -1.31717 1.27761 0
M  V30 20206 H 1849.55 -3.88937 0.744592 0
M  V30 20207 H 1850.72 -3.03027 3.47148 0
M  V30 20208 H 1849.04 -2.85549 3.03069 0
M  V30 20209 H 1851.64 -5.14586 1.45276 0
M  V30 20210 H 1851.98 -4.16269 0.0505969 0
M  V30 20211 H 1852.51 -3.61561 1.65887 0
M  V30 20212 H 1849.25 -4.87957 4.37697 0
M  V30 20213 H 1848.77 -5.34176 2.72793 0
M  V30 20214 H 1850.45 -5.58186 3.27166 0
M  V30 20215 N 1850.58 -0.841432 -1.33258 0
M  V30 20216 C 1852 -0.529552 -1.50559 0
M  V30 20217 C 1852.2 0.942598 -1.78094 0
M  V30 20218 O 1851.25 1.72628 -1.84271 0
M  V30 20219 C 1852.57 -1.40511 -2.65852 0
M  V30 20220 C 1854.11 -1.40415 -2.79737 0
M  V30 20221 C 1854.59 -2.26462 -3.98094 0
M  V30 20222 N 1856.08 -2.24185 -4.05334 0
M  V30 20223 C 1856.82 -2.875 -4.96116 0
M  V30 20224 N 1856.31 -3.59877 -5.91997 0
M  V30 20225 N 1858.1 -2.76957 -4.89133 0
M  V30 20226 H 1850.26 -1.79438 -1.13648 0
M  V30 20227 H 1852.52 -0.765683 -0.558958 0
M  V30 20228 H 1852.22 -2.45136 -2.52193 0
M  V30 20229 H 1852.1 -1.08299 -3.61319 0
M  V30 20230 H 1854.49 -0.365604 -2.92826 0
M  V30 20231 H 1854.57 -1.76636 -1.85023 0
M  V30 20232 H 1854.21 -3.30377 -3.85764 0
M  V30 20233 H 1854.14 -1.87581 -4.92058 0
M  V30 20234 H 1856.63 -1.71553 -3.36716 0
M  V30 20235 H 1856.94 -4.05388 -6.57936 0
M  V30 20236 H 1855.29 -3.63985 -5.92064 0
M  V30 20237 H 1858.48 -2.19974 -4.13194 0
M  V30 20238 H 1858.65 -3.26585 -5.59684 0
M  V30 20239 N 1852.06 1.4581 -0.598108 0
M  V30 20240 C 1853.48 1.57452 -0.260993 0
M  V30 20241 C 1853.68 1.59093 1.2366 0
M  V30 20242 O 1852.73 1.51614 2.01915 0
M  V30 20243 C 1854.04 2.86158 -0.923801 0
M  V30 20244 C 1855.59 2.99817 -0.89883 0
M  V30 20245 C 1856.07 4.3128 -1.54147 0
M  V30 20246 N 1857.56 4.38016 -1.50652 0
M  V30 20247 C 1858.29 5.38387 -1.973 0
M  V30 20248 N 1857.79 6.45347 -2.51991 0
M  V30 20249 N 1859.58 5.29684 -1.88124 0
M  V30 20250 H 1851.73 1.42988 -1.57061 0
M  V30 20251 H 1854 0.683038 -0.657391 0
M  V30 20252 H 1853.7 2.90812 -1.97791 0
M  V30 20253 H 1853.58 3.74609 -0.441318 0
M  V30 20254 H 1855.96 2.94735 0.146702 0
M  V30 20255 H 1856.04 2.12801 -1.41949 0
M  V30 20256 H 1855.69 4.3712 -2.58628 0
M  V30 20257 H 1855.62 5.17097 -0.995911 0
M  V30 20258 H 1858.11 3.61326 -1.1069 0
M  V30 20259 H 1858.42 7.18168 -2.85403 0
M  V30 20260 H 1856.77 6.46124 -2.56025 0
M  V30 20261 H 1859.96 4.45029 -1.45144 0
M  V30 20262 H 1860.13 6.0776 -2.24793 0
M  V30 20263 N 1853.54 0.336733 1.53961 0
M  V30 20264 C 1854.49 -0.538599 2.26278 0
M  V30 20265 C 1855.48 -1.10764 1.2817 0
M  V30 20266 O 1856.69 -1.05416 1.45902 0
M  V30 20267 H 1853.06 -0.192363 0.72698 0
M  V30 20268 H 1855.03 0.0934532 2.98254 0
M  V30 20269 C 1853.78 -1.68121 3.04353 0
M  V30 20270 H 1853.1 -1.25261 3.7967 0
M  V30 20271 H 1854.54 -2.26901 3.58179 0
M  V30 20272 C 1853 -2.60663 2.13439 0
M  V30 20273 O 1853.53 -3.62731 1.72596 0
M  V30 20274 N 1851.74 -2.29194 1.78658 0
M  V30 20275 H 1851.29 -1.46233 2.1207 0
M  V30 20276 H 1851.24 -2.91371 1.18111 0
M  V30 20277 N 1855.02 -1.57465 0.0651956 0
M  V30 20278 C 1856.24 -1.9756 -0.614633 0
M  V30 20279 C 1856.66 -0.943308 -1.63546 0
M  V30 20280 O 1856.02 0.0708362 -1.82362 0
M  V30 20281 C 1856.07 -3.37735 -1.28909 0
M  V30 20282 O 1855.79 -4.37008 -0.309131 0
M  V30 20283 C 1857.29 -3.92667 -2.05736 0
M  V30 20284 H 1854.51 -0.64987 -0.167061 0
M  V30 20285 H 1857.05 -2.0405 0.135647 0
M  V30 20286 H 1855.21 -3.32352 -1.9905 0
M  V30 20287 H 1855.62 -5.18483 -0.792206 0
M  V30 20288 H 1857.1 -4.92988 -2.48329 0
M  V30 20289 H 1857.57 -3.28851 -2.91124 0
M  V30 20290 H 1858.18 -4.01431 -1.40476 0
M  V30 20291 N 1856.49 0.20831 -1.56217 0
M  V30 20292 C 1857.72 0.951404 -1.84291 0
M  V30 20293 C 1858.14 1.76616 -0.647168 0
M  V30 20294 O 1857.5 1.7674 0.404081 0
M  V30 20295 C 1857.55 1.83403 -3.10477 0
M  V30 20296 O 1856.65 2.93113 -2.90101 0
M  V30 20297 H 1855.99 0.268668 -0.607218 0
M  V30 20298 H 1858.52 0.217618 -2.03439 0
M  V30 20299 H 1858.53 2.24127 -3.40927 0
M  V30 20300 H 1857.21 1.23528 -3.97132 0
M  V30 20301 H 1855.79 2.5624 -2.70916 0
M  V30 20302 N 1857.97 1.50255 0.475528 0
M  V30 20303 C 1859.2 1.65044 1.25599 0
M  V30 20304 C 1859.62 0.331736 1.85152 0
M  V30 20305 O 1858.98 -0.703863 1.67079 0
M  V30 20306 C 1859.03 2.7405 2.34369 0
M  V30 20307 O 1858.13 2.34994 3.38897 0
M  V30 20308 H 1857.47 0.551557 0.369704 0
M  V30 20309 H 1860 1.96603 0.566422 0
M  V30 20310 H 1860.01 2.96993 2.79749 0
M  V30 20311 H 1858.69 3.6976 1.90395 0
M  V30 20312 H 1857.26 2.22481 2.9926 0
M  V30 20313 N 1859.45 -0.728395 1.39758 0
M  V30 20314 C 1860.4 -1.8638 1.39158 0
M  V30 20315 C 1861.39 -1.67173 0.273806 0
M  V30 20316 O 1862.6 -1.74433 0.444184 0
M  V30 20317 H 1858.97 -0.61363 0.434698 0
M  V30 20318 H 1860.94 -1.84002 2.34917 0
M  V30 20319 C 1859.69 -3.24127 1.25845 0
M  V30 20320 H 1859.02 -3.39507 2.11129 0
M  V30 20321 H 1860.46 -4.03745 1.29484 0
M  V30 20322 C 1858.91 -3.36884 -0.0325277 0
M  V30 20323 O 1859.44 -3.89047 -1.00026 0
M  V30 20324 N 1857.65 -2.90435 -0.0977834 0
M  V30 20325 H 1857.2 -2.48175 0.690438 0
M  V30 20326 H 1857.16 -2.99351 -0.961066 0
M  V30 20327 N 1860.93 -1.25042 -0.959279 0
M  V30 20328 C 1862.18 -1.09298 -1.69995 0
M  V30 20329 C 1862.5 0.367507 -1.91506 0
M  V30 20330 O 1861.77 1.26142 -1.49883 0
M  V30 20331 H 1860.35 -0.401469 -0.629945 0
M  V30 20332 H 1863.01 -1.57094 -1.15358 0
M  V30 20333 H 1862.1 -1.59766 -2.68107 0
M  V30 20334 N 1862.41 1.16121 -1.06553 0
M  V30 20335 C 1863.65 1.88387 -0.793066 0
M  V30 20336 C 1864.01 1.79992 0.66835 0
M  V30 20337 O 1865.21 2.47209 1.05552 0
M  V30 20338 C 1863.48 3.33797 -1.27726 0
M  V30 20339 S 1865.04 4.23887 -1.13425 0
M  V30 20340 H 1861.86 0.650229 -0.287616 0
M  V30 20341 H 1864.46 1.40153 -1.36299 0
M  V30 20342 H 1863.17 3.37448 -2.33574 0
M  V30 20343 H 1862.7 3.87082 -0.702203 0
M  V30 20344 H 1864.71 4.96155 -0.0667742 0
M  V30 20345 N 1863.88 0.848487 1.3281 0
M  V30 20346 C 1865.13 0.448856 1.97463 0
M  V30 20347 C 1865.46 -0.994126 1.67175 0
M  V30 20348 O 1864.71 -1.71147 0.949054 0
M  V30 20349 C 1865.01 0.62759 3.51847 0
M  V30 20350 C 1864.68 2.04011 4.02107 0
M  V30 20351 C 1863.34 2.42645 4.15544 0
M  V30 20352 C 1865.69 2.9623 4.28832 0
M  V30 20353 C 1863.02 3.72783 4.53045 0
M  V30 20354 C 1865.37 4.2586 4.67789 0
M  V30 20355 C 1864.04 4.64437 4.79431 0
M  V30 20356 H 1863.31 0.164248 0.722567 0
M  V30 20357 H 1865.95 1.07736 1.5832 0
M  V30 20358 H 1864.26 -0.0841763 3.9171 0
M  V30 20359 H 1865.96 0.298524 3.99887 0
M  V30 20360 H 1862.55 1.73009 3.9213 0
M  V30 20361 H 1866.73 2.67616 4.17966 0
M  V30 20362 H 1861.99 4.02464 4.60253 0
M  V30 20363 H 1866.16 4.97385 4.87423 0
M  V30 20364 H 1863.79 5.65323 5.08246 0
M  V30 20365 N 1865.36 -1.4549 0.605832 0
M  V30 20366 C 1866.61 -2.03108 0.10891 0
M  V30 20367 C 1866.96 -1.46605 -1.24598 0
M  V30 20368 O 1866.26 -0.630585 -1.80926 0
M  V30 20369 C 1866.45 -3.57399 0.00918576 0
M  V30 20370 C 1866.28 -4.28868 1.35286 0
M  V30 20371 C 1865.05 -4.66861 1.9331 0
M  V30 20372 C 1867.25 -4.60938 2.28124 0
M  V30 20373 N 1865.23 -5.23182 3.21176 0
M  V30 20374 C 1866.6 -5.18073 3.40589 0
M  V30 20375 C 1868.66 -4.42877 2.27518 0
M  V30 20376 C 1867.36 -5.5905 4.5261 0
M  V30 20377 C 1869.38 -4.84885 3.38585 0
M  V30 20378 C 1868.75 -5.42111 4.49772 0
M  V30 20379 H 1864.85 -0.777564 0.0831802 0
M  V30 20380 H 1867.43 -1.77333 0.8038 0
M  V30 20381 H 1865.6 -3.82839 -0.654922 0
M  V30 20382 H 1867.33 -4.01671 -0.494237 0
M  V30 20383 H 1864.09 -4.5036 1.46536 0
M  V30 20384 H 1864.51 -5.55842 3.86482 0
M  V30 20385 H 1869.15 -3.97948 1.42819 0
M  V30 20386 H 1866.87 -6.02945 5.38036 0
M  V30 20387 H 1870.46 -4.72644 3.39262 0
M  V30 20388 H 1869.34 -5.7402 5.34294 0
M  V30 20389 N 1866.84 -0.344893 -1.5378 0
M  V30 20390 C 1868.07 0.255228 -2.05824 0
M  V30 20391 C 1868.49 1.43329 -1.21812 0
M  V30 20392 O 1867.85 1.79807 -0.232191 0
M  V30 20393 C 1867.9 0.646906 -3.5475 0
M  V30 20394 O 1867 1.74677 -3.7358 0
M  V30 20395 H 1866.34 0.0420518 -0.662667 0
M  V30 20396 H 1868.87 -0.499498 -1.98409 0
M  V30 20397 H 1868.88 0.923686 -3.97407 0
M  V30 20398 H 1867.56 -0.214619 -4.15346 0
M  V30 20399 H 1866.13 1.46715 -3.42825 0
M  V30 20400 N 1868.32 1.57428 -0.0735454 0
M  V30 20401 C 1869.54 1.98301 0.607591 0
M  V30 20402 C 1869.97 0.951686 1.62248 0
M  V30 20403 O 1869.33 -0.0825008 1.81112 0
M  V30 20404 C 1869.37 3.38201 1.2511 0
M  V30 20405 O 1868.48 3.37711 2.36696 0
M  V30 20406 H 1867.82 0.64539 0.156104 0
M  V30 20407 H 1870.35 2.0406 -0.148578 0
M  V30 20408 H 1870.36 3.75424 1.59753 0
M  V30 20409 H 1869.03 4.12793 0.50745 0
M  V30 20410 H 1867.61 3.1226 2.03833 0
M  V30 20411 N 1869.8 -0.200022 1.56326 0
M  V30 20412 C 1871.05 -0.919331 1.7953 0
M  V30 20413 C 1871.36 -1.84628 0.645908 0
M  V30 20414 O 1872.56 -2.60584 0.762132 0
M  V30 20415 C 1871.02 -1.68508 3.18014 0
M  V30 20416 C 1870.63 -0.803202 4.40741 0
M  V30 20417 C 1872.37 -2.39432 3.50532 0
M  V30 20418 C 1870.28 -1.56753 5.70248 0
M  V30 20419 H 1869.21 -0.347018 0.669399 0
M  V30 20420 H 1871.86 -0.172713 1.82685 0
M  V30 20421 H 1870.24 -2.4754 3.09095 0
M  V30 20422 H 1871.42 -0.0518889 4.60771 0
M  V30 20423 H 1869.73 -0.205039 4.15895 0
M  V30 20424 H 1872.33 -2.97158 4.44524 0
M  V30 20425 H 1872.67 -3.13378 2.74043 0
M  V30 20426 H 1873.2 -1.6737 3.60877 0
M  V30 20427 H 1869.94 -0.870942 6.49688 0
M  V30 20428 H 1869.46 -2.29291 5.54243 0
M  V30 20429 H 1871.14 -2.12262 6.11191 0
M  V30 20430 N 1871.27 -1.50505 -0.467553 0
M  V30 20431 C 1872.5 -1.65708 -1.24722 0
M  V30 20432 C 1872.92 -0.34155 -1.84973 0
M  V30 20433 O 1872.28 0.694993 -1.6745 0
M  V30 20434 C 1872.33 -2.75289 -2.32912 0
M  V30 20435 O 1871.43 -2.36788 -3.37646 0
M  V30 20436 H 1870.78 -0.55351 -0.366774 0
M  V30 20437 H 1873.31 -1.96901 -0.555988 0
M  V30 20438 H 1873.32 -2.98472 -2.7817 0
M  V30 20439 H 1871.99 -3.70765 -1.88431 0
M  V30 20440 H 1870.57 -2.24065 -2.98076 0
M  V30 20441 N 1872.75 0.720973 -1.40142 0
M  V30 20442 C 1873.7 1.83506 -1.3998 0
M  V30 20443 C 1874.67 1.64092 -0.257489 0
M  V30 20444 O 1875.85 1.85302 -0.454738 0
M  V30 20445 C 1872.99 3.21163 -1.26288 0
M  V30 20446 C 1872.11 3.52185 -2.5018 0
M  V30 20447 C 1871.24 4.79318 -2.2897 0
M  V30 20448 C 1870.28 5.03228 -3.48465 0
M  V30 20449 N 1869.42 6.21572 -3.26485 0
M  V30 20450 H 1874.26 1.82979 -2.35208 0
M  V30 20451 H 1871.8 0.893911 -1.16823 0
M  V30 20452 H 1873.75 4.00646 -1.16357 0
M  V30 20453 H 1872.38 3.20931 -0.346817 0
M  V30 20454 H 1871.44 2.67297 -2.70659 0
M  V30 20455 H 1872.75 3.65765 -3.39142 0
M  V30 20456 H 1871.9 5.66809 -2.16362 0
M  V30 20457 H 1870.64 4.67938 -1.37424 0
M  V30 20458 H 1869.65 4.14194 -3.61557 0
M  V30 20459 H 1870.87 5.16484 -4.40932 0
M  V30 20460 H 1868.82 6.11453 -2.37616 0
M  V30 20461 H 1868.73 6.35804 -4.0901 0
M  V30 20462 H 1870 7.11865 -3.17599 0
M  V30 20463 N 1874.23 1.25549 0.952634 0
M  V30 20464 C 1875.14 1.07855 2.08337 0
M  V30 20465 C 1876.16 0.0151456 1.73993 0
M  V30 20466 O 1877.33 0.216498 2.00233 0
M  V30 20467 C 1874.4 0.701369 3.39532 0
M  V30 20468 C 1873.46 1.84293 3.8773 0
M  V30 20469 C 1872.69 1.48365 5.12663 0
M  V30 20470 O 1872.91 0.3802 5.69131 0
M  V30 20471 O 1871.85 2.31452 5.5562 0
M  V30 20472 H 1875.67 2.02688 2.26167 0
M  V30 20473 H 1873.26 1.04506 1.06765 0
M  V30 20474 H 1875.14 0.503231 4.18384 0
M  V30 20475 H 1873.82 -0.217671 3.22967 0
M  V30 20476 H 1872.72 2.09595 3.09872 0
M  V30 20477 H 1874.06 2.74129 4.08796 0
M  V30 20478 N 1875.71 -1.15554 1.07168 0
M  V30 20479 C 1876.66 -2.22296 0.684626 0
M  V30 20480 C 1877.65 -1.66656 -0.303675 0
M  V30 20481 O 1878.86 -1.79218 -0.167588 0
M  V30 20482 H 1875.23 -0.723996 0.203306 0
M  V30 20483 H 1877.2 -2.52223 1.59456 0
M  V30 20484 C 1875.95 -3.47566 0.0965118 0
M  V30 20485 H 1875.27 -3.90701 0.848122 0
M  V30 20486 H 1876.71 -4.2378 -0.136671 0
M  V30 20487 C 1875.17 -3.16215 -1.16231 0
M  V30 20488 O 1875.7 -3.32838 -2.24903 0
M  V30 20489 N 1873.91 -2.70273 -1.06774 0
M  V30 20490 H 1873.46 -2.56947 -0.183357 0
M  V30 20491 H 1873.41 -2.49671 -1.9108 0
M  V30 20492 N 1877.19 -0.855519 -1.32358 0
M  V30 20493 C 1878.44 -0.458415 -1.96832 0
M  V30 20494 C 1878.76 0.98946 -1.68032 0
M  V30 20495 O 1878.03 1.69161 -0.987995 0
M  V30 20496 H 1876.61 -0.166527 -0.728202 0
M  V30 20497 H 1879.27 -1.09214 -1.61426 0
M  V30 20498 H 1878.36 -0.604185 -3.06196 0
M  V30 20499 N 1878.67 1.45167 -0.61354 0
M  V30 20500 C 1879.91 2.03048 -0.119679 0
M  V30 20501 C 1880.27 1.47264 1.23819 0
M  V30 20502 O 1879.56 0.640171 1.80589 0
M  V30 20503 C 1879.75 3.57389 -0.0281394 0
M  V30 20504 C 1879.58 4.28144 -1.37559 0
M  V30 20505 C 1878.35 4.6583 -1.95783 0
M  V30 20506 C 1880.55 4.59722 -2.30566 0
M  V30 20507 N 1878.53 5.21471 -3.23946 0
M  V30 20508 C 1879.9 5.16259 -3.43331 0
M  V30 20509 C 1881.96 4.41664 -2.29864 0
M  V30 20510 C 1880.66 5.56642 -4.55568 0
M  V30 20511 C 1882.69 4.83083 -3.41152 0
M  V30 20512 C 1882.05 5.39719 -4.5264 0
M  V30 20513 H 1878.15 0.777111 -0.0873027 0
M  V30 20514 H 1880.73 1.76905 -0.813193 0
M  V30 20515 H 1878.9 3.8318 0.634609 0
M  V30 20516 H 1880.64 4.01927 0.472928 0
M  V30 20517 H 1877.39 4.49577 -1.48922 0
M  V30 20518 H 1877.81 5.53785 -3.89424 0
M  V30 20519 H 1882.46 3.97185 -1.44927 0
M  V30 20520 H 1880.17 6.00084 -5.41226 0
M  V30 20521 H 1883.76 4.70838 -3.41764 0
M  V30 20522 H 1882.64 5.71179 -5.37331 0
M  V30 20523 N 1880.14 0.353044 1.53595 0
M  V30 20524 C 1881.09 -0.499326 2.25334 0
M  V30 20525 C 1882.06 -1.08781 1.25522 0
M  V30 20526 O 1883.25 -1.12265 1.54276 0
M  V30 20527 C 1880.39 -1.63955 3.03666 0
M  V30 20528 C 1879.5 -1.07745 4.18348 0
M  V30 20529 C 1878.63 -2.18575 4.84147 0
M  V30 20530 C 1877.67 -1.59765 5.90882 0
M  V30 20531 N 1876.81 -2.64376 6.50423 0
M  V30 20532 H 1881.65 0.118959 2.97762 0
M  V30 20533 H 1879.19 0.0704777 1.46931 0
M  V30 20534 H 1881.14 -2.31097 3.47347 0
M  V30 20535 H 1879.77 -2.22868 2.33516 0
M  V30 20536 H 1878.83 -0.296678 3.79241 0
M  V30 20537 H 1880.14 -0.607375 4.95088 0
M  V30 20538 H 1879.29 -2.93563 5.30948 0
M  V30 20539 H 1878.03 -2.68929 4.06852 0
M  V30 20540 H 1877.04 -0.832863 5.43455 0
M  V30 20541 H 1878.26 -1.10251 6.70091 0
M  V30 20542 H 1876.21 -3.13968 5.75986 0
M  V30 20543 H 1876.12 -2.22019 7.22664 0
M  V30 20544 H 1877.39 -3.39105 7.01875 0
M  V30 20545 N 1881.62 -1.57387 0.0818932 0
M  V30 20546 C 1882.53 -2.16804 -0.89629 0
M  V30 20547 C 1883.55 -1.1339 -1.3198 0
M  V30 20548 O 1884.72 -1.45702 -1.39042 0
M  V30 20549 C 1881.79 -2.72607 -2.14211 0
M  V30 20550 C 1880.85 -3.90929 -1.77406 0
M  V30 20551 C 1880.08 -4.44062 -2.96049 0
M  V30 20552 O 1880.31 -3.96166 -4.10376 0
M  V30 20553 O 1879.24 -5.35261 -2.75279 0
M  V30 20554 H 1883.07 -3.0077 -0.420827 0
M  V30 20555 H 1880.65 -1.48726 -0.141737 0
M  V30 20556 H 1882.53 -3.0833 -2.87247 0
M  V30 20557 H 1881.21 -1.91694 -2.60835 0
M  V30 20558 H 1880.11 -3.60042 -1.01591 0
M  V30 20559 H 1881.45 -4.73165 -1.35556 0
M  V30 20560 O 1883.14 0.0584786 -1.61394 0
M  V30 20561 H 1883.83 0.68275 -1.81268 0
M  V30 END ATOM
M  V30 BEGIN BOND
M  V30 END BOND
M  V30 END CTAB
M  END
$$$$
