drugbank_target|P31025 Lipocalin-1 (DB00755)
 OpenBabel12092121033D

  0  0  0     0  0            999 V3000
M  V30 BEGIN CTAB
M  V30 COUNTS 2706 2729 0 0 0
M  V30 BEGIN ATOM
M  V30 1 H -0.908 1.98254 -0.117106 0
M  V30 2 N 0 1.576 0 0
M  V30 3 C 0.933 2.03868 1.02534 0
M  V30 4 C 1.911 0.928543 1.3348 0
M  V30 5 O 3.095 1.19667 1.45644 0
M  V30 6 C 0.222 2.43627 2.35294 0
M  V30 7 C -0.732 3.65373 2.2001 0
M  V30 8 S 0.101 5.13292 1.52614 0
M  V30 9 C 1.257 5.56322 2.86805 0
M  V30 10 H 1.49 2.90518 0.631377 0
M  V30 11 H -0.977 1.52953 0.210867 0
M  V30 12 H 0.981 2.67203 3.11629 0
M  V30 13 H -0.358 1.57376 2.7183 0
M  V30 14 H -1.165 3.90944 3.18086 0
M  V30 15 H -1.563 3.418 1.51819 0
M  V30 16 H 0.729 5.58782 3.83104 0
M  V30 17 H 1.672 6.56266 2.65933 0
M  V30 18 H 2.08 4.83886 2.90714 0
M  V30 19 N 1.4781 -0.272755 1.55222 0
M  V30 20 C 2.4251 -1.33716 1.88119 0
M  V30 21 C 3.3951 -1.49066 0.73271 0
M  V30 22 O 4.5801 -1.63469 0.984002 0
M  V30 23 C 1.7201 -2.69238 2.15882 0
M  V30 24 C 0.8331 -2.62108 3.43399 0
M  V30 25 C -0.0319 -3.89811 3.60861 0
M  V30 26 C -0.9929 -3.77193 4.8207 0
M  V30 27 N -1.8559 -4.9673 4.96189 0
M  V30 28 H 2.9841 -1.04962 2.78903 0
M  V30 29 H 0.5211 -0.507088 1.38083 0
M  V30 30 H 2.4791 -3.48089 2.29978 0
M  V30 31 H 1.1091 -2.96194 1.28331 0
M  V30 32 H 0.1611 -1.74967 3.37773 0
M  V30 33 H 1.4731 -2.48685 4.32386 0
M  V30 34 H 0.6271 -4.77103 3.74777 0
M  V30 35 H -0.6339 -4.06102 2.7006 0
M  V30 36 H -1.6289 -2.88284 4.68159 0
M  V30 37 H -0.4039 -3.62421 5.74307 0
M  V30 38 H -2.4579 -5.13431 4.08319 0
M  V30 39 H -2.5409 -4.85839 5.79221 0
M  V30 40 H -1.2729 -5.85594 5.1449 0
M  V30 41 N 2.9562 -1.48159 -0.537278 0
M  V30 42 C 4.3672 -1.49429 -1.11928 0
M  V30 43 C 4.7182 -0.26 -1.9447 0
M  V30 44 O 3.8432 0.633489 -2.0692 0
M  V30 45 C 4.4382 -2.70758 -2.03656 0
M  V30 46 C 2.9972 -2.74923 -2.57088 0
M  V30 47 C 2.1442 -2.42835 -1.3389 0
M  V30 48 H 5.0952 -1.55381 -0.322886 0
M  V30 49 H 5.1162 -2.48861 -2.87834 0
M  V30 50 H 4.6282 -3.60575 -1.43553 0
M  V30 51 H 2.7292 -1.89296 -3.20933 0
M  V30 52 H 2.8422 -3.76157 -2.9672 0
M  V30 53 H 1.2062 -1.93836 -1.65226 0
M  V30 54 H 1.9892 -3.34884 -0.755504 0
M  V30 55 N 4.4343 0.785586 -1.36625 0
M  V30 56 C 5.3643 1.91259 -1.33949 0
M  V30 57 C 6.3453 1.68795 -0.210325 0
M  V30 58 O 7.5303 1.89854 -0.408561 0
M  V30 59 C 4.6603 3.28339 -1.13186 0
M  V30 60 C 3.6143 3.65335 -2.22967 0
M  V30 61 C 2.9403 5.00806 -1.87342 0
M  V30 62 C 4.2403 3.7352 -3.65075 0
M  V30 63 H 5.9343 1.93755 -2.28253 0
M  V30 64 H 3.4803 0.930788 -1.09874 0
M  V30 65 H 5.4333 4.06804 -1.09948 0
M  V30 66 H 4.1573 3.2624 -0.153332 0
M  V30 67 H 2.8163 2.89169 -2.25337 0
M  V30 68 H 2.4643 4.95233 -0.880545 0
M  V30 69 H 2.1643 5.26529 -2.60846 0
M  V30 70 H 3.6883 5.81687 -1.85667 0
M  V30 71 H 5.1023 4.42168 -3.64911 0
M  V30 72 H 3.4993 4.10731 -4.37516 0
M  V30 73 H 4.5693 2.74527 -3.99703 0
M  V30 74 N 5.9124 1.20967 1.01018 0
M  V30 75 C 6.8424 0.988272 2.11555 0
M  V30 76 C 7.8234 -0.0849778 1.69888 0
M  V30 77 O 9.0084 0.0738202 1.9406 0
M  V30 78 C 6.1384 0.546528 3.42973 0
M  V30 79 C 5.0924 1.56375 3.9841 0
M  V30 80 C 4.4184 0.97842 5.25672 0
M  V30 81 C 5.7184 2.94922 4.31066 0
M  V30 82 H 7.4124 1.91276 2.30334 0
M  V30 83 H 4.9584 0.921073 1.1069 0
M  V30 84 H 6.9114 0.378839 4.19694 0
M  V30 85 H 5.6354 -0.413598 3.23971 0
M  V30 86 H 4.2944 1.71891 3.23804 0
M  V30 87 H 3.9424 0.0101688 5.02999 0
M  V30 88 H 3.6424 1.65784 5.63728 0
M  V30 89 H 5.1664 0.821939 6.05043 0
M  V30 90 H 6.5804 2.8288 4.9865 0
M  V30 91 H 4.9774 3.5983 4.80253 0
M  V30 92 H 6.0474 3.4616 3.39561 0
M  V30 93 N 7.3905 -1.2043 1.01659 0
M  V30 94 C 8.3205 -2.25466 0.607226 0
M  V30 95 C 9.3015 -1.65853 -0.377716 0
M  V30 96 O 10.4865 -1.92409 -0.263149 0
M  V30 97 C 7.6165 -3.47256 -0.0552949 0
M  V30 98 C 6.5705 -4.19462 0.850632 0
M  V30 99 C 5.8965 -5.34673 0.0538859 0
M  V30 100 C 7.1965 -4.75603 2.15868 0
M  V30 101 H 8.8905 -2.59962 1.48526 0
M  V30 102 H 6.4365 -1.2496 0.715605 0
M  V30 103 H 8.3895 -4.19917 -0.353233 0
M  V30 104 H 7.1135 -3.11924 -0.968045 0
M  V30 105 H 5.7725 -3.48667 1.13257 0
M  V30 106 H 5.4205 -4.95585 -0.860514 0
M  V30 107 H 5.1205 -5.83913 0.657192 0
M  V30 108 H 6.6445 -6.10138 -0.237598 0
M  V30 109 H 8.0585 -5.40083 1.92311 0
M  V30 110 H 6.4555 -5.3528 2.71284 0
M  V30 111 H 7.5255 -3.94346 2.82169 0
M  V30 112 N 8.8686 -0.792821 -1.36206 0
M  V30 113 C 9.8316 -0.199459 -2.2833 0
M  V30 114 C 10.8316 0.605189 -1.48977 0
M  V30 115 O 12.0216 0.425685 -1.68919 0
M  V30 116 C 9.1536 0.723523 -3.33134 0
M  V30 117 H 10.3466 -1.01181 -2.82316 0
M  V30 118 H 7.8996 -0.562485 -1.45828 0
M  V30 119 H 8.6346 1.56008 -2.84309 0
M  V30 120 H 8.4196 0.148436 -3.91819 0
M  V30 121 H 9.9096 1.13344 -4.01924 0
M  V30 122 N 10.3467 1.47872 -0.545128 0
M  V30 123 C 11.5927 2.02793 -0.0166104 0
M  V30 124 C 11.9257 1.41987 1.32489 0
M  V30 125 O 11.2007 0.571045 1.85928 0
M  V30 126 C 11.4837 3.59989 0.0893294 0
M  V30 127 C 11.3367 4.3125 -1.27841 0
M  V30 128 C 12.6557 4.32606 0.808724 0
M  V30 129 H 9.7747 0.736962 -0.00751035 0
M  V30 130 H 12.4167 1.76433 -0.705085 0
M  V30 131 H 10.5667 3.82579 0.675681 0
M  V30 132 H 12.2387 4.20035 -1.90704 0
M  V30 133 H 10.4817 3.92076 -1.85632 0
M  V30 134 H 11.1527 5.39736 -1.15713 0
M  V30 135 H 13.6287 4.14936 0.310992 0
M  V30 136 H 12.5047 5.42251 0.851782 0
M  V30 137 H 12.7657 4.00963 1.86229 0
M  V30 138 N 11.8248 0.280983 1.55075 0
M  V30 139 C 13.0498 -0.340154 2.04592 0
M  V30 140 C 13.4748 -1.48246 1.15779 0
M  V30 141 O 12.8328 -1.80614 0.15761 0
M  V30 142 C 12.8808 -0.793104 3.5177 0
M  V30 143 O 11.9848 -1.89981 3.66034 0
M  V30 144 H 11.3258 -0.0694289 0.66036 0
M  V30 145 H 13.8558 0.416993 2.00306 0
M  V30 146 H 13.8658 -1.08729 3.93245 0
M  V30 147 H 12.5408 0.0426163 4.15878 0
M  V30 148 H 11.1178 -1.60771 3.36463 0
M  V30 149 N 13.3029 -1.57598 0.00835791 0
M  V30 150 C 14.2329 -2.1198 -0.979113 0
M  V30 151 C 15.2139 -1.03091 -1.35301 0
M  V30 152 O 16.3989 -1.30818 -1.43528 0
M  V30 153 C 13.5289 -2.62995 -2.26828 0
M  V30 154 C 12.4829 -3.76485 -2.03576 0
M  V30 155 C 11.8089 -4.13846 -3.38579 0
M  V30 156 C 13.1089 -5.0342 -1.39161 0
M  V30 157 H 14.8029 -2.94738 -0.526281 0
M  V30 158 H 12.3489 -1.41783 -0.251704 0
M  V30 159 H 14.3019 -2.99669 -2.96271 0
M  V30 160 H 13.0259 -1.7737 -2.7424 0
M  V30 161 H 11.6849 -3.40217 -1.36557 0
M  V30 162 H 11.3329 -3.25232 -3.83709 0
M  V30 163 H 11.0329 -4.90312 -3.23834 0
M  V30 164 H 12.5569 -4.53086 -4.09323 0
M  V30 165 H 13.9709 -5.37812 -1.98573 0
M  V30 166 H 12.3679 -5.84746 -1.34878 0
M  V30 167 H 13.4379 -4.83548 -0.361868 0
M  V30 168 N 14.781 0.264519 -1.55364 0
M  V30 169 C 16.029 0.993021 -1.76021 0
M  V30 170 C 16.35 1.86511 -0.569099 0
M  V30 171 O 15.62 1.91438 0.415735 0
M  V30 172 H 14.2 0.369639 -0.649135 0
M  V30 173 H 16.862 0.286707 -1.9278 0
M  V30 174 H 15.958 1.62502 -2.66457 0
M  V30 175 N 16.2591 1.48442 0.529413 0
M  V30 176 C 17.1891 1.65902 1.64313 0
M  V30 177 C 18.1701 0.507897 1.6234 0
M  V30 178 O 19.3551 0.740503 1.79528 0
M  V30 179 C 16.4851 1.69911 3.02898 0
M  V30 180 C 15.4391 2.8453 3.19729 0
M  V30 181 C 14.7651 2.73629 4.59381 0
M  V30 182 C 16.0651 4.25821 3.02447 0
M  V30 183 H 17.7591 2.5914 1.49955 0
M  V30 184 H 15.3051 1.24709 0.719982 0
M  V30 185 H 17.2581 1.80715 3.80684 0
M  V30 186 H 15.9821 0.732524 3.18279 0
M  V30 187 H 14.6411 2.73283 2.44361 0
M  V30 188 H 14.2891 1.74938 4.71599 0
M  V30 189 H 13.9891 3.50541 4.71588 0
M  V30 190 H 15.5131 2.86401 5.39265 0
M  V30 191 H 16.9271 4.37898 3.70024 0
M  V30 192 H 15.3241 5.03735 3.26146 0
M  V30 193 H 16.3941 4.42244 1.98867 0
M  V30 194 N 17.7372 -0.778329 1.37039 0
M  V30 195 C 18.9862 -1.53189 1.3121 0
M  V30 196 C 19.2992 -1.95328 -0.103095 0
M  V30 197 O 20.5052 -2.70012 -0.283826 0
M  V30 198 C 18.9612 -2.76591 2.30272 0
M  V30 199 C 18.5692 -2.41577 3.77286 0
M  V30 200 C 20.3132 -3.5455 2.33441 0
M  V30 201 C 18.2202 -3.61441 4.68096 0
M  V30 202 H 17.1502 -0.5751 0.487622 0
M  V30 203 H 19.8012 -0.853101 1.62464 0
M  V30 204 H 18.1832 -3.46326 1.92027 0
M  V30 205 H 19.3572 -1.79668 4.2433 0
M  V30 206 H 17.6722 -1.76806 3.76999 0
M  V30 207 H 20.2692 -4.43628 2.98493 0
M  V30 208 H 20.6122 -3.93936 1.34611 0
M  V30 209 H 21.1452 -2.91805 2.7036 0
M  V30 210 H 17.8842 -3.27142 5.6803 0
M  V30 211 H 17.4042 -4.22478 4.25761 0
M  V30 212 H 19.0832 -4.28335 4.8491 0
M  V30 213 N 19.2153 -1.21501 -1.00376 0
M  V30 214 C 20.1783 -0.976927 -2.07337 0
M  V30 215 C 21.1783 0.0525322 -1.60714 0
M  V30 216 O 22.3683 -0.184869 -1.73216 0
M  V30 217 C 19.5003 -0.473423 -3.37597 0
M  V30 218 H 20.6933 -1.92587 -2.29892 0
M  V30 219 H 18.2463 -1.03217 -1.17371 0
M  V30 220 H 18.9813 0.480379 -3.20722 0
M  V30 221 H 18.7663 -1.216 -3.72768 0
M  V30 222 H 20.2563 -0.32675 -4.1632 0
M  V30 223 N 20.6934 1.19889 -1.02296 0
M  V30 224 C 21.6564 2.21116 -0.603351 0
M  V30 225 C 22.6564 1.5738 0.329884 0
M  V30 226 O 23.8464 1.73802 0.117702 0
M  V30 227 C 20.9784 3.40696 0.117992 0
M  V30 228 H 22.1714 2.59754 -1.49893 0
M  V30 229 H 19.7244 1.33463 -0.813468 0
M  V30 230 H 20.4594 3.07569 1.0282 0
M  V30 231 H 20.2444 3.88188 -0.552511 0
M  V30 232 H 21.7344 4.15692 0.398696 0
M  V30 233 N 22.1715 0.800033 1.35784 0
M  V30 234 C 23.1015 0.220184 2.3246 0
M  V30 235 C 24.0825 -0.65073 1.57161 0
M  V30 236 O 25.2675 -0.582359 1.85263 0
M  V30 237 C 22.3975 -0.637353 3.41402 0
M  V30 238 C 21.3515 0.134531 4.27789 0
M  V30 239 C 20.6775 -0.844285 5.27992 0
M  V30 240 C 21.9775 1.32979 5.05088 0
M  V30 241 H 23.6715 1.02787 2.81203 0
M  V30 242 H 21.2175 0.495717 1.35199 0
M  V30 243 H 23.1705 -1.05302 4.08031 0
M  V30 244 H 21.8945 -1.47785 2.91251 0
M  V30 245 H 20.5535 0.531296 3.6273 0
M  V30 246 H 20.2015 -1.68011 4.74111 0
M  V30 247 H 19.9015 -0.332184 5.8666 0
M  V30 248 H 21.4255 -1.2583 5.97494 0
M  V30 249 H 22.8395 0.98934 5.64699 0
M  V30 250 H 21.2365 1.77593 5.7322 0
M  V30 251 H 22.3065 2.11978 4.36111 0
M  V30 252 N 23.6496 -1.47581 0.552962 0
M  V30 253 C 24.5816 -2.27997 -0.234533 0
M  V30 254 C 25.5946 -1.36753 -0.883321 0
M  V30 255 O 26.7836 -1.61612 -0.757889 0
M  V30 256 C 23.8836 -3.10879 -1.34935 0
M  V30 257 C 23.0566 -4.30056 -0.798158 0
M  V30 258 C 22.1156 -4.94567 -1.79694 0
M  V30 259 O 21.1416 -5.53087 -1.34474 0
M  V30 260 N 22.3436 -4.88878 -3.13015 0
M  V30 261 H 25.1086 -2.96222 0.455255 0
M  V30 262 H 22.6696 -1.57163 0.388761 0
M  V30 263 H 24.6616 -3.50903 -2.01616 0
M  V30 264 H 23.2316 -2.44924 -1.94244 0
M  V30 265 H 22.4516 -3.94174 0.0453079 0
M  V30 266 H 23.7396 -5.07152 -0.409173 0
M  V30 267 H 23.1376 -4.42526 -3.52402 0
M  V30 268 H 21.6946 -5.32934 -3.75266 0
M  V30 269 N 25.1277 -0.289203 -1.54924 0
M  V30 270 C 26.0907 0.579144 -2.21762 0
M  V30 271 C 27.0907 1.07047 -1.1999 0
M  V30 272 O 28.2807 0.968384 -1.44803 0
M  V30 273 C 25.4127 1.80055 -2.8947 0
M  V30 274 H 26.6057 -0.00464908 -2.999 0
M  V30 275 H 24.1587 -0.0399306 -1.56249 0
M  V30 276 H 24.8937 2.42449 -2.15381 0
M  V30 277 H 24.6787 1.45602 -3.64064 0
M  V30 278 H 26.1687 2.41773 -3.40493 0
M  V30 279 N 26.6058 1.57591 -0.0167156 0
M  V30 280 C 27.5558 2.05953 0.978137 0
M  V30 281 C 28.5398 0.957532 1.29306 0
M  V30 282 O 29.7318 1.22119 1.28125 0
M  V30 283 C 26.8608 2.58006 2.26468 0
M  V30 284 C 25.9468 3.75113 1.97867 0
M  V30 285 N 26.3378 4.86187 1.39486 0
M  V30 286 C 24.6358 3.83363 2.27924 0
M  V30 287 C 25.3368 5.67502 1.27735 0
M  V30 288 N 24.3128 5.14023 1.76866 0
M  V30 289 H 28.1148 2.89236 0.521522 0
M  V30 290 H 25.6288 1.61301 0.188596 0
M  V30 291 H 27.6258 2.90937 2.98599 0
M  V30 292 H 26.2858 1.76148 2.72767 0
M  V30 293 H 27.2968 5.06695 1.07147 0
M  V30 294 H 23.9738 3.1239 2.76982 0
M  V30 295 H 25.3638 6.66791 0.826978 0
M  V30 296 N 28.0839 -0.256276 1.55502 0
M  V30 297 C 29.0339 -1.31981 1.85916 0
M  V30 298 C 30.0179 -1.43927 0.719296 0
M  V30 299 O 31.2099 -1.47326 0.981019 0
M  V30 300 C 28.3389 -2.67703 2.14918 0
M  V30 301 C 27.4249 -2.59801 3.35208 0
M  V30 302 N 27.8159 -2.21524 4.54709 0
M  V30 303 C 26.1139 -2.90832 3.38131 0
M  V30 304 C 26.8149 -2.24024 5.36832 0
M  V30 305 N 25.7909 -2.63158 4.75656 0
M  V30 306 H 29.5929 -1.01423 2.75845 0
M  V30 307 H 27.1069 -0.464911 1.55603 0
M  V30 308 H 29.1039 -3.44445 2.34869 0
M  V30 309 H 27.7639 -2.99137 1.26282 0
M  V30 310 H 28.7749 -1.93223 4.80505 0
M  V30 311 H 25.4519 -3.26867 2.59739 0
M  V30 312 H 26.8419 -1.9685 6.42417 0
M  V30 313 N 29.562 -1.4872 -0.521534 0
M  V30 314 C 30.492 -1.66771 -1.63431 0
M  V30 315 C 31.473 -0.516499 -1.62069 0
M  V30 316 O 32.658 -0.750013 -1.79132 0
M  V30 317 C 29.788 -1.71515 -3.01993 0
M  V30 318 C 28.742 -2.86222 -3.18216 0
M  V30 319 C 28.068 -2.76061 -4.57924 0
M  V30 320 C 29.368 -4.27419 -3.00184 0
M  V30 321 H 31.062 -2.59932 -1.48579 0
M  V30 322 H 28.608 -1.25089 -0.713358 0
M  V30 323 H 30.561 -1.82731 -3.7972 0
M  V30 324 H 29.285 -0.749393 -3.17886 0
M  V30 325 H 27.944 -2.74575 -2.42908 0
M  V30 326 H 27.592 -1.77437 -4.70665 0
M  V30 327 H 27.292 -3.53037 -4.69722 0
M  V30 328 H 28.816 -2.89256 -5.37739 0
M  V30 329 H 30.23 -4.39855 -3.67697 0
M  V30 330 H 28.627 -5.05458 -3.2347 0
M  V30 331 H 29.697 -4.43293 -1.96518 0
M  V30 332 N 31.0401 0.771051 -1.3745 0
M  V30 333 C 31.9701 1.89827 -1.3597 0
M  V30 334 C 32.9511 1.68562 -0.228216 0
M  V30 335 O 34.1361 1.8941 -0.428675 0
M  V30 336 C 31.2661 3.2712 -1.16662 0
M  V30 337 C 30.2201 3.6295 -2.2683 0
M  V30 338 C 29.5461 4.98791 -1.92644 0
M  V30 339 C 30.8461 3.69627 -3.69017 0
M  V30 340 H 32.5401 1.91323 -2.30295 0
M  V30 341 H 30.0861 0.919082 -1.10855 0
M  V30 342 H 32.0391 4.05615 -1.14256 0
M  V30 343 H 30.7631 3.26059 -0.187926 0
M  V30 344 H 29.4221 2.86763 -2.28392 0
M  V30 345 H 29.0701 4.94271 -0.933021 0
M  V30 346 H 28.7701 5.23733 -2.66416 0
M  V30 347 H 30.2941 5.79685 -1.91826 0
M  V30 348 H 31.7081 4.38273 -3.69581 0
M  V30 349 H 30.1051 4.06067 -4.41848 0
M  V30 350 H 31.1751 2.70273 -4.02592 0
M  V30 351 N 32.5182 1.22032 0.997298 0
M  V30 352 C 33.4812 0.987909 2.06816 0
M  V30 353 C 34.4812 -0.0440084 1.6074 0
M  V30 354 O 35.6712 0.194053 1.73116 0
M  V30 355 C 32.8032 0.49132 3.37341 0
M  V30 356 H 33.9962 1.93803 2.28868 0
M  V30 357 H 31.5492 1.03838 1.16822 0
M  V30 358 H 32.2842 -0.463364 3.20973 0
M  V30 359 H 32.0692 1.23575 3.72118 0
M  V30 360 H 33.5592 0.348824 4.16141 0
M  V30 361 N 33.9963 -1.19345 1.0293 0
M  V30 362 C 35.2213 -1.93538 0.745511 0
M  V30 363 C 35.6463 -1.75007 -0.689511 0
M  V30 364 O 35.0043 -1.05265 -1.47611 0
M  V30 365 C 35.0523 -3.43336 1.10239 0
M  V30 366 O 34.1563 -4.11806 0.221289 0
M  V30 367 H 33.4973 -0.604193 0.275404 0
M  V30 368 H 36.0273 -1.5141 1.37609 0
M  V30 369 H 36.0373 -3.94004 1.05947 0
M  V30 370 H 34.7123 -3.56146 2.14786 0
M  V30 371 H 33.2893 -3.715 0.322842 0
M  V30 372 N 35.4744 -0.807222 -1.35358 0
M  V30 373 C 36.7514 -0.311126 -1.9311 0
M  V30 374 C 37.1314 1.19937 -1.73719 0
M  V30 375 O 36.4794 1.99918 -1.10657 0
M  V30 376 C 36.6894 -0.723226 -3.41424 0
M  V30 377 C 38.0374 -0.713078 -4.18569 0
M  V30 378 O 39.0614 -0.664811 -3.49941 0
M  V30 379 O 37.9204 -0.772022 -5.41019 0
M  V30 380 H 35.0144 -0.081526 -0.822972 0
M  V30 381 H 37.5604 -0.890962 -1.4443 0
M  V30 382 H 36.3324 -1.76426 -3.4927 0
M  V30 383 H 35.9554 -0.118232 -3.97424 0
M  V30 384 N 36.9525 1.47285 -0.560781 0
M  V30 385 C 37.8625 2.33846 0.187954 0
M  V30 386 C 38.8785 1.48412 0.908293 0
M  V30 387 O 40.0545 1.81332 0.876388 0
M  V30 388 C 37.1195 3.25178 1.2025 0
M  V30 389 C 36.1805 4.26504 0.489208 0
M  V30 390 C 35.4135 5.13472 1.45542 0
M  V30 391 O 35.6365 5.02959 2.6905 0
M  V30 392 O 34.5705 5.93902 0.977963 0
M  V30 393 H 38.3965 2.99177 -0.522177 0
M  V30 394 H 35.9815 1.45903 -0.321364 0
M  V30 395 H 37.8635 3.81584 1.78805 0
M  V30 396 H 36.5385 2.6247 1.89449 0
M  V30 397 H 35.4455 3.73847 -0.137627 0
M  V30 398 H 36.7785 4.91935 -0.161399 0
M  V30 399 N 38.4306 0.297415 1.54768 0
M  V30 400 C 39.3406 -0.58983 2.27064 0
M  V30 401 C 40.3566 -1.15144 1.30453 0
M  V30 402 O 41.5326 -1.17699 1.63428 0
M  V30 403 C 38.5976 -1.74714 2.9946 0
M  V30 404 C 37.6586 -1.21997 4.11601 0
M  V30 405 C 36.8916 -2.32212 4.80535 0
M  V30 406 O 37.1146 -3.52036 4.48806 0
M  V30 407 O 36.0486 -1.99106 5.68014 0
M  V30 408 H 39.8746 -0.00348199 3.037 0
M  V30 409 H 37.4596 0.0640035 1.49263 0
M  V30 410 H 39.3416 -2.42147 3.44881 0
M  V30 411 H 38.0166 -2.32016 2.25722 0
M  V30 412 H 36.9236 -0.511458 3.70587 0
M  V30 413 H 38.2566 -0.692419 4.87305 0
M  V30 414 N 39.9087 -1.5758 0.0250728 0
M  V30 415 C 41.1577 -1.90811 -0.653767 0
M  V30 416 C 41.4707 -0.90273 -1.73523 0
M  V30 417 O 42.6767 -1.12614 -2.47043 0
M  V30 418 C 41.1327 -3.38804 -1.21409 0
M  V30 419 C 40.7407 -4.47692 -0.166126 0
M  V30 420 C 42.4847 -3.81108 -1.86967 0
M  V30 421 C 40.3917 -5.86779 -0.737856 0
M  V30 422 H 39.3217 -0.712063 -0.247956 0
M  V30 423 H 41.9727 -1.83281 0.0897137 0
M  V30 424 H 40.3547 -3.41252 -2.00905 0
M  V30 425 H 41.5287 -4.56797 0.606079 0
M  V30 426 H 39.8437 -4.14565 0.390466 0
M  V30 427 H 42.4407 -4.82375 -2.30692 0
M  V30 428 H 42.7837 -3.15953 -2.71071 0
M  V30 429 H 43.3167 -3.81065 -1.14167 0
M  V30 430 H 40.0557 -6.55468 0.0649577 0
M  V30 431 H 39.5757 -5.81288 -1.47864 0
M  V30 432 H 41.2547 -6.35223 -1.22884 0
M  V30 433 N 41.3868 0.248026 -1.55636 0
M  V30 434 C 42.3188 1.32993 -1.8667 0
M  V30 435 C 43.3318 1.44345 -0.752877 0
M  V30 436 O 44.5208 1.45715 -1.03098 0
M  V30 437 C 41.6208 2.70863 -2.03682 0
M  V30 438 C 40.7938 2.81792 -3.34532 0
M  V30 439 C 39.8528 4.005 -3.41301 0
M  V30 440 O 38.8788 3.9008 -4.14519 0
M  V30 441 N 40.0808 5.13618 -2.70512 0
M  V30 442 H 42.8458 1.06707 -2.8006 0
M  V30 443 H 40.4068 0.438129 -1.55859 0
M  V30 444 H 42.3988 3.48612 -2.05553 0
M  V30 445 H 40.9688 2.89862 -1.17041 0
M  V30 446 H 40.1888 1.90729 -3.44987 0
M  V30 447 H 41.4768 2.86043 -4.20781 0
M  V30 448 H 40.8748 5.24975 -2.10755 0
M  V30 449 H 39.4318 5.89505 -2.78077 0
M  V30 450 N 42.8649 1.48995 0.513639 0
M  V30 451 C 44.1419 1.48338 1.27495 0
M  V30 452 C 44.5219 0.204065 2.10111 0
M  V30 453 O 43.8699 -0.813881 2.13514 0
M  V30 454 C 44.0799 2.75498 2.14247 0
M  V30 455 C 45.4279 3.24484 2.73852 0
M  V30 456 O 46.4519 2.76528 2.24523 0
M  V30 457 O 45.3109 4.07974 3.6362 0
M  V30 458 H 42.4049 0.593149 0.576284 0
M  V30 459 H 44.9509 1.61246 0.528948 0
M  V30 460 H 43.7229 3.60109 1.53092 0
M  V30 461 H 43.3459 2.6539 2.96064 0
M  V30 462 N 44.343 -0.763751 1.37857 0
M  V30 463 C 45.589 -1.52483 1.33704 0
M  V30 464 C 45.922 -1.94051 -0.0759612 0
M  V30 465 O 45.197 -1.64675 -1.03501 0
M  V30 466 C 45.48 -2.78441 2.28348 0
M  V30 467 C 45.333 -2.43075 3.78463 0
M  V30 468 C 46.652 -3.80415 2.21298 0
M  V30 469 H 43.771 -0.553169 0.487005 0
M  V30 470 H 46.413 -0.875562 1.68624 0
M  V30 471 H 44.563 -3.33842 1.987 0
M  V30 472 H 46.235 -1.93527 4.18742 0
M  V30 473 H 44.478 -1.75666 3.96641 0
M  V30 474 H 45.149 -3.33149 4.40132 0
M  V30 475 H 47.625 -3.34527 2.47449 0
M  V30 476 H 46.501 -4.66257 2.89647 0
M  V30 477 H 46.762 -4.25262 1.20849 0
M  V30 478 N 45.8211 -1.22559 -0.990812 0
M  V30 479 C 47.0461 -1.07862 -1.77145 0
M  V30 480 C 47.4711 0.366447 -1.84496 0
M  V30 481 O 46.8291 1.26478 -1.29896 0
M  V30 482 C 46.8771 -1.69686 -3.18181 0
M  V30 483 O 45.9811 -0.951946 -4.01263 0
M  V30 484 H 45.3221 -0.378712 -0.545411 0
M  V30 485 H 47.8521 -1.62399 -1.2445 0
M  V30 486 H 47.8621 -1.74496 -3.68802 0
M  V30 487 H 46.5371 -2.74841 -3.12146 0
M  V30 488 H 45.1141 -0.980011 -3.59792 0
M  V30 489 N 47.2992 1.18797 -1.03562 0
M  V30 490 C 48.5472 1.88278 -0.734569 0
M  V30 491 C 48.8682 1.8043 0.739586 0
M  V30 492 O 48.1382 1.21925 1.53333 0
M  V30 493 H 46.7182 0.696991 -0.268725 0
M  V30 494 H 49.3802 1.44192 -1.31129 0
M  V30 495 H 48.4762 2.94443 -1.03489 0
M  V30 496 N 48.7773 0.814389 1.34928 0
M  V30 497 C 50.0053 0.411136 2.02774 0
M  V30 498 C 50.4203 -0.980316 1.61354 0
M  V30 499 O 49.7773 -1.63299 0.814847 0
M  V30 500 C 49.8283 0.493865 3.58111 0
M  V30 501 O 49.5493 1.83047 3.98027 0
M  V30 502 C 51.0503 0.0844174 4.4322 0
M  V30 503 H 48.2703 0.166037 0.650133 0
M  V30 504 H 50.8143 1.10018 1.72384 0
M  V30 505 H 48.9693 -0.147006 3.87121 0
M  V30 506 H 49.3833 1.79872 4.92693 0
M  V30 507 H 50.8573 0.193404 5.51661 0
M  V30 508 H 51.3343 -0.97113 4.28329 0
M  V30 509 H 51.9403 0.69875 4.19521 0
M  V30 510 N 50.2554 -1.46986 0.568584 0
M  V30 511 C 51.5014 -2.0332 0.0571487 0
M  V30 512 C 51.8564 -1.43384 -1.28291 0
M  V30 513 O 51.1494 -0.584304 -1.82473 0
M  V30 514 C 51.3434 -3.57306 -0.081836 0
M  V30 515 C 51.1724 -4.32174 1.24321 0
M  V30 516 C 49.9424 -4.71633 1.81358 0
M  V30 517 C 52.1404 -4.66598 2.16312 0
M  V30 518 N 50.1224 -5.31191 3.07748 0
M  V30 519 C 51.4934 -5.26578 3.27285 0
M  V30 520 C 53.5484 -4.48527 2.16166 0
M  V30 521 C 52.2514 -5.70395 4.38226 0
M  V30 522 C 54.2774 -4.93351 3.26127 0
M  V30 523 C 53.6394 -5.5339 4.3582 0
M  V30 524 H 49.7384 -0.77943 0.063351 0
M  V30 525 H 52.3224 -1.79323 0.758378 0
M  V30 526 H 50.4934 -3.81046 -0.752207 0
M  V30 527 H 52.2254 -4.00282 -0.59637 0
M  V30 528 H 48.9804 -4.53946 1.35019 0
M  V30 529 H 49.4044 -5.65505 3.72201 0
M  V30 530 H 54.0464 -4.01456 1.32638 0
M  V30 531 H 51.7644 -6.16452 5.22506 0
M  V30 532 H 55.3504 -4.81131 3.27115 0
M  V30 533 H 54.2304 -5.87441 5.19503 0
M  V30 534 N 51.7335 -0.305618 -1.54608 0
M  V30 535 C 52.9635 0.304333 -2.04346 0
M  V30 536 C 53.3715 1.47715 -1.18224 0
M  V30 537 O 52.7145 1.82591 -0.201577 0
M  V30 538 C 52.7765 0.819031 -3.50046 0
M  V30 539 C 52.4405 -0.22912 -4.56425 0
M  V30 540 C 53.4375 -1.05914 -5.08997 0
M  V30 541 C 51.1225 -0.372148 -5.0092 0
M  V30 542 C 53.1165 -2.01809 -6.04609 0
M  V30 543 C 50.8035 -1.33454 -5.9635 0
M  V30 544 C 51.8015 -2.15599 -6.48079 0
M  V30 545 O 51.4895 -3.10205 -7.41639 0
M  V30 546 H 51.2215 0.0693996 -0.672428 0
M  V30 547 H 53.7755 -0.444548 -2.00532 0
M  V30 548 H 52.0055 1.61852 -3.51199 0
M  V30 549 H 53.6945 1.34537 -3.82955 0
M  V30 550 H 54.4605 -0.959538 -4.75413 0
M  V30 551 H 50.3395 0.257304 -4.60281 0
M  V30 552 H 53.8835 -2.65966 -6.44909 0
M  V30 553 H 49.7805 -1.43485 -6.29351 0
M  V30 554 H 50.5485 -3.05237 -7.59455 0
M  V30 555 N 53.2116 1.57565 -0.0334293 0
M  V30 556 C 54.1416 2.13511 0.945265 0
M  V30 557 C 55.1226 1.05231 1.33643 0
M  V30 558 O 56.3076 1.33084 1.41429 0
M  V30 559 C 53.4376 2.6657 2.22616 0
M  V30 560 C 52.3916 3.79676 1.97561 0
M  V30 561 C 51.7176 4.1918 3.31952 0
M  V30 562 C 53.0176 5.0557 1.31135 0
M  V30 563 H 54.7116 2.95538 0.479325 0
M  V30 564 H 52.2576 1.42166 0.229115 0
M  V30 565 H 54.2106 3.04344 2.91466 0
M  V30 566 H 52.9346 1.8171 2.71384 0
M  V30 567 H 51.5936 3.42347 1.31127 0
M  V30 568 H 51.2416 3.31296 3.78487 0
M  V30 569 H 50.9416 4.95402 3.15992 0
M  V30 570 H 52.4656 4.59541 4.02063 0
M  V30 571 H 53.8796 5.40903 1.89992 0
M  V30 572 H 52.2766 5.86818 1.25559 0
M  V30 573 H 53.3466 4.84062 0.284894 0
M  V30 574 N 54.6897 -0.239769 1.55765 0
M  V30 575 C 55.6367 -1.29696 1.90913 0
M  V30 576 C 56.6067 -1.47478 0.764164 0
M  V30 577 O 57.7917 -1.61345 1.01845 0
M  V30 578 C 54.9317 -2.64598 2.21544 0
M  V30 579 C 54.0447 -2.54765 3.48882 0
M  V30 580 C 53.1797 -3.82069 3.69049 0
M  V30 581 C 52.2187 -3.66883 4.89963 0
M  V30 582 N 51.3557 -4.86094 5.06614 0
M  V30 583 H 56.1957 -0.990224 2.81067 0
M  V30 584 H 53.7327 -0.477684 1.39128 0
M  V30 585 H 55.6907 -3.43132 2.3731 0
M  V30 586 H 54.3207 -2.93405 1.34585 0
M  V30 587 H 53.3727 -1.67763 3.41409 0
M  V30 588 H 54.6847 -2.39457 4.37563 0
M  V30 589 H 53.8387 -4.69046 3.84812 0
M  V30 590 H 52.5777 -4.00282 2.78614 0
M  V30 591 H 51.5827 -2.78289 4.74168 0
M  V30 592 H 52.8077 -3.50157 5.81865 0
M  V30 593 H 50.7537 -5.04655 4.19117 0
M  V30 594 H 50.6707 -4.73443 5.89396 0
M  V30 595 H 51.9387 -5.74549 5.26795 0
M  V30 596 N 56.1678 -1.49265 -0.50573 0
M  V30 597 C 57.1308 -1.65075 -1.59006 0
M  V30 598 C 58.1308 -0.522768 -1.52065 0
M  V30 599 O 59.3208 -0.789117 -1.55302 0
M  V30 600 C 56.4528 -1.64369 -2.98656 0
M  V30 601 H 57.6458 -2.61784 -1.46319 0
M  V30 602 H 55.1988 -1.38226 -0.729616 0
M  V30 603 H 55.9338 -0.692272 -3.16825 0
M  V30 604 H 55.7188 -2.46282 -3.05103 0
M  V30 605 H 57.2088 -1.78674 -3.77446 0
M  V30 606 N 57.6459 0.756429 -1.3826 0
M  V30 607 C 58.5789 1.87802 -1.29637 0
M  V30 608 C 59.5569 1.61667 -0.173939 0
M  V30 609 O 60.7409 1.85208 -0.350775 0
M  V30 610 C 57.8679 3.23354 -1.00797 0
M  V30 611 C 56.9139 3.68379 -2.14939 0
M  V30 612 S 57.7469 3.8025 -3.77054 0
M  V30 613 C 58.9029 5.18626 -3.50396 0
M  V30 614 H 59.1359 1.94829 -2.24564 0
M  V30 615 H 56.6689 0.919117 -1.24063 0
M  V30 616 H 58.6269 4.01637 -0.848413 0
M  V30 617 H 57.2879 3.14008 -0.0759369 0
M  V30 618 H 56.4809 4.66693 -1.90299 0
M  V30 619 H 56.0829 2.97242 -2.26988 0
M  V30 620 H 58.3749 6.04289 -3.06334 0
M  V30 621 H 59.3179 5.48286 -4.48094 0
M  V30 622 H 59.7259 4.87289 -2.84973 0
M  V30 623 N 59.124 1.23083 0.984299 0
M  V30 624 C 60.352 1.08714 1.76037 0
M  V30 625 C 60.767 -0.361691 1.85303 0
M  V30 626 O 60.124 -1.25034 1.32939 0
M  V30 627 C 60.175 1.70206 3.18923 0
M  V30 628 O 59.896 3.09423 3.10144 0
M  V30 629 C 61.397 1.61227 4.12941 0
M  V30 630 H 58.617 0.380664 0.552572 0
M  V30 631 H 61.161 1.62853 1.23689 0
M  V30 632 H 59.316 1.20109 3.6831 0
M  V30 633 H 59.73 3.39188 4.00065 0
M  V30 634 H 61.204 2.08962 5.10919 0
M  V30 635 H 61.681 0.570375 4.35481 0
M  V30 636 H 62.287 2.10671 3.69456 0
M  V30 637 N 60.6021 -1.18246 1.0419 0
M  V30 638 C 61.8481 -1.88536 0.747122 0
M  V30 639 C 62.1811 -1.80223 -0.723409 0
M  V30 640 O 61.4561 -1.20337 -1.52804 0
M  V30 641 C 61.7391 -3.38968 1.21544 0
M  V30 642 C 61.5921 -3.56084 2.74816 0
M  V30 643 C 62.9111 -4.32648 0.806482 0
M  V30 644 H 60.0301 -0.684619 0.272883 0
M  V30 645 H 62.6721 -1.39113 1.29413 0
M  V30 646 H 60.8221 -3.8119 0.750081 0
M  V30 647 H 62.4941 -3.22946 3.29399 0
M  V30 648 H 60.7371 -2.98699 3.14582 0
M  V30 649 H 61.4081 -4.61639 3.02644 0
M  V30 650 H 63.8841 -3.98211 1.20695 0
M  V30 651 H 62.7601 -5.36462 1.1619 0
M  V30 652 H 63.0211 -4.41146 -0.29029 0
M  V30 653 N 62.0802 -0.821533 -1.34494 0
M  V30 654 C 63.3572 -0.33159 -1.92769 0
M  V30 655 C 63.7372 1.18088 -1.74981 0
M  V30 656 O 63.0852 1.98733 -1.12772 0
M  V30 657 C 63.2952 -0.759398 -3.40638 0
M  V30 658 C 64.6432 -0.757433 -4.1779 0
M  V30 659 O 65.6672 -0.70189 -3.49216 0
M  V30 660 O 64.5262 -0.829361 -5.4017 0
M  V30 661 H 61.6202 -0.0902502 -0.822061 0
M  V30 662 H 64.1662 -0.906231 -1.43477 0
M  V30 663 H 62.9382 -1.8012 -3.47379 0
M  V30 664 H 62.5612 -0.160378 -3.97276 0
M  V30 665 N 63.5583 1.46682 -0.576371 0
M  V30 666 C 64.9743 1.57822 -0.237562 0
M  V30 667 C 65.1743 1.57237 1.26011 0
M  V30 668 O 64.2303 1.48596 2.04146 0
M  V30 669 C 65.5433 2.87499 -0.881168 0
M  V30 670 C 67.0913 3.01119 -0.85417 0
M  V30 671 C 67.5663 4.33524 -1.4772 0
M  V30 672 N 69.0573 4.40207 -1.44125 0
M  V30 673 C 69.7923 5.4126 -1.89276 0
M  V30 674 N 69.2883 6.49021 -2.42371 0
M  V30 675 N 71.0813 5.32422 -1.80231 0
M  V30 676 H 63.2323 1.45306 -1.54919 0
M  V30 677 H 65.4953 0.692733 -0.647167 0
M  V30 678 H 65.2013 2.9372 -1.93447 0
M  V30 679 H 65.0753 3.75224 -0.385592 0
M  V30 680 H 67.4623 2.94485 0.190491 0
M  V30 681 H 67.5433 2.14887 -1.3877 0
M  V30 682 H 67.1873 4.40916 -2.52103 0
M  V30 683 H 67.1173 5.1852 -0.918947 0
M  V30 684 H 69.6083 3.62931 -1.05307 0
M  V30 685 H 69.9213 7.2233 -2.74698 0
M  V30 686 H 68.2663 6.49858 -2.46393 0
M  V30 687 H 71.4573 4.47137 -1.38514 0
M  V30 688 H 71.6303 6.11034 -2.15735 0
M  V30 689 N 65.0364 0.313813 1.54444 0
M  V30 690 C 65.9464 -0.565714 2.27677 0
M  V30 691 C 66.9624 -1.13754 1.31666 0
M  V30 692 O 68.1384 -1.15959 1.64668 0
M  V30 693 C 65.2034 -1.71528 3.01296 0
M  V30 694 C 64.2644 -1.17624 4.12872 0
M  V30 695 C 63.4974 -2.27102 4.8297 0
M  V30 696 O 63.7204 -3.47256 4.52514 0
M  V30 697 O 62.6544 -1.9307 5.70094 0
M  V30 698 H 66.4804 0.0287296 3.03686 0
M  V30 699 H 64.0654 0.0798312 1.49187 0
M  V30 700 H 65.9474 -2.38476 3.4743 0
M  V30 701 H 64.6224 -2.29608 2.2817 0
M  V30 702 H 63.5294 -0.472124 3.71109 0
M  V30 703 H 64.8624 -0.640695 4.88012 0
M  V30 704 N 66.5145 -1.57545 0.0417849 0
M  V30 705 C 67.7615 -1.92317 -0.634082 0
M  V30 706 C 68.0895 -0.919334 -1.71402 0
M  V30 707 O 67.3445 0.0698253 -1.95575 0
M  V30 708 C 67.6435 -3.33794 -1.27735 0
M  V30 709 C 67.3095 -4.49716 -0.326543 0
M  V30 710 C 65.9715 -4.81156 -0.0648814 0
M  V30 711 C 68.3235 -5.20182 0.325623 0
M  V30 712 C 65.6515 -5.80414 0.856539 0
M  V30 713 C 68.0035 -6.20424 1.23518 0
M  V30 714 C 66.6675 -6.50298 1.5056 0
M  V30 715 H 65.9375 -0.703736 -0.232027 0
M  V30 716 H 68.5845 -1.91205 0.106259 0
M  V30 717 H 66.8895 -3.31228 -2.09274 0
M  V30 718 H 68.5865 -3.57975 -1.80707 0
M  V30 719 H 65.1765 -4.25176 -0.540665 0
M  V30 720 H 69.3605 -4.96112 0.136546 0
M  V30 721 H 64.6165 -6.019 1.07363 0
M  V30 722 H 68.7905 -6.74141 1.74664 0
M  V30 723 H 66.4175 -7.27025 2.22123 0
M  V30 724 N 67.9926 0.231505 -1.5589 0
M  V30 725 C 69.4036 0.799327 -1.68724 0
M  V30 726 C 69.7546 1.85398 -0.642022 0
M  V30 727 O 68.8796 2.1539 0.208784 0
M  V30 728 C 69.4746 1.45664 -3.05888 0
M  V30 729 C 68.0336 1.97197 -3.20609 0
M  V30 730 C 67.1806 0.828552 -2.64632 0
M  V30 731 H 70.1316 0.00702616 -1.58698 0
M  V30 732 H 70.1526 2.32517 -3.01191 0
M  V30 733 H 69.6646 0.688808 -3.81939 0
M  V30 734 H 67.7656 2.76813 -2.4941 0
M  V30 735 H 67.8786 2.15878 -4.27707 0
M  V30 736 H 66.2426 1.23321 -2.22854 0
M  V30 737 H 67.0256 0.0735544 -3.43221 0
M  V30 738 N 69.4707 1.49531 0.497807 0
M  V30 739 C 70.3807 1.69176 1.62532 0
M  V30 740 C 71.3967 0.5744 1.64246 0
M  V30 741 O 72.5727 0.849497 1.82608 0
M  V30 742 C 69.6377 1.75695 2.98885 0
M  V30 743 C 68.6987 2.9929 3.07773 0
M  V30 744 C 67.9317 3.05488 4.37622 0
M  V30 745 O 68.1547 2.19192 5.26603 0
M  V30 746 O 67.0887 3.9798 4.51548 0
M  V30 747 H 70.9147 2.647 1.48887 0
M  V30 748 H 68.4997 1.3331 0.674441 0
M  V30 749 H 70.3817 1.82317 3.79919 0
M  V30 750 H 69.0567 0.8335 3.12785 0
M  V30 751 H 67.9637 2.98183 2.25915 0
M  V30 752 H 69.2967 3.91125 2.98801 0
M  V30 753 N 70.9488 -0.749086 1.3866 0
M  V30 754 C 71.8818 -1.87111 1.30631 0
M  V30 755 C 72.8598 -1.61572 0.18251 0
M  V30 756 O 74.0438 -1.85019 0.360592 0
M  V30 757 C 71.1708 -3.22815 1.02511 0
M  V30 758 C 70.2168 -3.67234 2.1689 0
M  V30 759 S 71.0498 -3.78245 3.79066 0
M  V30 760 C 72.2058 -5.16761 3.53142 0
M  V30 761 H 72.4388 -1.93636 2.25594 0
M  V30 762 H 69.9718 -0.912525 1.24549 0
M  V30 763 H 71.9298 -4.01181 0.869701 0
M  V30 764 H 70.5908 -3.13964 0.0925884 0
M  V30 765 H 69.7838 -4.65677 1.92771 0
M  V30 766 H 69.3858 -2.96034 2.28561 0
M  V30 767 H 71.6778 -6.02656 3.09534 0
M  V30 768 H 72.6208 -5.45902 4.50995 0
M  V30 769 H 73.0288 -4.85771 2.87554 0
M  V30 770 N 72.4269 -1.23603 -0.977757 0
M  V30 771 C 73.3749 -1.01704 -2.09187 0
M  V30 772 C 74.3689 0.0448214 -1.69341 0
M  V30 773 O 75.5749 -0.108902 -1.7967 0
M  V30 774 H 71.9499 -0.311803 -0.684312 0
M  V30 775 H 73.9209 -1.96207 -2.24823 0
M  V30 776 C 72.6699 -0.627746 -3.41986 0
M  V30 777 H 71.9929 -1.43656 -3.73099 0
M  V30 778 H 73.4329 -0.514053 -4.20872 0
M  V30 779 C 71.8919 0.664238 -3.30287 0
M  V30 780 O 72.4219 1.71268 -3.6336 0
M  V30 781 N 70.6279 0.641156 -2.83439 0
M  V30 782 H 70.1749 -0.212376 -2.56723 0
M  V30 783 H 70.1329 1.50583 -2.75993 0
M  V30 784 N 73.905 1.17692 -1.04816 0
M  V30 785 C 74.835 2.23777 -0.666791 0
M  V30 786 C 75.816 1.66796 0.33361 0
M  V30 787 O 77.001 1.93039 0.212042 0
M  V30 788 C 74.131 3.47281 -0.0367933 0
M  V30 789 C 73.085 4.17059 -0.961546 0
M  V30 790 C 72.411 5.34342 -0.195626 0
M  V30 791 C 73.711 4.69713 -2.28402 0
M  V30 792 H 75.405 2.55933 -1.55367 0
M  V30 793 H 72.951 1.23019 -0.748484 0
M  V30 794 H 74.904 4.20706 0.241775 0
M  V30 795 H 73.628 3.14381 0.885004 0
M  V30 796 H 72.287 3.45541 -1.22462 0
M  V30 797 H 71.935 4.97692 0.728816 0
M  V30 798 H 71.635 5.81966 -0.811775 0
M  V30 799 H 73.159 6.10553 0.0757473 0
M  V30 800 H 74.573 5.34794 -2.06563 0
M  V30 801 H 72.97 5.279 -2.8538 0
M  V30 802 H 74.04 3.86726 -2.92525 0
M  V30 803 N 75.3831 0.828654 1.34056 0
M  V30 804 C 76.2931 0.256725 2.33191 0
M  V30 805 C 77.3091 -0.611898 1.62886 0
M  V30 806 O 78.4851 -0.51844 1.94613 0
M  V30 807 C 75.5501 -0.567238 3.42028 0
M  V30 808 C 74.6111 0.324458 4.28072 0
M  V30 809 C 73.8441 -0.460274 5.31712 0
M  V30 810 O 74.0671 -1.693 5.44696 0
M  V30 811 O 73.0011 0.160391 6.01686 0
M  V30 812 H 76.8271 1.07739 2.83947 0
M  V30 813 H 74.4121 0.59093 1.37217 0
M  V30 814 H 76.2941 -1.03582 4.08471 0
M  V30 815 H 74.9691 -1.36513 2.93506 0
M  V30 816 H 73.8761 0.840659 3.64532 0
M  V30 817 H 75.2091 1.08685 4.8005 0
M  V30 818 N 76.8612 -1.46375 0.584142 0
M  V30 819 C 78.0862 -2.07268 0.0740405 0
M  V30 820 C 78.5112 -1.42979 -1.22223 0
M  V30 821 O 77.8692 -0.514092 -1.73859 0
M  V30 822 C 77.9172 -3.60518 -0.0767769 0
M  V30 823 O 77.0212 -3.96533 -1.13292 0
M  V30 824 H 76.3622 -0.660961 0.0634524 0
M  V30 825 H 78.8922 -1.87991 0.807492 0
M  V30 826 H 78.9022 -4.07021 -0.282489 0
M  V30 827 H 77.5772 -4.06702 0.86986 0
M  V30 828 H 76.1542 -3.61738 -0.905553 0
M  V30 829 N 78.3393 -0.321999 -1.54275 0
M  V30 830 C 79.5853 0.281461 -2.00837 0
M  V30 831 C 79.9183 1.51909 -1.20985 0
M  V30 832 O 79.1933 1.923 -0.291733 0
M  V30 833 C 79.4763 0.617162 -3.54772 0
M  V30 834 C 79.3293 -0.631064 -4.45351 0
M  V30 835 C 80.6483 1.43542 -4.16033 0
M  V30 836 H 77.7673 0.100826 -0.730071 0
M  V30 837 H 80.4093 -0.438268 -1.84876 0
M  V30 838 H 78.5593 1.23034 -3.68504 0
M  V30 839 H 80.2313 -1.26934 -4.43492 0
M  V30 840 H 78.4743 -1.26025 -4.15091 0
M  V30 841 H 79.1453 -0.351735 -5.50878 0
M  V30 842 H 81.6213 0.917134 -4.05867 0
M  V30 843 H 80.4973 1.63907 -5.23856 0
M  V30 844 H 80.7583 2.43108 -3.69257 0
M  V30 845 N 79.8174 1.5752 -0.0501392 0
M  V30 846 C 81.0454 1.96963 0.633492 0
M  V30 847 C 81.4604 0.927631 1.6444 0
M  V30 848 O 80.8174 -0.0882665 1.82286 0
M  V30 849 C 80.8684 3.36487 1.32132 0
M  V30 850 O 80.5894 4.36693 0.350894 0
M  V30 851 C 82.0904 3.90682 2.09481 0
M  V30 852 H 79.3104 0.648244 0.173266 0
M  V30 853 H 81.8544 2.0417 -0.116134 0
M  V30 854 H 80.0094 3.30434 2.02218 0
M  V30 855 H 80.4234 5.17702 0.841735 0
M  V30 856 H 81.8974 4.90591 2.5303 0
M  V30 857 H 82.3744 3.26053 2.94255 0
M  V30 858 H 82.9804 4.00069 1.44307 0
M  V30 859 N 81.2955 -0.223234 1.56011 0
M  V30 860 C 82.7065 -0.790368 1.69145 0
M  V30 861 C 83.0575 -1.85055 0.651845 0
M  V30 862 O 82.1825 -2.15498 -0.197359 0
M  V30 863 C 82.7775 -1.4404 3.06656 0
M  V30 864 C 81.3365 -1.95494 3.2165 0
M  V30 865 C 80.4835 -0.814506 2.65068 0
M  V30 866 H 83.4345 0.00139011 1.587 0
M  V30 867 H 83.4555 -2.30916 3.0242 0
M  V30 868 H 82.9675 -0.668543 3.82298 0
M  V30 869 H 81.0685 -2.75487 2.50874 0
M  V30 870 H 81.1815 -2.13607 4.28846 0
M  V30 871 H 79.5455 -1.22137 2.23505 0
M  V30 872 H 80.3285 -0.0553515 3.43255 0
M  V30 873 N 82.7736 -1.49793 -0.48987 0
M  V30 874 C 83.7066 -1.61898 -1.60823 0
M  V30 875 C 84.6846 -0.467651 -1.5573 0
M  V30 876 O 85.8686 -0.684682 -1.75626 0
M  V30 877 C 82.9956 -1.58422 -2.99366 0
M  V30 878 C 82.0416 -2.78889 -3.22682 0
M  V30 879 S 82.8746 -4.40429 -3.04602 0
M  V30 880 C 84.0306 -4.39617 -4.4552 0
M  V30 881 H 84.2636 -2.56502 -1.50312 0
M  V30 882 H 81.7966 -1.38822 -0.675849 0
M  V30 883 H 83.7546 -1.57103 -3.79248 0
M  V30 884 H 82.4156 -0.650866 -3.07283 0
M  V30 885 H 81.6086 -2.72708 -4.23847 0
M  V30 886 H 81.2106 -2.77678 -2.50541 0
M  V30 887 H 83.5026 -4.12022 -5.37814 0
M  V30 888 H 84.4456 -5.41097 -4.56749 0
M  V30 889 H 84.8536 -3.69554 -4.2672 0
M  V30 890 N 84.2517 0.741722 -1.39055 0
M  V30 891 C 85.4797 1.53098 -1.39171 0
M  V30 892 C 85.8947 1.88794 0.0155099 0
M  V30 893 O 85.2517 1.53626 0.985159 0
M  V30 894 C 85.3027 2.82274 -2.2584 0
M  V30 895 O 85.0237 2.48097 -3.61081 0
M  V30 896 C 86.5247 3.76343 -2.34266 0
M  V30 897 H 83.7447 0.473335 -0.4756 0
M  V30 898 H 86.2887 0.917045 -1.82785 0
M  V30 899 H 84.4437 3.40015 -1.85656 0
M  V30 900 H 84.8577 3.31029 -4.06842 0
M  V30 901 H 86.3317 4.63898 -2.9917 0
M  V30 902 H 86.8087 4.17619 -1.35982 0
M  V30 903 H 87.4147 3.24523 -2.74891 0
M  V30 904 N 85.7298 1.2412 0.971189 0
M  V30 905 C 86.6598 1.05508 2.08304 0
M  V30 906 C 87.6408 -0.0308864 1.70072 0
M  V30 907 O 88.8258 0.135521 1.93727 0
M  V30 908 C 85.9558 0.655365 3.4106 0
M  V30 909 C 84.9098 1.68971 3.93234 0
M  V30 910 C 84.2358 1.14516 5.22293 0
M  V30 911 C 85.5358 3.08487 4.21465 0
M  V30 912 H 87.2298 1.98507 2.24132 0
M  V30 913 H 84.7758 0.955821 1.07704 0
M  V30 914 H 86.7288 0.51217 4.18276 0
M  V30 915 H 85.4528 -0.31032 3.25122 0
M  V30 916 H 84.1118 1.82106 3.18171 0
M  V30 917 H 83.7598 0.170189 5.02712 0
M  V30 918 H 83.4598 1.83635 5.58168 0
M  V30 919 H 84.9838 1.01401 6.02121 0
M  V30 920 H 86.3978 2.98601 4.89398 0
M  V30 921 H 84.7948 3.74926 4.68562 0
M  V30 922 H 85.8648 3.56787 3.28376 0
M  V30 923 N 87.2079 -1.17134 1.05439 0
M  V30 924 C 88.4359 -1.91372 0.786414 0
M  V30 925 C 88.8509 -1.76955 -0.658202 0
M  V30 926 O 88.2079 -1.10838 -1.44987 0
M  V30 927 C 88.2589 -3.42356 1.1608 0
M  V30 928 O 87.9799 -3.56332 2.54871 0
M  V30 929 C 89.4809 -4.33663 0.919322 0
M  V30 930 H 86.7009 -0.607118 0.285743 0
M  V30 931 H 89.2449 -1.48525 1.40572 0
M  V30 932 H 87.3999 -3.82939 0.586191 0
M  V30 933 H 87.8139 -4.49896 2.69618 0
M  V30 934 H 89.2879 -5.38099 1.231 0
M  V30 935 H 89.7649 -4.38959 -0.145359 0
M  V30 936 H 90.3709 -3.98796 1.47789 0
M  V30 937 N 88.686 -0.835752 -1.33615 0
M  V30 938 C 89.914 -0.443344 -2.02094 0
M  V30 939 C 90.329 0.954522 -1.62894 0
M  V30 940 O 89.686 1.61982 -0.840723 0
M  V30 941 C 89.737 -0.550775 -3.5728 0
M  V30 942 O 89.458 -1.89356 -3.95065 0
M  V30 943 C 90.959 -0.154919 -4.43029 0
M  V30 944 H 88.179 -0.176359 -0.647409 0
M  V30 945 H 90.723 -1.12746 -1.70612 0
M  V30 946 H 88.878 0.0853997 -3.87306 0
M  V30 947 H 89.292 -1.87687 -4.89769 0
M  V30 948 H 90.766 -0.281144 -5.51284 0
M  V30 949 H 91.243 0.902863 -4.2982 0
M  V30 950 H 91.849 -0.765404 -4.18356 0
M  V30 951 N 90.1641 1.46063 -0.591896 0
M  V30 952 C 91.0941 2.33172 0.123673 0
M  V30 953 C 92.0751 1.45897 0.87453 0
M  V30 954 O 93.2601 1.74698 0.848181 0
M  V30 955 C 90.3901 3.28336 1.13194 0
M  V30 956 C 89.3441 4.25124 0.495324 0
M  V30 957 C 88.6701 5.09863 1.61071 0
M  V30 958 C 89.9701 5.19143 -0.573425 0
M  V30 959 H 91.6641 2.93252 -0.603646 0
M  V30 960 H 89.2101 1.41014 -0.291741 0
M  V30 961 H 91.1631 3.88137 1.64097 0
M  V30 962 H 89.8871 2.66383 1.88965 0
M  V30 963 H 88.5461 3.66599 0.00729452 0
M  V30 964 H 88.1941 4.44288 2.35832 0
M  V30 965 H 87.8941 5.75417 1.19035 0
M  V30 966 H 89.4181 5.72529 2.12233 0
M  V30 967 H 90.8321 5.73106 -0.1491 0
M  V30 968 H 89.2291 5.93089 -0.914636 0
M  V30 969 H 90.2991 4.62519 -1.45617 0
M  V30 970 N 91.6422 0.330177 1.54103 0
M  V30 971 C 92.5522 -0.541534 2.28264 0
M  V30 972 C 93.5682 -1.12351 1.32866 0
M  V30 973 O 94.7442 -1.14206 1.65888 0
M  V30 974 C 91.8092 -1.68322 3.03098 0
M  V30 975 C 90.8702 -1.13238 4.14096 0
M  V30 976 C 90.1032 -2.21966 4.85352 0
M  V30 977 O 90.3262 -3.42437 4.56172 0
M  V30 978 O 89.2602 -1.87013 5.7211 0
M  V30 979 H 93.0862 0.060938 3.03639 0
M  V30 980 H 90.6712 0.09565 1.49093 0
M  V30 981 H 92.5532 -2.34777 3.49939 0
M  V30 982 H 91.2282 -2.27176 2.30593 0
M  V30 983 H 90.1352 -0.432736 3.71589 0
M  V30 984 H 91.4682 -0.588898 4.88664 0
M  V30 985 N 93.1203 -1.57491 0.0584922 0
M  V30 986 C 94.3683 -1.92597 -0.612436 0
M  V30 987 C 94.6893 -0.938162 -1.70949 0
M  V30 988 O 93.9593 0.0158301 -1.95894 0
M  V30 989 H 92.5393 -0.710964 -0.229214 0
M  V30 990 H 95.2013 -1.94571 0.113218 0
M  V30 991 H 94.2973 -2.94038 -1.04633 0
M  V30 992 N 94.5984 0.214957 -1.56127 0
M  V30 993 C 95.8464 0.936518 -1.79091 0
M  V30 994 C 96.1674 1.84606 -0.628148 0
M  V30 995 O 95.4374 1.92664 0.35462 0
M  V30 996 H 94.0174 0.3488 -0.660566 0
M  V30 997 H 96.6794 0.22523 -1.93594 0
M  V30 998 H 95.7754 1.53943 -2.71492 0
M  V30 999 N 96.0765 1.50051 0.48192 0
M  V30 1000 C 97.0245 1.68635 1.60203 0
M  V30 1001 C 98.0185 0.552184 1.60148 0
M  V30 1002 O 99.2245 0.732377 1.64427 0
M  V30 1003 H 95.5995 0.532081 0.531407 0
M  V30 1004 H 97.5705 2.62616 1.41688 0
M  V30 1005 C 96.3195 1.78775 2.9822 0
M  V30 1006 H 95.6425 2.6543 2.98976 0
M  V30 1007 H 97.0825 1.95806 3.7608 0
M  V30 1008 C 95.5415 0.536849 3.32595 0
M  V30 1009 O 96.0715 -0.328897 4.00351 0
M  V30 1010 N 94.2775 0.394091 2.87915 0
M  V30 1011 H 93.8245 1.09962 2.32951 0
M  V30 1012 H 93.7825 -0.441737 3.11281 0
M  V30 1013 N 97.5546 -0.734337 1.39446 0
M  V30 1014 C 98.4846 -1.86155 1.40955 0
M  V30 1015 C 99.4656 -1.67898 0.272827 0
M  V30 1016 O 100.651 -1.88207 0.478743 0
M  V30 1017 C 97.7806 -3.23912 1.25294 0
M  V30 1018 C 96.7346 -3.56808 2.36373 0
M  V30 1019 C 96.0606 -4.93508 2.058 0
M  V30 1020 C 97.3606 -3.59713 3.78687 0
M  V30 1021 H 99.0546 -1.8515 2.35287 0
M  V30 1022 H 96.6006 -0.889367 1.13253 0
M  V30 1023 H 98.5536 -4.02443 1.2497 0
M  V30 1024 H 97.2776 -3.25446 0.274308 0
M  V30 1025 H 95.9366 -2.80606 2.35914 0
M  V30 1026 H 95.5846 -4.91623 1.06374 0
M  V30 1027 H 95.2846 -5.16486 2.80208 0
M  V30 1028 H 96.8086 -5.74396 2.07128 0
M  V30 1029 H 98.2226 -4.2832 3.81071 0
M  V30 1030 H 96.6196 -3.94209 4.52459 0
M  V30 1031 H 97.6896 -2.59504 4.09617 0
M  V30 1032 N 99.0327 -1.24633 -0.964593 0
M  V30 1033 C 99.9427 -1.05859 -2.09359 0
M  V30 1034 C 100.959 0.00148855 -1.74 0
M  V30 1035 O 102.135 -0.197346 -2.00431 0
M  V30 1036 C 99.1997 -0.668879 -3.40187 0
M  V30 1037 C 98.2607 -1.80578 -3.89474 0
M  V30 1038 C 97.4937 -1.43457 -5.14058 0
M  V30 1039 O 97.7167 -0.325775 -5.69469 0
M  V30 1040 O 96.6507 -2.2613 -5.57807 0
M  V30 1041 H 100.477 -2.00516 -2.28094 0
M  V30 1042 H 98.0617 -1.03481 -1.0776 0
M  V30 1043 H 99.9437 -0.463211 -4.18846 0
M  V30 1044 H 98.6187 0.248536 -3.22744 0
M  V30 1045 H 97.5257 -2.06623 -3.11862 0
M  V30 1046 H 98.8587 -2.70208 -4.11398 0
M  V30 1047 N 100.511 1.16574 -1.06058 0
M  V30 1048 C 101.474 2.19085 -0.673392 0
M  V30 1049 C 102.474 1.5835 0.279648 0
M  V30 1050 O 103.664 1.74088 0.0623488 0
M  V30 1051 C 100.796 3.40899 0.00954234 0
M  V30 1052 H 101.989 2.54853 -1.58081 0
M  V30 1053 H 99.5418 1.30808 -0.855516 0
M  V30 1054 H 100.277 3.10684 0.929826 0
M  V30 1055 H 100.062 3.86233 -0.67573 0
M  V30 1056 H 101.552 4.1675 0.266245 0
M  V30 1057 N 101.989 0.842826 1.3317 0
M  V30 1058 C 102.936 0.276885 2.29133 0
M  V30 1059 C 103.906 -0.609527 1.54512 0
M  V30 1060 O 105.091 -0.546955 1.82792 0
M  V30 1061 C 102.231 -0.538707 3.40869 0
M  V30 1062 C 101.344 0.372169 4.30394 0
M  V30 1063 C 100.479 -0.454908 5.29249 0
M  V30 1064 C 99.5179 0.45411 6.10413 0
M  V30 1065 N 98.6549 -0.335075 7.013 0
M  V30 1066 H 103.495 1.10052 2.76934 0
M  V30 1067 H 101.032 0.554161 1.36262 0
M  V30 1068 H 102.99 -1.02709 4.0436 0
M  V30 1069 H 101.62 -1.32727 2.9425 0
M  V30 1070 H 100.672 0.97888 3.6759 0
M  V30 1071 H 101.984 1.0703 4.87182 0
M  V30 1072 H 101.138 -1.00695 5.98285 0
M  V30 1073 H 99.8769 -1.18646 4.73048 0
M  V30 1074 H 98.8819 1.01813 5.40291 0
M  V30 1075 H 100.107 1.18409 6.68697 0
M  V30 1076 H 98.0529 -1.04994 6.47543 0
M  V30 1077 H 97.9699 0.304262 7.55387 0
M  V30 1078 H 99.2379 -0.869224 7.74638 0
M  V30 1079 N 103.467 -1.45747 0.599634 0
M  V30 1080 C 104.713 -2.02592 0.0918643 0
M  V30 1081 C 105.046 -1.46806 -1.27128 0
M  V30 1082 O 104.321 -0.639658 -1.83681 0
M  V30 1083 C 104.604 -3.60073 0.0443398 0
M  V30 1084 C 104.457 -4.26208 1.43759 0
M  V30 1085 C 105.776 -4.35309 -0.647608 0
M  V30 1086 H 102.895 -0.736175 0.034857 0
M  V30 1087 H 105.537 -1.73694 0.770081 0
M  V30 1088 H 103.687 -3.84823 -0.533224 0
M  V30 1089 H 105.359 -4.12668 2.06162 0
M  V30 1090 H 103.602 -3.84916 2.00056 0
M  V30 1091 H 104.273 -5.35069 1.35665 0
M  V30 1092 H 106.749 -4.15805 -0.156776 0
M  V30 1093 H 105.625 -5.45038 -0.649942 0
M  V30 1094 H 105.886 -4.07598 -1.71219 0
M  V30 1095 N 104.945 -0.338344 -1.53925 0
M  V30 1096 C 106.173 0.261298 -2.05243 0
M  V30 1097 C 106.588 1.44625 -1.21363 0
M  V30 1098 O 105.945 1.80811 -0.247736 0
M  V30 1099 C 105.996 0.681412 -3.5502 0
M  V30 1100 O 105.717 -0.456414 -4.35716 0
M  V30 1101 C 107.218 1.34232 -4.22489 0
M  V30 1102 H 104.438 0.0513685 -0.669031 0
M  V30 1103 H 106.982 -0.488822 -1.98572 0
M  V30 1104 H 105.137 1.38148 -3.61931 0
M  V30 1105 H 105.551 -0.122564 -5.24357 0
M  V30 1106 H 107.025 1.58708 -5.28693 0
M  V30 1107 H 107.502 2.29426 -3.74514 0
M  V30 1108 H 108.108 0.684424 -4.19757 0
M  V30 1109 N 106.423 1.57458 -0.0668435 0
M  V30 1110 C 107.356 2.08033 0.93795 0
M  V30 1111 C 108.334 0.984321 1.29421 0
M  V30 1112 O 109.518 1.25736 1.40437 0
M  V30 1113 C 106.645 2.53388 2.24749 0
M  V30 1114 C 105.691 3.74376 2.04315 0
M  V30 1115 S 106.524 5.19303 1.30706 0
M  V30 1116 C 107.68 5.67986 2.62951 0
M  V30 1117 H 107.913 2.92935 0.50759 0
M  V30 1118 H 105.446 1.5371 0.145804 0
M  V30 1119 H 107.404 2.8018 3.00016 0
M  V30 1120 H 106.065 1.68763 2.64911 0
M  V30 1121 H 105.258 4.04083 3.01218 0
M  V30 1122 H 104.86 3.47931 1.37186 0
M  V30 1123 H 107.152 5.74528 3.5906 0
M  V30 1124 H 108.095 6.66955 2.3786 0
M  V30 1125 H 108.503 4.95781 2.69929 0
M  V30 1126 N 107.901 -0.206675 1.56239 0
M  V30 1127 C 108.831 -1.25909 1.96645 0
M  V30 1128 C 109.812 -1.48097 0.836734 0
M  V30 1129 O 110.997 -1.6003 1.10019 0
M  V30 1130 C 108.127 -2.6058 2.29599 0
M  V30 1131 C 107.081 -2.53024 3.452 0
M  V30 1132 C 106.407 -3.91861 3.63798 0
M  V30 1133 C 107.707 -2.06524 4.79734 0
M  V30 1134 H 109.401 -0.923369 2.84806 0
M  V30 1135 H 106.947 -0.442735 1.37025 0
M  V30 1136 H 108.9 -3.34375 2.56459 0
M  V30 1137 H 107.624 -2.95869 1.38307 0
M  V30 1138 H 106.283 -1.81684 3.18412 0
M  V30 1139 H 105.931 -4.24483 2.69857 0
M  V30 1140 H 105.631 -3.87683 4.4156 0
M  V30 1141 H 107.155 -4.67296 3.93022 0
M  V30 1142 H 108.569 -2.70072 5.05702 0
M  V30 1143 H 106.966 -2.13374 5.60885 0
M  V30 1144 H 108.036 -1.01802 4.74093 0
M  V30 1145 N 109.379 -1.50304 -0.473955 0
M  V30 1146 C 110.628 -1.60392 -1.22301 0
M  V30 1147 C 110.941 -0.308411 -1.93153 0
M  V30 1148 O 112.147 -0.288156 -2.69966 0
M  V30 1149 C 110.603 -2.83109 -2.2221 0
M  V30 1150 C 110.211 -4.19524 -1.57173 0
M  V30 1151 C 111.955 -3.0254 -2.97775 0
M  V30 1152 C 109.862 -5.33431 -2.55353 0
M  V30 1153 H 108.792 -0.597286 -0.460179 0
M  V30 1154 H 111.443 -1.76731 -0.493803 0
M  V30 1155 H 109.825 -2.60322 -2.9841 0
M  V30 1156 H 110.999 -4.52554 -0.867824 0
M  V30 1157 H 109.314 -4.05674 -0.939002 0
M  V30 1158 H 111.911 -3.84811 -3.71248 0
M  V30 1159 H 112.254 -2.14154 -3.56992 0
M  V30 1160 H 112.787 -3.25494 -2.28688 0
M  V30 1161 H 109.526 -6.23962 -2.00878 0
M  V30 1162 H 109.046 -5.04823 -3.23904 0
M  V30 1163 H 110.725 -5.63887 -3.17239 0
M  V30 1164 N 110.857 0.726932 -1.39834 0
M  V30 1165 C 112.082 1.52121 -1.40976 0
M  V30 1166 C 112.507 1.88098 -0.00826029 0
M  V30 1167 O 111.865 1.52479 0.980807 0
M  V30 1168 C 111.913 2.78021 -2.29644 0
M  V30 1169 O 111.017 3.74272 -1.73188 0
M  V30 1170 H 110.358 0.45908 -0.479731 0
M  V30 1171 H 112.888 0.896207 -1.83927 0
M  V30 1172 H 112.898 3.26671 -2.44438 0
M  V30 1173 H 111.573 2.51169 -3.31492 0
M  V30 1174 H 110.15 3.33073 -1.6768 0
M  V30 1175 N 112.336 1.25143 0.95797 0
M  V30 1176 C 113.584 1.09476 1.69881 0
M  V30 1177 C 113.905 -0.365502 1.91544 0
M  V30 1178 O 113.175 -1.25985 1.50015 0
M  V30 1179 H 111.755 0.402128 0.629525 0
M  V30 1180 H 114.417 1.57214 1.15194 0
M  V30 1181 H 113.513 1.60046 2.6794 0
M  V30 1182 N 113.814 -1.1601 1.06675 0
M  V30 1183 C 115.23 -1.38622 0.790948 0
M  V30 1184 C 115.43 -1.92109 -0.607965 0
M  V30 1185 O 114.486 -2.12239 -1.36787 0
M  V30 1186 C 115.799 -2.36347 1.85905 0
M  V30 1187 C 117.347 -2.50023 1.88301 0
M  V30 1188 C 117.822 -3.51033 2.94176 0
M  V30 1189 N 119.313 -3.58563 2.93235 0
M  V30 1190 C 120.048 -4.36521 3.71803 0
M  V30 1191 N 119.544 -5.17869 4.602 0
M  V30 1192 N 121.337 -4.31541 3.60178 0
M  V30 1193 H 113.488 -0.796294 1.96908 0
M  V30 1194 H 115.751 -0.412597 0.853503 0
M  V30 1195 H 115.457 -2.04147 2.86386 0
M  V30 1196 H 115.331 -3.36042 1.71334 0
M  V30 1197 H 117.718 -2.81524 0.884769 0
M  V30 1198 H 117.799 -1.5035 2.06951 0
M  V30 1199 H 117.443 -3.20268 3.94196 0
M  V30 1200 H 117.373 -4.50445 2.72776 0
M  V30 1201 H 119.864 -3.00496 2.29152 0
M  V30 1202 H 120.177 -5.74578 5.16797 0
M  V30 1203 H 118.522 -5.17199 4.64253 0
M  V30 1204 H 121.713 -3.67051 2.90502 0
M  V30 1205 H 121.886 -4.9205 4.21653 0
M  V30 1206 N 115.292 -0.849877 -1.32721 0
M  V30 1207 C 116.532 -0.457146 -1.99222 0
M  V30 1208 C 116.896 0.968038 -1.6581 0
M  V30 1209 O 118.097 1.46507 -2.25364 0
M  V30 1210 C 116.368 -0.683966 -3.50794 0
M  V30 1211 S 117.927 -0.388095 -4.3708 0
M  V30 1212 H 114.745 -0.171464 -0.690015 0
M  V30 1213 H 117.347 -1.10155 -1.61512 0
M  V30 1214 H 116.051 -1.72038 -3.726 0
M  V30 1215 H 115.582 -0.0258086 -3.93392 0
M  V30 1216 H 117.597 0.787791 -4.89906 0
M  V30 1217 N 116.77 1.45427 -0.607355 0
M  V30 1218 C 117.702 2.2871 0.149752 0
M  V30 1219 C 118.715 1.39937 0.831958 0
M  V30 1220 O 119.904 1.64313 0.697385 0
M  V30 1221 C 117.004 3.15673 1.23304 0
M  V30 1222 C 116.177 4.32722 0.637996 0
M  V30 1223 C 115.236 5.00895 1.61215 0
M  V30 1224 O 114.262 5.57697 1.13854 0
M  V30 1225 N 115.464 5.00159 2.94655 0
M  V30 1226 H 118.229 2.94328 -0.564882 0
M  V30 1227 H 115.79 1.55612 -0.446823 0
M  V30 1228 H 117.782 3.58144 1.88454 0
M  V30 1229 H 116.352 2.51965 1.8502 0
M  V30 1230 H 115.572 3.93734 -0.191572 0
M  V30 1231 H 116.86 5.08321 0.220665 0
M  V30 1232 H 116.258 4.553 3.35735 0
M  V30 1233 H 114.815 5.46495 3.55228 0
M  V30 1234 N 118.248 0.346503 1.53744 0
M  V30 1235 C 119.158 -0.517293 2.28826 0
M  V30 1236 C 120.174 -1.10935 1.3405 0
M  V30 1237 O 121.35 -1.1244 1.6709 0
M  V30 1238 C 118.415 -1.65098 3.04866 0
M  V30 1239 C 117.476 -1.0884 4.15274 0
M  V30 1240 C 116.709 -2.16806 4.87679 0
M  V30 1241 O 116.932 -3.3758 4.59778 0
M  V30 1242 O 115.866 -1.80934 5.74061 0
M  V30 1243 H 119.692 0.0931396 3.03557 0
M  V30 1244 H 117.277 0.111458 1.48984 0
M  V30 1245 H 119.159 -2.31053 3.5241 0
M  V30 1246 H 117.834 -2.24717 2.32989 0
M  V30 1247 H 116.741 -0.3933 3.72027 0
M  V30 1248 H 118.074 -0.537036 4.89261 0
M  V30 1249 N 119.726 -1.57421 0.075193 0
M  V30 1250 C 120.972 -1.93905 -0.594025 0
M  V30 1251 C 121.305 -0.955701 -1.69056 0
M  V30 1252 O 120.58 0.0145373 -1.94495 0
M  V30 1253 C 120.863 -3.40638 -1.1678 0
M  V30 1254 C 120.716 -4.49733 -0.0776792 0
M  V30 1255 C 122.035 -3.88259 -2.07228 0
M  V30 1256 H 119.154 -0.705105 -0.214466 0
M  V30 1257 H 121.796 -1.8947 0.141854 0
M  V30 1258 H 119.946 -3.44549 -1.79494 0
M  V30 1259 H 121.618 -4.57942 0.555573 0
M  V30 1260 H 119.861 -4.29751 0.591286 0
M  V30 1261 H 120.532 -5.49549 -0.519603 0
M  V30 1262 H 123.008 -3.86376 -1.54445 0
M  V30 1263 H 121.884 -4.91533 -2.44308 0
M  V30 1264 H 122.145 -3.26396 -2.98191 0
M  V30 1265 N 121.204 0.198386 -1.56346 0
M  V30 1266 C 122.151 1.24589 -1.94284 0
M  V30 1267 C 123.121 1.454 -0.802997 0
M  V30 1268 O 124.306 1.58588 -1.06087 0
M  V30 1269 C 121.446 2.58631 -2.28482 0
M  V30 1270 C 120.559 2.45426 -3.55514 0
M  V30 1271 C 119.694 3.7215 -3.79049 0
M  V30 1272 C 118.733 3.53763 -4.99518 0
M  V30 1273 N 117.87 4.72491 -5.19323 0
M  V30 1274 H 122.71 0.915356 -2.83593 0
M  V30 1275 H 120.247 0.440629 -1.40346 0
M  V30 1276 H 122.205 3.3672 -2.46324 0
M  V30 1277 H 120.835 2.89734 -1.42317 0
M  V30 1278 H 119.887 1.58652 -3.45737 0
M  V30 1279 H 121.199 2.27772 -4.43758 0
M  V30 1280 H 120.353 4.58679 -3.97113 0
M  V30 1281 H 119.092 3.92754 -2.89129 0
M  V30 1282 H 118.097 2.65619 -4.8138 0
M  V30 1283 H 119.322 3.34607 -5.90944 0
M  V30 1284 H 117.268 4.93365 -4.3235 0
M  V30 1285 H 117.185 4.5765 -6.01741 0
M  V30 1286 H 118.453 5.6038 -5.41843 0
M  V30 1287 N 122.682 1.50554 0.465978 0
M  V30 1288 C 123.645 1.69233 1.54574 0
M  V30 1289 C 124.645 0.562901 1.50626 0
M  V30 1290 O 125.835 0.830016 1.53155 0
M  V30 1291 C 122.967 1.7223 2.94193 0
M  V30 1292 H 124.16 2.65571 1.39327 0
M  V30 1293 H 121.713 1.40111 0.692711 0
M  V30 1294 H 122.448 0.77603 3.14878 0
M  V30 1295 H 122.233 2.54285 2.98466 0
M  V30 1296 H 123.723 1.88618 3.72576 0
M  V30 1297 N 124.16 -0.719506 1.40217 0
M  V30 1298 C 125.406 -1.48152 1.38488 0
M  V30 1299 C 125.739 -1.94195 -0.0141867 0
M  V30 1300 O 125.014 -1.67884 -0.982096 0
M  V30 1301 C 125.297 -2.71035 2.37091 0
M  V30 1302 C 125.15 -2.30912 3.86005 0
M  V30 1303 C 126.469 -3.73182 2.33288 0
M  V30 1304 H 123.588 -0.537395 0.504357 0
M  V30 1305 H 126.23 -0.821472 1.71324 0
M  V30 1306 H 124.38 -3.27352 2.0922 0
M  V30 1307 H 126.052 -1.80107 4.24687 0
M  V30 1308 H 124.295 -1.62958 4.02029 0
M  V30 1309 H 124.966 -3.18978 4.50508 0
M  V30 1310 H 127.442 -3.26485 2.57966 0
M  V30 1311 H 126.318 -4.56806 3.04334 0
M  V30 1312 H 126.579 -4.21202 1.34317 0
M  V30 1313 N 125.638 -1.25649 -0.95132 0
M  V30 1314 C 126.568 -1.08808 -2.06599 0
M  V30 1315 C 127.549 0.00382547 -1.701 0
M  V30 1316 O 128.734 -0.166325 -1.93486 0
M  V30 1317 C 125.864 -0.709542 -3.39975 0
M  V30 1318 C 124.818 -1.75206 -3.90496 0
M  V30 1319 C 124.144 -1.22811 -5.20405 0
M  V30 1320 C 125.444 -3.15153 -4.16504 0
M  V30 1321 H 127.138 -2.02048 -2.20946 0
M  V30 1322 H 124.684 -0.972835 -1.06169 0
M  V30 1323 H 126.637 -0.578649 -4.17408 0
M  V30 1324 H 125.361 0.258556 -3.25575 0
M  V30 1325 H 124.02 -1.87145 -3.15234 0
M  V30 1326 H 123.668 -0.250145 -5.02378 0
M  V30 1327 H 123.368 -1.92492 -5.55176 0
M  V30 1328 H 124.892 -1.10968 -6.00432 0
M  V30 1329 H 126.306 -3.06349 -4.84586 0
M  V30 1330 H 124.703 -3.82333 -4.62538 0
M  V30 1331 H 125.773 -3.61966 -3.22658 0
M  V30 1332 N 127.117 1.15442 -1.07289 0
M  V30 1333 C 128.027 2.23786 -0.704057 0
M  V30 1334 C 129.043 1.7166 0.284413 0
M  V30 1335 O 130.219 2.00972 0.131205 0
M  V30 1336 C 127.284 3.46535 -0.106792 0
M  V30 1337 C 126.345 4.13654 -1.14842 0
M  V30 1338 C 125.578 5.30544 -0.57956 0
M  V30 1339 O 125.801 5.67187 0.604585 0
M  V30 1340 O 124.735 5.87154 -1.32414 0
M  V30 1341 H 128.561 2.57664 -1.60757 0
M  V30 1342 H 126.146 1.23152 -0.845803 0
M  V30 1343 H 128.028 4.20804 0.224048 0
M  V30 1344 H 126.703 3.14407 0.770049 0
M  V30 1345 H 125.61 3.4131 -1.5316 0
M  V30 1346 H 126.943 4.49861 -1.99714 0
M  V30 1347 N 128.595 0.856903 1.32268 0
M  V30 1348 C 129.542 0.301172 2.28827 0
M  V30 1349 C 130.512 -0.593104 1.5515 0
M  V30 1350 O 131.697 -0.527537 1.83362 0
M  V30 1351 C 128.837 -0.502523 3.41422 0
M  V30 1352 C 127.95 0.417797 4.29975 0
M  V30 1353 C 127.085 -0.398749 5.29701 0
M  V30 1354 C 126.124 0.518827 6.09897 0
M  V30 1355 N 125.261 -0.260674 7.01616 0
M  V30 1356 H 130.101 1.12983 2.75751 0
M  V30 1357 H 127.638 0.568582 1.35667 0
M  V30 1358 H 129.596 -0.984141 4.05426 0
M  V30 1359 H 128.226 -1.29599 2.95642 0
M  V30 1360 H 127.278 1.01781 3.66531 0
M  V30 1361 H 128.59 1.12191 4.86019 0
M  V30 1362 H 127.744 -0.943435 5.9932 0
M  V30 1363 H 126.483 -1.13622 4.7428 0
M  V30 1364 H 125.488 1.07538 5.39181 0
M  V30 1365 H 126.713 1.25495 6.67404 0
M  V30 1366 H 124.659 -0.981198 6.4862 0
M  V30 1367 H 124.576 0.384364 7.55022 0
M  V30 1368 H 125.844 -0.787014 7.75517 0
M  V30 1369 N 130.073 -1.45103 0.615059 0
M  V30 1370 C 131.301 -2.06553 0.11977 0
M  V30 1371 C 131.716 -1.45842 -1.19898 0
M  V30 1372 O 131.073 -0.575325 -1.73194 0
M  V30 1373 C 131.124 -3.61495 -0.018364 0
M  V30 1374 O 130.845 -4.19942 1.24822 0
M  V30 1375 C 132.346 -4.39947 -0.544237 0
M  V30 1376 H 129.566 -0.667096 0.0722739 0
M  V30 1377 H 132.11 -1.8623 0.84491 0
M  V30 1378 H 130.265 -3.81135 -0.693865 0
M  V30 1379 H 130.679 -5.13204 1.0827 0
M  V30 1380 H 132.153 -5.48838 -0.589953 0
M  V30 1381 H 132.63 -4.10255 -1.56805 0
M  V30 1382 H 133.236 -4.25188 0.0974703 0
M  V30 1383 N 131.551 -0.354651 -1.53558 0
M  V30 1384 C 132.828 0.294281 -1.93374 0
M  V30 1385 C 133.208 1.67313 -1.28723 0
M  V30 1386 O 132.556 2.24179 -0.442247 0
M  V30 1387 C 132.766 0.355445 -3.47185 0
M  V30 1388 C 134.114 0.601007 -4.20325 0
M  V30 1389 O 135.138 0.437106 -3.53508 0
M  V30 1390 O 133.997 0.919322 -5.38712 0
M  V30 1391 H 131.091 0.174033 -0.808481 0
M  V30 1392 H 133.637 -0.406638 -1.64756 0
M  V30 1393 H 132.409 -0.611729 -3.86489 0
M  V30 1394 H 132.032 1.1027 -3.82003 0
M  V30 1395 N 133.029 1.57378 -0.0835403 0
M  V30 1396 C 133.939 2.16897 0.894021 0
M  V30 1397 C 134.955 1.13528 1.31861 0
M  V30 1398 O 136.131 1.45848 1.3889 0
M  V30 1399 C 133.196 2.72831 2.13925 0
M  V30 1400 C 132.257 3.91115 1.76997 0
M  V30 1401 C 131.49 4.44371 2.95584 0
M  V30 1402 O 131.713 3.96596 4.09961 0
M  V30 1403 O 130.647 5.35549 2.74719 0
M  V30 1404 H 134.473 3.00814 0.417679 0
M  V30 1405 H 132.058 1.48741 0.140181 0
M  V30 1406 H 133.94 3.0863 2.86924 0
M  V30 1407 H 132.615 1.91967 2.60635 0
M  V30 1408 H 131.522 3.60148 1.01214 0
M  V30 1409 H 132.855 4.73307 1.3506 0
M  V30 1410 N 134.507 -0.190092 1.56449 0
M  V30 1411 C 135.918 -0.754312 1.70784 0
M  V30 1412 C 136.269 -1.83631 0.690951 0
M  V30 1413 O 135.394 -2.15868 -0.151604 0
M  V30 1414 C 135.989 -1.37503 3.09642 0
M  V30 1415 C 134.548 -1.88628 3.25725 0
M  V30 1416 C 133.695 -0.758098 2.66736 0
M  V30 1417 H 136.646 0.0350524 1.58661 0
M  V30 1418 H 136.667 -2.2445 3.0725 0
M  V30 1419 H 136.179 -0.587302 3.83631 0
M  V30 1420 H 134.28 -2.70103 2.56661 0
M  V30 1421 H 134.393 -2.04462 4.3328 0
M  V30 1422 H 132.757 -1.17369 2.26046 0
M  V30 1423 H 133.54 0.0174705 3.43296 0
M  V30 1424 N 135.985 -1.50799 -0.457987 0
M  V30 1425 C 137.233 -1.62121 -1.2067 0
M  V30 1426 C 137.554 -0.329793 -1.92191 0
M  V30 1427 O 136.824 0.653409 -1.84682 0
M  V30 1428 H 135.404 -0.597441 -0.448411 0
M  V30 1429 H 138.066 -1.87637 -0.527096 0
M  V30 1430 H 137.162 -2.43882 -1.94751 0
M  V30 1431 N 137.463 0.71206 -1.40597 0
M  V30 1432 C 138.41 1.82613 -1.41142 0
M  V30 1433 C 139.38 1.63925 -0.267903 0
M  V30 1434 O 140.565 1.85009 -0.466495 0
M  V30 1435 C 137.705 3.20354 -1.28324 0
M  V30 1436 C 136.818 3.50589 -2.52411 0
M  V30 1437 C 135.953 4.77855 -2.32009 0
M  V30 1438 C 134.992 5.01005 -3.51654 0
M  V30 1439 N 134.129 6.19487 -3.30425 0
M  V30 1440 H 138.969 1.81482 -2.36365 0
M  V30 1441 H 136.506 0.886475 -1.17388 0
M  V30 1442 H 138.464 3.99899 -1.18899 0
M  V30 1443 H 137.094 3.20705 -0.367189 0
M  V30 1444 H 136.146 2.65573 -2.72351 0
M  V30 1445 H 137.458 3.63604 -3.41458 0
M  V30 1446 H 136.612 5.65424 -2.19956 0
M  V30 1447 H 135.351 4.67056 -1.40392 0
M  V30 1448 H 134.356 4.1189 -3.64179 0
M  V30 1449 H 135.581 5.13674 -4.44202 0
M  V30 1450 H 133.527 6.09932 -2.41494 0
M  V30 1451 H 133.444 6.33194 -4.13039 0
M  V30 1452 H 134.712 7.09834 -3.22113 0
M  V30 1453 N 138.941 1.26152 0.944643 0
M  V30 1454 C 140.171 1.14094 1.72239 0
M  V30 1455 C 140.579 -0.306931 1.86694 0
M  V30 1456 O 139.922 -1.22222 1.3714 0
M  V30 1457 C 139.984 1.73316 3.14963 0
M  V30 1458 C 139.648 3.2239 3.23904 0
M  V30 1459 C 140.645 4.19252 3.07447 0
M  V30 1460 C 138.33 3.62788 3.47405 0
M  V30 1461 C 140.324 5.54491 3.14353 0
M  V30 1462 C 138.011 4.98162 3.53947 0
M  V30 1463 C 139.009 5.93823 3.37436 0
M  V30 1464 O 138.697 7.26732 3.43679 0
M  V30 1465 H 138.429 0.398292 0.546205 0
M  V30 1466 H 140.983 1.67201 1.19301 0
M  V30 1467 H 139.213 1.14667 3.69308 0
M  V30 1468 H 140.902 1.56214 3.74636 0
M  V30 1469 H 141.668 3.8938 2.8915 0
M  V30 1470 H 137.547 2.88816 3.59313 0
M  V30 1471 H 141.091 6.29137 3.01384 0
M  V30 1472 H 136.988 5.27695 3.71763 0
M  V30 1473 H 137.756 7.3496 3.60245 0
M  V30 1474 N 140.419 -1.14872 1.07899 0
M  V30 1475 C 141.647 -1.89661 0.82683 0
M  V30 1476 C 142.062 -1.78312 -0.620519 0
M  V30 1477 O 141.419 -1.13888 -1.42604 0
M  V30 1478 C 141.47 -3.39817 1.23316 0
M  V30 1479 O 141.191 -3.50845 2.62372 0
M  V30 1480 C 142.692 -4.31615 1.0111 0
M  V30 1481 H 139.912 -0.60092 0.298557 0
M  V30 1482 H 142.456 -1.4551 1.43691 0
M  V30 1483 H 140.611 -3.8161 0.667286 0
M  V30 1484 H 141.025 -4.44076 2.79101 0
M  V30 1485 H 142.499 -5.35367 1.34486 0
M  V30 1486 H 142.976 -4.39169 -0.0522168 0
M  V30 1487 H 143.582 -3.95572 1.56215 0
M  V30 1488 N 141.898 -0.863906 -1.31812 0
M  V30 1489 C 142.861 -0.320212 -2.26952 0
M  V30 1490 C 143.861 0.525369 -1.51975 0
M  V30 1491 O 145.051 0.335547 -1.70938 0
M  V30 1492 C 142.183 0.545919 -3.365 0
M  V30 1493 H 143.376 -1.16004 -2.76556 0
M  V30 1494 H 140.929 -0.638995 -1.42641 0
M  V30 1495 H 141.664 1.40718 -2.92179 0
M  V30 1496 H 141.449 -0.0594674 -3.92055 0
M  V30 1497 H 142.939 0.918796 -4.07367 0
M  V30 1498 N 143.376 1.44774 -0.622745 0
M  V30 1499 C 144.653 1.95522 -0.0551974 0
M  V30 1500 C 145.033 1.5649 1.41683 0
M  V30 1501 O 144.381 0.834848 2.12703 0
M  V30 1502 C 144.591 3.4796 -0.269242 0
M  V30 1503 C 145.939 4.24306 -0.158014 0
M  V30 1504 O 146.963 3.55637 -0.200162 0
M  V30 1505 O 145.822 5.46471 -0.0558693 0
M  V30 1506 H 142.916 0.826556 0.0271015 0
M  V30 1507 H 145.462 1.54866 -0.693864 0
M  V30 1508 H 144.234 3.6939 -1.29099 0
M  V30 1509 H 143.857 3.95543 0.403966 0
M  V30 1510 N 144.854 0.36279 1.53368 0
M  V30 1511 C 146.102 -0.227326 2.00817 0
M  V30 1512 C 146.423 -1.49511 1.25186 0
M  V30 1513 O 145.693 -1.92482 0.364348 0
M  V30 1514 H 144.273 -0.0869923 0.741917 0
M  V30 1515 H 146.935 0.488381 1.88682 0
M  V30 1516 H 146.031 -0.456273 3.08747 0
M  V30 1517 N 146.332 -1.57332 0.0918853 0
M  V30 1518 C 147.58 -1.93853 -0.571446 0
M  V30 1519 C 147.901 -0.974212 -1.6892 0
M  V30 1520 O 147.171 -0.0257254 -1.95883 0
M  V30 1521 H 145.751 -0.715666 -0.214082 0
M  V30 1522 H 148.413 -1.94287 0.154464 0
M  V30 1523 H 147.509 -2.96191 -0.983729 0
M  V30 1524 N 147.81 0.181792 -1.56548 0
M  V30 1525 C 148.757 1.22521 -1.95595 0
M  V30 1526 C 149.727 1.4454 -0.818373 0
M  V30 1527 O 150.912 1.57454 -1.07763 0
M  V30 1528 C 148.052 2.56193 -2.31212 0
M  V30 1529 C 147.165 2.41641 -3.58097 0
M  V30 1530 C 146.3 3.68108 -3.82975 0
M  V30 1531 C 145.339 3.48445 -5.03242 0
M  V30 1532 N 144.476 4.66956 -5.24306 0
M  V30 1533 H 149.316 0.885226 -2.84548 0
M  V30 1534 H 146.853 0.425718 -1.40805 0
M  V30 1535 H 148.811 3.34088 -2.49882 0
M  V30 1536 H 147.441 2.88208 -1.45382 0
M  V30 1537 H 146.493 1.54976 -3.474 0
M  V30 1538 H 147.805 2.23052 -4.46149 0
M  V30 1539 H 146.959 4.54441 -4.01956 0
M  V30 1540 H 145.698 3.89666 -2.93278 0
M  V30 1541 H 144.703 2.60499 -4.8417 0
M  V30 1542 H 145.928 3.2832 -5.9446 0
M  V30 1543 H 143.874 4.88752 -4.37559 0
M  V30 1544 H 143.791 4.51242 -6.06561 0
M  V30 1545 H 145.059 5.54602 -5.47756 0
M  V30 1546 N 149.288 1.51039 0.449983 0
M  V30 1547 C 150.238 1.67824 1.54335 0
M  V30 1548 C 151.222 0.5324 1.51836 0
M  V30 1549 O 152.414 0.787762 1.58503 0
M  V30 1550 C 149.543 1.7951 2.92628 0
M  V30 1551 C 148.629 2.99838 2.9993 0
M  V30 1552 N 149.02 4.23207 2.77001 0
M  V30 1553 C 147.318 2.98832 3.31082 0
M  V30 1554 C 148.019 5.04361 2.89818 0
M  V30 1555 N 146.995 4.38746 3.2094 0
M  V30 1556 H 150.797 2.60884 1.35339 0
M  V30 1557 H 148.311 1.48513 0.657085 0
M  V30 1558 H 150.308 1.89642 3.7127 0
M  V30 1559 H 148.968 0.876227 3.12654 0
M  V30 1560 H 149.979 4.5236 2.52172 0
M  V30 1561 H 146.656 2.16527 3.56963 0
M  V30 1562 H 148.046 6.12528 2.76151 0
M  V30 1563 N 150.766 -0.704594 1.40972 0
M  V30 1564 C 152.012 -1.46675 1.40051 0
M  V30 1565 C 152.345 -1.94199 0.00641102 0
M  V30 1566 O 151.62 -1.68916 -0.964235 0
M  V30 1567 C 151.903 -2.68505 2.39952 0
M  V30 1568 C 151.756 -2.26805 3.88432 0
M  V30 1569 C 153.075 -3.70686 2.37233 0
M  V30 1570 H 150.194 -0.532015 0.510028 0
M  V30 1571 H 152.836 -0.803255 1.72185 0
M  V30 1572 H 150.986 -3.25114 2.1268 0
M  V30 1573 H 152.658 -1.75592 4.26574 0
M  V30 1574 H 150.901 -1.58685 4.03734 0
M  V30 1575 H 151.572 -3.14181 4.53866 0
M  V30 1576 H 154.048 -3.23731 2.61415 0
M  V30 1577 H 152.924 -4.53553 3.09162 0
M  V30 1578 H 153.185 -4.19754 1.38777 0
M  V30 1579 N 152.244 -1.26651 -0.937939 0
M  V30 1580 C 153.207 -1.08546 -2.01867 0
M  V30 1581 C 154.207 -0.0327327 -1.60767 0
M  V30 1582 O 155.397 -0.276427 -1.71993 0
M  V30 1583 C 152.529 -0.651711 -3.34613 0
M  V30 1584 H 153.722 -2.04502 -2.1936 0
M  V30 1585 H 151.275 -1.09294 -1.11734 0
M  V30 1586 H 152.01 0.309696 -3.22818 0
M  V30 1587 H 151.795 -1.41189 -3.65798 0
M  V30 1588 H 153.285 -0.546973 -4.14002 0
M  V30 1589 N 153.722 1.14298 -1.08507 0
M  V30 1590 C 154.952 1.88945 -0.835663 0
M  V30 1591 C 155.36 1.78894 0.615928 0
M  V30 1592 O 154.703 1.1468 1.43506 0
M  V30 1593 C 154.765 3.39585 -1.17994 0
M  V30 1594 C 154.429 3.7342 -2.63451 0
M  V30 1595 C 155.426 3.73454 -3.61702 0
M  V30 1596 C 153.111 4.03368 -2.99332 0
M  V30 1597 C 155.105 4.02961 -4.93864 0
M  V30 1598 C 152.792 4.32538 -4.31687 0
M  V30 1599 C 153.79 4.32318 -5.28763 0
M  V30 1600 O 153.478 4.6078 -6.58739 0
M  V30 1601 H 153.21 0.605307 -0.300965 0
M  V30 1602 H 155.764 1.45673 -1.44806 0
M  V30 1603 H 153.994 3.83315 -0.51055 0
M  V30 1604 H 155.683 3.9554 -0.911182 0
M  V30 1605 H 156.449 3.50403 -3.35325 0
M  V30 1606 H 152.328 4.02692 -2.24411 0
M  V30 1607 H 155.872 4.02704 -5.69627 0
M  V30 1608 H 151.769 4.55059 -4.57812 0
M  V30 1609 H 152.537 4.78492 -6.64069 0
M  V30 1610 N 155.201 0.870884 1.31352 0
M  V30 1611 C 156.45 0.478408 1.95944 0
M  V30 1612 C 156.763 -0.974493 1.69597 0
M  V30 1613 O 157.969 -1.47316 2.28058 0
M  V30 1614 C 156.425 0.804609 3.50791 0
M  V30 1615 C 156.033 2.27433 3.85977 0
M  V30 1616 C 157.777 0.480648 4.2177 0
M  V30 1617 C 155.684 2.5429 5.33939 0
M  V30 1618 H 154.614 0.175175 0.733369 0
M  V30 1619 H 157.265 1.06391 1.4951 0
M  V30 1620 H 155.647 0.148347 3.95722 0
M  V30 1621 H 156.821 2.97373 3.52002 0
M  V30 1622 H 155.136 2.56442 3.28065 0
M  V30 1623 H 157.733 0.658519 5.30629 0
M  V30 1624 H 158.076 -0.578979 4.12254 0
M  V30 1625 H 158.609 1.09349 3.82476 0
M  V30 1626 H 155.348 3.58939 5.48491 0
M  V30 1627 H 154.868 1.88945 5.69263 0
M  V30 1628 H 156.547 2.39066 6.01212 0
M  V30 1629 N 156.679 -1.44442 0.630414 0
M  V30 1630 C 157.928 -2.01267 0.132073 0
M  V30 1631 C 158.241 -1.50172 -1.25331 0
M  V30 1632 O 159.447 -1.9912 -1.84562 0
M  V30 1633 C 157.903 -3.59422 0.185362 0
M  V30 1634 C 157.511 -4.19514 1.57201 0
M  V30 1635 C 159.255 -4.23724 -0.256553 0
M  V30 1636 C 157.162 -5.69891 1.58045 0
M  V30 1637 H 156.092 -0.752619 0.0456092 0
M  V30 1638 H 158.743 -1.65666 0.789106 0
M  V30 1639 H 157.125 -3.92318 -0.538759 0
M  V30 1640 H 158.299 -3.98156 2.31966 0
M  V30 1641 H 156.614 -3.67496 1.95795 0
M  V30 1642 H 159.211 -5.34019 -0.269767 0
M  V30 1643 H 159.554 -3.96013 -1.28372 0
M  V30 1644 H 160.087 -3.95629 0.41505 0
M  V30 1645 H 156.826 -6.02336 2.58597 0
M  V30 1646 H 156.346 -5.93373 0.875725 0
M  V30 1647 H 158.025 -6.33515 1.31408 0
M  V30 1648 N 158.157 -0.370918 -1.53173 0
M  V30 1649 C 159.573 -0.0200818 -1.59587 0
M  V30 1650 C 159.773 1.46279 -1.38581 0
M  V30 1651 O 158.829 2.22506 -1.19363 0
M  V30 1652 C 160.142 -0.4808 -2.96831 0
M  V30 1653 C 161.69 -0.435477 -3.09956 0
M  V30 1654 C 162.165 -0.872092 -4.4962 0
M  V30 1655 N 163.656 -0.827364 -4.55751 0
M  V30 1656 C 164.391 -1.13683 -5.62018 0
M  V30 1657 N 163.887 -1.51584 -6.76014 0
M  V30 1658 N 165.68 -1.05927 -5.52029 0
M  V30 1659 H 157.831 -1.33652 -1.65079 0
M  V30 1660 H 160.094 -0.546634 -0.774529 0
M  V30 1661 H 159.8 -1.51577 -3.1736 0
M  V30 1662 H 159.674 0.129796 -3.76977 0
M  V30 1663 H 162.061 0.590371 -2.89134 0
M  V30 1664 H 162.142 -1.08164 -2.31806 0
M  V30 1665 H 161.786 -1.89608 -4.71181 0
M  V30 1666 H 161.716 -0.203127 -5.26208 0
M  V30 1667 H 164.207 -0.548216 -3.73902 0
M  V30 1668 H 164.52 -1.73609 -7.53047 0
M  V30 1669 H 162.865 -1.55454 -6.77391 0
M  V30 1670 H 166.056 -0.762321 -4.61851 0
M  V30 1671 H 166.229 -1.30378 -6.34749 0
M  V30 1672 N 159.635 1.57281 -0.100228 0
M  V30 1673 C 160.86 1.99302 0.573881 0
M  V30 1674 C 161.285 0.979059 1.60611 0
M  V30 1675 O 160.643 -0.0517803 1.81226 0
M  V30 1676 C 160.691 3.40274 1.19358 0
M  V30 1677 O 159.795 3.41676 2.30935 0
M  V30 1678 H 159.136 0.647944 0.145138 0
M  V30 1679 H 161.666 2.03779 -0.183156 0
M  V30 1680 H 161.676 3.78078 1.53365 0
M  V30 1681 H 160.351 4.13594 0.437385 0
M  V30 1682 H 158.928 3.15672 1.98509 0
M  V30 1683 N 161.113 -0.173488 1.56642 0
M  V30 1684 C 162.063 -1.21941 1.92651 0
M  V30 1685 C 163.047 -1.39912 0.794577 0
M  V30 1686 O 164.239 -1.41919 1.05773 0
M  V30 1687 C 161.368 -2.55935 2.28806 0
M  V30 1688 C 160.454 -2.41667 3.48508 0
M  V30 1689 N 160.845 -1.9711 4.65813 0
M  V30 1690 C 159.143 -2.72499 3.53072 0
M  V30 1691 C 159.844 -1.95253 5.47952 0
M  V30 1692 N 158.82 -2.37575 4.88937 0
M  V30 1693 H 162.622 -0.866581 2.80834 0
M  V30 1694 H 160.136 -0.381776 1.57849 0
M  V30 1695 H 162.133 -3.31511 2.52797 0
M  V30 1696 H 160.793 -2.92022 1.41961 0
M  V30 1697 H 161.804 -1.67481 4.90072 0
M  V30 1698 H 158.481 -3.12639 2.767 0
M  V30 1699 H 159.871 -1.6252 6.51948 0
M  V30 1700 N 162.591 -1.51276 -0.441967 0
M  V30 1701 C 163.837 -1.63958 -1.19355 0
M  V30 1702 C 164.17 -0.352543 -1.90973 0
M  V30 1703 O 163.445 0.647627 -1.83401 0
M  V30 1704 C 163.728 -2.83979 -2.21422 0
M  V30 1705 C 163.581 -4.22646 -1.53918 0
M  V30 1706 C 164.9 -2.99521 -3.22451 0
M  V30 1707 H 162.019 -0.596709 -0.432559 0
M  V30 1708 H 164.661 -1.83748 -0.483398 0
M  V30 1709 H 162.811 -2.67237 -2.81987 0
M  V30 1710 H 164.483 -4.51045 -0.967256 0
M  V30 1711 H 162.726 -4.25558 -0.841615 0
M  V30 1712 H 163.397 -5.02609 -2.28229 0
M  V30 1713 H 165.873 -3.14944 -2.71937 0
M  V30 1714 H 164.749 -3.85072 -3.91166 0
M  V30 1715 H 165.01 -2.11391 -3.88287 0
M  V30 1716 N 164.069 0.697108 -1.41344 0
M  V30 1717 C 165.016 1.81106 -1.43071 0
M  V30 1718 C 165.986 1.63632 -0.285275 0
M  V30 1719 O 167.171 1.84504 -0.486091 0
M  V30 1720 C 164.311 3.18975 -1.31715 0
M  V30 1721 C 163.424 3.47892 -2.56115 0
M  V30 1722 C 162.559 4.75367 -2.37064 0
M  V30 1723 C 161.598 4.97247 -3.56948 0
M  V30 1724 N 160.735 6.15947 -3.36977 0
M  V30 1725 H 165.575 1.78965 -2.38276 0
M  V30 1726 H 163.112 0.873975 -1.18322 0
M  V30 1727 H 165.07 3.98615 -1.23133 0
M  V30 1728 H 163.7 3.20297 -0.401183 0
M  V30 1729 H 162.752 2.62669 -2.75153 0
M  V30 1730 H 164.064 3.59962 -3.45295 0
M  V30 1731 H 163.218 5.63059 -2.25941 0
M  V30 1732 H 161.957 4.65541 -1.45338 0
M  V30 1733 H 160.962 4.08004 -3.68527 0
M  V30 1734 H 162.187 5.08934 -4.49626 0
M  V30 1735 H 160.133 6.07336 -2.47949 0
M  V30 1736 H 160.05 6.28777 -4.19732 0
M  V30 1737 H 161.318 7.06377 -3.29623 0
M  V30 1738 N 165.547 1.27147 0.931209 0
M  V30 1739 C 166.824 1.0401 1.65654 0
M  V30 1740 C 167.204 -0.426297 2.06751 0
M  V30 1741 O 166.552 -1.40879 1.79904 0
M  V30 1742 C 166.762 1.99834 2.86125 0
M  V30 1743 C 168.11 2.29007 3.57549 0
M  V30 1744 O 169.134 1.97779 2.96246 0
M  V30 1745 O 167.993 2.82222 4.67989 0
M  V30 1746 H 165.087 0.396239 0.725895 0
M  V30 1747 H 167.633 1.38397 0.982056 0
M  V30 1748 H 166.405 2.98744 2.52721 0
M  V30 1749 H 166.028 1.65987 3.61295 0
M  V30 1750 N 167.025 -1.13721 1.09112 0
M  V30 1751 C 167.975 -2.17082 0.697091 0
M  V30 1752 C 168.959 -1.58321 -0.286923 0
M  V30 1753 O 170.151 -1.7673 -0.0978008 0
M  V30 1754 C 167.28 -3.43105 0.115729 0
M  V30 1755 C 166.366 -4.0888 1.12596 0
M  V30 1756 N 166.757 -4.4987 2.31195 0
M  V30 1757 C 165.055 -4.35471 0.963366 0
M  V30 1758 C 165.756 -5.01094 2.95431 0
M  V30 1759 N 164.732 -4.95751 2.23006 0
M  V30 1760 H 168.534 -2.46524 1.6001 0
M  V30 1761 H 166.048 -1.30481 0.966869 0
M  V30 1762 H 168.045 -4.16491 -0.184555 0
M  V30 1763 H 166.705 -3.15138 -0.78217 0
M  V30 1764 H 167.716 -4.42678 2.68806 0
M  V30 1765 H 164.393 -4.17328 0.119878 0
M  V30 1766 H 165.783 -5.4263 3.96236 0
M  V30 1767 N 168.503 -0.877838 -1.30888 0
M  V30 1768 C 169.733 -0.506678 -2.00291 0
M  V30 1769 C 170.141 0.907449 -1.66018 0
M  V30 1770 O 169.484 1.60719 -0.88967 0
M  V30 1771 C 169.546 -0.59323 -3.54572 0
M  V30 1772 C 169.21 -1.97038 -4.12341 0
M  V30 1773 C 170.207 -2.93889 -4.28865 0
M  V30 1774 C 167.892 -2.27383 -4.47886 0
M  V30 1775 C 169.886 -4.19224 -4.80136 0
M  V30 1776 C 167.573 -3.52965 -4.98857 0
M  V30 1777 C 168.571 -4.48701 -5.14934 0
M  V30 1778 O 168.259 -5.72056 -5.64808 0
M  V30 1779 H 167.991 -0.1951 -0.647234 0
M  V30 1780 H 170.545 -1.18301 -1.6791 0
M  V30 1781 H 168.775 0.140057 -3.86446 0
M  V30 1782 H 170.464 -0.234372 -4.05223 0
M  V30 1783 H 171.23 -2.71756 -4.01714 0
M  V30 1784 H 167.109 -1.53639 -4.34645 0
M  V30 1785 H 170.653 -4.93956 -4.92599 0
M  V30 1786 H 166.55 -3.74939 -5.25443 0
M  V30 1787 H 167.318 -5.74337 -5.83163 0
M  V30 1788 N 169.982 1.44106 -0.638065 0
M  V30 1789 C 171.231 2.01194 -0.142744 0
M  V30 1790 C 171.544 1.50835 1.24532 0
M  V30 1791 O 172.75 2.00096 1.83504 0
M  V30 1792 C 171.206 3.59319 -0.20442 0
M  V30 1793 C 170.814 4.18674 -1.59423 0
M  V30 1794 C 172.558 4.23854 0.234079 0
M  V30 1795 C 170.465 5.69045 -1.61065 0
M  V30 1796 H 169.395 0.752367 -0.0495998 0
M  V30 1797 H 172.046 1.65246 -0.797881 0
M  V30 1798 H 170.428 3.92598 0.517946 0
M  V30 1799 H 171.602 3.96921 -2.34074 0
M  V30 1800 H 169.917 3.66453 -1.97741 0
M  V30 1801 H 172.514 5.34155 0.241443 0
M  V30 1802 H 172.857 3.96688 1.2627 0
M  V30 1803 H 173.39 3.95403 -0.436025 0
M  V30 1804 H 170.129 6.00956 -2.61787 0
M  V30 1805 H 169.649 5.929 -0.90718 0
M  V30 1806 H 171.328 6.32809 -1.34766 0
M  V30 1807 N 171.46 0.379036 1.52974 0
M  V30 1808 C 172.707 -0.206421 2.01445 0
M  V30 1809 C 173.035 -1.47668 1.26587 0
M  V30 1810 O 172.29 -1.92514 0.351675 0
M  V30 1811 C 172.589 -0.53096 3.53434 0
M  V30 1812 C 172.255 0.646546 4.46241 0
M  V30 1813 C 170.917 0.969604 4.7133 0
M  V30 1814 C 173.269 1.43479 5.01062 0
M  V30 1815 C 170.597 2.08263 5.48492 0
M  V30 1816 C 172.949 2.53834 5.7944 0
M  V30 1817 C 171.613 2.86659 6.02812 0
M  V30 1818 H 170.883 -0.0755349 0.73714 0
M  V30 1819 H 173.53 0.514271 1.84465 0
M  V30 1820 H 171.835 -1.33285 3.68432 0
M  V30 1821 H 173.532 -0.996417 3.88423 0
M  V30 1822 H 170.122 0.384734 4.2687 0
M  V30 1823 H 174.306 1.19844 4.81613 0
M  V30 1824 H 169.562 2.34078 5.64816 0
M  V30 1825 H 173.736 3.15319 6.20924 0
M  V30 1826 H 171.363 3.73026 6.62387 0
M  V30 1827 N 172.938 -1.57226 0.108567 0
M  V30 1828 C 174.168 -1.9889 -0.559142 0
M  V30 1829 C 174.576 -0.986889 -1.61422 0
M  V30 1830 O 173.919 0.0298705 -1.83676 0
M  V30 1831 C 173.981 -3.36952 -1.25315 0
M  V30 1832 C 173.645 -4.55679 -0.347248 0
M  V30 1833 C 174.642 -5.18281 0.409996 0
M  V30 1834 C 172.327 -5.0162 -0.261367 0
M  V30 1835 C 174.321 -6.25203 1.24096 0
M  V30 1836 C 172.008 -6.08405 0.573238 0
M  V30 1837 C 173.006 -6.70063 1.32304 0
M  V30 1838 O 172.694 -7.74788 2.14381 0
M  V30 1839 H 172.426 -0.658343 -0.153492 0
M  V30 1840 H 174.98 -2.04532 0.188584 0
M  V30 1841 H 173.21 -3.28032 -2.04773 0
M  V30 1842 H 174.899 -3.62974 -1.81673 0
M  V30 1843 H 175.665 -4.8371 0.353457 0
M  V30 1844 H 171.544 -4.53381 -0.834656 0
M  V30 1845 H 175.088 -6.73259 1.82669 0
M  V30 1846 H 170.985 -6.42406 0.631208 0
M  V30 1847 H 171.753 -7.91837 2.07209 0
M  V30 1848 N 174.416 0.165178 -1.56732 0
M  V30 1849 C 175.656 0.887231 -1.8414 0
M  V30 1850 C 176.02 1.79159 -0.690353 0
M  V30 1851 O 177.221 2.55172 -0.845032 0
M  V30 1852 C 175.492 1.65674 -3.16681 0
M  V30 1853 S 177.051 2.42671 -3.6559 0
M  V30 1854 H 173.869 0.297042 -0.645978 0
M  V30 1855 H 176.471 0.148439 -1.94936 0
M  V30 1856 H 175.175 0.983507 -3.98441 0
M  V30 1857 H 174.706 2.43679 -3.08843 0
M  V30 1858 H 176.721 3.67499 -3.33406 0
M  V30 1859 N 175.894 1.51508 0.433938 0
M  V30 1860 C 176.804 1.75917 1.5521 0
M  V30 1861 C 177.82 0.643545 1.61662 0
M  V30 1862 O 178.996 0.926183 1.7884 0
M  V30 1863 C 176.061 1.88213 2.91164 0
M  V30 1864 C 175.122 3.12074 2.94802 0
M  V30 1865 C 174.355 3.23774 4.24271 0
M  V30 1866 O 174.578 2.4133 5.16833 0
M  V30 1867 O 173.512 4.16774 4.34262 0
M  V30 1868 H 177.338 2.70777 1.37527 0
M  V30 1869 H 174.923 1.36051 0.617293 0
M  V30 1870 H 176.805 1.98267 3.71845 0
M  V30 1871 H 175.48 0.965413 3.08968 0
M  V30 1872 H 174.387 3.07497 2.13065 0
M  V30 1873 H 175.72 4.03446 2.81943 0
M  V30 1874 N 177.372 -0.689602 1.41712 0
M  V30 1875 C 178.62 -1.4468 1.4111 0
M  V30 1876 C 178.941 -1.94986 0.0232196 0
M  V30 1877 O 178.211 -1.72097 -0.935913 0
M  V30 1878 H 176.791 -0.536847 0.519427 0
M  V30 1879 H 179.453 -0.815825 1.77004 0
M  V30 1880 H 178.549 -2.30706 2.10193 0
M  V30 1881 N 178.85 -1.27639 -0.924453 0
M  V30 1882 C 179.76 -1.12466 -2.05885 0
M  V30 1883 C 180.776 -0.053869 -1.73917 0
M  V30 1884 O 181.952 -0.261012 -1.99702 0
M  V30 1885 C 179.017 -0.776768 -3.37886 0
M  V30 1886 C 178.078 -1.92878 -3.83532 0
M  V30 1887 C 177.311 -1.59739 -5.09234 0
M  V30 1888 O 177.534 -0.506782 -5.68144 0
M  V30 1889 O 176.468 -2.43761 -5.50331 0
M  V30 1890 H 180.294 -2.07671 -2.21599 0
M  V30 1891 H 177.879 -1.06857 -1.04413 0
M  V30 1892 H 179.761 -0.596229 -4.17161 0
M  V30 1893 H 178.436 0.145732 -3.23372 0
M  V30 1894 H 177.343 -2.1644 -3.0513 0
M  V30 1895 H 178.676 -2.8316 -4.02593 0
M  V30 1896 N 180.328 1.1314 -1.09713 0
M  V30 1897 C 181.258 2.20748 -0.761102 0
M  V30 1898 C 182.239 1.68061 0.262566 0
M  V30 1899 O 183.424 1.93765 0.129977 0
M  V30 1900 C 180.554 3.46812 -0.184054 0
M  V30 1901 C 179.508 4.12606 -1.13757 0
M  V30 1902 C 178.834 5.33031 -0.422083 0
M  V30 1903 C 180.134 4.59603 -2.48118 0
M  V30 1904 H 181.828 2.49113 -1.66082 0
M  V30 1905 H 179.374 1.19734 -0.799987 0
M  V30 1906 H 181.327 4.21353 0.0631215 0
M  V30 1907 H 180.051 3.17851 0.750868 0
M  V30 1908 H 178.71 3.40036 -1.37007 0
M  V30 1909 H 178.358 5.00335 0.517072 0
M  V30 1910 H 178.058 5.77999 -1.05788 0
M  V30 1911 H 179.582 6.10325 -0.183277 0
M  V30 1912 H 180.996 5.25552 -2.29059 0
M  V30 1913 H 179.393 5.15321 -3.07514 0
M  V30 1914 H 180.463 3.73971 -3.08665 0
M  V30 1915 N 181.806 0.884767 1.30421 0
M  V30 1916 C 182.756 0.322846 2.25703 0
M  V30 1917 C 183.74 -0.548582 1.51259 0
M  V30 1918 O 184.932 -0.39304 1.72581 0
M  V30 1919 C 182.061 -0.461787 3.4018 0
M  V30 1920 C 181.147 0.423717 4.21978 0
M  V30 1921 N 181.538 1.52408 4.82292 0
M  V30 1922 C 179.836 0.218795 4.45463 0
M  V30 1923 C 180.537 2.07136 5.43571 0
M  V30 1924 N 179.513 1.36635 5.26148 0
M  V30 1925 H 183.315 1.16363 2.69883 0
M  V30 1926 H 180.829 0.73415 1.44859 0
M  V30 1927 H 182.826 -0.880985 4.07485 0
M  V30 1928 H 181.486 -1.30001 2.9754 0
M  V30 1929 H 182.497 1.90693 4.81515 0
M  V30 1930 H 179.174 -0.582275 4.1342 0
M  V30 1931 H 180.564 2.99538 6.01437 0
M  V30 1932 N 183.284 -1.43765 0.645699 0
M  V30 1933 C 184.532 -2.01499 0.155731 0
M  V30 1934 C 184.853 -1.51151 -1.232 0
M  V30 1935 O 184.123 -0.721044 -1.82148 0
M  V30 1936 H 182.703 -0.745003 0.0545817 0
M  V30 1937 H 185.365 -1.76075 0.835677 0
M  V30 1938 H 184.461 -3.1181 0.134577 0
M  V30 1939 N 184.763 -0.387143 -1.52771 0
M  V30 1940 C 185.71 0.449048 -2.26389 0
M  V30 1941 C 186.68 1.05961 -1.27912 0
M  V30 1942 O 187.865 1.08804 -1.56737 0
M  V30 1943 C 185.005 1.57155 -3.0724 0
M  V30 1944 C 184.118 0.984066 -4.20643 0
M  V30 1945 C 183.253 2.07745 -4.88892 0
M  V30 1946 C 182.292 1.46574 -5.94292 0
M  V30 1947 N 181.429 2.49834 -6.56146 0
M  V30 1948 H 186.269 -0.185205 -2.97424 0
M  V30 1949 H 183.806 -0.103164 -1.46738 0
M  V30 1950 H 185.764 2.23309 -3.52405 0
M  V30 1951 H 184.394 2.17615 -2.38419 0
M  V30 1952 H 183.446 0.212193 -3.79808 0
M  V30 1953 H 184.758 0.497029 -4.96318 0
M  V30 1954 H 183.912 2.81673 -5.3735 0
M  V30 1955 H 182.651 2.59807 -4.12737 0
M  V30 1956 H 181.656 0.711696 -5.45174 0
M  V30 1957 H 182.881 0.953088 -6.72379 0
M  V30 1958 H 180.827 3.0107 -5.82832 0
M  V30 1959 H 180.744 2.05879 -7.27427 0
M  V30 1960 H 182.012 3.23399 -7.09249 0
M  V30 1961 N 186.241 1.57166 -0.116904 0
M  V30 1962 C 187.652 1.82169 0.408809 0
M  V30 1963 C 188.003 1.03393 1.66746 0
M  V30 1964 O 187.128 0.269886 2.1471 0
M  V30 1965 C 187.723 3.30429 0.748466 0
M  V30 1966 C 186.282 3.5612 1.21882 0
M  V30 1967 C 185.429 2.76374 0.226452 0
M  V30 1968 H 188.38 1.5497 -0.342063 0
M  V30 1969 H 188.401 3.44943 1.60607 0
M  V30 1970 H 187.913 3.87737 -0.167784 0
M  V30 1971 H 186.014 3.04168 2.15204 0
M  V30 1972 H 186.127 4.64705 1.16559 0
M  V30 1973 H 184.491 2.44515 0.713063 0
M  V30 1974 H 185.274 3.3644 -0.682859 0
M  V30 1975 N 187.719 -0.156864 1.56817 0
M  V30 1976 C 188.965 -0.872416 1.83076 0
M  V30 1977 C 189.298 -1.81261 0.697001 0
M  V30 1978 O 188.573 -1.92171 -0.30008 0
M  V30 1979 C 188.856 -1.65551 3.19789 0
M  V30 1980 C 188.709 -0.737467 4.43713 0
M  V30 1981 C 190.028 -2.62012 3.53606 0
M  V30 1982 H 187.147 -0.315715 0.665953 0
M  V30 1983 H 189.789 -0.138004 1.89498 0
M  V30 1984 H 187.939 -2.28159 3.14445 0
M  V30 1985 H 189.611 -0.123143 4.61136 0
M  V30 1986 H 187.854 -0.0464067 4.33775 0
M  V30 1987 H 188.525 -1.32122 5.35955 0
M  V30 1988 H 191.001 -2.09525 3.59497 0
M  V30 1989 H 189.877 -3.13861 4.50314 0
M  V30 1990 H 190.138 -3.42902 2.79053 0
M  V30 1991 N 189.197 -1.51736 -0.425897 0
M  V30 1992 C 190.613 -1.40166 -0.76326 0
M  V30 1993 C 190.813 -0.492962 -1.95377 0
M  V30 1994 O 189.869 0.0475815 -2.52455 0
M  V30 1995 C 191.182 -2.82403 -1.03291 0
M  V30 1996 C 192.73 -2.91632 -1.13665 0
M  V30 1997 C 193.205 -4.34801 -1.43916 0
M  V30 1998 N 194.696 -4.3796 -1.50816 0
M  V30 1999 C 195.431 -5.4578 -1.75817 0
M  V30 2000 N 194.927 -6.63744 -1.98534 0
M  V30 2001 N 196.72 -5.33274 -1.77694 0
M  V30 2002 H 188.871 -2.09361 0.358 0
M  V30 2003 H 191.134 -0.942941 0.0978094 0
M  V30 2004 H 190.84 -3.50943 -0.230696 0
M  V30 2005 H 190.714 -3.22428 -1.95754 0
M  V30 2006 H 193.101 -2.23284 -1.92947 0
M  V30 2007 H 193.182 -2.55088 -0.190756 0
M  V30 2008 H 192.826 -5.03703 -0.65157 0
M  V30 2009 H 192.756 -4.68868 -2.39729 0
M  V30 2010 H 195.247 -3.52919 -1.35118 0
M  V30 2011 H 195.56 -7.41704 -2.17013 0
M  V30 2012 H 193.905 -6.66839 -1.95832 0
M  V30 2013 H 197.096 -4.40098 -1.59473 0
M  V30 2014 H 197.269 -6.1738 -1.9684 0
M  V30 2015 N 190.675 0.682077 -1.42076 0
M  V30 2016 C 191.923 1.4393 -1.41876 0
M  V30 2017 C 192.244 1.94971 -0.0335599 0
M  V30 2018 O 191.514 1.72591 0.926773 0
M  V30 2019 H 190.094 0.534085 -0.522267 0
M  V30 2020 H 192.756 0.806427 -1.77434 0
M  V30 2021 H 191.852 2.29588 -2.11414 0
M  V30 2022 N 192.153 1.28127 0.917671 0
M  V30 2023 C 193.399 1.15223 1.66888 0
M  V30 2024 C 193.732 -0.299293 1.9188 0
M  V30 2025 O 193.007 -1.21805 1.51637 0
M  V30 2026 C 193.29 1.94706 3.02922 0
M  V30 2027 C 193.143 3.47898 2.85109 0
M  V30 2028 C 194.462 1.75939 4.03402 0
M  V30 2029 H 191.581 0.419946 0.605652 0
M  V30 2030 H 194.223 1.57398 1.06423 0
M  V30 2031 H 192.373 1.58864 3.54534 0
M  V30 2032 H 194.045 3.93624 2.40537 0
M  V30 2033 H 192.288 3.7373 2.20246 0
M  V30 2034 H 192.959 3.98765 3.81694 0
M  V30 2035 H 195.435 2.07209 3.60837 0
M  V30 2036 H 194.311 2.33931 4.96556 0
M  V30 2037 H 194.572 0.709877 4.36364 0
M  V30 2038 N 193.631 -1.12557 1.10312 0
M  V30 2039 C 194.578 -2.18247 0.750781 0
M  V30 2040 C 195.548 -1.63853 -0.272293 0
M  V30 2041 O 196.733 -1.90195 -0.151862 0
M  V30 2042 C 193.873 -3.44591 0.187379 0
M  V30 2043 C 192.986 -4.13046 1.2656 0
M  V30 2044 C 192.121 -5.27034 0.663978 0
M  V30 2045 C 191.16 -5.87353 1.72287 0
M  V30 2046 N 190.297 -6.92757 1.1416 0
M  V30 2047 H 195.137 -2.47732 1.65628 0
M  V30 2048 H 192.674 -1.21629 0.827337 0
M  V30 2049 H 194.632 -4.16904 -0.157148 0
M  V30 2050 H 193.262 -3.15527 -0.681355 0
M  V30 2051 H 192.314 -3.38924 1.72727 0
M  V30 2052 H 193.626 -4.53947 2.06721 0
M  V30 2053 H 192.78 -6.06104 0.268824 0
M  V30 2054 H 191.519 -4.87407 -0.169082 0
M  V30 2055 H 190.524 -5.06971 2.12746 0
M  V30 2056 H 191.749 -6.29051 2.55875 0
M  V30 2057 H 189.695 -6.5517 0.329984 0
M  V30 2058 H 189.612 -7.3225 1.88007 0
M  V30 2059 H 190.88 -7.75658 0.772956 0
M  V30 2060 N 195.109 -0.891671 -1.2995 0
M  V30 2061 C 196.039 -0.379797 -2.30391 0
M  V30 2062 C 197.02 0.540919 -1.6127 0
M  V30 2063 O 198.205 0.453352 -1.88834 0
M  V30 2064 C 195.335 0.400654 -3.44981 0
M  V30 2065 C 194.289 -0.428905 -4.25846 0
M  V30 2066 C 193.615 0.478557 -5.32554 0
M  V30 2067 C 194.915 -1.67458 -4.94727 0
M  V30 2068 H 196.609 -1.21914 -2.73454 0
M  V30 2069 H 194.155 -0.587675 -1.31462 0
M  V30 2070 H 196.108 0.769434 -4.14316 0
M  V30 2071 H 194.832 1.27371 -3.0074 0
M  V30 2072 H 193.491 -0.779911 -3.58208 0
M  V30 2073 H 193.139 1.34951 -4.84559 0
M  V30 2074 H 192.839 -0.0727433 -5.87555 0
M  V30 2075 H 194.363 0.843705 -6.04743 0
M  V30 2076 H 195.777 -1.376 -5.56542 0
M  V30 2077 H 194.174 -2.16659 -5.59624 0
M  V30 2078 H 195.244 -2.41518 -4.20473 0
M  V30 2079 N 196.587 1.43421 -0.653314 0
M  V30 2080 C 197.833 2.02111 -0.166992 0
M  V30 2081 C 198.166 1.51423 1.21592 0
M  V30 2082 O 197.441 0.707389 1.8118 0
M  V30 2083 C 197.724 3.5966 -0.177948 0
M  V30 2084 C 197.577 4.20579 -1.59478 0
M  V30 2085 C 198.896 4.37413 0.4856 0
M  V30 2086 H 196.015 0.734374 -0.0621557 0
M  V30 2087 H 198.657 1.70717 -0.834016 0
M  V30 2088 H 196.807 3.86537 0.390032 0
M  V30 2089 H 198.479 4.04732 -2.21336 0
M  V30 2090 H 196.722 3.77226 -2.14204 0
M  V30 2091 H 197.393 5.29665 -1.5543 0
M  V30 2092 H 199.869 4.161 0.00234528 0
M  V30 2093 H 198.745 5.47075 0.447207 0
M  V30 2094 H 199.006 4.13672 1.55974 0
M  V30 2095 N 198.065 0.39524 1.52563 0
M  V30 2096 C 199.313 -0.184678 2.01254 0
M  V30 2097 C 199.634 -1.46822 1.28329 0
M  V30 2098 O 198.904 -1.91666 0.405094 0
M  V30 2099 H 197.484 -0.0712355 0.743596 0
M  V30 2100 H 200.146 0.528293 1.87603 0
M  V30 2101 H 199.242 -0.390681 3.09645 0
M  V30 2102 N 199.544 -1.57102 0.125237 0
M  V30 2103 C 200.96 -1.57915 -0.231322 0
M  V30 2104 C 201.16 -1.13833 -1.66266 0
M  V30 2105 O 200.216 -0.828581 -2.38518 0
M  V30 2106 C 201.529 -3.00699 0.00766489 0
M  V30 2107 C 203.077 -3.12947 -0.0577483 0
M  V30 2108 C 203.552 -4.57742 0.153626 0
M  V30 2109 N 205.043 -4.63092 0.0998073 0
M  V30 2110 C 205.778 -5.72905 0.238174 0
M  V30 2111 N 205.274 -6.91445 0.433057 0
M  V30 2112 N 207.067 -5.6182 0.177308 0
M  V30 2113 H 199.218 -1.84055 1.06007 0
M  V30 2114 H 201.481 -0.850905 0.417929 0
M  V30 2115 H 201.187 -3.3726 0.997431 0
M  V30 2116 H 201.061 -3.70236 -0.721452 0
M  V30 2117 H 203.448 -2.7624 -1.03804 0
M  V30 2118 H 203.529 -2.4594 0.70335 0
M  V30 2119 H 203.173 -4.95149 1.13092 0
M  V30 2120 H 203.103 -5.22848 -0.627534 0
M  V30 2121 H 205.594 -3.77871 -0.047051 0
M  V30 2122 H 205.907 -7.70985 0.529332 0
M  V30 2123 H 204.252 -6.93415 0.469109 0
M  V30 2124 H 207.443 -4.68093 0.0259748 0
M  V30 2125 H 207.616 -6.47357 0.288582 0
M  V30 2126 N 201.022 0.148545 -1.56898 0
M  V30 2127 C 202.299 0.890019 -1.74178 0
M  V30 2128 C 202.679 1.99407 -0.692839 0
M  V30 2129 O 202.027 2.26671 0.288505 0
M  V30 2130 C 202.237 1.43389 -3.18183 0
M  V30 2131 C 203.585 1.89791 -3.79822 0
M  V30 2132 O 204.609 1.53134 -3.21603 0
M  V30 2133 O 203.468 2.57387 -4.82093 0
M  V30 2134 H 200.562 0.420496 -0.712118 0
M  V30 2135 H 203.108 0.134591 -1.69165 0
M  V30 2136 H 201.88 0.640383 -3.86024 0
M  V30 2137 H 201.503 2.25287 -3.27615 0
M  V30 2138 N 202.5 1.5196 0.417844 0
M  V30 2139 C 203.911 1.57851 0.997 0
M  V30 2140 C 204.262 0.413714 1.91789 0
M  V30 2141 O 203.387 -0.467057 2.113 0
M  V30 2142 C 203.982 2.86085 1.81496 0
M  V30 2143 C 202.541 2.94483 2.34428 0
M  V30 2144 C 201.688 2.52707 1.14169 0
M  V30 2145 H 204.639 1.57455 0.198392 0
M  V30 2146 H 204.66 2.70947 2.67148 0
M  V30 2147 H 204.172 3.70842 1.14446 0
M  V30 2148 H 202.273 2.142 3.04875 0
M  V30 2149 H 202.386 3.98546 2.65891 0
M  V30 2150 H 200.75 2.06353 1.49301 0
M  V30 2151 H 201.533 3.39828 0.486999 0
M  V30 2152 N 203.978 -0.674533 1.42435 0
M  V30 2153 C 204.925 -1.78807 1.45934 0
M  V30 2154 C 205.895 -1.63157 0.311271 0
M  V30 2155 O 207.08 -1.83707 0.515383 0
M  V30 2156 C 204.22 -3.16839 1.36773 0
M  V30 2157 C 203.333 -3.43774 2.61617 0
M  V30 2158 C 202.468 -4.71536 2.44597 0
M  V30 2159 C 201.507 -4.91505 3.64814 0
M  V30 2160 N 200.644 -6.10508 3.46734 0
M  V30 2161 H 205.484 -1.75151 2.41093 0
M  V30 2162 H 203.021 -0.85504 1.19697 0
M  V30 2163 H 204.979 -3.96606 1.29459 0
M  V30 2164 H 203.609 -3.19619 0.452089 0
M  V30 2165 H 202.661 -2.58259 2.79297 0
M  V30 2166 H 203.973 -3.54423 3.50978 0
M  V30 2167 H 203.127 -5.59393 2.3487 0
M  V30 2168 H 201.866 -4.6317 1.52726 0
M  V30 2169 H 200.871 -4.0209 3.74972 0
M  V30 2170 H 202.096 -5.01716 4.57665 0
M  V30 2171 H 200.042 -6.03315 2.5758 0
M  V30 2172 H 199.959 -6.2202 4.29682 0
M  V30 2173 H 201.227 -7.01044 3.40819 0
M  V30 2174 N 205.456 -1.28612 -0.910864 0
M  V30 2175 C 206.404 -1.1265 -2.03501 0
M  V30 2176 C 207.398 -0.0450054 -1.6934 0
M  V30 2177 O 208.604 -0.203988 -1.7884 0
M  V30 2178 H 204.979 -0.347639 -0.666822 0
M  V30 2179 H 206.95 -2.07849 -2.14106 0
M  V30 2180 C 205.699 -0.808143 -3.38178 0
M  V30 2181 H 205.022 -1.63231 -3.6496 0
M  V30 2182 H 206.462 -0.736426 -4.17556 0
M  V30 2183 C 204.921 0.488226 -3.33344 0
M  V30 2184 O 205.451 1.51766 -3.71927 0
M  V30 2185 N 203.657 0.490009 -2.86439 0
M  V30 2186 H 203.204 -0.348161 -2.55236 0
M  V30 2187 H 203.162 1.35741 -2.83587 0
M  V30 2188 N 206.934 1.1197 -1.10907 0
M  V30 2189 C 207.882 2.19927 -0.757303 0
M  V30 2190 C 208.876 1.67564 0.248747 0
M  V30 2191 O 210.082 1.79672 0.108605 0
M  V30 2192 H 206.457 0.716925 -0.226987 0
M  V30 2193 H 208.428 2.46847 -1.67658 0
M  V30 2194 C 207.177 3.47061 -0.210671 0
M  V30 2195 H 206.5 3.87703 -0.976049 0
M  V30 2196 H 207.94 4.24 -0.0026584 0
M  V30 2197 C 206.399 3.19864 1.05777 0
M  V30 2198 O 206.929 3.40049 2.13845 0
M  V30 2199 N 205.135 2.73636 0.978349 0
M  V30 2200 H 204.682 2.5741 0.0988246 0
M  V30 2201 H 204.64 2.55815 1.82773 0
M  V30 2202 N 208.412 0.89855 1.29475 0
M  V30 2203 C 209.342 0.39201 2.30186 0
M  V30 2204 C 210.323 -0.532359 1.61555 0
M  V30 2205 O 211.508 -0.443331 1.89072 0
M  V30 2206 C 208.638 -0.382353 3.45189 0
M  V30 2207 C 207.592 0.451483 4.25612 0
M  V30 2208 C 206.918 -0.450307 5.328 0
M  V30 2209 C 208.218 1.70079 4.93832 0
M  V30 2210 H 209.912 1.23362 2.72804 0
M  V30 2211 H 207.458 0.594638 1.31149 0
M  V30 2212 H 209.411 -0.747451 4.14718 0
M  V30 2213 H 208.135 -1.25774 3.01411 0
M  V30 2214 H 206.794 0.798897 3.57789 0
M  V30 2215 H 206.442 -1.32379 4.85268 0
M  V30 2216 H 206.142 0.103902 5.87508 0
M  V30 2217 H 207.666 -0.811623 6.05182 0
M  V30 2218 H 209.08 1.40549 5.55805 0
M  V30 2219 H 207.477 2.19623 5.58467 0
M  V30 2220 H 208.547 2.43744 4.19186 0
M  V30 2221 N 209.89 -1.43072 0.660911 0
M  V30 2222 C 210.8 -2.34585 -0.0264163 0
M  V30 2223 C 211.816 -1.54316 -0.803898 0
M  V30 2224 O 212.992 -1.86939 -0.749391 0
M  V30 2225 C 210.057 -3.32689 -0.975639 0
M  V30 2226 C 209.118 -4.2886 -0.194236 0
M  V30 2227 C 208.351 -5.22278 -1.09825 0
M  V30 2228 O 208.574 -5.20299 -2.33763 0
M  V30 2229 O 207.508 -5.99228 -0.566513 0
M  V30 2230 H 211.334 -2.94869 0.727034 0
M  V30 2231 H 208.919 -1.43342 0.42111 0
M  V30 2232 H 210.801 -3.92995 -1.52094 0
M  V30 2233 H 209.476 -2.74898 -1.70918 0
M  V30 2234 H 208.383 -3.72011 0.394835 0
M  V30 2235 H 209.716 -4.89655 0.499899 0
M  V30 2236 N 211.368 -0.403325 -1.52352 0
M  V30 2237 C 212.331 0.413051 -2.25447 0
M  V30 2238 C 213.331 0.978513 -1.276 0
M  V30 2239 O 214.521 0.858305 -1.51587 0
M  V30 2240 C 211.653 1.58087 -3.02029 0
M  V30 2241 H 212.846 -0.227094 -2.99039 0
M  V30 2242 H 210.399 -0.155722 -1.55522 0
M  V30 2243 H 211.134 2.25804 -2.32772 0
M  V30 2244 H 210.919 1.18195 -3.73861 0
M  V30 2245 H 212.409 2.1585 -3.57489 0
M  V30 2246 N 212.846 1.57033 -0.133567 0
M  V30 2247 C 213.776 2.1909 0.807567 0
M  V30 2248 C 214.757 1.13517 1.26681 0
M  V30 2249 O 215.942 1.41809 1.32679 0
M  V30 2250 C 213.072 2.80188 2.05212 0
M  V30 2251 C 212.026 3.91471 1.73015 0
M  V30 2252 C 211.352 4.39443 3.04622 0
M  V30 2253 C 212.652 5.12886 0.987168 0
M  V30 2254 H 214.346 2.97988 0.290403 0
M  V30 2255 H 211.892 1.43335 0.138239 0
M  V30 2256 H 213.845 3.22264 2.71521 0
M  V30 2257 H 212.569 1.98601 2.59278 0
M  V30 2258 H 211.228 3.49993 1.0909 0
M  V30 2259 H 210.876 3.54695 3.56651 0
M  V30 2260 H 210.576 5.14495 2.83847 0
M  V30 2261 H 212.1 4.8418 3.72024 0
M  V30 2262 H 213.514 5.51891 1.55208 0
M  V30 2263 H 211.911 5.93615 0.87985 0
M  V30 2264 H 212.981 4.84894 -0.0235286 0
M  V30 2265 N 214.325 -0.140222 1.56975 0
M  V30 2266 C 215.235 -1.19223 2.02047 0
M  V30 2267 C 216.251 -1.46612 0.937062 0
M  V30 2268 O 217.427 -1.58148 1.24704 0
M  V30 2269 C 214.492 -2.50414 2.39778 0
M  V30 2270 C 213.553 -2.30612 3.621 0
M  V30 2271 C 212.786 -3.55547 3.98023 0
M  V30 2272 O 213.009 -4.62004 3.34528 0
M  V30 2273 O 211.943 -3.47808 4.91237 0
M  V30 2274 H 215.769 -0.839559 2.91865 0
M  V30 2275 H 213.354 -0.349453 1.45256 0
M  V30 2276 H 215.236 -3.27747 2.64877 0
M  V30 2277 H 213.911 -2.85198 1.53114 0
M  V30 2278 H 212.818 -1.51207 3.4218 0
M  V30 2279 H 214.151 -2.00741 4.49404 0
M  V30 2280 N 215.803 -1.52179 -0.40978 0
M  V30 2281 C 217.08 -1.56769 -1.16974 0
M  V30 2282 C 217.46 -0.348322 -2.08206 0
M  V30 2283 O 216.808 0.664862 -2.18613 0
M  V30 2284 C 217.018 -2.89603 -1.9476 0
M  V30 2285 C 218.366 -3.42579 -2.50849 0
M  V30 2286 O 219.39 -2.91338 -2.04941 0
M  V30 2287 O 218.249 -4.32054 -3.34652 0
M  V30 2288 H 215.343 -0.631439 -0.534054 0
M  V30 2289 H 217.889 -1.64507 -0.416613 0
M  V30 2290 H 216.661 -3.698 -1.27921 0
M  V30 2291 H 216.284 -2.85155 -2.77079 0
M  V30 2292 N 217.281 0.66697 -1.42791 0
M  V30 2293 C 218.528 1.42699 -1.43678 0
M  V30 2294 C 218.856 1.94419 -0.0560425 0
M  V30 2295 O 218.111 1.7182 0.936831 0
M  V30 2296 C 218.41 2.6349 -2.4147 0
M  V30 2297 C 218.076 2.30267 -3.8767 0
M  V30 2298 C 216.738 2.20918 -4.27491 0
M  V30 2299 C 219.09 2.03435 -4.79858 0
M  V30 2300 C 216.418 1.82873 -5.57471 0
M  V30 2301 C 218.77 1.66892 -6.10188 0
M  V30 2302 C 217.434 1.56058 -6.49001 0
M  V30 2303 H 216.704 0.522171 -0.525755 0
M  V30 2304 H 219.351 0.759785 -1.75783 0
M  V30 2305 H 217.656 3.35279 -2.0272 0
M  V30 2306 H 219.353 3.21684 -2.39417 0
M  V30 2307 H 215.943 2.38449 -3.56146 0
M  V30 2308 H 220.127 2.09586 -4.49875 0
M  V30 2309 H 215.383 1.7306 -5.86396 0
M  V30 2310 H 219.557 1.45157 -6.81104 0
M  V30 2311 H 217.184 1.26348 -7.49627 0
M  V30 2312 N 218.759 1.29093 0.90403 0
M  V30 2313 C 219.669 1.15727 2.0407 0
M  V30 2314 C 220.685 0.0815308 1.73809 0
M  V30 2315 O 221.861 0.292749 1.99261 0
M  V30 2316 C 218.926 0.830424 3.36608 0
M  V30 2317 C 217.987 1.98955 3.80415 0
M  V30 2318 C 217.22 1.6782 5.06628 0
M  V30 2319 O 217.443 0.597105 5.67266 0
M  V30 2320 O 216.377 2.52486 5.46383 0
M  V30 2321 H 220.203 2.11171 2.18267 0
M  V30 2322 H 217.788 1.08504 1.027 0
M  V30 2323 H 219.67 0.662521 4.16159 0
M  V30 2324 H 218.345 -0.0942678 3.23563 0
M  V30 2325 H 217.252 2.21267 3.01648 0
M  V30 2326 H 218.585 2.89529 3.98037 0
M  V30 2327 N 220.237 -1.11381 1.11499 0
M  V30 2328 C 221.184 -2.17439 0.773887 0
M  V30 2329 C 222.154 -1.64132 -0.254899 0
M  V30 2330 O 223.339 -1.90345 -0.13168 0
M  V30 2331 C 220.479 -3.44373 0.223917 0
M  V30 2332 C 219.592 -4.1168 1.30934 0
M  V30 2333 C 218.727 -5.263 0.71984 0
M  V30 2334 C 217.766 -5.85493 1.78507 0
M  V30 2335 N 216.903 -6.91507 1.21502 0
M  V30 2336 H 221.743 -2.45962 1.68246 0
M  V30 2337 H 219.28 -1.20744 0.840191 0
M  V30 2338 H 221.238 -4.17047 -0.112921 0
M  V30 2339 H 219.868 -3.16232 -0.647851 0
M  V30 2340 H 218.92 -3.37073 1.76312 0
M  V30 2341 H 220.232 -4.51729 2.11524 0
M  V30 2342 H 219.386 -6.05785 0.333094 0
M  V30 2343 H 218.125 -4.87559 -0.117377 0
M  V30 2344 H 217.13 -5.04686 2.18111 0
M  V30 2345 H 218.355 -6.26301 2.62533 0
M  V30 2346 H 216.301 -6.54783 0.399455 0
M  V30 2347 H 216.218 -7.30214 1.95763 0
M  V30 2348 H 217.486 -7.74795 0.855181 0
M  V30 2349 N 221.715 -0.905404 -1.28997 0
M  V30 2350 C 222.678 -0.392253 -2.25819 0
M  V30 2351 C 223.678 0.476753 -1.5357 0
M  V30 2352 O 224.868 0.280994 -1.71919 0
M  V30 2353 C 222 0.438588 -3.38067 0
M  V30 2354 H 223.193 -1.24743 -2.72725 0
M  V30 2355 H 220.746 -0.684051 -1.40536 0
M  V30 2356 H 221.481 1.31352 -2.96508 0
M  V30 2357 H 221.266 -0.184167 -3.91667 0
M  V30 2358 H 222.756 0.78873 -4.10084 0
M  V30 2359 N 223.193 1.4272 -0.668489 0
M  V30 2360 C 224.156 2.292 0.00448567 0
M  V30 2361 C 225.156 1.43001 0.735339 0
M  V30 2362 O 226.346 1.64461 0.57429 0
M  V30 2363 C 223.478 3.25375 1.01705 0
M  V30 2364 H 224.671 2.90199 -0.756608 0
M  V30 2365 H 222.224 1.50254 -0.430506 0
M  V30 2366 H 222.959 2.69301 1.80686 0
M  V30 2367 H 222.744 3.88944 0.496463 0
M  V30 2368 H 224.234 3.90245 1.48655 0
M  V30 2369 N 224.671 0.411399 1.52136 0
M  V30 2370 C 225.919 -0.163322 2.01439 0
M  V30 2371 C 226.24 -1.45453 1.29879 0
M  V30 2372 O 225.51 -1.91225 0.4254 0
M  V30 2373 H 224.09 -0.0633447 0.744309 0
M  V30 2374 H 226.752 0.548161 1.87033 0
M  V30 2375 H 225.848 -0.357817 3.10042 0
M  V30 2376 N 226.149 -1.5696 0.141893 0
M  V30 2377 C 227.112 -2.15316 -0.785587 0
M  V30 2378 C 228.112 -1.09366 -1.1788 0
M  V30 2379 O 229.302 -1.35031 -1.10056 0
M  V30 2380 C 226.434 -2.71211 -2.06537 0
M  V30 2381 H 227.627 -2.98608 -0.278041 0
M  V30 2382 H 225.18 -1.5593 -0.107519 0
M  V30 2383 H 225.915 -1.91571 -2.6167 0
M  V30 2384 H 225.7 -3.4872 -1.79268 0
M  V30 2385 H 227.19 -3.16189 -2.72789 0
M  V30 2386 N 227.627 0.131896 -1.57047 0
M  V30 2387 C 229.043 0.485031 -1.52051 0
M  V30 2388 C 229.243 1.82563 -0.85281 0
M  V30 2389 O 228.299 2.48817 -0.429694 0
M  V30 2390 C 229.612 0.481409 -2.96821 0
M  V30 2391 C 231.16 0.565868 -3.07842 0
M  V30 2392 C 231.635 0.592762 -4.54148 0
M  V30 2393 N 233.126 0.654564 -4.58552 0
M  V30 2394 C 233.861 0.696608 -5.69153 0
M  V30 2395 N 233.357 0.697078 -6.89284 0
M  V30 2396 N 235.15 0.738639 -5.57226 0
M  V30 2397 H 227.301 -0.746664 -1.98843 0
M  V30 2398 H 229.564 -0.273999 -0.90754 0
M  V30 2399 H 229.27 -0.435731 -3.4899 0
M  V30 2400 H 229.144 1.3139 -3.53577 0
M  V30 2401 H 231.531 1.47343 -2.55684 0
M  V30 2402 H 231.612 -0.29406 -2.54104 0
M  V30 2403 H 231.256 -0.310701 -5.06949 0
M  V30 2404 H 231.186 1.46939 -5.05684 0
M  V30 2405 H 233.677 0.660887 -3.72076 0
M  V30 2406 H 233.99 0.731426 -7.69331 0
M  V30 2407 H 232.335 0.66471 -6.91814 0
M  V30 2408 H 235.526 0.735545 -4.62285 0
M  V30 2409 H 235.699 0.767938 -6.43434 0
M  V30 2410 N 229.106 1.52395 0.401703 0
M  V30 2411 C 230.354 1.66488 1.14569 0
M  V30 2412 C 230.675 0.400897 1.90835 0
M  V30 2413 O 229.945 -0.584415 1.8698 0
M  V30 2414 H 228.525 0.613672 0.425929 0
M  V30 2415 H 231.187 1.89464 0.457093 0
M  V30 2416 H 230.283 2.50942 1.85566 0
M  V30 2417 N 230.584 -0.659388 1.43143 0
M  V30 2418 C 231.514 -1.78422 1.50625 0
M  V30 2419 C 232.495 -1.66216 0.361443 0
M  V30 2420 O 233.68 -1.85404 0.577834 0
M  V30 2421 C 230.81 -3.16815 1.42287 0
M  V30 2422 C 229.764 -3.43777 2.54954 0
M  V30 2423 C 229.09 -4.81905 2.31671 0
M  V30 2424 C 230.39 -3.39134 3.97222 0
M  V30 2425 H 232.084 -1.72417 2.44771 0
M  V30 2426 H 229.63 -0.828084 1.17808 0
M  V30 2427 H 231.583 -3.95253 1.46127 0
M  V30 2428 H 230.307 -3.23534 0.446435 0
M  V30 2429 H 228.966 -2.67707 2.50457 0
M  V30 2430 H 228.614 -4.85294 1.32284 0
M  V30 2431 H 228.314 -5.00906 3.07192 0
M  V30 2432 H 229.838 -5.62609 2.37284 0
M  V30 2433 H 231.252 -4.07518 4.03239 0
M  V30 2434 H 229.649 -3.69671 4.72719 0
M  V30 2435 H 230.719 -2.37426 4.22797 0
M  V30 2436 N 232.062 -1.29571 -0.897171 0
M  V30 2437 C 233.287 -1.20705 -1.68656 0
M  V30 2438 C 233.712 0.228582 -1.86706 0
M  V30 2439 O 233.07 1.16494 -1.3892 0
M  V30 2440 C 233.118 -1.9282 -3.04717 0
M  V30 2441 O 232.222 -1.24697 -3.93096 0
M  V30 2442 H 231.563 -0.418126 -0.515816 0
M  V30 2443 H 234.093 -1.71183 -1.12061 0
M  V30 2444 H 234.103 -2.01372 -3.54843 0
M  V30 2445 H 232.778 -2.97239 -2.90899 0
M  V30 2446 H 231.355 -1.2442 -3.51531 0
M  V30 2447 N 233.54 1.10788 -1.12088 0
M  V30 2448 C 234.768 1.86461 -0.896651 0
M  V30 2449 C 235.183 1.80492 0.553912 0
M  V30 2450 O 234.54 1.19102 1.38278 0
M  V30 2451 C 234.591 3.35006 -1.35843 0
M  V30 2452 O 234.312 3.40866 -2.75213 0
M  V30 2453 C 235.813 4.27565 -1.1706 0
M  V30 2454 H 233.033 0.589425 -0.320654 0
M  V30 2455 H 235.577 1.40076 -1.48993 0
M  V30 2456 H 233.732 3.7887 -0.808458 0
M  V30 2457 H 234.146 4.33411 -2.9539 0
M  V30 2458 H 235.62 5.30007 -1.54263 0
M  V30 2459 H 236.097 4.3906 -0.110814 0
M  V30 2460 H 236.703 3.89501 -1.70789 0
M  V30 2461 N 235.018 0.912232 1.28515 0
M  V30 2462 C 235.928 0.404506 2.31086 0
M  V30 2463 C 236.944 -0.50707 1.66448 0
M  V30 2464 O 238.12 -0.393624 1.97516 0
M  V30 2465 C 235.185 -0.348572 3.44943 0
M  V30 2466 C 234.246 0.59604 4.25142 0
M  V30 2467 C 233.479 -0.121194 5.33562 0
M  V30 2468 O 233.702 -1.34317 5.5436 0
M  V30 2469 O 232.636 0.542716 5.99448 0
M  V30 2470 H 236.462 1.25579 2.76521 0
M  V30 2471 H 234.047 0.676998 1.33181 0
M  V30 2472 H 235.929 -0.77395 4.14232 0
M  V30 2473 H 234.604 -1.17571 3.01594 0
M  V30 2474 H 233.511 1.07079 3.58448 0
M  V30 2475 H 234.844 1.38995 4.72167 0
M  V30 2476 N 236.496 -1.42363 0.676048 0
M  V30 2477 C 237.721 -2.06377 0.205705 0
M  V30 2478 C 238.146 -1.50463 -1.12883 0
M  V30 2479 O 237.504 -0.623619 -1.70237 0
M  V30 2480 C 237.552 -3.60277 0.152655 0
M  V30 2481 O 236.656 -4.02935 -0.87845 0
M  V30 2482 H 235.997 -0.655588 0.105359 0
M  V30 2483 H 238.527 -1.82475 0.925412 0
M  V30 2484 H 238.537 -4.07993 -0.0230675 0
M  V30 2485 H 237.212 -4.00346 1.12675 0
M  V30 2486 H 235.789 -3.66764 -0.673668 0
M  V30 2487 N 237.974 -0.419461 -1.51915 0
M  V30 2488 C 239.223 0.154346 -2.01109 0
M  V30 2489 C 239.536 1.45338 -1.30905 0
M  V30 2490 O 240.742 2.10906 -1.7097 0
M  V30 2491 C 239.198 0.325615 -3.58424 0
M  V30 2492 C 238.806 -0.961934 -4.37551 0
M  V30 2493 C 240.55 0.854155 -4.15818 0
M  V30 2494 C 238.457 -0.757287 -5.86531 0
M  V30 2495 H 237.387 0.0614563 -0.751491 0
M  V30 2496 H 240.038 -0.54649 -1.75173 0
M  V30 2497 H 238.42 1.08903 -3.80731 0
M  V30 2498 H 239.594 -1.7323 -4.26999 0
M  V30 2499 H 237.909 -1.41766 -3.91524 0
M  V30 2500 H 240.506 1.02346 -5.24814 0
M  V30 2501 H 240.849 1.83172 -3.73837 0
M  V30 2502 H 241.382 0.149528 -3.97519 0
M  V30 2503 H 238.121 -1.70671 -6.32892 0
M  V30 2504 H 237.641 -0.0264061 -5.99794 0
M  V30 2505 H 239.32 -0.403482 -6.45741 0
M  V30 2506 N 239.452 1.56882 -0.150215 0
M  V30 2507 C 240.382 2.19935 0.784284 0
M  V30 2508 C 241.363 1.14854 1.25469 0
M  V30 2509 O 242.548 1.43209 1.31168 0
M  V30 2510 C 239.678 2.82349 2.02229 0
M  V30 2511 C 238.632 3.93285 1.68853 0
M  V30 2512 C 237.958 4.42649 2.99944 0
M  V30 2513 C 239.258 5.13904 0.932714 0
M  V30 2514 H 240.952 2.9828 0.258781 0
M  V30 2515 H 238.498 1.43473 0.123029 0
M  V30 2516 H 240.451 3.25126 2.68088 0
M  V30 2517 H 239.175 2.0134 2.57157 0
M  V30 2518 H 237.834 3.5113 1.05371 0
M  V30 2519 H 237.482 3.58458 3.52869 0
M  V30 2520 H 237.182 5.17476 2.78374 0
M  V30 2521 H 238.706 4.88099 3.66868 0
M  V30 2522 H 240.12 5.53506 1.49345 0
M  V30 2523 H 238.517 5.94515 0.81684 0
M  V30 2524 H 239.587 4.84842 -0.0749568 0
M  V30 2525 N 240.93 -0.123565 1.57115 0
M  V30 2526 C 242.179 -0.830704 1.83799 0
M  V30 2527 C 242.492 -1.81259 0.735158 0
M  V30 2528 O 243.698 -2.56558 0.888278 0
M  V30 2529 C 242.154 -1.52802 3.25852 0
M  V30 2530 C 241.762 -0.587356 4.44133 0
M  V30 2531 C 243.506 -2.22056 3.61789 0
M  V30 2532 C 241.413 -1.28764 5.77212 0
M  V30 2533 H 240.343 -0.313967 0.685522 0
M  V30 2534 H 242.994 -0.0834359 1.8331 0
M  V30 2535 H 241.376 -2.32175 3.20797 0
M  V30 2536 H 242.55 0.172829 4.60476 0
M  V30 2537 H 240.865 -0.00201892 4.164 0
M  V30 2538 H 243.462 -2.75131 4.58483 0
M  V30 2539 H 243.805 -2.99644 2.88997 0
M  V30 2540 H 244.338 -1.49576 3.68608 0
M  V30 2541 H 241.077 -0.55314 6.53162 0
M  V30 2542 H 240.597 -2.01995 5.64764 0
M  V30 2543 H 242.276 -1.8221 6.20813 0
M  V30 2544 N 242.408 -1.52605 -0.393616 0
M  V30 2545 C 243.819 -1.59417 -0.971761 0
M  V30 2546 C 244.17 -0.444173 -1.91106 0
M  V30 2547 O 243.295 0.433382 -2.12016 0
M  V30 2548 C 243.89 -2.88936 -1.76921 0
M  V30 2549 C 242.449 -2.98175 -2.29714 0
M  V30 2550 C 241.596 -2.54491 -1.10135 0
M  V30 2551 H 244.547 -1.57751 -0.173317 0
M  V30 2552 H 244.568 -2.75163 -2.62804 0
M  V30 2553 H 244.08 -3.72616 -1.08532 0
M  V30 2554 H 242.181 -2.19024 -3.01429 0
M  V30 2555 H 242.294 -4.02726 -2.59517 0
M  V30 2556 H 240.658 -2.08702 -1.45999 0
M  V30 2557 H 241.441 -3.4056 -0.432874 0
M  V30 2558 N 243.887 0.651787 -1.4349 0
M  V30 2559 C 245.303 0.96762 -1.26922 0
M  V30 2560 C 245.503 2.00602 -0.189982 0
M  V30 2561 O 244.559 2.48793 0.431107 0
M  V30 2562 C 245.872 1.45052 -2.63401 0
M  V30 2563 C 247.42 1.5671 -2.70945 0
M  V30 2564 C 247.895 2.0839 -4.07845 0
M  V30 2565 N 249.386 2.1569 -4.09917 0
M  V30 2566 C 250.121 2.56804 -5.12679 0
M  V30 2567 N 249.617 2.97203 -6.25813 0
M  V30 2568 N 251.41 2.56756 -5.00033 0
M  V30 2569 H 243.561 -0.0353158 -2.12371 0
M  V30 2570 H 245.824 0.0467858 -0.946845 0
M  V30 2571 H 245.53 0.761926 -3.43348 0
M  V30 2572 H 245.404 2.42529 -2.88894 0
M  V30 2573 H 247.791 2.2467 -1.9133 0
M  V30 2574 H 247.872 0.57662 -2.49216 0
M  V30 2575 H 247.516 1.41031 -4.87927 0
M  V30 2576 H 247.446 3.08271 -4.26938 0
M  V30 2577 H 249.937 1.87237 -3.28254 0
M  V30 2578 H 250.25 3.27328 -7.00055 0
M  V30 2579 H 248.595 2.95004 -6.29283 0
M  V30 2580 H 251.786 2.24572 -4.10713 0
M  V30 2581 H 251.959 2.88475 -5.80247 0
M  V30 2582 N 245.365 1.30045 0.890287 0
M  V30 2583 C 246.297 1.11786 2.00091 0
M  V30 2584 C 247.31 0.0626307 1.62679 0
M  V30 2585 O 248.499 0.308112 1.75821 0
M  V30 2586 C 245.599 0.681527 3.31977 0
M  V30 2587 C 244.772 1.81735 3.97858 0
M  V30 2588 C 243.831 1.37045 5.08041 0
M  V30 2589 O 242.857 2.07677 5.29961 0
M  V30 2590 N 244.059 0.246525 5.79976 0
M  V30 2591 H 246.824 2.07441 2.16306 0
M  V30 2592 H 244.385 1.2211 1.06305 0
M  V30 2593 H 246.377 0.365675 4.03045 0
M  V30 2594 H 244.947 -0.182828 3.12065 0
M  V30 2595 H 244.167 2.30159 3.20032 0
M  V30 2596 H 245.455 2.57865 4.38615 0
M  V30 2597 H 244.853 -0.34215 5.64664 0
M  V30 2598 H 243.41 -0.00990438 6.51799 0
M  V30 2599 N 246.843 -1.10192 1.12674 0
M  V30 2600 C 248.068 -1.86523 0.906853 0
M  V30 2601 C 248.493 -1.80221 -0.538711 0
M  V30 2602 O 247.851 -1.17396 -1.38158 0
M  V30 2603 C 247.899 -3.32758 1.3894 0
M  V30 2604 O 247.003 -4.08449 0.5695 0
M  V30 2605 H 246.344 -0.578678 0.325619 0
M  V30 2606 H 248.874 -1.39203 1.49946 0
M  V30 2607 H 248.884 -3.83608 1.38958 0
M  V30 2608 H 247.559 -3.36661 2.44197 0
M  V30 2609 H 246.136 -3.67427 0.636528 0
M  V30 2610 N 248.321 -0.919034 -1.28029 0
M  V30 2611 C 249.231 -0.416756 -2.30869 0
M  V30 2612 C 250.247 0.498235 -1.66714 0
M  V30 2613 O 251.423 0.383144 -1.97722 0
M  V30 2614 C 248.488 0.330274 -3.45123 0
M  V30 2615 C 247.549 -0.618578 -4.2482 0
M  V30 2616 C 246.782 0.0928959 -5.33619 0
M  V30 2617 O 247.005 1.31375 -5.55065 0
M  V30 2618 O 245.939 -0.574499 -5.99152 0
M  V30 2619 H 249.765 -1.27043 -2.75851 0
M  V30 2620 H 247.35 -0.684052 -1.3282 0
M  V30 2621 H 249.232 0.751972 -4.14636 0
M  V30 2622 H 247.907 1.1597 -3.02213 0
M  V30 2623 H 246.814 -1.08978 -3.57875 0
M  V30 2624 H 248.147 -1.41497 -4.71423 0
M  V30 2625 N 249.799 1.42003 -0.683588 0
M  V30 2626 C 251.027 2.05746 -0.218182 0
M  V30 2627 C 251.442 1.51396 1.12804 0
M  V30 2628 O 250.799 0.657303 1.70252 0
M  V30 2629 C 250.85 3.61171 -0.154131 0
M  V30 2630 O 250.571 4.13508 -1.44716 0
M  V30 2631 C 252.072 4.42042 0.333713 0
M  V30 2632 H 249.292 0.662888 -0.10402 0
M  V30 2633 H 251.836 1.81987 -0.9328 0
M  V30 2634 H 249.991 3.84012 0.511231 0
M  V30 2635 H 250.405 5.07453 -1.32632 0
M  V30 2636 H 251.879 5.51028 0.327423 0
M  V30 2637 H 252.356 4.17269 1.37053 0
M  V30 2638 H 252.962 4.24239 -0.300222 0
M  V30 2639 N 251.277 0.427512 1.51691 0
M  V30 2640 C 252.517 -0.141524 2.03909 0
M  V30 2641 C 252.881 -1.40811 1.30523 0
M  V30 2642 O 254.082 -2.05676 1.73063 0
M  V30 2643 C 252.353 -0.364962 3.55532 0
M  V30 2644 S 253.912 -0.898812 4.29496 0
M  V30 2645 H 250.73 -0.0364542 0.710065 0
M  V30 2646 H 253.332 0.584659 1.86553 0
M  V30 2647 H 252.036 0.56336 4.06515 0
M  V30 2648 H 251.567 -1.1185 3.77164 0
M  V30 2649 H 253.582 -2.17747 4.45871 0
M  V30 2650 N 252.755 -1.56801 0.158532 0
M  V30 2651 C 253.98 -2.01295 -0.499516 0
M  V30 2652 C 254.405 -1.03799 -1.56867 0
M  V30 2653 O 253.763 -0.0155162 -1.81293 0
M  V30 2654 C 253.811 -3.44469 -1.06647 0
M  V30 2655 O 252.915 -3.50012 -2.18095 0
M  V30 2656 H 252.256 -0.652884 -0.12099 0
M  V30 2657 H 254.786 -2.02958 0.258661 0
M  V30 2658 H 254.796 -3.8351 -1.39227 0
M  V30 2659 H 253.471 -4.14932 -0.283581 0
M  V30 2660 H 252.048 -3.22822 -1.86656 0
M  V30 2661 N 254.233 0.115231 -1.57178 0
M  V30 2662 C 255.644 0.67197 -1.74188 0
M  V30 2663 C 255.995 1.80125 -0.777777 0
M  V30 2664 O 255.12 2.16346 0.0484376 0
M  V30 2665 C 255.715 1.22573 -3.1585 0
M  V30 2666 C 254.274 1.72872 -3.34353 0
M  V30 2667 C 253.421 0.629972 -2.70049 0
M  V30 2668 H 256.372 -0.110712 -1.58313 0
M  V30 2669 H 256.393 2.09535 -3.17609 0
M  V30 2670 H 255.905 0.403598 -3.85996 0
M  V30 2671 H 254.006 2.5755 -2.69256 0
M  V30 2672 H 254.119 1.83557 -4.42542 0
M  V30 2673 H 252.483 1.0645 -2.31388 0
M  V30 2674 H 253.266 -0.181241 -3.42821 0
M  V30 2675 N 255.711 1.52812 0.385517 0
M  V30 2676 C 256.959 1.67694 1.12797 0
M  V30 2677 C 257.28 0.421115 1.90399 0
M  V30 2678 O 256.55 -0.564551 1.87589 0
M  V30 2679 H 255.13 0.618155 0.419396 0
M  V30 2680 H 257.792 1.89938 0.436972 0
M  V30 2681 H 256.888 2.52896 1.82894 0
M  V30 2682 N 257.189 -0.644168 1.43834 0
M  V30 2683 C 258.414 -1.43642 1.49605 0
M  V30 2684 C 258.839 -1.8773 0.117913 0
M  V30 2685 O 258.197 -1.57938 -0.890239 0
M  V30 2686 C 258.245 -2.6416 2.45463 0
M  V30 2687 O 257.349 -3.63538 1.94714 0
M  V30 2688 H 256.69 -0.430329 0.50568 0
M  V30 2689 H 259.22 -0.787448 1.8884 0
M  V30 2690 H 259.23 -3.11864 2.63068 0
M  V30 2691 H 257.905 -2.31414 3.45572 0
M  V30 2692 H 256.482 -3.2273 1.86814 0
M  V30 2693 N 258.668 -1.30515 -0.883378 0
M  V30 2694 C 259.945 -1.10086 -1.6168 0
M  V30 2695 C 260.325 0.349269 -2.08191 0
M  V30 2696 O 259.673 1.34105 -1.85008 0
M  V30 2697 C 259.883 -2.10315 -2.78511 0
M  V30 2698 C 261.231 -2.42119 -3.48803 0
M  V30 2699 O 262.255 -2.08638 -2.88702 0
M  V30 2700 O 261.114 -2.99396 -4.57192 0
M  V30 2701 H 258.208 -0.422907 -0.710689 0
M  V30 2702 H 260.754 -1.41947 -0.930015 0
M  V30 2703 H 259.526 -3.07917 -2.41459 0
M  V30 2704 H 259.149 -1.79282 -3.54886 0
M  V30 2705 O 260.185 1.01953 -1.25251 0
M  V30 2706 H 260.876 1.63744 -1.03478 0
M  V30 END ATOM
M  V30 BEGIN BOND
M  V30 END BOND
M  V30 END CTAB
M  END
$$$$
