drugbank_target|P31057 3-methyl-2-oxobutanoate hydroxymethyltransferase (DB03795)
 OpenBabel12092119593D

  0  0  0     0  0            999 V3000
M  V30 BEGIN CTAB
M  V30 COUNTS 3968 4005 0 0 0
M  V30 BEGIN ATOM
M  V30 1 H -0.908 1.98254 -0.117106 0
M  V30 2 N 0 1.576 0 0
M  V30 3 C 0.933 2.03868 1.02534 0
M  V30 4 C 1.911 0.928543 1.3348 0
M  V30 5 O 3.095 1.19667 1.45644 0
M  V30 6 C 0.222 2.43627 2.35294 0
M  V30 7 C -0.732 3.65373 2.2001 0
M  V30 8 S 0.101 5.13292 1.52614 0
M  V30 9 C 1.257 5.56322 2.86805 0
M  V30 10 H 1.49 2.90518 0.631377 0
M  V30 11 H -0.977 1.52953 0.210867 0
M  V30 12 H 0.981 2.67203 3.11629 0
M  V30 13 H -0.358 1.57376 2.7183 0
M  V30 14 H -1.165 3.90944 3.18086 0
M  V30 15 H -1.563 3.418 1.51819 0
M  V30 16 H 0.729 5.58782 3.83104 0
M  V30 17 H 1.672 6.56266 2.65933 0
M  V30 18 H 2.08 4.83886 2.90714 0
M  V30 19 N 1.4781 -0.272755 1.55222 0
M  V30 20 C 2.4251 -1.33716 1.88119 0
M  V30 21 C 3.3951 -1.49066 0.73271 0
M  V30 22 O 4.5801 -1.63469 0.984002 0
M  V30 23 C 1.7201 -2.69238 2.15882 0
M  V30 24 C 0.8331 -2.62108 3.43399 0
M  V30 25 C -0.0319 -3.89811 3.60861 0
M  V30 26 C -0.9929 -3.77193 4.8207 0
M  V30 27 N -1.8559 -4.9673 4.96189 0
M  V30 28 H 2.9841 -1.04962 2.78903 0
M  V30 29 H 0.5211 -0.507088 1.38083 0
M  V30 30 H 2.4791 -3.48089 2.29978 0
M  V30 31 H 1.1091 -2.96194 1.28331 0
M  V30 32 H 0.1611 -1.74967 3.37773 0
M  V30 33 H 1.4731 -2.48685 4.32386 0
M  V30 34 H 0.6271 -4.77103 3.74777 0
M  V30 35 H -0.6339 -4.06102 2.7006 0
M  V30 36 H -1.6289 -2.88284 4.68159 0
M  V30 37 H -0.4039 -3.62421 5.74307 0
M  V30 38 H -2.4579 -5.13431 4.08319 0
M  V30 39 H -2.5409 -4.85839 5.79221 0
M  V30 40 H -1.2729 -5.85594 5.1449 0
M  V30 41 N 2.9562 -1.48159 -0.537278 0
M  V30 42 C 4.3672 -1.49429 -1.11928 0
M  V30 43 C 4.7182 -0.26 -1.9447 0
M  V30 44 O 3.8432 0.633489 -2.0692 0
M  V30 45 C 4.4382 -2.70758 -2.03656 0
M  V30 46 C 2.9972 -2.74923 -2.57088 0
M  V30 47 C 2.1442 -2.42835 -1.3389 0
M  V30 48 H 5.0952 -1.55381 -0.322886 0
M  V30 49 H 5.1162 -2.48861 -2.87834 0
M  V30 50 H 4.6282 -3.60575 -1.43553 0
M  V30 51 H 2.7292 -1.89296 -3.20933 0
M  V30 52 H 2.8422 -3.76157 -2.9672 0
M  V30 53 H 1.2062 -1.93836 -1.65226 0
M  V30 54 H 1.9892 -3.34884 -0.755504 0
M  V30 55 N 4.4343 0.785586 -1.36625 0
M  V30 56 C 5.6623 1.57448 -1.3423 0
M  V30 57 C 6.0773 1.88649 0.0755653 0
M  V30 58 O 5.4343 1.50414 1.03354 0
M  V30 59 C 5.4853 2.89316 -2.16745 0
M  V30 60 O 5.2063 2.59459 -3.53005 0
M  V30 61 C 6.7073 3.83606 -2.22174 0
M  V30 62 H 3.9273 0.488226 -0.4603 0
M  V30 63 H 6.4713 0.974733 -1.79775 0
M  V30 64 H 4.6263 3.4575 -1.74745 0
M  V30 65 H 5.0403 3.43804 -3.96105 0
M  V30 66 H 6.5143 4.73181 -2.8426 0
M  V30 67 H 6.9913 4.21734 -1.22627 0
M  V30 68 H 7.5973 3.33104 -2.64427 0
M  V30 69 N 5.9124 1.20967 1.01018 0
M  V30 70 C 7.1404 1.04956 1.78303 0
M  V30 71 C 7.5554 -0.400915 1.84494 0
M  V30 72 O 6.9124 -1.27826 1.30257 0
M  V30 73 C 6.9634 1.63403 3.22462 0
M  V30 74 O 6.6844 3.02775 3.16637 0
M  V30 75 C 8.1854 1.52432 4.16268 0
M  V30 76 H 5.4054 0.368858 0.560522 0
M  V30 77 H 7.9494 1.60193 1.27116 0
M  V30 78 H 6.1044 1.1227 3.70775 0
M  V30 79 H 6.5184 3.30626 4.07169 0
M  V30 80 H 7.9924 1.98078 5.15237 0
M  V30 81 H 8.4694 0.477875 4.36592 0
M  V30 82 H 9.0754 2.02787 3.73841 0
M  V30 83 N 7.3905 -1.2043 1.01659 0
M  V30 84 C 8.6395 -1.89118 0.701237 0
M  V30 85 C 8.9525 -1.79705 -0.772358 0
M  V30 86 O 10.1585 -2.43528 -1.20026 0
M  V30 87 C 8.6145 -3.39168 1.20388 0
M  V30 88 C 8.2225 -3.57166 2.70438 0
M  V30 89 C 9.9665 -4.1341 0.963953 0
M  V30 90 C 7.8735 -5.01042 3.14183 0
M  V30 91 H 6.8035 -0.708267 0.2586 0
M  V30 92 H 9.4545 -1.36239 1.22927 0
M  V30 93 H 7.8365 -3.91369 0.603824 0
M  V30 94 H 9.0105 -3.15351 3.35992 0
M  V30 95 H 7.3255 -2.96294 2.92572 0
M  V30 96 H 9.9225 -5.19491 1.26621 0
M  V30 97 H 10.2655 -4.16181 -0.099578 0
M  V30 98 H 10.7985 -3.67309 1.52738 0
M  V30 99 H 7.5375 -5.03426 4.19812 0
M  V30 100 H 7.0575 -5.43668 2.53348 0
M  V30 101 H 8.7365 -5.69623 3.0682 0
M  V30 102 N 8.8686 -0.792821 -1.36206 0
M  V30 103 C 10.0936 -0.377701 -2.03932 0
M  V30 104 C 10.5186 0.998947 -1.59382 0
M  V30 105 O 9.8766 1.64421 -0.763903 0
M  V30 106 C 9.9246 -0.453635 -3.57735 0
M  V30 107 O 9.0286 0.538151 -4.08874 0
M  V30 108 H 8.3696 -0.159855 -0.644471 0
M  V30 109 H 10.8996 -1.07488 -1.7409 0
M  V30 110 H 10.9096 -0.318464 -4.06755 0
M  V30 111 H 9.5846 -1.45784 -3.89512 0
M  V30 112 H 8.1616 0.364359 -3.71116 0
M  V30 113 N 10.3467 1.47872 -0.545128 0
M  V30 114 C 11.2767 2.32661 0.197793 0
M  V30 115 C 12.2577 1.43041 0.920504 0
M  V30 116 O 13.4427 1.71912 0.90333 0
M  V30 117 C 10.5727 3.24569 1.23582 0
M  V30 118 C 9.5267 4.23333 0.630323 0
M  V30 119 C 8.8527 5.0448 1.77211 0
M  V30 120 C 10.1527 5.20704 -0.407974 0
M  V30 121 H 11.8467 2.95024 -0.510045 0
M  V30 122 H 9.3927 1.4187 -0.246731 0
M  V30 123 H 11.3457 3.8272 1.76362 0
M  V30 124 H 10.0697 2.60236 1.97344 0
M  V30 125 H 8.7287 3.6639 0.123922 0
M  V30 126 H 8.3767 4.36561 2.49847 0
M  V30 127 H 8.0767 5.71339 1.37281 0
M  V30 128 H 9.6007 5.65487 2.3034 0
M  V30 129 H 11.0147 5.7329 0.033305 0
M  V30 130 H 9.4117 5.95699 -0.725486 0
M  V30 131 H 10.4817 4.66917 -1.30828 0
M  V30 132 N 11.8248 0.280983 1.55075 0
M  V30 133 C 12.7548 -0.597469 2.25727 0
M  V30 134 C 13.7358 -1.15417 1.24952 0
M  V30 135 O 14.9208 -1.18722 1.53684 0
M  V30 136 C 12.0508 -1.7789 2.98283 0
M  V30 137 C 11.0048 -1.35347 4.06036 0
M  V30 138 C 10.3308 -2.61846 4.66198 0
M  V30 139 C 11.6308 -0.499354 5.19907 0
M  V30 140 H 13.3248 -0.00824265 2.99399 0
M  V30 141 H 10.8708 -0.0025244 1.44 0
M  V30 142 H 12.8238 -2.39937 3.46422 0
M  V30 143 H 11.5478 -2.39405 2.22155 0
M  V30 144 H 10.2068 -0.756156 3.58717 0
M  V30 145 H 9.8548 -3.21632 3.86732 0
M  V30 146 H 9.5548 -2.3409 5.38958 0
M  V30 147 H 11.0788 -3.24732 5.1709 0
M  V30 148 H 12.4928 -1.02498 5.64063 0
M  V30 149 H 10.8898 -0.316424 5.99265 0
M  V30 150 H 11.9598 0.480459 4.82514 0
M  V30 151 N 13.3029 -1.57598 0.00835791 0
M  V30 152 C 14.2349 -2.05811 -1.00868 0
M  V30 153 C 15.2479 -0.977579 -1.30182 0
M  V30 154 O 16.4369 -1.25421 -1.27011 0
M  V30 155 C 13.5369 -2.45016 -2.34137 0
M  V30 156 C 12.7099 -3.75903 -2.23643 0
M  V30 157 C 11.7689 -4.01884 -3.3967 0
M  V30 158 O 10.7949 -4.72433 -3.17483 0
M  V30 159 N 11.9969 -3.50432 -4.62793 0
M  V30 160 H 14.7619 -2.93684 -0.597458 0
M  V30 161 H 12.3229 -1.60909 -0.178852 0
M  V30 162 H 14.3149 -2.59506 -3.10546 0
M  V30 163 H 12.8849 -1.62618 -2.66972 0
M  V30 164 H 12.1049 -3.7141 -1.32091 0
M  V30 165 H 13.3929 -4.61695 -2.13812 0
M  V30 166 H 12.7909 -2.93317 -4.83716 0
M  V30 167 H 11.3479 -3.70236 -5.3644 0
M  V30 168 N 14.781 0.264519 -1.55364 0
M  V30 169 C 15.728 1.32717 -1.88825 0
M  V30 170 C 16.698 1.48675 -0.740605 0
M  V30 171 O 17.883 1.62945 -0.992657 0
M  V30 172 C 15.023 2.68089 -2.17307 0
M  V30 173 C 14.136 2.60284 -3.44785 0
M  V30 174 C 13.271 3.87892 -3.62924 0
M  V30 175 C 12.31 3.74631 -4.84064 0
M  V30 176 N 11.447 4.94092 -4.98816 0
M  V30 177 H 16.287 1.03481 -2.79456 0
M  V30 178 H 13.824 0.499757 -1.3835 0
M  V30 179 H 15.782 3.46864 -2.31821 0
M  V30 180 H 14.412 2.95509 -1.299 0
M  V30 181 H 13.464 1.73173 -3.38697 0
M  V30 182 H 14.776 2.46388 -4.33698 0
M  V30 183 H 13.93 4.75109 -3.77302 0
M  V30 184 H 12.669 4.04664 -2.7221 0
M  V30 185 H 11.674 2.85797 -4.69681 0
M  V30 186 H 12.899 3.5937 -5.76221 0
M  V30 187 H 10.845 5.11259 -4.11036 0
M  V30 188 H 10.762 4.8276 -5.81789 0
M  V30 189 H 12.03 5.82857 -5.17588 0
M  V30 190 N 16.2591 1.48442 0.529413 0
M  V30 191 C 17.4891 1.59919 1.30804 0
M  V30 192 C 17.8971 0.258792 1.87422 0
M  V30 193 O 17.2401 -0.762096 1.67146 0
M  V30 194 C 17.3021 2.58693 2.49636 0
M  V30 195 C 16.9661 4.03745 2.14101 0
M  V30 196 C 17.9631 4.9141 1.6974 0
M  V30 197 C 15.6481 4.49285 2.24607 0
M  V30 198 C 17.6421 6.22645 1.36351 0
M  V30 199 C 15.3291 5.8054 1.9083 0
M  V30 200 C 16.3271 6.67043 1.46773 0
M  V30 201 O 16.0151 7.95856 1.1344 0
M  V30 202 H 15.7471 0.541981 0.404021 0
M  V30 203 H 18.3011 1.95 0.645309 0
M  V30 204 H 16.5311 2.18734 3.18892 0
M  V30 205 H 18.2201 2.59999 3.11698 0
M  V30 206 H 18.9861 4.57465 1.61094 0
M  V30 207 H 14.8651 3.82142 2.57854 0
M  V30 208 H 18.4091 6.90119 1.01891 0
M  V30 209 H 14.3061 6.14022 1.99117 0
M  V30 210 H 15.0741 8.08613 1.26832 0
M  V30 211 N 17.7372 -0.778329 1.37039 0
M  V30 212 C 18.6842 -1.89139 1.32269 0
M  V30 213 C 19.6542 -1.65017 0.189387 0
M  V30 214 O 20.8392 -1.87024 0.377693 0
M  V30 215 C 17.9792 -3.26112 1.12894 0
M  V30 216 C 17.0922 -3.62233 2.35396 0
M  V30 217 C 16.2272 -4.8838 2.08946 0
M  V30 218 C 15.2662 -5.17212 3.2735 0
M  V30 219 N 14.4032 -6.34546 3.00492 0
M  V30 220 H 19.2432 -1.92552 2.27437 0
M  V30 221 H 16.7802 -0.941473 1.13025 0
M  V30 222 H 18.7382 -4.05116 0.996835 0
M  V30 223 H 17.3682 -3.22091 0.213758 0
M  V30 224 H 16.4202 -2.78265 2.5937 0
M  V30 225 H 17.7322 -3.79481 3.23721 0
M  V30 226 H 16.8862 -5.75274 1.92729 0
M  V30 227 H 15.6252 -4.73222 1.17949 0
M  V30 228 H 14.6302 -4.28796 3.44113 0
M  V30 229 H 15.8552 -5.34283 4.19188 0
M  V30 230 H 13.8012 -6.20759 2.12118 0
M  V30 231 H 13.7182 -6.52179 3.82358 0
M  V30 232 H 14.9862 -7.24394 2.87879 0
M  V30 233 N 19.2153 -1.21501 -1.00376 0
M  V30 234 C 20.1473 -0.933174 -2.09343 0
M  V30 235 C 21.1603 0.0840896 -1.62583 0
M  V30 236 O 22.3493 -0.148563 -1.77881 0
M  V30 237 C 19.4493 -0.379869 -3.36764 0
M  V30 238 C 18.6223 -1.45176 -4.12605 0
M  V30 239 C 17.6813 -0.907476 -5.18316 0
M  V30 240 O 16.7073 -1.5912 -5.46507 0
M  V30 241 N 17.9093 0.276649 -5.7984 0
M  V30 242 H 20.6743 -1.87124 -2.34104 0
M  V30 243 H 18.2353 -1.12043 -1.16867 0
M  V30 244 H 20.2273 -0.00131488 -4.047 0
M  V30 245 H 18.7973 0.463048 -3.09151 0
M  V30 246 H 18.0173 -2.00411 -3.39454 0
M  V30 247 H 19.3053 -2.17328 -4.6005 0
M  V30 248 H 18.7033 0.849147 -5.59291 0
M  V30 249 H 17.2603 0.596702 -6.49063 0
M  V30 250 N 20.6934 1.19889 -1.02296 0
M  V30 251 C 21.6034 2.26571 -0.608508 0
M  V30 252 C 22.6194 1.70299 0.356964 0
M  V30 253 O 23.7954 2.00235 0.216326 0
M  V30 254 C 20.8604 3.46677 0.0402814 0
M  V30 255 C 19.9214 4.18153 -0.97194 0
M  V30 256 C 19.1544 5.32525 -0.354016 0
M  V30 257 O 19.3774 5.64112 0.844604 0
M  V30 258 O 18.3114 5.92242 -1.07391 0
M  V30 259 H 22.1374 2.64251 -1.49684 0
M  V30 260 H 19.7224 1.26629 -0.792809 0
M  V30 261 H 21.6044 4.19475 0.402324 0
M  V30 262 H 20.2794 3.10858 0.902707 0
M  V30 263 H 19.1864 3.47499 -1.38546 0
M  V30 264 H 20.5194 4.57927 -1.80454 0
M  V30 265 N 22.1715 0.800033 1.35784 0
M  V30 266 C 23.1185 0.203848 2.29898 0
M  V30 267 C 24.0885 -0.658375 1.52495 0
M  V30 268 O 25.2735 -0.604832 1.8096 0
M  V30 269 C 22.4135 -0.64688 3.38983 0
M  V30 270 C 21.5265 0.235054 4.3136 0
M  V30 271 C 20.6615 -0.623054 5.27533 0
M  V30 272 C 19.7005 0.259682 6.11549 0
M  V30 273 N 18.8375 -0.558019 6.99879 0
M  V30 274 H 23.6775 1.01186 2.80295 0
M  V30 275 H 21.2145 0.51053 1.37957 0
M  V30 276 H 23.1725 -1.15521 4.00887 0
M  V30 277 H 21.8025 -1.42021 2.89879 0
M  V30 278 H 20.8545 0.861438 3.70518 0
M  V30 279 H 22.1665 0.914768 4.9034 0
M  V30 280 H 21.3205 -1.19678 5.94779 0
M  V30 281 H 20.0595 -1.33636 4.69034 0
M  V30 282 H 19.0645 0.845726 5.43256 0
M  V30 283 H 20.2895 0.970748 6.72126 0
M  V30 284 H 18.2355 -1.25542 6.43875 0
M  V30 285 H 18.1525 0.0637872 7.55973 0
M  V30 286 H 19.4205 -1.11523 7.71481 0
M  V30 287 N 23.6496 -1.47581 0.552962 0
M  V30 288 C 24.5966 -2.29957 -0.197108 0
M  V30 289 C 25.5666 -1.38799 -0.912359 0
M  V30 290 O 26.7516 -1.67761 -0.908888 0
M  V30 291 C 23.8916 -3.22672 -1.22379 0
M  V30 292 C 23.0046 -4.28919 -0.515038 0
M  V30 293 C 22.1396 -5.0879 -1.52664 0
M  V30 294 C 21.1786 -6.06815 -0.802631 0
M  V30 295 N 20.3156 -6.7966 -1.76086 0
M  V30 296 H 25.1556 -2.93578 0.511486 0
M  V30 297 H 22.6926 -1.4471 0.264067 0
M  V30 298 H 24.6506 -3.74845 -1.83159 0
M  V30 299 H 23.2806 -2.60925 -1.90047 0
M  V30 300 H 22.3326 -3.79835 0.207192 0
M  V30 301 H 23.6446 -4.98773 0.0523425 0
M  V30 302 H 22.7986 -5.65091 -2.20809 0
M  V30 303 H 21.5376 -4.38828 -2.12794 0
M  V30 304 H 20.5426 -5.49695 -0.107238 0
M  V30 305 H 21.7676 -6.78784 -0.207135 0
M  V30 306 H 19.7136 -6.12432 -2.35081 0
M  V30 307 H 19.6306 -7.45669 -1.24552 0
M  V30 308 H 20.8986 -7.40538 -2.43359 0
M  V30 309 N 25.1277 -0.289203 -1.54924 0
M  V30 310 C 26.5437 0.0645403 -1.59469 0
M  V30 311 C 26.7437 1.53419 -1.30632 0
M  V30 312 O 25.7997 2.2852 -1.074 0
M  V30 313 C 27.1127 -0.32278 -2.98963 0
M  V30 314 C 28.6607 -0.270564 -3.11828 0
M  V30 315 C 29.1357 -0.632532 -4.53611 0
M  V30 316 N 30.6267 -0.584617 -4.59496 0
M  V30 317 C 31.3617 -0.837314 -5.67254 0
M  V30 318 N 30.8577 -1.15536 -6.83098 0
M  V30 319 N 32.6507 -0.765166 -5.56868 0
M  V30 320 H 24.8017 -1.24714 -1.71931 0
M  V30 321 H 27.0647 -0.504809 -0.802416 0
M  V30 322 H 26.7707 -1.34541 -3.24948 0
M  V30 323 H 26.6447 0.32944 -3.75759 0
M  V30 324 H 29.0317 0.742805 -2.85598 0
M  V30 325 H 29.1127 -0.957242 -2.37214 0
M  V30 326 H 28.7567 -1.64365 -4.80569 0
M  V30 327 H 28.6867 0.07609 -5.26545 0
M  V30 328 H 31.1777 -0.349248 -3.76283 0
M  V30 329 H 31.4907 -1.33447 -7.61191 0
M  V30 330 H 29.8357 -1.19328 -6.84679 0
M  V30 331 H 33.0267 -0.516432 -4.65243 0
M  V30 332 H 33.1997 -0.965477 -6.40767 0
M  V30 333 N 26.6058 1.57591 -0.0167156 0
M  V30 334 C 27.8528 1.91283 0.664597 0
M  V30 335 C 28.1808 0.891949 1.72842 0
M  V30 336 O 27.4358 -0.100931 1.9544 0
M  V30 337 C 27.7348 3.3172 1.33029 0
M  V30 338 C 27.4008 4.4914 0.398047 0
M  V30 339 C 26.0628 4.80992 0.141421 0
M  V30 340 C 28.4148 5.20634 -0.242825 0
M  V30 341 C 25.7428 5.81703 -0.764092 0
M  V30 342 C 28.0948 6.22311 -1.13632 0
M  V30 343 C 26.7588 6.52611 -1.40196 0
M  V30 344 H 26.0288 0.699956 0.243193 0
M  V30 345 H 28.6758 1.9135 -0.0758267 0
M  V30 346 H 26.9808 3.27856 2.14517 0
M  V30 347 H 28.6778 3.55055 1.86379 0
M  V30 348 H 25.2678 4.24262 0.608238 0
M  V30 349 H 29.4518 4.96267 -0.0576019 0
M  V30 350 H 24.7078 6.03532 -0.977732 0
M  V30 351 H 28.8818 6.76834 -1.63917 0
M  V30 352 H 26.5088 7.30467 -2.10529 0
M  V30 353 N 28.0839 -0.256276 1.55502 0
M  V30 354 C 29.0469 -1.30047 1.88734 0
M  V30 355 C 30.0469 -1.4154 0.763086 0
M  V30 356 O 31.2369 -1.40403 1.03115 0
M  V30 357 C 28.3689 -2.67953 2.10747 0
M  V30 358 H 29.5619 -1.01802 2.82093 0
M  V30 359 H 27.1149 -0.495134 1.4825 0
M  V30 360 H 27.8499 -3.01351 1.19825 0
M  V30 361 H 27.6349 -2.60993 2.92617 0
M  V30 362 H 29.1249 -3.43368 2.37673 0
M  V30 363 N 29.562 -1.4872 -0.521534 0
M  V30 364 C 30.79 -1.60843 -1.30142 0
M  V30 365 C 31.205 -0.271897 -1.86832 0
M  V30 366 O 30.562 0.739969 -1.66825 0
M  V30 367 C 30.613 -2.66155 -2.4463 0
M  V30 368 O 30.334 -3.94623 -1.90275 0
M  V30 369 C 31.835 -2.88795 -3.36322 0
M  V30 370 H 29.055 -0.542075 -0.395468 0
M  V30 371 H 31.599 -1.94609 -0.628285 0
M  V30 372 H 29.754 -2.35224 -3.07812 0
M  V30 373 H 30.168 -4.52468 -2.65279 0
M  V30 374 H 31.642 -3.66264 -4.12983 0
M  V30 375 H 32.119 -1.97934 -3.9207 0
M  V30 376 H 32.725 -3.21063 -2.78924 0
M  V30 377 N 31.0401 0.771051 -1.3745 0
M  V30 378 C 32.2891 1.52491 -1.3202 0
M  V30 379 C 32.6021 1.9538 0.0927347 0
M  V30 380 O 33.8081 2.70159 0.269503 0
M  V30 381 C 32.2641 2.75366 -2.31736 0
M  V30 382 C 31.8721 2.39573 -3.78562 0
M  V30 383 C 33.6161 3.53307 -2.35318 0
M  V30 384 C 31.5231 3.58954 -4.70007 0
M  V30 385 H 30.4531 0.572506 -0.490666 0
M  V30 386 H 33.1041 0.844474 -1.62914 0
M  V30 387 H 31.4861 3.45303 -1.93861 0
M  V30 388 H 32.6601 1.77415 -4.25277 0
M  V30 389 H 30.9751 1.74805 -3.77932 0
M  V30 390 H 33.5721 4.42039 -3.00842 0
M  V30 391 H 33.9151 3.93217 -1.36698 0
M  V30 392 H 34.4481 2.90367 -2.71904 0
M  V30 393 H 31.1871 3.24125 -5.69757 0
M  V30 394 H 30.7071 4.20214 -4.27996 0
M  V30 395 H 32.3861 4.25758 -4.87175 0
M  V30 396 N 32.5182 1.22032 0.997298 0
M  V30 397 C 33.7462 1.06841 1.7718 0
M  V30 398 C 34.1612 -0.381325 1.84909 0
M  V30 399 O 33.5182 -1.26437 1.31605 0
M  V30 400 C 33.5692 1.66814 3.20711 0
M  V30 401 O 33.2902 3.06116 3.13408 0
M  V30 402 C 34.7912 1.56838 4.14628 0
M  V30 403 H 32.0112 0.374782 0.556578 0
M  V30 404 H 34.5552 1.61532 1.2541 0
M  V30 405 H 32.7102 1.16196 3.69564 0
M  V30 406 H 33.1242 3.34926 4.0364 0
M  V30 407 H 34.5982 2.03532 5.13107 0
M  V30 408 H 35.0752 0.524155 4.36061 0
M  V30 409 H 35.6812 2.06741 3.7167 0
M  V30 410 N 33.9963 -1.19345 1.0293 0
M  V30 411 C 34.9593 -2.20793 0.615069 0
M  V30 412 C 35.9593 -1.57553 -0.321533 0
M  V30 413 O 37.1493 -1.73862 -0.108483 0
M  V30 414 C 34.2813 -3.40754 -0.0999222 0
M  V30 415 H 35.4743 -2.58955 1.51269 0
M  V30 416 H 33.0273 -1.3303 0.820534 0
M  V30 417 H 33.7623 -3.0811 -1.01187 0
M  V30 418 H 33.5473 -3.87889 0.57309 0
M  V30 419 H 35.0373 -4.15898 -0.376645 0
M  V30 420 N 35.4744 -0.807222 -1.35358 0
M  V30 421 C 36.7044 -0.399796 -2.02695 0
M  V30 422 C 37.1124 0.994176 -1.60974 0
M  V30 423 O 36.4554 1.65209 -0.803226 0
M  V30 424 C 36.5174 -0.404445 -3.57218 0
M  V30 425 C 36.1814 -1.74904 -4.22206 0
M  V30 426 C 37.1784 -2.70743 -4.4384 0
M  V30 427 C 34.8634 -2.03322 -4.5931 0
M  V30 428 C 36.8574 -3.93183 -5.01683 0
M  V30 429 C 34.5444 -3.26026 -5.16866 0
M  V30 430 C 35.5424 -4.20774 -5.37994 0
M  V30 431 O 35.2304 -5.41312 -5.94337 0
M  V30 432 H 34.9624 -0.160517 -0.656666 0
M  V30 433 H 37.5164 -1.09235 -1.73945 0
M  V30 434 H 35.7464 0.344707 -3.85161 0
M  V30 435 H 37.4354 -0.0192429 -4.05895 0
M  V30 436 H 38.2014 -2.5008 -4.15554 0
M  V30 437 H 34.0804 -1.30384 -4.42178 0
M  V30 438 H 37.6244 -4.6715 -5.1809 0
M  V30 439 H 33.5214 -3.46559 -5.44579 0
M  V30 440 H 34.2894 -5.42618 -6.12787 0
M  V30 441 N 36.9525 1.47285 -0.560781 0
M  V30 442 C 38.2295 1.9558 0.0277798 0
M  V30 443 C 38.6095 1.5034 1.48192 0
M  V30 444 O 37.9575 0.743882 2.16052 0
M  V30 445 C 38.1675 3.48789 -0.121418 0
M  V30 446 C 39.5155 4.24594 0.0220912 0
M  V30 447 O 40.5395 3.56166 -0.0491439 0
M  V30 448 O 39.3985 5.46217 0.175958 0
M  V30 449 H 36.4925 0.824663 0.0621342 0
M  V30 450 H 39.0385 1.5767 -0.627556 0
M  V30 451 H 37.8105 3.74533 -1.13316 0
M  V30 452 H 37.4335 3.93473 0.571366 0
M  V30 453 N 38.4306 0.297415 1.54768 0
M  V30 454 C 39.6606 -0.315165 2.04182 0
M  V30 455 C 40.0686 -1.4834 1.17439 0
M  V30 456 O 39.4116 -1.82695 0.191891 0
M  V30 457 C 39.4736 -0.837583 3.49607 0
M  V30 458 C 39.1376 0.204912 4.5654 0
M  V30 459 C 40.1346 1.03214 5.09552 0
M  V30 460 C 37.8196 0.345578 5.0111 0
M  V30 461 C 39.8136 1.986 6.05671 0
M  V30 462 C 37.5006 1.30289 5.97049 0
M  V30 463 C 38.4986 2.12159 6.49213 0
M  V30 464 O 38.1866 3.06268 7.43273 0
M  V30 465 H 37.9186 -0.0729646 0.672051 0
M  V30 466 H 40.4726 0.433907 2.00765 0
M  V30 467 H 38.7026 -1.63712 3.50336 0
M  V30 468 H 40.3916 -1.36566 3.82236 0
M  V30 469 H 41.1576 0.934312 4.75916 0
M  V30 470 H 37.0366 -0.28171 4.60138 0
M  V30 471 H 40.5806 2.62542 6.46311 0
M  V30 472 H 36.4776 1.40145 6.30103 0
M  V30 473 H 37.2456 3.01205 7.61064 0
M  V30 474 N 39.9087 -1.5758 0.0250728 0
M  V30 475 C 41.1337 -1.96337 -0.668317 0
M  V30 476 C 41.5587 -0.901314 -1.651 0
M  V30 477 O 40.9167 0.138187 -1.80773 0
M  V30 478 C 40.9647 -3.34191 -1.35457 0
M  V30 479 O 40.0687 -3.30269 -2.46974 0
M  V30 480 H 39.4097 -0.640281 -0.175887 0
M  V30 481 H 41.9397 -2.0442 0.0857224 0
M  V30 482 H 41.9497 -3.70331 -1.71228 0
M  V30 483 H 40.6247 -4.11036 -0.634218 0
M  V30 484 H 39.2017 -3.05841 -2.13344 0
M  V30 485 N 41.3868 0.248026 -1.55636 0
M  V30 486 C 42.6338 0.976224 -1.77415 0
M  V30 487 C 42.9618 1.85361 -0.589193 0
M  V30 488 O 42.2168 1.90973 0.427529 0
M  V30 489 C 42.5158 1.86819 -3.04686 0
M  V30 490 C 42.1818 1.14625 -4.36087 0
M  V30 491 C 40.8438 0.946723 -4.71795 0
M  V30 492 C 43.1958 0.634463 -5.17324 0
M  V30 493 C 40.5238 0.223091 -5.86276 0
M  V30 494 C 42.8758 -0.0756959 -6.32555 0
M  V30 495 C 41.5398 -0.286711 -6.66884 0
M  V30 496 H 40.8098 0.357226 -0.649208 0
M  V30 497 H 43.4568 0.246415 -1.89908 0
M  V30 498 H 41.7618 2.66502 -2.872 0
M  V30 499 H 43.4588 2.43329 -3.18735 0
M  V30 500 H 40.0488 1.3117 -4.08035 0
M  V30 501 H 44.2328 0.77616 -4.90193 0
M  V30 502 H 39.4888 0.0491185 -6.1138 0
M  V30 503 H 43.6628 -0.479899 -6.94745 0
M  V30 504 H 41.2898 -0.849389 -7.5544 0
M  V30 505 N 42.8649 1.48995 0.513639 0
M  V30 506 C 43.8279 1.64229 1.59879 0
M  V30 507 C 44.8279 0.514696 1.5234 0
M  V30 508 O 46.0179 0.78087 1.55718 0
M  V30 509 C 43.1499 1.62783 2.99524 0
M  V30 510 H 44.3429 2.61004 1.47705 0
M  V30 511 H 41.8959 1.37837 0.736936 0
M  V30 512 H 42.6309 0.675461 3.17188 0
M  V30 513 H 42.4159 2.4466 3.06404 0
M  V30 514 H 43.9059 1.76669 3.78388 0
M  V30 515 N 44.343 -0.763751 1.37857 0
M  V30 516 C 45.29 -1.87726 1.34267 0
M  V30 517 C 46.26 -1.64807 0.206879 0
M  V30 518 O 47.445 -1.86613 0.397508 0
M  V30 519 C 44.585 -3.24896 1.16346 0
M  V30 520 C 43.698 -3.59716 2.39225 0
M  V30 521 C 42.833 -4.86137 2.14114 0
M  V30 522 C 41.872 -5.13711 3.32817 0
M  V30 523 N 41.009 -6.31323 3.07206 0
M  V30 524 H 45.849 -1.90129 2.29466 0
M  V30 525 H 43.386 -0.929433 1.14017 0
M  V30 526 H 45.344 -4.04036 1.03975 0
M  V30 527 H 43.974 -3.21847 0.247909 0
M  V30 528 H 43.026 -2.75498 2.62307 0
M  V30 529 H 44.338 -3.76027 3.27728 0
M  V30 530 H 43.492 -5.73198 1.9882 0
M  V30 531 H 42.231 -4.71945 1.22961 0
M  V30 532 H 41.236 -4.25123 3.48641 0
M  V30 533 H 42.461 -5.29807 4.24832 0
M  V30 534 H 40.407 -6.18474 2.1869 0
M  V30 535 H 40.324 -6.48087 3.89254 0
M  V30 536 H 41.592 -7.213 2.95546 0
M  V30 537 N 45.8211 -1.22559 -0.990812 0
M  V30 538 C 46.7511 -1.0218 -2.09956 0
M  V30 539 C 47.7321 0.0579394 -1.70001 0
M  V30 540 O 48.9171 -0.104684 -1.93918 0
M  V30 541 C 46.0471 -0.601023 -3.4206 0
M  V30 542 C 45.0011 -1.62694 -3.95872 0
M  V30 543 C 44.3271 -1.06193 -5.24049 0
M  V30 544 C 45.6271 -3.01743 -4.2632 0
M  V30 545 H 47.3211 -1.94916 -2.27262 0
M  V30 546 H 44.8671 -0.938566 -1.09211 0
M  V30 547 H 46.8201 -0.445561 -4.19038 0
M  V30 548 H 45.5441 0.362005 -3.24588 0
M  V30 549 H 44.2031 -1.77021 -3.21028 0
M  V30 550 H 43.8511 -0.0901903 -5.02919 0
M  V30 551 H 43.5511 -1.74732 -5.61019 0
M  V30 552 H 45.0751 -0.918092 -6.03658 0
M  V30 553 H 46.4891 -2.90777 -4.94087 0
M  V30 554 H 44.8861 -3.67425 -4.74467 0
M  V30 555 H 45.9561 -3.51518 -3.34011 0
M  V30 556 N 47.2992 1.18797 -1.03562 0
M  V30 557 C 48.5462 1.8865 -0.736023 0
M  V30 558 C 48.8742 1.80041 0.735889 0
M  V30 559 O 48.1292 1.19179 1.55225 0
M  V30 560 C 48.4282 3.38692 -1.14117 0
M  V30 561 C 48.0942 3.67504 -2.6125 0
M  V30 562 C 46.7562 3.75078 -3.01447 0
M  V30 563 C 49.1082 3.80293 -3.56408 0
M  V30 564 C 46.4362 3.92915 -4.35701 0
M  V30 565 C 48.7882 3.99645 -4.90374 0
M  V30 566 C 47.4522 4.05453 -5.30249 0
M  V30 567 H 46.7222 0.690321 -0.26933 0
M  V30 568 H 49.3692 1.40641 -1.29971 0
M  V30 569 H 47.6742 3.88645 -0.496202 0
M  V30 570 H 49.3712 3.91072 -0.886789 0
M  V30 571 H 45.9612 3.62223 -2.29113 0
M  V30 572 H 50.1452 3.73779 -3.26501 0
M  V30 573 H 45.4012 3.95653 -4.66121 0
M  V30 574 H 49.5752 4.08482 -5.64017 0
M  V30 575 H 47.2022 4.19027 -6.34288 0
M  V30 576 N 48.7773 0.814389 1.34928 0
M  V30 577 C 49.7403 0.235759 2.27984 0
M  V30 578 C 50.7403 -0.581412 1.49921 0
M  V30 579 O 51.9303 -0.398758 1.69575 0
M  V30 580 C 49.0623 -0.670433 3.34242 0
M  V30 581 H 50.2553 1.05659 2.80671 0
M  V30 582 H 47.8083 0.585614 1.44915 0
M  V30 583 H 48.5433 -1.51466 2.86755 0
M  V30 584 H 48.3283 -0.0860822 3.92005 0
M  V30 585 H 49.8183 -1.06935 4.03676 0
M  V30 586 N 50.2554 -1.46986 0.568584 0
M  V30 587 C 51.5324 -1.95592 -0.0174074 0
M  V30 588 C 51.9124 -1.51124 -1.47393 0
M  V30 589 O 51.2604 -0.755329 -2.15655 0
M  V30 590 C 51.4704 -3.48719 0.139913 0
M  V30 591 C 52.8184 -4.246 0.000426376 0
M  V30 592 O 53.8424 -3.56135 0.0680316 0
M  V30 593 O 52.7014 -5.46302 -0.146988 0
M  V30 594 H 49.7954 -0.82498 -0.0577599 0
M  V30 595 H 52.3414 -1.57335 0.635909 0
M  V30 596 H 51.1134 -3.73927 1.15301 0
M  V30 597 H 50.7364 -3.93771 -0.550491 0
M  V30 598 N 51.7335 -0.305618 -1.54608 0
M  V30 599 C 52.6435 0.57778 -2.27374 0
M  V30 600 C 53.6595 1.14451 -1.31061 0
M  V30 601 O 54.8355 1.16831 -1.6405 0
M  V30 602 C 51.9005 1.73123 -3.00382 0
M  V30 603 C 50.9615 1.19812 -4.12242 0
M  V30 604 C 50.1945 2.2966 -4.81759 0
M  V30 605 O 50.4175 3.49651 -4.50666 0
M  V30 606 O 49.3515 1.96091 -5.69062 0
M  V30 607 H 53.1775 -0.012624 -3.03697 0
M  V30 608 H 50.7625 -0.0719184 -1.49227 0
M  V30 609 H 52.6445 2.40315 -3.4616 0
M  V30 610 H 51.3195 2.30815 -2.26949 0
M  V30 611 H 50.2265 0.491798 -3.70853 0
M  V30 612 H 51.5595 0.666566 -4.87666 0
M  V30 613 N 53.2116 1.57565 -0.0334293 0
M  V30 614 C 54.4596 1.91598 0.642999 0
M  V30 615 C 54.7806 0.910847 1.7242 0
M  V30 616 O 54.0506 -0.0469931 1.95844 0
M  V30 617 H 52.6306 0.707228 0.240496 0
M  V30 618 H 55.2926 1.94726 -0.0822488 0
M  V30 619 H 54.3886 2.92336 1.09298 0
M  V30 620 N 54.6897 -0.239769 1.55765 0
M  V30 621 C 55.6197 -1.30052 1.9393 0
M  V30 622 C 56.6007 -1.49839 0.805132 0
M  V30 623 O 57.7857 -1.62328 1.06599 0
M  V30 624 C 54.9157 -2.65391 2.2402 0
M  V30 625 C 53.8697 -2.60289 3.39755 0
M  V30 626 C 53.1957 -3.99489 3.55405 0
M  V30 627 C 54.4957 -2.16654 4.75246 0
M  V30 628 H 56.1897 -0.983573 2.82783 0
M  V30 629 H 53.7357 -0.471701 1.36055 0
M  V30 630 H 55.6887 -3.3974 2.49308 0
M  V30 631 H 54.4127 -2.98736 1.32 0
M  V30 632 H 53.0717 -1.88398 3.14487 0
M  V30 633 H 52.7197 -4.30112 2.60793 0
M  V30 634 H 52.4197 -3.96962 4.33238 0
M  V30 635 H 53.9437 -4.75528 3.83022 0
M  V30 636 H 55.3577 -2.80737 4.99859 0
M  V30 637 H 53.7547 -2.25223 5.56232 0
M  V30 638 H 54.8247 -1.11835 4.71827 0
M  V30 639 N 56.1678 -1.49265 -0.50573 0
M  V30 640 C 57.1158 -1.66065 -1.62866 0
M  V30 641 C 58.1098 -0.526636 -1.61006 0
M  V30 642 O 59.3158 -0.706126 -1.65571 0
M  V30 643 H 55.6908 -0.52356 -0.539805 0
M  V30 644 H 57.6618 -2.60329 -1.45848 0
M  V30 645 C 56.4108 -1.74008 -3.01026 0
M  V30 646 H 55.7338 -2.6064 -3.03161 0
M  V30 647 H 57.1738 -1.89798 -3.79147 0
M  V30 648 C 55.6328 -0.483868 -3.33407 0
M  V30 649 O 56.1628 0.392548 -3.99777 0
M  V30 650 N 54.3688 -0.348236 -2.88506 0
M  V30 651 H 53.9158 -1.06242 -2.34671 0
M  V30 652 H 53.8738 0.491204 -3.10539 0
M  V30 653 N 57.6459 0.756429 -1.3826 0
M  V30 654 C 58.8919 1.51772 -1.34511 0
M  V30 655 C 59.2249 1.94089 0.0656691 0
M  V30 656 O 58.4999 1.65221 1.02626 0
M  V30 657 C 58.7829 2.77226 -2.29821 0
M  V30 658 C 58.6359 2.41065 -3.79747 0
M  V30 659 C 59.9549 3.79236 -2.23312 0
M  V30 660 H 57.0739 0.550578 -0.489931 0
M  V30 661 H 59.7159 0.866607 -1.69086 0
M  V30 662 H 57.8659 3.32784 -2.00467 0
M  V30 663 H 59.5379 1.91303 -4.19763 0
M  V30 664 H 57.7809 1.7356 -3.97567 0
M  V30 665 H 58.4519 3.3081 -4.41892 0
M  V30 666 H 60.9279 3.3321 -2.49219 0
M  V30 667 H 59.8039 4.64714 -2.92116 0
M  V30 668 H 60.0649 4.24615 -1.23102 0
M  V30 669 N 59.124 1.23083 0.984299 0
M  V30 670 C 60.057 0.951786 2.07404 0
M  V30 671 C 61.035 -0.10848 1.62238 0
M  V30 672 O 62.219 0.0249467 1.88483 0
M  V30 673 C 59.346 0.433142 3.35919 0
M  V30 674 C 58.392 1.47941 4.0002 0
M  V30 675 S 59.225 3.05556 4.39768 0
M  V30 676 C 60.381 2.55351 5.71442 0
M  V30 677 H 60.614 1.87456 2.30754 0
M  V30 678 H 58.147 1.06284 1.11996 0
M  V30 679 H 60.105 0.140506 4.10259 0
M  V30 680 H 58.766 -0.468656 3.10584 0
M  V30 681 H 57.959 1.06658 4.92585 0
M  V30 682 H 57.561 1.7212 3.3204 0
M  V30 683 H 59.853 1.97128 6.48187 0
M  V30 684 H 60.796 3.46441 6.17563 0
M  V30 685 H 61.204 1.96339 5.29255 0
M  V30 686 N 60.6021 -1.18246 1.0419 0
M  V30 687 C 61.5321 -2.24127 0.654914 0
M  V30 688 C 62.5131 -1.66617 -0.342451 0
M  V30 689 O 63.6981 -1.92924 -0.222277 0
M  V30 690 C 60.8281 -3.47295 0.0183757 0
M  V30 691 C 59.7821 -4.17563 0.939414 0
M  V30 692 C 59.1081 -5.34438 0.167286 0
M  V30 693 C 60.4081 -4.70917 2.25908 0
M  V30 694 H 62.1021 -2.56753 1.54007 0
M  V30 695 H 59.6481 -1.23414 0.74195 0
M  V30 696 H 61.6011 -4.20572 -0.264082 0
M  V30 697 H 60.3251 -3.13907 -0.901664 0
M  V30 698 H 58.9841 -3.46186 1.20628 0
M  V30 699 H 58.6321 -4.97298 -0.7552 0
M  V30 700 H 58.3321 -5.82388 0.780901 0
M  V30 701 H 59.8561 -6.10504 -0.108125 0
M  V30 702 H 61.2701 -5.35882 2.03724 0
M  V30 703 H 59.6671 -5.29406 2.82577 0
M  V30 704 H 60.7371 -3.88272 2.9047 0
M  V30 705 N 62.0802 -0.821533 -1.34494 0
M  V30 706 C 63.3262 -0.409552 -1.98622 0
M  V30 707 C 63.6592 1.0244 -1.64984 0
M  V30 708 O 62.9342 1.71325 -0.920758 0
M  V30 709 C 63.2172 -0.610458 -3.54888 0
M  V30 710 C 63.0702 -2.09043 -3.98273 0
M  V30 711 C 64.3892 -0.0455379 -4.40076 0
M  V30 712 H 61.5082 -0.15028 -0.721516 0
M  V30 713 H 64.1502 -1.03384 -1.59411 0
M  V30 714 H 62.3002 -0.079044 -3.8842 0
M  V30 715 H 63.9722 -2.68537 -3.75081 0
M  V30 716 H 62.2152 -2.58139 -3.48635 0
M  V30 717 H 62.8862 -2.18182 -5.07051 0
M  V30 718 H 65.3622 -0.499557 -4.1309 0
M  V30 719 H 64.2382 -0.215922 -5.48475 0
M  V30 720 H 64.4992 1.04939 -4.29465 0
M  V30 721 N 63.5583 1.46682 -0.576371 0
M  V30 722 C 64.8063 2.02013 -0.0594163 0
M  V30 723 C 65.1273 1.45101 1.30271 0
M  V30 724 O 64.3973 0.633317 1.8538 0
M  V30 725 H 62.9773 0.746759 -0.0189745 0
M  V30 726 H 65.6393 1.79862 -0.750717 0
M  V30 727 H 64.7353 3.12097 0.014345 0
M  V30 728 N 65.0364 0.313813 1.54444 0
M  V30 729 C 66.3134 -0.345447 1.92525 0
M  V30 730 C 66.6934 -1.70667 1.24242 0
M  V30 731 O 66.0414 -2.25273 0.382654 0
M  V30 732 C 66.2514 -0.44737 3.46121 0
M  V30 733 C 67.5994 -0.712238 4.18584 0
M  V30 734 O 68.6234 -0.530678 3.52225 0
M  V30 735 O 67.4824 -1.06183 5.36085 0
M  V30 736 H 64.5764 -0.195407 0.803583 0
M  V30 737 H 67.1224 0.362813 1.65776 0
M  V30 738 H 65.8944 0.509043 3.87975 0
M  V30 739 H 65.5174 -1.20359 3.78945 0
M  V30 740 N 66.5145 -1.57545 0.0417849 0
M  V30 741 C 67.7395 -1.97035 -0.647455 0
M  V30 742 C 68.1645 -0.918775 -1.64135 0
M  V30 743 O 67.5225 0.119006 -1.80909 0
M  V30 744 C 67.5705 -3.35609 -1.31905 0
M  V30 745 O 66.6745 -3.3287 -2.43457 0
M  V30 746 H 66.0155 -0.64211 -0.169086 0
M  V30 747 H 68.5455 -2.04318 0.107399 0
M  V30 748 H 68.5555 -3.72126 -1.67291 0
M  V30 749 H 67.2305 -4.11685 -0.590586 0
M  V30 750 H 65.8075 -3.08087 -2.10088 0
M  V30 751 N 67.9926 0.231505 -1.5589 0
M  V30 752 C 68.9226 1.29022 -1.94617 0
M  V30 753 C 69.9036 1.4941 -0.813067 0
M  V30 754 O 71.0886 1.6176 -1.07459 0
M  V30 755 C 68.2186 2.64199 -2.25424 0
M  V30 756 C 67.1726 2.58484 -3.41131 0
M  V30 757 C 66.4986 3.97599 -3.57518 0
M  V30 758 C 67.7986 2.1413 -4.76388 0
M  V30 759 H 69.4926 0.968563 -2.83301 0
M  V30 760 H 67.0386 0.464479 -1.36303 0
M  V30 761 H 68.9916 3.38413 -2.51107 0
M  V30 762 H 67.7156 2.98032 -1.33583 0
M  V30 763 H 66.3746 1.86727 -3.15481 0
M  V30 764 H 66.0226 4.28723 -2.6307 0
M  V30 765 H 65.7226 3.94659 -4.35337 0
M  V30 766 H 67.2466 4.7349 -3.85538 0
M  V30 767 H 68.6606 2.78083 -5.01341 0
M  V30 768 H 67.0576 2.2227 -5.57419 0
M  V30 769 H 68.1276 1.09331 -4.72414 0
M  V30 770 N 69.4707 1.49531 0.497807 0
M  V30 771 C 70.7187 1.58865 1.24926 0
M  V30 772 C 71.0397 0.278721 1.92998 0
M  V30 773 O 70.3097 -0.702144 1.82885 0
M  V30 774 H 68.8897 0.585343 0.464094 0
M  V30 775 H 71.5517 1.86174 0.57666 0
M  V30 776 H 70.6477 2.38633 2.01149 0
M  V30 777 N 70.9488 -0.749086 1.3866 0
M  V30 778 C 71.8818 -1.87111 1.30631 0
M  V30 779 C 72.8598 -1.61572 0.18251 0
M  V30 780 O 74.0438 -1.85019 0.360592 0
M  V30 781 C 71.1708 -3.22815 1.02511 0
M  V30 782 C 70.2168 -3.67234 2.1689 0
M  V30 783 S 71.0498 -3.78245 3.79066 0
M  V30 784 C 72.2058 -5.16761 3.53142 0
M  V30 785 H 72.4388 -1.93636 2.25594 0
M  V30 786 H 69.9718 -0.912525 1.24549 0
M  V30 787 H 71.9298 -4.01181 0.869701 0
M  V30 788 H 70.5908 -3.13964 0.0925884 0
M  V30 789 H 69.7838 -4.65677 1.92771 0
M  V30 790 H 69.3858 -2.96034 2.28561 0
M  V30 791 H 71.6778 -6.02656 3.09534 0
M  V30 792 H 72.6208 -5.45902 4.50995 0
M  V30 793 H 73.0288 -4.85771 2.87554 0
M  V30 794 N 72.4269 -1.23603 -0.977757 0
M  V30 795 C 73.6549 -1.09646 -1.75458 0
M  V30 796 C 74.0699 0.351859 -1.85492 0
M  V30 797 O 73.4269 1.24327 -1.336 0
M  V30 798 C 73.4779 -1.71895 -3.18016 0
M  V30 799 O 73.1989 -3.11063 -3.08498 0
M  V30 800 C 74.6999 -1.63415 -4.12081 0
M  V30 801 H 71.9199 -0.38359 -0.550545 0
M  V30 802 H 74.4639 -1.63507 -1.22824 0
M  V30 803 H 72.6189 -1.22061 -3.67668 0
M  V30 804 H 73.0329 -3.41305 -3.9826 0
M  V30 805 H 74.5069 -2.11669 -5.09804 0
M  V30 806 H 74.9839 -0.593462 -4.35172 0
M  V30 807 H 75.5899 -2.12628 -3.68334 0
M  V30 808 N 73.905 1.17692 -1.04816 0
M  V30 809 C 75.151 1.88137 -0.75711 0
M  V30 810 C 75.484 1.80604 0.713841 0
M  V30 811 O 74.759 1.21146 1.52164 0
M  V30 812 C 75.042 3.38318 -1.2334 0
M  V30 813 C 74.895 3.54622 -2.76701 0
M  V30 814 C 76.214 4.32214 -0.829415 0
M  V30 815 H 73.333 0.683163 -0.27651 0
M  V30 816 H 75.975 1.38424 -1.30149 0
M  V30 817 H 74.125 3.80787 -0.770286 0
M  V30 818 H 75.797 3.21194 -3.31107 0
M  V30 819 H 74.04 2.97026 -3.16161 0
M  V30 820 H 74.711 4.60028 -3.05088 0
M  V30 821 H 77.187 3.97565 -1.22805 0
M  V30 822 H 76.063 5.35838 -1.19033 0
M  V30 823 H 76.324 4.41294 0.266891 0
M  V30 824 N 75.3831 0.828654 1.34056 0
M  V30 825 C 76.3151 0.212052 2.28217 0
M  V30 826 C 77.3281 -0.601362 1.51286 0
M  V30 827 O 78.5171 -0.430104 1.73241 0
M  V30 828 C 75.6171 -0.72088 3.31144 0
M  V30 829 C 74.7901 0.0509587 4.3737 0
M  V30 830 C 73.8491 -0.803766 5.20025 0
M  V30 831 O 72.8751 -0.246667 5.68665 0
M  V30 832 N 74.0771 -2.1227 5.40298 0
M  V30 833 H 76.8421 1.02105 2.81771 0
M  V30 834 H 74.4031 0.686153 1.46641 0
M  V30 835 H 76.3951 -1.29742 3.8334 0
M  V30 836 H 74.9651 -1.43061 2.77943 0
M  V30 837 H 74.1851 0.808831 3.85813 0
M  V30 838 H 75.4731 0.582065 5.0546 0
M  V30 839 H 74.8711 -2.59898 5.02464 0
M  V30 840 H 73.4281 -2.64796 5.95589 0
M  V30 841 N 76.8612 -1.46375 0.584142 0
M  V30 842 C 78.1092 -2.01978 0.0701287 0
M  V30 843 C 78.4302 -1.4579 -1.295 0
M  V30 844 O 77.7002 -0.64314 -1.85042 0
M  V30 845 H 76.2802 -0.746648 0.0229345 0
M  V30 846 H 78.9422 -1.79461 0.760245 0
M  V30 847 H 78.0382 -3.121 0.0022064 0
M  V30 848 N 78.3393 -0.321999 -1.54275 0
M  V30 849 C 79.2893 0.560185 -2.21011 0
M  V30 850 C 80.2733 1.08283 -1.19011 0
M  V30 851 O 81.4653 1.02011 -1.44647 0
M  V30 852 C 78.5943 1.72137 -2.97025 0
M  V30 853 C 77.6803 1.21369 -4.06363 0
M  V30 854 N 78.0713 0.425566 -5.04007 0
M  V30 855 C 76.3693 1.49255 -4.20284 0
M  V30 856 C 77.0703 0.152601 -5.815 0
M  V30 857 N 76.0463 0.738294 -5.38563 0
M  V30 858 H 79.8483 -0.049265 -2.93859 0
M  V30 859 H 77.3623 -0.127779 -1.61897 0
M  V30 860 H 79.3593 2.36512 -3.43319 0
M  V30 861 H 78.0193 2.33431 -2.25699 0
M  V30 862 H 79.0303 0.068551 -5.17855 0
M  V30 863 H 75.7073 2.11145 -3.60172 0
M  V30 864 H 77.0973 -0.481764 -6.70171 0
M  V30 865 N 79.8174 1.5752 -0.0501392 0
M  V30 866 C 81.0944 1.83996 0.663685 0
M  V30 867 C 81.4744 0.938339 1.89099 0
M  V30 868 O 80.8224 -0.00087759 2.285 0
M  V30 869 C 81.0324 3.33702 1.02196 0
M  V30 870 C 82.3804 4.00691 1.40469 0
M  V30 871 O 83.4044 3.38321 1.11433 0
M  V30 872 O 82.2634 5.10658 1.94654 0
M  V30 873 H 79.3574 0.759385 0.32751 0
M  V30 874 H 81.9034 1.69514 -0.0794238 0
M  V30 875 H 80.6754 3.91015 0.149364 0
M  V30 876 H 80.2984 3.53368 1.82255 0
M  V30 877 N 81.2955 -0.223234 1.56011 0
M  V30 878 C 82.5205 -0.968978 1.83373 0
M  V30 879 C 82.9455 -1.77227 0.630254 0
M  V30 880 O 82.3035 -1.76345 -0.420959 0
M  V30 881 C 82.3515 -1.86363 3.08709 0
M  V30 882 O 81.4555 -2.95873 2.87285 0
M  V30 883 H 80.7965 -0.274461 0.604622 0
M  V30 884 H 83.3265 -0.237056 2.03222 0
M  V30 885 H 83.3365 -2.27376 3.38768 0
M  V30 886 H 82.0115 -1.27319 3.95933 0
M  V30 887 H 80.5885 -2.58818 2.68454 0
M  V30 888 N 82.7736 -1.49793 -0.48987 0
M  V30 889 C 84.0016 -1.63568 -1.26701 0
M  V30 890 C 84.4166 -0.311465 -1.86213 0
M  V30 891 O 83.7736 0.704416 -1.68357 0
M  V30 892 C 83.8246 -2.71284 -2.38929 0
M  V30 893 O 83.5456 -3.9857 -1.81861 0
M  V30 894 C 85.0466 -2.95864 -3.3012 0
M  V30 895 H 82.2666 -0.550342 -0.383881 0
M  V30 896 H 84.8106 -1.95898 -0.586864 0
M  V30 897 H 82.9656 -2.417 -3.02753 0
M  V30 898 H 83.3796 -4.57993 -2.55622 0
M  V30 899 H 84.8536 -3.74941 -4.05121 0
M  V30 900 H 85.3306 -2.06206 -3.87783 0
M  V30 901 H 85.9366 -3.26907 -2.72051 0
M  V30 902 N 84.2517 0.741722 -1.39055 0
M  V30 903 C 85.1817 1.869 -1.39966 0
M  V30 904 C 86.1627 1.6804 -0.26392 0
M  V30 905 O 87.3477 1.88458 -0.468755 0
M  V30 906 C 84.4777 3.24572 -1.23574 0
M  V30 907 C 83.4317 3.58056 -2.34477 0
M  V30 908 C 82.7577 4.94593 -2.0318 0
M  V30 909 C 84.0577 3.61716 -3.76774 0
M  V30 910 H 85.7517 1.86395 -2.34302 0
M  V30 911 H 83.2977 0.895361 -1.1278 0
M  V30 912 H 85.2507 4.031 -1.22834 0
M  V30 913 H 83.9747 3.25587 -0.257045 0
M  V30 914 H 82.6337 2.81854 -2.34423 0
M  V30 915 H 82.2817 4.92181 -1.03765 0
M  V30 916 H 81.9817 5.17964 -2.77465 0
M  V30 917 H 83.5057 5.75486 -2.04079 0
M  V30 918 H 84.9197 4.30335 -3.78794 0
M  V30 919 H 83.3167 3.96603 -4.50362 0
M  V30 920 H 84.3867 2.61672 -4.08235 0
M  V30 921 N 85.7298 1.2412 0.971189 0
M  V30 922 C 87.1408 1.07236 1.52831 0
M  V30 923 C 87.4918 -0.357352 1.92918 0
M  V30 924 O 86.6168 -1.24528 1.76979 0
M  V30 925 C 87.2118 1.94043 2.77728 0
M  V30 926 C 85.7708 1.81394 3.29808 0
M  V30 927 C 84.9178 1.89189 2.02738 0
M  V30 928 H 87.8688 1.37648 0.789864 0
M  V30 929 H 87.8898 1.47066 3.5093 0
M  V30 930 H 87.4018 2.98093 2.4852 0
M  V30 931 H 85.5028 0.801634 3.63874 0
M  V30 932 H 85.6158 2.65294 3.98944 0
M  V30 933 H 83.9798 1.32877 2.17292 0
M  V30 934 H 84.7628 2.94812 1.759 0
M  V30 935 N 87.2079 -1.17134 1.05439 0
M  V30 936 C 88.4539 -1.87733 0.767077 0
M  V30 937 C 88.7869 -1.8098 -0.704253 0
M  V30 938 O 88.0619 -1.21951 -1.5152 0
M  V30 939 C 88.3449 -3.37659 1.25133 0
M  V30 940 C 88.1979 -3.53149 2.78578 0
M  V30 941 C 89.5169 -4.31768 0.852324 0
M  V30 942 H 86.6359 -0.681687 0.280129 0
M  V30 943 H 89.2779 -1.37732 1.30881 0
M  V30 944 H 87.4279 -3.80373 0.790469 0
M  V30 945 H 89.0999 -3.19434 3.32806 0
M  V30 946 H 87.3429 -2.95345 3.17732 0
M  V30 947 H 88.0139 -4.58403 3.07523 0
M  V30 948 H 90.4899 -3.96909 1.24911 0
M  V30 949 H 89.3659 -5.35199 1.21873 0
M  V30 950 H 89.6269 -4.41429 -0.243485 0
M  V30 951 N 88.686 -0.835752 -1.33615 0
M  V30 952 C 89.914 -0.443344 -2.02094 0
M  V30 953 C 90.329 0.954522 -1.62894 0
M  V30 954 O 89.686 1.61982 -0.840723 0
M  V30 955 C 89.737 -0.550775 -3.5728 0
M  V30 956 O 89.458 -1.89356 -3.95065 0
M  V30 957 C 90.959 -0.154919 -4.43029 0
M  V30 958 H 88.179 -0.176359 -0.647409 0
M  V30 959 H 90.723 -1.12746 -1.70612 0
M  V30 960 H 88.878 0.0853997 -3.87306 0
M  V30 961 H 89.292 -1.87687 -4.89769 0
M  V30 962 H 90.766 -0.281144 -5.51284 0
M  V30 963 H 91.243 0.902863 -4.2982 0
M  V30 964 H 91.849 -0.765404 -4.18356 0
M  V30 965 N 90.1641 1.46063 -0.591896 0
M  V30 966 C 91.4101 2.02638 -0.0811191 0
M  V30 967 C 91.7431 1.4613 1.27905 0
M  V30 968 O 91.0181 0.629908 1.84017 0
M  V30 969 C 91.3011 3.60091 -0.0252436 0
M  V30 970 C 91.1541 4.26965 -1.41496 0
M  V30 971 C 92.4731 4.3496 0.670685 0
M  V30 972 H 89.5921 0.73635 -0.0309524 0
M  V30 973 H 92.2341 1.741 -0.760859 0
M  V30 974 H 90.3841 3.84535 0.553624 0
M  V30 975 H 92.0561 4.13756 -2.0397 0
M  V30 976 H 90.2991 3.85971 -1.98011 0
M  V30 977 H 90.9701 5.35781 -1.32825 0
M  V30 978 H 93.4461 4.15716 0.178825 0
M  V30 979 H 92.3221 5.44686 0.678837 0
M  V30 980 H 92.5831 4.06685 1.73379 0
M  V30 981 N 91.6422 0.330177 1.54103 0
M  V30 982 C 92.6052 -0.520144 2.2322 0
M  V30 983 C 93.6052 -1.03828 1.22786 0
M  V30 984 O 94.7952 -0.929652 1.4732 0
M  V30 985 C 91.9272 -1.72317 2.94142 0
M  V30 986 H 93.1202 0.0841605 2.99782 0
M  V30 987 H 90.6732 0.0813433 1.56088 0
M  V30 988 H 91.4082 -2.36653 2.21734 0
M  V30 989 H 91.1932 -1.35898 3.67796 0
M  V30 990 H 92.6832 -2.3266 3.46784 0
M  V30 991 N 93.1203 -1.57491 0.0584922 0
M  V30 992 C 94.3973 -1.84346 -0.653918 0
M  V30 993 C 94.7773 -0.948355 -1.88599 0
M  V30 994 O 94.1253 -0.0112403 -2.28497 0
M  V30 995 C 94.3353 -3.34239 -1.00425 0
M  V30 996 C 95.6833 -4.01431 -1.38342 0
M  V30 997 O 96.7073 -3.38907 -1.09637 0
M  V30 998 O 95.5663 -5.11683 -1.91943 0
M  V30 999 H 92.6603 -0.761112 -0.323478 0
M  V30 1000 H 95.2063 -1.6947 0.0884125 0
M  V30 1001 H 93.9783 -3.91089 -0.128625 0
M  V30 1002 H 93.6013 -3.54329 -1.80378 0
M  V30 1003 N 94.5984 0.214957 -1.56127 0
M  V30 1004 C 95.8474 0.936451 -1.78643 0
M  V30 1005 C 96.1604 1.85237 -0.628229 0
M  V30 1006 O 97.3664 2.613 -0.737186 0
M  V30 1007 C 95.8224 1.7154 -3.16389 0
M  V30 1008 C 95.4304 0.845299 -4.39953 0
M  V30 1009 C 97.1744 2.42772 -3.48227 0
M  V30 1010 C 95.0814 1.62198 -5.68723 0
M  V30 1011 H 94.0114 0.353401 -0.666051 0
M  V30 1012 H 96.6624 0.190169 -1.82512 0
M  V30 1013 H 95.0444 2.50484 -3.06715 0
M  V30 1014 H 96.2184 0.0959353 -4.607 0
M  V30 1015 H 94.5334 0.244789 -4.1568 0
M  V30 1016 H 97.1304 3.01394 -4.41663 0
M  V30 1017 H 97.4734 3.15984 -2.71035 0
M  V30 1018 H 98.0064 1.70813 -3.5926 0
M  V30 1019 H 94.7454 0.933011 -6.48826 0
M  V30 1020 H 94.2654 2.34579 -5.52026 0
M  V30 1021 H 95.9444 2.18095 -6.09133 0
M  V30 1022 N 96.0765 1.50051 0.48192 0
M  V30 1023 C 97.0395 1.67584 1.5636 0
M  V30 1024 C 98.0395 0.546894 1.51214 0
M  V30 1025 O 99.2295 0.813725 1.54026 0
M  V30 1026 C 96.3615 1.691 2.96003 0
M  V30 1027 H 97.5545 2.64078 1.42136 0
M  V30 1028 H 95.1075 1.39369 0.707533 0
M  V30 1029 H 95.8425 0.742589 3.15684 0
M  V30 1030 H 95.6275 2.51105 3.01146 0
M  V30 1031 H 97.1175 1.84656 3.74556 0
M  V30 1032 N 97.5546 -0.734337 1.39446 0
M  V30 1033 C 98.7846 -1.52137 1.39778 0
M  V30 1034 C 99.1926 -1.89198 -0.00929312 0
M  V30 1035 O 98.5356 -1.54666 -0.991168 0
M  V30 1036 C 98.5976 -2.83762 2.20724 0
M  V30 1037 C 98.2616 -2.69131 3.69347 0
M  V30 1038 C 99.2586 -2.37635 4.62413 0
M  V30 1039 C 96.9436 -2.85982 4.1294 0
M  V30 1040 C 98.9376 -2.23172 5.97054 0
M  V30 1041 C 96.6246 -2.71137 5.47657 0
M  V30 1042 C 97.6226 -2.39777 6.39528 0
M  V30 1043 O 97.3106 -2.25026 7.71763 0
M  V30 1044 H 97.0426 -0.476717 0.479288 0
M  V30 1045 H 99.5966 -0.915012 1.83893 0
M  V30 1046 H 97.8266 -3.4666 1.71359 0
M  V30 1047 H 99.5156 -3.45383 2.13226 0
M  V30 1048 H 100.282 -2.24267 4.30034 0
M  V30 1049 H 96.1606 -3.09383 3.41765 0
M  V30 1050 H 99.7046 -1.98617 6.68728 0
M  V30 1051 H 95.6016 -2.84083 5.79626 0
M  V30 1052 H 96.3696 -2.40091 7.82495 0
M  V30 1053 N 99.0327 -1.24633 -0.964593 0
M  V30 1054 C 99.9827 -1.00841 -2.04487 0
M  V30 1055 C 100.967 0.0512468 -1.60818 0
M  V30 1056 O 102.159 -0.162865 -1.76249 0
M  V30 1057 C 99.2877 -0.618474 -3.37683 0
M  V30 1058 C 98.3737 -1.71437 -3.87905 0
M  V30 1059 N 98.7647 -2.9477 -4.11029 0
M  V30 1060 C 97.0627 -1.5926 -4.16596 0
M  V30 1061 C 97.7637 -3.65834 -4.52261 0
M  V30 1062 N 96.7397 -2.9341 -4.57615 0
M  V30 1063 H 100.542 -1.94487 -2.20345 0
M  V30 1064 H 98.0557 -1.14805 -1.14863 0
M  V30 1065 H 100.053 -0.429247 -4.14684 0
M  V30 1066 H 98.7127 0.310766 -3.23209 0
M  V30 1067 H 99.7237 -3.30917 -3.9839 0
M  V30 1068 H 96.4007 -0.731606 -4.1104 0
M  V30 1069 H 97.7907 -4.71646 -4.78539 0
M  V30 1070 N 100.511 1.16574 -1.06058 0
M  V30 1071 C 101.739 1.90952 -0.796552 0
M  V30 1072 C 102.154 1.77302 0.648808 0
M  V30 1073 O 101.511 1.11605 1.44397 0
M  V30 1074 C 101.562 3.41736 -1.17894 0
M  V30 1075 O 101.283 3.54975 -2.56758 0
M  V30 1076 C 102.784 4.33169 -0.942308 0
M  V30 1077 H 100.004 0.605594 -0.288959 0
M  V30 1078 H 102.548 1.47777 -1.41358 0
M  V30 1079 H 100.703 3.82623 -0.606491 0
M  V30 1080 H 101.117 4.4846 -2.72 0
M  V30 1081 H 102.591 5.37439 -1.25952 0
M  V30 1082 H 103.068 4.3903 0.122078 0
M  V30 1083 H 103.674 3.98007 -1.49902 0
M  V30 1084 N 101.989 0.842826 1.3317 0
M  V30 1085 C 102.952 0.284065 2.27433 0
M  V30 1086 C 103.952 -0.54948 1.5112 0
M  V30 1087 O 105.142 -0.362699 1.70382 0
M  V30 1088 C 102.274 -0.599384 3.35589 0
M  V30 1089 H 103.467 1.11589 2.78366 0
M  V30 1090 H 101.02 0.616221 1.4364 0
M  V30 1091 H 101.755 -1.45349 2.89904 0
M  V30 1092 H 101.54 -0.00291266 3.921 0
M  V30 1093 H 103.03 -0.983488 4.05854 0
M  V30 1094 N 103.467 -1.45747 0.599634 0
M  V30 1095 C 104.43 -2.28917 -0.113835 0
M  V30 1096 C 105.43 -1.3933 -0.802729 0
M  V30 1097 O 106.62 -1.61534 -0.652103 0
M  V30 1098 C 103.752 -3.20152 -1.17114 0
M  V30 1099 H 104.945 -2.93478 0.617289 0
M  V30 1100 H 102.498 -1.52137 0.358327 0
M  V30 1101 H 103.233 -2.60374 -1.93329 0
M  V30 1102 H 103.018 -3.86133 -0.681468 0
M  V30 1103 H 104.508 -3.82708 -1.67105 0
M  V30 1104 N 104.945 -0.338344 -1.53925 0
M  V30 1105 C 106.191 0.260143 -2.01125 0
M  V30 1106 C 106.524 1.50617 -1.22589 0
M  V30 1107 O 105.799 1.91979 -0.312113 0
M  V30 1108 C 106.082 0.579499 -3.55407 0
M  V30 1109 C 105.935 -0.678264 -4.44657 0
M  V30 1110 C 107.254 1.39122 -4.17532 0
M  V30 1111 H 104.373 0.0930772 -0.731099 0
M  V30 1112 H 107.015 -0.457852 -1.84401 0
M  V30 1113 H 105.165 1.19118 -3.69788 0
M  V30 1114 H 106.837 -1.31631 -4.42121 0
M  V30 1115 H 105.08 -1.3042 -4.13731 0
M  V30 1116 H 105.751 -0.410143 -5.50474 0
M  V30 1117 H 108.227 0.874035 -4.06817 0
M  V30 1118 H 107.103 1.58342 -5.25565 0
M  V30 1119 H 107.364 2.39178 -3.71815 0
M  V30 1120 N 106.423 1.57458 -0.0668435 0
M  V30 1121 C 107.839 1.56947 0.289772 0
M  V30 1122 C 108.039 1.07584 1.70376 0
M  V30 1123 O 107.095 0.739486 2.41429 0
M  V30 1124 C 108.408 3.0052 0.103943 0
M  V30 1125 C 109.956 3.12517 0.173857 0
M  V30 1126 C 110.431 4.57997 0.0163682 0
M  V30 1127 N 111.922 4.63144 0.0721352 0
M  V30 1128 C 112.657 5.73394 -0.0253794 0
M  V30 1129 N 112.153 6.92576 -0.176133 0
M  V30 1130 N 113.946 5.62091 0.0313305 0
M  V30 1131 H 106.097 1.87863 -0.991027 0
M  V30 1132 H 108.36 0.86583 -0.38606 0
M  V30 1133 H 108.066 3.40729 -0.871572 0
M  V30 1134 H 107.94 3.67304 0.858366 0
M  V30 1135 H 110.327 2.72197 1.13985 0
M  V30 1136 H 110.408 2.48381 -0.611586 0
M  V30 1137 H 110.052 4.99005 -0.946374 0
M  V30 1138 H 109.982 5.20158 0.821153 0
M  V30 1139 H 112.473 3.77436 0.187263 0
M  V30 1140 H 112.786 7.72418 -0.242821 0
M  V30 1141 H 111.131 6.94678 -0.211429 0
M  V30 1142 H 114.322 4.67867 0.147773 0
M  V30 1143 H 114.495 6.47982 -0.048121 0
M  V30 1144 N 107.901 -0.206675 1.56239 0
M  V30 1145 C 109.317 -0.557025 1.49564 0
M  V30 1146 C 109.517 -1.86424 0.764735 0
M  V30 1147 O 108.573 -2.50584 0.310491 0
M  V30 1148 C 109.886 -0.622478 2.94186 0
M  V30 1149 C 111.434 -0.712099 3.04792 0
M  V30 1150 C 111.909 -0.808767 4.50803 0
M  V30 1151 N 113.4 -0.8726 4.54907 0
M  V30 1152 C 114.135 -0.967365 5.65181 0
M  V30 1153 N 113.631 -1.02515 6.85173 0
M  V30 1154 N 115.424 -1.00366 5.53067 0
M  V30 1155 H 107.575 0.650943 2.02179 0
M  V30 1156 H 109.838 0.230387 0.919579 0
M  V30 1157 H 109.544 0.268727 3.50672 0
M  V30 1158 H 109.418 -1.4811 3.46905 0
M  V30 1159 H 111.805 -1.59374 2.48363 0
M  V30 1160 H 111.886 0.172489 2.55218 0
M  V30 1161 H 111.53 0.0684754 5.07854 0
M  V30 1162 H 111.46 -1.70899 4.98098 0
M  V30 1163 H 113.951 -0.837657 3.68499 0
M  V30 1164 H 114.264 -1.09765 7.64965 0
M  V30 1165 H 112.609 -0.994026 6.87855 0
M  V30 1166 H 115.8 -0.95527 4.58249 0
M  V30 1167 H 115.973 -1.07405 6.39037 0
M  V30 1168 N 109.379 -1.50304 -0.473955 0
M  V30 1169 C 110.627 -1.60832 -1.22382 0
M  V30 1170 C 110.948 -0.30939 -1.9253 0
M  V30 1171 O 110.218 0.67296 -1.83978 0
M  V30 1172 H 108.798 -0.592652 -0.454723 0
M  V30 1173 H 111.46 -1.87068 -0.546968 0
M  V30 1174 H 110.556 -2.41803 -1.97327 0
M  V30 1175 N 110.857 0.726932 -1.39834 0
M  V30 1176 C 111.82 1.82269 -1.38962 0
M  V30 1177 C 112.82 1.58248 -0.285334 0
M  V30 1178 O 114.01 1.65499 -0.54366 0
M  V30 1179 C 111.142 3.20186 -1.17019 0
M  V30 1180 H 112.335 1.84443 -2.36476 0
M  V30 1181 H 109.888 0.931416 -1.25516 0
M  V30 1182 H 110.623 3.23669 -0.202204 0
M  V30 1183 H 110.408 3.3902 -1.96998 0
M  V30 1184 H 111.898 4.00235 -1.1917 0
M  V30 1185 N 112.336 1.25143 0.95797 0
M  V30 1186 C 113.747 1.08851 1.51685 0
M  V30 1187 C 114.098 -0.33687 1.93286 0
M  V30 1188 O 113.223 -1.22644 1.7829 0
M  V30 1189 C 113.818 1.96978 2.75654 0
M  V30 1190 C 112.377 1.84881 3.27866 0
M  V30 1191 C 111.524 1.91329 2.0072 0
M  V30 1192 H 114.475 1.38478 0.77522 0
M  V30 1193 H 114.496 1.5078 3.4935 0
M  V30 1194 H 114.008 3.00712 2.45345 0
M  V30 1195 H 112.109 0.840182 3.63004 0
M  V30 1196 H 112.222 2.6951 3.96107 0
M  V30 1197 H 110.586 1.35174 2.15871 0
M  V30 1198 H 111.369 2.96661 1.72764 0
M  V30 1199 N 113.814 -1.1601 1.06675 0
M  V30 1200 C 114.762 -2.22586 0.675157 0
M  V30 1201 C 115.756 -1.66525 -0.310766 0
M  V30 1202 O 116.962 -1.79145 -0.175215 0
M  V30 1203 H 113.337 -0.724855 0.200223 0
M  V30 1204 H 115.308 -2.52899 1.58381 0
M  V30 1205 C 114.057 -3.47604 0.0817162 0
M  V30 1206 H 113.38 -3.91058 0.831484 0
M  V30 1207 H 114.82 -4.23718 -0.154708 0
M  V30 1208 C 113.279 -3.15718 -1.17576 0
M  V30 1209 O 113.809 -3.31878 -2.26318 0
M  V30 1210 N 112.015 -2.69816 -1.07923 0
M  V30 1211 H 111.562 -2.56866 -0.194293 0
M  V30 1212 H 111.52 -2.48855 -1.92141 0
M  V30 1213 N 115.292 -0.849877 -1.32721 0
M  V30 1214 C 116.532 -0.457146 -1.99222 0
M  V30 1215 C 116.896 0.968038 -1.6581 0
M  V30 1216 O 118.097 1.46507 -2.25364 0
M  V30 1217 C 116.368 -0.683966 -3.50794 0
M  V30 1218 S 117.927 -0.388095 -4.3708 0
M  V30 1219 H 114.745 -0.171464 -0.690015 0
M  V30 1220 H 117.347 -1.10155 -1.61512 0
M  V30 1221 H 116.051 -1.72038 -3.726 0
M  V30 1222 H 115.582 -0.0258086 -3.93392 0
M  V30 1223 H 117.597 0.787791 -4.89906 0
M  V30 1224 N 116.77 1.45427 -0.607355 0
M  V30 1225 C 117.7 2.3329 0.0989352 0
M  V30 1226 C 118.681 1.46816 0.859007 0
M  V30 1227 O 119.866 1.75588 0.829604 0
M  V30 1228 C 116.996 3.29518 1.09705 0
M  V30 1229 C 115.95 4.25626 0.450206 0
M  V30 1230 C 115.276 5.11542 1.55655 0
M  V30 1231 C 116.576 5.18505 -0.628455 0
M  V30 1232 H 118.27 2.92595 -0.634716 0
M  V30 1233 H 115.816 1.40696 -0.306681 0
M  V30 1234 H 117.769 3.89855 1.59971 0
M  V30 1235 H 116.493 2.68372 1.86129 0
M  V30 1236 H 115.152 3.66586 -0.0315886 0
M  V30 1237 H 114.8 4.46765 2.31107 0
M  V30 1238 H 114.5 5.76647 1.12925 0
M  V30 1239 H 116.024 5.74748 2.06148 0
M  V30 1240 H 117.438 5.72916 -0.209877 0
M  V30 1241 H 115.835 5.92085 -0.977489 0
M  V30 1242 H 116.905 4.60948 -1.50514 0
M  V30 1243 N 118.248 0.346503 1.53744 0
M  V30 1244 C 119.178 -0.501193 2.28058 0
M  V30 1245 C 120.159 -1.10014 1.29734 0
M  V30 1246 O 121.344 -1.12097 1.58581 0
M  V30 1247 C 118.474 -1.65078 3.05559 0
M  V30 1248 C 117.428 -1.18003 4.11411 0
M  V30 1249 C 116.754 -2.41837 4.76884 0
M  V30 1250 C 118.054 -0.278394 5.21558 0
M  V30 1251 H 119.748 0.11875 2.99164 0
M  V30 1252 H 117.294 0.0585531 1.43881 0
M  V30 1253 H 119.247 -2.25028 3.56287 0
M  V30 1254 H 117.971 -2.29767 2.32109 0
M  V30 1255 H 116.63 -0.603331 3.61601 0
M  V30 1256 H 116.278 -3.0494 4.00026 0
M  V30 1257 H 115.978 -2.1102 5.48402 0
M  V30 1258 H 117.502 -3.02508 5.30397 0
M  V30 1259 H 118.916 -0.784823 5.67903 0
M  V30 1260 H 117.313 -0.0619707 6.00068 0
M  V30 1261 H 118.383 0.684677 4.80042 0
M  V30 1262 N 119.726 -1.57421 0.075193 0
M  V30 1263 C 120.656 -2.15942 -0.888324 0
M  V30 1264 C 121.637 -1.08737 -1.30806 0
M  V30 1265 O 122.822 -1.36787 -1.37851 0
M  V30 1266 C 119.952 -2.72379 -2.1547 0
M  V30 1267 C 118.906 -3.8478 -1.87425 0
M  V30 1268 C 118.232 -4.27834 -3.20721 0
M  V30 1269 C 119.532 -5.08869 -1.17684 0
M  V30 1270 H 121.226 -2.96705 -0.400799 0
M  V30 1271 H 118.772 -1.42723 -0.191342 0
M  V30 1272 H 120.725 -3.11965 -2.83295 0
M  V30 1273 H 119.449 -1.88841 -2.6647 0
M  V30 1274 H 118.108 -3.45703 -1.22004 0
M  V30 1275 H 117.756 -3.41214 -3.6957 0
M  V30 1276 H 117.456 -5.03605 -3.02746 0
M  V30 1277 H 118.98 -4.70039 -3.89738 0
M  V30 1278 H 120.394 -5.4575 -1.75584 0
M  V30 1279 H 118.791 -5.8994 -1.09956 0
M  V30 1280 H 119.861 -4.84648 -0.156453 0
M  V30 1281 N 121.204 0.198386 -1.56346 0
M  V30 1282 C 122.167 1.22952 -1.93431 0
M  V30 1283 C 123.167 1.38611 -0.815092 0
M  V30 1284 O 124.357 1.36479 -1.08255 0
M  V30 1285 C 121.489 2.59946 -2.20546 0
M  V30 1286 H 122.682 0.912626 -2.85677 0
M  V30 1287 H 120.235 0.43977 -1.49986 0
M  V30 1288 H 120.97 2.96696 -1.30927 0
M  V30 1289 H 120.755 2.49953 -3.02102 0
M  V30 1290 H 122.245 3.3431 -2.50253 0
M  V30 1291 N 122.682 1.50554 0.465978 0
M  V30 1292 C 123.959 1.5232 1.22712 0
M  V30 1293 C 124.339 0.270807 2.09356 0
M  V30 1294 O 123.687 -0.745541 2.15995 0
M  V30 1295 C 123.897 2.82175 2.05374 0
M  V30 1296 C 125.245 3.33033 2.6339 0
M  V30 1297 O 126.269 2.83531 2.15612 0
M  V30 1298 O 125.128 4.19336 3.50456 0
M  V30 1299 H 122.222 0.611183 0.557122 0
M  V30 1300 H 124.768 1.62847 0.477381 0
M  V30 1301 H 123.54 3.64797 1.41558 0
M  V30 1302 H 123.163 2.74675 2.87471 0
M  V30 1303 N 124.16 -0.719506 1.40217 0
M  V30 1304 C 125.09 -1.8465 1.42922 0
M  V30 1305 C 126.071 -1.67599 0.29062 0
M  V30 1306 O 127.256 -1.87688 0.498677 0
M  V30 1307 C 124.386 -3.22565 1.28722 0
M  V30 1308 C 123.34 -3.54281 2.40144 0
M  V30 1309 C 122.666 -4.91298 2.11023 0
M  V30 1310 C 123.966 -3.55676 3.82481 0
M  V30 1311 H 125.66 -1.82644 2.37237 0
M  V30 1312 H 123.206 -0.877305 1.1419 0
M  V30 1313 H 125.159 -4.01095 1.29232 0
M  V30 1314 H 123.883 -3.25137 0.308811 0
M  V30 1315 H 122.542 -2.78088 2.38877 0
M  V30 1316 H 122.19 -4.90468 1.11582 0
M  V30 1317 H 121.89 -5.13485 2.8567 0
M  V30 1318 H 123.414 -5.72166 2.13209 0
M  V30 1319 H 124.828 -4.24254 3.85592 0
M  V30 1320 H 123.225 -3.89388 4.56614 0
M  V30 1321 H 124.295 -2.55144 4.12346 0
M  V30 1322 N 125.638 -1.25649 -0.95132 0
M  V30 1323 C 127.049 -1.09654 -1.51106 0
M  V30 1324 C 127.4 0.326615 -1.93462 0
M  V30 1325 O 126.525 1.21697 -1.78938 0
M  V30 1326 C 127.12 -1.98437 -2.74605 0
M  V30 1327 C 125.679 -1.86618 -3.2688 0
M  V30 1328 C 124.826 -1.9239 -1.99703 0
M  V30 1329 H 127.777 -1.38887 -0.767865 0
M  V30 1330 H 127.798 -1.5263 -3.48546 0
M  V30 1331 H 127.31 -3.02009 -2.43746 0
M  V30 1332 H 125.411 -0.859421 -3.62553 0
M  V30 1333 H 125.524 -2.71607 -3.94673 0
M  V30 1334 H 123.888 -1.36317 -2.15151 0
M  V30 1335 H 124.671 -2.97573 -1.71188 0
M  V30 1336 N 127.117 1.15442 -1.07289 0
M  V30 1337 C 128.364 1.86213 -0.795668 0
M  V30 1338 C 128.692 1.82291 0.678238 0
M  V30 1339 O 127.947 1.24057 1.51355 0
M  V30 1340 C 128.246 3.3489 -1.24834 0
M  V30 1341 C 127.912 3.59007 -2.72809 0
M  V30 1342 C 126.574 3.65298 -3.13227 0
M  V30 1343 C 128.926 3.68762 -3.68326 0
M  V30 1344 C 126.254 3.78854 -4.4798 0
M  V30 1345 C 128.606 3.83842 -5.0284 0
M  V30 1346 C 127.27 3.88378 -5.4288 0
M  V30 1347 H 126.54 0.681403 -0.291155 0
M  V30 1348 H 129.187 1.36435 -1.34379 0
M  V30 1349 H 127.492 3.8687 -0.619595 0
M  V30 1350 H 129.189 3.88052 -1.01076 0
M  V30 1351 H 125.779 3.5475 -2.40521 0
M  V30 1352 H 129.963 3.63202 -3.38227 0
M  V30 1353 H 125.219 3.80623 -4.78472 0
M  V30 1354 H 129.393 3.90332 -5.76727 0
M  V30 1355 H 127.02 3.98635 -6.47298 0
M  V30 1356 N 128.595 0.856903 1.32268 0
M  V30 1357 C 129.528 0.247937 2.26849 0
M  V30 1358 C 130.506 -0.615382 1.50505 0
M  V30 1359 O 131.69 -0.571689 1.79622 0
M  V30 1360 C 128.817 -0.650093 3.32403 0
M  V30 1361 C 127.863 0.140138 4.2627 0
M  V30 1362 S 128.696 1.51004 5.13769 0
M  V30 1363 C 129.852 0.61778 6.22844 0
M  V30 1364 H 130.085 1.04971 2.78152 0
M  V30 1365 H 127.618 0.654665 1.39834 0
M  V30 1366 H 129.576 -1.16256 3.93694 0
M  V30 1367 H 128.237 -1.4257 2.7988 0
M  V30 1368 H 127.43 -0.543945 5.01056 0
M  V30 1369 H 127.032 0.584267 3.69408 0
M  V30 1370 H 129.324 -0.177053 6.77269 0
M  V30 1371 H 130.267 1.33636 6.95375 0
M  V30 1372 H 130.675 0.191124 5.64176 0
M  V30 1373 N 130.073 -1.45103 0.615059 0
M  V30 1374 C 131.036 -2.29025 -0.0895485 0
M  V30 1375 C 132.036 -1.40174 -0.787906 0
M  V30 1376 O 133.226 -1.62217 -0.634933 0
M  V30 1377 C 130.358 -3.21376 -1.13711 0
M  V30 1378 H 131.551 -2.92807 0.648382 0
M  V30 1379 H 129.104 -1.51749 0.374444 0
M  V30 1380 H 129.839 -2.6241 -1.90556 0
M  V30 1381 H 129.624 -3.86834 -0.640475 0
M  V30 1382 H 131.114 -3.84459 -1.63036 0
M  V30 1383 N 131.551 -0.354651 -1.53558 0
M  V30 1384 C 132.781 0.239167 -2.05211 0
M  V30 1385 C 133.189 1.43879 -1.22863 0
M  V30 1386 O 132.532 1.81857 -0.259565 0
M  V30 1387 C 132.594 0.707251 -3.52474 0
M  V30 1388 C 132.258 -0.374212 -4.55465 0
M  V30 1389 C 133.255 -1.22054 -5.0537 0
M  V30 1390 C 130.94 -0.531323 -4.99482 0
M  V30 1391 C 132.934 -2.20942 -5.97882 0
M  V30 1392 C 130.621 -1.52358 -5.91802 0
M  V30 1393 C 131.619 -2.36108 -6.40892 0
M  V30 1394 O 131.307 -3.33643 -7.31394 0
M  V30 1395 H 131.039 0.0479716 -0.674296 0
M  V30 1396 H 133.593 -0.508121 -1.99016 0
M  V30 1397 H 131.823 1.50596 -3.56171 0
M  V30 1398 H 133.512 1.22285 -3.87042 0
M  V30 1399 H 134.278 -1.1103 -4.7212 0
M  V30 1400 H 130.157 0.110738 -4.60867 0
M  V30 1401 H 133.701 -2.86348 -6.36121 0
M  V30 1402 H 129.598 -1.63434 -6.24467 0
M  V30 1403 H 130.366 -3.29244 -7.4936 0
M  V30 1404 N 133.029 1.57378 -0.0835403 0
M  V30 1405 C 133.992 2.12252 0.864959 0
M  V30 1406 C 134.992 1.04916 1.21858 0
M  V30 1407 O 136.182 1.30853 1.14991 0
M  V30 1408 C 133.314 2.63358 2.16461 0
M  V30 1409 H 134.507 2.97371 0.388676 0
M  V30 1410 H 132.06 1.55423 0.165317 0
M  V30 1411 H 132.795 1.81727 2.686 0
M  V30 1412 H 132.58 3.41826 1.92087 0
M  V30 1413 H 134.07 3.05847 2.84337 0
M  V30 1414 N 134.507 -0.190092 1.56449 0
M  V30 1415 C 135.735 -0.925772 1.85033 0
M  V30 1416 C 136.15 -1.76638 0.666658 0
M  V30 1417 O 135.507 -1.78822 -0.364565 0
M  V30 1418 C 135.558 -1.81786 3.12468 0
M  V30 1419 O 135.279 -1.01118 4.26271 0
M  V30 1420 C 136.78 -2.6648 3.54265 0
M  V30 1421 H 134 -0.269872 0.614337 0
M  V30 1422 H 136.544 -0.195837 2.0356 0
M  V30 1423 H 134.699 -2.50136 2.95822 0
M  V30 1424 H 135.113 -1.61956 4.98869 0
M  V30 1425 H 136.587 -3.24722 4.46385 0
M  V30 1426 H 137.064 -3.40434 2.77491 0
M  V30 1427 H 137.67 -2.03493 3.73458 0
M  V30 1428 N 135.985 -1.50799 -0.457987 0
M  V30 1429 C 137.396 -1.55152 -1.0385 0
M  V30 1430 C 137.747 -0.362719 -1.92818 0
M  V30 1431 O 136.872 0.522915 -2.09987 0
M  V30 1432 C 137.467 -2.81173 -1.89017 0
M  V30 1433 C 136.026 -2.88164 -2.42154 0
M  V30 1434 C 135.173 -2.49591 -1.20829 0
M  V30 1435 H 138.124 -1.56874 -0.240068 0
M  V30 1436 H 138.145 -2.63769 -2.74238 0
M  V30 1437 H 137.657 -3.67677 -1.24238 0
M  V30 1438 H 135.758 -2.06042 -3.10447 0
M  V30 1439 H 135.871 -3.91356 -2.76364 0
M  V30 1440 H 134.235 -2.02322 -1.54719 0
M  V30 1441 H 135.018 -3.38418 -0.576927 0
M  V30 1442 N 137.463 0.71206 -1.40597 0
M  V30 1443 C 138.373 1.8562 -1.43466 0
M  V30 1444 C 139.389 1.70902 -0.326902 0
M  V30 1445 O 140.565 1.93105 -0.572043 0
M  V30 1446 C 137.63 3.21451 -1.29884 0
M  V30 1447 C 136.691 3.48398 -2.50833 0
M  V30 1448 C 135.924 4.77749 -2.3789 0
M  V30 1449 O 136.147 5.53089 -1.39459 0
M  V30 1450 O 135.081 5.05111 -3.27333 0
M  V30 1451 H 138.907 1.86155 -2.39958 0
M  V30 1452 H 136.492 0.86295 -1.21957 0
M  V30 1453 H 138.374 4.02579 -1.24531 0
M  V30 1454 H 137.049 3.21636 -0.364997 0
M  V30 1455 H 135.956 2.67265 -2.61763 0
M  V30 1456 H 137.289 3.53014 -3.4299 0
M  V30 1457 N 138.941 1.26152 0.944643 0
M  V30 1458 C 139.873 1.03199 2.04652 0
M  V30 1459 C 140.886 -0.00642356 1.62799 0
M  V30 1460 O 142.075 0.233263 1.76969 0
M  V30 1461 C 139.175 0.540111 3.34568 0
M  V30 1462 C 138.348 1.64697 4.05208 0
M  V30 1463 C 137.407 1.15374 5.13396 0
M  V30 1464 O 136.433 1.85013 5.38293 0
M  V30 1465 N 137.635 0.00031529 5.805 0
M  V30 1466 H 140.4 1.9808 2.2491 0
M  V30 1467 H 137.961 1.17491 1.11389 0
M  V30 1468 H 139.953 0.194401 4.04233 0
M  V30 1469 H 138.523 -0.315021 3.11009 0
M  V30 1470 H 137.743 2.16379 3.29506 0
M  V30 1471 H 139.031 2.3903 4.49157 0
M  V30 1472 H 138.429 -0.581336 5.62705 0
M  V30 1473 H 136.986 -0.286346 6.51171 0
M  V30 1474 N 140.419 -1.14872 1.07899 0
M  V30 1475 C 141.382 -2.17986 0.708161 0
M  V30 1476 C 142.382 -1.58775 -0.25442 0
M  V30 1477 O 143.572 -1.74166 -0.034645 0
M  V30 1478 C 140.704 -3.40871 0.0446929 0
M  V30 1479 H 141.897 -2.52306 1.62116 0
M  V30 1480 H 139.45 -1.2943 0.876218 0
M  V30 1481 H 140.185 -3.12124 -0.880281 0
M  V30 1482 H 139.97 -3.8511 0.737091 0
M  V30 1483 H 141.46 -4.17121 -0.19991 0
M  V30 1484 N 141.898 -0.863906 -1.31812 0
M  V30 1485 C 143.145 -0.471836 -1.96926 0
M  V30 1486 C 143.473 0.974578 -1.68322 0
M  V30 1487 O 142.728 1.7003 -0.968933 0
M  V30 1488 C 143.027 -0.668547 -3.51091 0
M  V30 1489 C 142.693 -2.08683 -3.99703 0
M  V30 1490 C 141.355 -2.47471 -4.12688 0
M  V30 1491 C 143.707 -3.01207 -4.25351 0
M  V30 1492 C 141.035 -3.78037 -4.4867 0
M  V30 1493 C 143.387 -4.31282 -4.62794 0
M  V30 1494 C 142.051 -4.69992 -4.73987 0
M  V30 1495 H 141.321 -0.172657 -0.720604 0
M  V30 1496 H 143.968 -1.09573 -1.57054 0
M  V30 1497 H 142.273 0.0385252 -3.91781 0
M  V30 1498 H 143.97 -0.345102 -3.99512 0
M  V30 1499 H 140.56 -1.77566 -3.90087 0
M  V30 1500 H 144.744 -2.72469 -4.14819 0
M  V30 1501 H 140 -4.078 -4.55532 0
M  V30 1502 H 144.174 -5.03031 -4.81594 0
M  V30 1503 H 141.801 -5.71207 -5.01624 0
M  V30 1504 N 143.376 1.44774 -0.622745 0
M  V30 1505 C 144.286 2.34433 0.0886031 0
M  V30 1506 C 145.302 1.52131 0.844529 0
M  V30 1507 O 146.478 1.84886 0.798691 0
M  V30 1508 C 143.543 3.29986 1.0635 0
M  V30 1509 C 142.604 4.28195 0.307873 0
M  V30 1510 C 141.837 5.19183 1.23633 0
M  V30 1511 O 142.06 5.13918 2.47476 0
M  V30 1512 O 140.994 5.97515 0.725189 0
M  V30 1513 H 144.82 2.96693 -0.648599 0
M  V30 1514 H 142.405 1.44408 -0.382957 0
M  V30 1515 H 144.287 3.88825 1.6246 0
M  V30 1516 H 142.962 2.70269 1.78146 0
M  V30 1517 H 141.869 3.72927 -0.296064 0
M  V30 1518 H 143.202 4.90808 -0.3699 0
M  V30 1519 N 144.854 0.36279 1.53368 0
M  V30 1520 C 145.802 -0.500155 2.27159 0
M  V30 1521 C 146.796 -1.08575 1.3003 0
M  V30 1522 O 148.002 -1.02927 1.47668 0
M  V30 1523 H 144.377 -0.180009 0.730138 0
M  V30 1524 H 146.348 0.14401 2.98052 0
M  V30 1525 C 145.097 -1.62937 3.07159 0
M  V30 1526 H 144.42 -1.18806 3.8174 0
M  V30 1527 H 145.86 -2.20795 3.61975 0
M  V30 1528 C 144.319 -2.57007 2.17829 0
M  V30 1529 O 144.849 -3.59752 1.78721 0
M  V30 1530 N 143.055 -2.26131 1.82518 0
M  V30 1531 H 142.602 -1.42616 2.14519 0
M  V30 1532 H 142.56 -2.89327 1.23034 0
M  V30 1533 N 146.332 -1.57332 0.0918853 0
M  V30 1534 C 147.295 -2.12708 -0.85369 0
M  V30 1535 C 148.295 -1.05561 -1.213 0
M  V30 1536 O 149.485 -1.31461 -1.14296 0
M  V30 1537 C 146.617 -2.64503 -2.15061 0
M  V30 1538 H 147.81 -2.97573 -0.3729 0
M  V30 1539 H 145.363 -1.55509 -0.157072 0
M  V30 1540 H 146.098 -1.83149 -2.67632 0
M  V30 1541 H 145.883 -3.4284 -1.90272 0
M  V30 1542 H 147.373 -3.07351 -2.82711 0
M  V30 1543 N 147.81 0.181792 -1.56548 0
M  V30 1544 C 148.773 1.20894 -1.94724 0
M  V30 1545 C 149.773 1.37738 -0.829747 0
M  V30 1546 O 150.963 1.35323 -1.09697 0
M  V30 1547 C 148.095 2.57593 -2.23291 0
M  V30 1548 H 149.288 0.882275 -2.86629 0
M  V30 1549 H 146.841 0.423838 -1.50444 0
M  V30 1550 H 147.576 2.95291 -1.34067 0
M  V30 1551 H 147.361 2.46735 -3.04736 0
M  V30 1552 H 148.851 3.31637 -2.53785 0
M  V30 1553 N 149.288 1.51039 0.449983 0
M  V30 1554 C 150.516 1.66869 1.2232 0
M  V30 1555 C 150.931 0.360727 1.85322 0
M  V30 1556 O 150.288 -0.659531 1.70166 0
M  V30 1557 C 150.339 2.77524 2.31652 0
M  V30 1558 O 150.06 4.03252 1.7123 0
M  V30 1559 C 151.561 3.04512 3.2216 0
M  V30 1560 H 148.781 0.560326 0.369155 0
M  V30 1561 H 151.325 1.97385 0.534719 0
M  V30 1562 H 149.48 2.49642 2.96239 0
M  V30 1563 H 149.894 4.64609 2.43389 0
M  V30 1564 H 151.368 3.85551 3.95038 0
M  V30 1565 H 151.845 2.16415 3.8218 0
M  V30 1566 H 152.451 3.34005 2.63288 0
M  V30 1567 N 150.766 -0.704594 1.40972 0
M  V30 1568 C 152.012 -1.46675 1.40051 0
M  V30 1569 C 152.345 -1.94199 0.00641102 0
M  V30 1570 O 151.62 -1.68916 -0.964235 0
M  V30 1571 C 151.903 -2.68505 2.39952 0
M  V30 1572 C 151.756 -2.26805 3.88432 0
M  V30 1573 C 153.075 -3.70686 2.37233 0
M  V30 1574 H 150.194 -0.532015 0.510028 0
M  V30 1575 H 152.836 -0.803255 1.72185 0
M  V30 1576 H 150.986 -3.25114 2.1268 0
M  V30 1577 H 152.658 -1.75592 4.26574 0
M  V30 1578 H 150.901 -1.58685 4.03734 0
M  V30 1579 H 151.572 -3.14181 4.53866 0
M  V30 1580 H 154.048 -3.23731 2.61415 0
M  V30 1581 H 152.924 -4.53553 3.09162 0
M  V30 1582 H 153.185 -4.19754 1.38777 0
M  V30 1583 N 152.244 -1.26651 -0.937939 0
M  V30 1584 C 153.177 -1.02811 -2.03728 0
M  V30 1585 C 154.155 0.0481915 -1.62529 0
M  V30 1586 O 155.339 -0.0948839 -1.88261 0
M  V30 1587 C 152.466 -0.557517 -3.3408 0
M  V30 1588 C 151.512 -1.62686 -3.94253 0
M  V30 1589 S 152.345 -3.21667 -4.28125 0
M  V30 1590 C 153.501 -2.76384 -5.61572 0
M  V30 1591 H 153.734 -1.95891 -2.23638 0
M  V30 1592 H 151.267 -1.10367 -1.07974 0
M  V30 1593 H 153.225 -0.292674 -4.09455 0
M  V30 1594 H 151.886 0.353062 -3.12109 0
M  V30 1595 H 151.079 -1.24866 -4.88287 0
M  V30 1596 H 150.681 -1.84324 -3.25424 0
M  V30 1597 H 152.973 -2.2105 -6.40424 0
M  V30 1598 H 153.916 -3.69123 -6.0428 0
M  V30 1599 H 154.324 -2.15847 -5.21604 0
M  V30 1600 N 153.722 1.14298 -1.08507 0
M  V30 1601 C 155.138 1.37347 -0.812901 0
M  V30 1602 C 155.338 1.93052 0.577325 0
M  V30 1603 O 154.394 2.14389 1.33393 0
M  V30 1604 C 155.707 2.33359 -1.89642 0
M  V30 1605 C 157.255 2.46996 -1.92255 0
M  V30 1606 C 157.73 3.46309 -2.99724 0
M  V30 1607 N 159.221 3.53853 -2.98902 0
M  V30 1608 C 159.956 4.3055 -3.787 0
M  V30 1609 N 159.452 5.10482 -4.6838 0
M  V30 1610 N 161.245 4.25757 -3.66998 0
M  V30 1611 H 153.396 0.764867 -1.9815 0
M  V30 1612 H 155.659 0.398966 -0.859959 0
M  V30 1613 H 155.365 1.99565 -2.89597 0
M  V30 1614 H 155.239 3.33274 -1.76659 0
M  V30 1615 H 157.626 2.80081 -0.929445 0
M  V30 1616 H 157.707 1.47039 -2.09316 0
M  V30 1617 H 157.351 3.13957 -3.99241 0
M  V30 1618 H 157.281 4.46049 -2.79907 0
M  V30 1619 H 159.772 2.96812 -2.33904 0
M  V30 1620 H 160.085 5.66284 -5.25873 0
M  V30 1621 H 158.43 5.09747 -4.72422 0
M  V30 1622 H 161.621 3.62383 -2.96304 0
M  V30 1623 H 161.794 4.85279 -4.29427 0
M  V30 1624 N 155.201 0.870884 1.31352 0
M  V30 1625 C 156.164 0.332243 2.26779 0
M  V30 1626 C 157.164 -0.517302 1.52252 0
M  V30 1627 O 158.354 -0.326477 1.71113 0
M  V30 1628 C 155.486 -0.528066 3.36785 0
M  V30 1629 H 156.679 1.17469 2.75937 0
M  V30 1630 H 154.232 0.64655 1.423 0
M  V30 1631 H 154.967 -1.39167 2.92922 0
M  V30 1632 H 154.752 0.0802582 3.92018 0
M  V30 1633 H 156.242 -0.897179 4.07849 0
M  V30 1634 N 156.679 -1.44442 0.630414 0
M  V30 1635 C 157.927 -2.01653 0.134351 0
M  V30 1636 C 158.248 -1.49836 -1.24796 0
M  V30 1637 O 157.518 -0.701684 -1.82902 0
M  V30 1638 H 156.098 -0.74554 0.0466769 0
M  V30 1639 H 158.76 -1.76952 0.816955 0
M  V30 1640 H 157.856 -3.11935 0.101498 0
M  V30 1641 N 158.157 -0.370918 -1.53173 0
M  V30 1642 C 159.12 0.460778 -2.24521 0
M  V30 1643 C 160.12 1.00536 -1.25496 0
M  V30 1644 O 161.31 0.890266 -1.49733 0
M  V30 1645 C 158.442 1.64457 -2.98608 0
M  V30 1646 H 159.635 -0.163613 -2.99453 0
M  V30 1647 H 157.188 -0.122699 -1.55818 0
M  V30 1648 H 157.923 2.30691 -2.2793 0
M  V30 1649 H 157.708 1.26099 -3.7127 0
M  V30 1650 H 159.198 2.23384 -3.5283 0
M  V30 1651 N 159.635 1.57281 -0.100228 0
M  V30 1652 C 160.583 2.15542 0.874328 0
M  V30 1653 C 161.577 1.09962 1.28859 0
M  V30 1654 O 162.783 1.28298 1.26252 0
M  V30 1655 H 159.158 0.689567 0.300003 0
M  V30 1656 H 161.129 2.96241 0.35829 0
M  V30 1657 C 159.878 2.75454 2.1218 0
M  V30 1658 H 159.201 3.56384 1.81193 0
M  V30 1659 H 160.641 3.19781 2.78417 0
M  V30 1660 C 159.1 1.71602 2.89921 0
M  V30 1661 O 159.63 1.15804 3.84646 0
M  V30 1662 N 157.836 1.41975 2.53558 0
M  V30 1663 H 157.383 1.87539 1.76598 0
M  V30 1664 H 157.341 0.727274 3.05873 0
M  V30 1665 N 161.113 -0.173488 1.56642 0
M  V30 1666 C 162.046 -1.24353 1.91342 0
M  V30 1667 C 163.024 -1.4289 0.775965 0
M  V30 1668 O 164.208 -1.57932 1.02907 0
M  V30 1669 C 161.335 -2.60683 2.16245 0
M  V30 1670 C 160.381 -2.58894 3.38934 0
M  V30 1671 S 161.214 -2.0819 4.93373 0
M  V30 1672 C 162.37 -3.46302 5.21369 0
M  V30 1673 H 162.603 -0.947345 2.81803 0
M  V30 1674 H 160.136 -0.377958 1.49703 0
M  V30 1675 H 162.094 -3.39149 2.31275 0
M  V30 1676 H 160.755 -2.87502 1.26496 0
M  V30 1677 H 159.948 -3.59188 3.53553 0
M  V30 1678 H 159.55 -1.88522 3.2301 0
M  V30 1679 H 161.842 -4.42287 5.13214 0
M  V30 1680 H 162.785 -3.3656 6.23003 0
M  V30 1681 H 163.193 -3.42214 4.48943 0
M  V30 1682 N 162.591 -1.51276 -0.441967 0
M  V30 1683 C 163.837 -1.63958 -1.19355 0
M  V30 1684 C 164.17 -0.352543 -1.90973 0
M  V30 1685 O 163.445 0.647627 -1.83401 0
M  V30 1686 C 163.728 -2.83979 -2.21422 0
M  V30 1687 C 163.581 -4.22646 -1.53918 0
M  V30 1688 C 164.9 -2.99521 -3.22451 0
M  V30 1689 H 162.019 -0.596709 -0.432559 0
M  V30 1690 H 164.661 -1.83748 -0.483398 0
M  V30 1691 H 162.811 -2.67237 -2.81987 0
M  V30 1692 H 164.483 -4.51045 -0.967256 0
M  V30 1693 H 162.726 -4.25558 -0.841615 0
M  V30 1694 H 163.397 -5.02609 -2.28229 0
M  V30 1695 H 165.873 -3.14944 -2.71937 0
M  V30 1696 H 164.749 -3.85072 -3.91166 0
M  V30 1697 H 165.01 -2.11391 -3.88287 0
M  V30 1698 N 164.069 0.697108 -1.41344 0
M  V30 1699 C 165.016 1.81106 -1.43071 0
M  V30 1700 C 165.986 1.63632 -0.285275 0
M  V30 1701 O 167.171 1.84504 -0.486091 0
M  V30 1702 C 164.311 3.18975 -1.31715 0
M  V30 1703 C 163.424 3.47892 -2.56115 0
M  V30 1704 C 162.559 4.75367 -2.37064 0
M  V30 1705 C 161.598 4.97247 -3.56948 0
M  V30 1706 N 160.735 6.15947 -3.36977 0
M  V30 1707 H 165.575 1.78965 -2.38276 0
M  V30 1708 H 163.112 0.873975 -1.18322 0
M  V30 1709 H 165.07 3.98615 -1.23133 0
M  V30 1710 H 163.7 3.20297 -0.401183 0
M  V30 1711 H 162.752 2.62669 -2.75153 0
M  V30 1712 H 164.064 3.59962 -3.45295 0
M  V30 1713 H 163.218 5.63059 -2.25941 0
M  V30 1714 H 161.957 4.65541 -1.45338 0
M  V30 1715 H 160.962 4.08004 -3.68527 0
M  V30 1716 H 162.187 5.08934 -4.49626 0
M  V30 1717 H 160.133 6.07336 -2.47949 0
M  V30 1718 H 160.05 6.28777 -4.19732 0
M  V30 1719 H 161.318 7.06377 -3.29623 0
M  V30 1720 N 165.547 1.27147 0.931209 0
M  V30 1721 C 166.796 1.12664 1.67302 0
M  V30 1722 C 167.109 -0.327718 1.92835 0
M  V30 1723 O 168.315 -0.593392 2.64936 0
M  V30 1724 C 166.771 1.9683 3.01307 0
M  V30 1725 C 166.379 3.46901 2.83485 0
M  V30 1726 C 168.123 1.90985 3.79111 0
M  V30 1727 C 166.03 4.23279 4.13024 0
M  V30 1728 H 164.96 0.41803 0.627509 0
M  V30 1729 H 167.611 1.51539 1.03481 0
M  V30 1730 H 165.993 1.50797 3.66164 0
M  V30 1731 H 167.167 4.00773 2.27415 0
M  V30 1732 H 165.482 3.54088 2.19113 0
M  V30 1733 H 168.079 2.45328 4.75098 0
M  V30 1734 H 168.422 0.882718 4.06834 0
M  V30 1735 H 168.955 2.34895 3.21044 0
M  V30 1736 H 165.694 5.26503 3.90481 0
M  V30 1737 H 165.214 3.74186 4.6877 0
M  V30 1738 H 166.893 4.32265 4.81411 0
M  V30 1739 N 167.025 -1.13721 1.09112 0
M  V30 1740 C 167.935 -2.22638 0.73957 0
M  V30 1741 C 168.951 -1.72091 -0.257068 0
M  V30 1742 O 170.127 -2.01155 -0.0992154 0
M  V30 1743 C 167.192 -3.46322 0.16191 0
M  V30 1744 C 166.253 -4.11775 1.21408 0
M  V30 1745 C 165.486 -5.29555 0.663891 0
M  V30 1746 O 165.709 -5.68077 -0.514274 0
M  V30 1747 O 164.643 -5.84973 1.41738 0
M  V30 1748 H 168.469 -2.55074 1.64836 0
M  V30 1749 H 166.054 -1.21791 0.865289 0
M  V30 1750 H 167.936 -4.21107 -0.157073 0
M  V30 1751 H 166.611 -3.15593 -0.719932 0
M  V30 1752 H 165.518 -3.3883 1.58571 0
M  V30 1753 H 166.851 -4.46627 2.06845 0
M  V30 1754 N 168.503 -0.877838 -1.30888 0
M  V30 1755 C 169.751 -0.491723 -1.96027 0
M  V30 1756 C 170.072 0.960827 -1.69685 0
M  V30 1757 O 169.342 1.67462 -1.01654 0
M  V30 1758 H 167.922 -0.17885 -0.725273 0
M  V30 1759 H 170.584 -1.11935 -1.59551 0
M  V30 1760 H 169.68 -0.656016 -3.05128 0
M  V30 1761 N 169.982 1.44106 -0.638065 0
M  V30 1762 C 171.23 2.01579 -0.145043 0
M  V30 1763 C 171.551 1.50496 1.24 0
M  V30 1764 O 170.821 0.711374 1.82527 0
M  V30 1765 H 169.401 0.745282 -0.05063 0
M  V30 1766 H 172.063 1.76516 -0.826327 0
M  V30 1767 H 171.159 3.11877 -0.118039 0
M  V30 1768 N 171.46 0.379036 1.52974 0
M  V30 1769 C 172.37 -0.468639 2.29872 0
M  V30 1770 C 173.386 -1.08067 1.36373 0
M  V30 1771 O 174.562 -1.08871 1.69438 0
M  V30 1772 C 171.627 -1.58594 3.083 0
M  V30 1773 C 170.688 -1.00007 4.17489 0
M  V30 1774 C 169.921 -2.06413 4.92168 0
M  V30 1775 O 170.144 -3.27751 4.66835 0
M  V30 1776 O 169.078 -1.68717 5.7777 0
M  V30 1777 H 172.904 0.157508 3.03291 0
M  V30 1778 H 170.489 0.143035 1.48714 0
M  V30 1779 H 172.371 -2.23525 3.57232 0
M  V30 1780 H 171.046 -2.19724 2.37703 0
M  V30 1781 H 169.953 -0.314299 3.72777 0
M  V30 1782 H 171.286 -0.433135 4.90291 0
M  V30 1783 N 172.938 -1.57226 0.108567 0
M  V30 1784 C 174.184 -1.95919 -0.546564 0
M  V30 1785 C 174.539 -0.990417 -1.6495 0
M  V30 1786 O 173.832 -0.0186593 -1.91591 0
M  V30 1787 C 174.026 -3.38911 -1.13463 0
M  V30 1788 C 173.855 -4.4961 -0.0901926 0
M  V30 1789 C 172.625 -5.04168 0.338008 0
M  V30 1790 C 174.823 -5.09693 0.686808 0
M  V30 1791 N 172.805 -5.98434 1.36931 0
M  V30 1792 C 174.176 -5.99804 1.56958 0
M  V30 1793 C 176.231 -4.92388 0.738846 0
M  V30 1794 C 174.934 -6.74463 2.49983 0
M  V30 1795 C 176.96 -5.67719 1.65676 0
M  V30 1796 C 176.322 -6.57507 2.52713 0
M  V30 1797 H 172.421 -0.763312 -0.169936 0
M  V30 1798 H 175.005 -1.93728 0.194264 0
M  V30 1799 H 173.176 -3.41769 -1.84522 0
M  V30 1800 H 174.908 -3.64752 -1.75322 0
M  V30 1801 H 171.663 -4.73571 -0.0523673 0
M  V30 1802 H 172.087 -6.5027 1.88356 0
M  V30 1803 H 176.729 -4.22724 0.080084 0
M  V30 1804 H 174.447 -7.4338 3.16878 0
M  V30 1805 H 178.033 -5.56338 1.70233 0
M  V30 1806 H 176.913 -7.14778 3.22586 0
M  V30 1807 N 174.416 0.165178 -1.56732 0
M  V30 1808 C 175.346 1.20651 -1.99914 0
M  V30 1809 C 176.327 1.45827 -0.875705 0
M  V30 1810 O 177.512 1.57057 -1.14223 0
M  V30 1811 C 174.642 2.54401 -2.36427 0
M  V30 1812 C 173.596 2.43782 -3.51787 0
M  V30 1813 C 172.922 3.82078 -3.7406 0
M  V30 1814 C 174.222 1.93732 -4.85041 0
M  V30 1815 H 175.916 0.847534 -2.87154 0
M  V30 1816 H 173.462 0.40625 -1.38151 0
M  V30 1817 H 175.415 3.27458 -2.65234 0
M  V30 1818 H 174.139 2.92098 -1.46103 0
M  V30 1819 H 172.798 1.73178 -3.23117 0
M  V30 1820 H 172.446 4.17179 -2.81017 0
M  V30 1821 H 172.146 3.7584 -4.51684 0
M  V30 1822 H 173.67 4.56712 -4.05274 0
M  V30 1823 H 175.084 2.56569 -5.12684 0
M  V30 1824 H 173.481 1.98428 -5.66345 0
M  V30 1825 H 174.551 0.891962 -4.76626 0
M  V30 1826 N 175.894 1.51508 0.433938 0
M  V30 1827 C 177.14 1.64588 1.18484 0
M  V30 1828 C 177.473 0.362666 1.90784 0
M  V30 1829 O 176.748 -0.637892 1.83742 0
M  V30 1830 C 177.031 2.85149 2.19913 0
M  V30 1831 C 176.884 4.23456 1.51674 0
M  V30 1832 C 178.203 3.01227 3.20858 0
M  V30 1833 H 175.322 0.598994 0.429389 0
M  V30 1834 H 177.964 1.84002 0.473647 0
M  V30 1835 H 176.114 2.68729 2.80566 0
M  V30 1836 H 177.786 4.51552 0.943322 0
M  V30 1837 H 176.029 4.25998 0.819035 0
M  V30 1838 H 176.7 5.03812 2.2556 0
M  V30 1839 H 179.176 3.16382 2.70263 0
M  V30 1840 H 178.052 3.87141 3.89118 0
M  V30 1841 H 178.313 2.13447 3.8716 0
M  V30 1842 N 177.372 -0.689602 1.41712 0
M  V30 1843 C 178.282 -1.83314 1.46401 0
M  V30 1844 C 179.298 -1.7036 0.35405 0
M  V30 1845 O 180.474 -1.92171 0.602692 0
M  V30 1846 C 177.539 -3.19344 1.34982 0
M  V30 1847 C 176.6 -3.44363 2.56344 0
M  V30 1848 C 175.833 -4.73904 2.45461 0
M  V30 1849 O 176.056 -5.508 1.48241 0
M  V30 1850 O 174.99 -4.99839 3.35328 0
M  V30 1851 H 178.816 -1.82314 2.42889 0
M  V30 1852 H 176.401 -0.843438 1.23315 0
M  V30 1853 H 178.283 -4.00547 1.3092 0
M  V30 1854 H 176.958 -3.21014 0.41612 0
M  V30 1855 H 175.865 -2.63067 2.65982 0
M  V30 1856 H 177.198 -3.47512 3.48563 0
M  V30 1857 N 178.85 -1.27639 -0.924453 0
M  V30 1858 C 180.078 -1.16989 -1.70649 0
M  V30 1859 C 180.493 0.272869 -1.86818 0
M  V30 1860 O 179.85 1.18549 -1.38753 0
M  V30 1861 C 179.901 -1.85229 -3.10439 0
M  V30 1862 O 179.622 -3.23868 -2.95028 0
M  V30 1863 C 181.123 -1.80746 -4.04779 0
M  V30 1864 H 178.343 -0.406595 -0.53378 0
M  V30 1865 H 180.887 -1.68569 -1.15778 0
M  V30 1866 H 179.042 -1.37545 -3.6216 0
M  V30 1867 H 179.456 -3.57889 -3.83426 0
M  V30 1868 H 180.93 -2.33101 -5.00368 0
M  V30 1869 H 181.407 -0.777499 -4.32263 0
M  V30 1870 H 182.013 -2.28059 -3.58984 0
M  V30 1871 N 180.328 1.1314 -1.09713 0
M  V30 1872 C 181.574 1.84757 -0.836224 0
M  V30 1873 C 181.907 1.8347 0.636598 0
M  V30 1874 O 181.182 1.27491 1.46889 0
M  V30 1875 C 181.465 3.32782 -1.37578 0
M  V30 1876 C 181.318 3.42567 -2.91493 0
M  V30 1877 C 182.637 4.28307 -1.01198 0
M  V30 1878 H 179.756 0.67082 -0.305236 0
M  V30 1879 H 182.398 1.3278 -1.35903 0
M  V30 1880 H 180.548 3.77177 -0.931097 0
M  V30 1881 H 182.22 3.06862 -3.44432 0
M  V30 1882 H 180.463 2.83349 -3.28475 0
M  V30 1883 H 181.134 4.46674 -3.24324 0
M  V30 1884 H 183.61 3.91999 -1.39556 0
M  V30 1885 H 182.486 5.30307 -1.41653 0
M  V30 1886 H 182.747 4.42029 0.0794833 0
M  V30 1887 N 181.806 0.884767 1.30421 0
M  V30 1888 C 182.738 0.308655 2.27112 0
M  V30 1889 C 183.751 -0.536655 1.53701 0
M  V30 1890 O 184.94 -0.35624 1.74909 0
M  V30 1891 C 182.04 -0.579782 3.33904 0
M  V30 1892 C 181.213 0.236417 4.36761 0
M  V30 1893 C 180.272 -0.582482 5.22966 0
M  V30 1894 O 179.298 -0.00525502 5.692 0
M  V30 1895 N 180.5 -1.89163 5.48815 0
M  V30 1896 H 183.265 1.13964 2.77186 0
M  V30 1897 H 180.826 0.747731 1.43599 0
M  V30 1898 H 182.818 -1.13366 3.88497 0
M  V30 1899 H 181.388 -1.31144 2.83761 0
M  V30 1900 H 180.608 0.97174 3.82035 0
M  V30 1901 H 181.896 0.795924 5.02536 0
M  V30 1902 H 181.294 -2.38352 5.13035 0
M  V30 1903 H 179.851 -2.39296 6.06284 0
M  V30 1904 N 183.284 -1.43765 0.645699 0
M  V30 1905 C 184.217 -2.2798 -0.100072 0
M  V30 1906 C 185.195 -1.39391 -0.837194 0
M  V30 1907 O 186.379 -1.68833 -0.838306 0
M  V30 1908 C 183.506 -3.18643 -1.14823 0
M  V30 1909 C 182.552 -4.2344 -0.510009 0
M  V30 1910 S 183.385 -5.30761 0.710824 0
M  V30 1911 C 184.541 -6.24992 -0.33699 0
M  V30 1912 H 184.774 -2.90884 0.614322 0
M  V30 1913 H 182.307 -1.48166 0.434304 0
M  V30 1914 H 184.265 -3.71424 -1.74799 0
M  V30 1915 H 182.926 -2.54932 -1.8349 0
M  V30 1916 H 182.119 -4.86948 -1.29991 0
M  V30 1917 H 181.721 -3.73997 0.0154577 0
M  V30 1918 H 184.013 -6.66691 -1.20537 0
M  V30 1919 H 184.956 -7.07612 0.262879 0
M  V30 1920 H 185.364 -5.60517 -0.669425 0
M  V30 1921 N 184.763 -0.387143 -1.52771 0
M  V30 1922 C 185.693 0.440551 -2.29306 0
M  V30 1923 C 186.674 1.06535 -1.32606 0
M  V30 1924 O 187.859 1.07853 -1.61497 0
M  V30 1925 C 184.989 1.56919 -3.09829 0
M  V30 1926 C 183.943 1.07054 -4.14395 0
M  V30 1927 C 183.269 2.29109 -4.83129 0
M  V30 1928 C 184.569 0.140015 -5.22112 0
M  V30 1929 H 186.263 -0.198026 -2.98744 0
M  V30 1930 H 183.809 -0.09668 -1.43675 0
M  V30 1931 H 185.762 2.15503 -3.62128 0
M  V30 1932 H 184.486 2.23532 -2.3812 0
M  V30 1933 H 183.145 0.507247 -3.63074 0
M  V30 1934 H 182.793 2.94227 -4.0797 0
M  V30 1935 H 182.493 1.96406 -5.53804 0
M  V30 1936 H 184.017 2.88339 -5.38231 0
M  V30 1937 H 185.431 0.633978 -5.69784 0
M  V30 1938 H 183.828 -0.0971485 -6.00021 0
M  V30 1939 H 184.898 -0.811711 -4.78058 0
M  V30 1940 N 186.241 1.57166 -0.116904 0
M  V30 1941 C 187.469 1.99473 0.549383 0
M  V30 1942 C 187.884 0.996541 1.60357 0
M  V30 1943 O 187.241 -0.0108731 1.82497 0
M  V30 1944 C 187.292 3.41788 1.17741 0
M  V30 1945 O 187.013 4.37788 0.165362 0
M  V30 1946 C 188.514 3.99216 1.92722 0
M  V30 1947 H 185.734 0.655009 0.145616 0
M  V30 1948 H 188.278 2.03494 -0.202625 0
M  V30 1949 H 186.433 3.38713 1.88021 0
M  V30 1950 H 186.847 5.20806 0.621403 0
M  V30 1951 H 188.321 5.00882 2.31995 0
M  V30 1952 H 188.798 3.3824 2.80161 0
M  V30 1953 H 189.404 4.0583 1.27209 0
M  V30 1954 N 187.719 -0.156864 1.56817 0
M  V30 1955 C 188.629 -1.2136 2.00771 0
M  V30 1956 C 189.645 -1.47598 0.921459 0
M  V30 1957 O 190.821 -1.59462 1.2302 0
M  V30 1958 C 187.886 -2.52943 2.37109 0
M  V30 1959 C 186.947 -2.34439 3.59634 0
M  V30 1960 C 186.18 -3.59748 3.94229 0
M  V30 1961 O 186.403 -4.65526 3.29609 0
M  V30 1962 O 185.337 -3.52998 4.8752 0
M  V30 1963 H 189.163 -0.870468 2.90958 0
M  V30 1964 H 186.748 -0.36484 1.44877 0
M  V30 1965 H 188.63 -3.30538 2.61386 0
M  V30 1966 H 187.305 -2.86806 1.5008 0
M  V30 1967 H 186.212 -1.54828 3.40557 0
M  V30 1968 H 187.545 -2.05496 4.4725 0
M  V30 1969 N 189.197 -1.51736 -0.425897 0
M  V30 1970 C 190.613 -1.40166 -0.76326 0
M  V30 1971 C 190.813 -0.492962 -1.95377 0
M  V30 1972 O 189.869 0.0475815 -2.52455 0
M  V30 1973 C 191.182 -2.82403 -1.03291 0
M  V30 1974 C 192.73 -2.91632 -1.13665 0
M  V30 1975 C 193.205 -4.34801 -1.43916 0
M  V30 1976 N 194.696 -4.3796 -1.50816 0
M  V30 1977 C 195.431 -5.4578 -1.75817 0
M  V30 1978 N 194.927 -6.63744 -1.98534 0
M  V30 1979 N 196.72 -5.33274 -1.77694 0
M  V30 1980 H 188.871 -2.09361 0.358 0
M  V30 1981 H 191.134 -0.942941 0.0978094 0
M  V30 1982 H 190.84 -3.50943 -0.230696 0
M  V30 1983 H 190.714 -3.22428 -1.95754 0
M  V30 1984 H 193.101 -2.23284 -1.92947 0
M  V30 1985 H 193.182 -2.55088 -0.190756 0
M  V30 1986 H 192.826 -5.03703 -0.65157 0
M  V30 1987 H 192.756 -4.68868 -2.39729 0
M  V30 1988 H 195.247 -3.52919 -1.35118 0
M  V30 1989 H 195.56 -7.41704 -2.17013 0
M  V30 1990 H 193.905 -6.66839 -1.95832 0
M  V30 1991 H 197.096 -4.40098 -1.59473 0
M  V30 1992 H 197.269 -6.1738 -1.9684 0
M  V30 1993 N 190.675 0.682077 -1.42076 0
M  V30 1994 C 191.638 1.77756 -1.44691 0
M  V30 1995 C 192.638 1.5726 -0.335535 0
M  V30 1996 O 193.828 1.63686 -0.596037 0
M  V30 1997 C 190.96 3.16301 -1.27146 0
M  V30 1998 H 192.153 1.76826 -2.42224 0
M  V30 1999 H 189.706 0.891012 -1.28416 0
M  V30 2000 H 190.441 3.22862 -0.305075 0
M  V30 2001 H 190.226 3.32581 -2.07683 0
M  V30 2002 H 191.716 3.96241 -1.31843 0
M  V30 2003 N 192.153 1.28127 0.917671 0
M  V30 2004 C 193.399 1.15223 1.66888 0
M  V30 2005 C 193.732 -0.299293 1.9188 0
M  V30 2006 O 193.007 -1.21805 1.51637 0
M  V30 2007 C 193.29 1.94706 3.02922 0
M  V30 2008 C 193.143 3.47898 2.85109 0
M  V30 2009 C 194.462 1.75939 4.03402 0
M  V30 2010 H 191.581 0.419946 0.605652 0
M  V30 2011 H 194.223 1.57398 1.06423 0
M  V30 2012 H 192.373 1.58864 3.54534 0
M  V30 2013 H 194.045 3.93624 2.40537 0
M  V30 2014 H 192.288 3.7373 2.20246 0
M  V30 2015 H 192.959 3.98765 3.81694 0
M  V30 2016 H 195.435 2.07209 3.60837 0
M  V30 2017 H 194.311 2.33931 4.96556 0
M  V30 2018 H 194.572 0.709877 4.36364 0
M  V30 2019 N 193.631 -1.12557 1.10312 0
M  V30 2020 C 195.042 -1.65574 0.862678 0
M  V30 2021 C 195.393 -1.86566 -0.607256 0
M  V30 2022 O 194.518 -1.59121 -1.46662 0
M  V30 2023 C 195.113 -3.00776 1.55947 0
M  V30 2024 C 193.672 -3.50748 1.36576 0
M  V30 2025 C 192.819 -2.25797 1.60968 0
M  V30 2026 H 195.77 -0.963552 1.26101 0
M  V30 2027 H 195.791 -3.67185 0.997753 0
M  V30 2028 H 195.303 -2.85465 2.62928 0
M  V30 2029 H 193.404 -3.71245 0.317531 0
M  V30 2030 H 193.517 -4.30289 2.10686 0
M  V30 2031 H 191.881 -2.32841 1.03234 0
M  V30 2032 H 192.664 -2.13043 2.69198 0
M  V30 2033 N 195.109 -0.891671 -1.2995 0
M  V30 2034 C 196.355 -0.514261 -1.96171 0
M  V30 2035 C 196.688 0.935506 -1.70182 0
M  V30 2036 O 195.963 1.66204 -1.01028 0
M  V30 2037 C 196.246 -0.797719 -3.51153 0
M  V30 2038 C 196.099 -2.2986 -3.86632 0
M  V30 2039 C 197.418 -0.278749 -4.39216 0
M  V30 2040 H 194.537 -0.188314 -0.712535 0
M  V30 2041 H 197.179 -1.11689 -1.53706 0
M  V30 2042 H 195.329 -0.284826 -3.87455 0
M  V30 2043 H 197.001 -2.88042 -3.60319 0
M  V30 2044 H 195.244 -2.76257 -3.34462 0
M  V30 2045 H 195.915 -2.44753 -4.94773 0
M  V30 2046 H 198.391 -0.717825 -4.09862 0
M  V30 2047 H 197.267 -0.506353 -5.46559 0
M  V30 2048 H 197.528 0.820266 -4.34424 0
M  V30 2049 N 196.587 1.43421 -0.653314 0
M  V30 2050 C 197.827 2.03689 -0.170346 0
M  V30 2051 C 198.191 1.50427 1.19314 0
M  V30 2052 O 199.392 2.0234 1.76952 0
M  V30 2053 C 197.663 3.56946 -0.180183 0
M  V30 2054 S 199.222 4.38171 0.234925 0
M  V30 2055 H 196.04 0.707345 -0.0719976 0
M  V30 2056 H 198.642 1.75486 -0.86167 0
M  V30 2057 H 197.346 3.93212 -1.17526 0
M  V30 2058 H 196.877 3.89791 0.531675 0
M  V30 2059 H 198.892 4.73808 1.47378 0
M  V30 2060 N 198.065 0.39524 1.52563 0
M  V30 2061 C 199.313 -0.184678 2.01254 0
M  V30 2062 C 199.634 -1.46822 1.28329 0
M  V30 2063 O 198.904 -1.91666 0.405094 0
M  V30 2064 H 197.484 -0.0712355 0.743596 0
M  V30 2065 H 200.146 0.528293 1.87603 0
M  V30 2066 H 199.242 -0.390681 3.09645 0
M  V30 2067 N 199.544 -1.57102 0.125237 0
M  V30 2068 C 200.494 -2.12202 -0.833936 0
M  V30 2069 C 201.478 -1.04433 -1.22403 0
M  V30 2070 O 202.67 -1.30655 -1.19408 0
M  V30 2071 C 199.799 -2.72994 -2.08157 0
M  V30 2072 C 198.885 -3.87852 -1.71556 0
M  V30 2073 N 199.276 -4.9464 -1.05662 0
M  V30 2074 C 197.574 -3.98153 -2.00973 0
M  V30 2075 C 198.275 -5.74953 -0.883376 0
M  V30 2076 N 197.251 -5.24985 -1.41036 0
M  V30 2077 H 201.053 -2.92141 -0.321035 0
M  V30 2078 H 198.567 -1.62217 -0.0770315 0
M  V30 2079 H 200.564 -3.10816 -2.77847 0
M  V30 2080 H 199.224 -1.9452 -2.59985 0
M  V30 2081 H 200.235 -5.12872 -0.719878 0
M  V30 2082 H 196.912 -3.30728 -2.54804 0
M  V30 2083 H 198.302 -6.70904 -0.365675 0
M  V30 2084 N 201.022 0.148545 -1.56898 0
M  V30 2085 C 201.952 1.18524 -2.01182 0
M  V30 2086 C 202.933 1.4489 -0.891123 0
M  V30 2087 O 204.118 1.55836 -1.15882 0
M  V30 2088 C 201.248 2.51879 -2.39112 0
M  V30 2089 C 200.202 2.40038 -3.54353 0
M  V30 2090 C 199.528 3.78089 -3.78091 0
M  V30 2091 C 200.828 1.88577 -4.87069 0
M  V30 2092 H 202.522 0.817029 -2.88036 0
M  V30 2093 H 200.068 0.391575 -1.38574 0
M  V30 2094 H 202.021 3.24627 -2.68692 0
M  V30 2095 H 200.745 2.90532 -1.49193 0
M  V30 2096 H 199.404 1.69742 -3.24936 0
M  V30 2097 H 199.052 4.14175 -2.85426 0
M  V30 2098 H 198.752 3.71028 -4.55645 0
M  V30 2099 H 200.276 4.52387 -4.10095 0
M  V30 2100 H 201.69 2.51117 -5.15377 0
M  V30 2101 H 200.087 1.9241 -5.68417 0
M  V30 2102 H 201.157 0.84136 -4.77545 0
M  V30 2103 N 202.5 1.5196 0.417844 0
M  V30 2104 C 203.748 1.65263 1.16329 0
M  V30 2105 C 204.069 0.380634 1.91249 0
M  V30 2106 O 203.339 -0.604214 1.86349 0
M  V30 2107 H 201.919 0.60912 0.432414 0
M  V30 2108 H 204.581 1.88969 0.477162 0
M  V30 2109 H 203.677 2.4896 1.88217 0
M  V30 2110 N 203.978 -0.674533 1.42435 0
M  V30 2111 C 204.908 -1.80009 1.48724 0
M  V30 2112 C 205.889 -1.6659 0.343793 0
M  V30 2113 O 207.074 -1.86007 0.558137 0
M  V30 2114 C 204.204 -3.18306 1.38919 0
M  V30 2115 C 203.158 -3.46461 2.51294 0
M  V30 2116 C 202.484 -4.84335 2.26547 0
M  V30 2117 C 203.784 -3.43328 3.93603 0
M  V30 2118 H 205.478 -1.75004 2.42928 0
M  V30 2119 H 203.024 -0.840533 1.16923 0
M  V30 2120 H 204.977 -3.9678 1.41927 0
M  V30 2121 H 203.701 -3.2399 0.412094 0
M  V30 2122 H 202.36 -2.70348 2.47604 0
M  V30 2123 H 202.008 -4.86669 1.2713 0
M  V30 2124 H 201.708 -5.04136 3.01861 0
M  V30 2125 H 203.232 -5.65094 2.31304 0
M  V30 2126 H 204.646 -4.11772 3.98894 0
M  V30 2127 H 203.043 -3.74664 4.68771 0
M  V30 2128 H 204.113 -2.41897 4.20255 0
M  V30 2129 N 205.456 -1.28612 -0.910864 0
M  V30 2130 C 206.684 -1.18792 -1.69399 0
M  V30 2131 C 207.099 0.253039 -1.87097 0
M  V30 2132 O 206.456 1.17071 -1.40003 0
M  V30 2133 C 206.507 -1.88511 -3.08457 0
M  V30 2134 O 206.228 -3.26979 -2.91576 0
M  V30 2135 C 207.729 -1.85029 -4.02839 0
M  V30 2136 H 204.949 -0.412233 -0.529438 0
M  V30 2137 H 207.493 -1.69788 -1.13984 0
M  V30 2138 H 205.648 -1.41379 -3.60681 0
M  V30 2139 H 206.062 -3.61936 -3.79608 0
M  V30 2140 H 207.536 -2.38395 -4.97867 0
M  V30 2141 H 208.013 -0.823303 -4.31414 0
M  V30 2142 H 208.619 -2.31853 -3.56545 0
M  V30 2143 N 206.934 1.1197 -1.10907 0
M  V30 2144 C 208.345 1.65114 -0.871446 0
M  V30 2145 C 208.696 1.86885 0.597353 0
M  V30 2146 O 207.821 1.59896 1.45816 0
M  V30 2147 C 208.416 2.99944 -1.5754 0
M  V30 2148 C 206.975 3.50018 -1.38435 0
M  V30 2149 C 206.122 2.24941 -1.62164 0
M  V30 2150 H 209.073 0.956851 -1.2661 0
M  V30 2151 H 209.094 3.66651 -1.01721 0
M  V30 2152 H 208.606 2.84067 -2.64438 0
M  V30 2153 H 206.707 3.71071 -0.337214 0
M  V30 2154 H 206.82 4.29165 -2.12965 0
M  V30 2155 H 205.184 2.3229 -1.04467 0
M  V30 2156 H 205.967 2.11612 -2.70324 0
M  V30 2157 N 208.412 0.89855 1.29475 0
M  V30 2158 C 209.344 0.332726 2.26772 0
M  V30 2159 C 210.357 -0.520323 1.54261 0
M  V30 2160 O 211.546 -0.337668 1.75277 0
M  V30 2161 C 208.646 -0.544334 3.345 0
M  V30 2162 C 207.819 0.282728 4.36485 0
M  V30 2163 C 206.878 -0.526982 5.23555 0
M  V30 2164 O 205.904 0.0551165 5.69173 0
M  V30 2165 N 207.106 -1.83331 5.5079 0
M  V30 2166 H 209.871 1.16897 2.75962 0
M  V30 2167 H 207.432 0.762919 1.42798 0
M  V30 2168 H 209.424 -1.09239 3.89678 0
M  V30 2169 H 207.994 -1.28127 2.85136 0
M  V30 2170 H 207.214 1.01221 3.80983 0
M  V30 2171 H 208.502 0.84918 5.01664 0
M  V30 2172 H 207.9 -2.32898 5.15534 0
M  V30 2173 H 206.457 -2.32852 6.08788 0
M  V30 2174 N 209.89 -1.43072 0.660911 0
M  V30 2175 C 211.115 -2.06584 0.183805 0
M  V30 2176 C 211.54 -1.49257 -1.14472 0
M  V30 2177 O 210.898 -0.605528 -1.70889 0
M  V30 2178 C 210.946 -3.60418 0.114434 0
M  V30 2179 O 210.05 -4.01981 -0.921137 0
M  V30 2180 H 209.391 -0.656669 0.0983994 0
M  V30 2181 H 211.921 -1.83447 0.906006 0
M  V30 2182 H 211.931 -4.07946 -0.0663394 0
M  V30 2183 H 210.606 -4.01519 1.08422 0
M  V30 2184 H 209.183 -3.66029 -0.71253 0
M  V30 2185 N 211.368 -0.403325 -1.52352 0
M  V30 2186 C 212.614 0.174605 -2.02047 0
M  V30 2187 C 212.947 1.45282 -1.28867 0
M  V30 2188 O 212.222 1.90483 -0.393257 0
M  V30 2189 C 212.505 0.428238 -3.57545 0
M  V30 2190 C 212.358 -0.866248 -4.4138 0
M  V30 2191 C 213.677 1.21287 -4.23057 0
M  V30 2192 H 210.796 0.0619851 -0.734389 0
M  V30 2193 H 213.438 -0.53565 -1.82293 0
M  V30 2194 H 211.588 1.03327 -3.74507 0
M  V30 2195 H 213.26 -1.50265 -4.3614 0
M  V30 2196 H 211.503 -1.47851 -4.07827 0
M  V30 2197 H 212.174 -0.643249 -5.48239 0
M  V30 2198 H 214.65 0.700703 -4.10158 0
M  V30 2199 H 213.526 1.35909 -5.31808 0
M  V30 2200 H 213.787 2.23193 -3.81625 0
M  V30 2201 N 212.846 1.57033 -0.133567 0
M  V30 2202 C 213.794 2.17348 0.828412 0
M  V30 2203 C 214.788 1.12671 1.26498 0
M  V30 2204 O 215.994 1.30947 1.23502 0
M  V30 2205 H 212.369 0.695775 0.285309 0
M  V30 2206 H 214.34 2.96935 0.295372 0
M  V30 2207 C 213.089 2.79893 2.06289 0
M  V30 2208 H 212.412 3.60147 1.73592 0
M  V30 2209 H 213.852 3.25615 2.71572 0
M  V30 2210 C 212.311 1.77713 2.86216 0
M  V30 2211 O 212.841 1.23937 3.82103 0
M  V30 2212 N 211.047 1.47321 2.50489 0
M  V30 2213 H 210.594 1.91243 1.7258 0
M  V30 2214 H 210.552 0.79199 3.04261 0
M  V30 2215 N 214.325 -0.140222 1.56975 0
M  V30 2216 C 215.574 -0.850152 1.82908 0
M  V30 2217 C 215.887 -1.82028 0.715892 0
M  V30 2218 O 217.093 -2.57485 0.861016 0
M  V30 2219 C 215.549 -1.5625 3.24213 0
M  V30 2220 C 215.157 -0.63443 4.43485 0
M  V30 2221 C 216.901 -2.25881 3.59413 0
M  V30 2222 C 214.808 -1.34879 5.75814 0
M  V30 2223 H 213.738 -0.321221 0.682153 0
M  V30 2224 H 216.389 -0.102874 1.83211 0
M  V30 2225 H 214.771 -2.35565 3.18316 0
M  V30 2226 H 215.945 0.12398 4.60633 0
M  V30 2227 H 214.26 -0.0461836 4.16374 0
M  V30 2228 H 216.857 -2.79978 4.5554 0
M  V30 2229 H 217.2 -3.02693 2.85802 0
M  V30 2230 H 217.733 -1.53477 3.67001 0
M  V30 2231 H 214.472 -0.622385 6.52539 0
M  V30 2232 H 213.992 -2.07974 5.6259 0
M  V30 2233 H 215.671 -1.88784 6.18845 0
M  V30 2234 N 215.803 -1.52179 -0.40978 0
M  V30 2235 C 217.05 -1.66206 -1.15679 0
M  V30 2236 C 217.378 -0.391674 -1.90516 0
M  V30 2237 O 216.633 0.62533 -1.8544 0
M  V30 2238 C 216.932 -2.83428 -2.17723 0
M  V30 2239 C 216.598 -4.21672 -1.59699 0
M  V30 2240 C 215.26 -4.59274 -1.43599 0
M  V30 2241 C 217.612 -5.07825 -1.17317 0
M  V30 2242 C 214.94 -5.80709 -0.836328 0
M  V30 2243 C 217.292 -6.29864 -0.587691 0
M  V30 2244 C 215.956 -6.66216 -0.413818 0
M  V30 2245 H 215.226 -0.608192 -0.423301 0
M  V30 2246 H 217.873 -1.86279 -0.444097 0
M  V30 2247 H 216.178 -2.57687 -2.95135 0
M  V30 2248 H 217.875 -2.91477 -2.75394 0
M  V30 2249 H 214.465 -3.9204 -1.73213 0
M  V30 2250 H 218.649 -4.79359 -1.28565 0
M  V30 2251 H 213.905 -6.07498 -0.689626 0
M  V30 2252 H 218.079 -6.95948 -0.250894 0
M  V30 2253 H 215.706 -7.60182 0.0529471 0
M  V30 2254 N 217.281 0.66697 -1.42791 0
M  V30 2255 C 218.529 1.42417 -1.43394 0
M  V30 2256 C 218.85 1.94925 -0.0542373 0
M  V30 2257 O 218.12 1.73564 0.908415 0
M  V30 2258 H 216.7 0.528515 -0.527902 0
M  V30 2259 H 219.362 0.787562 -1.78279 0
M  V30 2260 H 218.458 2.27333 -2.13837 0
M  V30 2261 N 218.759 1.29093 0.90403 0
M  V30 2262 C 220.007 1.16583 1.65085 0
M  V30 2263 C 220.328 -0.283933 1.92922 0
M  V30 2264 O 219.598 -1.19509 1.55224 0
M  V30 2265 H 218.178 0.428467 0.611903 0
M  V30 2266 H 220.84 1.61959 1.08422 0
M  V30 2267 H 219.936 1.71266 2.6091 0
M  V30 2268 N 220.237 -1.11381 1.11499 0
M  V30 2269 C 221.467 -1.86663 0.885464 0
M  V30 2270 C 221.875 -1.80464 -0.568281 0
M  V30 2271 O 221.218 -1.18445 -1.40415 0
M  V30 2272 C 221.28 -3.36337 1.26956 0
M  V30 2273 C 220.944 -3.66304 2.73259 0
M  V30 2274 C 221.941 -3.63733 3.71476 0
M  V30 2275 C 219.626 -3.9529 3.09921 0
M  V30 2276 C 221.62 -3.89725 5.04374 0
M  V30 2277 C 219.307 -4.20941 4.43004 0
M  V30 2278 C 220.305 -4.18147 5.40039 0
M  V30 2279 O 219.993 -4.43153 6.70724 0
M  V30 2280 H 219.725 -0.597114 0.316908 0
M  V30 2281 H 222.279 -1.41782 1.48617 0
M  V30 2282 H 220.509 -3.81826 0.611999 0
M  V30 2283 H 222.198 -3.92986 1.01573 0
M  V30 2284 H 222.964 -3.41389 3.44498 0
M  V30 2285 H 218.843 -3.966 2.35009 0
M  V30 2286 H 222.387 -3.8746 5.80104 0
M  V30 2287 H 218.284 -4.42761 4.69716 0
M  V30 2288 H 219.052 -4.60717 6.76522 0
M  V30 2289 N 221.715 -0.905404 -1.28997 0
M  V30 2290 C 222.662 -0.385892 -2.27551 0
M  V30 2291 C 223.632 0.535113 -1.57244 0
M  V30 2292 O 224.817 0.459119 -1.85194 0
M  V30 2293 C 221.957 0.375461 -3.43051 0
M  V30 2294 C 221.07 -0.577092 -4.28128 0
M  V30 2295 C 220.205 0.201879 -5.30816 0
M  V30 2296 C 219.244 -0.744829 -6.07551 0
M  V30 2297 N 218.381 9.42587e-05 -7.021 0
M  V30 2298 H 223.221 -1.23139 -2.71368 0
M  V30 2299 H 220.758 -0.618542 -1.33463 0
M  V30 2300 H 222.716 0.832992 -4.088 0
M  V30 2301 H 221.346 1.18537 -3.00248 0
M  V30 2302 H 220.398 -1.15315 -3.62501 0
M  V30 2303 H 221.71 -1.30152 -4.8152 0
M  V30 2304 H 220.864 0.720351 -6.02408 0
M  V30 2305 H 219.603 0.959413 -4.7817 0
M  V30 2306 H 218.608 -1.27475 -5.34818 0
M  V30 2307 H 219.833 -1.50178 -6.62286 0
M  V30 2308 H 217.779 0.739791 -6.51815 0
M  V30 2309 H 217.696 -0.664321 -7.53076 0
M  V30 2310 H 218.964 0.498644 -7.77903 0
M  V30 2311 N 223.193 1.4272 -0.668489 0
M  V30 2312 C 224.439 2.01923 -0.188419 0
M  V30 2313 C 224.772 1.52704 1.19979 0
M  V30 2314 O 224.047 0.726566 1.8042 0
M  V30 2315 C 224.33 3.59451 -0.216085 0
M  V30 2316 C 224.183 4.18864 -1.6393 0
M  V30 2317 C 225.502 4.37903 0.439179 0
M  V30 2318 H 222.621 0.733674 -0.0699412 0
M  V30 2319 H 225.263 1.69822 -0.852076 0
M  V30 2320 H 223.413 3.86929 0.349012 0
M  V30 2321 H 225.085 4.02362 -2.25616 0
M  V30 2322 H 223.328 3.74933 -2.18193 0
M  V30 2323 H 223.999 5.27987 -1.61039 0
M  V30 2324 H 226.475 4.16079 -0.0417878 0
M  V30 2325 H 225.351 5.47519 0.389157 0
M  V30 2326 H 225.612 4.15303 1.51577 0
M  V30 2327 N 224.671 0.411399 1.52136 0
M  V30 2328 C 225.603 -0.448386 2.24771 0
M  V30 2329 C 226.616 -1.00828 1.27818 0
M  V30 2330 O 227.805 -0.906841 1.53749 0
M  V30 2331 C 224.905 -1.63636 2.96777 0
M  V30 2332 C 224.078 -1.19995 4.20618 0
M  V30 2333 C 223.137 -2.25509 4.75428 0
M  V30 2334 O 222.163 -1.86007 5.3795 0
M  V30 2335 N 223.365 -3.577 4.57199 0
M  V30 2336 H 226.13 0.174025 2.99194 0
M  V30 2337 H 223.691 0.238897 1.60128 0
M  V30 2338 H 225.683 -2.33793 3.30338 0
M  V30 2339 H 224.253 -2.16465 2.25526 0
M  V30 2340 H 223.473 -0.326421 3.92846 0
M  V30 2341 H 224.761 -0.885365 5.01038 0
M  V30 2342 H 224.159 -3.92543 4.07341 0
M  V30 2343 H 222.716 -4.23827 4.95191 0
M  V30 2344 N 226.149 -1.5696 0.141893 0
M  V30 2345 C 227.397 -1.95573 -0.509484 0
M  V30 2346 C 227.718 -1.02746 -1.65736 0
M  V30 2347 O 226.988 -0.0880311 -1.95702 0
M  V30 2348 H 225.568 -0.722115 -0.191205 0
M  V30 2349 H 228.23 -1.93697 0.216196 0
M  V30 2350 H 227.326 -2.99171 -0.889 0
M  V30 2351 N 227.627 0.131896 -1.57047 0
M  V30 2352 C 229.043 0.485031 -1.52051 0
M  V30 2353 C 229.243 1.82563 -0.85281 0
M  V30 2354 O 228.299 2.48817 -0.429694 0
M  V30 2355 C 229.612 0.481409 -2.96821 0
M  V30 2356 C 231.16 0.565868 -3.07842 0
M  V30 2357 C 231.635 0.592762 -4.54148 0
M  V30 2358 N 233.126 0.654564 -4.58552 0
M  V30 2359 C 233.861 0.696608 -5.69153 0
M  V30 2360 N 233.357 0.697078 -6.89284 0
M  V30 2361 N 235.15 0.738639 -5.57226 0
M  V30 2362 H 227.301 -0.746664 -1.98843 0
M  V30 2363 H 229.564 -0.273999 -0.90754 0
M  V30 2364 H 229.27 -0.435731 -3.4899 0
M  V30 2365 H 229.144 1.3139 -3.53577 0
M  V30 2366 H 231.531 1.47343 -2.55684 0
M  V30 2367 H 231.612 -0.29406 -2.54104 0
M  V30 2368 H 231.256 -0.310701 -5.06949 0
M  V30 2369 H 231.186 1.46939 -5.05684 0
M  V30 2370 H 233.677 0.660887 -3.72076 0
M  V30 2371 H 233.99 0.731426 -7.69331 0
M  V30 2372 H 232.335 0.66471 -6.91814 0
M  V30 2373 H 235.526 0.735545 -4.62285 0
M  V30 2374 H 235.699 0.767938 -6.43434 0
M  V30 2375 N 229.106 1.52395 0.401703 0
M  V30 2376 C 230.354 1.66488 1.14569 0
M  V30 2377 C 230.675 0.400897 1.90835 0
M  V30 2378 O 229.945 -0.584415 1.8698 0
M  V30 2379 H 228.525 0.613672 0.425929 0
M  V30 2380 H 231.187 1.89464 0.457093 0
M  V30 2381 H 230.283 2.50942 1.85566 0
M  V30 2382 N 230.584 -0.659388 1.43143 0
M  V30 2383 C 231.861 -1.41627 1.34912 0
M  V30 2384 C 232.241 -2.11099 -0.00607785 0
M  V30 2385 O 231.589 -2.04353 -1.02236 0
M  V30 2386 C 231.799 -2.40604 2.52805 0
M  V30 2387 C 233.147 -3.04789 2.95616 0
M  V30 2388 O 234.171 -2.50932 2.52807 0
M  V30 2389 O 233.03 -4.02421 3.69756 0
M  V30 2390 H 230.124 -0.63246 0.532844 0
M  V30 2391 H 232.67 -0.686814 1.5518 0
M  V30 2392 H 231.442 -1.88174 3.43083 0
M  V30 2393 H 231.065 -3.21009 2.34604 0
M  V30 2394 N 232.062 -1.29571 -0.897171 0
M  V30 2395 C 232.972 -1.16808 -2.03453 0
M  V30 2396 C 233.988 -0.0907471 -1.73763 0
M  V30 2397 O 235.164 -0.303312 -1.99103 0
M  V30 2398 C 232.229 -0.848264 -3.36163 0
M  V30 2399 C 231.29 -2.0097 -3.79354 0
M  V30 2400 C 230.523 -1.70505 -5.05731 0
M  V30 2401 O 230.746 -0.62718 -5.66941 0
M  V30 2402 O 229.68 -2.5538 -5.45036 0
M  V30 2403 H 233.506 -2.12325 -2.17144 0
M  V30 2404 H 231.091 -1.09047 -1.02123 0
M  V30 2405 H 232.973 -0.684581 -4.15802 0
M  V30 2406 H 231.648 0.0771071 -3.23608 0
M  V30 2407 H 230.555 -2.22863 -3.00471 0
M  V30 2408 H 231.888 -2.91636 -3.96496 0
M  V30 2409 N 233.54 1.10788 -1.12088 0
M  V30 2410 C 234.503 2.15207 -0.788577 0
M  V30 2411 C 235.503 1.59609 0.195317 0
M  V30 2412 O 236.693 1.74174 -0.0300193 0
M  V30 2413 C 233.825 3.4047 -0.171174 0
M  V30 2414 H 235.018 2.46116 -1.71368 0
M  V30 2415 H 232.571 1.26089 -0.923652 0
M  V30 2416 H 233.306 3.15176 0.763832 0
M  V30 2417 H 233.091 3.82109 -0.879514 0
M  V30 2418 H 234.581 4.17576 0.04496 0
M  V30 2419 N 235.018 0.912232 1.28515 0
M  V30 2420 C 236.266 0.543523 1.94654 0
M  V30 2421 C 236.587 -0.9155 1.72173 0
M  V30 2422 O 235.857 -1.64708 1.06058 0
M  V30 2423 H 234.437 0.198017 0.720277 0
M  V30 2424 H 237.099 1.16126 1.56527 0
M  V30 2425 H 236.195 0.736684 3.03281 0
M  V30 2426 N 236.496 -1.42363 0.676048 0
M  V30 2427 C 237.773 -1.95183 0.127726 0
M  V30 2428 C 238.153 -1.61641 -1.35777 0
M  V30 2429 O 237.501 -0.913216 -2.09458 0
M  V30 2430 C 237.711 -3.46721 0.398199 0
M  V30 2431 C 239.059 -4.23427 0.315383 0
M  V30 2432 O 240.083 -3.54649 0.332016 0
M  V30 2433 O 238.942 -5.45888 0.25865 0
M  V30 2434 H 236.036 -0.826992 0.00359427 0
M  V30 2435 H 238.582 -1.52184 0.750864 0
M  V30 2436 H 237.354 -3.64344 1.4272 0
M  V30 2437 H 236.977 -3.96769 -0.256885 0
M  V30 2438 N 237.974 -0.419461 -1.51915 0
M  V30 2439 C 238.906 0.43646 -2.25006 0
M  V30 2440 C 239.919 1.00149 -1.28351 0
M  V30 2441 O 241.108 0.898674 -1.54227 0
M  V30 2442 C 238.208 1.6206 -2.9764 0
M  V30 2443 C 237.381 1.17763 -4.21249 0
M  V30 2444 C 236.44 2.22985 -4.76617 0
M  V30 2445 O 235.466 1.83151 -5.38929 0
M  V30 2446 N 236.668 3.55271 -4.59089 0
M  V30 2447 H 239.433 -0.18989 -2.99098 0
M  V30 2448 H 236.994 -0.247386 -1.59999 0
M  V30 2449 H 238.986 2.32038 -3.31573 0
M  V30 2450 H 237.556 2.15266 -2.2667 0
M  V30 2451 H 236.776 0.305582 -3.93014 0
M  V30 2452 H 238.064 0.858781 -5.015 0
M  V30 2453 H 237.462 3.90377 -4.09417 0
M  V30 2454 H 236.019 4.21195 -4.97432 0
M  V30 2455 N 239.452 1.56882 -0.150215 0
M  V30 2456 C 240.382 2.19935 0.784284 0
M  V30 2457 C 241.363 1.14854 1.25469 0
M  V30 2458 O 242.548 1.43209 1.31168 0
M  V30 2459 C 239.678 2.82349 2.02229 0
M  V30 2460 C 238.632 3.93285 1.68853 0
M  V30 2461 C 237.958 4.42649 2.99944 0
M  V30 2462 C 239.258 5.13904 0.932714 0
M  V30 2463 H 240.952 2.9828 0.258781 0
M  V30 2464 H 238.498 1.43473 0.123029 0
M  V30 2465 H 240.451 3.25126 2.68088 0
M  V30 2466 H 239.175 2.0134 2.57157 0
M  V30 2467 H 237.834 3.5113 1.05371 0
M  V30 2468 H 237.482 3.58458 3.52869 0
M  V30 2469 H 237.182 5.17476 2.78374 0
M  V30 2470 H 238.706 4.88099 3.66868 0
M  V30 2471 H 240.12 5.53506 1.49345 0
M  V30 2472 H 238.517 5.94515 0.81684 0
M  V30 2473 H 239.587 4.84842 -0.0749568 0
M  V30 2474 N 240.93 -0.123565 1.57115 0
M  V30 2475 C 241.86 -1.15309 2.03042 0
M  V30 2476 C 242.841 -1.43454 0.914061 0
M  V30 2477 O 244.026 -1.53973 1.18347 0
M  V30 2478 C 241.156 -2.48043 2.43089 0
M  V30 2479 C 240.11 -2.3437 3.58127 0
M  V30 2480 C 239.436 -3.72026 3.84059 0
M  V30 2481 C 240.736 -1.80804 4.90007 0
M  V30 2482 H 242.43 -0.771102 2.893 0
M  V30 2483 H 239.976 -0.369479 1.39179 0
M  V30 2484 H 241.929 -3.20311 2.73823 0
M  V30 2485 H 240.653 -2.88122 1.53796 0
M  V30 2486 H 239.312 -1.64551 3.27595 0
M  V30 2487 H 238.96 -4.09582 2.91979 0
M  V30 2488 H 238.66 -3.63732 4.6149 0
M  V30 2489 H 240.184 -4.45806 4.1724 0
M  V30 2490 H 241.598 -2.42886 5.19307 0
M  V30 2491 H 239.995 -1.83343 5.71407 0
M  V30 2492 H 241.065 -0.76528 4.78823 0
M  V30 2493 N 242.408 -1.52605 -0.393616 0
M  V30 2494 C 243.633 -1.71592 -1.16495 0
M  V30 2495 C 244.058 -0.43133 -1.83088 0
M  V30 2496 O 243.416 0.612523 -1.7064 0
M  V30 2497 C 243.464 -2.86318 -2.19213 0
M  V30 2498 O 242.568 -2.52969 -3.257 0
M  V30 2499 H 241.909 -0.570734 -0.33935 0
M  V30 2500 H 244.439 -1.99377 -0.459324 0
M  V30 2501 H 244.449 -3.1168 -2.63286 0
M  V30 2502 H 243.124 -3.79511 -1.7013 0
M  V30 2503 H 241.701 -2.38332 -2.86797 0
M  V30 2504 N 243.887 0.651787 -1.4349 0
M  V30 2505 C 245.164 1.40909 -1.35661 0
M  V30 2506 C 245.544 2.11099 -0.00511733 0
M  V30 2507 O 244.892 2.04892 1.0115 0
M  V30 2508 C 245.102 2.3926 -2.54078 0
M  V30 2509 C 246.45 3.03217 -2.97228 0
M  V30 2510 O 247.474 2.49588 -2.54135 0
M  V30 2511 O 246.333 4.00455 -3.71885 0
M  V30 2512 H 243.427 0.629625 -0.536191 0
M  V30 2513 H 245.973 0.678575 -1.55542 0
M  V30 2514 H 244.745 1.86352 -3.44076 0
M  V30 2515 H 244.368 3.1976 -2.36303 0
M  V30 2516 N 245.365 1.30045 0.890287 0
M  V30 2517 C 246.328 1.15963 1.977 0
M  V30 2518 C 247.328 0.0923777 1.60534 0
M  V30 2519 O 248.518 0.340071 1.70848 0
M  V30 2520 C 245.65 0.775451 3.31963 0
M  V30 2521 H 246.843 2.12502 2.11619 0
M  V30 2522 H 244.396 1.13366 1.07601 0
M  V30 2523 H 245.131 -0.189671 3.23745 0
M  V30 2524 H 244.916 1.54668 3.60306 0
M  V30 2525 H 246.406 0.700251 4.11687 0
M  V30 2526 N 246.843 -1.10192 1.12674 0
M  V30 2527 C 247.773 -2.18652 0.819362 0
M  V30 2528 C 248.754 -1.68698 -0.217915 0
M  V30 2529 O 249.939 -1.94041 -0.0785581 0
M  V30 2530 C 247.069 -3.46202 0.27594 0
M  V30 2531 C 246.023 -4.09444 1.24656 0
M  V30 2532 C 245.349 -5.31725 0.563258 0
M  V30 2533 C 246.649 -4.52863 2.60217 0
M  V30 2534 H 248.343 -2.44622 1.72628 0
M  V30 2535 H 245.889 -1.17571 0.831451 0
M  V30 2536 H 247.842 -4.21372 0.0486149 0
M  V30 2537 H 246.566 -3.1973 -0.666331 0
M  V30 2538 H 245.225 -3.36284 1.45974 0
M  V30 2539 H 244.873 -5.0153 -0.384235 0
M  V30 2540 H 244.573 -5.74991 1.21075 0
M  V30 2541 H 246.097 -6.09624 0.34503 0
M  V30 2542 H 247.511 -5.19294 2.42913 0
M  V30 2543 H 245.908 -5.06986 3.21068 0
M  V30 2544 H 246.978 -3.65656 3.18471 0
M  V30 2545 N 248.321 -0.919034 -1.28029 0
M  V30 2546 C 249.284 -0.416182 -2.2539 0
M  V30 2547 C 250.284 0.460438 -1.54067 0
M  V30 2548 O 251.474 0.262744 -1.72207 0
M  V30 2549 C 248.606 0.402707 -3.38513 0
M  V30 2550 H 249.799 -1.27629 -2.71387 0
M  V30 2551 H 247.352 -0.698919 -1.39803 0
M  V30 2552 H 248.087 1.282 -2.97885 0
M  V30 2553 H 247.872 -0.225698 -3.9145 0
M  V30 2554 H 249.362 0.745191 -4.10897 0
M  V30 2555 N 249.799 1.42003 -0.683588 0
M  V30 2556 C 250.729 2.33487 -0.024866 0
M  V30 2557 C 251.71 1.51163 0.779975 0
M  V30 2558 O 252.895 1.79739 0.735362 0
M  V30 2559 C 250.025 3.3487 0.920836 0
M  V30 2560 C 248.979 4.27414 0.223958 0
M  V30 2561 C 248.305 5.19074 1.2832 0
M  V30 2562 C 249.605 5.14445 -0.90242 0
M  V30 2563 H 251.299 2.88819 -0.788921 0
M  V30 2564 H 248.845 1.38873 -0.38083 0
M  V30 2565 H 250.798 3.97787 1.39081 0
M  V30 2566 H 249.522 2.77861 1.71642 0
M  V30 2567 H 248.181 3.65904 -0.225864 0
M  V30 2568 H 247.829 4.58387 2.071 0
M  V30 2569 H 247.529 5.81822 0.821995 0
M  V30 2570 H 249.053 5.84867 1.75392 0
M  V30 2571 H 250.467 5.70998 -0.513272 0
M  V30 2572 H 248.864 5.86072 -1.28997 0
M  V30 2573 H 249.934 4.52322 -1.74737 0
M  V30 2574 N 251.277 0.427512 1.51691 0
M  V30 2575 C 252.187 -0.39527 2.31246 0
M  V30 2576 C 253.203 -1.03674 1.39742 0
M  V30 2577 O 254.379 -1.03425 1.72816 0
M  V30 2578 C 251.444 -1.48706 3.13189 0
M  V30 2579 C 250.505 -0.866743 4.20459 0
M  V30 2580 C 249.738 -1.90651 4.98486 0
M  V30 2581 O 249.961 -3.12733 4.77026 0
M  V30 2582 O 248.895 -1.5025 5.82845 0
M  V30 2583 H 252.721 0.253918 3.02637 0
M  V30 2584 H 250.306 0.190274 1.48183 0
M  V30 2585 H 252.188 -2.12047 3.64162 0
M  V30 2586 H 250.863 -2.12051 2.44573 0
M  V30 2587 H 249.77 -0.195544 3.73589 0
M  V30 2588 H 251.103 -0.276934 4.9142 0
M  V30 2589 N 252.755 -1.56801 0.158532 0
M  V30 2590 C 253.718 -2.16138 -0.762705 0
M  V30 2591 C 254.718 -1.1061 -1.16713 0
M  V30 2592 O 255.908 -1.36191 -1.08617 0
M  V30 2593 C 253.04 -2.73386 -2.03649 0
M  V30 2594 H 254.233 -2.98886 -0.246354 0
M  V30 2595 H 251.786 -1.56035 -0.0909744 0
M  V30 2596 H 252.521 -1.94335 -2.59623 0
M  V30 2597 H 252.306 -3.50601 -1.75559 0
M  V30 2598 H 253.796 -3.19065 -2.6942 0
M  V30 2599 N 254.233 0.115231 -1.57178 0
M  V30 2600 C 255.196 1.12526 -1.99676 0
M  V30 2601 C 256.196 1.34095 -0.88742 0
M  V30 2602 O 257.386 1.30548 -1.15337 0
M  V30 2603 C 254.518 2.4789 -2.34015 0
M  V30 2604 H 255.711 0.759912 -2.90113 0
M  V30 2605 H 253.264 0.359648 -1.52106 0
M  V30 2606 H 253.999 2.89339 -1.4647 0
M  V30 2607 H 253.784 2.33588 -3.14927 0
M  V30 2608 H 255.274 3.20575 -2.67622 0
M  V30 2609 N 255.711 1.52812 0.385517 0
M  V30 2610 C 256.959 1.67694 1.12797 0
M  V30 2611 C 257.28 0.421115 1.90399 0
M  V30 2612 O 256.55 -0.564551 1.87589 0
M  V30 2613 H 255.13 0.618155 0.419396 0
M  V30 2614 H 257.792 1.89938 0.436972 0
M  V30 2615 H 256.888 2.52896 1.82894 0
M  V30 2616 N 257.189 -0.644168 1.43834 0
M  V30 2617 C 258.152 -1.73857 1.49353 0
M  V30 2618 C 259.152 -1.56315 0.377112 0
M  V30 2619 O 260.342 -1.62048 0.639226 0
M  V30 2620 C 257.474 -3.12819 1.35488 0
M  V30 2621 H 258.667 -1.70342 2.46827 0
M  V30 2622 H 256.22 -0.856652 1.30733 0
M  V30 2623 H 256.955 -3.2194 0.390569 0
M  V30 2624 H 256.74 -3.26958 2.16428 0
M  V30 2625 H 258.23 -3.92606 1.42302 0
M  V30 2626 N 258.668 -1.30515 -0.883378 0
M  V30 2627 C 259.6 -1.12846 -1.99496 0
M  V30 2628 C 260.613 -0.0712571 -1.62644 0
M  V30 2629 O 261.802 -0.317432 -1.75655 0
M  V30 2630 C 258.902 -0.699123 -3.3161 0
M  V30 2631 C 258.075 -1.83842 -3.96889 0
M  V30 2632 C 257.134 -1.39737 -5.07307 0
M  V30 2633 O 256.16 -2.10485 -5.28852 0
M  V30 2634 N 257.362 -0.277279 -5.79837 0
M  V30 2635 H 260.127 -2.08585 -2.15203 0
M  V30 2636 H 257.688 -1.22672 -1.05656 0
M  V30 2637 H 259.68 -0.387044 -4.02845 0
M  V30 2638 H 258.25 0.166276 -3.12157 0
M  V30 2639 H 257.47 -2.31853 -3.18807 0
M  V30 2640 H 258.758 -2.60187 -4.37241 0
M  V30 2641 H 258.156 0.3122 -5.64838 0
M  V30 2642 H 256.713 -0.0246623 -6.51795 0
M  V30 2643 N 260.146 1.09593 -1.13257 0
M  V30 2644 C 261.076 2.18214 -0.830946 0
M  V30 2645 C 262.057 1.68812 0.208966 0
M  V30 2646 O 263.242 1.9408 0.0682666 0
M  V30 2647 C 260.372 3.46051 -0.294296 0
M  V30 2648 C 259.326 4.08778 -1.26826 0
M  V30 2649 C 258.652 5.31419 -0.591449 0
M  V30 2650 C 259.952 4.51476 -2.62615 0
M  V30 2651 H 261.646 2.43703 -1.73923 0
M  V30 2652 H 259.192 1.17128 -0.837675 0
M  V30 2653 H 261.145 4.2134 -0.0709606 0
M  V30 2654 H 259.869 3.20079 0.649366 0
M  V30 2655 H 258.528 3.35505 -1.47756 0
M  V30 2656 H 258.176 5.01727 0.357633 0
M  V30 2657 H 257.876 5.74341 -1.24123 0
M  V30 2658 H 259.4 6.09433 -0.377355 0
M  V30 2659 H 260.814 5.17999 -2.45663 0
M  V30 2660 H 259.211 5.05277 -3.23752 0
M  V30 2661 H 260.281 3.63962 -3.20406 0
M  V30 2662 N 261.624 0.925811 1.2754 0
M  V30 2663 C 262.554 0.440748 2.29303 0
M  V30 2664 C 263.535 -0.497971 1.62648 0
M  V30 2665 O 264.72 -0.403126 1.8997 0
M  V30 2666 C 261.85 -0.309048 3.45922 0
M  V30 2667 C 260.804 0.54166 4.24559 0
M  V30 2668 C 260.13 -0.337191 5.33636 0
M  V30 2669 C 261.43 1.80516 4.90114 0
M  V30 2670 H 263.124 1.29121 2.70126 0
M  V30 2671 H 260.67 0.622323 1.29858 0
M  V30 2672 H 262.623 -0.659315 4.1621 0
M  V30 2673 H 261.347 -1.19352 3.04011 0
M  V30 2674 H 260.006 0.874609 3.56014 0
M  V30 2675 H 259.654 -1.22056 4.87966 0
M  V30 2676 H 259.354 0.228497 5.87156 0
M  V30 2677 H 260.878 -0.683072 6.06767 0
M  V30 2678 H 262.292 1.52307 5.52698 0
M  V30 2679 H 260.689 2.3142 5.53683 0
M  V30 2680 H 261.759 2.52581 4.13921 0
M  V30 2681 N 263.102 -1.41638 0.69111 0
M  V30 2682 C 264.348 -2.01598 0.220519 0
M  V30 2683 C 264.681 -1.54594 -1.17535 0
M  V30 2684 O 263.956 -0.755177 -1.79241 0
M  V30 2685 C 264.239 -3.59062 0.273243 0
M  V30 2686 C 264.092 -4.16203 1.70573 0
M  V30 2687 C 265.411 -4.38546 -0.369457 0
M  V30 2688 H 262.53 -0.732468 0.0816045 0
M  V30 2689 H 265.172 -1.68445 0.878986 0
M  V30 2690 H 263.322 -3.87435 -0.287411 0
M  V30 2691 H 264.994 -3.98722 2.31989 0
M  V30 2692 H 263.237 -3.71414 2.2413 0
M  V30 2693 H 263.908 -5.25358 1.69419 0
M  V30 2694 H 266.384 -4.1596 0.107977 0
M  V30 2695 H 265.26 -5.48069 -0.302002 0
M  V30 2696 H 265.521 -4.17662 -1.44951 0
M  V30 2697 N 264.58 -0.43555 -1.51462 0
M  V30 2698 C 265.51 0.367376 -2.30592 0
M  V30 2699 C 266.491 1.02263 -1.35928 0
M  V30 2700 O 267.676 1.02661 -1.64847 0
M  V30 2701 C 264.806 1.46983 -3.14664 0
M  V30 2702 C 263.76 0.938161 -4.17591 0
M  V30 2703 C 263.086 2.13622 -4.90173 0
M  V30 2704 C 264.386 -0.0261621 -5.22293 0
M  V30 2705 H 266.08 -0.292969 -2.97963 0
M  V30 2706 H 263.626 -0.14234 -1.43295 0
M  V30 2707 H 265.579 2.03873 -3.688 0
M  V30 2708 H 264.303 2.15843 -2.4511 0
M  V30 2709 H 262.962 0.391481 -3.64504 0
M  V30 2710 H 262.61 2.81098 -4.17124 0
M  V30 2711 H 262.31 1.78688 -5.59772 0
M  V30 2712 H 263.834 2.7107 -5.47132 0
M  V30 2713 H 265.248 0.452384 -5.71512 0
M  V30 2714 H 263.645 -0.287992 -5.99409 0
M  V30 2715 H 264.715 -0.963391 -4.75233 0
M  V30 2716 N 266.058 1.56714 -0.166846 0
M  V30 2717 C 266.968 2.21331 0.777791 0
M  V30 2718 C 267.984 1.20358 1.25658 0
M  V30 2719 O 269.16 1.53005 1.30964 0
M  V30 2720 C 266.225 2.83787 1.99163 0
M  V30 2721 C 265.286 3.99947 1.56016 0
M  V30 2722 C 264.519 4.59415 2.71613 0
M  V30 2723 O 264.742 4.17769 3.88362 0
M  V30 2724 O 263.676 5.49359 2.45945 0
M  V30 2725 H 267.502 3.02605 0.257636 0
M  V30 2726 H 265.087 1.49275 0.0611393 0
M  V30 2727 H 266.969 3.23405 2.70161 0
M  V30 2728 H 265.644 2.05513 2.50092 0
M  V30 2729 H 264.551 3.65007 0.819809 0
M  V30 2730 H 265.884 4.79801 1.09782 0
M  V30 2731 N 267.536 -0.106894 1.57237 0
M  V30 2732 C 268.776 -0.818277 1.87306 0
M  V30 2733 C 269.14 -1.76474 0.756371 0
M  V30 2734 O 270.341 -2.5186 0.939155 0
M  V30 2735 C 268.612 -1.53806 3.22612 0
M  V30 2736 S 270.171 -2.28935 3.74345 0
M  V30 2737 H 266.989 -0.272862 0.656557 0
M  V30 2738 H 269.591 -0.075988 1.95352 0
M  V30 2739 H 268.295 -0.834951 4.01817 0
M  V30 2740 H 267.826 -2.32049 3.17674 0
M  V30 2741 H 269.841 -3.54871 3.46815 0
M  V30 2742 N 269.014 -1.53014 -0.377408 0
M  V30 2743 C 270.26 -1.68872 -1.12294 0
M  V30 2744 C 270.593 -0.433224 -1.89306 0
M  V30 2745 O 269.868 0.569258 -1.85983 0
M  V30 2746 C 270.151 -2.93115 -2.09179 0
M  V30 2747 C 270.004 -4.28794 -1.35853 0
M  V30 2748 C 271.323 -3.12928 -3.09458 0
M  V30 2749 H 268.442 -0.614518 -0.406862 0
M  V30 2750 H 271.084 -1.85633 -0.40503 0
M  V30 2751 H 269.234 -2.78956 -2.70399 0
M  V30 2752 H 270.906 -4.54742 -0.775082 0
M  V30 2753 H 269.149 -4.28744 -0.660364 0
M  V30 2754 H 269.82 -5.11837 -2.06706 0
M  V30 2755 H 272.296 -3.26194 -2.58334 0
M  V30 2756 H 271.172 -4.01316 -3.74482 0
M  V30 2757 H 271.433 -2.27669 -3.78971 0
M  V30 2758 N 270.492 0.636531 -1.44174 0
M  V30 2759 C 271.903 1.21806 -1.41493 0
M  V30 2760 C 272.254 1.95785 -0.1275 0
M  V30 2761 O 271.379 2.02147 0.772376 0
M  V30 2762 C 271.974 2.21551 -2.56321 0
M  V30 2763 C 270.533 2.75143 -2.56853 0
M  V30 2764 C 269.68 1.50052 -2.33195 0
M  V30 2765 H 272.631 0.427531 -1.52833 0
M  V30 2766 H 272.652 3.0405 -2.28765 0
M  V30 2767 H 272.164 1.67679 -3.50008 0
M  V30 2768 H 270.265 3.33033 -1.67093 0
M  V30 2769 H 270.378 3.2155 -3.55165 0
M  V30 2770 H 268.742 1.77993 -1.82183 0
M  V30 2771 H 269.525 0.980903 -3.28988 0
M  V30 2772 N 271.97 1.30982 0.876444 0
M  V30 2773 C 273.216 1.20474 1.63138 0
M  V30 2774 C 273.549 -0.238096 1.92735 0
M  V30 2775 O 272.824 -1.1692 1.55435 0
M  V30 2776 C 273.107 2.04244 2.96574 0
M  V30 2777 C 272.96 3.56793 2.73896 0
M  V30 2778 C 274.279 1.88684 3.97601 0
M  V30 2779 H 271.398 0.439001 0.591985 0
M  V30 2780 H 274.04 1.60704 1.01361 0
M  V30 2781 H 272.19 1.70063 3.493 0
M  V30 2782 H 273.862 4.01077 2.27892 0
M  V30 2783 H 272.105 3.80548 2.08245 0
M  V30 2784 H 272.776 4.10706 3.68815 0
M  V30 2785 H 275.252 2.18584 3.54062 0
M  V30 2786 H 274.128 2.4961 4.88862 0
M  V30 2787 H 274.389 0.848343 4.33884 0
M  V30 2788 N 273.449 -1.08991 1.13837 0
M  V30 2789 C 274.359 -2.19301 0.833333 0
M  V30 2790 C 275.375 -1.73026 -0.183847 0
M  V30 2791 O 276.551 -2.01395 -0.0138092 0
M  V30 2792 C 273.616 -3.45323 0.308651 0
M  V30 2793 C 272.677 -4.06255 1.38764 0
M  V30 2794 C 271.91 -5.26262 0.887896 0
M  V30 2795 O 272.133 -5.69747 -0.27287 0
M  V30 2796 O 271.067 -5.78435 1.66421 0
M  V30 2797 H 274.893 -2.47854 1.75506 0
M  V30 2798 H 272.478 -1.18012 0.916166 0
M  V30 2799 H 274.36 -4.21394 0.0216739 0
M  V30 2800 H 273.035 -3.18362 -0.585431 0
M  V30 2801 H 271.942 -3.318 1.72799 0
M  V30 2802 H 273.275 -4.37452 2.25602 0
M  V30 2803 N 274.927 -0.932562 -1.27047 0
M  V30 2804 C 275.857 -0.452902 -2.29066 0
M  V30 2805 C 276.838 0.489338 -1.62909 0
M  V30 2806 O 278.023 0.393046 -1.90181 0
M  V30 2807 C 275.153 0.290698 -3.46081 0
M  V30 2808 C 274.107 -0.564168 -4.24265 0
M  V30 2809 C 273.433 0.308886 -5.33807 0
M  V30 2810 C 274.733 -1.83112 -4.89149 0
M  V30 2811 H 276.427 -1.30552 -2.69437 0
M  V30 2812 H 273.973 -0.629201 -1.29526 0
M  V30 2813 H 275.926 0.637233 -4.16554 0
M  V30 2814 H 274.65 1.17738 -3.0464 0
M  V30 2815 H 273.309 -0.893477 -3.55545 0
M  V30 2816 H 272.957 1.19467 -4.88607 0
M  V30 2817 H 272.657 -0.259633 -5.87026 0
M  V30 2818 H 274.181 0.650884 -6.07121 0
M  V30 2819 H 275.595 -1.55236 -5.51883 0
M  V30 2820 H 273.992 -2.34353 -5.52448 0
M  V30 2821 H 275.062 -2.54772 -4.12576 0
M  V30 2822 N 276.405 1.4127 -0.698611 0
M  V30 2823 C 277.368 2.29158 -0.044132 0
M  V30 2824 C 278.368 1.44529 0.704841 0
M  V30 2825 O 279.558 1.65643 0.539276 0
M  V30 2826 C 276.69 3.27459 0.947809 0
M  V30 2827 H 277.883 2.88529 -0.817994 0
M  V30 2828 H 275.436 1.49307 -0.46228 0
M  V30 2829 H 276.171 2.73073 1.74933 0
M  V30 2830 H 275.956 3.8991 0.41385 0
M  V30 2831 H 277.446 3.93311 1.40344 0
M  V30 2832 N 277.883 0.443576 1.51229 0
M  V30 2833 C 278.83 -0.364716 2.279 0
M  V30 2834 C 279.8 -1.0114 1.31757 0
M  V30 2835 O 280.985 -1.02912 1.60667 0
M  V30 2836 C 278.125 -1.45644 3.12861 0
M  V30 2837 C 277.238 -0.827269 4.24005 0
M  V30 2838 C 276.373 -1.89456 4.96266 0
M  V30 2839 C 275.412 -1.24416 5.99322 0
M  V30 2840 N 274.549 -2.25309 6.64966 0
M  V30 2841 H 279.389 0.295464 2.96532 0
M  V30 2842 H 276.926 0.157554 1.46254 0
M  V30 2843 H 278.884 -2.10076 3.6045 0
M  V30 2844 H 277.514 -2.08616 2.46331 0
M  V30 2845 H 276.566 -0.0710839 3.80334 0
M  V30 2846 H 277.878 -0.312481 4.9782 0
M  V30 2847 H 277.032 -2.61535 5.47434 0
M  V30 2848 H 275.771 -2.4431 4.22095 0
M  V30 2849 H 274.776 -0.508868 5.4744 0
M  V30 2850 H 276.001 -0.702882 6.75453 0
M  V30 2851 H 273.947 -2.79231 5.93604 0
M  V30 2852 H 273.864 -1.78739 7.34567 0
M  V30 2853 H 275.132 -2.96853 7.20763 0
M  V30 2854 N 279.361 -1.56624 0.175154 0
M  V30 2855 C 280.777 -1.58571 -0.180966 0
M  V30 2856 C 280.977 -1.19065 -1.6256 0
M  V30 2857 O 280.033 -0.904044 -2.35761 0
M  V30 2858 C 281.346 -3.00522 0.103326 0
M  V30 2859 C 282.894 -3.12972 0.0418426 0
M  V30 2860 C 283.369 -4.57022 0.299175 0
M  V30 2861 N 284.86 -4.62541 0.247086 0
M  V30 2862 C 285.595 -5.71857 0.420318 0
M  V30 2863 N 285.091 -6.89717 0.652816 0
M  V30 2864 N 286.884 -5.60972 0.355957 0
M  V30 2865 H 279.035 -1.80589 1.11809 0
M  V30 2866 H 281.298 -0.837178 0.444788 0
M  V30 2867 H 281.004 -3.33916 1.10422 0
M  V30 2868 H 280.878 -3.72344 -0.603299 0
M  V30 2869 H 283.265 -2.79403 -0.949636 0
M  V30 2870 H 283.346 -2.43578 0.781238 0
M  V30 2871 H 282.99 -4.913 1.28788 0
M  V30 2872 H 282.92 -5.24579 -0.460876 0
M  V30 2873 H 285.411 -3.77829 0.0731895 0
M  V30 2874 H 285.724 -7.68911 0.774347 0
M  V30 2875 H 284.069 -6.91572 0.689476 0
M  V30 2876 H 287.26 -4.67773 0.174882 0
M  V30 2877 H 287.433 -6.46111 0.494388 0
M  V30 2878 N 280.839 0.0985539 -1.57292 0
M  V30 2879 C 282.088 0.801358 -1.85098 0
M  V30 2880 C 282.401 1.80066 -0.763902 0
M  V30 2881 O 283.607 2.55112 -0.928981 0
M  V30 2882 C 282.063 1.47599 -3.28242 0
M  V30 2883 C 281.671 0.516624 -4.45011 0
M  V30 2884 C 283.415 2.16272 -3.65276 0
M  V30 2885 C 281.322 1.19564 -5.79188 0
M  V30 2886 H 280.252 0.303022 -0.69043 0
M  V30 2887 H 282.903 0.0542623 -1.8342 0
M  V30 2888 H 281.285 2.27042 -3.2445 0
M  V30 2889 H 282.459 -0.246065 -4.60143 0
M  V30 2890 H 280.774 -0.064227 -4.1635 0
M  V30 2891 H 283.371 2.67802 -4.62803 0
M  V30 2892 H 283.714 2.95009 -2.93727 0
M  V30 2893 H 284.247 1.43693 -3.70941 0
M  V30 2894 H 280.986 0.449157 -6.53959 0
M  V30 2895 H 280.506 1.92984 -5.67906 0
M  V30 2896 H 282.185 1.7231 -6.23633 0
M  V30 2897 N 282.317 1.53212 0.369288 0
M  V30 2898 C 283.545 1.73119 1.13303 0
M  V30 2899 C 283.96 0.458455 1.83149 0
M  V30 2900 O 283.317 -0.568403 1.73423 0
M  V30 2901 C 283.368 2.89413 2.16616 0
M  V30 2902 O 283.089 4.11761 1.49614 0
M  V30 2903 C 284.59 3.21161 3.05566 0
M  V30 2904 H 281.81 0.579107 0.338934 0
M  V30 2905 H 284.354 1.99942 0.429338 0
M  V30 2906 H 282.509 2.64994 2.82589 0
M  V30 2907 H 282.923 4.76858 2.18419 0
M  V30 2908 H 284.397 4.05949 3.74045 0
M  V30 2909 H 284.874 2.36369 3.70171 0
M  V30 2910 H 285.48 3.47492 2.45213 0
M  V30 2911 N 283.795 -0.628877 1.44509 0
M  V30 2912 C 284.705 -1.7694 1.54044 0
M  V30 2913 C 285.721 -1.68705 0.425987 0
M  V30 2914 O 286.897 -1.89442 0.683656 0
M  V30 2915 C 283.962 -3.13332 1.48405 0
M  V30 2916 C 283.023 -3.33181 2.70719 0
M  V30 2917 C 282.256 -4.63067 2.6534 0
M  V30 2918 O 282.479 -5.44017 1.71469 0
M  V30 2919 O 281.413 -4.85167 3.56226 0
M  V30 2920 H 285.239 -1.71848 2.50403 0
M  V30 2921 H 282.824 -0.790378 1.26781 0
M  V30 2922 H 284.706 -3.94634 1.47791 0
M  V30 2923 H 283.381 -3.1896 0.551898 0
M  V30 2924 H 282.288 -2.51549 2.769 0
M  V30 2925 H 283.621 -3.32416 3.62988 0
M  V30 2926 N 285.273 -1.31445 -0.869486 0
M  V30 2927 C 286.236 -1.19094 -1.9583 0
M  V30 2928 C 287.236 -0.117906 -1.60367 0
M  V30 2929 O 288.426 -0.367208 -1.70286 0
M  V30 2930 C 285.558 -0.828165 -3.30688 0
M  V30 2931 H 286.751 -2.15842 -2.08212 0
M  V30 2932 H 284.304 -1.15063 -1.05784 0
M  V30 2933 H 285.039 0.138142 -3.24006 0
M  V30 2934 H 284.824 -1.6038 -3.578 0
M  V30 2935 H 286.314 -0.765658 -4.10521 0
M  V30 2936 N 286.751 1.08385 -1.14413 0
M  V30 2937 C 287.681 2.17321 -0.854044 0
M  V30 2938 C 288.662 1.69024 0.191049 0
M  V30 2939 O 289.847 1.94141 0.0476779 0
M  V30 2940 C 286.977 3.45719 -0.330983 0
M  V30 2941 C 285.931 4.07409 -1.31155 0
M  V30 2942 C 285.257 5.30762 -0.64778 0
M  V30 2943 C 286.557 4.48665 -2.67388 0
M  V30 2944 H 288.251 2.41845 -1.76498 0
M  V30 2945 H 285.797 1.16233 -0.850051 0
M  V30 2946 H 287.75 4.21241 -0.115645 0
M  V30 2947 H 286.474 3.2075 0.615381 0
M  V30 2948 H 285.133 3.33919 -1.51306 0
M  V30 2949 H 284.781 5.02078 0.304398 0
M  V30 2950 H 284.481 5.72992 -1.30207 0
M  V30 2951 H 286.005 6.08998 -0.441972 0
M  V30 2952 H 287.419 5.15364 -2.51143 0
M  V30 2953 H 285.816 5.01814 -3.29093 0
M  V30 2954 H 286.886 3.60543 -3.24248 0
M  V30 2955 N 288.23 0.939286 1.26551 0
M  V30 2956 C 289.193 0.451987 2.24699 0
M  V30 2957 C 290.193 -0.435869 1.5478 0
M  V30 2958 O 291.383 -0.235314 1.72603 0
M  V30 2959 C 288.515 -0.348801 3.39111 0
M  V30 2960 H 289.708 1.3193 2.69322 0
M  V30 2961 H 287.261 0.721072 1.38673 0
M  V30 2962 H 287.996 -1.23444 2.99887 0
M  V30 2963 H 287.781 0.287945 3.91041 0
M  V30 2964 H 289.271 -0.679726 4.12031 0
M  V30 2965 N 289.708 -1.40897 0.706093 0
M  V30 2966 C 290.957 -2.00284 0.238574 0
M  V30 2967 C 291.27 -1.56604 -1.17194 0
M  V30 2968 O 292.476 -2.08624 -1.73748 0
M  V30 2969 C 290.932 -3.57934 0.375623 0
M  V30 2970 C 290.54 -4.10591 1.79217 0
M  V30 2971 C 292.284 -4.24488 -0.0315857 0
M  V30 2972 C 290.191 -5.60712 1.88032 0
M  V30 2973 H 289.121 -0.749144 0.0854398 0
M  V30 2974 H 291.772 -1.61251 0.875813 0
M  V30 2975 H 290.154 -3.94622 -0.330042 0
M  V30 2976 H 291.328 -3.85301 2.52745 0
M  V30 2977 H 289.643 -3.56601 2.15 0
M  V30 2978 H 292.24 -5.34698 0.0136842 0
M  V30 2979 H 292.583 -4.02261 -1.072 0
M  V30 2980 H 293.116 -3.92873 0.624181 0
M  V30 2981 H 289.855 -5.87781 2.90161 0
M  V30 2982 H 289.375 -5.87896 1.18903 0
M  V30 2983 H 291.054 -6.25658 1.64805 0
M  V30 2984 N 291.186 -0.45159 -1.50991 0
M  V30 2985 C 292.597 0.00818571 -1.86698 0
M  V30 2986 C 292.948 1.40661 -1.3678 0
M  V30 2987 O 292.073 2.0391 -0.724546 0
M  V30 2988 C 292.668 0.0216303 -3.38793 0
M  V30 2989 C 291.227 0.425865 -3.73983 0
M  V30 2990 C 290.374 -0.372163 -2.74791 0
M  V30 2991 H 293.325 -0.666785 -1.44013 0
M  V30 2992 H 293.346 0.828078 -3.7138 0
M  V30 2993 H 292.858 -0.996288 -3.75094 0
M  V30 2994 H 290.959 1.44886 -3.43277 0
M  V30 2995 H 291.072 0.140761 -4.78893 0
M  V30 2996 H 289.436 0.171498 -2.54122 0
M  V30 2997 H 290.219 -1.38922 -3.13935 0
M  V30 2998 N 292.664 1.56529 -0.183458 0
M  V30 2999 C 293.91 1.97537 0.459036 0
M  V30 3000 C 294.243 1.06989 1.62071 0
M  V30 3001 O 293.518 0.11948 1.94133 0
M  V30 3002 C 293.801 3.47874 0.930368 0
M  V30 3003 C 293.654 4.492 -0.232317 0
M  V30 3004 C 294.973 4.01612 1.79989 0
M  V30 3005 H 292.092 0.718204 0.165383 0
M  V30 3006 H 294.734 1.88042 -0.272038 0
M  V30 3007 H 292.884 3.56095 1.55333 0
M  V30 3008 H 294.556 4.53027 -0.86972 0
M  V30 3009 H 292.799 4.24657 -0.885928 0
M  V30 3010 H 293.47 5.51823 0.139796 0
M  V30 3011 H 295.946 3.96097 1.27461 0
M  V30 3012 H 294.822 5.07195 2.09867 0
M  V30 3013 H 295.083 3.46163 2.74998 0
M  V30 3014 N 294.142 -0.090211 1.57342 0
M  V30 3015 C 295.391 -0.791531 1.8552 0
M  V30 3016 C 295.704 -1.79659 0.773441 0
M  V30 3017 O 296.91 -2.54616 0.942497 0
M  V30 3018 C 295.366 -1.45856 3.2902 0
M  V30 3019 C 294.974 -0.493017 4.45279 0
M  V30 3020 C 296.718 -2.14332 3.66418 0
M  V30 3021 C 294.625 -1.16491 5.79814 0
M  V30 3022 H 293.555 -0.299356 0.692027 0
M  V30 3023 H 296.206 -0.0445343 1.83446 0
M  V30 3024 H 294.588 -2.25318 3.2565 0
M  V30 3025 H 295.762 0.270464 4.60006 0
M  V30 3026 H 294.077 0.0863061 4.16311 0
M  V30 3027 H 296.674 -2.65344 4.64216 0
M  V30 3028 H 297.017 -2.93447 2.95287 0
M  V30 3029 H 297.55 -1.41724 3.71698 0
M  V30 3030 H 294.289 -0.41447 6.54188 0
M  V30 3031 H 293.809 -1.8997 5.68921 0
M  V30 3032 H 295.488 -1.69001 6.24538 0
M  V30 3033 N 295.62 -1.53406 -0.361157 0
M  V30 3034 C 296.868 -1.69467 -1.10115 0
M  V30 3035 C 297.189 -0.451352 -1.89705 0
M  V30 3036 O 296.459 0.534636 -1.88463 0
M  V30 3037 H 295.039 -0.624749 -0.409508 0
M  V30 3038 H 297.701 -1.90609 -0.406699 0
M  V30 3039 H 296.797 -2.55774 -1.78847 0
M  V30 3040 N 297.098 0.621204 -1.44841 0
M  V30 3041 C 298.347 1.37658 -1.47422 0
M  V30 3042 C 298.66 1.95264 -0.114629 0
M  V30 3043 O 299.866 2.71494 -0.0180199 0
M  V30 3044 C 298.322 2.49285 -2.59586 0
M  V30 3045 C 297.93 1.98149 -4.01797 0
M  V30 3046 C 299.674 3.26409 -2.71399 0
M  V30 3047 C 297.581 3.07178 -5.05367 0
M  V30 3048 H 296.511 0.517344 -0.548517 0
M  V30 3049 H 299.162 0.667257 -1.70938 0
M  V30 3050 H 297.544 3.22839 -2.29328 0
M  V30 3051 H 298.718 1.31395 -4.41669 0
M  V30 3052 H 297.033 1.33812 -3.94314 0
M  V30 3053 H 299.63 4.07706 -3.45948 0
M  V30 3054 H 299.973 3.76535 -1.77559 0
M  V30 3055 H 300.506 2.5995 -3.01116 0
M  V30 3056 H 297.245 2.61985 -6.00869 0
M  V30 3057 H 296.765 3.72542 -4.70077 0
M  V30 3058 H 298.444 3.71789 -5.29511 0
M  V30 3059 N 298.576 1.31904 0.862503 0
M  V30 3060 C 299.824 1.21776 1.61292 0
M  V30 3061 C 300.145 -0.222413 1.93727 0
M  V30 3062 O 299.415 -1.1451 1.58947 0
M  V30 3063 H 297.995 0.447717 0.597962 0
M  V30 3064 H 300.657 1.65326 1.03215 0
M  V30 3065 H 299.753 1.7948 2.5533 0
M  V30 3066 N 300.054 -1.07777 1.14986 0
M  V30 3067 C 301.017 -2.13041 0.845358 0
M  V30 3068 C 302.017 -1.60071 -0.152931 0
M  V30 3069 O 303.207 -1.74033 0.0761879 0
M  V30 3070 C 300.339 -3.39896 0.261383 0
M  V30 3071 H 301.532 -2.41485 1.77834 0
M  V30 3072 H 299.085 -1.23595 0.956757 0
M  V30 3073 H 299.82 -3.17091 -0.68 0
M  V30 3074 H 299.605 -3.79642 0.980514 0
M  V30 3075 H 301.095 -4.17548 0.0657687 0
M  V30 3076 N 301.532 -0.945985 -1.26051 0
M  V30 3077 C 302.78 -0.594941 -1.93145 0
M  V30 3078 C 303.101 0.86953 -1.7454 0
M  V30 3079 O 302.371 1.61838 -1.10387 0
M  V30 3080 H 300.951 -0.217044 -0.714773 0
M  V30 3081 H 303.613 -1.20235 -1.53393 0
M  V30 3082 H 302.709 -0.816835 -3.01221 0
M  V30 3083 N 303.011 1.40521 -0.713556 0
M  V30 3084 C 303.959 2.32549 -0.0485227 0
M  V30 3085 C 304.953 1.51931 0.74922 0
M  V30 3086 O 306.159 1.67745 0.652816 0
M  V30 3087 H 302.534 0.751994 0.00311138 0
M  V30 3088 H 304.505 2.86291 -0.841443 0
M  V30 3089 C 303.254 3.36879 0.860687 0
M  V30 3090 H 302.577 3.98978 0.256246 0
M  V30 3091 H 304.017 4.03772 1.294 0
M  V30 3092 C 302.476 2.72197 1.9852 0
M  V30 3093 O 303.006 2.5837 3.07584 0
M  V30 3094 N 301.212 2.30612 1.76823 0
M  V30 3095 H 300.759 2.42059 0.881217 0
M  V30 3096 H 300.717 1.87672 2.52243 0
M  V30 3097 N 304.489 0.459591 1.5075 0
M  V30 3098 C 305.735 -0.0994966 2.02556 0
M  V30 3099 C 306.068 -1.40399 1.3417 0
M  V30 3100 O 305.343 -1.88892 0.463683 0
M  V30 3101 C 305.626 -0.295242 3.58888 0
M  V30 3102 C 305.479 1.02947 4.37861 0
M  V30 3103 C 306.798 -1.05502 4.27267 0
M  V30 3104 H 303.917 -0.034686 0.736183 0
M  V30 3105 H 306.559 0.602938 1.8018 0
M  V30 3106 H 304.709 -0.893563 3.78084 0
M  V30 3107 H 306.381 1.66348 4.30263 0
M  V30 3108 H 304.624 1.62885 4.02058 0
M  V30 3109 H 305.295 0.846281 5.45474 0
M  V30 3110 H 307.771 -0.547993 4.12476 0
M  V30 3111 H 306.647 -1.16077 5.36486 0
M  V30 3112 H 306.908 -2.08875 3.89645 0
M  V30 3113 N 305.967 -1.56429 0.191757 0
M  V30 3114 C 307.195 -2.01867 -0.453586 0
M  V30 3115 C 307.61 -1.07191 -1.5542 0
M  V30 3116 O 306.967 -0.0762108 -1.82341 0
M  V30 3117 C 307.018 -3.47017 -1.013 0
M  V30 3118 O 306.739 -4.38078 0.0437005 0
M  V30 3119 C 308.24 -4.07956 -1.73456 0
M  V30 3120 H 305.46 -0.661211 -0.114199 0
M  V30 3121 H 308.004 -2.02295 0.299483 0
M  V30 3122 H 306.159 -3.47298 -1.71647 0
M  V30 3123 H 306.573 -5.23178 -0.372212 0
M  V30 3124 H 308.047 -5.1138 -2.07833 0
M  V30 3125 H 308.524 -3.51222 -2.63704 0
M  V30 3126 H 309.13 -4.11437 -1.07702 0
M  V30 3127 N 307.445 0.0818655 -1.57387 0
M  V30 3128 C 308.722 0.815343 -1.77796 0
M  V30 3129 C 309.102 1.96289 -0.77679 0
M  V30 3130 O 308.45 2.27691 0.192106 0
M  V30 3131 C 308.66 1.29765 -3.23978 0
M  V30 3132 C 310.008 1.7351 -3.8753 0
M  V30 3133 O 311.032 1.39356 -3.27808 0
M  V30 3134 O 309.891 2.36708 -4.92576 0
M  V30 3135 H 306.985 0.389914 -0.729312 0
M  V30 3136 H 309.531 0.0627213 -1.69584 0
M  V30 3137 H 308.303 0.47608 -3.88393 0
M  V30 3138 H 307.926 2.11189 -3.36875 0
M  V30 3139 N 308.923 1.53595 0.353017 0
M  V30 3140 C 310.171 1.70049 1.09215 0
M  V30 3141 C 310.492 0.461406 1.89463 0
M  V30 3142 O 309.762 -0.524633 1.88744 0
M  V30 3143 H 308.342 0.626912 0.40619 0
M  V30 3144 H 311.004 1.90822 0.396585 0
M  V30 3145 H 310.1 2.56718 1.77488 0
M  V30 3146 N 310.401 -0.613514 1.45168 0
M  V30 3147 C 311.333 -1.73825 1.4939 0
M  V30 3148 C 312.346 -1.58175 0.385304 0
M  V30 3149 O 313.535 -1.66165 0.652036 0
M  V30 3150 C 310.635 -3.11758 1.32891 0
M  V30 3151 C 309.808 -3.53704 2.57317 0
M  V30 3152 C 308.867 -4.70579 2.35462 0
M  V30 3153 O 307.893 -4.77996 3.09044 0
M  V30 3154 N 309.095 -5.63454 1.39644 0
M  V30 3155 H 311.86 -1.70669 2.46358 0
M  V30 3156 H 309.421 -0.79862 1.40832 0
M  V30 3157 H 311.413 -3.87692 1.1609 0
M  V30 3158 H 309.983 -3.09456 0.442218 0
M  V30 3159 H 309.203 -2.67794 2.89275 0
M  V30 3160 H 310.491 -3.78486 3.40038 0
M  V30 3161 H 309.889 -5.6017 0.789062 0
M  V30 3162 H 308.446 -6.38944 1.28816 0
M  V30 3163 N 311.879 -1.3236 -0.855495 0
M  V30 3164 C 313.128 -1.22226 -1.60448 0
M  V30 3165 C 313.441 0.214733 -1.94418 0
M  V30 3166 O 314.647 0.437917 -2.67945 0
M  V30 3167 C 313.103 -2.14063 -2.89318 0
M  V30 3168 C 312.711 -3.62839 -2.62777 0
M  V30 3169 C 314.455 -2.12764 -3.67331 0
M  V30 3170 C 312.362 -4.4664 -3.87643 0
M  V30 3171 H 311.292 -0.453904 -0.602069 0
M  V30 3172 H 313.943 -1.57314 -0.944698 0
M  V30 3173 H 312.325 -1.71889 -3.5675 0
M  V30 3174 H 313.499 -4.1335 -2.03662 0
M  V30 3175 H 311.814 -3.66261 -1.98096 0
M  V30 3176 H 314.411 -2.72611 -4.59987 0
M  V30 3177 H 314.754 -1.11841 -4.00995 0
M  V30 3178 H 315.287 -2.53214 -3.06802 0
M  V30 3179 H 312.026 -5.48373 -3.5912 0
M  V30 3180 H 311.546 -4.0088 -4.46156 0
M  V30 3181 H 313.225 -4.59597 -4.55389 0
M  V30 3182 N 313.357 1.07166 -1.15556 0
M  V30 3183 C 314.287 2.16403 -0.877046 0
M  V30 3184 C 315.268 1.69217 0.173111 0
M  V30 3185 O 316.453 1.94181 0.027084 0
M  V30 3186 C 313.583 3.45349 -0.367632 0
M  V30 3187 C 312.537 4.05995 -1.35468 0
M  V30 3188 C 311.863 5.30045 -0.704038 0
M  V30 3189 C 313.163 4.45804 -2.72132 0
M  V30 3190 H 314.857 2.39959 -1.79053 0
M  V30 3191 H 312.403 1.15325 -0.862331 0
M  V30 3192 H 314.356 4.21095 -0.160317 0
M  V30 3193 H 313.08 3.21385 0.581326 0
M  V30 3194 H 311.739 3.32296 -1.54839 0
M  V30 3195 H 311.387 5.02373 0.251128 0
M  V30 3196 H 311.087 5.71579 -1.36277 0
M  V30 3197 H 312.611 6.08495 -0.50654 0
M  V30 3198 H 314.025 5.12671 -2.56595 0
M  V30 3199 H 312.422 4.98296 -3.34397 0
M  V30 3200 H 313.492 3.57083 -3.28054 0
M  V30 3201 N 314.835 0.952656 1.25548 0
M  V30 3202 C 316.081 0.607272 1.93494 0
M  V30 3203 C 316.414 -0.853245 1.74452 0
M  V30 3204 O 315.689 -1.61194 1.08843 0
M  V30 3205 C 315.972 0.96435 3.46947 0
M  V30 3206 C 315.825 2.48045 3.75225 0
M  V30 3207 C 317.144 0.487987 4.37386 0
M  V30 3208 H 314.263 0.222096 0.702739 0
M  V30 3209 H 316.905 1.18895 1.48203 0
M  V30 3210 H 315.055 0.469361 3.85654 0
M  V30 3211 H 316.727 3.04905 3.46166 0
M  V30 3212 H 314.97 2.919 3.209 0
M  V30 3213 H 315.641 2.6808 4.82532 0
M  V30 3214 H 318.117 0.912558 4.0597 0
M  V30 3215 H 316.993 0.766547 5.43521 0
M  V30 3216 H 317.254 -0.612063 4.37843 0
M  V30 3217 N 316.313 -1.40141 0.720998 0
M  V30 3218 C 317.246 -2.2819 0.020916 0
M  V30 3219 C 318.224 -1.43633 -0.762129 0
M  V30 3220 O 319.408 -1.7304 -0.747633 0
M  V30 3221 C 316.535 -3.24281 -0.977715 0
M  V30 3222 C 315.581 -4.25548 -0.284836 0
M  V30 3223 S 316.414 -5.26247 0.991169 0
M  V30 3224 C 317.57 -6.259 -0.0052214 0
M  V30 3225 H 317.803 -2.87218 0.767649 0
M  V30 3226 H 315.336 -1.45656 0.512233 0
M  V30 3227 H 317.294 -3.80167 -1.54865 0
M  V30 3228 H 315.955 -2.643 -1.69719 0
M  V30 3229 H 315.148 -4.93154 -1.03996 0
M  V30 3230 H 314.75 -3.73389 0.213684 0
M  V30 3231 H 317.042 -6.72143 -0.850279 0
M  V30 3232 H 317.985 -7.05224 0.637599 0
M  V30 3233 H 318.393 -5.63277 -0.371366 0
M  V30 3234 N 317.792 -0.46758 -1.50504 0
M  V30 3235 C 318.742 0.34698 -2.25344 0
M  V30 3236 C 319.726 0.964469 -1.2879 0
M  V30 3237 O 320.918 0.8776 -1.53711 0
M  V30 3238 C 318.047 1.43042 -3.1208 0
M  V30 3239 C 317.133 0.82084 -4.16081 0
M  V30 3240 N 317.524 -0.0567602 -5.05768 0
M  V30 3241 C 315.822 1.08517 -4.32597 0
M  V30 3242 C 316.523 -0.402343 -5.80307 0
M  V30 3243 N 315.499 0.221607 -5.43148 0
M  V30 3244 H 319.301 -0.329129 -2.92051 0
M  V30 3245 H 316.815 -0.281508 -1.59942 0
M  V30 3246 H 318.812 2.02712 -3.64299 0
M  V30 3247 H 317.472 2.10856 -2.46921 0
M  V30 3248 H 318.483 -0.425349 -5.1615 0
M  V30 3249 H 315.16 1.75855 -3.78657 0
M  V30 3250 H 316.55 -1.11834 -6.62528 0
M  V30 3251 N 319.27 1.56325 -0.20005 0
M  V30 3252 C 320.547 1.89484 0.48529 0
M  V30 3253 C 320.927 1.1143 1.79294 0
M  V30 3254 O 320.275 0.216919 2.27468 0
M  V30 3255 C 320.485 3.41923 0.699243 0
M  V30 3256 C 321.833 4.12256 1.01638 0
M  V30 3257 O 322.857 3.47402 0.786792 0
M  V30 3258 O 321.716 5.26887 1.45095 0
M  V30 3259 H 318.81 0.787144 0.253639 0
M  V30 3260 H 321.356 1.67985 -0.240633 0
M  V30 3261 H 320.128 3.90658 -0.224008 0
M  V30 3262 H 319.751 3.69131 1.47744 0
M  V30 3263 N 320.748 -0.0735177 1.57428 0
M  V30 3264 C 321.711 -1.07192 2.02589 0
M  V30 3265 C 322.711 -1.31695 0.922661 0
M  V30 3266 O 323.901 -1.27445 1.18758 0
M  V30 3267 C 321.033 -2.41599 2.40506 0
M  V30 3268 H 322.226 -0.682727 2.92025 0
M  V30 3269 H 319.779 -0.319193 1.53006 0
M  V30 3270 H 320.514 -2.85354 1.5409 0
M  V30 3271 H 320.299 -2.25156 3.21009 0
M  V30 3272 H 321.789 -3.13367 2.76027 0
M  V30 3273 N 322.226 -1.5378 -0.344866 0
M  V30 3274 C 323.473 -1.70963 -1.08526 0
M  V30 3275 C 323.801 -0.472126 -1.88683 0
M  V30 3276 O 323.056 0.546116 -1.87926 0
M  V30 3277 C 323.355 -2.92407 -2.05506 0
M  V30 3278 C 323.021 -4.28066 -1.41671 0
M  V30 3279 C 321.683 -4.64951 -1.2399 0
M  V30 3280 C 324.035 -5.12344 -0.956726 0
M  V30 3281 C 321.363 -5.83733 -0.589277 0
M  V30 3282 C 323.715 -6.3179 -0.320015 0
M  V30 3283 C 322.379 -6.67372 -0.130881 0
M  V30 3284 H 321.649 -0.625598 -0.397124 0
M  V30 3285 H 324.296 -1.87995 -0.36469 0
M  V30 3286 H 322.601 -2.69973 -2.8394 0
M  V30 3287 H 324.298 -3.02895 -2.62784 0
M  V30 3288 H 320.888 -3.99034 -1.56429 0
M  V30 3289 H 325.072 -4.8438 -1.08118 0
M  V30 3290 H 320.328 -6.09877 -0.431344 0
M  V30 3291 H 324.502 -6.96386 0.0445072 0
M  V30 3292 H 322.129 -7.59273 0.375318 0
M  V30 3293 N 323.704 0.605807 -1.45491 0
M  V30 3294 C 324.952 1.36207 -1.49305 0
M  V30 3295 C 325.273 1.94519 -0.136863 0
M  V30 3296 O 324.543 1.77261 0.833983 0
M  V30 3297 H 323.123 0.50565 -0.549843 0
M  V30 3298 H 325.785 0.711239 -1.81459 0
M  V30 3299 H 324.881 2.18058 -2.23287 0
M  V30 3300 N 325.182 1.32811 0.848464 0
M  V30 3301 C 326.431 1.23075 1.59798 0
M  V30 3302 C 326.744 -0.204419 1.94529 0
M  V30 3303 O 327.95 -0.423701 2.68173 0
M  V30 3304 C 326.406 2.15594 2.88179 0
M  V30 3305 C 326.014 3.64228 2.60849 0
M  V30 3306 C 327.758 2.14709 3.66197 0
M  V30 3307 C 325.665 4.48689 3.85269 0
M  V30 3308 H 324.595 0.457091 0.599653 0
M  V30 3309 H 327.246 1.57813 0.936342 0
M  V30 3310 H 325.628 1.73778 3.55833 0
M  V30 3311 H 326.802 4.14424 2.01467 0
M  V30 3312 H 325.117 3.67306 1.96151 0
M  V30 3313 H 327.714 2.75046 4.58534 0
M  V30 3314 H 328.057 1.13966 4.00397 0
M  V30 3315 H 328.59 2.54837 3.05455 0
M  V30 3316 H 325.329 5.5027 3.56207 0
M  V30 3317 H 324.849 4.03241 4.44024 0
M  V30 3318 H 326.528 4.62006 4.52946 0
M  V30 3319 N 326.66 -1.06551 1.16123 0
M  V30 3320 C 327.888 -1.83005 0.965237 0
M  V30 3321 C 328.303 -1.82423 -0.486542 0
M  V30 3322 O 327.66 -1.24152 -1.33763 0
M  V30 3323 C 327.711 -3.29733 1.48183 0
M  V30 3324 O 327.432 -3.30416 2.87674 0
M  V30 3325 C 328.933 -4.22926 1.32848 0
M  V30 3326 H 326.153 -0.577118 0.342309 0
M  V30 3327 H 328.697 -1.3445 1.54089 0
M  V30 3328 H 326.852 -3.75609 0.948517 0
M  V30 3329 H 327.266 -4.22149 3.11272 0
M  V30 3330 H 328.74 -5.23916 1.73827 0
M  V30 3331 H 329.217 -4.38346 0.273692 0
M  V30 3332 H 329.823 -3.82894 1.85127 0
M  V30 3333 N 328.138 -0.959301 -1.25041 0
M  V30 3334 C 329.386 -0.615393 -1.92503 0
M  V30 3335 C 329.707 0.850969 -1.75452 0
M  V30 3336 O 328.977 1.60658 -1.12098 0
M  V30 3337 H 327.557 -0.224613 -0.712431 0
M  V30 3338 H 330.219 -1.21855 -1.5211 0
M  V30 3339 H 329.315 -0.848738 -3.00338 0
M  V30 3340 N 329.616 1.39756 -0.72842 0
M  V30 3341 C 330.864 2.00248 -0.272946 0
M  V30 3342 C 331.185 1.58077 1.14178 0
M  V30 3343 O 330.455 0.826014 1.77634 0
M  V30 3344 H 329.035 0.740554 -0.0979247 0
M  V30 3345 H 331.697 1.70903 -0.936912 0
M  V30 3346 H 330.793 3.10495 -0.316142 0
M  V30 3347 N 331.094 0.475555 1.50254 0
M  V30 3348 C 332.044 -0.335025 2.25525 0
M  V30 3349 C 333.028 -0.957625 1.29299 0
M  V30 3350 O 334.22 -0.869436 1.54175 0
M  V30 3351 C 331.349 -1.41385 3.12834 0
M  V30 3352 C 330.435 -0.798762 4.1651 0
M  V30 3353 N 330.826 0.0835815 5.05731 0
M  V30 3354 C 329.124 -1.06221 4.33166 0
M  V30 3355 C 329.825 0.433113 5.80085 0
M  V30 3356 N 328.801 -0.1928 5.43258 0
M  V30 3357 H 332.603 0.344612 2.91873 0
M  V30 3358 H 330.117 0.289986 1.5979 0
M  V30 3359 H 332.114 -2.00777 3.65368 0
M  V30 3360 H 330.774 -2.09543 2.48036 0
M  V30 3361 H 331.785 0.452715 5.15918 0
M  V30 3362 H 328.462 -1.73844 3.79585 0
M  V30 3363 H 329.852 1.15346 6.61925 0
M  V30 3364 N 332.573 -1.56217 0.208337 0
M  V30 3365 C 333.822 -1.97124 -0.427204 0
M  V30 3366 C 334.135 -1.09859 -1.61835 0
M  V30 3367 O 335.341 -1.40606 -2.32255 0
M  V30 3368 C 333.797 -3.50633 -0.811442 0
M  V30 3369 C 333.405 -4.46582 0.35615 0
M  V30 3370 C 335.149 -4.00282 -1.41332 0
M  V30 3371 C 333.056 -5.91379 -0.0497852 0
M  V30 3372 H 331.986 -0.736086 -0.163381 0
M  V30 3373 H 334.637 -1.8099 0.302456 0
M  V30 3374 H 333.019 -3.62319 -1.59815 0
M  V30 3375 H 334.193 -4.46636 1.1337 0
M  V30 3376 H 332.508 -4.07202 0.870396 0
M  V30 3377 H 335.105 -5.0595 -1.72972 0
M  V30 3378 H 335.448 -3.45359 -2.32449 0
M  V30 3379 H 335.981 -3.91764 -0.690323 0
M  V30 3380 H 332.72 -6.50255 0.827529 0
M  V30 3381 H 332.24 -5.94549 -0.791926 0
M  V30 3382 H 333.919 -6.45209 -0.481042 0
M  V30 3383 N 334.051 0.0651679 -1.57465 0
M  V30 3384 C 335.462 0.616213 -1.76238 0
M  V30 3385 C 335.813 1.7756 -0.834689 0
M  V30 3386 O 334.938 2.1639 -0.0204156 0
M  V30 3387 C 335.533 1.12462 -3.1959 0
M  V30 3388 C 334.092 1.62147 -3.39684 0
M  V30 3389 C 333.239 0.543739 -2.71917 0
M  V30 3390 H 336.19 -0.161022 -1.57881 0
M  V30 3391 H 336.211 1.99324 -3.24114 0
M  V30 3392 H 335.723 0.280592 -3.87084 0
M  V30 3393 H 333.824 2.48854 -2.77313 0
M  V30 3394 H 333.937 1.69385 -4.48158 0
M  V30 3395 H 332.301 0.990352 -2.34657 0
M  V30 3396 H 333.084 -0.290216 -3.42071 0
M  V30 3397 N 335.529 1.53961 0.336706 0
M  V30 3398 C 336.476 1.82428 1.41381 0
M  V30 3399 C 337.446 0.670444 1.51968 0
M  V30 3400 O 338.631 0.915565 1.67398 0
M  V30 3401 C 335.771 2.04564 2.77934 0
M  V30 3402 C 334.884 3.32267 2.76084 0
M  V30 3403 C 334.019 3.44434 4.04399 0
M  V30 3404 C 333.058 4.66061 3.96804 0
M  V30 3405 N 332.195 4.75224 5.16823 0
M  V30 3406 H 337.035 2.74324 1.16405 0
M  V30 3407 H 334.572 1.35869 0.563752 0
M  V30 3408 H 336.53 2.15388 3.57301 0
M  V30 3409 H 335.16 1.15974 3.01247 0
M  V30 3410 H 334.212 3.3025 1.88784 0
M  V30 3411 H 335.524 4.21733 2.66351 0
M  V30 3412 H 334.678 3.54728 4.92192 0
M  V30 3413 H 333.417 2.53037 4.16921 0
M  V30 3414 H 332.422 4.55838 3.07396 0
M  V30 3415 H 333.647 5.58829 3.85858 0
M  V30 3416 H 331.593 3.86739 5.29876 0
M  V30 3417 H 331.51 5.58636 5.09374 0
M  V30 3418 H 332.778 4.89835 6.06367 0
M  V30 3419 N 337.007 -0.598083 1.45811 0
M  V30 3420 C 338.254 -1.35681 1.50323 0
M  V30 3421 C 338.582 -1.9393 0.148739 0
M  V30 3422 O 337.837 -1.76094 -0.853787 0
M  V30 3423 C 338.136 -2.51669 2.53766 0
M  V30 3424 C 337.802 -2.11508 3.98215 0
M  V30 3425 C 336.464 -2.0027 4.37545 0
M  V30 3426 C 338.816 -1.80308 4.89018 0
M  V30 3427 C 336.144 -1.56067 5.65562 0
M  V30 3428 C 338.496 -1.37589 6.17456 0
M  V30 3429 C 337.16 -1.24916 6.55708 0
M  V30 3430 H 336.43 -0.496492 0.550069 0
M  V30 3431 H 339.077 -0.675052 1.79207 0
M  V30 3432 H 337.382 -3.25225 2.18486 0
M  V30 3433 H 339.079 -3.09895 2.54492 0
M  V30 3434 H 335.669 -2.21185 3.67117 0
M  V30 3435 H 339.853 -1.87884 4.59362 0
M  V30 3436 H 335.109 -1.44886 5.93985 0
M  V30 3437 H 339.283 -1.12495 6.87254 0
M  V30 3438 H 336.91 -0.904386 7.54801 0
M  V30 3439 N 338.485 -1.33259 -0.841409 0
M  V30 3440 C 339.448 -1.23221 -1.9326 0
M  V30 3441 C 340.448 -0.151895 -1.60081 0
M  V30 3442 O 341.638 -0.403246 -1.69468 0
M  V30 3443 C 338.77 -0.898123 -3.28856 0
M  V30 3444 H 339.963 -2.2021 -2.03587 0
M  V30 3445 H 337.516 -1.17281 -1.03319 0
M  V30 3446 H 338.251 0.0693841 -3.24226 0
M  V30 3447 H 338.036 -1.67934 -3.54317 0
M  V30 3448 H 339.526 -0.852563 -4.08805 0
M  V30 3449 N 339.963 1.05934 -1.16686 0
M  V30 3450 C 340.91 2.13499 -0.876748 0
M  V30 3451 C 341.88 1.65162 0.176299 0
M  V30 3452 O 343.065 1.90757 0.0407143 0
M  V30 3453 C 340.205 3.42912 -0.387967 0
M  V30 3454 C 339.318 4.04964 -1.50426 0
M  V30 3455 C 338.453 5.22266 -0.970125 0
M  V30 3456 C 337.492 5.76309 -2.06238 0
M  V30 3457 N 336.629 6.84922 -1.54356 0
M  V30 3458 H 341.469 2.37654 -1.7979 0
M  V30 3459 H 339.006 1.16598 -0.896843 0
M  V30 3460 H 340.964 4.17111 -0.086186 0
M  V30 3461 H 339.594 3.18963 0.496235 0
M  V30 3462 H 338.646 3.28277 -1.92193 0
M  V30 3463 H 339.958 4.41122 -2.32836 0
M  V30 3464 H 339.112 6.03506 -0.621743 0
M  V30 3465 H 337.851 4.87564 -0.115377 0
M  V30 3466 H 336.856 4.93704 -2.41942 0
M  V30 3467 H 338.081 6.13062 -2.92115 0
M  V30 3468 H 336.027 6.52131 -0.711406 0
M  V30 3469 H 335.944 7.20043 -2.30379 0
M  V30 3470 H 337.212 7.69832 -1.22387 0
M  V30 3471 N 341.441 0.965919 1.2453 0
M  V30 3472 C 342.389 0.486506 2.27455 0
M  V30 3473 C 343.383 -0.449041 1.6334 0
M  V30 3474 O 344.589 -0.324527 1.7705 0
M  V30 3475 H 340.964 0.138857 0.739069 0
M  V30 3476 H 342.935 1.3666 2.65267 0
M  V30 3477 C 341.684 -0.209481 3.47068 0
M  V30 3478 H 341.007 0.50129 3.96645 0
M  V30 3479 H 342.447 -0.508775 4.20936 0
M  V30 3480 C 340.906 -1.43586 3.0477 0
M  V30 3481 O 341.436 -2.53299 3.11773 0
M  V30 3482 N 339.642 -1.30126 2.59838 0
M  V30 3483 H 339.189 -0.408583 2.54339 0
M  V30 3484 H 339.147 -2.12294 2.31902 0
M  V30 3485 N 342.919 -1.39368 0.735821 0
M  V30 3486 C 344.166 -2.00497 0.284123 0
M  V30 3487 C 344.494 -1.58387 -1.12889 0
M  V30 3488 O 343.749 -0.804359 -1.78406 0
M  V30 3489 C 344.048 -3.5583 0.334651 0
M  V30 3490 C 343.714 -4.17593 1.7008 0
M  V30 3491 C 342.376 -4.34176 2.07472 0
M  V30 3492 C 344.728 -4.51848 2.59775 0
M  V30 3493 C 342.056 -4.82304 3.34065 0
M  V30 3494 C 344.408 -5.01384 3.85741 0
M  V30 3495 C 343.072 -5.16175 4.23225 0
M  V30 3496 H 342.342 -0.73367 0.103968 0
M  V30 3497 H 344.989 -1.66683 0.942825 0
M  V30 3498 H 343.294 -3.89674 -0.407625 0
M  V30 3499 H 344.991 -4.00986 -0.0329927 0
M  V30 3500 H 341.581 -4.05087 1.40008 0
M  V30 3501 H 345.765 -4.38653 2.32157 0
M  V30 3502 H 341.021 -4.91941 3.63049 0
M  V30 3503 H 345.195 -5.26863 4.55399 0
M  V30 3504 H 342.822 -5.5323 5.21384 0
M  V30 3505 N 344.397 -0.483516 -1.5 0
M  V30 3506 C 345.327 0.293829 -2.31644 0
M  V30 3507 C 346.308 0.978864 -1.39112 0
M  V30 3508 O 347.493 0.973644 -1.68029 0
M  V30 3509 C 344.623 1.36897 -3.19181 0
M  V30 3510 C 343.577 0.804833 -4.20365 0
M  V30 3511 C 342.903 1.9792 -4.96721 0
M  V30 3512 C 344.203 -0.192313 -5.21946 0
M  V30 3513 H 345.897 -0.387616 -2.9688 0
M  V30 3514 H 343.443 -0.187856 -1.42769 0
M  V30 3515 H 345.396 1.92037 -3.751 0
M  V30 3516 H 344.12 2.07936 -2.51853 0
M  V30 3517 H 342.779 0.275319 -3.65565 0
M  V30 3518 H 342.427 2.67686 -4.25856 0
M  V30 3519 H 342.127 1.60789 -5.65173 0
M  V30 3520 H 343.651 2.53526 -5.55479 0
M  V30 3521 H 345.065 0.270333 -5.72662 0
M  V30 3522 H 343.462 -0.478543 -5.98189 0
M  V30 3523 H 344.532 -1.11409 -4.71928 0
M  V30 3524 N 345.875 1.56104 -0.216619 0
M  V30 3525 C 346.838 2.18819 0.681962 0
M  V30 3526 C 347.838 1.14866 1.12528 0
M  V30 3527 O 349.028 1.40128 1.03488 0
M  V30 3528 C 346.16 2.80756 1.93362 0
M  V30 3529 H 347.353 2.99595 0.135254 0
M  V30 3530 H 344.906 1.56265 0.0330003 0
M  V30 3531 H 345.641 2.03837 2.52232 0
M  V30 3532 H 345.426 3.56876 1.62426 0
M  V30 3533 H 346.916 3.28844 2.57393 0
M  V30 3534 N 347.353 -0.0568162 1.57498 0
M  V30 3535 C 348.263 -1.08346 2.08083 0
M  V30 3536 C 349.279 -1.41439 1.01346 0
M  V30 3537 O 350.455 -1.51316 1.32912 0
M  V30 3538 C 347.52 -2.37352 2.52715 0
M  V30 3539 C 346.581 -2.11093 3.73816 0
M  V30 3540 C 345.814 -3.33949 4.1631 0
M  V30 3541 O 346.037 -4.43622 3.58547 0
M  V30 3542 O 344.971 -3.21279 5.08983 0
M  V30 3543 H 348.797 -0.683667 2.95905 0
M  V30 3544 H 346.382 -0.271965 1.46904 0
M  V30 3545 H 348.264 -3.13246 2.81877 0
M  V30 3546 H 346.939 -2.76681 1.68016 0
M  V30 3547 H 345.846 -1.32856 3.49714 0
M  V30 3548 H 347.179 -1.76637 4.59413 0
M  V30 3549 N 348.832 -1.54138 -0.328536 0
M  V30 3550 C 350.06 -1.76062 -1.08673 0
M  V30 3551 C 350.475 -0.506852 -1.81869 0
M  V30 3552 O 349.832 0.522223 -1.74869 0
M  V30 3553 C 349.883 -2.95054 -2.08866 0
M  V30 3554 O 349.604 -4.15583 -1.38644 0
M  V30 3555 C 351.105 -3.2915 -2.96943 0
M  V30 3556 H 348.325 -0.587889 -0.323461 0
M  V30 3557 H 350.869 -2.0101 -0.376175 0
M  V30 3558 H 349.024 -2.72394 -2.75464 0
M  V30 3559 H 349.438 -4.82481 -2.05699 0
M  V30 3560 H 350.912 -4.15723 -3.63151 0
M  V30 3561 H 351.389 -2.461 -3.63774 0
M  V30 3562 H 351.995 -3.53871 -2.35914 0
M  V30 3563 N 350.31 0.590341 -1.46126 0
M  V30 3564 C 351.558 1.34616 -1.50742 0
M  V30 3565 C 351.879 1.94363 -0.157486 0
M  V30 3566 O 351.149 1.78136 0.815136 0
M  V30 3567 H 349.729 0.499789 -0.555175 0
M  V30 3568 H 352.391 0.691953 -1.82203 0
M  V30 3569 H 351.487 2.15678 -2.25587 0
M  V30 3570 N 351.788 1.33704 0.83433 0
M  V30 3571 C 353.065 1.16011 1.57483 0
M  V30 3572 C 353.445 -0.27176 2.09343 0
M  V30 3573 O 352.793 -1.27146 1.89858 0
M  V30 3574 C 353.003 2.20507 2.70514 0
M  V30 3575 C 354.351 2.54898 3.39577 0
M  V30 3576 O 355.375 2.19209 2.80759 0
M  V30 3577 O 354.234 3.16158 4.45765 0
M  V30 3578 H 351.328 0.448992 0.694503 0
M  V30 3579 H 353.874 1.453 0.876691 0
M  V30 3580 H 352.646 3.16667 2.29865 0
M  V30 3581 H 352.269 1.92329 3.47987 0
M  V30 3582 N 353.266 -1.05314 1.17247 0
M  V30 3583 C 354.515 -1.77685 0.954521 0
M  V30 3584 C 354.828 -1.88616 -0.518025 0
M  V30 3585 O 356.034 -2.57714 -0.854144 0
M  V30 3586 C 354.49 -3.19402 1.65863 0
M  V30 3587 C 354.098 -3.16605 3.16963 0
M  V30 3588 C 355.842 -3.96237 1.52303 0
M  V30 3589 C 353.749 -4.53103 3.80068 0
M  V30 3590 H 352.679 -0.666 0.353496 0
M  V30 3591 H 355.33 -1.1805 1.40486 0
M  V30 3592 H 353.712 -3.79355 1.13602 0
M  V30 3593 H 354.886 -2.66176 3.76148 0
M  V30 3594 H 353.201 -2.53268 3.30521 0
M  V30 3595 H 355.798 -4.97157 1.96822 0
M  V30 3596 H 356.141 -4.136 0.473401 0
M  V30 3597 H 356.674 -3.42829 2.01775 0
M  V30 3598 H 353.413 -4.40946 4.85023 0
M  V30 3599 H 352.933 -5.03686 3.2567 0
M  V30 3600 H 354.612 -5.22045 3.82202 0
M  V30 3601 N 354.744 -0.972509 -1.24016 0
M  V30 3602 C 356.16 -0.679827 -1.44397 0
M  V30 3603 C 356.36 0.756716 -1.86751 0
M  V30 3604 O 355.416 1.53007 -2.00861 0
M  V30 3605 C 356.729 -1.66803 -2.50195 0
M  V30 3606 C 358.277 -1.68119 -2.64017 0
M  V30 3607 C 358.752 -2.65748 -3.73017 0
M  V30 3608 N 360.243 -2.64219 -3.8045 0
M  V30 3609 C 360.978 -3.36433 -4.64328 0
M  V30 3610 N 360.474 -4.1818 -5.52356 0
M  V30 3611 N 362.267 -3.25235 -4.58453 0
M  V30 3612 H 354.418 -1.90059 -0.948228 0
M  V30 3613 H 356.681 -0.818527 -0.478245 0
M  V30 3614 H 356.387 -2.69498 -2.25973 0
M  V30 3615 H 356.261 -1.4446 -3.48441 0
M  V30 3616 H 358.648 -0.661319 -2.87594 0
M  V30 3617 H 358.729 -1.94525 -1.66113 0
M  V30 3618 H 358.373 -3.67872 -3.50189 0
M  V30 3619 H 358.303 -2.36619 -4.70446 0
M  V30 3620 H 360.794 -2.04887 -3.17537 0
M  V30 3621 H 361.107 -4.70157 -6.13329 0
M  V30 3622 H 359.452 -4.22273 -5.52006 0
M  V30 3623 H 362.643 -2.60829 -3.88698 0
M  V30 3624 H 362.816 -3.81776 -5.23594 0
M  V30 3625 N 356.222 1.38976 -0.743202 0
M  V30 3626 C 357.185 2.28901 -0.117014 0
M  V30 3627 C 358.185 1.46698 0.658503 0
M  V30 3628 O 359.375 1.67274 0.486305 0
M  V30 3629 C 356.507 3.30309 0.84315 0
M  V30 3630 H 357.7 2.8578 -0.909373 0
M  V30 3631 H 355.253 1.47761 -0.509547 0
M  V30 3632 H 355.988 2.785 1.66157 0
M  V30 3633 H 355.773 3.91029 0.289594 0
M  V30 3634 H 357.263 3.97577 1.2776 0
M  V30 3635 N 357.7 0.491464 1.49741 0
M  V30 3636 C 358.663 -0.280906 2.27472 0
M  V30 3637 C 359.663 -0.902454 1.33088 0
M  V30 3638 O 360.853 -0.768465 1.56334 0
M  V30 3639 C 357.985 -1.40209 3.10732 0
M  V30 3640 H 359.178 0.401056 2.97206 0
M  V30 3641 H 356.731 0.246131 1.5435 0
M  V30 3642 H 357.466 -2.11849 2.45541 0
M  V30 3643 H 357.251 -0.961969 3.80117 0
M  V30 3644 H 358.741 -1.9464 3.69466 0
M  V30 3645 N 359.178 -1.55987 0.224894 0
M  V30 3646 C 360.424 -1.98684 -0.406502 0
M  V30 3647 C 360.757 -1.11248 -1.59177 0
M  V30 3648 O 360.032 -0.170909 -1.93748 0
M  V30 3649 C 360.315 -3.50218 -0.837808 0
M  V30 3650 C 360.168 -4.48426 0.351332 0
M  V30 3651 C 361.487 -4.06243 -1.69278 0
M  V30 3652 H 358.606 -0.722337 -0.146283 0
M  V30 3653 H 361.248 -1.87255 0.321799 0
M  V30 3654 H 359.398 -3.60089 -1.45837 0
M  V30 3655 H 361.07 -4.50562 0.989526 0
M  V30 3656 H 359.313 -4.22159 0.998207 0
M  V30 3657 H 359.984 -5.52 0.00655905 0
M  V30 3658 H 362.46 -3.99337 -1.16914 0
M  V30 3659 H 361.336 -5.12581 -1.96346 0
M  V30 3660 H 361.597 -3.53332 -2.65723 0
M  V30 3661 N 360.656 0.0484629 -1.57525 0
M  V30 3662 C 362.072 0.40375 -1.54409 0
M  V30 3663 C 362.272 1.77786 -0.948384 0
M  V30 3664 O 361.328 2.46189 -0.560983 0
M  V30 3665 C 362.641 0.323394 -2.98956 0
M  V30 3666 C 364.189 0.401892 -3.10409 0
M  V30 3667 C 364.664 0.351195 -4.56652 0
M  V30 3668 N 366.155 0.410576 -4.61377 0
M  V30 3669 C 366.89 0.393933 -5.72045 0
M  V30 3670 N 366.386 0.330724 -6.9201 0
M  V30 3671 N 368.179 0.442227 -5.60358 0
M  V30 3672 H 360.33 -0.851016 -1.94606 0
M  V30 3673 H 362.593 -0.321721 -0.89174 0
M  V30 3674 H 362.299 -0.62011 -3.4619 0
M  V30 3675 H 362.173 1.12463 -3.60044 0
M  V30 3676 H 364.56 1.33582 -2.63134 0
M  V30 3677 H 364.641 -0.428342 -2.52188 0
M  V30 3678 H 364.285 -0.578987 -5.04589 0
M  V30 3679 H 364.215 1.19928 -5.12762 0
M  V30 3680 H 366.706 0.462729 -3.75056 0
M  V30 3681 H 367.019 0.322592 -7.72126 0
M  V30 3682 H 365.364 0.29706 -6.94365 0
M  V30 3683 H 368.555 0.489464 -4.65534 0
M  V30 3684 H 368.728 0.425788 -6.466 0
M  V30 3685 N 362.134 1.5431 0.320358 0
M  V30 3686 C 363.066 1.80262 1.41556 0
M  V30 3687 C 364.079 0.684723 1.477 0
M  V30 3688 O 365.268 0.961886 1.50366 0
M  V30 3689 C 362.368 1.90825 2.8007 0
M  V30 3690 C 361.541 3.21023 2.97091 0
M  V30 3691 C 360.6 3.22247 4.15985 0
M  V30 3692 O 359.626 3.95871 4.08992 0
M  V30 3693 N 360.828 2.46258 5.25678 0
M  V30 3694 H 363.593 2.74778 1.19655 0
M  V30 3695 H 361.154 1.53646 0.510358 0
M  V30 3696 H 363.146 1.89067 3.57821 0
M  V30 3697 H 361.716 1.03392 2.95006 0
M  V30 3698 H 360.936 3.35715 2.06614 0
M  V30 3699 H 362.224 4.0698 3.05361 0
M  V30 3700 H 361.622 1.86037 5.34235 0
M  V30 3701 H 360.179 2.50275 6.01835 0
M  V30 3702 N 363.613 -0.582584 1.46437 0
M  V30 3703 C 364.843 -1.36484 1.55099 0
M  V30 3704 C 365.251 -1.88233 0.191056 0
M  V30 3705 O 364.594 -1.6429 -0.821858 0
M  V30 3706 C 364.656 -2.588 2.49525 0
M  V30 3707 C 364.32 -2.28517 3.95764 0
M  V30 3708 C 365.317 -1.87346 4.84972 0
M  V30 3709 C 363.002 -2.40658 4.40896 0
M  V30 3710 C 364.996 -1.5871 6.17325 0
M  V30 3711 C 362.683 -2.11635 5.73284 0
M  V30 3712 C 363.681 -1.70725 6.61318 0
M  V30 3713 O 363.369 -1.42057 7.91249 0
M  V30 3714 H 363.101 -0.423297 0.527063 0
M  V30 3715 H 365.655 -0.715188 1.92547 0
M  V30 3716 H 363.885 -3.26571 2.07095 0
M  V30 3717 H 365.574 -3.20868 2.48593 0
M  V30 3718 H 366.34 -1.77481 4.5136 0
M  V30 3719 H 362.219 -2.71463 3.72598 0
M  V30 3720 H 365.763 -1.26704 6.85997 0
M  V30 3721 H 361.66 -2.21124 6.06444 0
M  V30 3722 H 362.428 -1.55901 8.03515 0
M  V30 3723 N 365.091 -1.34144 -0.827227 0
M  V30 3724 C 366.024 -1.19707 -1.94282 0
M  V30 3725 C 367.002 -0.0897256 -1.62352 0
M  V30 3726 O 368.186 -0.254095 -1.8678 0
M  V30 3727 C 365.313 -0.838646 -3.28153 0
M  V30 3728 C 364.359 -1.95514 -3.79047 0
M  V30 3729 S 365.192 -3.56793 -3.99323 0
M  V30 3730 C 366.348 -3.22983 -5.36127 0
M  V30 3731 H 366.581 -2.1414 -2.06231 0
M  V30 3732 H 364.114 -1.19121 -0.982321 0
M  V30 3733 H 366.072 -0.638637 -4.05502 0
M  V30 3734 H 364.733 0.0872776 -3.13979 0
M  V30 3735 H 363.926 -1.658 -4.75948 0
M  V30 3736 H 363.528 -2.11241 -3.08631 0
M  V30 3737 H 365.82 -2.74531 -6.19386 0
M  V30 3738 H 366.763 -4.19008 -5.70822 0
M  V30 3739 H 367.171 -2.59276 -5.01434 0
M  V30 3740 N 366.569 1.04691 -1.17803 0
M  V30 3741 C 367.532 2.10724 -0.901545 0
M  V30 3742 C 368.532 1.6042 0.110437 0
M  V30 3743 O 369.722 1.7377 -0.122303 0
M  V30 3744 C 366.854 3.39084 -0.351409 0
M  V30 3745 H 368.047 2.36686 -1.84174 0
M  V30 3746 H 365.6 1.21015 -0.98919 0
M  V30 3747 H 366.335 3.18782 0.59569 0
M  V30 3748 H 366.12 3.76909 -1.08083 0
M  V30 3749 H 367.61 4.17227 -0.176451 0
M  V30 3750 N 368.047 0.979072 1.23499 0
M  V30 3751 C 368.957 0.526431 2.28617 0
M  V30 3752 C 369.973 -0.418126 1.68901 0
M  V30 3753 O 371.149 -0.288372 1.99325 0
M  V30 3754 C 368.214 -0.165235 3.46306 0
M  V30 3755 C 367.275 0.82056 4.21385 0
M  V30 3756 C 366.508 0.161807 5.33455 0
M  V30 3757 O 366.731 -1.04742 5.60701 0
M  V30 3758 O 365.665 0.859708 5.95729 0
M  V30 3759 H 369.491 1.4006 2.69475 0
M  V30 3760 H 367.076 0.746643 1.29405 0
M  V30 3761 H 368.958 -0.553287 4.17752 0
M  V30 3762 H 367.633 -1.01419 3.07402 0
M  V30 3763 H 366.54 1.25929 3.52268 0
M  V30 3764 H 367.873 1.63828 4.64135 0
M  V30 3765 N 369.525 -1.3858 0.750561 0
M  V30 3766 C 370.771 -2.00481 0.305825 0
M  V30 3767 C 371.104 -1.5944 -1.10872 0
M  V30 3768 O 370.379 -0.83052 -1.75877 0
M  V30 3769 C 370.662 -3.5758 0.425287 0
M  V30 3770 C 370.515 -4.08594 1.88072 0
M  V30 3771 C 371.834 -4.39719 -0.183122 0
M  V30 3772 H 368.953 -0.728348 0.112598 0
M  V30 3773 H 371.595 -1.64566 0.949638 0
M  V30 3774 H 369.745 -3.88306 -0.122828 0
M  V30 3775 H 371.417 -3.88523 2.48691 0
M  V30 3776 H 369.66 -3.61574 2.39681 0
M  V30 3777 H 370.331 -5.177 1.91548 0
M  V30 3778 H 372.807 -4.15128 0.284303 0
M  V30 3779 H 371.683 -5.48856 -0.0692757 0
M  V30 3780 H 371.944 -4.23434 -1.27106 0
M  V30 3781 N 371.003 -0.499398 -1.49478 0
M  V30 3782 C 371.913 0.284489 -2.32869 0
M  V30 3783 C 372.929 0.968885 -1.44529 0
M  V30 3784 O 374.105 0.95062 -1.77553 0
M  V30 3785 C 371.17 1.33594 -3.19928 0
M  V30 3786 C 370.231 0.665149 -4.24116 0
M  V30 3787 C 369.464 1.6665 -5.07014 0
M  V30 3788 O 369.687 2.89618 -4.91404 0
M  V30 3789 O 368.621 1.22271 -5.8935 0
M  V30 3790 H 372.447 -0.39802 -3.01081 0
M  V30 3791 H 370.032 -0.260758 -1.47107 0
M  V30 3792 H 371.914 1.94431 -3.73864 0
M  V30 3793 H 370.589 2.0014 -2.54412 0
M  V30 3794 H 369.496 0.0170769 -3.74096 0
M  V30 3795 H 370.829 0.0421555 -4.92182 0
M  V30 3796 N 372.481 1.55866 -0.233164 0
M  V30 3797 C 373.706 2.03449 0.402906 0
M  V30 3798 C 374.131 1.11166 1.51736 0
M  V30 3799 O 373.489 0.101996 1.81013 0
M  V30 3800 C 373.537 3.49165 0.9009 0
M  V30 3801 O 372.641 3.60019 2.01147 0
M  V30 3802 H 371.982 0.657913 0.0897025 0
M  V30 3803 H 374.512 2.01493 -0.355201 0
M  V30 3804 H 374.522 3.89716 1.2077 0
M  V30 3805 H 373.197 4.15813 0.0852889 0
M  V30 3806 H 371.774 3.3136 1.71042 0
M  V30 3807 N 373.959 -0.0401083 1.57549 0
M  V30 3808 C 375.207 -0.731677 1.8839 0
M  V30 3809 C 375.528 -1.76481 0.829425 0
M  V30 3810 O 374.798 -1.95411 -0.1383 0
M  V30 3811 H 373.378 -0.273225 0.695239 0
M  V30 3812 H 376.04 -0.00867725 1.94898 0
M  V30 3813 H 375.136 -1.22816 2.86919 0
M  V30 3814 N 375.437 -1.54477 -0.31217 0
M  V30 3815 C 376.683 -1.73483 -1.0503 0
M  V30 3816 C 377.016 -0.513125 -1.87298 0
M  V30 3817 O 376.291 0.489864 -1.8823 0
M  V30 3818 C 376.574 -3.01723 -1.96558 0
M  V30 3819 C 376.427 -4.3417 -1.17545 0
M  V30 3820 C 377.746 -3.25772 -2.95907 0
M  V30 3821 H 374.865 -0.631222 -0.380432 0
M  V30 3822 H 377.507 -1.87184 -0.325932 0
M  V30 3823 H 375.657 -2.90174 -2.58324 0
M  V30 3824 H 377.329 -4.5762 -0.581513 0
M  V30 3825 H 375.572 -4.31159 -0.477925 0
M  V30 3826 H 376.243 -5.20143 -1.84811 0
M  V30 3827 H 378.719 -3.36857 -2.44267 0
M  V30 3828 H 377.595 -4.16838 -3.57123 0
M  V30 3829 H 377.856 -2.43537 -3.68974 0
M  V30 3830 N 376.915 0.57481 -1.46744 0
M  V30 3831 C 378.145 1.35659 -1.55821 0
M  V30 3832 C 378.553 1.88129 -0.201036 0
M  V30 3833 O 377.896 1.64723 0.813134 0
M  V30 3834 C 377.958 2.57473 -2.50894 0
M  V30 3835 C 377.622 2.26415 -3.9697 0
M  V30 3836 C 378.619 1.84771 -4.85958 0
M  V30 3837 C 376.304 2.38316 -4.42166 0
M  V30 3838 C 378.298 1.55434 -6.18158 0
M  V30 3839 C 375.985 2.08591 -5.74398 0
M  V30 3840 C 376.983 1.67216 -6.62214 0
M  V30 3841 O 376.671 1.37859 -7.91991 0
M  V30 3842 H 376.403 0.420496 -0.529301 0
M  V30 3843 H 378.957 0.704967 -1.92923 0
M  V30 3844 H 377.187 3.25468 -2.08824 0
M  V30 3845 H 378.876 3.19546 -2.50291 0
M  V30 3846 H 379.642 1.75085 -4.52295 0
M  V30 3847 H 375.521 2.69483 -3.74032 0
M  V30 3848 H 379.065 1.23065 -6.86659 0
M  V30 3849 H 374.962 2.17905 -6.07608 0
M  V30 3850 H 375.73 1.51638 -8.04331 0
M  V30 3851 N 378.394 1.34581 0.820102 0
M  V30 3852 C 379.805 1.24298 1.39309 0
M  V30 3853 C 380.156 -0.130351 1.95767 0
M  V30 3854 O 379.281 -1.0308 1.90272 0
M  V30 3855 C 379.876 2.25054 2.53251 0
M  V30 3856 C 378.435 2.18552 3.0645 0
M  V30 3857 C 377.582 2.11503 1.79337 0
M  V30 3858 H 380.533 1.45906 0.624262 0
M  V30 3859 H 380.554 1.86917 3.31425 0
M  V30 3860 H 380.066 3.24996 2.1213 0
M  V30 3861 H 378.167 1.21976 3.52069 0
M  V30 3862 H 378.28 3.0993 3.65349 0
M  V30 3863 H 376.644 1.57268 2.00347 0
M  V30 3864 H 377.427 3.13284 1.40386 0
M  V30 3865 N 379.872 -1.04064 1.18357 0
M  V30 3866 C 381.12 -1.76915 0.977013 0
M  V30 3867 C 381.441 -1.88624 -0.494577 0
M  V30 3868 O 380.711 -1.41125 -1.3587 0
M  V30 3869 H 379.291 -0.65535 0.358504 0
M  V30 3870 H 381.953 -1.25592 1.49039 0
M  V30 3871 H 381.049 -2.78178 1.41504 0
M  V30 3872 N 381.35 -0.985608 -1.22978 0
M  V30 3873 C 382.26 -0.538548 -2.28335 0
M  V30 3874 C 383.276 0.409163 -1.69121 0
M  V30 3875 O 384.452 0.277797 -1.99475 0
M  V30 3876 C 381.517 0.146867 -3.46389 0
M  V30 3877 C 380.578 -0.842896 -4.20944 0
M  V30 3878 C 379.811 -0.190095 -5.33361 0
M  V30 3879 O 380.034 1.01767 -5.61248 0
M  V30 3880 O 378.968 -0.891289 -5.95264 0
M  V30 3881 H 382.794 -1.41487 -2.68729 0
M  V30 3882 H 380.379 -0.753495 -1.29007 0
M  V30 3883 H 382.261 0.531125 -4.1804 0
M  V30 3884 H 380.936 0.997871 -3.07935 0
M  V30 3885 H 379.843 -1.27795 -3.51595 0
M  V30 3886 H 381.176 -1.66287 -4.6326 0
M  V30 3887 N 382.828 1.3818 -0.7579 0
M  V30 3888 C 383.738 2.3421 -0.135247 0
M  V30 3889 C 384.754 1.59487 0.695683 0
M  V30 3890 O 385.93 1.91657 0.618832 0
M  V30 3891 C 382.995 3.3862 0.744139 0
M  V30 3892 C 382.056 4.2918 -0.101658 0
M  V30 3893 C 381.289 5.28603 0.735851 0
M  V30 3894 O 381.512 5.35166 1.97366 0
M  V30 3895 O 380.446 6.01707 0.152372 0
M  V30 3896 H 384.272 2.8916 -0.928436 0
M  V30 3897 H 381.857 1.40101 -0.518855 0
M  V30 3898 H 383.739 4.02539 1.2466 0
M  V30 3899 H 382.414 2.86019 1.51575 0
M  V30 3900 H 381.321 3.68407 -0.650167 0
M  V30 3901 H 382.654 4.85048 -0.836024 0
M  V30 3902 N 384.306 0.507319 1.49211 0
M  V30 3903 C 385.256 -0.287112 2.26185 0
M  V30 3904 C 386.24 -0.929983 1.31302 0
M  V30 3905 O 387.432 -0.836538 1.55984 0
M  V30 3906 C 384.561 -1.34718 3.15763 0
M  V30 3907 C 383.647 -0.710235 4.18111 0
M  V30 3908 N 384.038 0.190836 5.0544 0
M  V30 3909 C 382.336 -0.97009 4.35322 0
M  V30 3910 C 383.037 0.55606 5.79036 0
M  V30 3911 N 382.013 -0.0775232 5.43545 0
M  V30 3912 H 385.815 0.406445 2.91076 0
M  V30 3913 H 383.329 0.323814 1.59139 0
M  V30 3914 H 385.326 -1.92982 3.69545 0
M  V30 3915 H 383.986 -2.04235 2.52424 0
M  V30 3916 H 384.997 0.562047 5.14841 0
M  V30 3917 H 381.674 -1.65753 3.83187 0
M  V30 3918 H 383.064 1.2936 6.5933 0
M  V30 3919 N 385.784 -1.5574 0.241426 0
M  V30 3920 C 387.009 -2.0366 -0.392111 0
M  V30 3921 C 387.434 -1.11969 -1.51144 0
M  V30 3922 O 386.792 -0.111594 -1.80956 0
M  V30 3923 C 386.84 -3.49638 -0.882371 0
M  V30 3924 O 385.944 -3.6108 -1.99235 0
M  V30 3925 H 385.285 -0.658379 -0.0862122 0
M  V30 3926 H 387.815 -2.01302 0.365881 0
M  V30 3927 H 387.825 -3.90351 -1.18702 0
M  V30 3928 H 386.5 -4.15852 -0.0632361 0
M  V30 3929 H 385.077 -3.32262 -1.69282 0
M  V30 3930 N 387.262 0.0317525 -1.57568 0
M  V30 3931 C 388.509 0.723104 -1.89149 0
M  V30 3932 C 388.837 1.75504 -0.838377 0
M  V30 3933 O 388.092 1.95037 0.160982 0
M  V30 3934 C 388.391 1.43167 -3.27472 0
M  V30 3935 C 388.057 0.535972 -4.47703 0
M  V30 3936 C 386.719 0.289262 -4.8033 0
M  V30 3937 C 389.071 -0.0826125 -5.21135 0
M  V30 3938 C 386.399 -0.584853 -5.83778 0
M  V30 3939 C 388.751 -0.944414 -6.25511 0
M  V30 3940 C 387.415 -1.20061 -6.56614 0
M  V30 3941 H 386.685 0.264602 -0.692146 0
M  V30 3942 H 389.332 -0.0169496 -1.91492 0
M  V30 3943 H 387.637 2.24497 -3.21105 0
M  V30 3944 H 389.334 1.97209 -3.49155 0
M  V30 3945 H 385.924 0.738414 -4.22191 0
M  V30 3946 H 390.108 0.0950302 -4.96209 0
M  V30 3947 H 385.364 -0.79168 -6.06253 0
M  V30 3948 H 389.538 -1.43026 -6.81554 0
M  V30 3949 H 387.165 -1.87967 -7.36595 0
M  V30 3950 N 388.74 1.54641 0.303973 0
M  V30 3951 C 389.69 1.8177 1.37636 0
M  V30 3952 C 390.674 0.674697 1.46071 0
M  V30 3953 O 391.866 0.935251 1.50273 0
M  V30 3954 C 388.995 2.06584 2.74186 0
M  V30 3955 C 388.081 3.2706 2.69986 0
M  V30 3956 N 388.472 4.47682 2.35402 0
M  V30 3957 C 386.77 3.29028 3.01092 0
M  V30 3958 C 387.471 5.29689 2.40426 0
M  V30 3959 N 386.447 4.67339 2.7766 0
M  V30 3960 H 390.249 2.72596 1.09857 0
M  V30 3961 H 387.763 1.541 0.51254 0
M  V30 3962 H 389.76 2.24166 3.51504 0
M  V30 3963 H 388.42 1.17024 3.02879 0
M  V30 3964 H 389.431 4.74336 2.07908 0
M  V30 3965 H 386.108 2.49565 3.34699 0
M  V30 3966 H 387.498 6.3606 2.16512 0
M  V30 3967 O 390.257 -0.449877 1.55108 0
M  V30 3968 H 390.948 -1.10376 1.59176 0
M  V30 END ATOM
M  V30 BEGIN BOND
M  V30 END BOND
M  V30 END CTAB
M  END
$$$$
