drugbank_target|P31153 S-adenosylmethionine synthase isoform type-2 (DB00118)
 OpenBabel12092119283D

  0  0  0     0  0            999 V3000
M  V30 BEGIN CTAB
M  V30 COUNTS 6133 6195 0 0 0
M  V30 BEGIN ATOM
M  V30 1 H -0.908 1.98254 -0.117106 0
M  V30 2 N 0 1.576 0 0
M  V30 3 C 0.933 2.03868 1.02534 0
M  V30 4 C 1.911 0.928543 1.3348 0
M  V30 5 O 3.095 1.19667 1.45644 0
M  V30 6 C 0.222 2.43627 2.35294 0
M  V30 7 C -0.732 3.65373 2.2001 0
M  V30 8 S 0.101 5.13292 1.52614 0
M  V30 9 C 1.257 5.56322 2.86805 0
M  V30 10 H 1.49 2.90518 0.631377 0
M  V30 11 H -0.977 1.52953 0.210867 0
M  V30 12 H 0.981 2.67203 3.11629 0
M  V30 13 H -0.358 1.57376 2.7183 0
M  V30 14 H -1.165 3.90944 3.18086 0
M  V30 15 H -1.563 3.418 1.51819 0
M  V30 16 H 0.729 5.58782 3.83104 0
M  V30 17 H 1.672 6.56266 2.65933 0
M  V30 18 H 2.08 4.83886 2.90714 0
M  V30 19 N 1.4781 -0.272755 1.55222 0
M  V30 20 C 2.4261 -1.35705 1.88909 0
M  V30 21 C 3.4201 -1.5112 0.765456 0
M  V30 22 O 4.6261 -1.52901 0.949802 0
M  V30 23 H 1.0011 -0.453868 0.59959 0
M  V30 24 H 2.9721 -1.04544 2.79487 0
M  V30 25 C 1.7211 -2.71049 2.17779 0
M  V30 26 H 1.0441 -2.59979 3.03728 0
M  V30 27 H 2.4841 -3.45858 2.45272 0
M  V30 28 C 0.9431 -3.22165 0.985473 0
M  V30 29 O 1.4731 -4.01096 0.220233 0
M  V30 30 N -0.3209 -2.7985 0.783108 0
M  V30 31 H -0.7739 -2.15775 1.40708 0
M  V30 32 H -0.8159 -3.14397 -0.0130392 0
M  V30 33 N 2.9562 -1.48159 -0.537278 0
M  V30 34 C 4.2042 -1.55497 -1.29094 0
M  V30 35 C 4.5252 -0.227454 -1.93669 0
M  V30 36 O 3.7952 0.750386 -1.80959 0
M  V30 37 H 2.3752 -0.572832 -0.47945 0
M  V30 38 H 5.0372 -1.84579 -0.625818 0
M  V30 39 H 4.1332 -2.33216 -2.07405 0
M  V30 40 N 4.4343 0.785586 -1.36625 0
M  V30 41 C 5.3663 1.90711 -1.2713 0
M  V30 42 C 6.3793 1.61688 -0.189986 0
M  V30 43 O 7.5683 1.72864 -0.445014 0
M  V30 44 C 4.6683 3.25611 -0.939713 0
M  V30 45 C 3.8413 3.82385 -2.12369 0
M  V30 46 C 2.9003 4.95732 -1.76456 0
M  V30 47 O 1.9263 5.12047 -2.48589 0
M  V30 48 N 3.1283 5.76258 -0.700492 0
M  V30 49 H 5.8933 1.99376 -2.23762 0
M  V30 50 H 3.4543 0.964041 -1.30069 0
M  V30 51 H 5.4463 3.98937 -0.680554 0
M  V30 52 H 4.0163 3.12538 -0.0624074 0
M  V30 53 H 3.2363 3.01001 -2.54543 0
M  V30 54 H 4.5243 4.17047 -2.9146 0
M  V30 55 H 3.9223 5.65609 -0.101624 0
M  V30 56 H 2.4793 6.4987 -0.501165 0
M  V30 57 N 5.9124 1.20967 1.01018 0
M  V30 58 C 6.8424 0.988272 2.11555 0
M  V30 59 C 7.8234 -0.0849778 1.69888 0
M  V30 60 O 9.0084 0.0738202 1.9406 0
M  V30 61 C 6.1384 0.546528 3.42973 0
M  V30 62 C 5.0924 1.56375 3.9841 0
M  V30 63 C 4.4184 0.97842 5.25672 0
M  V30 64 C 5.7184 2.94922 4.31066 0
M  V30 65 H 7.4124 1.91276 2.30334 0
M  V30 66 H 4.9584 0.921073 1.1069 0
M  V30 67 H 6.9114 0.378839 4.19694 0
M  V30 68 H 5.6354 -0.413598 3.23971 0
M  V30 69 H 4.2944 1.71891 3.23804 0
M  V30 70 H 3.9424 0.0101688 5.02999 0
M  V30 71 H 3.6424 1.65784 5.63728 0
M  V30 72 H 5.1664 0.821939 6.05043 0
M  V30 73 H 6.5804 2.8288 4.9865 0
M  V30 74 H 4.9774 3.5983 4.80253 0
M  V30 75 H 6.0474 3.4616 3.39561 0
M  V30 76 N 7.3905 -1.2043 1.01659 0
M  V30 77 C 8.3385 -2.25249 0.580143 0
M  V30 78 C 9.3325 -1.65057 -0.381115 0
M  V30 79 O 10.5385 -1.78241 -0.251039 0
M  V30 80 H 6.9135 -0.732695 0.169299 0
M  V30 81 H 8.8845 -2.59389 1.47512 0
M  V30 82 C 7.6335 -3.47638 -0.065788 0
M  V30 83 H 6.9565 -3.94233 0.664874 0
M  V30 84 H 8.3965 -4.2268 -0.334282 0
M  V30 85 C 6.8555 -3.10447 -1.3086 0
M  V30 86 O 7.3855 -3.21981 -2.4019 0
M  V30 87 N 5.5915 -2.64996 -1.1927 0
M  V30 88 H 5.1385 -2.55811 -0.303064 0
M  V30 89 H 5.0965 -2.40482 -2.02523 0
M  V30 90 N 8.8686 -0.792821 -1.36206 0
M  V30 91 C 10.1166 -0.366062 -1.98757 0
M  V30 92 C 10.4376 1.0668 -1.63231 0
M  V30 93 O 9.7076 1.73587 -0.907978 0
M  V30 94 H 8.2876 -0.132364 -0.735179 0
M  V30 95 H 10.9496 -1.01562 -1.66347 0
M  V30 96 H 10.0456 -0.460638 -3.08682 0
M  V30 97 N 10.3467 1.47872 -0.545128 0
M  V30 98 C 11.5937 2.02493 -0.0165858 0
M  V30 99 C 11.9217 1.42073 1.32836 0
M  V30 100 O 11.1767 0.561459 1.87473 0
M  V30 101 C 11.4757 3.57131 0.13867 0
M  V30 102 C 11.1417 4.36411 -1.13384 0
M  V30 103 C 9.8037 4.57792 -1.48256 0
M  V30 104 C 12.1557 4.82223 -1.97764 0
M  V30 105 C 9.4837 5.22233 -2.67376 0
M  V30 106 C 11.8357 5.47977 -3.16076 0
M  V30 107 C 10.4997 5.67593 -3.51275 0
M  V30 108 H 9.7697 0.740975 -0.00606918 0
M  V30 109 H 12.4167 1.77683 -0.714207 0
M  V30 110 H 10.7217 3.80865 0.919172 0
M  V30 111 H 12.4187 3.97031 0.562782 0
M  V30 112 H 9.0087 4.2004 -0.852297 0
M  V30 113 H 13.1927 4.65493 -1.72132 0
M  V30 114 H 8.4487 5.35616 -2.94831 0
M  V30 115 H 12.6227 5.8244 -3.81755 0
M  V30 116 H 10.2497 6.17298 -4.43675 0
M  V30 117 N 11.8248 0.280983 1.55075 0
M  V30 118 C 12.7748 -0.618585 2.19448 0
M  V30 119 C 13.7588 -1.11401 1.16098 0
M  V30 120 O 14.9508 -1.0581 1.41891 0
M  V30 121 C 12.0798 -1.79951 2.92357 0
M  V30 122 C 11.1658 -1.321 4.03002 0
M  V30 123 N 11.5568 -0.559044 5.02701 0
M  V30 124 C 9.8548 -1.60346 4.16179 0
M  V30 125 C 10.5558 -0.306722 5.80891 0
M  V30 126 N 9.5318 -0.880825 5.36416 0
M  V30 127 H 13.3338 -0.0286638 2.93886 0
M  V30 128 H 10.8478 0.0848104 1.62178 0
M  V30 129 H 12.8448 -2.45531 3.36927 0
M  V30 130 H 11.5048 -2.39333 2.19431 0
M  V30 131 H 12.5158 -0.205827 5.17491 0
M  V30 132 H 9.1928 -2.20621 3.54447 0
M  V30 133 H 10.5828 0.30391 6.71212 0
M  V30 134 N 13.3029 -1.57598 0.00835791 0
M  V30 135 C 14.2129 -2.12385 -0.996487 0
M  V30 136 C 15.2289 -1.07108 -1.37127 0
M  V30 137 O 16.4049 -1.39055 -1.4569 0
M  V30 138 C 13.4699 -2.62314 -2.26699 0
M  V30 139 C 12.5309 -3.82225 -1.95456 0
M  V30 140 C 11.7639 -4.29763 -3.16449 0
M  V30 141 O 11.9869 -3.76584 -4.28416 0
M  V30 142 O 10.9209 -5.21832 -2.99958 0
M  V30 143 H 14.7469 -2.98479 -0.560725 0
M  V30 144 H 12.3319 -1.47903 -0.210987 0
M  V30 145 H 14.2139 -2.94589 -3.01322 0
M  V30 146 H 12.8889 -1.79313 -2.69497 0
M  V30 147 H 11.7959 -3.54909 -1.18282 0
M  V30 148 H 13.1289 -4.66324 -1.57489 0
M  V30 149 N 14.781 0.264519 -1.55364 0
M  V30 150 C 15.744 1.31046 -1.88042 0
M  V30 151 C 16.744 1.41943 -0.755569 0
M  V30 152 O 17.934 1.40947 -1.02369 0
M  V30 153 C 15.066 2.69067 -2.09323 0
M  V30 154 H 16.259 1.03297 -2.81549 0
M  V30 155 H 13.812 0.502989 -1.47986 0
M  V30 156 H 14.547 3.01982 -1.18226 0
M  V30 157 H 14.332 2.62542 -2.91229 0
M  V30 158 H 15.822 3.44623 -2.35848 0
M  V30 159 N 16.2591 1.48442 0.529413 0
M  V30 160 C 17.5061 1.56488 1.28521 0
M  V30 161 C 17.8341 0.239042 1.93025 0
M  V30 162 O 17.0891 -0.770713 1.79885 0
M  V30 163 C 17.3881 2.6523 2.39558 0
M  V30 164 C 17.0541 4.07648 1.92702 0
M  V30 165 C 15.7161 4.46411 1.79641 0
M  V30 166 C 18.0681 4.96896 1.573 0
M  V30 167 C 15.3961 5.72226 1.29514 0
M  V30 168 C 17.7481 6.23202 1.08636 0
M  V30 169 C 16.4121 6.60821 0.941919 0
M  V30 170 H 15.6821 0.572631 0.470292 0
M  V30 171 H 18.3291 1.82161 0.59072 0
M  V30 172 H 16.6341 2.33419 3.14679 0
M  V30 173 H 18.3311 2.68671 2.97686 0
M  V30 174 H 14.9211 3.77036 2.03819 0
M  V30 175 H 19.1051 4.67626 1.66251 0
M  V30 176 H 14.3611 6.00097 1.17019 0
M  V30 177 H 18.5351 6.91753 0.803136 0
M  V30 178 H 16.1621 7.58198 0.5513 0
M  V30 179 N 17.7372 -0.778329 1.37039 0
M  V30 180 C 18.9862 -1.53189 1.3121 0
M  V30 181 C 19.2992 -1.95328 -0.103095 0
M  V30 182 O 20.5052 -2.70012 -0.283826 0
M  V30 183 C 18.9612 -2.76591 2.30272 0
M  V30 184 C 18.5692 -2.41577 3.77286 0
M  V30 185 C 20.3132 -3.5455 2.33441 0
M  V30 186 C 18.2202 -3.61441 4.68096 0
M  V30 187 H 17.1502 -0.5751 0.487622 0
M  V30 188 H 19.8012 -0.853101 1.62464 0
M  V30 189 H 18.1832 -3.46326 1.92027 0
M  V30 190 H 19.3572 -1.79668 4.2433 0
M  V30 191 H 17.6722 -1.76806 3.76999 0
M  V30 192 H 20.2692 -4.43628 2.98493 0
M  V30 193 H 20.6122 -3.93936 1.34611 0
M  V30 194 H 21.1452 -2.91805 2.7036 0
M  V30 195 H 17.8842 -3.27142 5.6803 0
M  V30 196 H 17.4042 -4.22478 4.25761 0
M  V30 197 H 19.0832 -4.28335 4.8491 0
M  V30 198 N 19.2153 -1.21501 -1.00376 0
M  V30 199 C 20.1253 -0.991447 -2.12621 0
M  V30 200 C 21.1413 0.0568446 -1.73907 0
M  V30 201 O 22.3173 -0.13348 -2.00957 0
M  V30 202 C 19.3823 -0.560312 -3.42142 0
M  V30 203 C 18.4433 -1.68096 -3.95022 0
M  V30 204 C 17.6763 -1.2703 -5.18362 0
M  V30 205 O 17.8993 -0.144438 -5.70217 0
M  V30 206 O 16.8333 -2.08269 -5.64719 0
M  V30 207 H 20.6593 -1.93158 -2.34358 0
M  V30 208 H 18.2443 -0.999999 -1.10997 0
M  V30 209 H 20.1263 -0.329724 -4.20108 0
M  V30 210 H 18.8013 0.351089 -3.2179 0
M  V30 211 H 17.7083 -1.96597 -3.18278 0
M  V30 212 H 19.0413 -2.56983 -4.19786 0
M  V30 213 N 20.6934 1.19889 -1.02296 0
M  V30 214 C 21.6034 2.26571 -0.608508 0
M  V30 215 C 22.6194 1.70299 0.356964 0
M  V30 216 O 23.7954 2.00235 0.216326 0
M  V30 217 C 20.8604 3.46677 0.0402814 0
M  V30 218 C 19.9214 4.18153 -0.97194 0
M  V30 219 C 19.1544 5.32525 -0.354016 0
M  V30 220 O 19.3774 5.64112 0.844604 0
M  V30 221 O 18.3114 5.92242 -1.07391 0
M  V30 222 H 22.1374 2.64251 -1.49684 0
M  V30 223 H 19.7224 1.26629 -0.792809 0
M  V30 224 H 21.6044 4.19475 0.402324 0
M  V30 225 H 20.2794 3.10858 0.902707 0
M  V30 226 H 19.1864 3.47499 -1.38546 0
M  V30 227 H 20.5194 4.57927 -1.80454 0
M  V30 228 N 22.1715 0.800033 1.35784 0
M  V30 229 C 23.4195 0.376597 1.9856 0
M  V30 230 C 23.7405 -1.05812 1.63795 0
M  V30 231 O 23.0105 -1.73103 0.917171 0
M  V30 232 H 21.5905 0.136261 0.734467 0
M  V30 233 H 24.2525 1.02442 1.65806 0
M  V30 234 H 23.3485 0.477002 3.08433 0
M  V30 235 N 23.6496 -1.47581 0.552962 0
M  V30 236 C 24.8776 -2.06875 0.0320556 0
M  V30 237 C 25.2926 -1.40625 -1.25976 0
M  V30 238 O 24.6496 -0.501349 -1.75479 0
M  V30 239 C 24.7006 -3.61092 -0.17167 0
M  V30 240 O 24.4216 -4.24858 1.06899 0
M  V30 241 C 25.9226 -4.37242 -0.730344 0
M  V30 242 H 23.1426 -0.669561 0.043915 0
M  V30 243 H 25.6866 -1.89646 0.765163 0
M  V30 244 H 23.8416 -3.7785 -0.854894 0
M  V30 245 H 24.2556 -5.17334 0.864059 0
M  V30 246 H 25.7296 -5.45842 -0.822203 0
M  V30 247 H 26.2066 -4.03235 -1.74064 0
M  V30 248 H 26.8126 -4.25219 -0.0829543 0
M  V30 249 N 25.1277 -0.289203 -1.54924 0
M  V30 250 C 26.3747 0.323519 -1.99899 0
M  V30 251 C 26.7027 1.54797 -1.17762 0
M  V30 252 O 25.9577 1.94237 -0.238835 0
M  V30 253 C 26.2567 0.736119 -3.49737 0
M  V30 254 C 25.9227 -0.385276 -4.49251 0
M  V30 255 C 24.5847 -0.693156 -4.76181 0
M  V30 256 C 26.9367 -1.14021 -5.08575 0
M  V30 257 C 24.2647 -1.7593 -5.59701 0
M  V30 258 C 26.6167 -2.19619 -5.93254 0
M  V30 259 C 25.2807 -2.51026 -6.185 0
M  V30 260 H 24.5507 0.118384 -0.731482 0
M  V30 261 H 27.1977 -0.405847 -1.8715 0
M  V30 262 H 25.5027 1.54539 -3.60035 0
M  V30 263 H 27.1997 1.22118 -3.81953 0
M  V30 264 H 23.7897 -0.135202 -4.28387 0
M  V30 265 H 27.9737 -0.915611 -4.87781 0
M  V30 266 H 23.2297 -2.0075 -5.77503 0
M  V30 267 H 27.4037 -2.78581 -6.38252 0
M  V30 268 H 25.0307 -3.33772 -6.83008 0
M  V30 269 N 26.6058 1.57591 -0.0167156 0
M  V30 270 C 27.5358 2.12496 0.967858 0
M  V30 271 C 28.5168 1.03807 1.34752 0
M  V30 272 O 29.7018 1.31577 1.42833 0
M  V30 273 C 26.8318 2.64194 2.25431 0
M  V30 274 C 25.7858 3.77559 2.01576 0
M  V30 275 C 25.1118 4.15636 3.36379 0
M  V30 276 C 26.4118 5.04151 1.36489 0
M  V30 277 H 28.1058 2.95013 0.510643 0
M  V30 278 H 25.6518 1.41915 0.244181 0
M  V30 279 H 27.6048 3.01236 2.94678 0
M  V30 280 H 26.3288 1.78821 2.73296 0
M  V30 281 H 24.9878 3.40937 1.34751 0
M  V30 282 H 24.6358 3.27263 3.81979 0
M  V30 283 H 24.3358 4.92022 3.21229 0
M  V30 284 H 25.8598 4.5525 4.06915 0
M  V30 285 H 27.2738 5.38857 1.95718 0
M  V30 286 H 25.6708 5.85453 1.31776 0
M  V30 287 H 26.7408 4.83733 0.336219 0
M  V30 288 N 28.0839 -0.256276 1.55502 0
M  V30 289 C 29.3309 -0.985619 1.76895 0
M  V30 290 C 29.6589 -1.85671 0.579355 0
M  V30 291 O 28.9139 -1.90744 -0.437651 0
M  V30 292 C 29.2129 -1.88432 3.03691 0
M  V30 293 C 28.8789 -1.16936 4.35473 0
M  V30 294 C 27.5409 -0.97173 4.71286 0
M  V30 295 C 29.8929 -0.661889 5.1698 0
M  V30 296 C 27.2209 -0.254179 5.86149 0
M  V30 297 C 29.5729 0.042149 6.32586 0
M  V30 298 C 28.2369 0.25134 6.67027 0
M  V30 299 H 27.5069 -0.360663 0.647304 0
M  V30 300 H 30.1539 -0.256483 1.89775 0
M  V30 301 H 28.4589 -2.68021 2.85783 0
M  V30 302 H 30.1559 -2.45015 3.1744 0
M  V30 303 H 26.7459 -1.33332 4.07333 0
M  V30 304 H 30.9299 -0.802145 4.89775 0
M  V30 305 H 26.1859 -0.0815408 6.11346 0
M  V30 306 H 30.3599 0.443049 6.94989 0
M  V30 307 H 27.9869 0.809314 7.5588 0
M  V30 308 N 29.562 -1.4872 -0.521534 0
M  V30 309 C 30.79 -1.60843 -1.30142 0
M  V30 310 C 31.205 -0.271897 -1.86832 0
M  V30 311 O 30.562 0.739969 -1.66825 0
M  V30 312 C 30.613 -2.66155 -2.4463 0
M  V30 313 O 30.334 -3.94623 -1.90275 0
M  V30 314 C 31.835 -2.88795 -3.36322 0
M  V30 315 H 29.055 -0.542075 -0.395468 0
M  V30 316 H 31.599 -1.94609 -0.628285 0
M  V30 317 H 29.754 -2.35224 -3.07812 0
M  V30 318 H 30.168 -4.52468 -2.65279 0
M  V30 319 H 31.642 -3.66264 -4.12983 0
M  V30 320 H 32.119 -1.97934 -3.9207 0
M  V30 321 H 32.725 -3.21063 -2.78924 0
M  V30 322 N 31.0401 0.771051 -1.3745 0
M  V30 323 C 32.2651 1.56529 -1.36065 0
M  V30 324 C 32.6901 1.88029 0.0515859 0
M  V30 325 O 32.0481 1.49282 1.02882 0
M  V30 326 C 32.0961 2.85187 -2.20683 0
M  V30 327 O 31.2001 3.79593 -1.61193 0
M  V30 328 H 30.5411 0.47411 -0.464883 0
M  V30 329 H 33.0711 0.954269 -1.80983 0
M  V30 330 H 33.0811 3.34283 -2.33921 0
M  V30 331 H 31.7561 2.61588 -3.23334 0
M  V30 332 H 30.3331 3.38239 -1.56999 0
M  V30 333 N 32.5182 1.22032 0.997298 0
M  V30 334 C 33.4282 1.00271 2.12092 0
M  V30 335 C 34.4442 -0.047621 1.73935 0
M  V30 336 O 35.6202 0.144136 2.00884 0
M  V30 337 C 32.6852 0.578449 3.4184 0
M  V30 338 C 31.7462 1.70189 3.94125 0
M  V30 339 C 30.9792 1.29778 5.17681 0
M  V30 340 O 31.2022 0.174676 5.70132 0
M  V30 341 O 30.1362 2.11261 5.63607 0
M  V30 342 H 33.9622 1.94398 2.3333 0
M  V30 343 H 31.5472 1.00587 1.10465 0
M  V30 344 H 33.4292 0.351998 4.19927 0
M  V30 345 H 32.1042 -0.334019 3.21972 0
M  V30 346 H 31.0112 1.98282 3.1723 0
M  V30 347 H 32.3442 2.59206 4.18417 0
M  V30 348 N 33.9963 -1.19345 1.0293 0
M  V30 349 C 35.2213 -1.93538 0.745511 0
M  V30 350 C 35.6463 -1.75007 -0.689511 0
M  V30 351 O 35.0043 -1.05265 -1.47611 0
M  V30 352 C 35.0523 -3.43336 1.10239 0
M  V30 353 O 34.1563 -4.11806 0.221289 0
M  V30 354 H 33.4973 -0.604193 0.275404 0
M  V30 355 H 36.0273 -1.5141 1.37609 0
M  V30 356 H 36.0373 -3.94004 1.05947 0
M  V30 357 H 34.7123 -3.56146 2.14786 0
M  V30 358 H 33.2893 -3.715 0.322842 0
M  V30 359 N 35.4744 -0.807222 -1.35358 0
M  V30 360 C 36.7204 -0.388463 -1.99045 0
M  V30 361 C 37.0534 1.04184 -1.63888 0
M  V30 362 O 36.3284 1.72292 -0.902535 0
M  V30 363 C 36.6114 -0.572783 -3.55515 0
M  V30 364 C 36.4644 -2.04807 -4.00468 0
M  V30 365 C 37.7834 0.00114064 -4.401 0
M  V30 366 H 34.9024 -0.142619 -0.723069 0
M  V30 367 H 37.5444 -1.01687 -1.60498 0
M  V30 368 H 35.6944 -0.0378425 -3.88482 0
M  V30 369 H 37.3664 -2.64544 -3.77908 0
M  V30 370 H 35.6094 -2.54427 -3.51353 0
M  V30 371 H 36.2804 -2.12792 -5.09337 0
M  V30 372 H 38.7564 -0.455716 -4.13597 0
M  V30 373 H 37.6324 -0.157737 -5.48673 0
M  V30 374 H 37.8934 1.09488 -4.28328 0
M  V30 375 N 36.9525 1.47285 -0.560781 0
M  V30 376 C 38.2005 2.02064 -0.0379868 0
M  V30 377 C 38.5215 1.43711 1.31803 0
M  V30 378 O 37.7915 0.61362 1.86042 0
M  V30 379 H 36.3715 0.746918 -0.0110531 0
M  V30 380 H 39.0335 1.80648 -0.731598 0
M  V30 381 H 38.1295 3.12064 0.0474463 0
M  V30 382 N 38.4306 0.297415 1.54768 0
M  V30 383 C 39.3406 -0.58983 2.27064 0
M  V30 384 C 40.3566 -1.15144 1.30453 0
M  V30 385 O 41.5326 -1.17699 1.63428 0
M  V30 386 C 38.5976 -1.74714 2.9946 0
M  V30 387 C 37.6586 -1.21997 4.11601 0
M  V30 388 C 36.8916 -2.32212 4.80535 0
M  V30 389 O 37.1146 -3.52036 4.48806 0
M  V30 390 O 36.0486 -1.99106 5.68014 0
M  V30 391 H 39.8746 -0.00348199 3.037 0
M  V30 392 H 37.4596 0.0640035 1.49263 0
M  V30 393 H 39.3416 -2.42147 3.44881 0
M  V30 394 H 38.0166 -2.32016 2.25722 0
M  V30 395 H 36.9236 -0.511458 3.70587 0
M  V30 396 H 38.2566 -0.692419 4.87305 0
M  V30 397 N 39.9087 -1.5758 0.0250728 0
M  V30 398 C 41.1567 -1.91255 -0.653151 0
M  V30 399 C 41.4777 -0.901691 -1.729 0
M  V30 400 O 40.7477 0.0573785 -1.95816 0
M  V30 401 H 39.3277 -0.705942 -0.244243 0
M  V30 402 H 41.9897 -1.94767 0.0719209 0
M  V30 403 H 41.0857 -2.91752 -1.10847 0
M  V30 404 N 41.3868 0.248026 -1.55636 0
M  V30 405 C 42.3368 1.30994 -1.86614 0
M  V30 406 C 43.3208 1.43543 -0.726918 0
M  V30 407 O 44.5128 1.46804 -0.988818 0
M  V30 408 C 41.6418 2.6656 -2.16335 0
M  V30 409 C 40.7278 2.58019 -3.36581 0
M  V30 410 N 41.1188 2.1911 -4.55878 0
M  V30 411 C 39.4168 2.89035 -3.39669 0
M  V30 412 C 40.1178 2.21174 -5.38012 0
M  V30 413 N 39.0938 2.60632 -4.77045 0
M  V30 414 H 42.8958 0.999583 -2.76379 0
M  V30 415 H 40.4098 0.456652 -1.55848 0
M  V30 416 H 42.4068 3.43194 -2.36692 0
M  V30 417 H 41.0668 2.98463 -1.27867 0
M  V30 418 H 42.0778 1.90672 -4.81523 0
M  V30 419 H 38.7548 3.25485 -2.61469 0
M  V30 420 H 40.1448 1.9344 -6.43452 0
M  V30 421 N 42.8649 1.48995 0.513639 0
M  V30 422 C 44.2759 1.5119 1.09537 0
M  V30 423 C 44.6269 0.290906 1.94031 0
M  V30 424 O 43.7519 -0.60049 2.07902 0
M  V30 425 C 44.3469 2.73964 1.99322 0
M  V30 426 C 42.9059 2.78978 2.52682 0
M  V30 427 C 42.0529 2.44934 1.30009 0
M  V30 428 H 45.0039 1.55875 0.298125 0
M  V30 429 H 45.0249 2.53409 2.83838 0
M  V30 430 H 44.5369 3.62813 1.37799 0
M  V30 431 H 42.6379 1.94378 3.1788 0
M  V30 432 H 42.7509 3.8083 2.90698 0
M  V30 433 H 41.1149 1.9644 1.62122 0
M  V30 434 H 41.8979 3.36043 0.702131 0
M  V30 435 N 44.343 -0.763751 1.37857 0
M  V30 436 C 45.62 -1.51244 1.24035 0
M  V30 437 C 46 -2.10472 -0.162649 0
M  V30 438 O 45.348 -1.96206 -1.17112 0
M  V30 439 C 45.558 -2.58694 2.34261 0
M  V30 440 C 46.906 -3.25878 2.72193 0
M  V30 441 O 47.93 -2.68993 2.33497 0
M  V30 442 O 46.789 -4.2874 3.38887 0
M  V30 443 H 43.883 -0.670243 0.484462 0
M  V30 444 H 46.429 -0.800031 1.49658 0
M  V30 445 H 45.201 -2.13105 3.2818 0
M  V30 446 H 44.824 -3.37527 2.10146 0
M  V30 447 N 45.8211 -1.22559 -0.990812 0
M  V30 448 C 46.7681 -0.997519 -2.0813 0
M  V30 449 C 47.7381 0.0814702 -1.659 0
M  V30 450 O 48.9231 -0.0685424 -1.90677 0
M  V30 451 C 46.0631 -0.583615 -3.40129 0
M  V30 452 C 45.1761 -1.7336 -3.9569 0
M  V30 453 C 44.3111 -1.26748 -5.15857 0
M  V30 454 C 43.3501 -2.38888 -5.63559 0
M  V30 455 N 42.4871 -1.93308 -6.74964 0
M  V30 456 H 47.3271 -1.93099 -2.26973 0
M  V30 457 H 44.8641 -0.962114 -1.11273 0
M  V30 458 H 46.8221 -0.324801 -4.15934 0
M  V30 459 H 45.4521 0.312845 -3.2128 0
M  V30 460 H 44.5041 -2.10669 -3.16738 0
M  V30 461 H 45.8161 -2.57704 -4.27071 0
M  V30 462 H 44.9701 -0.966173 -5.98957 0
M  V30 463 H 43.7091 -0.394272 -4.86104 0
M  V30 464 H 42.7141 -2.69805 -4.79046 0
M  V30 465 H 43.9391 -3.26728 -5.95336 0
M  V30 466 H 41.8851 -1.08352 -6.4699 0
M  V30 467 H 41.8021 -2.71217 -7.05675 0
M  V30 468 H 43.0701 -1.66252 -7.61564 0
M  V30 469 N 47.2992 1.18797 -1.03562 0
M  V30 470 C 48.5482 1.87978 -0.731235 0
M  V30 471 C 48.8612 1.80911 0.743671 0
M  V30 472 O 50.0672 2.45407 1.16137 0
M  V30 473 C 48.5232 3.3721 -1.25768 0
M  V30 474 C 48.1312 3.52818 -2.76085 0
M  V30 475 C 49.8752 4.11825 -1.0296 0
M  V30 476 C 47.7822 4.9598 -3.22114 0
M  V30 477 H 46.7122 0.704063 -0.269835 0
M  V30 478 H 49.3632 1.34266 -1.25079 0
M  V30 479 H 47.7452 3.90359 -0.666011 0
M  V30 480 H 48.9192 3.09965 -3.40966 0
M  V30 481 H 47.2342 2.91602 -2.97249 0
M  V30 482 H 49.8312 5.17411 -1.34869 0
M  V30 483 H 50.1742 4.16287 0.0333546 0
M  V30 484 H 50.7072 3.64833 -1.58562 0
M  V30 485 H 47.4462 4.96684 -4.27768 0
M  V30 486 H 46.9662 5.39569 -2.61965 0
M  V30 487 H 48.6452 5.6467 -3.15844 0
M  V30 488 N 48.7773 0.814389 1.34928 0
M  V30 489 C 50.0173 0.404165 2.00364 0
M  V30 490 C 50.3813 -1.01166 1.63185 0
M  V30 491 O 51.5823 -1.52431 2.21401 0
M  V30 492 C 49.8533 0.590718 3.52484 0
M  V30 493 S 51.4123 0.272075 4.37956 0
M  V30 494 H 48.2303 0.15311 0.694319 0
M  V30 495 H 50.8323 1.05834 1.64376 0
M  V30 496 H 49.5363 1.62099 3.77031 0
M  V30 497 H 49.0673 -0.0785013 3.93322 0
M  V30 498 H 51.0823 -0.917405 4.87645 0
M  V30 499 N 50.2554 -1.46986 0.568584 0
M  V30 500 C 51.5324 -1.95592 -0.0174074 0
M  V30 501 C 51.9124 -1.51124 -1.47393 0
M  V30 502 O 51.2604 -0.755329 -2.15655 0
M  V30 503 C 51.4704 -3.48719 0.139913 0
M  V30 504 C 52.8184 -4.246 0.000426376 0
M  V30 505 O 53.8424 -3.56135 0.0680316 0
M  V30 506 O 52.7014 -5.46302 -0.146988 0
M  V30 507 H 49.7954 -0.82498 -0.0577599 0
M  V30 508 H 52.3414 -1.57335 0.635909 0
M  V30 509 H 51.1134 -3.73927 1.15301 0
M  V30 510 H 50.7364 -3.93771 -0.550491 0
M  V30 511 N 51.7335 -0.305618 -1.54608 0
M  V30 512 C 52.6655 0.602161 -2.21149 0
M  V30 513 C 53.6785 1.09394 -1.20569 0
M  V30 514 O 54.8675 1.0106 -1.47136 0
M  V30 515 C 51.9675 1.83692 -2.84799 0
M  V30 516 C 51.1405 1.48686 -4.11353 0
M  V30 517 C 50.1995 2.57725 -4.58764 0
M  V30 518 O 49.2255 2.22623 -5.23858 0
M  V30 519 N 50.4275 3.88346 -4.31471 0
M  V30 520 H 53.1925 0.0324966 -2.99682 0
M  V30 521 H 50.7535 -0.128021 -1.61393 0
M  V30 522 H 52.7455 2.55994 -3.13448 0
M  V30 523 H 51.3155 2.31486 -2.10078 0
M  V30 524 H 50.5355 0.596269 -3.89664 0
M  V30 525 H 51.8235 1.22842 -4.93748 0
M  V30 526 H 51.2215 4.19671 -3.79331 0
M  V30 527 H 49.7785 4.56932 -4.64818 0
M  V30 528 N 53.2116 1.57565 -0.0334293 0
M  V30 529 C 54.4606 1.91155 0.643639 0
M  V30 530 C 54.7736 0.91192 1.73042 0
M  V30 531 O 55.9796 1.13923 2.46442 0
M  V30 532 C 54.4356 3.39443 1.1961 0
M  V30 533 C 54.0436 4.47774 0.142381 0
M  V30 534 C 55.7876 3.82094 1.84944 0
M  V30 535 C 53.6946 5.87162 0.706727 0
M  V30 536 H 52.6246 0.713368 0.244176 0
M  V30 537 H 55.2756 1.8323 -0.0994323 0
M  V30 538 H 53.6576 3.42313 1.99092 0
M  V30 539 H 54.8316 4.56469 -0.630296 0
M  V30 540 H 53.1466 4.14352 -0.412446 0
M  V30 541 H 55.7436 4.83591 2.2813 0
M  V30 542 H 56.0866 3.17386 2.69392 0
M  V30 543 H 56.6196 3.81665 1.12145 0
M  V30 544 H 53.3586 6.55424 -0.0997178 0
M  V30 545 H 52.8786 5.82064 1.44779 0
M  V30 546 H 54.5576 6.35866 1.19514 0
M  V30 547 N 54.6897 -0.239769 1.55765 0
M  V30 548 C 55.9147 -0.988373 1.82335 0
M  V30 549 C 56.3397 -1.77886 0.611421 0
M  V30 550 O 55.6977 -1.75889 -0.439639 0
M  V30 551 C 55.7457 -1.89627 3.06715 0
M  V30 552 O 54.8497 -2.98904 2.84131 0
M  V30 553 H 54.1907 -0.280858 0.601677 0
M  V30 554 H 56.7207 -0.258597 2.02959 0
M  V30 555 H 56.7307 -2.30957 3.36338 0
M  V30 556 H 55.4057 -1.31511 3.9456 0
M  V30 557 H 53.9827 -2.61651 2.65694 0
M  V30 558 N 56.1678 -1.49265 -0.50573 0
M  V30 559 C 57.4448 -1.49012 -1.26707 0
M  V30 560 C 57.8248 -0.215205 -2.1 0
M  V30 561 O 57.1728 0.802547 -2.13943 0
M  V30 562 C 57.3828 -2.7663 -2.12783 0
M  V30 563 C 58.7308 -3.25932 -2.72127 0
M  V30 564 O 59.7548 -2.77715 -2.23054 0
M  V30 565 O 58.6138 -4.09897 -3.61451 0
M  V30 566 H 55.7078 -0.596197 -0.57313 0
M  V30 567 H 58.2538 -1.61524 -0.52039 0
M  V30 568 H 57.0258 -3.60916 -1.5118 0
M  V30 569 H 56.6488 -2.66956 -2.94653 0
M  V30 570 N 57.6459 0.756429 -1.3826 0
M  V30 571 C 58.6089 1.85176 -1.35065 0
M  V30 572 C 59.6089 1.58818 -0.251703 0
M  V30 573 O 60.7989 1.66615 -0.508433 0
M  V30 574 C 57.9309 3.22596 -1.10201 0
M  V30 575 H 59.1239 1.89417 -2.3251 0
M  V30 576 H 56.6769 0.95783 -1.23512 0
M  V30 577 H 57.4119 3.24025 -0.133504 0
M  V30 578 H 57.1969 3.43122 -1.89762 0
M  V30 579 H 58.6869 4.02673 -1.10654 0
M  V30 580 N 59.124 1.23083 0.984299 0
M  V30 581 C 60.37 1.06214 1.72761 0
M  V30 582 C 60.703 -0.400584 1.90024 0
M  V30 583 O 59.978 -1.29672 1.44967 0
M  V30 584 C 60.261 1.78375 3.12817 0
M  V30 585 C 60.114 3.32296 3.03149 0
M  V30 586 C 61.433 1.54309 4.12161 0
M  V30 587 H 58.552 0.387251 0.627061 0
M  V30 588 H 61.194 1.51536 1.14616 0
M  V30 589 H 59.344 1.39848 3.62457 0
M  V30 590 H 61.016 3.8032 2.61064 0
M  V30 591 H 59.259 3.6153 2.39747 0
M  V30 592 H 59.93 3.77972 4.02295 0
M  V30 593 H 62.406 1.87791 3.71314 0
M  V30 594 H 61.282 2.07281 5.08258 0
M  V30 595 H 61.543 0.477572 4.39513 0
M  V30 596 N 60.6021 -1.18246 1.0419 0
M  V30 597 C 61.5321 -2.24127 0.654914 0
M  V30 598 C 62.5131 -1.66617 -0.342451 0
M  V30 599 O 63.6981 -1.92924 -0.222277 0
M  V30 600 C 60.8281 -3.47295 0.0183757 0
M  V30 601 C 59.7821 -4.17563 0.939414 0
M  V30 602 C 59.1081 -5.34438 0.167286 0
M  V30 603 C 60.4081 -4.70917 2.25908 0
M  V30 604 H 62.1021 -2.56753 1.54007 0
M  V30 605 H 59.6481 -1.23414 0.74195 0
M  V30 606 H 61.6011 -4.20572 -0.264082 0
M  V30 607 H 60.3251 -3.13907 -0.901664 0
M  V30 608 H 58.9841 -3.46186 1.20628 0
M  V30 609 H 58.6321 -4.97298 -0.7552 0
M  V30 610 H 58.3321 -5.82388 0.780901 0
M  V30 611 H 59.8561 -6.10504 -0.108125 0
M  V30 612 H 61.2701 -5.35882 2.03724 0
M  V30 613 H 59.6671 -5.29406 2.82577 0
M  V30 614 H 60.7371 -3.88272 2.9047 0
M  V30 615 N 62.0802 -0.821533 -1.34494 0
M  V30 616 C 63.3572 -0.33159 -1.92769 0
M  V30 617 C 63.7372 1.18088 -1.74981 0
M  V30 618 O 63.0852 1.98733 -1.12772 0
M  V30 619 C 63.2952 -0.759398 -3.40638 0
M  V30 620 C 64.6432 -0.757433 -4.1779 0
M  V30 621 O 65.6672 -0.70189 -3.49216 0
M  V30 622 O 64.5262 -0.829361 -5.4017 0
M  V30 623 H 61.6202 -0.0902502 -0.822061 0
M  V30 624 H 64.1662 -0.906231 -1.43477 0
M  V30 625 H 62.9382 -1.8012 -3.47379 0
M  V30 626 H 62.5612 -0.160378 -3.97276 0
M  V30 627 N 63.5583 1.46682 -0.576371 0
M  V30 628 C 64.5213 2.28707 0.150239 0
M  V30 629 C 65.5213 1.38035 0.824794 0
M  V30 630 O 66.7113 1.60476 0.677719 0
M  V30 631 C 63.8433 3.18248 1.22192 0
M  V30 632 H 65.0363 2.94423 -0.570521 0
M  V30 633 H 62.5893 1.52688 -0.334078 0
M  V30 634 H 63.3243 2.57265 1.97447 0
M  V30 635 H 63.1093 3.85 0.742812 0
M  V30 636 H 64.5993 3.80001 1.73172 0
M  V30 637 N 65.0364 0.313813 1.54444 0
M  V30 638 C 65.9864 -0.571898 2.20711 0
M  V30 639 C 66.9704 -1.08913 1.18435 0
M  V30 640 O 68.1624 -1.02777 1.44104 0
M  V30 641 C 65.2914 -1.7371 2.96108 0
M  V30 642 C 64.3774 -1.23522 4.05713 0
M  V30 643 N 64.7684 -0.452288 5.03774 0
M  V30 644 C 63.0664 -1.51482 4.19487 0
M  V30 645 C 63.7674 -0.183438 5.81411 0
M  V30 646 N 62.7434 -0.766845 5.38164 0
M  V30 647 H 66.5454 0.0336802 2.93881 0
M  V30 648 H 64.0594 0.119192 1.61962 0
M  V30 649 H 66.0564 -2.38329 3.4206 0
M  V30 650 H 64.7164 -2.34625 2.24458 0
M  V30 651 H 65.7274 -0.0960131 5.17811 0
M  V30 652 H 62.4044 -2.13053 3.59047 0
M  V30 653 H 63.7944 0.446216 6.70417 0
M  V30 654 N 66.5145 -1.57545 0.0417849 0
M  V30 655 C 67.4445 -2.14009 -0.933929 0
M  V30 656 C 68.4255 -1.05938 -1.33083 0
M  V30 657 O 69.6105 -1.33833 -1.40721 0
M  V30 658 C 66.7405 -2.67747 -2.21199 0
M  V30 659 C 65.6945 -3.80718 -1.95544 0
M  V30 660 C 65.0205 -4.20935 -3.29724 0
M  V30 661 C 66.3205 -5.06258 -1.28452 0
M  V30 662 H 68.0145 -2.95788 -0.463645 0
M  V30 663 H 65.5605 -1.42285 -0.221573 0
M  V30 664 H 67.5135 -3.05886 -2.89848 0
M  V30 665 H 66.2375 -1.83147 -2.70416 0
M  V30 666 H 64.8965 -3.43037 -1.2931 0
M  V30 667 H 64.5445 -3.33298 -3.76724 0
M  V30 668 H 64.2445 -4.9707 -3.13361 0
M  V30 669 H 65.7685 -4.61666 -3.9962 0
M  V30 670 H 67.1825 -5.41903 -1.8712 0
M  V30 671 H 65.5795 -5.87475 -1.22445 0
M  V30 672 H 66.6495 -4.84207 -0.259219 0
M  V30 673 N 67.9926 0.231505 -1.5589 0
M  V30 674 C 68.9246 1.31006 -1.8807 0
M  V30 675 C 69.9376 1.43539 -0.768145 0
M  V30 676 O 71.1266 1.44614 -1.04638 0
M  V30 677 C 68.2266 2.68688 -2.06543 0
M  V30 678 C 67.3996 2.78228 -3.37502 0
M  V30 679 C 66.4586 3.96857 -3.4553 0
M  V30 680 O 65.4846 3.85662 -4.18633 0
M  V30 681 N 66.6866 5.1072 -2.75944 0
M  V30 682 H 69.4516 1.03731 -2.81176 0
M  V30 683 H 67.0126 0.421573 -1.56315 0
M  V30 684 H 69.0046 3.46412 -2.09239 0
M  V30 685 H 67.5746 2.88605 -1.20109 0
M  V30 686 H 66.7946 1.87059 -3.46991 0
M  V30 687 H 68.0826 2.81564 -4.23791 0
M  V30 688 H 67.4806 5.2271 -2.16311 0
M  V30 689 H 66.0376 5.86523 -2.84314 0
M  V30 690 N 69.4707 1.49531 0.497807 0
M  V30 691 C 70.4027 1.62559 1.61578 0
M  V30 692 C 71.4157 0.508134 1.54667 0
M  V30 693 O 72.6047 0.780309 1.60541 0
M  V30 694 C 69.7047 1.56925 3.00379 0
M  V30 695 C 68.8777 2.84257 3.3244 0
M  V30 696 C 67.9367 2.71632 4.50669 0
M  V30 697 O 66.9627 3.4557 4.52294 0
M  V30 698 N 68.1647 1.83391 5.5077 0
M  V30 699 H 70.9297 2.58981 1.50828 0
M  V30 700 H 68.4907 1.4666 0.685743 0
M  V30 701 H 70.4827 1.46129 3.77397 0
M  V30 702 H 69.0527 0.683483 3.05037 0
M  V30 703 H 68.2727 3.09381 2.44289 0
M  V30 704 H 69.5607 3.68666 3.5066 0
M  V30 705 H 68.9587 1.22583 5.52259 0
M  V30 706 H 67.5157 1.78515 6.26878 0
M  V30 707 N 70.9488 -0.749086 1.3866 0
M  V30 708 C 72.2258 -1.4992 1.25632 0
M  V30 709 C 72.6058 -2.10633 -0.140317 0
M  V30 710 O 71.9538 -1.97437 -1.15025 0
M  V30 711 C 72.1638 -2.56195 2.36992 0
M  V30 712 C 73.5118 -3.22972 2.75634 0
M  V30 713 O 74.5358 -2.66502 2.36337 0
M  V30 714 O 73.3948 -4.25122 3.43415 0
M  V30 715 H 70.4888 -0.665067 0.491544 0
M  V30 716 H 73.0348 -0.784113 1.50498 0
M  V30 717 H 71.8068 -2.09612 3.30422 0
M  V30 718 H 71.4298 -3.35279 2.13714 0
M  V30 719 N 72.4269 -1.23603 -0.977757 0
M  V30 720 C 73.8379 -1.06424 -1.53398 0
M  V30 721 C 74.1889 0.367578 -1.92726 0
M  V30 722 O 73.3139 1.25465 -1.76316 0
M  V30 723 C 73.9089 -1.92568 -2.78753 0
M  V30 724 C 72.4679 -1.79642 -3.30765 0
M  V30 725 C 71.6149 -1.88111 -2.03739 0
M  V30 726 H 74.5659 -1.37227 -0.797152 0
M  V30 727 H 74.5869 -1.45203 -3.51705 0
M  V30 728 H 74.0989 -2.96771 -2.50098 0
M  V30 729 H 72.1999 -0.782325 -3.64294 0
M  V30 730 H 72.3129 -2.63174 -4.00345 0
M  V30 731 H 70.6769 -1.31723 -2.17994 0
M  V30 732 H 71.4599 -2.93875 -1.77461 0
M  V30 733 N 73.905 1.17692 -1.04816 0
M  V30 734 C 75.182 1.83768 -0.669963 0
M  V30 735 C 75.562 1.93232 0.849986 0
M  V30 736 O 74.91 1.46397 1.75443 0
M  V30 737 C 75.12 3.21641 -1.35455 0
M  V30 738 C 76.468 3.97592 -1.49017 0
M  V30 739 O 77.492 3.31107 -1.31326 0
M  V30 740 O 76.351 5.16729 -1.77914 0
M  V30 741 H 73.445 0.792799 -0.235368 0
M  V30 742 H 75.991 1.25021 -1.14751 0
M  V30 743 H 74.763 3.097 -2.39168 0
M  V30 744 H 74.386 3.88052 -0.866107 0
M  V30 745 N 75.3831 0.828654 1.34056 0
M  V30 746 C 76.3461 0.259927 2.27721 0
M  V30 747 C 77.3461 -0.565478 1.50529 0
M  V30 748 O 78.5361 -0.38075 1.69988 0
M  V30 749 C 75.6681 -0.634944 3.34935 0
M  V30 750 H 76.8611 1.0863 2.79534 0
M  V30 751 H 74.4141 0.600951 1.44285 0
M  V30 752 H 75.1491 -1.48416 2.88346 0
M  V30 753 H 74.9341 -0.0444999 3.92075 0
M  V30 754 H 76.4241 -1.02648 4.04788 0
M  V30 755 N 76.8612 -1.46375 0.584142 0
M  V30 756 C 77.8082 -2.30323 -0.148286 0
M  V30 757 C 78.7782 -1.40703 -0.882713 0
M  V30 758 O 79.9632 -1.69651 -0.873099 0
M  V30 759 C 77.1032 -3.25196 -1.15507 0
M  V30 760 C 76.2162 -4.29915 -0.423943 0
M  V30 761 C 75.3512 -5.11914 -1.41838 0
M  V30 762 C 74.3902 -6.08381 -0.673736 0
M  V30 763 N 73.5272 -6.83242 -1.6163 0
M  V30 764 H 78.3672 -2.92427 0.573644 0
M  V30 765 H 75.9042 -1.44118 0.294703 0
M  V30 766 H 77.8622 -3.78646 -1.75166 0
M  V30 767 H 76.4922 -2.64898 -1.8447 0
M  V30 768 H 75.5442 -3.7931 0.287714 0
M  V30 769 H 76.8562 -4.98549 0.158128 0
M  V30 770 H 76.0102 -5.69648 -2.08773 0
M  V30 771 H 74.7492 -4.43243 -2.03438 0
M  V30 772 H 73.7542 -5.49799 0.00938483 0
M  V30 773 H 74.9792 -6.79071 -0.0631082 0
M  V30 774 H 72.9252 -6.1728 -2.22038 0
M  V30 775 H 72.8422 -7.48144 -1.08707 0
M  V30 776 H 74.1102 -7.45534 -2.27596 0
M  V30 777 N 78.3393 -0.321999 -1.54275 0
M  V30 778 C 79.5853 0.281461 -2.00837 0
M  V30 779 C 79.9183 1.51909 -1.20985 0
M  V30 780 O 79.1933 1.923 -0.291733 0
M  V30 781 C 79.4763 0.617162 -3.54772 0
M  V30 782 C 79.3293 -0.631064 -4.45351 0
M  V30 783 C 80.6483 1.43542 -4.16033 0
M  V30 784 H 77.7673 0.100826 -0.730071 0
M  V30 785 H 80.4093 -0.438268 -1.84876 0
M  V30 786 H 78.5593 1.23034 -3.68504 0
M  V30 787 H 80.2313 -1.26934 -4.43492 0
M  V30 788 H 78.4743 -1.26025 -4.15091 0
M  V30 789 H 79.1453 -0.351735 -5.50878 0
M  V30 790 H 81.6213 0.917134 -4.05867 0
M  V30 791 H 80.4973 1.63907 -5.23856 0
M  V30 792 H 80.7583 2.43108 -3.69257 0
M  V30 793 N 79.8174 1.5752 -0.0501392 0
M  V30 794 C 80.7804 2.1037 0.909786 0
M  V30 795 C 81.7804 1.02308 1.24056 0
M  V30 796 O 82.9704 1.28385 1.17741 0
M  V30 797 C 80.1024 2.58708 2.21998 0
M  V30 798 H 81.2954 2.96479 0.451665 0
M  V30 799 H 78.8484 1.55038 0.198248 0
M  V30 800 H 79.5834 1.75989 2.72394 0
M  V30 801 H 79.3684 3.37675 1.99295 0
M  V30 802 H 80.8584 2.99747 2.9076 0
M  V30 803 N 81.2955 -0.223234 1.56011 0
M  V30 804 C 82.5355 -0.954962 1.8072 0
M  V30 805 C 82.8995 -1.81598 0.623384 0
M  V30 806 O 84.1005 -2.58132 0.749745 0
M  V30 807 C 82.3715 -1.77313 3.10314 0
M  V30 808 S 83.9305 -2.56073 3.56332 0
M  V30 809 H 80.7485 -0.320812 0.634508 0
M  V30 810 H 83.3505 -0.220686 1.9425 0
M  V30 811 H 82.0545 -1.13071 3.94516 0
M  V30 812 H 81.5855 -2.54974 2.99586 0
M  V30 813 H 83.6005 -3.79619 3.19536 0
M  V30 814 N 82.7736 -1.49793 -0.48987 0
M  V30 815 C 83.6836 -1.70036 -1.61632 0
M  V30 816 C 84.6996 -0.583102 -1.63939 0
M  V30 817 O 85.8756 -0.859169 -1.82154 0
M  V30 818 C 82.9406 -1.77277 -2.97949 0
M  V30 819 C 82.0016 -3.00918 -3.06181 0
M  V30 820 C 81.2346 -3.07804 -4.35996 0
M  V30 821 O 81.4576 -2.21982 -5.25433 0
M  V30 822 O 80.3916 -4.00369 -4.49431 0
M  V30 823 H 84.2176 -2.65486 -1.47482 0
M  V30 824 H 81.8026 -1.33666 -0.667362 0
M  V30 825 H 83.6846 -1.84329 -3.78947 0
M  V30 826 H 82.3596 -0.850076 -3.12339 0
M  V30 827 H 81.2666 -2.99377 -2.2433 0
M  V30 828 H 82.5996 -3.92704 -2.96723 0
M  V30 829 N 84.2517 0.741722 -1.39055 0
M  V30 830 C 85.4797 1.53098 -1.39171 0
M  V30 831 C 85.8947 1.88794 0.0155099 0
M  V30 832 O 85.2517 1.53626 0.985159 0
M  V30 833 C 85.3027 2.82274 -2.2584 0
M  V30 834 O 85.0237 2.48097 -3.61081 0
M  V30 835 C 86.5247 3.76343 -2.34266 0
M  V30 836 H 83.7447 0.473335 -0.4756 0
M  V30 837 H 86.2887 0.917045 -1.82785 0
M  V30 838 H 84.4437 3.40015 -1.85656 0
M  V30 839 H 84.8577 3.31029 -4.06842 0
M  V30 840 H 86.3317 4.63898 -2.9917 0
M  V30 841 H 86.8087 4.17619 -1.35982 0
M  V30 842 H 87.4147 3.24523 -2.74891 0
M  V30 843 N 85.7298 1.2412 0.971189 0
M  V30 844 C 86.9758 1.08041 1.71625 0
M  V30 845 C 87.3088 -0.380407 1.90438 0
M  V30 846 O 86.5838 -1.28127 1.46334 0
M  V30 847 C 86.8668 1.81682 3.10908 0
M  V30 848 C 86.7198 3.35493 2.99608 0
M  V30 849 C 88.0388 1.58671 4.10501 0
M  V30 850 H 85.1578 0.39388 0.622919 0
M  V30 851 H 87.7998 1.52743 1.13003 0
M  V30 852 H 85.9498 1.43684 3.60953 0
M  V30 853 H 87.6218 3.83068 2.57015 0
M  V30 854 H 85.8648 3.64052 2.35899 0
M  V30 855 H 86.5358 3.82217 3.98264 0
M  V30 856 H 89.0118 1.91719 3.69301 0
M  V30 857 H 87.8878 2.1266 5.06031 0
M  V30 858 H 88.1488 0.524161 4.38982 0
M  V30 859 N 87.2079 -1.17134 1.05439 0
M  V30 860 C 88.1709 -2.19439 0.661764 0
M  V30 861 C 89.1709 -1.58199 -0.288042 0
M  V30 862 O 90.3609 -1.74053 -0.0715803 0
M  V30 863 C 87.4929 -3.40889 -0.0276209 0
M  V30 864 H 88.6859 -2.55688 1.56728 0
M  V30 865 H 86.2389 -1.31259 0.848567 0
M  V30 866 H 86.9739 -3.10187 -0.94629 0
M  V30 867 H 86.7589 -3.86586 0.655238 0
M  V30 868 H 88.2489 -4.16603 -0.288342 0
M  V30 869 N 88.686 -0.835752 -1.33615 0
M  V30 870 C 89.633 -0.26473 -2.29277 0
M  V30 871 C 90.603 0.617712 -1.54187 0
M  V30 872 O 91.788 0.556641 -1.825 0
M  V30 873 C 88.928 0.556777 -3.40579 0
M  V30 874 C 88.041 -0.349339 -4.30585 0
M  V30 875 C 87.176 0.482969 -5.29 0
M  V30 876 C 86.215 -0.421732 -6.10645 0
M  V30 877 N 85.352 0.372262 -7.01112 0
M  V30 878 H 90.192 -1.08582 -2.77514 0
M  V30 879 H 87.729 -0.546927 -1.36554 0
M  V30 880 H 89.687 1.04852 -4.03809 0
M  V30 881 H 88.317 1.34286 -2.93542 0
M  V30 882 H 87.369 -0.959372 -3.68104 0
M  V30 883 H 88.681 -1.04445 -4.87742 0
M  V30 884 H 87.835 1.03866 -5.97743 0
M  V30 885 H 86.574 1.21153 -4.72412 0
M  V30 886 H 85.579 -0.989464 -5.40823 0
M  V30 887 H 86.804 -1.14861 -6.69316 0
M  V30 888 H 84.75 1.08426 -6.46977 0
M  V30 889 H 84.667 -0.264198 -7.55538 0
M  V30 890 H 85.935 0.910293 -7.74167 0
M  V30 891 N 90.1641 1.46063 -0.591896 0
M  V30 892 C 91.3921 2.06717 -0.0868936 0
M  V30 893 C 91.8071 1.43916 1.22203 0
M  V30 894 O 91.1641 0.547698 1.74088 0
M  V30 895 C 91.2151 3.6142 0.0758725 0
M  V30 896 O 90.9361 4.21874 -1.18126 0
M  V30 897 C 92.4371 4.39025 0.61416 0
M  V30 898 H 89.6571 0.668162 -0.0616518 0
M  V30 899 H 92.2011 1.8755 -0.815175 0
M  V30 900 H 90.3561 3.79983 0.754413 0
M  V30 901 H 90.7701 5.14861 -1.00092 0
M  V30 902 H 92.2441 5.4783 0.677193 0
M  V30 903 H 92.7211 4.07708 1.63312 0
M  V30 904 H 93.3271 4.2529 -0.0298142 0
M  V30 905 N 91.6422 0.330177 1.54103 0
M  V30 906 C 92.8902 -0.269871 2.0029 0
M  V30 907 C 93.2112 -1.52133 1.21986 0
M  V30 908 O 92.4812 -1.93212 0.323438 0
M  V30 909 H 91.0612 -0.10271 0.739905 0
M  V30 910 H 93.7232 0.448249 1.89675 0
M  V30 911 H 92.8192 -0.52166 3.07709 0
M  V30 912 N 93.1203 -1.57491 0.0584922 0
M  V30 913 C 94.0533 -2.07533 -0.948969 0
M  V30 914 C 95.0313 -0.977444 -1.29942 0
M  V30 915 O 96.2153 -1.2499 -1.41102 0
M  V30 916 C 93.3423 -2.52192 -2.2609 0
M  V30 917 C 92.3883 -3.73287 -2.06298 0
M  V30 918 S 93.2213 -5.18603 -1.33459 0
M  V30 919 C 94.3773 -5.66583 -2.65959 0
M  V30 920 H 94.6103 -2.92662 -0.523118 0
M  V30 921 H 92.1433 -1.53631 -0.153954 0
M  V30 922 H 94.1013 -2.78585 -3.01498 0
M  V30 923 H 92.7623 -1.67356 -2.65802 0
M  V30 924 H 91.9553 -4.0248 -3.03357 0
M  V30 925 H 91.5573 -3.47199 -1.39029 0
M  V30 926 H 93.8493 -5.72616 -3.62101 0
M  V30 927 H 94.7923 -6.65684 -2.41393 0
M  V30 928 H 95.2003 -4.94342 -2.72554 0
M  V30 929 N 94.5984 0.214957 -1.56127 0
M  V30 930 C 95.8474 0.936451 -1.78643 0
M  V30 931 C 96.1604 1.85237 -0.628229 0
M  V30 932 O 97.3664 2.613 -0.737186 0
M  V30 933 C 95.8224 1.7154 -3.16389 0
M  V30 934 C 95.4304 0.845299 -4.39953 0
M  V30 935 C 97.1744 2.42772 -3.48227 0
M  V30 936 C 95.0814 1.62198 -5.68723 0
M  V30 937 H 94.0114 0.353401 -0.666051 0
M  V30 938 H 96.6624 0.190169 -1.82512 0
M  V30 939 H 95.0444 2.50484 -3.06715 0
M  V30 940 H 96.2184 0.0959353 -4.607 0
M  V30 941 H 94.5334 0.244789 -4.1568 0
M  V30 942 H 97.1304 3.01394 -4.41663 0
M  V30 943 H 97.4734 3.15984 -2.71035 0
M  V30 944 H 98.0064 1.70813 -3.5926 0
M  V30 945 H 94.7454 0.933011 -6.48826 0
M  V30 946 H 94.2654 2.34579 -5.52026 0
M  V30 947 H 95.9444 2.18095 -6.09133 0
M  V30 948 N 96.0765 1.50051 0.48192 0
M  V30 949 C 97.0065 1.71046 1.58951 0
M  V30 950 C 97.9875 0.559288 1.60642 0
M  V30 951 O 99.1725 0.797243 1.77081 0
M  V30 952 C 96.3025 1.79462 2.97339 0
M  V30 953 C 95.2565 2.94558 3.10515 0
M  V30 954 C 94.5825 2.88105 4.50444 0
M  V30 955 C 95.8825 4.35227 2.88747 0
M  V30 956 H 97.5765 2.6378 1.41635 0
M  V30 957 H 95.1225 1.26936 0.679942 0
M  V30 958 H 97.0755 1.92734 3.74742 0
M  V30 959 H 95.7995 0.833412 3.15788 0
M  V30 960 H 94.4585 2.80918 2.35543 0
M  V30 961 H 94.1065 1.89853 4.65795 0
M  V30 962 H 93.8065 3.65366 4.60197 0
M  V30 963 H 95.3305 3.03412 5.29881 0
M  V30 964 H 96.7445 4.49449 3.55905 0
M  V30 965 H 95.1415 5.13856 3.09955 0
M  V30 966 H 96.2115 4.48347 1.84696 0
M  V30 967 N 97.5546 -0.734337 1.39446 0
M  V30 968 C 98.4846 -1.86155 1.40955 0
M  V30 969 C 99.4656 -1.67898 0.272827 0
M  V30 970 O 100.651 -1.88207 0.478743 0
M  V30 971 C 97.7806 -3.23912 1.25294 0
M  V30 972 C 96.7346 -3.56808 2.36373 0
M  V30 973 C 96.0606 -4.93508 2.058 0
M  V30 974 C 97.3606 -3.59713 3.78687 0
M  V30 975 H 99.0546 -1.8515 2.35287 0
M  V30 976 H 96.6006 -0.889367 1.13253 0
M  V30 977 H 98.5536 -4.02443 1.2497 0
M  V30 978 H 97.2776 -3.25446 0.274308 0
M  V30 979 H 95.9366 -2.80606 2.35914 0
M  V30 980 H 95.5846 -4.91623 1.06374 0
M  V30 981 H 95.2846 -5.16486 2.80208 0
M  V30 982 H 96.8086 -5.74396 2.07128 0
M  V30 983 H 98.2226 -4.2832 3.81071 0
M  V30 984 H 96.6196 -3.94209 4.52459 0
M  V30 985 H 97.6896 -2.59504 4.09617 0
M  V30 986 N 99.0327 -1.24633 -0.964593 0
M  V30 987 C 99.9957 -1.0424 -2.04124 0
M  V30 988 C 100.996 0.00137563 -1.608 0
M  V30 989 O 102.186 -0.239883 -1.7254 0
M  V30 990 C 99.3177 -0.580588 -3.3592 0
M  V30 991 H 100.511 -1.99803 -2.23649 0
M  V30 992 H 98.0637 -1.06899 -1.14027 0
M  V30 993 H 98.7987 0.3781 -3.22088 0
M  V30 994 H 98.5837 -1.33398 -3.6871 0
M  V30 995 H 100.074 -0.459034 -4.15069 0
M  V30 996 N 100.511 1.16574 -1.06058 0
M  V30 997 C 101.759 1.86677 -0.77434 0
M  V30 998 C 102.08 1.81959 0.701147 0
M  V30 999 O 101.35 1.2515 1.50713 0
M  V30 1000 H 99.9298 0.691134 -0.283449 0
M  V30 1001 H 102.592 1.41378 -1.34158 0
M  V30 1002 H 101.688 2.92181 -1.09711 0
M  V30 1003 N 101.989 0.842826 1.3317 0
M  V30 1004 C 102.899 0.281444 2.32906 0
M  V30 1005 C 103.915 -0.594587 1.63526 0
M  V30 1006 O 105.091 -0.49777 1.95152 0
M  V30 1007 C 102.156 -0.530929 3.42611 0
M  V30 1008 C 101.217 0.369843 4.27704 0
M  V30 1009 C 100.45 -0.403853 5.3217 0
M  V30 1010 O 100.673 -1.63513 5.46461 0
M  V30 1011 O 99.6069 0.224199 6.01482 0
M  V30 1012 H 103.433 1.10744 2.82789 0
M  V30 1013 H 101.018 0.60545 1.36582 0
M  V30 1014 H 102.9 -0.992437 4.09547 0
M  V30 1015 H 101.575 -1.33392 2.94938 0
M  V30 1016 H 100.482 0.879275 3.6362 0
M  V30 1017 H 101.815 1.13771 4.78871 0
M  V30 1018 N 103.467 -1.45747 0.599634 0
M  V30 1019 C 104.716 -2.01502 0.0893511 0
M  V30 1020 C 105.029 -1.4748 -1.28488 0
M  V30 1021 O 106.235 -1.95161 -1.88745 0
M  V30 1022 C 104.691 -3.59735 0.109082 0
M  V30 1023 C 104.299 -4.22754 1.48267 0
M  V30 1024 C 106.043 -4.23085 -0.346374 0
M  V30 1025 C 103.95 -5.73115 1.45921 0
M  V30 1026 H 102.88 -0.753417 0.0296347 0
M  V30 1027 H 105.531 -1.67303 0.753788 0
M  V30 1028 H 103.913 -3.91087 -0.621854 0
M  V30 1029 H 105.087 -4.02987 2.23468 0
M  V30 1030 H 103.402 -3.71567 1.87955 0
M  V30 1031 H 105.999 -5.33327 -0.38298 0
M  V30 1032 H 106.342 -3.93201 -1.36743 0
M  V30 1033 H 106.875 -3.9642 0.331038 0
M  V30 1034 H 103.614 -6.07685 2.45762 0
M  V30 1035 H 103.134 -5.95097 0.749665 0
M  V30 1036 H 104.813 -6.3616 1.17941 0
M  V30 1037 N 104.945 -0.338344 -1.53925 0
M  V30 1038 C 106.173 0.261298 -2.05243 0
M  V30 1039 C 106.588 1.44625 -1.21363 0
M  V30 1040 O 105.945 1.80811 -0.247736 0
M  V30 1041 C 105.996 0.681412 -3.5502 0
M  V30 1042 O 105.717 -0.456414 -4.35716 0
M  V30 1043 C 107.218 1.34232 -4.22489 0
M  V30 1044 H 104.438 0.0513685 -0.669031 0
M  V30 1045 H 106.982 -0.488822 -1.98572 0
M  V30 1046 H 105.137 1.38148 -3.61931 0
M  V30 1047 H 105.551 -0.122564 -5.24357 0
M  V30 1048 H 107.025 1.58708 -5.28693 0
M  V30 1049 H 107.502 2.29426 -3.74514 0
M  V30 1050 H 108.108 0.684424 -4.19757 0
M  V30 1051 N 106.423 1.57458 -0.0668435 0
M  V30 1052 C 107.648 1.9804 0.616027 0
M  V30 1053 C 108.073 0.944771 1.62652 0
M  V30 1054 O 107.431 -0.0902094 1.81075 0
M  V30 1055 C 107.479 3.37665 1.26549 0
M  V30 1056 O 106.583 3.36701 2.38131 0
M  V30 1057 H 105.924 0.644719 0.158849 0
M  V30 1058 H 108.454 2.04121 -0.139891 0
M  V30 1059 H 108.464 3.7474 1.6135 0
M  V30 1060 H 107.139 4.12573 0.525016 0
M  V30 1061 H 105.716 3.1139 2.0516 0
M  V30 1062 N 107.901 -0.206675 1.56239 0
M  V30 1063 C 109.317 -0.557025 1.49564 0
M  V30 1064 C 109.517 -1.86424 0.764735 0
M  V30 1065 O 108.573 -2.50584 0.310491 0
M  V30 1066 C 109.886 -0.622478 2.94186 0
M  V30 1067 C 111.434 -0.712099 3.04792 0
M  V30 1068 C 111.909 -0.808767 4.50803 0
M  V30 1069 N 113.4 -0.8726 4.54907 0
M  V30 1070 C 114.135 -0.967365 5.65181 0
M  V30 1071 N 113.631 -1.02515 6.85173 0
M  V30 1072 N 115.424 -1.00366 5.53067 0
M  V30 1073 H 107.575 0.650943 2.02179 0
M  V30 1074 H 109.838 0.230387 0.919579 0
M  V30 1075 H 109.544 0.268727 3.50672 0
M  V30 1076 H 109.418 -1.4811 3.46905 0
M  V30 1077 H 111.805 -1.59374 2.48363 0
M  V30 1078 H 111.886 0.172489 2.55218 0
M  V30 1079 H 111.53 0.0684754 5.07854 0
M  V30 1080 H 111.46 -1.70899 4.98098 0
M  V30 1081 H 113.951 -0.837657 3.68499 0
M  V30 1082 H 114.264 -1.09765 7.64965 0
M  V30 1083 H 112.609 -0.994026 6.87855 0
M  V30 1084 H 115.8 -0.95527 4.58249 0
M  V30 1085 H 115.973 -1.07405 6.39037 0
M  V30 1086 N 109.379 -1.50304 -0.473955 0
M  V30 1087 C 110.342 -1.6841 -1.55469 0
M  V30 1088 C 111.342 -0.554905 -1.50922 0
M  V30 1089 O 112.532 -0.821882 -1.53593 0
M  V30 1090 C 109.664 -1.70667 -2.95102 0
M  V30 1091 H 110.857 -2.64828 -1.40733 0
M  V30 1092 H 108.41 -1.39742 -0.700132 0
M  V30 1093 H 109.145 -0.75932 -3.15285 0
M  V30 1094 H 108.93 -2.52698 -2.9981 0
M  V30 1095 H 110.42 -1.8664 -3.73571 0
M  V30 1096 N 110.857 0.726932 -1.39834 0
M  V30 1097 C 111.82 1.82269 -1.38962 0
M  V30 1098 C 112.82 1.58248 -0.285334 0
M  V30 1099 O 114.01 1.65499 -0.54366 0
M  V30 1100 C 111.142 3.20186 -1.17019 0
M  V30 1101 H 112.335 1.84443 -2.36476 0
M  V30 1102 H 109.888 0.931416 -1.25516 0
M  V30 1103 H 110.623 3.23669 -0.202204 0
M  V30 1104 H 110.408 3.3902 -1.96998 0
M  V30 1105 H 111.898 4.00235 -1.1917 0
M  V30 1106 N 112.336 1.25143 0.95797 0
M  V30 1107 C 113.582 1.09855 1.70469 0
M  V30 1108 C 113.915 -0.360187 1.90831 0
M  V30 1109 O 113.19 -1.26568 1.47685 0
M  V30 1110 C 113.473 1.8497 3.08963 0
M  V30 1111 C 113.326 3.38652 2.96032 0
M  V30 1112 C 114.645 1.63016 4.08795 0
M  V30 1113 H 111.764 0.400465 0.618706 0
M  V30 1114 H 114.406 1.53933 1.11376 0
M  V30 1115 H 112.556 1.47505 3.59409 0
M  V30 1116 H 114.228 3.85772 2.52938 0
M  V30 1117 H 112.471 3.66534 2.32025 0
M  V30 1118 H 113.142 3.8642 3.94187 0
M  V30 1119 H 115.618 1.95625 3.67247 0
M  V30 1120 H 114.494 2.18015 5.03747 0
M  V30 1121 H 114.755 0.570692 4.38401 0
M  V30 1122 N 113.814 -1.1601 1.06675 0
M  V30 1123 C 115.091 -1.82679 0.699114 0
M  V30 1124 C 115.471 -1.94559 -0.819137 0
M  V30 1125 O 114.819 -1.49169 -1.73092 0
M  V30 1126 C 115.029 -3.19445 1.40555 0
M  V30 1127 C 116.377 -3.95171 1.55323 0
M  V30 1128 O 117.401 -3.28976 1.36577 0
M  V30 1129 O 116.26 -5.13833 1.86112 0
M  V30 1130 H 113.354 -0.788954 0.247951 0
M  V30 1131 H 115.9 -1.23179 1.16726 0
M  V30 1132 H 114.672 -3.05856 2.44065 0
M  V30 1133 H 114.295 -3.86625 0.927733 0
M  V30 1134 N 115.292 -0.849877 -1.32721 0
M  V30 1135 C 116.522 -0.46408 -2.0132 0
M  V30 1136 C 116.93 0.94246 -1.64056 0
M  V30 1137 O 116.273 1.6257 -0.855379 0
M  V30 1138 C 116.335 -0.517887 -3.5575 0
M  V30 1139 C 115.999 -1.88248 -4.16427 0
M  V30 1140 C 116.996 -2.84726 -4.35002 0
M  V30 1141 C 114.681 -2.17832 -4.52609 0
M  V30 1142 C 116.675 -4.08945 -4.8892 0
M  V30 1143 C 114.362 -3.42304 -5.06232 0
M  V30 1144 C 115.36 -4.37677 -5.24335 0
M  V30 1145 O 115.048 -5.59946 -5.76815 0
M  V30 1146 H 114.78 -0.181327 -0.651227 0
M  V30 1147 H 117.334 -1.14713 -1.70382 0
M  V30 1148 H 115.564 0.221997 -3.86062 0
M  V30 1149 H 117.253 -0.148366 -4.05629 0
M  V30 1150 H 118.019 -2.63174 -4.07388 0
M  V30 1151 H 113.898 -1.44385 -4.37806 0
M  V30 1152 H 117.442 -4.83396 -5.02966 0
M  V30 1153 H 113.339 -3.63709 -5.33278 0
M  V30 1154 H 114.107 -5.61838 -5.95214 0
M  V30 1155 N 116.77 1.45427 -0.607355 0
M  V30 1156 C 117.702 2.2871 0.149752 0
M  V30 1157 C 118.715 1.39937 0.831958 0
M  V30 1158 O 119.904 1.64313 0.697385 0
M  V30 1159 C 117.004 3.15673 1.23304 0
M  V30 1160 C 116.177 4.32722 0.637996 0
M  V30 1161 C 115.236 5.00895 1.61215 0
M  V30 1162 O 114.262 5.57697 1.13854 0
M  V30 1163 N 115.464 5.00159 2.94655 0
M  V30 1164 H 118.229 2.94328 -0.564882 0
M  V30 1165 H 115.79 1.55612 -0.446823 0
M  V30 1166 H 117.782 3.58144 1.88454 0
M  V30 1167 H 116.352 2.51965 1.8502 0
M  V30 1168 H 115.572 3.93734 -0.191572 0
M  V30 1169 H 116.86 5.08321 0.220665 0
M  V30 1170 H 116.258 4.553 3.35735 0
M  V30 1171 H 114.815 5.46495 3.55228 0
M  V30 1172 N 118.248 0.346503 1.53744 0
M  V30 1173 C 119.195 -0.508914 2.25119 0
M  V30 1174 C 120.165 -1.09315 1.25058 0
M  V30 1175 O 121.35 -1.12921 1.53797 0
M  V30 1176 C 118.49 -1.65246 3.02965 0
M  V30 1177 C 117.603 -1.09525 4.17886 0
M  V30 1178 C 116.738 -2.20634 4.83212 0
M  V30 1179 C 115.777 -1.62279 5.90196 0
M  V30 1180 N 114.914 -2.67143 6.49291 0
M  V30 1181 H 119.754 0.106283 2.9781 0
M  V30 1182 H 117.291 0.0642227 1.4696 0
M  V30 1183 H 119.249 -2.32574 3.4636 0
M  V30 1184 H 117.879 -2.2386 2.32565 0
M  V30 1185 H 116.931 -0.312818 3.79112 0
M  V30 1186 H 118.243 -0.628444 4.94825 0
M  V30 1187 H 117.397 -2.95821 5.29693 0
M  V30 1188 H 116.136 -2.70659 4.05703 0
M  V30 1189 H 115.141 -0.855989 5.43096 0
M  V30 1190 H 116.366 -1.13102 6.69615 0
M  V30 1191 H 114.312 -3.16417 5.74645 0
M  V30 1192 H 114.229 -2.25093 7.21713 0
M  V30 1193 H 115.497 -3.4209 7.00425 0
M  V30 1194 N 119.726 -1.57421 0.075193 0
M  V30 1195 C 120.972 -1.93905 -0.594025 0
M  V30 1196 C 121.305 -0.955701 -1.69056 0
M  V30 1197 O 120.58 0.0145373 -1.94495 0
M  V30 1198 C 120.863 -3.40638 -1.1678 0
M  V30 1199 C 120.716 -4.49733 -0.0776792 0
M  V30 1200 C 122.035 -3.88259 -2.07228 0
M  V30 1201 H 119.154 -0.705105 -0.214466 0
M  V30 1202 H 121.796 -1.8947 0.141854 0
M  V30 1203 H 119.946 -3.44549 -1.79494 0
M  V30 1204 H 121.618 -4.57942 0.555573 0
M  V30 1205 H 119.861 -4.29751 0.591286 0
M  V30 1206 H 120.532 -5.49549 -0.519603 0
M  V30 1207 H 123.008 -3.86376 -1.54445 0
M  V30 1208 H 121.884 -4.91533 -2.44308 0
M  V30 1209 H 122.145 -3.26396 -2.98191 0
M  V30 1210 N 121.204 0.198386 -1.56346 0
M  V30 1211 C 122.45 0.920648 -1.80698 0
M  V30 1212 C 122.783 1.83045 -0.648697 0
M  V30 1213 O 122.058 1.91308 0.350925 0
M  V30 1214 C 122.341 1.73971 -3.15287 0
M  V30 1215 C 122.194 0.85485 -4.41602 0
M  V30 1216 C 123.513 2.71296 -3.46535 0
M  V30 1217 H 120.632 0.333261 -0.657348 0
M  V30 1218 H 123.274 0.188198 -1.89066 0
M  V30 1219 H 121.424 2.36416 -3.08285 0
M  V30 1220 H 123.096 0.245362 -4.60647 0
M  V30 1221 H 121.339 0.161398 -4.335 0
M  V30 1222 H 122.01 1.46286 -5.32264 0
M  V30 1223 H 124.486 2.18983 -3.53816 0
M  V30 1224 H 123.362 3.2569 -4.41834 0
M  V30 1225 H 123.623 3.5018 -2.69864 0
M  V30 1226 N 122.682 1.50554 0.465978 0
M  V30 1227 C 124.098 1.38093 0.800154 0
M  V30 1228 C 124.298 0.440988 1.96615 0
M  V30 1229 O 123.354 -0.114499 2.5224 0
M  V30 1230 C 124.667 2.79565 1.10742 0
M  V30 1231 C 126.215 2.88516 1.21357 0
M  V30 1232 C 126.69 4.30833 1.55393 0
M  V30 1233 N 128.181 4.33807 1.62375 0
M  V30 1234 C 128.916 5.40927 1.90225 0
M  V30 1235 N 128.412 6.58247 2.16062 0
M  V30 1236 N 130.205 5.28376 1.9177 0
M  V30 1237 H 122.356 2.10237 -0.302366 0
M  V30 1238 H 124.619 0.945203 -0.0727746 0
M  V30 1239 H 124.325 3.50208 0.323661 0
M  V30 1240 H 124.199 3.17125 2.04234 0
M  V30 1241 H 126.586 2.1809 1.98799 0
M  V30 1242 H 126.667 2.54492 0.258321 0
M  V30 1243 H 126.311 5.01799 0.784889 0
M  V30 1244 H 126.241 4.62347 2.52076 0
M  V30 1245 H 128.732 3.49212 1.44427 0
M  V30 1246 H 129.045 7.3569 2.36601 0
M  V30 1247 H 127.39 6.61413 2.13444 0
M  V30 1248 H 130.581 4.35715 1.71085 0
M  V30 1249 H 130.754 6.11944 2.13139 0
M  V30 1250 N 124.16 -0.719506 1.40217 0
M  V30 1251 C 125.07 -1.86378 1.42479 0
M  V30 1252 C 126.086 -1.71073 0.317834 0
M  V30 1253 O 127.262 -1.93406 0.561794 0
M  V30 1254 C 124.327 -3.22136 1.28178 0
M  V30 1255 C 123.388 -3.49723 2.48982 0
M  V30 1256 C 122.621 -4.79004 2.35353 0
M  V30 1257 O 122.844 -5.53821 1.36524 0
M  V30 1258 O 121.778 -5.06839 3.2465 0
M  V30 1259 H 125.604 -1.87425 2.38968 0
M  V30 1260 H 123.189 -0.869405 1.21498 0
M  V30 1261 H 125.071 -4.03234 1.22395 0
M  V30 1262 H 123.746 -3.21825 0.347934 0
M  V30 1263 H 122.653 -2.6865 2.60342 0
M  V30 1264 H 123.986 -3.54828 3.41113 0
M  V30 1265 N 125.638 -1.25649 -0.95132 0
M  V30 1266 C 126.601 -1.06399 -2.03007 0
M  V30 1267 C 127.601 -0.0156794 -1.60792 0
M  V30 1268 O 128.791 -0.25817 -1.72276 0
M  V30 1269 C 125.923 -0.616184 -3.35285 0
M  V30 1270 H 127.116 -2.02164 -2.21517 0
M  V30 1271 H 124.669 -1.08103 -1.12887 0
M  V30 1272 H 125.404 0.343917 -3.22471 0
M  V30 1273 H 125.189 -1.37301 -3.67275 0
M  V30 1274 H 126.679 -0.503032 -4.14559 0
M  V30 1275 N 127.117 1.15442 -1.07289 0
M  V30 1276 C 128.363 1.86489 -0.796846 0
M  V30 1277 C 128.696 1.82078 0.675371 0
M  V30 1278 O 127.971 1.24346 1.4956 0
M  V30 1279 C 128.254 3.35626 -1.30489 0
M  V30 1280 C 128.107 3.48673 -2.84161 0
M  V30 1281 C 129.426 4.30357 -0.920907 0
M  V30 1282 H 126.545 0.677144 -0.290939 0
M  V30 1283 H 129.187 1.35633 -1.33056 0
M  V30 1284 H 127.337 3.79068 -0.850883 0
M  V30 1285 H 129.009 3.14099 -3.37846 0
M  V30 1286 H 127.252 2.90253 -3.22391 0
M  V30 1287 H 127.923 4.53453 -3.14777 0
M  V30 1288 H 130.399 3.94871 -1.3121 0
M  V30 1289 H 129.275 5.33193 -1.30372 0
M  V30 1290 H 129.536 4.4176 0.173226 0
M  V30 1291 N 128.595 0.856903 1.32268 0
M  V30 1292 C 129.542 0.301172 2.28827 0
M  V30 1293 C 130.512 -0.593104 1.5515 0
M  V30 1294 O 131.697 -0.527537 1.83362 0
M  V30 1295 C 128.837 -0.502523 3.41422 0
M  V30 1296 C 127.95 0.417797 4.29975 0
M  V30 1297 C 127.085 -0.398749 5.29701 0
M  V30 1298 C 126.124 0.518827 6.09897 0
M  V30 1299 N 125.261 -0.260674 7.01616 0
M  V30 1300 H 130.101 1.12983 2.75751 0
M  V30 1301 H 127.638 0.568582 1.35667 0
M  V30 1302 H 129.596 -0.984141 4.05426 0
M  V30 1303 H 128.226 -1.29599 2.95642 0
M  V30 1304 H 127.278 1.01781 3.66531 0
M  V30 1305 H 128.59 1.12191 4.86019 0
M  V30 1306 H 127.744 -0.943435 5.9932 0
M  V30 1307 H 126.483 -1.13622 4.7428 0
M  V30 1308 H 125.488 1.07538 5.39181 0
M  V30 1309 H 126.713 1.25495 6.67404 0
M  V30 1310 H 124.659 -0.981198 6.4862 0
M  V30 1311 H 124.576 0.384364 7.55022 0
M  V30 1312 H 125.844 -0.787014 7.75517 0
M  V30 1313 N 130.073 -1.45103 0.615059 0
M  V30 1314 C 131.023 -2.27679 -0.120966 0
M  V30 1315 C 132.007 -1.3775 -0.831491 0
M  V30 1316 O 133.199 -1.61683 -0.720249 0
M  V30 1317 C 130.328 -3.24767 -1.1127 0
M  V30 1318 C 129.414 -4.22184 -0.402627 0
M  V30 1319 N 129.805 -5.02692 0.559884 0
M  V30 1320 C 128.103 -4.4125 -0.649202 0
M  V30 1321 C 128.804 -5.73421 0.977942 0
M  V30 1322 N 127.78 -5.42657 0.320104 0
M  V30 1323 H 131.582 -2.87325 0.618181 0
M  V30 1324 H 129.096 -1.56345 0.439304 0
M  V30 1325 H 131.093 -3.82666 -1.65446 0
M  V30 1326 H 129.753 -2.66682 -1.85232 0
M  V30 1327 H 130.764 -5.09354 0.936976 0
M  V30 1328 H 127.441 -3.9428 -1.37293 0
M  V30 1329 H 128.831 -6.48107 1.77222 0
M  V30 1330 N 131.551 -0.354651 -1.53558 0
M  V30 1331 C 132.8 0.239504 -2.00273 0
M  V30 1332 C 133.113 1.50759 -1.24623 0
M  V30 1333 O 134.319 2.17968 -1.61871 0
M  V30 1334 C 132.775 0.477341 -3.5672 0
M  V30 1335 C 132.383 -0.775488 -4.41237 0
M  V30 1336 C 134.127 1.02975 -4.11821 0
M  V30 1337 C 132.034 -0.507838 -5.89216 0
M  V30 1338 H 130.964 0.0932743 -0.748208 0
M  V30 1339 H 133.615 -0.471701 -1.77334 0
M  V30 1340 H 131.997 1.24953 -3.7577 0
M  V30 1341 H 133.171 -1.54963 -4.33962 0
M  V30 1342 H 131.486 -1.25033 -3.97185 0
M  V30 1343 H 134.083 1.24513 -5.2 0
M  V30 1344 H 134.426 1.98862 -3.65731 0
M  V30 1345 H 134.959 0.317994 -3.96527 0
M  V30 1346 H 131.698 -1.43674 -6.39561 0
M  V30 1347 H 131.218 0.228011 -5.99366 0
M  V30 1348 H 132.897 -0.129238 -6.46871 0
M  V30 1349 N 133.029 1.57378 -0.0835403 0
M  V30 1350 C 134.277 1.93547 0.581718 0
M  V30 1351 C 134.598 0.96524 1.69435 0
M  V30 1352 O 133.868 0.0153369 1.95894 0
M  V30 1353 H 132.448 0.714521 0.217874 0
M  V30 1354 H 135.11 1.94366 -0.144158 0
M  V30 1355 H 134.206 2.95665 0.999423 0
M  V30 1356 N 134.507 -0.190092 1.56449 0
M  V30 1357 C 135.737 -0.92443 1.84764 0
M  V30 1358 C 136.145 -1.77146 0.664529 0
M  V30 1359 O 135.488 -1.79812 -0.375957 0
M  V30 1360 C 135.55 -1.86651 3.07248 0
M  V30 1361 C 135.214 -1.20094 4.40938 0
M  V30 1362 C 136.211 -0.575445 5.16706 0
M  V30 1363 C 133.896 -1.2033 4.87674 0
M  V30 1364 C 135.89 0.0388111 6.37388 0
M  V30 1365 C 133.577 -0.585214 6.08291 0
M  V30 1366 C 134.575 0.0347578 6.82991 0
M  V30 1367 O 134.263 0.643147 8.01323 0
M  V30 1368 H 133.995 -0.274974 0.617548 0
M  V30 1369 H 136.549 -0.200788 2.04416 0
M  V30 1370 H 134.779 -2.62998 2.83494 0
M  V30 1371 H 136.468 -2.46907 3.22167 0
M  V30 1372 H 137.234 -0.565728 4.81689 0
M  V30 1373 H 133.113 -1.67526 4.29484 0
M  V30 1374 H 136.657 0.523329 6.95634 0
M  V30 1375 H 132.554 -0.592451 6.42775 0
M  V30 1376 H 133.322 0.540545 8.16713 0
M  V30 1377 N 135.985 -1.50799 -0.457987 0
M  V30 1378 C 137.262 -1.52968 -1.21902 0
M  V30 1379 C 137.642 -0.281906 -2.09209 0
M  V30 1380 O 136.99 0.734076 -2.16388 0
M  V30 1381 C 137.2 -2.8326 -2.03875 0
M  V30 1382 C 138.548 -3.34425 -2.6162 0
M  V30 1383 O 139.572 -2.8467 -2.14106 0
M  V30 1384 O 138.431 -4.21188 -3.48228 0
M  V30 1385 H 135.525 -0.614129 -0.553873 0
M  V30 1386 H 138.071 -1.63098 -0.468739 0
M  V30 1387 H 136.843 -3.65543 -1.39621 0
M  V30 1388 H 136.466 -2.76195 -2.8601 0
M  V30 1389 N 137.463 0.71206 -1.40597 0
M  V30 1390 C 138.74 1.46536 -1.29563 0
M  V30 1391 C 139.12 2.10931 0.0844217 0
M  V30 1392 O 138.468 2.00418 1.0975 0
M  V30 1393 C 138.678 2.49821 -2.43701 0
M  V30 1394 C 140.026 3.15551 -2.841 0
M  V30 1395 O 141.05 2.60142 -2.4332 0
M  V30 1396 O 139.909 4.15867 -3.54566 0
M  V30 1397 H 137.003 0.651801 -0.509004 0
M  V30 1398 H 139.549 0.743935 -1.52524 0
M  V30 1399 H 138.321 2.00778 -3.35863 0
M  V30 1400 H 137.944 3.29495 -2.22528 0
M  V30 1401 N 138.941 1.26152 0.944643 0
M  V30 1402 C 140.166 1.14363 1.7302 0
M  V30 1403 C 140.591 -0.29772 1.85729 0
M  V30 1404 O 139.949 -1.2157 1.34501 0
M  V30 1405 C 139.997 1.81378 3.11664 0
M  V30 1406 O 139.101 1.10022 3.97453 0
M  V30 1407 H 138.442 0.398694 0.53098 0
M  V30 1408 H 140.972 1.66906 1.18337 0
M  V30 1409 H 140.982 1.88064 3.62072 0
M  V30 1410 H 139.657 2.86237 3.0173 0
M  V30 1411 H 138.234 1.11287 3.55907 0
M  V30 1412 N 140.419 -1.14872 1.07899 0
M  V30 1413 C 141.644 -1.90202 0.826926 0
M  V30 1414 C 142.069 -1.77774 -0.614664 0
M  V30 1415 O 141.427 -1.11431 -1.43013 0
M  V30 1416 C 141.475 -3.38352 1.24702 0
M  V30 1417 O 140.579 -4.10497 0.39575 0
M  V30 1418 H 139.92 -0.591968 0.300782 0
M  V30 1419 H 142.45 -1.45437 1.43907 0
M  V30 1420 H 142.46 -3.89156 1.22563 0
M  V30 1421 H 141.135 -3.46715 2.29698 0
M  V30 1422 H 139.712 -3.69796 0.480117 0
M  V30 1423 N 141.898 -0.863906 -1.31812 0
M  V30 1424 C 142.845 -0.313303 -2.28664 0
M  V30 1425 C 143.815 0.584868 -1.55462 0
M  V30 1426 O 145 0.517805 -1.83639 0
M  V30 1427 C 142.14 0.48441 -3.41683 0
M  V30 1428 C 141.253 -0.440594 -4.29747 0
M  V30 1429 C 140.388 0.370652 -5.29905 0
M  V30 1430 C 139.427 -0.551164 -6.09613 0
M  V30 1431 N 138.564 0.223462 -7.01744 0
M  V30 1432 H 143.404 -1.14444 -2.75148 0
M  V30 1433 H 140.941 -0.575769 -1.35364 0
M  V30 1434 H 142.899 0.962627 -4.05943 0
M  V30 1435 H 141.529 1.28029 -2.96325 0
M  V30 1436 H 140.581 -1.03724 -3.65986 0
M  V30 1437 H 141.893 -1.14767 -4.85417 0
M  V30 1438 H 141.047 0.911638 -5.99812 0
M  V30 1439 H 139.786 1.11105 -4.74876 0
M  V30 1440 H 138.791 -1.10396 -5.38603 0
M  V30 1441 H 140.016 -1.29032 -6.66729 0
M  V30 1442 H 137.962 0.946787 -6.49132 0
M  V30 1443 H 137.879 -0.424399 -7.54808 0
M  V30 1444 H 139.147 0.745876 -7.75923 0
M  V30 1445 N 143.376 1.44774 -0.622745 0
M  V30 1446 C 144.624 2.01721 -0.123655 0
M  V30 1447 C 144.945 1.49172 1.25589 0
M  V30 1448 O 144.215 0.691974 1.83272 0
M  V30 1449 H 142.795 0.745777 -0.0427225 0
M  V30 1450 H 145.457 1.77382 -0.807559 0
M  V30 1451 H 144.553 3.11984 -0.0849534 0
M  V30 1452 N 144.854 0.36279 1.53368 0
M  V30 1453 C 146.101 -0.227776 2.01215 0
M  V30 1454 C 146.429 -1.49003 1.25014 0
M  V30 1455 O 145.684 -1.92876 0.331236 0
M  V30 1456 C 145.983 -0.568417 3.52851 0
M  V30 1457 C 145.649 0.59918 4.46901 0
M  V30 1458 C 144.311 0.919559 4.72332 0
M  V30 1459 C 146.663 1.38156 5.02556 0
M  V30 1460 C 143.991 2.02434 5.5067 0
M  V30 1461 C 146.343 2.47674 5.821 0
M  V30 1462 C 145.007 2.8025 6.05819 0
M  V30 1463 H 144.277 -0.083349 0.736297 0
M  V30 1464 H 146.924 0.494677 1.85001 0
M  V30 1465 H 145.229 -1.37185 3.66998 0
M  V30 1466 H 146.926 -1.03756 3.87344 0
M  V30 1467 H 143.516 0.339437 4.27254 0
M  V30 1468 H 147.7 1.14729 4.82857 0
M  V30 1469 H 142.956 2.28075 5.67267 0
M  V30 1470 H 147.13 3.08716 6.24234 0
M  V30 1471 H 144.757 3.65979 6.66306 0
M  V30 1472 N 146.332 -1.57332 0.0918853 0
M  V30 1473 C 147.609 -1.85691 -0.614668 0
M  V30 1474 C 147.989 -0.988146 -1.86545 0
M  V30 1475 O 147.337 -0.0597055 -2.28422 0
M  V30 1476 C 147.547 -3.36294 -0.933126 0
M  V30 1477 C 148.895 -4.04275 -1.29796 0
M  V30 1478 O 149.919 -3.41157 -1.02424 0
M  V30 1479 O 148.778 -5.1564 -1.81047 0
M  V30 1480 H 145.872 -0.767802 -0.307261 0
M  V30 1481 H 148.418 -1.69244 0.12434 0
M  V30 1482 H 147.19 -3.91273 -0.0456404 0
M  V30 1483 H 146.813 -3.58076 -1.72822 0
M  V30 1484 N 147.81 0.181792 -1.56548 0
M  V30 1485 C 149.04 0.914618 -1.85252 0
M  V30 1486 C 149.448 1.76791 -0.673914 0
M  V30 1487 O 148.791 1.80009 0.366416 0
M  V30 1488 C 148.853 1.85019 -3.08234 0
M  V30 1489 C 148.517 1.17754 -4.41569 0
M  V30 1490 C 149.514 0.548035 -5.17003 0
M  V30 1491 C 147.199 1.17742 -4.88305 0
M  V30 1492 C 149.193 -0.0726128 -6.37359 0
M  V30 1493 C 146.88 0.552946 -6.08593 0
M  V30 1494 C 147.878 -0.070978 -6.82963 0
M  V30 1495 O 147.566 -0.685635 -8.00971 0
M  V30 1496 H 147.298 0.271695 -0.618998 0
M  V30 1497 H 149.852 0.189944 -2.0452 0
M  V30 1498 H 148.082 2.61491 -2.84885 0
M  V30 1499 H 149.771 2.45195 -3.23472 0
M  V30 1500 H 150.537 0.540174 -4.81982 0
M  V30 1501 H 146.416 1.65246 -4.30366 0
M  V30 1502 H 149.96 -0.560213 -6.95347 0
M  V30 1503 H 145.857 0.558354 -6.43081 0
M  V30 1504 H 146.625 -0.58385 -8.16415 0
M  V30 1505 N 149.288 1.51039 0.449983 0
M  V30 1506 C 150.235 1.71439 1.54523 0
M  V30 1507 C 151.205 0.555871 1.56522 0
M  V30 1508 O 152.39 0.788871 1.73728 0
M  V30 1509 C 149.53 1.83384 2.92343 0
M  V30 1510 C 148.643 3.10873 2.9997 0
M  V30 1511 C 147.778 3.13488 4.28834 0
M  V30 1512 C 146.817 4.35343 4.30282 0
M  V30 1513 N 145.954 4.35579 5.5065 0
M  V30 1514 H 150.794 2.64934 1.36433 0
M  V30 1515 H 148.331 1.31312 0.662982 0
M  V30 1516 H 150.289 1.88291 3.72293 0
M  V30 1517 H 148.919 0.933086 3.0902 0
M  V30 1518 H 147.971 3.15336 2.12761 0
M  V30 1519 H 149.283 4.00814 2.96901 0
M  V30 1520 H 148.437 3.17241 5.17149 0
M  V30 1521 H 147.176 2.21414 4.34543 0
M  V30 1522 H 146.181 4.3178 3.40362 0
M  V30 1523 H 147.406 5.28668 4.26248 0
M  V30 1524 H 145.352 3.46369 5.57104 0
M  V30 1525 H 145.269 5.19313 5.49409 0
M  V30 1526 H 146.537 4.43507 6.41032 0
M  V30 1527 N 150.766 -0.704594 1.40972 0
M  V30 1528 C 151.994 -1.49354 1.43182 0
M  V30 1529 C 152.409 -1.88768 0.0345508 0
M  V30 1530 O 151.766 -1.56184 -0.944081 0
M  V30 1531 C 151.817 -2.76187 2.33244 0
M  V30 1532 O 151.538 -2.38436 3.67532 0
M  V30 1533 C 153.039 -3.7 2.44162 0
M  V30 1534 H 150.259 -0.460559 0.487982 0
M  V30 1535 H 152.803 -0.868261 1.85153 0
M  V30 1536 H 150.958 -3.34974 1.94606 0
M  V30 1537 H 151.372 -3.20126 4.15475 0
M  V30 1538 H 152.846 -4.55803 3.11364 0
M  V30 1539 H 153.323 -4.13867 1.47006 0
M  V30 1540 H 153.929 -3.17121 2.83398 0
M  V30 1541 N 152.244 -1.26651 -0.937939 0
M  V30 1542 C 153.484 -1.13611 -1.69917 0
M  V30 1543 C 153.848 0.314687 -1.89404 0
M  V30 1544 O 155.049 0.567285 -2.62746 0
M  V30 1545 C 153.32 -1.88742 -3.03498 0
M  V30 1546 S 154.879 -1.91794 -3.94665 0
M  V30 1547 H 151.697 -0.405767 -0.583844 0
M  V30 1548 H 154.299 -1.60416 -1.11745 0
M  V30 1549 H 153.003 -2.9336 -2.86999 0
M  V30 1550 H 152.534 -1.42391 -3.66727 0
M  V30 1551 H 154.549 -1.00698 -4.85875 0
M  V30 1552 N 153.722 1.14298 -1.08507 0
M  V30 1553 C 154.67 2.21483 -0.710483 0
M  V30 1554 C 155.664 1.66998 0.284234 0
M  V30 1555 O 156.87 1.79401 0.146692 0
M  V30 1556 H 153.245 0.721578 -0.211729 0
M  V30 1557 H 155.216 2.50348 -1.62384 0
M  V30 1558 C 153.965 3.4743 -0.137007 0
M  V30 1559 H 153.288 3.89686 -0.893592 0
M  V30 1560 H 154.728 4.2391 0.0872789 0
M  V30 1561 C 153.187 3.17548 1.12538 0
M  V30 1562 O 153.717 3.35437 2.21009 0
M  V30 1563 N 151.923 2.71499 1.03617 0
M  V30 1564 H 151.47 2.57143 0.153403 0
M  V30 1565 H 151.428 2.51881 1.88158 0
M  V30 1566 N 155.201 0.870884 1.31352 0
M  V30 1567 C 156.447 0.482987 1.96965 0
M  V30 1568 C 156.78 -0.962462 1.68672 0
M  V30 1569 O 156.055 -1.6779 0.98371 0
M  V30 1570 C 156.338 0.741752 3.52378 0
M  V30 1571 C 156.191 2.2368 3.9024 0
M  V30 1572 C 157.51 0.208838 4.39604 0
M  V30 1573 H 154.629 0.176955 0.715441 0
M  V30 1574 H 157.271 1.09229 1.55464 0
M  V30 1575 H 155.421 0.223149 3.87859 0
M  V30 1576 H 157.093 2.82273 3.64856 0
M  V30 1577 H 155.336 2.70901 3.38814 0
M  V30 1578 H 156.007 2.3685 4.98604 0
M  V30 1579 H 158.483 0.652529 4.10952 0
M  V30 1580 H 157.359 0.419336 5.47296 0
M  V30 1581 H 157.62 -0.889275 4.33064 0
M  V30 1582 N 156.679 -1.44442 0.630414 0
M  V30 1583 C 157.609 -2.33418 -0.0618083 0
M  V30 1584 C 158.59 -1.48165 -0.835541 0
M  V30 1585 O 159.775 -1.76886 -0.801564 0
M  V30 1586 C 156.905 -3.31222 -1.04449 0
M  V30 1587 C 155.859 -4.26288 -0.382436 0
M  V30 1588 C 155.185 -5.13954 -1.47497 0
M  V30 1589 C 156.485 -5.1744 0.710865 0
M  V30 1590 H 158.179 -2.91548 0.681184 0
M  V30 1591 H 155.725 -1.40191 0.329026 0
M  V30 1592 H 157.678 -3.92351 -1.53748 0
M  V30 1593 H 156.402 -2.71299 -1.81836 0
M  V30 1594 H 155.061 -3.6649 0.0899054 0
M  V30 1595 H 154.709 -4.50385 -2.2397 0
M  V30 1596 H 154.409 -5.7837 -1.03737 0
M  V30 1597 H 155.933 -5.77955 -1.96979 0
M  V30 1598 H 157.347 -5.72509 0.300996 0
M  V30 1599 H 155.744 -5.90455 1.07156 0
M  V30 1600 H 156.814 -4.58496 1.57829 0
M  V30 1601 N 158.157 -0.370918 -1.53173 0
M  V30 1602 C 159.403 0.217423 -2.01631 0
M  V30 1603 C 159.736 1.47983 -1.25756 0
M  V30 1604 O 159.011 1.91274 -0.352764 0
M  V30 1605 C 159.294 0.503982 -3.56556 0
M  V30 1606 C 159.147 -0.77243 -4.43118 0
M  V30 1607 C 160.466 1.30234 -4.20389 0
M  V30 1608 H 157.585 0.0775486 -0.732909 0
M  V30 1609 H 160.227 -0.496863 -1.83388 0
M  V30 1610 H 158.377 1.11248 -3.72231 0
M  V30 1611 H 160.049 -1.4098 -4.39229 0
M  V30 1612 H 158.292 -1.39167 -4.10871 0
M  V30 1613 H 158.963 -0.526815 -5.4948 0
M  V30 1614 H 161.439 0.787546 -4.08579 0
M  V30 1615 H 160.315 1.47158 -5.28806 0
M  V30 1616 H 160.576 2.31237 -3.76805 0
M  V30 1617 N 159.635 1.57281 -0.100228 0
M  V30 1618 C 160.598 2.13158 0.842398 0
M  V30 1619 C 161.598 1.06202 1.20738 0
M  V30 1620 O 162.788 1.32066 1.13597 0
M  V30 1621 C 159.92 2.65639 2.13655 0
M  V30 1622 H 161.113 2.97766 0.357114 0
M  V30 1623 H 158.666 1.5559 0.148823 0
M  V30 1624 H 159.401 1.84566 2.66657 0
M  V30 1625 H 159.186 3.43844 1.88451 0
M  V30 1626 H 160.676 3.08846 2.81077 0
M  V30 1627 N 161.113 -0.173488 1.56642 0
M  V30 1628 C 162.043 -1.2171 1.99271 0
M  V30 1629 C 163.024 -1.46289 0.867959 0
M  V30 1630 O 164.209 -1.5766 1.13388 0
M  V30 1631 C 161.339 -2.55651 2.35074 0
M  V30 1632 C 160.293 -2.45645 3.50489 0
M  V30 1633 C 159.619 -3.84056 3.72028 0
M  V30 1634 C 160.919 -1.96302 4.84007 0
M  V30 1635 H 162.613 -0.86275 2.867 0
M  V30 1636 H 160.159 -0.413571 1.37933 0
M  V30 1637 H 162.112 -3.2886 2.63494 0
M  V30 1638 H 160.836 -2.92869 1.44552 0
M  V30 1639 H 159.495 -1.7489 3.22194 0
M  V30 1640 H 159.143 -4.18664 2.788 0
M  V30 1641 H 158.843 -3.7823 4.49684 0
M  V30 1642 H 160.367 -4.58854 4.02846 0
M  V30 1643 H 161.781 -2.59284 5.11317 0
M  V30 1644 H 160.178 -2.01429 5.65284 0
M  V30 1645 H 161.248 -0.917226 4.76146 0
M  V30 1646 N 162.591 -1.51276 -0.441967 0
M  V30 1647 C 163.501 -1.75092 -1.56141 0
M  V30 1648 C 164.517 -0.634963 -1.62001 0
M  V30 1649 O 165.693 -0.916686 -1.79329 0
M  V30 1650 C 162.758 -1.86666 -2.92158 0
M  V30 1651 C 161.819 -3.10506 -2.96453 0
M  V30 1652 C 161.052 -3.21519 -4.25982 0
M  V30 1653 O 161.275 -2.38586 -5.18105 0
M  V30 1654 O 160.209 -4.14465 -4.36466 0
M  V30 1655 H 164.035 -2.70044 -1.38961 0
M  V30 1656 H 161.62 -1.35722 -0.624499 0
M  V30 1657 H 163.502 -1.96292 -3.72891 0
M  V30 1658 H 162.177 -0.949014 -3.09476 0
M  V30 1659 H 161.084 -3.06363 -2.14692 0
M  V30 1660 H 162.417 -4.01945 -2.84079 0
M  V30 1661 N 164.069 0.697108 -1.41344 0
M  V30 1662 C 165.001 1.8224 -1.39001 0
M  V30 1663 C 166.014 1.60152 -0.292428 0
M  V30 1664 O 167.203 1.69684 -0.554048 0
M  V30 1665 C 164.303 3.18976 -1.14489 0
M  V30 1666 C 163.476 3.68105 -2.36258 0
M  V30 1667 C 162.535 4.83506 -2.07625 0
M  V30 1668 O 161.561 4.95201 -2.8065 0
M  V30 1669 N 162.763 5.70637 -1.06555 0
M  V30 1670 H 165.528 1.84742 -2.35988 0
M  V30 1671 H 163.089 0.87937 -1.35936 0
M  V30 1672 H 165.081 3.93801 -0.932885 0
M  V30 1673 H 163.651 3.11508 -0.261043 0
M  V30 1674 H 162.871 2.84204 -2.7317 0
M  V30 1675 H 164.159 3.97667 -3.17393 0
M  V30 1676 H 163.557 5.63817 -0.461125 0
M  V30 1677 H 162.114 6.45368 -0.913444 0
M  V30 1678 N 165.547 1.27147 0.931209 0
M  V30 1679 C 166.479 1.05364 2.03546 0
M  V30 1680 C 167.492 0.0108438 1.62796 0
M  V30 1681 O 168.681 0.25202 1.76712 0
M  V30 1682 C 165.781 0.575566 3.33977 0
M  V30 1683 C 164.954 1.68985 4.03439 0
M  V30 1684 C 164.013 1.20813 5.12143 0
M  V30 1685 O 163.039 1.90712 5.363 0
M  V30 1686 N 164.241 0.0618851 5.80467 0
M  V30 1687 H 167.006 2.00454 2.22796 0
M  V30 1688 H 164.567 1.18666 1.10136 0
M  V30 1689 H 166.559 0.237264 4.04004 0
M  V30 1690 H 165.129 -0.282016 3.11325 0
M  V30 1691 H 164.349 2.19861 3.27192 0
M  V30 1692 H 165.637 2.4378 4.46597 0
M  V30 1693 H 165.035 -0.521621 5.6329 0
M  V30 1694 H 163.592 -0.217264 6.51438 0
M  V30 1695 N 167.025 -1.13721 1.09112 0
M  V30 1696 C 168.25 -1.89314 0.847053 0
M  V30 1697 C 168.675 -1.78416 -0.595774 0
M  V30 1698 O 168.033 -1.12942 -1.41823 0
M  V30 1699 C 168.081 -3.3701 1.28284 0
M  V30 1700 O 167.185 -4.10054 0.439267 0
M  V30 1701 H 166.526 -0.588745 0.307044 0
M  V30 1702 H 169.056 -1.43902 1.45442 0
M  V30 1703 H 169.066 -3.87834 1.26683 0
M  V30 1704 H 167.741 -3.4426 2.33363 0
M  V30 1705 H 166.318 -3.69266 0.519312 0
M  V30 1706 N 168.503 -0.877838 -1.30888 0
M  V30 1707 C 169.914 -0.544193 -1.78593 0
M  V30 1708 C 170.265 0.939301 -1.72254 0
M  V30 1709 O 169.39 1.7337 -1.29505 0
M  V30 1710 C 169.985 -0.98105 -3.24285 0
M  V30 1711 C 168.544 -0.698935 -3.69854 0
M  V30 1712 C 167.691 -1.168 -2.51502 0
M  V30 1713 H 170.642 -1.06278 -1.17859 0
M  V30 1714 H 170.663 -0.307009 -3.79259 0
M  V30 1715 H 170.175 -2.06079 -3.28866 0
M  V30 1716 H 168.276 0.369112 -3.70767 0
M  V30 1717 H 168.389 -1.28148 -4.61644 0
M  V30 1718 H 166.753 -0.587535 -2.47831 0
M  V30 1719 H 167.536 -2.25533 -2.58824 0
M  V30 1720 N 169.982 1.44106 -0.638065 0
M  V30 1721 C 171.259 1.95453 -0.0759321 0
M  V30 1722 C 171.639 1.57984 1.40015 0
M  V30 1723 O 170.987 0.857361 2.11806 0
M  V30 1724 C 171.197 3.47655 -0.306132 0
M  V30 1725 C 172.545 4.24114 -0.203008 0
M  V30 1726 O 173.569 3.55405 -0.237871 0
M  V30 1727 O 172.428 5.46381 -0.113827 0
M  V30 1728 H 169.522 0.826797 0.0183332 0
M  V30 1729 H 172.068 1.54122 -0.710251 0
M  V30 1730 H 170.84 3.68 -1.3301 0
M  V30 1731 H 170.463 3.95949 0.361991 0
M  V30 1732 N 171.46 0.379036 1.52974 0
M  V30 1733 C 172.709 -0.207612 2.00629 0
M  V30 1734 C 173.022 -1.48758 1.27006 0
M  V30 1735 O 174.228 -2.15365 1.65318 0
M  V30 1736 C 172.684 -0.42053 3.57435 0
M  V30 1737 C 172.292 0.845587 4.39948 0
M  V30 1738 C 174.036 -0.964102 4.13407 0
M  V30 1739 C 171.943 0.601513 5.88333 0
M  V30 1740 H 170.873 -0.0813591 0.749598 0
M  V30 1741 H 173.524 0.499853 1.76561 0
M  V30 1742 H 171.906 -1.18959 3.7771 0
M  V30 1743 H 173.08 1.61848 4.31442 0
M  V30 1744 H 171.395 1.31336 3.95145 0
M  V30 1745 H 173.992 -1.16225 5.21916 0
M  V30 1746 H 174.335 -1.93019 3.68849 0
M  V30 1747 H 174.868 -0.25487 3.96983 0
M  V30 1748 H 171.607 1.53831 6.37194 0
M  V30 1749 H 171.127 -0.132628 5.99653 0
M  V30 1750 H 172.806 0.232134 6.46583 0
M  V30 1751 N 172.938 -1.57226 0.108567 0
M  V30 1752 C 173.901 -2.13602 -0.831082 0
M  V30 1753 C 174.901 -1.06841 -1.20173 0
M  V30 1754 O 176.091 -1.32666 -1.12895 0
M  V30 1755 C 173.223 -2.66769 -2.12243 0
M  V30 1756 H 174.416 -2.97951 -0.341317 0
M  V30 1757 H 171.969 -1.55667 -0.14057 0
M  V30 1758 H 172.704 -1.85977 -2.65675 0
M  V30 1759 H 172.489 -3.44839 -1.86625 0
M  V30 1760 H 173.979 -3.10332 -2.79435 0
M  V30 1761 N 174.416 0.165178 -1.56732 0
M  V30 1762 C 175.348 1.22911 -1.93457 0
M  V30 1763 C 176.361 1.40152 -0.828333 0
M  V30 1764 O 177.55 1.40046 -1.10677 0
M  V30 1765 C 174.65 2.59686 -2.17753 0
M  V30 1766 C 173.823 2.63663 -3.48999 0
M  V30 1767 C 172.882 3.81845 -3.62051 0
M  V30 1768 O 171.908 3.67559 -4.34613 0
M  V30 1769 N 173.11 4.98557 -2.97357 0
M  V30 1770 H 175.875 0.917118 -2.85323 0
M  V30 1771 H 173.436 0.354895 -1.57962 0
M  V30 1772 H 175.428 3.37225 -2.23743 0
M  V30 1773 H 173.998 2.83251 -1.32242 0
M  V30 1774 H 173.218 1.72173 -3.54612 0
M  V30 1775 H 174.506 2.63336 -4.35352 0
M  V30 1776 H 173.904 5.13065 -2.38287 0
M  V30 1777 H 172.461 5.73936 -3.08934 0
M  V30 1778 N 175.894 1.51508 0.433938 0
M  V30 1779 C 177.142 1.6402 1.18075 0
M  V30 1780 C 177.463 0.360328 1.91642 0
M  V30 1781 O 176.733 -0.623945 1.85698 0
M  V30 1782 H 175.313 0.6045 0.43885 0
M  V30 1783 H 177.975 1.88452 0.497178 0
M  V30 1784 H 177.071 2.46949 1.90847 0
M  V30 1785 N 177.372 -0.689602 1.41712 0
M  V30 1786 C 178.618 -1.45181 1.41599 0
M  V30 1787 C 178.951 -1.94181 0.0270081 0
M  V30 1788 O 178.226 -1.6993 -0.946265 0
M  V30 1789 C 178.509 -2.65945 2.42787 0
M  V30 1790 C 178.362 -2.22672 3.90816 0
M  V30 1791 C 179.681 -3.68149 2.41151 0
M  V30 1792 H 176.8 -0.526576 0.515642 0
M  V30 1793 H 179.442 -0.784947 1.73028 0
M  V30 1794 H 177.592 -3.2284 2.16116 0
M  V30 1795 H 179.264 -1.71058 4.28412 0
M  V30 1796 H 177.507 -1.54394 4.05395 0
M  V30 1797 H 178.178 -3.0935 4.57172 0
M  V30 1798 H 180.654 -3.2094 2.64834 0
M  V30 1799 H 179.53 -4.50248 3.13955 0
M  V30 1800 H 179.791 -4.18259 1.43221 0
M  V30 1801 N 178.85 -1.27639 -0.924453 0
M  V30 1802 C 179.8 -1.07295 -2.01176 0
M  V30 1803 C 180.784 5.77352e-05 -1.609 0
M  V30 1804 O 181.976 -0.218855 -1.75642 0
M  V30 1805 C 179.105 -0.725592 -3.35544 0
M  V30 1806 C 178.191 -1.83691 -3.82254 0
M  V30 1807 N 178.582 -3.07697 -4.01443 0
M  V30 1808 C 176.88 -1.72433 -4.11319 0
M  V30 1809 C 177.581 -3.80037 -4.40394 0
M  V30 1810 N 176.557 -3.0782 -4.48049 0
M  V30 1811 H 180.359 -2.01399 -2.14046 0
M  V30 1812 H 177.873 -1.18401 -1.11153 0
M  V30 1813 H 179.87 -0.560959 -4.13109 0
M  V30 1814 H 178.53 0.207782 -3.24034 0
M  V30 1815 H 179.541 -3.43424 -3.8766 0
M  V30 1816 H 176.218 -0.862005 -4.08504 0
M  V30 1817 H 177.608 -4.86632 -4.63291 0
M  V30 1818 N 180.328 1.1314 -1.09713 0
M  V30 1819 C 181.258 2.20748 -0.761102 0
M  V30 1820 C 182.239 1.68061 0.262566 0
M  V30 1821 O 183.424 1.93765 0.129977 0
M  V30 1822 C 180.554 3.46812 -0.184054 0
M  V30 1823 C 179.508 4.12606 -1.13757 0
M  V30 1824 C 178.834 5.33031 -0.422083 0
M  V30 1825 C 180.134 4.59603 -2.48118 0
M  V30 1826 H 181.828 2.49113 -1.66082 0
M  V30 1827 H 179.374 1.19734 -0.799987 0
M  V30 1828 H 181.327 4.21353 0.0631215 0
M  V30 1829 H 180.051 3.17851 0.750868 0
M  V30 1830 H 178.71 3.40036 -1.37007 0
M  V30 1831 H 178.358 5.00335 0.517072 0
M  V30 1832 H 178.058 5.77999 -1.05788 0
M  V30 1833 H 179.582 6.10325 -0.183277 0
M  V30 1834 H 180.996 5.25552 -2.29059 0
M  V30 1835 H 179.393 5.15321 -3.07514 0
M  V30 1836 H 180.463 3.73971 -3.08665 0
M  V30 1837 N 181.806 0.884767 1.30421 0
M  V30 1838 C 183.083 0.423185 1.90967 0
M  V30 1839 C 183.463 -1.09605 1.80416 0
M  V30 1840 O 182.811 -1.93126 1.22125 0
M  V30 1841 C 183.021 0.921056 3.36627 0
M  V30 1842 C 184.369 0.955903 4.137 0
M  V30 1843 O 185.393 0.867706 3.4547 0
M  V30 1844 O 184.252 1.08614 5.35598 0
M  V30 1845 H 181.346 0.129369 0.816819 0
M  V30 1846 H 183.892 0.973653 1.3899 0
M  V30 1847 H 182.664 1.96489 3.3839 0
M  V30 1848 H 182.287 0.349741 3.96059 0
M  V30 1849 N 183.284 -1.43765 0.645699 0
M  V30 1850 C 184.7 -1.56509 0.312591 0
M  V30 1851 C 184.9 -1.6307 -1.18365 0
M  V30 1852 O 183.956 -1.58167 -1.96824 0
M  V30 1853 C 185.269 -2.82968 1.01733 0
M  V30 1854 C 186.817 -2.96701 0.996865 0
M  V30 1855 C 187.292 -4.25982 1.68236 0
M  V30 1856 N 188.783 -4.32829 1.64964 0
M  V30 1857 C 189.518 -5.31613 2.14885 0
M  V30 1858 N 189.014 -6.36718 2.73061 0
M  V30 1859 N 190.807 -5.23217 2.05428 0
M  V30 1860 H 182.958 -1.3775 1.61675 0
M  V30 1861 H 185.221 -0.661067 0.679481 0
M  V30 1862 H 184.927 -2.84156 2.0724 0
M  V30 1863 H 184.801 -3.72957 0.564177 0
M  V30 1864 H 187.188 -2.95058 -0.0497719 0
M  V30 1865 H 187.269 -2.08022 1.48865 0
M  V30 1866 H 186.913 -4.28386 2.72852 0
M  V30 1867 H 186.843 -5.13545 1.16529 0
M  V30 1868 H 189.334 -3.57493 1.22503 0
M  V30 1869 H 189.647 -7.08401 3.08848 0
M  V30 1870 H 187.992 -6.37362 2.77118 0
M  V30 1871 H 191.183 -4.40019 1.59689 0
M  V30 1872 H 191.356 -6.00045 2.44643 0
M  V30 1873 N 184.763 -0.387143 -1.52771 0
M  V30 1874 C 185.711 0.463953 -2.27926 0
M  V30 1875 C 186.705 1.06493 -1.31741 0
M  V30 1876 O 187.911 1.00565 -1.49287 0
M  V30 1877 H 184.286 0.16837 -0.732909 0
M  V30 1878 H 186.257 -0.19141 -2.97785 0
M  V30 1879 C 185.006 1.5803 -3.09713 0
M  V30 1880 H 184.329 1.12718 -3.83581 0
M  V30 1881 H 185.769 2.15008 -3.65442 0
M  V30 1882 C 184.228 2.53509 -2.2189 0
M  V30 1883 O 184.758 3.56863 -1.84422 0
M  V30 1884 N 182.964 2.23199 -1.86093 0
M  V30 1885 H 182.511 1.39185 -2.16761 0
M  V30 1886 H 182.469 2.87333 -1.27621 0
M  V30 1887 N 186.241 1.57166 -0.116904 0
M  V30 1888 C 187.151 2.18745 0.847812 0
M  V30 1889 C 188.167 1.163 1.29423 0
M  V30 1890 O 189.343 1.48761 1.35765 0
M  V30 1891 C 186.408 2.77307 2.0809 0
M  V30 1892 C 185.469 3.94781 1.68661 0
M  V30 1893 C 184.702 4.50541 2.86091 0
M  V30 1894 O 184.925 4.05202 4.01456 0
M  V30 1895 O 183.859 5.41256 2.63298 0
M  V30 1896 H 187.685 3.01632 0.353778 0
M  V30 1897 H 185.27 1.49005 0.108599 0
M  V30 1898 H 187.152 3.14647 2.80313 0
M  V30 1899 H 185.827 1.97452 2.56504 0
M  V30 1900 H 184.734 3.62214 0.935518 0
M  V30 1901 H 186.067 4.76065 1.24991 0
M  V30 1902 N 187.719 -0.156864 1.56817 0
M  V30 1903 C 188.629 -1.2136 2.00771 0
M  V30 1904 C 189.645 -1.47598 0.921459 0
M  V30 1905 O 190.821 -1.59462 1.2302 0
M  V30 1906 C 187.886 -2.52943 2.37109 0
M  V30 1907 C 186.947 -2.34439 3.59634 0
M  V30 1908 C 186.18 -3.59748 3.94229 0
M  V30 1909 O 186.403 -4.65526 3.29609 0
M  V30 1910 O 185.337 -3.52998 4.8752 0
M  V30 1911 H 189.163 -0.870468 2.90958 0
M  V30 1912 H 186.748 -0.36484 1.44877 0
M  V30 1913 H 188.63 -3.30538 2.61386 0
M  V30 1914 H 187.305 -2.86806 1.5008 0
M  V30 1915 H 186.212 -1.54828 3.40557 0
M  V30 1916 H 187.545 -2.05496 4.4725 0
M  V30 1917 N 189.197 -1.51736 -0.425897 0
M  V30 1918 C 190.474 -1.55519 -1.1863 0
M  V30 1919 C 190.854 -0.326219 -2.08564 0
M  V30 1920 O 190.202 0.688012 -2.17896 0
M  V30 1921 C 190.412 -2.87521 -1.9782 0
M  V30 1922 C 191.76 -3.39899 -2.54468 0
M  V30 1923 O 192.784 -2.89148 -2.08019 0
M  V30 1924 O 191.643 -4.2848 -3.39215 0
M  V30 1925 H 188.737 -0.625739 -0.540721 0
M  V30 1926 H 191.283 -1.64055 -0.434038 0
M  V30 1927 H 190.055 -3.68422 -1.31836 0
M  V30 1928 H 189.678 -2.822 -2.80088 0
M  V30 1929 N 190.675 0.682077 -1.42076 0
M  V30 1930 C 191.924 1.43786 -1.41451 0
M  V30 1931 C 192.237 1.95574 -0.0317074 0
M  V30 1932 O 193.443 2.71326 0.0971462 0
M  V30 1933 C 191.899 2.60071 -2.48779 0
M  V30 1934 C 191.507 2.15013 -3.93031 0
M  V30 1935 C 193.251 3.37626 -2.57311 0
M  V30 1936 C 191.158 3.28336 -4.91883 0
M  V30 1937 H 190.088 0.540143 -0.526082 0
M  V30 1938 H 192.739 0.739157 -1.67955 0
M  V30 1939 H 191.121 3.32275 -2.15429 0
M  V30 1940 H 192.295 1.5001 -4.35699 0
M  V30 1941 H 190.61 1.50416 -3.88284 0
M  V30 1942 H 193.207 4.22012 -3.28345 0
M  V30 1943 H 193.55 3.83727 -1.61429 0
M  V30 1944 H 194.083 2.72488 -2.89819 0
M  V30 1945 H 190.822 2.87234 -5.89217 0
M  V30 1946 H 190.342 3.92145 -4.53853 0
M  V30 1947 H 192.021 3.93913 -5.13265 0
M  V30 1948 N 192.153 1.28127 0.917671 0
M  V30 1949 C 193.401 1.14825 1.66312 0
M  V30 1950 C 193.722 -0.304379 1.9261 0
M  V30 1951 O 192.992 -1.21149 1.53947 0
M  V30 1952 H 191.572 0.421953 0.616413 0
M  V30 1953 H 194.234 1.608 1.10134 0
M  V30 1954 H 193.33 1.68489 2.62712 0
M  V30 1955 N 193.631 -1.12557 1.10312 0
M  V30 1956 C 194.594 -2.16434 0.75424 0
M  V30 1957 C 195.594 -1.59278 -0.220685 0
M  V30 1958 O 196.784 -1.742 0.00230591 0
M  V30 1959 C 193.916 -3.40699 0.116987 0
M  V30 1960 H 195.109 -2.48811 1.67431 0
M  V30 1961 H 192.662 -1.27542 0.903475 0
M  V30 1962 H 193.397 -3.13921 -0.813877 0
M  V30 1963 H 193.182 -3.83459 0.818613 0
M  V30 1964 H 194.672 -4.17451 -0.111387 0
M  V30 1965 N 195.109 -0.891671 -1.2995 0
M  V30 1966 C 196.357 -0.512486 -1.95494 0
M  V30 1967 C 196.678 0.942776 -1.70695 0
M  V30 1968 O 195.948 1.66374 -1.03424 0
M  V30 1969 H 194.528 -0.186533 -0.723336 0
M  V30 1970 H 197.19 -1.13621 -1.58355 0
M  V30 1971 H 196.286 -0.688342 -3.04415 0
M  V30 1972 N 196.587 1.43421 -0.653314 0
M  V30 1973 C 197.864 1.95361 -0.0966581 0
M  V30 1974 C 198.244 1.59461 1.38331 0
M  V30 1975 O 197.592 0.879777 2.10884 0
M  V30 1976 C 197.802 3.47311 -0.342988 0
M  V30 1977 C 199.15 4.23875 -0.24798 0
M  V30 1978 O 200.174 3.55133 -0.275553 0
M  V30 1979 O 199.033 5.4623 -0.171771 0
M  V30 1980 H 196.127 0.826945 0.00956291 0
M  V30 1981 H 198.673 1.5336 -0.726558 0
M  V30 1982 H 197.445 3.66569 -1.36906 0
M  V30 1983 H 197.068 3.9631 0.319975 0
M  V30 1984 N 198.065 0.39524 1.52563 0
M  V30 1985 C 198.997 -0.472201 2.24283 0
M  V30 1986 C 200.01 -1.02178 1.26742 0
M  V30 1987 O 201.199 -0.923097 1.52778 0
M  V30 1988 C 198.299 -1.66775 2.95024 0
M  V30 1989 C 197.472 -1.2445 4.19322 0
M  V30 1990 C 196.531 -2.30539 4.7301 0
M  V30 1991 O 195.557 -1.91702 5.35947 0
M  V30 1992 N 196.759 -3.6253 4.53379 0
M  V30 1993 H 199.524 0.142282 2.99362 0
M  V30 1994 H 197.085 0.2219 1.60372 0
M  V30 1995 H 199.077 -2.37283 3.27839 0
M  V30 1996 H 197.647 -2.18845 2.23217 0
M  V30 1997 H 196.867 -0.368069 3.92478 0
M  V30 1998 H 198.155 -0.938457 5.0007 0
M  V30 1999 H 197.553 -3.96841 4.03154 0
M  V30 2000 H 196.11 -4.29055 4.90668 0
M  V30 2001 N 199.544 -1.57102 0.125237 0
M  V30 2002 C 200.792 -1.95021 -0.530198 0
M  V30 2003 C 201.113 -1.00982 -1.66816 0
M  V30 2004 O 200.383 -0.0672693 -1.95784 0
M  V30 2005 H 198.963 -0.720046 -0.198853 0
M  V30 2006 H 201.625 -1.93916 0.19564 0
M  V30 2007 H 200.721 -2.98211 -0.920681 0
M  V30 2008 N 201.022 0.148545 -1.56898 0
M  V30 2009 C 201.952 1.18524 -2.01182 0
M  V30 2010 C 202.933 1.4489 -0.891123 0
M  V30 2011 O 204.118 1.55836 -1.15882 0
M  V30 2012 C 201.248 2.51879 -2.39112 0
M  V30 2013 C 200.202 2.40038 -3.54353 0
M  V30 2014 C 199.528 3.78089 -3.78091 0
M  V30 2015 C 200.828 1.88577 -4.87069 0
M  V30 2016 H 202.522 0.817029 -2.88036 0
M  V30 2017 H 200.068 0.391575 -1.38574 0
M  V30 2018 H 202.021 3.24627 -2.68692 0
M  V30 2019 H 200.745 2.90532 -1.49193 0
M  V30 2020 H 199.404 1.69742 -3.24936 0
M  V30 2021 H 199.052 4.14175 -2.85426 0
M  V30 2022 H 198.752 3.71028 -4.55645 0
M  V30 2023 H 200.276 4.52387 -4.10095 0
M  V30 2024 H 201.69 2.51117 -5.15377 0
M  V30 2025 H 200.087 1.9241 -5.68417 0
M  V30 2026 H 201.157 0.84136 -4.77545 0
M  V30 2027 N 202.5 1.5196 0.417844 0
M  V30 2028 C 203.433 1.69387 1.52916 0
M  V30 2029 C 204.411 0.541419 1.53321 0
M  V30 2030 O 205.595 0.767695 1.72159 0
M  V30 2031 C 202.722 1.72525 2.91467 0
M  V30 2032 C 201.768 2.93967 3.09008 0
M  V30 2033 S 202.601 4.54461 2.83242 0
M  V30 2034 C 203.757 4.60372 4.24038 0
M  V30 2035 H 203.99 2.63382 1.37903 0
M  V30 2036 H 201.523 1.41889 0.608845 0
M  V30 2037 H 203.481 1.75018 3.7132 0
M  V30 2038 H 202.142 0.796733 3.03827 0
M  V30 2039 H 201.335 2.92619 4.10353 0
M  V30 2040 H 200.937 2.89316 2.37007 0
M  V30 2041 H 203.229 4.37213 5.17544 0
M  V30 2042 H 204.172 5.62273 4.30412 0
M  V30 2043 H 204.58 3.89492 4.08602 0
M  V30 2044 N 203.978 -0.674533 1.42435 0
M  V30 2045 C 205.225 -1.43459 1.42919 0
M  V30 2046 C 205.553 -1.94446 0.0457312 0
M  V30 2047 O 204.808 -1.7132 -0.94593 0
M  V30 2048 C 205.107 -2.64767 2.40069 0
M  V30 2049 C 204.773 -2.3232 3.86443 0
M  V30 2050 C 203.435 -2.23182 4.26314 0
M  V30 2051 C 205.787 -2.05977 4.78773 0
M  V30 2052 C 203.115 -1.85827 5.56494 0
M  V30 2053 C 205.467 -1.70125 6.09295 0
M  V30 2054 C 204.131 -1.59498 6.48164 0
M  V30 2055 H 203.401 -0.524952 0.522978 0
M  V30 2056 H 206.048 -0.769097 1.75377 0
M  V30 2057 H 204.353 -3.36349 2.00939 0
M  V30 2058 H 206.05 -3.22949 2.37707 0
M  V30 2059 H 202.64 -2.40334 3.54877 0
M  V30 2060 H 206.824 -2.11969 4.48757 0
M  V30 2061 H 202.08 -1.76168 5.8547 0
M  V30 2062 H 206.254 -1.48767 6.80324 0
M  V30 2063 H 203.881 -1.30322 7.48946 0
M  V30 2064 N 205.456 -1.28612 -0.910864 0
M  V30 2065 C 206.704 -1.15705 -1.65701 0
M  V30 2066 C 207.025 0.29416 -1.92769 0
M  V30 2067 O 206.295 1.20331 -1.54588 0
M  V30 2068 H 204.875 -0.425216 -0.614167 0
M  V30 2069 H 207.537 -1.61381 -1.0928 0
M  V30 2070 H 206.633 -1.6988 -2.61815 0
M  V30 2071 N 206.934 1.1197 -1.10907 0
M  V30 2072 C 208.164 1.8713 -0.875553 0
M  V30 2073 C 208.572 1.8016 0.577843 0
M  V30 2074 O 207.915 1.17699 1.41042 0
M  V30 2075 C 207.977 3.37005 -1.2517 0
M  V30 2076 C 207.641 3.67748 -2.71313 0
M  V30 2077 C 208.638 3.65698 -3.69542 0
M  V30 2078 C 206.323 3.96928 -3.07821 0
M  V30 2079 C 208.317 3.92395 -5.023 0
M  V30 2080 C 206.004 4.23284 -4.40765 0
M  V30 2081 C 207.002 4.21005 -5.37814 0
M  V30 2082 O 206.69 4.46704 -6.68364 0
M  V30 2083 H 206.422 0.598786 -0.313737 0
M  V30 2084 H 208.976 1.42568 -1.47863 0
M  V30 2085 H 207.206 3.82146 -0.591741 0
M  V30 2086 H 208.895 3.93519 -0.994877 0
M  V30 2087 H 209.661 3.43211 -3.42682 0
M  V30 2088 H 205.54 3.97841 -2.32902 0
M  V30 2089 H 209.084 3.90531 -5.78041 0
M  V30 2090 H 204.981 4.45246 -4.67361 0
M  V30 2091 H 205.749 4.64299 -6.74069 0
M  V30 2092 N 208.412 0.89855 1.29475 0
M  V30 2093 C 209.375 0.380272 2.26023 0
M  V30 2094 C 210.375 -0.484891 1.53315 0
M  V30 2095 O 211.565 -0.290108 1.71767 0
M  V30 2096 C 208.697 -0.45651 3.3783 0
M  V30 2097 H 209.89 1.23295 2.73383 0
M  V30 2098 H 207.443 0.676589 1.40897 0
M  V30 2099 H 208.178 -1.32922 2.95808 0
M  V30 2100 H 207.963 0.163393 3.91759 0
M  V30 2101 H 209.453 -0.810466 4.0966 0
M  V30 2102 N 209.89 -1.43072 0.660911 0
M  V30 2103 C 211.118 -2.06067 0.185422 0
M  V30 2104 C 211.533 -1.49582 -1.15198 0
M  V30 2105 O 210.89 -0.630134 -1.71276 0
M  V30 2106 C 210.941 -3.61371 0.0966523 0
M  V30 2107 O 210.662 -4.15758 1.38119 0
M  V30 2108 C 212.163 -4.41455 -0.403996 0
M  V30 2109 H 209.383 -0.664459 0.0934604 0
M  V30 2110 H 211.927 -1.83447 0.90373 0
M  V30 2111 H 210.082 -3.8315 -0.572259 0
M  V30 2112 H 210.496 -5.09499 1.24542 0
M  V30 2113 H 211.97 -5.50437 -0.415045 0
M  V30 2114 H 212.447 -4.15036 -1.43674 0
M  V30 2115 H 213.053 -4.24663 0.232691 0
M  V30 2116 N 211.368 -0.403325 -1.52352 0
M  V30 2117 C 212.645 0.232611 -1.94212 0
M  V30 2118 C 213.025 1.63133 -1.33981 0
M  V30 2119 O 212.373 2.22659 -0.513344 0
M  V30 2120 C 212.583 0.244811 -3.4814 0
M  V30 2121 C 213.931 0.46698 -4.22024 0
M  V30 2122 O 214.955 0.324419 -3.5472 0
M  V30 2123 O 213.814 0.74747 -5.41364 0
M  V30 2124 H 210.908 0.148223 -0.813609 0
M  V30 2125 H 213.454 -0.458848 -1.63379 0
M  V30 2126 H 212.226 -0.734378 -3.84347 0
M  V30 2127 H 211.849 0.980611 -3.85318 0
M  V30 2128 N 212.846 1.57033 -0.133567 0
M  V30 2129 C 213.756 2.19632 0.824564 0
M  V30 2130 C 214.772 1.17666 1.28182 0
M  V30 2131 O 215.948 1.50193 1.3418 0
M  V30 2132 C 213.013 2.79499 2.05137 0
M  V30 2133 C 212.074 3.96548 1.64464 0
M  V30 2134 C 211.307 4.5355 2.81297 0
M  V30 2135 O 211.53 4.09438 3.97136 0
M  V30 2136 O 210.464 5.44018 2.57542 0
M  V30 2137 H 214.29 3.01991 0.321766 0
M  V30 2138 H 211.875 1.49112 0.0927889 0
M  V30 2139 H 213.757 3.17602 2.7696 0
M  V30 2140 H 212.432 2.00162 2.54395 0
M  V30 2141 H 211.339 3.63186 0.897048 0
M  V30 2142 H 212.672 4.77364 1.19934 0
M  V30 2143 N 214.325 -0.140222 1.56975 0
M  V30 2144 C 215.553 -0.866437 1.87884 0
M  V30 2145 C 215.968 -1.74428 0.722517 0
M  V30 2146 O 215.325 -1.79891 -0.30749 0
M  V30 2147 C 215.376 -1.71753 3.18093 0
M  V30 2148 O 215.097 -0.875056 4.29272 0
M  V30 2149 C 216.598 -2.55074 3.62563 0
M  V30 2150 H 213.818 -0.25019 0.622612 0
M  V30 2151 H 216.362 -0.130977 2.0408 0
M  V30 2152 H 214.517 -2.40598 3.03631 0
M  V30 2153 H 214.931 -1.46002 5.03769 0
M  V30 2154 H 216.405 -3.10356 4.5649 0
M  V30 2155 H 216.882 -3.31434 2.88181 0
M  V30 2156 H 217.488 -1.91509 3.79743 0
M  V30 2157 N 215.803 -1.52179 -0.40978 0
M  V30 2158 C 216.713 -1.78364 -1.52392 0
M  V30 2159 C 217.729 -0.669183 -1.60617 0
M  V30 2160 O 218.905 -0.954518 -1.77344 0
M  V30 2161 C 215.97 -1.92822 -2.88133 0
M  V30 2162 C 215.031 -3.16725 -2.898 0
M  V30 2163 C 214.264 -3.30483 -4.19067 0
M  V30 2164 O 214.487 -2.49522 -5.12928 0
M  V30 2165 O 213.421 -4.2363 -4.27576 0
M  V30 2166 H 217.247 -2.72931 -1.33201 0
M  V30 2167 H 214.832 -1.37016 -0.59557 0
M  V30 2168 H 216.714 -2.04157 -3.68643 0
M  V30 2169 H 215.389 -1.01444 -3.07393 0
M  V30 2170 H 214.296 -3.10848 -2.08146 0
M  V30 2171 H 215.629 -4.07881 -2.75489 0
M  V30 2172 N 217.281 0.66697 -1.42791 0
M  V30 2173 C 218.191 1.80962 -1.49299 0
M  V30 2174 C 219.207 1.69775 -0.381108 0
M  V30 2175 O 220.383 1.91188 -0.633188 0
M  V30 2176 C 217.448 3.17156 -1.40045 0
M  V30 2177 C 216.509 3.40242 -2.6179 0
M  V30 2178 C 215.742 4.69939 -2.52969 0
M  V30 2179 O 215.965 5.48372 -1.56985 0
M  V30 2180 O 214.899 4.94441 -3.43237 0
M  V30 2181 H 218.725 1.78427 -2.45759 0
M  V30 2182 H 216.31 0.823713 -1.24641 0
M  V30 2183 H 218.192 3.98413 -1.37276 0
M  V30 2184 H 216.867 3.20312 -0.467138 0
M  V30 2185 H 215.774 2.58802 -2.70134 0
M  V30 2186 H 217.107 3.41923 -3.54047 0
M  V30 2187 N 218.759 1.29093 0.90403 0
M  V30 2188 C 219.999 1.18076 1.66845 0
M  V30 2189 C 220.363 -0.26436 1.90171 0
M  V30 2190 O 221.564 -0.497423 2.64157 0
M  V30 2191 C 219.835 1.96722 2.98388 0
M  V30 2192 S 221.394 2.0219 3.89441 0
M  V30 2193 H 218.212 0.421104 0.572881 0
M  V30 2194 H 220.814 1.63322 1.07453 0
M  V30 2195 H 219.518 3.00866 2.7912 0
M  V30 2196 H 219.049 1.52064 3.62823 0
M  V30 2197 H 221.064 1.13545 4.83034 0
M  V30 2198 N 220.237 -1.11381 1.11499 0
M  V30 2199 C 221.17 -2.16621 0.71769 0
M  V30 2200 C 222.148 -1.60058 -0.286413 0
M  V30 2201 O 223.332 -1.87613 -0.182689 0
M  V30 2202 C 220.459 -3.38646 0.0607265 0
M  V30 2203 C 219.505 -4.13874 1.03008 0
M  V30 2204 S 220.338 -4.70731 2.55289 0
M  V30 2205 C 221.494 -5.96079 1.90895 0
M  V30 2206 H 221.727 -2.49987 1.60915 0
M  V30 2207 H 219.26 -1.23015 0.933092 0
M  V30 2208 H 221.218 -4.09313 -0.311965 0
M  V30 2209 H 219.879 -3.03537 -0.807702 0
M  V30 2210 H 219.072 -5.01333 0.517853 0
M  V30 2211 H 218.674 -3.4897 1.34522 0
M  V30 2212 H 220.966 -6.65948 1.24577 0
M  V30 2213 H 221.909 -6.51946 2.76354 0
M  V30 2214 H 222.317 -5.47652 1.36885 0
M  V30 2215 N 221.715 -0.905404 -1.28997 0
M  V30 2216 C 223.126 -0.581953 -1.77398 0
M  V30 2217 C 223.477 0.902552 -1.74208 0
M  V30 2218 O 222.602 1.70584 -1.33154 0
M  V30 2219 C 223.197 -1.04961 -3.22131 0
M  V30 2220 C 221.756 -0.777229 -3.68288 0
M  V30 2221 C 220.903 -1.22109 -2.48967 0
M  V30 2222 H 223.854 -1.08754 -1.15578 0
M  V30 2223 H 223.875 -0.387387 -3.78523 0
M  V30 2224 H 223.387 -2.13008 -3.24421 0
M  V30 2225 H 221.488 0.290383 -3.71467 0
M  V30 2226 H 221.601 -1.37911 -4.58822 0
M  V30 2227 H 219.965 -0.639971 -2.46529 0
M  V30 2228 H 220.748 -2.30972 -2.53982 0
M  V30 2229 N 223.193 1.4272 -0.668489 0
M  V30 2230 C 224.123 2.335 -0.000100175 0
M  V30 2231 C 225.104 1.50328 0.795964 0
M  V30 2232 O 226.289 1.78949 0.754385 0
M  V30 2233 C 223.419 3.33874 0.956302 0
M  V30 2234 C 222.373 4.27152 0.269278 0
M  V30 2235 C 221.699 5.17684 1.33818 0
M  V30 2236 C 222.999 5.15373 -0.847805 0
M  V30 2237 H 224.693 2.89639 -0.758244 0
M  V30 2238 H 222.239 1.39269 -0.366079 0
M  V30 2239 H 224.192 3.9629 1.43292 0
M  V30 2240 H 222.916 2.76025 1.74579 0
M  V30 2241 H 221.575 3.66123 -0.187042 0
M  V30 2242 H 221.223 4.56165 2.1195 0
M  V30 2243 H 220.923 5.80918 0.883659 0
M  V30 2244 H 222.447 5.82974 1.81586 0
M  V30 2245 H 223.861 5.7151 -0.452681 0
M  V30 2246 H 222.258 5.87407 -1.22773 0
M  V30 2247 H 223.328 4.5415 -1.69929 0
M  V30 2248 N 224.671 0.411399 1.52136 0
M  V30 2249 C 225.899 -0.163076 2.06256 0
M  V30 2250 C 226.314 -1.3867 1.28125 0
M  V30 2251 O 225.671 -1.79423 0.333721 0
M  V30 2252 C 225.722 -0.511252 3.57867 0
M  V30 2253 O 225.443 0.66378 4.33042 0
M  V30 2254 C 226.944 -1.13921 4.28412 0
M  V30 2255 H 224.164 -0.0193897 0.67072 0
M  V30 2256 H 226.708 0.583007 1.96013 0
M  V30 2257 H 224.863 -1.20723 3.6811 0
M  V30 2258 H 225.277 0.372601 5.23175 0
M  V30 2259 H 226.751 -1.33302 5.35663 0
M  V30 2260 H 227.228 -2.11296 3.85033 0
M  V30 2261 H 227.834 -0.483373 4.22544 0
M  V30 2262 N 226.149 -1.5696 0.141893 0
M  V30 2263 C 227.398 -1.95135 -0.510427 0
M  V30 2264 C 227.711 -1.02896 -1.66348 0
M  V30 2265 O 228.917 -1.30629 -2.38009 0
M  V30 2266 C 227.373 -3.46876 -0.959427 0
M  V30 2267 C 226.981 -4.47691 0.166419 0
M  V30 2268 C 228.725 -3.93927 -1.58183 0
M  V30 2269 C 226.632 -5.90636 -0.300565 0
M  V30 2270 H 225.562 -0.728494 -0.194454 0
M  V30 2271 H 228.213 -1.8211 0.22542 0
M  V30 2272 H 226.595 -3.55215 -1.75038 0
M  V30 2273 H 227.769 -4.51043 0.94325 0
M  V30 2274 H 226.084 -4.10527 0.696905 0
M  V30 2275 H 228.681 -4.98158 -1.94275 0
M  V30 2276 H 229.024 -3.3519 -2.46888 0
M  V30 2277 H 229.557 -3.88484 -0.855863 0
M  V30 2278 H 226.296 -6.5318 0.550989 0
M  V30 2279 H 225.816 -5.90655 -1.04338 0
M  V30 2280 H 227.495 -6.42588 -0.754265 0
M  V30 2281 N 227.627 0.131896 -1.57047 0
M  V30 2282 C 228.873 0.843179 -1.84441 0
M  V30 2283 C 229.206 1.80129 -0.725749 0
M  V30 2284 O 228.481 1.92624 0.269469 0
M  V30 2285 C 228.764 1.60442 -3.22382 0
M  V30 2286 C 228.617 0.666782 -4.4483 0
M  V30 2287 C 229.936 2.56354 -3.5773 0
M  V30 2288 H 227.055 0.305081 -0.670891 0
M  V30 2289 H 229.697 0.107839 -1.89694 0
M  V30 2290 H 227.847 2.23128 -3.18035 0
M  V30 2291 H 229.519 0.0497646 -4.61273 0
M  V30 2292 H 227.762 -0.022609 -4.33794 0
M  V30 2293 H 228.433 1.23579 -5.37989 0
M  V30 2294 H 230.909 2.0378 -3.62785 0
M  V30 2295 H 229.785 3.06657 -4.5525 0
M  V30 2296 H 230.046 3.38419 -2.84473 0
M  V30 2297 N 229.106 1.52395 0.401703 0
M  V30 2298 C 230.036 1.79231 1.49661 0
M  V30 2299 C 231.017 0.643654 1.57452 0
M  V30 2300 O 232.202 0.889989 1.72606 0
M  V30 2301 C 229.332 1.94971 2.87409 0
M  V30 2302 C 228.286 3.10604 2.94465 0
M  V30 2303 C 227.612 3.11577 4.34538 0
M  V30 2304 C 228.912 4.49921 2.6527 0
M  V30 2305 H 230.606 2.70917 1.27454 0
M  V30 2306 H 228.152 1.30362 0.6117 0
M  V30 2307 H 230.105 2.12328 3.63999 0
M  V30 2308 H 228.829 0.999632 3.10926 0
M  V30 2309 H 227.488 2.93009 2.20321 0
M  V30 2310 H 227.136 2.14277 4.55076 0
M  V30 2311 H 226.836 3.89247 4.40183 0
M  V30 2312 H 228.36 3.31073 5.13053 0
M  V30 2313 H 229.774 4.67683 3.31581 0
M  V30 2314 H 228.171 5.29564 2.82281 0
M  V30 2315 H 229.241 4.57507 1.60671 0
M  V30 2316 N 230.584 -0.659388 1.43143 0
M  V30 2317 C 231.547 -1.75432 1.47501 0
M  V30 2318 C 232.547 -1.56707 0.360512 0
M  V30 2319 O 233.737 -1.62717 0.622002 0
M  V30 2320 C 230.869 -3.14239 1.32162 0
M  V30 2321 H 232.062 -1.7295 2.45006 0
M  V30 2322 H 229.615 -0.870469 1.29817 0
M  V30 2323 H 230.35 -3.22336 0.356401 0
M  V30 2324 H 230.135 -3.29235 2.12948 0
M  V30 2325 H 231.625 -3.94094 1.3813 0
M  V30 2326 N 232.062 -1.29571 -0.897171 0
M  V30 2327 C 233.012 -1.11539 -1.98855 0
M  V30 2328 C 233.996 -0.0340716 -1.60864 0
M  V30 2329 O 235.188 -0.256062 -1.75138 0
M  V30 2330 C 232.317 -0.796603 -3.3393 0
M  V30 2331 C 231.403 -1.91758 -3.78272 0
M  V30 2332 N 231.794 -3.16143 -3.94826 0
M  V30 2333 C 230.092 -1.81119 -4.07568 0
M  V30 2334 C 230.793 -3.89293 -4.32233 0
M  V30 2335 N 229.769 -3.17255 -4.41419 0
M  V30 2336 H 233.571 -2.05894 -2.09726 0
M  V30 2337 H 231.085 -1.20732 -1.08616 0
M  V30 2338 H 233.082 -0.648459 -4.11826 0
M  V30 2339 H 231.742 0.139003 -3.24402 0
M  V30 2340 H 232.753 -3.5157 -3.80288 0
M  V30 2341 H 229.43 -0.948461 -4.06584 0
M  V30 2342 H 230.82 -4.9635 -4.52865 0
M  V30 2343 N 233.54 1.10788 -1.12088 0
M  V30 2344 C 234.487 2.17025 -0.785407 0
M  V30 2345 C 235.457 1.64265 0.246191 0
M  V30 2346 O 236.642 1.90412 0.121584 0
M  V30 2347 C 233.782 3.44249 -0.242177 0
M  V30 2348 C 232.895 4.1098 -1.33115 0
M  V30 2349 C 232.03 5.25911 -0.747741 0
M  V30 2350 C 231.069 5.84538 -1.81609 0
M  V30 2351 N 230.206 6.90853 -1.25167 0
M  V30 2352 H 235.046 2.45066 -1.69548 0
M  V30 2353 H 232.583 1.20297 -0.846582 0
M  V30 2354 H 234.541 4.17101 0.0908026 0
M  V30 2355 H 233.171 3.16571 0.631072 0
M  V30 2356 H 232.223 3.36133 -1.78097 0
M  V30 2357 H 233.535 4.50601 -2.13917 0
M  V30 2358 H 232.689 6.056 -0.365216 0
M  V30 2359 H 231.428 4.87614 0.0915188 0
M  V30 2360 H 230.433 5.03522 -2.20785 0
M  V30 2361 H 231.658 6.249 -2.6585 0
M  V30 2362 H 229.604 6.54562 -0.434174 0
M  V30 2363 H 229.521 7.29166 -1.99633 0
M  V30 2364 H 230.789 7.7433 -0.896259 0
M  V30 2365 N 235.018 0.912232 1.28515 0
M  V30 2366 C 235.948 0.416403 2.29757 0
M  V30 2367 C 236.929 -0.515194 1.6211 0
M  V30 2368 O 238.114 -0.423253 1.89532 0
M  V30 2369 C 235.244 -0.34572 3.45575 0
M  V30 2370 C 234.198 0.496599 4.25109 0
M  V30 2371 C 233.524 -0.393771 5.33248 0
M  V30 2372 C 234.824 1.75307 4.92001 0
M  V30 2373 H 236.518 1.26249 2.7148 0
M  V30 2374 H 234.064 0.608515 1.30511 0
M  V30 2375 H 236.017 -0.703422 4.15488 0
M  V30 2376 H 234.741 -1.2257 3.02728 0
M  V30 2377 H 233.4 0.8368 3.56922 0
M  V30 2378 H 233.048 -1.27225 4.86644 0
M  V30 2379 H 232.748 0.166209 5.87365 0
M  V30 2380 H 234.272 -0.747389 6.06009 0
M  V30 2381 H 235.686 1.46437 5.54283 0
M  V30 2382 H 234.083 2.25534 5.56106 0
M  V30 2383 H 235.153 2.48176 4.16577 0
M  V30 2384 N 236.496 -1.42363 0.676048 0
M  V30 2385 C 237.444 -2.32596 -0.0131507 0
M  V30 2386 C 238.438 -1.49891 -0.789238 0
M  V30 2387 O 239.644 -1.65955 -0.697061 0
M  V30 2388 H 236.019 -0.751647 -0.0230481 0
M  V30 2389 H 237.99 -2.88421 0.765243 0
M  V30 2390 C 236.739 -3.34479 -0.949702 0
M  V30 2391 H 236.062 -3.98158 -0.361938 0
M  V30 2392 H 237.502 -4.00199 -1.4006 0
M  V30 2393 C 235.961 -2.66838 -2.05667 0
M  V30 2394 O 236.491 -2.50124 -3.14326 0
M  V30 2395 N 234.697 -2.25843 -1.82875 0
M  V30 2396 H 234.244 -2.39637 -0.945085 0
M  V30 2397 H 234.202 -1.80918 -2.5713 0
M  V30 2398 N 237.974 -0.419461 -1.51915 0
M  V30 2399 C 238.937 0.389116 -2.25873 0
M  V30 2400 C 239.937 0.964924 -1.28631 0
M  V30 2401 O 241.127 0.842179 -1.52489 0
M  V30 2402 C 238.259 1.54874 -3.03689 0
M  V30 2403 H 239.452 -0.258799 -2.98781 0
M  V30 2404 H 237.005 -0.172209 -1.55348 0
M  V30 2405 H 237.74 2.23323 -2.35154 0
M  V30 2406 H 237.525 1.14223 -3.75094 0
M  V30 2407 H 239.015 2.12046 -3.59759 0
M  V30 2408 N 239.452 1.56882 -0.150215 0
M  V30 2409 C 240.399 2.16922 0.788244 0
M  V30 2410 C 241.369 1.10303 1.24187 0
M  V30 2411 O 242.554 1.38359 1.31383 0
M  V30 2412 C 239.694 2.79754 2.02068 0
M  V30 2413 C 238.807 4.00775 1.61257 0
M  V30 2414 C 237.942 4.51595 2.79705 0
M  V30 2415 C 236.981 5.65074 2.35282 0
M  V30 2416 N 236.118 6.10499 3.4675 0
M  V30 2417 H 240.958 2.96779 0.269444 0
M  V30 2418 H 238.495 1.46599 0.12128 0
M  V30 2419 H 240.453 3.14329 2.74323 0
M  V30 2420 H 239.083 2.02536 2.51354 0
M  V30 2421 H 238.135 3.72158 0.787553 0
M  V30 2422 H 239.447 4.82978 1.24633 0
M  V30 2423 H 238.601 4.88242 3.60145 0
M  V30 2424 H 237.34 3.68406 3.19576 0
M  V30 2425 H 236.345 5.28 1.53283 0
M  V30 2426 H 237.57 6.50052 1.96493 0
M  V30 2427 H 235.516 5.30243 3.86236 0
M  V30 2428 H 235.433 6.87637 3.14152 0
M  V30 2429 H 236.701 6.51791 4.27537 0
M  V30 2430 N 240.93 -0.123565 1.57115 0
M  V30 2431 C 241.86 -1.15309 2.03042 0
M  V30 2432 C 242.841 -1.43454 0.914061 0
M  V30 2433 O 244.026 -1.53973 1.18347 0
M  V30 2434 C 241.156 -2.48043 2.43089 0
M  V30 2435 C 240.11 -2.3437 3.58127 0
M  V30 2436 C 239.436 -3.72026 3.84059 0
M  V30 2437 C 240.736 -1.80804 4.90007 0
M  V30 2438 H 242.43 -0.771102 2.893 0
M  V30 2439 H 239.976 -0.369479 1.39179 0
M  V30 2440 H 241.929 -3.20311 2.73823 0
M  V30 2441 H 240.653 -2.88122 1.53796 0
M  V30 2442 H 239.312 -1.64551 3.27595 0
M  V30 2443 H 238.96 -4.09582 2.91979 0
M  V30 2444 H 238.66 -3.63732 4.6149 0
M  V30 2445 H 240.184 -4.45806 4.1724 0
M  V30 2446 H 241.598 -2.42886 5.19307 0
M  V30 2447 H 239.995 -1.83343 5.71407 0
M  V30 2448 H 241.065 -0.76528 4.78823 0
M  V30 2449 N 242.408 -1.52605 -0.393616 0
M  V30 2450 C 243.371 -1.76415 -1.46323 0
M  V30 2451 C 244.371 -0.634126 -1.47768 0
M  V30 2452 O 245.561 -0.902142 -1.4902 0
M  V30 2453 C 242.693 -1.8607 -2.85641 0
M  V30 2454 H 243.886 -2.71916 -1.26498 0
M  V30 2455 H 241.439 -1.43257 -0.625073 0
M  V30 2456 H 242.174 -0.925378 -3.10817 0
M  V30 2457 H 241.959 -2.68235 -2.85993 0
M  V30 2458 H 243.449 -2.06179 -3.63153 0
M  V30 2459 N 243.887 0.651787 -1.4349 0
M  V30 2460 C 244.797 1.79368 -1.5121 0
M  V30 2461 C 245.813 1.69361 -0.399093 0
M  V30 2462 O 246.989 1.90505 -0.653431 0
M  V30 2463 C 244.054 3.15653 -1.43401 0
M  V30 2464 C 243.115 3.37446 -2.65384 0
M  V30 2465 C 242.348 4.67229 -2.57939 0
M  V30 2466 O 242.571 5.46676 -1.62792 0
M  V30 2467 O 241.505 4.90773 -3.48462 0
M  V30 2468 H 245.331 1.7581 -2.47638 0
M  V30 2469 H 242.916 0.810447 -1.25507 0
M  V30 2470 H 244.798 3.96935 -1.41494 0
M  V30 2471 H 243.473 3.19798 -0.501085 0
M  V30 2472 H 242.38 2.55923 -2.72863 0
M  V30 2473 H 243.713 3.38148 -3.57654 0
M  V30 2474 N 245.365 1.30045 0.890287 0
M  V30 2475 C 246.295 1.18541 2.01172 0
M  V30 2476 C 247.276 0.0773356 1.69924 0
M  V30 2477 O 248.461 0.25845 1.92473 0
M  V30 2478 C 245.591 0.870941 3.36202 0
M  V30 2479 C 244.545 1.93637 3.81692 0
M  V30 2480 C 243.871 1.475 5.13953 0
M  V30 2481 C 245.171 3.34666 4.00994 0
M  V30 2482 H 246.865 2.12359 2.11054 0
M  V30 2483 H 244.411 1.02238 1.01407 0
M  V30 2484 H 246.364 0.777141 4.14172 0
M  V30 2485 H 245.088 -0.102926 3.26438 0
M  V30 2486 H 243.747 2.01972 3.05946 0
M  V30 2487 H 243.395 0.489551 5.00612 0
M  V30 2488 H 243.095 2.1876 5.4536 0
M  V30 2489 H 244.619 1.39489 5.94454 0
M  V30 2490 H 246.033 3.2912 4.69417 0
M  V30 2491 H 244.43 4.03966 4.43769 0
M  V30 2492 H 245.5 3.76949 3.05021 0
M  V30 2493 N 246.843 -1.10192 1.12674 0
M  V30 2494 C 248.259 -1.34235 0.863317 0
M  V30 2495 C 248.459 -1.95062 -0.505277 0
M  V30 2496 O 247.515 -2.19192 -1.25345 0
M  V30 2497 C 248.828 -2.2616 1.98172 0
M  V30 2498 C 250.376 -2.3969 2.0129 0
M  V30 2499 C 250.851 -3.34946 3.1237 0
M  V30 2500 N 252.342 -3.42515 3.11829 0
M  V30 2501 C 253.077 -4.16199 3.94419 0
M  V30 2502 N 252.573 -4.92747 4.87004 0
M  V30 2503 N 254.366 -4.11843 3.82547 0
M  V30 2504 H 246.517 -0.690798 2.00853 0
M  V30 2505 H 248.78 -0.366774 0.874174 0
M  V30 2506 H 248.486 -1.8868 2.96804 0
M  V30 2507 H 248.36 -3.26488 1.88906 0
M  V30 2508 H 250.747 -2.76438 1.03276 0
M  V30 2509 H 250.828 -1.39169 2.14629 0
M  V30 2510 H 250.472 -2.98923 4.10619 0
M  V30 2511 H 250.402 -4.35353 2.96269 0
M  V30 2512 H 252.893 -2.87926 2.44759 0
M  V30 2513 H 253.206 -5.46376 5.46528 0
M  V30 2514 H 251.551 -4.91862 4.91016 0
M  V30 2515 H 254.742 -3.51136 3.0955 0
M  V30 2516 H 254.915 -4.69007 4.47142 0
M  V30 2517 N 248.321 -0.919034 -1.28029 0
M  V30 2518 C 249.737 -0.617972 -1.4715 0
M  V30 2519 C 249.937 0.835242 -1.83374 0
M  V30 2520 O 248.993 1.61388 -1.94191 0
M  V30 2521 C 250.306 -1.56041 -2.57044 0
M  V30 2522 C 251.854 -1.56769 -2.7091 0
M  V30 2523 C 252.329 -2.49688 -3.83953 0
M  V30 2524 N 253.82 -2.47845 -3.91314 0
M  V30 2525 C 254.555 -3.16437 -4.78179 0
M  V30 2526 N 254.051 -3.94376 -5.69596 0
M  V30 2527 N 255.844 -3.05498 -4.71834 0
M  V30 2528 H 247.995 -1.85866 -1.02798 0
M  V30 2529 H 250.258 -0.797506 -0.512531 0
M  V30 2530 H 249.964 -2.59671 -2.372 0
M  V30 2531 H 249.838 -1.29551 -3.54255 0
M  V30 2532 H 252.225 -0.538745 -2.90141 0
M  V30 2533 H 252.306 -1.87305 -1.74214 0
M  V30 2534 H 251.95 -3.52688 -3.65477 0
M  V30 2535 H 251.88 -2.16453 -4.80058 0
M  V30 2536 H 254.371 -1.91234 -3.25941 0
M  V30 2537 H 254.684 -4.43721 -6.32718 0
M  V30 2538 H 253.029 -3.98481 -5.69419 0
M  V30 2539 H 256.22 -2.44108 -3.99411 0
M  V30 2540 H 256.393 -3.59225 -5.39316 0
M  V30 2541 N 249.799 1.42003 -0.683588 0
M  V30 2542 C 250.747 2.326 0.000815408 0
M  V30 2543 C 251.741 1.50308 0.781278 0
M  V30 2544 O 252.947 1.66322 0.688251 0
M  V30 2545 H 249.322 0.751758 0.0190616 0
M  V30 2546 H 251.293 2.88011 -0.780528 0
M  V30 2547 C 250.042 3.34978 0.93195 0
M  V30 2548 H 249.365 3.98345 0.340817 0
M  V30 2549 H 250.805 4.00936 1.37936 0
M  V30 2550 C 249.264 2.67925 2.04249 0
M  V30 2551 O 249.794 2.51788 3.12995 0
M  V30 2552 N 248 2.2681 1.81675 0
M  V30 2553 H 247.547 2.40135 0.932363 0
M  V30 2554 H 247.505 1.8228 2.56167 0
M  V30 2555 N 251.277 0.427512 1.51691 0
M  V30 2556 C 252.525 -0.141948 2.01601 0
M  V30 2557 C 252.846 -1.44067 1.31414 0
M  V30 2558 O 252.116 -1.90763 0.445658 0
M  V30 2559 H 250.696 -0.0554468 0.744939 0
M  V30 2560 H 253.358 0.567968 1.86441 0
M  V30 2561 H 252.454 -0.324913 3.10404 0
M  V30 2562 N 252.755 -1.56801 0.158532 0
M  V30 2563 C 253.983 -2.00859 -0.496303 0
M  V30 2564 C 254.398 -1.03871 -1.57659 0
M  V30 2565 O 253.755 -0.0375165 -1.82461 0
M  V30 2566 C 253.806 -3.4479 -1.08638 0
M  V30 2567 O 253.527 -4.38072 -0.0492322 0
M  V30 2568 C 255.028 -4.04185 -1.8207 0
M  V30 2569 H 252.248 -0.65864 -0.128199 0
M  V30 2570 H 254.792 -2.02885 0.256506 0
M  V30 2571 H 252.947 -3.43579 -1.78975 0
M  V30 2572 H 253.361 -5.2227 -0.483102 0
M  V30 2573 H 254.835 -5.06857 -2.18633 0
M  V30 2574 H 255.312 -3.45549 -2.71095 0
M  V30 2575 H 255.918 -4.0906 -1.16405 0
M  V30 2576 N 254.233 0.115231 -1.57178 0
M  V30 2577 C 255.163 1.1423 -2.03651 0
M  V30 2578 C 256.144 1.42967 -0.921655 0
M  V30 2579 O 257.329 1.53343 -1.19162 0
M  V30 2580 C 254.459 2.4675 -2.44401 0
M  V30 2581 C 253.413 2.32467 -3.59365 0
M  V30 2582 C 252.739 3.69984 -3.86026 0
M  V30 2583 C 254.039 1.78203 -4.90959 0
M  V30 2584 H 255.733 0.755749 -2.89705 0
M  V30 2585 H 253.279 0.362093 -1.39373 0
M  V30 2586 H 255.232 3.18854 -2.75517 0
M  V30 2587 H 253.956 2.87302 -1.55322 0
M  V30 2588 H 252.615 1.62811 -3.28463 0
M  V30 2589 H 252.263 4.08028 -2.94147 0
M  V30 2590 H 251.963 3.61279 -4.63412 0
M  V30 2591 H 253.487 4.43587 -4.19599 0
M  V30 2592 H 254.901 2.40128 -5.20587 0
M  V30 2593 H 253.298 1.8031 -5.72371 0
M  V30 2594 H 254.368 0.739876 -4.79222 0
M  V30 2595 N 255.711 1.52812 0.385517 0
M  V30 2596 C 257.122 1.5993 0.963293 0
M  V30 2597 C 257.473 0.454302 1.90868 0
M  V30 2598 O 256.598 -0.422132 2.12243 0
M  V30 2599 C 257.193 2.89871 1.75387 0
M  V30 2600 C 255.752 2.99389 2.28129 0
M  V30 2601 C 254.899 2.55071 1.08783 0
M  V30 2602 H 257.85 1.5784 0.164948 0
M  V30 2603 H 257.871 2.76553 2.61341 0
M  V30 2604 H 257.383 3.73186 1.06554 0
M  V30 2605 H 255.484 2.20619 3.00263 0
M  V30 2606 H 255.597 4.04096 2.57377 0
M  V30 2607 H 253.961 2.09473 1.4489 0
M  V30 2608 H 254.744 3.40785 0.414807 0
M  V30 2609 N 257.189 -0.644168 1.43834 0
M  V30 2610 C 258.435 -1.40431 1.47141 0
M  V30 2611 C 258.79 -1.92153 0.0975577 0
M  V30 2612 O 258.083 -1.69924 -0.885232 0
M  V30 2613 C 258.277 -2.59615 2.45631 0
M  V30 2614 C 258.106 -2.1956 3.92458 0
M  V30 2615 C 256.876 -2.07456 4.60749 0
M  V30 2616 C 259.074 -1.79281 4.8204 0
M  V30 2617 N 257.056 -1.60827 5.92459 0
M  V30 2618 C 258.427 -1.43801 6.03093 0
M  V30 2619 C 260.482 -1.66545 4.6922 0
M  V30 2620 C 259.185 -0.968599 7.12749 0
M  V30 2621 C 261.211 -1.21008 5.78888 0
M  V30 2622 C 260.573 -0.864711 6.99072 0
M  V30 2623 H 256.672 -0.509182 0.593513 0
M  V30 2624 H 259.256 -0.740351 1.80075 0
M  V30 2625 H 257.427 -3.23658 2.1471 0
M  V30 2626 H 259.159 -3.26357 2.39318 0
M  V30 2627 H 255.914 -2.275 4.1538 0
M  V30 2628 H 256.338 -1.39848 6.62398 0
M  V30 2629 H 260.98 -1.91883 3.7675 0
M  V30 2630 H 258.698 -0.702715 8.05039 0
M  V30 2631 H 262.284 -1.11631 5.7099 0
M  V30 2632 H 261.164 -0.517736 7.82489 0
M  V30 2633 N 258.668 -1.30515 -0.883378 0
M  V30 2634 C 259.598 -1.19607 -2.00541 0
M  V30 2635 C 260.579 -0.086346 -1.69881 0
M  V30 2636 O 261.764 -0.268654 -1.92333 0
M  V30 2637 C 258.894 -0.888758 -3.35736 0
M  V30 2638 C 257.848 -1.95659 -3.8066 0
M  V30 2639 C 257.174 -1.50224 -5.13164 0
M  V30 2640 C 258.474 -3.36788 -3.99213 0
M  V30 2641 H 260.168 -2.13476 -2.09925 0
M  V30 2642 H 257.714 -1.02775 -1.00863 0
M  V30 2643 H 259.667 -0.799094 -4.13754 0
M  V30 2644 H 258.391 0.0856125 -3.26488 0
M  V30 2645 H 257.05 -2.03591 -3.04871 0
M  V30 2646 H 256.698 -0.516092 -5.00345 0
M  V30 2647 H 256.398 -2.2165 -5.44192 0
M  V30 2648 H 257.922 -1.42639 -5.93706 0
M  V30 2649 H 259.336 -3.31605 -4.67665 0
M  V30 2650 H 257.733 -4.06314 -4.41621 0
M  V30 2651 H 258.803 -3.78561 -3.03017 0
M  V30 2652 N 260.146 1.09593 -1.13257 0
M  V30 2653 C 261.562 1.33775 -0.870423 0
M  V30 2654 C 261.762 1.95327 0.494926 0
M  V30 2655 O 260.818 2.19853 1.2418 0
M  V30 2656 C 262.131 2.25106 -1.99369 0
M  V30 2657 C 263.679 2.3862 -2.02558 0
M  V30 2658 C 264.154 3.33285 -3.14142 0
M  V30 2659 N 265.645 3.40857 -3.13641 0
M  V30 2660 C 266.38 4.14101 -3.96621 0
M  V30 2661 N 265.876 4.90157 -4.8961 0
M  V30 2662 N 267.669 4.09808 -3.84726 0
M  V30 2663 H 259.82 0.680136 -2.01216 0
M  V30 2664 H 262.083 0.362133 -0.876107 0
M  V30 2665 H 261.789 1.87103 -2.97801 0
M  V30 2666 H 261.663 3.25481 -1.90635 0
M  V30 2667 H 264.05 2.75887 -1.0474 0
M  V30 2668 H 264.131 1.38028 -2.15364 0
M  V30 2669 H 263.775 2.96741 -4.12198 0
M  V30 2670 H 263.705 4.33776 -2.98574 0
M  V30 2671 H 266.196 2.86624 -2.46282 0
M  V30 2672 H 266.509 5.4347 -5.49418 0
M  V30 2673 H 264.854 4.89251 -4.93617 0
M  V30 2674 H 268.045 3.4949 -3.11408 0
M  V30 2675 H 268.218 4.66629 -4.49623 0
M  V30 2676 N 261.624 0.925811 1.2754 0
M  V30 2677 C 263.035 0.610102 1.7645 0
M  V30 2678 C 263.386 -0.874723 1.75622 0
M  V30 2679 O 262.511 -1.68444 1.35851 0
M  V30 2680 C 263.106 1.10073 3.20421 0
M  V30 2681 C 261.665 0.835723 3.67005 0
M  V30 2682 C 260.812 1.26054 2.46993 0
M  V30 2683 H 263.763 1.10579 1.13833 0
M  V30 2684 H 263.784 0.447557 3.77859 0
M  V30 2685 H 263.296 2.18143 3.20991 0
M  V30 2686 H 261.397 -0.231249 3.71882 0
M  V30 2687 H 261.51 1.45193 4.56569 0
M  V30 2688 H 259.874 0.679111 2.45479 0
M  V30 2689 H 260.657 2.34984 2.50275 0
M  V30 2690 N 263.102 -1.41638 0.69111 0
M  V30 2691 C 264.379 -1.95036 0.148421 0
M  V30 2692 C 264.759 -1.63072 -1.34055 0
M  V30 2693 O 264.107 -0.93538 -2.08478 0
M  V30 2694 C 264.317 -3.46279 0.434951 0
M  V30 2695 C 265.665 -4.23069 0.360275 0
M  V30 2696 O 266.689 -3.54277 0.369613 0
M  V30 2697 O 265.548 -5.45583 0.316534 0
M  V30 2698 H 262.642 -0.826908 0.0123654 0
M  V30 2699 H 265.188 -1.5138 0.766963 0
M  V30 2700 H 263.96 -3.6281 1.46576 0
M  V30 2701 H 263.583 -3.97019 -0.214787 0
M  V30 2702 N 264.58 -0.43555 -1.51462 0
M  V30 2703 C 265.805 0.132627 -2.06976 0
M  V30 2704 C 266.23 1.35848 -1.30104 0
M  V30 2705 O 265.588 1.78112 -0.338493 0
M  V30 2706 C 265.636 0.43523 -3.57964 0
M  V30 2707 O 264.74 1.52198 -3.83288 0
M  V30 2708 H 264.081 0.00265 -0.663995 0
M  V30 2709 H 266.611 -0.616369 -1.95095 0
M  V30 2710 H 266.621 0.686206 -4.02188 0
M  V30 2711 H 265.296 -0.460739 -4.1334 0
M  V30 2712 H 263.873 1.2611 -3.50928 0
M  V30 2713 N 266.058 1.56714 -0.166846 0
M  V30 2714 C 267.005 2.17746 0.765193 0
M  V30 2715 C 267.975 1.11614 1.23011 0
M  V30 2716 O 269.16 1.39745 1.29908 0
M  V30 2717 C 266.3 2.81882 1.9909 0
M  V30 2718 C 265.413 4.02462 1.56997 0
M  V30 2719 C 264.548 4.54537 2.749 0
M  V30 2720 C 263.587 5.67538 2.29275 0
M  V30 2721 N 262.724 6.14142 3.40255 0
M  V30 2722 H 267.564 2.97048 0.237952 0
M  V30 2723 H 265.101 1.4672 0.105725 0
M  V30 2724 H 267.059 3.17221 2.70974 0
M  V30 2725 H 265.689 2.05191 2.49192 0
M  V30 2726 H 264.741 3.72973 0.748037 0
M  V30 2727 H 266.053 4.84273 1.19503 0
M  V30 2728 H 265.207 4.92035 3.54946 0
M  V30 2729 H 263.946 3.71774 3.1565 0
M  V30 2730 H 262.951 5.29597 1.47674 0
M  V30 2731 H 264.176 6.52099 1.89588 0
M  V30 2732 H 262.122 5.3431 3.8059 0
M  V30 2733 H 262.039 6.9093 3.06841 0
M  V30 2734 H 263.307 6.56289 4.206 0
M  V30 2735 N 267.536 -0.106894 1.57237 0
M  V30 2736 C 268.764 -0.826389 1.8968 0
M  V30 2737 C 269.179 -1.72856 0.759353 0
M  V30 2738 O 268.536 -1.80503 -0.269263 0
M  V30 2739 C 268.587 -1.64967 3.21665 0
M  V30 2740 O 268.308 -0.783804 4.31031 0
M  V30 2741 C 269.809 -2.47326 3.67892 0
M  V30 2742 H 267.029 -0.236927 0.627779 0
M  V30 2743 H 269.573 -0.0876593 2.04312 0
M  V30 2744 H 267.728 -2.34103 3.08666 0
M  V30 2745 H 268.142 -1.35284 5.06753 0
M  V30 2746 H 269.616 -3.00604 4.6297 0
M  V30 2747 H 270.093 -3.25247 2.95146 0
M  V30 2748 H 270.699 -1.83411 3.83719 0
M  V30 2749 N 269.014 -1.53014 -0.377408 0
M  V30 2750 C 269.946 -1.74884 -1.48149 0
M  V30 2751 C 270.959 -0.629433 -1.5014 0
M  V30 2752 O 272.148 -0.905416 -1.53833 0
M  V30 2753 C 269.248 -1.80299 -2.86959 0
M  V30 2754 C 268.421 -3.09776 -3.08801 0
M  V30 2755 C 267.48 -3.06586 -4.27658 0
M  V30 2756 O 266.506 -3.80419 -4.23403 0
M  V30 2757 N 267.708 -2.26578 -5.34455 0
M  V30 2758 H 270.473 -2.70147 -1.29771 0
M  V30 2759 H 268.034 -1.51646 -0.56703 0
M  V30 2760 H 270.026 -1.75657 -3.64591 0
M  V30 2761 H 268.596 -0.92372 -2.98641 0
M  V30 2762 H 267.816 -3.27815 -2.18931 0
M  V30 2763 H 269.104 -3.95366 -3.20255 0
M  V30 2764 H 268.502 -1.66081 -5.40771 0
M  V30 2765 H 267.059 -2.27766 -6.10709 0
M  V30 2766 N 270.492 0.636531 -1.44174 0
M  V30 2767 C 271.738 1.39826 -1.4689 0
M  V30 2768 C 272.071 1.93947 -0.0990585 0
M  V30 2769 O 271.346 1.73325 0.882544 0
M  V30 2770 C 271.629 2.56751 -2.5249 0
M  V30 2771 C 271.482 2.08014 -3.98811 0
M  V30 2772 C 272.801 3.58946 -2.54649 0
M  V30 2773 H 269.92 0.507075 -0.53483 0
M  V30 2774 H 272.562 0.720188 -1.75822 0
M  V30 2775 H 270.712 3.14597 -2.2795 0
M  V30 2776 H 272.384 1.5504 -4.34466 0
M  V30 2777 H 270.627 1.39242 -4.10846 0
M  V30 2778 H 271.298 2.92169 -4.68339 0
M  V30 2779 H 273.774 3.1089 -2.76563 0
M  V30 2780 H 272.65 4.38286 -3.3045 0
M  V30 2781 H 272.911 4.12655 -1.58646 0
M  V30 2782 N 271.97 1.30982 0.876444 0
M  V30 2783 C 273.198 1.23242 1.6619 0
M  V30 2784 C 273.613 -0.203345 1.87702 0
M  V30 2785 O 272.97 -1.13317 1.43057 0
M  V30 2786 C 273.021 1.96623 3.03351 0
M  V30 2787 O 272.742 3.34594 2.82804 0
M  V30 2788 C 274.243 1.95644 3.97792 0
M  V30 2789 H 271.463 0.426126 0.518322 0
M  V30 2790 H 274.007 1.7275 1.09442 0
M  V30 2791 H 272.162 1.50892 3.56806 0
M  V30 2792 H 272.576 3.71873 3.69879 0
M  V30 2793 H 274.05 2.51511 4.91372 0
M  V30 2794 H 274.527 0.937395 4.2908 0
M  V30 2795 H 275.133 2.41225 3.50272 0
M  V30 2796 N 273.449 -1.08991 1.13837 0
M  V30 2797 C 274.695 -1.81526 0.90422 0
M  V30 2798 C 275.028 -1.85706 -0.568066 0
M  V30 2799 O 274.303 -1.32855 -1.42056 0
M  V30 2800 C 274.586 -3.27447 1.49835 0
M  V30 2801 C 274.439 -3.31512 3.04006 0
M  V30 2802 C 275.758 -4.24256 1.17025 0
M  V30 2803 H 272.877 -0.659029 0.329923 0
M  V30 2804 H 275.519 -1.27644 1.40737 0
M  V30 2805 H 273.669 -3.73462 1.07044 0
M  V30 2806 H 275.341 -2.93867 3.55584 0
M  V30 2807 H 273.584 -2.70963 3.38765 0
M  V30 2808 H 274.255 -4.34329 3.40679 0
M  V30 2809 H 276.731 -3.86549 1.54009 0
M  V30 2810 H 275.607 -5.24684 1.61237 0
M  V30 2811 H 275.868 -4.42019 0.0846274 0
M  V30 2812 N 274.927 -0.932562 -1.27047 0
M  V30 2813 C 275.859 -0.392734 -2.2581 0
M  V30 2814 C 276.872 0.479241 -1.55586 0
M  V30 2815 O 278.061 0.291078 -1.76111 0
M  V30 2816 C 275.161 0.455456 -3.35826 0
M  V30 2817 C 274.334 -0.398355 -4.35582 0
M  V30 2818 C 273.393 0.387985 -5.24768 0
M  V30 2819 O 272.419 -0.206003 -5.68827 0
M  V30 2820 N 273.621 1.68664 -5.55457 0
M  V30 2821 H 276.386 -1.24173 -2.72766 0
M  V30 2822 H 273.947 -0.800511 -1.40725 0
M  V30 2823 H 275.939 0.988692 -3.92437 0
M  V30 2824 H 274.509 1.20522 -2.88432 0
M  V30 2825 H 273.729 -1.11286 -3.78165 0
M  V30 2826 H 275.017 -0.981889 -4.99236 0
M  V30 2827 H 274.415 2.19147 -5.21528 0
M  V30 2828 H 272.972 2.1663 -6.14748 0
M  V30 2829 N 276.405 1.4127 -0.698611 0
M  V30 2830 C 277.635 2.05205 -0.239644 0
M  V30 2831 C 278.043 1.52684 1.11733 0
M  V30 2832 O 277.386 0.671222 1.70998 0
M  V30 2833 C 277.448 3.59289 -0.123126 0
M  V30 2834 C 277.112 4.34619 -1.41263 0
M  V30 2835 C 278.109 4.63701 -2.35111 0
M  V30 2836 C 275.794 4.73837 -1.66684 0
M  V30 2837 C 277.788 5.30966 -3.52639 0
M  V30 2838 C 275.475 5.40837 -2.84498 0
M  V30 2839 C 276.473 5.69329 -3.77298 0
M  V30 2840 O 276.161 6.34949 -4.93047 0
M  V30 2841 H 275.893 0.66723 -0.108537 0
M  V30 2842 H 278.447 1.81974 -0.952602 0
M  V30 2843 H 276.677 3.81272 0.645628 0
M  V30 2844 H 278.366 4.04797 0.299056 0
M  V30 2845 H 279.132 4.33882 -2.16729 0
M  V30 2846 H 275.011 4.51039 -0.953135 0
M  V30 2847 H 278.555 5.53121 -4.25091 0
M  V30 2848 H 274.452 5.70075 -3.02795 0
M  V30 2849 H 275.22 6.53445 -4.92902 0
M  V30 2850 N 277.883 0.443576 1.51229 0
M  V30 2851 C 278.816 -0.410089 2.24485 0
M  V30 2852 C 279.794 -1.01949 1.26669 0
M  V30 2853 O 280.978 -1.06075 1.55821 0
M  V30 2854 C 278.105 -1.57211 3.00004 0
M  V30 2855 C 277.151 -1.08279 4.12526 0
M  V30 2856 S 277.984 -0.0197476 5.35496 0
M  V30 2857 C 279.14 -1.18629 6.14555 0
M  V30 2858 H 279.373 0.211832 2.96544 0
M  V30 2859 H 276.906 0.228156 1.52705 0
M  V30 2860 H 278.864 -2.23825 3.44111 0
M  V30 2861 H 277.525 -2.16547 2.27522 0
M  V30 2862 H 276.718 -1.95193 4.64667 0
M  V30 2863 H 276.32 -0.494797 3.70713 0
M  V30 2864 H 278.612 -2.10344 6.4402 0
M  V30 2865 H 279.555 -0.70472 7.04584 0
M  V30 2866 H 279.963 -1.42768 5.46148 0
M  V30 2867 N 279.361 -1.56624 0.175154 0
M  V30 2868 C 280.293 -2.15333 -0.785128 0
M  V30 2869 C 281.306 -1.1099 -1.19101 0
M  V30 2870 O 282.495 -1.38162 -1.13019 0
M  V30 2871 C 279.595 -2.68427 -2.06882 0
M  V30 2872 C 278.768 -3.97466 -1.8259 0
M  V30 2873 C 277.827 -4.35585 -2.95215 0
M  V30 2874 O 276.853 -5.03389 -2.65684 0
M  V30 2875 N 278.055 -3.97457 -4.23094 0
M  V30 2876 H 280.82 -2.98359 -0.283187 0
M  V30 2877 H 278.381 -1.61898 -0.00749817 0
M  V30 2878 H 280.373 -2.90924 -2.81328 0
M  V30 2879 H 278.943 -1.89968 -2.48256 0
M  V30 2880 H 278.163 -3.83307 -0.920287 0
M  V30 2881 H 279.451 -4.81736 -1.63733 0
M  V30 2882 H 278.849 -3.42878 -4.49945 0
M  V30 2883 H 277.406 -4.24947 -4.9423 0
M  V30 2884 N 280.839 0.0985539 -1.57292 0
M  V30 2885 C 282.116 0.834155 -1.76921 0
M  V30 2886 C 282.496 1.97101 -0.755928 0
M  V30 2887 O 281.844 2.27474 0.216245 0
M  V30 2888 C 282.054 1.33194 -3.22584 0
M  V30 2889 C 283.402 1.77611 -3.85668 0
M  V30 2890 O 284.426 1.42825 -3.26312 0
M  V30 2891 O 283.285 2.4192 -4.90038 0
M  V30 2892 H 280.379 0.397628 -0.725135 0
M  V30 2893 H 282.925 0.0807044 -1.69508 0
M  V30 2894 H 281.697 0.517248 -3.87866 0
M  V30 2895 H 281.32 2.1475 -3.34616 0
M  V30 2896 N 282.317 1.53212 0.369288 0
M  V30 2897 C 283.733 1.42902 0.710712 0
M  V30 2898 C 283.933 0.565135 1.93413 0
M  V30 2899 O 282.989 0.0461484 2.52458 0
M  V30 2900 C 284.302 2.86042 0.927382 0
M  V30 2901 C 285.85 2.9565 1.02762 0
M  V30 2902 C 286.325 4.39843 1.27679 0
M  V30 2903 N 287.816 4.43256 1.34457 0
M  V30 2904 C 288.551 5.51929 1.55439 0
M  V30 2905 N 288.047 6.70655 1.73762 0
M  V30 2906 N 289.84 5.39502 1.57779 0
M  V30 2907 H 281.991 2.07888 -0.435457 0
M  V30 2908 H 284.254 0.938661 -0.132739 0
M  V30 2909 H 283.96 3.51557 0.100287 0
M  V30 2910 H 283.834 3.29472 1.83653 0
M  V30 2911 H 286.221 2.30291 1.84527 0
M  V30 2912 H 286.302 2.5562 0.0959504 0
M  V30 2913 H 285.946 5.05774 0.464175 0
M  V30 2914 H 285.876 4.77443 2.22162 0
M  V30 2915 H 288.367 3.5769 1.21926 0
M  V30 2916 H 288.68 7.49248 1.89335 0
M  V30 2917 H 287.025 6.73648 1.70948 0
M  V30 2918 H 290.216 4.45713 1.43029 0
M  V30 2919 H 290.389 6.2426 1.7379 0
M  V30 2920 N 283.795 -0.628877 1.44509 0
M  V30 2921 C 285.043 -1.38565 1.4712 0
M  V30 2922 C 285.364 -1.94712 0.105899 0
M  V30 2923 O 284.634 -1.75912 -0.862079 0
M  V30 2924 H 283.214 -0.514333 0.541729 0
M  V30 2925 H 285.876 -0.740018 1.80305 0
M  V30 2926 H 284.972 -2.21583 2.19789 0
M  V30 2927 N 285.273 -1.31445 -0.869486 0
M  V30 2928 C 286.236 -1.19094 -1.9583 0
M  V30 2929 C 287.236 -0.117906 -1.60367 0
M  V30 2930 O 288.426 -0.367208 -1.70286 0
M  V30 2931 C 285.558 -0.828165 -3.30688 0
M  V30 2932 H 286.751 -2.15842 -2.08212 0
M  V30 2933 H 284.304 -1.15063 -1.05784 0
M  V30 2934 H 285.039 0.138142 -3.24006 0
M  V30 2935 H 284.824 -1.6038 -3.578 0
M  V30 2936 H 286.314 -0.765658 -4.10521 0
M  V30 2937 N 286.751 1.08385 -1.14413 0
M  V30 2938 C 287.997 1.81044 -0.913834 0
M  V30 2939 C 288.33 1.86004 0.558209 0
M  V30 2940 O 287.605 1.33606 1.4135 0
M  V30 2941 C 287.888 3.26648 -1.51569 0
M  V30 2942 C 287.741 3.29895 -3.0576 0
M  V30 2943 C 289.06 4.23629 -1.19273 0
M  V30 2944 H 286.179 0.65727 -0.333414 0
M  V30 2945 H 288.821 1.26896 -1.41412 0
M  V30 2946 H 286.971 3.72889 -1.09023 0
M  V30 2947 H 288.643 2.91977 -3.57137 0
M  V30 2948 H 286.886 2.69163 -3.40197 0
M  V30 2949 H 287.557 4.32516 -3.42977 0
M  V30 2950 H 290.033 3.85727 -1.56057 0
M  V30 2951 H 288.909 5.23822 -1.64017 0
M  V30 2952 H 289.17 4.41968 -0.108068 0
M  V30 2953 N 288.23 0.939286 1.26551 0
M  V30 2954 C 289.16 0.465044 2.28822 0
M  V30 2955 C 290.141 -0.480692 1.63167 0
M  V30 2956 O 291.326 -0.382955 1.90387 0
M  V30 2957 C 288.456 -0.27234 3.46231 0
M  V30 2958 C 287.41 0.58666 4.2396 0
M  V30 2959 C 286.736 -0.280573 5.33963 0
M  V30 2960 C 288.036 1.85704 4.88171 0
M  V30 2961 H 289.73 1.31979 2.68741 0
M  V30 2962 H 287.276 0.636061 1.29191 0
M  V30 2963 H 289.229 -0.615133 4.16886 0
M  V30 2964 H 287.953 -1.16121 3.0526 0
M  V30 2965 H 286.612 0.91232 3.55067 0
M  V30 2966 H 286.26 -1.16874 4.89234 0
M  V30 2967 H 285.96 0.29076 5.8688 0
M  V30 2968 H 287.484 -0.618678 6.07458 0
M  V30 2969 H 288.898 1.58161 5.51052 0
M  V30 2970 H 287.295 2.37279 5.51197 0
M  V30 2971 H 288.365 2.56957 4.11219 0
M  V30 2972 N 289.708 -1.40897 0.706093 0
M  V30 2973 C 291.119 -1.84023 0.315052 0
M  V30 2974 C 291.47 -1.5906 -1.14866 0
M  V30 2975 O 290.595 -1.06651 -1.88293 0
M  V30 2976 C 291.19 -3.34055 0.565038 0
M  V30 2977 C 289.749 -3.7571 0.227806 0
M  V30 2978 C 288.896 -2.64204 0.842122 0
M  V30 2979 H 291.847 -1.303 0.905963 0
M  V30 2980 H 291.868 -3.80107 -0.172843 0
M  V30 2981 H 291.38 -3.52192 1.63042 0
M  V30 2982 H 289.481 -3.63172 -0.832895 0
M  V30 2983 H 289.594 -4.74103 0.690174 0
M  V30 2984 H 287.958 -2.53255 0.270893 0
M  V30 2985 H 288.741 -2.85155 1.91158 0
M  V30 2986 N 291.186 -0.45159 -1.50991 0
M  V30 2987 C 292.435 0.111653 -2.01391 0
M  V30 2988 C 292.748 1.42529 -1.33959 0
M  V30 2989 O 293.954 2.07232 -1.75405 0
M  V30 2990 C 292.41 0.249514 -3.59034 0
M  V30 2991 C 292.018 -1.05453 -4.35412 0
M  V30 2992 C 293.762 0.765762 -4.17536 0
M  V30 2993 C 291.669 -0.881529 -5.84793 0
M  V30 2994 H 290.599 0.0455022 -0.752626 0
M  V30 2995 H 293.25 -0.583524 -1.73975 0
M  V30 2996 H 291.632 1.00803 -3.82955 0
M  V30 2997 H 292.806 -1.82248 -4.23229 0
M  V30 2998 H 291.121 -1.50039 -3.88429 0
M  V30 2999 H 293.718 0.911913 -5.26866 0
M  V30 3000 H 294.061 1.75201 -3.77638 0
M  V30 3001 H 294.594 0.0651744 -3.97747 0
M  V30 3002 H 291.333 -1.84057 -6.29129 0
M  V30 3003 H 290.853 -0.153625 -5.99603 0
M  V30 3004 H 292.532 -0.540363 -6.4474 0
M  V30 3005 N 292.664 1.56529 -0.183458 0
M  V30 3006 C 294.08 1.58664 0.172554 0
M  V30 3007 C 294.28 1.19925 1.61926 0
M  V30 3008 O 293.336 0.916534 2.35278 0
M  V30 3009 C 294.649 3.00463 -0.119262 0
M  V30 3010 C 296.197 3.12945 -0.0584396 0
M  V30 3011 C 296.672 4.56857 -0.323408 0
M  V30 3012 N 298.163 4.62403 -0.271612 0
M  V30 3013 C 298.898 5.71626 -0.450639 0
M  V30 3014 N 298.394 6.89362 -0.689384 0
M  V30 3015 N 300.187 5.60775 -0.385701 0
M  V30 3016 H 292.338 1.79994 -1.12765 0
M  V30 3017 H 294.601 0.834808 -0.449222 0
M  V30 3018 H 294.307 3.33326 -1.12192 0
M  V30 3019 H 294.181 3.72659 0.583544 0
M  V30 3020 H 296.568 2.79902 0.934805 0
M  V30 3021 H 296.649 2.4316 -0.794144 0
M  V30 3022 H 296.293 4.9061 -1.31392 0
M  V30 3023 H 296.223 5.24816 0.43305 0
M  V30 3024 H 298.714 3.77785 -0.0932256 0
M  V30 3025 H 299.027 7.68489 -0.815113 0
M  V30 3026 H 297.372 6.91196 -0.726142 0
M  V30 3027 H 300.563 4.67674 -0.199687 0
M  V30 3028 H 300.736 6.4584 -0.528646 0
M  V30 3029 N 294.142 -0.090211 1.57342 0
M  V30 3030 C 295.388 -0.793982 1.86611 0
M  V30 3031 C 295.721 -1.78142 0.773252 0
M  V30 3032 O 294.996 -1.93271 -0.218304 0
M  V30 3033 C 295.279 -1.51839 3.26523 0
M  V30 3034 C 295.132 -0.548609 4.46442 0
M  V30 3035 C 296.451 -2.46779 3.64401 0
M  V30 3036 H 293.57 -0.287186 0.678744 0
M  V30 3037 H 296.212 -0.0575076 1.89913 0
M  V30 3038 H 294.362 -2.14617 3.23839 0
M  V30 3039 H 296.034 0.0725513 4.61243 0
M  V30 3040 H 294.277 0.137614 4.33582 0
M  V30 3041 H 294.948 -1.09271 5.41076 0
M  V30 3042 H 297.424 -1.94089 3.68061 0
M  V30 3043 H 296.3 -2.94479 4.63221 0
M  V30 3044 H 296.561 -3.30758 2.93346 0
M  V30 3045 N 295.62 -1.53406 -0.361157 0
M  V30 3046 C 296.57 -1.76536 -1.44287 0
M  V30 3047 C 297.554 -0.620019 -1.48474 0
M  V30 3048 O 298.746 -0.878834 -1.53641 0
M  V30 3049 C 295.875 -1.96266 -2.81664 0
M  V30 3050 C 294.961 -3.16815 -2.81938 0
M  V30 3051 N 295.352 -4.38637 -2.51855 0
M  V30 3052 C 293.65 -3.17627 -3.13096 0
M  V30 3053 C 294.351 -5.20401 -2.59919 0
M  V30 3054 N 293.327 -4.56712 -2.94814 0
M  V30 3055 H 297.129 -2.68331 -1.19899 0
M  V30 3056 H 294.643 -1.52091 -0.56938 0
M  V30 3057 H 296.64 -2.10966 -3.59582 0
M  V30 3058 H 295.3 -1.05702 -3.07013 0
M  V30 3059 H 296.311 -4.66293 -2.25369 0
M  V30 3060 H 292.988 -2.36971 -3.43731 0
M  V30 3061 H 294.378 -6.27586 -2.39969 0
M  V30 3062 N 297.098 0.621204 -1.44841 0
M  V30 3063 C 298.326 1.40752 -1.51646 0
M  V30 3064 C 298.741 1.88246 -0.144549 0
M  V30 3065 O 298.098 1.61422 0.851416 0
M  V30 3066 C 298.149 2.62119 -2.4895 0
M  V30 3067 O 297.87 2.16602 -3.80808 0
M  V30 3068 C 299.371 3.55135 -2.65319 0
M  V30 3069 H 296.591 0.431325 -0.514004 0
M  V30 3070 H 299.135 0.758835 -1.899 0
M  V30 3071 H 297.29 3.23058 -2.13805 0
M  V30 3072 H 297.704 2.95358 -4.33433 0
M  V30 3073 H 299.178 4.36874 -3.37409 0
M  V30 3074 H 299.655 4.04592 -1.70886 0
M  V30 3075 H 300.261 3.00058 -3.01405 0
M  V30 3076 N 298.576 1.31904 0.862503 0
M  V30 3077 C 299.825 1.21373 1.61094 0
M  V30 3078 C 300.138 -0.22504 1.94301 0
M  V30 3079 O 301.344 -0.452121 2.67709 0
M  V30 3080 C 299.8 2.12525 2.9045 0
M  V30 3081 C 299.408 3.61441 2.64697 0
M  V30 3082 C 301.152 2.10813 3.68454 0
M  V30 3083 C 299.059 4.44578 3.90006 0
M  V30 3084 H 297.989 0.450705 0.604468 0
M  V30 3085 H 300.64 1.56811 0.953027 0
M  V30 3086 H 299.022 1.69994 3.57656 0
M  V30 3087 H 300.196 4.12264 2.05851 0
M  V30 3088 H 298.511 3.65205 2.00036 0
M  V30 3089 H 301.108 2.70167 4.61426 0
M  V30 3090 H 301.451 1.09713 4.01583 0
M  V30 3091 H 301.984 2.51583 3.08141 0
M  V30 3092 H 298.723 5.46461 3.62023 0
M  V30 3093 H 298.243 3.98508 4.48276 0
M  V30 3094 H 299.922 4.57176 4.5782 0
M  V30 3095 N 300.054 -1.07777 1.14986 0
M  V30 3096 C 301.3 -1.80557 0.923422 0
M  V30 3097 C 301.633 -1.86298 -0.548337 0
M  V30 3098 O 300.908 -1.34354 -1.40639 0
M  V30 3099 C 301.191 -3.25839 1.53299 0
M  V30 3100 C 301.044 -3.28269 3.07505 0
M  V30 3101 C 302.363 -4.22991 1.21518 0
M  V30 3102 H 299.482 -0.655493 0.336894 0
M  V30 3103 H 302.124 -1.26144 1.42083 0
M  V30 3104 H 300.274 -3.72306 1.10999 0
M  V30 3105 H 301.946 -2.90079 3.58681 0
M  V30 3106 H 300.189 -2.67355 3.4162 0
M  V30 3107 H 300.86 -4.30691 3.45266 0
M  V30 3108 H 303.336 -3.84894 1.581 0
M  V30 3109 H 302.212 -5.22945 1.66793 0
M  V30 3110 H 302.473 -4.41904 0.131505 0
M  V30 3111 N 301.532 -0.945985 -1.26051 0
M  V30 3112 C 302.781 -0.591836 -1.92822 0
M  V30 3113 C 303.094 0.873956 -1.7499 0
M  V30 3114 O 304.3 1.33769 -2.36259 0
M  V30 3115 C 302.756 -1.00776 -3.45503 0
M  V30 3116 C 302.364 -2.4955 -3.7206 0
M  V30 3117 C 304.108 -0.725735 -4.1825 0
M  V30 3118 C 302.015 -2.84988 -5.18205 0
M  V30 3119 H 300.945 -0.217635 -0.721908 0
M  V30 3120 H 303.596 -1.14927 -1.43052 0
M  V30 3121 H 301.978 -0.378812 -3.94184 0
M  V30 3122 H 303.152 -3.1739 -3.34066 0
M  V30 3123 H 301.467 -2.75133 -3.12555 0
M  V30 3124 H 304.064 -0.966771 -5.25887 0
M  V30 3125 H 304.407 0.337639 -4.14929 0
M  V30 3126 H 304.94 -1.31463 -3.7545 0
M  V30 3127 H 301.679 -3.90307 -5.26631 0
M  V30 3128 H 301.199 -2.21813 -5.57278 0
M  V30 3129 H 302.878 -2.73712 -5.86252 0
M  V30 3130 N 303.011 1.40521 -0.713556 0
M  V30 3131 C 304.236 2.05759 -0.26035 0
M  V30 3132 C 304.661 1.53403 1.08854 0
M  V30 3133 O 304.019 0.668535 1.68524 0
M  V30 3134 C 304.067 3.59745 -0.248122 0
M  V30 3135 O 303.171 4.05123 0.77131 0
M  V30 3136 H 302.512 0.652564 -0.122703 0
M  V30 3137 H 305.042 1.79958 -0.973467 0
M  V30 3138 H 305.052 4.07911 -0.0851129 0
M  V30 3139 H 303.727 3.97218 -1.2325 0
M  V30 3140 H 302.304 3.68422 0.57619 0
M  V30 3141 N 304.489 0.459591 1.5075 0
M  V30 3142 C 305.735 -0.0994966 2.02556 0
M  V30 3143 C 306.068 -1.40399 1.3417 0
M  V30 3144 O 305.343 -1.88892 0.463683 0
M  V30 3145 C 305.626 -0.295242 3.58888 0
M  V30 3146 C 305.479 1.02947 4.37861 0
M  V30 3147 C 306.798 -1.05502 4.27267 0
M  V30 3148 H 303.917 -0.034686 0.736183 0
M  V30 3149 H 306.559 0.602938 1.8018 0
M  V30 3150 H 304.709 -0.893563 3.78084 0
M  V30 3151 H 306.381 1.66348 4.30263 0
M  V30 3152 H 304.624 1.62885 4.02058 0
M  V30 3153 H 305.295 0.846281 5.45474 0
M  V30 3154 H 307.771 -0.547993 4.12476 0
M  V30 3155 H 306.647 -1.16077 5.36486 0
M  V30 3156 H 306.908 -2.08875 3.89645 0
M  V30 3157 N 305.967 -1.56429 0.191757 0
M  V30 3158 C 306.899 -2.16154 -0.762245 0
M  V30 3159 C 307.912 -1.12247 -1.17917 0
M  V30 3160 O 309.101 -1.39353 -1.11548 0
M  V30 3161 C 306.201 -2.70606 -2.04024 0
M  V30 3162 C 305.374 -3.99381 -1.78364 0
M  V30 3163 C 304.433 -4.38692 -2.90578 0
M  V30 3164 O 303.459 -5.06179 -2.6033 0
M  V30 3165 N 304.661 -4.01922 -4.18854 0
M  V30 3166 H 307.426 -2.98643 -0.251526 0
M  V30 3167 H 304.987 -1.61897 0.00967373 0
M  V30 3168 H 306.979 -2.93891 -2.78227 0
M  V30 3169 H 305.549 -1.9259 -2.46227 0
M  V30 3170 H 304.769 -3.84262 -0.879581 0
M  V30 3171 H 306.057 -4.83445 -1.58614 0
M  V30 3172 H 305.455 -3.47631 -4.46283 0
M  V30 3173 H 304.012 -4.30165 -4.89695 0
M  V30 3174 N 307.445 0.0818655 -1.57387 0
M  V30 3175 C 308.395 1.10501 -1.99433 0
M  V30 3176 C 309.379 1.35041 -0.874798 0
M  V30 3177 O 310.571 1.35511 -1.13868 0
M  V30 3178 C 307.7 2.42159 -2.43339 0
M  V30 3179 C 306.786 2.20937 -3.62005 0
M  V30 3180 N 307.177 1.69616 -4.76512 0
M  V30 3181 C 305.475 2.51451 -3.68359 0
M  V30 3182 C 306.176 1.62973 -5.58404 0
M  V30 3183 N 305.152 2.08664 -5.01956 0
M  V30 3184 H 308.954 0.701373 -2.85408 0
M  V30 3185 H 306.468 0.289096 -1.59806 0
M  V30 3186 H 308.465 3.16208 -2.71695 0
M  V30 3187 H 307.125 2.83249 -1.58746 0
M  V30 3188 H 308.136 1.38624 -4.99003 0
M  V30 3189 H 304.813 2.95975 -2.94457 0
M  V30 3190 H 306.203 1.24233 -6.60315 0
M  V30 3191 N 308.923 1.53595 0.353017 0
M  V30 3192 C 310.2 1.61002 1.11075 0
M  V30 3193 C 310.58 0.425356 2.0677 0
M  V30 3194 O 309.928 -0.583267 2.2093 0
M  V30 3195 C 310.138 2.96631 1.83877 0
M  V30 3196 C 311.486 3.51653 2.37961 0
M  V30 3197 O 312.51 2.98743 1.93987 0
M  V30 3198 O 311.369 4.44177 3.18386 0
M  V30 3199 H 308.463 0.650825 0.510251 0
M  V30 3200 H 311.009 1.6594 0.35527 0
M  V30 3201 H 309.781 3.74293 1.14108 0
M  V30 3202 H 309.404 2.95242 2.66304 0
M  V30 3203 N 310.401 -0.613514 1.45168 0
M  V30 3204 C 311.311 -1.75296 1.55912 0
M  V30 3205 C 312.327 -1.68244 0.443856 0
M  V30 3206 O 313.503 -1.88706 0.70371 0
M  V30 3207 C 310.568 -3.1174 1.5172 0
M  V30 3208 C 309.629 -3.30291 2.74238 0
M  V30 3209 C 308.862 -4.60226 2.70236 0
M  V30 3210 O 309.085 -5.42168 1.77229 0
M  V30 3211 O 308.019 -4.81361 3.61352 0
M  V30 3212 H 311.845 -1.69183 2.52212 0
M  V30 3213 H 309.43 -0.776886 1.27612 0
M  V30 3214 H 311.312 -3.93044 1.51968 0
M  V30 3215 H 309.987 -3.18357 0.585697 0
M  V30 3216 H 308.894 -2.48598 2.79553 0
M  V30 3217 H 310.227 -3.28547 3.66494 0
M  V30 3218 N 311.879 -1.3236 -0.855495 0
M  V30 3219 C 312.789 -1.23221 -1.99634 0
M  V30 3220 C 313.805 -0.145983 -1.73387 0
M  V30 3221 O 314.981 -0.366502 -1.98037 0
M  V30 3222 C 312.046 -0.954782 -3.33294 0
M  V30 3223 C 311.107 -2.12937 -3.72769 0
M  V30 3224 C 310.34 -1.86508 -5.00051 0
M  V30 3225 O 310.563 -0.807231 -5.64659 0
M  V30 3226 O 309.497 -2.72591 -5.36636 0
M  V30 3227 H 313.323 -2.19126 -2.1028 0
M  V30 3228 H 310.908 -1.12241 -0.986018 0
M  V30 3229 H 312.79 -0.816519 -4.13414 0
M  V30 3230 H 311.465 -0.0258854 -3.2369 0
M  V30 3231 H 310.372 -2.3231 -2.93228 0
M  V30 3232 H 311.705 -3.04102 -3.87018 0
M  V30 3233 N 313.357 1.07166 -1.15556 0
M  V30 3234 C 314.603 1.80065 -0.932984 0
M  V30 3235 C 314.936 1.86586 0.53845 0
M  V30 3236 O 314.211 1.35098 1.39924 0
M  V30 3237 C 314.494 3.25022 -1.55025 0
M  V30 3238 C 314.347 3.26634 -3.09242 0
M  V30 3239 C 315.666 4.22341 -1.2376 0
M  V30 3240 H 312.785 0.653697 -0.340366 0
M  V30 3241 H 315.427 1.25389 -1.4275 0
M  V30 3242 H 313.577 3.71712 -1.12972 0
M  V30 3243 H 315.249 2.88173 -3.60214 0
M  V30 3244 H 313.492 2.65539 -3.43033 0
M  V30 3245 H 314.163 4.28854 -3.47546 0
M  V30 3246 H 316.639 3.8405 -1.60139 0
M  V30 3247 H 315.515 5.22053 -1.69564 0
M  V30 3248 H 315.776 4.41828 -0.154938 0
M  V30 3249 N 314.835 0.952656 1.25548 0
M  V30 3250 C 316.075 0.614013 1.9496 0
M  V30 3251 C 316.439 -0.833215 1.72978 0
M  V30 3252 O 317.64 -1.28135 2.36294 0
M  V30 3253 C 315.911 0.960562 3.4425 0
M  V30 3254 S 317.47 0.734195 4.32614 0
M  V30 3255 H 314.288 0.225754 0.674208 0
M  V30 3256 H 316.89 1.22641 1.52248 0
M  V30 3257 H 315.594 2.01103 3.57751 0
M  V30 3258 H 315.125 0.338336 3.91942 0
M  V30 3259 H 317.14 -0.395995 4.94617 0
M  V30 3260 N 316.313 -1.40141 0.720998 0
M  V30 3261 C 317.243 -2.33339 0.0867621 0
M  V30 3262 C 318.224 -1.53178 -0.739622 0
M  V30 3263 O 319.409 -1.81625 -0.687449 0
M  V30 3264 C 316.539 -3.37194 -0.831728 0
M  V30 3265 C 315.493 -4.27857 -0.110558 0
M  V30 3266 C 314.819 -5.22294 -1.14513 0
M  V30 3267 C 316.119 -5.11872 1.0385 0
M  V30 3268 H 317.813 -2.86626 0.865219 0
M  V30 3269 H 315.359 -1.37814 0.417516 0
M  V30 3270 H 317.312 -4.01335 -1.28485 0
M  V30 3271 H 316.036 -2.82314 -1.64214 0
M  V30 3272 H 314.695 -3.65176 0.322797 0
M  V30 3273 H 314.343 -4.63717 -1.94874 0
M  V30 3274 H 314.043 -5.83797 -0.667446 0
M  V30 3275 H 315.567 -5.89312 -1.59824 0
M  V30 3276 H 316.981 -5.69436 0.664482 0
M  V30 3277 H 315.378 -5.82445 1.4449 0
M  V30 3278 H 316.448 -4.4753 1.86668 0
M  V30 3279 N 317.792 -0.46758 -1.50504 0
M  V30 3280 C 319.069 0.15003 -1.95024 0
M  V30 3281 C 319.449 1.57304 -1.40779 0
M  V30 3282 O 318.797 2.20281 -0.607319 0
M  V30 3283 C 319.007 0.0969324 -3.48865 0
M  V30 3284 C 320.355 0.287565 -4.23625 0
M  V30 3285 O 321.379 0.173678 -3.55776 0
M  V30 3286 O 320.238 0.517186 -5.44047 0
M  V30 3287 H 317.332 0.113582 -0.819163 0
M  V30 3288 H 319.878 -0.52773 -1.61286 0
M  V30 3289 H 318.65 -0.896732 -3.80886 0
M  V30 3290 H 318.273 0.816303 -3.8913 0
M  V30 3291 N 319.27 1.56325 -0.20005 0
M  V30 3292 C 320.18 2.22931 0.730668 0
M  V30 3293 C 321.196 1.22997 1.23076 0
M  V30 3294 O 322.372 1.55748 1.27689 0
M  V30 3295 C 319.437 2.87948 1.93098 0
M  V30 3296 C 318.498 4.03166 1.47497 0
M  V30 3297 C 317.731 4.65073 2.61807 0
M  V30 3298 O 317.954 4.25913 3.79413 0
M  V30 3299 O 316.888 5.54452 2.34237 0
M  V30 3300 H 320.714 3.03084 0.193391 0
M  V30 3301 H 318.299 1.49371 0.0294621 0
M  V30 3302 H 320.181 3.29063 2.6324 0
M  V30 3303 H 318.856 2.10771 2.45677 0
M  V30 3304 H 317.763 3.66664 0.742201 0
M  V30 3305 H 319.096 4.82022 0.995796 0
M  V30 3306 N 320.748 -0.0735177 1.57428 0
M  V30 3307 C 321.681 -1.11932 1.98863 0
M  V30 3308 C 322.659 -1.37666 0.865266 0
M  V30 3309 O 323.843 -1.51068 1.12742 0
M  V30 3310 C 320.97 -2.46403 2.32386 0
M  V30 3311 C 320.016 -2.36815 3.54713 0
M  V30 3312 S 320.849 -1.76392 5.05614 0
M  V30 3313 C 322.005 -3.12444 5.42337 0
M  V30 3314 H 322.238 -0.766212 2.87257 0
M  V30 3315 H 319.771 -0.281987 1.51803 0
M  V30 3316 H 321.729 -3.23755 2.52375 0
M  V30 3317 H 320.39 -2.78876 1.44524 0
M  V30 3318 H 319.583 -3.35977 3.7568 0
M  V30 3319 H 319.185 -1.67598 3.34345 0
M  V30 3320 H 321.477 -4.08753 5.40303 0
M  V30 3321 H 322.42 -2.96258 6.43146 0
M  V30 3322 H 322.828 -3.1297 4.69798 0
M  V30 3323 N 322.226 -1.5378 -0.344866 0
M  V30 3324 C 323.642 -1.44015 -0.687888 0
M  V30 3325 C 323.842 -0.595834 -1.92489 0
M  V30 3326 O 322.898 -0.0863064 -2.52352 0
M  V30 3327 C 324.211 -2.87481 -0.881758 0
M  V30 3328 C 325.759 -2.97247 -0.980459 0
M  V30 3329 C 326.234 -4.41819 -1.20665 0
M  V30 3330 N 327.725 -4.45339 -1.27389 0
M  V30 3331 C 328.46 -5.54333 -1.46639 0
M  V30 3332 N 327.956 -6.73335 -1.63071 0
M  V30 3333 N 329.749 -5.41944 -1.49176 0
M  V30 3334 H 321.9 -2.07169 0.468475 0
M  V30 3335 H 324.163 -0.93643 0.147655 0
M  V30 3336 H 323.869 -3.51672 -0.0443444 0
M  V30 3337 H 323.743 -3.32352 -1.78388 0
M  V30 3338 H 326.13 -2.33197 -1.8084 0
M  V30 3339 H 326.211 -2.5574 -0.0552713 0
M  V30 3340 H 325.855 -5.06449 -0.383652 0
M  V30 3341 H 325.785 -4.80917 -2.14539 0
M  V30 3342 H 328.276 -3.59585 -1.1622 0
M  V30 3343 H 328.589 -7.52165 -1.77391 0
M  V30 3344 H 326.934 -6.76282 -1.60209 0
M  V30 3345 H 330.125 -4.47932 -1.3592 0
M  V30 3346 H 330.298 -6.26946 -1.63837 0
M  V30 3347 N 323.704 0.605807 -1.45491 0
M  V30 3348 C 324.981 1.36522 -1.40075 0
M  V30 3349 C 325.361 2.10976 -0.0722744 0
M  V30 3350 O 324.709 2.08007 0.945808 0
M  V30 3351 C 324.919 2.31056 -2.61561 0
M  V30 3352 C 326.267 2.93608 -3.06724 0
M  V30 3353 O 327.291 2.41376 -2.61946 0
M  V30 3354 O 326.15 3.88421 -3.84437 0
M  V30 3355 H 323.244 0.612248 -0.555951 0
M  V30 3356 H 325.79 0.628747 -1.57623 0
M  V30 3357 H 324.562 1.75311 -3.49831 0
M  V30 3358 H 324.185 3.12081 -2.46356 0
M  V30 3359 N 325.182 1.32811 0.848464 0
M  V30 3360 C 326.145 1.22194 1.9391 0
M  V30 3361 C 327.145 0.143404 1.60159 0
M  V30 3362 O 328.335 0.394253 1.6968 0
M  V30 3363 C 325.467 0.88067 3.29328 0
M  V30 3364 H 326.66 2.19127 2.04752 0
M  V30 3365 H 324.213 1.16731 1.0394 0
M  V30 3366 H 324.948 -0.0865776 3.24184 0
M  V30 3367 H 324.733 1.66052 3.55203 0
M  V30 3368 H 326.223 0.830871 4.09251 0
M  V30 3369 N 326.66 -1.06551 1.16123 0
M  V30 3370 C 327.59 -2.15935 0.88851 0
M  V30 3371 C 328.571 -1.69306 -0.164135 0
M  V30 3372 O 329.756 -1.94193 -0.0167857 0
M  V30 3373 C 326.886 -3.45149 0.385942 0
M  V30 3374 C 325.84 -4.05271 1.3762 0
M  V30 3375 C 325.166 -5.29664 0.732137 0
M  V30 3376 C 326.466 -4.44355 2.74493 0
M  V30 3377 H 328.16 -2.39006 1.80323 0
M  V30 3378 H 325.706 -1.14866 0.868435 0
M  V30 3379 H 327.659 -4.21004 0.182647 0
M  V30 3380 H 326.383 -3.21689 -0.564274 0
M  V30 3381 H 325.042 -3.3147 1.56599 0
M  V30 3382 H 324.69 -5.02499 -0.224483 0
M  V30 3383 H 324.39 -5.70848 1.39307 0
M  V30 3384 H 325.914 -6.08218 0.538802 0
M  V30 3385 H 327.328 -5.11303 2.59311 0
M  V30 3386 H 325.725 -4.96515 3.37035 0
M  V30 3387 H 326.795 -3.55339 3.29943 0
M  V30 3388 N 328.138 -0.959301 -1.25041 0
M  V30 3389 C 329.085 -0.482057 -2.2571 0
M  V30 3390 C 330.055 0.467939 -1.59372 0
M  V30 3391 O 331.24 0.380159 -1.86974 0
M  V30 3392 C 328.38 0.229623 -3.44335 0
M  V30 3393 C 327.493 -0.758156 -4.25295 0
M  V30 3394 C 326.628 -0.0234403 -5.31195 0
M  V30 3395 C 325.667 -1.00184 -6.03846 0
M  V30 3396 N 324.804 -0.29769 -7.01469 0
M  V30 3397 H 329.644 -1.34538 -2.65901 0
M  V30 3398 H 327.181 -0.674592 -1.3072 0
M  V30 3399 H 329.139 0.658856 -4.11965 0
M  V30 3400 H 327.769 1.05696 -3.05005 0
M  V30 3401 H 326.821 -1.30586 -3.57284 0
M  V30 3402 H 328.133 -1.50458 -4.75567 0
M  V30 3403 H 327.287 0.464201 -6.04922 0
M  V30 3404 H 326.026 0.755741 -4.81809 0
M  V30 3405 H 325.031 -1.50044 -5.2893 0
M  V30 3406 H 326.256 -1.78133 -6.55321 0
M  V30 3407 H 324.202 0.462668 -6.54366 0
M  V30 3408 H 324.119 -0.983128 -7.4958 0
M  V30 3409 H 325.387 0.16826 -7.79318 0
M  V30 3410 N 329.616 1.39756 -0.72842 0
M  V30 3411 C 330.526 2.34444 -0.0855374 0
M  V30 3412 C 331.542 1.57976 0.729356 0
M  V30 3413 O 332.718 1.90301 0.659346 0
M  V30 3414 C 329.783 3.36965 0.815798 0
M  V30 3415 C 328.844 4.29299 -0.0105996 0
M  V30 3416 C 328.077 5.26923 0.84781 0
M  V30 3417 O 328.3 5.30859 2.08673 0
M  V30 3418 O 327.234 6.01249 0.279969 0
M  V30 3419 H 331.06 2.91065 -0.866892 0
M  V30 3420 H 328.645 1.4117 -0.48902 0
M  V30 3421 H 330.527 3.99804 1.33171 0
M  V30 3422 H 329.202 2.82739 1.57608 0
M  V30 3423 H 328.109 3.69703 -0.571877 0
M  V30 3424 H 329.442 4.86712 -0.73295 0
M  V30 3425 N 331.094 0.475555 1.50254 0
M  V30 3426 C 332.041 -0.316293 2.28622 0
M  V30 3427 C 333.011 -0.983227 1.33873 0
M  V30 3428 O 334.196 -0.994805 1.62814 0
M  V30 3429 C 331.336 -1.38975 3.1588 0
M  V30 3430 C 330.449 -0.737146 4.25664 0
M  V30 3431 C 329.584 -1.78887 5.00173 0
M  V30 3432 C 328.623 -1.11676 6.01826 0
M  V30 3433 N 327.76 -2.11154 6.69596 0
M  V30 3434 H 332.6 0.358297 2.95838 0
M  V30 3435 H 330.137 0.188541 1.45887 0
M  V30 3436 H 332.095 -2.02383 3.64825 0
M  V30 3437 H 330.725 -2.03344 2.50701 0
M  V30 3438 H 329.777 0.0096065 3.80399 0
M  V30 3439 H 331.089 -0.206816 4.98371 0
M  V30 3440 H 330.243 -2.49865 5.52859 0
M  V30 3441 H 328.982 -2.35302 4.27182 0
M  V30 3442 H 327.987 -0.392633 5.48396 0
M  V30 3443 H 329.212 -0.55945 6.76792 0
M  V30 3444 H 327.158 -2.66577 5.99394 0
M  V30 3445 H 327.075 -1.63118 7.38193 0
M  V30 3446 H 328.343 -2.81497 7.26897 0
M  V30 3447 N 332.573 -1.56217 0.208337 0
M  V30 3448 C 333.819 -1.98242 -0.427552 0
M  V30 3449 C 334.152 -1.09554 -1.60348 0
M  V30 3450 O 333.427 -0.15035 -1.93918 0
M  V30 3451 C 333.71 -3.4931 -0.874907 0
M  V30 3452 C 333.563 -4.48773 0.303751 0
M  V30 3453 C 334.882 -4.04424 -1.73577 0
M  V30 3454 H 332.001 -0.720744 -0.153936 0
M  V30 3455 H 334.643 -1.87586 0.30192 0
M  V30 3456 H 332.793 -3.58522 -1.49648 0
M  V30 3457 H 334.465 -4.51586 0.941682 0
M  V30 3458 H 332.708 -4.23194 0.953375 0
M  V30 3459 H 333.379 -5.51976 -0.0519883 0
M  V30 3460 H 335.855 -3.98075 -1.21143 0
M  V30 3461 H 334.731 -5.1047 -2.01771 0
M  V30 3462 H 334.992 -3.50494 -2.69456 0
M  V30 3463 N 334.051 0.0651679 -1.57465 0
M  V30 3464 C 335.3 0.761916 -1.86756 0
M  V30 3465 C 335.613 1.78406 -0.801925 0
M  V30 3466 O 336.819 2.53084 -0.982885 0
M  V30 3467 C 335.275 1.40603 -3.31299 0
M  V30 3468 C 334.883 0.422115 -4.46007 0
M  V30 3469 C 336.627 2.08476 -3.69781 0
M  V30 3470 C 334.534 1.07252 -5.81593 0
M  V30 3471 H 333.464 0.288308 -0.696702 0
M  V30 3472 H 336.115 0.015344 -1.83494 0
M  V30 3473 H 334.497 2.20109 -3.29193 0
M  V30 3474 H 335.671 -0.343613 -4.59517 0
M  V30 3475 H 333.986 -0.152527 -4.16121 0
M  V30 3476 H 336.583 2.57925 -4.68379 0
M  V30 3477 H 336.926 2.88712 -2.99919 0
M  V30 3478 H 337.459 1.35792 -3.73905 0
M  V30 3479 H 334.198 0.310342 -6.54765 0
M  V30 3480 H 333.718 1.80895 -5.71872 0
M  V30 3481 H 335.397 1.59043 -6.27148 0
M  V30 3482 N 335.529 1.53961 0.336706 0
M  V30 3483 C 336.476 1.82428 1.41381 0
M  V30 3484 C 337.446 0.670444 1.51968 0
M  V30 3485 O 338.631 0.915565 1.67398 0
M  V30 3486 C 335.771 2.04564 2.77934 0
M  V30 3487 C 334.884 3.32267 2.76084 0
M  V30 3488 C 334.019 3.44434 4.04399 0
M  V30 3489 C 333.058 4.66061 3.96804 0
M  V30 3490 N 332.195 4.75224 5.16823 0
M  V30 3491 H 337.035 2.74324 1.16405 0
M  V30 3492 H 334.572 1.35869 0.563752 0
M  V30 3493 H 336.53 2.15388 3.57301 0
M  V30 3494 H 335.16 1.15974 3.01247 0
M  V30 3495 H 334.212 3.3025 1.88784 0
M  V30 3496 H 335.524 4.21733 2.66351 0
M  V30 3497 H 334.678 3.54728 4.92192 0
M  V30 3498 H 333.417 2.53037 4.16921 0
M  V30 3499 H 332.422 4.55838 3.07396 0
M  V30 3500 H 333.647 5.58829 3.85858 0
M  V30 3501 H 331.593 3.86739 5.29876 0
M  V30 3502 H 331.51 5.58636 5.09374 0
M  V30 3503 H 332.778 4.89835 6.06367 0
M  V30 3504 N 337.007 -0.598083 1.45811 0
M  V30 3505 C 337.97 -1.69018 1.54808 0
M  V30 3506 C 338.97 -1.55037 0.426652 0
M  V30 3507 O 340.16 -1.59932 0.690456 0
M  V30 3508 C 337.292 -3.0835 1.45371 0
M  V30 3509 H 338.485 -1.62403 2.52121 0
M  V30 3510 H 336.038 -0.814626 1.33392 0
M  V30 3511 H 336.773 -3.20534 0.492793 0
M  V30 3512 H 336.558 -3.19907 2.26721 0
M  V30 3513 H 338.048 -3.8788 1.54721 0
M  V30 3514 N 338.485 -1.33259 -0.841409 0
M  V30 3515 C 339.731 -1.24757 -1.59886 0
M  V30 3516 C 340.064 0.186913 -1.93298 0
M  V30 3517 O 339.339 1.12757 -1.5848 0
M  V30 3518 C 339.622 -2.12036 -2.91055 0
M  V30 3519 C 339.475 -3.63929 -2.6434 0
M  V30 3520 C 340.794 -1.9916 -3.92458 0
M  V30 3521 H 337.913 -0.454542 -0.580138 0
M  V30 3522 H 340.555 -1.63335 -0.970647 0
M  V30 3523 H 338.705 -1.79265 -3.44669 0
M  V30 3524 H 340.377 -4.06978 -2.17178 0
M  V30 3525 H 338.62 -3.85935 -1.98082 0
M  V30 3526 H 339.291 -4.20341 -3.57796 0
M  V30 3527 H 341.767 -2.27895 -3.48143 0
M  V30 3528 H 340.643 -2.62484 -4.82072 0
M  V30 3529 H 340.904 -0.963082 -4.31482 0
M  V30 3530 N 339.963 1.05934 -1.16686 0
M  V30 3531 C 341.209 1.79065 -0.95203 0
M  V30 3532 C 341.542 1.87147 0.518629 0
M  V30 3533 O 340.817 1.36574 1.38484 0
M  V30 3534 C 341.1 3.23359 -1.58464 0
M  V30 3535 C 340.953 3.23336 -3.12689 0
M  V30 3536 C 342.272 4.21004 -1.28232 0
M  V30 3537 H 339.391 0.65005 -0.34728 0
M  V30 3538 H 342.033 1.23868 -1.44072 0
M  V30 3539 H 340.183 3.70493 -1.16908 0
M  V30 3540 H 341.855 2.84336 -3.6325 0
M  V30 3541 H 340.098 2.61886 -3.4583 0
M  V30 3542 H 340.769 4.25144 -3.52075 0
M  V30 3543 H 343.245 3.8233 -1.64203 0
M  V30 3544 H 342.121 5.20225 -1.75092 0
M  V30 3545 H 342.382 4.41639 -0.201791 0
M  V30 3546 N 341.441 0.965919 1.2453 0
M  V30 3547 C 342.852 0.665929 1.7442 0
M  V30 3548 C 343.203 -0.818407 1.78316 0
M  V30 3549 O 342.328 -1.64037 1.41141 0
M  V30 3550 C 342.923 1.20211 3.16757 0
M  V30 3551 C 341.482 0.952059 3.6416 0
M  V30 3552 C 340.629 1.33848 2.42858 0
M  V30 3553 H 343.58 1.14144 1.10258 0
M  V30 3554 H 343.601 0.567544 3.76244 0
M  V30 3555 H 343.113 2.28244 3.13889 0
M  V30 3556 H 341.214 -0.112821 3.72429 0
M  V30 3557 H 341.327 1.59645 4.51719 0
M  V30 3558 H 339.691 0.756864 2.43195 0
M  V30 3559 H 340.474 2.42827 2.42673 0
M  V30 3560 N 342.919 -1.39368 0.735821 0
M  V30 3561 C 343.882 -2.2896 0.104874 0
M  V30 3562 C 344.882 -1.46347 -0.666274 0
M  V30 3563 O 346.072 -1.67014 -0.49517 0
M  V30 3564 C 343.204 -3.29857 -0.860656 0
M  V30 3565 H 344.397 -2.86259 0.894205 0
M  V30 3566 H 341.95 -1.48029 0.501704 0
M  V30 3567 H 342.685 -2.77615 -1.67631 0
M  V30 3568 H 342.47 -3.9087 -0.310327 0
M  V30 3569 H 343.96 -3.96893 -1.29867 0
M  V30 3570 N 344.397 -0.483516 -1.5 0
M  V30 3571 C 345.344 0.304164 -2.28787 0
M  V30 3572 C 346.314 0.976114 -1.34392 0
M  V30 3573 O 347.499 0.986156 -1.63339 0
M  V30 3574 C 344.639 1.37298 -3.16612 0
M  V30 3575 C 343.752 0.714561 -4.26049 0
M  V30 3576 C 342.887 1.76232 -5.01114 0
M  V30 3577 C 341.926 1.08483 -6.0241 0
M  V30 3578 N 341.063 2.076 -6.70706 0
M  V30 3579 H 345.903 -0.373981 -2.95644 0
M  V30 3580 H 343.44 -0.196275 -1.45785 0
M  V30 3581 H 345.398 2.00445 -3.65893 0
M  V30 3582 H 344.028 2.02012 -2.51776 0
M  V30 3583 H 343.08 -0.0297798 -3.80388 0
M  V30 3584 H 344.392 0.180383 -4.98474 0
M  V30 3585 H 343.546 2.46929 -5.54176 0
M  V30 3586 H 342.285 2.33033 -4.28424 0
M  V30 3587 H 341.29 0.363545 -5.48597 0
M  V30 3588 H 342.515 0.523551 -6.77079 0
M  V30 3589 H 340.461 2.63394 -6.00799 0
M  V30 3590 H 340.378 1.59201 -7.39047 0
M  V30 3591 H 341.646 2.77639 -7.2838 0
M  V30 3592 N 345.875 1.56104 -0.216619 0
M  V30 3593 C 347.105 2.02269 0.420802 0
M  V30 3594 C 347.513 1.09575 1.5424 0
M  V30 3595 O 346.856 0.0967308 1.83445 0
M  V30 3596 C 346.918 3.44784 1.01806 0
M  V30 3597 C 346.582 4.56988 0.0325154 0
M  V30 3598 C 347.579 5.14225 -0.766055 0
M  V30 3599 C 345.264 5.02228 -0.0848092 0
M  V30 3600 C 347.258 6.15169 -1.6687 0
M  V30 3601 C 344.945 6.03011 -0.990994 0
M  V30 3602 C 345.943 6.59357 -1.78149 0
M  V30 3603 O 345.631 7.58179 -2.67245 0
M  V30 3604 H 345.363 0.667353 0.107776 0
M  V30 3605 H 347.917 2.02747 -0.329034 0
M  V30 3606 H 346.147 3.41359 1.81689 0
M  V30 3607 H 347.836 3.74626 1.56237 0
M  V30 3608 H 348.602 4.80126 -0.685836 0
M  V30 3609 H 344.481 4.58054 0.520349 0
M  V30 3610 H 348.025 6.59076 -2.28615 0
M  V30 3611 H 343.922 6.36532 -1.07225 0
M  V30 3612 H 344.69 7.75682 -2.61265 0
M  V30 3613 N 347.353 -0.0568162 1.57498 0
M  V30 3614 C 348.283 -1.06593 2.0775 0
M  V30 3615 C 349.264 -1.39448 0.974082 0
M  V30 3616 O 350.449 -1.48815 1.24771 0
M  V30 3617 C 347.579 -2.37509 2.5339 0
M  V30 3618 C 346.533 -2.1897 3.67745 0
M  V30 3619 C 345.859 -3.55402 3.99492 0
M  V30 3620 C 347.159 -1.59859 4.97235 0
M  V30 3621 H 348.853 -0.647706 2.9231 0
M  V30 3622 H 346.399 -0.310116 1.40621 0
M  V30 3623 H 348.352 -3.08409 2.87162 0
M  V30 3624 H 347.076 -2.8134 1.65878 0
M  V30 3625 H 345.735 -1.50508 3.3428 0
M  V30 3626 H 345.383 -3.9683 3.09088 0
M  V30 3627 H 345.083 -3.43831 4.76502 0
M  V30 3628 H 346.607 -4.27708 4.35773 0
M  V30 3629 H 348.021 -2.20642 5.29141 0
M  V30 3630 H 346.418 -1.58942 5.78669 0
M  V30 3631 H 347.488 -0.561506 4.81638 0
M  V30 3632 N 348.832 -1.54138 -0.328536 0
M  V30 3633 C 350.109 -1.62749 -1.08499 0
M  V30 3634 C 350.489 -0.458198 -2.06067 0
M  V30 3635 O 349.837 0.548046 -2.2183 0
M  V30 3636 C 350.047 -2.99519 -1.79135 0
M  V30 3637 C 351.395 -3.55394 -2.32337 0
M  V30 3638 O 352.419 -3.01792 -1.89209 0
M  V30 3639 O 351.278 -4.49186 -3.11279 0
M  V30 3640 H 348.372 -0.65886 -0.499832 0
M  V30 3641 H 350.918 -1.66484 -0.328826 0
M  V30 3642 H 349.69 -3.76061 -1.08139 0
M  V30 3643 H 349.313 -2.99441 -2.61574 0
M  V30 3644 N 350.31 0.590341 -1.46126 0
M  V30 3645 C 351.22 1.72793 -1.58681 0
M  V30 3646 C 352.236 1.67516 -0.470566 0
M  V30 3647 O 353.412 1.87562 -0.733642 0
M  V30 3648 C 350.477 3.09287 -1.5666 0
M  V30 3649 C 349.538 3.25886 -2.79458 0
M  V30 3650 C 348.771 4.55869 -2.77524 0
M  V30 3651 O 348.994 5.3928 -1.85832 0
M  V30 3652 O 347.928 4.75552 -3.68964 0
M  V30 3653 H 351.754 1.65149 -2.54872 0
M  V30 3654 H 349.339 0.756486 -1.28832 0
M  V30 3655 H 351.221 3.90577 -1.58202 0
M  V30 3656 H 349.896 3.17385 -0.636271 0
M  V30 3657 H 348.803 2.44119 -2.83472 0
M  V30 3658 H 350.136 3.22675 -3.71674 0
M  V30 3659 N 351.788 1.33704 0.83433 0
M  V30 3660 C 353.065 1.16011 1.57483 0
M  V30 3661 C 353.445 -0.27176 2.09343 0
M  V30 3662 O 352.793 -1.27146 1.89858 0
M  V30 3663 C 353.003 2.20507 2.70514 0
M  V30 3664 C 354.351 2.54898 3.39577 0
M  V30 3665 O 355.375 2.19209 2.80759 0
M  V30 3666 O 354.234 3.16158 4.45765 0
M  V30 3667 H 351.328 0.448992 0.694503 0
M  V30 3668 H 353.874 1.453 0.876691 0
M  V30 3669 H 352.646 3.16667 2.29865 0
M  V30 3670 H 352.269 1.92329 3.47987 0
M  V30 3671 N 353.266 -1.05314 1.17247 0
M  V30 3672 C 354.494 -1.81971 0.984593 0
M  V30 3673 C 354.909 -1.82929 -0.467166 0
M  V30 3674 O 354.266 -1.25564 -1.32438 0
M  V30 3675 C 354.317 -3.28143 1.51672 0
M  V30 3676 O 354.038 -3.27347 2.91163 0
M  V30 3677 C 355.539 -4.21493 1.37326 0
M  V30 3678 H 352.759 -0.573455 0.348411 0
M  V30 3679 H 355.303 -1.32808 1.55506 0
M  V30 3680 H 353.458 -3.74582 0.988302 0
M  V30 3681 H 353.872 -4.18824 3.15732 0
M  V30 3682 H 355.346 -5.22043 1.79375 0
M  V30 3683 H 355.823 -4.38031 0.320169 0
M  V30 3684 H 356.429 -3.80909 1.89178 0
M  V30 3685 N 354.744 -0.972509 -1.24016 0
M  V30 3686 C 355.993 -0.632603 -1.91523 0
M  V30 3687 C 356.306 0.836641 -1.76804 0
M  V30 3688 O 357.512 1.28728 -2.39043 0
M  V30 3689 C 355.968 -1.08082 -3.43287 0
M  V30 3690 C 355.576 -2.57386 -3.66683 0
M  V30 3691 C 357.32 -0.814288 -4.16617 0
M  V30 3692 C 355.227 -2.95915 -5.12043 0
M  V30 3693 H 354.157 -0.232898 -0.717129 0
M  V30 3694 H 356.808 -1.17936 -1.40582 0
M  V30 3695 H 355.19 -0.462339 -3.93292 0
M  V30 3696 H 356.364 -3.24405 -3.27258 0
M  V30 3697 H 354.679 -2.81701 -3.06649 0
M  V30 3698 H 357.276 -1.0781 -5.23718 0
M  V30 3699 H 357.619 0.24955 -4.15551 0
M  V30 3700 H 358.152 -1.39397 -3.72577 0
M  V30 3701 H 354.891 -4.0139 -5.18234 0
M  V30 3702 H 354.411 -2.33584 -5.52448 0
M  V30 3703 H 356.09 -2.86086 -5.80314 0
M  V30 3704 N 356.222 1.38976 -0.743202 0
M  V30 3705 C 357.452 2.04339 -0.304807 0
M  V30 3706 C 357.86 1.56162 1.06819 0
M  V30 3707 O 357.203 0.725284 1.68776 0
M  V30 3708 C 357.265 3.58716 -0.237369 0
M  V30 3709 C 356.929 4.29905 -1.55018 0
M  V30 3710 C 357.926 4.55987 -2.49744 0
M  V30 3711 C 355.611 4.68294 -1.81675 0
M  V30 3712 C 357.605 5.19478 -3.69353 0
M  V30 3713 C 355.292 5.31512 -3.0156 0
M  V30 3714 C 356.29 5.57037 -3.9522 0
M  V30 3715 O 355.978 6.18941 -5.12998 0
M  V30 3716 H 355.71 0.663439 -0.12971 0
M  V30 3717 H 358.264 1.78852 -1.01001 0
M  V30 3718 H 356.494 3.83133 0.524003 0
M  V30 3719 H 358.183 4.05543 0.170121 0
M  V30 3720 H 358.949 4.26767 -2.30423 0
M  V30 3721 H 354.828 4.47779 -1.09615 0
M  V30 3722 H 358.372 5.39318 -4.42473 0
M  V30 3723 H 354.269 5.60153 -3.20778 0
M  V30 3724 H 355.037 6.37433 -5.13441 0
M  V30 3725 N 357.7 0.491464 1.49741 0
M  V30 3726 C 358.65 -0.311086 2.25868 0
M  V30 3727 C 359.634 -0.943857 1.30308 0
M  V30 3728 O 360.826 -0.853035 1.55088 0
M  V30 3729 C 357.955 -1.38059 3.14316 0
M  V30 3730 C 357.041 -0.754541 4.17334 0
M  V30 3731 N 357.432 0.137216 5.05614 0
M  V30 3732 C 355.73 -1.01621 4.34269 0
M  V30 3733 C 356.431 0.494614 5.79593 0
M  V30 3734 N 355.407 -0.135169 5.43432 0
M  V30 3735 H 359.209 0.37555 2.91491 0
M  V30 3736 H 356.723 0.306917 1.59473 0
M  V30 3737 H 358.72 -1.96891 3.67477 0
M  V30 3738 H 357.38 -2.06901 2.50244 0
M  V30 3739 H 358.391 0.50741 5.15408 0
M  V30 3740 H 355.068 -1.69808 3.81407 0
M  V30 3741 H 356.458 1.2236 6.60665 0
M  V30 3742 N 359.178 -1.55987 0.224894 0
M  V30 3743 C 360.108 -2.23426 -0.678457 0
M  V30 3744 C 361.089 -1.20709 -1.19847 0
M  V30 3745 O 362.274 -1.49304 -1.24186 0
M  V30 3746 C 359.404 -2.91676 -1.88527 0
M  V30 3747 C 358.358 -4.00893 -1.49896 0
M  V30 3748 C 357.684 -4.56455 -2.78483 0
M  V30 3749 C 358.984 -5.17769 -0.686461 0
M  V30 3750 H 360.678 -2.99175 -0.116173 0
M  V30 3751 H 358.224 -1.43897 -0.054436 0
M  V30 3752 H 360.177 -3.37547 -2.5227 0
M  V30 3753 H 358.901 -2.1338 -2.47258 0
M  V30 3754 H 357.56 -3.55758 -0.884985 0
M  V30 3755 H 357.208 -3.74886 -3.35365 0
M  V30 3756 H 356.908 -5.30169 -2.53368 0
M  V30 3757 H 358.432 -5.05047 -3.43162 0
M  V30 3758 H 359.846 -5.60001 -1.22767 0
M  V30 3759 H 358.243 -5.97735 -0.532259 0
M  V30 3760 H 359.313 -4.83932 0.306196 0
M  V30 3761 N 360.656 0.0484629 -1.57525 0
M  V30 3762 C 361.588 1.08222 -2.02041 0
M  V30 3763 C 362.601 1.33621 -0.930012 0
M  V30 3764 O 363.79 1.3145 -1.20761 0
M  V30 3765 C 360.89 2.42818 -2.36416 0
M  V30 3766 C 360.063 2.37049 -3.67596 0
M  V30 3767 C 359.122 3.53937 -3.89378 0
M  V30 3768 O 358.148 3.34308 -4.60681 0
M  V30 3769 N 359.35 4.75126 -3.3352 0
M  V30 3770 H 362.115 0.702946 -2.9134 0
M  V30 3771 H 359.676 0.236745 -1.6016 0
M  V30 3772 H 361.668 3.197 -2.48141 0
M  V30 3773 H 360.238 2.72661 -1.52888 0
M  V30 3774 H 359.458 1.45395 -3.66407 0
M  V30 3775 H 360.746 2.30318 -4.53686 0
M  V30 3776 H 360.144 4.93976 -2.75688 0
M  V30 3777 H 358.701 5.49439 -3.50656 0
M  V30 3778 N 362.134 1.5431 0.320358 0
M  V30 3779 C 363.545 1.63872 0.894594 0
M  V30 3780 C 363.896 0.534847 1.88769 0
M  V30 3781 O 363.021 -0.331732 2.13842 0
M  V30 3782 C 363.616 2.97049 1.62934 0
M  V30 3783 C 362.175 3.08796 2.15226 0
M  V30 3784 C 361.322 2.59456 0.978671 0
M  V30 3785 H 364.273 1.58398 0.0978544 0
M  V30 3786 H 364.294 2.87388 2.49376 0
M  V30 3787 H 363.806 3.7737 0.906302 0
M  V30 3788 H 361.907 2.33156 2.90636 0
M  V30 3789 H 362.02 4.14649 2.40006 0
M  V30 3790 H 360.384 2.1543 1.35875 0
M  V30 3791 H 361.167 3.42237 0.269895 0
M  V30 3792 N 363.613 -0.582584 1.46437 0
M  V30 3793 C 364.838 -1.37168 1.55563 0
M  V30 3794 C 365.263 -1.87061 0.19743 0
M  V30 3795 O 364.621 -1.61572 -0.822451 0
M  V30 3796 C 364.669 -2.53511 2.56446 0
M  V30 3797 O 363.773 -3.54953 2.09958 0
M  V30 3798 H 363.114 -0.408494 0.523477 0
M  V30 3799 H 365.644 -0.706646 1.9201 0
M  V30 3800 H 365.654 -3.00426 2.76058 0
M  V30 3801 H 364.329 -2.16549 3.55076 0
M  V30 3802 H 362.906 -3.14516 2.00334 0
M  V30 3803 N 365.091 -1.34144 -0.827227 0
M  V30 3804 C 366.339 -1.26009 -1.58007 0
M  V30 3805 C 366.66 0.170971 -1.94249 0
M  V30 3806 O 365.93 1.10256 -1.61927 0
M  V30 3807 H 364.51 -0.463414 -0.585881 0
M  V30 3808 H 367.172 -1.68005 -0.987951 0
M  V30 3809 H 366.268 -1.86187 -2.50481 0
M  V30 3810 N 366.569 1.04691 -1.17803 0
M  V30 3811 C 367.985 1.29963 -0.926379 0
M  V30 3812 C 368.185 1.97251 0.411635 0
M  V30 3813 O 367.241 2.24922 1.14744 0
M  V30 3814 C 368.554 2.16447 -2.08737 0
M  V30 3815 C 370.102 2.29814 -2.12496 0
M  V30 3816 C 370.577 3.19661 -3.27995 0
M  V30 3817 N 372.068 3.27247 -3.27816 0
M  V30 3818 C 372.803 3.96906 -4.13827 0
M  V30 3819 N 372.299 4.6895 -5.09959 0
M  V30 3820 N 374.092 3.93122 -4.01761 0
M  V30 3821 H 366.243 0.594182 -2.0392 0
M  V30 3822 H 368.506 0.324649 -0.890678 0
M  V30 3823 H 368.212 1.74304 -3.05469 0
M  V30 3824 H 368.086 3.17103 -2.04268 0
M  V30 3825 H 370.473 2.71196 -1.16347 0
M  V30 3826 H 370.554 1.2877 -2.21025 0
M  V30 3827 H 370.198 2.78991 -4.24413 0
M  V30 3828 H 370.128 4.20722 -3.16703 0
M  V30 3829 H 372.619 2.75921 -2.58217 0
M  V30 3830 H 372.932 5.19679 -5.71974 0
M  V30 3831 H 371.277 4.67875 -5.13924 0
M  V30 3832 H 374.468 3.35967 -3.2595 0
M  V30 3833 H 374.641 4.47139 -4.6901 0
M  V30 3834 N 368.047 0.979072 1.23499 0
M  V30 3835 C 369.294 0.647219 1.91878 0
M  V30 3836 C 369.622 -0.819074 1.76413 0
M  V30 3837 O 368.877 -1.60616 1.11808 0
M  V30 3838 C 369.176 0.981932 3.43646 0
M  V30 3839 C 368.842 2.43822 3.79291 0
M  V30 3840 C 367.504 2.83622 3.88731 0
M  V30 3841 C 369.856 3.3828 3.96505 0
M  V30 3842 C 367.184 4.16897 4.12812 0
M  V30 3843 C 369.536 4.71197 4.22085 0
M  V30 3844 C 368.2 5.10758 4.29747 0
M  V30 3845 H 367.47 0.236834 0.702133 0
M  V30 3846 H 370.117 1.23268 1.46551 0
M  V30 3847 H 368.422 0.314365 3.90537 0
M  V30 3848 H 370.119 0.703395 3.94783 0
M  V30 3849 H 366.709 2.11966 3.72516 0
M  V30 3850 H 370.893 3.0871 3.88603 0
M  V30 3851 H 366.149 4.47157 4.16966 0
M  V30 3852 H 370.323 5.44348 4.34348 0
M  V30 3853 H 367.95 6.1405 4.48159 0
M  V30 3854 N 369.525 -1.3858 0.750561 0
M  V30 3855 C 370.771 -2.00481 0.305825 0
M  V30 3856 C 371.104 -1.5944 -1.10872 0
M  V30 3857 O 370.379 -0.83052 -1.75877 0
M  V30 3858 C 370.662 -3.5758 0.425287 0
M  V30 3859 C 370.515 -4.08594 1.88072 0
M  V30 3860 C 371.834 -4.39719 -0.183122 0
M  V30 3861 H 368.953 -0.728348 0.112598 0
M  V30 3862 H 371.595 -1.64566 0.949638 0
M  V30 3863 H 369.745 -3.88306 -0.122828 0
M  V30 3864 H 371.417 -3.88523 2.48691 0
M  V30 3865 H 369.66 -3.61574 2.39681 0
M  V30 3866 H 370.331 -5.177 1.91548 0
M  V30 3867 H 372.807 -4.15128 0.284303 0
M  V30 3868 H 371.683 -5.48856 -0.0692757 0
M  V30 3869 H 371.944 -4.23434 -1.27106 0
M  V30 3870 N 371.003 -0.499398 -1.49478 0
M  V30 3871 C 372.252 0.0475259 -2.01644 0
M  V30 3872 C 372.565 1.38195 -1.38425 0
M  V30 3873 O 373.771 2.01547 -1.8191 0
M  V30 3874 C 372.227 0.135164 -3.59646 0
M  V30 3875 C 371.835 -1.19252 -4.31837 0
M  V30 3876 C 373.579 0.632538 -4.19761 0
M  V30 3877 C 371.486 -1.06713 -5.81693 0
M  V30 3878 H 370.416 0.0215349 -0.753692 0
M  V30 3879 H 373.067 -0.638577 -1.7203 0
M  V30 3880 H 371.449 0.885681 -3.85969 0
M  V30 3881 H 372.623 -1.9562 -4.17216 0
M  V30 3882 H 370.938 -1.62321 -3.83459 0
M  V30 3883 H 373.535 0.743833 -5.29501 0
M  V30 3884 H 373.878 1.63098 -3.83021 0
M  V30 3885 H 374.411 -0.0613987 -3.97753 0
M  V30 3886 H 371.15 -2.03979 -6.22955 0
M  V30 3887 H 370.67 -0.344307 -5.98811 0
M  V30 3888 H 372.349 -0.745208 -6.42694 0
M  V30 3889 N 372.481 1.55866 -0.233164 0
M  V30 3890 C 373.729 1.9821 0.394593 0
M  V30 3891 C 374.05 1.12234 1.59463 0
M  V30 3892 O 373.32 0.201981 1.94856 0
M  V30 3893 H 371.9 0.732034 0.148778 0
M  V30 3894 H 374.562 1.92107 -0.32876 0
M  V30 3895 H 373.658 3.03845 0.713063 0
M  V30 3896 N 373.959 -0.0401083 1.57549 0
M  V30 3897 C 375.207 -0.731677 1.8839 0
M  V30 3898 C 375.528 -1.76481 0.829425 0
M  V30 3899 O 374.798 -1.95411 -0.1383 0
M  V30 3900 H 373.378 -0.273225 0.695239 0
M  V30 3901 H 376.04 -0.00867725 1.94898 0
M  V30 3902 H 375.136 -1.22816 2.86919 0
M  V30 3903 N 375.437 -1.54477 -0.31217 0
M  V30 3904 C 376.848 -1.64344 -0.885891 0
M  V30 3905 C 377.199 -0.54485 -1.88483 0
M  V30 3906 O 376.324 0.320387 -2.14015 0
M  V30 3907 C 376.919 -2.97908 -1.61357 0
M  V30 3908 C 375.478 -3.09933 -2.13585 0
M  V30 3909 C 374.625 -2.59971 -0.964897 0
M  V30 3910 H 377.576 -1.58448 -0.0894528 0
M  V30 3911 H 377.597 -2.88706 -2.47848 0
M  V30 3912 H 377.109 -3.77845 -0.886277 0
M  V30 3913 H 375.21 -2.34694 -2.89395 0
M  V30 3914 H 375.323 -4.15916 -2.37804 0
M  V30 3915 H 373.687 -2.16147 -1.34731 0
M  V30 3916 H 374.47 -3.42376 -0.251742 0
M  V30 3917 N 376.915 0.57481 -1.46744 0
M  V30 3918 C 377.847 1.69804 -1.53946 0
M  V30 3919 C 378.86 1.57098 -0.427106 0
M  V30 3920 O 380.049 1.64378 -0.695863 0
M  V30 3921 C 377.149 3.08125 -1.4111 0
M  V30 3922 C 376.322 3.46757 -2.66605 0
M  V30 3923 C 375.381 4.6417 -2.47855 0
M  V30 3924 O 374.407 4.69634 -3.21609 0
M  V30 3925 N 375.609 5.59553 -1.54534 0
M  V30 3926 H 378.374 1.64077 -2.50796 0
M  V30 3927 H 375.935 0.761 -1.429 0
M  V30 3928 H 377.927 3.84478 -1.26328 0
M  V30 3929 H 376.497 3.08175 -0.524109 0
M  V30 3930 H 375.717 2.6003 -2.96274 0
M  V30 3931 H 377.005 3.69337 -3.49954 0
M  V30 3932 H 376.403 5.57881 -0.937304 0
M  V30 3933 H 374.96 6.35304 -1.45711 0
M  V30 3934 N 378.394 1.34581 0.820102 0
M  V30 3935 C 379.642 1.26845 1.57336 0
M  V30 3936 C 379.963 -0.160667 1.94337 0
M  V30 3937 O 379.233 -1.09396 1.6251 0
M  V30 3938 H 377.813 0.466514 0.583415 0
M  V30 3939 H 380.475 1.68526 0.979027 0
M  V30 3940 H 379.571 1.87513 2.4949 0
M  V30 3941 N 379.872 -1.04064 1.18357 0
M  V30 3942 C 381.149 -1.74252 0.888581 0
M  V30 3943 C 381.529 -2.02138 -0.60856 0
M  V30 3944 O 380.877 -1.66656 -1.56327 0
M  V30 3945 C 381.087 -3.0277 1.73584 0
M  V30 3946 C 382.435 -3.76506 1.96286 0
M  V30 3947 O 383.459 -3.12668 1.70637 0
M  V30 3948 O 382.318 -4.91243 2.39464 0
M  V30 3949 H 379.412 -0.758271 0.330082 0
M  V30 3950 H 381.958 -1.1013 1.2911 0
M  V30 3951 H 380.73 -2.78299 2.75073 0
M  V30 3952 H 380.353 -3.74631 1.33183 0
M  V30 3953 N 381.35 -0.985608 -1.22978 0
M  V30 3954 C 382.313 -0.535071 -2.22867 0
M  V30 3955 C 383.313 0.378123 -1.56291 0
M  V30 3956 O 384.503 0.171092 -1.73358 0
M  V30 3957 C 381.635 0.222702 -3.40172 0
M  V30 3958 H 382.828 -1.41835 -2.6424 0
M  V30 3959 H 380.381 -0.772042 -1.35901 0
M  V30 3960 H 381.116 1.12229 -3.04262 0
M  V30 3961 H 380.901 -0.43288 -3.89703 0
M  V30 3962 H 382.391 0.526335 -4.1427 0
M  V30 3963 N 382.828 1.3818 -0.7579 0
M  V30 3964 C 384.076 1.99624 -0.315361 0
M  V30 3965 C 384.397 1.60464 1.10799 0
M  V30 3966 O 383.667 0.863507 1.75842 0
M  V30 3967 H 382.247 0.73831 -0.113611 0
M  V30 3968 H 384.909 1.68878 -0.972952 0
M  V30 3969 H 384.005 3.09754 -0.381931 0
M  V30 3970 N 384.306 0.507319 1.49211 0
M  V30 3971 C 385.236 -0.256939 2.32082 0
M  V30 3972 C 386.217 -0.956609 1.40652 0
M  V30 3973 O 387.402 -0.946788 1.69557 0
M  V30 3974 C 384.532 -1.31802 3.21318 0
M  V30 3975 C 383.486 -0.737855 4.21592 0
M  V30 3976 C 382.812 -1.89992 4.99807 0
M  V30 3977 C 384.112 0.275325 5.21574 0
M  V30 3978 H 385.806 0.434798 2.96226 0
M  V30 3979 H 383.352 0.210546 1.42452 0
M  V30 3980 H 385.305 -1.86045 3.78107 0
M  V30 3981 H 384.029 -2.03903 2.5513 0
M  V30 3982 H 382.688 -0.217126 3.65956 0
M  V30 3983 H 382.336 -2.60877 4.30061 0
M  V30 3984 H 382.036 -1.51777 5.6766 0
M  V30 3985 H 383.56 -2.44657 5.59442 0
M  V30 3986 H 384.974 -0.179193 5.7302 0
M  V30 3987 H 383.371 0.573649 5.97352 0
M  V30 3988 H 384.441 1.18903 4.70096 0
M  V30 3989 N 385.784 -1.5574 0.241426 0
M  V30 3990 C 387.012 -2.03208 -0.389134 0
M  V30 3991 C 387.427 -1.12082 -1.51931 0
M  V30 3992 O 386.784 -0.134183 -1.82006 0
M  V30 3993 C 386.835 -3.50064 -0.902087 0
M  V30 3994 O 386.556 -4.37717 0.18305 0
M  V30 3995 C 388.057 -4.13268 -1.60389 0
M  V30 3996 H 385.277 -0.664509 -0.0931053 0
M  V30 3997 H 387.821 -2.0124 0.36369 0
M  V30 3998 H 385.976 -3.52583 -1.60511 0
M  V30 3999 H 386.39 -5.24097 -0.205579 0
M  V30 4000 H 387.864 -5.17733 -1.91458 0
M  V30 4001 H 388.341 -3.59434 -2.52397 0
M  V30 4002 H 388.947 -4.14655 -0.945576 0
M  V30 4003 N 387.262 0.0317525 -1.57568 0
M  V30 4004 C 388.51 0.721676 -1.88776 0
M  V30 4005 C 388.831 1.76039 -0.838772 0
M  V30 4006 O 388.101 1.95482 0.127935 0
M  V30 4007 H 386.681 0.269534 -0.696678 0
M  V30 4008 H 389.343 -0.00165879 -1.949 0
M  V30 4009 H 388.439 1.21293 -2.87566 0
M  V30 4010 N 388.74 1.54641 0.303973 0
M  V30 4011 C 390.156 1.45788 0.649463 0
M  V30 4012 C 390.356 0.64666 1.90842 0
M  V30 4013 O 389.412 0.153183 2.52035 0
M  V30 4014 C 390.725 2.89718 0.805227 0
M  V30 4015 C 392.273 2.99742 0.901305 0
M  V30 4016 C 392.748 4.44863 1.08909 0
M  V30 4017 N 394.239 4.48559 1.15536 0
M  V30 4018 C 394.974 5.58026 1.3189 0
M  V30 4019 N 394.47 6.77422 1.45161 0
M  V30 4020 N 396.263 5.45708 1.34755 0
M  V30 4021 H 388.414 2.05854 -0.523237 0
M  V30 4022 H 390.677 0.932186 -0.172431 0
M  V30 4023 H 390.383 3.51666 -0.0489108 0
M  V30 4024 H 390.257 3.36964 1.69513 0
M  V30 4025 H 392.644 2.3791 1.74593 0
M  V30 4026 H 392.725 2.55797 -0.0125531 0
M  V30 4027 H 392.369 5.07288 0.249241 0
M  V30 4028 H 392.299 4.86436 2.01713 0
M  V30 4029 H 394.79 3.6254 1.06646 0
M  V30 4030 H 395.103 7.56604 1.57387 0
M  V30 4031 H 393.448 6.80292 1.42223 0
M  V30 4032 H 396.639 4.51378 1.23996 0
M  V30 4033 H 396.812 6.3107 1.47157 0
M  V30 4034 N 390.218 -0.567019 1.47046 0
M  V30 4035 C 391.165 -1.67489 1.58796 0
M  V30 4036 C 392.135 -1.60399 0.43144 0
M  V30 4037 O 393.32 -1.79378 0.650233 0
M  V30 4038 C 390.46 -3.05821 1.59899 0
M  V30 4039 C 389.573 -3.2342 2.86397 0
M  V30 4040 C 388.708 -4.52093 2.789 0
M  V30 4041 C 387.747 -4.6309 4.00267 0
M  V30 4042 N 386.884 -5.83106 3.91064 0
M  V30 4043 H 391.724 -1.56785 2.53422 0
M  V30 4044 H 389.261 -0.763896 1.2571 0
M  V30 4045 H 391.219 -3.8591 1.58522 0
M  V30 4046 H 389.849 -3.15384 0.687929 0
M  V30 4047 H 388.901 -2.3683 2.97684 0
M  V30 4048 H 390.213 -3.27412 3.76301 0
M  V30 4049 H 389.367 -5.4043 2.75718 0
M  V30 4050 H 388.106 -4.50565 1.86662 0
M  V30 4051 H 387.111 -3.73168 4.03765 0
M  V30 4052 H 388.336 -4.66386 4.93621 0
M  V30 4053 H 386.282 -5.82546 3.01623 0
M  V30 4054 H 386.199 -5.88434 4.74638 0
M  V30 4055 H 387.467 -6.73831 3.91882 0
M  V30 4056 N 391.696 -1.35014 -0.812953 0
M  V30 4057 C 392.945 -1.27269 -1.56479 0
M  V30 4058 C 393.258 0.152771 -1.95002 0
M  V30 4059 O 394.464 0.352451 -2.69203 0
M  V30 4060 C 392.92 -2.23159 -2.82362 0
M  V30 4061 C 392.528 -3.71016 -2.511 0
M  V30 4062 C 394.272 -2.24342 -3.60376 0
M  V30 4063 C 392.179 -4.58746 -3.73237 0
M  V30 4064 H 391.109 -0.472829 -0.587324 0
M  V30 4065 H 393.76 -1.6024 -0.894171 0
M  V30 4066 H 392.142 -1.83151 -3.51101 0
M  V30 4067 H 393.316 -4.1962 -1.90409 0
M  V30 4068 H 391.631 -3.72378 -1.86343 0
M  V30 4069 H 394.228 -2.87107 -4.51081 0
M  V30 4070 H 394.571 -1.24542 -3.97234 0
M  V30 4071 H 395.104 -2.62846 -2.98591 0
M  V30 4072 H 391.843 -5.59521 -3.41492 0
M  V30 4073 H 391.363 -4.14871 -4.33176 0
M  V30 4074 H 393.042 -4.73852 -4.40537 0
M  V30 4075 N 393.175 1.03435 -1.18907 0
M  V30 4076 C 394.424 1.76143 -0.982669 0
M  V30 4077 C 394.737 1.89416 0.487953 0
M  V30 4078 O 395.943 2.59041 0.813036 0
M  V30 4079 C 394.399 3.16722 -1.70924 0
M  V30 4080 C 394.007 3.11522 -3.21959 0
M  V30 4081 C 395.751 3.93764 -1.58588 0
M  V30 4082 C 393.658 4.46999 -3.87228 0
M  V30 4083 H 392.588 0.660292 -0.364047 0
M  V30 4084 H 395.239 1.158 -1.42347 0
M  V30 4085 H 393.621 3.775 -1.19623 0
M  V30 4086 H 394.795 2.60158 -3.80335 0
M  V30 4087 H 393.11 2.47978 -3.34508 0
M  V30 4088 H 395.707 4.93963 -2.04707 0
M  V30 4089 H 396.05 4.12794 -0.539142 0
M  V30 4090 H 396.583 3.39576 -2.07203 0
M  V30 4091 H 393.322 4.33174 -4.91976 0
M  V30 4092 H 392.842 4.98441 -3.33642 0
M  V30 4093 H 394.521 5.15898 -3.90459 0
M  V30 4094 N 394.653 0.992116 1.22453 0
M  V30 4095 C 395.899 0.668523 1.91464 0
M  V30 4096 C 396.232 -0.797313 1.77078 0
M  V30 4097 O 395.507 -1.5765 1.13916 0
M  V30 4098 C 395.79 1.07424 3.43703 0
M  V30 4099 C 395.643 2.59857 3.67143 0
M  V30 4100 C 396.962 0.626891 4.35612 0
M  V30 4101 H 394.081 0.244341 0.695318 0
M  V30 4102 H 396.723 1.2355 1.44345 0
M  V30 4103 H 394.873 0.591816 3.83966 0
M  V30 4104 H 396.545 3.15764 3.3629 0
M  V30 4105 H 394.788 3.01961 3.11451 0
M  V30 4106 H 395.459 2.83296 4.73759 0
M  V30 4107 H 397.935 1.04125 4.02861 0
M  V30 4108 H 396.811 0.939076 5.40807 0
M  V30 4109 H 397.072 -0.472457 4.39568 0
M  V30 4110 N 396.131 -1.37776 0.765217 0
M  V30 4111 C 397.408 -1.93975 0.251596 0
M  V30 4112 C 397.788 -1.69949 -1.25222 0
M  V30 4113 O 397.136 -1.04457 -2.03226 0
M  V30 4114 C 397.346 -3.43487 0.617895 0
M  V30 4115 C 398.694 -4.20564 0.584029 0
M  V30 4116 O 399.718 -3.5182 0.556888 0
M  V30 4117 O 398.577 -5.43138 0.605291 0
M  V30 4118 H 395.671 -0.82509 0.0561806 0
M  V30 4119 H 398.217 -1.47101 0.846128 0
M  V30 4120 H 396.989 -3.5453 1.65602 0
M  V30 4121 H 396.612 -3.976 -0.00403411 0
M  V30 4122 N 397.609 -0.515225 -1.4894 0
M  V30 4123 C 398.837 0.0206034 -2.0689 0
M  V30 4124 C 399.252 1.29514 -1.37374 0
M  V30 4125 O 398.609 1.76698 -0.456529 0
M  V30 4126 C 398.66 0.26351 -3.60538 0
M  V30 4127 O 398.381 -0.960517 -4.27441 0
M  V30 4128 C 399.882 0.841383 -4.35242 0
M  V30 4129 H 397.102 -0.0268608 -0.670462 0
M  V30 4130 H 399.646 -0.716651 -1.91532 0
M  V30 4131 H 397.801 0.950777 -3.75552 0
M  V30 4132 H 398.215 -0.73212 -5.19365 0
M  V30 4133 H 399.689 0.96085 -5.43573 0
M  V30 4134 H 400.166 1.8427 -3.98674 0
M  V30 4135 H 400.772 0.191143 -4.2487 0
M  V30 4136 N 399.087 1.5561 -0.249682 0
M  V30 4137 C 400.317 2.03116 0.377803 0
M  V30 4138 C 400.725 1.12822 1.51881 0
M  V30 4139 O 400.068 0.13562 1.83199 0
M  V30 4140 C 400.13 3.46866 0.944693 0
M  V30 4141 C 399.794 4.56955 -0.0644259 0
M  V30 4142 C 400.791 5.12485 -0.874957 0
M  V30 4143 C 398.476 5.01936 -0.19132 0
M  V30 4144 C 400.47 6.11491 -1.79881 0
M  V30 4145 C 398.157 6.00773 -1.11868 0
M  V30 4146 C 399.155 6.5543 -1.92095 0
M  V30 4147 O 398.843 7.5234 -2.83267 0
M  V30 4148 H 398.575 0.669489 0.0935961 0
M  V30 4149 H 401.129 2.02004 -0.371966 0
M  V30 4150 H 399.359 3.45136 1.74407 0
M  V30 4151 H 401.048 3.77856 1.48255 0
M  V30 4152 H 401.814 4.78564 -0.787523 0
M  V30 4153 H 397.693 4.59055 0.423072 0
M  V30 4154 H 401.237 6.54078 -2.42543 0
M  V30 4155 H 397.134 6.34114 -1.20703 0
M  V30 4156 H 397.902 7.69966 -2.7766 0
M  V30 4157 N 400.565 -0.0233959 1.57583 0
M  V30 4158 C 401.813 -0.711654 1.89156 0
M  V30 4159 C 402.134 -1.75591 0.848096 0
M  V30 4160 O 401.404 -1.95547 -0.117566 0
M  V30 4161 H 399.984 -0.265835 0.698098 0
M  V30 4162 H 402.646 0.0119948 1.94896 0
M  V30 4163 H 401.742 -1.19766 2.88206 0
M  V30 4164 N 402.043 -1.548 -0.295768 0
M  V30 4165 C 403.291 -1.73985 -1.02828 0
M  V30 4166 C 403.612 -0.531406 -1.87619 0
M  V30 4167 O 402.882 0.454221 -1.90561 0
M  V30 4168 H 401.462 -0.641556 -0.382642 0
M  V30 4169 H 404.124 -1.92163 -0.325489 0
M  V30 4170 H 403.22 -2.63129 -1.67838 0
M  V30 4171 N 403.521 0.559213 -1.47345 0
M  V30 4172 C 404.767 1.31614 -1.55079 0
M  V30 4173 C 405.122 1.91257 -0.209422 0
M  V30 4174 O 404.415 1.74796 0.784656 0
M  V30 4175 C 404.609 2.44853 -2.6035 0
M  V30 4176 C 404.438 1.96305 -4.04591 0
M  V30 4177 C 403.208 1.8024 -4.72061 0
M  V30 4178 C 405.406 1.50872 -4.91673 0
M  V30 4179 N 403.388 1.26011 -6.00828 0
M  V30 4180 C 404.759 1.08395 -6.10451 0
M  V30 4181 C 406.814 1.38905 -4.78132 0
M  V30 4182 C 405.517 0.551399 -7.17183 0
M  V30 4183 C 407.543 0.870518 -5.84958 0
M  V30 4184 C 406.905 0.455661 -7.02925 0
M  V30 4185 H 403.004 0.473712 -0.62219 0
M  V30 4186 H 405.588 0.634103 -1.84085 0
M  V30 4187 H 403.759 3.10589 -2.33215 0
M  V30 4188 H 405.491 3.11849 -2.57938 0
M  V30 4189 H 402.246 2.02895 -4.27937 0
M  V30 4190 H 402.67 1.00991 -6.69425 0
M  V30 4191 H 407.312 1.69591 -3.87297 0
M  V30 4192 H 405.03 0.232159 -8.07766 0
M  V30 4193 H 408.616 0.781507 -5.76527 0
M  V30 4194 H 407.496 0.0606414 -7.84177 0
M  V30 4195 N 404.999 1.35443 0.805782 0
M  V30 4196 C 406.247 1.28507 1.55982 0
M  V30 4197 C 406.568 -0.140046 1.94496 0
M  V30 4198 O 405.838 -1.07666 1.63661 0
M  V30 4199 H 404.418 0.472676 0.578434 0
M  V30 4200 H 407.08 1.69555 0.961098 0
M  V30 4201 H 406.176 1.90148 2.47488 0
M  V30 4202 N 406.477 -1.02803 1.19454 0
M  V30 4203 C 407.44 -2.09264 0.934955 0
M  V30 4204 C 408.44 -1.60576 -0.0849015 0
M  V30 4205 O 409.63 -1.73554 0.149933 0
M  V30 4206 C 406.762 -3.38482 0.40531 0
M  V30 4207 H 407.955 -2.33726 1.87916 0
M  V30 4208 H 405.508 -1.19426 1.00832 0
M  V30 4209 H 406.243 -3.19689 -0.544899 0
M  V30 4210 H 406.028 -3.75142 1.14065 0
M  V30 4211 H 407.518 -4.16894 0.242806 0
M  V30 4212 N 407.956 -0.998596 -1.21925 0
M  V30 4213 C 408.906 -0.524743 -2.21879 0
M  V30 4214 C 409.89 0.41017 -1.55584 0
M  V30 4215 O 411.082 0.236063 -1.75419 0
M  V30 4216 C 408.211 0.153636 -3.42956 0
M  V30 4217 C 407.297 -0.801918 -4.16449 0
M  V30 4218 N 407.688 -1.95211 -4.66611 0
M  V30 4219 C 405.986 -0.618972 -4.41684 0
M  V30 4220 C 406.687 -2.55234 -5.22715 0
M  V30 4221 N 405.663 -1.83451 -5.1171 0
M  V30 4222 H 409.465 -1.40189 -2.58311 0
M  V30 4223 H 406.979 -0.86159 -1.3766 0
M  V30 4224 H 408.976 0.510534 -4.13762 0
M  V30 4225 H 407.636 1.02684 -3.08036 0
M  V30 4226 H 408.647 -2.33271 -4.62391 0
M  V30 4227 H 405.324 0.207694 -4.16983 0
M  V30 4228 H 406.714 -3.52471 -5.72026 0
M  V30 4229 N 409.434 1.37368 -0.772513 0
M  V30 4230 C 410.682 1.99279 -0.336516 0
M  V30 4231 C 411.003 1.6163 1.09091 0
M  V30 4232 O 410.273 0.882109 1.74916 0
M  V30 4233 H 408.853 0.737063 -0.121435 0
M  V30 4234 H 411.515 1.67836 -0.990809 0
M  V30 4235 H 410.611 3.09332 -0.414763 0
M  V30 4236 N 410.912 0.523116 1.48665 0
M  V30 4237 C 412.16 -0.0134497 2.02096 0
M  V30 4238 C 412.481 -1.35418 1.40311 0
M  V30 4239 O 411.751 -1.87543 0.566074 0
M  V30 4240 H 410.331 -0.00795915 0.746958 0
M  V30 4241 H 412.993 0.685388 1.82451 0
M  V30 4242 H 412.089 -0.126849 3.11842 0
M  V30 4243 N 412.39 -1.55475 0.257931 0
M  V30 4244 C 413.638 -1.98813 -0.363009 0
M  V30 4245 C 413.959 -1.14757 -1.57657 0
M  V30 4246 O 413.229 -0.232956 -1.9451 0
M  V30 4247 H 411.809 -0.734308 -0.137113 0
M  V30 4248 H 414.471 -1.9156 0.359281 0
M  V30 4249 H 413.567 -3.04941 -0.664634 0
M  V30 4250 N 413.868 0.0150385 -1.57593 0
M  V30 4251 C 414.831 0.995996 -2.06428 0
M  V30 4252 C 415.831 1.2818 -0.970903 0
M  V30 4253 O 417.021 1.22949 -1.23406 0
M  V30 4254 C 414.153 2.32506 -2.49307 0
M  V30 4255 H 415.346 0.573873 -2.94358 0
M  V30 4256 H 412.899 0.262186 -1.54085 0
M  V30 4257 H 413.634 2.79438 -1.64575 0
M  V30 4258 H 413.419 2.13087 -3.29145 0
M  V30 4259 H 414.909 3.02906 -2.87468 0
M  V30 4260 N 415.346 1.54954 0.287554 0
M  V30 4261 C 416.593 1.74873 1.02106 0
M  V30 4262 C 416.921 0.541829 1.86801 0
M  V30 4263 O 416.176 -0.475992 1.89823 0
M  V30 4264 C 416.475 2.99833 1.94512 0
M  V30 4265 C 416.141 4.33029 1.25686 0
M  V30 4266 C 414.803 4.69233 1.06649 0
M  V30 4267 C 417.155 5.15542 0.765913 0
M  V30 4268 C 414.483 5.85518 0.372222 0
M  V30 4269 C 416.835 6.32542 0.0853101 0
M  V30 4270 C 415.499 6.67398 -0.1169 0
M  V30 4271 H 414.769 0.639906 0.373632 0
M  V30 4272 H 417.416 1.89219 0.294665 0
M  V30 4273 H 415.721 2.80325 2.73725 0
M  V30 4274 H 417.418 3.1244 2.51361 0
M  V30 4275 H 414.008 4.04564 1.41512 0
M  V30 4276 H 418.192 4.88059 0.90066 0
M  V30 4277 H 413.448 6.11057 0.204695 0
M  V30 4278 H 417.622 6.95741 -0.302936 0
M  V30 4279 H 415.249 7.57357 -0.656859 0
M  V30 4280 N 416.824 -0.551391 1.4764 0
M  V30 4281 C 418.049 -1.33837 1.58437 0
M  V30 4282 C 418.474 -1.866 0.237063 0
M  V30 4283 O 417.832 -1.6328 -0.787994 0
M  V30 4284 C 417.88 -2.48014 2.61766 0
M  V30 4285 O 416.984 -3.50419 2.1744 0
M  V30 4286 H 416.325 -0.397299 0.532024 0
M  V30 4287 H 418.855 -0.665759 1.93465 0
M  V30 4288 H 418.865 -2.94503 2.82369 0
M  V30 4289 H 417.54 -2.08969 3.5959 0
M  V30 4290 H 416.117 -3.10196 2.06961 0
M  V30 4291 N 418.302 -1.35869 -0.798587 0
M  V30 4292 C 419.55 -1.29332 -1.55298 0
M  V30 4293 C 419.871 0.129729 -1.94568 0
M  V30 4294 O 419.141 1.06796 -1.6423 0
M  V30 4295 H 417.721 -0.475737 -0.57592 0
M  V30 4296 H 420.383 -1.70062 -0.952093 0
M  V30 4297 H 419.479 -1.91458 -2.46476 0
M  V30 4298 N 419.78 1.02168 -1.19998 0
M  V30 4299 C 420.727 2.10601 -0.944228 0
M  V30 4300 C 421.697 1.65639 0.123664 0
M  V30 4301 O 422.882 1.9079 -0.0199941 0
M  V30 4302 C 420.022 3.41504 -0.496865 0
M  V30 4303 C 419.135 3.99973 -1.63234 0
M  V30 4304 C 418.27 5.18915 -1.13579 0
M  V30 4305 C 417.309 5.69456 -2.24468 0
M  V30 4306 N 416.446 6.79665 -1.76068 0
M  V30 4307 H 421.286 2.31814 -1.8726 0
M  V30 4308 H 418.823 1.13686 -0.933483 0
M  V30 4309 H 420.781 4.16626 -0.218843 0
M  V30 4310 H 419.411 3.2038 0.394508 0
M  V30 4311 H 418.463 3.21997 -2.0254 0
M  V30 4312 H 419.775 4.33492 -2.46752 0
M  V30 4313 H 418.929 6.01222 -0.813429 0
M  V30 4314 H 417.668 4.8695 -0.270434 0
M  V30 4315 H 416.673 4.85757 -2.57526 0
M  V30 4316 H 417.898 6.03459 -3.11472 0
M  V30 4317 H 415.844 6.49538 -0.918516 0
M  V30 4318 H 415.761 7.12349 -2.5317 0
M  V30 4319 H 417.029 7.65549 -1.46817 0
M  V30 4320 N 421.258 1.00505 1.21394 0
M  V30 4321 C 422.535 0.603277 1.86064 0
M  V30 4322 C 422.915 -0.919095 1.90042 0
M  V30 4323 O 422.263 -1.80607 1.39977 0
M  V30 4324 C 422.473 1.23772 3.26315 0
M  V30 4325 C 423.821 1.34586 4.02705 0
M  V30 4326 O 424.845 1.19304 3.35626 0
M  V30 4327 O 423.704 1.59169 5.22807 0
M  V30 4328 H 420.798 0.206634 0.800769 0
M  V30 4329 H 423.344 1.1017 1.29076 0
M  V30 4330 H 422.116 2.27848 3.18121 0
M  V30 4331 H 421.739 0.725648 3.90922 0
M  V30 4332 N 422.737 -1.36956 0.779787 0
M  V30 4333 C 423.967 -2.03459 0.358877 0
M  V30 4334 C 424.375 -1.58939 -1.02641 0
M  V30 4335 O 423.718 -0.769777 -1.66794 0
M  V30 4336 C 423.78 -3.5796 0.332393 0
M  V30 4337 C 423.444 -4.25644 1.66362 0
M  V30 4338 C 424.441 -4.49205 2.61746 0
M  V30 4339 C 422.126 -4.63313 1.94027 0
M  V30 4340 C 424.12 -5.09503 3.82996 0
M  V30 4341 C 421.807 -5.2333 3.15546 0
M  V30 4342 C 422.805 -5.46363 4.0985 0
M  V30 4343 O 422.493 -6.05122 5.29228 0
M  V30 4344 H 422.225 -0.659767 0.147254 0
M  V30 4345 H 424.779 -1.76111 1.05708 0
M  V30 4346 H 423.009 -3.84388 -0.422237 0
M  V30 4347 H 424.698 -4.05852 -0.0625389 0
M  V30 4348 H 425.464 -4.20508 2.41657 0
M  V30 4349 H 421.343 -4.44715 1.21448 0
M  V30 4350 H 424.887 -5.27397 4.56617 0
M  V30 4351 H 420.784 -5.51451 3.35517 0
M  V30 4352 H 421.552 -6.23595 5.30161 0
M  V30 4353 N 424.215 -0.530993 -1.48385 0
M  V30 4354 C 425.443 -0.00134122 -2.069 0
M  V30 4355 C 425.858 1.2805 -1.3874 0
M  V30 4356 O 425.215 1.76204 -0.475244 0
M  V30 4357 C 425.266 0.225256 -3.60798 0
M  V30 4358 O 424.987 -1.0058 -4.26398 0
M  V30 4359 C 426.488 0.795172 -4.3611 0
M  V30 4360 H 423.708 -0.0339704 -0.67014 0
M  V30 4361 H 426.252 -0.736926 -1.90761 0
M  V30 4362 H 424.407 0.910891 -3.76539 0
M  V30 4363 H 424.821 -0.787165 -5.1856 0
M  V30 4364 H 426.295 0.903143 -5.44562 0
M  V30 4365 H 426.772 1.80031 -4.00606 0
M  V30 4366 H 427.378 0.146069 -4.25049 0
M  V30 4367 N 425.693 1.55336 -0.266172 0
M  V30 4368 C 426.64 2.22172 0.625165 0
M  V30 4369 C 427.61 1.19211 1.15663 0
M  V30 4370 O 428.795 1.47723 1.20758 0
M  V30 4371 C 425.935 2.93972 1.8076 0
M  V30 4372 C 425.048 4.11632 1.31084 0
M  V30 4373 C 424.183 4.71099 2.45436 0
M  V30 4374 C 423.222 5.8097 1.92718 0
M  V30 4375 N 422.359 6.34538 3.00509 0
M  V30 4376 H 427.199 2.9796 0.0485582 0
M  V30 4377 H 424.736 1.47095 0.0122024 0
M  V30 4378 H 426.694 3.33811 2.50251 0
M  V30 4379 H 425.324 2.20623 2.35638 0
M  V30 4380 H 424.376 3.76975 0.509326 0
M  V30 4381 H 425.688 4.90893 0.884633 0
M  V30 4382 H 424.842 5.13612 3.22936 0
M  V30 4383 H 423.581 3.91096 2.91368 0
M  V30 4384 H 422.586 5.37916 1.13695 0
M  V30 4385 H 423.811 6.62836 1.47733 0
M  V30 4386 H 421.757 5.57433 3.45839 0
M  V30 4387 H 421.674 7.09046 2.62279 0
M  V30 4388 H 422.942 6.81709 3.78011 0
M  V30 4389 N 427.171 -0.0066808 1.57599 0
M  V30 4390 C 428.417 -0.693947 1.90558 0
M  V30 4391 C 428.75 -1.73792 0.866594 0
M  V30 4392 O 428.025 -1.94156 -0.115548 0
M  V30 4393 C 428.308 -1.34317 3.34112 0
M  V30 4394 C 428.161 -0.311189 4.48722 0
M  V30 4395 C 429.48 -2.27116 3.7697 0
M  V30 4396 H 426.599 -0.250803 0.693013 0
M  V30 4397 H 429.241 0.043242 1.89951 0
M  V30 4398 H 427.391 -1.9715 3.3476 0
M  V30 4399 H 429.063 0.316944 4.6021 0
M  V30 4400 H 427.306 0.367253 4.32243 0
M  V30 4401 H 427.977 -0.804366 5.46108 0
M  V30 4402 H 430.453 -1.74306 3.77831 0
M  V30 4403 H 429.329 -2.69511 4.78179 0
M  V30 4404 H 429.59 -3.14743 3.10466 0
M  V30 4405 N 428.649 -1.55105 -0.279332 0
M  V30 4406 C 429.926 -1.66119 -1.03267 0
M  V30 4407 C 430.306 -0.523525 -2.04505 0
M  V30 4408 O 429.654 0.477194 -2.23462 0
M  V30 4409 C 429.864 -3.05067 -1.69515 0
M  V30 4410 C 431.212 -3.62606 -2.20912 0
M  V30 4411 O 432.236 -3.07659 -1.79512 0
M  V30 4412 O 431.095 -4.58861 -2.96831 0
M  V30 4413 H 428.189 -0.674429 -0.478618 0
M  V30 4414 H 430.735 -1.67446 -0.275694 0
M  V30 4415 H 429.507 -3.79311 -0.9612 0
M  V30 4416 H 429.13 -3.07611 -2.51915 0
M  V30 4417 N 430.127 0.543554 -1.4793 0
M  V30 4418 C 431.543 0.870806 -1.3375 0
M  V30 4419 C 431.743 1.9864 -0.338261 0
M  V30 4420 O 430.799 2.51305 0.245371 0
M  V30 4421 C 432.112 1.25114 -2.73435 0
M  V30 4422 C 433.66 1.3618 -2.81823 0
M  V30 4423 C 434.135 1.77563 -4.22179 0
M  V30 4424 N 435.626 1.8469 -4.24787 0
M  V30 4425 C 436.361 2.18067 -5.30315 0
M  V30 4426 N 435.857 2.49963 -6.46135 0
M  V30 4427 N 437.65 2.18958 -5.17701 0
M  V30 4428 H 429.801 -0.19275 -2.11524 0
M  V30 4429 H 432.064 -0.0235777 -0.947707 0
M  V30 4430 H 431.77 0.50514 -3.48053 0
M  V30 4431 H 431.644 2.20431 -3.06088 0
M  V30 4432 H 434.031 2.09859 -2.07468 0
M  V30 4433 H 434.112 0.390169 -2.52807 0
M  V30 4434 H 433.756 1.04449 -4.97044 0
M  V30 4435 H 433.686 2.75753 -4.48629 0
M  V30 4436 H 436.177 1.62372 -3.41239 0
M  V30 4437 H 436.49 2.74497 -7.22406 0
M  V30 4438 H 434.835 2.47513 -6.49432 0
M  V30 4439 H 438.026 1.93488 -4.2624 0
M  V30 4440 H 438.199 2.44639 -6.00047 0
M  V30 4441 N 431.605 1.3629 0.791371 0
M  V30 4442 C 432.83 1.33726 1.58531 0
M  V30 4443 C 433.255 -0.0794933 1.87932 0
M  V30 4444 O 432.613 -1.05087 1.47738 0
M  V30 4445 C 432.661 2.16425 2.88431 0
M  V30 4446 O 431.765 1.5554 3.81944 0
M  V30 4447 H 431.106 0.457793 0.480959 0
M  V30 4448 H 433.636 1.79547 0.981031 0
M  V30 4449 H 433.646 2.28933 3.37718 0
M  V30 4450 H 432.321 3.19415 2.66359 0
M  V30 4451 H 430.898 1.51961 3.40532 0
M  V30 4452 N 433.083 -1.0153 1.20538 0
M  V30 4453 C 434.046 -2.0826 0.957098 0
M  V30 4454 C 435.046 -1.60657 -0.0678655 0
M  V30 4455 O 436.236 -1.73385 0.168332 0
M  V30 4456 C 433.368 -3.38033 0.441188 0
M  V30 4457 H 434.561 -2.31719 1.90384 0
M  V30 4458 H 432.114 -1.1835 1.02093 0
M  V30 4459 H 432.849 -3.20249 -0.510961 0
M  V30 4460 H 432.634 -3.73911 1.18038 0
M  V30 4461 H 434.124 -4.16613 0.287009 0
M  V30 4462 N 434.561 -1.01147 -1.20859 0
M  V30 4463 C 435.524 -0.582224 -2.21682 0
M  V30 4464 C 436.524 0.344887 -1.57058 0
M  V30 4465 O 437.714 0.134281 -1.73682 0
M  V30 4466 C 434.846 0.150496 -3.40568 0
M  V30 4467 H 436.039 -1.47408 -2.61172 0
M  V30 4468 H 433.592 -0.800695 -1.34233 0
M  V30 4469 H 434.327 1.0575 -3.06574 0
M  V30 4470 H 434.112 -0.515444 -3.88697 0
M  V30 4471 H 435.602 0.438344 -4.15293 0
M  V30 4472 N 436.039 1.36541 -0.78704 0
M  V30 4473 C 437.269 2.03266 -0.369662 0
M  V30 4474 C 437.677 1.59481 1.01796 0
M  V30 4475 O 437.02 0.778612 1.66383 0
M  V30 4476 C 437.082 3.57779 -0.351371 0
M  V30 4477 C 436.746 4.24756 -1.68617 0
M  V30 4478 C 437.743 4.47811 -2.64124 0
M  V30 4479 C 435.428 4.62277 -1.96481 0
M  V30 4480 C 437.422 5.07464 -3.85693 0
M  V30 4481 C 435.109 5.21649 -3.18317 0
M  V30 4482 C 436.107 5.44182 -4.12741 0
M  V30 4483 O 435.795 6.02307 -5.32429 0
M  V30 4484 H 435.527 0.658977 -0.150751 0
M  V30 4485 H 438.081 1.75548 -1.0664 0
M  V30 4486 H 436.311 3.84606 0.401847 0
M  V30 4487 H 438 4.05879 0.0410147 0
M  V30 4488 H 438.766 4.19221 -2.43883 0
M  V30 4489 H 434.645 4.44065 -1.23805 0
M  V30 4490 H 438.189 5.24968 -4.59407 0
M  V30 4491 H 434.086 5.49664 -3.38437 0
M  V30 4492 H 434.854 6.20775 -5.33461 0
M  V30 4493 N 437.518 0.538854 1.48102 0
M  V30 4494 C 438.481 -0.208395 2.28251 0
M  V30 4495 C 439.481 -0.859656 1.35892 0
M  V30 4496 O 440.671 -0.71834 1.58699 0
M  V30 4497 C 437.803 -1.30252 3.15035 0
M  V30 4498 H 438.996 0.495407 2.9578 0
M  V30 4499 H 436.549 0.295112 1.53489 0
M  V30 4500 H 437.284 -2.0393 2.52157 0
M  V30 4501 H 437.069 -0.840551 3.82985 0
M  V30 4502 H 438.559 -1.82787 3.75471 0
M  V30 4503 N 438.996 -1.55193 0.274407 0
M  V30 4504 C 439.959 -2.212 -0.600279 0
M  V30 4505 C 440.959 -1.18963 -1.08187 0
M  V30 4506 O 442.149 -1.43873 -0.982158 0
M  V30 4507 C 439.281 -2.87739 -1.82809 0
M  V30 4508 H 440.474 -2.9989 -0.0239682 0
M  V30 4509 H 438.027 -1.5628 0.0250192 0
M  V30 4510 H 438.762 -2.13058 -2.44493 0
M  V30 4511 H 438.547 -3.62658 -1.49069 0
M  V30 4512 H 440.037 -3.38171 -2.45011 0
M  V30 4513 N 440.474 -0.00167713 -1.576 0
M  V30 4514 C 441.89 0.354422 -1.55615 0
M  V30 4515 C 442.09 1.74679 -1.00447 0
M  V30 4516 O 441.146 2.4428 -0.639022 0
M  V30 4517 C 442.459 0.22812 -2.99833 0
M  V30 4518 C 444.007 0.302934 -3.11531 0
M  V30 4519 C 444.482 0.205737 -4.57538 0
M  V30 4520 N 445.973 0.263584 -4.62449 0
M  V30 4521 C 446.708 0.211742 -5.73009 0
M  V30 4522 N 446.204 0.110399 -6.92712 0
M  V30 4523 N 447.997 0.263729 -5.61481 0
M  V30 4524 H 440.148 -0.912498 -1.918 0
M  V30 4525 H 442.411 -0.349928 -0.881053 0
M  V30 4526 H 442.117 -0.729934 -3.44042 0
M  V30 4527 H 441.991 1.00951 -3.6344 0
M  V30 4528 H 444.378 1.25143 -2.67251 0
M  V30 4529 H 444.459 -0.508357 -2.50698 0
M  V30 4530 H 444.103 -0.739225 -5.02492 0
M  V30 4531 H 444.033 1.03554 -5.16318 0
M  V30 4532 H 446.524 0.343173 -3.76339 0
M  V30 4533 H 446.837 0.0767828 -7.72762 0
M  V30 4534 H 445.182 0.0760025 -6.94958 0
M  V30 4535 H 448.373 0.34111 -4.66855 0
M  V30 4536 H 448.546 0.219862 -6.47627 0
M  V30 4537 N 441.952 1.55251 0.271103 0
M  V30 4538 C 443.198 1.7713 0.999832 0
M  V30 4539 C 443.553 0.56659 1.83868 0
M  V30 4540 O 442.846 -0.44069 1.86463 0
M  V30 4541 C 443.04 3.01879 1.91321 0
M  V30 4542 C 442.869 4.34368 1.16426 0
M  V30 4543 C 441.639 4.97593 0.879169 0
M  V30 4544 C 443.837 5.1131 0.553749 0
M  V30 4545 N 441.819 6.13813 0.103618 0
M  V30 4546 C 443.19 6.19938 -0.0875442 0
M  V30 4547 C 445.245 4.95754 0.461782 0
M  V30 4548 C 443.948 7.14703 -0.811942 0
M  V30 4549 C 445.974 5.90875 -0.249027 0
M  V30 4550 C 445.336 6.98893 -0.879051 0
M  V30 4551 H 441.435 0.700407 0.347784 0
M  V30 4552 H 444.019 1.92744 0.275314 0
M  V30 4553 H 442.19 2.87637 2.60997 0
M  V30 4554 H 443.922 3.12154 2.57569 0
M  V30 4555 H 440.677 4.58538 1.18491 0
M  V30 4556 H 441.101 6.76455 -0.271543 0
M  V30 4557 H 445.743 4.12342 0.934552 0
M  V30 4558 H 443.461 7.97634 -1.29639 0
M  V30 4559 H 447.047 5.80916 -0.320529 0
M  V30 4560 H 445.927 7.71231 -1.42031 0
M  V30 4561 N 443.43 -0.535701 1.48216 0
M  V30 4562 C 444.676 -1.29375 1.56173 0
M  V30 4563 C 445.009 -1.92804 0.232429 0
M  V30 4564 O 444.284 -1.78992 -0.761048 0
M  V30 4565 C 444.567 -2.38747 2.69577 0
M  V30 4566 C 444.42 -1.80046 4.12193 0
M  V30 4567 C 445.739 -3.40551 2.78771 0
M  V30 4568 H 442.858 -0.469027 0.568491 0
M  V30 4569 H 445.5 -0.597358 1.80365 0
M  V30 4570 H 443.65 -2.98147 2.4908 0
M  V30 4571 H 445.322 -1.24742 4.44114 0
M  V30 4572 H 443.565 -1.10609 4.19462 0
M  V30 4573 H 444.236 -2.59212 4.87353 0
M  V30 4574 H 446.712 -2.91099 2.97322 0
M  V30 4575 H 445.588 -4.1448 3.59857 0
M  V30 4576 H 445.849 -4.00746 1.86696 0
M  V30 4577 N 444.908 -1.36708 -0.784132 0
M  V30 4578 C 445.871 -1.31307 -1.87859 0
M  V30 4579 C 446.871 -0.219654 -1.59293 0
M  V30 4580 O 448.061 -0.47476 -1.67606 0
M  V30 4581 C 445.193 -1.03679 -3.24751 0
M  V30 4582 H 446.386 -2.28647 -1.94064 0
M  V30 4583 H 443.939 -1.21558 -0.98252 0
M  V30 4584 H 444.674 -0.0681936 -3.24228 0
M  V30 4585 H 444.459 -1.82811 -3.46876 0
M  V30 4586 H 445.949 -1.02518 -4.04821 0
M  V30 4587 N 446.386 1.0089 -1.21074 0
M  V30 4588 C 447.333 2.09588 -0.966512 0
M  V30 4589 C 448.303 1.65761 0.106089 0
M  V30 4590 O 449.488 1.90758 -0.0402287 0
M  V30 4591 C 446.628 3.40958 -0.533058 0
M  V30 4592 C 445.741 3.9822 -1.67467 0
M  V30 4593 C 444.876 5.17682 -1.19076 0
M  V30 4594 C 443.915 5.67043 -2.30496 0
M  V30 4595 N 443.052 6.77759 -1.83267 0
M  V30 4596 H 447.892 2.29815 -1.89708 0
M  V30 4597 H 445.429 1.12689 -0.945489 0
M  V30 4598 H 447.387 4.1637 -0.263019 0
M  V30 4599 H 446.017 3.20781 0.360505 0
M  V30 4600 H 445.069 3.1983 -2.05944 0
M  V30 4601 H 446.381 4.3085 -2.51336 0
M  V30 4602 H 445.535 6.00326 -0.877151 0
M  V30 4603 H 444.274 4.86635 -0.322066 0
M  V30 4604 H 443.279 4.82999 -2.62664 0
M  V30 4605 H 444.504 6.00121 -3.17855 0
M  V30 4606 H 442.45 6.48527 -0.987356 0
M  V30 4607 H 442.367 7.09624 -2.60711 0
M  V30 4608 H 443.635 7.63949 -1.54928 0
M  V30 4609 N 447.864 1.01787 1.20321 0
M  V30 4610 C 449.089 0.727009 1.9424 0
M  V30 4611 C 449.514 -0.706179 1.74341 0
M  V30 4612 O 448.872 -1.48609 1.03852 0
M  V30 4613 C 448.92 1.06958 3.44372 0
M  V30 4614 O 448.024 0.181983 4.11998 0
M  V30 4615 H 447.365 0.269626 0.606793 0
M  V30 4616 H 449.895 1.36158 1.52716 0
M  V30 4617 H 449.905 1.02182 3.94997 0
M  V30 4618 H 448.58 2.11378 3.58179 0
M  V30 4619 H 447.157 0.287378 3.71791 0
M  V30 4620 N 449.342 -1.36122 0.79427 0
M  V30 4621 C 450.272 -2.32551 0.210328 0
M  V30 4622 C 451.253 -1.56884 -0.657386 0
M  V30 4623 O 452.438 -1.85014 -0.590207 0
M  V30 4624 C 449.568 -3.41128 -0.651819 0
M  V30 4625 C 448.522 -4.27842 0.116395 0
M  V30 4626 C 447.848 -5.2763 -0.86666 0
M  V30 4627 C 449.148 -5.05647 1.30837 0
M  V30 4628 H 450.842 -2.81636 1.01594 0
M  V30 4629 H 448.388 -1.35407 0.489981 0
M  V30 4630 H 450.341 -4.07581 -1.07031 0
M  V30 4631 H 449.065 -2.90622 -1.49019 0
M  V30 4632 H 447.724 -3.62952 0.515915 0
M  V30 4633 H 447.372 -4.73395 -1.70019 0
M  V30 4634 H 447.072 -5.86514 -0.35705 0
M  V30 4635 H 448.596 -5.96955 -1.28361 0
M  V30 4636 H 450.01 -5.65113 0.965393 0
M  V30 4637 H 448.407 -5.73967 1.75161 0
M  V30 4638 H 449.477 -4.37006 2.10128 0
M  V30 4639 N 450.82 -0.546701 -1.47814 0
M  V30 4640 C 452.066 -0.0187684 -2.02791 0
M  V30 4641 C 452.399 1.32338 -1.42128 0
M  V30 4642 O 451.674 1.85867 -0.573023 0
M  V30 4643 C 451.957 0.0854985 -3.59998 0
M  V30 4644 C 451.81 -1.283 -4.31114 0
M  V30 4645 C 453.129 0.80412 -4.32691 0
M  V30 4646 H 450.248 -0.0082946 -0.736953 0
M  V30 4647 H 452.89 -0.706962 -1.76358 0
M  V30 4648 H 451.04 0.671609 -3.82651 0
M  V30 4649 H 452.712 -1.91151 -4.19832 0
M  V30 4650 H 450.955 -1.86049 -3.91878 0
M  V30 4651 H 451.626 -1.16287 -5.39612 0
M  V30 4652 H 454.102 0.306576 -4.14969 0
M  V30 4653 H 452.978 0.846011 -5.42341 0
M  V30 4654 H 453.239 1.85802 -4.01161 0
M  V30 4655 N 452.299 1.55045 -0.282633 0
M  V30 4656 C 453.246 2.22822 0.601566 0
M  V30 4657 C 454.216 1.20431 1.14392 0
M  V30 4658 O 455.401 1.48996 1.19184 0
M  V30 4659 C 452.541 2.95873 1.77632 0
M  V30 4660 C 451.654 4.12999 1.26711 0
M  V30 4661 C 450.789 4.73676 2.40426 0
M  V30 4662 C 449.828 5.82981 1.86545 0
M  V30 4663 N 448.965 6.3769 2.93762 0
M  V30 4664 H 453.805 2.97995 0.0169528 0
M  V30 4665 H 451.342 1.471 -0.00339964 0
M  V30 4666 H 453.3 3.36447 2.46697 0
M  V30 4667 H 451.93 2.2311 2.33285 0
M  V30 4668 H 450.982 3.77494 0.469314 0
M  V30 4669 H 452.294 4.91803 0.832518 0
M  V30 4670 H 451.448 5.17008 3.17471 0
M  V30 4671 H 450.187 3.94164 2.87203 0
M  V30 4672 H 449.192 5.39092 1.07983 0
M  V30 4673 H 450.417 6.64366 1.40694 0
M  V30 4674 H 448.363 5.61069 3.39908 0
M  V30 4675 H 448.28 7.11788 2.54744 0
M  V30 4676 H 449.548 6.8568 3.7076 0
M  V30 4677 N 453.777 0.010035 1.57597 0
M  V30 4678 C 455.025 -0.671371 1.90623 0
M  V30 4679 C 455.346 -1.73753 0.885151 0
M  V30 4680 O 454.616 -1.95752 -0.0760611 0
M  V30 4681 H 453.196 -0.250968 0.703579 0
M  V30 4682 H 455.858 0.0533325 1.94827 0
M  V30 4683 H 454.954 -1.13626 2.90681 0
M  V30 4684 N 455.255 -1.55392 -0.262866 0
M  V30 4685 C 456.503 -1.76127 -0.991147 0
M  V30 4686 C 456.824 -0.571083 -1.8645 0
M  V30 4687 O 456.094 0.413698 -1.91482 0
M  V30 4688 H 454.674 -0.649528 -0.368948 0
M  V30 4689 H 457.336 -1.9281 -0.284655 0
M  V30 4690 H 456.432 -2.6663 -1.62219 0
M  V30 4691 N 456.733 0.527833 -1.48498 0
M  V30 4692 C 457.663 1.64136 -1.66077 0
M  V30 4693 C 458.644 1.62286 -0.509625 0
M  V30 4694 O 459.829 1.79449 -0.742413 0
M  V30 4695 C 456.959 3.02717 -1.70234 0
M  V30 4696 C 455.913 3.19426 -2.8487 0
M  V30 4697 C 455.239 4.5909 -2.74118 0
M  V30 4698 C 456.539 3.01993 -4.26142 0
M  V30 4699 H 458.233 1.4968 -2.593 0
M  V30 4700 H 455.779 0.718654 -1.24785 0
M  V30 4701 H 457.732 3.80491 -1.8112 0
M  V30 4702 H 456.456 3.18201 -0.735911 0
M  V30 4703 H 455.115 2.4407 -2.73542 0
M  V30 4704 H 454.763 4.71413 -1.7544 0
M  V30 4705 H 454.463 4.71214 -3.51042 0
M  V30 4706 H 455.987 5.3896 -2.86974 0
M  V30 4707 H 457.401 3.69558 -4.38292 0
M  V30 4708 H 455.798 3.2561 -5.04082 0
M  V30 4709 H 456.868 1.98396 -4.42456 0
M  V30 4710 N 458.211 1.37122 0.776871 0
M  V30 4711 C 459.451 1.33441 1.54831 0
M  V30 4712 C 459.815 -0.0818963 1.91825 0
M  V30 4713 O 461.016 -0.24338 2.67696 0
M  V30 4714 C 459.287 2.24267 2.78279 0
M  V30 4715 S 460.846 2.38389 3.68397 0
M  V30 4716 H 457.664 0.473791 0.530135 0
M  V30 4717 H 460.266 1.7282 0.913968 0
M  V30 4718 H 458.97 3.261 2.49173 0
M  V30 4719 H 458.501 1.85953 3.46677 0
M  V30 4720 H 460.516 1.59068 4.70013 0
M  V30 4721 N 459.689 -1.00246 1.21608 0
M  V30 4722 C 461.105 -1.26435 0.973975 0
M  V30 4723 C 461.305 -1.98642 -0.338143 0
M  V30 4724 O 460.361 -2.29026 -1.06317 0
M  V30 4725 C 461.674 -2.08551 2.16626 0
M  V30 4726 C 463.222 -2.21769 2.20879 0
M  V30 4727 C 463.697 -3.07267 3.39633 0
M  V30 4728 N 465.188 -3.14855 3.39736 0
M  V30 4729 C 465.923 -3.81274 4.28273 0
M  V30 4730 N 465.419 -4.497 5.27012 0
M  V30 4731 N 467.212 -3.7794 4.16074 0
M  V30 4732 H 459.363 -0.518089 2.05984 0
M  V30 4733 H 461.626 -0.291368 0.902113 0
M  V30 4734 H 461.332 -1.62847 3.11727 0
M  V30 4735 H 461.206 -3.09303 2.15897 0
M  V30 4736 H 463.593 -2.66691 1.26332 0
M  V30 4737 H 463.674 -1.20478 2.25652 0
M  V30 4738 H 463.318 -2.63047 4.34475 0
M  V30 4739 H 463.248 -4.08678 3.321 0
M  V30 4740 H 465.739 -2.66147 2.6828 0
M  V30 4741 H 466.052 -4.98092 5.90867 0
M  V30 4742 H 464.397 -4.48479 5.30935 0
M  V30 4743 H 467.588 -3.23638 3.38195 0
M  V30 4744 H 467.761 -4.29424 4.85282 0
M  V30 4745 N 461.167 -1.02423 -1.1978 0
M  V30 4746 C 462.583 -0.740459 -1.41384 0
M  V30 4747 C 462.783 0.676827 -1.89793 0
M  V30 4748 O 461.839 1.4435 -2.0717 0
M  V30 4749 C 463.152 -1.77264 -2.42895 0
M  V30 4750 C 464.7 -1.79165 -2.56649 0
M  V30 4751 C 465.175 -2.8133 -3.6141 0
M  V30 4752 N 466.666 -2.80118 -3.68901 0
M  V30 4753 C 467.401 -3.55824 -4.49641 0
M  V30 4754 N 466.897 -4.41231 -5.34123 0
M  V30 4755 N 468.69 -3.44387 -4.44246 0
M  V30 4756 H 460.841 -1.9391 -0.866764 0
M  V30 4757 H 463.104 -0.838074 -0.443098 0
M  V30 4758 H 462.81 -2.7884 -2.14339 0
M  V30 4759 H 462.684 -1.59108 -3.42001 0
M  V30 4760 H 465.071 -0.782702 -2.84531 0
M  V30 4761 H 465.152 -2.01396 -1.57713 0
M  V30 4762 H 464.796 -3.82394 -3.34271 0
M  V30 4763 H 464.726 -2.56359 -4.59986 0
M  V30 4764 H 467.217 -2.1817 -3.08562 0
M  V30 4765 H 467.53 -4.95747 -5.92836 0
M  V30 4766 H 465.875 -4.45306 -5.33599 0
M  V30 4767 H 469.066 -2.7708 -3.77285 0
M  V30 4768 H 469.239 -4.0364 -5.06931 0
M  V30 4769 N 462.645 1.35699 -0.801477 0
M  V30 4770 C 463.891 1.99208 -0.380022 0
M  V30 4771 C 464.224 1.63445 1.04878 0
M  V30 4772 O 463.499 0.895223 1.72673 0
M  V30 4773 C 463.782 3.55755 -0.557708 0
M  V30 4774 C 463.635 4.01332 -2.03107 0
M  V30 4775 C 464.954 4.40096 0.0197968 0
M  V30 4776 H 462.073 0.723667 -0.139552 0
M  V30 4777 H 464.715 1.60928 -1.01006 0
M  V30 4778 H 462.865 3.88494 -0.0213741 0
M  V30 4779 H 464.537 3.79026 -2.62939 0
M  V30 4780 H 462.78 3.52429 -2.52936 0
M  V30 4781 H 463.451 5.10234 -2.1063 0
M  V30 4782 H 465.927 4.13786 -0.438179 0
M  V30 4783 H 464.803 5.48735 -0.134477 0
M  V30 4784 H 465.064 4.2786 1.11303 0
M  V30 4785 N 464.123 0.554532 1.47522 0
M  V30 4786 C 465.053 -0.182974 2.32782 0
M  V30 4787 C 466.034 -0.911377 1.43624 0
M  V30 4788 O 467.219 -0.892366 1.72483 0
M  V30 4789 C 464.349 -1.21513 3.25349 0
M  V30 4790 C 463.303 -0.603355 4.23726 0
M  V30 4791 C 462.629 -1.73995 5.05598 0
M  V30 4792 C 463.929 0.441121 5.20434 0
M  V30 4793 H 465.623 0.52882 2.94693 0
M  V30 4794 H 463.169 0.255759 1.41711 0
M  V30 4795 H 465.122 -1.73922 3.83835 0
M  V30 4796 H 463.846 -1.95683 2.61487 0
M  V30 4797 H 462.505 -0.10059 3.66462 0
M  V30 4798 H 462.153 -2.47063 4.38143 0
M  V30 4799 H 461.853 -1.3364 5.72201 0
M  V30 4800 H 463.377 -2.26735 5.66942 0
M  V30 4801 H 464.791 0.00319931 5.733 0
M  V30 4802 H 463.188 0.763402 5.95224 0
M  V30 4803 H 464.258 1.33799 4.66075 0
M  V30 4804 N 465.601 -1.54893 0.290851 0
M  V30 4805 C 466.847 -2.0023 -0.321867 0
M  V30 4806 C 467.18 -1.179 -1.54316 0
M  V30 4807 O 466.455 -0.25293 -1.92848 0
M  V30 4808 C 466.738 -3.53456 -0.688515 0
M  V30 4809 C 466.591 -4.46532 0.541209 0
M  V30 4810 C 467.91 -4.13057 -1.51895 0
M  V30 4811 H 465.029 -0.727891 -0.115515 0
M  V30 4812 H 467.671 -1.85722 0.400931 0
M  V30 4813 H 465.821 -3.6595 -1.30433 0
M  V30 4814 H 467.493 -4.4596 1.17973 0
M  V30 4815 H 465.736 -4.17545 1.17636 0
M  V30 4816 H 466.407 -5.51475 0.240675 0
M  V30 4817 H 468.883 -4.03937 -0.99872 0
M  V30 4818 H 467.759 -5.20448 -1.74429 0
M  V30 4819 H 468.02 -3.64284 -2.50498 0
M  V30 4820 N 467.08 -0.0183926 -1.57589 0
M  V30 4821 C 468.012 0.995557 -2.06449 0
M  V30 4822 C 469.025 1.29556 -0.985849 0
M  V30 4823 O 470.214 1.2621 -1.26227 0
M  V30 4824 C 467.314 2.32572 -2.46502 0
M  V30 4825 C 466.487 2.21245 -3.77319 0
M  V30 4826 C 465.546 3.37104 -4.04039 0
M  V30 4827 O 464.572 3.14468 -4.74445 0
M  V30 4828 N 465.774 4.60553 -3.53372 0
M  V30 4829 H 468.539 0.578746 -2.94059 0
M  V30 4830 H 466.1 0.168603 -1.6102 0
M  V30 4831 H 468.092 3.08887 -2.61478 0
M  V30 4832 H 466.662 2.65931 -1.64315 0
M  V30 4833 H 465.882 1.29723 -3.72244 0
M  V30 4834 H 467.17 2.10868 -4.63047 0
M  V30 4835 H 466.568 4.81839 -2.96391 0
M  V30 4836 H 465.125 5.34072 -3.73644 0
M  V30 4837 N 468.558 1.5553 0.254621 0
M  V30 4838 C 469.804 1.77262 0.985193 0
M  V30 4839 C 470.137 0.582286 1.85265 0
M  V30 4840 O 469.412 -0.419666 1.89919 0
M  V30 4841 C 469.695 3.0881 1.85225 0
M  V30 4842 C 469.548 4.38233 1.0135 0
M  V30 4843 C 470.867 3.3653 2.83612 0
M  V30 4844 H 467.986 0.644906 0.356742 0
M  V30 4845 H 470.628 1.88264 0.256236 0
M  V30 4846 H 468.778 2.99562 2.47376 0
M  V30 4847 H 470.45 4.59463 0.411269 0
M  V30 4848 H 468.693 4.32636 0.317574 0
M  V30 4849 H 469.364 5.26644 1.65379 0
M  V30 4850 H 471.84 3.45691 2.31596 0
M  V30 4851 H 470.716 4.29805 3.41407 0
M  V30 4852 H 470.977 2.57064 3.59681 0
M  V30 4853 N 470.036 -0.519951 1.48776 0
M  V30 4854 C 471.261 -1.30447 1.6124 0
M  V30 4855 C 471.686 -1.86055 0.276591 0
M  V30 4856 O 471.044 -1.64915 -0.753183 0
M  V30 4857 C 471.092 -2.42406 2.66967 0
M  V30 4858 O 470.196 -3.45728 2.24824 0
M  V30 4859 H 469.537 -0.385924 0.540332 0
M  V30 4860 H 472.067 -0.624572 1.94834 0
M  V30 4861 H 472.077 -2.88447 2.88552 0
M  V30 4862 H 470.752 -2.01294 3.63941 0
M  V30 4863 H 469.329 -3.05737 2.13494 0
M  V30 4864 N 471.514 -1.37532 -0.769588 0
M  V30 4865 C 472.744 -1.35861 -1.55645 0
M  V30 4866 C 473.152 0.0574398 -1.89113 0
M  V30 4867 O 472.495 1.03021 -1.52093 0
M  V30 4868 C 472.557 -2.13431 -2.89288 0
M  V30 4869 C 472.221 -3.62378 -2.78444 0
M  V30 4870 C 473.218 -4.56215 -2.49326 0
M  V30 4871 C 470.903 -4.05529 -2.96398 0
M  V30 4872 C 472.897 -5.91181 -2.38294 0
M  V30 4873 C 470.584 -5.40579 -2.84987 0
M  V30 4874 C 471.582 -6.33218 -2.55975 0
M  V30 4875 O 471.27 -7.65787 -2.44594 0
M  V30 4876 H 471.002 -0.467001 -0.48876 0
M  V30 4877 H 473.556 -1.81505 -0.961515 0
M  V30 4878 H 471.786 -1.62481 -3.50909 0
M  V30 4879 H 473.475 -2.04368 -3.50697 0
M  V30 4880 H 474.241 -4.24187 -2.35139 0
M  V30 4881 H 470.12 -3.33781 -3.1798 0
M  V30 4882 H 473.664 -6.63457 -2.15571 0
M  V30 4883 H 469.561 -5.72209 -2.98743 0
M  V30 4884 H 470.329 -7.76132 -2.59927 0
M  V30 4885 N 472.992 0.995999 -1.22138 0
M  V30 4886 C 473.955 2.06711 -0.990109 0
M  V30 4887 C 474.955 1.60744 0.0422978 0
M  V30 4888 O 476.145 1.73095 -0.195895 0
M  V30 4889 C 473.277 3.37288 -0.49491 0
M  V30 4890 H 474.47 2.28661 -1.94047 0
M  V30 4891 H 472.023 1.16711 -1.03963 0
M  V30 4892 H 472.758 3.21022 0.459948 0
M  V30 4893 H 472.543 3.71986 -1.23971 0
M  V30 4894 H 474.033 4.16103 -0.353253 0
M  V30 4895 N 474.47 1.03057 1.19235 0
M  V30 4896 C 475.719 0.72326 1.88287 0
M  V30 4897 C 476.032 -0.751333 1.80594 0
M  V30 4898 O 477.238 -1.17176 2.44912 0
M  V30 4899 C 475.694 1.24338 3.3774 0
M  V30 4900 C 475.302 2.74587 3.53986 0
M  V30 4901 C 477.046 1.01213 4.12257 0
M  V30 4902 C 474.953 3.20009 4.97341 0
M  V30 4903 H 473.883 0.266848 0.705201 0
M  V30 4904 H 476.534 1.24509 1.34795 0
M  V30 4905 H 474.916 0.649457 3.90638 0
M  V30 4906 H 476.09 3.39649 3.11408 0
M  V30 4907 H 474.405 2.9601 2.9286 0
M  V30 4908 H 477.002 1.32675 5.17978 0
M  V30 4909 H 477.345 -0.051001 4.16269 0
M  V30 4910 H 477.878 1.57014 3.65501 0
M  V30 4911 H 474.617 4.25659 4.98493 0
M  V30 4912 H 474.137 2.59676 5.40674 0
M  V30 4913 H 475.816 3.13447 5.66003 0
M  V30 4914 N 475.948 -1.35272 0.808662 0
M  V30 4915 C 477.196 -1.98316 0.389233 0
M  V30 4916 C 477.517 -1.64465 -1.04767 0
M  V30 4917 O 476.787 -0.928175 -1.72516 0
M  V30 4918 H 475.367 -0.733585 0.140935 0
M  V30 4919 H 478.029 -1.6515 1.03496 0
M  V30 4920 H 477.125 -3.08123 0.496631 0
M  V30 4921 N 477.426 -0.562348 -1.47226 0
M  V30 4922 C 478.672 -0.0402761 -2.0276 0
M  V30 4923 C 479.005 1.30823 -1.43523 0
M  V30 4924 O 478.28 1.85249 -0.592705 0
M  V30 4925 C 478.563 0.047311 -3.60069 0
M  V30 4926 C 478.416 -1.32865 -4.29729 0
M  V30 4927 C 479.735 0.758182 -4.3352 0
M  V30 4928 H 476.854 -0.0161105 -0.736824 0
M  V30 4929 H 479.496 -0.725628 -1.75598 0
M  V30 4930 H 477.646 0.630986 -3.83342 0
M  V30 4931 H 479.318 -1.95593 -4.17781 0
M  V30 4932 H 477.561 -1.90195 -3.89882 0
M  V30 4933 H 478.232 -1.22004 -5.38349 0
M  V30 4934 H 480.708 0.262546 -4.15271 0
M  V30 4935 H 479.584 0.78844 -5.43208 0
M  V30 4936 H 479.845 1.81537 -4.03109 0
M  V30 4937 N 478.904 1.54736 -0.299062 0
M  V30 4938 C 480.129 2.04975 0.316254 0
M  V30 4939 C 480.554 1.17501 1.46885 0
M  V30 4940 O 479.912 0.178678 1.80417 0
M  V30 4941 C 479.96 3.52672 0.751997 0
M  V30 4942 O 479.064 3.68226 1.85697 0
M  V30 4943 H 478.405 0.661126 0.0617175 0
M  V30 4944 H 480.935 1.99805 -0.440341 0
M  V30 4945 H 480.945 3.94488 1.04133 0
M  V30 4946 H 479.62 4.158 -0.0911482 0
M  V30 4947 H 478.197 3.38316 1.56834 0
M  V30 4948 N 480.382 0.0267497 1.57577 0
M  V30 4949 C 481.332 -0.965003 2.06571 0
M  V30 4950 C 482.316 -1.28694 0.965746 0
M  V30 4951 O 483.508 -1.27345 1.22932 0
M  V30 4952 C 480.637 -2.24821 2.59443 0
M  V30 4953 C 479.723 -1.95474 3.76365 0
M  V30 4954 N 480.114 -1.36387 4.87065 0
M  V30 4955 C 478.412 -2.25478 3.84806 0
M  V30 4956 C 479.113 -1.24119 5.68304 0
M  V30 4957 N 478.089 -1.7359 5.15138 0
M  V30 4958 H 481.891 -0.503095 2.89562 0
M  V30 4959 H 479.405 -0.178322 1.61418 0
M  V30 4960 H 481.402 -2.9674 2.92833 0
M  V30 4961 H 480.062 -2.7164 1.77881 0
M  V30 4962 H 481.073 -1.03919 5.07367 0
M  V30 4963 H 477.75 -2.74987 3.14147 0
M  V30 4964 H 479.14 -0.784504 6.67304 0
M  V30 4965 N 481.861 -1.55662 -0.24637 0
M  V30 4966 C 483.272 -1.67953 -0.81539 0
M  V30 4967 C 483.623 -0.624302 -1.86002 0
M  V30 4968 O 482.748 0.229328 -2.15181 0
M  V30 4969 C 483.343 -3.04484 -1.48576 0
M  V30 4970 C 481.902 -3.18713 -2.00248 0
M  V30 4971 C 481.049 -2.6383 -0.853766 0
M  V30 4972 H 484 -1.58685 -0.0221692 0
M  V30 4973 H 484.021 -2.98959 -2.3538 0
M  V30 4974 H 483.533 -3.81264 -0.725222 0
M  V30 4975 H 481.634 -2.46757 -2.79181 0
M  V30 4976 H 481.747 -4.25628 -2.1995 0
M  V30 4977 H 480.111 -2.21667 -1.25442 0
M  V30 4978 H 480.894 -3.43135 -0.106302 0
M  V30 4979 N 483.339 0.512053 -1.4905 0
M  V30 4980 C 484.269 1.62365 -1.67809 0
M  V30 4981 C 485.25 1.61737 -0.526809 0
M  V30 4982 O 486.435 1.78651 -0.761404 0
M  V30 4983 C 483.565 3.00895 -1.73435 0
M  V30 4984 C 482.519 3.16387 -2.88242 0
M  V30 4985 C 481.845 4.56157 -2.78971 0
M  V30 4986 C 483.145 2.97457 -4.29321 0
M  V30 4987 H 484.839 1.46921 -2.60873 0
M  V30 4988 H 482.385 0.705379 -1.2554 0
M  V30 4989 H 484.338 3.78549 -1.85145 0
M  V30 4990 H 483.062 3.17403 -0.769619 0
M  V30 4991 H 481.721 2.41155 -2.76116 0
M  V30 4992 H 481.369 4.69525 -1.8043 0
M  V30 4993 H 481.069 4.67465 -3.5602 0
M  V30 4994 H 482.593 5.35886 -2.92675 0
M  V30 4995 H 484.007 3.64888 -4.42187 0
M  V30 4996 H 482.404 3.20245 -5.07507 0
M  V30 4997 H 483.474 1.93692 -4.44535 0
M  V30 4998 N 484.817 1.37938 0.762283 0
M  V30 4999 C 486.042 1.37059 1.55659 0
M  V30 5000 C 486.467 -0.0396123 1.88058 0
M  V30 5001 O 485.825 -1.01929 1.49934 0
M  V30 5002 C 485.873 2.22494 2.83776 0
M  V30 5003 O 484.977 1.63607 3.78559 0
M  V30 5004 H 484.318 0.467892 0.47114 0
M  V30 5005 H 486.848 1.81587 0.942725 0
M  V30 5006 H 486.858 2.36045 3.32786 0
M  V30 5007 H 485.533 3.24993 2.59524 0
M  V30 5008 H 484.11 1.5915 3.37233 0
M  V30 5009 N 486.295 -0.989507 1.22664 0
M  V30 5010 C 487.544 -1.72375 1.04737 0
M  V30 5011 C 487.857 -1.91096 -0.417316 0
M  V30 5012 O 489.063 -2.6188 -0.716334 0
M  V30 5013 C 487.519 -3.10161 1.82561 0
M  V30 5014 C 487.127 -2.99358 3.333 0
M  V30 5015 C 488.871 -3.87607 1.73093 0
M  V30 5016 C 486.778 -4.32319 4.03552 0
M  V30 5017 H 485.708 -0.646326 0.388302 0
M  V30 5018 H 488.359 -1.10437 1.46546 0
M  V30 5019 H 486.741 -3.728 1.33552 0
M  V30 5020 H 487.915 -2.45863 3.89728 0
M  V30 5021 H 486.23 -2.35392 3.43481 0
M  V30 5022 H 488.827 -4.86025 2.22899 0
M  V30 5023 H 489.17 -4.10509 0.691976 0
M  V30 5024 H 489.703 -3.31652 2.19663 0
M  V30 5025 H 486.442 -4.14616 5.07714 0
M  V30 5026 H 485.962 -4.85714 3.51911 0
M  V30 5027 H 487.641 -5.01051 4.09337 0
M  V30 5028 N 487.773 -1.03688 -1.18687 0
M  V30 5029 C 488.998 -0.757819 -1.93059 0
M  V30 5030 C 489.423 0.678353 -1.75442 0
M  V30 5031 O 488.781 1.46938 -1.06203 0
M  V30 5032 C 488.829 -1.12423 -3.42627 0
M  V30 5033 O 487.933 -0.247505 -4.11657 0
M  V30 5034 H 487.274 -0.279245 -0.602427 0
M  V30 5035 H 489.804 -1.3857 -1.5053 0
M  V30 5036 H 489.814 -1.08454 -3.93322 0
M  V30 5037 H 488.489 -2.17049 -3.54771 0
M  V30 5038 H 487.066 -0.34649 -3.71287 0
M  V30 5039 N 489.251 1.34841 -0.815825 0
M  V30 5040 C 490.5 1.97755 -0.396976 0
M  V30 5041 C 490.813 1.65422 1.04379 0
M  V30 5042 O 492.019 2.21771 1.5662 0
M  V30 5043 C 490.475 3.53818 -0.658869 0
M  V30 5044 C 490.083 3.95051 -2.11278 0
M  V30 5045 C 491.827 4.23397 -0.305834 0
M  V30 5046 C 489.734 5.43997 -2.31994 0
M  V30 5047 H 488.664 0.739985 -0.1447 0
M  V30 5048 H 491.315 1.53781 -1.00118 0
M  V30 5049 H 489.697 3.95997 0.0154112 0
M  V30 5050 H 490.871 3.63998 -2.82564 0
M  V30 5051 H 489.186 3.38388 -2.42657 0
M  V30 5052 H 491.783 5.32899 -0.43854 0
M  V30 5053 H 492.126 4.09508 0.748952 0
M  V30 5054 H 492.659 3.8667 -0.934403 0
M  V30 5055 H 489.398 5.62865 -3.35952 0
M  V30 5056 H 488.918 5.76589 -1.65244 0
M  V30 5057 H 490.597 6.10584 -2.14001 0
M  V30 5058 N 490.729 0.570148 1.46925 0
M  V30 5059 C 491.976 0.0509529 2.02436 0
M  V30 5060 C 492.304 -1.30405 1.44308 0
M  V30 5061 O 491.559 -1.86493 0.593198 0
M  V30 5062 C 491.858 -0.0780336 3.57315 0
M  V30 5063 C 491.524 1.20775 4.34424 0
M  V30 5064 C 490.186 1.56004 4.5521 0
M  V30 5065 C 492.538 2.0592 4.78797 0
M  V30 5066 C 489.866 2.76201 5.17619 0
M  V30 5067 C 492.218 3.25332 5.42533 0
M  V30 5068 C 490.882 3.60859 5.61549 0
M  V30 5069 H 490.152 0.018645 0.740765 0
M  V30 5070 H 492.799 0.744262 1.76445 0
M  V30 5071 H 491.104 -0.854394 3.82371 0
M  V30 5072 H 492.801 -0.495312 3.97929 0
M  V30 5073 H 489.391 0.923469 4.18533 0
M  V30 5074 H 493.575 1.80008 4.62505 0
M  V30 5075 H 488.831 3.0388 5.30535 0
M  V30 5076 H 493.005 3.91586 5.75876 0
M  V30 5077 H 490.632 4.54088 6.09678 0
M  V30 5078 N 492.207 -1.54576 0.307264 0
M  V30 5079 C 493.157 -2.20467 -0.581249 0
M  V30 5080 C 494.141 -1.17972 -1.09414 0
M  V30 5081 O 495.333 -1.43667 -1.03387 0
M  V30 5082 C 492.462 -2.95369 -1.74963 0
M  V30 5083 C 491.548 -4.05186 -1.25241 0
M  V30 5084 N 491.939 -5.03577 -0.47364 0
M  V30 5085 C 490.237 -4.18841 -1.53259 0
M  V30 5086 C 490.938 -5.81328 -0.208083 0
M  V30 5087 N 489.914 -5.37834 -0.789651 0
M  V30 5088 H 493.716 -2.93892 0.0212221 0
M  V30 5089 H 491.23 -1.62011 0.112325 0
M  V30 5090 H 493.227 -3.41046 -2.39777 0
M  V30 5091 H 491.887 -2.23461 -2.35574 0
M  V30 5092 H 492.898 -5.17766 -0.117963 0
M  V30 5093 H 489.575 -3.58141 -2.14573 0
M  V30 5094 H 490.965 -6.706 0.417793 0
M  V30 5095 N 493.685 -0.035106 -1.57561 0
M  V30 5096 C 494.915 0.651312 -1.96065 0
M  V30 5097 C 495.323 1.6585 -0.910514 0
M  V30 5098 O 494.666 1.83336 0.11552 0
M  V30 5099 C 494.728 1.40897 -3.30739 0
M  V30 5100 C 494.392 0.559436 -4.53563 0
M  V30 5101 C 495.389 -0.16778 -5.19629 0
M  V30 5102 C 493.074 0.495079 -4.99854 0
M  V30 5103 C 495.068 -0.947963 -6.30311 0
M  V30 5104 C 492.755 -0.288804 -6.10417 0
M  V30 5105 C 493.753 -1.00903 -6.75505 0
M  V30 5106 O 493.441 -1.78005 -7.83945 0
M  V30 5107 H 493.173 0.184036 -0.650467 0
M  V30 5108 H 495.727 -0.0929677 -2.05189 0
M  V30 5109 H 493.957 2.19852 -3.18123 0
M  V30 5110 H 495.646 1.98407 -3.54104 0
M  V30 5111 H 496.412 -0.12743 -4.84833 0
M  V30 5112 H 492.291 1.04524 -4.48994 0
M  V30 5113 H 495.835 -1.51064 -6.81047 0
M  V30 5114 H 491.732 -0.33085 -6.44652 0
M  V30 5115 H 492.5 -1.70046 -8.00641 0
M  V30 5116 N 495.163 1.55791 0.238111 0
M  V30 5117 C 496.411 1.77681 0.963001 0
M  V30 5118 C 496.732 0.600674 1.85518 0
M  V30 5119 O 496.002 -0.383182 1.92116 0
M  V30 5120 H 494.582 0.655315 0.358568 0
M  V30 5121 H 497.244 1.93239 0.253945 0
M  V30 5122 H 496.34 2.69177 1.57956 0
M  V30 5123 N 496.642 -0.504142 1.49319 0
M  V30 5124 C 497.87 -1.28256 1.62351 0
M  V30 5125 C 498.285 -1.86502 0.293682 0
M  V30 5126 O 497.642 -1.67678 -0.720449 0
M  V30 5127 C 497.693 -2.41507 2.68992 0
M  V30 5128 O 497.414 -1.85656 3.96817 0
M  V30 5129 C 498.915 -3.32929 2.927 0
M  V30 5130 H 496.135 -0.389115 0.546654 0
M  V30 5131 H 498.679 -0.605531 1.95329 0
M  V30 5132 H 496.834 -3.05046 2.38801 0
M  V30 5133 H 497.248 -2.59981 4.55533 0
M  V30 5134 H 498.722 -4.0868 3.71058 0
M  V30 5135 H 499.199 -3.89733 2.02496 0
M  V30 5136 H 499.805 -2.75158 3.24296 0
M  V30 5137 N 498.12 -1.38341 -0.754957 0
M  V30 5138 C 499.345 -1.37882 -1.5493 0
M  V30 5139 C 499.77 0.0296385 -1.88077 0
M  V30 5140 O 499.128 1.01133 -1.50472 0
M  V30 5141 C 499.176 -2.23996 -2.82592 0
M  V30 5142 O 498.28 -1.65612 -3.77686 0
M  V30 5143 H 497.621 -0.470384 -0.468652 0
M  V30 5144 H 500.151 -1.82084 -0.933082 0
M  V30 5145 H 500.161 -2.37806 -3.3153 0
M  V30 5146 H 498.836 -3.26365 -2.57796 0
M  V30 5147 H 497.413 -1.60936 -3.36384 0
M  V30 5148 N 499.598 0.982988 -1.23187 0
M  V30 5149 C 500.53 2.07729 -0.968572 0
M  V30 5150 C 501.543 1.62702 0.0564821 0
M  V30 5151 O 502.732 1.77603 -0.178733 0
M  V30 5152 C 499.832 3.36071 -0.436974 0
M  V30 5153 C 499.005 4.10081 -1.52159 0
M  V30 5154 C 498.064 5.16701 -0.99532 0
M  V30 5155 O 497.09 5.43727 -1.68373 0
M  V30 5156 N 498.292 5.80226 0.178192 0
M  V30 5157 H 501.057 2.30894 -1.9107 0
M  V30 5158 H 498.618 1.14949 -1.1401 0
M  V30 5159 H 500.61 4.04639 -0.0700051 0
M  V30 5160 H 499.18 3.09893 0.410509 0
M  V30 5161 H 498.4 3.36004 -2.06144 0
M  V30 5162 H 499.688 4.56295 -2.25105 0
M  V30 5163 H 499.086 5.60651 0.754096 0
M  V30 5164 H 497.643 6.49982 0.486449 0
M  V30 5165 N 501.076 1.04316 1.18135 0
M  V30 5166 C 502.023 0.636398 2.21853 0
M  V30 5167 C 502.993 -0.357039 1.62217 0
M  V30 5168 O 504.178 -0.250453 1.89149 0
M  V30 5169 C 501.318 0.00812779 3.45099 0
M  V30 5170 C 500.431 1.04933 4.19062 0
M  V30 5171 C 499.566 0.389313 5.29771 0
M  V30 5172 C 498.605 1.41544 5.9551 0
M  V30 5173 N 497.742 0.78021 6.97751 0
M  V30 5174 H 502.582 1.52536 2.56002 0
M  V30 5175 H 500.119 0.76304 1.25762 0
M  V30 5176 H 502.077 -0.373497 4.15525 0
M  V30 5177 H 500.707 -0.844336 3.11562 0
M  V30 5178 H 499.759 1.54888 3.47439 0
M  V30 5179 H 501.071 1.82862 4.64072 0
M  V30 5180 H 500.225 -0.0463805 6.06682 0
M  V30 5181 H 498.964 -0.422038 4.8587 0
M  V30 5182 H 497.969 1.86124 5.17337 0
M  V30 5183 H 499.194 2.22854 6.41493 0
M  V30 5184 H 497.14 -0.0107899 6.55999 0
M  V30 5185 H 497.057 1.49716 7.41027 0
M  V30 5186 H 498.325 0.368996 7.78626 0
M  V30 5187 N 502.554 -1.34406 0.822964 0
M  V30 5188 C 503.779 -2.0304 0.423034 0
M  V30 5189 C 504.204 -1.61568 -0.963196 0
M  V30 5190 O 503.562 -0.800339 -1.62678 0
M  V30 5191 C 503.61 -3.56636 0.53321 0
M  V30 5192 O 502.714 -4.09971 -0.446939 0
M  V30 5193 H 502.055 -0.64075 0.174171 0
M  V30 5194 H 504.585 -1.71653 1.11339 0
M  V30 5195 H 504.595 -4.05945 0.408991 0
M  V30 5196 H 503.27 -3.86168 1.54425 0
M  V30 5197 H 501.847 -3.71835 -0.281601 0
M  V30 5198 N 504.032 -0.577932 -1.46621 0
M  V30 5199 C 504.942 0.160651 -2.34049 0
M  V30 5200 C 505.958 0.890911 -1.49462 0
M  V30 5201 O 507.134 0.855166 -1.82343 0
M  V30 5202 C 504.199 1.16447 -3.26559 0
M  V30 5203 C 503.26 0.4394 -4.27045 0
M  V30 5204 C 502.493 1.3954 -5.15135 0
M  V30 5205 O 502.716 2.63162 -5.06065 0
M  V30 5206 O 501.65 0.908585 -5.95003 0
M  V30 5207 H 505.476 -0.557057 -2.98547 0
M  V30 5208 H 503.061 -0.338369 -1.45518 0
M  V30 5209 H 504.943 1.7434 -3.83645 0
M  V30 5210 H 503.618 1.86373 -2.64663 0
M  V30 5211 H 502.525 -0.181247 -3.73661 0
M  V30 5212 H 503.858 -0.218799 -4.91713 0
M  V30 5213 N 505.51 1.54411 -0.315457 0
M  V30 5214 C 506.926 1.59556 0.037464 0
M  V30 5215 C 507.126 1.33217 1.5118 0
M  V30 5216 O 506.182 1.11264 2.26664 0
M  V30 5217 C 507.495 2.98372 -0.373477 0
M  V30 5218 C 509.043 3.11324 -0.323452 0
M  V30 5219 C 509.518 4.52472 -0.709433 0
M  V30 5220 N 511.009 4.58437 -0.662524 0
M  V30 5221 C 511.744 5.65751 -0.933474 0
M  V30 5222 N 511.24 6.81039 -1.27114 0
M  V30 5223 N 513.033 5.55489 -0.859573 0
M  V30 5224 H 505.184 1.6979 -1.27614 0
M  V30 5225 H 507.447 0.793732 -0.518356 0
M  V30 5226 H 507.153 3.22618 -1.40037 0
M  V30 5227 H 507.027 3.76264 0.265615 0
M  V30 5228 H 509.414 2.86818 0.694223 0
M  V30 5229 H 509.495 2.35555 -0.997367 0
M  V30 5230 H 509.139 4.7771 -1.72498 0
M  V30 5231 H 509.069 5.26598 -0.0132923 0
M  V30 5232 H 511.56 3.75636 -0.413065 0
M  V30 5233 H 511.873 7.58816 -1.46348 0
M  V30 5234 H 510.218 6.82555 -1.30932 0
M  V30 5235 H 513.409 4.64299 -0.595324 0
M  V30 5236 H 513.582 6.39036 -1.0741 0
M  V30 5237 N 506.988 0.0434614 1.5754 0
M  V30 5238 C 507.898 -0.94893 2.14552 0
M  V30 5239 C 508.914 -1.34707 1.10136 0
M  V30 5240 O 510.09 -1.42557 1.42266 0
M  V30 5241 C 507.155 -2.208 2.67298 0
M  V30 5242 C 506.216 -1.86893 3.86484 0
M  V30 5243 C 505.449 -3.06797 4.36705 0
M  V30 5244 O 505.672 -4.19921 3.86034 0
M  V30 5245 O 504.606 -2.8826 5.28384 0
M  V30 5246 H 508.432 -0.494099 2.99654 0
M  V30 5247 H 506.017 -0.177989 1.48336 0
M  V30 5248 H 507.899 -2.94686 3.01228 0
M  V30 5249 H 506.574 -2.65436 1.85272 0
M  V30 5250 H 505.481 -1.10347 3.57455 0
M  V30 5251 H 506.814 -1.47062 4.69716 0
M  V30 5252 N 508.466 -1.55915 -0.229846 0
M  V30 5253 C 509.396 -1.94754 -1.28815 0
M  V30 5254 C 510.377 -0.814657 -1.49323 0
M  V30 5255 O 511.562 -1.07631 -1.61645 0
M  V30 5256 C 508.692 -2.25705 -2.63959 0
M  V30 5257 C 507.646 -3.41406 -2.5812 0
M  V30 5258 C 506.972 -3.57941 -3.97218 0
M  V30 5259 C 508.272 -4.76616 -2.13623 0
M  V30 5260 H 509.966 -2.83404 -0.965547 0
M  V30 5261 H 507.512 -1.36353 -0.463028 0
M  V30 5262 H 509.465 -2.51467 -3.38146 0
M  V30 5263 H 508.189 -1.339 -2.9789 0
M  V30 5264 H 506.848 -3.1568 -1.86391 0
M  V30 5265 H 506.496 -2.63526 -4.28443 0
M  V30 5266 H 506.196 -4.35757 -3.94195 0
M  V30 5267 H 507.72 -3.86042 -4.73079 0
M  V30 5268 H 509.134 -5.01637 -2.77549 0
M  V30 5269 H 507.531 -5.57655 -2.21677 0
M  V30 5270 H 508.601 -4.7253 -1.08829 0
M  V30 5271 N 509.944 0.496216 -1.49584 0
M  V30 5272 C 510.874 1.60576 -1.69521 0
M  V30 5273 C 511.855 1.61169 -0.543933 0
M  V30 5274 O 513.04 1.77834 -0.78031 0
M  V30 5275 C 510.17 2.99038 -1.76616 0
M  V30 5276 C 509.124 3.13312 -2.91581 0
M  V30 5277 C 508.45 4.53172 -2.83794 0
M  V30 5278 C 509.75 2.92886 -4.32452 0
M  V30 5279 H 511.444 1.44146 -2.62416 0
M  V30 5280 H 508.99 0.692024 -1.26282 0
M  V30 5281 H 510.943 3.76564 -1.8915 0
M  V30 5282 H 509.667 3.16568 -0.80324 0
M  V30 5283 H 508.326 2.38213 -2.78658 0
M  V30 5284 H 507.974 4.67585 -1.854 0
M  V30 5285 H 507.674 4.63662 -3.60958 0
M  V30 5286 H 509.198 5.32752 -2.98342 0
M  V30 5287 H 510.612 3.60178 -4.46032 0
M  V30 5288 H 509.009 3.14844 -5.10875 0
M  V30 5289 H 510.079 1.88966 -4.46565 0
M  V30 5290 N 511.423 1.38739 0.74761 0
M  V30 5291 C 512.333 1.38696 1.89211 0
M  V30 5292 C 513.349 0.283303 1.71678 0
M  V30 5293 O 514.525 0.522713 1.94498 0
M  V30 5294 C 511.59 1.21662 3.24653 0
M  V30 5295 C 510.651 2.41886 3.54669 0
M  V30 5296 C 509.884 2.25655 4.83648 0
M  V30 5297 O 510.107 1.25339 5.56459 0
M  V30 5298 O 509.041 3.14372 5.13277 0
M  V30 5299 H 512.867 2.35143 1.92202 0
M  V30 5300 H 510.452 1.19721 0.893708 0
M  V30 5301 H 512.334 1.14246 4.05618 0
M  V30 5302 H 511.009 0.283024 3.2246 0
M  V30 5303 H 509.916 2.54877 2.73841 0
M  V30 5304 H 511.249 3.33895 3.61628 0
M  V30 5305 N 512.901 -0.976442 1.23707 0
M  V30 5306 C 514.15 -1.71254 1.06559 0
M  V30 5307 C 514.463 -1.91528 -0.397024 0
M  V30 5308 O 515.669 -2.62625 -0.688518 0
M  V30 5309 C 514.125 -3.08207 1.8584 0
M  V30 5310 C 513.733 -2.95806 3.36456 0
M  V30 5311 C 515.477 -3.85749 1.77194 0
M  V30 5312 C 513.384 -4.28015 4.08114 0
M  V30 5313 H 512.314 -0.642171 0.395136 0
M  V30 5314 H 514.965 -1.08877 1.4771 0
M  V30 5315 H 513.347 -3.71363 1.37498 0
M  V30 5316 H 514.521 -2.41716 3.92314 0
M  V30 5317 H 512.836 -2.31736 3.45959 0
M  V30 5318 H 515.433 -4.83633 2.28041 0
M  V30 5319 H 515.776 -4.09752 0.735477 0
M  V30 5320 H 516.309 -3.29303 2.23169 0
M  V30 5321 H 513.048 -4.09208 5.12083 0
M  V30 5322 H 512.568 -4.81955 3.57043 0
M  V30 5323 H 514.247 -4.96681 4.14629 0
M  V30 5324 N 514.379 -1.04941 -1.1758 0
M  V30 5325 C 515.625 -0.759112 -1.88057 0
M  V30 5326 C 515.958 0.711918 -1.8068 0
M  V30 5327 O 515.233 1.52035 -1.21308 0
M  V30 5328 C 515.516 -1.237 -3.38187 0
M  V30 5329 C 515.369 -2.77078 -3.54327 0
M  V30 5330 C 516.688 -0.834014 -4.32125 0
M  V30 5331 H 513.807 -0.277237 -0.682868 0
M  V30 5332 H 516.449 -1.30296 -1.38286 0
M  V30 5333 H 514.599 -0.774337 -3.80705 0
M  V30 5334 H 516.271 -3.31449 -3.20842 0
M  V30 5335 H 514.514 -3.16477 -2.96689 0
M  V30 5336 H 515.185 -3.05577 -4.59703 0
M  V30 5337 H 517.661 -1.23228 -3.97434 0
M  V30 5338 H 516.537 -1.19603 -5.35711 0
M  V30 5339 H 516.798 0.262195 -4.41322 0
M  V30 5340 N 515.857 1.33968 -0.830081 0
M  V30 5341 C 516.804 2.29387 -0.255008 0
M  V30 5342 C 517.774 1.53923 0.624243 0
M  V30 5343 O 518.959 1.82262 0.564372 0
M  V30 5344 C 516.099 3.4034 0.571209 0
M  V30 5345 C 515.212 4.30729 -0.331083 0
M  V30 5346 C 514.347 5.2879 0.505389 0
M  V30 5347 C 513.386 6.10819 -0.395843 0
M  V30 5348 N 512.523 7.00948 0.401979 0
M  V30 5349 H 517.363 2.77972 -1.07404 0
M  V30 5350 H 514.9 1.36785 -0.541133 0
M  V30 5351 H 516.858 4.03361 1.06562 0
M  V30 5352 H 515.488 2.9297 1.35529 0
M  V30 5353 H 514.54 3.68507 -0.943759 0
M  V30 5354 H 515.852 4.88181 -1.02377 0
M  V30 5355 H 515.006 5.97297 1.06399 0
M  V30 5356 H 513.745 4.71894 1.23155 0
M  V30 5357 H 512.75 5.41238 -0.966529 0
M  V30 5358 H 513.975 6.69797 -1.12023 0
M  V30 5359 H 511.921 6.46512 1.11168 0
M  V30 5360 H 511.838 7.55643 -0.232167 0
M  V30 5361 H 513.106 7.73774 0.943102 0
M  V30 5362 N 517.335 0.585699 1.46312 0
M  V30 5363 C 518.282 -0.145835 2.30339 0
M  V30 5364 C 519.252 -0.881215 1.40797 0
M  V30 5365 O 520.437 -0.871293 1.69744 0
M  V30 5366 C 517.577 -1.15161 3.25318 0
M  V30 5367 C 516.69 -0.419367 4.2996 0
M  V30 5368 C 515.825 -1.41293 5.12064 0
M  V30 5369 C 514.864 -0.667261 6.08452 0
M  V30 5370 N 514.001 -1.60903 6.83414 0
M  V30 5371 H 518.841 0.576755 2.92365 0
M  V30 5372 H 516.378 0.296237 1.44086 0
M  V30 5373 H 518.336 -1.74763 3.78832 0
M  V30 5374 H 516.966 -1.84188 2.65094 0
M  V30 5375 H 516.018 0.291751 3.7928 0
M  V30 5376 H 517.33 0.163433 4.98532 0
M  V30 5377 H 516.484 -2.08167 5.6987 0
M  V30 5378 H 515.223 -2.02966 4.43459 0
M  V30 5379 H 514.228 0.0152356 5.49798 0
M  V30 5380 H 515.453 -0.0558817 6.79077 0
M  V30 5381 H 513.399 -2.21381 6.17516 0
M  V30 5382 H 513.316 -1.07911 7.48259 0
M  V30 5383 H 514.584 -2.26802 7.45775 0
M  V30 5384 N 518.813 -1.54241 0.323641 0
M  V30 5385 C 519.761 -2.25813 -0.557804 0
M  V30 5386 C 520.755 -1.27225 -1.11849 0
M  V30 5387 O 521.961 -1.45001 -1.06652 0
M  V30 5388 H 518.336 -0.72532 -0.198532 0
M  V30 5389 H 520.307 -2.98322 0.0681112 0
M  V30 5390 C 519.056 -3.02913 -1.70701 0
M  V30 5391 H 518.379 -3.78593 -1.28482 0
M  V30 5392 H 519.819 -3.56238 -2.29935 0
M  V30 5393 C 518.278 -2.11217 -2.62467 0
M  V30 5394 O 518.808 -1.69508 -3.64184 0
M  V30 5395 N 517.014 -1.76704 -2.30703 0
M  V30 5396 H 516.561 -2.1082 -1.48029 0
M  V30 5397 H 516.519 -1.15631 -2.92364 0
M  V30 5398 N 520.291 -0.0518155 -1.57515 0
M  V30 5399 C 521.538 0.621823 -1.92716 0
M  V30 5400 C 521.866 1.70813 -0.930229 0
M  V30 5401 O 521.121 1.95616 0.0573708 0
M  V30 5402 C 521.42 1.25607 -3.34601 0
M  V30 5403 C 521.086 0.297901 -4.49915 0
M  V30 5404 C 519.748 0.034243 -4.81188 0
M  V30 5405 C 522.1 -0.358738 -5.19964 0
M  V30 5406 C 519.428 -0.893479 -5.79857 0
M  V30 5407 C 521.78 -1.27466 -6.19625 0
M  V30 5408 C 520.444 -1.54698 -6.49326 0
M  V30 5409 H 519.714 0.227541 -0.705199 0
M  V30 5410 H 522.361 -0.118432 -1.91133 0
M  V30 5411 H 520.666 2.07161 -3.32553 0
M  V30 5412 H 522.363 1.78424 -3.59118 0
M  V30 5413 H 518.953 0.513581 -4.25512 0
M  V30 5414 H 523.137 -0.168133 -4.96015 0
M  V30 5415 H 518.393 -1.11193 -6.01204 0
M  V30 5416 H 522.567 -1.78953 -6.73015 0
M  V30 5417 H 520.194 -2.26748 -7.25596 0
M  V30 5418 N 521.769 1.56035 0.221574 0
M  V30 5419 C 523.046 1.69837 0.970301 0
M  V30 5420 C 523.426 0.599065 2.02421 0
M  V30 5421 O 522.774 -0.393929 2.25079 0
M  V30 5422 C 522.984 3.11148 1.58076 0
M  V30 5423 C 524.332 3.70555 2.07302 0
M  V30 5424 O 525.356 3.14109 1.6797 0
M  V30 5425 O 524.215 4.69562 2.79596 0
M  V30 5426 H 521.309 0.691727 0.453257 0
M  V30 5427 H 523.855 1.68353 0.213358 0
M  V30 5428 H 522.627 3.82617 0.819759 0
M  V30 5429 H 522.25 3.16749 2.40324 0
M  V30 5430 N 523.247 -0.488276 1.49845 0
M  V30 5431 C 524.177 -1.59675 1.70371 0
M  V30 5432 C 525.158 -1.60878 0.552473 0
M  V30 5433 O 526.343 -1.77417 0.78973 0
M  V30 5434 C 523.473 -2.98098 1.782 0
M  V30 5435 C 522.427 -3.11761 2.93239 0
M  V30 5436 C 521.753 -4.51661 2.86193 0
M  V30 5437 C 523.053 -2.90589 4.33999 0
M  V30 5438 H 524.747 -1.42752 2.63177 0
M  V30 5439 H 522.293 -0.685317 1.26647 0
M  V30 5440 H 524.246 -3.75555 1.91144 0
M  V30 5441 H 522.97 -3.16138 0.820018 0
M  V30 5442 H 521.629 -2.36732 2.79917 0
M  V30 5443 H 521.277 -4.66595 1.87877 0
M  V30 5444 H 520.977 -4.61742 3.63412 0
M  V30 5445 H 522.501 -5.31162 3.01163 0
M  V30 5446 H 523.915 -3.57807 4.47936 0
M  V30 5447 H 522.312 -3.1213 5.12538 0
M  V30 5448 H 523.382 -1.86595 4.4756 0
M  V30 5449 N 524.725 -1.39134 -0.740242 0
M  V30 5450 C 526.141 -1.20623 -1.0451 0
M  V30 5451 C 526.341 -0.0641651 -2.01398 0
M  V30 5452 O 525.397 0.585843 -2.4561 0
M  V30 5453 C 526.71 -2.53815 -1.6124 0
M  V30 5454 C 528.258 -2.60615 -1.73346 0
M  V30 5455 C 528.733 -3.94015 -2.33486 0
M  V30 5456 N 530.224 -3.95627 -2.40902 0
M  V30 5457 C 530.959 -4.95616 -2.88361 0
M  V30 5458 N 530.455 -6.06003 -3.35756 0
M  V30 5459 N 532.248 -4.82998 -2.87523 0
M  V30 5460 H 524.399 -2.12176 -0.0975576 0
M  V30 5461 H 526.662 -0.942066 -0.105904 0
M  V30 5462 H 526.368 -3.37911 -0.975144 0
M  V30 5463 H 526.242 -2.73162 -2.6012 0
M  V30 5464 H 528.629 -1.76906 -2.36195 0
M  V30 5465 H 528.71 -2.45123 -0.731336 0
M  V30 5466 H 528.354 -4.78153 -1.71267 0
M  V30 5467 H 528.284 -4.06825 -3.34366 0
M  V30 5468 H 530.775 -3.15903 -2.07398 0
M  V30 5469 H 531.088 -6.78215 -3.70464 0
M  V30 5470 H 529.433 -6.09604 -3.33778 0
M  V30 5471 H 532.624 -3.95866 -2.49816 0
M  V30 5472 H 532.797 -5.61072 -3.24196 0
M  V30 5473 N 526.204 0.969867 -1.24223 0
M  V30 5474 C 527.615 1.52717 -1.07399 0
M  V30 5475 C 527.966 1.92956 0.355298 0
M  V30 5476 O 527.091 1.77112 1.2434 0
M  V30 5477 C 527.686 2.77521 -1.94339 0
M  V30 5478 C 526.245 3.29615 -1.81744 0
M  V30 5479 C 525.392 2.02537 -1.89405 0
M  V30 5480 H 528.343 0.788399 -1.37732 0
M  V30 5481 H 528.364 3.50773 -1.47439 0
M  V30 5482 H 527.876 2.48203 -2.98357 0
M  V30 5483 H 525.977 3.63789 -0.805505 0
M  V30 5484 H 526.09 3.98661 -2.65718 0
M  V30 5485 H 524.454 2.17151 -1.33108 0
M  V30 5486 H 525.237 1.75587 -2.94999 0
M  V30 5487 N 527.682 1.05563 1.17022 0
M  V30 5488 C 528.93 0.76642 1.87004 0
M  V30 5489 C 529.251 -0.708854 1.8166 0
M  V30 5490 O 528.521 -1.51242 1.2451 0
M  V30 5491 H 527.101 0.280516 0.692329 0
M  V30 5492 H 529.763 1.33557 1.41945 0
M  V30 5493 H 528.859 1.08472 2.92644 0
M  V30 5494 N 529.16 -1.33526 0.837174 0
M  V30 5495 C 530.406 -1.9813 0.432704 0
M  V30 5496 C 530.739 -1.66168 -1.00508 0
M  V30 5497 O 530.014 -0.94069 -1.70239 0
M  V30 5498 C 530.297 -3.54151 0.651834 0
M  V30 5499 C 530.15 -3.95806 2.13676 0
M  V30 5500 C 531.469 -4.39993 0.0968937 0
M  V30 5501 H 528.588 -0.719713 0.15869 0
M  V30 5502 H 531.23 -1.58193 1.05237 0
M  V30 5503 H 529.38 -3.88301 0.124369 0
M  V30 5504 H 531.052 -3.71921 2.72896 0
M  V30 5505 H 529.295 -3.45599 2.62191 0
M  V30 5506 H 529.966 -5.0447 2.24084 0
M  V30 5507 H 532.442 -4.12479 0.547733 0
M  V30 5508 H 531.318 -5.48186 0.279917 0
M  V30 5509 H 531.579 -4.3066 -0.9992 0
M  V30 5510 N 530.638 -0.59345 -1.46 0
M  V30 5511 C 531.887 -0.0808084 -2.01538 0
M  V30 5512 C 532.2 1.29112 -1.46934 0
M  V30 5513 O 533.406 1.8957 -1.94359 0
M  V30 5514 C 531.862 -0.0938311 -3.59778 0
M  V30 5515 C 531.47 -1.46474 -4.23379 0
M  V30 5516 C 533.214 0.364306 -4.22934 0
M  V30 5517 C 531.121 -1.4349 -5.73729 0
M  V30 5518 H 530.051 -0.0264407 -0.753536 0
M  V30 5519 H 532.702 -0.746689 -1.67621 0
M  V30 5520 H 531.084 0.638427 -3.9082 0
M  V30 5521 H 532.258 -2.21758 -4.03931 0
M  V30 5522 H 530.573 -1.86379 -3.7236 0
M  V30 5523 H 533.17 0.405584 -5.3316 0
M  V30 5524 H 533.513 1.38409 -3.92618 0
M  V30 5525 H 534.046 -0.31423 -3.96557 0
M  V30 5526 H 530.785 -2.43184 -6.08722 0
M  V30 5527 H 530.305 -0.724431 -5.95409 0
M  V30 5528 H 531.984 -1.15243 -6.36654 0
M  V30 5529 N 532.116 1.54067 -0.331816 0
M  V30 5530 C 533.362 2.01012 0.268667 0
M  V30 5531 C 533.695 1.2195 1.51136 0
M  V30 5532 O 532.97 0.303972 1.9211 0
M  V30 5533 C 533.253 3.55158 0.59456 0
M  V30 5534 C 533.106 4.4494 -0.659409 0
M  V30 5535 C 534.425 4.16939 1.4089 0
M  V30 5536 H 531.544 0.730698 0.0961756 0
M  V30 5537 H 534.186 1.84593 -0.450031 0
M  V30 5538 H 532.336 3.6928 1.20685 0
M  V30 5539 H 534.008 4.42675 -1.29756 0
M  V30 5540 H 532.251 4.1428 -1.28665 0
M  V30 5541 H 532.922 5.50643 -0.386804 0
M  V30 5542 H 535.398 4.06443 0.891272 0
M  V30 5543 H 534.274 5.24889 1.60569 0
M  V30 5544 H 534.535 3.70798 2.40752 0
M  V30 5545 N 533.594 0.0601682 1.57485 0
M  V30 5546 C 535.01 -0.296422 1.56823 0
M  V30 5547 C 535.21 -1.70831 1.0686 0
M  V30 5548 O 534.266 -2.4174 0.729245 0
M  V30 5549 C 535.579 -0.116681 3.00474 0
M  V30 5550 C 537.127 -0.187103 3.1244 0
M  V30 5551 C 537.602 -0.035783 4.57986 0
M  V30 5552 N 539.093 -0.0917676 4.63109 0
M  V30 5553 C 539.828 0.00107251 5.734 0
M  V30 5554 N 539.324 0.146773 6.92645 0
M  V30 5555 N 541.117 -0.0551577 5.62073 0
M  V30 5556 H 533.268 0.983055 1.88281 0
M  V30 5557 H 535.531 0.382386 0.867459 0
M  V30 5558 H 535.237 0.85712 3.41096 0
M  V30 5559 H 535.111 -0.873929 3.66936 0
M  V30 5560 H 537.498 -1.15138 2.71712 0
M  V30 5561 H 537.579 0.601052 2.48638 0
M  V30 5562 H 537.223 0.925212 4.99402 0
M  V30 5563 H 537.153 -0.843196 5.19806 0
M  V30 5564 H 539.644 -0.203261 3.77353 0
M  V30 5565 H 539.957 0.210076 7.72514 0
M  V30 5566 H 538.302 0.181979 6.94762 0
M  V30 5567 H 541.493 -0.167605 4.678 0
M  V30 5568 H 541.666 0.020652 6.47997 0
M  V30 5569 N 535.072 -1.5615 -0.213296 0
M  V30 5570 C 536.349 -1.70349 -0.961281 0
M  V30 5571 C 536.729 -0.609791 -2.02101 0
M  V30 5572 O 536.077 0.381987 -2.25285 0
M  V30 5573 C 536.287 -3.11982 -1.56424 0
M  V30 5574 C 537.635 -3.71649 -2.05334 0
M  V30 5575 O 538.659 -3.14995 -1.66302 0
M  V30 5576 O 537.518 -4.71038 -2.77102 0
M  V30 5577 H 534.612 -0.694121 -0.449582 0
M  V30 5578 H 537.158 -1.68464 -0.204426 0
M  V30 5579 H 535.93 -3.83046 -0.799457 0
M  V30 5580 H 535.553 -3.18019 -2.38641 0
M  V30 5581 N 536.55 0.480323 -1.50102 0
M  V30 5582 C 537.48 1.58769 -1.71215 0
M  V30 5583 C 538.461 1.60583 -0.560997 0
M  V30 5584 O 539.646 1.76996 -0.799127 0
M  V30 5585 C 536.776 2.97148 -1.79778 0
M  V30 5586 C 535.73 3.10201 -2.94888 0
M  V30 5587 C 535.056 4.50137 -2.88584 0
M  V30 5588 C 536.356 2.88283 -4.35534 0
M  V30 5589 H 538.05 1.41354 -2.6393 0
M  V30 5590 H 535.596 0.678591 -1.27008 0
M  V30 5591 H 537.549 3.74536 -1.93133 0
M  V30 5592 H 536.273 3.15699 -0.836772 0
M  V30 5593 H 534.932 2.35244 -2.81169 0
M  V30 5594 H 534.58 4.65593 -1.90349 0
M  V30 5595 H 534.28 4.59808 -3.65856 0
M  V30 5596 H 535.804 5.29558 -3.03976 0
M  V30 5597 H 537.218 3.55427 -4.49827 0
M  V30 5598 H 535.615 3.09408 -5.14186 0
M  V30 5599 H 536.685 1.84219 -4.48544 0
M  V30 5600 N 538.028 1.39524 0.732853 0
M  V30 5601 C 539.305 1.27373 1.48444 0
M  V30 5602 C 539.685 -0.115725 2.10783 0
M  V30 5603 O 539.033 -1.12713 1.98766 0
M  V30 5604 C 539.243 2.39966 2.53412 0
M  V30 5605 C 540.591 2.79384 3.19733 0
M  V30 5606 O 541.615 2.39431 2.63725 0
M  V30 5607 O 540.474 3.48353 4.21085 0
M  V30 5608 H 537.568 0.499272 0.659285 0
M  V30 5609 H 540.114 1.51403 0.766496 0
M  V30 5610 H 538.886 3.32845 2.05742 0
M  V30 5611 H 538.509 2.17612 3.32762 0
M  V30 5612 N 539.506 -0.963266 1.24736 0
M  V30 5613 C 540.436 -2.07628 1.06832 0
M  V30 5614 C 541.417 -1.70088 -0.0200566 0
M  V30 5615 O 542.602 -1.93636 0.147854 0
M  V30 5616 C 539.732 -3.40636 0.677069 0
M  V30 5617 C 538.686 -3.9215 1.71471 0
M  V30 5618 C 538.012 -5.21553 1.1784 0
M  V30 5619 C 539.312 -4.19493 3.11164 0
M  V30 5620 H 541.006 -2.22864 1.9993 0
M  V30 5621 H 538.552 -1.07093 0.96266 0
M  V30 5622 H 540.505 -4.17941 0.538792 0
M  V30 5623 H 539.229 -3.25313 -0.289612 0
M  V30 5624 H 537.888 -3.17005 1.84128 0
M  V30 5625 H 537.536 -5.02593 0.202195 0
M  V30 5626 H 537.236 -5.56988 1.87185 0
M  V30 5627 H 538.76 -6.01463 1.05233 0
M  V30 5628 H 540.174 -4.87487 3.01711 0
M  V30 5629 H 538.571 -4.66165 3.77902 0
M  V30 5630 H 539.641 -3.26097 3.58871 0
M  V30 5631 N 540.985 -1.06182 -1.16461 0
M  V30 5632 C 541.932 -0.671613 -2.20812 0
M  V30 5633 C 542.902 0.331186 -1.62765 0
M  V30 5634 O 544.087 0.22033 -1.89524 0
M  V30 5635 C 541.227 -0.063029 -3.45042 0
M  V30 5636 C 540.34 -1.11587 -4.1734 0
M  V30 5637 C 539.475 -0.473546 -5.29085 0
M  V30 5638 C 538.514 -1.51 -5.93182 0
M  V30 5639 N 537.651 -0.891118 -6.96422 0
M  V30 5640 H 542.491 -1.56589 -2.53542 0
M  V30 5641 H 540.028 -0.782951 -1.24532 0
M  V30 5642 H 541.986 0.307344 -4.16066 0
M  V30 5643 H 540.616 0.794663 -3.12866 0
M  V30 5644 H 539.668 -1.60396 -3.44931 0
M  V30 5645 H 540.98 -1.90221 -4.61104 0
M  V30 5646 H 540.134 -0.0501432 -6.06679 0
M  V30 5647 H 538.873 0.344687 -4.8648 0
M  V30 5648 H 537.878 -1.94331 -5.14311 0
M  V30 5649 H 539.103 -2.33031 -6.37866 0
M  V30 5650 H 537.049 -0.0935753 -6.55933 0
M  V30 5651 H 536.966 -1.61486 -7.38551 0
M  V30 5652 H 538.234 -0.492822 -7.77941 0
M  V30 5653 N 542.463 1.3308 -0.844243 0
M  V30 5654 C 543.41 2.29104 -0.279323 0
M  V30 5655 C 544.38 1.54577 0.607882 0
M  V30 5656 O 545.565 1.8285 0.545009 0
M  V30 5657 C 542.705 3.40927 0.53508 0
M  V30 5658 C 541.818 4.30354 -0.376749 0
M  V30 5659 C 540.953 5.29297 0.449276 0
M  V30 5660 C 539.992 6.10365 -0.460606 0
M  V30 5661 N 539.129 7.01335 0.327612 0
M  V30 5662 H 543.969 2.76817 -1.10346 0
M  V30 5663 H 541.506 1.36203 -0.555611 0
M  V30 5664 H 543.464 4.04469 1.02278 0
M  V30 5665 H 542.094 2.94391 1.32414 0
M  V30 5666 H 541.146 3.67485 -0.982791 0
M  V30 5667 H 542.458 4.87067 -1.07549 0
M  V30 5668 H 541.612 5.98392 1.00058 0
M  V30 5669 H 540.351 4.73174 1.18143 0
M  V30 5670 H 539.356 5.40182 -1.02388 0
M  V30 5671 H 540.581 6.68571 -1.1912 0
M  V30 5672 H 538.527 6.47655 1.04305 0
M  V30 5673 H 538.444 7.55355 -0.3123 0
M  V30 5674 H 539.712 7.74731 0.86098 0
M  V30 5675 N 543.941 0.601185 1.45683 0
M  V30 5676 C 545.352 0.179659 1.85834 0
M  V30 5677 C 545.703 -1.26189 1.50236 0
M  V30 5678 O 544.828 -1.95587 0.925987 0
M  V30 5679 C 545.423 0.319277 3.37292 0
M  V30 5680 C 543.982 -0.0475092 3.7637 0
M  V30 5681 C 543.129 0.646692 2.69654 0
M  V30 5682 H 546.08 0.808268 1.36575 0
M  V30 5683 H 546.101 -0.4503 3.77826 0
M  V30 5684 H 545.613 1.36855 3.6317 0
M  V30 5685 H 543.714 -1.0962 3.5611 0
M  V30 5686 H 543.827 0.34168 4.7788 0
M  V30 5687 H 542.191 0.0849971 2.54558 0
M  V30 5688 H 542.974 1.69797 2.98369 0
M  V30 5689 N 545.419 -1.53889 0.339982 0
M  V30 5690 C 546.668 -2.00035 -0.258604 0
M  V30 5691 C 546.981 -1.23179 -1.51942 0
M  V30 5692 O 548.187 -1.59784 -2.19503 0
M  V30 5693 C 546.643 -3.56249 -0.511359 0
M  V30 5694 C 546.251 -4.41957 0.733349 0
M  V30 5695 C 547.995 -4.1082 -1.069 0
M  V30 5696 C 545.902 -5.89673 0.451591 0
M  V30 5697 H 544.832 -0.747284 -0.10041 0
M  V30 5698 H 547.483 -1.77776 0.454758 0
M  V30 5699 H 545.865 -3.7456 -1.28533 0
M  V30 5700 H 547.039 -4.35421 1.50815 0
M  V30 5701 H 545.354 -3.9836 1.21237 0
M  V30 5702 H 547.951 -5.18789 -1.2947 0
M  V30 5703 H 548.294 -3.63817 -2.02343 0
M  V30 5704 H 548.827 -3.96205 -0.355817 0
M  V30 5705 H 545.566 -6.40903 1.37565 0
M  V30 5706 H 545.086 -5.99122 -0.285193 0
M  V30 5707 H 546.765 -6.46965 0.0675067 0
M  V30 5708 N 546.897 -0.0685191 -1.57451 0
M  V30 5709 C 548.127 0.609577 -1.97402 0
M  V30 5710 C 548.535 1.63882 -0.945489 0
M  V30 5711 O 547.878 1.8354 0.0766052 0
M  V30 5712 C 547.94 1.3385 -3.33653 0
M  V30 5713 C 547.604 0.463103 -4.54648 0
M  V30 5714 C 548.601 -0.277964 -5.19156 0
M  V30 5715 C 546.286 0.388941 -5.00792 0
M  V30 5716 C 548.28 -1.08145 -6.28159 0
M  V30 5717 C 545.967 -0.418217 -6.09667 0
M  V30 5718 C 546.965 -1.15208 -6.73213 0
M  V30 5719 O 546.653 -1.94594 -7.79993 0
M  V30 5720 H 546.385 0.170197 -0.654224 0
M  V30 5721 H 548.939 -0.13647 -2.04946 0
M  V30 5722 H 547.169 2.13055 -3.22714 0
M  V30 5723 H 548.858 1.90851 -3.58233 0
M  V30 5724 H 549.624 -0.230241 -4.84453 0
M  V30 5725 H 545.503 0.949769 -4.5111 0
M  V30 5726 H 549.047 -1.65476 -6.7769 0
M  V30 5727 H 544.944 -0.467515 -6.43805 0
M  V30 5728 H 545.712 -1.8699 -7.96854 0
M  V30 5729 N 548.375 1.56261 0.205012 0
M  V30 5730 C 549.307 1.90266 1.27795 0
M  V30 5731 C 550.32 0.792397 1.42214 0
M  V30 5732 O 551.509 1.07077 1.42817 0
M  V30 5733 C 548.609 2.11074 2.65143 0
M  V30 5734 C 547.782 3.42176 2.7246 0
M  V30 5735 C 546.841 3.52216 3.90936 0
M  V30 5736 O 545.867 4.25119 3.78501 0
M  V30 5737 N 547.069 2.84573 5.05963 0
M  V30 5738 H 549.834 2.82896 0.989434 0
M  V30 5739 H 547.395 1.57008 0.394981 0
M  V30 5740 H 549.387 2.15089 3.4281 0
M  V30 5741 H 547.957 1.2499 2.86524 0
M  V30 5742 H 547.177 3.50116 1.81142 0
M  V30 5743 H 548.465 4.28509 2.74331 0
M  V30 5744 H 547.863 2.25152 5.18963 0
M  V30 5745 H 546.42 2.94228 5.81613 0
M  V30 5746 N 549.853 -0.472356 1.50355 0
M  V30 5747 C 551.269 -0.806001 1.37753 0
M  V30 5748 C 551.469 -1.968 0.432649 0
M  V30 5749 O 550.525 -2.52189 -0.12519 0
M  V30 5750 C 551.838 -1.11926 2.79093 0
M  V30 5751 C 553.386 -1.22579 2.87999 0
M  V30 5752 C 553.861 -1.57218 4.3017 0
M  V30 5753 N 555.352 -1.64212 4.33115 0
M  V30 5754 C 556.087 -1.92517 5.40116 0
M  V30 5755 N 555.583 -2.1885 6.57325 0
M  V30 5756 N 557.376 -1.94008 5.27558 0
M  V30 5757 H 549.527 0.293451 2.10363 0
M  V30 5758 H 551.79 0.0687672 0.945503 0
M  V30 5759 H 551.496 -0.338504 3.50067 0
M  V30 5760 H 551.37 -2.05577 3.16256 0
M  V30 5761 H 553.757 -1.99722 2.17245 0
M  V30 5762 H 553.838 -0.269107 2.54381 0
M  V30 5763 H 553.482 -0.806154 5.01461 0
M  V30 5764 H 553.412 -2.54034 4.61275 0
M  V30 5765 H 555.903 -1.45906 3.48597 0
M  V30 5766 H 556.216 -2.39718 7.3468 0
M  V30 5767 H 554.561 -2.16245 6.60502 0
M  V30 5768 H 557.752 -1.72931 4.34986 0
M  V30 5769 H 557.925 -2.15731 6.11035 0
M  V30 5770 N 551.331 -1.39911 -0.725443 0
M  V30 5771 C 552.559 -1.40949 -1.51463 0
M  V30 5772 C 552.974 -0.0065242 -1.88799 0
M  V30 5773 O 552.331 0.967163 -1.54765 0
M  V30 5774 C 552.382 -2.29119 -2.79619 0
M  V30 5775 O 552.103 -3.63952 -2.43866 0
M  V30 5776 C 553.604 -2.38642 -3.73584 0
M  V30 5777 H 550.824 -0.481091 -0.467752 0
M  V30 5778 H 553.368 -1.83843 -0.895651 0
M  V30 5779 H 551.523 -1.89612 -3.37826 0
M  V30 5780 H 551.937 -4.10677 -3.26258 0
M  V30 5781 H 553.411 -3.04563 -4.60375 0
M  V30 5782 H 553.888 -1.40846 -4.16004 0
M  V30 5783 H 554.494 -2.78659 -3.21293 0
M  V30 5784 N 552.809 0.956637 -1.25245 0
M  V30 5785 C 553.772 2.03457 -1.05537 0
M  V30 5786 C 554.772 1.60798 -0.00886317 0
M  V30 5787 O 555.962 1.72384 -0.250865 0
M  V30 5788 C 553.094 3.35543 -0.601965 0
M  V30 5789 H 554.287 2.22372 -2.01223 0
M  V30 5790 H 551.84 1.13344 -1.07623 0
M  V30 5791 H 552.575 3.22323 0.357584 0
M  V30 5792 H 552.36 3.67854 -1.35743 0
M  V30 5793 H 553.85 4.14769 -0.485454 0
M  V30 5794 N 554.287 1.06798 1.15896 0
M  V30 5795 C 555.25 0.687328 2.18651 0
M  V30 5796 C 556.25 -0.269559 1.58524 0
M  V30 5797 O 557.44 -0.0512627 1.74125 0
M  V30 5798 C 554.572 0.0121642 3.40898 0
M  V30 5799 H 555.765 1.59701 2.53842 0
M  V30 5800 H 553.318 0.863828 1.3026 0
M  V30 5801 H 554.053 -0.910025 3.1127 0
M  V30 5802 H 553.838 0.700309 3.85795 0
M  V30 5803 H 555.328 -0.239703 4.16911 0
M  V30 5804 N 555.766 -1.3263 0.851289 0
M  V30 5805 C 556.996 -2.01271 0.466222 0
M  V30 5806 C 557.404 -1.64156 -0.940714 0
M  V30 5807 O 556.747 -0.857109 -1.62479 0
M  V30 5808 C 556.809 -3.55695 0.521672 0
M  V30 5809 C 556.473 -4.16227 1.88691 0
M  V30 5810 C 557.47 -4.34699 2.85189 0
M  V30 5811 C 555.155 -4.52377 2.18313 0
M  V30 5812 C 557.149 -4.88484 4.09465 0
M  V30 5813 C 554.836 -5.05868 3.42843 0
M  V30 5814 C 555.834 -5.23869 4.38235 0
M  V30 5815 O 555.522 -5.76218 5.6056 0
M  V30 5816 H 555.254 -0.651034 0.18202 0
M  V30 5817 H 557.808 -1.7026 1.14894 0
M  V30 5818 H 556.038 -3.86086 -0.217888 0
M  V30 5819 H 557.727 -4.05613 0.152682 0
M  V30 5820 H 558.493 -4.07107 2.63607 0
M  V30 5821 H 554.372 -4.37652 1.44851 0
M  V30 5822 H 557.916 -5.02451 4.83931 0
M  V30 5823 H 553.813 -5.32891 3.64277 0
M  V30 5824 H 554.581 -5.94616 5.62471 0
M  V30 5825 N 557.244 -0.608902 -1.45362 0
M  V30 5826 C 558.492 -0.104401 -2.0183 0
M  V30 5827 C 558.813 1.27007 -1.47967 0
M  V30 5828 O 558.083 1.83924 -0.674455 0
M  V30 5829 H 556.663 -0.0356042 -0.746151 0
M  V30 5830 H 559.325 -0.790596 -1.78145 0
M  V30 5831 H 558.421 -0.0551793 -3.12051 0
M  V30 5832 N 558.722 1.53707 -0.348139 0
M  V30 5833 C 559.672 2.2193 0.522592 0
M  V30 5834 C 560.656 1.20831 1.06248 0
M  V30 5835 O 561.848 1.46357 0.995415 0
M  V30 5836 C 558.977 2.99904 1.6707 0
M  V30 5837 C 558.063 4.08364 1.14454 0
M  V30 5838 N 558.454 5.04656 0.339958 0
M  V30 5839 C 556.752 4.22757 1.421 0
M  V30 5840 C 557.453 5.81675 0.0538806 0
M  V30 5841 N 556.429 5.39739 0.646776 0
M  V30 5842 H 560.231 2.93733 -0.099135 0
M  V30 5843 H 557.745 1.61656 -0.15524 0
M  V30 5844 H 559.742 3.47284 2.30651 0
M  V30 5845 H 558.402 2.29629 2.29566 0
M  V30 5846 H 559.413 5.17896 -0.0193552 0
M  V30 5847 H 556.09 3.63704 2.05002 0
M  V30 5848 H 557.48 6.69256 -0.595443 0
M  V30 5849 N 560.2 0.0768682 1.57412 0
M  V30 5850 C 561.447 -0.591085 1.93681 0
M  V30 5851 C 561.775 -1.69311 0.957286 0
M  V30 5852 O 561.03 -1.95682 -0.0262428 0
M  V30 5853 C 561.329 -1.20268 3.36557 0
M  V30 5854 C 560.995 -0.226286 4.50332 0
M  V30 5855 C 559.657 0.0423142 4.81181 0
M  V30 5856 C 562.009 0.441415 5.19327 0
M  V30 5857 C 559.337 0.985616 5.78362 0
M  V30 5858 C 561.689 1.37307 6.17519 0
M  V30 5859 C 560.353 1.65009 6.46783 0
M  V30 5860 H 559.623 -0.216293 0.70873 0
M  V30 5861 H 562.27 0.148824 1.90921 0
M  V30 5862 H 560.575 -2.01844 3.35807 0
M  V30 5863 H 562.272 -1.72688 3.61911 0
M  V30 5864 H 558.862 -0.445821 4.26275 0
M  V30 5865 H 563.046 0.247023 4.95685 0
M  V30 5866 H 558.302 1.20743 5.99359 0
M  V30 5867 H 562.476 1.89637 6.70083 0
M  V30 5868 H 560.103 2.38263 7.21897 0
M  V30 5869 N 561.678 -1.56367 -0.196722 0
M  V30 5870 C 562.926 -1.80172 -0.915554 0
M  V30 5871 C 563.247 -0.649649 -1.8386 0
M  V30 5872 O 562.517 0.332111 -1.93064 0
M  V30 5873 H 561.097 -0.664592 -0.341067 0
M  V30 5874 H 563.759 -1.93844 -0.202622 0
M  V30 5875 H 562.855 -2.7327 -1.50764 0
M  V30 5876 N 563.156 0.464375 -1.50603 0
M  V30 5877 C 564.572 0.798684 -1.38178 0
M  V30 5878 C 564.772 1.96568 -0.44308 0
M  V30 5879 O 563.828 2.52252 0.111814 0
M  V30 5880 C 565.141 1.10444 -2.79683 0
M  V30 5881 C 566.689 1.2105 -2.88645 0
M  V30 5882 C 567.164 1.54934 -4.30998 0
M  V30 5883 N 568.655 1.61913 -4.3398 0
M  V30 5884 C 569.39 1.8965 -5.41129 0
M  V30 5885 N 568.886 2.15361 -6.58477 0
M  V30 5886 N 570.679 1.91207 -5.28579 0
M  V30 5887 H 562.83 -0.304603 -2.10204 0
M  V30 5888 H 565.093 -0.0737804 -0.945125 0
M  V30 5889 H 564.799 0.319934 -3.50242 0
M  V30 5890 H 564.673 2.03896 -3.17342 0
M  V30 5891 H 567.06 1.98567 -2.18301 0
M  V30 5892 H 567.141 0.255613 -2.5452 0
M  V30 5893 H 566.785 0.779549 -5.01882 0
M  V30 5894 H 566.715 2.51584 -4.62615 0
M  V30 5895 H 569.206 1.44055 -3.49366 0
M  V30 5896 H 569.519 2.35818 -7.35941 0
M  V30 5897 H 567.864 2.1274 -6.6164 0
M  V30 5898 H 571.055 1.70622 -4.35897 0
M  V30 5899 H 571.228 2.12488 -6.12171 0
M  V30 5900 N 564.634 1.40294 0.718013 0
M  V30 5901 C 565.911 1.2894 1.47084 0
M  V30 5902 C 566.291 -0.0933625 2.10893 0
M  V30 5903 O 565.639 -1.10598 1.99951 0
M  V30 5904 C 565.849 2.4264 2.50852 0
M  V30 5905 C 567.197 2.8276 3.16752 0
M  V30 5906 O 568.221 2.42215 2.61171 0
M  V30 5907 O 567.08 3.528 4.17366 0
M  V30 5908 H 564.174 0.506236 0.653952 0
M  V30 5909 H 566.72 1.52208 0.750394 0
M  V30 5910 H 565.492 3.35009 2.022 0
M  V30 5911 H 565.115 2.21129 3.30435 0
M  V30 5912 N 566.112 -0.949982 1.2575 0
M  V30 5913 C 567.337 -1.73503 1.13628 0
M  V30 5914 C 567.762 -1.85601 -0.30559 0
M  V30 5915 O 567.12 -1.33984 -1.22139 0
M  V30 5916 C 567.168 -3.1243 1.80055 0
M  V30 5917 O 566.272 -3.97916 1.08336 0
M  V30 5918 H 565.613 -0.532665 0.396439 0
M  V30 5919 H 568.143 -1.19043 1.66403 0
M  V30 5920 H 568.153 -3.62866 1.86527 0
M  V30 5921 H 566.828 -3.02941 2.84956 0
M  V30 5922 H 565.405 -3.56375 1.09777 0
M  V30 5923 N 567.59 -1.07411 -1.15328 0
M  V30 5924 C 568.837 -0.797649 -1.86128 0
M  V30 5925 C 569.165 0.676298 -1.82364 0
M  V30 5926 O 568.42 1.51223 -1.24218 0
M  V30 5927 C 568.719 -1.25191 -3.34757 0
M  V30 5928 C 568.385 -2.73191 -3.58716 0
M  V30 5929 C 567.047 -3.13616 -3.64964 0
M  V30 5930 C 569.399 -3.68718 -3.6837 0
M  V30 5931 C 566.727 -4.48383 -3.78377 0
M  V30 5932 C 569.079 -5.03248 -3.83306 0
M  V30 5933 C 567.743 -5.43293 -3.878 0
M  V30 5934 H 567.013 -0.29188 -0.681092 0
M  V30 5935 H 569.66 -1.34524 -1.36292 0
M  V30 5936 H 567.965 -0.623712 -3.86804 0
M  V30 5937 H 569.662 -1.01489 -3.87945 0
M  V30 5938 H 566.252 -2.40898 -3.54494 0
M  V30 5939 H 570.436 -3.38614 -3.62842 0
M  V30 5940 H 565.692 -4.78877 -3.80114 0
M  V30 5941 H 569.866 -5.77142 -3.89718 0
M  V30 5942 H 567.493 -6.47721 -3.97946 0
M  V30 5943 N 569.068 1.32177 -0.85831 0
M  V30 5944 C 570.479 1.79381 -0.517621 0
M  V30 5945 C 570.83 1.70841 0.964769 0
M  V30 5946 O 569.955 1.26917 1.75274 0
M  V30 5947 C 570.55 3.25706 -0.932801 0
M  V30 5948 C 569.109 3.70851 -0.643953 0
M  V30 5949 C 568.256 2.53208 -1.13054 0
M  V30 5950 H 571.207 1.19424 -1.04516 0
M  V30 5951 H 571.228 3.79673 -0.250674 0
M  V30 5952 H 570.74 3.31889 -2.01174 0
M  V30 5953 H 568.841 3.70178 0.424112 0
M  V30 5954 H 568.954 4.63495 -1.21281 0
M  V30 5955 H 567.318 2.48676 -0.550679 0
M  V30 5956 H 568.101 2.62143 -2.21666 0
M  V30 5957 N 570.547 0.616602 1.45037 0
M  V30 5958 C 571.793 0.123965 2.03022 0
M  V30 5959 C 572.148 -1.23508 1.47525 0
M  V30 5960 O 571.441 -1.80453 0.643981 0
M  V30 5961 C 571.635 0.0356829 3.57382 0
M  V30 5962 C 571.464 1.38462 4.27853 0
M  V30 5963 C 570.234 1.96766 4.65415 0
M  V30 5964 C 572.432 2.31536 4.59234 0
M  V30 5965 N 570.414 3.25046 5.20786 0
M  V30 5966 C 571.785 3.4442 5.15533 0
M  V30 5967 C 573.84 2.30796 4.41178 0
M  V30 5968 C 572.543 4.56742 5.55679 0
M  V30 5969 C 574.569 3.42171 4.82362 0
M  V30 5970 C 573.931 4.53778 5.38762 0
M  V30 5971 H 570.03 0.0889428 0.776925 0
M  V30 5972 H 572.614 0.816925 1.76733 0
M  V30 5973 H 570.785 -0.62652 3.83314 0
M  V30 5974 H 572.517 -0.464443 4.02026 0
M  V30 5975 H 569.272 1.4987 4.49261 0
M  V30 5976 H 569.696 3.90592 5.52962 0
M  V30 5977 H 574.338 1.45765 3.96878 0
M  V30 5978 H 572.056 5.42491 5.9894 0
M  V30 5979 H 575.642 3.42757 4.70116 0
M  V30 5980 H 574.522 5.38536 5.70043 0
M  V30 5981 N 572.025 -1.5352 0.356285 0
M  V30 5982 C 572.935 -2.29151 -0.502712 0
M  V30 5983 C 573.951 -1.34753 -1.1008 0
M  V30 5984 O 575.127 -1.67803 -1.11374 0
M  V30 5985 C 572.192 -3.05911 -1.63154 0
M  V30 5986 C 571.253 -4.15958 -1.06194 0
M  V30 5987 C 570.486 -4.8905 -2.13696 0
M  V30 5988 O 570.709 -4.61919 -3.34645 0
M  V30 5989 O 569.643 -5.75202 -1.77275 0
M  V30 5990 H 573.469 -3.03492 0.112466 0
M  V30 5991 H 571.054 -1.4891 0.120942 0
M  V30 5992 H 572.936 -3.53874 -2.28804 0
M  V30 5993 H 571.611 -2.34415 -2.23229 0
M  V30 5994 H 570.518 -3.7227 -0.369603 0
M  V30 5995 H 571.851 -4.89593 -0.505872 0
M  V30 5996 N 573.503 -0.0852151 -1.57369 0
M  V30 5997 C 574.749 0.581666 -1.94279 0
M  V30 5998 C 575.082 1.68444 -0.966446 0
M  V30 5999 O 574.357 1.945 0.00215277 0
M  V30 6000 C 574.64 1.14609 -3.41375 0
M  V30 6001 C 574.493 0.0490414 -4.49773 0
M  V30 6002 C 575.812 2.04751 -3.8957 0
M  V30 6003 H 572.931 0.209972 -0.706456 0
M  V30 6004 H 575.573 -0.153915 -1.89376 0
M  V30 6005 H 573.723 1.77297 -3.45685 0
M  V30 6006 H 575.395 -0.584721 -4.57579 0
M  V30 6007 H 573.638 -0.618638 -4.29366 0
M  V30 6008 H 574.309 0.484601 -5.49869 0
M  V30 6009 H 576.785 1.51981 -3.87351 0
M  V30 6010 H 575.661 2.41173 -4.93079 0
M  V30 6011 H 575.922 2.96107 -3.28288 0
M  V30 6012 N 574.981 1.5647 0.188427 0
M  V30 6013 C 576.392 1.70864 0.752494 0
M  V30 6014 C 576.743 0.692905 1.83557 0
M  V30 6015 O 575.868 -0.149307 2.15884 0
M  V30 6016 C 576.463 3.09789 1.37173 0
M  V30 6017 C 575.022 3.25925 1.88281 0
M  V30 6018 C 574.169 2.66817 0.755259 0
M  V30 6019 H 577.12 1.58657 -0.0367408 0
M  V30 6020 H 577.141 3.07489 2.24122 0
M  V30 6021 H 576.653 3.83693 0.583219 0
M  V30 6022 H 574.754 2.56948 2.6983 0
M  V30 6023 H 574.867 4.33498 2.04001 0
M  V30 6024 H 573.231 2.2617 1.17128 0
M  V30 6025 H 574.014 3.43294 -0.0211237 0
M  V30 6026 N 576.459 -0.456382 1.50847 0
M  V30 6027 C 577.406 -1.55249 1.70782 0
M  V30 6028 C 578.376 -1.56757 0.549231 0
M  V30 6029 O 579.561 -1.74061 0.7815 0
M  V30 6030 C 576.701 -2.93118 1.82143 0
M  V30 6031 C 575.814 -3.01285 3.09598 0
M  V30 6032 C 574.949 -4.30159 3.11667 0
M  V30 6033 C 573.988 -4.32124 4.33515 0
M  V30 6034 N 573.125 -5.52492 4.3324 0
M  V30 6035 H 577.965 -1.37555 2.64353 0
M  V30 6036 H 575.502 -0.668543 1.3103 0
M  V30 6037 H 577.46 -3.73088 1.86711 0
M  V30 6038 H 576.09 -3.09413 0.919978 0
M  V30 6039 H 575.142 -2.14096 3.14431 0
M  V30 6040 H 576.454 -2.98597 3.99551 0
M  V30 6041 H 575.608 -5.18489 3.15046 0
M  V30 6042 H 574.347 -4.35477 2.1957 0
M  V30 6043 H 573.352 -3.42189 4.30333 0
M  V30 6044 H 574.577 -4.28485 5.26856 0
M  V30 6045 H 572.523 -5.58567 3.44004 0
M  V30 6046 H 572.44 -5.51605 5.16979 0
M  V30 6047 H 573.708 -6.42906 4.40786 0
M  V30 6048 N 577.937 -1.40673 -0.710563 0
M  V30 6049 C 578.884 -1.41336 -1.82463 0
M  V30 6050 C 579.854 -0.269648 -1.63897 0
M  V30 6051 O 581.039 -0.468463 -1.8496 0
M  V30 6052 C 578.179 -1.28665 -3.20218 0
M  V30 6053 C 577.292 -2.52784 -3.5032 0
M  V30 6054 C 576.427 -2.32517 -4.77608 0
M  V30 6055 C 575.466 -3.52187 -5.0063 0
M  V30 6056 N 574.603 -3.31084 -6.19135 0
M  V30 6057 H 579.443 -2.36558 -1.8123 0
M  V30 6058 H 576.98 -1.17483 -0.885226 0
M  V30 6059 H 578.938 -1.19324 -3.99772 0
M  V30 6060 H 577.568 -0.370602 -3.20666 0
M  V30 6061 H 576.62 -2.72634 -2.65283 0
M  V30 6062 H 577.932 -3.41845 -3.63241 0
M  V30 6063 H 577.086 -2.20558 -5.65189 0
M  V30 6064 H 575.825 -1.40889 -4.66906 0
M  V30 6065 H 574.83 -3.64617 -4.11502 0
M  V30 6066 H 576.055 -4.44749 -5.13201 0
M  V30 6067 H 574.001 -2.42143 -6.09674 0
M  V30 6068 H 573.918 -4.13713 -6.32754 0
M  V30 6069 H 575.186 -3.22868 -7.0949 0
M  V30 6070 N 579.415 0.9433 -1.26252 0
M  V30 6071 C 580.345 2.05902 -1.10122 0
M  V30 6072 C 581.326 1.70099 -0.00700552 0
M  V30 6073 O 582.511 1.93377 -0.178641 0
M  V30 6074 C 579.641 3.39516 -0.731175 0
M  V30 6075 C 578.595 3.89372 -1.77688 0
M  V30 6076 C 577.921 5.19613 -1.26122 0
M  V30 6077 C 579.221 4.14489 -3.17799 0
M  V30 6078 H 580.915 2.19655 -2.03451 0
M  V30 6079 H 578.461 1.05548 -0.979576 0
M  V30 6080 H 580.414 4.17031 -0.605215 0
M  V30 6081 H 579.138 3.25733 0.23782 0
M  V30 6082 H 577.797 3.14036 -1.89148 0
M  V30 6083 H 577.445 5.02208 -0.282128 0
M  V30 6084 H 577.145 5.53939 -1.96023 0
M  V30 6085 H 578.669 5.99713 -1.14789 0
M  V30 6086 H 580.083 4.82625 -3.09428 0
M  V30 6087 H 578.48 4.60094 -3.85271 0
M  V30 6088 H 579.55 3.20347 -3.64014 0
M  V30 6089 N 580.893 1.08022 1.14757 0
M  V30 6090 C 581.84 0.706657 2.19716 0
M  V30 6091 C 582.81 -0.30525 1.63271 0
M  V30 6092 O 583.995 -0.19015 1.8985 0
M  V30 6093 C 581.135 0.117914 3.44898 0
M  V30 6094 C 580.248 1.18212 4.15512 0
M  V30 6095 C 579.383 0.557659 5.28265 0
M  V30 6096 C 578.422 1.60418 5.90705 0
M  V30 6097 N 577.559 1.0018 6.94916 0
M  V30 6098 H 582.399 1.60603 2.51019 0
M  V30 6099 H 579.936 0.802664 1.23271 0
M  V30 6100 H 581.894 -0.241112 4.16503 0
M  V30 6101 H 580.524 -0.744788 3.1409 0
M  V30 6102 H 579.576 1.65863 3.42335 0
M  V30 6103 H 580.888 1.97533 4.5802 0
M  V30 6104 H 580.042 0.146654 6.06523 0
M  V30 6105 H 578.781 -0.267249 4.86967 0
M  V30 6106 H 577.786 2.02489 5.11154 0
M  V30 6107 H 579.011 2.43149 6.34078 0
M  V30 6108 H 576.957 0.197917 6.55701 0
M  V30 6109 H 576.874 1.73216 7.35889 0
M  V30 6110 H 578.142 0.616523 7.77058 0
M  V30 6111 N 582.371 -1.3172 0.865308 0
M  V30 6112 C 583.601 -2.00765 0.487543 0
M  V30 6113 C 584.009 -1.65145 -0.92325 0
M  V30 6114 O 583.352 -0.874294 -1.61561 0
M  V30 6115 C 583.414 -3.55122 0.559369 0
M  V30 6116 C 583.078 -4.14202 1.93095 0
M  V30 6117 C 584.075 -4.3165 2.89784 0
M  V30 6118 C 581.76 -4.50036 2.23099 0
M  V30 6119 C 583.754 -4.84114 4.14623 0
M  V30 6120 C 581.441 -5.02203 3.48189 0
M  V30 6121 C 582.439 -5.19192 4.43767 0
M  V30 6122 O 582.127 -5.70241 5.6664 0
M  V30 6123 H 581.859 -0.649066 0.188915 0
M  V30 6124 H 584.413 -1.69032 1.16694 0
M  V30 6125 H 582.643 -3.86295 -0.176926 0
M  V30 6126 H 584.332 -4.05428 0.195694 0
M  V30 6127 H 585.098 -4.04288 2.6791 0
M  V30 6128 H 580.977 -4.36091 1.49485 0
M  V30 6129 H 584.521 -4.9729 4.89233 0
M  V30 6130 H 580.418 -5.28997 3.69908 0
M  V30 6131 H 581.186 -5.88617 5.68746 0
M  V30 6132 O 583.888 -0.764371 -1.42266 0
M  V30 6133 H 584.579 -0.325849 -1.9094 0
M  V30 END ATOM
M  V30 BEGIN BOND
M  V30 END BOND
M  V30 END CTAB
M  END
$$$$
