drugbank_target|P31152 Mitogen-activated protein kinase 4 (DB12010)
 OpenBabel12092121163D

  0  0  0     0  0            999 V3000
M  V30 BEGIN CTAB
M  V30 COUNTS 9192 9302 0 0 0
M  V30 BEGIN ATOM
M  V30 1 H -0.908 1.98254 -0.117106 0
M  V30 2 N 0 1.576 0 0
M  V30 3 C 0.933 2.03868 1.02534 0
M  V30 4 C 1.911 0.928543 1.3348 0
M  V30 5 O 3.095 1.19667 1.45644 0
M  V30 6 C 0.222 2.43627 2.35294 0
M  V30 7 C -0.732 3.65373 2.2001 0
M  V30 8 S 0.101 5.13292 1.52614 0
M  V30 9 C 1.257 5.56322 2.86805 0
M  V30 10 H 1.49 2.90518 0.631377 0
M  V30 11 H -0.977 1.52953 0.210867 0
M  V30 12 H 0.981 2.67203 3.11629 0
M  V30 13 H -0.358 1.57376 2.7183 0
M  V30 14 H -1.165 3.90944 3.18086 0
M  V30 15 H -1.563 3.418 1.51819 0
M  V30 16 H 0.729 5.58782 3.83104 0
M  V30 17 H 1.672 6.56266 2.65933 0
M  V30 18 H 2.08 4.83886 2.90714 0
M  V30 19 N 1.4781 -0.272755 1.55222 0
M  V30 20 C 2.4411 -1.32041 1.87344 0
M  V30 21 C 3.4411 -1.42342 0.74803 0
M  V30 22 O 4.6311 -1.41488 1.0162 0
M  V30 23 C 1.7631 -2.70173 2.07893 0
M  V30 24 H 2.9561 -1.04789 2.80997 0
M  V30 25 H 0.5091 -0.51083 1.47717 0
M  V30 26 H 1.2441 -3.02605 1.16622 0
M  V30 27 H 1.0291 -2.64082 2.89833 0
M  V30 28 H 2.5191 -3.45869 2.34017 0
M  V30 29 N 2.9562 -1.48159 -0.537278 0
M  V30 30 C 3.8662 -1.64807 -1.6696 0
M  V30 31 C 4.8822 -0.530651 -1.65711 0
M  V30 32 O 6.0582 -0.800784 -1.84796 0
M  V30 33 C 3.1232 -1.67708 -3.03438 0
M  V30 34 C 2.1842 -2.91025 -3.156 0
M  V30 35 C 1.4172 -2.93778 -4.45567 0
M  V30 36 O 1.6402 -2.05153 -5.3223 0
M  V30 37 O 0.5742 -3.85868 -4.61941 0
M  V30 38 H 4.4002 -2.6066 -1.55853 0
M  V30 39 H 1.9852 -1.31475 -0.709549 0
M  V30 40 H 3.8672 -1.7218 -3.84619 0
M  V30 41 H 2.5422 -0.750278 -3.14885 0
M  V30 42 H 1.4492 -2.92089 -2.33741 0
M  V30 43 H 2.7822 -3.83065 -3.09066 0
M  V30 44 N 4.4343 0.785586 -1.36625 0
M  V30 45 C 5.3813 1.89838 -1.31264 0
M  V30 46 C 6.3513 1.65115 -0.180633 0
M  V30 47 O 7.5363 1.87222 -0.36777 0
M  V30 48 C 4.6763 3.26706 -1.11163 0
M  V30 49 C 3.7893 3.63476 -2.33472 0
M  V30 50 C 2.9243 4.89481 -2.06353 0
M  V30 51 C 1.9633 5.18941 -3.24602 0
M  V30 52 N 1.1003 6.36131 -2.97123 0
M  V30 53 H 5.9403 1.93756 -2.26413 0
M  V30 54 H 3.4773 0.947454 -1.12524 0
M  V30 55 H 5.4353 4.05639 -0.975337 0
M  V30 56 H 4.0653 3.222 -0.196674 0
M  V30 57 H 3.1173 2.79636 -2.57891 0
M  V30 58 H 4.4293 3.81193 -3.21704 0
M  V30 59 H 3.5833 5.76288 -1.89675 0
M  V30 60 H 2.3223 4.73841 -1.15437 0
M  V30 61 H 1.3273 4.30615 -3.41834 0
M  V30 62 H 2.5523 5.36498 -4.16349 0
M  V30 63 H 0.4983 6.21875 -2.08823 0
M  V30 64 H 0.4153 6.54198 -3.78894 0
M  V30 65 H 1.6833 7.2591 -2.84033 0
M  V30 66 N 5.9124 1.20967 1.01018 0
M  V30 67 C 7.1604 1.02172 1.74371 0
M  V30 68 C 7.4814 -0.446414 1.89821 0
M  V30 69 O 6.7514 -1.32234 1.44537 0
M  V30 70 H 5.3314 0.375066 0.646014 0
M  V30 71 H 7.9934 1.52187 1.21758 0
M  V30 72 H 7.0894 1.48538 2.74487 0
M  V30 73 N 7.3905 -1.2043 1.01659 0
M  V30 74 C 8.6675 -1.8548 0.621004 0
M  V30 75 C 9.0475 -1.9091 -0.900919 0
M  V30 76 O 8.3955 -1.41694 -1.79263 0
M  V30 77 C 8.6055 -3.25119 1.2688 0
M  V30 78 C 9.9535 -4.01403 1.38423 0
M  V30 79 O 10.9775 -3.34473 1.22501 0
M  V30 80 O 9.8365 -5.21265 1.64151 0
M  V30 81 H 6.9305 -0.798761 0.214266 0
M  V30 82 H 9.4765 -1.28019 1.11396 0
M  V30 83 H 8.2485 -3.15932 2.30873 0
M  V30 84 H 7.8715 -3.90212 0.762917 0
M  V30 85 N 8.8686 -0.792821 -1.36206 0
M  V30 86 C 10.1086 -0.372238 -2.00982 0
M  V30 87 C 10.4726 1.03749 -1.61555 0
M  V30 88 O 11.6736 1.55934 -2.18948 0
M  V30 89 C 9.9446 -0.534566 -3.5338 0
M  V30 90 S 11.5036 -0.202365 -4.38333 0
M  V30 91 H 8.3216 -0.142044 -0.696667 0
M  V30 92 H 10.9236 -1.03206 -1.66039 0
M  V30 93 H 9.6276 -1.5608 -3.79562 0
M  V30 94 H 9.1586 0.141065 -3.93147 0
M  V30 95 H 11.1736 0.994869 -4.86124 0
M  V30 96 N 10.3467 1.47872 -0.545128 0
M  V30 97 C 11.5957 2.01695 -0.0145033 0
M  V30 98 C 11.9087 1.42609 1.33873 0
M  V30 99 O 13.1147 1.88021 1.95858 0
M  V30 100 C 11.5707 3.59892 0.0245068 0
M  V30 101 C 11.1787 4.27966 -1.32475 0
M  V30 102 C 12.9227 4.21507 0.50316 0
M  V30 103 C 10.8297 5.78136 -1.2455 0
M  V30 104 H 9.7597 0.753998 -0.00165172 0
M  V30 105 H 12.4107 1.69985 -0.691175 0
M  V30 106 H 10.7927 3.88509 0.766575 0
M  V30 107 H 11.9667 4.11003 -2.08357 0
M  V30 108 H 10.2817 3.78286 -1.74036 0
M  V30 109 H 12.8787 5.31538 0.580656 0
M  V30 110 H 13.2217 3.87855 1.51243 0
M  V30 111 H 13.7547 3.97376 -0.183681 0
M  V30 112 H 10.4937 6.16388 -2.23039 0
M  V30 113 H 10.0137 5.97469 -0.528282 0
M  V30 114 H 11.6927 6.40099 -0.942488 0
M  V30 115 N 11.8248 0.280983 1.55075 0
M  V30 116 C 12.7878 -0.590896 2.21452 0
M  V30 117 C 13.7878 -1.07682 1.19421 0
M  V30 118 O 14.9778 -0.97605 1.44288 0
M  V30 119 C 12.1098 -1.81587 2.88511 0
M  V30 120 H 13.3028 -0.0112554 2.99898 0
M  V30 121 H 10.8558 0.0316438 1.56268 0
M  V30 122 H 11.5908 -2.43587 2.14093 0
M  V30 123 H 11.3758 -1.4753 3.63287 0
M  V30 124 H 12.8658 -2.43575 3.39206 0
M  V30 125 N 13.3029 -1.57598 0.00835791 0
M  V30 126 C 14.5279 -1.95617 -0.689103 0
M  V30 127 C 14.9529 -0.883753 -1.66046 0
M  V30 128 O 14.3109 0.157352 -1.80616 0
M  V30 129 C 14.3589 -3.32736 -1.38994 0
M  V30 130 O 13.4629 -3.27631 -2.50463 0
M  V30 131 H 12.8039 -0.638379 -0.182668 0
M  V30 132 H 15.3339 -2.045 0.064036 0
M  V30 133 H 15.3439 -3.68494 -1.75147 0
M  V30 134 H 14.0189 -4.1034 -0.677778 0
M  V30 135 H 12.5959 -3.03561 -2.16576 0
M  V30 136 N 14.781 0.264519 -1.55364 0
M  V30 137 C 16.027 0.99646 -1.76631 0
M  V30 138 C 16.36 1.85632 -0.570478 0
M  V30 139 O 15.635 1.89647 0.43175 0
M  V30 140 C 15.918 1.87187 -3.07625 0
M  V30 141 C 15.771 1.04138 -4.37579 0
M  V30 142 C 17.09 2.85749 -3.34717 0
M  V30 143 H 14.209 0.360841 -0.642622 0
M  V30 144 H 16.851 0.268218 -1.88097 0
M  V30 145 H 15.001 2.49279 -2.9798 0
M  V30 146 H 16.673 0.440517 -4.59192 0
M  V30 147 H 14.916 0.345115 -4.32425 0
M  V30 148 H 15.587 1.68729 -5.2558 0
M  V30 149 H 18.063 2.33793 -3.4421 0
M  V30 150 H 16.939 3.44136 -4.27623 0
M  V30 151 H 17.2 3.61311 -2.54768 0
M  V30 152 N 16.2591 1.48442 0.529413 0
M  V30 153 C 17.4891 1.59919 1.30804 0
M  V30 154 C 17.8971 0.258792 1.87422 0
M  V30 155 O 17.2401 -0.762096 1.67146 0
M  V30 156 C 17.3021 2.58693 2.49636 0
M  V30 157 C 16.9661 4.03745 2.14101 0
M  V30 158 C 17.9631 4.9141 1.6974 0
M  V30 159 C 15.6481 4.49285 2.24607 0
M  V30 160 C 17.6421 6.22645 1.36351 0
M  V30 161 C 15.3291 5.8054 1.9083 0
M  V30 162 C 16.3271 6.67043 1.46773 0
M  V30 163 O 16.0151 7.95856 1.1344 0
M  V30 164 H 15.7471 0.541981 0.404021 0
M  V30 165 H 18.3011 1.95 0.645309 0
M  V30 166 H 16.5311 2.18734 3.18892 0
M  V30 167 H 18.2201 2.59999 3.11698 0
M  V30 168 H 18.9861 4.57465 1.61094 0
M  V30 169 H 14.8651 3.82142 2.57854 0
M  V30 170 H 18.4091 6.90119 1.01891 0
M  V30 171 H 14.3061 6.14022 1.99117 0
M  V30 172 H 15.0741 8.08613 1.26832 0
M  V30 173 N 17.7372 -0.778329 1.37039 0
M  V30 174 C 18.9852 -1.53361 1.31623 0
M  V30 175 C 19.3062 -1.94739 -0.100831 0
M  V30 176 O 18.5762 -1.65797 -1.04347 0
M  V30 177 H 17.1562 -0.568794 0.484234 0
M  V30 178 H 19.8182 -0.926742 1.71457 0
M  V30 179 H 18.9142 -2.43606 1.95096 0
M  V30 180 N 19.2153 -1.21501 -1.00376 0
M  V30 181 C 20.4453 -1.05746 -1.77486 0
M  V30 182 C 20.8533 0.395655 -1.85017 0
M  V30 183 O 20.1963 1.28626 -1.31152 0
M  V30 184 C 20.2583 -1.58092 -3.22873 0
M  V30 185 C 19.9223 -3.06568 -3.38917 0
M  V30 186 C 20.9193 -4.04106 -3.271 0
M  V30 187 C 18.6043 -3.45799 -3.64319 0
M  V30 188 C 20.5983 -5.38862 -3.40451 0
M  V30 189 C 18.2853 -4.80707 -3.77311 0
M  V30 190 C 19.2833 -5.77047 -3.65384 0
M  V30 191 O 18.9713 -7.09507 -3.77961 0
M  V30 192 H 18.7033 -0.371778 -0.564586 0
M  V30 193 H 21.2573 -1.61319 -1.27143 0
M  V30 194 H 19.4873 -0.969163 -3.74358 0
M  V30 195 H 21.1763 -1.38162 -3.81662 0
M  V30 196 H 21.9423 -3.75141 -3.07399 0
M  V30 197 H 17.8213 -2.71344 -3.72684 0
M  V30 198 H 21.3653 -6.14041 -3.31058 0
M  V30 199 H 17.2623 -5.09357 -3.96517 0
M  V30 200 H 18.0303 -7.16935 -3.94901 0
M  V30 201 N 20.6934 1.19889 -1.02296 0
M  V30 202 C 21.9704 1.85148 -0.630832 0
M  V30 203 C 22.3504 1.91385 0.890782 0
M  V30 204 O 21.6984 1.42642 1.78509 0
M  V30 205 C 21.9084 3.24442 -1.28602 0
M  V30 206 C 23.2564 4.00663 -1.4055 0
M  V30 207 O 24.2804 3.33818 -1.24273 0
M  V30 208 O 23.1394 5.20387 -1.66913 0
M  V30 209 H 20.2334 0.797613 -0.218499 0
M  V30 210 H 22.7794 1.27427 -1.12074 0
M  V30 211 H 21.5514 3.14704 -2.32545 0
M  V30 212 H 21.1744 3.89802 -0.7836 0
M  V30 213 N 22.1715 0.800033 1.35784 0
M  V30 214 C 23.1015 0.220184 2.3246 0
M  V30 215 C 24.0825 -0.65073 1.57161 0
M  V30 216 O 25.2675 -0.582359 1.85263 0
M  V30 217 C 22.3975 -0.637353 3.41402 0
M  V30 218 C 21.3515 0.134531 4.27789 0
M  V30 219 C 20.6775 -0.844285 5.27992 0
M  V30 220 C 21.9775 1.32979 5.05088 0
M  V30 221 H 23.6715 1.02787 2.81203 0
M  V30 222 H 21.2175 0.495717 1.35199 0
M  V30 223 H 23.1705 -1.05302 4.08031 0
M  V30 224 H 21.8945 -1.47785 2.91251 0
M  V30 225 H 20.5535 0.531296 3.6273 0
M  V30 226 H 20.2015 -1.68011 4.74111 0
M  V30 227 H 19.9015 -0.332184 5.8666 0
M  V30 228 H 21.4255 -1.2583 5.97494 0
M  V30 229 H 22.8395 0.98934 5.64699 0
M  V30 230 H 21.2365 1.77593 5.7322 0
M  V30 231 H 22.3065 2.11978 4.36111 0
M  V30 232 N 23.6496 -1.47581 0.552962 0
M  V30 233 C 24.8976 -2.02082 0.0272703 0
M  V30 234 C 25.2186 -1.4301 -1.32563 0
M  V30 235 O 24.4886 -0.603745 -1.86365 0
M  V30 236 H 23.0686 -0.746966 0.00709182 0
M  V30 237 H 25.7306 -1.81033 0.722008 0
M  V30 238 H 24.8266 -3.12034 -0.0639951 0
M  V30 239 N 25.1277 -0.289203 -1.54924 0
M  V30 240 C 26.3757 0.322879 -1.99504 0
M  V30 241 C 26.6967 1.55313 -1.1791 0
M  V30 242 O 25.9667 1.94001 -0.272097 0
M  V30 243 H 24.5467 0.122291 -0.736922 0
M  V30 244 H 27.2087 -0.397802 -1.90797 0
M  V30 245 H 26.3047 0.603061 -3.06218 0
M  V30 246 N 26.6058 1.57591 -0.0167156 0
M  V30 247 C 28.0218 1.55946 0.339557 0
M  V30 248 C 28.2218 1.02109 1.73713 0
M  V30 249 O 27.2778 0.662303 2.43659 0
M  V30 250 C 28.5908 3.00037 0.199499 0
M  V30 251 C 30.1388 3.11805 0.273193 0
M  V30 252 C 30.6138 4.57713 0.162068 0
M  V30 253 N 32.1048 4.6268 0.219444 0
M  V30 254 C 32.8398 5.73185 0.157054 0
M  V30 255 N 32.3358 6.92786 0.0442936 0
M  V30 256 N 34.1288 5.61707 0.21014 0
M  V30 257 H 26.2798 1.90921 -0.930758 0
M  V30 258 H 28.5428 0.877674 -0.358319 0
M  V30 259 H 28.2488 3.4333 -0.76273 0
M  V30 260 H 28.1228 3.64387 0.974786 0
M  V30 261 H 30.5098 2.68433 1.22587 0
M  V30 262 H 30.5908 2.50201 -0.532256 0
M  V30 263 H 30.2348 5.01763 -0.78714 0
M  V30 264 H 30.1648 5.17283 0.986222 0
M  V30 265 H 32.6558 3.76649 0.307246 0
M  V30 266 H 32.9688 7.728 0.00304069 0
M  V30 267 H 31.3138 6.94999 0.00968457 0
M  V30 268 H 34.5048 4.6716 0.296546 0
M  V30 269 H 34.6778 6.47807 0.158054 0
M  V30 270 N 28.0839 -0.256276 1.55502 0
M  V30 271 C 29.3309 -0.985619 1.76895 0
M  V30 272 C 29.6589 -1.85671 0.579355 0
M  V30 273 O 28.9139 -1.90744 -0.437651 0
M  V30 274 C 29.2129 -1.88432 3.03691 0
M  V30 275 C 28.8789 -1.16936 4.35473 0
M  V30 276 C 27.5409 -0.97173 4.71286 0
M  V30 277 C 29.8929 -0.661889 5.1698 0
M  V30 278 C 27.2209 -0.254179 5.86149 0
M  V30 279 C 29.5729 0.042149 6.32586 0
M  V30 280 C 28.2369 0.25134 6.67027 0
M  V30 281 H 27.5069 -0.360663 0.647304 0
M  V30 282 H 30.1539 -0.256483 1.89775 0
M  V30 283 H 28.4589 -2.68021 2.85783 0
M  V30 284 H 30.1559 -2.45015 3.1744 0
M  V30 285 H 26.7459 -1.33332 4.07333 0
M  V30 286 H 30.9299 -0.802145 4.89775 0
M  V30 287 H 26.1859 -0.0815408 6.11346 0
M  V30 288 H 30.3599 0.443049 6.94989 0
M  V30 289 H 27.9869 0.809314 7.5588 0
M  V30 290 N 29.562 -1.4872 -0.521534 0
M  V30 291 C 30.808 -1.574 -1.27879 0
M  V30 292 C 31.141 -0.250817 -1.92573 0
M  V30 293 O 30.416 0.743934 -1.79711 0
M  V30 294 C 30.699 -2.71843 -2.36164 0
M  V30 295 C 30.552 -4.13893 -1.76105 0
M  V30 296 C 31.871 -2.82008 -3.37875 0
M  V30 297 H 28.99 -0.572941 -0.463581 0
M  V30 298 H 31.632 -1.80927 -0.580119 0
M  V30 299 H 29.782 -2.51914 -2.95756 0
M  V30 300 H 31.454 -4.45284 -1.20499 0
M  V30 301 H 29.697 -4.20498 -1.06601 0
M  V30 302 H 30.368 -4.89804 -2.5455 0
M  V30 303 H 32.844 -3.00086 -2.88249 0
M  V30 304 H 31.72 -3.63796 -4.11028 0
M  V30 305 H 31.981 -1.90511 -3.98946 0
M  V30 306 N 31.0401 0.771051 -1.3745 0
M  V30 307 C 32.3171 1.519 -1.23231 0
M  V30 308 C 32.6971 2.10383 0.173809 0
M  V30 309 O 32.0451 1.95583 1.18151 0
M  V30 310 C 32.2551 2.59933 -2.32886 0
M  V30 311 C 33.6031 3.27316 -2.70461 0
M  V30 312 O 34.6271 2.70228 -2.32068 0
M  V30 313 O 33.4861 4.30531 -3.36608 0
M  V30 314 H 30.5801 0.672803 -0.480901 0
M  V30 315 H 33.1261 0.807957 -1.49232 0
M  V30 316 H 31.8981 2.14842 -3.27045 0
M  V30 317 H 31.5211 3.38637 -2.08353 0
M  V30 318 N 32.5182 1.22032 0.997298 0
M  V30 319 C 33.7652 1.04222 1.73621 0
M  V30 320 C 34.0932 -0.423264 1.89839 0
M  V30 321 O 33.3482 -1.3302 1.43542 0
M  V30 322 C 33.6472 1.69345 3.14733 0
M  V30 323 C 33.3132 3.19226 3.18442 0
M  V30 324 C 31.9752 3.60124 3.19161 0
M  V30 325 C 34.3272 4.15181 3.15078 0
M  V30 326 C 31.6552 4.95467 3.14212 0
M  V30 327 C 34.0072 5.50495 3.1167 0
M  V30 328 C 32.6712 5.90779 3.10703 0
M  V30 329 H 31.9412 0.381374 0.635323 0
M  V30 330 H 34.5882 1.51732 1.16831 0
M  V30 331 H 32.8932 1.14147 3.74803 0
M  V30 332 H 34.5902 1.53059 3.7064 0
M  V30 333 H 31.1802 2.86659 3.18629 0
M  V30 334 H 35.3642 3.84605 3.13676 0
M  V30 335 H 30.6202 5.25916 3.11805 0
M  V30 336 H 34.7942 6.24576 3.08022 0
M  V30 337 H 32.4212 6.9562 3.06622 0
M  V30 338 N 33.9963 -1.19345 1.0293 0
M  V30 339 C 34.9283 -2.22036 0.56857 0
M  V30 340 C 35.9413 -1.58865 -0.355779 0
M  V30 341 O 37.1303 -1.77851 -0.152103 0
M  V30 342 C 34.2303 -3.38363 -0.190752 0
M  V30 343 C 33.4033 -4.31118 0.738643 0
M  V30 344 C 32.4623 -5.26194 0.0246497 0
M  V30 345 O 31.4883 -5.65461 0.651354 0
M  V30 346 N 32.6903 -5.66971 -1.24594 0
M  V30 347 H 35.4553 -2.6219 1.45177 0
M  V30 348 H 33.0163 -1.34015 0.908381 0
M  V30 349 H 35.0083 -3.98981 -0.677961 0
M  V30 350 H 33.5783 -2.96994 -0.975366 0
M  V30 351 H 32.7983 -3.68276 1.40593 0
M  V30 352 H 34.0863 -4.90001 1.37029 0
M  V30 353 H 33.4843 -5.37104 -1.77583 0
M  V30 354 H 32.0413 -6.2984 -1.67764 0
M  V30 355 N 35.4744 -0.807222 -1.35358 0
M  V30 356 C 36.8854 -0.44876 -1.81226 0
M  V30 357 C 37.2364 1.02929 -1.67033 0
M  V30 358 O 36.3614 1.79991 -1.20133 0
M  V30 359 C 36.9564 -0.807774 -3.2903 0
M  V30 360 C 35.5154 -0.501901 -3.73039 0
M  V30 361 C 34.6624 -1.03304 -2.57339 0
M  V30 362 H 37.6134 -0.998808 -1.23327 0
M  V30 363 H 37.6344 -0.10554 -3.80354 0
M  V30 364 H 37.1464 -1.88357 -3.39328 0
M  V30 365 H 35.2474 0.565128 -3.68289 0
M  V30 366 H 35.3604 -1.03497 -4.67787 0
M  V30 367 H 33.7244 -0.455339 -2.50597 0
M  V30 368 H 34.5074 -2.11496 -2.70415 0
M  V30 369 N 36.9525 1.47285 -0.560781 0
M  V30 370 C 37.8825 2.32857 0.173105 0
M  V30 371 C 38.8635 1.44009 0.905281 0
M  V30 372 O 40.0485 1.7286 0.885046 0
M  V30 373 C 37.1785 3.25861 1.20133 0
M  V30 374 C 36.1325 4.23978 0.585388 0
M  V30 375 C 35.4585 5.06332 1.7185 0
M  V30 376 C 36.7585 5.20242 -0.463178 0
M  V30 377 H 38.4525 2.94466 -0.541307 0
M  V30 378 H 35.9985 1.41601 -0.261764 0
M  V30 379 H 37.9515 3.84569 1.72293 0
M  V30 380 H 36.6755 2.62315 1.94573 0
M  V30 381 H 35.3345 3.66501 0.085054 0
M  V30 382 H 34.9825 4.39186 2.45203 0
M  V30 383 H 34.6825 5.72762 1.31213 0
M  V30 384 H 36.2065 5.67899 2.24329 0
M  V30 385 H 37.6205 5.73293 -0.027502 0
M  V30 386 H 36.0175 5.94896 -0.788627 0
M  V30 387 H 37.0875 4.65504 -1.35773 0
M  V30 388 N 38.4306 0.297415 1.54768 0
M  V30 389 C 39.6786 -0.312295 1.99673 0
M  V30 390 C 39.9996 -1.54686 1.18732 0
M  V30 391 O 39.2696 -1.93854 0.282382 0
M  V30 392 H 37.8496 -0.118381 0.73756 0
M  V30 393 H 40.5116 0.407915 1.90583 0
M  V30 394 H 39.6076 -0.586813 3.06534 0
M  V30 395 N 39.9087 -1.5758 0.0250728 0
M  V30 396 C 41.1557 -1.91633 -0.654444 0
M  V30 397 C 41.4837 -0.901103 -1.72367 0
M  V30 398 O 40.7387 0.0905647 -1.9549 0
M  V30 399 C 41.0377 -3.32421 -1.31268 0
M  V30 400 C 40.7037 -4.49344 -0.374223 0
M  V30 401 C 39.3657 -4.8106 -0.115911 0
M  V30 402 C 41.7177 -5.20498 0.270432 0
M  V30 403 C 39.0457 -5.8129 0.79493 0
M  V30 404 C 41.3977 -6.21699 1.1693 0
M  V30 405 C 40.0617 -6.51859 1.43655 0
M  V30 406 H 39.3317 -0.701236 -0.239478 0
M  V30 407 H 41.9787 -1.91307 0.0859734 0
M  V30 408 H 40.2837 -3.28989 -2.12775 0
M  V30 409 H 41.9807 -3.56038 -1.84494 0
M  V30 410 H 38.5707 -4.24579 -0.58573 0
M  V30 411 H 42.7547 -4.96229 0.0839194 0
M  V30 412 H 38.0107 -6.03005 1.00973 0
M  V30 413 H 42.1847 -6.75955 1.67504 0
M  V30 414 H 39.8117 -7.2934 2.144 0
M  V30 415 N 41.3868 0.248026 -1.55636 0
M  V30 416 C 42.6348 0.974295 -1.77065 0
M  V30 417 C 42.9558 1.85897 -0.588849 0
M  V30 418 O 42.2258 1.91868 0.395407 0
M  V30 419 H 40.8058 0.362733 -0.653019 0
M  V30 420 H 43.4678 0.266244 -1.93073 0
M  V30 421 H 42.5638 1.59667 -2.68166 0
M  V30 422 N 42.8649 1.48995 0.513639 0
M  V30 423 C 44.1109 1.58076 1.27042 0
M  V30 424 C 44.4439 0.261026 1.92438 0
M  V30 425 O 43.7189 -0.734393 1.80103 0
M  V30 426 C 44.0019 2.73091 2.34719 0
M  V30 427 C 43.8549 4.14821 1.73907 0
M  V30 428 C 45.1739 2.83796 3.36375 0
M  V30 429 H 42.2929 0.575391 0.460536 0
M  V30 430 H 44.9349 1.81232 0.570516 0
M  V30 431 H 43.0849 2.53479 2.94416 0
M  V30 432 H 44.7569 4.45917 1.18135 0
M  V30 433 H 42.9999 4.21058 1.0437 0
M  V30 434 H 43.6709 4.91147 2.51949 0
M  V30 435 H 46.1469 3.01611 2.86653 0
M  V30 436 H 45.0229 3.65971 4.09093 0
M  V30 437 H 45.2839 1.92624 3.9793 0
M  V30 438 N 44.343 -0.763751 1.37857 0
M  V30 439 C 45.291 -1.89864 1.34367 0
M  V30 440 C 46.285 -1.67816 0.231143 0
M  V30 441 O 47.491 -1.75508 0.399617 0
M  V30 442 H 43.866 -0.624501 0.41893 0
M  V30 443 H 45.837 -1.89925 2.30155 0
M  V30 444 C 44.586 -3.27227 1.1755 0
M  V30 445 H 43.909 -3.44773 2.02414 0
M  V30 446 H 45.349 -4.06911 1.1916 0
M  V30 447 C 43.808 -3.36692 -0.118311 0
M  V30 448 O 44.338 -3.86374 -1.09902 0
M  V30 449 N 42.544 -2.90092 -0.171717 0
M  V30 450 H 42.091 -2.49853 0.627012 0
M  V30 451 H 42.049 -2.96806 -1.03699 0
M  V30 452 N 45.8211 -1.22559 -0.990812 0
M  V30 453 C 47.0691 -1.04933 -1.72724 0
M  V30 454 C 47.3901 0.416158 -1.90508 0
M  V30 455 O 46.6601 1.29918 -1.46622 0
M  V30 456 H 45.2401 -0.385296 -0.639965 0
M  V30 457 H 47.9021 -1.54105 -1.19322 0
M  V30 458 H 46.9981 -1.52886 -2.72089 0
M  V30 459 N 47.2992 1.18797 -1.03562 0
M  V30 460 C 48.2292 2.24472 -0.643019 0
M  V30 461 C 49.2102 1.66433 0.351283 0
M  V30 462 O 50.3952 1.92803 0.232505 0
M  V30 463 C 47.5252 3.473 4.24935e-05 0
M  V30 464 C 46.4792 4.18055 -0.917257 0
M  V30 465 C 45.8052 5.34519 -0.138941 0
M  V30 466 C 47.1052 4.72109 -2.23407 0
M  V30 467 H 48.7992 2.57566 -1.52643 0
M  V30 468 H 46.3452 1.23806 -0.735394 0
M  V30 469 H 48.2982 4.20426 0.286383 0
M  V30 470 H 47.0222 3.13424 0.918299 0
M  V30 471 H 45.6812 3.46821 -1.1879 0
M  V30 472 H 45.3292 4.96891 0.781562 0
M  V30 473 H 45.0292 5.82794 -0.750005 0
M  V30 474 H 46.5532 6.10438 0.1405 0
M  V30 475 H 47.9672 5.36955 -2.00879 0
M  V30 476 H 46.3642 5.30897 -2.79765 0
M  V30 477 H 47.4342 3.89807 -2.88407 0
M  V30 478 N 48.7773 0.814389 1.34928 0
M  V30 479 C 50.0233 0.399013 1.98836 0
M  V30 480 C 50.3563 -1.03314 1.64438 0
M  V30 481 O 49.6313 -1.71811 0.911659 0
M  V30 482 C 49.9143 0.591629 3.55207 0
M  V30 483 C 49.7673 2.06928 3.99376 0
M  V30 484 C 51.0863 0.022199 4.40094 0
M  V30 485 H 48.2053 0.146451 0.722303 0
M  V30 486 H 50.8473 1.02537 1.59957 0
M  V30 487 H 48.9973 0.0584441 3.88456 0
M  V30 488 H 50.6693 2.66544 3.76499 0
M  V30 489 H 48.9123 2.56287 3.49999 0
M  V30 490 H 49.5833 2.1549 5.08201 0
M  V30 491 H 52.0593 0.477643 4.13349 0
M  V30 492 H 50.9353 0.186832 5.48582 0
M  V30 493 H 51.1963 -1.07215 4.28902 0
M  V30 494 N 50.2554 -1.46986 0.568584 0
M  V30 495 C 51.1854 -2.32946 -0.160753 0
M  V30 496 C 52.1664 -1.44487 -0.897631 0
M  V30 497 O 53.3514 -1.73327 -0.875867 0
M  V30 498 C 50.4814 -3.26494 -1.18403 0
M  V30 499 C 49.4354 -4.24282 -0.562895 0
M  V30 500 C 48.7614 -5.07236 -1.69163 0
M  V30 501 C 50.0614 -5.19989 0.490761 0
M  V30 502 H 51.7554 -2.94175 0.556916 0
M  V30 503 H 49.3014 -1.4146 0.26927 0
M  V30 504 H 51.2544 -3.85477 -1.70251 0
M  V30 505 H 49.9784 -2.63343 -1.93179 0
M  V30 506 H 48.6374 -3.66541 -0.0656164 0
M  V30 507 H 48.2854 -4.4048 -2.42871 0
M  V30 508 H 47.9854 -5.7345 -1.28174 0
M  V30 509 H 49.5094 -5.6908 -2.21314 0
M  V30 510 H 50.9234 -5.73271 0.0579047 0
M  V30 511 H 49.3204 -5.94469 0.820165 0
M  V30 512 H 50.3904 -4.64777 1.3824 0
M  V30 513 N 51.7335 -0.305618 -1.54608 0
M  V30 514 C 52.9585 0.307562 -2.05107 0
M  V30 515 C 53.3835 1.46385 -1.18123 0
M  V30 516 O 52.7415 1.8034 -0.186324 0
M  V30 517 C 52.7895 0.73704 -3.52987 0
M  V30 518 O 51.8935 1.84134 -3.6901 0
M  V30 519 H 51.2345 0.0589143 -0.661381 0
M  V30 520 H 53.7645 -0.448807 -1.99617 0
M  V30 521 H 53.7745 1.02459 -3.94925 0
M  V30 522 H 52.4495 -0.108773 -4.15758 0
M  V30 523 H 51.0265 1.55398 -3.38978 0
M  V30 524 N 53.2116 1.57565 -0.0334293 0
M  V30 525 C 54.1746 2.09393 0.932048 0
M  V30 526 C 55.1746 1.00986 1.25134 0
M  V30 527 O 56.3646 1.27129 1.19096 0
M  V30 528 C 53.4966 2.56338 2.2473 0
M  V30 529 H 54.6896 2.95984 0.483085 0
M  V30 530 H 52.2426 1.54819 0.21468 0
M  V30 531 H 52.9776 1.7309 2.74245 0
M  V30 532 H 52.7626 3.35542 2.02865 0
M  V30 533 H 54.2526 2.96646 2.93923 0
M  V30 534 N 54.6897 -0.239769 1.55765 0
M  V30 535 C 55.9357 -0.968234 1.78194 0
M  V30 536 C 56.2687 -1.84701 0.599938 0
M  V30 537 O 55.5437 -1.9031 -0.401524 0
M  V30 538 C 55.8267 -1.8227 3.10564 0
M  V30 539 C 55.6797 -0.971633 4.3918 0
M  V30 540 C 56.9987 -2.80388 3.39221 0
M  V30 541 H 54.1177 -0.350572 0.648281 0
M  V30 542 H 56.7597 -0.238259 1.885 0
M  V30 543 H 54.9097 -2.44507 3.01908 0
M  V30 544 H 56.5817 -0.367408 4.59835 0
M  V30 545 H 54.8247 -0.276276 4.32919 0
M  V30 546 H 55.4957 -1.60346 5.28198 0
M  V30 547 H 57.9717 -2.28287 3.47885 0
M  V30 548 H 56.8477 -3.3729 4.33044 0
M  V30 549 H 57.1087 -3.57212 2.60484 0
M  V30 550 N 56.1678 -1.49265 -0.50573 0
M  V30 551 C 57.4448 -1.49012 -1.26707 0
M  V30 552 C 57.8248 -0.215205 -2.1 0
M  V30 553 O 57.1728 0.802547 -2.13943 0
M  V30 554 C 57.3828 -2.7663 -2.12783 0
M  V30 555 C 58.7308 -3.25932 -2.72127 0
M  V30 556 O 59.7548 -2.77715 -2.23054 0
M  V30 557 O 58.6138 -4.09897 -3.61451 0
M  V30 558 H 55.7078 -0.596197 -0.57313 0
M  V30 559 H 58.2538 -1.61524 -0.52039 0
M  V30 560 H 57.0258 -3.60916 -1.5118 0
M  V30 561 H 56.6488 -2.66956 -2.94653 0
M  V30 562 N 57.6459 0.756429 -1.3826 0
M  V30 563 C 58.8709 1.55077 -1.37717 0
M  V30 564 C 59.2959 1.88073 0.03164 0
M  V30 565 O 58.6539 1.50364 1.01293 0
M  V30 566 C 58.7019 2.8283 -2.23695 0
M  V30 567 O 57.8059 3.77862 -1.6521 0
M  V30 568 H 57.1469 0.469152 -0.469885 0
M  V30 569 H 59.6769 0.935019 -1.81985 0
M  V30 570 H 59.6869 3.31783 -2.37453 0
M  V30 571 H 58.3619 2.58144 -3.2609 0
M  V30 572 H 56.9389 3.36555 -1.60578 0
M  V30 573 N 59.124 1.23083 0.984299 0
M  V30 574 C 60.54 0.992637 1.24975 0
M  V30 575 C 60.74 -0.308618 1.99123 0
M  V30 576 O 59.796 -1.02905 2.30579 0
M  V30 577 C 61.109 2.19698 2.05312 0
M  V30 578 C 62.657 2.24147 2.18465 0
M  V30 579 C 63.132 3.44157 3.02192 0
M  V30 580 N 64.623 3.44372 3.09777 0
M  V30 581 C 65.358 4.33886 3.74874 0
M  V30 582 N 64.854 5.3363 4.41827 0
M  V30 583 N 66.647 4.21639 3.71721 0
M  V30 584 H 58.798 2.06731 0.487453 0
M  V30 585 H 61.061 0.906339 0.277944 0
M  V30 586 H 60.767 3.1411 1.58201 0
M  V30 587 H 60.641 2.20465 3.06064 0
M  V30 588 H 63.028 1.30277 2.64786 0
M  V30 589 H 63.109 2.27415 1.17115 0
M  V30 590 H 62.753 4.38332 2.56568 0
M  V30 591 H 62.683 3.3813 4.03702 0
M  V30 592 H 65.174 2.72201 2.62135 0
M  V30 593 H 65.487 5.98196 4.89266 0
M  V30 594 H 63.832 5.37534 4.40548 0
M  V30 595 H 67.023 3.42962 3.18582 0
M  V30 596 H 67.196 4.91604 4.22173 0
M  V30 597 N 60.6021 -1.18246 1.0419 0
M  V30 598 C 61.5651 -2.20128 0.638452 0
M  V30 599 C 62.5651 -1.57885 -0.304805 0
M  V30 600 O 63.7551 -1.73967 -0.0900369 0
M  V30 601 C 60.8871 -3.4084 -0.0637751 0
M  V30 602 H 62.0801 -2.57336 1.54007 0
M  V30 603 H 59.6331 -1.32152 0.834598 0
M  V30 604 H 60.3681 -3.09166 -0.979136 0
M  V30 605 H 60.1531 -3.8726 0.614198 0
M  V30 606 H 61.6431 -4.16274 -0.332512 0
M  V30 607 N 62.0802 -0.821533 -1.34494 0
M  V30 608 C 63.3202 -0.414785 -2.00147 0
M  V30 609 C 63.6842 1.00299 -1.6372 0
M  V30 610 O 64.8852 1.51255 -2.22206 0
M  V30 611 C 63.1562 -0.609403 -3.52166 0
M  V30 612 S 64.7152 -0.295297 -4.37805 0
M  V30 613 H 61.5332 -0.15679 -0.693497 0
M  V30 614 H 64.1352 -1.06705 -1.63812 0
M  V30 615 H 62.8392 -1.64096 -3.76166 0
M  V30 616 H 62.3702 0.0576414 -3.93358 0
M  V30 617 H 64.3852 0.891531 -4.88125 0
M  V30 618 N 63.5583 1.46682 -0.576371 0
M  V30 619 C 64.9743 1.57822 -0.237562 0
M  V30 620 C 65.1743 1.57237 1.26011 0
M  V30 621 O 64.2303 1.48596 2.04146 0
M  V30 622 C 65.5433 2.87499 -0.881168 0
M  V30 623 C 67.0913 3.01119 -0.85417 0
M  V30 624 C 67.5663 4.33524 -1.4772 0
M  V30 625 N 69.0573 4.40207 -1.44125 0
M  V30 626 C 69.7923 5.4126 -1.89276 0
M  V30 627 N 69.2883 6.49021 -2.42371 0
M  V30 628 N 71.0813 5.32422 -1.80231 0
M  V30 629 H 63.2323 1.45306 -1.54919 0
M  V30 630 H 65.4953 0.692733 -0.647167 0
M  V30 631 H 65.2013 2.9372 -1.93447 0
M  V30 632 H 65.0753 3.75224 -0.385592 0
M  V30 633 H 67.4623 2.94485 0.190491 0
M  V30 634 H 67.5433 2.14887 -1.3877 0
M  V30 635 H 67.1873 4.40916 -2.52103 0
M  V30 636 H 67.1173 5.1852 -0.918947 0
M  V30 637 H 69.6083 3.62931 -1.05307 0
M  V30 638 H 69.9213 7.2233 -2.74698 0
M  V30 639 H 68.2663 6.49858 -2.46393 0
M  V30 640 H 71.4573 4.47137 -1.38514 0
M  V30 641 H 71.6303 6.11034 -2.15735 0
M  V30 642 N 65.0364 0.313813 1.54444 0
M  V30 643 C 65.9834 -0.55655 2.23989 0
M  V30 644 C 66.9534 -1.11943 1.22711 0
M  V30 645 O 68.1384 -1.16158 1.51367 0
M  V30 646 C 65.2784 -1.71635 2.99392 0
M  V30 647 C 64.3914 -1.18364 4.15468 0
M  V30 648 C 63.5264 -2.30834 4.78424 0
M  V30 649 C 62.5654 -1.74762 5.86622 0
M  V30 650 N 61.7024 -2.80855 6.43479 0
M  V30 651 H 66.5424 0.0430893 2.97969 0
M  V30 652 H 64.0794 0.0330359 1.47063 0
M  V30 653 H 66.0374 -2.39868 3.41349 0
M  V30 654 H 64.6674 -2.28742 2.27765 0
M  V30 655 H 63.7194 -0.393163 3.78363 0
M  V30 656 H 65.0314 -0.733262 4.93381 0
M  V30 657 H 64.1854 -3.0699 5.23299 0
M  V30 658 H 62.9244 -2.79204 3.99871 0
M  V30 659 H 61.9294 -0.970995 5.41158 0
M  V30 660 H 63.1544 -1.2728 6.67066 0
M  V30 661 H 61.1004 -3.28535 5.67804 0
M  V30 662 H 61.0174 -2.40351 7.16776 0
M  V30 663 H 62.2854 -3.5687 6.93011 0
M  V30 664 N 66.5145 -1.57545 0.0417849 0
M  V30 665 C 67.7605 -1.92601 -0.635021 0
M  V30 666 C 68.0935 -0.919627 -1.71045 0
M  V30 667 O 67.3685 0.0557892 -1.9442 0
M  V30 668 C 67.6515 -3.38085 -1.23979 0
M  V30 669 C 67.5045 -4.49467 -0.173057 0
M  V30 670 C 68.8235 -3.83776 -2.15416 0
M  V30 671 H 65.9425 -0.700397 -0.229374 0
M  V30 672 H 68.5845 -1.89728 0.101633 0
M  V30 673 H 66.7345 -3.40664 -1.86762 0
M  V30 674 H 68.4065 -4.59018 0.458312 0
M  V30 675 H 66.6495 -4.30909 0.499996 0
M  V30 676 H 67.3205 -5.48323 -0.636054 0
M  V30 677 H 69.7965 -3.83013 -1.62605 0
M  V30 678 H 68.6725 -4.8624 -2.54679 0
M  V30 679 H 68.9335 -3.19998 -3.05047 0
M  V30 680 N 67.9926 0.231505 -1.5589 0
M  V30 681 C 68.9556 1.27028 -1.90779 0
M  V30 682 C 69.9556 1.40308 -0.785507 0
M  V30 683 O 71.1456 1.38744 -1.05336 0
M  V30 684 C 68.2776 2.64566 -2.14983 0
M  V30 685 H 69.4706 0.973017 -2.83677 0
M  V30 686 H 67.0236 0.471486 -1.49019 0
M  V30 687 H 67.7586 2.99406 -1.24604 0
M  V30 688 H 67.5436 2.56305 -2.96732 0
M  V30 689 H 69.0336 3.39543 -2.43105 0
M  V30 690 N 69.4707 1.49531 0.497807 0
M  V30 691 C 70.7167 1.59415 1.25358 0
M  V30 692 C 71.0497 0.281422 1.9215 0
M  V30 693 O 70.3247 -0.715249 1.80871 0
M  V30 694 C 70.6077 2.75566 2.3181 0
M  V30 695 C 70.4607 4.16642 1.69498 0
M  V30 696 C 71.7797 2.87347 3.33346 0
M  V30 697 H 68.8987 0.580244 0.454408 0
M  V30 698 H 71.5407 1.81827 0.551262 0
M  V30 699 H 69.6907 2.56587 2.91711 0
M  V30 700 H 71.3627 4.47145 1.13399 0
M  V30 701 H 69.6057 4.22141 0.998978 0
M  V30 702 H 70.2767 4.93792 2.46725 0
M  V30 703 H 72.7527 3.04634 2.83438 0
M  V30 704 H 71.6287 3.70289 4.05188 0
M  V30 705 H 71.8897 1.96834 3.95865 0
M  V30 706 N 70.9488 -0.749086 1.3866 0
M  V30 707 C 71.8958 -1.86291 1.36251 0
M  V30 708 C 72.8658 -1.64578 0.224347 0
M  V30 709 O 74.0508 -1.86181 0.417279 0
M  V30 710 C 71.1908 -3.23644 1.19786 0
M  V30 711 C 70.3038 -3.57158 2.43027 0
M  V30 712 C 69.4388 -4.83838 2.19258 0
M  V30 713 C 68.4778 -5.10152 3.38247 0
M  V30 714 N 67.6148 -6.28029 3.13884 0
M  V30 715 H 72.4548 -1.87685 2.3147 0
M  V30 716 H 69.9918 -0.917287 1.14997 0
M  V30 717 H 71.9498 -4.0291 1.08254 0
M  V30 718 H 70.5798 -3.21566 0.282031 0
M  V30 719 H 69.6318 -2.72701 2.65214 0
M  V30 720 H 70.9438 -3.7253 3.31697 0
M  V30 721 H 70.0978 -5.71057 2.04888 0
M  V30 722 H 68.8368 -4.70614 1.2796 0
M  V30 723 H 67.8418 -4.21401 3.53131 0
M  V30 724 H 69.0668 -5.25271 4.30427 0
M  V30 725 H 67.0128 -6.1612 2.25238 0
M  V30 726 H 66.9298 -6.43922 3.96106 0
M  V30 727 H 68.1978 -7.18124 3.03179 0
M  V30 728 N 72.4269 -1.23603 -0.977757 0
M  V30 729 C 73.3739 -1.01954 -2.07061 0
M  V30 730 C 74.3439 0.0638697 -1.65977 0
M  V30 731 O 75.5289 -0.0887624 -1.90593 0
M  V30 732 C 72.6689 -0.619658 -3.39491 0
M  V30 733 C 71.7819 -1.77547 -3.93829 0
M  V30 734 C 70.9169 -1.32212 -5.14484 0
M  V30 735 C 69.9559 -2.44852 -5.60994 0
M  V30 736 N 69.0929 -2.00456 -6.72876 0
M  V30 737 H 73.9329 -1.95495 -2.24913 0
M  V30 738 H 71.4699 -0.973861 -1.10247 0
M  V30 739 H 73.4279 -0.368898 -4.15566 0
M  V30 740 H 72.0579 0.278752 -3.21594 0
M  V30 741 H 71.1099 -2.14016 -3.14486 0
M  V30 742 H 72.4219 -2.62219 -4.24314 0
M  V30 743 H 71.5759 -1.02965 -5.97899 0
M  V30 744 H 70.3149 -0.445808 -4.85658 0
M  V30 745 H 69.3199 -2.74871 -4.76157 0
M  V30 746 H 70.5449 -3.33024 -5.91837 0
M  V30 747 H 68.4909 -1.15208 -6.45804 0
M  V30 748 H 68.4079 -2.78687 -7.02759 0
M  V30 749 H 69.6759 -1.7432 -7.59758 0
M  V30 750 N 73.905 1.17692 -1.04816 0
M  V30 751 C 75.154 1.87192 -0.751132 0
M  V30 752 C 75.467 1.8169 0.724441 0
M  V30 753 O 76.673 2.46625 1.13527 0
M  V30 754 C 75.129 3.35857 -1.29338 0
M  V30 755 C 74.737 3.4987 -2.79812 0
M  V30 756 C 76.481 4.10709 -1.07322 0
M  V30 757 C 74.388 4.92536 -3.27356 0
M  V30 758 H 73.318 0.701162 -0.277288 0
M  V30 759 H 75.969 1.32932 -1.26496 0
M  V30 760 H 74.351 3.89631 -0.707376 0
M  V30 761 H 75.525 3.06332 -3.44235 0
M  V30 762 H 73.84 2.88433 -3.00325 0
M  V30 763 H 76.437 5.15952 -1.4035 0
M  V30 764 H 76.78 4.16299 -0.0108001 0
M  V30 765 H 77.313 3.6313 -1.62423 0
M  V30 766 H 74.052 4.92119 -4.33012 0
M  V30 767 H 73.572 5.3676 -2.67673 0
M  V30 768 H 75.251 5.61288 -3.21815 0
M  V30 769 N 75.3831 0.828654 1.34056 0
M  V30 770 C 76.3461 0.259927 2.27721 0
M  V30 771 C 77.3461 -0.565478 1.50529 0
M  V30 772 O 78.5361 -0.38075 1.69988 0
M  V30 773 C 75.6681 -0.634944 3.34935 0
M  V30 774 H 76.8611 1.0863 2.79534 0
M  V30 775 H 74.4141 0.600951 1.44285 0
M  V30 776 H 75.1491 -1.48416 2.88346 0
M  V30 777 H 74.9341 -0.0444999 3.92075 0
M  V30 778 H 76.4241 -1.02648 4.04788 0
M  V30 779 N 76.8612 -1.46375 0.584142 0
M  V30 780 C 77.7912 -2.33103 -0.136037 0
M  V30 781 C 78.7722 -1.45431 -0.882255 0
M  V30 782 O 79.9572 -1.74246 -0.857434 0
M  V30 783 C 77.0872 -3.27731 -1.14933 0
M  V30 784 C 76.0412 -4.24855 -0.517862 0
M  V30 785 C 75.3672 -5.09001 -1.63773 0
M  V30 786 C 76.6672 -5.19439 0.545886 0
M  V30 787 H 78.3612 -2.93568 0.588086 0
M  V30 788 H 75.9072 -1.41166 0.284259 0
M  V30 789 H 77.8602 -3.87261 -1.66153 0
M  V30 790 H 76.5842 -2.65377 -1.90375 0
M  V30 791 H 75.2432 -3.6659 -0.0267361 0
M  V30 792 H 74.8912 -4.43031 -2.38185 0
M  V30 793 H 74.5912 -5.74777 -1.22085 0
M  V30 794 H 76.1152 -5.71396 -2.15266 0
M  V30 795 H 77.5292 -5.73177 0.118704 0
M  V30 796 H 75.9262 -5.93566 0.88317 0
M  V30 797 H 76.9962 -4.63285 1.43162 0
M  V30 798 N 78.3393 -0.321999 -1.54275 0
M  V30 799 C 79.5643 0.285791 -2.05422 0
M  V30 800 C 79.9893 1.45124 -1.19669 0
M  V30 801 O 79.3473 1.80132 -0.205441 0
M  V30 802 C 79.3953 0.69956 -3.53749 0
M  V30 803 O 78.4993 1.8021 -3.70942 0
M  V30 804 H 77.8403 0.0518962 -0.661969 0
M  V30 805 H 80.3703 -0.469954 -1.9913 0
M  V30 806 H 80.3803 0.982649 -3.9599 0
M  V30 807 H 79.0553 -0.152864 -4.15619 0
M  V30 808 H 77.6323 1.51794 -3.40607 0
M  V30 809 N 79.8174 1.5752 -0.0501392 0
M  V30 810 C 81.0944 1.83996 0.663685 0
M  V30 811 C 81.4744 0.938339 1.89099 0
M  V30 812 O 80.8224 -0.00087759 2.285 0
M  V30 813 C 81.0324 3.33702 1.02196 0
M  V30 814 C 82.3804 4.00691 1.40469 0
M  V30 815 O 83.4044 3.38321 1.11433 0
M  V30 816 O 82.2634 5.10658 1.94654 0
M  V30 817 H 79.3574 0.759385 0.32751 0
M  V30 818 H 81.9034 1.69514 -0.0794238 0
M  V30 819 H 80.6754 3.91015 0.149364 0
M  V30 820 H 80.2984 3.53368 1.82255 0
M  V30 821 N 81.2955 -0.223234 1.56011 0
M  V30 822 C 82.2585 -1.26014 1.9145 0
M  V30 823 C 83.2585 -1.3989 0.792937 0
M  V30 824 O 84.4485 -1.38184 1.0607 0
M  V30 825 C 81.5805 -2.63422 2.16383 0
M  V30 826 H 82.7735 -0.95796 2.84189 0
M  V30 827 H 80.3265 -0.463576 1.49267 0
M  V30 828 H 81.0615 -2.98741 1.2619 0
M  V30 829 H 80.8465 -2.54728 2.98088 0
M  V30 830 H 82.3365 -3.38249 2.44903 0
M  V30 831 N 82.7736 -1.49793 -0.48987 0
M  V30 832 C 84.1896 -1.36803 -0.822022 0
M  V30 833 C 84.3896 -0.409652 -1.97292 0
M  V30 834 O 83.4456 0.154614 -2.52026 0
M  V30 835 C 84.7586 -2.77768 -1.15175 0
M  V30 836 C 86.3066 -2.86549 -1.25931 0
M  V30 837 C 86.7816 -4.28306 -1.62228 0
M  V30 838 N 88.2726 -4.31169 -1.69256 0
M  V30 839 C 89.0076 -5.37832 -1.98807 0
M  V30 840 N 88.5036 -6.54726 -2.26507 0
M  V30 841 N 90.2966 -5.25258 -2.00152 0
M  V30 842 H 82.4476 -2.10691 0.268881 0
M  V30 843 H 84.7106 -0.946241 0.057728 0
M  V30 844 H 84.4166 -3.49648 -0.379335 0
M  V30 845 H 84.2906 -3.13836 -2.09253 0
M  V30 846 H 86.6776 -2.14899 -2.02243 0
M  V30 847 H 86.7586 -2.54049 -0.298776 0
M  V30 848 H 86.4026 -5.00486 -0.864622 0
M  V30 849 H 86.3326 -4.58279 -2.594 0
M  V30 850 H 88.8236 -3.4687 -1.49965 0
M  V30 851 H 89.1366 -7.31833 -2.48276 0
M  V30 852 H 87.4816 -6.57933 -2.23939 0
M  V30 853 H 90.6726 -4.32938 -1.77996 0
M  V30 854 H 90.8456 -6.08476 -2.22848 0
M  V30 855 N 84.2517 0.741722 -1.39055 0
M  V30 856 C 85.4767 1.53607 -1.39354 0
M  V30 857 C 85.9017 1.88096 0.0116905 0
M  V30 858 O 85.2597 1.5143 0.996924 0
M  V30 859 C 85.3077 2.80441 -2.26682 0
M  V30 860 O 84.4117 3.76088 -1.69208 0
M  V30 861 H 83.7527 0.464142 -0.474835 0
M  V30 862 H 86.2827 0.915665 -1.82967 0
M  V30 863 H 86.2927 3.29246 -2.40959 0
M  V30 864 H 84.9677 2.5467 -3.2881 0
M  V30 865 H 83.5447 3.34833 -1.64138 0
M  V30 866 N 85.7298 1.2412 0.971189 0
M  V30 867 C 86.6628 0.97373 2.06382 0
M  V30 868 C 87.6408 -0.0912662 1.62344 0
M  V30 869 O 88.8248 0.0449365 1.88446 0
M  V30 870 C 85.9518 0.468746 3.35441 0
M  V30 871 C 84.9978 1.52176 3.98428 0
M  V30 872 S 85.8308 3.10203 4.36503 0
M  V30 873 C 86.9868 2.61398 5.68702 0
M  V30 874 H 87.2198 1.89893 2.28753 0
M  V30 875 H 84.7528 1.07466 1.10862 0
M  V30 876 H 86.7108 0.184012 4.10087 0
M  V30 877 H 85.3718 -0.435688 3.11064 0
M  V30 878 H 84.5648 1.11876 4.91426 0
M  V30 879 H 84.1668 1.75632 3.30196 0
M  V30 880 H 86.4588 2.03992 6.4606 0
M  V30 881 H 87.4018 3.52972 6.13854 0
M  V30 882 H 87.8098 2.01941 5.27143 0
M  V30 883 N 87.2079 -1.17134 1.05439 0
M  V30 884 C 88.1549 -2.21235 0.657539 0
M  V30 885 C 89.1249 -1.62551 -0.341543 0
M  V30 886 O 90.3099 -1.89379 -0.232393 0
M  V30 887 C 87.4499 -3.45076 0.0410575 0
M  V30 888 C 86.5629 -4.18042 1.08927 0
M  V30 889 C 85.6979 -5.29376 0.439848 0
M  V30 890 C 84.7369 -5.94132 1.4722 0
M  V30 891 N 83.8739 -6.96975 0.846756 0
M  V30 892 H 88.7139 -2.54534 1.54972 0
M  V30 893 H 86.2509 -1.25028 0.775006 0
M  V30 894 H 88.2089 -4.15862 -0.33383 0
M  V30 895 H 86.8389 -3.12353 -0.814568 0
M  V30 896 H 85.8909 -3.45945 1.58196 0
M  V30 897 H 87.2029 -4.62306 1.87282 0
M  V30 898 H 86.3569 -6.06699 0.0115125 0
M  V30 899 H 85.0959 -4.86251 -0.375656 0
M  V30 900 H 84.1009 -5.15538 1.91052 0
M  V30 901 H 85.3259 -6.39337 2.28965 0
M  V30 902 H 83.2719 -6.5598 0.0518075 0
M  V30 903 H 83.1889 -7.39565 1.5678 0
M  V30 904 H 84.4569 -7.78239 0.443277 0
M  V30 905 N 88.686 -0.835752 -1.33615 0
M  V30 906 C 89.636 -0.238856 -2.26745 0
M  V30 907 C 90.62 0.604343 -1.49119 0
M  V30 908 O 91.812 0.456822 -1.71003 0
M  V30 909 C 88.941 0.587725 -3.38232 0
M  V30 910 C 88.027 -0.266811 -4.2326 0
M  V30 911 N 88.418 -1.34403 -4.87616 0
M  V30 912 C 86.716 -0.0533131 -4.45968 0
M  V30 913 C 87.417 -1.86819 -5.50884 0
M  V30 914 N 86.393 -1.17013 -5.30857 0
M  V30 915 H 90.195 -1.06266 -2.74016 0
M  V30 916 H 87.709 -0.679881 -1.47483 0
M  V30 917 H 89.706 1.03161 -4.03935 0
M  V30 918 H 88.366 1.40954 -2.9251 0
M  V30 919 H 89.377 -1.7269 -4.88261 0
M  V30 920 H 86.054 0.735312 -4.10974 0
M  V30 921 H 87.444 -2.7701 -6.1214 0
M  V30 922 N 90.1641 1.46063 -0.591896 0
M  V30 923 C 91.1271 2.28854 0.125973 0
M  V30 924 C 92.1271 1.38903 0.810107 0
M  V30 925 O 93.3171 1.61186 0.66066 0
M  V30 926 C 90.4491 3.19526 1.1881 0
M  V30 927 H 91.6421 2.93802 -0.601717 0
M  V30 928 H 89.1951 1.52325 -0.350254 0
M  V30 929 H 89.9301 2.59345 1.94707 0
M  V30 930 H 89.7151 3.85766 0.701936 0
M  V30 931 H 91.2051 3.81817 1.69132 0
M  V30 932 N 91.6422 0.330177 1.54103 0
M  V30 933 C 92.5722 -0.525353 2.27513 0
M  V30 934 C 93.5532 -1.11383 1.2856 0
M  V30 935 O 94.7382 -1.13773 1.57383 0
M  V30 936 C 91.8682 -1.6831 3.03791 0
M  V30 937 C 90.8222 -1.2236 4.10137 0
M  V30 938 C 90.1482 -2.46882 4.74293 0
M  V30 939 C 91.4482 -0.333697 5.21233 0
M  V30 940 H 93.1422 0.087013 2.99274 0
M  V30 941 H 90.6882 0.0432893 1.43935 0
M  V30 942 H 92.6412 -2.28795 3.5388 0
M  V30 943 H 91.3652 -2.32216 2.29659 0
M  V30 944 H 90.0242 -0.64165 3.60941 0
M  V30 945 H 89.6722 -3.09165 3.96769 0
M  V30 946 H 89.3722 -2.16825 5.46133 0
M  V30 947 H 90.8962 -3.08117 5.27159 0
M  V30 948 H 92.3102 -0.845013 5.67038 0
M  V30 949 H 90.7072 -0.125612 5.99969 0
M  V30 950 H 91.7772 0.633724 4.80741 0
M  V30 951 N 93.1203 -1.57491 0.0584922 0
M  V30 952 C 94.5363 -1.56792 -0.298091 0
M  V30 953 C 94.7363 -1.06679 -1.70944 0
M  V30 954 O 93.7923 -0.726672 -2.41818 0
M  V30 955 C 95.1053 -3.00461 -0.119879 0
M  V30 956 C 96.6533 -3.1242 -0.190428 0
M  V30 957 C 97.1283 -4.57982 -0.0406567 0
M  V30 958 N 98.6193 -4.63099 -0.0966958 0
M  V30 959 C 99.3543 -5.734 -0.00502943 0
M  V30 960 N 98.8503 -6.9266 0.139402 0
M  V30 961 N 100.643 -5.62067 -0.0611391 0
M  V30 962 H 92.7943 -1.88386 0.98105 0
M  V30 963 H 95.0573 -0.867865 0.381463 0
M  V30 964 H 94.7633 -3.41187 0.85349 0
M  V30 965 H 94.6373 -3.66843 -0.877833 0
M  V30 966 H 97.0243 -2.71589 -1.15427 0
M  V30 967 H 97.1053 -2.48702 0.598405 0
M  V30 968 H 96.7493 -4.995 0.919897 0
M  V30 969 H 96.6793 -5.19715 -0.848727 0
M  V30 970 H 99.1703 -3.77331 -0.207277 0
M  V30 971 H 99.4833 -7.72536 0.201855 0
M  V30 972 H 97.8283 -6.94781 0.174586 0
M  V30 973 H 101.019 -4.67782 -0.172583 0
M  V30 974 H 101.192 -6.47999 0.0137562 0
M  V30 975 N 94.5984 0.214957 -1.56127 0
M  V30 976 C 95.5084 1.28727 -1.96129 0
M  V30 977 C 96.5244 1.50916 -0.866044 0
M  V30 978 O 97.7004 1.63918 -1.17016 0
M  V30 979 C 94.7654 2.61569 -2.27558 0
M  V30 980 C 93.8264 2.47625 -3.50685 0
M  V30 981 C 93.0594 3.74132 -3.80606 0
M  V30 982 O 93.2824 4.77438 -3.12104 0
M  V30 983 O 92.2164 3.70849 -4.74083 0
M  V30 984 H 96.0424 0.977855 -2.87527 0
M  V30 985 H 93.6274 0.418358 -1.43423 0
M  V30 986 H 95.5094 3.40012 -2.48938 0
M  V30 987 H 94.1844 2.92178 -1.39332 0
M  V30 988 H 93.0914 1.67361 -3.34576 0
M  V30 989 H 94.4244 2.21954 -4.39315 0
M  V30 990 N 96.0765 1.50051 0.48192 0
M  V30 991 C 97.3255 1.59741 1.23149 0
M  V30 992 C 97.6385 0.298163 1.93314 0
M  V30 993 O 98.8445 0.273835 2.70116 0
M  V30 994 C 97.3005 2.81926 2.23708 0
M  V30 995 C 96.9085 4.18685 1.59396 0
M  V30 996 C 98.6525 3.00956 2.99375 0
M  V30 997 C 96.5595 5.3207 2.58178 0
M  V30 998 H 95.4895 0.594838 0.46334 0
M  V30 999 H 98.1405 1.76467 0.503169 0
M  V30 1000 H 96.5225 2.58736 2.99786 0
M  V30 1001 H 97.6965 4.52088 0.891811 0
M  V30 1002 H 96.0115 4.05171 0.960503 0
M  V30 1003 H 98.6085 3.82836 3.73283 0
M  V30 1004 H 98.9515 2.12258 3.58123 0
M  V30 1005 H 99.4845 3.24277 2.30411 0
M  V30 1006 H 96.2235 6.22888 2.04184 0
M  V30 1007 H 95.7435 5.03098 3.26577 0
M  V30 1008 H 97.4225 5.62196 3.20225 0
M  V30 1009 N 97.5546 -0.734337 1.39446 0
M  V30 1010 C 98.5016 -1.84835 1.38219 0
M  V30 1011 C 99.4716 -1.64331 0.24179 0
M  V30 1012 O 100.657 -1.85728 0.437002 0
M  V30 1013 C 97.7966 -3.22355 1.23212 0
M  V30 1014 C 96.9096 -3.5456 2.46801 0
M  V30 1015 C 96.0446 -4.81485 2.24377 0
M  V30 1016 C 95.0836 -5.06536 3.43639 0
M  V30 1017 N 94.2206 -6.24665 3.20528 0
M  V30 1018 H 99.0606 -1.85219 2.33448 0
M  V30 1019 H 96.5976 -0.905039 1.15963 0
M  V30 1020 H 98.5556 -4.0174 1.12522 0
M  V30 1021 H 97.1856 -3.21248 0.316121 0
M  V30 1022 H 96.2376 -2.69872 2.68092 0
M  V30 1023 H 97.5496 -3.6899 3.3563 0
M  V30 1024 H 96.7036 -5.68852 2.10933 0
M  V30 1025 H 95.4426 -4.6923 1.32944 0
M  V30 1026 H 94.4476 -4.17632 3.5758 0
M  V30 1027 H 95.6726 -5.20676 4.35974 0
M  V30 1028 H 93.6186 -6.13696 2.3176 0
M  V30 1029 H 93.5356 -6.39685 4.02913 0
M  V30 1030 H 94.8036 -7.14868 3.10779 0
M  V30 1031 N 99.0327 -1.24633 -0.964593 0
M  V30 1032 C 100.282 -1.08188 -1.7023 0
M  V30 1033 C 100.595 0.37873 -1.91898 0
M  V30 1034 O 101.801 0.663427 -2.6327 0
M  V30 1035 C 100.257 -1.88773 -3.06419 0
M  V30 1036 C 99.8647 -3.39263 -2.92582 0
M  V30 1037 C 101.609 -1.80867 -3.84041 0
M  V30 1038 C 99.5157 -4.1218 -4.24101 0
M  V30 1039 H 98.4457 -0.401245 -0.638372 0
M  V30 1040 H 101.097 -1.48742 -1.07462 0
M  V30 1041 H 99.4787 -1.41035 -3.70034 0
M  V30 1042 H 100.653 -3.94603 -2.37961 0
M  V30 1043 H 98.9677 -3.48154 -2.28424 0
M  V30 1044 H 101.565 -2.32646 -4.81435 0
M  V30 1045 H 101.908 -0.774543 -4.09031 0
M  V30 1046 H 102.441 -2.26301 -3.27159 0
M  V30 1047 H 99.1797 -5.15965 -4.04303 0
M  V30 1048 H 98.6997 -3.61626 -4.78526 0
M  V30 1049 H 100.379 -4.19349 -4.92702 0
M  V30 1050 N 100.511 1.16574 -1.06058 0
M  V30 1051 C 101.76 1.86385 -0.770944 0
M  V30 1052 C 102.073 1.82448 0.705129 0
M  V30 1053 O 103.279 2.47815 1.10905 0
M  V30 1054 C 101.735 3.34466 -1.32893 0
M  V30 1055 C 101.343 3.46883 -2.83507 0
M  V30 1056 C 103.087 4.09548 -1.11672 0
M  V30 1057 C 100.994 4.89036 -3.32562 0
M  V30 1058 H 99.9238 0.698181 -0.284709 0
M  V30 1059 H 102.575 1.31583 -1.27899 0
M  V30 1060 H 100.957 3.88859 -0.748662 0
M  V30 1061 H 102.131 3.02663 -3.47465 0
M  V30 1062 H 100.446 2.85232 -3.03368 0
M  V30 1063 H 103.043 5.14434 -1.45814 0
M  V30 1064 H 103.386 4.16264 -0.0549535 0
M  V30 1065 H 103.919 3.61387 -1.66265 0
M  V30 1066 H 100.658 4.87499 -4.38207 0
M  V30 1067 H 100.178 5.3389 -2.73351 0
M  V30 1068 H 101.857 5.57843 -3.2775 0
M  V30 1069 N 101.989 0.842826 1.3317 0
M  V30 1070 C 103.405 0.531128 1.50503 0
M  V30 1071 C 103.605 -0.940734 1.78192 0
M  V30 1072 O 102.661 -1.72436 1.84451 0
M  V30 1073 C 103.974 1.40789 2.65705 0
M  V30 1074 C 105.522 1.40708 2.79589 0
M  V30 1075 C 105.997 2.26878 3.97857 0
M  V30 1076 N 107.488 2.24609 4.05099 0
M  V30 1077 C 108.223 2.88019 4.95815 0
M  V30 1078 N 107.719 3.60496 5.9162 0
M  V30 1079 N 109.512 2.77469 4.88843 0
M  V30 1080 H 101.663 1.79557 1.1346 0
M  V30 1081 H 103.926 0.766267 0.558156 0
M  V30 1082 H 103.632 2.454 2.51936 0
M  V30 1083 H 103.506 1.08677 3.61205 0
M  V30 1084 H 105.893 0.368668 2.92788 0
M  V30 1085 H 105.974 1.76829 1.84838 0
M  V30 1086 H 105.618 3.3078 3.85418 0
M  V30 1087 H 105.548 1.88096 4.91861 0
M  V30 1088 H 108.039 1.71906 3.36536 0
M  V30 1089 H 108.352 4.06076 6.57512 0
M  V30 1090 H 106.697 3.64604 5.91683 0
M  V30 1091 H 109.888 2.20406 4.12963 0
M  V30 1092 H 110.061 3.2717 5.59342 0
M  V30 1093 N 103.467 -1.45747 0.599634 0
M  V30 1094 C 104.883 -1.57424 0.26264 0
M  V30 1095 C 105.083 -1.59222 -1.23493 0
M  V30 1096 O 104.139 -1.51825 -2.01756 0
M  V30 1097 C 105.452 -2.86061 0.926795 0
M  V30 1098 C 107 -2.99722 0.901967 0
M  V30 1099 C 107.475 -4.31119 1.54598 0
M  V30 1100 N 108.966 -4.37858 1.5111 0
M  V30 1101 C 109.701 -5.3818 1.97863 0
M  V30 1102 N 109.197 -6.45083 2.52666 0
M  V30 1103 N 110.99 -5.29487 1.88679 0
M  V30 1104 H 103.141 -1.42823 1.57211 0
M  V30 1105 H 105.404 -0.68235 0.658105 0
M  V30 1106 H 105.11 -2.90605 1.98095 0
M  V30 1107 H 104.984 -3.74563 0.445238 0
M  V30 1108 H 107.371 -2.9475 -0.143617 0
M  V30 1109 H 107.452 -2.12652 1.42171 0
M  V30 1110 H 107.096 -4.36849 2.59085 0
M  V30 1111 H 107.026 -5.16992 1.00132 0
M  V30 1112 H 109.517 -3.61209 1.11068 0
M  V30 1113 H 109.83 -7.17869 2.86155 0
M  V30 1114 H 108.175 -6.45856 2.56701 0
M  V30 1115 H 111.366 -4.44877 1.4561 0
M  V30 1116 H 111.539 -6.07524 2.25429 0
M  V30 1117 N 104.945 -0.338344 -1.53925 0
M  V30 1118 C 105.875 0.51328 -2.27789 0
M  V30 1119 C 106.856 1.107 -1.29149 0
M  V30 1120 O 108.041 1.12937 -1.57984 0
M  V30 1121 C 105.171 1.66697 -3.04679 0
M  V30 1122 C 104.125 1.20183 -4.1078 0
M  V30 1123 C 103.451 2.44363 -4.75595 0
M  V30 1124 C 104.751 0.30605 -5.21403 0
M  V30 1125 H 106.445 -0.102883 -2.99223 0
M  V30 1126 H 103.991 -0.0509219 -1.4391 0
M  V30 1127 H 105.944 2.26915 -3.55088 0
M  V30 1128 H 104.668 2.30995 -2.30887 0
M  V30 1129 H 103.327 0.622499 -3.61276 0
M  V30 1130 H 102.975 3.07057 -3.98403 0
M  V30 1131 H 102.675 2.13925 -5.47275 0
M  V30 1132 H 104.199 3.05317 -5.28786 0
M  V30 1133 H 105.613 0.814929 -5.67478 0
M  V30 1134 H 104.01 0.0937929 -6.00027 0
M  V30 1135 H 105.08 -0.65921 -4.80398 0
M  V30 1136 N 106.423 1.57458 -0.0668435 0
M  V30 1137 C 107.7 1.8469 0.644132 0
M  V30 1138 C 108.08 0.958343 1.88093 0
M  V30 1139 O 107.428 0.0233579 2.28488 0
M  V30 1140 C 107.638 3.34767 0.986509 0
M  V30 1141 C 108.986 4.02159 1.36212 0
M  V30 1142 O 110.01 3.39484 1.07839 0
M  V30 1143 O 108.869 5.12694 1.89227 0
M  V30 1144 H 105.963 0.762816 0.319437 0
M  V30 1145 H 108.509 1.6942 -0.0973986 0
M  V30 1146 H 107.281 3.91151 0.107883 0
M  V30 1147 H 106.904 3.55281 1.78497 0
M  V30 1148 N 107.901 -0.206675 1.56239 0
M  V30 1149 C 108.851 -1.26 1.90021 0
M  V30 1150 C 109.835 -1.41566 0.764721 0
M  V30 1151 O 111.027 -1.44131 1.02739 0
M  V30 1152 C 108.156 -2.6073 2.23326 0
M  V30 1153 C 107.242 -2.49005 3.43304 0
M  V30 1154 N 107.633 -2.06946 4.61527 0
M  V30 1155 C 105.931 -2.79927 3.47213 0
M  V30 1156 C 106.632 -2.06832 5.43687 0
M  V30 1157 N 105.608 -2.47892 4.83788 0
M  V30 1158 H 109.41 -0.925955 2.78932 0
M  V30 1159 H 106.924 -0.415172 1.57003 0
M  V30 1160 H 108.921 -3.36798 2.45708 0
M  V30 1161 H 107.581 -2.94968 1.35735 0
M  V30 1162 H 108.592 -1.77839 4.86409 0
M  V30 1163 H 105.269 -3.18438 2.70006 0
M  V30 1164 H 106.659 -1.76312 6.48354 0
M  V30 1165 N 109.379 -1.50304 -0.473955 0
M  V30 1166 C 110.656 -1.51667 -1.23518 0
M  V30 1167 C 111.036 -0.259701 -2.09496 0
M  V30 1168 O 110.384 0.756986 -2.15597 0
M  V30 1169 C 110.594 -2.81082 -2.06868 0
M  V30 1170 C 111.942 -3.31631 -2.65153 0
M  V30 1171 O 112.966 -2.82384 -2.17113 0
M  V30 1172 O 111.825 -4.17471 -3.52675 0
M  V30 1173 H 108.919 -0.60822 -0.560355 0
M  V30 1174 H 111.465 -1.62592 -0.486011 0
M  V30 1175 H 110.237 -3.64041 -1.4349 0
M  V30 1176 H 109.86 -2.73146 -2.88924 0
M  V30 1177 N 110.857 0.726932 -1.39834 0
M  V30 1178 C 111.805 1.86235 -1.39353 0
M  V30 1179 C 112.799 1.67144 -0.275555 0
M  V30 1180 O 114.005 1.74387 -0.44601 0
M  V30 1181 H 110.38 0.613174 -0.43534 0
M  V30 1182 H 112.351 1.83756 -2.35109 0
M  V30 1183 C 111.1 3.23995 -1.26185 0
M  V30 1184 H 110.423 3.39285 -2.11484 0
M  V30 1185 H 111.863 4.03609 -1.29907 0
M  V30 1186 C 110.322 3.36888 0.0290018 0
M  V30 1187 O 110.852 3.89152 0.99619 0
M  V30 1188 N 109.058 2.90446 0.0947437 0
M  V30 1189 H 108.605 2.48102 -0.693035 0
M  V30 1190 H 108.563 2.99451 0.957932 0
M  V30 1191 N 112.336 1.25143 0.95797 0
M  V30 1192 C 113.585 1.0909 1.69654 0
M  V30 1193 C 113.898 -0.368548 1.92097 0
M  V30 1194 O 115.104 -0.649455 2.63618 0
M  V30 1195 C 113.56 1.90395 3.05414 0
M  V30 1196 C 113.168 3.4081 2.90779 0
M  V30 1197 C 114.912 1.82901 3.83076 0
M  V30 1198 C 112.819 4.14423 4.21909 0
M  V30 1199 H 111.749 0.404625 0.636235 0
M  V30 1200 H 114.4 1.4931 1.06672 0
M  V30 1201 H 112.782 1.42996 3.69281 0
M  V30 1202 H 113.956 3.95859 2.35865 0
M  V30 1203 H 112.271 3.49361 2.26575 0
M  V30 1204 H 114.868 2.35196 4.80195 0
M  V30 1205 H 115.211 0.796224 4.08615 0
M  V30 1206 H 115.744 2.28033 3.25954 0
M  V30 1207 H 112.483 5.18102 4.01561 0
M  V30 1208 H 112.003 3.64159 4.76601 0
M  V30 1209 H 113.682 4.21956 4.90471 0
M  V30 1210 N 113.814 -1.1601 1.06675 0
M  V30 1211 C 115.06 -1.86909 0.786945 0
M  V30 1212 C 115.393 -1.81717 -0.685018 0
M  V30 1213 O 114.668 -1.23551 -1.50218 0
M  V30 1214 C 114.951 -3.36313 1.28707 0
M  V30 1215 C 114.804 -3.50175 2.82308 0
M  V30 1216 C 116.123 -4.3084 0.898071 0
M  V30 1217 H 113.242 -0.678677 0.287343 0
M  V30 1218 H 115.884 -1.36336 1.32334 0
M  V30 1219 H 114.034 -3.79513 0.830768 0
M  V30 1220 H 115.706 -3.15886 3.36175 0
M  V30 1221 H 113.949 -2.91959 3.20847 0
M  V30 1222 H 114.62 -4.55116 3.12368 0
M  V30 1223 H 117.096 -3.95561 1.29114 0
M  V30 1224 H 115.972 -5.33876 1.27543 0
M  V30 1225 H 116.233 -4.41662 -0.196651 0
M  V30 1226 N 115.292 -0.849877 -1.32721 0
M  V30 1227 C 116.239 -0.289033 -2.28983 0
M  V30 1228 C 117.209 0.601324 -1.54833 0
M  V30 1229 O 118.394 0.537253 -1.8308 0
M  V30 1230 C 115.534 0.520623 -3.4115 0
M  V30 1231 C 114.647 -0.394989 -4.3019 0
M  V30 1232 C 113.782 0.426834 -5.29482 0
M  V30 1233 C 112.821 -0.486476 -6.10164 0
M  V30 1234 N 111.958 0.297879 -7.01468 0
M  V30 1235 H 116.798 -1.11519 -2.76347 0
M  V30 1236 H 114.335 -0.56138 -1.35967 0
M  V30 1237 H 116.293 1.00563 -4.04899 0
M  V30 1238 H 114.923 1.31165 -2.9495 0
M  V30 1239 H 113.975 -0.99836 -3.67065 0
M  V30 1240 H 115.287 -1.09612 -4.86607 0
M  V30 1241 H 114.441 0.975205 -5.98811 0
M  V30 1242 H 113.18 1.16136 -4.73671 0
M  V30 1243 H 112.185 -1.04677 -5.39743 0
M  V30 1244 H 113.41 -1.21953 -6.6806 0
M  V30 1245 H 111.356 1.01558 -6.48091 0
M  V30 1246 H 111.273 -0.344318 -7.55216 0
M  V30 1247 H 112.541 0.828131 -7.75089 0
M  V30 1248 N 116.77 1.45427 -0.607355 0
M  V30 1249 C 118.016 2.0254 -0.102607 0
M  V30 1250 C 118.349 1.47478 1.26348 0
M  V30 1251 O 117.624 0.64939 1.83339 0
M  V30 1252 C 117.907 3.60044 -0.0634347 0
M  V30 1253 C 117.76 4.2544 -1.46017 0
M  V30 1254 C 119.079 4.35646 0.624514 0
M  V30 1255 H 116.198 0.73598 -0.0387607 0
M  V30 1256 H 118.84 1.73284 -0.779282 0
M  V30 1257 H 116.99 3.85101 0.512808 0
M  V30 1258 H 118.662 4.11569 -2.08347 0
M  V30 1259 H 116.905 3.83849 -2.02094 0
M  V30 1260 H 117.576 5.34342 -1.385 0
M  V30 1261 H 120.052 4.15882 0.134723 0
M  V30 1262 H 118.928 5.45376 0.621028 0
M  V30 1263 H 119.189 4.08501 1.69055 0
M  V30 1264 N 118.248 0.346503 1.53744 0
M  V30 1265 C 119.478 -0.250047 2.05081 0
M  V30 1266 C 119.886 -1.44529 1.22098 0
M  V30 1267 O 119.229 -1.81992 0.249917 0
M  V30 1268 C 119.291 -0.725934 3.52094 0
M  V30 1269 C 118.955 0.350053 4.55657 0
M  V30 1270 C 119.952 1.19372 5.0601 0
M  V30 1271 C 117.637 0.504827 4.99757 0
M  V30 1272 C 119.631 2.17768 5.99046 0
M  V30 1273 C 117.318 1.49218 5.92602 0
M  V30 1274 C 118.316 2.32706 6.42135 0
M  V30 1275 O 118.004 3.2976 7.33153 0
M  V30 1276 H 117.736 -0.0515469 0.674032 0
M  V30 1277 H 120.29 0.497559 1.99282 0
M  V30 1278 H 118.52 -1.52483 3.55367 0
M  V30 1279 H 120.209 -1.24336 3.86388 0
M  V30 1280 H 120.975 1.08525 4.72702 0
M  V30 1281 H 116.854 -0.135178 4.60802 0
M  V30 1282 H 120.398 2.82971 6.37631 0
M  V30 1283 H 116.295 1.6012 6.25325 0
M  V30 1284 H 117.063 3.25265 7.51096 0
M  V30 1285 N 119.726 -1.57421 0.075193 0
M  V30 1286 C 120.636 -2.1642 -0.905511 0
M  V30 1287 C 121.652 -1.12828 -1.32461 0
M  V30 1288 O 122.828 -1.45109 -1.39661 0
M  V30 1289 C 119.893 -2.71693 -2.15369 0
M  V30 1290 C 118.954 -3.90171 -1.79068 0
M  V30 1291 C 118.187 -4.42798 -2.97936 0
M  V30 1292 O 118.41 -3.94416 -4.12058 0
M  V30 1293 O 117.344 -5.34085 -2.77555 0
M  V30 1294 H 121.17 -3.00588 -0.433626 0
M  V30 1295 H 118.755 -1.48664 -0.148067 0
M  V30 1296 H 120.637 -3.07104 -2.88557 0
M  V30 1297 H 119.312 -1.90582 -2.61649 0
M  V30 1298 H 118.219 -3.59606 -1.03122 0
M  V30 1299 H 119.552 -4.72584 -1.37569 0
M  V30 1300 N 121.204 0.198386 -1.56346 0
M  V30 1301 C 122.45 0.920648 -1.80698 0
M  V30 1302 C 122.783 1.83045 -0.648697 0
M  V30 1303 O 122.058 1.91308 0.350925 0
M  V30 1304 C 122.341 1.73971 -3.15287 0
M  V30 1305 C 122.194 0.85485 -4.41602 0
M  V30 1306 C 123.513 2.71296 -3.46535 0
M  V30 1307 H 120.632 0.333261 -0.657348 0
M  V30 1308 H 123.274 0.188198 -1.89066 0
M  V30 1309 H 121.424 2.36416 -3.08285 0
M  V30 1310 H 123.096 0.245362 -4.60647 0
M  V30 1311 H 121.339 0.161398 -4.335 0
M  V30 1312 H 122.01 1.46286 -5.32264 0
M  V30 1313 H 124.486 2.18983 -3.53816 0
M  V30 1314 H 123.362 3.2569 -4.41834 0
M  V30 1315 H 123.623 3.5018 -2.69864 0
M  V30 1316 N 122.682 1.50554 0.465978 0
M  V30 1317 C 123.612 1.72722 1.57128 0
M  V30 1318 C 124.593 0.576294 1.6004 0
M  V30 1319 O 125.778 0.81598 1.76225 0
M  V30 1320 C 122.908 1.82605 2.95419 0
M  V30 1321 C 121.862 2.97835 3.07373 0
M  V30 1322 C 121.188 2.92867 4.47363 0
M  V30 1323 C 122.488 4.38265 2.84114 0
M  V30 1324 H 124.182 2.65267 1.38829 0
M  V30 1325 H 121.728 1.2765 0.666441 0
M  V30 1326 H 123.681 1.96698 3.72677 0
M  V30 1327 H 122.405 0.866858 3.14886 0
M  V30 1328 H 121.064 2.83401 2.3255 0
M  V30 1329 H 120.712 1.94783 4.63755 0
M  V30 1330 H 120.412 3.70227 4.56296 0
M  V30 1331 H 121.936 3.09015 5.26633 0
M  V30 1332 H 123.35 4.53198 3.51118 0
M  V30 1333 H 121.747 5.17115 3.04487 0
M  V30 1334 H 122.817 4.50281 1.7993 0
M  V30 1335 N 124.16 -0.719506 1.40217 0
M  V30 1336 C 125.408 -1.47641 1.3801 0
M  V30 1337 C 125.729 -1.94992 -0.018145 0
M  V30 1338 O 124.999 -1.70073 -0.972207 0
M  V30 1339 H 123.579 -0.547744 0.507923 0
M  V30 1340 H 126.241 -0.853187 1.75233 0
M  V30 1341 H 125.337 -2.35112 2.05253 0
M  V30 1342 N 125.638 -1.25649 -0.95132 0
M  V30 1343 C 127.049 -1.09654 -1.51106 0
M  V30 1344 C 127.4 0.326615 -1.93462 0
M  V30 1345 O 126.525 1.21697 -1.78938 0
M  V30 1346 C 127.12 -1.98437 -2.74605 0
M  V30 1347 C 125.679 -1.86618 -3.2688 0
M  V30 1348 C 124.826 -1.9239 -1.99703 0
M  V30 1349 H 127.777 -1.38887 -0.767865 0
M  V30 1350 H 127.798 -1.5263 -3.48546 0
M  V30 1351 H 127.31 -3.02009 -2.43746 0
M  V30 1352 H 125.411 -0.859421 -3.62553 0
M  V30 1353 H 125.524 -2.71607 -3.94673 0
M  V30 1354 H 123.888 -1.36317 -2.15151 0
M  V30 1355 H 124.671 -2.97573 -1.71188 0
M  V30 1356 N 127.117 1.15442 -1.07289 0
M  V30 1357 C 128.064 2.20161 -0.692653 0
M  V30 1358 C 129.034 1.63073 0.31564 0
M  V30 1359 O 130.219 1.89725 0.202235 0
M  V30 1360 C 127.359 3.44967 -0.0959509 0
M  V30 1361 C 126.472 4.16256 -1.15564 0
M  V30 1362 C 125.607 5.28609 -0.524011 0
M  V30 1363 C 124.646 5.91715 -1.56653 0
M  V30 1364 N 123.783 6.9554 -0.957531 0
M  V30 1365 H 128.623 2.52037 -1.59002 0
M  V30 1366 H 126.16 1.2378 -0.794798 0
M  V30 1367 H 128.118 4.16341 0.267628 0
M  V30 1368 H 126.748 3.1361 0.764772 0
M  V30 1369 H 125.8 3.43385 -1.6368 0
M  V30 1370 H 127.112 4.59268 -1.94613 0
M  V30 1371 H 126.266 6.06604 -0.108032 0
M  V30 1372 H 125.005 4.86787 0.29825 0
M  V30 1373 H 124.01 5.12433 -1.9923 0
M  V30 1374 H 125.235 6.35614 -2.39107 0
M  V30 1375 H 123.181 6.55814 -0.156162 0
M  V30 1376 H 123.098 7.36977 -1.68526 0
M  V30 1377 H 124.366 7.77435 -0.567032 0
M  V30 1378 N 128.595 0.856903 1.32268 0
M  V30 1379 C 129.843 0.460474 1.96784 0
M  V30 1380 C 130.164 -0.987701 1.68135 0
M  V30 1381 O 129.434 -1.69058 0.989765 0
M  V30 1382 H 128.014 0.167289 0.728027 0
M  V30 1383 H 130.676 1.09383 1.61312 0
M  V30 1384 H 129.772 0.60739 3.06133 0
M  V30 1385 N 130.073 -1.45103 0.615059 0
M  V30 1386 C 131.301 -2.06553 0.11977 0
M  V30 1387 C 131.716 -1.45842 -1.19898 0
M  V30 1388 O 131.073 -0.575325 -1.73194 0
M  V30 1389 C 131.124 -3.61495 -0.018364 0
M  V30 1390 O 130.845 -4.19942 1.24822 0
M  V30 1391 C 132.346 -4.39947 -0.544237 0
M  V30 1392 H 129.566 -0.667096 0.0722739 0
M  V30 1393 H 132.11 -1.8623 0.84491 0
M  V30 1394 H 130.265 -3.81135 -0.693865 0
M  V30 1395 H 130.679 -5.13204 1.0827 0
M  V30 1396 H 132.153 -5.48838 -0.589953 0
M  V30 1397 H 132.63 -4.10255 -1.56805 0
M  V30 1398 H 133.236 -4.25188 0.0974703 0
M  V30 1399 N 131.551 -0.354651 -1.53558 0
M  V30 1400 C 132.828 0.294281 -1.93374 0
M  V30 1401 C 133.208 1.67313 -1.28723 0
M  V30 1402 O 132.556 2.24179 -0.442247 0
M  V30 1403 C 132.766 0.355445 -3.47185 0
M  V30 1404 C 134.114 0.601007 -4.20325 0
M  V30 1405 O 135.138 0.437106 -3.53508 0
M  V30 1406 O 133.997 0.919322 -5.38712 0
M  V30 1407 H 131.091 0.174033 -0.808481 0
M  V30 1408 H 133.637 -0.406638 -1.64756 0
M  V30 1409 H 132.409 -0.611729 -3.86489 0
M  V30 1410 H 132.032 1.1027 -3.82003 0
M  V30 1411 N 133.029 1.57378 -0.0835403 0
M  V30 1412 C 133.959 2.1641 0.87686 0
M  V30 1413 C 134.94 1.09429 1.30228 0
M  V30 1414 O 136.125 1.37516 1.37124 0
M  V30 1415 C 133.255 2.73517 2.14022 0
M  V30 1416 C 132.209 3.85769 1.85381 0
M  V30 1417 C 131.535 4.29529 3.18448 0
M  V30 1418 C 132.835 5.09486 1.14984 0
M  V30 1419 H 134.529 2.96914 0.385059 0
M  V30 1420 H 132.075 1.42823 0.18377 0
M  V30 1421 H 134.028 3.13463 2.81636 0
M  V30 1422 H 132.752 1.90252 2.65465 0
M  V30 1423 H 131.411 3.46345 1.20169 0
M  V30 1424 H 131.059 3.43169 3.67755 0
M  V30 1425 H 130.759 5.05204 3.00071 0
M  V30 1426 H 132.283 4.72099 3.8724 0
M  V30 1427 H 133.697 5.46674 1.72687 0
M  V30 1428 H 132.094 5.90515 1.06826 0
M  V30 1429 H 133.164 4.84724 0.130749 0
M  V30 1430 N 134.507 -0.190092 1.56449 0
M  V30 1431 C 135.439 -1.25973 1.91477 0
M  V30 1432 C 136.452 -1.41452 0.805931 0
M  V30 1433 O 137.641 -1.41789 1.08435 0
M  V30 1434 C 134.741 -2.63117 2.13594 0
M  V30 1435 C 133.914 -2.69182 3.4476 0
M  V30 1436 C 132.973 -3.87557 3.5593 0
M  V30 1437 O 131.999 -3.74427 4.28711 0
M  V30 1438 N 133.201 -5.03224 2.89388 0
M  V30 1439 H 135.966 -0.962394 2.83828 0
M  V30 1440 H 133.527 -0.379981 1.57378 0
M  V30 1441 H 135.519 -3.40742 2.1835 0
M  V30 1442 H 134.089 -2.85319 1.27719 0
M  V30 1443 H 133.309 -1.77793 3.51828 0
M  V30 1444 H 134.597 -2.70229 4.31107 0
M  V30 1445 H 133.995 -5.16791 2.30094 0
M  V30 1446 H 132.552 -5.78778 2.99764 0
M  V30 1447 N 135.985 -1.50799 -0.457987 0
M  V30 1448 C 137.233 -1.62121 -1.2067 0
M  V30 1449 C 137.554 -0.329793 -1.92191 0
M  V30 1450 O 136.824 0.653409 -1.84682 0
M  V30 1451 H 135.404 -0.597441 -0.448411 0
M  V30 1452 H 138.066 -1.87637 -0.527096 0
M  V30 1453 H 137.162 -2.43882 -1.94751 0
M  V30 1454 N 137.463 0.71206 -1.40597 0
M  V30 1455 C 138.373 1.8562 -1.43466 0
M  V30 1456 C 139.389 1.70902 -0.326902 0
M  V30 1457 O 140.565 1.93105 -0.572043 0
M  V30 1458 C 137.63 3.21451 -1.29884 0
M  V30 1459 C 136.691 3.48398 -2.50833 0
M  V30 1460 C 135.924 4.77749 -2.3789 0
M  V30 1461 O 136.147 5.53089 -1.39459 0
M  V30 1462 O 135.081 5.05111 -3.27333 0
M  V30 1463 H 138.907 1.86155 -2.39958 0
M  V30 1464 H 136.492 0.86295 -1.21957 0
M  V30 1465 H 138.374 4.02579 -1.24531 0
M  V30 1466 H 137.049 3.21636 -0.364997 0
M  V30 1467 H 135.956 2.67265 -2.61763 0
M  V30 1468 H 137.289 3.53014 -3.4299 0
M  V30 1469 N 138.941 1.26152 0.944643 0
M  V30 1470 C 139.871 1.09902 2.06019 0
M  V30 1471 C 140.852 0.00519538 1.70099 0
M  V30 1472 O 142.037 0.176583 1.93396 0
M  V30 1473 C 139.167 0.727562 3.39594 0
M  V30 1474 C 138.121 1.77274 3.89561 0
M  V30 1475 C 137.447 1.25569 5.19747 0
M  V30 1476 C 138.747 3.17357 4.14827 0
M  V30 1477 H 140.441 2.03217 2.19871 0
M  V30 1478 H 137.987 0.978452 1.05652 0
M  V30 1479 H 139.94 0.600777 4.17095 0
M  V30 1480 H 138.664 -0.241287 3.25707 0
M  V30 1481 H 137.323 1.88814 3.14237 0
M  V30 1482 H 136.971 0.276783 5.02238 0
M  V30 1483 H 136.671 1.95433 5.54148 0
M  V30 1484 H 138.195 1.1415 5.99835 0
M  V30 1485 H 139.609 3.08914 4.82954 0
M  V30 1486 H 138.006 3.84781 4.60504 0
M  V30 1487 H 139.076 3.63673 3.20734 0
M  V30 1488 N 140.419 -1.14872 1.07899 0
M  V30 1489 C 141.666 -1.85789 0.805532 0
M  V30 1490 C 141.994 -1.82649 -0.668561 0
M  V30 1491 O 141.249 -1.24858 -1.50695 0
M  V30 1492 C 141.548 -3.34223 1.26609 0
M  V30 1493 C 141.214 -3.57555 2.74709 0
M  V30 1494 C 139.876 -3.63631 3.1516 0
M  V30 1495 C 142.228 -3.66803 3.70277 0
M  V30 1496 C 139.556 -3.76473 4.49983 0
M  V30 1497 C 141.908 -3.8117 5.04869 0
M  V30 1498 C 140.572 -3.85494 5.44932 0
M  V30 1499 H 139.842 -0.679849 0.294765 0
M  V30 1500 H 142.489 -1.3572 1.35101 0
M  V30 1501 H 140.794 -3.86536 0.640103 0
M  V30 1502 H 142.491 -3.87511 1.03132 0
M  V30 1503 H 139.081 -3.5347 2.42398 0
M  V30 1504 H 143.265 -3.61404 3.40149 0
M  V30 1505 H 138.521 -3.7808 4.80484 0
M  V30 1506 H 142.695 -3.87268 5.78789 0
M  V30 1507 H 140.322 -3.95197 6.49403 0
M  V30 1508 N 141.898 -0.863906 -1.31812 0
M  V30 1509 C 142.845 -0.313303 -2.28664 0
M  V30 1510 C 143.815 0.584868 -1.55462 0
M  V30 1511 O 145 0.517805 -1.83639 0
M  V30 1512 C 142.14 0.48441 -3.41683 0
M  V30 1513 C 141.253 -0.440594 -4.29747 0
M  V30 1514 C 140.388 0.370652 -5.29905 0
M  V30 1515 C 139.427 -0.551164 -6.09613 0
M  V30 1516 N 138.564 0.223462 -7.01744 0
M  V30 1517 H 143.404 -1.14444 -2.75148 0
M  V30 1518 H 140.941 -0.575769 -1.35364 0
M  V30 1519 H 142.899 0.962627 -4.05943 0
M  V30 1520 H 141.529 1.28029 -2.96325 0
M  V30 1521 H 140.581 -1.03724 -3.65986 0
M  V30 1522 H 141.893 -1.14767 -4.85417 0
M  V30 1523 H 141.047 0.911638 -5.99812 0
M  V30 1524 H 139.786 1.11105 -4.74876 0
M  V30 1525 H 138.791 -1.10396 -5.38603 0
M  V30 1526 H 140.016 -1.29032 -6.66729 0
M  V30 1527 H 137.962 0.946787 -6.49132 0
M  V30 1528 H 137.879 -0.424399 -7.54808 0
M  V30 1529 H 139.147 0.745876 -7.75923 0
M  V30 1530 N 143.376 1.44774 -0.622745 0
M  V30 1531 C 144.623 2.02121 -0.1239 0
M  V30 1532 C 144.951 1.48915 1.25118 0
M  V30 1533 O 144.206 0.660045 1.84233 0
M  V30 1534 C 144.505 3.57364 -0.0508323 0
M  V30 1535 C 144.171 4.29787 -1.36358 0
M  V30 1536 C 142.833 4.4929 -1.72314 0
M  V30 1537 C 145.185 4.71062 -2.23048 0
M  V30 1538 C 142.513 5.07325 -2.94682 0
M  V30 1539 C 144.865 5.30452 -3.44679 0
M  V30 1540 C 143.529 5.48175 -3.80868 0
M  V30 1541 H 142.799 0.739612 -0.0453381 0
M  V30 1542 H 145.446 1.73648 -0.807389 0
M  V30 1543 H 143.751 3.85202 0.715991 0
M  V30 1544 H 145.448 3.99456 0.351533 0
M  V30 1545 H 142.038 4.14932 -1.07375 0
M  V30 1546 H 146.222 4.55715 -1.96565 0
M  V30 1547 H 141.478 5.19235 -3.22809 0
M  V30 1548 H 145.652 5.61385 -4.12092 0
M  V30 1549 H 143.279 5.92912 -4.75773 0
M  V30 1550 N 144.854 0.36279 1.53368 0
M  V30 1551 C 146.079 -0.231226 2.06107 0
M  V30 1552 C 146.504 -1.419 1.23474 0
M  V30 1553 O 145.862 -1.79524 0.253128 0
M  V30 1554 C 145.91 -0.605523 3.5548 0
M  V30 1555 O 145.014 -1.70312 3.7559 0
M  V30 1556 H 144.355 -0.034327 0.663112 0
M  V30 1557 H 146.885 0.522584 1.97814 0
M  V30 1558 H 146.895 -0.877314 3.98456 0
M  V30 1559 H 145.57 0.263004 4.15068 0
M  V30 1560 H 144.147 -1.4271 3.44512 0
M  V30 1561 N 146.332 -1.57332 0.0918853 0
M  V30 1562 C 147.578 -1.94524 -0.573425 0
M  V30 1563 C 147.911 -0.973578 -1.68033 0
M  V30 1564 O 147.186 -0.00609226 -1.94499 0
M  V30 1565 C 147.469 -3.41858 -1.13161 0
M  V30 1566 C 147.322 -4.4979 -0.0299747 0
M  V30 1567 C 148.641 -3.90435 -2.03098 0
M  V30 1568 H 145.76 -0.70734 -0.206975 0
M  V30 1569 H 148.402 -1.89309 0.161942 0
M  V30 1570 H 146.552 -3.46433 -1.7583 0
M  V30 1571 H 148.224 -4.57327 0.604112 0
M  V30 1572 H 146.467 -4.291 0.636833 0
M  V30 1573 H 147.138 -5.50069 -0.461287 0
M  V30 1574 H 149.614 -3.87992 -1.50338 0
M  V30 1575 H 148.49 -4.94097 -2.39081 0
M  V30 1576 H 148.751 -3.29541 -2.94712 0
M  V30 1577 N 147.81 0.181792 -1.56548 0
M  V30 1578 C 148.773 1.20894 -1.94724 0
M  V30 1579 C 149.773 1.37738 -0.829747 0
M  V30 1580 O 150.963 1.35323 -1.09697 0
M  V30 1581 C 148.095 2.57593 -2.23291 0
M  V30 1582 H 149.288 0.882275 -2.86629 0
M  V30 1583 H 146.841 0.423838 -1.50444 0
M  V30 1584 H 147.576 2.95291 -1.34067 0
M  V30 1585 H 147.361 2.46735 -3.04736 0
M  V30 1586 H 148.851 3.31637 -2.53785 0
M  V30 1587 N 149.288 1.51039 0.449983 0
M  V30 1588 C 150.518 1.66627 1.22143 0
M  V30 1589 C 150.926 0.357776 1.85786 0
M  V30 1590 O 150.269 -0.672424 1.70951 0
M  V30 1591 C 150.331 2.71562 2.35573 0
M  V30 1592 C 149.995 4.14526 1.92399 0
M  V30 1593 C 150.992 4.99717 1.43453 0
M  V30 1594 C 148.677 4.60559 2.00475 0
M  V30 1595 C 150.671 6.28998 1.03155 0
M  V30 1596 C 148.358 5.8984 1.59788 0
M  V30 1597 C 149.356 6.73886 1.11208 0
M  V30 1598 O 149.044 8.0075 0.710935 0
M  V30 1599 H 148.776 0.562635 0.374724 0
M  V30 1600 H 151.33 1.98146 0.541036 0
M  V30 1601 H 149.56 2.3533 3.06849 0
M  V30 1602 H 151.249 2.76156 2.97478 0
M  V30 1603 H 152.015 4.65361 1.36618 0
M  V30 1604 H 147.894 3.95273 2.37235 0
M  V30 1605 H 151.438 6.9455 0.651663 0
M  V30 1606 H 147.335 6.23713 1.66289 0
M  V30 1607 H 148.103 8.142 0.837913 0
M  V30 1608 N 150.766 -0.704594 1.40972 0
M  V30 1609 C 152.015 -1.46018 1.39146 0
M  V30 1610 C 152.328 -1.956 0.000589254 0
M  V30 1611 O 153.534 -2.71137 -0.1403 0
M  V30 1612 C 151.99 -2.63996 2.4461 0
M  V30 1613 C 151.598 -2.21238 3.89561 0
M  V30 1614 C 153.342 -3.41677 2.51907 0
M  V30 1615 C 151.249 -3.3612 4.86598 0
M  V30 1616 H 150.179 -0.548444 0.517422 0
M  V30 1617 H 152.83 -0.765784 1.66757 0
M  V30 1618 H 151.212 -3.3566 2.10115 0
M  V30 1619 H 152.386 -1.56923 4.33257 0
M  V30 1620 H 150.701 -1.56574 3.85841 0
M  V30 1621 H 153.298 -4.27182 3.2159 0
M  V30 1622 H 153.641 -3.86247 1.55303 0
M  V30 1623 H 154.174 -2.77064 2.85448 0
M  V30 1624 H 150.913 -2.96572 5.84573 0
M  V30 1625 H 150.433 -3.99315 4.47557 0
M  V30 1626 H 152.112 -4.02029 5.06934 0
M  V30 1627 N 152.244 -1.26651 -0.937939 0
M  V30 1628 C 153.49 -1.12553 -1.687 0
M  V30 1629 C 153.823 0.329782 -1.91379 0
M  V30 1630 O 153.098 1.24202 -1.4968 0
M  V30 1631 C 153.381 -1.89862 -3.05981 0
M  V30 1632 C 153.234 -3.43318 -2.90607 0
M  V30 1633 C 154.553 -1.69499 -4.0615 0
M  V30 1634 H 151.672 -0.410257 -0.612257 0
M  V30 1635 H 154.314 -1.55685 -1.08913 0
M  V30 1636 H 152.464 -1.53204 -3.57017 0
M  V30 1637 H 154.136 -3.89747 -2.46769 0
M  V30 1638 H 152.379 -3.70179 -2.26164 0
M  V30 1639 H 153.05 -3.92642 -3.8799 0
M  V30 1640 H 155.526 -2.01442 -3.64088 0
M  V30 1641 H 154.402 -2.26002 -5.00214 0
M  V30 1642 H 154.663 -0.640365 -4.37438 0
M  V30 1643 N 153.722 1.14298 -1.08507 0
M  V30 1644 C 154.654 2.1907 -0.673859 0
M  V30 1645 C 155.667 1.60381 0.279577 0
M  V30 1646 O 156.856 1.78374 0.0670754 0
M  V30 1647 C 153.956 3.38888 0.0290979 0
M  V30 1648 C 153.129 4.27103 -0.943494 0
M  V30 1649 C 152.188 5.25477 -0.275676 0
M  V30 1650 O 151.214 5.61709 -0.920401 0
M  V30 1651 N 152.416 5.7227 0.974013 0
M  V30 1652 H 155.181 2.54965 -1.57521 0
M  V30 1653 H 152.742 1.29528 -0.971287 0
M  V30 1654 H 154.734 4.01761 0.48683 0
M  V30 1655 H 153.304 3.01309 0.832555 0
M  V30 1656 H 152.524 3.61149 -1.58004 0
M  V30 1657 H 153.812 4.82905 -1.60251 0
M  V30 1658 H 153.21 5.44965 1.51755 0
M  V30 1659 H 151.767 6.37127 1.37522 0
M  V30 1660 N 155.201 0.870884 1.31352 0
M  V30 1661 C 156.111 0.330783 2.32256 0
M  V30 1662 C 157.127 -0.559767 1.6475 0
M  V30 1663 O 158.303 -0.456263 1.96164 0
M  V30 1664 C 155.368 -0.458137 3.4366 0
M  V30 1665 C 154.429 0.460482 4.26823 0
M  V30 1666 C 153.662 -0.290881 5.32907 0
M  V30 1667 O 153.885 -1.51885 5.49806 0
M  V30 1668 O 152.819 0.351732 6.00871 0
M  V30 1669 H 156.645 1.16718 2.80376 0
M  V30 1670 H 154.23 0.634285 1.35267 0
M  V30 1671 H 156.112 -0.905343 4.1156 0
M  V30 1672 H 154.787 -1.27106 2.97701 0
M  V30 1673 H 153.694 0.956207 3.61673 0
M  V30 1674 H 155.027 1.23903 4.7635 0
M  V30 1675 N 156.679 -1.44442 0.630414 0
M  V30 1676 C 157.909 -2.06115 0.141465 0
M  V30 1677 C 158.317 -1.47179 -1.1889 0
M  V30 1678 O 157.66 -0.588873 -1.74006 0
M  V30 1679 C 157.722 -3.59467 -0.0484355 0
M  V30 1680 C 157.386 -4.40864 1.20366 0
M  V30 1681 C 158.383 -4.74391 2.12719 0
M  V30 1682 C 156.068 -4.8125 1.43887 0
M  V30 1683 C 158.062 -5.47186 3.26904 0
M  V30 1684 C 155.749 -5.53795 2.5837 0
M  V30 1685 C 156.747 -5.86682 3.49705 0
M  V30 1686 O 156.435 -6.57749 4.62191 0
M  V30 1687 H 156.167 -0.671648 0.0765792 0
M  V30 1688 H 158.721 -1.86312 0.864695 0
M  V30 1689 H 156.951 -3.77758 -0.826803 0
M  V30 1690 H 158.64 -4.02909 -0.491849 0
M  V30 1691 H 159.406 -4.43728 1.95781 0
M  V30 1692 H 155.285 -4.55073 0.736853 0
M  V30 1693 H 158.829 -5.72773 3.98217 0
M  V30 1694 H 154.726 -5.83872 2.75251 0
M  V30 1695 H 155.494 -6.76217 4.61164 0
M  V30 1696 N 158.157 -0.370918 -1.53173 0
M  V30 1697 C 159.09 0.516727 -2.22273 0
M  V30 1698 C 160.068 1.07877 -1.21661 0
M  V30 1699 O 161.252 1.13389 -1.50583 0
M  V30 1700 C 158.379 1.71346 -2.92161 0
M  V30 1701 C 157.425 1.27838 -4.0689 0
M  V30 1702 S 158.258 0.275217 -5.34792 0
M  V30 1703 C 159.414 1.47816 -6.08195 0
M  V30 1704 H 159.647 -0.0701054 -2.97217 0
M  V30 1705 H 157.18 -0.155038 -1.5362 0
M  V30 1706 H 159.138 2.39988 -3.3304 0
M  V30 1707 H 157.799 2.27156 -2.16931 0
M  V30 1708 H 156.992 2.17141 -4.54825 0
M  V30 1709 H 156.594 0.671105 -3.6793 0
M  V30 1710 H 158.886 2.40831 -6.33251 0
M  V30 1711 H 159.829 1.04008 -7.0042 0
M  V30 1712 H 160.237 1.68663 -5.38714 0
M  V30 1713 N 159.635 1.57281 -0.100228 0
M  V30 1714 C 160.545 2.17833 0.870965 0
M  V30 1715 C 161.561 1.14921 1.30649 0
M  V30 1716 O 162.737 1.47313 1.37335 0
M  V30 1717 C 159.802 2.75085 2.1102 0
M  V30 1718 C 158.863 3.9297 1.72838 0
M  V30 1719 C 158.096 4.47482 2.90854 0
M  V30 1720 O 158.319 4.00922 4.05731 0
M  V30 1721 O 157.253 5.38433 2.69023 0
M  V30 1722 H 161.079 3.0124 0.38575 0
M  V30 1723 H 158.664 1.48881 0.124397 0
M  V30 1724 H 160.546 3.11656 2.83634 0
M  V30 1725 H 159.221 1.94721 2.58584 0
M  V30 1726 H 158.128 3.61201 0.973883 0
M  V30 1727 H 159.461 4.74713 1.30033 0
M  V30 1728 N 161.113 -0.173488 1.56642 0
M  V30 1729 C 162.341 -0.906095 1.86004 0
M  V30 1730 C 162.756 -1.75921 0.685355 0
M  V30 1731 O 162.113 -1.79198 -0.345578 0
M  V30 1732 C 162.164 -1.78462 3.14378 0
M  V30 1733 O 161.885 -0.965914 4.27319 0
M  V30 1734 C 163.386 -2.62707 3.57071 0
M  V30 1735 H 160.606 -0.263341 0.617165 0
M  V30 1736 H 163.15 -0.174236 2.03756 0
M  V30 1737 H 161.305 -2.46984 2.98459 0
M  V30 1738 H 161.719 -1.56655 5.00559 0
M  V30 1739 H 163.193 -3.19969 4.49804 0
M  V30 1740 H 163.67 -3.37472 2.81086 0
M  V30 1741 H 164.276 -1.99521 3.75595 0
M  V30 1742 N 162.591 -1.51276 -0.441967 0
M  V30 1743 C 163.868 -1.54252 -1.20273 0
M  V30 1744 C 164.248 -0.30408 -2.08898 0
M  V30 1745 O 163.596 0.711084 -2.17154 0
M  V30 1746 C 163.806 -2.85406 -2.00859 0
M  V30 1747 C 165.154 -3.37181 -2.58059 0
M  V30 1748 O 166.178 -2.86925 -2.11074 0
M  V30 1749 O 165.037 -4.24858 -3.43741 0
M  V30 1750 H 162.131 -0.619969 -0.547328 0
M  V30 1751 H 164.677 -1.63586 -0.451413 0
M  V30 1752 H 163.449 -3.67003 -1.35736 0
M  V30 1753 H 163.072 -2.79213 -2.83065 0
M  V30 1754 N 164.069 0.697108 -1.41344 0
M  V30 1755 C 164.999 1.82353 -1.45841 0
M  V30 1756 C 165.98 1.67115 -0.317247 0
M  V30 1757 O 167.165 1.86871 -0.528474 0
M  V30 1758 C 164.295 3.20476 -1.33838 0
M  V30 1759 C 163.249 3.50415 -2.4575 0
M  V30 1760 C 162.575 4.87878 -2.18813 0
M  V30 1761 C 163.875 3.49546 -3.88091 0
M  V30 1762 H 165.569 1.78846 -2.40113 0
M  V30 1763 H 163.115 0.859028 -1.15571 0
M  V30 1764 H 165.068 3.98988 -1.35596 0
M  V30 1765 H 163.792 3.24604 -0.360498 0
M  V30 1766 H 162.451 2.74253 -2.43271 0
M  V30 1767 H 162.099 4.8863 -1.19371 0
M  V30 1768 H 161.799 5.08875 -2.93803 0
M  V30 1769 H 163.323 5.68702 -2.22284 0
M  V30 1770 H 164.737 4.18066 -3.92293 0
M  V30 1771 H 163.134 3.82075 -4.62751 0
M  V30 1772 H 164.204 2.48552 -4.16353 0
M  V30 1773 N 165.547 1.27147 0.931209 0
M  V30 1774 C 166.51 1.09615 2.01289 0
M  V30 1775 C 167.51 0.0412581 1.60747 0
M  V30 1776 O 168.7 0.285545 1.71844 0
M  V30 1777 C 165.832 0.669447 3.34262 0
M  V30 1778 H 167.025 2.05662 2.18273 0
M  V30 1779 H 164.578 1.09885 1.11153 0
M  V30 1780 H 165.313 -0.292572 3.22978 0
M  V30 1781 H 165.098 1.43127 3.65044 0
M  V30 1782 H 166.588 0.568921 4.13706 0
M  V30 1783 N 167.025 -1.13721 1.09112 0
M  V30 1784 C 168.441 -1.36914 0.820174 0
M  V30 1785 C 168.641 -1.93356 -0.567079 0
M  V30 1786 O 167.697 -2.15093 -1.32255 0
M  V30 1787 C 169.01 -2.3235 1.90877 0
M  V30 1788 C 170.558 -2.45973 1.93562 0
M  V30 1789 C 171.033 -3.44714 3.01556 0
M  V30 1790 N 172.524 -3.52263 3.00775 0
M  V30 1791 C 173.259 -4.28536 3.80978 0
M  V30 1792 N 172.755 -5.07991 4.71081 0
M  V30 1793 N 174.548 -4.23804 3.69251 0
M  V30 1794 H 166.699 -0.754348 1.98553 0
M  V30 1795 H 168.962 -0.3944 0.862063 0
M  V30 1796 H 168.668 -1.98027 2.90651 0
M  V30 1797 H 168.542 -3.32332 1.78424 0
M  V30 1798 H 170.929 -2.79584 0.944286 0
M  V30 1799 H 171.01 -1.45926 2.10093 0
M  V30 1800 H 170.654 -3.11835 4.00901 0
M  V30 1801 H 170.584 -4.44558 2.82269 0
M  V30 1802 H 173.075 -2.95567 2.35475 0
M  V30 1803 H 173.388 -5.63487 5.28869 0
M  V30 1804 H 171.733 -5.07235 4.75119 0
M  V30 1805 H 174.924 -3.60806 2.98222 0
M  V30 1806 H 175.097 -4.82995 4.31995 0
M  V30 1807 N 168.503 -0.877838 -1.30888 0
M  V30 1808 C 169.433 -0.35534 -2.3078 0
M  V30 1809 C 170.414 0.557994 -1.60687 0
M  V30 1810 O 171.599 0.473355 -1.88343 0
M  V30 1811 C 168.729 0.437221 -3.44537 0
M  V30 1812 C 167.683 -0.383715 -4.26276 0
M  V30 1813 C 167.009 0.535014 -5.32017 0
M  V30 1814 C 168.309 -1.62201 -4.96476 0
M  V30 1815 H 170.003 -1.19007 -2.74732 0
M  V30 1816 H 167.549 -0.573698 -1.32078 0
M  V30 1817 H 169.502 0.813334 -4.13477 0
M  V30 1818 H 168.226 1.30553 -2.99372 0
M  V30 1819 H 166.885 -0.741874 -3.59015 0
M  V30 1820 H 166.533 1.40083 -4.831 0
M  V30 1821 H 166.233 -0.0104211 -5.87599 0
M  V30 1822 H 167.757 0.907799 -6.03814 0
M  V30 1823 H 169.171 -1.31689 -5.5797 0
M  V30 1824 H 167.568 -2.10711 -5.61891 0
M  V30 1825 H 168.638 -2.37044 -4.23011 0
M  V30 1826 N 169.982 1.44106 -0.638065 0
M  V30 1827 C 170.912 2.33448 0.0494287 0
M  V30 1828 C 171.893 1.48606 0.827672 0
M  V30 1829 O 173.078 1.77308 0.792173 0
M  V30 1830 C 170.208 3.31771 1.02691 0
M  V30 1831 C 169.162 4.26485 0.359823 0
M  V30 1832 C 168.488 5.14729 1.44769 0
M  V30 1833 C 169.788 5.17056 -0.738296 0
M  V30 1834 H 171.482 2.91183 -0.696636 0
M  V30 1835 H 169.028 1.40014 -0.336456 0
M  V30 1836 H 170.981 3.93161 1.51666 0
M  V30 1837 H 169.705 2.7226 1.80395 0
M  V30 1838 H 168.364 3.66437 -0.10934 0
M  V30 1839 H 168.012 4.51566 2.21578 0
M  V30 1840 H 167.712 5.78913 1.00668 0
M  V30 1841 H 169.236 5.78991 1.93911 0
M  V30 1842 H 170.65 5.72342 -0.331354 0
M  V30 1843 H 169.047 5.89879 -1.10286 0
M  V30 1844 H 170.117 4.57652 -1.60258 0
M  V30 1845 N 171.46 0.379036 1.52974 0
M  V30 1846 C 172.37 -0.468639 2.29872 0
M  V30 1847 C 173.386 -1.08067 1.36373 0
M  V30 1848 O 174.562 -1.08871 1.69438 0
M  V30 1849 C 171.627 -1.58594 3.083 0
M  V30 1850 C 170.688 -1.00007 4.17489 0
M  V30 1851 C 169.921 -2.06413 4.92168 0
M  V30 1852 O 170.144 -3.27751 4.66835 0
M  V30 1853 O 169.078 -1.68717 5.7777 0
M  V30 1854 H 172.904 0.157508 3.03291 0
M  V30 1855 H 170.489 0.143035 1.48714 0
M  V30 1856 H 172.371 -2.23525 3.57232 0
M  V30 1857 H 171.046 -2.19724 2.37703 0
M  V30 1858 H 169.953 -0.314299 3.72777 0
M  V30 1859 H 171.286 -0.433135 4.90291 0
M  V30 1860 N 172.938 -1.57226 0.108567 0
M  V30 1861 C 173.87 -2.11809 -0.875752 0
M  V30 1862 C 174.883 -1.05839 -1.23701 0
M  V30 1863 O 176.072 -1.33245 -1.18778 0
M  V30 1864 C 173.172 -2.59411 -2.18081 0
M  V30 1865 C 172.345 -3.89364 -1.99284 0
M  V30 1866 C 171.404 -4.22672 -3.13424 0
M  V30 1867 O 170.43 -4.91668 -2.86795 0
M  V30 1868 N 171.632 -3.79154 -4.3957 0
M  V30 1869 H 174.397 -2.9689 -0.409477 0
M  V30 1870 H 171.958 -1.61721 -0.076158 0
M  V30 1871 H 173.95 -2.7873 -2.93414 0
M  V30 1872 H 172.52 -1.79268 -2.5609 0
M  V30 1873 H 171.74 -3.79059 -1.08203 0
M  V30 1874 H 173.028 -4.74358 -1.84017 0
M  V30 1875 H 172.426 -3.23486 -4.64083 0
M  V30 1876 H 170.983 -4.03602 -5.11809 0
M  V30 1877 N 174.416 0.165178 -1.56732 0
M  V30 1878 C 175.664 0.879068 -1.8198 0
M  V30 1879 C 175.985 1.82514 -0.686561 0
M  V30 1880 O 175.255 1.93694 0.293146 0
M  V30 1881 H 173.835 0.327608 -0.671329 0
M  V30 1882 H 176.497 0.163526 -1.94213 0
M  V30 1883 H 175.593 1.45228 -2.76252 0
M  V30 1884 N 175.894 1.51508 0.433938 0
M  V30 1885 C 177.122 1.68157 1.20543 0
M  V30 1886 C 177.537 0.380362 1.84929 0
M  V30 1887 O 176.894 -0.641446 1.70856 0
M  V30 1888 C 176.945 2.79965 2.28696 0
M  V30 1889 O 176.666 4.05045 1.66943 0
M  V30 1890 C 178.167 3.07912 3.18912 0
M  V30 1891 H 175.387 0.56421 0.363191 0
M  V30 1892 H 177.931 1.97941 0.513754 0
M  V30 1893 H 176.086 2.5277 2.93574 0
M  V30 1894 H 176.5 4.67165 2.38448 0
M  V30 1895 H 177.974 3.89719 3.90926 0
M  V30 1896 H 178.451 2.20456 3.79863 0
M  V30 1897 H 179.057 3.36779 2.59731 0
M  V30 1898 N 177.372 -0.689602 1.41712 0
M  V30 1899 C 178.302 -1.81577 1.46806 0
M  V30 1900 C 179.283 -1.66945 0.326105 0
M  V30 1901 O 180.468 -1.86588 0.538377 0
M  V30 1902 C 177.598 -3.19762 1.35535 0
M  V30 1903 C 176.552 -3.49107 2.47605 0
M  V30 1904 C 175.878 -4.86711 2.21397 0
M  V30 1905 C 177.178 -3.47483 3.89939 0
M  V30 1906 H 178.872 -1.7757 2.41058 0
M  V30 1907 H 176.418 -0.852887 1.16025 0
M  V30 1908 H 178.371 -3.98263 1.3771 0
M  V30 1909 H 177.095 -3.24409 0.377708 0
M  V30 1910 H 175.754 -2.72959 2.44722 0
M  V30 1911 H 175.402 -4.8799 1.21961 0
M  V30 1912 H 175.102 -5.0731 2.96497 0
M  V30 1913 H 176.626 -5.67515 2.25297 0
M  V30 1914 H 178.04 -4.1598 3.94505 0
M  V30 1915 H 176.437 -3.79615 4.64771 0
M  V30 1916 H 177.507 -2.46341 4.17665 0
M  V30 1917 N 178.85 -1.27639 -0.924453 0
M  V30 1918 C 179.813 -1.10681 -2.00705 0
M  V30 1919 C 180.813 -0.0497823 -1.60723 0
M  V30 1920 O 182.003 -0.294654 -1.7169 0
M  V30 1921 C 179.135 -0.687164 -3.33902 0
M  V30 1922 H 180.328 -2.06817 -2.17179 0
M  V30 1923 H 177.881 -1.10473 -1.10569 0
M  V30 1924 H 178.616 0.275439 -3.23128 0
M  V30 1925 H 178.401 -1.45061 -3.6428 0
M  V30 1926 H 179.891 -0.590853 -4.13399 0
M  V30 1927 N 180.328 1.1314 -1.09713 0
M  V30 1928 C 181.238 2.22242 -0.751367 0
M  V30 1929 C 182.254 1.72224 0.247938 0
M  V30 1930 O 183.43 2.01205 0.0885463 0
M  V30 1931 C 180.495 3.46231 -0.180274 0
M  V30 1932 C 179.556 4.11125 -1.2359 0
M  V30 1933 C 178.789 5.29195 -0.691966 0
M  V30 1934 O 179.012 5.68342 0.48414 0
M  V30 1935 O 177.946 5.84214 -1.44838 0
M  V30 1936 H 181.772 2.54197 -1.66186 0
M  V30 1937 H 179.357 1.21331 -0.871735 0
M  V30 1938 H 181.239 4.21185 0.134739 0
M  V30 1939 H 179.914 3.1597 0.703185 0
M  V30 1940 H 178.821 3.37985 -1.60366 0
M  V30 1941 H 180.154 4.45524 -2.09211 0
M  V30 1942 N 181.806 0.884767 1.30421 0
M  V30 1943 C 182.716 0.355398 2.31892 0
M  V30 1944 C 183.732 -0.542261 1.65335 0
M  V30 1945 O 184.908 -0.435432 1.96637 0
M  V30 1946 C 181.973 -0.421661 3.44126 0
M  V30 1947 C 181.034 0.505727 4.26311 0
M  V30 1948 C 180.267 -0.234343 5.33185 0
M  V30 1949 O 180.49 -1.46045 5.51386 0
M  V30 1950 O 179.424 0.415443 6.00465 0
M  V30 1951 H 183.25 1.19685 2.79122 0
M  V30 1952 H 180.835 0.648596 1.34587 0
M  V30 1953 H 182.717 -0.861641 4.12497 0
M  V30 1954 H 181.392 -1.23942 2.99032 0
M  V30 1955 H 180.299 0.994513 3.60639 0
M  V30 1956 H 181.632 1.28948 4.75009 0
M  V30 1957 N 183.284 -1.43765 0.645699 0
M  V30 1958 C 184.234 -2.27884 -0.0726442 0
M  V30 1959 C 185.218 -1.39483 -0.802086 0
M  V30 1960 O 186.41 -1.63174 -0.685791 0
M  V30 1961 C 183.539 -3.27055 -1.04356 0
M  V30 1962 C 182.625 -4.22944 -0.312985 0
M  V30 1963 N 183.016 -5.01391 0.666386 0
M  V30 1964 C 181.314 -4.42528 -0.55546 0
M  V30 1965 C 182.015 -5.71217 1.09935 0
M  V30 1966 N 180.991 -5.41856 0.435137 0
M  V30 1967 H 184.793 -2.85949 0.678988 0
M  V30 1968 H 182.307 -1.55378 0.472368 0
M  V30 1969 H 184.304 -3.86089 -1.57292 0
M  V30 1970 H 182.964 -2.70551 -1.79534 0
M  V30 1971 H 183.975 -5.07252 1.04481 0
M  V30 1972 H 180.652 -3.97104 -1.28899 0
M  V30 1973 H 182.042 -6.44202 1.90929 0
M  V30 1974 N 184.763 -0.387143 -1.52771 0
M  V30 1975 C 185.726 0.436939 -2.24997 0
M  V30 1976 C 186.726 0.991991 -1.26555 0
M  V30 1977 O 187.916 0.874335 -1.50669 0
M  V30 1978 C 185.048 1.61281 -3.00335 0
M  V30 1979 H 186.241 -0.195365 -2.99263 0
M  V30 1980 H 183.794 -0.139218 -1.55679 0
M  V30 1981 H 184.529 2.2826 -2.30364 0
M  V30 1982 H 184.314 1.22154 -3.72587 0
M  V30 1983 H 185.804 2.19629 -3.5518 0
M  V30 1984 N 186.241 1.57166 -0.116904 0
M  V30 1985 C 187.188 2.15202 0.83408 0
M  V30 1986 C 188.158 1.07644 1.26499 0
M  V30 1987 O 189.343 1.35541 1.34288 0
M  V30 1988 C 186.483 2.75405 2.07957 0
M  V30 1989 C 185.596 3.97264 1.69721 0
M  V30 1990 C 184.731 4.45561 2.89221 0
M  V30 1991 C 183.77 5.59956 2.47215 0
M  V30 1992 N 182.907 6.03006 3.59622 0
M  V30 1993 H 187.747 2.96141 0.332335 0
M  V30 1994 H 185.284 1.46309 0.152349 0
M  V30 1995 H 187.242 3.08439 2.80929 0
M  V30 1996 H 185.872 1.97159 2.55594 0
M  V30 1997 H 184.924 3.70404 0.866316 0
M  V30 1998 H 186.236 4.80226 1.34849 0
M  V30 1999 H 185.39 4.80493 3.7042 0
M  V30 2000 H 184.129 3.61544 3.27318 0
M  V30 2001 H 183.134 5.2463 1.64448 0
M  V30 2002 H 184.359 6.45738 2.10238 0
M  V30 2003 H 182.305 5.21931 3.97396 0
M  V30 2004 H 182.222 6.80819 3.28667 0
M  V30 2005 H 183.49 6.42576 4.41267 0
M  V30 2006 N 187.719 -0.156864 1.56817 0
M  V30 2007 C 188.649 -1.19589 2.00551 0
M  V30 2008 C 189.63 -1.4536 0.883426 0
M  V30 2009 O 190.815 -1.56449 1.15054 0
M  V30 2010 C 187.945 -2.53143 2.37773 0
M  V30 2011 C 186.899 -2.41913 3.53075 0
M  V30 2012 C 186.225 -3.80088 3.76081 0
M  V30 2013 C 187.525 -1.91157 4.86062 0
M  V30 2014 H 189.219 -0.832293 2.87599 0
M  V30 2015 H 186.765 -0.398918 1.38364 0
M  V30 2016 H 188.718 -3.26047 2.66967 0
M  V30 2017 H 187.442 -2.91319 1.4765 0
M  V30 2018 H 186.101 -1.71462 3.24031 0
M  V30 2019 H 185.749 -4.15683 2.83225 0
M  V30 2020 H 185.449 -3.73439 4.53671 0
M  V30 2021 H 186.973 -4.54556 4.0769 0
M  V30 2022 H 188.387 -2.53846 5.14038 0
M  V30 2023 H 186.784 -1.95422 5.67389 0
M  V30 2024 H 187.854 -0.866673 4.77092 0
M  V30 2025 N 189.197 -1.51736 -0.425897 0
M  V30 2026 C 190.444 -1.6497 -1.17436 0
M  V30 2027 C 190.772 -0.371445 -1.9092 0
M  V30 2028 O 190.027 0.644963 -1.84767 0
M  V30 2029 C 190.326 -2.81103 -2.20717 0
M  V30 2030 C 189.992 -4.19954 -1.64162 0
M  V30 2031 C 188.654 -4.57725 -1.48462 0
M  V30 2032 C 191.006 -5.06552 -1.22696 0
M  V30 2033 C 188.334 -5.79789 -0.897873 0
M  V30 2034 C 190.686 -6.29205 -0.654464 0
M  V30 2035 C 189.35 -6.6574 -0.484456 0
M  V30 2036 H 188.62 -0.603668 -0.429727 0
M  V30 2037 H 191.267 -1.85798 -0.463829 0
M  V30 2038 H 189.572 -2.54542 -2.97852 0
M  V30 2039 H 191.269 -2.8854 -2.78471 0
M  V30 2040 H 187.859 -3.90181 -1.77361 0
M  V30 2041 H 192.043 -4.77968 -1.33642 0
M  V30 2042 H 187.299 -6.06733 -0.75402 0
M  V30 2043 H 191.473 -6.95643 -0.324694 0
M  V30 2044 H 189.1 -7.60195 -0.0276833 0
M  V30 2045 N 190.675 0.682077 -1.42076 0
M  V30 2046 C 191.608 1.80666 -1.3941 0
M  V30 2047 C 192.586 1.60518 -0.25939 0
M  V30 2048 O 193.77 1.83088 -0.448456 0
M  V30 2049 C 190.897 3.17556 -1.17796 0
M  V30 2050 C 189.943 3.56468 -2.34164 0
M  V30 2051 S 190.776 3.59729 -3.96681 0
M  V30 2052 C 191.932 4.99323 -3.77395 0
M  V30 2053 H 192.165 1.82652 -2.34575 0
M  V30 2054 H 189.698 0.852062 -1.2876 0
M  V30 2055 H 191.656 3.96575 -1.06012 0
M  V30 2056 H 190.317 3.13164 -0.242279 0
M  V30 2057 H 189.51 4.5595 -2.1477 0
M  V30 2058 H 189.112 2.84792 -2.42425 0
M  V30 2059 H 191.404 5.87202 -3.37935 0
M  V30 2060 H 192.347 5.23763 -4.76527 0
M  V30 2061 H 192.755 4.71498 -3.10403 0
M  V30 2062 N 192.153 1.28127 0.917671 0
M  V30 2063 C 193.383 1.17722 1.6978 0
M  V30 2064 C 193.791 -0.267261 1.87303 0
M  V30 2065 O 193.134 -1.19286 1.39702 0
M  V30 2066 C 193.196 1.79958 3.11216 0
M  V30 2067 C 192.86 3.29187 3.16993 0
M  V30 2068 C 193.857 4.25679 2.98485 0
M  V30 2069 C 191.542 3.70075 3.39632 0
M  V30 2070 C 193.536 5.61035 3.02521 0
M  V30 2071 C 191.223 5.05557 3.433 0
M  V30 2072 C 192.221 6.00847 3.24764 0
M  V30 2073 O 191.909 7.33859 3.28187 0
M  V30 2074 H 191.641 0.409788 0.537634 0
M  V30 2075 H 194.195 1.69694 1.15728 0
M  V30 2076 H 192.425 1.22475 3.66793 0
M  V30 2077 H 194.114 1.64125 3.71238 0
M  V30 2078 H 194.88 3.95426 2.80826 0
M  V30 2079 H 190.759 2.96373 3.53106 0
M  V30 2080 H 194.303 6.35388 2.87971 0
M  V30 2081 H 190.2 5.35462 3.60486 0
M  V30 2082 H 190.968 7.42436 3.44575 0
M  V30 2083 N 193.631 -1.12557 1.10312 0
M  V30 2084 C 194.563 -2.17971 0.708625 0
M  V30 2085 C 195.576 -1.60806 -0.254027 0
M  V30 2086 O 196.765 -1.78458 -0.0386891 0
M  V30 2087 C 193.865 -3.38891 0.0248198 0
M  V30 2088 C 193.038 -4.25548 1.01132 0
M  V30 2089 C 192.097 -5.24972 0.35924 0
M  V30 2090 O 191.123 -5.60174 1.00965 0
M  V30 2091 N 192.325 -5.73747 -0.882847 0
M  V30 2092 H 195.09 -2.52427 1.61557 0
M  V30 2093 H 192.651 -1.27967 0.991771 0
M  V30 2094 H 194.643 -4.02485 -0.422852 0
M  V30 2095 H 193.213 -3.02596 -0.784514 0
M  V30 2096 H 192.433 -3.58589 1.6373 0
M  V30 2097 H 193.721 -4.80294 1.67914 0
M  V30 2098 H 193.119 -5.4731 -1.43065 0
M  V30 2099 H 191.676 -6.39234 -1.27369 0
M  V30 2100 N 195.109 -0.891671 -1.2995 0
M  V30 2101 C 196.039 -0.379797 -2.30391 0
M  V30 2102 C 197.02 0.540919 -1.6127 0
M  V30 2103 O 198.205 0.453352 -1.88834 0
M  V30 2104 C 195.335 0.400654 -3.44981 0
M  V30 2105 C 194.289 -0.428905 -4.25846 0
M  V30 2106 C 193.615 0.478557 -5.32554 0
M  V30 2107 C 194.915 -1.67458 -4.94727 0
M  V30 2108 H 196.609 -1.21914 -2.73454 0
M  V30 2109 H 194.155 -0.587675 -1.31462 0
M  V30 2110 H 196.108 0.769434 -4.14316 0
M  V30 2111 H 194.832 1.27371 -3.0074 0
M  V30 2112 H 193.491 -0.779911 -3.58208 0
M  V30 2113 H 193.139 1.34951 -4.84559 0
M  V30 2114 H 192.839 -0.0727433 -5.87555 0
M  V30 2115 H 194.363 0.843705 -6.04743 0
M  V30 2116 H 195.777 -1.376 -5.56542 0
M  V30 2117 H 194.174 -2.16659 -5.59624 0
M  V30 2118 H 195.244 -2.41518 -4.20473 0
M  V30 2119 N 196.587 1.43421 -0.653314 0
M  V30 2120 C 197.517 2.33487 0.0246656 0
M  V30 2121 C 198.498 1.49475 0.811863 0
M  V30 2122 O 199.683 1.78139 0.773322 0
M  V30 2123 C 196.813 3.32841 0.99166 0
M  V30 2124 C 195.767 4.26842 0.314568 0
M  V30 2125 C 195.093 5.16236 1.39302 0
M  V30 2126 C 196.393 5.16243 -0.793095 0
M  V30 2127 H 198.087 2.90427 -0.727481 0
M  V30 2128 H 195.633 1.39649 -0.351287 0
M  V30 2129 H 197.586 3.94747 1.47487 0
M  V30 2130 H 196.31 2.74158 1.77497 0
M  V30 2131 H 194.969 3.663 -0.148199 0
M  V30 2132 H 194.617 4.53891 2.16776 0
M  V30 2133 H 194.317 5.79948 0.945223 0
M  V30 2134 H 195.841 5.81015 1.87759 0
M  V30 2135 H 197.255 5.71958 -0.392039 0
M  V30 2136 H 195.652 5.88676 -1.16536 0
M  V30 2137 H 196.722 4.55927 -1.65103 0
M  V30 2138 N 198.065 0.39524 1.52563 0
M  V30 2139 C 199.481 0.0454682 1.59535 0
M  V30 2140 C 199.681 -1.44056 1.4089 0
M  V30 2141 O 198.737 -2.20579 1.22888 0
M  V30 2142 C 200.05 0.527963 2.96029 0
M  V30 2143 C 201.598 0.484733 3.09224 0
M  V30 2144 C 202.073 0.943512 4.48176 0
M  V30 2145 N 203.564 0.899765 4.54377 0
M  V30 2146 C 204.299 1.22609 5.60138 0
M  V30 2147 N 203.795 1.62319 6.73516 0
M  V30 2148 N 205.588 1.14696 5.50274 0
M  V30 2149 H 197.739 1.36261 1.62931 0
M  V30 2150 H 200.002 0.558887 0.765735 0
M  V30 2151 H 199.708 1.56607 3.14908 0
M  V30 2152 H 199.582 -0.0698056 3.77135 0
M  V30 2153 H 201.969 -0.544298 2.90037 0
M  V30 2154 H 202.05 1.11838 2.30056 0
M  V30 2155 H 201.694 1.9708 4.68104 0
M  V30 2156 H 201.624 0.286817 5.25818 0
M  V30 2157 H 204.115 0.607632 3.72983 0
M  V30 2158 H 204.428 1.85567 7.5019 0
M  V30 2159 H 202.773 1.66211 6.74833 0
M  V30 2160 H 205.964 0.835701 4.6058 0
M  V30 2161 H 206.137 1.40459 6.32594 0
M  V30 2162 N 199.544 -1.57102 0.125237 0
M  V30 2163 C 200.792 -1.95021 -0.530198 0
M  V30 2164 C 201.113 -1.00982 -1.66816 0
M  V30 2165 O 200.383 -0.0672693 -1.95784 0
M  V30 2166 H 198.963 -0.720046 -0.198853 0
M  V30 2167 H 201.625 -1.93916 0.19564 0
M  V30 2168 H 200.721 -2.98211 -0.920681 0
M  V30 2169 N 201.022 0.148545 -1.56898 0
M  V30 2170 C 201.952 1.18524 -2.01182 0
M  V30 2171 C 202.933 1.4489 -0.891123 0
M  V30 2172 O 204.118 1.55836 -1.15882 0
M  V30 2173 C 201.248 2.51879 -2.39112 0
M  V30 2174 C 200.202 2.40038 -3.54353 0
M  V30 2175 C 199.528 3.78089 -3.78091 0
M  V30 2176 C 200.828 1.88577 -4.87069 0
M  V30 2177 H 202.522 0.817029 -2.88036 0
M  V30 2178 H 200.068 0.391575 -1.38574 0
M  V30 2179 H 202.021 3.24627 -2.68692 0
M  V30 2180 H 200.745 2.90532 -1.49193 0
M  V30 2181 H 199.404 1.69742 -3.24936 0
M  V30 2182 H 199.052 4.14175 -2.85426 0
M  V30 2183 H 198.752 3.71028 -4.55645 0
M  V30 2184 H 200.276 4.52387 -4.10095 0
M  V30 2185 H 201.69 2.51117 -5.15377 0
M  V30 2186 H 200.087 1.9241 -5.68417 0
M  V30 2187 H 201.157 0.84136 -4.77545 0
M  V30 2188 N 202.5 1.5196 0.417844 0
M  V30 2189 C 203.447 1.74678 1.50852 0
M  V30 2190 C 204.417 0.588947 1.55308 0
M  V30 2191 O 205.602 0.825544 1.72016 0
M  V30 2192 C 202.742 1.89544 2.88387 0
M  V30 2193 C 201.855 3.17166 2.93309 0
M  V30 2194 C 200.99 3.22513 4.22088 0
M  V30 2195 C 200.029 4.44372 4.20951 0
M  V30 2196 N 199.166 4.47161 5.41287 0
M  V30 2197 H 204.006 2.67768 1.30783 0
M  V30 2198 H 201.543 1.32689 0.63498 0
M  V30 2199 H 203.501 1.96146 3.68216 0
M  V30 2200 H 202.131 0.998424 3.06971 0
M  V30 2201 H 201.183 3.19778 2.06024 0
M  V30 2202 H 202.495 4.07021 2.88332 0
M  V30 2203 H 201.649 3.28139 5.10303 0
M  V30 2204 H 200.388 2.30581 4.29748 0
M  V30 2205 H 199.393 4.38902 3.31127 0
M  V30 2206 H 200.618 5.3759 4.14938 0
M  V30 2207 H 198.564 3.58108 5.49632 0
M  V30 2208 H 198.481 5.3085 5.3827 0
M  V30 2209 H 199.749 4.57005 6.3148 0
M  V30 2210 N 203.978 -0.674533 1.42435 0
M  V30 2211 C 205.208 -1.46071 1.46105 0
M  V30 2212 C 205.616 -1.89067 0.0709605 0
M  V30 2213 O 204.959 -1.58731 -0.924677 0
M  V30 2214 C 205.021 -2.74145 2.32561 0
M  V30 2215 C 204.685 -2.53224 3.8043 0
M  V30 2216 C 205.682 -2.17809 4.72075 0
M  V30 2217 C 203.367 -2.6821 4.24698 0
M  V30 2218 C 205.361 -1.97648 6.05982 0
M  V30 2219 C 203.048 -2.47665 5.58664 0
M  V30 2220 C 204.046 -2.12437 6.49122 0
M  V30 2221 O 203.734 -1.9209 7.80613 0
M  V30 2222 H 203.466 -0.455959 0.499076 0
M  V30 2223 H 206.02 -0.836193 1.87609 0
M  V30 2224 H 204.25 -3.3908 1.85908 0
M  V30 2225 H 205.939 -3.36028 2.27683 0
M  V30 2226 H 206.705 -2.05826 4.39159 0
M  V30 2227 H 202.584 -2.94609 3.54579 0
M  V30 2228 H 206.128 -1.70075 6.7655 0
M  V30 2229 H 202.025 -2.59244 5.91154 0
M  V30 2230 H 202.793 -2.06686 7.91974 0
M  V30 2231 N 205.456 -1.28612 -0.910864 0
M  V30 2232 C 206.705 -1.15311 -1.65488 0
M  V30 2233 C 207.018 0.296999 -1.93332 0
M  V30 2234 O 208.224 0.551168 -2.65847 0
M  V30 2235 C 206.68 -2.01599 -2.98137 0
M  V30 2236 C 206.288 -3.51367 -2.7793 0
M  V30 2237 C 208.032 -1.96993 -3.76024 0
M  V30 2238 C 205.939 -4.29797 -4.06237 0
M  V30 2239 H 204.869 -0.42796 -0.620779 0
M  V30 2240 H 207.52 -1.53166 -1.01057 0
M  V30 2241 H 205.902 -1.56603 -3.63719 0
M  V30 2242 H 207.076 -4.0434 -2.21011 0
M  V30 2243 H 205.391 -3.57529 -2.13452 0
M  V30 2244 H 207.988 -2.52856 -4.71135 0
M  V30 2245 H 208.331 -0.94733 -4.05378 0
M  V30 2246 H 208.864 -2.39973 -3.17266 0
M  V30 2247 H 205.603 -5.32648 -3.82055 0
M  V30 2248 H 205.123 -3.81596 -4.62757 0
M  V30 2249 H 206.802 -4.39869 -4.74473 0
M  V30 2250 N 206.934 1.1197 -1.10907 0
M  V30 2251 C 207.884 2.15946 -0.731538 0
M  V30 2252 C 208.868 1.58758 0.261699 0
M  V30 2253 O 210.06 1.76863 0.0696722 0
M  V30 2254 C 207.189 3.42877 -0.170299 0
M  V30 2255 C 206.275 4.07037 -1.19087 0
M  V30 2256 N 206.666 4.46135 -2.38322 0
M  V30 2257 C 204.964 4.33884 -1.03252 0
M  V30 2258 C 205.665 4.96331 -3.03366 0
M  V30 2259 N 204.641 4.9214 -2.30865 0
M  V30 2260 H 208.443 2.43947 -1.63912 0
M  V30 2261 H 205.957 1.28927 -0.987505 0
M  V30 2262 H 207.954 4.16732 0.118271 0
M  V30 2263 H 206.614 3.16343 0.731935 0
M  V30 2264 H 207.625 4.38345 -2.75815 0
M  V30 2265 H 204.302 4.17084 -0.186256 0
M  V30 2266 H 205.692 5.36257 -4.04818 0
M  V30 2267 N 208.412 0.89855 1.29475 0
M  V30 2268 C 209.637 0.538561 2.00285 0
M  V30 2269 C 210.062 -0.869135 1.66816 0
M  V30 2270 O 209.42 -1.57831 0.892145 0
M  V30 2271 C 209.468 0.736475 3.52999 0
M  V30 2272 O 208.572 -0.211537 4.11857 0
M  V30 2273 H 207.913 0.210563 0.62973 0
M  V30 2274 H 210.443 1.20982 1.64998 0
M  V30 2275 H 210.453 0.640685 4.02938 0
M  V30 2276 H 209.128 1.76276 3.76696 0
M  V30 2277 H 207.705 -0.0682991 3.72837 0
M  V30 2278 N 209.89 -1.43072 0.660911 0
M  V30 2279 C 210.853 -2.29194 -0.0166406 0
M  V30 2280 C 211.853 -1.42609 -0.742912 0
M  V30 2281 O 213.043 -1.64155 -0.583004 0
M  V30 2282 C 210.175 -3.24831 -1.0343 0
M  V30 2283 H 211.368 -2.90596 0.741208 0
M  V30 2284 H 208.921 -1.5048 0.422532 0
M  V30 2285 H 209.656 -2.68339 -1.82111 0
M  V30 2286 H 209.441 -3.88676 -0.517082 0
M  V30 2287 H 210.931 -3.89451 -1.50723 0
M  V30 2288 N 211.368 -0.403325 -1.52352 0
M  V30 2289 C 212.316 0.439752 -2.28405 0
M  V30 2290 C 213.31 1.05089 -1.32863 0
M  V30 2291 O 214.516 0.989759 -1.50345 0
M  V30 2292 H 210.891 0.160587 -0.734653 0
M  V30 2293 H 212.862 -0.222983 -2.97566 0
M  V30 2294 C 211.611 1.54736 -3.11371 0
M  V30 2295 H 210.934 1.08643 -3.84755 0
M  V30 2296 H 212.374 2.1112 -3.67701 0
M  V30 2297 C 210.833 2.51141 -2.24566 0
M  V30 2298 O 211.363 3.54887 -1.88196 0
M  V30 2299 N 209.569 2.21213 -1.8845 0
M  V30 2300 H 209.116 1.36878 -2.18225 0
M  V30 2301 H 209.074 2.85963 -1.30662 0
M  V30 2302 N 212.846 1.57033 -0.133567 0
M  V30 2303 C 214.092 1.95976 0.521649 0
M  V30 2304 C 214.425 1.01779 1.65393 0
M  V30 2305 O 213.7 0.0576581 1.94415 0
M  V30 2306 C 213.983 3.44738 1.04057 0
M  V30 2307 C 213.836 4.49711 -0.0892897 0
M  V30 2308 C 215.155 3.95682 1.92675 0
M  V30 2309 H 212.274 0.712579 0.188149 0
M  V30 2310 H 214.916 1.88813 -0.212076 0
M  V30 2311 H 213.066 3.50973 1.66583 0
M  V30 2312 H 214.738 4.55565 -0.725152 0
M  V30 2313 H 212.981 4.27261 -0.750378 0
M  V30 2314 H 213.652 5.51099 0.315284 0
M  V30 2315 H 216.128 3.91841 1.39998 0
M  V30 2316 H 215.004 5.00262 2.25897 0
M  V30 2317 H 215.265 3.37239 2.85872 0
M  V30 2318 N 214.325 -0.140222 1.56975 0
M  V30 2319 C 215.255 -1.17456 2.01808 0
M  V30 2320 C 216.236 -1.44415 0.898794 0
M  V30 2321 O 217.421 -1.5522 1.16707 0
M  V30 2322 C 214.551 -2.50607 2.40444 0
M  V30 2323 C 213.505 -2.38155 3.55621 0
M  V30 2324 C 212.831 -3.76078 3.80091 0
M  V30 2325 C 214.131 -1.85991 4.88062 0
M  V30 2326 H 215.825 -0.801743 2.88466 0
M  V30 2327 H 213.371 -0.38422 1.38779 0
M  V30 2328 H 215.324 -3.23197 2.7041 0
M  V30 2329 H 214.048 -2.89737 1.50732 0
M  V30 2330 H 212.707 -1.68016 3.25832 0
M  V30 2331 H 212.355 -4.12656 2.87618 0
M  V30 2332 H 212.055 -3.68606 4.57606 0
M  V30 2333 H 213.579 -4.50206 4.12488 0
M  V30 2334 H 214.993 -2.4838 5.16701 0
M  V30 2335 H 213.39 -1.89393 5.6943 0
M  V30 2336 H 214.46 -0.816023 4.77984 0
M  V30 2337 N 215.803 -1.52179 -0.40978 0
M  V30 2338 C 216.753 -1.71857 -1.49831 0
M  V30 2339 C 217.737 -0.572469 -1.50372 0
M  V30 2340 O 218.929 -0.829509 -1.56359 0
M  V30 2341 C 216.058 -1.87206 -2.87765 0
M  V30 2342 C 215.144 -3.07685 -2.91875 0
M  V30 2343 N 215.535 -4.30403 -2.65683 0
M  V30 2344 C 213.833 -3.07505 -3.23043 0
M  V30 2345 C 214.534 -5.11868 -2.76344 0
M  V30 2346 N 213.51 -4.47101 -3.09195 0
M  V30 2347 H 217.312 -2.64381 -1.28375 0
M  V30 2348 H 214.826 -1.50203 -0.617479 0
M  V30 2349 H 216.823 -1.99419 -3.66111 0
M  V30 2350 H 215.483 -0.958814 -3.10221 0
M  V30 2351 H 216.494 -4.58887 -2.4009 0
M  V30 2352 H 213.171 -2.25915 -3.51096 0
M  V30 2353 H 214.561 -6.19634 -2.59814 0
M  V30 2354 N 217.281 0.66697 -1.42791 0
M  V30 2355 C 218.697 0.981027 -1.25889 0
M  V30 2356 C 218.897 2.00793 -0.168695 0
M  V30 2357 O 217.953 2.48321 0.45747 0
M  V30 2358 C 219.266 1.47838 -2.61848 0
M  V30 2359 C 220.814 1.59575 -2.69267 0
M  V30 2360 C 221.289 2.12704 -4.05612 0
M  V30 2361 N 222.78 2.20026 -4.07606 0
M  V30 2362 C 223.515 2.62227 -5.09926 0
M  V30 2363 N 223.011 3.03824 -6.22626 0
M  V30 2364 N 224.804 2.62045 -4.97281 0
M  V30 2365 H 216.955 -0.0127891 -2.12396 0
M  V30 2366 H 219.218 0.0568258 -0.946295 0
M  V30 2367 H 218.924 0.798299 -3.4252 0
M  V30 2368 H 218.798 2.45579 -2.86305 0
M  V30 2369 H 221.185 2.26687 -1.88936 0
M  V30 2370 H 221.266 0.60302 -2.48591 0
M  V30 2371 H 220.91 1.46198 -4.86404 0
M  V30 2372 H 220.84 3.12782 -4.23645 0
M  V30 2373 H 223.331 1.90708 -3.2625 0
M  V30 2374 H 223.644 3.34734 -6.96544 0
M  V30 2375 H 221.989 3.01662 -6.26119 0
M  V30 2376 H 225.18 2.28916 -4.08308 0
M  V30 2377 H 225.353 2.94613 -5.77154 0
M  V30 2378 N 218.759 1.29093 0.90403 0
M  V30 2379 C 220.036 1.075 1.63411 0
M  V30 2380 C 220.416 -0.382346 2.07609 0
M  V30 2381 O 219.764 -1.37031 1.82851 0
M  V30 2382 C 219.974 2.05858 2.81822 0
M  V30 2383 C 221.322 2.36539 3.52611 0
M  V30 2384 O 222.346 2.04019 2.91984 0
M  V30 2385 O 221.205 2.92085 4.61897 0
M  V30 2386 H 218.299 0.411547 0.717327 0
M  V30 2387 H 220.845 1.40449 0.952479 0
M  V30 2388 H 219.617 3.04037 2.46327 0
M  V30 2389 H 219.24 1.73613 3.57693 0
M  V30 2390 N 220.237 -1.11381 1.11499 0
M  V30 2391 C 221.167 -2.19509 0.796125 0
M  V30 2392 C 222.148 -1.68458 -0.235796 0
M  V30 2393 O 223.333 -1.93947 -0.0991344 0
M  V30 2394 C 220.463 -3.46475 0.239205 0
M  V30 2395 C 219.417 -4.10744 1.20307 0
M  V30 2396 C 218.743 -5.32293 0.50683 0
M  V30 2397 C 220.043 -4.55597 2.55399 0
M  V30 2398 H 221.737 -2.46439 1.70024 0
M  V30 2399 H 219.283 -1.18446 0.818935 0
M  V30 2400 H 221.236 -4.214 0.00392006 0
M  V30 2401 H 219.96 -3.19006 -0.700206 0
M  V30 2402 H 218.619 -3.37813 1.42399 0
M  V30 2403 H 218.267 -5.01095 -0.437408 0
M  V30 2404 H 217.967 -5.76243 1.1497 0
M  V30 2405 H 219.491 -6.09956 0.280351 0
M  V30 2406 H 220.905 -5.21841 2.37391 0
M  V30 2407 H 219.302 -5.10363 3.15673 0
M  V30 2408 H 220.372 -3.69013 3.14575 0
M  V30 2409 N 221.715 -0.905404 -1.28997 0
M  V30 2410 C 222.662 -0.385892 -2.27551 0
M  V30 2411 C 223.632 0.535113 -1.57244 0
M  V30 2412 O 224.817 0.459119 -1.85194 0
M  V30 2413 C 221.957 0.375461 -3.43051 0
M  V30 2414 C 221.07 -0.577092 -4.28128 0
M  V30 2415 C 220.205 0.201879 -5.30816 0
M  V30 2416 C 219.244 -0.744829 -6.07551 0
M  V30 2417 N 218.381 9.42587e-05 -7.021 0
M  V30 2418 H 223.221 -1.23139 -2.71368 0
M  V30 2419 H 220.758 -0.618542 -1.33463 0
M  V30 2420 H 222.716 0.832992 -4.088 0
M  V30 2421 H 221.346 1.18537 -3.00248 0
M  V30 2422 H 220.398 -1.15315 -3.62501 0
M  V30 2423 H 221.71 -1.30152 -4.8152 0
M  V30 2424 H 220.864 0.720351 -6.02408 0
M  V30 2425 H 219.603 0.959413 -4.7817 0
M  V30 2426 H 218.608 -1.27475 -5.34818 0
M  V30 2427 H 219.833 -1.50178 -6.62286 0
M  V30 2428 H 217.779 0.739791 -6.51815 0
M  V30 2429 H 217.696 -0.664321 -7.53076 0
M  V30 2430 H 218.964 0.498644 -7.77903 0
M  V30 2431 N 223.193 1.4272 -0.668489 0
M  V30 2432 C 224.604 1.84793 -0.266151 0
M  V30 2433 C 224.955 1.55959 1.19043 0
M  V30 2434 O 224.08 1.01622 1.91055 0
M  V30 2435 C 224.675 3.35436 -0.476271 0
M  V30 2436 C 223.234 3.76182 -0.128113 0
M  V30 2437 C 222.381 2.66344 -0.771777 0
M  V30 2438 H 225.332 1.32656 -0.871098 0
M  V30 2439 H 225.353 3.79515 0.273561 0
M  V30 2440 H 224.865 3.5639 -1.53647 0
M  V30 2441 H 222.966 3.60836 0.928891 0
M  V30 2442 H 223.079 4.75766 -0.564231 0
M  V30 2443 H 221.443 2.53885 -0.203652 0
M  V30 2444 H 222.226 2.90123 -1.83531 0
M  V30 2445 N 224.671 0.411399 1.52136 0
M  V30 2446 C 225.634 -0.401089 2.25663 0
M  V30 2447 C 226.634 -0.971732 1.28117 0
M  V30 2448 O 227.824 -0.850254 1.52041 0
M  V30 2449 C 224.956 -1.56483 3.02863 0
M  V30 2450 H 226.149 0.24295 2.98914 0
M  V30 2451 H 223.702 0.163968 1.55438 0
M  V30 2452 H 224.437 -2.24567 2.33967 0
M  V30 2453 H 224.222 -1.16211 3.74483 0
M  V30 2454 H 225.712 -2.13951 3.58629 0
M  V30 2455 N 226.149 -1.5696 0.141893 0
M  V30 2456 C 227.097 -2.17784 -0.816874 0
M  V30 2457 C 228.091 -1.1334 -1.25899 0
M  V30 2458 O 229.297 -1.316 -1.22806 0
M  V30 2459 H 225.672 -0.697278 -0.281615 0
M  V30 2460 H 227.643 -2.97087 -0.279621 0
M  V30 2461 C 226.392 -2.80983 -2.04802 0
M  V30 2462 H 225.715 -3.61062 -1.7168 0
M  V30 2463 H 227.155 -3.2705 -2.69841 0
M  V30 2464 C 225.614 -1.79228 -2.8527 0
M  V30 2465 O 226.144 -1.25962 -3.8144 0
M  V30 2466 N 224.35 -1.48647 -2.49704 0
M  V30 2467 H 223.897 -1.92155 -1.71564 0
M  V30 2468 H 223.855 -0.808115 -3.03837 0
M  V30 2469 N 227.627 0.131896 -1.57047 0
M  V30 2470 C 228.876 0.84044 -1.83356 0
M  V30 2471 C 229.189 1.81646 -0.725535 0
M  V30 2472 O 230.395 2.57025 -0.874659 0
M  V30 2473 C 228.851 1.54528 -3.25037 0
M  V30 2474 C 228.459 0.610902 -4.43815 0
M  V30 2475 C 230.203 2.23972 -3.60606 0
M  V30 2476 C 228.11 1.31823 -5.76521 0
M  V30 2477 H 227.04 0.317599 -0.683847 0
M  V30 2478 H 229.691 0.0931561 -1.83263 0
M  V30 2479 H 228.073 2.33873 -3.19561 0
M  V30 2480 H 229.247 -0.148407 -4.60561 0
M  V30 2481 H 227.562 0.0241016 -4.16393 0
M  V30 2482 H 230.159 2.77558 -4.57018 0
M  V30 2483 H 230.502 3.01173 -2.87403 0
M  V30 2484 H 231.035 1.51529 -3.6781 0
M  V30 2485 H 227.774 0.587771 -6.52859 0
M  V30 2486 H 227.294 2.04987 -5.63685 0
M  V30 2487 H 228.973 1.855 -6.19838 0
M  V30 2488 N 229.106 1.52395 0.401703 0
M  V30 2489 C 230.353 1.66817 1.14796 0
M  V30 2490 C 230.681 0.401772 1.90305 0
M  V30 2491 O 229.936 -0.615487 1.85769 0
M  V30 2492 C 230.235 2.84578 2.16217 0
M  V30 2493 C 229.901 4.22513 1.5746 0
M  V30 2494 C 228.563 4.60029 1.41161 0
M  V30 2495 C 230.915 5.0844 1.14622 0
M  V30 2496 C 228.243 5.81144 0.80552 0
M  V30 2497 C 230.595 6.30167 0.55428 0
M  V30 2498 C 229.259 6.66426 0.378482 0
M  V30 2499 H 228.529 0.610428 0.420069 0
M  V30 2500 H 231.176 1.86512 0.434212 0
M  V30 2501 H 229.481 2.59248 2.93764 0
M  V30 2502 H 231.178 2.92933 2.73845 0
M  V30 2503 H 227.768 3.92953 1.71132 0
M  V30 2504 H 231.952 4.80034 1.26021 0
M  V30 2505 H 227.208 6.07855 0.657399 0
M  V30 2506 H 231.382 6.96071 0.213983 0
M  V30 2507 H 229.009 7.60143 -0.0932606 0
M  V30 2508 N 230.584 -0.659388 1.43143 0
M  V30 2509 C 231.833 -1.41518 1.43721 0
M  V30 2510 C 232.146 -1.95499 0.0628176 0
M  V30 2511 O 233.352 -2.71446 -0.0539683 0
M  V30 2512 C 231.808 -2.5608 2.52885 0
M  V30 2513 C 231.416 -2.08733 3.96402 0
M  V30 2514 C 233.16 -3.3349 2.62649 0
M  V30 2515 C 231.067 -3.20469 4.97045 0
M  V30 2516 H 229.997 -0.531705 0.534608 0
M  V30 2517 H 232.648 -0.712343 1.69109 0
M  V30 2518 H 231.03 -3.28805 2.20688 0
M  V30 2519 H 232.204 -1.43059 4.3803 0
M  V30 2520 H 230.519 -1.44219 3.90627 0
M  V30 2521 H 233.116 -4.16734 3.35017 0
M  V30 2522 H 233.459 -3.8111 1.67513 0
M  V30 2523 H 233.992 -2.67842 2.94118 0
M  V30 2524 H 230.731 -2.77824 5.93712 0
M  V30 2525 H 230.251 -3.84874 4.60034 0
M  V30 2526 H 231.93 -3.85698 5.19467 0
M  V30 2527 N 232.062 -1.29571 -0.897171 0
M  V30 2528 C 233.287 -1.20705 -1.68656 0
M  V30 2529 C 233.712 0.228582 -1.86706 0
M  V30 2530 O 233.07 1.16494 -1.3892 0
M  V30 2531 C 233.118 -1.9282 -3.04717 0
M  V30 2532 O 232.222 -1.24697 -3.93096 0
M  V30 2533 H 231.563 -0.418126 -0.515816 0
M  V30 2534 H 234.093 -1.71183 -1.12061 0
M  V30 2535 H 234.103 -2.01372 -3.54843 0
M  V30 2536 H 232.778 -2.97239 -2.90899 0
M  V30 2537 H 231.355 -1.2442 -3.51531 0
M  V30 2538 N 233.54 1.10788 -1.12088 0
M  V30 2539 C 234.768 1.86461 -0.896651 0
M  V30 2540 C 235.183 1.80492 0.553912 0
M  V30 2541 O 234.54 1.19102 1.38278 0
M  V30 2542 C 234.591 3.35006 -1.35843 0
M  V30 2543 O 234.312 3.40866 -2.75213 0
M  V30 2544 C 235.813 4.27565 -1.1706 0
M  V30 2545 H 233.033 0.589425 -0.320654 0
M  V30 2546 H 235.577 1.40076 -1.48993 0
M  V30 2547 H 233.732 3.7887 -0.808458 0
M  V30 2548 H 234.146 4.33411 -2.9539 0
M  V30 2549 H 235.62 5.30007 -1.54263 0
M  V30 2550 H 236.097 4.3906 -0.110814 0
M  V30 2551 H 236.703 3.89501 -1.70789 0
M  V30 2552 N 235.018 0.912232 1.28515 0
M  V30 2553 C 235.928 0.404506 2.31086 0
M  V30 2554 C 236.944 -0.50707 1.66448 0
M  V30 2555 O 238.12 -0.393624 1.97516 0
M  V30 2556 C 235.185 -0.348572 3.44943 0
M  V30 2557 C 234.246 0.59604 4.25142 0
M  V30 2558 C 233.479 -0.121194 5.33562 0
M  V30 2559 O 233.702 -1.34317 5.5436 0
M  V30 2560 O 232.636 0.542716 5.99448 0
M  V30 2561 H 236.462 1.25579 2.76521 0
M  V30 2562 H 234.047 0.676998 1.33181 0
M  V30 2563 H 235.929 -0.77395 4.14232 0
M  V30 2564 H 234.604 -1.17571 3.01594 0
M  V30 2565 H 233.511 1.07079 3.58448 0
M  V30 2566 H 234.844 1.38995 4.72167 0
M  V30 2567 N 236.496 -1.42363 0.676048 0
M  V30 2568 C 237.773 -1.95183 0.127726 0
M  V30 2569 C 238.153 -1.61641 -1.35777 0
M  V30 2570 O 237.501 -0.913216 -2.09458 0
M  V30 2571 C 237.711 -3.46721 0.398199 0
M  V30 2572 C 239.059 -4.23427 0.315383 0
M  V30 2573 O 240.083 -3.54649 0.332016 0
M  V30 2574 O 238.942 -5.45888 0.25865 0
M  V30 2575 H 236.036 -0.826992 0.00359427 0
M  V30 2576 H 238.582 -1.52184 0.750864 0
M  V30 2577 H 237.354 -3.64344 1.4272 0
M  V30 2578 H 236.977 -3.96769 -0.256885 0
M  V30 2579 N 237.974 -0.419461 -1.51915 0
M  V30 2580 C 238.904 0.391813 -2.30189 0
M  V30 2581 C 239.885 1.03699 -1.34836 0
M  V30 2582 O 241.07 1.04403 -1.63748 0
M  V30 2583 C 238.2 1.50312 -3.13087 0
M  V30 2584 C 237.154 0.9824 -4.16573 0
M  V30 2585 C 236.48 2.18809 -4.8788 0
M  V30 2586 C 237.78 0.0292356 -5.22292 0
M  V30 2587 H 239.474 -0.26135 -2.98257 0
M  V30 2588 H 237.02 -0.127134 -1.43438 0
M  V30 2589 H 238.973 2.07773 -3.66617 0
M  V30 2590 H 237.697 2.18431 -2.42807 0
M  V30 2591 H 236.356 0.430119 -3.64068 0
M  V30 2592 H 236.004 2.85507 -4.14119 0
M  V30 2593 H 235.704 1.84615 -5.57845 0
M  V30 2594 H 237.228 2.76858 -5.44226 0
M  V30 2595 H 238.642 0.512976 -5.71 0
M  V30 2596 H 237.039 -0.2244 -5.9968 0
M  V30 2597 H 238.109 -0.912931 -4.76228 0
M  V30 2598 N 239.452 1.56882 -0.150215 0
M  V30 2599 C 240.698 1.96518 0.500834 0
M  V30 2600 C 241.031 1.03527 1.64304 0
M  V30 2601 O 240.306 0.0782751 1.94342 0
M  V30 2602 C 240.589 3.45822 1.00395 0
M  V30 2603 C 240.442 4.49591 -0.136983 0
M  V30 2604 C 241.761 3.97704 1.88467 0
M  V30 2605 H 238.88 0.714535 0.18058 0
M  V30 2606 H 241.522 1.88577 -0.232091 0
M  V30 2607 H 239.672 3.5272 1.62851 0
M  V30 2608 H 241.344 4.5477 -0.77343 0
M  V30 2609 H 239.587 4.26441 -0.795652 0
M  V30 2610 H 240.258 5.51402 0.256815 0
M  V30 2611 H 242.734 3.93304 1.35834 0
M  V30 2612 H 241.61 5.0263 2.20578 0
M  V30 2613 H 241.871 3.40252 2.82279 0
M  V30 2614 N 240.93 -0.123565 1.57115 0
M  V30 2615 C 241.86 -1.15309 2.03042 0
M  V30 2616 C 242.841 -1.43454 0.914061 0
M  V30 2617 O 244.026 -1.53973 1.18347 0
M  V30 2618 C 241.156 -2.48043 2.43089 0
M  V30 2619 C 240.11 -2.3437 3.58127 0
M  V30 2620 C 239.436 -3.72026 3.84059 0
M  V30 2621 C 240.736 -1.80804 4.90007 0
M  V30 2622 H 242.43 -0.771102 2.893 0
M  V30 2623 H 239.976 -0.369479 1.39179 0
M  V30 2624 H 241.929 -3.20311 2.73823 0
M  V30 2625 H 240.653 -2.88122 1.53796 0
M  V30 2626 H 239.312 -1.64551 3.27595 0
M  V30 2627 H 238.96 -4.09582 2.91979 0
M  V30 2628 H 238.66 -3.63732 4.6149 0
M  V30 2629 H 240.184 -4.45806 4.1724 0
M  V30 2630 H 241.598 -2.42886 5.19307 0
M  V30 2631 H 239.995 -1.83343 5.71407 0
M  V30 2632 H 241.065 -0.76528 4.78823 0
M  V30 2633 N 242.408 -1.52605 -0.393616 0
M  V30 2634 C 243.355 -1.77055 -1.48054 0
M  V30 2635 C 244.325 -0.61358 -1.54352 0
M  V30 2636 O 245.51 -0.852806 -1.70681 0
M  V30 2637 C 242.65 -1.94108 -2.85335 0
M  V30 2638 C 241.763 -3.21792 -2.88226 0
M  V30 2639 C 240.898 -3.29188 -4.16904 0
M  V30 2640 C 239.937 -4.51013 -4.13828 0
M  V30 2641 N 239.074 -4.55716 -5.34105 0
M  V30 2642 H 243.914 -2.69815 -1.26506 0
M  V30 2643 H 241.451 -1.33683 -0.61379 0
M  V30 2644 H 243.409 -2.01979 -3.65049 0
M  V30 2645 H 242.039 -1.04713 -3.05344 0
M  V30 2646 H 241.091 -3.23015 -2.00911 0
M  V30 2647 H 242.403 -4.11557 -2.8182 0
M  V30 2648 H 241.557 -3.36216 -5.05018 0
M  V30 2649 H 240.296 -2.37389 -4.26026 0
M  V30 2650 H 239.301 -4.44115 -3.24102 0
M  V30 2651 H 240.526 -5.44123 -4.06333 0
M  V30 2652 H 238.472 -3.66807 -5.43865 0
M  V30 2653 H 238.389 -5.39346 -5.29756 0
M  V30 2654 H 239.657 -4.66993 -6.2413 0
M  V30 2655 N 243.887 0.651787 -1.4349 0
M  V30 2656 C 245.136 1.40754 -1.44469 0
M  V30 2657 C 245.449 1.95463 -0.0731845 0
M  V30 2658 O 246.655 2.71471 0.0395721 0
M  V30 2659 C 245.111 2.54735 -2.5424 0
M  V30 2660 C 244.719 2.06628 -3.97504 0
M  V30 2661 C 246.463 3.32092 -2.64414 0
M  V30 2662 C 244.37 3.17829 -4.98737 0
M  V30 2663 H 243.3 0.528862 -0.53742 0
M  V30 2664 H 245.951 0.703365 -1.69485 0
M  V30 2665 H 244.333 3.2763 -2.22428 0
M  V30 2666 H 245.507 1.40734 -4.38783 0
M  V30 2667 H 243.822 1.42146 -3.91387 0
M  V30 2668 H 246.419 4.14952 -3.37223 0
M  V30 2669 H 246.762 3.80217 -1.69532 0
M  V30 2670 H 247.295 2.66279 -2.95534 0
M  V30 2671 H 244.034 2.74671 -5.95177 0
M  V30 2672 H 243.554 3.82429 -4.62069 0
M  V30 2673 H 245.233 3.82937 -5.21505 0
M  V30 2674 N 245.365 1.30045 0.890287 0
M  V30 2675 C 246.613 1.18327 1.63839 0
M  V30 2676 C 246.934 -0.263455 1.93212 0
M  V30 2677 O 246.204 -1.17856 1.56482 0
M  V30 2678 H 244.784 0.434933 0.607324 0
M  V30 2679 H 247.446 1.631 1.06698 0
M  V30 2680 H 246.542 1.74024 2.59079 0
M  V30 2681 N 246.843 -1.10192 1.12674 0
M  V30 2682 C 248.12 -1.78717 0.794965 0
M  V30 2683 C 248.5 -1.98628 -0.714853 0
M  V30 2684 O 247.848 -1.58135 -1.64941 0
M  V30 2685 C 248.058 -3.11546 1.5729 0
M  V30 2686 C 249.406 -3.86382 1.76052 0
M  V30 2687 O 250.43 -3.21274 1.53823 0
M  V30 2688 O 249.289 -5.03246 2.13087 0
M  V30 2689 H 246.383 -0.774702 0.289423 0
M  V30 2690 H 248.929 -1.16819 1.23091 0
M  V30 2691 H 247.701 -2.92489 2.59935 0
M  V30 2692 H 247.324 -3.81164 1.13137 0
M  V30 2693 N 248.321 -0.919034 -1.28029 0
M  V30 2694 C 249.568 -0.554934 -1.94748 0
M  V30 2695 C 249.896 0.90231 -1.72304 0
M  V30 2696 O 249.151 1.65767 -1.04018 0
M  V30 2697 C 249.45 -0.816855 -3.4794 0
M  V30 2698 C 249.116 -2.25448 -3.90492 0
M  V30 2699 C 247.778 -2.64752 -4.01821 0
M  V30 2700 C 250.13 -3.18977 -4.12193 0
M  V30 2701 C 247.458 -3.96727 -4.32232 0
M  V30 2702 C 249.81 -4.50523 -4.44086 0
M  V30 2703 C 248.474 -4.89673 -4.53626 0
M  V30 2704 H 247.744 -0.203065 -0.712633 0
M  V30 2705 H 250.391 -1.16136 -1.52265 0
M  V30 2706 H 248.696 -0.127677 -3.91592 0
M  V30 2707 H 250.393 -0.514238 -3.97689 0
M  V30 2708 H 246.983 -1.93952 -3.82205 0
M  V30 2709 H 251.167 -2.89817 -4.02889 0
M  V30 2710 H 246.423 -4.26754 -4.37825 0
M  V30 2711 H 250.597 -5.23005 -4.59825 0
M  V30 2712 H 248.224 -5.91969 -4.76946 0
M  V30 2713 N 249.799 1.42003 -0.683588 0
M  V30 2714 C 251.047 2.01015 -0.209101 0
M  V30 2715 C 251.368 1.54365 1.19149 0
M  V30 2716 O 250.638 0.769083 1.80172 0
M  V30 2717 H 249.218 0.743294 -0.074315 0
M  V30 2718 H 251.88 1.73798 -0.882066 0
M  V30 2719 H 250.976 3.11343 -0.2172 0
M  V30 2720 N 251.277 0.427512 1.51691 0
M  V30 2721 C 252.207 -0.3796 2.30394 0
M  V30 2722 C 253.188 -1.02982 1.35384 0
M  V30 2723 O 254.373 -1.03534 1.643 0
M  V30 2724 C 251.503 -1.48649 3.1388 0
M  V30 2725 C 250.457 -0.960294 4.17088 0
M  V30 2726 C 249.783 -2.16219 4.89033 0
M  V30 2727 C 251.083 -0.00153679 5.223 0
M  V30 2728 H 252.777 0.277164 2.98114 0
M  V30 2729 H 250.323 0.134739 1.43368 0
M  V30 2730 H 252.276 -2.05826 3.67714 0
M  V30 2731 H 251 -2.1714 2.43962 0
M  V30 2732 H 249.659 -0.410806 3.64291 0
M  V30 2733 H 249.307 -2.83307 4.15628 0
M  V30 2734 H 249.007 -1.81654 5.58816 0
M  V30 2735 H 250.531 -2.73968 5.45687 0
M  V30 2736 H 251.945 -0.482687 5.71264 0
M  V30 2737 H 250.342 0.256199 5.99553 0
M  V30 2738 H 251.412 0.938174 4.75738 0
M  V30 2739 N 252.755 -1.56801 0.158532 0
M  V30 2740 C 253.718 -2.16138 -0.762705 0
M  V30 2741 C 254.718 -1.1061 -1.16713 0
M  V30 2742 O 255.908 -1.36191 -1.08617 0
M  V30 2743 C 253.04 -2.73386 -2.03649 0
M  V30 2744 H 254.233 -2.98886 -0.246354 0
M  V30 2745 H 251.786 -1.56035 -0.0909744 0
M  V30 2746 H 252.521 -1.94335 -2.59623 0
M  V30 2747 H 252.306 -3.50601 -1.75559 0
M  V30 2748 H 253.796 -3.19065 -2.6942 0
M  V30 2749 N 254.233 0.115231 -1.57178 0
M  V30 2750 C 255.649 0.468877 -1.52557 0
M  V30 2751 C 255.849 1.81649 -0.872125 0
M  V30 2752 O 254.905 2.48347 -0.45606 0
M  V30 2753 C 256.218 0.4499 -2.97315 0
M  V30 2754 C 257.766 0.533185 -3.08425 0
M  V30 2755 C 258.241 0.54456 -4.54751 0
M  V30 2756 N 259.732 0.605892 -4.5922 0
M  V30 2757 C 260.467 0.636203 -5.6986 0
M  V30 2758 N 259.963 0.623931 -6.89985 0
M  V30 2759 N 261.756 0.679496 -5.57978 0
M  V30 2760 H 253.907 -0.767712 -1.9804 0
M  V30 2761 H 256.17 -0.283609 -0.904583 0
M  V30 2762 H 255.876 -0.472721 -3.48509 0
M  V30 2763 H 255.75 1.27632 -3.5495 0
M  V30 2764 H 258.137 1.44623 -2.57232 0
M  V30 2765 H 258.218 -0.320995 -2.53778 0
M  V30 2766 H 257.862 -0.364452 -5.06591 0
M  V30 2767 H 257.792 1.41568 -5.07214 0
M  V30 2768 H 260.283 0.621386 -3.72756 0
M  V30 2769 H 260.596 0.649787 -7.70063 0
M  V30 2770 H 258.941 0.591296 -6.9248 0
M  V30 2771 H 262.132 0.686472 -4.63039 0
M  V30 2772 H 262.305 0.69965 -6.44212 0
M  V30 2773 N 255.711 1.52812 0.385517 0
M  V30 2774 C 256.96 1.67249 1.12741 0
M  V30 2775 C 257.273 0.4205 1.91027 0
M  V30 2776 O 258.479 0.445064 2.67827 0
M  V30 2777 C 256.935 2.95583 2.05326 0
M  V30 2778 C 256.543 4.27974 1.32447 0
M  V30 2779 C 258.287 3.19386 2.7963 0
M  V30 2780 C 256.194 5.47412 2.23818 0
M  V30 2781 H 255.124 0.6231 0.424573 0
M  V30 2782 H 257.775 1.79309 0.389924 0
M  V30 2783 H 256.157 2.77277 2.82725 0
M  V30 2784 H 257.331 4.56844 0.602495 0
M  V30 2785 H 255.646 4.10459 0.700885 0
M  V30 2786 H 258.243 4.05801 3.48181 0
M  V30 2787 H 258.586 2.34604 3.43899 0
M  V30 2788 H 259.119 3.38274 2.09322 0
M  V30 2789 H 255.858 6.34612 1.64157 0
M  V30 2790 H 255.378 5.22849 2.93921 0
M  V30 2791 H 257.057 5.81423 2.83824 0
M  V30 2792 N 257.189 -0.644168 1.43834 0
M  V30 2793 C 258.435 -1.40603 1.46146 0
M  V30 2794 C 258.768 -1.93997 0.0887717 0
M  V30 2795 O 258.043 -1.72854 -0.891724 0
M  V30 2796 C 258.326 -2.58086 2.51124 0
M  V30 2797 C 258.179 -2.10126 3.97702 0
M  V30 2798 C 259.498 -3.60291 2.52742 0
M  V30 2799 H 256.617 -0.509905 0.532134 0
M  V30 2800 H 259.259 -0.729502 1.75437 0
M  V30 2801 H 257.409 -3.15801 2.26278 0
M  V30 2802 H 259.081 -1.57342 4.33637 0
M  V30 2803 H 257.324 -1.41419 4.10101 0
M  V30 2804 H 257.995 -2.94649 4.66783 0
M  V30 2805 H 260.471 -3.12352 2.7491 0
M  V30 2806 H 259.347 -4.40032 3.28121 0
M  V30 2807 H 259.608 -4.1349 1.56455 0
M  V30 2808 N 258.668 -1.30515 -0.883378 0
M  V30 2809 C 259.945 -1.10086 -1.6168 0
M  V30 2810 C 260.325 0.349269 -2.08191 0
M  V30 2811 O 259.673 1.34105 -1.85008 0
M  V30 2812 C 259.883 -2.10315 -2.78511 0
M  V30 2813 C 261.231 -2.42119 -3.48803 0
M  V30 2814 O 262.255 -2.08638 -2.88702 0
M  V30 2815 O 261.114 -2.99396 -4.57192 0
M  V30 2816 H 258.208 -0.422907 -0.710689 0
M  V30 2817 H 260.754 -1.41947 -0.930015 0
M  V30 2818 H 259.526 -3.07917 -2.41459 0
M  V30 2819 H 259.149 -1.79282 -3.54886 0
M  V30 2820 N 260.146 1.09593 -1.13257 0
M  V30 2821 C 261.078 2.16015 -0.766167 0
M  V30 2822 C 262.091 1.61423 0.211303 0
M  V30 2823 O 263.28 1.78498 -0.00863946 0
M  V30 2824 C 260.38 3.38706 -0.114662 0
M  V30 2825 C 259.553 4.22717 -1.12379 0
M  V30 2826 C 258.612 5.23835 -0.498301 0
M  V30 2827 O 257.638 5.573 -1.15781 0
M  V30 2828 N 258.84 5.75886 0.730417 0
M  V30 2829 H 261.605 2.48055 -1.68193 0
M  V30 2830 H 259.166 1.25292 -1.02535 0
M  V30 2831 H 261.158 4.03464 0.315991 0
M  V30 2832 H 259.728 3.04569 0.704011 0
M  V30 2833 H 258.948 3.54122 -1.73179 0
M  V30 2834 H 260.236 4.75673 -1.80589 0
M  V30 2835 H 259.634 5.50911 1.28504 0
M  V30 2836 H 258.191 6.42387 1.10376 0
M  V30 2837 N 261.624 0.925811 1.2754 0
M  V30 2838 C 262.574 0.394488 2.24561 0
M  V30 2839 C 263.558 -0.500183 1.52928 0
M  V30 2840 O 264.75 -0.337936 1.73744 0
M  V30 2841 C 261.879 -0.353328 3.41477 0
M  V30 2842 C 260.965 0.557752 4.20416 0
M  V30 2843 N 261.356 1.67674 4.77199 0
M  V30 2844 C 259.654 0.360404 4.44541 0
M  V30 2845 C 260.355 2.24324 5.36706 0
M  V30 2846 N 259.331 1.53305 5.21535 0
M  V30 2847 H 263.133 1.2489 2.66045 0
M  V30 2848 H 260.647 0.779864 1.4245 0
M  V30 2849 H 262.644 -0.7509 4.10082 0
M  V30 2850 H 261.304 -1.20469 3.01525 0
M  V30 2851 H 262.315 2.05915 4.75204 0
M  V30 2852 H 258.992 -0.450454 4.15063 0
M  V30 2853 H 260.382 3.18521 5.91603 0
M  V30 2854 N 263.102 -1.41638 0.69111 0
M  V30 2855 C 264.332 -2.0533 0.228758 0
M  V30 2856 C 264.74 -1.52089 -1.12541 0
M  V30 2857 O 264.083 -0.662145 -1.71351 0
M  V30 2858 C 264.145 -3.59349 0.10407 0
M  V30 2859 C 263.809 -4.35362 1.38956 0
M  V30 2860 C 264.806 -4.64942 2.32648 0
M  V30 2861 C 262.491 -4.74714 1.64169 0
M  V30 2862 C 264.485 -5.32828 3.49818 0
M  V30 2863 C 262.172 -5.42338 2.81625 0
M  V30 2864 C 263.17 -5.71322 3.74273 0
M  V30 2865 O 262.858 -6.37554 4.89673 0
M  V30 2866 H 262.59 -0.667796 0.104997 0
M  V30 2867 H 265.144 -1.82477 0.942938 0
M  V30 2868 H 263.374 -3.80924 -0.665839 0
M  V30 2869 H 265.063 -4.04633 -0.320519 0
M  V30 2870 H 265.829 -4.35025 2.14425 0
M  V30 2871 H 261.708 -4.51538 0.929202 0
M  V30 2872 H 265.252 -5.55368 4.22152 0
M  V30 2873 H 261.149 -5.71673 2.99768 0
M  V30 2874 H 261.917 -6.56049 4.8943 0
M  V30 2875 N 264.58 -0.43555 -1.51462 0
M  V30 2876 C 265.805 0.132627 -2.06976 0
M  V30 2877 C 266.23 1.35848 -1.30104 0
M  V30 2878 O 265.588 1.78112 -0.338493 0
M  V30 2879 C 265.636 0.43523 -3.57964 0
M  V30 2880 O 264.74 1.52198 -3.83288 0
M  V30 2881 H 264.081 0.00265 -0.663995 0
M  V30 2882 H 266.611 -0.616369 -1.95095 0
M  V30 2883 H 266.621 0.686206 -4.02188 0
M  V30 2884 H 265.296 -0.460739 -4.1334 0
M  V30 2885 H 263.873 1.2611 -3.50928 0
M  V30 2886 N 266.058 1.56714 -0.166846 0
M  V30 2887 C 267.008 2.14338 0.777382 0
M  V30 2888 C 267.992 1.07642 1.19591 0
M  V30 2889 O 269.184 1.33775 1.15902 0
M  V30 2890 C 266.313 2.78417 2.00846 0
M  V30 2891 C 265.399 3.92264 1.61212 0
M  V30 2892 N 265.79 4.97268 0.925104 0
M  V30 2893 C 264.088 4.03342 1.90346 0
M  V30 2894 C 264.789 5.77093 0.730627 0
M  V30 2895 N 263.765 5.2854 1.27067 0
M  V30 2896 H 267.567 2.9289 0.243466 0
M  V30 2897 H 265.081 1.62364 0.0339954 0
M  V30 2898 H 267.078 3.18073 2.69509 0
M  V30 2899 H 265.738 2.01344 2.54736 0
M  V30 2900 H 266.749 5.14601 0.583646 0
M  V30 2901 H 263.426 3.37368 2.45946 0
M  V30 2902 H 264.816 6.71638 0.187668 0
M  V30 2903 N 267.536 -0.106894 1.57237 0
M  V30 2904 C 268.483 -1.13049 2.01217 0
M  V30 2905 C 269.453 -1.40471 0.886403 0
M  V30 2906 O 270.638 -1.52133 1.15153 0
M  V30 2907 C 267.778 -2.4487 2.43172 0
M  V30 2908 C 266.891 -2.24281 3.69218 0
M  V30 2909 C 266.026 -3.49417 4.00101 0
M  V30 2910 C 265.065 -3.24038 5.19294 0
M  V30 2911 N 264.202 -4.41409 5.45988 0
M  V30 2912 H 269.042 -0.748456 2.88448 0
M  V30 2913 H 266.579 -0.358054 1.42676 0
M  V30 2914 H 268.537 -3.21786 2.65537 0
M  V30 2915 H 267.167 -2.80944 1.58967 0
M  V30 2916 H 266.219 -1.38224 3.54398 0
M  V30 2917 H 267.531 -2.01512 4.56283 0
M  V30 2918 H 266.685 -4.34746 4.2318 0
M  V30 2919 H 265.424 -3.75229 3.11535 0
M  V30 2920 H 264.429 -2.37102 4.96047 0
M  V30 2921 H 265.654 -2.99584 6.09447 0
M  V30 2922 H 263.6 -4.67319 4.60379 0
M  V30 2923 H 263.517 -4.21788 6.274 0
M  V30 2924 H 264.785 -5.27836 5.73593 0
M  V30 2925 N 269.014 -1.53014 -0.377408 0
M  V30 2926 C 270.262 -1.6829 -1.11906 0
M  V30 2927 C 270.583 -0.431206 -1.90173 0
M  V30 2928 O 269.853 0.554595 -1.87886 0
M  V30 2929 H 268.433 -0.620371 -0.416112 0
M  V30 2930 H 271.095 -1.90167 -0.426893 0
M  V30 2931 H 270.191 -2.53862 -1.8155 0
M  V30 2932 N 270.492 0.636531 -1.44174 0
M  V30 2933 C 271.722 1.42146 -1.49927 0
M  V30 2934 C 272.13 1.88812 -0.121063 0
M  V30 2935 O 271.473 1.61126 0.882267 0
M  V30 2936 C 271.535 2.67883 -2.39748 0
M  V30 2937 C 271.199 2.43048 -3.8701 0
M  V30 2938 C 272.196 2.05216 -4.77684 0
M  V30 2939 C 269.881 2.56856 -4.3166 0
M  V30 2940 C 271.875 1.81512 -6.11009 0
M  V30 2941 C 269.562 2.32766 -5.65034 0
M  V30 2942 C 270.56 1.95152 -6.54526 0
M  V30 2943 O 270.248 1.71326 -7.85431 0
M  V30 2944 H 269.98 0.442567 -0.51099 0
M  V30 2945 H 272.534 0.786158 -1.8976 0
M  V30 2946 H 270.764 3.34032 -1.94832 0
M  V30 2947 H 272.453 3.29874 -2.36513 0
M  V30 2948 H 273.219 1.94111 -4.44462 0
M  V30 2949 H 269.098 2.85104 -3.62266 0
M  V30 2950 H 272.642 1.52077 -6.80822 0
M  V30 2951 H 268.539 2.43479 -5.97819 0
M  V30 2952 H 269.307 1.85616 -7.97176 0
M  V30 2953 N 271.97 1.30982 0.876444 0
M  V30 2954 C 272.9 1.20668 1.99903 0
M  V30 2955 C 273.881 0.095354 1.69833 0
M  V30 2956 O 275.066 0.27885 1.92188 0
M  V30 2957 C 272.196 0.90655 3.3526 0
M  V30 2958 C 271.15 1.97675 3.79617 0
M  V30 2959 C 270.476 1.52943 5.1236 0
M  V30 2960 C 271.776 3.389 3.97422 0
M  V30 2961 H 273.47 2.14586 2.0879 0
M  V30 2962 H 271.016 1.03308 1.00317 0
M  V30 2963 H 272.969 0.821025 4.13324 0
M  V30 2964 H 271.693 -0.0682969 3.26529 0
M  V30 2965 H 270.352 2.05205 3.03787 0
M  V30 2966 H 270 0.54262 5.00065 0
M  V30 2967 H 269.7 2.24532 5.43009 0
M  V30 2968 H 271.224 1.45786 5.92941 0
M  V30 2969 H 272.638 3.34081 4.659 0
M  V30 2970 H 271.035 4.0865 4.3946 0
M  V30 2971 H 272.105 3.80163 3.01006 0
M  V30 2972 N 273.449 -1.08991 1.13837 0
M  V30 2973 C 274.674 -1.85551 0.926585 0
M  V30 2974 C 275.099 -1.80782 -0.519566 0
M  V30 2975 O 274.457 -1.18855 -1.36906 0
M  V30 2976 C 274.505 -3.31266 1.42462 0
M  V30 2977 O 273.609 -4.07822 0.612789 0
M  V30 2978 H 272.95 -0.575192 0.331738 0
M  V30 2979 H 275.48 -1.37604 1.51414 0
M  V30 2980 H 275.49 -3.82112 1.43019 0
M  V30 2981 H 274.165 -3.34052 2.47754 0
M  V30 2982 H 272.742 -3.66731 0.675463 0
M  V30 2983 N 274.927 -0.932562 -1.27047 0
M  V30 2984 C 275.837 -0.441219 -2.30414 0
M  V30 2985 C 276.853 0.480525 -1.67233 0
M  V30 2986 O 278.029 0.362151 -1.98117 0
M  V30 2987 C 275.094 0.293651 -3.45454 0
M  V30 2988 C 274.155 -0.663601 -4.2414 0
M  V30 2989 C 273.388 0.0362932 -5.33688 0
M  V30 2990 O 273.611 1.2548 -5.56427 0
M  V30 2991 O 272.545 -0.638015 -5.98509 0
M  V30 2992 H 276.371 -1.29962 -2.74488 0
M  V30 2993 H 273.956 -0.6981 -1.32087 0
M  V30 2994 H 275.838 0.707951 -4.15411 0
M  V30 2995 H 274.513 1.12758 -3.03426 0
M  V30 2996 H 273.42 -1.12768 -3.56699 0
M  V30 2997 H 274.753 -1.46489 -4.69896 0
M  V30 2998 N 276.405 1.4127 -0.698611 0
M  V30 2999 C 277.653 2.00782 -0.230409 0
M  V30 3000 C 277.974 1.5562 1.17505 0
M  V30 3001 O 277.244 0.78815 1.79346 0
M  V30 3002 H 275.824 0.742464 -0.0821944 0
M  V30 3003 H 278.486 1.72852 -0.90045 0
M  V30 3004 H 277.582 3.11095 -0.25021 0
M  V30 3005 N 277.883 0.443576 1.51229 0
M  V30 3006 C 278.813 -0.355142 2.30783 0
M  V30 3007 C 279.794 -1.0154 1.36468 0
M  V30 3008 O 280.979 -1.01785 1.65389 0
M  V30 3009 C 278.109 -1.45312 3.15439 0
M  V30 3010 C 277.063 -0.916002 4.18083 0
M  V30 3011 C 276.389 -2.1102 4.91299 0
M  V30 3012 C 277.689 0.0538602 5.22272 0
M  V30 3013 H 279.383 0.308767 2.97804 0
M  V30 3014 H 276.929 0.149937 1.43217 0
M  V30 3015 H 278.882 -2.01914 3.69876 0
M  V30 3016 H 277.606 -2.14541 2.46252 0
M  V30 3017 H 276.265 -0.372145 3.64706 0
M  V30 3018 H 275.913 -2.78882 4.18609 0
M  V30 3019 H 275.613 -1.75717 5.60712 0
M  V30 3020 H 277.137 -2.68164 5.48562 0
M  V30 3021 H 278.551 -0.422069 5.71744 0
M  V30 3022 H 276.948 0.319776 5.99247 0
M  V30 3023 H 278.018 0.98858 4.74716 0
M  V30 3024 N 279.361 -1.56624 0.175154 0
M  V30 3025 C 280.607 -1.9729 -0.469506 0
M  V30 3026 C 280.94 -1.06128 -1.62636 0
M  V30 3027 O 280.215 -0.109183 -1.94193 0
M  V30 3028 C 280.498 -3.47375 -0.948804 0
M  V30 3029 C 280.351 -4.49317 0.208491 0
M  V30 3030 C 281.67 -4.00652 -1.82116 0
M  V30 3031 H 278.789 -0.717317 -0.16919 0
M  V30 3032 H 281.431 -1.88184 0.262062 0
M  V30 3033 H 279.581 -3.55267 -1.57219 0
M  V30 3034 H 281.253 -4.53482 0.845682 0
M  V30 3035 H 279.496 -4.25121 0.863395 0
M  V30 3036 H 280.167 -5.51741 -0.169059 0
M  V30 3037 H 282.643 -3.95416 -1.2956 0
M  V30 3038 H 281.519 -5.06075 -2.12554 0
M  V30 3039 H 281.78 -3.44699 -2.7683 0
M  V30 3040 N 280.839 0.0985539 -1.57292 0
M  V30 3041 C 282.067 0.816318 -1.90115 0
M  V30 3042 C 282.482 1.72451 -0.768509 0
M  V30 3043 O 281.839 1.80643 0.259687 0
M  V30 3044 C 281.89 1.63259 -3.22535 0
M  V30 3045 O 281.611 0.760934 -4.31441 0
M  V30 3046 C 283.112 2.45372 -3.69199 0
M  V30 3047 H 280.332 0.233595 -0.629027 0
M  V30 3048 H 282.876 0.0768229 -2.04356 0
M  V30 3049 H 281.031 2.32463 -3.09903 0
M  V30 3050 H 281.445 1.32595 -5.07463 0
M  V30 3051 H 282.919 2.98144 -4.64558 0
M  V30 3052 H 283.396 3.23677 -2.96867 0
M  V30 3053 H 284.002 1.81373 -3.84687 0
M  V30 3054 N 282.317 1.53212 0.369288 0
M  V30 3055 C 283.264 1.79388 1.45219 0
M  V30 3056 C 284.234 0.638059 1.53356 0
M  V30 3057 O 285.419 0.879852 1.69302 0
M  V30 3058 C 282.559 1.98623 2.82211 0
M  V30 3059 C 281.672 3.26337 2.8307 0
M  V30 3060 C 280.807 3.35779 4.11614 0
M  V30 3061 C 279.846 4.5754 4.06601 0
M  V30 3062 N 278.983 4.64155 5.26787 0
M  V30 3063 H 283.823 2.71794 1.22198 0
M  V30 3064 H 281.36 1.34642 0.592444 0
M  V30 3065 H 283.318 2.07761 3.61789 0
M  V30 3066 H 281.948 1.09558 3.03639 0
M  V30 3067 H 281 3.26171 1.95747 0
M  V30 3068 H 282.312 4.15988 2.75237 0
M  V30 3069 H 281.466 3.44208 4.99606 0
M  V30 3070 H 280.205 2.44137 4.22195 0
M  V30 3071 H 279.21 4.49215 3.16996 0
M  V30 3072 H 280.435 5.50519 3.97625 0
M  V30 3073 H 278.381 3.75413 5.3796 0
M  V30 3074 H 278.298 5.47706 5.21109 0
M  V30 3075 H 279.566 4.76863 6.16621 0
M  V30 3076 N 283.795 -0.628877 1.44509 0
M  V30 3077 C 285.041 -1.38863 1.48623 0
M  V30 3078 C 285.396 -1.92038 0.117933 0
M  V30 3079 O 284.689 -1.70853 -0.86716 0
M  V30 3080 C 284.883 -2.56995 2.48371 0
M  V30 3081 C 284.712 -2.15385 3.94765 0
M  V30 3082 C 283.482 -2.02558 4.62924 0
M  V30 3083 C 285.68 -1.74158 4.83915 0
M  V30 3084 N 283.662 -1.54534 5.94132 0
M  V30 3085 C 285.033 -1.37396 6.04584 0
M  V30 3086 C 287.088 -1.61559 4.7096 0
M  V30 3087 C 285.791 -0.892948 7.13736 0
M  V30 3088 C 287.817 -1.14862 5.80139 0
M  V30 3089 C 287.179 -0.790516 6.9995 0
M  V30 3090 H 283.278 -0.502858 0.59888 0
M  V30 3091 H 285.862 -0.72121 1.8085 0
M  V30 3092 H 284.033 -3.21362 2.1813 0
M  V30 3093 H 285.765 -3.23801 2.42766 0
M  V30 3094 H 282.52 -2.23082 4.1777 0
M  V30 3095 H 282.944 -1.32815 6.63844 0
M  V30 3096 H 287.586 -1.87876 3.78764 0
M  V30 3097 H 285.304 -0.617291 8.05739 0
M  V30 3098 H 288.89 -1.05569 5.72142 0
M  V30 3099 H 287.77 -0.434713 7.82994 0
M  V30 3100 N 285.273 -1.31445 -0.869486 0
M  V30 3101 C 286.503 -1.23942 -1.65294 0
M  V30 3102 C 286.911 0.197561 -1.88166 0
M  V30 3103 O 286.254 1.14019 -1.44033 0
M  V30 3104 C 286.316 -1.91385 -3.04322 0
M  V30 3105 C 285.98 -3.40726 -3.04557 0
M  V30 3106 C 286.977 -4.36464 -2.82481 0
M  V30 3107 C 284.662 -3.82425 -3.25663 0
M  V30 3108 C 286.656 -5.71876 -2.8149 0
M  V30 3109 C 284.343 -5.1795 -3.243 0
M  V30 3110 C 285.341 -6.12486 -3.02241 0
M  V30 3111 O 285.029 -7.45534 -3.00724 0
M  V30 3112 H 284.761 -0.429459 -0.522054 0
M  V30 3113 H 287.315 -1.73873 -1.0935 0
M  V30 3114 H 285.545 -1.36004 -3.61994 0
M  V30 3115 H 287.234 -1.77791 -3.64891 0
M  V30 3116 H 288 -4.05576 -2.65956 0
M  V30 3117 H 283.879 -3.09274 -3.41863 0
M  V30 3118 H 287.423 -6.45638 -2.64191 0
M  V30 3119 H 283.32 -5.48473 -3.40365 0
M  V30 3120 H 284.088 -7.54713 -3.16782 0
M  V30 3121 N 286.751 1.08385 -1.14413 0
M  V30 3122 C 288.167 1.32844 -0.884563 0
M  V30 3123 C 288.367 1.95841 0.474181 0
M  V30 3124 O 287.423 2.21158 1.21842 0
M  V30 3125 C 288.736 2.22978 -2.01745 0
M  V30 3126 C 290.284 2.36458 -2.05077 0
M  V30 3127 C 290.759 3.29934 -3.1766 0
M  V30 3128 N 292.25 3.37511 -3.17239 0
M  V30 3129 C 292.985 4.09871 -4.0099 0
M  V30 3130 N 292.481 4.84936 -4.94781 0
M  V30 3131 N 294.274 4.05704 -3.89051 0
M  V30 3132 H 286.425 0.658756 -2.01926 0
M  V30 3133 H 288.688 0.352821 -0.879899 0
M  V30 3134 H 288.394 1.83934 -2.99769 0
M  V30 3135 H 288.268 3.23441 -1.94077 0
M  V30 3136 H 290.655 2.7476 -1.0766 0
M  V30 3137 H 290.736 1.35736 -2.16816 0
M  V30 3138 H 290.38 2.92352 -4.15322 0
M  V30 3139 H 290.31 4.30584 -3.03158 0
M  V30 3140 H 292.801 2.83996 -2.49308 0
M  V30 3141 H 293.114 5.37612 -5.55151 0
M  V30 3142 H 291.459 4.83988 -4.98779 0
M  V30 3143 H 294.65 3.46167 -3.15097 0
M  V30 3144 H 294.823 4.61834 -4.54547 0
M  V30 3145 N 288.23 0.939286 1.26551 0
M  V30 3146 C 289.455 0.602008 1.98471 0
M  V30 3147 C 289.88 -0.815624 1.69497 0
M  V30 3148 O 289.238 -1.54912 0.941905 0
M  V30 3149 C 289.286 0.848407 3.50477 0
M  V30 3150 O 288.39 -0.0804009 4.12322 0
M  V30 3151 H 287.731 0.23049 0.622712 0
M  V30 3152 H 290.261 1.2617 1.61066 0
M  V30 3153 H 290.271 0.768553 4.00696 0
M  V30 3154 H 288.946 1.88171 3.70897 0
M  V30 3155 H 287.523 0.0503508 3.72866 0
M  V30 3156 N 289.708 -1.40897 0.706093 0
M  V30 3157 C 291.119 -1.84023 0.315052 0
M  V30 3158 C 291.47 -1.5906 -1.14866 0
M  V30 3159 O 290.595 -1.06651 -1.88293 0
M  V30 3160 C 291.19 -3.34055 0.565038 0
M  V30 3161 C 289.749 -3.7571 0.227806 0
M  V30 3162 C 288.896 -2.64204 0.842122 0
M  V30 3163 H 291.847 -1.303 0.905963 0
M  V30 3164 H 291.868 -3.80107 -0.172843 0
M  V30 3165 H 291.38 -3.52192 1.63042 0
M  V30 3166 H 289.481 -3.63172 -0.832895 0
M  V30 3167 H 289.594 -4.74103 0.690174 0
M  V30 3168 H 287.958 -2.53255 0.270893 0
M  V30 3169 H 288.741 -2.85155 1.91158 0
M  V30 3170 N 291.186 -0.45159 -1.50991 0
M  V30 3171 C 292.602 -0.104647 -1.59257 0
M  V30 3172 C 292.802 1.38728 -1.4614 0
M  V30 3173 O 291.858 2.15866 -1.30989 0
M  V30 3174 C 293.171 -0.637468 -2.93865 0
M  V30 3175 C 294.719 -0.599166 -3.07212 0
M  V30 3176 C 295.194 -1.1092 -4.44366 0
M  V30 3177 N 296.685 -1.06778 -4.50725 0
M  V30 3178 C 297.42 -1.43314 -5.55201 0
M  V30 3179 N 296.916 -1.87204 -6.67028 0
M  V30 3180 N 298.709 -1.3504 -5.45638 0
M  V30 3181 H 290.86 -1.42214 -1.57762 0
M  V30 3182 H 293.123 -0.586921 -0.744465 0
M  V30 3183 H 292.829 -1.68187 -3.08879 0
M  V30 3184 H 292.703 -0.0702139 -3.77135 0
M  V30 3185 H 295.09 0.436277 -2.91857 0
M  V30 3186 H 295.171 -1.20299 -2.25747 0
M  V30 3187 H 294.815 -2.14318 -4.60467 0
M  V30 3188 H 294.745 -0.481773 -5.24392 0
M  V30 3189 H 297.236 -0.745643 -3.70471 0
M  V30 3190 H 297.549 -2.13282 -7.42786 0
M  V30 3191 H 295.894 -1.91142 -6.68199 0
M  V30 3192 H 299.085 -1.00607 -4.57161 0
M  V30 3193 H 299.258 -1.63841 -6.26945 0
M  V30 3194 N 292.664 1.56529 -0.183458 0
M  V30 3195 C 293.594 2.21549 0.737456 0
M  V30 3196 C 294.575 1.17489 1.23005 0
M  V30 3197 O 295.76 1.45959 1.281 0
M  V30 3198 C 292.89 2.86575 1.96194 0
M  V30 3199 C 291.844 3.96778 1.60473 0
M  V30 3200 C 291.17 4.48911 2.90487 0
M  V30 3201 C 292.47 5.15767 0.823497 0
M  V30 3202 H 294.164 2.98761 0.195453 0
M  V30 3203 H 291.71 1.43702 0.0925686 0
M  V30 3204 H 293.663 3.30739 2.61131 0
M  V30 3205 H 292.387 2.06749 2.52828 0
M  V30 3206 H 291.046 3.53286 0.978997 0
M  V30 3207 H 290.694 3.65862 3.45186 0
M  V30 3208 H 290.394 5.23265 2.67335 0
M  V30 3209 H 291.918 4.95771 3.56432 0
M  V30 3210 H 293.332 5.56549 1.37571 0
M  V30 3211 H 291.729 5.96114 0.690551 0
M  V30 3212 H 292.799 4.84574 -0.177782 0
M  V30 3213 N 294.142 -0.090211 1.57342 0
M  V30 3214 C 295.072 -1.10976 2.05443 0
M  V30 3215 C 296.053 -1.41482 0.944284 0
M  V30 3216 O 297.238 -1.51428 1.21586 0
M  V30 3217 C 294.368 -2.42831 2.48295 0
M  V30 3218 C 293.322 -2.26721 3.63018 0
M  V30 3219 C 292.648 -3.63796 3.91863 0
M  V30 3220 C 293.948 -1.7037 4.93732 0
M  V30 3221 H 295.642 -0.709564 2.9087 0
M  V30 3222 H 293.188 -0.339874 1.39932 0
M  V30 3223 H 295.141 -3.14431 2.80555 0
M  V30 3224 H 293.865 -2.84795 1.59873 0
M  V30 3225 H 292.524 -1.57565 3.31012 0
M  V30 3226 H 292.172 -4.03297 3.00601 0
M  V30 3227 H 291.872 -3.53861 4.69101 0
M  V30 3228 H 293.396 -4.36855 4.26603 0
M  V30 3229 H 294.81 -2.31816 5.24342 0
M  V30 3230 H 293.207 -1.71181 5.75167 0
M  V30 3231 H 294.277 -0.663542 4.80339 0
M  V30 3232 N 295.62 -1.53406 -0.361157 0
M  V30 3233 C 296.55 -1.83136 -1.44857 0
M  V30 3234 C 297.531 -0.685174 -1.5569 0
M  V30 3235 O 298.716 -0.93544 -1.70186 0
M  V30 3236 C 295.846 -2.02522 -2.82138 0
M  V30 3237 C 294.8 -3.18302 -2.86126 0
M  V30 3238 C 294.126 -3.22989 -4.26125 0
M  V30 3239 C 295.426 -4.56796 -2.53248 0
M  V30 3240 H 297.12 -2.74201 -1.20226 0
M  V30 3241 H 294.666 -1.31938 -0.576922 0
M  V30 3242 H 296.619 -2.21904 -3.58241 0
M  V30 3243 H 295.343 -1.08172 -3.08166 0
M  V30 3244 H 294.002 -2.98747 -2.12475 0
M  V30 3245 H 293.65 -2.26267 -4.49235 0
M  V30 3246 H 293.35 -4.00781 -4.29708 0
M  V30 3247 H 294.874 -3.44559 -5.04094 0
M  V30 3248 H 296.288 -4.7631 -3.19064 0
M  V30 3249 H 294.685 -5.36862 -2.68141 0
M  V30 3250 H 295.755 -4.61606 -1.48484 0
M  V30 3251 N 297.098 0.621204 -1.44841 0
M  V30 3252 C 298.323 1.41244 -1.51871 0
M  V30 3253 C 298.748 1.87519 -0.147764 0
M  V30 3254 O 298.106 1.59334 0.865 0
M  V30 3255 C 298.154 2.60221 -2.49634 0
M  V30 3256 O 297.258 3.60395 -2.00473 0
M  V30 3257 H 296.599 0.42223 -0.512463 0
M  V30 3258 H 299.129 0.757305 -1.90069 0
M  V30 3259 H 299.139 3.0764 -2.67996 0
M  V30 3260 H 297.814 2.25887 -3.4921 0
M  V30 3261 H 296.391 3.19717 -1.91925 0
M  V30 3262 N 298.576 1.31904 0.862503 0
M  V30 3263 C 299.987 1.19803 1.43193 0
M  V30 3264 C 300.338 -0.192567 1.95253 0
M  V30 3265 O 299.463 -1.09081 1.86896 0
M  V30 3266 C 300.058 2.16883 2.60283 0
M  V30 3267 C 298.617 2.08692 3.13248 0
M  V30 3268 C 297.764 2.05691 1.85975 0
M  V30 3269 H 300.715 1.43846 0.670365 0
M  V30 3270 H 300.736 1.76278 3.37204 0
M  V30 3271 H 300.248 3.18083 2.22363 0
M  V30 3272 H 298.349 1.10713 3.55771 0
M  V30 3273 H 298.462 2.9815 3.75025 0
M  V30 3274 H 296.826 1.50814 2.05249 0
M  V30 3275 H 297.609 3.08659 1.50282 0
M  V30 3276 N 300.054 -1.07777 1.14986 0
M  V30 3277 C 301.002 -2.16964 0.838406 0
M  V30 3278 C 301.996 -1.68372 -0.186386 0
M  V30 3279 O 303.202 -1.79951 -0.0418465 0
M  V30 3280 H 299.577 -0.708006 0.253439 0
M  V30 3281 H 301.548 -2.40454 1.76704 0
M  V30 3282 C 300.297 -3.4604 0.339335 0
M  V30 3283 H 299.62 -3.83813 1.11927 0
M  V30 3284 H 301.06 -4.23698 0.160021 0
M  V30 3285 C 299.519 -3.23569 -0.938325 0
M  V30 3286 O 300.049 -3.47752 -2.01077 0
M  V30 3287 N 298.255 -2.77079 -0.876117 0
M  V30 3288 H 297.802 -2.576 -0.00322037 0
M  V30 3289 H 297.76 -2.62422 -1.73153 0
M  V30 3290 N 301.532 -0.945985 -1.26051 0
M  V30 3291 C 302.48 -0.450259 -2.282 0
M  V30 3292 C 303.474 0.47497 -1.62605 0
M  V30 3293 O 304.68 0.352653 -1.76512 0
M  V30 3294 H 301.055 -0.127081 -0.741184 0
M  V30 3295 H 303.026 -1.32422 -2.67408 0
M  V30 3296 C 301.775 0.26467 -3.46691 0
M  V30 3297 H 301.098 -0.438123 -3.97392 0
M  V30 3298 H 302.538 0.575678 -4.20074 0
M  V30 3299 C 300.997 1.48416 -3.02447 0
M  V30 3300 O 301.527 2.58227 -3.07704 0
M  V30 3301 N 299.733 1.34243 -2.57735 0
M  V30 3302 H 299.28 0.448994 -2.53657 0
M  V30 3303 H 299.238 2.15957 -2.28495 0
M  V30 3304 N 303.011 1.40521 -0.713556 0
M  V30 3305 C 304.241 2.0494 -0.261395 0
M  V30 3306 C 304.649 1.53861 1.10107 0
M  V30 3307 O 303.992 0.689321 1.70276 0
M  V30 3308 C 304.054 3.59138 -0.161227 0
M  V30 3309 C 303.718 4.33096 -1.45865 0
M  V30 3310 C 304.715 4.61182 -2.40016 0
M  V30 3311 C 302.4 4.72043 -1.71701 0
M  V30 3312 C 304.394 5.27196 -3.58251 0
M  V30 3313 C 302.081 5.37789 -2.90218 0
M  V30 3314 C 303.079 5.65295 -3.83315 0
M  V30 3315 O 302.767 6.29683 -4.99754 0
M  V30 3316 H 302.499 0.666041 -0.115608 0
M  V30 3317 H 305.053 1.80954 -0.971849 0
M  V30 3318 H 303.283 3.81936 0.605153 0
M  V30 3319 H 304.972 4.05091 0.256105 0
M  V30 3320 H 305.738 4.31559 -2.21318 0
M  V30 3321 H 301.617 4.50003 -1.00092 0
M  V30 3322 H 305.161 5.48582 -4.30934 0
M  V30 3323 H 301.058 5.66831 -3.08825 0
M  V30 3324 H 301.826 6.4818 -4.99805 0
M  V30 3325 N 304.489 0.459591 1.5075 0
M  V30 3326 C 305.717 -0.0973749 2.06671 0
M  V30 3327 C 306.132 -1.34524 1.32472 0
M  V30 3328 O 305.489 -1.7827 0.390634 0
M  V30 3329 C 305.54 -0.39714 3.59312 0
M  V30 3330 O 305.261 0.801214 4.30711 0
M  V30 3331 C 306.762 -1.00234 4.31819 0
M  V30 3332 H 303.982 0.00195854 0.670997 0
M  V30 3333 H 306.526 0.645072 1.94059 0
M  V30 3334 H 304.681 -1.08951 3.71764 0
M  V30 3335 H 305.095 0.538857 5.21725 0
M  V30 3336 H 306.569 -1.16193 5.39632 0
M  V30 3337 H 307.046 -1.98939 3.91561 0
M  V30 3338 H 307.652 -0.348699 4.23868 0
M  V30 3339 N 305.967 -1.56429 0.191757 0
M  V30 3340 C 306.914 -2.18936 -0.730454 0
M  V30 3341 C 307.884 -1.13557 -1.21219 0
M  V30 3342 O 309.069 -1.41794 -1.27668 0
M  V30 3343 C 306.209 -2.85013 -1.9458 0
M  V30 3344 C 305.322 -4.04909 -1.50574 0
M  V30 3345 C 304.457 -4.58853 -2.67634 0
M  V30 3346 C 303.496 -5.71114 -2.20217 0
M  V30 3347 N 302.633 -6.19478 -3.30442 0
M  V30 3348 H 307.473 -2.97389 -0.190664 0
M  V30 3349 H 305.01 -1.46869 -0.0823694 0
M  V30 3350 H 306.968 -3.21492 -2.65893 0
M  V30 3351 H 305.598 -2.09129 -2.45896 0
M  V30 3352 H 304.65 -3.74115 -0.688605 0
M  V30 3353 H 305.962 -4.86113 -1.11784 0
M  V30 3354 H 305.116 -4.97619 -3.47074 0
M  V30 3355 H 303.855 -3.76749 -3.09696 0
M  V30 3356 H 302.86 -5.31879 -1.3923 0
M  V30 3357 H 304.085 -6.55033 -1.79189 0
M  V30 3358 H 302.031 -5.40297 -3.72041 0
M  V30 3359 H 301.948 -6.95725 -2.9581 0
M  V30 3360 H 303.216 -6.62898 -4.10106 0
M  V30 3361 N 307.445 0.0818655 -1.57387 0
M  V30 3362 C 308.408 1.08265 -2.02018 0
M  V30 3363 C 309.408 1.32183 -0.915664 0
M  V30 3364 O 310.598 1.28073 -1.18081 0
M  V30 3365 C 307.73 2.42871 -2.39221 0
M  V30 3366 H 308.923 0.698204 -2.91659 0
M  V30 3367 H 306.476 0.327303 -1.52835 0
M  V30 3368 H 307.211 2.86167 -1.52575 0
M  V30 3369 H 306.996 2.26855 -3.19811 0
M  V30 3370 H 308.486 3.14826 -2.74362 0
M  V30 3371 N 308.923 1.53595 0.353017 0
M  V30 3372 C 310.172 1.69603 1.09168 0
M  V30 3373 C 310.485 0.460925 1.90092 0
M  V30 3374 O 311.691 0.501774 2.66823 0
M  V30 3375 C 310.147 2.99872 1.9901 0
M  V30 3376 C 309.755 4.30687 1.23339 0
M  V30 3377 C 311.499 3.25246 2.72792 0
M  V30 3378 C 309.406 5.52036 2.12156 0
M  V30 3379 H 308.336 0.631966 0.411261 0
M  V30 3380 H 310.987 1.80096 0.351802 0
M  V30 3381 H 309.369 2.83212 2.7678 0
M  V30 3382 H 310.543 4.58019 0.505456 0
M  V30 3383 H 308.858 4.11853 0.613663 0
M  V30 3384 H 311.455 4.13095 3.39495 0
M  V30 3385 H 311.798 2.41846 3.38846 0
M  V30 3386 H 312.331 3.42638 2.021 0
M  V30 3387 H 309.07 6.37951 1.50659 0
M  V30 3388 H 308.59 5.28966 2.82764 0
M  V30 3389 H 310.269 5.87313 2.71427 0
M  V30 3390 N 310.401 -0.613514 1.45168 0
M  V30 3391 C 311.678 -1.37263 1.39349 0
M  V30 3392 C 312.058 -2.11012 0.0610848 0
M  V30 3393 O 311.406 -2.07502 -0.956825 0
M  V30 3394 C 311.616 -2.3244 2.60332 0
M  V30 3395 C 312.964 -2.9523 3.05163 0
M  V30 3396 O 313.988 -2.42762 2.60663 0
M  V30 3397 O 312.847 -3.90454 3.82372 0
M  V30 3398 H 309.941 -0.615188 0.552696 0
M  V30 3399 H 312.487 -0.637097 1.57287 0
M  V30 3400 H 311.259 -1.77164 3.48896 0
M  V30 3401 H 310.882 -3.13383 2.44698 0
M  V30 3402 N 311.879 -1.3236 -0.855495 0
M  V30 3403 C 312.812 -1.15559 -1.96777 0
M  V30 3404 C 313.79 -0.0552681 -1.62506 0
M  V30 3405 O 314.974 -0.214419 -1.87277 0
M  V30 3406 C 312.101 -0.768851 -3.29858 0
M  V30 3407 C 311.147 -1.87429 -3.83109 0
M  V30 3408 S 311.98 -3.48243 -4.06801 0
M  V30 3409 C 313.136 -3.11539 -5.42858 0
M  V30 3410 H 313.369 -2.09717 -2.10727 0
M  V30 3411 H 310.902 -1.17011 -1.00737 0
M  V30 3412 H 312.86 -0.55248 -4.06765 0
M  V30 3413 H 311.521 0.153857 -3.13723 0
M  V30 3414 H 310.714 -1.55667 -4.79358 0
M  V30 3415 H 310.316 -2.04647 -3.13042 0
M  V30 3416 H 312.608 -2.61331 -6.2507 0
M  V30 3417 H 313.551 -4.06806 -5.79582 0
M  V30 3418 H 313.959 -2.48582 -5.06821 0
M  V30 3419 N 313.357 1.07166 -1.15556 0
M  V30 3420 C 314.603 1.80222 -0.942961 0
M  V30 3421 C 314.958 1.85121 0.524209 0
M  V30 3422 O 314.251 1.32531 1.38369 0
M  V30 3423 C 314.445 3.24707 -1.49332 0
M  V30 3424 C 314.274 3.33887 -3.01247 0
M  V30 3425 C 313.044 3.44337 -3.69811 0
M  V30 3426 C 315.242 3.24484 -3.99017 0
M  V30 3427 N 313.224 3.42439 -5.09518 0
M  V30 3428 C 314.595 3.29726 -5.25053 0
M  V30 3429 C 316.65 3.08307 -3.90962 0
M  V30 3430 C 315.353 3.20455 -6.43973 0
M  V30 3431 C 317.379 3.00371 -5.09442 0
M  V30 3432 C 316.741 3.06227 -6.34354 0
M  V30 3433 H 312.84 0.672709 -0.398731 0
M  V30 3434 H 315.424 1.27905 -1.46794 0
M  V30 3435 H 313.595 3.7544 -0.994946 0
M  V30 3436 H 315.327 3.85894 -1.21935 0
M  V30 3437 H 312.082 3.48762 -3.20409 0
M  V30 3438 H 312.506 3.45013 -5.8249 0
M  V30 3439 H 317.148 3.02633 -2.95251 0
M  V30 3440 H 314.866 3.24888 -7.39914 0
M  V30 3441 H 318.452 2.88955 -5.04971 0
M  V30 3442 H 317.332 3.00132 -7.24493 0
M  V30 3443 N 314.835 0.952656 1.25548 0
M  V30 3444 C 315.798 0.475794 2.24207 0
M  V30 3445 C 316.798 -0.419428 1.55234 0
M  V30 3446 O 317.988 -0.216994 1.72843 0
M  V30 3447 C 315.12 -0.312814 3.39462 0
M  V30 3448 H 316.313 1.34779 2.67908 0
M  V30 3449 H 313.866 0.735739 1.37901 0
M  V30 3450 H 314.601 -1.20257 3.01179 0
M  V30 3451 H 314.386 0.329404 3.90714 0
M  V30 3452 H 315.876 -0.635986 4.12729 0
M  V30 3453 N 316.313 -1.40141 0.720998 0
M  V30 3454 C 317.276 -2.29058 0.0805834 0
M  V30 3455 C 318.276 -1.45632 -0.681758 0
M  V30 3456 O 319.466 -1.6648 -0.512856 0
M  V30 3457 C 316.598 -3.28925 -0.895593 0
M  V30 3458 H 317.791 -2.87191 0.863793 0
M  V30 3459 H 315.344 -1.48553 0.485975 0
M  V30 3460 H 316.079 -2.75822 -1.70566 0
M  V30 3461 H 315.864 -3.90519 -0.351766 0
M  V30 3462 H 317.354 -3.95494 -1.34069 0
M  V30 3463 N 317.792 -0.46758 -1.50504 0
M  V30 3464 C 319.04 0.0884469 -2.01906 0
M  V30 3465 C 319.361 1.40532 -1.35188 0
M  V30 3466 O 318.631 1.89515 -0.496079 0
M  V30 3467 H 317.211 0.0356765 -0.746148 0
M  V30 3468 H 319.873 -0.6172 -1.84869 0
M  V30 3469 H 318.969 0.2425 -3.11156 0
M  V30 3470 N 319.27 1.56325 -0.20005 0
M  V30 3471 C 320.51 1.99619 0.439519 0
M  V30 3472 C 320.874 1.08423 1.58456 0
M  V30 3473 O 322.075 1.40973 2.28867 0
M  V30 3474 C 320.346 3.46314 0.883258 0
M  V30 3475 S 321.905 4.11634 1.51997 0
M  V30 3476 H 318.723 0.697007 0.140363 0
M  V30 3477 H 321.325 1.93118 -0.304282 0
M  V30 3478 H 320.029 4.10381 0.0398967 0
M  V30 3479 H 319.56 3.56643 1.6604 0
M  V30 3480 H 321.575 4.09049 2.8088 0
M  V30 3481 N 320.748 -0.0735177 1.57428 0
M  V30 3482 C 321.997 -0.771809 1.86349 0
M  V30 3483 C 322.31 -1.78828 0.792452 0
M  V30 3484 O 323.516 -2.53602 0.96945 0
M  V30 3485 C 321.972 -1.42358 3.30548 0
M  V30 3486 C 321.58 -0.445761 4.45777 0
M  V30 3487 C 323.324 -2.10434 3.6867 0
M  V30 3488 C 321.231 -1.10335 5.81016 0
M  V30 3489 H 320.161 -0.291999 0.695164 0
M  V30 3490 H 322.812 -0.0250749 1.83483 0
M  V30 3491 H 321.194 -2.21852 3.28021 0
M  V30 3492 H 322.368 0.319239 4.59693 0
M  V30 3493 H 320.683 0.130457 4.16196 0
M  V30 3494 H 323.28 -2.60405 4.67004 0
M  V30 3495 H 323.623 -2.90298 2.98383 0
M  V30 3496 H 324.156 -1.37773 3.7318 0
M  V30 3497 H 320.895 -0.345061 6.54591 0
M  V30 3498 H 320.415 -1.83925 5.70904 0
M  V30 3499 H 322.094 -1.62367 6.26295 0
M  V30 3500 N 322.226 -1.5378 -0.344866 0
M  V30 3501 C 323.156 -1.84662 -1.42906 0
M  V30 3502 C 324.137 -0.701648 -1.54955 0
M  V30 3503 O 325.322 -0.953438 -1.69184 0
M  V30 3504 C 322.452 -2.05503 -2.79974 0
M  V30 3505 C 321.406 -3.21318 -2.82734 0
M  V30 3506 C 320.732 -3.2749 -4.22675 0
M  V30 3507 C 322.032 -4.59456 -2.48389 0
M  V30 3508 H 323.726 -2.75461 -1.17311 0
M  V30 3509 H 321.272 -1.32542 -0.562896 0
M  V30 3510 H 323.225 -2.25691 -3.55867 0
M  V30 3511 H 321.949 -1.11434 -3.07002 0
M  V30 3512 H 320.608 -3.00984 -2.09294 0
M  V30 3513 H 320.256 -2.31019 -4.4681 0
M  V30 3514 H 319.956 -4.05316 -4.25433 0
M  V30 3515 H 321.48 -3.49887 -5.00412 0
M  V30 3516 H 322.894 -4.79667 -3.13995 0
M  V30 3517 H 321.291 -5.39675 -2.62432 0
M  V30 3518 H 322.361 -4.63155 -1.4358 0
M  V30 3519 N 323.704 0.605807 -1.45491 0
M  V30 3520 C 324.667 1.69836 -1.5391 0
M  V30 3521 C 325.667 1.55261 -0.418424 0
M  V30 3522 O 326.857 1.60296 -0.681965 0
M  V30 3523 C 323.989 3.09117 -1.43734 0
M  V30 3524 H 325.182 1.63738 -2.51257 0
M  V30 3525 H 322.735 0.821689 -1.32959 0
M  V30 3526 H 323.47 3.20791 -0.475788 0
M  V30 3527 H 323.255 3.21104 -2.25021 0
M  V30 3528 H 324.745 3.88696 -1.52661 0
M  V30 3529 N 325.182 1.32811 0.848464 0
M  V30 3530 C 326.092 1.24278 1.98978 0
M  V30 3531 C 327.108 0.155176 1.73307 0
M  V30 3532 O 328.284 0.376999 1.9784 0
M  V30 3533 C 325.349 0.972444 3.32783 0
M  V30 3534 C 324.41 2.14911 3.71634 0
M  V30 3535 C 323.643 1.89157 4.99054 0
M  V30 3536 O 323.866 0.837165 5.64223 0
M  V30 3537 O 322.8 2.75433 5.35183 0
M  V30 3538 H 326.626 2.20238 2.09115 0
M  V30 3539 H 324.211 1.12762 0.980052 0
M  V30 3540 H 326.093 0.838432 4.12975 0
M  V30 3541 H 324.768 0.043051 3.23671 0
M  V30 3542 H 323.675 2.33862 2.91992 0
M  V30 3543 H 325.008 3.06151 3.85399 0
M  V30 3544 N 326.66 -1.06551 1.16123 0
M  V30 3545 C 327.593 -2.13382 0.80892 0
M  V30 3546 C 328.571 -1.61128 -0.21827 0
M  V30 3547 O 329.755 -1.88219 -0.102952 0
M  V30 3548 C 326.882 -3.38083 0.204303 0
M  V30 3549 C 325.928 -4.09133 1.20469 0
M  V30 3550 S 326.761 -4.5948 2.75024 0
M  V30 3551 C 327.917 -5.87446 2.16005 0
M  V30 3552 H 328.15 -2.42937 1.71373 0
M  V30 3553 H 325.683 -1.18947 0.984428 0
M  V30 3554 H 327.641 -4.10268 -0.138081 0
M  V30 3555 H 326.302 -3.0669 -0.678234 0
M  V30 3556 H 325.495 -4.98685 0.730019 0
M  V30 3557 H 325.097 -3.4295 1.49202 0
M  V30 3558 H 327.389 -6.60065 1.5271 0
M  V30 3559 H 328.332 -6.39639 3.03756 0
M  V30 3560 H 328.74 -5.41354 1.59989 0
M  V30 3561 N 328.138 -0.959301 -1.25041 0
M  V30 3562 C 329.068 -0.501388 -2.28053 0
M  V30 3563 C 330.049 0.454673 -1.63911 0
M  V30 3564 O 331.234 0.352618 -1.90972 0
M  V30 3565 C 328.364 0.217224 -3.4662 0
M  V30 3566 C 327.318 -0.654034 -4.22973 0
M  V30 3567 C 326.644 0.195589 -5.34342 0
M  V30 3568 C 327.944 -1.93447 -4.85155 0
M  V30 3569 H 329.638 -1.36238 -2.66608 0
M  V30 3570 H 327.184 -0.656534 -1.28163 0
M  V30 3571 H 329.137 0.548732 -4.17812 0
M  V30 3572 H 327.861 1.1125 -3.07068 0
M  V30 3573 H 326.52 -0.968693 -3.5357 0
M  V30 3574 H 326.168 1.09076 -4.91031 0
M  V30 3575 H 325.868 -0.384091 -5.86343 0
M  V30 3576 H 327.392 0.521958 -6.08365 0
M  V30 3577 H 328.806 -1.66908 -5.48466 0
M  V30 3578 H 327.203 -2.46018 -5.47353 0
M  V30 3579 H 328.273 -2.63466 -4.07079 0
M  V30 3580 N 329.616 1.39756 -0.72842 0
M  V30 3581 C 330.844 2.04948 -0.283528 0
M  V30 3582 C 331.259 1.54908 1.0793 0
M  V30 3583 O 330.616 0.711135 1.68075 0
M  V30 3584 C 330.667 3.60498 -0.268957 0
M  V30 3585 O 330.388 4.08695 -1.57798 0
M  V30 3586 C 331.889 4.4288 0.192912 0
M  V30 3587 H 329.109 0.659243 -0.125056 0
M  V30 3588 H 331.653 1.78927 -0.990226 0
M  V30 3589 H 329.808 3.85444 0.388801 0
M  V30 3590 H 330.222 5.02977 -1.48709 0
M  V30 3591 H 331.696 5.51791 0.151952 0
M  V30 3592 H 332.173 4.21418 1.23708 0
M  V30 3593 H 332.779 4.23069 -0.435039 0
M  V30 3594 N 331.094 0.475555 1.50254 0
M  V30 3595 C 332.342 -0.077738 2.0195 0
M  V30 3596 C 332.663 -1.39813 1.35931 0
M  V30 3597 O 331.933 -1.89249 0.506123 0
M  V30 3598 H 330.513 -0.031719 0.746326 0
M  V30 3599 H 333.175 0.626995 1.84539 0
M  V30 3600 H 332.271 -0.225995 3.11281 0
M  V30 3601 N 332.573 -1.56217 0.208337 0
M  V30 3602 C 333.989 -1.58919 -0.14729 0
M  V30 3603 C 334.189 -1.22486 -1.59998 0
M  V30 3604 O 333.245 -0.953849 -2.3379 0
M  V30 3605 C 334.558 -3.00236 0.167048 0
M  V30 3606 C 336.106 -3.12813 0.108219 0
M  V30 3607 C 336.581 -4.56284 0.396049 0
M  V30 3608 N 338.072 -4.61912 0.345142 0
M  V30 3609 C 338.807 -5.70837 0.541523 0
M  V30 3610 N 338.303 -6.88178 0.798968 0
M  V30 3611 N 340.096 -5.60091 0.474867 0
M  V30 3612 H 332.247 -1.78177 1.15614 0
M  V30 3613 H 334.51 -0.827555 0.462446 0
M  V30 3614 H 334.216 -3.31499 1.1748 0
M  V30 3615 H 334.09 -3.7354 -0.524184 0
M  V30 3616 H 336.477 -2.81354 -0.890157 0
M  V30 3617 H 336.558 -2.41866 0.832729 0
M  V30 3618 H 336.202 -4.88458 1.3918 0
M  V30 3619 H 336.132 -5.25439 -0.349502 0
M  V30 3620 H 338.623 -3.77589 0.153316 0
M  V30 3621 H 338.936 -7.67095 0.93727 0
M  V30 3622 H 337.281 -6.89953 0.836013 0
M  V30 3623 H 340.472 -4.67297 0.274064 0
M  V30 3624 H 340.645 -6.44917 0.631326 0
M  V30 3625 N 334.051 0.0651679 -1.57465 0
M  V30 3626 C 334.984 1.10876 -1.99453 0
M  V30 3627 C 335.962 1.37205 -0.872555 0
M  V30 3628 O 337.146 1.50468 -1.13542 0
M  V30 3629 C 334.273 2.45167 -2.3369 0
M  V30 3630 C 333.319 2.3493 -3.55964 0
M  V30 3631 S 334.152 1.73708 -5.06543 0
M  V30 3632 C 335.308 3.09563 -5.43987 0
M  V30 3633 H 335.541 0.750967 -2.87659 0
M  V30 3634 H 333.074 0.273933 -1.51951 0
M  V30 3635 H 335.032 3.22412 -2.54088 0
M  V30 3636 H 333.693 2.78105 -1.46001 0
M  V30 3637 H 332.886 3.3398 -3.77457 0
M  V30 3638 H 332.488 1.65823 -3.3523 0
M  V30 3639 H 334.78 4.05882 -5.42463 0
M  V30 3640 H 335.723 2.92843 -6.44708 0
M  V30 3641 H 336.131 3.10474 -4.71451 0
M  V30 3642 N 335.529 1.53961 0.336706 0
M  V30 3643 C 336.459 1.85417 1.41925 0
M  V30 3644 C 337.44 0.709856 1.5458 0
M  V30 3645 O 338.625 0.962396 1.68676 0
M  V30 3646 C 335.755 2.06985 2.78881 0
M  V30 3647 C 334.709 3.22813 2.81026 0
M  V30 3648 C 334.035 3.29727 4.20932 0
M  V30 3649 C 335.335 4.60767 2.45949 0
M  V30 3650 H 337.029 2.76079 1.15848 0
M  V30 3651 H 334.575 1.32839 0.555859 0
M  V30 3652 H 336.528 2.27575 3.54665 0
M  V30 3653 H 335.252 1.13061 3.06406 0
M  V30 3654 H 333.911 3.0209 2.07695 0
M  V30 3655 H 333.559 2.33385 4.45579 0
M  V30 3656 H 333.259 4.07566 4.23277 0
M  V30 3657 H 334.783 3.52536 4.98549 0
M  V30 3658 H 336.197 4.81325 3.11446 0
M  V30 3659 H 334.594 5.4106 2.59566 0
M  V30 3660 H 335.664 4.6391 1.41122 0
M  V30 3661 N 337.007 -0.598083 1.45811 0
M  V30 3662 C 338.254 -1.35681 1.50323 0
M  V30 3663 C 338.582 -1.9393 0.148739 0
M  V30 3664 O 337.837 -1.76094 -0.853787 0
M  V30 3665 C 338.136 -2.51669 2.53766 0
M  V30 3666 C 337.802 -2.11508 3.98215 0
M  V30 3667 C 336.464 -2.0027 4.37545 0
M  V30 3668 C 338.816 -1.80308 4.89018 0
M  V30 3669 C 336.144 -1.56067 5.65562 0
M  V30 3670 C 338.496 -1.37589 6.17456 0
M  V30 3671 C 337.16 -1.24916 6.55708 0
M  V30 3672 H 336.43 -0.496492 0.550069 0
M  V30 3673 H 339.077 -0.675052 1.79207 0
M  V30 3674 H 337.382 -3.25225 2.18486 0
M  V30 3675 H 339.079 -3.09895 2.54492 0
M  V30 3676 H 335.669 -2.21185 3.67117 0
M  V30 3677 H 339.853 -1.87884 4.59362 0
M  V30 3678 H 335.109 -1.44886 5.93985 0
M  V30 3679 H 339.283 -1.12495 6.87254 0
M  V30 3680 H 336.91 -0.904386 7.54801 0
M  V30 3681 N 338.485 -1.33259 -0.841409 0
M  V30 3682 C 339.448 -1.23221 -1.9326 0
M  V30 3683 C 340.448 -0.151895 -1.60081 0
M  V30 3684 O 341.638 -0.403246 -1.69468 0
M  V30 3685 C 338.77 -0.898123 -3.28856 0
M  V30 3686 H 339.963 -2.2021 -2.03587 0
M  V30 3687 H 337.516 -1.17281 -1.03319 0
M  V30 3688 H 338.251 0.0693841 -3.24226 0
M  V30 3689 H 338.036 -1.67934 -3.54317 0
M  V30 3690 H 339.526 -0.852563 -4.08805 0
M  V30 3691 N 339.963 1.05934 -1.16686 0
M  V30 3692 C 341.211 1.78447 -0.948744 0
M  V30 3693 C 341.532 1.87813 0.524523 0
M  V30 3694 O 340.802 1.38945 1.38098 0
M  V30 3695 H 339.382 0.660971 -0.348033 0
M  V30 3696 H 342.044 1.27947 -1.47022 0
M  V30 3697 H 341.14 2.80394 -1.37061 0
M  V30 3698 N 341.441 0.965919 1.2453 0
M  V30 3699 C 342.404 0.499547 2.2369 0
M  V30 3700 C 343.404 -0.40294 1.5567 0
M  V30 3701 O 344.594 -0.19865 1.73064 0
M  V30 3702 C 341.726 -0.276792 3.39774 0
M  V30 3703 H 342.919 1.37613 2.66463 0
M  V30 3704 H 340.472 0.750324 1.37112 0
M  V30 3705 H 341.207 -1.17055 3.02438 0
M  V30 3706 H 340.992 0.370826 3.90343 0
M  V30 3707 H 342.482 -0.592175 4.1338 0
M  V30 3708 N 342.919 -1.39368 0.735821 0
M  V30 3709 C 343.869 -2.27885 0.0724287 0
M  V30 3710 C 344.853 -1.44301 -0.711756 0
M  V30 3711 O 346.045 -1.67206 -0.58063 0
M  V30 3712 C 343.174 -3.33029 -0.833454 0
M  V30 3713 C 342.26 -4.24078 -0.0433749 0
M  V30 3714 N 342.651 -4.96138 0.983903 0
M  V30 3715 C 340.949 -4.45164 -0.272905 0
M  V30 3716 C 341.65 -5.63069 1.4604 0
M  V30 3717 N 340.626 -5.37991 0.778857 0
M  V30 3718 H 344.428 -2.81052 0.859467 0
M  V30 3719 H 341.942 -1.5206 0.570227 0
M  V30 3720 H 343.939 -3.95311 -1.32419 0
M  V30 3721 H 342.599 -2.81421 -1.61964 0
M  V30 3722 H 343.61 -4.9958 1.36528 0
M  V30 3723 H 340.287 -4.04497 -1.03383 0
M  V30 3724 H 341.677 -6.30755 2.31511 0
M  V30 3725 N 344.397 -0.483516 -1.5 0
M  V30 3726 C 345.307 0.309172 -2.32554 0
M  V30 3727 C 346.323 0.984159 -1.43493 0
M  V30 3728 O 347.499 0.969399 -1.76535 0
M  V30 3729 C 344.564 1.36979 -3.18493 0
M  V30 3730 C 343.625 0.710095 -4.23387 0
M  V30 3731 C 342.858 1.72018 -5.05218 0
M  V30 3732 O 343.081 2.94813 -4.88305 0
M  V30 3733 O 342.015 1.28515 -5.8802 0
M  V30 3734 H 345.841 -0.366064 -3.01486 0
M  V30 3735 H 343.426 -0.24514 -1.47375 0
M  V30 3736 H 345.308 1.98385 -3.71781 0
M  V30 3737 H 343.983 2.02828 -2.52275 0
M  V30 3738 H 342.89 0.0567539 -3.74057 0
M  V30 3739 H 344.223 0.0943557 -4.9211 0
M  V30 3740 N 345.875 1.56104 -0.216619 0
M  V30 3741 C 346.805 2.23063 0.690296 0
M  V30 3742 C 347.786 1.20072 1.20485 0
M  V30 3743 O 348.971 1.48643 1.24976 0
M  V30 3744 C 346.101 2.90672 1.90072 0
M  V30 3745 C 345.055 4.00092 1.5202 0
M  V30 3746 C 344.381 4.54972 2.80899 0
M  V30 3747 C 345.681 5.17398 0.71391 0
M  V30 3748 H 347.375 2.99109 0.132038 0
M  V30 3749 H 344.921 1.43866 0.0620664 0
M  V30 3750 H 346.874 3.36204 2.54057 0
M  V30 3751 H 345.598 2.12066 2.48386 0
M  V30 3752 H 344.257 3.55283 0.903839 0
M  V30 3753 H 343.905 3.73102 3.37348 0
M  V30 3754 H 343.605 5.28817 2.56176 0
M  V30 3755 H 345.129 5.0322 3.45836 0
M  V30 3756 H 346.543 5.59342 1.25735 0
M  V30 3757 H 344.94 5.97444 0.563951 0
M  V30 3758 H 346.01 4.84088 -0.280527 0
M  V30 3759 N 347.353 -0.0568162 1.57498 0
M  V30 3760 C 348.263 -1.08346 2.08083 0
M  V30 3761 C 349.279 -1.41439 1.01346 0
M  V30 3762 O 350.455 -1.51316 1.32912 0
M  V30 3763 C 347.52 -2.37352 2.52715 0
M  V30 3764 C 346.581 -2.11093 3.73816 0
M  V30 3765 C 345.814 -3.33949 4.1631 0
M  V30 3766 O 346.037 -4.43622 3.58547 0
M  V30 3767 O 344.971 -3.21279 5.08983 0
M  V30 3768 H 348.797 -0.683667 2.95905 0
M  V30 3769 H 346.382 -0.271965 1.46904 0
M  V30 3770 H 348.264 -3.13246 2.81877 0
M  V30 3771 H 346.939 -2.76681 1.68016 0
M  V30 3772 H 345.846 -1.32856 3.49714 0
M  V30 3773 H 347.179 -1.76637 4.59413 0
M  V30 3774 N 348.832 -1.54138 -0.328536 0
M  V30 3775 C 349.764 -1.79509 -1.4251 0
M  V30 3776 C 350.777 -0.67688 -1.48061 0
M  V30 3777 O 351.966 -0.953898 -1.50874 0
M  V30 3778 C 349.066 -1.89337 -2.81078 0
M  V30 3779 C 348.239 -3.19443 -2.98789 0
M  V30 3780 C 347.298 -3.20036 -4.17688 0
M  V30 3781 O 346.324 -3.93697 -4.11086 0
M  V30 3782 N 347.526 -2.43467 -5.26976 0
M  V30 3783 H 350.291 -2.74139 -1.21111 0
M  V30 3784 H 347.852 -1.53373 -0.518499 0
M  V30 3785 H 349.844 -1.87167 -3.58818 0
M  V30 3786 H 348.414 -1.01826 -2.95551 0
M  V30 3787 H 347.634 -3.34614 -2.08391 0
M  V30 3788 H 348.922 -4.05354 -3.07515 0
M  V30 3789 H 348.32 -1.83201 -5.35214 0
M  V30 3790 H 346.877 -2.4708 -6.03154 0
M  V30 3791 N 350.31 0.590341 -1.46126 0
M  V30 3792 C 351.243 1.71434 -1.50617 0
M  V30 3793 C 352.221 1.58543 -0.360948 0
M  V30 3794 O 353.405 1.79865 -0.563985 0
M  V30 3795 C 350.532 3.09422 -1.37753 0
M  V30 3796 C 349.578 3.40854 -2.5636 0
M  V30 3797 S 350.411 3.33773 -4.18755 0
M  V30 3798 C 351.567 4.74312 -4.08386 0
M  V30 3799 H 351.8 1.67364 -2.45717 0
M  V30 3800 H 349.333 0.76845 -1.33919 0
M  V30 3801 H 351.291 3.8903 -1.31018 0
M  V30 3802 H 349.952 3.10989 -0.440949 0
M  V30 3803 H 349.145 4.41368 -2.43332 0
M  V30 3804 H 348.747 2.68798 -2.60046 0
M  V30 3805 H 351.039 5.64522 -3.74595 0
M  V30 3806 H 351.982 4.92397 -5.08872 0
M  V30 3807 H 352.39 4.50803 -3.3976 0
M  V30 3808 N 351.788 1.33704 0.83433 0
M  V30 3809 C 352.72 1.20172 1.9517 0
M  V30 3810 C 353.733 0.131572 1.62267 0
M  V30 3811 O 354.922 0.382406 1.74356 0
M  V30 3812 C 352.022 0.821716 3.28787 0
M  V30 3813 C 351.195 1.98446 3.89792 0
M  V30 3814 C 350.254 1.58469 5.01771 0
M  V30 3815 O 349.28 2.29968 5.20676 0
M  V30 3816 N 350.482 0.492291 5.78409 0
M  V30 3817 H 353.247 2.16429 2.07313 0
M  V30 3818 H 350.808 1.26509 1.0103 0
M  V30 3819 H 352.8 0.536291 4.01131 0
M  V30 3820 H 351.37 -0.0503058 3.1256 0
M  V30 3821 H 350.59 2.43526 3.09982 0
M  V30 3822 H 351.878 2.76236 4.27283 0
M  V30 3823 H 351.276 -0.102349 5.65607 0
M  V30 3824 H 349.833 0.266555 6.51255 0
M  V30 3825 N 353.266 -1.05314 1.17247 0
M  V30 3826 C 354.196 -2.1498 0.911362 0
M  V30 3827 C 355.177 -1.69471 -0.146169 0
M  V30 3828 O 356.362 -1.942 0.003812 0
M  V30 3829 C 353.492 -3.4472 0.422528 0
M  V30 3830 C 352.446 -4.03789 1.4191 0
M  V30 3831 C 351.772 -5.28858 0.788274 0
M  V30 3832 C 353.072 -4.41418 2.7919 0
M  V30 3833 H 354.766 -2.3708 1.82848 0
M  V30 3834 H 352.312 -1.13938 0.880569 0
M  V30 3835 H 354.265 -4.20787 0.227289 0
M  V30 3836 H 352.989 -3.22269 -0.530123 0
M  V30 3837 H 351.648 -3.2979 1.60106 0
M  V30 3838 H 351.296 -5.02709 -0.171173 0
M  V30 3839 H 350.996 -5.69338 1.45353 0
M  V30 3840 H 352.52 -6.07612 0.603282 0
M  V30 3841 H 353.934 -5.08524 2.64719 0
M  V30 3842 H 352.331 -4.92913 3.42282 0
M  V30 3843 H 353.401 -3.51819 3.33693 0
M  V30 3844 N 354.744 -0.972509 -1.24016 0
M  V30 3845 C 355.993 -0.632603 -1.91523 0
M  V30 3846 C 356.306 0.836641 -1.76804 0
M  V30 3847 O 357.512 1.28728 -2.39043 0
M  V30 3848 C 355.968 -1.08082 -3.43287 0
M  V30 3849 C 355.576 -2.57386 -3.66683 0
M  V30 3850 C 357.32 -0.814288 -4.16617 0
M  V30 3851 C 355.227 -2.95915 -5.12043 0
M  V30 3852 H 354.157 -0.232898 -0.717129 0
M  V30 3853 H 356.808 -1.17936 -1.40582 0
M  V30 3854 H 355.19 -0.462339 -3.93292 0
M  V30 3855 H 356.364 -3.24405 -3.27258 0
M  V30 3856 H 354.679 -2.81701 -3.06649 0
M  V30 3857 H 357.276 -1.0781 -5.23718 0
M  V30 3858 H 357.619 0.24955 -4.15551 0
M  V30 3859 H 358.152 -1.39397 -3.72577 0
M  V30 3860 H 354.891 -4.0139 -5.18234 0
M  V30 3861 H 354.411 -2.33584 -5.52448 0
M  V30 3862 H 356.09 -2.86086 -5.80314 0
M  V30 3863 N 356.222 1.38976 -0.743202 0
M  V30 3864 C 357.152 2.33171 -0.123873 0
M  V30 3865 C 358.133 1.54336 0.71516 0
M  V30 3866 O 359.318 1.82696 0.658467 0
M  V30 3867 C 356.448 3.38474 0.777978 0
M  V30 3868 C 355.402 4.27979 0.0424758 0
M  V30 3869 C 354.728 5.2405 1.06189 0
M  V30 3870 C 356.028 5.10155 -1.1198 0
M  V30 3871 H 357.722 2.85213 -0.910709 0
M  V30 3872 H 355.268 1.37133 -0.439388 0
M  V30 3873 H 357.221 4.03328 1.22084 0
M  V30 3874 H 355.945 2.84891 1.59702 0
M  V30 3875 H 354.604 3.64616 -0.380853 0
M  V30 3876 H 354.252 4.66758 1.87472 0
M  V30 3877 H 353.952 5.84785 0.574485 0
M  V30 3878 H 355.476 5.9178 1.50428 0
M  V30 3879 H 356.89 5.68307 -0.75499 0
M  V30 3880 H 355.287 5.80073 -1.53738 0
M  V30 3881 H 356.357 4.44504 -1.93764 0
M  V30 3882 N 357.7 0.491464 1.49741 0
M  V30 3883 C 358.61 -0.296835 2.32715 0
M  V30 3884 C 359.626 -0.976536 1.44013 0
M  V30 3885 O 360.802 -0.960023 1.77047 0
M  V30 3886 C 357.867 -1.35288 3.19215 0
M  V30 3887 C 356.928 -0.687632 4.23757 0
M  V30 3888 C 356.161 -1.69336 5.06123 0
M  V30 3889 O 356.384 -2.92219 4.89861 0
M  V30 3890 O 355.318 -1.25394 5.88693 0
M  V30 3891 H 359.144 0.382048 3.01287 0
M  V30 3892 H 356.729 0.252953 1.47243 0
M  V30 3893 H 358.611 -1.96411 3.72828 0
M  V30 3894 H 357.286 -2.01487 2.53347 0
M  V30 3895 H 356.193 -0.0369159 3.74082 0
M  V30 3896 H 357.526 -0.0682566 4.92153 0
M  V30 3897 N 359.178 -1.55987 0.224894 0
M  V30 3898 C 360.406 -2.02784 -0.410665 0
M  V30 3899 C 360.821 -1.10464 -1.53112 0
M  V30 3900 O 360.178 -0.114871 -1.82138 0
M  V30 3901 C 360.229 -3.49087 -0.939165 0
M  V30 3902 O 359.95 -4.37887 0.136614 0
M  V30 3903 C 361.451 -4.11543 -1.64763 0
M  V30 3904 H 358.671 -0.663484 -0.100148 0
M  V30 3905 H 361.215 -2.01614 0.342326 0
M  V30 3906 H 359.37 -3.50861 -1.64242 0
M  V30 3907 H 359.784 -5.23849 -0.261155 0
M  V30 3908 H 361.258 -5.15673 -1.96939 0
M  V30 3909 H 361.735 -3.56736 -2.56195 0
M  V30 3910 H 362.341 -4.13629 -0.989503 0
M  V30 3911 N 360.656 0.0484629 -1.57525 0
M  V30 3912 C 361.905 0.742065 -1.87553 0
M  V30 3913 C 362.218 1.77545 -0.820802 0
M  V30 3914 O 363.424 2.52027 -1.00967 0
M  V30 3915 C 361.88 1.37081 -3.32771 0
M  V30 3916 C 361.488 0.374786 -4.4643 0
M  V30 3917 C 363.232 2.04542 -3.71972 0
M  V30 3918 C 361.139 1.01077 -5.82698 0
M  V30 3919 H 360.069 0.280903 -0.699721 0
M  V30 3920 H 362.72 -0.00411877 -1.835 0
M  V30 3921 H 361.102 2.16605 -3.31509 0
M  V30 3922 H 362.276 -0.392331 -4.59127 0
M  V30 3923 H 360.591 -0.196653 -4.15935 0
M  V30 3924 H 363.188 2.52943 -4.71088 0
M  V30 3925 H 363.531 2.85515 -3.02964 0
M  V30 3926 H 364.064 1.31819 -3.75325 0
M  V30 3927 H 360.803 0.240878 -6.55057 0
M  V30 3928 H 360.323 1.74819 -5.73758 0
M  V30 3929 H 362.002 1.52383 -6.28799 0
M  V30 3930 N 362.134 1.5431 0.320358 0
M  V30 3931 C 363.545 1.63872 0.894594 0
M  V30 3932 C 363.896 0.534847 1.88769 0
M  V30 3933 O 363.021 -0.331732 2.13842 0
M  V30 3934 C 363.616 2.97049 1.62934 0
M  V30 3935 C 362.175 3.08796 2.15226 0
M  V30 3936 C 361.322 2.59456 0.978671 0
M  V30 3937 H 364.273 1.58398 0.0978544 0
M  V30 3938 H 364.294 2.87388 2.49376 0
M  V30 3939 H 363.806 3.7737 0.906302 0
M  V30 3940 H 361.907 2.33156 2.90636 0
M  V30 3941 H 362.02 4.14649 2.40006 0
M  V30 3942 H 360.384 2.1543 1.35875 0
M  V30 3943 H 361.167 3.42237 0.269895 0
M  V30 3944 N 363.613 -0.582584 1.46437 0
M  V30 3945 C 364.859 -1.34278 1.51978 0
M  V30 3946 C 365.192 -1.93446 0.170973 0
M  V30 3947 O 364.467 -1.76481 -0.817608 0
M  V30 3948 C 364.75 -2.47203 2.61845 0
M  V30 3949 C 364.603 -1.93069 4.06257 0
M  V30 3950 C 365.922 -3.49247 2.67795 0
M  V30 3951 H 363.041 -0.486876 0.553282 0
M  V30 3952 H 365.683 -0.654437 1.78374 0
M  V30 3953 H 363.833 -3.0592 2.39469 0
M  V30 3954 H 365.505 -1.38808 4.3992 0
M  V30 3955 H 363.748 -1.23898 4.1573 0
M  V30 3956 H 364.419 -2.74586 4.7886 0
M  V30 3957 H 366.895 -3.00411 2.8791 0
M  V30 3958 H 365.771 -4.25719 3.46489 0
M  V30 3959 H 366.032 -4.06482 1.73852 0
M  V30 3960 N 365.091 -1.34144 -0.827227 0
M  V30 3961 C 366.34 -1.25602 -1.5782 0
M  V30 3962 C 366.653 0.173445 -1.94829 0
M  V30 3963 O 367.859 0.380984 -2.68814 0
M  V30 3964 C 366.315 -2.20151 -2.84713 0
M  V30 3965 C 365.923 -3.68331 -2.55021 0
M  V30 3966 C 367.667 -2.20508 -3.62735 0
M  V30 3967 C 365.574 -4.54762 -3.78082 0
M  V30 3968 H 364.504 -0.466573 -0.592306 0
M  V30 3969 H 367.155 -1.59283 -0.911116 0
M  V30 3970 H 365.537 -1.79417 -3.53023 0
M  V30 3971 H 366.711 -4.17577 -1.94849 0
M  V30 3972 H 365.026 -3.7038 -1.90283 0
M  V30 3973 H 367.623 -2.82306 -4.54101 0
M  V30 3974 H 367.966 -1.20322 -3.98533 0
M  V30 3975 H 368.499 -2.59664 -3.01362 0
M  V30 3976 H 365.238 -5.55867 -3.47407 0
M  V30 3977 H 364.758 -4.10254 -4.37552 0
M  V30 3978 H 366.437 -4.69153 -4.45538 0
M  V30 3979 N 366.569 1.04691 -1.17803 0
M  V30 3980 C 367.985 1.29963 -0.926379 0
M  V30 3981 C 368.185 1.97251 0.411635 0
M  V30 3982 O 367.241 2.24922 1.14744 0
M  V30 3983 C 368.554 2.16447 -2.08737 0
M  V30 3984 C 370.102 2.29814 -2.12496 0
M  V30 3985 C 370.577 3.19661 -3.27995 0
M  V30 3986 N 372.068 3.27247 -3.27816 0
M  V30 3987 C 372.803 3.96906 -4.13827 0
M  V30 3988 N 372.299 4.6895 -5.09959 0
M  V30 3989 N 374.092 3.93122 -4.01761 0
M  V30 3990 H 366.243 0.594182 -2.0392 0
M  V30 3991 H 368.506 0.324649 -0.890678 0
M  V30 3992 H 368.212 1.74304 -3.05469 0
M  V30 3993 H 368.086 3.17103 -2.04268 0
M  V30 3994 H 370.473 2.71196 -1.16347 0
M  V30 3995 H 370.554 1.2877 -2.21025 0
M  V30 3996 H 370.198 2.78991 -4.24413 0
M  V30 3997 H 370.128 4.20722 -3.16703 0
M  V30 3998 H 372.619 2.75921 -2.58217 0
M  V30 3999 H 372.932 5.19679 -5.71974 0
M  V30 4000 H 371.277 4.67875 -5.13924 0
M  V30 4001 H 374.468 3.35967 -3.2595 0
M  V30 4002 H 374.641 4.47139 -4.6901 0
M  V30 4003 N 368.047 0.979072 1.23499 0
M  V30 4004 C 368.957 0.526431 2.28617 0
M  V30 4005 C 369.973 -0.418126 1.68901 0
M  V30 4006 O 371.149 -0.288372 1.99325 0
M  V30 4007 C 368.214 -0.165235 3.46306 0
M  V30 4008 C 367.275 0.82056 4.21385 0
M  V30 4009 C 366.508 0.161807 5.33455 0
M  V30 4010 O 366.731 -1.04742 5.60701 0
M  V30 4011 O 365.665 0.859708 5.95729 0
M  V30 4012 H 369.491 1.4006 2.69475 0
M  V30 4013 H 367.076 0.746643 1.29405 0
M  V30 4014 H 368.958 -0.553287 4.17752 0
M  V30 4015 H 367.633 -1.01419 3.07402 0
M  V30 4016 H 366.54 1.25929 3.52268 0
M  V30 4017 H 367.873 1.63828 4.64135 0
M  V30 4018 N 369.525 -1.3858 0.750561 0
M  V30 4019 C 370.435 -2.34278 0.122825 0
M  V30 4020 C 371.451 -1.59116 -0.704131 0
M  V30 4021 O 372.627 -1.91326 -0.628987 0
M  V30 4022 C 369.692 -3.38221 -0.762086 0
M  V30 4023 C 368.753 -4.29227 0.078896 0
M  V30 4024 C 367.986 -5.28205 -0.763874 0
M  V30 4025 O 368.209 -5.34112 -2.00201 0
M  V30 4026 O 367.143 -6.01618 -0.18428 0
M  V30 4027 H 370.969 -2.89649 0.913088 0
M  V30 4028 H 368.554 -1.40374 0.511417 0
M  V30 4029 H 370.436 -4.01872 -1.26793 0
M  V30 4030 H 369.111 -2.85211 -1.5309 0
M  V30 4031 H 368.018 -3.68747 0.630621 0
M  V30 4032 H 369.351 -4.85484 0.810289 0
M  V30 4033 N 371.003 -0.499398 -1.49478 0
M  V30 4034 C 372.28 0.108629 -1.95298 0
M  V30 4035 C 372.66 1.54282 -1.44084 0
M  V30 4036 O 372.008 2.18944 -0.653908 0
M  V30 4037 C 372.218 0.0229111 -3.48992 0
M  V30 4038 C 373.566 0.197643 -4.2414 0
M  V30 4039 O 374.59 0.0981735 -3.56065 0
M  V30 4040 O 373.449 0.401669 -5.45022 0
M  V30 4041 H 370.543 0.096181 -0.821388 0
M  V30 4042 H 373.089 -0.561822 -1.6013 0
M  V30 4043 H 371.861 -0.977321 -3.78899 0
M  V30 4044 H 371.484 0.733579 -3.90774 0
M  V30 4045 N 372.481 1.55866 -0.233164 0
M  V30 4046 C 373.428 2.20796 0.67215 0
M  V30 4047 C 374.398 1.16731 1.18166 0
M  V30 4048 O 375.583 1.45129 1.23864 0
M  V30 4049 C 372.723 2.90072 1.86955 0
M  V30 4050 C 371.836 4.08759 1.39786 0
M  V30 4051 C 370.971 4.65787 2.55374 0
M  V30 4052 C 370.01 5.76752 2.04998 0
M  V30 4053 N 369.147 6.28021 3.13901 0
M  V30 4054 H 373.987 2.9779 0.111749 0
M  V30 4055 H 371.524 1.47036 0.0434007 0
M  V30 4056 H 373.482 3.28428 2.57276 0
M  V30 4057 H 372.112 2.15575 2.40265 0
M  V30 4058 H 371.164 3.7581 0.589173 0
M  V30 4059 H 372.476 4.88906 0.98856 0
M  V30 4060 H 371.63 5.06646 3.33758 0
M  V30 4061 H 370.369 3.84828 2.99598 0
M  V30 4062 H 369.374 5.35383 1.25079 0
M  V30 4063 H 370.599 6.59553 1.61759 0
M  V30 4064 H 368.545 5.49971 3.57586 0
M  V30 4065 H 368.462 7.03323 2.7726 0
M  V30 4066 H 369.73 6.73538 3.92386 0
M  V30 4067 N 373.959 -0.0401083 1.57549 0
M  V30 4068 C 375.236 -0.767917 1.79896 0
M  V30 4069 C 375.616 -1.9416 0.82856 0
M  V30 4070 O 374.964 -2.2812 -0.131671 0
M  V30 4071 C 375.174 -1.2113 3.27305 0
M  V30 4072 C 376.522 -1.63175 3.91994 0
M  V30 4073 O 377.546 -1.30616 3.31388 0
M  V30 4074 O 376.405 -2.23565 4.98679 0
M  V30 4075 H 373.499 -0.370441 0.739393 0
M  V30 4076 H 376.045 -0.017737 1.69691 0
M  V30 4077 H 374.817 -0.372937 3.89519 0
M  V30 4078 H 374.44 -2.02183 3.42356 0
M  V30 4079 N 375.437 -1.54477 -0.31217 0
M  V30 4080 C 376.347 -1.87695 -1.4074 0
M  V30 4081 C 377.363 -0.769975 -1.56036 0
M  V30 4082 O 378.539 -1.06537 -1.70915 0
M  V30 4083 C 375.604 -2.10755 -2.75287 0
M  V30 4084 C 374.665 -3.34514 -2.69071 0
M  V30 4085 C 373.898 -3.56465 -3.97201 0
M  V30 4086 O 374.121 -2.81637 -4.96021 0
M  V30 4087 O 373.055 -4.49964 -3.9977 0
M  V30 4088 H 376.881 -2.80849 -1.15574 0
M  V30 4089 H 374.466 -1.40526 -0.507228 0
M  V30 4090 H 376.348 -2.27188 -3.54913 0
M  V30 4091 H 375.023 -1.20788 -3.0032 0
M  V30 4092 H 373.93 -3.23456 -1.87955 0
M  V30 4093 H 375.263 -4.24575 -2.48992 0
M  V30 4094 N 376.915 0.57481 -1.46744 0
M  V30 4095 C 377.845 1.69337 -1.60771 0
M  V30 4096 C 378.826 1.63825 -0.457736 0
M  V30 4097 O 380.011 1.8172 -0.684947 0
M  V30 4098 C 377.141 3.0798 -1.60517 0
M  V30 4099 C 376.095 3.28327 -2.74564 0
M  V30 4100 C 375.421 4.67578 -2.59373 0
M  V30 4101 C 376.721 3.15398 -4.16319 0
M  V30 4102 H 378.415 1.57853 -2.54407 0
M  V30 4103 H 375.961 0.75799 -1.22436 0
M  V30 4104 H 377.914 3.86061 -1.68923 0
M  V30 4105 H 376.638 3.20381 -0.634305 0
M  V30 4106 H 375.297 2.52649 -2.65639 0
M  V30 4107 H 374.945 4.76755 -1.60353 0
M  V30 4108 H 374.645 4.82144 -3.35873 0
M  V30 4109 H 376.169 5.47817 -2.69682 0
M  V30 4110 H 377.583 3.83315 -4.26313 0
M  V30 4111 H 375.98 3.41482 -4.93468 0
M  V30 4112 H 377.05 2.12372 -4.3592 0
M  V30 4113 N 378.394 1.34581 0.820102 0
M  V30 4114 C 379.324 1.29038 1.94606 0
M  V30 4115 C 380.305 0.1673 1.69275 0
M  V30 4116 O 381.49 0.360112 1.90832 0
M  V30 4117 C 378.62 1.04793 3.31113 0
M  V30 4118 C 377.574 2.13597 3.70891 0
M  V30 4119 C 376.9 1.74537 5.05412 0
M  V30 4120 C 378.2 3.55451 3.8269 0
M  V30 4121 H 379.894 2.23248 1.99501 0
M  V30 4122 H 377.44 1.0747 0.958449 0
M  V30 4123 H 379.393 0.995592 4.0947 0
M  V30 4124 H 378.117 0.0702565 3.26524 0
M  V30 4125 H 376.776 2.17905 2.9481 0
M  V30 4126 H 376.424 0.754226 4.97313 0
M  V30 4127 H 376.124 2.47361 5.32997 0
M  V30 4128 H 377.648 1.70803 5.86224 0
M  V30 4129 H 379.062 3.5354 4.51312 0
M  V30 4130 H 377.459 4.26922 4.21732 0
M  V30 4131 H 378.529 3.92587 2.84611 0
M  V30 4132 N 379.872 -1.04064 1.18357 0
M  V30 4133 C 381.288 -1.2947 0.933258 0
M  V30 4134 C 381.488 -1.97466 -0.401169 0
M  V30 4135 O 380.544 -2.25528 -1.13549 0
M  V30 4136 C 381.857 -2.15337 2.09882 0
M  V30 4137 C 383.405 -2.28683 2.13712 0
M  V30 4138 C 383.88 -3.17917 3.29686 0
M  V30 4139 N 385.371 -3.25504 3.29547 0
M  V30 4140 C 386.106 -3.94706 4.15926 0
M  V30 4141 N 385.602 -4.66239 5.12439 0
M  V30 4142 N 387.395 -3.90986 4.0384 0
M  V30 4143 H 379.546 -0.583359 2.04232 0
M  V30 4144 H 381.809 -0.319921 0.892387 0
M  V30 4145 H 381.515 -1.72682 3.06389 0
M  V30 4146 H 381.389 -3.16015 2.05947 0
M  V30 4147 H 383.776 -2.70575 1.17784 0
M  V30 4148 H 383.857 -1.27596 2.21705 0
M  V30 4149 H 383.501 -2.76736 4.25887 0
M  V30 4150 H 383.431 -4.19036 3.1893 0
M  V30 4151 H 385.922 -2.74547 2.59677 0
M  V30 4152 H 386.235 -5.16638 5.74722 0
M  V30 4153 H 384.58 -4.65143 5.16398 0
M  V30 4154 H 387.771 -3.34234 3.27727 0
M  V30 4155 H 387.944 -4.44646 4.71375 0
M  V30 4156 N 381.35 -0.985608 -1.22978 0
M  V30 4157 C 382.596 -0.65836 -1.91816 0
M  V30 4158 C 382.929 0.806692 -1.76653 0
M  V30 4159 O 382.204 1.58252 -1.13078 0
M  V30 4160 C 382.487 -1.056 -3.44268 0
M  V30 4161 C 382.34 -2.57906 -3.68516 0
M  V30 4162 C 383.659 -0.603781 -4.35939 0
M  V30 4163 H 380.778 -0.24065 -0.696604 0
M  V30 4164 H 383.42 -1.22783 -1.44998 0
M  V30 4165 H 381.57 -0.571445 -3.84274 0
M  V30 4166 H 383.242 -3.13976 -3.3796 0
M  V30 4167 H 381.485 -3.00305 -3.13048 0
M  V30 4168 H 382.156 -2.80779 -4.75255 0
M  V30 4169 H 384.632 -1.01987 -4.03408 0
M  V30 4170 H 383.508 -0.910383 -5.41298 0
M  V30 4171 H 383.769 0.495761 -4.39312 0
M  V30 4172 N 382.828 1.3818 -0.7579 0
M  V30 4173 C 383.761 2.28055 -0.0814093 0
M  V30 4174 C 384.739 1.45603 0.723779 0
M  V30 4175 O 385.923 1.74961 0.701491 0
M  V30 4176 C 383.05 3.2676 0.891394 0
M  V30 4177 C 382.096 4.26153 0.171909 0
M  V30 4178 S 382.929 5.23434 -1.13035 0
M  V30 4179 C 384.085 6.25694 -0.160727 0
M  V30 4180 H 384.318 2.85082 -0.84353 0
M  V30 4181 H 381.851 1.44246 -0.550671 0
M  V30 4182 H 383.809 3.8414 1.44731 0
M  V30 4183 H 382.47 2.68706 1.62652 0
M  V30 4184 H 381.663 4.95738 0.908843 0
M  V30 4185 H 381.265 3.72691 -0.312606 0
M  V30 4186 H 383.557 6.74161 0.671773 0
M  V30 4187 H 384.5 7.03285 -0.824353 0
M  V30 4188 H 384.908 5.64064 0.221892 0
M  V30 4189 N 384.306 0.507319 1.49211 0
M  V30 4190 C 385.717 0.0611118 1.866 0
M  V30 4191 C 386.068 -1.35488 1.41907 0
M  V30 4192 O 385.193 -2.0108 0.799726 0
M  V30 4193 C 385.788 0.104125 3.3864 0
M  V30 4194 C 384.347 -0.28677 3.75306 0
M  V30 4195 C 383.494 0.473893 2.73221 0
M  V30 4196 H 386.445 0.719775 1.41439 0
M  V30 4197 H 386.466 -0.689672 3.74198 0
M  V30 4198 H 385.978 1.13482 3.71138 0
M  V30 4199 H 384.079 -1.32046 3.48417 0
M  V30 4200 H 384.192 0.0370745 4.79086 0
M  V30 4201 H 382.556 -0.0770644 2.54583 0
M  V30 4202 H 383.339 1.50478 3.08563 0
M  V30 4203 N 385.784 -1.5574 0.241426 0
M  V30 4204 C 387.009 -2.0366 -0.392111 0
M  V30 4205 C 387.434 -1.11969 -1.51144 0
M  V30 4206 O 386.792 -0.111594 -1.80956 0
M  V30 4207 C 386.84 -3.49638 -0.882371 0
M  V30 4208 O 385.944 -3.6108 -1.99235 0
M  V30 4209 H 385.285 -0.658379 -0.0862122 0
M  V30 4210 H 387.815 -2.01302 0.365881 0
M  V30 4211 H 387.825 -3.90351 -1.18702 0
M  V30 4212 H 386.5 -4.15852 -0.0632361 0
M  V30 4213 H 385.077 -3.32262 -1.69282 0
M  V30 4214 N 387.262 0.0317525 -1.57568 0
M  V30 4215 C 388.509 0.723104 -1.89149 0
M  V30 4216 C 388.837 1.75504 -0.838377 0
M  V30 4217 O 388.092 1.95037 0.160982 0
M  V30 4218 C 388.391 1.43167 -3.27472 0
M  V30 4219 C 388.057 0.535972 -4.47703 0
M  V30 4220 C 386.719 0.289262 -4.8033 0
M  V30 4221 C 389.071 -0.0826125 -5.21135 0
M  V30 4222 C 386.399 -0.584853 -5.83778 0
M  V30 4223 C 388.751 -0.944414 -6.25511 0
M  V30 4224 C 387.415 -1.20061 -6.56614 0
M  V30 4225 H 386.685 0.264602 -0.692146 0
M  V30 4226 H 389.332 -0.0169496 -1.91492 0
M  V30 4227 H 387.637 2.24497 -3.21105 0
M  V30 4228 H 389.334 1.97209 -3.49155 0
M  V30 4229 H 385.924 0.738414 -4.22191 0
M  V30 4230 H 390.108 0.0950302 -4.96209 0
M  V30 4231 H 385.364 -0.79168 -6.06253 0
M  V30 4232 H 389.538 -1.43026 -6.81554 0
M  V30 4233 H 387.165 -1.87967 -7.36595 0
M  V30 4234 N 388.74 1.54641 0.303973 0
M  V30 4235 C 389.986 1.74038 1.04109 0
M  V30 4236 C 390.319 0.523051 1.87024 0
M  V30 4237 O 389.594 -0.479874 1.88487 0
M  V30 4238 C 389.877 3.02761 1.94955 0
M  V30 4239 C 389.73 4.34787 1.1524 0
M  V30 4240 C 391.049 3.27336 2.94175 0
M  V30 4241 H 388.168 0.63323 0.377079 0
M  V30 4242 H 390.81 1.87354 0.316001 0
M  V30 4243 H 388.96 2.9154 2.56782 0
M  V30 4244 H 390.632 4.57922 0.557236 0
M  V30 4245 H 388.875 4.31407 0.455053 0
M  V30 4246 H 389.546 5.21116 1.8205 0
M  V30 4247 H 392.022 3.38148 2.42477 0
M  V30 4248 H 390.898 4.18726 3.54908 0
M  V30 4249 H 391.159 2.45491 3.67677 0
M  V30 4250 N 390.218 -0.567019 1.47046 0
M  V30 4251 C 391.443 -1.3551 1.57009 0
M  V30 4252 C 391.868 -1.86841 0.217259 0
M  V30 4253 O 391.226 -1.62435 -0.805268 0
M  V30 4254 C 391.274 -2.50777 2.5912 0
M  V30 4255 O 390.378 -3.52706 2.13711 0
M  V30 4256 H 389.719 -0.402919 0.52778 0
M  V30 4257 H 392.249 -0.686241 1.92748 0
M  V30 4258 H 392.259 -2.97481 2.79229 0
M  V30 4259 H 390.934 -2.12771 3.57353 0
M  V30 4260 H 389.511 -3.12374 2.03659 0
M  V30 4261 N 391.696 -1.35014 -0.812953 0
M  V30 4262 C 392.921 -1.31187 -1.60639 0
M  V30 4263 C 393.346 0.109382 -1.87782 0
M  V30 4264 O 392.704 1.07424 -1.46047 0
M  V30 4265 C 392.752 -2.11809 -2.91838 0
M  V30 4266 O 391.856 -1.49444 -3.8437 0
M  V30 4267 H 391.197 -0.450084 -0.488181 0
M  V30 4268 H 393.727 -1.77963 -1.00947 0
M  V30 4269 H 393.737 -2.23531 -3.41318 0
M  V30 4270 H 392.412 -3.15137 -2.71407 0
M  V30 4271 H 390.989 -1.46524 -3.42907 0
M  V30 4272 N 393.175 1.03435 -1.18907 0
M  V30 4273 C 394.403 1.80381 -1.01342 0
M  V30 4274 C 394.818 1.83649 0.438005 0
M  V30 4275 O 394.175 1.27655 1.30424 0
M  V30 4276 C 394.226 3.25689 -1.56873 0
M  V30 4277 O 393.947 3.22673 -2.96334 0
M  V30 4278 C 395.448 4.19255 -1.44014 0
M  V30 4279 H 392.668 0.56784 -0.35749 0
M  V30 4280 H 395.212 1.30317 -1.576 0
M  V30 4281 H 393.367 3.72962 -1.04777 0
M  V30 4282 H 393.781 4.13748 -3.22355 0
M  V30 4283 H 395.255 5.19123 -1.87657 0
M  V30 4284 H 395.732 4.37467 -0.389815 0
M  V30 4285 H 396.338 3.77851 -1.95214 0
M  V30 4286 N 394.653 0.992116 1.22453 0
M  V30 4287 C 395.899 0.678177 1.91761 0
M  V30 4288 C 396.254 -0.781141 1.75829 0
M  V30 4289 O 395.547 -1.55747 1.11595 0
M  V30 4290 C 395.741 1.01832 3.42586 0
M  V30 4291 C 395.57 2.50916 3.73191 0
M  V30 4292 C 394.34 3.17308 3.93248 0
M  V30 4293 C 396.538 3.49032 3.77732 0
M  V30 4294 N 394.52 4.55876 4.11157 0
M  V30 4295 C 395.891 4.73055 4.00773 0
M  V30 4296 C 397.946 3.43349 3.60577 0
M  V30 4297 C 396.649 5.92089 4.0844 0
M  V30 4298 C 398.675 4.61759 3.69503 0
M  V30 4299 C 398.037 5.84582 3.92993 0
M  V30 4300 H 394.136 0.299425 0.722405 0
M  V30 4301 H 396.72 1.27197 1.47408 0
M  V30 4302 H 394.891 0.453118 3.85748 0
M  V30 4303 H 396.623 0.660454 3.99274 0
M  V30 4304 H 393.378 2.67778 3.9063 0
M  V30 4305 H 393.802 5.27748 4.24042 0
M  V30 4306 H 398.444 2.49408 3.41402 0
M  V30 4307 H 396.162 6.86435 4.26418 0
M  V30 4308 H 399.748 4.58951 3.57569 0
M  V30 4309 H 398.628 6.74676 3.99728 0
M  V30 4310 N 396.131 -1.37776 0.765217 0
M  V30 4311 C 397.041 -2.34135 0.147666 0
M  V30 4312 C 398.057 -1.59854 -0.687215 0
M  V30 4313 O 399.233 -1.91983 -0.608659 0
M  V30 4314 C 396.298 -3.3901 -0.72617 0
M  V30 4315 C 395.359 -4.2912 0.124417 0
M  V30 4316 C 394.592 -5.28986 -0.707807 0
M  V30 4317 O 394.815 -5.36205 -1.94525 0
M  V30 4318 O 393.749 -6.01779 -0.12046 0
M  V30 4319 H 397.575 -2.88664 0.943758 0
M  V30 4320 H 395.16 -1.39824 0.526277 0
M  V30 4321 H 397.042 -4.03195 -1.22524 0
M  V30 4322 H 395.717 -2.86819 -1.50056 0
M  V30 4323 H 394.624 -3.68057 0.669696 0
M  V30 4324 H 395.957 -4.84598 0.861736 0
M  V30 4325 N 397.609 -0.515225 -1.4894 0
M  V30 4326 C 398.855 0.0242508 -2.02785 0
M  V30 4327 C 399.188 1.35323 -1.39289 0
M  V30 4328 O 398.463 1.87041 -0.533469 0
M  V30 4329 C 398.746 0.16184 -3.59736 0
M  V30 4330 C 398.599 -1.19127 -4.33738 0
M  V30 4331 C 399.918 0.895719 -4.30888 0
M  V30 4332 H 397.037 0.00733914 -0.736963 0
M  V30 4333 H 399.679 -0.669395 -1.77818 0
M  V30 4334 H 397.829 0.752624 -3.8114 0
M  V30 4335 H 399.501 -1.82202 -4.23792 0
M  V30 4336 H 397.744 -1.77695 -3.95736 0
M  V30 4337 H 398.415 -1.04815 -5.41957 0
M  V30 4338 H 400.891 0.394528 -4.14225 0
M  V30 4339 H 399.767 0.960859 -5.40425 0
M  V30 4340 H 400.028 1.9427 -3.97129 0
M  V30 4341 N 399.087 1.5561 -0.249682 0
M  V30 4342 C 400.034 2.21496 0.648694 0
M  V30 4343 C 401.004 1.17977 1.16921 0
M  V30 4344 O 402.189 1.46434 1.22318 0
M  V30 4345 C 399.329 2.92039 1.83868 0
M  V30 4346 C 398.442 4.10219 1.35442 0
M  V30 4347 C 397.577 4.6847 2.50419 0
M  V30 4348 C 396.616 5.78893 1.98869 0
M  V30 4349 N 395.753 6.31315 3.07223 0
M  V30 4350 H 400.593 2.97892 0.0801582 0
M  V30 4351 H 398.13 1.47074 0.0278031 0
M  V30 4352 H 400.088 3.31138 2.53778 0
M  V30 4353 H 398.718 2.18111 2.37965 0
M  V30 4354 H 397.77 3.76413 0.54928 0
M  V30 4355 H 399.082 4.89927 0.936649 0
M  V30 4356 H 398.236 5.10158 3.28366 0
M  V30 4357 H 396.975 3.87984 2.95499 0
M  V30 4358 H 395.98 5.3668 1.19393 0
M  V30 4359 H 397.205 6.61232 1.54755 0
M  V30 4360 H 395.151 5.53733 3.51732 0
M  V30 4361 H 395.068 7.06224 2.69784 0
M  V30 4362 H 396.336 6.77662 3.8522 0
M  V30 4363 N 400.565 -0.0233959 1.57583 0
M  V30 4364 C 401.981 -0.379134 1.55031 0
M  V30 4365 C 402.181 -1.76255 0.976548 0
M  V30 4366 O 401.237 -2.45266 0.600078 0
M  V30 4367 C 402.55 -0.275792 2.99433 0
M  V30 4368 C 404.098 -0.352458 3.11009 0
M  V30 4369 C 404.573 -0.278501 4.57152 0
M  V30 4370 N 406.064 -0.337123 4.61972 0
M  V30 4371 C 406.799 -0.302876 5.726 0
M  V30 4372 N 406.295 -0.220589 6.92449 0
M  V30 4373 N 408.088 -0.353023 5.6099 0
M  V30 4374 H 400.239 0.881869 1.93227 0
M  V30 4375 H 402.502 0.335867 0.886509 0
M  V30 4376 H 402.208 0.675108 3.4516 0
M  V30 4377 H 402.082 -1.06721 3.61788 0
M  V30 4378 H 404.469 -1.29379 2.65226 0
M  V30 4379 H 404.55 0.468409 2.51475 0
M  V30 4380 H 404.194 0.659189 5.03604 0
M  V30 4381 H 404.124 -1.11755 5.14605 0
M  V30 4382 H 406.615 -0.403002 3.75745 0
M  V30 4383 H 406.928 -0.199713 7.72542 0
M  V30 4384 H 405.273 -0.186555 6.9475 0
M  V30 4385 H 408.464 -0.415339 4.66254 0
M  V30 4386 H 408.637 -0.322866 6.47195 0
M  V30 4387 N 402.043 -1.548 -0.295768 0
M  V30 4388 C 403.454 -1.65274 -0.868411 0
M  V30 4389 C 403.805 -0.56481 -1.87894 0
M  V30 4390 O 402.93 0.29767 -2.14343 0
M  V30 4391 C 403.525 -2.99603 -1.58188 0
M  V30 4392 C 402.084 -3.12181 -2.10286 0
M  V30 4393 C 401.231 -2.6098 -0.93727 0
M  V30 4394 H 404.182 -1.58534 -0.0726422 0
M  V30 4395 H 404.203 -2.91319 -2.44772 0
M  V30 4396 H 403.715 -3.78764 -0.846151 0
M  V30 4397 H 401.816 -2.3775 -2.8689 0
M  V30 4398 H 401.929 -4.18415 -2.33379 0
M  V30 4399 H 400.293 -2.17564 -1.32431 0
M  V30 4400 H 401.076 -3.42623 -0.215414 0
M  V30 4401 N 403.521 0.559213 -1.47345 0
M  V30 4402 C 404.451 1.67622 -1.62558 0
M  V30 4403 C 405.432 1.63331 -0.475087 0
M  V30 4404 O 406.617 1.80983 -0.704182 0
M  V30 4405 C 403.747 3.0626 -1.63774 0
M  V30 4406 C 402.701 3.25397 -2.7803 0
M  V30 4407 C 402.027 4.64801 -2.64318 0
M  V30 4408 C 403.327 3.10965 -4.19641 0
M  V30 4409 H 405.021 1.55146 -2.56067 0
M  V30 4410 H 402.567 0.744961 -1.23233 0
M  V30 4411 H 404.52 3.84247 -1.73008 0
M  V30 4412 H 403.244 3.1969 -0.66825 0
M  V30 4413 H 401.903 2.49817 -2.68304 0
M  V30 4414 H 401.551 4.75028 -1.65401 0
M  V30 4415 H 401.251 4.78555 -3.40968 0
M  V30 4416 H 402.775 5.44926 -2.75478 0
M  V30 4417 H 404.189 3.78772 -4.30354 0
M  V30 4418 H 402.586 3.36229 -4.97062 0
M  V30 4419 H 403.656 2.07736 -4.38148 0
M  V30 4420 N 404.999 1.35443 0.805782 0
M  V30 4421 C 406.415 1.15499 1.10146 0
M  V30 4422 C 406.615 -0.0319975 2.01475 0
M  V30 4423 O 405.671 -0.70236 2.42535 0
M  V30 4424 C 406.984 2.45833 1.73166 0
M  V30 4425 C 408.532 2.52047 1.85583 0
M  V30 4426 C 409.007 3.82427 2.52019 0
M  V30 4427 N 410.498 3.83682 2.59504 0
M  V30 4428 C 411.233 4.81294 3.11679 0
M  V30 4429 N 410.729 5.89294 3.64287 0
M  V30 4430 N 412.522 4.6873 3.1024 0
M  V30 4431 H 404.673 2.11469 0.198678 0
M  V30 4432 H 406.936 0.93594 0.150731 0
M  V30 4433 H 406.642 3.32874 1.13526 0
M  V30 4434 H 406.516 2.6044 2.72857 0
M  V30 4435 H 408.903 1.65435 2.44367 0
M  V30 4436 H 408.984 2.41354 0.847455 0
M  V30 4437 H 408.628 4.69437 1.93885 0
M  V30 4438 H 408.558 3.90409 3.53395 0
M  V30 4439 H 411.049 3.05648 2.22234 0
M  V30 4440 H 411.362 6.59768 4.02401 0
M  V30 4441 H 409.707 5.92985 3.62483 0
M  V30 4442 H 412.898 3.83496 2.68419 0
M  V30 4443 H 413.071 5.44965 3.50596 0
M  V30 4444 N 406.477 -1.02803 1.19454 0
M  V30 4445 C 407.424 -2.11099 0.933046 0
M  V30 4446 C 408.394 -1.65571 -0.132447 0
M  V30 4447 O 409.579 -1.90797 0.00987576 0
M  V30 4448 C 406.719 -3.41763 0.478747 0
M  V30 4449 C 405.832 -4.00833 1.6111 0
M  V30 4450 C 404.967 -5.19511 1.10825 0
M  V30 4451 C 404.006 -5.70639 2.21445 0
M  V30 4452 N 403.143 -6.80589 1.72461 0
M  V30 4453 H 407.983 -2.32804 1.86028 0
M  V30 4454 H 405.52 -1.14179 0.927441 0
M  V30 4455 H 407.478 -4.16736 0.196745 0
M  V30 4456 H 406.108 -3.20166 -0.411493 0
M  V30 4457 H 405.16 -3.23066 2.00829 0
M  V30 4458 H 406.472 -4.34794 2.4445 0
M  V30 4459 H 405.626 -6.01645 0.781533 0
M  V30 4460 H 404.365 -4.87086 0.244606 0
M  V30 4461 H 403.37 -4.87116 2.54947 0
M  V30 4462 H 404.595 -6.05102 3.08267 0
M  V30 4463 H 402.541 -6.50016 0.884056 0
M  V30 4464 H 402.458 -7.13681 2.49389 0
M  V30 4465 H 403.726 -7.66317 1.42755 0
M  V30 4466 N 407.956 -0.998596 -1.21925 0
M  V30 4467 C 408.886 -0.573688 -2.26343 0
M  V30 4468 C 409.867 0.402296 -1.65274 0
M  V30 4469 O 411.052 0.291683 -1.91997 0
M  V30 4470 C 408.182 0.106839 -3.47136 0
M  V30 4471 C 407.136 -0.788269 -4.20678 0
M  V30 4472 C 406.462 0.0254927 -5.34694 0
M  V30 4473 C 407.762 -2.08784 -4.78755 0
M  V30 4474 H 409.456 -1.44651 -2.62138 0
M  V30 4475 H 407.002 -0.696975 -1.26009 0
M  V30 4476 H 408.955 0.415531 -4.19346 0
M  V30 4477 H 407.679 1.01424 -3.10452 0
M  V30 4478 H 406.338 -1.08069 -3.50309 0
M  V30 4479 H 405.986 0.933989 -4.94253 0
M  V30 4480 H 405.686 -0.570437 -5.84825 0
M  V30 4481 H 407.21 0.328147 -6.09718 0
M  V30 4482 H 408.624 -1.84272 -5.42878 0
M  V30 4483 H 407.021 -2.63307 -5.39249 0
M  V30 4484 H 408.091 -2.76284 -3.98491 0
M  V30 4485 N 409.434 1.37368 -0.772513 0
M  V30 4486 C 410.364 2.32856 -0.173304 0
M  V30 4487 C 411.345 1.55818 0.682262 0
M  V30 4488 O 412.53 1.84052 0.619566 0
M  V30 4489 C 409.66 3.40048 0.706007 0
M  V30 4490 C 408.614 4.27973 -0.0483144 0
M  V30 4491 C 407.94 5.26184 0.950491 0
M  V30 4492 C 409.24 5.07665 -1.22776 0
M  V30 4493 H 410.934 2.83217 -0.971002 0
M  V30 4494 H 408.48 1.3617 -0.468377 0
M  V30 4495 H 410.433 4.05827 1.13501 0
M  V30 4496 H 409.157 2.88214 1.53623 0
M  V30 4497 H 407.816 3.63726 -0.458107 0
M  V30 4498 H 407.464 4.7063 1.77529 0
M  V30 4499 H 407.164 5.85872 0.450314 0
M  V30 4500 H 408.688 5.94838 1.37842 0
M  V30 4501 H 410.102 5.66578 -0.875366 0
M  V30 4502 H 408.499 5.76681 -1.66007 0
M  V30 4503 H 409.569 4.40294 -2.03149 0
M  V30 4504 N 410.912 0.523116 1.48665 0
M  V30 4505 C 412.323 0.0808997 1.86525 0
M  V30 4506 C 412.674 -1.33975 1.43336 0
M  V30 4507 O 411.799 -2.00221 0.821009 0
M  V30 4508 C 412.394 0.140037 3.3851 0
M  V30 4509 C 410.953 -0.246948 3.75589 0
M  V30 4510 C 410.1 0.502845 2.72703 0
M  V30 4511 H 413.051 0.734736 1.40667 0
M  V30 4512 H 413.072 -0.649945 3.74908 0
M  V30 4513 H 412.584 1.17412 3.69914 0
M  V30 4514 H 410.685 -1.28343 3.49798 0
M  V30 4515 H 410.798 0.0878859 4.79019 0
M  V30 4516 H 409.162 -0.0500581 2.54651 0
M  V30 4517 H 409.945 1.53743 3.0695 0
M  V30 4518 N 412.39 -1.55475 0.257931 0
M  V30 4519 C 413.3 -2.2549 -0.647425 0
M  V30 4520 C 414.316 -1.2748 -1.18427 0
M  V30 4521 O 415.492 -1.6038 -1.2182 0
M  V30 4522 C 412.557 -2.94916 -1.82278 0
M  V30 4523 C 411.618 -4.08363 -1.32432 0
M  V30 4524 C 410.851 -4.74469 -2.44366 0
M  V30 4525 O 411.074 -4.39701 -3.63344 0
M  V30 4526 O 410.008 -5.62763 -2.13497 0
M  V30 4527 H 413.834 -3.03593 -0.0807707 0
M  V30 4528 H 411.419 -1.49377 0.0259962 0
M  V30 4529 H 413.301 -3.38606 -2.50846 0
M  V30 4530 H 411.976 -2.19744 -2.37685 0
M  V30 4531 H 410.883 -3.69166 -0.605605 0
M  V30 4532 H 412.216 -4.85385 -0.816211 0
M  V30 4533 N 413.868 0.0150385 -1.57593 0
M  V30 4534 C 415.114 0.704043 -1.90187 0
M  V30 4535 C 415.447 1.74249 -0.857366 0
M  V30 4536 O 414.722 1.94092 0.125843 0
M  V30 4537 C 415.005 1.36087 -3.33395 0
M  V30 4538 C 414.858 0.334981 -4.48551 0
M  V30 4539 C 416.177 2.29112 -3.7576 0
M  V30 4540 H 413.296 0.254475 -0.691673 0
M  V30 4541 H 415.938 -0.0331678 -1.89971 0
M  V30 4542 H 414.088 1.98922 -3.3371 0
M  V30 4543 H 415.76 -0.292534 -4.60372 0
M  V30 4544 H 414.003 -0.344325 -4.32431 0
M  V30 4545 H 414.674 0.833316 -5.45674 0
M  V30 4546 H 417.15 1.76308 -3.76902 0
M  V30 4547 H 416.026 2.72043 -4.76743 0
M  V30 4548 H 416.287 3.16385 -3.08793 0
M  V30 4549 N 415.346 1.54954 0.287554 0
M  V30 4550 C 416.294 1.87606 1.37502 0
M  V30 4551 C 417.288 0.751001 1.51843 0
M  V30 4552 O 418.494 0.935169 1.53801 0
M  V30 4553 H 414.869 0.595231 0.459569 0
M  V30 4554 H 416.84 2.78477 1.07206 0
M  V30 4555 C 415.589 2.15183 2.73115 0
M  V30 4556 H 414.912 3.01234 2.62866 0
M  V30 4557 H 416.352 2.4196 3.48183 0
M  V30 4558 C 414.811 0.954686 3.2309 0
M  V30 4559 O 415.341 0.181949 4.01288 0
M  V30 4560 N 413.547 0.756368 2.80584 0
M  V30 4561 H 413.094 1.38643 2.17108 0
M  V30 4562 H 413.052 -0.0430391 3.14371 0
M  V30 4563 N 416.824 -0.551391 1.4764 0
M  V30 4564 C 418.049 -1.33837 1.58437 0
M  V30 4565 C 418.474 -1.866 0.237063 0
M  V30 4566 O 417.832 -1.6328 -0.787994 0
M  V30 4567 C 417.88 -2.48014 2.61766 0
M  V30 4568 O 416.984 -3.50419 2.1744 0
M  V30 4569 H 416.325 -0.397299 0.532024 0
M  V30 4570 H 418.855 -0.665759 1.93465 0
M  V30 4571 H 418.865 -2.94503 2.82369 0
M  V30 4572 H 417.54 -2.08969 3.5959 0
M  V30 4573 H 416.117 -3.10196 2.06961 0
M  V30 4574 N 418.302 -1.35869 -0.798587 0
M  V30 4575 C 419.212 -1.31578 -1.94228 0
M  V30 4576 C 420.228 -0.21939 -1.72611 0
M  V30 4577 O 421.404 -0.450167 -1.96305 0
M  V30 4578 C 418.469 -1.09528 -3.28944 0
M  V30 4579 C 417.53 -2.28556 -3.63402 0
M  V30 4580 C 416.763 -2.07549 -4.9169 0
M  V30 4581 O 416.986 -1.046 -5.60727 0
M  V30 4582 O 415.92 -2.95106 -5.24591 0
M  V30 4583 H 419.746 -2.27847 -2.00796 0
M  V30 4584 H 417.331 -1.16322 -0.937526 0
M  V30 4585 H 419.213 -0.991127 -4.09579 0
M  V30 4586 H 417.888 -0.16315 -3.23289 0
M  V30 4587 H 416.795 -2.44538 -2.83112 0
M  V30 4588 H 418.128 -3.20244 -3.73771 0
M  V30 4589 N 419.78 1.02168 -1.19998 0
M  V30 4590 C 420.743 2.08765 -0.94604 0
M  V30 4591 C 421.743 1.60618 0.0763846 0
M  V30 4592 O 422.933 1.73472 -0.159135 0
M  V30 4593 C 420.065 3.38262 -0.423255 0
M  V30 4594 H 421.258 2.32726 -1.89153 0
M  V30 4595 H 418.811 1.1889 -1.01464 0
M  V30 4596 H 419.546 3.19974 0.527938 0
M  V30 4597 H 419.331 3.74532 -1.16053 0
M  V30 4598 H 420.821 4.16759 -0.264911 0
M  V30 4599 N 421.258 1.00505 1.21394 0
M  V30 4600 C 422.507 0.683159 1.89778 0
M  V30 4601 C 422.82 -0.789471 1.7896 0
M  V30 4602 O 424.026 -1.22344 2.42372 0
M  V30 4603 C 422.482 1.17146 3.40301 0
M  V30 4604 C 422.09 2.67017 3.5973 0
M  V30 4605 C 423.834 0.924461 4.14311 0
M  V30 4606 C 421.741 3.09387 5.04017 0
M  V30 4607 H 420.671 0.25183 0.710702 0
M  V30 4608 H 423.322 1.21622 1.37406 0
M  V30 4609 H 421.704 0.566451 3.91928 0
M  V30 4610 H 422.878 3.32968 3.18542 0
M  V30 4611 H 421.193 2.89732 2.99073 0
M  V30 4612 H 423.79 1.21658 5.20676 0
M  V30 4613 H 424.133 -0.139286 4.16067 0
M  V30 4614 H 424.666 1.49226 3.6875 0
M  V30 4615 H 421.405 4.14989 5.07409 0
M  V30 4616 H 420.925 2.48149 5.46061 0
M  V30 4617 H 422.604 3.01371 5.72525 0
M  V30 4618 N 422.737 -1.36956 0.779787 0
M  V30 4619 C 424.014 -1.93697 0.272156 0
M  V30 4620 C 424.394 -1.71267 -1.23413 0
M  V30 4621 O 423.742 -1.06607 -2.02107 0
M  V30 4622 C 423.952 -3.42812 0.654291 0
M  V30 4623 C 425.3 -4.19921 0.628602 0
M  V30 4624 O 426.324 -3.51209 0.594172 0
M  V30 4625 O 425.183 -5.42465 0.662864 0
M  V30 4626 H 422.277 -0.824447 0.0649286 0
M  V30 4627 H 424.823 -1.46196 0.861682 0
M  V30 4628 H 423.595 -3.52754 1.69353 0
M  V30 4629 H 423.218 -3.97582 0.0381369 0
M  V30 4630 N 424.215 -0.530993 -1.48385 0
M  V30 4631 C 425.462 0.0027373 -2.025 0
M  V30 4632 C 425.79 1.34186 -1.40799 0
M  V30 4633 O 425.045 1.88 -0.543544 0
M  V30 4634 C 425.344 0.172742 -3.56982 0
M  V30 4635 C 425.01 -1.09215 -4.37473 0
M  V30 4636 C 423.672 -1.43881 -4.59186 0
M  V30 4637 C 426.024 -1.93153 -4.84088 0
M  V30 4638 C 423.352 -2.62381 -5.2476 0
M  V30 4639 C 425.704 -3.10833 -5.50968 0
M  V30 4640 C 424.368 -3.45843 -5.70919 0
M  V30 4641 H 423.638 0.00100165 -0.740999 0
M  V30 4642 H 426.285 -0.697219 -1.78357 0
M  V30 4643 H 424.59 0.955473 -3.79971 0
M  V30 4644 H 426.287 0.600642 -3.96476 0
M  V30 4645 H 422.877 -0.812177 -4.20834 0
M  V30 4646 H 427.061 -1.67683 -4.67115 0
M  V30 4647 H 422.317 -2.89707 -5.38405 0
M  V30 4648 H 426.491 -3.7618 -5.86056 0
M  V30 4649 H 424.118 -4.37764 -6.21503 0
M  V30 4650 N 425.693 1.55336 -0.266172 0
M  V30 4651 C 426.623 2.25146 0.618981 0
M  V30 4652 C 427.604 1.23845 1.16604 0
M  V30 4653 O 428.789 1.52544 1.20183 0
M  V30 4654 C 425.919 2.96572 1.80728 0
M  V30 4655 C 424.873 4.04726 1.39215 0
M  V30 4656 C 424.199 4.63678 2.66283 0
M  V30 4657 C 425.499 5.19407 0.548942 0
M  V30 4658 H 427.193 2.99377 0.0368116 0
M  V30 4659 H 424.739 1.43991 0.0162651 0
M  V30 4660 H 426.692 3.44116 2.43232 0
M  V30 4661 H 425.416 2.19861 2.41514 0
M  V30 4662 H 424.075 3.57979 0.790351 0
M  V30 4663 H 423.723 3.83646 3.25308 0
M  V30 4664 H 423.423 5.367 2.39222 0
M  V30 4665 H 424.947 5.13967 3.29651 0
M  V30 4666 H 426.361 5.63059 1.07876 0
M  V30 4667 H 424.758 5.98936 0.373593 0
M  V30 4668 H 425.828 4.8295 -0.434394 0
M  V30 4669 N 427.171 -0.0066808 1.57599 0
M  V30 4670 C 428.081 -1.01671 2.11424 0
M  V30 4671 C 429.097 -1.38143 1.05795 0
M  V30 4672 O 430.273 -1.47011 1.37658 0
M  V30 4673 C 427.338 -2.29192 2.60139 0
M  V30 4674 C 426.399 -1.99094 3.80342 0
M  V30 4675 C 425.632 -3.20535 4.26724 0
M  V30 4676 O 425.855 -4.3199 3.72479 0
M  V30 4677 O 424.789 -3.04924 5.18946 0
M  V30 4678 H 428.615 -0.589181 2.9793 0
M  V30 4679 H 426.2 -0.225091 1.47695 0
M  V30 4680 H 428.082 -3.0412 2.917 0
M  V30 4681 H 426.757 -2.71195 1.76733 0
M  V30 4682 H 425.664 -1.21663 3.53764 0
M  V30 4683 H 426.997 -1.61931 4.648 0
M  V30 4684 N 428.649 -1.55105 -0.279332 0
M  V30 4685 C 429.596 -1.8755 -1.34513 0
M  V30 4686 C 430.566 -0.726384 -1.49375 0
M  V30 4687 O 431.751 -0.977063 -1.63884 0
M  V30 4688 C 428.891 -2.14738 -2.70151 0
M  V30 4689 C 428.004 -3.42285 -2.63562 0
M  V30 4690 C 427.139 -3.59206 -3.91337 0
M  V30 4691 C 426.178 -4.80467 -3.79233 0
M  V30 4692 N 425.315 -4.94079 -4.98829 0
M  V30 4693 H 430.155 -2.78456 -1.06143 0
M  V30 4694 H 427.692 -1.37867 -0.512936 0
M  V30 4695 H 429.65 -2.28501 -3.49061 0
M  V30 4696 H 428.28 -1.27075 -2.96735 0
M  V30 4697 H 427.332 -3.37029 -1.76397 0
M  V30 4698 H 428.644 -4.31328 -2.50515 0
M  V30 4699 H 427.798 -3.72751 -4.78687 0
M  V30 4700 H 426.537 -2.68337 -4.07243 0
M  V30 4701 H 425.542 -4.66932 -2.90266 0
M  V30 4702 H 426.767 -5.72765 -3.64852 0
M  V30 4703 H 424.713 -4.06139 -5.15158 0
M  V30 4704 H 424.63 -5.77156 -4.8829 0
M  V30 4705 H 425.898 -5.12003 -5.8777 0
M  V30 4706 N 430.127 0.543554 -1.4793 0
M  V30 4707 C 431.376 1.29649 -1.54512 0
M  V30 4708 C 431.689 1.94382 -0.217973 0
M  V30 4709 O 432.895 2.71017 -0.161908 0
M  V30 4710 C 431.351 2.35175 -2.72435 0
M  V30 4711 C 430.959 1.76572 -4.11736 0
M  V30 4712 C 432.703 3.11564 -2.8832 0
M  V30 4713 C 430.61 2.79958 -5.20939 0
M  V30 4714 H 429.54 0.487541 -0.57517 0
M  V30 4715 H 432.191 0.575708 -1.74235 0
M  V30 4716 H 430.573 3.10229 -2.46118 0
M  V30 4717 H 431.747 1.07799 -4.48013 0
M  V30 4718 H 430.062 1.12722 -4.00852 0
M  V30 4719 H 432.659 3.88794 -3.67074 0
M  V30 4720 H 433.002 3.66594 -1.97268 0
M  V30 4721 H 433.535 2.43623 -3.14472 0
M  V30 4722 H 430.274 2.29766 -6.13912 0
M  V30 4723 H 429.794 3.47101 -4.89164 0
M  V30 4724 H 431.473 3.43198 -5.48474 0
M  V30 4725 N 431.605 1.3629 0.791371 0
M  V30 4726 C 432.535 1.33137 1.91825 0
M  V30 4727 C 433.516 0.203168 1.68882 0
M  V30 4728 O 434.701 0.400509 1.90025 0
M  V30 4729 C 431.831 1.11793 3.28816 0
M  V30 4730 C 430.785 2.21417 3.66277 0
M  V30 4731 C 430.111 1.85218 5.01596 0
M  V30 4732 C 431.411 3.63489 3.75064 0
M  V30 4733 H 433.105 2.2743 1.9472 0
M  V30 4734 H 430.651 1.09479 0.935437 0
M  V30 4735 H 432.604 1.08222 4.07266 0
M  V30 4736 H 431.328 0.139501 3.26302 0
M  V30 4737 H 429.987 2.2411 2.90121 0
M  V30 4738 H 429.635 0.859544 4.95602 0
M  V30 4739 H 429.335 2.58611 5.27631 0
M  V30 4740 H 430.859 1.832 5.82469 0
M  V30 4741 H 432.273 3.63034 4.43711 0
M  V30 4742 H 430.67 4.35771 4.12582 0
M  V30 4743 H 431.74 3.98536 2.76219 0
M  V30 4744 N 433.083 -1.0153 1.20538 0
M  V30 4745 C 434.311 -1.78746 1.04199 0
M  V30 4746 C 434.726 -1.84323 -0.408733 0
M  V30 4747 O 434.083 -1.29714 -1.28377 0
M  V30 4748 C 434.134 -3.23152 1.62035 0
M  V30 4749 O 433.855 -3.17918 3.0143 0
M  V30 4750 C 435.356 -4.16911 1.50666 0
M  V30 4751 H 432.576 -0.56208 0.366479 0
M  V30 4752 H 435.12 -1.27794 1.59653 0
M  V30 4753 H 433.275 -3.71248 1.10697 0
M  V30 4754 H 433.689 -4.08567 3.28897 0
M  V30 4755 H 435.163 -5.16072 1.95892 0
M  V30 4756 H 435.64 -4.36791 0.459363 0
M  V30 4757 H 436.246 -3.74698 2.01201 0
M  V30 4758 N 434.561 -1.01147 -1.20859 0
M  V30 4759 C 435.808 -0.697865 -1.90095 0
M  V30 4760 C 436.136 0.772014 -1.78522 0
M  V30 4761 O 435.391 1.57595 -1.16027 0
M  V30 4762 C 435.69 -1.0727 -3.40922 0
M  V30 4763 C 435.356 -2.53792 -3.72693 0
M  V30 4764 C 434.018 -2.93829 -3.81075 0
M  V30 4765 C 436.37 -3.48674 -3.87397 0
M  V30 4766 C 433.698 -4.27696 -4.01613 0
M  V30 4767 C 436.05 -4.82223 -4.09444 0
M  V30 4768 C 434.714 -5.21973 -4.16054 0
M  V30 4769 H 433.984 -0.255367 -0.695607 0
M  V30 4770 H 436.631 -1.27111 -1.43231 0
M  V30 4771 H 434.936 -0.417799 -3.89566 0
M  V30 4772 H 436.633 -0.807818 -3.92779 0
M  V30 4773 H 433.223 -2.21768 -3.66765 0
M  V30 4774 H 437.407 -3.18904 -3.80281 0
M  V30 4775 H 432.663 -4.58055 -4.04964 0
M  V30 4776 H 436.837 -5.55672 -4.19763 0
M  V30 4777 H 434.464 -6.25717 -4.31721 0
M  V30 4778 N 436.039 1.36541 -0.78704 0
M  V30 4779 C 436.987 2.31965 -0.171724 0
M  V30 4780 C 437.981 1.55689 0.667631 0
M  V30 4781 O 439.187 1.70969 0.562981 0
M  V30 4782 H 435.562 0.751101 -0.0367545 0
M  V30 4783 H 437.533 2.81428 -0.992017 0
M  V30 4784 C 436.282 3.40968 0.680904 0
M  V30 4785 H 435.605 3.99775 0.0443961 0
M  V30 4786 H 437.045 4.10063 1.07815 0
M  V30 4787 C 435.504 2.82338 1.83813 0
M  V30 4788 O 436.034 2.74311 2.93456 0
M  V30 4789 N 434.24 2.39661 1.6435 0
M  V30 4790 H 433.787 2.46389 0.751668 0
M  V30 4791 H 433.745 2.00779 2.4194 0
M  V30 4792 N 437.518 0.538854 1.48102 0
M  V30 4793 C 438.929 0.100679 1.86428 0
M  V30 4794 C 439.28 -1.32447 1.44749 0
M  V30 4795 O 438.405 -1.99339 0.842199 0
M  V30 4796 C 439 0.175933 3.38343 0
M  V30 4797 C 437.559 -0.207098 3.7583 0
M  V30 4798 C 436.706 0.531741 2.72154 0
M  V30 4799 H 439.657 0.749614 1.3988 0
M  V30 4800 H 439.678 -0.610144 3.75576 0
M  V30 4801 H 439.19 1.21328 3.68648 0
M  V30 4802 H 437.291 -1.24626 3.5114 0
M  V30 4803 H 437.404 0.138687 4.78899 0
M  V30 4804 H 435.768 -0.0230462 2.5469 0
M  V30 4805 H 436.551 1.56989 3.05302 0
M  V30 4806 N 438.996 -1.55193 0.274407 0
M  V30 4807 C 439.929 -2.18606 -0.654712 0
M  V30 4808 C 440.907 -1.14677 -1.15273 0
M  V30 4809 O 442.091 -1.43198 -1.22583 0
M  V30 4810 C 439.218 -2.80875 -1.89281 0
M  V30 4811 C 438.264 -3.981 -1.53032 0
M  V30 4812 S 439.097 -5.32025 -0.609107 0
M  V30 4813 C 440.253 -5.97761 -1.85559 0
M  V30 4814 H 440.486 -2.97074 -0.115894 0
M  V30 4815 H 438.019 -1.54288 0.05867 0
M  V30 4816 H 439.977 -3.17381 -2.60345 0
M  V30 4817 H 438.638 -2.02302 -2.40277 0
M  V30 4818 H 437.831 -4.40356 -2.45158 0
M  V30 4819 H 437.433 -3.63013 -0.899874 0
M  V30 4820 H 439.725 -6.16951 -2.7996 0
M  V30 4821 H 440.668 -6.92545 -1.47605 0
M  V30 4822 H 441.076 -5.27113 -2.02021 0
M  V30 4823 N 440.474 -0.00167713 -1.576 0
M  V30 4824 C 441.751 0.719951 -1.81868 0
M  V30 4825 C 442.131 1.91895 -0.879747 0
M  V30 4826 O 441.479 2.28389 0.0711423 0
M  V30 4827 C 441.689 1.12409 -3.30402 0
M  V30 4828 C 443.037 1.52724 -3.96182 0
M  V30 4829 O 444.061 1.21784 -3.34734 0
M  V30 4830 O 442.92 2.10265 -5.04431 0
M  V30 4831 H 440.014 0.350707 -0.748955 0
M  V30 4832 H 442.56 -0.0272597 -1.69678 0
M  V30 4833 H 441.332 0.269532 -3.90371 0
M  V30 4834 H 440.955 1.93035 -3.47596 0
M  V30 4835 N 441.952 1.55251 0.271103 0
M  V30 4836 C 443.368 1.47133 0.618393 0
M  V30 4837 C 443.568 0.686994 1.89427 0
M  V30 4838 O 442.624 0.206609 2.51653 0
M  V30 4839 C 443.937 2.91361 0.743593 0
M  V30 4840 C 445.485 3.01587 0.837522 0
M  V30 4841 C 445.96 4.47073 0.994483 0
M  V30 4842 N 447.451 4.50909 1.05996 0
M  V30 4843 C 448.186 5.60698 1.20024 0
M  V30 4844 N 447.682 6.80348 1.30759 0
M  V30 4845 N 449.475 5.48444 1.23149 0
M  V30 4846 H 441.626 2.04698 -0.566784 0
M  V30 4847 H 443.889 0.928319 -0.192165 0
M  V30 4848 H 443.595 3.51483 -0.123493 0
M  V30 4849 H 443.469 3.40484 1.62328 0
M  V30 4850 H 445.856 2.4156 1.69507 0
M  V30 4851 H 445.937 2.55713 -0.0668086 0
M  V30 4852 H 445.581 5.07703 0.141582 0
M  V30 4853 H 445.511 4.90605 1.91349 0
M  V30 4854 H 448.002 3.6472 0.989316 0
M  V30 4855 H 448.315 7.59772 1.41303 0
M  V30 4856 H 446.66 6.83156 1.27761 0
M  V30 4857 H 449.851 4.53907 1.14394 0
M  V30 4858 H 450.024 6.34049 1.33738 0
M  V30 4859 N 443.43 -0.535701 1.48216 0
M  V30 4860 C 444.36 -1.65014 1.65204 0
M  V30 4861 C 445.341 -1.62554 0.501011 0
M  V30 4862 O 446.526 -1.7984 0.732886 0
M  V30 4863 C 443.656 -3.03616 1.68626 0
M  V30 4864 C 442.61 -3.20932 2.83172 0
M  V30 4865 C 441.936 -4.60537 2.71679 0
M  V30 4866 C 443.236 -3.04249 4.24535 0
M  V30 4867 H 444.93 -1.51053 2.58502 0
M  V30 4868 H 442.476 -0.725262 1.24402 0
M  V30 4869 H 444.429 -3.81446 1.79099 0
M  V30 4870 H 443.153 -3.18587 0.719026 0
M  V30 4871 H 441.812 -2.45517 2.72244 0
M  V30 4872 H 441.46 -4.72336 1.72937 0
M  V30 4873 H 441.16 -4.73069 3.48538 0
M  V30 4874 H 442.684 -5.40475 2.84112 0
M  V30 4875 H 444.098 -3.71877 4.36326 0
M  V30 4876 H 442.495 -3.28278 5.02348 0
M  V30 4877 H 443.565 -2.00739 4.41397 0
M  V30 4878 N 444.908 -1.36708 -0.784132 0
M  V30 4879 C 446.136 -1.34398 -1.57305 0
M  V30 4880 C 446.551 0.0735577 -1.88657 0
M  V30 4881 O 445.908 1.03193 -1.50524 0
M  V30 4882 C 445.959 -2.17053 -2.89085 0
M  V30 4883 O 445.68 -3.53281 -2.59083 0
M  V30 4884 C 447.181 -2.22583 -3.83369 0
M  V30 4885 H 444.401 -0.460819 -0.487736 0
M  V30 4886 H 446.945 -1.79879 -0.972819 0
M  V30 4887 H 445.1 -1.75113 -3.45564 0
M  V30 4888 H 445.514 -3.9647 -3.43383 0
M  V30 4889 H 446.988 -2.84763 -4.72878 0
M  V30 4890 H 447.465 -1.23075 -4.21603 0
M  V30 4891 H 448.071 -2.64781 -3.32823 0
M  V30 4892 N 446.386 1.0089 -1.21074 0
M  V30 4893 C 447.349 2.0775 -0.968129 0
M  V30 4894 C 448.349 1.6069 0.0593445 0
M  V30 4895 O 449.539 1.73293 -0.177525 0
M  V30 4896 C 446.671 3.37794 -0.459108 0
M  V30 4897 H 447.864 2.30707 -1.9161 0
M  V30 4898 H 445.417 1.17807 -1.02719 0
M  V30 4899 H 446.152 3.20516 0.49397 0
M  V30 4900 H 445.937 3.7328 -1.20019 0
M  V30 4901 H 447.427 4.16454 -0.309099 0
M  V30 4902 N 447.864 1.01787 1.20321 0
M  V30 4903 C 448.774 0.598898 2.26827 0
M  V30 4904 C 449.79 -0.36418 1.70146 0
M  V30 4905 O 450.966 -0.224812 2.00141 0
M  V30 4906 C 448.031 -0.0549769 3.46656 0
M  V30 4907 C 447.092 0.954205 4.18561 0
M  V30 4908 C 446.325 0.331439 5.3267 0
M  V30 4909 O 446.548 -0.86851 5.63749 0
M  V30 4910 O 445.482 1.0488 5.92692 0
M  V30 4911 H 449.308 1.48562 2.64883 0
M  V30 4912 H 446.893 0.787434 1.26964 0
M  V30 4913 H 448.775 -0.420102 4.19301 0
M  V30 4914 H 447.45 -0.915876 3.10473 0
M  V30 4915 H 446.357 1.37072 3.48083 0
M  V30 4916 H 447.69 1.78511 4.58688 0
M  V30 4917 N 449.342 -1.36122 0.79427 0
M  V30 4918 C 450.275 -2.27759 0.141845 0
M  V30 4919 C 451.253 -1.47471 -0.684921 0
M  V30 4920 O 452.437 -1.76759 -0.654857 0
M  V30 4921 C 449.564 -3.29008 -0.804446 0
M  V30 4922 C 448.61 -4.26459 -0.0588617 0
M  V30 4923 S 449.443 -5.20253 1.26873 0
M  V30 4924 C 450.599 -6.25048 0.326562 0
M  V30 4925 H 450.832 -2.82746 0.918818 0
M  V30 4926 H 448.365 -1.42736 0.588722 0
M  V30 4927 H 450.323 -3.87842 -1.34495 0
M  V30 4928 H 448.984 -2.72924 -1.5547 0
M  V30 4929 H 448.177 -4.97973 -0.777087 0
M  V30 4930 H 447.779 -3.71731 0.411309 0
M  V30 4931 H 450.071 -6.75705 -0.492795 0
M  V30 4932 H 451.014 -7.00852 1.01053 0
M  V30 4933 H 451.422 -5.64454 -0.0722627 0
M  V30 4934 N 450.82 -0.546701 -1.47814 0
M  V30 4935 C 452.068 -0.0187037 -2.02091 0
M  V30 4936 C 452.389 1.33168 -1.42447 0
M  V30 4937 O 451.659 1.86619 -0.595839 0
M  V30 4938 H 450.239 -0.00392531 -0.74699 0
M  V30 4939 H 452.901 -0.714327 -1.81338 0
M  V30 4940 H 451.997 0.0772219 -3.12004 0
M  V30 4941 N 452.299 1.55045 -0.282633 0
M  V30 4942 C 453.229 2.2579 0.595066 0
M  V30 4943 C 454.21 1.25074 1.15284 0
M  V30 4944 O 455.395 1.5381 1.18559 0
M  V30 4945 C 452.525 2.98472 1.77572 0
M  V30 4946 C 451.479 4.0618 1.34914 0
M  V30 4947 C 450.805 4.66477 2.6135 0
M  V30 4948 C 452.105 5.1996 0.493821 0
M  V30 4949 H 453.799 2.994 0.00505653 0
M  V30 4950 H 451.345 1.44 0.000992001 0
M  V30 4951 H 453.298 3.46677 2.39568 0
M  V30 4952 H 452.022 2.2241 2.39168 0
M  V30 4953 H 450.681 3.58797 0.752338 0
M  V30 4954 H 450.329 3.87074 3.2122 0
M  V30 4955 H 450.029 5.39207 2.33516 0
M  V30 4956 H 451.553 5.17435 3.24181 0
M  V30 4957 H 452.967 5.64172 1.01898 0
M  V30 4958 H 451.364 5.99299 0.310047 0
M  V30 4959 H 452.434 4.82462 -0.485593 0
M  V30 4960 N 453.777 0.010035 1.57597 0
M  V30 4961 C 454.709 -1.00649 2.05918 0
M  V30 4962 C 455.722 -1.30077 0.978964 0
M  V30 4963 O 456.911 -1.26878 1.25556 0
M  V30 4964 C 454.011 -2.33876 2.45265 0
M  V30 4965 C 453.184 -2.23242 3.7614 0
M  V30 4966 C 452.243 -3.39242 4.02245 0
M  V30 4967 O 451.269 -3.1698 4.72771 0
M  V30 4968 N 452.471 -4.6242 3.50924 0
M  V30 4969 H 455.236 -0.594333 2.93748 0
M  V30 4970 H 452.797 -0.17714 1.60928 0
M  V30 4971 H 454.789 -3.1027 2.59836 0
M  V30 4972 H 453.359 -2.66799 1.62902 0
M  V30 4973 H 452.579 -1.31696 3.71551 0
M  V30 4974 H 453.867 -2.13321 4.61922 0
M  V30 4975 H 453.265 -4.83404 2.93832 0
M  V30 4976 H 451.822 -5.36046 3.70807 0
M  V30 4977 N 455.255 -1.55392 -0.262866 0
M  V30 4978 C 456.205 -1.85355 -1.32768 0
M  V30 4979 C 457.189 -0.713188 -1.44231 0
M  V30 4980 O 458.381 -0.974765 -1.47741 0
M  V30 4981 C 455.51 -2.13781 -2.68612 0
M  V30 4982 C 454.596 -3.34104 -2.61219 0
M  V30 4983 N 454.987 -4.53766 -2.2345 0
M  V30 4984 C 453.285 -3.36895 -2.92263 0
M  V30 4985 C 453.986 -5.35877 -2.26298 0
M  V30 4986 N 452.962 -4.74536 -2.65172 0
M  V30 4987 H 456.764 -2.75413 -1.02591 0
M  V30 4988 H 454.278 -1.55405 -0.471503 0
M  V30 4989 H 456.275 -2.33407 -3.45437 0
M  V30 4990 H 454.935 -1.25013 -2.99669 0
M  V30 4991 H 455.946 -4.79682 -1.95258 0
M  V30 4992 H 452.623 -2.58351 -3.27965 0
M  V30 4993 H 454.013 -6.41577 -1.99572 0
M  V30 4994 N 456.733 0.527833 -1.48498 0
M  V30 4995 C 458.144 1.10975 -1.50138 0
M  V30 4996 C 458.495 1.943 -0.272378 0
M  V30 4997 O 457.62 2.07319 0.620301 0
M  V30 4998 C 458.215 2.01927 -2.72049 0
M  V30 4999 C 456.774 2.55332 -2.76554 0
M  V30 5000 C 455.921 1.32341 -2.43683 0
M  V30 5001 H 458.872 0.312986 -1.55583 0
M  V30 5002 H 458.893 2.86244 -2.50689 0
M  V30 5003 H 458.405 1.41254 -3.61481 0
M  V30 5004 H 456.506 3.19721 -1.91336 0
M  V30 5005 H 456.619 2.94319 -3.78038 0
M  V30 5006 H 454.983 1.63989 -1.94884 0
M  V30 5007 H 455.766 0.734165 -3.35358 0
M  V30 5008 N 458.211 1.37122 0.776871 0
M  V30 5009 C 459.441 1.35034 1.56363 0
M  V30 5010 C 459.849 -0.0674681 1.8908 0
M  V30 5011 O 459.192 -1.03826 1.51545 0
M  V30 5012 C 459.254 2.11894 2.90415 0
M  V30 5013 C 458.918 3.60897 2.80362 0
M  V30 5014 C 459.915 4.54887 2.51742 0
M  V30 5015 C 457.6 4.03951 2.98545 0
M  V30 5016 C 459.594 5.89909 2.41426 0
M  V30 5017 C 457.281 5.3906 2.87849 0
M  V30 5018 C 458.279 6.31852 2.5933 0
M  V30 5019 O 457.967 7.64479 2.48651 0
M  V30 5020 H 457.699 0.464402 0.49123 0
M  V30 5021 H 460.253 1.80992 0.971127 0
M  V30 5022 H 458.483 1.60618 3.51765 0
M  V30 5023 H 460.172 2.02505 3.51776 0
M  V30 5024 H 460.938 4.22934 2.37385 0
M  V30 5025 H 456.817 3.3209 3.19746 0
M  V30 5026 H 460.361 6.62304 2.19086 0
M  V30 5027 H 456.258 5.70617 3.01773 0
M  V30 5028 H 457.026 7.74742 2.64039 0
M  V30 5029 N 459.689 -1.00246 1.21608 0
M  V30 5030 C 460.622 -2.08794 0.920892 0
M  V30 5031 C 461.6 -1.62059 -0.132552 0
M  V30 5032 O 462.784 -1.885 -0.0030366 0
M  V30 5033 C 459.911 -3.36525 0.383226 0
M  V30 5034 C 458.957 -4.02172 1.41987 0
M  V30 5035 S 459.79 -4.44256 2.98994 0
M  V30 5036 C 460.946 -5.7517 2.4684 0
M  V30 5037 H 461.179 -2.33511 1.8401 0
M  V30 5038 H 458.712 -1.13562 1.04609 0
M  V30 5039 H 460.67 -4.10423 0.0795871 0
M  V30 5040 H 459.331 -3.09854 -0.514711 0
M  V30 5041 H 458.524 -4.94114 0.993335 0
M  V30 5042 H 458.126 -3.34559 1.67171 0
M  V30 5043 H 460.418 -6.51042 1.87484 0
M  V30 5044 H 461.361 -6.22638 3.37235 0
M  V30 5045 H 461.769 -5.32112 1.88461 0
M  V30 5046 N 461.167 -1.02423 -1.1978 0
M  V30 5047 C 462.392 -0.7373 -1.93852 0
M  V30 5048 C 462.817 0.696923 -1.74713 0
M  V30 5049 O 462.175 1.48056 -1.04638 0
M  V30 5050 C 462.223 -1.08783 -3.438 0
M  V30 5051 O 461.327 -0.20383 -4.11896 0
M  V30 5052 H 460.668 -0.27284 -0.605355 0
M  V30 5053 H 463.198 -1.36966 -1.51992 0
M  V30 5054 H 463.208 -1.04276 -3.9445 0
M  V30 5055 H 461.883 -2.13274 -3.57053 0
M  V30 5056 H 460.46 -0.307091 -3.71633 0
M  V30 5057 N 462.645 1.35699 -0.801477 0
M  V30 5058 C 464.056 1.81415 -0.441073 0
M  V30 5059 C 464.407 1.66595 1.03636 0
M  V30 5060 O 463.532 1.19369 1.80499 0
M  V30 5061 C 464.127 3.29369 -0.793819 0
M  V30 5062 C 462.686 3.73248 -0.486083 0
M  V30 5063 C 461.833 2.57775 -1.02213 0
M  V30 5064 H 464.784 1.23749 -0.993572 0
M  V30 5065 H 464.805 3.80395 -0.0894158 0
M  V30 5066 H 464.317 3.40123 -1.86917 0
M  V30 5067 H 462.418 3.68046 0.580735 0
M  V30 5068 H 462.531 4.68222 -1.01513 0
M  V30 5069 H 460.895 2.50788 -0.444712 0
M  V30 5070 H 461.678 2.71309 -2.10348 0
M  V30 5071 N 464.123 0.554532 1.47522 0
M  V30 5072 C 465.353 0.0342074 2.06572 0
M  V30 5073 C 465.761 -1.26375 1.40805 0
M  V30 5074 O 465.104 -1.7683 0.49769 0
M  V30 5075 C 465.166 -0.235096 3.5873 0
M  V30 5076 C 464.83 0.973024 4.46521 0
M  V30 5077 C 465.827 1.8779 4.848 0
M  V30 5078 C 463.512 1.18694 4.88075 0
M  V30 5079 C 465.506 2.98039 5.63428 0
M  V30 5080 C 463.193 2.29254 5.66468 0
M  V30 5081 C 464.191 3.18757 6.04055 0
M  V30 5082 O 463.879 4.27401 6.8087 0
M  V30 5083 H 463.611 0.041587 0.67472 0
M  V30 5084 H 466.165 0.766748 1.90552 0
M  V30 5085 H 464.395 -1.02191 3.72953 0
M  V30 5086 H 466.084 -0.700477 3.9981 0
M  V30 5087 H 466.85 1.72467 4.53299 0
M  V30 5088 H 462.729 0.49947 4.58286 0
M  V30 5089 H 466.273 3.67926 5.92685 0
M  V30 5090 H 462.17 2.4455 5.97382 0
M  V30 5091 H 462.938 4.25415 6.9926 0
M  V30 5092 N 465.601 -1.54893 0.290851 0
M  V30 5093 C 466.826 -2.04804 -0.32712 0
M  V30 5094 C 467.251 -1.16721 -1.47506 0
M  V30 5095 O 466.609 -0.169107 -1.8051 0
M  V30 5096 C 466.657 -3.52268 -0.770689 0
M  V30 5097 O 465.761 -3.67236 -1.87647 0
M  V30 5098 H 465.102 -0.660789 -0.0652227 0
M  V30 5099 H 467.632 -2.00036 0.429739 0
M  V30 5100 H 467.642 -3.9393 -1.06223 0
M  V30 5101 H 466.317 -4.15843 0.069096 0
M  V30 5102 H 464.894 -3.37479 -1.58626 0
M  V30 5103 N 467.08 -0.0183926 -1.57589 0
M  V30 5104 C 468.32 0.666846 -1.93216 0
M  V30 5105 C 468.684 1.69905 -0.894215 0
M  V30 5106 O 469.885 2.436 -1.13633 0
M  V30 5107 C 468.156 1.27684 -3.33814 0
M  V30 5108 S 469.715 1.98464 -3.91353 0
M  V30 5109 H 466.533 0.219826 -0.676164 0
M  V30 5110 H 469.135 -0.0794893 -1.95338 0
M  V30 5111 H 467.839 0.513006 -4.07181 0
M  V30 5112 H 467.37 2.06071 -3.3511 0
M  V30 5113 H 469.385 3.26189 -3.73918 0
M  V30 5114 N 468.558 1.5553 0.254621 0
M  V30 5115 C 469.969 1.67518 0.824286 0
M  V30 5116 C 470.32 0.614429 1.86331 0
M  V30 5117 O 469.445 -0.240736 2.15057 0
M  V30 5118 C 470.04 3.03692 1.50189 0
M  V30 5119 C 468.599 3.17646 2.01935 0
M  V30 5120 C 467.746 2.63373 0.867746 0
M  V30 5121 H 470.697 1.58671 0.0305843 0
M  V30 5122 H 470.718 2.97706 2.36962 0
M  V30 5123 H 470.23 3.80874 0.745431 0
M  V30 5124 H 468.331 2.45273 2.80485 0
M  V30 5125 H 468.444 4.24455 2.22204 0
M  V30 5126 H 466.808 2.20999 1.26616 0
M  V30 5127 H 467.591 3.43074 0.124498 0
M  V30 5128 N 470.036 -0.519951 1.48776 0
M  V30 5129 C 470.946 -1.65025 1.66745 0
M  V30 5130 C 471.962 -1.6508 0.549954 0
M  V30 5131 O 473.138 -1.83848 0.822295 0
M  V30 5132 C 470.203 -3.0146 1.71238 0
M  V30 5133 C 469.264 -3.12182 2.94688 0
M  V30 5134 C 468.497 -4.42109 2.98958 0
M  V30 5135 O 468.72 -5.29799 2.1135 0
M  V30 5136 O 467.654 -4.57406 3.91233 0
M  V30 5137 H 471.48 -1.52801 2.62461 0
M  V30 5138 H 469.065 -0.694157 1.32294 0
M  V30 5139 H 470.947 -3.82584 1.76657 0
M  V30 5140 H 469.622 -3.13988 0.786975 0
M  V30 5141 H 468.529 -2.30316 2.94797 0
M  V30 5142 H 469.862 -3.04574 3.86646 0
M  V30 5143 N 471.514 -1.37532 -0.769588 0
M  V30 5144 C 472.791 -1.23392 -1.51768 0
M  V30 5145 C 473.171 0.17157 -2.10402 0
M  V30 5146 O 472.519 1.17943 -1.95708 0
M  V30 5147 C 472.729 -2.33163 -2.59685 0
M  V30 5148 C 474.077 -2.70809 -3.27028 0
M  V30 5149 O 475.101 -2.32355 -2.69981 0
M  V30 5150 O 473.96 -3.37066 -4.30173 0
M  V30 5151 H 471.054 -0.481617 -0.67229 0
M  V30 5152 H 473.6 -1.49318 -0.806368 0
M  V30 5153 H 472.372 -3.27273 -2.14494 0
M  V30 5154 H 471.995 -2.08713 -3.38415 0
M  V30 5155 N 472.992 0.995999 -1.22138 0
M  V30 5156 C 473.902 2.11985 -1.00496 0
M  V30 5157 C 474.918 1.7394 0.0457701 0
M  V30 5158 O 476.094 2.00868 -0.146273 0
M  V30 5159 C 473.159 3.41779 -0.582086 0
M  V30 5160 C 472.22 3.93943 -1.70608 0
M  V30 5161 C 471.453 5.17542 -1.30328 0
M  V30 5162 O 471.676 5.70114 -0.180743 0
M  V30 5163 O 470.61 5.63382 -2.11861 0
M  V30 5164 H 474.436 2.33123 -1.94647 0
M  V30 5165 H 472.021 1.10358 -1.00705 0
M  V30 5166 H 473.903 4.1989 -0.356467 0
M  V30 5167 H 472.578 3.22007 0.330592 0
M  V30 5168 H 471.485 3.17019 -1.98619 0
M  V30 5169 H 472.818 4.18141 -2.59651 0
M  V30 5170 N 474.47 1.03057 1.19235 0
M  V30 5171 C 475.881 0.757449 1.70645 0
M  V30 5172 C 476.232 -0.722735 1.82403 0
M  V30 5173 O 475.357 -1.56325 1.49638 0
M  V30 5174 C 475.952 1.36833 3.09939 0
M  V30 5175 C 474.511 1.14375 3.58602 0
M  V30 5176 C 473.658 1.46533 2.35422 0
M  V30 5177 H 476.609 1.19828 1.04052 0
M  V30 5178 H 476.63 0.766184 3.72706 0
M  V30 5179 H 476.142 2.44562 3.01349 0
M  V30 5180 H 474.243 0.0847542 3.72504 0
M  V30 5181 H 474.356 1.83366 4.42622 0
M  V30 5182 H 472.72 0.884712 2.38841 0
M  V30 5183 H 473.503 2.55349 2.2946 0
M  V30 5184 N 475.948 -1.35272 0.808662 0
M  V30 5185 C 477.176 -2.02946 0.402537 0
M  V30 5186 C 477.591 -1.60937 -0.987147 0
M  V30 5187 O 476.948 -0.807917 -1.63643 0
M  V30 5188 C 476.999 -3.58317 0.47868 0
M  V30 5189 O 476.72 -3.98799 1.81358 0
M  V30 5190 C 478.221 -4.43251 0.0656281 0
M  V30 5191 H 475.441 -0.650831 0.163279 0
M  V30 5192 H 477.985 -1.72849 1.09286 0
M  V30 5193 H 476.14 -3.87055 -0.163415 0
M  V30 5194 H 476.554 -4.93451 1.77781 0
M  V30 5195 H 478.028 -5.51738 0.170017 0
M  V30 5196 H 478.505 -4.27913 -0.989278 0
M  V30 5197 H 479.111 -4.19813 0.68096 0
M  V30 5198 N 477.426 -0.562348 -1.47226 0
M  V30 5199 C 478.651 -0.0432632 -2.07355 0
M  V30 5200 C 479.076 1.24332 -1.41149 0
M  V30 5201 O 478.434 1.74603 -0.488226 0
M  V30 5202 C 478.482 0.130288 -3.60365 0
M  V30 5203 O 477.586 1.19166 -3.94808 0
M  V30 5204 H 476.927 -0.0536334 -0.66183 0
M  V30 5205 H 479.457 -0.779495 -1.89169 0
M  V30 5206 H 479.467 0.342881 -4.06557 0
M  V30 5207 H 478.142 -0.809389 -4.07948 0
M  V30 5208 H 476.719 0.959153 -3.60354 0
M  V30 5209 N 478.904 1.54736 -0.299062 0
M  V30 5210 C 479.836 2.20891 0.61153 0
M  V30 5211 C 480.849 1.20104 1.09904 0
M  V30 5212 O 482.038 1.46707 1.01683 0
M  V30 5213 C 479.138 2.84018 1.84897 0
M  V30 5214 C 478.311 4.10719 1.50428 0
M  V30 5215 C 477.37 4.57667 2.59667 0
M  V30 5216 O 476.396 5.2291 2.24842 0
M  V30 5217 N 477.598 4.29821 3.90172 0
M  V30 5218 H 480.363 2.99666 0.0452001 0
M  V30 5219 H 477.924 1.61446 -0.121178 0
M  V30 5220 H 479.916 3.1236 2.5732 0
M  V30 5221 H 478.486 2.09095 2.32375 0
M  V30 5222 H 477.706 3.89408 0.612781 0
M  V30 5223 H 478.994 4.93223 1.24934 0
M  V30 5224 H 478.392 3.77549 4.21276 0
M  V30 5225 H 476.949 4.62877 4.58899 0
M  V30 5226 N 480.382 0.0267497 1.57577 0
M  V30 5227 C 481.332 -0.965003 2.06571 0
M  V30 5228 C 482.316 -1.28694 0.965746 0
M  V30 5229 O 483.508 -1.27345 1.22932 0
M  V30 5230 C 480.637 -2.24821 2.59443 0
M  V30 5231 C 479.723 -1.95474 3.76365 0
M  V30 5232 N 480.114 -1.36387 4.87065 0
M  V30 5233 C 478.412 -2.25478 3.84806 0
M  V30 5234 C 479.113 -1.24119 5.68304 0
M  V30 5235 N 478.089 -1.7359 5.15138 0
M  V30 5236 H 481.891 -0.503095 2.89562 0
M  V30 5237 H 479.405 -0.178322 1.61418 0
M  V30 5238 H 481.402 -2.9674 2.92833 0
M  V30 5239 H 480.062 -2.7164 1.77881 0
M  V30 5240 H 481.073 -1.03919 5.07367 0
M  V30 5241 H 477.75 -2.74987 3.14147 0
M  V30 5242 H 479.14 -0.784504 6.67304 0
M  V30 5243 N 481.861 -1.55662 -0.24637 0
M  V30 5244 C 483.272 -1.67953 -0.81539 0
M  V30 5245 C 483.623 -0.624302 -1.86002 0
M  V30 5246 O 482.748 0.229328 -2.15181 0
M  V30 5247 C 483.343 -3.04484 -1.48576 0
M  V30 5248 C 481.902 -3.18713 -2.00248 0
M  V30 5249 C 481.049 -2.6383 -0.853766 0
M  V30 5250 H 484 -1.58685 -0.0221692 0
M  V30 5251 H 484.021 -2.98959 -2.3538 0
M  V30 5252 H 483.533 -3.81264 -0.725222 0
M  V30 5253 H 481.634 -2.46757 -2.79181 0
M  V30 5254 H 481.747 -4.25628 -2.1995 0
M  V30 5255 H 480.111 -2.21667 -1.25442 0
M  V30 5256 H 480.894 -3.43135 -0.106302 0
M  V30 5257 N 483.339 0.512053 -1.4905 0
M  V30 5258 C 484.586 1.26686 -1.57978 0
M  V30 5259 C 484.914 1.92733 -0.261553 0
M  V30 5260 O 484.169 1.80772 0.749667 0
M  V30 5261 C 484.468 2.36446 -2.68008 0
M  V30 5262 C 484.134 1.87932 -4.09869 0
M  V30 5263 C 482.796 1.74419 -4.48477 0
M  V30 5264 C 485.148 1.5149 -4.98698 0
M  V30 5265 C 482.476 1.22827 -5.73699 0
M  V30 5266 C 484.828 1.01355 -6.24428 0
M  V30 5267 C 483.492 0.864735 -6.61875 0
M  V30 5268 H 482.762 0.463577 -0.578081 0
M  V30 5269 H 485.409 0.569421 -1.82838 0
M  V30 5270 H 483.714 3.11933 -2.37076 0
M  V30 5271 H 485.411 2.9453 -2.72127 0
M  V30 5272 H 482.001 1.99405 -3.79389 0
M  V30 5273 H 486.185 1.60782 -4.69535 0
M  V30 5274 H 481.441 1.10008 -6.01422 0
M  V30 5275 H 485.615 0.722351 -6.92644 0
M  V30 5276 H 483.242 0.462777 -7.5879 0
M  V30 5277 N 484.817 1.37938 0.762283 0
M  V30 5278 C 486.233 1.18945 1.06415 0
M  V30 5279 C 486.433 0.0321163 2.01474 0
M  V30 5280 O 485.489 -0.624844 2.44647 0
M  V30 5281 C 486.802 2.51218 1.65258 0
M  V30 5282 C 488.35 2.57824 1.7747 0
M  V30 5283 C 488.825 3.90251 2.39725 0
M  V30 5284 N 490.316 3.91744 2.47166 0
M  V30 5285 C 491.051 4.90966 2.96209 0
M  V30 5286 N 490.547 6.00585 3.45354 0
M  V30 5287 N 492.34 4.78363 2.9517 0
M  V30 5288 H 484.491 2.11994 0.131301 0
M  V30 5289 H 486.754 0.940262 0.120879 0
M  V30 5290 H 486.46 3.36317 1.02878 0
M  V30 5291 H 486.334 2.68989 2.64433 0
M  V30 5292 H 488.721 1.73126 2.3898 0
M  V30 5293 H 488.802 2.43928 0.770241 0
M  V30 5294 H 488.446 4.75368 1.78852 0
M  V30 5295 H 488.376 4.01454 3.40796 0
M  V30 5296 H 490.867 3.12563 2.12397 0
M  V30 5297 H 491.18 6.72236 3.81207 0
M  V30 5298 H 489.525 6.04217 3.43434 0
M  V30 5299 H 492.716 3.91841 2.56082 0
M  V30 5300 H 492.889 5.55843 3.33081 0
M  V30 5301 N 486.295 -0.989507 1.22664 0
M  V30 5302 C 487.544 -1.72375 1.04737 0
M  V30 5303 C 487.857 -1.91096 -0.417316 0
M  V30 5304 O 489.063 -2.6188 -0.716334 0
M  V30 5305 C 487.519 -3.10161 1.82561 0
M  V30 5306 C 487.127 -2.99358 3.333 0
M  V30 5307 C 488.871 -3.87607 1.73093 0
M  V30 5308 C 486.778 -4.32319 4.03552 0
M  V30 5309 H 485.708 -0.646326 0.388302 0
M  V30 5310 H 488.359 -1.10437 1.46546 0
M  V30 5311 H 486.741 -3.728 1.33552 0
M  V30 5312 H 487.915 -2.45863 3.89728 0
M  V30 5313 H 486.23 -2.35392 3.43481 0
M  V30 5314 H 488.827 -4.86025 2.22899 0
M  V30 5315 H 489.17 -4.10509 0.691976 0
M  V30 5316 H 489.703 -3.31652 2.19663 0
M  V30 5317 H 486.442 -4.14616 5.07714 0
M  V30 5318 H 485.962 -4.85714 3.51911 0
M  V30 5319 H 487.641 -5.01051 4.09337 0
M  V30 5320 N 487.773 -1.03688 -1.18687 0
M  V30 5321 C 488.683 -0.634908 -2.25845 0
M  V30 5322 C 489.699 0.337065 -1.70704 0
M  V30 5323 O 490.875 0.192943 -2.00474 0
M  V30 5324 C 487.94 -0.000180054 -3.467 0
M  V30 5325 C 487.001 -1.02067 -4.1699 0
M  V30 5326 C 486.234 -0.41614 -5.32075 0
M  V30 5327 O 486.457 0.778712 -5.65059 0
M  V30 5328 O 485.391 -1.14296 -5.90948 0
M  V30 5329 H 489.217 -1.52757 -2.62486 0
M  V30 5330 H 486.802 -0.807533 -1.25695 0
M  V30 5331 H 488.684 0.353342 -4.19916 0
M  V30 5332 H 487.359 0.866367 -3.11891 0
M  V30 5333 H 486.266 -1.42592 -3.45859 0
M  V30 5334 H 487.599 -1.85786 -4.5579 0
M  V30 5335 N 489.251 1.34841 -0.815825 0
M  V30 5336 C 490.528 1.92908 -0.323416 0
M  V30 5337 C 490.908 1.74479 1.18828 0
M  V30 5338 O 490.256 1.11928 1.99209 0
M  V30 5339 C 490.466 3.40957 -0.744952 0
M  V30 5340 C 491.814 4.18107 -0.739716 0
M  V30 5341 O 492.838 3.49511 -0.68708 0
M  V30 5342 O 491.697 5.40517 -0.806456 0
M  V30 5343 H 488.791 0.822436 -0.0867646 0
M  V30 5344 H 491.337 1.4386 -0.90014 0
M  V30 5345 H 490.109 3.4814 -1.78646 0
M  V30 5346 H 489.732 3.97341 -0.143535 0
M  V30 5347 N 490.729 0.570148 1.46925 0
M  V30 5348 C 491.639 -0.173061 2.33961 0
M  V30 5349 C 492.655 -0.898825 1.48987 0
M  V30 5350 O 493.831 -0.864825 1.81887 0
M  V30 5351 C 490.896 -1.18177 3.25937 0
M  V30 5352 C 489.957 -0.462041 4.26806 0
M  V30 5353 C 489.19 -1.4227 5.14388 0
M  V30 5354 O 489.413 -2.65842 5.04662 0
M  V30 5355 O 488.347 -0.940127 5.94513 0
M  V30 5356 H 492.173 0.541216 2.98839 0
M  V30 5357 H 489.758 0.330647 1.45695 0
M  V30 5358 H 491.64 -1.76372 3.82715 0
M  V30 5359 H 490.315 -1.87774 2.63671 0
M  V30 5360 H 489.222 0.161429 3.73752 0
M  V30 5361 H 490.555 0.192719 4.91823 0
M  V30 5362 N 492.207 -1.54576 0.307264 0
M  V30 5363 C 493.456 -1.99442 -0.300976 0
M  V30 5364 C 493.769 -1.19928 -1.5452 0
M  V30 5365 O 494.975 -1.55092 -2.22842 0
M  V30 5366 C 493.431 -3.55084 -0.586809 0
M  V30 5367 C 493.039 -4.43413 0.639438 0
M  V30 5368 C 494.783 -4.0846 -1.1559 0
M  V30 5369 C 492.69 -5.90499 0.326411 0
M  V30 5370 H 491.62 -0.744986 -0.116238 0
M  V30 5371 H 494.271 -1.787 0.416947 0
M  V30 5372 H 492.653 -3.71749 -1.36449 0
M  V30 5373 H 493.827 -4.38522 1.41545 0
M  V30 5374 H 492.142 -4.00842 1.1276 0
M  V30 5375 H 494.739 -5.15926 -1.40445 0
M  V30 5376 H 495.082 -3.59443 -2.10015 0
M  V30 5377 H 495.615 -3.95362 -0.439778 0
M  V30 5378 H 492.354 -6.43676 1.23939 0
M  V30 5379 H 491.874 -5.98382 -0.412212 0
M  V30 5380 H 493.553 -6.46962 -0.0697393 0
M  V30 5381 N 493.685 -0.035106 -1.57561 0
M  V30 5382 C 494.962 0.681212 -1.83354 0
M  V30 5383 C 495.342 1.89986 -0.920252 0
M  V30 5384 O 494.69 2.28489 0.0226815 0
M  V30 5385 C 494.9 1.05376 -3.32712 0
M  V30 5386 C 496.248 1.44286 -3.99333 0
M  V30 5387 O 497.272 1.14656 -3.37242 0
M  V30 5388 O 496.131 1.99518 -5.08778 0
M  V30 5389 H 493.225 0.334741 -0.756226 0
M  V30 5390 H 495.771 -0.0632448 -1.69582 0
M  V30 5391 H 494.543 0.186668 -3.90854 0
M  V30 5392 H 494.166 1.85619 -3.51613 0
M  V30 5393 N 495.163 1.55791 0.238111 0
M  V30 5394 C 496.44 1.68798 0.98826 0
M  V30 5395 C 496.82 0.577562 2.03045 0
M  V30 5396 O 496.168 -0.41778 2.24648 0
M  V30 5397 C 496.378 3.09454 1.61367 0
M  V30 5398 C 497.726 3.68335 2.11221 0
M  V30 5399 O 498.75 3.1231 1.71292 0
M  V30 5400 O 497.609 4.6657 2.84561 0
M  V30 5401 H 494.703 0.686881 0.460568 0
M  V30 5402 H 497.249 1.68118 0.231202 0
M  V30 5403 H 496.021 3.81726 0.860295 0
M  V30 5404 H 495.644 3.14182 2.4367 0
M  V30 5405 N 496.642 -0.504142 1.49319 0
M  V30 5406 C 497.891 -1.25507 1.57895 0
M  V30 5407 C 498.204 -1.93735 0.269433 0
M  V30 5408 O 499.41 -2.70492 0.233706 0
M  V30 5409 C 497.866 -2.27869 2.78574 0
M  V30 5410 C 497.474 -1.65594 4.16272 0
M  V30 5411 C 499.218 -3.0381 2.96479 0
M  V30 5412 C 497.125 -2.66048 5.28178 0
M  V30 5413 H 496.055 -0.47212 0.587894 0
M  V30 5414 H 498.706 -0.52931 1.757 0
M  V30 5415 H 497.088 -3.03594 2.54257 0
M  V30 5416 H 498.262 -0.958826 4.50714 0
M  V30 5417 H 496.577 -1.02055 4.037 0
M  V30 5418 H 499.174 -3.78925 3.77253 0
M  V30 5419 H 499.517 -3.61235 2.06918 0
M  V30 5420 H 500.05 -2.352 3.20821 0
M  V30 5421 H 496.789 -2.13408 6.19788 0
M  V30 5422 H 496.309 -3.34009 4.98195 0
M  V30 5423 H 497.988 -3.28536 5.57381 0
M  V30 5424 N 498.12 -1.38341 -0.754957 0
M  V30 5425 C 499.366 -1.34672 -1.51628 0
M  V30 5426 C 499.699 0.0636036 -1.94096 0
M  V30 5427 O 498.974 1.0245 -1.6533 0
M  V30 5428 C 499.257 -2.30116 -2.76981 0
M  V30 5429 C 499.11 -3.80003 -2.4066 0
M  V30 5430 C 500.429 -2.23715 -3.78998 0
M  V30 5431 H 497.548 -0.490517 -0.550056 0
M  V30 5432 H 500.19 -1.69178 -0.864807 0
M  V30 5433 H 498.34 -2.00821 -3.3257 0
M  V30 5434 H 500.012 -4.19966 -1.90856 0
M  V30 5435 H 498.255 -3.97751 -1.73137 0
M  V30 5436 H 498.926 -4.42244 -3.30339 0
M  V30 5437 H 501.402 -2.49574 -3.32945 0
M  V30 5438 H 500.278 -2.9261 -4.64403 0
M  V30 5439 H 500.539 -1.23554 -4.24484 0
M  V30 5440 N 499.598 0.982988 -1.23187 0
M  V30 5441 C 500.528 2.09301 -1.03515 0
M  V30 5442 C 501.509 1.70035 0.0471136 0
M  V30 5443 O 502.694 1.93847 -0.117029 0
M  V30 5444 C 499.824 3.4167 -0.622791 0
M  V30 5445 C 498.778 3.94828 -1.65211 0
M  V30 5446 C 498.104 5.23362 -1.09527 0
M  V30 5447 C 499.404 4.2439 -3.04451 0
M  V30 5448 H 501.098 2.26016 -1.96359 0
M  V30 5449 H 498.644 1.08611 -0.945501 0
M  V30 5450 H 500.597 4.18746 -0.472233 0
M  V30 5451 H 499.321 3.24811 0.341329 0
M  V30 5452 H 497.98 3.19895 -1.79061 0
M  V30 5453 H 497.628 5.02852 -0.122211 0
M  V30 5454 H 497.328 5.59895 -1.783 0
M  V30 5455 H 498.852 6.03062 -0.956511 0
M  V30 5456 H 500.266 4.92225 -2.93917 0
M  V30 5457 H 498.663 4.72118 -3.70438 0
M  V30 5458 H 499.733 3.31765 -3.53638 0
M  V30 5459 N 501.076 1.04316 1.18135 0
M  V30 5460 C 502.009 0.580823 2.20685 0
M  V30 5461 C 502.987 -0.385943 1.57953 0
M  V30 5462 O 504.171 -0.299654 1.86103 0
M  V30 5463 C 501.298 -0.151162 3.38363 0
M  V30 5464 C 500.344 0.769247 4.19505 0
M  V30 5465 S 501.177 2.25352 4.85774 0
M  V30 5466 C 502.333 1.53246 6.0685 0
M  V30 5467 H 502.566 1.44968 2.5956 0
M  V30 5468 H 500.099 0.85434 1.28609 0
M  V30 5469 H 502.057 -0.567315 4.06561 0
M  V30 5470 H 500.718 -0.995936 2.97892 0
M  V30 5471 H 499.911 0.203335 5.0359 0
M  V30 5472 H 499.513 1.12436 3.56699 0
M  V30 5473 H 501.805 0.82689 6.72435 0
M  V30 5474 H 502.748 2.35044 6.67952 0
M  V30 5475 H 503.156 1.0237 5.5514 0
M  V30 5476 N 502.554 -1.34406 0.822964 0
M  V30 5477 C 503.517 -2.2783 0.250271 0
M  V30 5478 C 504.517 -1.50288 -0.571854 0
M  V30 5479 O 505.707 -1.69825 -0.387952 0
M  V30 5480 C 502.839 -3.34663 -0.649137 0
M  V30 5481 H 504.032 -2.79992 1.07444 0
M  V30 5482 H 501.585 -1.44539 0.594829 0
M  V30 5483 H 502.32 -2.87714 -1.49637 0
M  V30 5484 H 502.105 -3.92052 -0.0611199 0
M  V30 5485 H 503.595 -4.04349 -1.04363 0
M  V30 5486 N 504.032 -0.577932 -1.46621 0
M  V30 5487 C 504.995 0.147805 -2.28723 0
M  V30 5488 C 505.995 0.823325 -1.38123 0
M  V30 5489 O 507.185 0.676011 -1.60548 0
M  V30 5490 C 504.317 1.21853 -3.18378 0
M  V30 5491 H 505.51 -0.573654 -2.94362 0
M  V30 5492 H 503.063 -0.335703 -1.52652 0
M  V30 5493 H 503.798 1.97173 -2.57475 0
M  V30 5494 H 503.583 0.738714 -3.85078 0
M  V30 5495 H 505.073 1.72768 -3.80186 0
M  V30 5496 N 505.51 1.54411 -0.315457 0
M  V30 5497 C 506.458 2.25514 0.569771 0
M  V30 5498 C 507.452 1.2663 1.12522 0
M  V30 5499 O 508.658 1.44434 1.07419 0
M  V30 5500 H 505.033 0.724257 0.202376 0
M  V30 5501 H 507.004 2.98354 -0.0522895 0
M  V30 5502 C 505.753 3.02004 1.72305 0
M  V30 5503 H 505.076 3.77906 1.30488 0
M  V30 5504 H 506.516 3.55014 2.31821 0
M  V30 5505 C 504.975 2.09822 2.63583 0
M  V30 5506 O 505.505 1.67574 3.65078 0
M  V30 5507 N 503.711 1.75478 2.31637 0
M  V30 5508 H 503.258 2.10032 1.49145 0
M  V30 5509 H 503.216 1.14079 2.92973 0
M  V30 5510 N 506.988 0.0434614 1.5754 0
M  V30 5511 C 507.92 -0.962586 2.08007 0
M  V30 5512 C 508.933 -1.27972 1.00634 0
M  V30 5513 O 510.122 -1.24186 1.28219 0
M  V30 5514 C 507.222 -2.28621 2.50171 0
M  V30 5515 C 506.395 -2.15214 3.80791 0
M  V30 5516 C 505.454 -3.30633 4.09351 0
M  V30 5517 O 504.48 -3.0688 4.79388 0
M  V30 5518 N 505.682 -4.54873 3.60654 0
M  V30 5519 H 508.447 -0.531891 2.94942 0
M  V30 5520 H 506.008 -0.142965 1.61268 0
M  V30 5521 H 508 -3.04689 2.66359 0
M  V30 5522 H 506.57 -2.63283 1.68525 0
M  V30 5523 H 505.79 -1.23785 3.74261 0
M  V30 5524 H 507.078 -2.03475 4.66343 0
M  V30 5525 H 506.476 -4.77063 3.04019 0
M  V30 5526 H 505.033 -5.2806 3.82094 0
M  V30 5527 N 508.466 -1.55915 -0.229846 0
M  V30 5528 C 509.691 -1.8296 -0.976743 0
M  V30 5529 C 510.116 -0.622735 -1.77493 0
M  V30 5530 O 509.474 0.428431 -1.76165 0
M  V30 5531 C 509.522 -3.07916 -1.8767 0
M  V30 5532 O 508.626 -2.86028 -2.97088 0
M  V30 5533 H 507.967 -0.603453 -0.277021 0
M  V30 5534 H 510.497 -2.0312 -0.245669 0
M  V30 5535 H 510.507 -3.37802 -2.2881 0
M  V30 5536 H 509.182 -3.95389 -1.28996 0
M  V30 5537 H 507.759 -2.67355 -2.59954 0
M  V30 5538 N 509.944 0.496216 -1.49584 0
M  V30 5539 C 510.876 1.61404 -1.62731 0
M  V30 5540 C 511.889 1.54613 -0.50978 0
M  V30 5541 O 513.078 1.60458 -0.782017 0
M  V30 5542 C 510.178 3.00212 -1.57245 0
M  V30 5543 C 509.351 3.32138 -2.84611 0
M  V30 5544 C 508.41 4.5038 -2.72112 0
M  V30 5545 O 507.436 4.51926 -3.46051 0
M  V30 5546 N 508.638 5.50575 -1.83977 0
M  V30 5547 H 511.403 1.50552 -2.59141 0
M  V30 5548 H 508.964 0.684182 -1.46733 0
M  V30 5549 H 510.956 3.77241 -1.4653 0
M  V30 5550 H 509.526 3.04964 -0.686729 0
M  V30 5551 H 508.746 2.4396 -3.09641 0
M  V30 5552 H 510.034 3.50268 -3.69039 0
M  V30 5553 H 509.432 5.52128 -1.23171 0
M  V30 5554 H 507.989 6.26687 -1.79182 0
M  V30 5555 N 511.423 1.38739 0.74761 0
M  V30 5556 C 512.353 1.39173 1.87492 0
M  V30 5557 C 513.334 0.256794 1.6815 0
M  V30 5558 O 514.519 0.460762 1.88655 0
M  V30 5559 C 511.649 1.22197 3.25093 0
M  V30 5560 C 510.603 2.32957 3.59047 0
M  V30 5561 C 509.929 2.01082 4.95449 0
M  V30 5562 C 511.229 3.75237 3.6331 0
M  V30 5563 H 512.923 2.3351 1.87386 0
M  V30 5564 H 510.469 1.12399 0.900134 0
M  V30 5565 H 512.422 1.21124 4.03617 0
M  V30 5566 H 511.146 0.243241 3.25693 0
M  V30 5567 H 509.805 2.33226 2.82845 0
M  V30 5568 H 509.453 1.01678 4.92616 0
M  V30 5569 H 509.153 2.75267 5.19136 0
M  V30 5570 H 510.677 2.01638 5.76346 0
M  V30 5571 H 512.091 3.76966 4.31937 0
M  V30 5572 H 510.488 4.48677 3.98509 0
M  V30 5573 H 511.558 4.07122 2.634 0
M  V30 5574 N 512.901 -0.976442 1.23707 0
M  V30 5575 C 514.126 -1.75875 1.09922 0
M  V30 5576 C 514.551 -1.84911 -0.34489 0
M  V30 5577 O 513.909 -1.31363 -1.24954 0
M  V30 5578 C 513.957 -3.16179 1.73388 0
M  V30 5579 O 513.061 -4.00124 0.99871 0
M  V30 5580 H 512.402 -0.540954 0.385052 0
M  V30 5581 H 514.932 -1.22546 1.6384 0
M  V30 5582 H 514.942 -3.66741 1.78788 0
M  V30 5583 H 513.617 -3.08917 2.78466 0
M  V30 5584 H 512.194 -3.58624 1.02193 0
M  V30 5585 N 514.379 -1.04941 -1.1758 0
M  V30 5586 C 515.327 -0.64204 -2.23563 0
M  V30 5587 C 516.321 0.335453 -1.66045 0
M  V30 5588 O 517.527 0.20179 -1.78865 0
M  V30 5589 H 513.902 -0.18944 -0.727748 0
M  V30 5590 H 515.873 -1.54609 -2.55223 0
M  V30 5591 C 514.622 -0.0301051 -3.47687 0
M  V30 5592 H 513.945 -0.773339 -3.92249 0
M  V30 5593 H 515.385 0.217592 -4.23441 0
M  V30 5594 C 513.844 1.2225 -3.13937 0
M  V30 5595 O 514.374 2.3122 -3.28482 0
M  V30 5596 N 512.58 1.11917 -2.68185 0
M  V30 5597 H 512.127 0.232403 -2.5655 0
M  V30 5598 H 512.085 1.95814 -2.45976 0
M  V30 5599 N 515.857 1.33968 -0.830081 0
M  V30 5600 C 517.103 1.98773 -0.431394 0
M  V30 5601 C 517.458 1.64598 0.99626 0
M  V30 5602 O 516.751 0.911022 1.68555 0
M  V30 5603 C 516.945 3.52679 -0.57898 0
M  V30 5604 C 516.774 4.01807 -2.01943 0
M  V30 5605 C 515.544 4.30062 -2.65282 0
M  V30 5606 C 517.742 4.18663 -2.98707 0
M  V30 5607 N 515.724 4.65272 -4.00493 0
M  V30 5608 C 517.095 4.57133 -4.18843 0
M  V30 5609 C 519.15 4.00929 -2.95229 0
M  V30 5610 C 517.853 4.79723 -5.35965 0
M  V30 5611 C 519.879 4.2469 -4.11573 0
M  V30 5612 C 519.241 4.63454 -5.30462 0
M  V30 5613 H 515.34 0.75435 -0.206107 0
M  V30 5614 H 517.924 1.62247 -1.07629 0
M  V30 5615 H 516.095 3.88383 0.0360632 0
M  V30 5616 H 517.827 4.04412 -0.152596 0
M  V30 5617 H 514.582 4.21231 -2.16475 0
M  V30 5618 H 515.006 4.87101 -4.70172 0
M  V30 5619 H 519.648 3.70082 -2.04448 0
M  V30 5620 H 517.366 5.09434 -6.27297 0
M  V30 5621 H 520.952 4.12497 -4.10289 0
M  V30 5622 H 519.832 4.81476 -6.18992 0
M  V30 5623 N 517.335 0.585699 1.46312 0
M  V30 5624 C 518.612 0.00542031 1.95599 0
M  V30 5625 C 518.992 -1.45619 1.52834 0
M  V30 5626 O 518.34 -2.14759 0.780446 0
M  V30 5627 C 518.55 0.180601 3.48532 0
M  V30 5628 C 519.898 0.049979 4.24571 0
M  V30 5629 O 520.922 0.109589 3.56031 0
M  V30 5630 O 519.781 -0.0832226 5.46437 0
M  V30 5631 H 516.875 -0.0481281 0.825598 0
M  V30 5632 H 519.421 0.654227 1.56582 0
M  V30 5633 H 518.193 1.19657 3.72556 0
M  V30 5634 H 517.816 -0.504498 3.94386 0
M  V30 5635 N 518.813 -1.54241 0.323641 0
M  V30 5636 C 520.041 -2.04985 -0.280871 0
M  V30 5637 C 520.456 -1.19978 -1.45777 0
M  V30 5638 O 519.813 -0.230471 -1.81039 0
M  V30 5639 C 519.864 -3.54353 -0.715258 0
M  V30 5640 O 519.585 -4.36132 0.414817 0
M  V30 5641 C 521.086 -4.21189 -1.38257 0
M  V30 5642 H 518.306 -0.66851 -0.0577502 0
M  V30 5643 H 520.85 -1.99029 0.469852 0
M  V30 5644 H 519.005 -3.60596 -1.41596 0
M  V30 5645 H 519.419 -5.2445 0.0725227 0
M  V30 5646 H 520.893 -5.27154 -1.63745 0
M  V30 5647 H 521.37 -3.72307 -2.32989 0
M  V30 5648 H 521.976 -4.19085 -0.724447 0
M  V30 5649 N 520.291 -0.0518155 -1.57515 0
M  V30 5650 C 521.531 0.625712 -1.94587 0
M  V30 5651 C 521.895 1.6797 -0.930053 0
M  V30 5652 O 523.096 2.41135 -1.18774 0
M  V30 5653 C 521.367 1.20574 -3.36447 0
M  V30 5654 S 522.926 1.90118 -3.95475 0
M  V30 5655 H 519.744 0.205434 -0.680675 0
M  V30 5656 H 522.346 -0.120906 -1.95126 0
M  V30 5657 H 521.05 0.426521 -4.08178 0
M  V30 5658 H 520.581 1.98916 -3.39405 0
M  V30 5659 H 522.596 3.18184 -3.80753 0
M  V30 5660 N 521.769 1.56035 0.221574 0
M  V30 5661 C 522.994 1.83476 0.967026 0
M  V30 5662 C 523.419 0.632139 1.7716 0
M  V30 5663 O 522.777 -0.419082 1.7639 0
M  V30 5664 C 522.825 3.08907 1.86034 0
M  V30 5665 O 521.929 2.876 2.95567 0
M  V30 5666 H 521.27 0.604913 0.273817 0
M  V30 5667 H 523.8 2.03247 0.234893 0
M  V30 5668 H 523.81 3.3901 2.27016 0
M  V30 5669 H 522.485 3.96068 1.26898 0
M  V30 5670 H 521.062 2.6873 2.58532 0
M  V30 5671 N 523.247 -0.488276 1.49845 0
M  V30 5672 C 524.472 -1.26997 1.63971 0
M  V30 5673 C 524.897 -1.85427 0.315994 0
M  V30 5674 O 524.255 -1.66475 -0.718032 0
M  V30 5675 C 524.303 -2.36689 2.72049 0
M  V30 5676 O 523.407 -3.40882 2.32107 0
M  V30 5677 H 522.748 -0.374376 0.548396 0
M  V30 5678 H 525.278 -0.583104 1.96115 0
M  V30 5679 H 525.288 -2.82262 2.94605 0
M  V30 5680 H 523.963 -1.93529 3.68129 0
M  V30 5681 H 522.54 -3.01139 2.19931 0
M  V30 5682 N 524.725 -1.39134 -0.740242 0
M  V30 5683 C 526.141 -1.20623 -1.0451 0
M  V30 5684 C 526.341 -0.0641651 -2.01398 0
M  V30 5685 O 525.397 0.585843 -2.4561 0
M  V30 5686 C 526.71 -2.53815 -1.6124 0
M  V30 5687 C 528.258 -2.60615 -1.73346 0
M  V30 5688 C 528.733 -3.94015 -2.33486 0
M  V30 5689 N 530.224 -3.95627 -2.40902 0
M  V30 5690 C 530.959 -4.95616 -2.88361 0
M  V30 5691 N 530.455 -6.06003 -3.35756 0
M  V30 5692 N 532.248 -4.82998 -2.87523 0
M  V30 5693 H 524.399 -2.12176 -0.0975576 0
M  V30 5694 H 526.662 -0.942066 -0.105904 0
M  V30 5695 H 526.368 -3.37911 -0.975144 0
M  V30 5696 H 526.242 -2.73162 -2.6012 0
M  V30 5697 H 528.629 -1.76906 -2.36195 0
M  V30 5698 H 528.71 -2.45123 -0.731336 0
M  V30 5699 H 528.354 -4.78153 -1.71267 0
M  V30 5700 H 528.284 -4.06825 -3.34366 0
M  V30 5701 H 530.775 -3.15903 -2.07398 0
M  V30 5702 H 531.088 -6.78215 -3.70464 0
M  V30 5703 H 529.433 -6.09604 -3.33778 0
M  V30 5704 H 532.624 -3.95866 -2.49816 0
M  V30 5705 H 532.797 -5.61072 -3.24196 0
M  V30 5706 N 526.204 0.969867 -1.24223 0
M  V30 5707 C 527.434 1.74502 -1.106 0
M  V30 5708 C 527.842 1.86038 0.344483 0
M  V30 5709 O 527.185 1.3465 1.24961 0
M  V30 5710 C 527.247 3.18391 -1.66935 0
M  V30 5711 C 526.911 3.30334 -3.15798 0
M  V30 5712 C 527.908 3.15832 -4.12973 0
M  V30 5713 C 525.593 3.54644 -3.55715 0
M  V30 5714 C 527.587 3.25461 -5.48045 0
M  V30 5715 C 525.274 3.63912 -4.90929 0
M  V30 5716 C 526.272 3.49332 -5.86904 0
M  V30 5717 O 525.96 3.58251 -7.1966 0
M  V30 5718 H 525.692 0.554119 -0.387206 0
M  V30 5719 H 528.246 1.22646 -1.64764 0
M  V30 5720 H 526.476 3.71543 -1.07203 0
M  V30 5721 H 528.165 3.77707 -1.48634 0
M  V30 5722 H 528.931 2.96937 -3.83476 0
M  V30 5723 H 524.81 3.65059 -2.81519 0
M  V30 5724 H 528.354 3.13998 -6.22937 0
M  V30 5725 H 524.251 3.82319 -5.20098 0
M  V30 5726 H 525.019 3.7498 -7.27552 0
M  V30 5727 N 527.682 1.05563 1.17022 0
M  V30 5728 C 529.093 0.793475 1.69 0
M  V30 5729 C 529.444 -0.683882 1.83895 0
M  V30 5730 O 528.569 -1.53116 1.5292 0
M  V30 5731 C 529.164 1.43376 3.06967 0
M  V30 5732 C 527.723 1.21956 3.56095 0
M  V30 5733 C 526.87 1.51494 2.3226 0
M  V30 5734 H 529.821 1.22008 1.01487 0
M  V30 5735 H 529.842 0.845068 3.70997 0
M  V30 5736 H 529.354 2.50899 2.96093 0
M  V30 5737 H 527.455 0.163749 3.7224 0
M  V30 5738 H 527.568 1.92713 4.38633 0
M  V30 5739 H 525.932 0.935175 2.3691 0
M  V30 5740 H 526.715 2.60159 2.23992 0
M  V30 5741 N 529.16 -1.33526 0.837174 0
M  V30 5742 C 530.406 -1.9813 0.432704 0
M  V30 5743 C 530.739 -1.66168 -1.00508 0
M  V30 5744 O 530.014 -0.94069 -1.70239 0
M  V30 5745 C 530.297 -3.54151 0.651834 0
M  V30 5746 C 530.15 -3.95806 2.13676 0
M  V30 5747 C 531.469 -4.39993 0.0968937 0
M  V30 5748 H 528.588 -0.719713 0.15869 0
M  V30 5749 H 531.23 -1.58193 1.05237 0
M  V30 5750 H 529.38 -3.88301 0.124369 0
M  V30 5751 H 531.052 -3.71921 2.72896 0
M  V30 5752 H 529.295 -3.45599 2.62191 0
M  V30 5753 H 529.966 -5.0447 2.24084 0
M  V30 5754 H 532.442 -4.12479 0.547733 0
M  V30 5755 H 531.318 -5.48186 0.279917 0
M  V30 5756 H 531.579 -4.3066 -0.9992 0
M  V30 5757 N 530.638 -0.59345 -1.46 0
M  V30 5758 C 531.863 -0.0872365 -2.07216 0
M  V30 5759 C 532.288 1.2131 -1.43755 0
M  V30 5760 O 531.646 1.73528 -0.525152 0
M  V30 5761 C 531.694 0.0538197 -3.6056 0
M  V30 5762 O 530.798 1.10765 -3.97247 0
M  V30 5763 H 530.139 -0.0676598 -0.660544 0
M  V30 5764 H 532.669 -0.819445 -1.87473 0
M  V30 5765 H 532.679 0.256567 -4.07193 0
M  V30 5766 H 531.354 -0.895739 -4.0614 0
M  V30 5767 H 529.931 0.882501 -3.62307 0
M  V30 5768 N 532.116 1.54067 -0.331816 0
M  V30 5769 C 533.046 2.27569 0.522932 0
M  V30 5770 C 534.027 1.28679 1.11247 0
M  V30 5771 O 535.212 1.57504 1.13605 0
M  V30 5772 C 532.342 3.0397 1.67987 0
M  V30 5773 C 531.296 4.10267 1.21924 0
M  V30 5774 C 530.622 4.74555 2.46377 0
M  V30 5775 C 531.922 5.21268 0.32815 0
M  V30 5776 H 533.616 2.99264 -0.0901977 0
M  V30 5777 H 531.162 1.4393 -0.044821 0
M  V30 5778 H 533.115 3.54123 2.28418 0
M  V30 5779 H 531.839 2.29906 2.31971 0
M  V30 5780 H 530.498 3.61009 0.637809 0
M  V30 5781 H 530.146 3.97098 3.08743 0
M  V30 5782 H 529.846 5.46363 2.16243 0
M  V30 5783 H 531.37 5.27487 3.07555 0
M  V30 5784 H 532.784 5.67128 0.838978 0
M  V30 5785 H 531.181 5.99982 0.119228 0
M  V30 5786 H 532.251 4.80673 -0.638839 0
M  V30 5787 N 533.594 0.0601682 1.57485 0
M  V30 5788 C 534.819 -0.624416 1.97777 0
M  V30 5789 C 535.244 -1.63051 0.937867 0
M  V30 5790 O 534.602 -1.81036 -0.0978845 0
M  V30 5791 C 534.65 -1.27979 3.37126 0
M  V30 5792 O 533.754 -2.39556 3.35688 0
M  V30 5793 H 533.095 -0.161581 0.64404 0
M  V30 5794 H 535.625 0.131237 2.04179 0
M  V30 5795 H 535.635 -1.62937 3.74053 0
M  V30 5796 H 534.31 -0.542501 4.12347 0
M  V30 5797 H 532.887 -2.06478 3.10517 0
M  V30 5798 N 535.072 -1.5615 -0.213296 0
M  V30 5799 C 536.297 -1.83986 -0.957282 0
M  V30 5800 C 536.722 -0.641526 -1.76822 0
M  V30 5801 O 536.08 0.409722 -1.7661 0
M  V30 5802 C 536.128 -3.09889 -1.84393 0
M  V30 5803 O 535.232 -2.89163 -2.94038 0
M  V30 5804 H 534.573 -0.606357 -0.270605 0
M  V30 5805 H 537.103 -2.03369 -0.224111 0
M  V30 5806 H 537.113 -3.40209 -2.25215 0
M  V30 5807 H 535.788 -3.96735 -1.24795 0
M  V30 5808 H 534.365 -2.70097 -2.57103 0
M  V30 5809 N 536.55 0.480323 -1.50102 0
M  V30 5810 C 537.827 1.24159 -1.51142 0
M  V30 5811 C 538.207 2.09605 -0.250818 0
M  V30 5812 O 537.555 2.15274 0.766118 0
M  V30 5813 C 537.765 2.08057 -2.80202 0
M  V30 5814 C 539.113 2.66556 -3.30504 0
M  V30 5815 O 540.137 2.18308 -2.81461 0
M  V30 5816 O 538.996 3.54442 -4.15973 0
M  V30 5817 H 536.09 0.562928 -0.605839 0
M  V30 5818 H 538.636 0.492899 -1.62384 0
M  V30 5819 H 537.408 1.45032 -3.6343 0
M  V30 5820 H 537.031 2.90079 -2.71919 0
M  V30 5821 N 538.028 1.39524 0.732853 0
M  V30 5822 C 538.958 1.41153 1.86005 0
M  V30 5823 C 539.939 0.274614 1.67869 0
M  V30 5824 O 541.124 0.480745 1.88155 0
M  V30 5825 C 538.254 1.25638 3.23778 0
M  V30 5826 C 537.208 2.36752 3.56556 0
M  V30 5827 C 536.534 2.06326 4.93289 0
M  V30 5828 C 537.834 3.79069 3.5931 0
M  V30 5829 H 539.528 2.35484 1.84899 0
M  V30 5830 H 537.074 1.13348 0.888162 0
M  V30 5831 H 539.027 1.25398 4.0231 0
M  V30 5832 H 537.751 0.277772 3.25417 0
M  V30 5833 H 536.41 2.36213 2.80355 0
M  V30 5834 H 536.058 1.06897 4.9151 0
M  V30 5835 H 535.758 2.80757 5.16187 0
M  V30 5836 H 537.282 2.07739 5.74175 0
M  V30 5837 H 538.696 3.81526 4.27914 0
M  V30 5838 H 537.093 4.52878 3.93728 0
M  V30 5839 H 538.163 4.09893 2.59068 0
M  V30 5840 N 539.506 -0.963266 1.24736 0
M  V30 5841 C 540.416 -2.09246 1.06082 0
M  V30 5842 C 541.432 -1.74 0.000363101 0
M  V30 5843 O 542.608 -2.0041 0.199479 0
M  V30 5844 C 539.673 -3.40115 0.672498 0
M  V30 5845 C 538.734 -3.89282 1.80993 0
M  V30 5846 C 537.967 -5.13905 1.44004 0
M  V30 5847 O 538.19 -5.69434 0.331835 0
M  V30 5848 O 537.124 -5.57566 2.26723 0
M  V30 5849 H 540.95 -2.27881 2.00759 0
M  V30 5850 H 538.535 -1.07649 1.03595 0
M  V30 5851 H 540.417 -4.18797 0.467668 0
M  V30 5852 H 539.092 -3.22771 -0.245102 0
M  V30 5853 H 537.999 -3.11642 2.06955 0
M  V30 5854 H 539.332 -4.1111 2.70646 0
M  V30 5855 N 540.985 -1.06182 -1.16461 0
M  V30 5856 C 542.231 -0.788825 -1.87481 0
M  V30 5857 C 542.586 0.677298 -1.80085 0
M  V30 5858 O 541.879 1.48976 -1.20486 0
M  V30 5859 C 542.073 -1.21633 -3.36066 0
M  V30 5860 C 541.902 -2.72247 -3.57927 0
M  V30 5861 C 540.672 -3.39696 -3.74079 0
M  V30 5862 C 542.87 -3.70461 -3.56739 0
M  V30 5863 N 540.852 -4.79072 -3.83879 0
M  V30 5864 C 542.223 -4.95616 -3.72511 0
M  V30 5865 C 544.278 -3.63788 -3.39945 0
M  V30 5866 C 542.981 -6.14895 -3.73225 0
M  V30 5867 C 545.007 -4.82517 -3.41953 0
M  V30 5868 C 544.369 -6.065 -3.58242 0
M  V30 5869 H 540.468 -0.341034 -0.703719 0
M  V30 5870 H 543.052 -1.35575 -1.39741 0
M  V30 5871 H 541.223 -0.67725 -3.8245 0
M  V30 5872 H 542.955 -0.892119 -3.94745 0
M  V30 5873 H 539.71 -2.90097 -3.74354 0
M  V30 5874 H 540.134 -5.51573 -3.92551 0
M  V30 5875 H 544.776 -2.68888 -3.26281 0
M  V30 5876 H 542.494 -7.10129 -3.85672 0
M  V30 5877 H 546.08 -4.79017 -3.30203 0
M  V30 5878 H 544.96 -6.96833 -3.59712 0
M  V30 5879 N 542.463 1.3308 -0.844243 0
M  V30 5880 C 543.879 1.50447 -0.532729 0
M  V30 5881 C 544.079 1.78292 0.938837 0
M  V30 5882 O 543.135 1.84635 1.72239 0
M  V30 5883 C 544.448 2.65555 -1.41072 0
M  V30 5884 C 545.996 2.7944 -1.41005 0
M  V30 5885 C 546.471 3.97616 -2.27301 0
M  V30 5886 N 547.962 4.0486 -2.2504 0
M  V30 5887 C 548.697 4.95508 -2.88547 0
M  V30 5888 N 548.193 5.91236 -3.61126 0
M  V30 5889 N 549.986 4.88548 -2.77989 0
M  V30 5890 H 542.137 1.13269 -1.79677 0
M  V30 5891 H 544.4 0.55734 -0.766861 0
M  V30 5892 H 544.106 2.51675 -2.45668 0
M  V30 5893 H 543.98 3.61089 -1.09061 0
M  V30 5894 H 546.367 2.92749 -0.371784 0
M  V30 5895 H 546.448 1.8465 -1.77026 0
M  V30 5896 H 546.092 3.85066 -3.3119 0
M  V30 5897 H 546.022 4.91661 -1.88619 0
M  V30 5898 H 548.513 3.36353 -1.72264 0
M  V30 5899 H 548.826 6.57079 -4.06776 0
M  V30 5900 H 547.171 5.91295 -3.65234 0
M  V30 5901 H 550.362 4.12729 -2.20846 0
M  V30 5902 H 550.535 5.58994 -3.27765 0
M  V30 5903 N 543.941 0.601185 1.45683 0
M  V30 5904 C 545.352 0.179659 1.85834 0
M  V30 5905 C 545.703 -1.26189 1.50236 0
M  V30 5906 O 544.828 -1.95587 0.925987 0
M  V30 5907 C 545.423 0.319277 3.37292 0
M  V30 5908 C 543.982 -0.0475092 3.7637 0
M  V30 5909 C 543.129 0.646692 2.69654 0
M  V30 5910 H 546.08 0.808268 1.36575 0
M  V30 5911 H 546.101 -0.4503 3.77826 0
M  V30 5912 H 545.613 1.36855 3.6317 0
M  V30 5913 H 543.714 -1.0962 3.5611 0
M  V30 5914 H 543.827 0.34168 4.7788 0
M  V30 5915 H 542.191 0.0849971 2.54558 0
M  V30 5916 H 542.974 1.69797 2.98369 0
M  V30 5917 N 545.419 -1.53889 0.339982 0
M  V30 5918 C 546.696 -1.93084 -0.312719 0
M  V30 5919 C 547.076 -1.2712 -1.68534 0
M  V30 5920 O 546.424 -0.420835 -2.24591 0
M  V30 5921 C 546.634 -3.4683 -0.388558 0
M  V30 5922 C 547.982 -4.19732 -0.641088 0
M  V30 5923 O 549.006 -3.53075 -0.470818 0
M  V30 5924 O 547.865 -5.3781 -0.970685 0
M  V30 5925 H 544.959 -0.806784 -0.18174 0
M  V30 5926 H 547.505 -1.65137 0.390898 0
M  V30 5927 H 546.277 -3.87055 0.574821 0
M  V30 5928 H 545.9 -3.80933 -1.1391 0
M  V30 5929 N 546.897 -0.0685191 -1.57451 0
M  V30 5930 C 548.313 0.288101 -1.56978 0
M  V30 5931 C 548.513 1.70262 -1.07765 0
M  V30 5932 O 547.569 2.4135 -0.742054 0
M  V30 5933 C 548.882 0.100745 -3.00531 0
M  V30 5934 C 550.43 0.170531 -3.12535 0
M  V30 5935 C 550.905 0.0114944 -4.57999 0
M  V30 5936 N 552.396 0.0672065 -4.63151 0
M  V30 5937 C 553.131 -0.0314813 -5.73391 0
M  V30 5938 N 552.627 -0.183503 -6.92557 0
M  V30 5939 N 554.42 0.0253489 -5.62094 0
M  V30 5940 H 546.571 -0.993026 -1.87757 0
M  V30 5941 H 548.834 -0.386981 -0.865419 0
M  V30 5942 H 548.54 -0.875197 -3.40636 0
M  V30 5943 H 548.414 0.854457 -3.67395 0
M  V30 5944 H 550.801 1.13696 -2.72318 0
M  V30 5945 H 550.882 -0.614229 -2.48316 0
M  V30 5946 H 550.526 -0.951684 -4.98904 0
M  V30 5947 H 550.456 0.815617 -5.20245 0
M  V30 5948 H 552.947 0.183246 -3.77455 0
M  V30 5949 H 553.26 -0.251041 -7.72392 0
M  V30 5950 H 551.605 -0.218822 -6.94655 0
M  V30 5951 H 554.796 0.142794 -4.67882 0
M  V30 5952 H 554.969 -0.0550166 -6.47977 0
M  V30 5953 N 548.375 1.56261 0.205012 0
M  V30 5954 C 549.615 1.81823 0.933806 0
M  V30 5955 C 549.979 0.644534 1.80858 0
M  V30 5956 O 551.18 0.779819 2.5724 0
M  V30 5957 C 549.451 3.12362 1.7368 0
M  V30 5958 S 551.01 3.59296 2.51897 0
M  V30 5959 H 547.828 0.638209 0.313386 0
M  V30 5960 H 550.43 1.94495 0.198001 0
M  V30 5961 H 549.134 3.95809 1.08459 0
M  V30 5962 H 548.665 3.02542 2.5146 0
M  V30 5963 H 550.68 3.23945 3.75864 0
M  V30 5964 N 549.853 -0.472356 1.50355 0
M  V30 5965 C 550.785 -1.58795 1.65278 0
M  V30 5966 C 551.798 -1.53782 0.534313 0
M  V30 5967 O 552.987 -1.59193 0.807446 0
M  V30 5968 C 550.087 -2.97672 1.62001 0
M  V30 5969 C 549.26 -3.27568 2.89859 0
M  V30 5970 C 548.319 -4.45993 2.79242 0
M  V30 5971 O 547.345 -4.46364 3.53197 0
M  V30 5972 N 548.547 -5.47578 1.92713 0
M  V30 5973 H 551.312 -1.46411 2.61503 0
M  V30 5974 H 548.873 -0.660751 1.47803 0
M  V30 5975 H 550.865 -3.74862 1.52513 0
M  V30 5976 H 549.435 -3.03832 0.735159 0
M  V30 5977 H 548.655 -2.39003 3.13483 0
M  V30 5978 H 549.943 -3.44352 3.74565 0
M  V30 5979 H 549.341 -5.50099 1.31939 0
M  V30 5980 H 547.898 -6.23757 1.8913 0
M  V30 5981 N 551.331 -1.39911 -0.725443 0
M  V30 5982 C 552.608 -1.28158 -1.47766 0
M  V30 5983 C 552.988 0.104545 -2.10841 0
M  V30 5984 O 552.336 1.11657 -1.99361 0
M  V30 5985 C 552.546 -2.41306 -2.52135 0
M  V30 5986 C 553.894 -2.81076 -3.18247 0
M  V30 5987 O 554.918 -2.40827 -2.62452 0
M  V30 5988 O 553.777 -3.50581 -4.19231 0
M  V30 5989 H 550.871 -0.502761 -0.656628 0
M  V30 5990 H 553.417 -1.51808 -0.758456 0
M  V30 5991 H 552.189 -3.33932 -2.03974 0
M  V30 5992 H 551.812 -2.19374 -3.31603 0
M  V30 5993 N 552.809 0.956637 -1.25245 0
M  V30 5994 C 553.772 2.03457 -1.05537 0
M  V30 5995 C 554.772 1.60798 -0.00886317 0
M  V30 5996 O 555.962 1.72384 -0.250865 0
M  V30 5997 C 553.094 3.35543 -0.601965 0
M  V30 5998 H 554.287 2.22372 -2.01223 0
M  V30 5999 H 551.84 1.13344 -1.07623 0
M  V30 6000 H 552.575 3.22323 0.357584 0
M  V30 6001 H 552.36 3.67854 -1.35743 0
M  V30 6002 H 553.85 4.14769 -0.485454 0
M  V30 6003 N 554.287 1.06798 1.15896 0
M  V30 6004 C 555.512 0.808739 1.90982 0
M  V30 6005 C 555.937 -0.6316 1.77179 0
M  V30 6006 O 555.295 -1.4407 1.10061 0
M  V30 6007 C 555.343 1.21468 3.39526 0
M  V30 6008 O 554.447 0.356562 4.10856 0
M  V30 6009 H 553.788 0.29512 0.594811 0
M  V30 6010 H 556.318 1.42513 1.46804 0
M  V30 6011 H 556.328 1.18844 3.90308 0
M  V30 6012 H 555.003 2.26379 3.48891 0
M  V30 6013 H 553.58 0.444808 3.70238 0
M  V30 6014 N 555.766 -1.3263 0.851289 0
M  V30 6015 C 556.676 -2.32722 0.296268 0
M  V30 6016 C 557.692 -1.63901 -0.584162 0
M  V30 6017 O 558.868 -1.95465 -0.485334 0
M  V30 6018 C 555.933 -3.42942 -0.509103 0
M  V30 6019 C 554.994 -4.2746 0.397069 0
M  V30 6020 C 554.227 -5.32416 -0.36996 0
M  V30 6021 O 554.45 -5.47491 -1.6003 0
M  V30 6022 O 553.384 -6.01327 0.262493 0
M  V30 6023 H 557.21 -2.82078 1.12543 0
M  V30 6024 H 554.795 -1.36194 0.614135 0
M  V30 6025 H 556.677 -4.1017 -0.96634 0
M  V30 6026 H 555.352 -2.95781 -1.31512 0
M  V30 6027 H 554.259 -3.63053 0.902411 0
M  V30 6028 H 555.592 -4.78136 1.16818 0
M  V30 6029 N 557.244 -0.608902 -1.45362 0
M  V30 6030 C 558.49 -0.104762 -2.02529 0
M  V30 6031 C 558.823 1.26191 -1.47613 0
M  V30 6032 O 558.098 1.8327 -0.65134 0
M  V30 6033 C 558.381 -0.0672661 -3.60037 0
M  V30 6034 C 558.234 -1.4647 -4.25284 0
M  V30 6035 C 559.553 0.619877 -4.35713 0
M  V30 6036 H 556.672 -0.0395438 -0.735938 0
M  V30 6037 H 559.314 -0.781126 -1.73201 0
M  V30 6038 H 557.464 0.50871 -3.85155 0
M  V30 6039 H 559.136 -2.08785 -4.11347 0
M  V30 6040 H 557.379 -2.02502 -3.83634 0
M  V30 6041 H 558.05 -1.39069 -5.34195 0
M  V30 6042 H 560.526 0.130297 -4.15896 0
M  V30 6043 H 559.402 0.615224 -5.45441 0
M  V30 6044 H 559.663 1.68621 -4.0868 0
M  V30 6045 N 558.722 1.53707 -0.348139 0
M  V30 6046 C 559.654 2.22725 0.540946 0
M  V30 6047 C 560.667 1.2354 1.06027 0
M  V30 6048 O 561.856 1.49867 0.96964 0
M  V30 6049 C 558.956 2.89756 1.75768 0
M  V30 6050 C 558.129 4.15297 1.37285 0
M  V30 6051 C 557.188 4.65697 2.44976 0
M  V30 6052 O 556.214 5.29798 2.08092 0
M  V30 6053 N 557.416 4.42017 3.763 0
M  V30 6054 H 560.181 2.99658 -0.0501592 0
M  V30 6055 H 557.742 1.60979 -0.17248 0
M  V30 6056 H 559.734 3.20388 2.47252 0
M  V30 6057 H 558.304 2.16382 2.25605 0
M  V30 6058 H 557.524 3.9116 0.488584 0
M  V30 6059 H 558.812 4.96948 1.09179 0
M  V30 6060 H 558.21 3.9076 4.09051 0
M  V30 6061 H 556.767 4.77242 4.4394 0
M  V30 6062 N 560.2 0.0768682 1.57412 0
M  V30 6063 C 561.616 -0.279772 1.57129 0
M  V30 6064 C 561.816 -1.69688 1.08666 0
M  V30 6065 O 560.872 -2.40953 0.754843 0
M  V30 6066 C 562.185 -0.0848055 3.0058 0
M  V30 6067 C 563.733 -0.153954 3.12621 0
M  V30 6068 C 564.208 0.0127946 4.57998 0
M  V30 6069 N 565.699 -0.0426435 4.6318 0
M  V30 6070 C 566.434 0.0618892 5.73367 0
M  V30 6071 N 565.93 0.220229 6.9245 0
M  V30 6072 N 567.723 0.00446072 5.621 0
M  V30 6073 H 559.874 1.00297 1.87228 0
M  V30 6074 H 562.137 0.391565 0.863354 0
M  V30 6075 H 561.843 0.89325 3.40168 0
M  V30 6076 H 561.717 -0.834961 3.67843 0
M  V30 6077 H 564.104 -1.1225 2.72917 0
M  V30 6078 H 564.185 0.627389 2.47987 0
M  V30 6079 H 563.829 0.978128 4.98392 0
M  V30 6080 H 563.759 -0.788016 5.20671 0
M  V30 6081 H 566.25 -0.163226 3.77547 0
M  V30 6082 H 566.563 0.291999 7.72248 0
M  V30 6083 H 564.908 0.255658 6.9453 0
M  V30 6084 H 568.099 -0.117979 4.67951 0
M  V30 6085 H 568.272 0.0893796 6.47938 0
M  V30 6086 N 561.678 -1.56367 -0.196722 0
M  V30 6087 C 562.955 -1.71359 -0.943159 0
M  V30 6088 C 563.335 -0.631192 -2.01443 0
M  V30 6089 O 562.683 0.358071 -2.25677 0
M  V30 6090 C 562.893 -3.13623 -1.53106 0
M  V30 6091 C 564.241 -3.73806 -2.01381 0
M  V30 6092 O 565.265 -3.16742 -1.62951 0
M  V30 6093 O 564.124 -4.73951 -2.7209 0
M  V30 6094 H 561.218 -0.698851 -0.442195 0
M  V30 6095 H 563.764 -1.68672 -0.186547 0
M  V30 6096 H 562.536 -3.83873 -0.758785 0
M  V30 6097 H 562.159 -3.20532 -2.35255 0
M  V30 6098 N 563.156 0.464375 -1.50603 0
M  V30 6099 C 564.567 1.04507 -1.5471 0
M  V30 6100 C 564.918 1.9297 -0.354542 0
M  V30 6101 O 564.043 2.09763 0.531812 0
M  V30 6102 C 564.638 1.90207 -2.80369 0
M  V30 6103 C 563.197 2.43373 -2.87135 0
M  V30 6104 C 562.344 1.21886 -2.49076 0
M  V30 6105 H 565.295 0.246716 -1.56771 0
M  V30 6106 H 565.316 2.75353 -2.62604 0
M  V30 6107 H 564.828 1.25796 -3.67147 0
M  V30 6108 H 562.929 3.11318 -2.04724 0
M  V30 6109 H 563.042 2.7802 -3.90181 0
M  V30 6110 H 561.406 1.55575 -2.01664 0
M  V30 6111 H 562.189 0.591268 -3.3817 0
M  V30 6112 N 564.634 1.40294 0.718013 0
M  V30 6113 C 566.05 1.2227 1.02577 0
M  V30 6114 C 566.25 0.0961976 2.0127 0
M  V30 6115 O 565.306 -0.546695 2.46511 0
M  V30 6116 C 566.619 2.56348 1.57182 0
M  V30 6117 C 568.167 2.6334 1.69178 0
M  V30 6118 C 568.642 3.9768 2.27188 0
M  V30 6119 N 570.133 3.99409 2.34578 0
M  V30 6120 C 570.868 5.00141 2.8044 0
M  V30 6121 N 570.364 6.11268 3.26073 0
M  V30 6122 N 572.157 4.87511 2.79802 0
M  V30 6123 H 564.308 2.12304 0.0637899 0
M  V30 6124 H 566.571 0.943632 0.0909036 0
M  V30 6125 H 566.277 3.3942 0.921262 0
M  V30 6126 H 566.151 2.77266 2.55741 0
M  V30 6127 H 568.538 1.80641 2.33351 0
M  V30 6128 H 568.619 2.46255 0.692247 0
M  V30 6129 H 568.263 4.80817 1.63638 0
M  V30 6130 H 568.193 4.12093 3.27852 0
M  V30 6131 H 570.684 3.19162 2.02346 0
M  V30 6132 H 570.997 6.84023 3.59628 0
M  V30 6133 H 569.342 6.14837 3.24038 0
M  V30 6134 H 572.533 3.9979 2.43487 0
M  V30 6135 H 572.706 5.66158 3.15228 0
M  V30 6136 N 566.112 -0.949982 1.2575 0
M  V30 6137 C 567.075 -2.02894 1.06615 0
M  V30 6138 C 568.075 -1.60791 0.0173905 0
M  V30 6139 O 569.265 -1.72249 0.260003 0
M  V30 6140 C 566.397 -3.35219 0.619751 0
M  V30 6141 H 567.59 -2.21302 2.02399 0
M  V30 6142 H 565.143 -1.12772 1.08223 0
M  V30 6143 H 565.878 -3.22508 -0.340486 0
M  V30 6144 H 565.663 -3.67129 1.37692 0
M  V30 6145 H 567.153 -4.14505 0.507443 0
M  V30 6146 N 567.59 -1.07411 -1.15328 0
M  V30 6147 C 568.838 -0.796073 -1.85761 0
M  V30 6148 C 569.159 0.679864 -1.82764 0
M  V30 6149 O 568.429 1.49242 -1.269 0
M  V30 6150 H 567.009 -0.291495 -0.687779 0
M  V30 6151 H 569.671 -1.35799 -1.39802 0
M  V30 6152 H 568.767 -1.13114 -2.90881 0
M  V30 6153 N 569.068 1.32177 -0.85831 0
M  V30 6154 C 570.293 2.01847 -0.476718 0
M  V30 6155 C 570.718 1.64065 0.920021 0
M  V30 6156 O 570.076 0.843189 1.60499 0
M  V30 6157 C 570.124 3.55097 -0.627578 0
M  V30 6158 O 569.228 4.11012 0.338086 0
M  V30 6159 H 568.569 0.635907 -0.191099 0
M  V30 6160 H 571.099 1.68641 -1.15851 0
M  V30 6161 H 571.109 4.04718 -0.516476 0
M  V30 6162 H 569.784 3.81938 -1.64609 0
M  V30 6163 H 568.361 3.72451 0.182917 0
M  V30 6164 N 570.547 0.616602 1.45037 0
M  V30 6165 C 571.51 -0.0871112 2.29034 0
M  V30 6166 C 572.51 -0.786414 1.40258 0
M  V30 6167 O 573.7 -0.633207 1.62284 0
M  V30 6168 C 570.832 -1.13369 3.21497 0
M  V30 6169 H 572.025 0.651497 2.92738 0
M  V30 6170 H 569.578 0.376058 1.51709 0
M  V30 6171 H 570.313 -1.90277 2.62612 0
M  V30 6172 H 570.098 -0.636358 3.86902 0
M  V30 6173 H 571.588 -1.62627 3.84633 0
M  V30 6174 N 572.025 -1.5352 0.356285 0
M  V30 6175 C 573.436 -1.86282 -0.12492 0
M  V30 6176 C 573.787 -1.27717 -1.48939 0
M  V30 6177 O 572.912 -0.595614 -2.08042 0
M  V30 6178 C 573.507 -3.37995 -0.23345 0
M  V30 6179 C 572.066 -3.70588 -0.658899 0
M  V30 6180 C 571.213 -2.76581 0.199596 0
M  V30 6181 H 574.164 -1.47901 0.575423 0
M  V30 6182 H 574.185 -3.65475 -1.0587 0
M  V30 6183 H 573.697 -3.8059 0.759776 0
M  V30 6184 H 571.798 -3.33544 -1.66069 0
M  V30 6185 H 571.911 -4.77076 -0.439957 0
M  V30 6186 H 570.275 -2.52552 -0.330076 0
M  V30 6187 H 571.058 -3.22008 1.19019 0
M  V30 6188 N 573.503 -0.0852151 -1.57369 0
M  V30 6189 C 574.433 0.874556 -2.16503 0
M  V30 6190 C 575.414 1.30111 -1.09568 0
M  V30 6191 O 576.599 1.36977 -1.37662 0
M  V30 6192 C 573.729 2.13731 -2.73745 0
M  V30 6193 C 572.683 1.84971 -3.85966 0
M  V30 6194 C 572.009 3.17991 -4.29867 0
M  V30 6195 C 573.309 1.14442 -5.09608 0
M  V30 6196 H 575.003 0.381899 -2.96954 0
M  V30 6197 H 572.549 0.18225 -1.42842 0
M  V30 6198 H 574.502 2.81302 -3.13763 0
M  V30 6199 H 573.226 2.65263 -1.90534 0
M  V30 6200 H 571.885 1.19801 -3.46473 0
M  V30 6201 H 571.533 3.6739 -3.4356 0
M  V30 6202 H 571.233 2.99534 -5.05523 0
M  V30 6203 H 572.757 3.86737 -4.72511 0
M  V30 6204 H 574.171 1.72105 -5.46857 0
M  V30 6205 H 572.568 1.06197 -5.90629 0
M  V30 6206 H 573.638 0.12559 -4.84737 0
M  V30 6207 N 574.981 1.5647 0.188427 0
M  V30 6208 C 575.944 1.9421 1.21718 0
M  V30 6209 C 576.944 0.823901 1.38089 0
M  V30 6210 O 578.134 1.09122 1.35787 0
M  V30 6211 C 575.266 2.22197 2.58537 0
M  V30 6212 H 576.459 2.86252 0.894418 0
M  V30 6213 H 574.012 1.50263 0.430211 0
M  V30 6214 H 574.747 1.32814 2.95856 0
M  V30 6215 H 574.532 3.03688 2.48025 0
M  V30 6216 H 576.022 2.52376 3.3271 0
M  V30 6217 N 576.459 -0.456382 1.50847 0
M  V30 6218 C 577.369 -1.57805 1.73594 0
M  V30 6219 C 578.385 -1.62599 0.619476 0
M  V30 6220 O 579.561 -1.80195 0.899532 0
M  V30 6221 C 576.626 -2.93926 1.8387 0
M  V30 6222 C 575.687 -2.99402 3.07663 0
M  V30 6223 C 574.92 -4.29031 3.1744 0
M  V30 6224 O 575.143 -5.20358 2.33631 0
M  V30 6225 O 574.077 -4.40401 4.10281 0
M  V30 6226 H 577.903 -1.41531 2.68705 0
M  V30 6227 H 575.488 -0.637422 1.3512 0
M  V30 6228 H 577.37 -3.74747 1.92725 0
M  V30 6229 H 576.045 -3.10368 0.91944 0
M  V30 6230 H 574.952 -2.17606 3.043 0
M  V30 6231 H 576.285 -2.87901 3.99216 0
M  V30 6232 N 577.937 -1.40673 -0.710563 0
M  V30 6233 C 579.214 -1.29718 -1.46398 0
M  V30 6234 C 579.594 0.082177 -2.1094 0
M  V30 6235 O 578.942 1.09536 -2.00534 0
M  V30 6236 C 579.152 -2.43967 -2.49562 0
M  V30 6237 C 580.5 -2.84436 -3.15248 0
M  V30 6238 O 581.524 -2.43597 -2.59883 0
M  V30 6239 O 580.383 -3.55008 -4.1549 0
M  V30 6240 H 577.477 -0.509697 -0.651258 0
M  V30 6241 H 580.023 -1.52603 -0.742312 0
M  V30 6242 H 578.795 -3.36076 -2.0042 0
M  V30 6243 H 578.418 -2.22879 -3.29258 0
M  V30 6244 N 579.415 0.9433 -1.26252 0
M  V30 6245 C 580.661 1.69175 -1.11837 0
M  V30 6246 C 580.994 1.91238 0.337891 0
M  V30 6247 O 580.269 1.49152 1.24836 0
M  V30 6248 C 580.552 3.06783 -1.88563 0
M  V30 6249 C 580.405 2.9206 -3.42083 0
M  V30 6250 C 581.724 4.06865 -1.67776 0
M  V30 6251 H 578.843 0.61399 -0.407658 0
M  V30 6252 H 581.485 1.09572 -1.55222 0
M  V30 6253 H 579.635 3.57663 -1.51689 0
M  V30 6254 H 581.307 2.48419 -3.88698 0
M  V30 6255 H 579.55 2.27731 -3.69217 0
M  V30 6256 H 580.221 3.89651 -3.90994 0
M  V30 6257 H 582.697 3.64939 -1.99897 0
M  V30 6258 H 581.573 5.01168 -2.23879 0
M  V30 6259 H 581.834 4.37705 -0.621816 0
M  V30 6260 N 580.893 1.08022 1.14757 0
M  V30 6261 C 581.825 0.664566 2.19354 0
M  V30 6262 C 582.838 -0.286374 1.60261 0
M  V30 6263 O 584.027 -0.0746362 1.78344 0
M  V30 6264 C 581.127 -0.0434634 3.38872 0
M  V30 6265 C 580.3 0.925381 4.27499 0
M  V30 6266 C 579.359 0.253398 5.2559 0
M  V30 6267 O 578.385 0.896581 5.62094 0
M  V30 6268 N 579.587 -0.998263 5.71852 0
M  V30 6269 H 582.352 1.56438 2.55631 0
M  V30 6270 H 579.913 0.965788 1.29939 0
M  V30 6271 H 581.905 -0.503857 4.01551 0
M  V30 6272 H 580.475 -0.845321 3.00954 0
M  V30 6273 H 579.695 1.56472 3.61815 0
M  V30 6274 H 580.983 1.58203 4.8358 0
M  V30 6275 H 580.381 -1.54063 5.44317 0
M  V30 6276 H 578.938 -1.40222 6.36538 0
M  V30 6277 N 582.371 -1.3172 0.865308 0
M  V30 6278 C 583.617 -1.97168 0.474633 0
M  V30 6279 C 583.95 -1.68263 -0.969604 0
M  V30 6280 O 583.225 -0.976588 -1.68205 0
M  V30 6281 C 583.508 -3.52689 0.726808 0
M  V30 6282 C 583.361 -3.91185 2.22024 0
M  V30 6283 C 584.68 -4.39689 0.190201 0
M  V30 6284 H 581.799 -0.716185 0.17392 0
M  V30 6285 H 584.441 -1.55925 1.08569 0
M  V30 6286 H 582.591 -3.8795 0.206705 0
M  V30 6287 H 584.263 -3.66049 2.80724 0
M  V30 6288 H 582.506 -3.3996 2.69462 0
M  V30 6289 H 583.177 -4.99604 2.34735 0
M  V30 6290 H 585.653 -4.11225 0.635103 0
M  V30 6291 H 584.529 -5.47469 0.396132 0
M  V30 6292 H 584.79 -4.32683 -0.907625 0
M  V30 6293 N 583.85 -0.624285 -1.44708 0
M  V30 6294 C 585.127 -0.0572781 -1.95516 0
M  V30 6295 C 585.507 1.41516 -1.56641 0
M  V30 6296 O 584.855 2.12614 -0.837111 0
M  V30 6297 C 585.065 -0.272944 -3.47931 0
M  V30 6298 C 586.413 -0.162529 -4.24289 0
M  V30 6299 O 587.437 -0.203946 -3.55616 0
M  V30 6300 O 586.296 -0.0616847 -5.46465 0
M  V30 6301 H 583.389 0.0262219 -0.826584 0
M  V30 6302 H 585.936 -0.695512 -1.54793 0
M  V30 6303 H 584.707 -1.29492 -3.69253 0
M  V30 6304 H 584.331 0.399756 -3.95585 0
M  V30 6305 N 585.328 1.53329 -0.364422 0
M  V30 6306 C 586.739 1.86345 0.115039 0
M  V30 6307 C 587.09 1.28505 1.4826 0
M  V30 6308 O 586.215 0.606639 2.07723 0
M  V30 6309 C 586.81 3.38114 0.215522 0
M  V30 6310 C 585.369 3.70932 0.639237 0
M  V30 6311 C 584.516 2.76471 -0.214261 0
M  V30 6312 H 587.467 1.47593 -0.583258 0
M  V30 6313 H 587.488 3.66031 1.0393 0
M  V30 6314 H 587 3.80182 -0.779948 0
M  V30 6315 H 585.101 3.3442 1.64298 0
M  V30 6316 H 585.214 4.77302 0.41465 0
M  V30 6317 H 583.578 2.52724 0.316678 0
M  V30 6318 H 584.361 3.21373 -1.20725 0
M  V30 6319 N 586.806 0.0935595 1.57322 0
M  V30 6320 C 588.222 -0.263091 1.57417 0
M  V30 6321 C 588.422 -1.68526 1.1046 0
M  V30 6322 O 587.478 -2.40139 0.780357 0
M  V30 6323 C 588.791 -0.0529201 3.00653 0
M  V30 6324 C 590.339 -0.120788 3.12767 0
M  V30 6325 C 590.814 0.0613707 4.57959 0
M  V30 6326 N 592.305 0.00648534 4.632 0
M  V30 6327 C 593.04 0.122699 5.73269 0
M  V30 6328 N 592.536 0.29366 6.92177 0
M  V30 6329 N 594.329 0.0640787 5.62063 0
M  V30 6330 H 586.48 1.02277 1.86154 0
M  V30 6331 H 588.743 0.4007 0.859153 0
M  V30 6332 H 588.449 0.929279 3.39201 0
M  V30 6333 H 588.323 -0.795899 3.68708 0
M  V30 6334 H 590.71 -1.09349 2.74093 0
M  V30 6335 H 590.791 0.653656 2.47307 0
M  V30 6336 H 590.435 1.03093 4.97327 0
M  V30 6337 H 590.365 -0.732748 5.21477 0
M  V30 6338 H 592.856 -0.123173 3.77699 0
M  V30 6339 H 593.169 0.37389 7.71895 0
M  V30 6340 H 591.514 0.329307 6.94219 0
M  V30 6341 H 594.705 -0.0683396 4.6805 0
M  V30 6342 H 594.878 0.158097 6.47807 0
M  V30 6343 N 588.284 -1.56567 -0.180126 0
M  V30 6344 C 589.231 -1.95725 -1.22313 0
M  V30 6345 C 590.201 -0.819911 -1.44453 0
M  V30 6346 O 591.386 -1.07931 -1.57339 0
M  V30 6347 C 588.526 -2.31484 -2.55947 0
M  V30 6348 C 587.639 -3.58354 -2.4126 0
M  V30 6349 C 586.774 -3.83366 -3.67701 0
M  V30 6350 C 585.813 -5.03612 -3.47909 0
M  V30 6351 N 584.95 -5.24802 -4.66398 0
M  V30 6352 H 589.79 -2.84642 -0.882198 0
M  V30 6353 H 587.327 -1.4085 -0.42422 0
M  V30 6354 H 589.285 -2.50237 -3.33822 0
M  V30 6355 H 587.915 -1.45689 -2.88053 0
M  V30 6356 H 586.967 -3.47565 -1.54606 0
M  V30 6357 H 588.279 -4.46386 -2.22577 0
M  V30 6358 H 587.433 -4.02439 -4.54013 0
M  V30 6359 H 586.172 -2.93692 -3.89353 0
M  V30 6360 H 585.177 -4.84447 -2.59983 0
M  V30 6361 H 586.402 -5.94809 -3.27688 0
M  V30 6362 H 584.348 -4.38079 -4.88286 0
M  V30 6363 H 584.265 -6.07041 -4.50596 0
M  V30 6364 H 585.533 -5.48346 -5.54019 0
M  V30 6365 N 589.762 0.448376 -1.51087 0
M  V30 6366 C 591.039 1.20926 -1.53741 0
M  V30 6367 C 591.419 2.09025 -0.295222 0
M  V30 6368 O 590.767 2.16851 0.720283 0
M  V30 6369 C 590.977 2.02067 -2.84552 0
M  V30 6370 C 592.325 2.59486 -3.36084 0
M  V30 6371 O 593.349 2.12289 -2.86028 0
M  V30 6372 O 592.208 3.45539 -4.23397 0
M  V30 6373 H 589.302 0.549951 -0.617643 0
M  V30 6374 H 591.848 0.458344 -1.63393 0
M  V30 6375 H 590.62 1.37291 -3.66425 0
M  V30 6376 H 590.243 2.84246 -2.78011 0
M  V30 6377 N 591.24 1.41047 0.703093 0
M  V30 6378 C 592.465 1.43537 1.49706 0
M  V30 6379 C 592.89 0.0401853 1.88057 0
M  V30 6380 O 592.248 -0.954785 1.54122 0
M  V30 6381 C 592.296 2.3433 2.74084 0
M  V30 6382 O 591.4 1.79515 3.71279 0
M  V30 6383 H 590.741 0.487454 0.450871 0
M  V30 6384 H 593.271 1.85422 0.86486 0
M  V30 6385 H 593.281 2.49947 3.22476 0
M  V30 6386 H 591.956 3.35708 2.45506 0
M  V30 6387 H 590.533 1.7331 3.30179 0
M  V30 6388 N 592.718 -0.936591 1.26751 0
M  V30 6389 C 593.668 -2.0219 1.05371 0
M  V30 6390 C 594.652 -1.60893 -0.0154112 0
M  V30 6391 O 595.844 -1.75843 0.202085 0
M  V30 6392 C 592.973 -3.36222 0.693541 0
M  V30 6393 C 592.059 -3.8399 1.80035 0
M  V30 6394 N 592.45 -4.0436 3.03852 0
M  V30 6395 C 590.748 -4.12945 1.685 0
M  V30 6396 C 591.449 -4.44 3.75818 0
M  V30 6397 N 590.425 -4.50966 3.03531 0
M  V30 6398 H 594.227 -2.15958 1.99347 0
M  V30 6399 H 591.741 -1.12277 1.17335 0
M  V30 6400 H 593.738 -4.13625 0.521513 0
M  V30 6401 H 592.398 -3.23821 -0.238693 0
M  V30 6402 H 593.409 -3.9092 3.39709 0
M  V30 6403 H 590.086 -4.09308 0.822986 0
M  V30 6404 H 591.476 -4.67914 4.82189 0
M  V30 6405 N 594.196 -1.08629 -1.14182 0
M  V30 6406 C 595.421 -0.83902 -1.89671 0
M  V30 6407 C 595.846 0.603332 -1.78161 0
M  V30 6408 O 595.204 1.42301 -1.12339 0
M  V30 6409 C 595.252 -1.26854 -3.37551 0
M  V30 6410 O 594.356 -0.42188 -4.10236 0
M  V30 6411 H 593.697 -0.304545 -0.590041 0
M  V30 6412 H 596.227 -1.4483 -1.44518 0
M  V30 6413 H 596.237 -1.25038 -3.88368 0
M  V30 6414 H 594.912 -2.31901 -3.45246 0
M  V30 6415 H 593.489 -0.503654 -3.69483 0
M  V30 6416 N 595.674 1.31259 -0.872281 0
M  V30 6417 C 596.899 2.0133 -0.498099 0
M  V30 6418 C 597.324 1.65031 0.902568 0
M  V30 6419 O 596.682 0.860164 1.59596 0
M  V30 6420 C 596.73 3.54411 -0.665205 0
M  V30 6421 O 595.834 4.11347 0.294473 0
M  V30 6422 H 595.175 0.633844 -0.197832 0
M  V30 6423 H 597.705 1.67402 -1.17633 0
M  V30 6424 H 597.715 4.04147 -0.559373 0
M  V30 6425 H 596.39 3.80171 -1.68651 0
M  V30 6426 H 594.967 3.72624 0.143403 0
M  V30 6427 N 597.152 0.631951 1.44375 0
M  V30 6428 C 598.377 0.142146 2.06912 0
M  V30 6429 C 598.802 -1.17456 1.4692 0
M  V30 6430 O 598.16 -1.72074 0.570975 0
M  V30 6431 C 598.208 0.0417952 3.60576 0
M  V30 6432 O 597.312 -1.00194 4.00044 0
M  V30 6433 H 596.653 0.0851491 0.658518 0
M  V30 6434 H 599.183 0.868863 1.85235 0
M  V30 6435 H 599.193 -0.148517 4.0773 0
M  V30 6436 H 597.868 1.0031 4.03622 0
M  V30 6437 H 596.445 -0.786131 3.64519 0
M  V30 6438 N 598.631 -1.53133 0.372548 0
M  V30 6439 C 599.541 -2.29671 -0.478379 0
M  V30 6440 C 600.557 -1.35913 -1.08644 0
M  V30 6441 O 601.733 -1.68975 -1.09588 0
M  V30 6442 C 598.798 -3.07625 -1.599 0
M  V30 6443 C 597.859 -4.17061 -1.01776 0
M  V30 6444 C 597.092 -4.91289 -2.08497 0
M  V30 6445 O 597.315 -4.65442 -3.29727 0
M  V30 6446 O 596.249 -5.7705 -1.71164 0
M  V30 6447 H 600.075 -3.03355 0.144649 0
M  V30 6448 H 597.66 -1.48773 0.136729 0
M  V30 6449 H 599.542 -3.56281 -2.25038 0
M  V30 6450 H 598.217 -2.3677 -2.2073 0
M  V30 6451 H 597.124 -3.72641 -0.330098 0
M  V30 6452 H 598.457 -4.90102 -0.453915 0
M  V30 6453 N 600.109 -0.101901 -1.5727 0
M  V30 6454 C 601.525 0.254739 -1.57554 0
M  V30 6455 C 601.725 1.67937 -1.11352 0
M  V30 6456 O 600.781 2.39722 -0.793081 0
M  V30 6457 C 602.094 0.036975 -3.00677 0
M  V30 6458 C 603.642 0.104199 -3.12827 0
M  V30 6459 C 604.117 -0.0856565 -4.5792 0
M  V30 6460 N 605.608 -0.0310498 -4.6319 0
M  V30 6461 C 606.343 -0.153099 -5.73196 0
M  V30 6462 N 605.839 -0.330364 -6.92012 0
M  V30 6463 N 607.632 -0.0938854 -5.62022 0
M  V30 6464 H 599.783 -1.03263 -1.85609 0
M  V30 6465 H 602.046 -0.405251 -0.857016 0
M  V30 6466 H 601.752 -0.947254 -3.38703 0
M  V30 6467 H 601.626 0.776335 -3.69124 0
M  V30 6468 H 604.013 1.07894 -2.74669 0
M  V30 6469 H 604.094 -0.666762 -2.46957 0
M  V30 6470 H 603.738 -1.05729 -4.96773 0
M  V30 6471 H 603.668 0.705082 -5.21858 0
M  V30 6472 H 606.159 0.103141 -3.77759 0
M  V30 6473 H 606.472 -0.41482 -7.71686 0
M  V30 6474 H 604.817 -0.366119 -6.94035 0
M  V30 6475 H 608.008 0.0435168 -4.6808 0
M  V30 6476 H 608.181 -0.19245 -6.47714 0
M  V30 6477 N 601.587 1.56661 0.17182 0
M  V30 6478 C 602.834 1.81965 0.888529 0
M  V30 6479 C 603.162 0.6789 1.82267 0
M  V30 6480 O 602.417 -0.333875 1.92831 0
M  V30 6481 C 602.716 3.13435 1.71736 0
M  V30 6482 C 602.382 4.41159 0.932184 0
M  V30 6483 C 601.044 4.75851 0.715481 0
M  V30 6484 C 603.396 5.19803 0.381387 0
M  V30 6485 C 600.724 5.86666 -0.063126 0
M  V30 6486 C 603.076 6.31433 -0.384129 0
M  V30 6487 C 601.74 6.64692 -0.611637 0
M  V30 6488 H 601.01 0.665859 0.325136 0
M  V30 6489 H 603.657 1.90884 0.153495 0
M  V30 6490 H 601.962 2.99857 2.52177 0
M  V30 6491 H 603.659 3.30224 2.27493 0
M  V30 6492 H 600.249 4.13947 1.11112 0
M  V30 6493 H 604.433 4.93396 0.536148 0
M  V30 6494 H 599.689 6.10892 -0.249136 0
M  V30 6495 H 603.863 6.91577 -0.818185 0
M  V30 6496 H 601.49 7.50398 -1.21684 0
M  V30 6497 N 603.065 -0.440357 1.51323 0
M  V30 6498 C 603.995 -1.54174 1.75364 0
M  V30 6499 C 604.976 -1.59039 0.603375 0
M  V30 6500 O 606.161 -1.74815 0.845774 0
M  V30 6501 C 603.291 -2.92277 1.87593 0
M  V30 6502 C 602.245 -3.02274 3.03009 0
M  V30 6503 C 601.571 -4.42327 3.00418 0
M  V30 6504 C 602.871 -2.76634 4.43024 0
M  V30 6505 H 604.565 -1.34307 2.67585 0
M  V30 6506 H 602.111 -0.644678 1.28763 0
M  V30 6507 H 604.064 -3.69284 2.02995 0
M  V30 6508 H 602.788 -3.13369 0.920179 0
M  V30 6509 H 601.447 -2.27706 2.87307 0
M  V30 6510 H 601.095 -4.60382 2.02626 0
M  V30 6511 H 600.795 -4.49946 3.77918 0
M  V30 6512 H 602.319 -5.21312 3.17909 0
M  V30 6513 H 603.733 -3.43376 4.59093 0
M  V30 6514 H 602.13 -2.95666 5.22208 0
M  V30 6515 H 603.2 -1.72262 4.5327 0
M  V30 6516 N 604.543 -1.41418 -0.695603 0
M  V30 6517 C 605.453 -1.45622 -1.83933 0
M  V30 6518 C 606.469 -0.346825 -1.70508 0
M  V30 6519 O 607.645 -0.59454 -1.92424 0
M  V30 6520 C 604.71 -1.33627 -3.19914 0
M  V30 6521 C 603.771 -2.54882 -3.45447 0
M  V30 6522 C 603.004 -2.43449 -4.7494 0
M  V30 6523 O 603.227 -1.45905 -5.51424 0
M  V30 6524 O 602.161 -3.33206 -5.01256 0
M  V30 6525 H 605.987 -2.42114 -1.83342 0
M  V30 6526 H 603.572 -1.22956 -0.848658 0
M  V30 6527 H 605.454 -1.29221 -4.01098 0
M  V30 6528 H 604.129 -0.402508 -3.21188 0
M  V30 6529 H 603.036 -2.64865 -2.64192 0
M  V30 6530 H 604.369 -3.47087 -3.48987 0
M  V30 6531 N 606.021 0.929856 -1.27246 0
M  V30 6532 C 606.953 2.03434 -1.0558 0
M  V30 6533 C 607.966 1.62795 -0.0125762 0
M  V30 6534 O 609.155 1.76685 -0.2539 0
M  V30 6535 C 606.255 3.33915 -0.57912 0
M  V30 6536 C 605.428 4.03259 -1.69415 0
M  V30 6537 C 604.487 5.12014 -1.21357 0
M  V30 6538 O 603.513 5.36097 -1.91282 0
M  V30 6539 N 604.715 5.8046 -0.0680622 0
M  V30 6540 H 607.48 2.22583 -2.00691 0
M  V30 6541 H 605.041 1.1001 -1.18783 0
M  V30 6542 H 607.033 4.03978 -0.241563 0
M  V30 6543 H 605.603 3.11355 0.278703 0
M  V30 6544 H 604.823 3.26958 -2.20209 0
M  V30 6545 H 606.111 4.46337 -2.44255 0
M  V30 6546 H 605.509 5.63345 0.515626 0
M  V30 6547 H 604.066 6.51461 0.210332 0
M  V30 6548 N 607.499 1.09233 1.13605 0
M  V30 6549 C 608.724 0.849067 1.89224 0
M  V30 6550 C 609.149 -0.593875 1.78479 0
M  V30 6551 O 608.507 -1.41703 1.13092 0
M  V30 6552 C 608.555 1.28642 3.36873 0
M  V30 6553 O 607.659 0.44363 4.10007 0
M  V30 6554 H 607 0.30767 0.588417 0
M  V30 6555 H 609.53 1.45595 1.43748 0
M  V30 6556 H 609.54 1.27096 3.87699 0
M  V30 6557 H 608.215 2.33729 3.44011 0
M  V30 6558 H 606.792 0.523241 3.69211 0
M  V30 6559 N 608.977 -1.30795 0.87923 0
M  V30 6560 C 609.927 -2.25838 0.313276 0
M  V30 6561 C 610.911 -1.51025 -0.55499 0
M  V30 6562 O 612.103 -1.72413 -0.400353 0
M  V30 6563 C 609.232 -3.39981 -0.476204 0
M  V30 6564 C 608.318 -4.22154 0.405826 0
M  V30 6565 N 608.709 -4.82934 1.50362 0
M  V30 6566 C 607.007 -4.45552 0.199909 0
M  V30 6567 C 607.708 -5.44444 2.0483 0
M  V30 6568 N 606.684 -5.26723 1.34403 0
M  V30 6569 H 610.486 -2.70374 1.15218 0
M  V30 6570 H 608 -1.45168 0.728003 0
M  V30 6571 H 609.997 -4.07108 -0.898251 0
M  V30 6572 H 608.657 -2.96986 -1.31261 0
M  V30 6573 H 609.668 -4.82319 1.8865 0
M  V30 6574 H 606.345 -4.13169 -0.599795 0
M  V30 6575 H 607.735 -6.02701 2.96986 0
M  V30 6576 N 610.455 -0.639598 -1.44038 0
M  V30 6577 C 611.68 -0.153117 -2.06834 0
M  V30 6578 C 612.105 1.16676 -1.47541 0
M  V30 6579 O 611.463 1.71769 -0.580093 0
M  V30 6580 C 611.511 -0.0609169 -3.60549 0
M  V30 6581 O 610.615 0.98071 -4.00569 0
M  V30 6582 H 609.956 -0.0886402 -0.658057 0
M  V30 6583 H 612.486 -0.878674 -1.84771 0
M  V30 6584 H 612.496 0.126892 -4.07803 0
M  V30 6585 H 611.171 -1.0245 -4.03084 0
M  V30 6586 H 609.748 0.766789 -3.64931 0
M  V30 6587 N 611.933 1.52934 -0.380664 0
M  V30 6588 C 613.158 2.06363 0.207157 0
M  V30 6589 C 613.583 1.25122 1.4045 0
M  V30 6590 O 612.941 0.274062 1.79217 0
M  V30 6591 C 612.989 3.56162 0.563996 0
M  V30 6592 O 612.093 3.77552 1.65917 0
M  V30 6593 H 611.434 0.663468 0.0265859 0
M  V30 6594 H 613.964 1.9719 -0.545635 0
M  V30 6595 H 613.974 3.99453 0.830752 0
M  V30 6596 H 612.649 4.14732 -0.311427 0
M  V30 6597 H 611.226 3.46154 1.3868 0
M  V30 6598 N 613.412 0.11024 1.57214 0
M  V30 6599 C 614.345 -0.880224 2.1054 0
M  V30 6600 C 615.323 -1.26658 1.01964 0
M  V30 6601 O 616.507 -1.36917 1.29561 0
M  V30 6602 C 613.634 -2.17676 2.59489 0
M  V30 6603 C 612.68 -1.93914 3.79868 0
M  V30 6604 S 613.513 -1.16336 5.2271 0
M  V30 6605 C 614.669 -2.47188 5.75021 0
M  V30 6606 H 614.902 -0.426614 2.94223 0
M  V30 6607 H 612.435 -0.10336 1.54054 0
M  V30 6608 H 614.393 -2.92175 2.88347 0
M  V30 6609 H 613.054 -2.60156 1.76005 0
M  V30 6610 H 612.247 -2.8996 4.12236 0
M  V30 6611 H 611.849 -1.27539 3.51582 0
M  V30 6612 H 614.141 -3.43079 5.84211 0
M  V30 6613 H 615.084 -2.19377 6.7326 0
M  V30 6614 H 615.492 -2.56154 5.03036 0
M  V30 6615 N 614.89 -1.56749 -0.16351 0
M  V30 6616 C 615.8 -2.00255 -1.2221 0
M  V30 6617 C 616.816 -0.915194 -1.47987 0
M  V30 6618 O 617.992 -1.22342 -1.59982 0
M  V30 6619 C 615.057 -2.36035 -2.53946 0
M  V30 6620 C 614.118 -3.58637 -2.35962 0
M  V30 6621 C 613.351 -3.92701 -3.61416 0
M  V30 6622 O 613.574 -3.27632 -4.66919 0
M  V30 6623 O 612.508 -4.86019 -3.55062 0
M  V30 6624 H 616.334 -2.90586 -0.882794 0
M  V30 6625 H 613.919 -1.44721 -0.370978 0
M  V30 6626 H 615.801 -2.59982 -3.31643 0
M  V30 6627 H 614.476 -1.48863 -2.8744 0
M  V30 6628 H 613.383 -3.39898 -1.5627 0
M  V30 6629 H 614.716 -4.46374 -2.0739 0
M  V30 6630 N 616.368 0.432326 -1.51554 0
M  V30 6631 C 617.784 0.769195 -1.39841 0
M  V30 6632 C 617.984 1.95584 -0.484675 0
M  V30 6633 O 617.04 2.52433 0.0582829 0
M  V30 6634 C 618.353 1.04487 -2.81963 0
M  V30 6635 C 619.901 1.149 -2.91148 0
M  V30 6636 C 620.376 1.45758 -4.34187 0
M  V30 6637 N 621.867 1.52671 -4.37317 0
M  V30 6638 C 622.602 1.78129 -5.4503 0
M  V30 6639 N 622.098 2.01345 -6.62897 0
M  V30 6640 N 623.891 1.79953 -5.32516 0
M  V30 6641 H 616.042 -0.349122 -2.09511 0
M  V30 6642 H 618.305 -0.0938113 -0.943347 0
M  V30 6643 H 618.011 0.24557 -3.50842 0
M  V30 6644 H 617.885 1.97119 -3.21596 0
M  V30 6645 H 620.272 1.93891 -2.22464 0
M  V30 6646 H 620.353 0.201568 -2.55005 0
M  V30 6647 H 619.997 0.672917 -5.03423 0
M  V30 6648 H 619.927 2.41715 -4.67848 0
M  V30 6649 H 622.418 1.36612 -3.52343 0
M  V30 6650 H 622.731 2.20155 -7.40778 0
M  V30 6651 H 621.076 1.98657 -6.66003 0
M  V30 6652 H 624.267 1.61337 -4.39418 0
M  V30 6653 H 624.44 1.99455 -6.1654 0
M  V30 6654 N 617.846 1.41785 0.688094 0
M  V30 6655 C 618.809 1.43936 1.78368 0
M  V30 6656 C 619.809 0.328866 1.57401 0
M  V30 6657 O 620.999 0.589093 1.63937 0
M  V30 6658 C 618.131 1.25804 3.16838 0
M  V30 6659 H 619.324 2.41472 1.77852 0
M  V30 6660 H 616.877 1.28037 0.896448 0
M  V30 6661 H 617.612 0.291386 3.22988 0
M  V30 6662 H 617.397 2.06272 3.33458 0
M  V30 6663 H 618.887 1.30162 3.96797 0
M  V30 6664 N 619.324 -0.923095 1.27737 0
M  V30 6665 C 620.571 -1.67127 1.14345 0
M  V30 6666 C 620.899 -1.92017 -0.30982 0
M  V30 6667 O 620.154 -1.51185 -1.24264 0
M  V30 6668 C 620.453 -3.04125 1.8773 0
M  V30 6669 C 620.119 -2.98929 3.37568 0
M  V30 6670 C 618.781 -2.9722 3.78436 0
M  V30 6671 C 621.133 -2.89875 4.33154 0
M  V30 6672 C 618.461 -2.84244 5.13247 0
M  V30 6673 C 620.813 -2.7844 5.68026 0
M  V30 6674 C 619.477 -2.75083 6.08182 0
M  V30 6675 H 618.747 -0.611562 0.418417 0
M  V30 6676 H 621.394 -1.07618 1.584 0
M  V30 6677 H 619.699 -3.67366 1.36196 0
M  V30 6678 H 621.396 -3.609 1.74792 0
M  V30 6679 H 617.986 -3.0105 3.05069 0
M  V30 6680 H 622.17 -2.9029 4.02548 0
M  V30 6681 H 617.426 -2.80034 5.43499 0
M  V30 6682 H 621.6 -2.70401 6.4176 0
M  V30 6683 H 619.227 -2.64786 7.12596 0
M  V30 6684 N 620.802 -1.09834 -1.13024 0
M  V30 6685 C 621.712 -0.753731 -2.22162 0
M  V30 6686 C 622.728 0.246105 -1.72251 0
M  V30 6687 O 623.904 0.0864051 -2.01215 0
M  V30 6688 C 620.969 -0.183958 -3.46212 0
M  V30 6689 C 620.03 -1.24028 -4.10993 0
M  V30 6690 C 619.263 -0.697597 -5.29121 0
M  V30 6691 O 619.486 0.478092 -5.68393 0
M  V30 6692 O 618.42 -1.4546 -5.84059 0
M  V30 6693 H 622.246 -1.66456 -2.5402 0
M  V30 6694 H 619.831 -0.873026 -1.21238 0
M  V30 6695 H 621.713 0.130257 -4.21199 0
M  V30 6696 H 620.388 0.699823 -3.16045 0
M  V30 6697 H 619.295 -1.60725 -3.37814 0
M  V30 6698 H 620.628 -2.09685 -4.45301 0
M  V30 6699 N 622.28 1.30327 -0.886154 0
M  V30 6700 C 623.243 2.26376 -0.358687 0
M  V30 6701 C 624.243 1.52845 0.499498 0
M  V30 6702 O 625.433 1.71483 0.306485 0
M  V30 6703 C 622.565 3.37379 0.488726 0
M  V30 6704 H 623.758 2.74547 -1.20681 0
M  V30 6705 H 621.311 1.41536 -0.663113 0
M  V30 6706 H 622.046 2.94526 1.35739 0
M  V30 6707 H 621.831 3.91897 -0.126003 0
M  V30 6708 H 623.321 4.08868 0.84952 0
M  V30 6709 N 623.758 0.647228 1.43697 0
M  V30 6710 C 625.035 0.0883758 1.954 0
M  V30 6711 C 625.415 -1.39006 1.58873 0
M  V30 6712 O 624.763 -2.11255 0.87083 0
M  V30 6713 C 624.973 0.328263 3.47453 0
M  V30 6714 C 626.321 0.230009 4.23977 0
M  V30 6715 O 627.345 0.260496 3.55246 0
M  V30 6716 O 626.204 0.148615 5.46298 0
M  V30 6717 H 623.298 -0.0130683 0.826897 0
M  V30 6718 H 625.844 0.72005 1.53666 0
M  V30 6719 H 624.616 1.3535 3.67146 0
M  V30 6720 H 624.239 -0.336772 3.96171 0
M  V30 6721 N 625.236 -1.5273 0.388769 0
M  V30 6722 C 626.466 -2.05693 -0.193397 0
M  V30 6723 C 626.874 -1.26038 -1.41107 0
M  V30 6724 O 626.217 -0.30001 -1.81234 0
M  V30 6725 C 626.279 -3.53962 -0.628561 0
M  V30 6726 C 625.943 -4.54519 0.475576 0
M  V30 6727 C 626.94 -5.02526 1.33281 0
M  V30 6728 C 624.625 -4.98174 0.642453 0
M  V30 6729 C 626.619 -5.92812 2.34205 0
M  V30 6730 C 624.306 -5.88262 1.65503 0
M  V30 6731 C 625.304 -6.35473 2.50325 0
M  V30 6732 O 624.992 -7.23781 3.49852 0
M  V30 6733 H 624.724 -0.675197 -0.0329395 0
M  V30 6734 H 627.278 -1.97835 0.552326 0
M  V30 6735 H 625.508 -3.59437 -1.42625 0
M  V30 6736 H 627.197 -3.89669 -1.13633 0
M  V30 6737 H 627.963 -4.6953 1.21519 0
M  V30 6738 H 623.842 -4.60999 -0.00805093 0
M  V30 6739 H 627.386 -6.29585 3.00447 0
M  V30 6740 H 623.283 -6.20672 1.77304 0
M  V30 6741 H 624.051 -7.4184 3.45855 0
M  V30 6742 N 626.714 -0.118576 -1.57153 0
M  V30 6743 C 627.962 0.538461 -1.94795 0
M  V30 6744 C 628.283 1.67243 -1.00274 0
M  V30 6745 O 627.553 1.95811 -0.0589692 0
M  V30 6746 H 626.133 0.201904 -0.719197 0
M  V30 6747 H 628.795 -0.187418 -1.93997 0
M  V30 6748 H 627.891 0.933315 -2.97818 0
M  V30 6749 N 628.193 1.56834 0.155195 0
M  V30 6750 C 629.609 1.51315 0.50755 0
M  V30 6751 C 629.809 0.825614 1.83809 0
M  V30 6752 O 628.865 0.39271 2.49427 0
M  V30 6753 C 630.178 2.96074 0.52542 0
M  V30 6754 C 631.726 3.06968 0.611505 0
M  V30 6755 C 632.201 4.53218 0.660115 0
M  V30 6756 N 633.692 4.5753 0.722564 0
M  V30 6757 C 634.427 5.68056 0.781023 0
M  V30 6758 N 633.923 6.88173 0.799327 0
M  V30 6759 N 635.716 5.56068 0.821278 0
M  V30 6760 H 627.867 1.9993 -0.717063 0
M  V30 6761 H 630.13 0.911507 -0.260496 0
M  V30 6762 H 629.836 3.49599 -0.383875 0
M  V30 6763 H 629.71 3.51587 1.36624 0
M  V30 6764 H 632.097 2.53468 1.51122 0
M  V30 6765 H 632.178 2.54513 -0.256306 0
M  V30 6766 H 631.822 5.07354 -0.23541 0
M  V30 6767 H 631.752 5.03447 1.5443 0
M  V30 6768 H 634.243 3.71054 0.716049 0
M  V30 6769 H 634.556 7.6816 0.845553 0
M  V30 6770 H 632.901 6.90751 0.767337 0
M  V30 6771 H 636.092 4.61142 0.804091 0
M  V30 6772 H 636.265 6.42223 0.863372 0
M  V30 6773 N 629.671 -0.424282 1.51781 0
M  V30 6774 C 630.896 -1.19928 1.6921 0
M  V30 6775 C 631.321 -1.8392 0.394355 0
M  V30 6776 O 630.679 -1.69371 -0.646778 0
M  V30 6777 C 630.727 -2.24937 2.81843 0
M  V30 6778 O 629.831 -3.3073 2.46356 0
M  V30 6779 H 629.172 -0.35078 0.563781 0
M  V30 6780 H 631.702 -0.499401 1.98412 0
M  V30 6781 H 631.712 -2.69512 3.06312 0
M  V30 6782 H 630.387 -1.77742 3.76006 0
M  V30 6783 H 628.964 -2.9154 2.32505 0
M  V30 6784 N 631.149 -1.42148 -0.680565 0
M  V30 6785 C 632.389 -1.4379 -1.45271 0
M  V30 6786 C 632.753 -0.0504426 -1.91934 0
M  V30 6787 O 633.954 0.0583916 -2.68737 0
M  V30 6788 C 632.225 -2.42904 -2.62168 0
M  V30 6789 S 633.784 -2.63201 -3.51099 0
M  V30 6790 H 630.602 -0.509185 -0.496237 0
M  V30 6791 H 633.204 -1.78706 -0.792744 0
M  V30 6792 H 631.908 -3.4249 -2.26116 0
M  V30 6793 H 631.439 -2.09394 -3.33043 0
M  V30 6794 H 633.454 -1.91068 -4.57938 0
M  V30 6795 N 632.627 0.916307 -1.28225 0
M  V30 6796 C 633.904 1.64429 -1.05936 0
M  V30 6797 C 634.284 2.07234 0.402139 0
M  V30 6798 O 633.632 1.81535 1.3877 0
M  V30 6799 C 633.842 2.83773 -2.03159 0
M  V30 6800 C 635.19 3.54852 -2.33164 0
M  V30 6801 O 636.214 2.93918 -2.01223 0
M  V30 6802 O 635.073 4.64663 -2.87664 0
M  V30 6803 H 632.167 0.721221 -0.404683 0
M  V30 6804 H 634.713 0.965838 -1.39534 0
M  V30 6805 H 633.485 2.49217 -3.01673 0
M  V30 6806 H 633.108 3.59333 -1.70192 0
M  V30 6807 N 634.105 1.10431 1.1244 0
M  V30 6808 C 635.335 0.867612 1.87499 0
M  V30 6809 C 635.743 -0.585475 1.79913 0
M  V30 6810 O 635.086 -1.41539 1.171 0
M  V30 6811 C 635.148 1.2374 3.37533 0
M  V30 6812 C 634.812 2.69751 3.68895 0
M  V30 6813 C 635.809 3.67988 3.67261 0
M  V30 6814 C 633.494 3.06135 3.98229 0
M  V30 6815 C 635.488 5.00632 3.9452 0
M  V30 6816 C 633.175 4.38967 4.25149 0
M  V30 6817 C 634.173 5.36025 4.23281 0
M  V30 6818 O 633.861 6.66465 4.49533 0
M  V30 6819 H 633.593 0.311196 0.600111 0
M  V30 6820 H 636.147 1.47257 1.43194 0
M  V30 6821 H 634.377 0.575537 3.82393 0
M  V30 6822 H 636.066 0.978187 3.93937 0
M  V30 6823 H 636.832 3.41224 3.44661 0
M  V30 6824 H 632.711 2.31214 3.98825 0
M  V30 6825 H 636.255 5.7638 3.92978 0
M  V30 6826 H 632.152 4.6547 4.47223 0
M  V30 6827 H 632.92 6.72095 4.67152 0
M  V30 6828 N 635.583 -1.29855 0.893053 0
M  V30 6829 C 636.53 -2.27909 0.364161 0
M  V30 6830 C 637.5 -1.56726 -0.550093 0
M  V30 6831 O 638.685 -1.84747 -0.47677 0
M  V30 6832 C 635.825 -3.42678 -0.408178 0
M  V30 6833 C 634.938 -4.28659 0.536212 0
M  V30 6834 C 634.073 -5.30599 -0.252521 0
M  V30 6835 C 633.112 -6.08234 0.686822 0
M  V30 6836 N 632.249 -7.02068 -0.0670902 0
M  V30 6837 H 637.089 -2.72531 1.20544 0
M  V30 6838 H 634.626 -1.34047 0.605779 0
M  V30 6839 H 636.584 -4.07986 -0.871962 0
M  V30 6840 H 635.214 -2.99103 -1.21397 0
M  V30 6841 H 634.266 -3.63584 1.1185 0
M  V30 6842 H 635.578 -4.8274 1.25552 0
M  V30 6843 H 634.732 -6.01694 -0.777801 0
M  V30 6844 H 633.471 -4.77233 -1.005 0
M  V30 6845 H 632.476 -5.3601 1.22366 0
M  V30 6846 H 633.701 -6.63689 1.43852 0
M  V30 6847 H 631.647 -6.5108 -0.801955 0
M  V30 6848 H 631.564 -7.53675 0.59243 0
M  V30 6849 H 632.832 -7.77392 -0.572851 0
M  V30 6850 N 637.061 -0.65484 -1.43351 0
M  V30 6851 C 638.307 -0.169142 -2.02093 0
M  V30 6852 C 638.64 1.21431 -1.51553 0
M  V30 6853 O 637.915 1.81105 -0.709317 0
M  V30 6854 C 638.198 -0.181775 -3.59641 0
M  V30 6855 C 638.051 -1.59926 -4.20409 0
M  V30 6856 C 639.37 0.480945 -4.37464 0
M  V30 6857 H 636.489 -0.0629371 -0.734308 0
M  V30 6858 H 639.131 -0.835833 -1.70628 0
M  V30 6859 H 637.281 0.385918 -3.86578 0
M  V30 6860 H 638.953 -2.21766 -4.04497 0
M  V30 6861 H 637.196 -2.14605 -3.76998 0
M  V30 6862 H 637.867 -1.55994 -5.295 0
M  V30 6863 H 640.343 -0.00208273 -4.161 0
M  V30 6864 H 639.219 0.441384 -5.47122 0
M  V30 6865 H 639.48 1.55533 -4.13838 0
M  V30 6866 N 638.539 1.52521 -0.396863 0
M  V30 6867 C 639.787 2.01274 0.182536 0
M  V30 6868 C 640.108 1.28485 1.46685 0
M  V30 6869 O 639.378 0.407134 1.91623 0
M  V30 6870 H 637.958 0.743671 0.0704442 0
M  V30 6871 H 640.62 1.87547 -0.530289 0
M  V30 6872 H 639.716 3.09687 0.387385 0
M  V30 6873 N 640.017 0.126909 1.57088 0
M  V30 6874 C 641.242 -0.53997 2.00248 0
M  V30 6875 C 641.667 -1.58927 1.00618 0
M  V30 6876 O 641.025 -1.81288 -0.0210131 0
M  V30 6877 C 641.073 -1.13565 3.4225 0
M  V30 6878 O 640.177 -2.25103 3.45547 0
M  V30 6879 H 639.518 -0.13412 0.650314 0
M  V30 6880 H 642.048 0.217718 2.03438 0
M  V30 6881 H 642.058 -1.46925 3.80627 0
M  V30 6882 H 640.733 -0.367122 4.14277 0
M  V30 6883 H 639.31 -1.93123 3.18995 0
M  V30 6884 N 641.495 -1.56914 -0.146875 0
M  V30 6885 C 642.906 -1.72799 -0.706928 0
M  V30 6886 C 643.257 -0.741329 -1.81656 0
M  V30 6887 O 642.382 0.0920162 -2.16204 0
M  V30 6888 C 642.977 -3.13317 -1.28911 0
M  V30 6889 C 641.536 -3.30803 -1.79573 0
M  V30 6890 C 640.683 -2.68725 -0.684252 0
M  V30 6891 H 643.634 -1.58504 0.0787931 0
M  V30 6892 H 643.655 -3.13323 -2.15891 0
M  V30 6893 H 643.167 -3.85104 -0.481284 0
M  V30 6894 H 641.268 -2.64012 -2.62923 0
M  V30 6895 H 641.381 -4.38754 -1.92436 0
M  V30 6896 H 639.745 -2.29196 -1.11091 0
M  V30 6897 H 640.528 -3.43117 0.112134 0
M  V30 6898 N 642.974 0.416227 -1.52004 0
M  V30 6899 C 644.199 1.19029 -1.69843 0
M  V30 6900 C 644.624 1.83708 -0.404103 0
M  V30 6901 O 643.982 1.69711 0.637787 0
M  V30 6902 C 644.03 2.23439 -2.83032 0
M  V30 6903 O 643.134 3.29419 -2.48106 0
M  V30 6904 H 642.475 0.347785 -0.565634 0
M  V30 6905 H 645.005 0.488871 -1.98674 0
M  V30 6906 H 645.015 2.67884 -3.07737 0
M  V30 6907 H 643.69 1.75745 -3.76944 0
M  V30 6908 H 642.267 2.90303 -2.34048 0
M  V30 6909 N 644.452 1.42507 0.673017 0
M  V30 6910 C 645.682 1.46261 1.45916 0
M  V30 6911 C 646.09 0.0729724 1.89059 0
M  V30 6912 O 645.433 -0.922987 1.58829 0
M  V30 6913 C 645.495 2.32853 2.73898 0
M  V30 6914 C 645.159 3.80699 2.52819 0
M  V30 6915 C 646.156 4.72307 2.17306 0
M  V30 6916 C 643.841 4.24983 2.67758 0
M  V30 6917 C 645.835 6.06192 1.97003 0
M  V30 6918 C 643.522 5.58927 2.4707 0
M  V30 6919 C 644.52 6.49348 2.11746 0
M  V30 6920 O 644.208 7.80817 1.91259 0
M  V30 6921 H 643.94 0.499561 0.455428 0
M  V30 6922 H 646.494 1.87697 0.834196 0
M  V30 6923 H 644.724 1.86268 3.38882 0
M  V30 6924 H 646.413 2.28041 3.35786 0
M  V30 6925 H 647.179 4.39378 2.05359 0
M  V30 6926 H 643.058 3.54893 2.94231 0
M  V30 6927 H 646.602 6.76731 1.69355 0
M  V30 6928 H 642.499 5.91429 2.58615 0
M  V30 6929 H 643.267 7.92194 2.05843 0
M  V30 6930 N 645.93 -0.909495 1.28709 0
M  V30 6931 C 646.86 -2.0291 1.15542 0
M  V30 6932 C 647.841 -1.7002 0.0521017 0
M  V30 6933 O 649.026 -1.92835 0.229849 0
M  V30 6934 C 646.156 -3.37458 0.820935 0
M  V30 6935 C 645.11 -3.84524 1.87949 0
M  V30 6936 C 644.436 -5.16086 1.39854 0
M  V30 6937 C 645.736 -4.05918 3.28676 0
M  V30 6938 H 647.43 -2.14183 2.09203 0
M  V30 6939 H 644.976 -1.02913 1.00722 0
M  V30 6940 H 646.929 -4.1528 0.715571 0
M  V30 6941 H 645.653 -3.26249 -0.151374 0
M  V30 6942 H 644.312 -3.08911 1.97408 0
M  V30 6943 H 643.96 -5.01284 0.41518 0
M  V30 6944 H 643.66 -5.48547 2.1064 0
M  V30 6945 H 645.184 -5.96459 1.30649 0
M  V30 6946 H 646.598 -4.74252 3.22115 0
M  V30 6947 H 644.995 -4.49717 3.97334 0
M  V30 6948 H 646.065 -3.10583 3.72379 0
M  V30 6949 N 647.408 -1.11026 -1.11852 0
M  V30 6950 C 648.685 -0.768347 -1.79877 0
M  V30 6951 C 649.065 0.744261 -1.97545 0
M  V30 6952 O 648.413 1.67271 -1.55669 0
M  V30 6953 C 648.623 -1.52648 -3.13846 0
M  V30 6954 C 649.971 -1.70297 -3.88953 0
M  V30 6955 O 650.995 -1.49037 -3.23522 0
M  V30 6956 O 649.854 -2.05593 -5.06353 0
M  V30 6957 H 646.948 -0.277891 -0.778913 0
M  V30 6958 H 649.494 -1.21343 -1.18633 0
M  V30 6959 H 648.266 -2.55564 -2.96315 0
M  V30 6960 H 647.889 -1.07466 -3.82801 0
M  V30 6961 N 648.886 1.2938 -0.899927 0
M  V30 6962 C 649.833 2.27713 -0.376243 0
M  V30 6963 C 650.803 1.57016 0.541774 0
M  V30 6964 O 651.988 1.84997 0.466966 0
M  V30 6965 C 649.128 3.42889 0.39 0
M  V30 6966 C 648.241 4.28369 -0.558938 0
M  V30 6967 C 647.376 5.30726 0.224379 0
M  V30 6968 C 646.415 6.07862 -0.719068 0
M  V30 6969 N 645.552 7.02094 0.0298569 0
M  V30 6970 H 650.392 2.71888 -1.21988 0
M  V30 6971 H 647.929 1.33724 -0.612879 0
M  V30 6972 H 649.887 4.08443 0.850314 0
M  V30 6973 H 648.517 2.99743 1.19809 0
M  V30 6974 H 647.569 3.62986 -1.13777 0
M  V30 6975 H 648.881 4.82068 -1.2811 0
M  V30 6976 H 648.035 6.02098 0.745881 0
M  V30 6977 H 646.774 4.77759 0.979674 0
M  V30 6978 H 645.779 5.35353 -1.25207 0
M  V30 6979 H 647.004 6.62917 -1.4737 0
M  V30 6980 H 644.95 6.51496 0.767415 0
M  V30 6981 H 644.867 7.5335 -0.632391 0
M  V30 6982 H 646.135 7.77685 0.531615 0
M  V30 6983 N 650.364 0.662433 1.43002 0
M  V30 6984 C 651.294 -0.00979809 2.33498 0
M  V30 6985 C 652.275 -0.802329 1.49989 0
M  V30 6986 O 653.46 -0.761964 1.78627 0
M  V30 6987 C 650.59 -0.970446 3.33466 0
M  V30 6988 C 649.544 -0.287383 4.27034 0
M  V30 6989 C 648.87 -1.36012 5.17112 0
M  V30 6990 C 650.17 0.82595 5.15728 0
M  V30 6991 H 651.864 0.745959 2.89958 0
M  V30 6992 H 649.41 0.360172 1.39423 0
M  V30 6993 H 651.363 -1.44971 3.95679 0
M  V30 6994 H 650.087 -1.75748 2.75282 0
M  V30 6995 H 648.746 0.17152 3.66199 0
M  V30 6996 H 648.394 -2.13882 4.55262 0
M  V30 6997 H 648.094 -0.908276 5.80538 0
M  V30 6998 H 649.618 -1.84056 5.82199 0
M  V30 6999 H 651.032 0.42845 5.71697 0
M  V30 7000 H 649.429 1.20282 5.87922 0
M  V30 7001 H 650.499 1.68003 4.54866 0
M  V30 7002 N 651.842 -1.52309 0.404946 0
M  V30 7003 C 652.772 -2.29805 -0.41376 0
M  V30 7004 C 653.753 -1.3384 -1.0498 0
M  V30 7005 O 654.938 -1.62745 -1.05961 0
M  V30 7006 C 652.068 -3.11639 -1.53292 0
M  V30 7007 C 651.022 -4.15616 -1.02211 0
M  V30 7008 C 650.348 -4.8577 -2.23455 0
M  V30 7009 C 651.648 -5.2224 -0.0790725 0
M  V30 7010 H 653.342 -2.98493 0.232878 0
M  V30 7011 H 650.888 -1.43552 0.113441 0
M  V30 7012 H 652.841 -3.64618 -2.11262 0
M  V30 7013 H 651.565 -2.40712 -2.20738 0
M  V30 7014 H 650.224 -3.63641 -0.46484 0
M  V30 7015 H 649.872 -4.11376 -2.89445 0
M  V30 7016 H 649.572 -5.56058 -1.89929 0
M  V30 7017 H 651.096 -5.4156 -2.82038 0
M  V30 7018 H 652.51 -5.70485 -0.567438 0
M  V30 7019 H 650.907 -5.99867 0.167167 0
M  V30 7020 H 651.977 -4.77078 0.867447 0
M  V30 7021 N 653.32 -0.135238 -1.57019 0
M  V30 7022 C 654.566 0.513232 -1.96818 0
M  V30 7023 C 654.921 1.63245 -1.01827 0
M  V30 7024 O 654.214 1.91532 -0.0511756 0
M  V30 7025 C 654.408 1.07694 -3.40788 0
M  V30 7026 C 654.237 0.0138667 -4.49698 0
M  V30 7027 C 653.007 -0.423532 -5.03522 0
M  V30 7028 C 655.205 -0.77322 -5.08454 0
M  V30 7029 N 653.187 -1.47068 -5.96024 0
M  V30 7030 C 654.558 -1.67115 -5.97053 0
M  V30 7031 C 656.613 -0.822313 -4.91063 0
M  V30 7032 C 655.316 -2.61395 -6.70123 0
M  V30 7033 C 657.342 -1.75288 -5.64826 0
M  V30 7034 C 656.704 -2.63836 -6.53123 0
M  V30 7035 H 652.803 0.156956 -0.766087 0
M  V30 7036 H 655.387 -0.227118 -1.93371 0
M  V30 7037 H 653.558 1.78694 -3.44852 0
M  V30 7038 H 655.29 1.69106 -3.67675 0
M  V30 7039 H 652.045 -0.0280202 -4.73592 0
M  V30 7040 H 652.469 -1.99366 -6.46979 0
M  V30 7041 H 657.111 -0.151822 -4.22527 0
M  V30 7042 H 654.829 -3.2945 -7.37895 0
M  V30 7043 H 658.415 -1.79652 -5.53368 0
M  V30 7044 H 657.295 -3.34672 -7.092 0
M  V30 7045 N 654.798 1.5699 0.138552 0
M  V30 7046 C 656.214 1.51844 0.491472 0
M  V30 7047 C 656.414 0.845063 1.82923 0
M  V30 7048 O 655.47 0.419143 2.48997 0
M  V30 7049 C 656.783 2.96615 0.493987 0
M  V30 7050 C 658.331 3.076 0.578913 0
M  V30 7051 C 658.806 4.53893 0.612009 0
M  V30 7052 N 660.297 4.5827 0.673997 0
M  V30 7053 C 661.032 5.68852 0.720729 0
M  V30 7054 N 660.528 6.88982 0.726292 0
M  V30 7055 N 662.321 5.56908 0.762253 0
M  V30 7056 H 654.472 1.99158 -0.738228 0
M  V30 7057 H 656.735 0.908693 -0.270149 0
M  V30 7058 H 656.441 3.49172 -0.420933 0
M  V30 7059 H 656.315 3.53017 1.32887 0
M  V30 7060 H 658.702 2.55057 1.48425 0
M  V30 7061 H 658.783 2.54227 -0.283286 0
M  V30 7062 H 658.427 5.07076 -0.289208 0
M  V30 7063 H 658.357 5.05057 1.49082 0
M  V30 7064 H 660.848 3.71793 0.676654 0
M  V30 7065 H 661.161 7.69014 0.764032 0
M  V30 7066 H 659.506 6.91526 0.69403 0
M  V30 7067 H 662.697 4.61969 0.755135 0
M  V30 7068 H 662.87 6.43102 0.795207 0
M  V30 7069 N 656.276 -0.40816 1.52223 0
M  V30 7070 C 657.553 -1.16807 1.56893 0
M  V30 7071 C 657.933 -2.08169 0.350537 0
M  V30 7072 O 657.281 -2.18684 -0.662536 0
M  V30 7073 C 657.491 -1.94451 2.8981 0
M  V30 7074 C 658.839 -2.50484 3.42845 0
M  V30 7075 O 659.863 -2.0463 2.91556 0
M  V30 7076 O 658.722 -3.34192 4.3241 0
M  V30 7077 H 655.816 -0.533382 0.632007 0
M  V30 7078 H 658.362 -0.414862 1.64551 0
M  V30 7079 H 657.134 -1.27527 3.69936 0
M  V30 7080 H 656.757 -2.76775 2.85449 0
M  V30 7081 N 657.755 -1.42862 -0.66545 0
M  V30 7082 C 658.703 -1.47319 -1.8 0
M  V30 7083 C 659.697 -0.347963 -1.65788 0
M  V30 7084 O 660.903 -0.521406 -1.72283 0
M  V30 7085 H 657.278 -0.461588 -0.593667 0
M  V30 7086 H 659.249 -2.42876 -1.7336 0
M  V30 7087 C 657.998 -1.40152 -3.18203 0
M  V30 7088 H 657.321 -2.26035 -3.2977 0
M  V30 7089 H 658.761 -1.47331 -3.9758 0
M  V30 7090 C 657.22 -0.117493 -3.36695 0
M  V30 7091 O 657.75 0.826058 -3.93115 0
M  V30 7092 N 655.956 -0.0316218 -2.90583 0
M  V30 7093 H 655.503 -0.800247 -2.44855 0
M  V30 7094 H 655.461 0.826835 -3.03333 0
M  V30 7095 N 659.233 0.902656 -1.29189 0
M  V30 7096 C 660.18 2.00643 -1.14066 0
M  V30 7097 C 661.15 1.66064 -0.0347756 0
M  V30 7098 O 662.335 1.8973 -0.201752 0
M  V30 7099 C 659.475 3.35214 -0.820104 0
M  V30 7100 C 658.588 3.82594 -2.00614 0
M  V30 7101 C 657.723 5.05727 -1.62522 0
M  V30 7102 C 656.762 5.45469 -2.77724 0
M  V30 7103 N 655.899 6.59789 -2.40048 0
M  V30 7104 H 660.739 2.1291 -2.08502 0
M  V30 7105 H 658.276 1.04271 -1.03759 0
M  V30 7106 H 660.234 4.12643 -0.614949 0
M  V30 7107 H 658.864 3.22682 0.0873452 0
M  V30 7108 H 657.916 3.01226 -2.32308 0
M  V30 7109 H 659.228 4.07999 -2.86946 0
M  V30 7110 H 658.382 5.90732 -1.38277 0
M  V30 7111 H 657.121 4.82155 -0.733333 0
M  V30 7112 H 656.126 4.59 -3.02653 0
M  V30 7113 H 657.351 5.71024 -3.67572 0
M  V30 7114 H 655.297 6.37826 -1.53343 0
M  V30 7115 H 655.214 6.84975 -3.19914 0
M  V30 7116 H 656.482 7.4807 -2.19116 0
M  V30 7117 N 660.711 1.11618 1.11262 0
M  V30 7118 C 662.122 0.881942 1.64556 0
M  V30 7119 C 662.473 -0.585442 1.87262 0
M  V30 7120 O 661.598 -1.44795 1.60821 0
M  V30 7121 C 662.193 1.59446 2.98935 0
M  V30 7122 C 660.752 1.40661 3.4913 0
M  V30 7123 C 659.899 1.63593 2.23903 0
M  V30 7124 H 662.85 1.27217 0.94877 0
M  V30 7125 H 662.871 1.04054 3.65996 0
M  V30 7126 H 662.383 2.66241 2.82378 0
M  V30 7127 H 660.484 0.360835 3.70849 0
M  V30 7128 H 660.597 2.15693 4.27801 0
M  V30 7129 H 658.961 1.05944 2.3162 0
M  V30 7130 H 659.744 2.71666 2.09886 0
M  V30 7131 N 662.189 -1.289 0.906776 0
M  V30 7132 C 663.139 -2.25122 0.361109 0
M  V30 7133 C 664.123 -1.52169 -0.52283 0
M  V30 7134 O 665.315 -1.73223 -0.363691 0
M  V30 7135 C 662.444 -3.40915 -0.403982 0
M  V30 7136 C 661.53 -4.21198 0.495279 0
M  V30 7137 N 661.921 -4.79636 1.60572 0
M  V30 7138 C 660.219 -4.45027 0.294372 0
M  V30 7139 C 660.92 -5.39977 2.16332 0
M  V30 7140 N 659.896 -5.23753 1.45546 0
M  V30 7141 H 663.698 -2.67869 1.20927 0
M  V30 7142 H 661.212 -1.43592 0.758632 0
M  V30 7143 H 663.209 -4.08922 -0.811695 0
M  V30 7144 H 661.869 -2.99703 -1.24932 0
M  V30 7145 H 662.88 -4.78209 1.98838 0
M  V30 7146 H 659.557 -4.14348 -0.512021 0
M  V30 7147 H 660.947 -5.96266 3.09704 0
M  V30 7148 N 663.667 -0.670007 -1.42649 0
M  V30 7149 C 664.617 0.0339546 -2.27975 0
M  V30 7150 C 665.601 0.778295 -1.40824 0
M  V30 7151 O 666.793 0.657997 -1.64315 0
M  V30 7152 C 663.922 0.987899 -3.28779 0
M  V30 7153 C 663.008 0.241153 -4.23414 0
M  V30 7154 N 663.399 -0.751392 -5.00188 0
M  V30 7155 C 661.697 0.480269 -4.43407 0
M  V30 7156 C 662.398 -1.19615 -5.69269 0
M  V30 7157 N 661.374 -0.527045 -5.41039 0
M  V30 7158 H 665.176 -0.727425 -2.84756 0
M  V30 7159 H 662.69 -0.498673 -1.54554 0
M  V30 7160 H 664.687 1.50716 -3.88703 0
M  V30 7161 H 663.347 1.74916 -2.73559 0
M  V30 7162 H 664.358 -1.13075 -5.05405 0
M  V30 7163 H 661.035 1.2214 -3.99234 0
M  V30 7164 H 662.425 -2.01836 -6.40868 0
M  V30 7165 N 665.145 1.52092 -0.413018 0
M  V30 7166 C 666.375 2.05974 0.160648 0
M  V30 7167 C 666.783 1.28267 1.39084 0
M  V30 7168 O 666.126 0.328805 1.80733 0
M  V30 7169 C 666.188 3.54918 0.572169 0
M  V30 7170 C 665.852 4.53705 -0.547826 0
M  V30 7171 C 666.849 5.00342 -1.41259 0
M  V30 7172 C 664.534 4.97089 -0.721627 0
M  V30 7173 C 666.528 5.89011 -2.43607 0
M  V30 7174 C 664.215 5.85554 -1.74841 0
M  V30 7175 C 665.213 6.3141 -2.60403 0
M  V30 7176 O 664.901 7.18123 -3.61323 0
M  V30 7177 H 664.633 0.675636 0.0221936 0
M  V30 7178 H 667.187 1.96931 -0.58373 0
M  V30 7179 H 665.417 3.61661 1.36889 0
M  V30 7180 H 667.106 3.91428 1.0742 0
M  V30 7181 H 667.872 4.67537 -1.28974 0
M  V30 7182 H 663.751 4.60954 -0.0652911 0
M  V30 7183 H 667.295 6.24725 -3.10425 0
M  V30 7184 H 663.192 6.17773 -1.87156 0
M  V30 7185 H 663.96 7.36244 -3.57613 0
M  V30 7186 N 666.623 0.143563 1.56945 0
M  V30 7187 C 667.848 -0.518701 2.00809 0
M  V30 7188 C 668.273 -1.5785 1.02298 0
M  V30 7189 O 667.631 -1.813 -0.0017839 0
M  V30 7190 C 667.679 -1.09929 3.43436 0
M  V30 7191 O 666.783 -2.21425 3.47915 0
M  V30 7192 H 666.124 -0.127215 0.6517 0
M  V30 7193 H 668.654 0.239283 2.03196 0
M  V30 7194 H 668.664 -1.4288 3.82164 0
M  V30 7195 H 667.339 -0.323162 4.14643 0
M  V30 7196 H 665.916 -1.89728 3.21026 0
M  V30 7197 N 668.101 -1.57061 -0.130224 0
M  V30 7198 C 669.011 -2.02802 -1.17934 0
M  V30 7199 C 670.027 -0.946378 -1.46013 0
M  V30 7200 O 671.203 -1.25708 -1.57351 0
M  V30 7201 C 668.268 -2.41368 -2.48882 0
M  V30 7202 C 667.329 -3.63561 -2.28301 0
M  V30 7203 C 666.562 -4.00279 -3.53005 0
M  V30 7204 O 666.785 -3.37463 -4.59864 0
M  V30 7205 O 665.719 -4.93441 -3.44673 0
M  V30 7206 H 669.545 -2.92394 -0.820958 0
M  V30 7207 H 667.13 -1.45475 -0.340197 0
M  V30 7208 H 669.012 -2.66958 -3.26054 0
M  V30 7209 H 667.687 -1.54926 -2.84217 0
M  V30 7210 H 666.594 -3.43136 -1.49025 0
M  V30 7211 H 667.927 -4.50673 -1.97875 0
M  V30 7212 N 669.579 0.400081 -1.52437 0
M  V30 7213 C 670.99 0.97851 -1.59003 0
M  V30 7214 C 671.341 1.91293 -0.436068 0
M  V30 7215 O 670.466 2.1183 0.442365 0
M  V30 7216 C 671.061 1.78145 -2.88184 0
M  V30 7217 C 669.62 2.30976 -2.97199 0
M  V30 7218 C 668.767 1.11212 -2.54022 0
M  V30 7219 H 671.718 0.180002 -1.57676 0
M  V30 7220 H 671.739 2.63968 -2.74046 0
M  V30 7221 H 671.251 1.1011 -3.72152 0
M  V30 7222 H 669.352 3.02355 -2.17744 0
M  V30 7223 H 669.465 2.61221 -4.01622 0
M  V30 7224 H 667.829 1.46882 -2.08081 0
M  V30 7225 H 668.612 0.447307 -3.40373 0
M  V30 7226 N 671.057 1.43213 0.657864 0
M  V30 7227 C 672.004 1.48011 1.77092 0
M  V30 7228 C 672.974 0.330291 1.62783 0
M  V30 7229 O 674.159 0.536787 1.83094 0
M  V30 7230 C 671.299 1.40461 3.15222 0
M  V30 7231 C 670.412 2.65612 3.40697 0
M  V30 7232 C 669.547 2.50083 4.68649 0
M  V30 7233 C 668.586 3.70525 4.87214 0
M  V30 7234 N 667.723 3.53835 6.0642 0
M  V30 7235 H 672.563 2.43121 1.72326 0
M  V30 7236 H 670.1 1.20687 0.841013 0
M  V30 7237 H 672.058 1.34079 3.95068 0
M  V30 7238 H 670.688 0.489359 3.19069 0
M  V30 7239 H 669.74 2.82292 2.54982 0
M  V30 7240 H 671.052 3.5509 3.50303 0
M  V30 7241 H 670.206 2.41383 5.56614 0
M  V30 7242 H 668.945 1.58121 4.61356 0
M  V30 7243 H 667.95 3.79639 3.97686 0
M  V30 7244 H 669.175 4.63489 4.96341 0
M  V30 7245 H 667.121 2.64604 6.00267 0
M  V30 7246 H 667.038 4.36912 6.16963 0
M  V30 7247 H 668.306 3.48978 6.97019 0
M  V30 7248 N 672.536 -0.895792 1.29666 0
M  V30 7249 C 673.466 -2.01673 1.17688 0
M  V30 7250 C 674.447 -1.69955 0.0701317 0
M  V30 7251 O 675.632 -1.9258 0.250289 0
M  V30 7252 C 672.762 -3.36568 0.856681 0
M  V30 7253 C 671.716 -3.82509 1.92017 0
M  V30 7254 C 671.042 -5.14574 1.4532 0
M  V30 7255 C 672.342 -4.02409 3.32963 0
M  V30 7256 H 674.036 -2.11953 2.11463 0
M  V30 7257 H 671.582 -1.01839 1.01807 0
M  V30 7258 H 673.535 -4.14498 0.759577 0
M  V30 7259 H 672.259 -3.26391 -0.116763 0
M  V30 7260 H 670.918 -3.068 2.00673 0
M  V30 7261 H 670.566 -5.00815 0.468325 0
M  V30 7262 H 670.266 -5.46283 2.16447 0
M  V30 7263 H 671.79 -5.9504 1.36968 0
M  V30 7264 H 673.204 -4.70808 3.27127 0
M  V30 7265 H 671.601 -4.45478 4.02082 0
M  V30 7266 H 672.671 -3.06616 3.75652 0
M  V30 7267 N 674.014 -1.12206 -1.10668 0
M  V30 7268 C 675.263 -0.870595 -1.81944 0
M  V30 7269 C 675.576 0.605447 -1.85994 0
M  V30 7270 O 676.782 0.973433 -2.53449 0
M  V30 7271 C 675.238 -1.50783 -3.26791 0
M  V30 7272 C 674.846 -3.01849 -3.31046 0
M  V30 7273 C 676.59 -1.33653 -4.02911 0
M  V30 7274 C 674.497 -3.58518 -4.70339 0
M  V30 7275 H 673.427 -0.322043 -0.681765 0
M  V30 7276 H 676.078 -1.34827 -1.24475 0
M  V30 7277 H 674.46 -0.957825 -3.84242 0
M  V30 7278 H 675.634 -3.63321 -2.83433 0
M  V30 7279 H 673.949 -3.18346 -2.68411 0
M  V30 7280 H 676.546 -1.73416 -5.05797 0
M  V30 7281 H 676.889 -0.279949 -4.15358 0
M  V30 7282 H 677.422 -1.85562 -3.51868 0
M  V30 7283 H 674.161 -4.63925 -4.63091 0
M  V30 7284 H 673.681 -3.01819 -5.18329 0
M  V30 7285 H 675.36 -3.57434 -5.39305 0
M  V30 7286 N 675.492 1.28418 -0.913599 0
M  V30 7287 C 676.422 2.29713 -0.418847 0
M  V30 7288 C 677.403 1.62165 0.513469 0
M  V30 7289 O 678.588 1.89576 0.421235 0
M  V30 7290 C 675.718 3.45612 0.342042 0
M  V30 7291 C 674.672 4.25056 -0.501123 0
M  V30 7292 C 673.998 5.3329 0.388097 0
M  V30 7293 C 675.298 4.91814 -1.75831 0
M  V30 7294 H 676.992 2.71346 -1.26538 0
M  V30 7295 H 674.538 1.30446 -0.609903 0
M  V30 7296 H 676.491 4.15562 0.699 0
M  V30 7297 H 675.215 3.02858 1.22248 0
M  V30 7298 H 673.874 3.56833 -0.840598 0
M  V30 7299 H 673.522 4.8678 1.26707 0
M  V30 7300 H 673.222 5.87347 -0.172459 0
M  V30 7301 H 674.746 6.06088 0.74094 0
M  V30 7302 H 676.16 5.54126 -1.47026 0
M  V30 7303 H 674.557 5.55866 -2.26126 0
M  V30 7304 H 675.627 4.16313 -2.4862 0
M  V30 7305 N 676.97 0.677563 1.42291 0
M  V30 7306 C 678.247 0.129803 1.95169 0
M  V30 7307 C 678.627 -1.35605 1.61786 0
M  V30 7308 O 677.975 -2.09361 0.915444 0
M  V30 7309 C 678.185 0.401889 3.46678 0
M  V30 7310 C 679.533 0.319889 4.23393 0
M  V30 7311 O 680.557 0.33579 3.54614 0
M  V30 7312 O 679.416 0.264459 5.4586 0
M  V30 7313 H 676.51 0.00447433 0.826988 0
M  V30 7314 H 679.056 0.752483 1.52105 0
M  V30 7315 H 677.828 1.43108 3.64192 0
M  V30 7316 H 677.451 -0.252662 3.96796 0
M  V30 7317 N 678.448 -1.51871 0.421078 0
M  V30 7318 C 679.378 -2.30231 -0.389363 0
M  V30 7319 C 680.359 -1.34946 -1.03555 0
M  V30 7320 O 681.544 -1.63859 -1.04229 0
M  V30 7321 C 678.674 -3.13247 -1.49979 0
M  V30 7322 C 677.628 -4.16677 -0.977966 0
M  V30 7323 C 676.954 -4.88112 -2.1829 0
M  V30 7324 C 678.254 -5.22295 -0.0236775 0
M  V30 7325 H 679.948 -2.98229 0.264524 0
M  V30 7326 H 677.494 -1.43424 0.12866 0
M  V30 7327 H 679.447 -3.66838 -2.07383 0
M  V30 7328 H 678.171 -2.4304 -2.18173 0
M  V30 7329 H 676.83 -3.64114 -0.426245 0
M  V30 7330 H 676.478 -4.14423 -2.85066 0
M  V30 7331 H 676.178 -5.58041 -1.84021 0
M  V30 7332 H 677.702 -5.44521 -2.76278 0
M  V30 7333 H 679.116 -5.71055 -0.506899 0
M  V30 7334 H 677.513 -5.99656 0.230782 0
M  V30 7335 H 678.583 -4.76131 0.917999 0
M  V30 7336 N 679.926 -0.151884 -1.56866 0
M  V30 7337 C 681.151 0.508044 -2.01081 0
M  V30 7338 C 681.576 1.57306 -1.03134 0
M  V30 7339 O 680.934 1.81298 -0.0078309 0
M  V30 7340 C 680.982 1.08106 -3.44014 0
M  V30 7341 O 680.086 2.19577 -3.49084 0
M  V30 7342 H 679.427 0.123757 -0.652365 0
M  V30 7343 H 681.957 -0.250055 -2.03066 0
M  V30 7344 H 681.967 1.40851 -3.82916 0
M  V30 7345 H 680.642 0.301168 -4.14808 0
M  V30 7346 H 679.219 1.88023 -3.22027 0
M  V30 7347 N 681.404 1.57128 0.121893 0
M  V30 7348 C 682.354 1.96556 1.15541 0
M  V30 7349 C 683.338 0.840147 1.37224 0
M  V30 7350 O 684.53 1.10382 1.38365 0
M  V30 7351 C 681.659 2.37097 2.48274 0
M  V30 7352 C 680.745 3.56265 2.30078 0
M  V30 7353 N 681.136 4.72041 1.81688 0
M  V30 7354 C 679.434 3.61841 2.60744 0
M  V30 7355 C 680.135 5.54075 1.77132 0
M  V30 7356 N 679.111 4.96483 2.21371 0
M  V30 7357 H 682.913 2.83531 0.77378 0
M  V30 7358 H 680.427 1.59019 0.329672 0
M  V30 7359 H 682.424 2.6356 3.2302 0
M  V30 7360 H 681.084 1.51486 2.87197 0
M  V30 7361 H 682.095 4.95313 1.51278 0
M  V30 7362 H 678.772 2.8683 3.03373 0
M  V30 7363 H 680.162 6.56939 1.40998 0
M  V30 7364 N 682.882 -0.391992 1.52647 0
M  V30 7365 C 684.128 -1.13563 1.68745 0
M  V30 7366 C 684.483 -1.87745 0.420685 0
M  V30 7367 O 683.776 -1.82434 -0.585529 0
M  V30 7368 C 683.97 -2.14401 2.85949 0
M  V30 7369 C 683.799 -1.50124 4.23902 0
M  V30 7370 C 682.569 -1.2666 4.89168 0
M  V30 7371 C 684.767 -0.952933 5.05395 0
M  V30 7372 N 682.749 -0.584555 6.11111 0
M  V30 7373 C 684.12 -0.398784 6.18716 0
M  V30 7374 C 686.175 -0.849053 4.90607 0
M  V30 7375 C 684.878 0.249084 7.18869 0
M  V30 7376 C 686.904 -0.215011 5.91009 0
M  V30 7377 C 686.266 0.328382 7.03634 0
M  V30 7378 H 682.365 -0.401628 0.670984 0
M  V30 7379 H 684.949 -0.425585 1.89992 0
M  V30 7380 H 683.12 -2.82746 2.66288 0
M  V30 7381 H 684.852 -2.8125 2.90999 0
M  V30 7382 H 681.607 -1.54078 4.47836 0
M  V30 7383 H 682.031 -0.259663 6.76502 0
M  V30 7384 H 686.673 -1.25497 4.03745 0
M  V30 7385 H 684.391 0.667019 8.05342 0
M  V30 7386 H 687.977 -0.135921 5.81641 0
M  V30 7387 H 686.857 0.811257 7.79992 0
M  V30 7388 N 684.36 -1.4356 -0.65026 0
M  V30 7389 C 685.307 -1.48948 -1.76304 0
M  V30 7390 C 686.277 -0.338919 -1.62605 0
M  V30 7391 O 687.462 -0.54649 -1.82806 0
M  V30 7392 C 684.602 -1.42131 -3.14472 0
M  V30 7393 C 683.715 -2.67415 -3.39284 0
M  V30 7394 C 682.85 -2.52565 -4.67316 0
M  V30 7395 C 681.889 -3.73103 -4.85243 0
M  V30 7396 N 681.026 -3.57046 -6.04535 0
M  V30 7397 H 685.866 -2.44032 -1.71034 0
M  V30 7398 H 683.403 -1.21131 -0.834601 0
M  V30 7399 H 685.361 -1.36172 -3.94351 0
M  V30 7400 H 683.991 -0.506273 -3.18805 0
M  V30 7401 H 683.043 -2.8364 -2.53481 0
M  V30 7402 H 684.355 -3.56943 -3.48415 0
M  V30 7403 H 683.509 -2.44331 -5.55326 0
M  V30 7404 H 682.248 -1.60566 -4.60511 0
M  V30 7405 H 681.253 -3.81743 -3.95667 0
M  V30 7406 H 682.478 -4.66115 -4.93876 0
M  V30 7407 H 680.424 -2.67783 -5.98856 0
M  V30 7408 H 680.341 -4.40178 -6.14638 0
M  V30 7409 H 681.609 -3.52669 -6.95158 0
M  V30 7410 N 685.838 0.888903 -1.30139 0
M  V30 7411 C 686.77 1.99972 -1.11999 0
M  V30 7412 C 687.783 1.62673 -0.0643619 0
M  V30 7413 O 688.972 1.75788 -0.309983 0
M  V30 7414 C 686.072 3.31904 -0.685059 0
M  V30 7415 C 685.245 3.97665 -1.82158 0
M  V30 7416 C 684.304 5.07894 -1.37585 0
M  V30 7417 O 683.33 5.2974 -2.08241 0
M  V30 7418 N 684.532 5.7995 -0.252697 0
M  V30 7419 H 687.297 2.16085 -2.07671 0
M  V30 7420 H 684.858 1.06175 -1.22223 0
M  V30 7421 H 686.85 4.03005 -0.369964 0
M  V30 7422 H 685.42 3.12084 0.179507 0
M  V30 7423 H 684.64 3.19787 -2.305 0
M  V30 7424 H 685.928 4.3834 -2.58332 0
M  V30 7425 H 685.326 5.647 0.336141 0
M  V30 7426 H 683.883 6.518 0.00296813 0
M  V30 7427 N 687.317 1.12792 1.10072 0
M  V30 7428 C 688.28 0.802264 2.14701 0
M  V30 7429 C 689.28 -0.18515 1.59731 0
M  V30 7430 O 690.47 0.041109 1.74151 0
M  V30 7431 C 687.602 0.19285 3.40354 0
M  V30 7432 H 688.795 1.72932 2.45019 0
M  V30 7433 H 686.348 0.931662 1.25498 0
M  V30 7434 H 687.083 -0.743748 3.15656 0
M  V30 7435 H 686.868 0.903827 3.81541 0
M  V30 7436 H 688.358 -0.0183704 4.17596 0
M  V30 7437 N 688.795 -1.27931 0.920396 0
M  V30 7438 C 689.758 -2.25345 0.41858 0
M  V30 7439 C 690.758 -1.54116 -0.458798 0
M  V30 7440 O 691.948 -1.72235 -0.260912 0
M  V30 7441 C 689.08 -3.38556 -0.399104 0
M  V30 7442 H 690.273 -2.71251 1.27918 0
M  V30 7443 H 687.826 -1.39728 0.700406 0
M  V30 7444 H 688.561 -2.98021 -1.27882 0
M  V30 7445 H 688.346 -3.91426 0.229863 0
M  V30 7446 H 689.836 -4.10976 -0.740817 0
M  V30 7447 N 690.273 -0.685099 -1.4193 0
M  V30 7448 C 691.521 -0.21124 -2.00993 0
M  V30 7449 C 691.842 1.18985 -1.54491 0
M  V30 7450 O 691.112 1.8009 -0.771 0
M  V30 7451 H 689.692 -0.0751059 -0.743215 0
M  V30 7452 H 692.354 -0.883915 -1.73704 0
M  V30 7453 H 691.45 -0.220513 -3.1132 0
M  V30 7454 N 691.751 1.51645 -0.429126 0
M  V30 7455 C 692.714 2.26116 0.374726 0
M  V30 7456 C 693.714 1.29242 0.956714 0
M  V30 7457 O 694.904 1.53022 0.832452 0
M  V30 7458 C 692.036 3.04669 1.52937 0
M  V30 7459 H 693.229 2.9861 -0.277818 0
M  V30 7460 H 690.782 1.55236 -0.182097 0
M  V30 7461 H 691.517 2.36571 2.21821 0
M  V30 7462 H 691.302 3.75814 1.11833 0
M  V30 7463 H 692.792 3.61102 2.09751 0
M  V30 7464 N 693.229 0.160201 1.56784 0
M  V30 7465 C 694.64 -0.358417 1.83227 0
M  V30 7466 C 694.991 -1.63831 1.07952 0
M  V30 7467 O 694.116 -2.13885 0.328995 0
M  V30 7468 C 694.711 -0.657058 3.32368 0
M  V30 7469 C 693.27 -1.12015 3.59346 0
M  V30 7470 C 692.417 -0.15015 2.76893 0
M  V30 7471 H 695.368 0.384669 1.53967 0
M  V30 7472 H 695.389 -1.51033 3.49241 0
M  V30 7473 H 694.901 0.274647 3.87127 0
M  V30 7474 H 693.002 -2.06734 3.09987 0
M  V30 7475 H 693.115 -1.037 4.67743 0
M  V30 7476 H 691.479 -0.645361 2.46388 0
M  V30 7477 H 692.262 0.775379 3.34429 0
M  V30 7478 N 694.707 -1.5719 -0.113559 0
M  V30 7479 C 696.118 -1.74259 -0.670116 0
M  V30 7480 C 696.469 -0.779694 -1.80042 0
M  V30 7481 O 695.594 0.0461353 -2.16351 0
M  V30 7482 C 696.189 -3.15981 -1.22236 0
M  V30 7483 C 694.748 -3.34537 -1.72516 0
M  V30 7484 C 693.895 -2.70116 -0.627098 0
M  V30 7485 H 696.846 -1.58301 0.112396 0
M  V30 7486 H 696.867 -3.17832 -2.09197 0
M  V30 7487 H 696.379 -3.86038 -0.39949 0
M  V30 7488 H 694.48 -2.6953 -2.57263 0
M  V30 7489 H 694.593 -4.42737 -1.83086 0
M  V30 7490 H 692.957 -2.31501 -1.06204 0
M  V30 7491 H 693.74 -3.42802 0.184889 0
M  V30 7492 N 696.185 0.383891 -1.52853 0
M  V30 7493 C 697.413 1.1495 -1.7203 0
M  V30 7494 C 697.828 1.83578 -0.440957 0
M  V30 7495 O 697.185 1.72872 0.584925 0
M  V30 7496 C 697.236 2.19368 -2.87333 0
M  V30 7497 O 696.957 1.53536 -4.10315 0
M  V30 7498 C 698.458 3.08616 -3.18231 0
M  V30 7499 H 695.678 0.344445 -0.575846 0
M  V30 7500 H 698.222 0.448397 -1.99524 0
M  V30 7501 H 696.377 2.85105 -2.62286 0
M  V30 7502 H 696.791 2.2296 -4.74752 0
M  V30 7503 H 698.265 3.77902 -4.02361 0
M  V30 7504 H 698.742 3.72409 -2.32826 0
M  V30 7505 H 699.348 2.48518 -3.45136 0
M  V30 7506 N 697.663 1.43903 0.642637 0
M  V30 7507 C 698.626 1.49538 1.73698 0
M  V30 7508 C 699.626 0.378776 1.56275 0
M  V30 7509 O 700.816 0.64095 1.6198 0
M  V30 7510 C 697.948 1.35821 3.12675 0
M  V30 7511 H 699.141 2.47008 1.70079 0
M  V30 7512 H 696.694 1.30824 0.85526 0
M  V30 7513 H 697.429 0.393994 3.21898 0
M  V30 7514 H 697.214 2.16776 3.26727 0
M  V30 7515 H 698.704 1.4272 3.92455 0
M  V30 7516 N 699.141 -0.881989 1.30609 0
M  V30 7517 C 700.369 -1.66711 1.22536 0
M  V30 7518 C 700.784 -1.87614 -0.2113 0
M  V30 7519 O 700.141 -1.42576 -1.13923 0
M  V30 7520 C 700.192 -3.04182 1.95335 0
M  V30 7521 O 699.913 -2.8422 3.33393 0
M  V30 7522 C 701.414 -3.98617 1.93956 0
M  V30 7523 H 698.634 -0.520124 0.423925 0
M  V30 7524 H 701.178 -1.10174 1.72285 0
M  V30 7525 H 699.333 -3.57442 1.49378 0
M  V30 7526 H 699.747 -3.71452 3.70302 0
M  V30 7527 H 701.221 -4.92433 2.49426 0
M  V30 7528 H 701.698 -4.29473 0.919198 0
M  V30 7529 H 702.304 -3.51292 2.39738 0
M  V30 7530 N 700.619 -1.13374 -1.09472 0
M  V30 7531 C 701.867 -0.893422 -1.8128 0
M  V30 7532 C 702.188 0.582029 -1.86111 0
M  V30 7533 O 701.458 1.42305 -1.34633 0
M  V30 7534 H 700.038 -0.327543 -0.67136 0
M  V30 7535 H 702.7 -1.43018 -1.32408 0
M  V30 7536 H 701.796 -1.28374 -2.84476 0
M  V30 7537 N 702.098 1.27442 -0.927168 0
M  V30 7538 C 703.028 2.29256 -0.443188 0
M  V30 7539 C 704.009 1.62701 0.49624 0
M  V30 7540 O 705.194 1.90013 0.401105 0
M  V30 7541 C 702.324 3.45955 0.305366 0
M  V30 7542 C 701.278 4.24501 -0.546178 0
M  V30 7543 C 700.604 5.33671 0.331512 0
M  V30 7544 C 701.904 4.89921 -1.81037 0
M  V30 7545 H 703.598 2.69988 -1.29409 0
M  V30 7546 H 701.144 1.29792 -0.623705 0
M  V30 7547 H 703.097 4.1628 0.654885 0
M  V30 7548 H 701.821 3.04138 1.19029 0
M  V30 7549 H 700.48 3.55921 -0.878398 0
M  V30 7550 H 700.128 4.88096 1.21537 0
M  V30 7551 H 699.828 5.87131 -0.234746 0
M  V30 7552 H 701.352 6.0684 0.676614 0
M  V30 7553 H 702.766 5.52536 -1.52895 0
M  V30 7554 H 701.163 5.53436 -2.32009 0
M  V30 7555 H 702.233 4.13652 -2.53021 0
M  V30 7556 N 703.576 0.692616 1.41565 0
M  V30 7557 C 704.539 0.0344174 2.29174 0
M  V30 7558 C 705.539 -0.710961 1.44229 0
M  V30 7559 O 706.729 -0.546293 1.65412 0
M  V30 7560 C 703.861 -0.961682 3.27054 0
M  V30 7561 H 705.054 0.805755 2.88873 0
M  V30 7562 H 702.607 0.455947 1.49502 0
M  V30 7563 H 703.342 -1.76089 2.72329 0
M  V30 7564 H 703.127 -0.430375 3.89731 0
M  V30 7565 H 704.617 -1.4201 3.92712 0
M  V30 7566 N 705.054 -1.51416 0.437162 0
M  V30 7567 C 706.331 -1.94682 -0.189292 0
M  V30 7568 C 706.711 -1.37581 -1.60108 0
M  V30 7569 O 706.059 -0.562815 -2.2146 0
M  V30 7570 C 706.269 -3.48599 -0.167201 0
M  V30 7571 C 707.617 -4.2296 -0.372856 0
M  V30 7572 O 708.641 -3.55354 -0.245323 0
M  V30 7573 O 707.5 -5.42895 -0.626693 0
M  V30 7574 H 704.594 -0.816708 -0.130063 0
M  V30 7575 H 707.14 -1.62316 0.495128 0
M  V30 7576 H 705.912 -3.82616 0.81981 0
M  V30 7577 H 705.535 -3.87406 -0.894537 0
M  V30 7578 N 706.532 -0.168513 -1.56696 0
M  V30 7579 C 707.76 0.483503 -2.01171 0
M  V30 7580 C 708.175 1.56994 -1.04872 0
M  V30 7581 O 707.532 1.82434 -0.0491337 0
M  V30 7582 C 707.583 1.0644 -3.45475 0
M  V30 7583 O 707.304 0.0213375 -4.38095 0
M  V30 7584 C 708.805 1.79493 -4.05336 0
M  V30 7585 H 706.025 0.124002 -0.659443 0
M  V30 7586 H 708.569 -0.269419 -2.02717 0
M  V30 7587 H 706.724 1.76784 -3.44712 0
M  V30 7588 H 707.138 0.449837 -5.22567 0
M  V30 7589 H 708.612 2.15401 -5.08238 0
M  V30 7590 H 709.089 2.68889 -3.47269 0
M  V30 7591 H 709.695 1.13798 -4.09793 0
M  V30 7592 N 708.01 1.57248 0.105221 0
M  V30 7593 C 709.258 1.85204 0.808951 0
M  V30 7594 C 709.579 0.75574 1.7976 0
M  V30 7595 O 708.849 -0.218984 1.94672 0
M  V30 7596 H 707.429 0.683346 0.301739 0
M  V30 7597 H 710.091 1.94695 0.0892605 0
M  V30 7598 H 709.187 2.81595 1.34575 0
M  V30 7599 N 709.488 -0.375779 1.53054 0
M  V30 7600 C 710.451 -1.44254 1.7811 0
M  V30 7601 C 711.451 -1.47018 0.651328 0
M  V30 7602 O 712.641 -1.47957 0.919472 0
M  V30 7603 C 709.773 -2.8345 1.89391 0
M  V30 7604 H 710.966 -1.23316 2.73374 0
M  V30 7605 H 708.519 -0.608312 1.43977 0
M  V30 7606 H 709.254 -3.09716 0.961589 0
M  V30 7607 H 709.039 -2.82844 2.71555 0
M  V30 7608 H 710.529 -3.60722 2.10404 0
M  V30 7609 N 710.966 -1.44241 -0.634997 0
M  V30 7610 C 712.382 -1.28043 -0.952742 0
M  V30 7611 C 712.582 -0.21338 -2.00367 0
M  V30 7612 O 711.638 0.402042 -2.49279 0
M  V30 7613 C 712.951 -2.65076 -1.41968 0
M  V30 7614 C 714.499 -2.72755 -1.53537 0
M  V30 7615 C 714.974 -4.10249 -2.03616 0
M  V30 7616 N 716.465 -4.12406 -2.10892 0
M  V30 7617 C 717.2 -5.15641 -2.50803 0
M  V30 7618 N 716.696 -6.29239 -2.89879 0
M  V30 7619 N 718.489 -5.02995 -2.50903 0
M  V30 7620 H 710.64 -2.12315 0.060098 0
M  V30 7621 H 712.903 -0.947326 -0.0357325 0
M  V30 7622 H 712.609 -3.44213 -0.721804 0
M  V30 7623 H 712.483 -2.91704 -2.39141 0
M  V30 7624 H 714.87 -1.93939 -2.22422 0
M  V30 7625 H 714.951 -2.49872 -0.547496 0
M  V30 7626 H 714.595 -4.8954 -1.35327 0
M  V30 7627 H 714.525 -4.30507 -3.03268 0
M  V30 7628 H 717.016 -3.30417 -1.83393 0
M  V30 7629 H 717.329 -7.03827 -3.19135 0
M  V30 7630 H 715.674 -6.32683 -2.8764 0
M  V30 7631 H 718.865 -4.13306 -2.19763 0
M  V30 7632 H 719.038 -5.83574 -2.81683 0
M  V30 7633 N 712.444 0.87505 -1.31075 0
M  V30 7634 C 713.354 2.01441 -1.20244 0
M  V30 7635 C 714.37 1.73584 -0.120227 0
M  V30 7636 O 715.546 1.98559 -0.337063 0
M  V30 7637 C 712.611 3.34675 -0.905199 0
M  V30 7638 C 711.672 3.75889 -2.0738 0
M  V30 7639 C 710.905 5.02764 -1.79064 0
M  V30 7640 O 711.128 5.65795 -0.723318 0
M  V30 7641 O 710.062 5.40623 -2.64594 0
M  V30 7642 H 713.888 2.13509 -2.1598 0
M  V30 7643 H 711.473 1.00257 -1.10765 0
M  V30 7644 H 713.355 4.1458 -0.755057 0
M  V30 7645 H 712.03 3.23692 0.0221695 0
M  V30 7646 H 710.937 2.96645 -2.27931 0
M  V30 7647 H 712.27 3.91489 -2.98324 0
M  V30 7648 N 713.922 1.13953 1.08869 0
M  V30 7649 C 715.199 0.815768 1.77777 0
M  V30 7650 C 715.579 -0.691624 1.99449 0
M  V30 7651 O 714.927 -1.63085 1.60049 0
M  V30 7652 C 715.137 1.60916 3.09689 0
M  V30 7653 C 716.485 1.80549 3.84301 0
M  V30 7654 O 717.509 1.57562 3.19457 0
M  V30 7655 O 716.368 2.18946 5.00724 0
M  V30 7656 H 713.462 0.298445 0.771271 0
M  V30 7657 H 716.008 1.24446 1.15374 0
M  V30 7658 H 714.78 2.6333 2.89435 0
M  V30 7659 H 714.403 1.17578 3.79817 0
M  V30 7660 N 715.4 -1.26948 0.933913 0
M  V30 7661 C 716.31 -2.30366 0.443671 0
M  V30 7662 C 717.326 -1.67284 -0.478745 0
M  V30 7663 O 718.502 -1.98156 -0.360043 0
M  V30 7664 C 715.567 -3.45485 -0.289974 0
M  V30 7665 C 714.628 -4.24069 0.668114 0
M  V30 7666 C 713.861 -5.33691 -0.0306138 0
M  V30 7667 O 714.084 -5.5656 -1.24888 0
M  V30 7668 O 713.018 -5.98441 0.644384 0
M  V30 7669 H 716.844 -2.74349 1.30254 0
M  V30 7670 H 714.429 -1.32012 0.699506 0
M  V30 7671 H 716.311 -4.15486 -0.70353 0
M  V30 7672 H 714.986 -3.03546 -1.12435 0
M  V30 7673 H 713.893 -3.56579 1.13147 0
M  V30 7674 H 715.226 -4.69739 1.46989 0
M  V30 7675 N 716.879 -0.700114 -1.41195 0
M  V30 7676 C 718.29 -0.307249 -1.84154 0
M  V30 7677 C 718.641 1.15539 -1.58572 0
M  V30 7678 O 717.766 1.88744 -1.05852 0
M  V30 7679 C 718.361 -0.550872 -3.34292 0
M  V30 7680 C 716.92 -0.211877 -3.75803 0
M  V30 7681 C 716.067 -0.830915 -2.64558 0
M  V30 7682 H 719.018 -0.900431 -1.30683 0
M  V30 7683 H 719.039 0.188954 -3.80031 0
M  V30 7684 H 718.551 -1.61548 -3.5288 0
M  V30 7685 H 716.652 0.848283 -3.62815 0
M  V30 7686 H 716.765 -0.67007 -4.74391 0
M  V30 7687 H 715.129 -0.260155 -2.53368 0
M  V30 7688 H 715.912 -1.89948 -2.85963 0
M  V30 7689 N 718.357 1.51182 -0.445186 0
M  V30 7690 C 719.32 2.26501 0.350722 0
M  V30 7691 C 720.32 1.3025 0.942952 0
M  V30 7692 O 721.51 1.53897 0.816175 0
M  V30 7693 C 718.642 3.06274 1.49697 0
M  V30 7694 H 719.835 2.98299 -0.309474 0
M  V30 7695 H 717.388 1.55034 -0.198551 0
M  V30 7696 H 718.123 2.38911 2.19299 0
M  V30 7697 H 717.908 3.76979 1.0784 0
M  V30 7698 H 719.398 3.63306 2.05909 0
M  V30 7699 N 719.835 0.176821 1.56605 0
M  V30 7700 C 721.06 -0.47599 2.01864 0
M  V30 7701 C 721.485 -1.55645 1.05623 0
M  V30 7702 O 720.843 -1.81263 0.0366729 0
M  V30 7703 C 720.891 -1.02619 3.4569 0
M  V30 7704 O 719.995 -2.13996 3.52533 0
M  V30 7705 H 719.336 -0.113363 0.654251 0
M  V30 7706 H 721.866 0.28233 2.02643 0
M  V30 7707 H 721.876 -1.34742 3.85109 0
M  V30 7708 H 720.551 -0.235138 4.15235 0
M  V30 7709 H 719.128 -1.82876 3.24978 0
M  V30 7710 N 721.313 -1.57302 -0.09688 0
M  V30 7711 C 722.243 -2.0497 -1.11846 0
M  V30 7712 C 723.224 -0.938278 -1.41882 0
M  V30 7713 O 724.409 -1.20943 -1.51942 0
M  V30 7714 C 721.539 -2.47264 -2.43881 0
M  V30 7715 C 720.493 -3.62053 -2.28257 0
M  V30 7716 C 719.819 -3.90318 -3.65453 0
M  V30 7717 C 721.119 -4.93005 -1.72461 0
M  V30 7718 H 722.813 -2.90567 -0.721888 0
M  V30 7719 H 720.359 -1.39786 -0.345803 0
M  V30 7720 H 722.312 -2.7922 -3.15617 0
M  V30 7721 H 721.036 -1.58664 -2.8547 0
M  V30 7722 H 719.695 -3.30341 -1.58967 0
M  V30 7723 H 719.343 -2.98889 -4.04567 0
M  V30 7724 H 719.043 -4.67597 -3.55846 0
M  V30 7725 H 720.567 -4.24747 -4.3866 0
M  V30 7726 H 721.981 -5.23354 -2.34036 0
M  V30 7727 H 720.378 -5.74436 -1.73618 0
M  V30 7728 H 721.448 -4.80053 -0.683898 0
M  V30 7729 N 722.791 0.367657 -1.53252 0
M  V30 7730 C 724.038 1.11052 -1.69333 0
M  V30 7731 C 724.366 1.89363 -0.444064 0
M  V30 7732 O 723.621 1.87094 0.573953 0
M  V30 7733 C 723.92 2.09825 -2.89324 0
M  V30 7734 C 723.586 1.4801 -4.25915 0
M  V30 7735 C 722.248 1.30879 -4.6306 0
M  V30 7736 C 724.6 1.03268 -5.10867 0
M  V30 7737 C 721.928 0.675868 -5.82794 0
M  V30 7738 C 724.28 0.41377 -6.31245 0
M  V30 7739 C 722.944 0.229939 -6.67104 0
M  V30 7740 H 722.214 0.406367 -0.619634 0
M  V30 7741 H 724.861 0.392558 -1.87433 0
M  V30 7742 H 723.166 2.87917 -2.65728 0
M  V30 7743 H 724.863 2.67252 -2.98961 0
M  V30 7744 H 721.453 1.62336 -3.96667 0
M  V30 7745 H 725.637 1.15297 -4.82722 0
M  V30 7746 H 720.893 0.521833 -6.09169 0
M  V30 7747 H 725.067 0.0588768 -6.96375 0
M  V30 7748 H 722.694 -0.262562 -7.59746 0
M  V30 7749 N 724.269 1.44576 0.627338 0
M  V30 7750 C 725.199 1.54562 1.75022 0
M  V30 7751 C 726.18 0.398378 1.65369 0
M  V30 7752 O 727.365 0.61899 1.84071 0
M  V30 7753 C 724.495 1.49309 3.13567 0
M  V30 7754 C 723.449 2.62549 3.38012 0
M  V30 7755 C 722.775 2.42348 4.76625 0
M  V30 7756 C 724.075 4.04678 3.30202 0
M  V30 7757 H 725.769 2.4855 1.66922 0
M  V30 7758 H 723.315 1.19624 0.801636 0
M  V30 7759 H 725.268 1.54895 3.919 0
M  V30 7760 H 723.992 0.518392 3.2246 0
M  V30 7761 H 722.651 2.56358 2.62061 0
M  V30 7762 H 722.299 1.43062 4.82226 0
M  V30 7763 H 721.999 3.18273 4.93939 0
M  V30 7764 H 723.523 2.49758 5.57183 0
M  V30 7765 H 724.937 4.12217 3.98435 0
M  V30 7766 H 723.334 4.80836 3.5905 0
M  V30 7767 H 724.404 4.2798 2.27949 0
M  V30 7768 N 725.747 -0.868086 1.31537 0
M  V30 7769 C 726.657 -2.00801 1.21311 0
M  V30 7770 C 727.673 -1.73518 0.129431 0
M  V30 7771 O 728.849 -1.98378 0.347588 0
M  V30 7772 C 725.914 -3.3419 0.922935 0
M  V30 7773 C 724.975 -3.74783 2.0937 0
M  V30 7774 C 724.208 -5.01807 1.81728 0
M  V30 7775 O 724.431 -5.65404 0.753313 0
M  V30 7776 O 723.365 -5.39213 2.67457 0
M  V30 7777 H 727.191 -2.12361 2.17109 0
M  V30 7778 H 724.776 -0.996684 1.11295 0
M  V30 7779 H 726.658 -4.14174 0.777033 0
M  V30 7780 H 725.333 -3.237 -0.00500301 0
M  V30 7781 H 724.24 -2.95432 2.29501 0
M  V30 7782 H 725.573 -3.89902 3.00396 0
M  V30 7783 N 727.225 -1.14528 -1.08264 0
M  V30 7784 C 728.474 -0.908992 -1.80056 0
M  V30 7785 C 728.787 0.565859 -1.87236 0
M  V30 7786 O 729.993 0.919454 -2.55457 0
M  V30 7787 C 728.449 -1.57681 -3.23519 0
M  V30 7788 C 728.057 -3.08803 -3.24569 0
M  V30 7789 C 729.801 -1.4217 -3.99985 0
M  V30 7790 C 727.708 -3.68414 -4.62629 0
M  V30 7791 H 726.638 -0.336432 -0.674781 0
M  V30 7792 H 729.289 -1.37437 -1.21587 0
M  V30 7793 H 727.671 -1.03911 -3.82124 0
M  V30 7794 H 728.845 -3.69252 -2.75663 0
M  V30 7795 H 727.16 -3.23968 -2.61598 0
M  V30 7796 H 729.757 -1.84106 -5.02005 0
M  V30 7797 H 730.1 -0.367989 -4.1467 0
M  V30 7798 H 730.633 -1.92984 -3.47853 0
M  V30 7799 H 727.372 -4.73644 -4.53147 0
M  V30 7800 H 726.892 -3.12746 -5.11811 0
M  V30 7801 H 728.571 -3.68793 -5.31602 0
M  V30 7802 N 728.703 1.26451 -0.940633 0
M  V30 7803 C 729.666 2.24651 -0.454378 0
M  V30 7804 C 730.666 1.54826 0.434222 0
M  V30 7805 O 731.856 1.72628 0.233477 0
M  V30 7806 C 728.988 3.39148 0.345192 0
M  V30 7807 H 730.181 2.69182 -1.32217 0
M  V30 7808 H 727.734 1.38596 -0.722547 0
M  V30 7809 H 728.469 3.00018 1.23125 0
M  V30 7810 H 728.254 3.9101 -0.292107 0
M  V30 7811 H 729.744 4.12103 0.675341 0
M  V30 7812 N 730.181 0.707592 1.40822 0
M  V30 7813 C 731.113 0.0105968 2.29198 0
M  V30 7814 C 732.126 -0.732035 1.45414 0
M  V30 7815 O 733.315 -0.580741 1.68789 0
M  V30 7816 C 730.415 -1.00921 3.23525 0
M  V30 7817 C 729.588 -0.333747 4.36125 0
M  V30 7818 C 728.647 -1.25783 5.10945 0
M  V30 7819 O 727.673 -0.745646 5.64295 0
M  V30 7820 N 728.875 -2.58947 5.19545 0
M  V30 7821 H 731.64 0.76938 2.89656 0
M  V30 7822 H 729.201 0.554579 1.52105 0
M  V30 7823 H 731.193 -1.6294 3.70449 0
M  V30 7824 H 729.763 -1.66942 2.6429 0
M  V30 7825 H 728.983 0.466518 3.9143 0
M  V30 7826 H 730.271 0.135444 5.0862 0
M  V30 7827 H 729.669 -3.03065 4.7767 0
M  V30 7828 H 728.226 -3.16131 5.70004 0
M  V30 7829 N 731.66 -1.50943 0.453197 0
M  V30 7830 C 732.906 -2.03153 -0.100277 0
M  V30 7831 C 733.261 -1.33032 -1.38997 0
M  V30 7832 O 732.554 -0.441423 -1.86446 0
M  V30 7833 C 732.748 -3.55603 -0.357944 0
M  V30 7834 C 732.577 -4.40495 0.905223 0
M  V30 7835 C 731.347 -4.84247 1.44337 0
M  V30 7836 C 733.545 -4.81931 1.79575 0
M  V30 7837 N 731.527 -5.53403 2.65742 0
M  V30 7838 C 732.898 -5.50314 2.85577 0
M  V30 7839 C 734.953 -4.63903 1.80828 0
M  V30 7840 C 733.656 -6.02581 3.92797 0
M  V30 7841 C 735.682 -5.17097 2.86993 0
M  V30 7842 C 735.044 -5.8544 3.91713 0
M  V30 7843 H 731.143 -0.781995 0.00287755 0
M  V30 7844 H 733.727 -1.84651 0.617411 0
M  V30 7845 H 731.898 -3.74087 -1.04467 0
M  V30 7846 H 733.63 -3.9447 -0.904175 0
M  V30 7847 H 730.385 -4.63029 0.995045 0
M  V30 7848 H 730.809 -5.92598 3.27348 0
M  V30 7849 H 735.451 -4.10512 1.0119 0
M  V30 7850 H 733.169 -6.55018 4.73262 0
M  V30 7851 H 736.755 -5.0499 2.88923 0
M  V30 7852 H 735.635 -6.25861 4.72512 0
M  V30 7853 N 733.138 -0.185124 -1.56509 0
M  V30 7854 C 734.384 0.456934 -1.97585 0
M  V30 7855 C 734.717 1.61957 -1.07161 0
M  V30 7856 O 733.992 1.9412 -0.121546 0
M  V30 7857 C 734.275 0.926666 -3.47973 0
M  V30 7858 C 734.128 -0.237097 -4.49175 0
M  V30 7859 C 735.447 1.79561 -4.01803 0
M  V30 7860 H 732.566 0.164619 -0.71838 0
M  V30 7861 H 735.208 -0.274039 -1.88013 0
M  V30 7862 H 733.358 1.54954 -3.56261 0
M  V30 7863 H 735.03 -0.87454 -4.52934 0
M  V30 7864 H 733.273 -0.890446 -4.24563 0
M  V30 7865 H 733.944 0.133924 -5.51838 0
M  V30 7866 H 736.42 1.27039 -3.96232 0
M  V30 7867 H 735.296 2.09327 -5.07418 0
M  V30 7868 H 735.557 2.74629 -3.46455 0
M  V30 7869 N 734.616 1.57351 0.0885366 0
M  V30 7870 C 735.563 2.02523 1.10693 0
M  V30 7871 C 736.533 0.902736 1.39427 0
M  V30 7872 O 737.718 1.16921 1.50779 0
M  V30 7873 C 734.858 2.46013 2.42016 0
M  V30 7874 C 733.971 3.7181 2.19957 0
M  V30 7875 C 733.106 4.04152 3.44724 0
M  V30 7876 C 732.145 5.2304 3.17956 0
M  V30 7877 N 731.282 5.51102 4.35007 0
M  V30 7878 H 736.122 2.89302 0.714742 0
M  V30 7879 H 733.659 1.43084 0.341378 0
M  V30 7880 H 735.617 2.69274 3.18665 0
M  V30 7881 H 734.247 1.62235 2.79069 0
M  V30 7882 H 733.299 3.55987 1.34079 0
M  V30 7883 H 734.611 4.58604 1.96173 0
M  V30 7884 H 733.765 4.28225 4.29777 0
M  V30 7885 H 732.504 3.15893 3.71568 0
M  V30 7886 H 731.509 4.98781 2.31296 0
M  V30 7887 H 732.734 6.12902 2.92451 0
M  V30 7888 H 730.68 4.65802 4.61914 0
M  V30 7889 H 730.597 6.3228 4.14437 0
M  V30 7890 H 731.865 5.79714 5.21106 0
M  V30 7891 N 736.094 -0.359525 1.53444 0
M  V30 7892 C 737.319 -1.12644 1.74144 0
M  V30 7893 C 737.744 -1.82082 0.472007 0
M  V30 7894 O 737.102 -1.71962 -0.57436 0
M  V30 7895 C 737.15 -2.12781 2.9113 0
M  V30 7896 O 736.254 -3.19984 2.60162 0
M  V30 7897 H 735.595 -0.326553 0.578152 0
M  V30 7898 H 738.125 -0.414798 2.00351 0
M  V30 7899 H 738.135 -2.56278 3.17467 0
M  V30 7900 H 736.81 -1.61634 3.83207 0
M  V30 7901 H 735.387 -2.81417 2.44661 0
M  V30 7902 N 737.572 -1.44907 -0.619662 0
M  V30 7903 C 738.8 -1.51795 -1.40591 0
M  V30 7904 C 739.215 -0.146553 -1.8823 0
M  V30 7905 O 738.572 0.849698 -1.61513 0
M  V30 7906 C 738.623 -2.49229 -2.61853 0
M  V30 7907 O 738.344 -3.81039 -2.16197 0
M  V30 7908 C 739.845 -2.65696 -3.54853 0
M  V30 7909 H 737.065 -0.514463 -0.430777 0
M  V30 7910 H 739.609 -1.8998 -0.756813 0
M  V30 7911 H 737.764 -2.14149 -3.2283 0
M  V30 7912 H 738.178 -4.33747 -2.94896 0
M  V30 7913 H 739.652 -3.37874 -4.36515 0
M  V30 7914 H 740.129 -1.71316 -4.0441 0
M  V30 7915 H 740.735 -3.01724 -2.99737 0
M  V30 7916 N 739.05 0.861098 -1.31996 0
M  V30 7917 C 739.982 1.97551 -1.16216 0
M  V30 7918 C 740.995 1.625 -0.0988527 0
M  V30 7919 O 742.184 1.75091 -0.3472 0
M  V30 7920 C 739.284 3.30376 -0.755307 0
M  V30 7921 C 738.457 3.93711 -1.90552 0
M  V30 7922 C 737.516 5.04862 -1.48328 0
M  V30 7923 O 736.542 5.25204 -2.19431 0
M  V30 7924 N 737.744 5.79283 -0.375656 0
M  V30 7925 H 740.509 2.11632 -2.12208 0
M  V30 7926 H 738.07 1.03559 -1.24448 0
M  V30 7927 H 740.062 4.0213 -0.455364 0
M  V30 7928 H 738.632 3.12395 0.113269 0
M  V30 7929 H 737.852 3.14825 -2.37231 0
M  V30 7930 H 739.14 4.32762 -2.67571 0
M  V30 7931 H 738.538 5.65286 0.216284 0
M  V30 7932 H 737.095 6.5166 -0.135289 0
M  V30 7933 N 740.528 1.15101 1.07655 0
M  V30 7934 C 741.776 0.922149 1.79836 0
M  V30 7935 C 742.097 -0.552346 1.87014 0
M  V30 7936 O 741.367 -1.40145 1.3688 0
M  V30 7937 H 739.947 0.338182 0.666064 0
M  V30 7938 H 742.609 1.45107 1.30115 0
M  V30 7939 H 741.705 1.32883 2.82398 0
M  V30 7940 N 742.006 -1.2595 0.947325 0
M  V30 7941 C 743.254 -1.93081 0.596996 0
M  V30 7942 C 743.575 -1.74632 -0.867672 0
M  V30 7943 O 742.845 -1.1056 -1.6172 0
M  V30 7944 H 741.425 -0.714542 0.217805 0
M  V30 7945 H 744.087 -1.53265 1.20398 0
M  V30 7946 H 743.183 -3.01134 0.82004 0
M  V30 7947 N 743.484 -0.715051 -1.40445 0
M  V30 7948 C 744.895 -0.326763 -1.83818 0
M  V30 7949 C 745.246 1.13851 -1.59789 0
M  V30 7950 O 744.371 1.87611 -1.07848 0
M  V30 7951 C 744.966 -0.586297 -3.33688 0
M  V30 7952 C 743.525 -0.251724 -3.75557 0
M  V30 7953 C 742.672 -0.858928 -2.63662 0
M  V30 7954 H 745.623 -0.914241 -1.2972 0
M  V30 7955 H 745.644 0.148636 -3.8021 0
M  V30 7956 H 745.156 -1.65281 -3.51146 0
M  V30 7957 H 743.257 0.809754 -3.63695 0
M  V30 7958 H 743.37 -0.720348 -4.73654 0
M  V30 7959 H 741.734 -0.287013 -2.53078 0
M  V30 7960 H 742.517 -1.9297 -2.83932 0
M  V30 7961 N 744.962 1.50701 -0.461195 0
M  V30 7962 C 745.872 2.32069 0.343661 0
M  V30 7963 C 746.888 1.42016 1.00535 0
M  V30 7964 O 748.064 1.75077 0.995498 0
M  V30 7965 C 745.129 3.16424 1.41692 0
M  V30 7966 C 744.19 4.22286 0.772869 0
M  V30 7967 C 743.423 5.02609 1.79499 0
M  V30 7968 O 743.646 4.83874 3.0203 0
M  V30 7969 O 742.58 5.86047 1.3723 0
M  V30 7970 H 746.406 3.01996 -0.321268 0
M  V30 7971 H 743.991 1.47723 -0.223235 0
M  V30 7972 H 745.873 3.68795 2.03883 0
M  V30 7973 H 744.548 2.49236 2.0655 0
M  V30 7974 H 743.455 3.73931 0.112277 0
M  V30 7975 H 744.788 4.91915 0.167399 0
M  V30 7976 N 746.441 0.193421 1.56409 0
M  V30 7977 C 747.391 -0.74089 2.15627 0
M  V30 7978 C 748.375 -1.17747 1.09656 0
M  V30 7979 O 749.567 -1.13615 1.35723 0
M  V30 7980 C 746.696 -1.96091 2.81786 0
M  V30 7981 C 745.782 -1.54531 3.94944 0
M  V30 7982 N 746.173 -0.840569 4.98767 0
M  V30 7983 C 744.471 -1.83473 4.06514 0
M  V30 7984 C 745.172 -0.632571 5.7825 0
M  V30 7985 N 744.148 -1.18078 5.30621 0
M  V30 7986 H 747.95 -0.193718 2.93261 0
M  V30 7987 H 745.464 -0.00643211 1.62399 0
M  V30 7988 H 747.461 -2.64071 3.22602 0
M  V30 7989 H 746.121 -2.51282 2.05639 0
M  V30 7990 H 747.132 -0.496218 5.15517 0
M  V30 7991 H 743.809 -2.40184 3.41493 0
M  V30 7992 H 745.199 -0.0736433 6.7186 0
M  V30 7993 N 747.919 -1.57396 -0.0801906 0
M  V30 7994 C 748.882 -2.02133 -1.0805 0
M  V30 7995 C 749.882 -0.91707 -1.32085 0
M  V30 7996 O 751.072 -1.18217 -1.27947 0
M  V30 7997 C 748.204 -2.39479 -2.42616 0
M  V30 7998 H 749.397 -2.91733 -0.6951 0
M  V30 7999 H 746.95 -1.52869 -0.325677 0
M  V30 8000 H 747.685 -1.52879 -2.86004 0
M  V30 8001 H 747.47 -3.20052 -2.26515 0
M  V30 8002 H 748.96 -2.74697 -3.14534 0
M  V30 8003 N 749.397 0.351382 -1.53633 0
M  V30 8004 C 750.622 1.11718 -1.74739 0
M  V30 8005 C 751.047 1.81829 -0.481657 0
M  V30 8006 O 750.405 1.72264 0.565233 0
M  V30 8007 C 750.453 2.11234 -2.92254 0
M  V30 8008 O 749.557 3.186 -2.61855 0
M  V30 8009 H 748.898 0.323482 -0.579875 0
M  V30 8010 H 751.428 0.404167 -2.00568 0
M  V30 8011 H 751.438 2.54591 -3.18822 0
M  V30 8012 H 750.113 1.59599 -3.84058 0
M  V30 8013 H 748.69 2.80115 -2.4615 0
M  V30 8014 N 750.875 1.45233 0.611969 0
M  V30 8015 C 752.286 1.4354 1.19387 0
M  V30 8016 C 752.637 0.160713 1.95541 0
M  V30 8017 O 751.762 -0.737954 2.03429 0
M  V30 8018 C 752.357 2.60045 2.17169 0
M  V30 8019 C 750.916 2.61486 2.70744 0
M  V30 8020 C 750.063 2.35708 1.46072 0
M  V30 8021 H 753.014 1.53536 0.401529 0
M  V30 8022 H 753.035 2.33893 3.00124 0
M  V30 8023 H 752.547 3.52803 1.61714 0
M  V30 8024 H 750.648 1.72721 3.30149 0
M  V30 8025 H 750.761 3.60572 3.15476 0
M  V30 8026 H 749.125 1.85178 1.74875 0
M  V30 8027 H 749.908 3.30606 0.924922 0
M  V30 8028 N 752.353 -0.854086 1.3245 0
M  V30 8029 C 753.764 -1.42427 1.20712 0
M  V30 8030 C 754.115 -1.95371 -0.18013 0
M  V30 8031 O 753.24 -1.87587 -1.07889 0
M  V30 8032 C 753.835 -2.58897 2.18536 0
M  V30 8033 C 752.394 -3.11913 2.10683 0
M  V30 8034 C 751.541 -1.84661 2.06871 0
M  V30 8035 H 754.492 -0.661192 1.4427 0
M  V30 8036 H 754.513 -3.36074 1.78422 0
M  V30 8037 H 754.025 -2.20333 3.19492 0
M  V30 8038 H 752.126 -3.55059 1.12977 0
M  V30 8039 H 752.239 -3.73119 3.00532 0
M  V30 8040 H 750.603 -2.04285 1.52118 0
M  V30 8041 H 751.386 -1.48314 3.09609 0
M  V30 8042 N 753.831 -1.1567 -1.07043 0
M  V30 8043 C 754.794 -0.858906 -2.12498 0
M  V30 8044 C 755.794 0.142735 -1.60165 0
M  V30 8045 O 756.984 -0.0872678 -1.73981 0
M  V30 8046 C 754.116 -0.283021 -3.39723 0
M  V30 8047 H 755.309 -1.79368 -2.40348 0
M  V30 8048 H 752.862 -0.964608 -1.22984 0
M  V30 8049 H 753.597 0.659796 -3.17517 0
M  V30 8050 H 753.382 -1.00467 -3.7901 0
M  V30 8051 H 754.872 -0.0923543 -4.17498 0
M  V30 8052 N 755.309 1.25446 -0.953992 0
M  V30 8053 C 756.586 1.884 -0.525823 0
M  V30 8054 C 756.966 1.86079 0.996891 0
M  V30 8055 O 756.314 1.32389 1.8624 0
M  V30 8056 C 756.524 3.31154 -1.10172 0
M  V30 8057 C 757.872 4.07926 -1.17819 0
M  V30 8058 O 758.896 3.40273 -1.05323 0
M  V30 8059 O 757.755 5.28942 -1.37415 0
M  V30 8060 H 754.849 0.808629 -0.173345 0
M  V30 8061 H 757.395 1.33522 -1.04738 0
M  V30 8062 H 756.167 3.27271 -2.14499 0
M  V30 8063 H 755.79 3.93588 -0.56338 0
M  V30 8064 N 756.787 0.722489 1.40064 0
M  V30 8065 C 758.064 0.191829 1.94657 0
M  V30 8066 C 758.444 -1.30389 1.66018 0
M  V30 8067 O 757.792 -2.06342 0.981588 0
M  V30 8068 C 758.002 0.511978 3.45224 0
M  V30 8069 C 759.35 0.454426 4.22161 0
M  V30 8070 O 760.374 0.448438 3.53366 0
M  V30 8071 O 759.233 0.437986 5.44742 0
M  V30 8072 H 756.327 0.0307821 0.826427 0
M  V30 8073 H 758.873 0.800493 1.49634 0
M  V30 8074 H 757.645 1.54622 3.59455 0
M  V30 8075 H 757.268 -0.126296 3.97399 0
M  V30 8076 N 758.265 -1.50454 0.469181 0
M  V30 8077 C 759.676 -1.86695 0.0136034 0
M  V30 8078 C 760.027 -1.38413 -1.39055 0
M  V30 8079 O 759.152 -0.748294 -2.03051 0
M  V30 8080 C 759.747 -3.38795 0.0179098 0
M  V30 8081 C 758.306 -3.74455 -0.382191 0
M  V30 8082 C 757.453 -2.74338 0.404207 0
M  V30 8083 H 760.404 -1.43225 0.683547 0
M  V30 8084 H 760.425 -3.72321 -0.78468 0
M  V30 8085 H 759.937 -3.73906 1.04 0
M  V30 8086 H 758.038 -3.44944 -1.4087 0
M  V30 8087 H 758.151 -4.79025 -0.084862 0
M  V30 8088 H 756.515 -2.54305 -0.141829 0
M  V30 8089 H 757.298 -3.12293 1.42577 0
M  V30 8090 N 759.743 -0.201713 -1.56304 0
M  V30 8091 C 760.653 0.728296 -2.23009 0
M  V30 8092 C 761.669 1.22945 -1.23128 0
M  V30 8093 O 762.845 1.27523 -1.55884 0
M  V30 8094 C 759.91 1.92792 -2.88153 0
M  V30 8095 C 758.971 1.47068 -4.03323 0
M  V30 8096 C 758.204 2.61312 -4.65351 0
M  V30 8097 O 758.427 3.7896 -4.26317 0
M  V30 8098 O 757.361 2.33646 -5.54701 0
M  V30 8099 H 761.187 0.190166 -3.03104 0
M  V30 8100 H 758.772 0.0278725 -1.49374 0
M  V30 8101 H 760.654 2.6289 -3.29343 0
M  V30 8102 H 759.329 2.45452 -2.11033 0
M  V30 8103 H 758.236 0.738299 -3.66742 0
M  V30 8104 H 759.569 0.990666 -4.82127 0
M  V30 8105 N 761.222 1.57436 0.0718424 0
M  V30 8106 C 762.638 1.53792 0.426628 0
M  V30 8107 C 762.838 0.921887 1.79174 0
M  V30 8108 O 761.894 0.524374 2.46995 0
M  V30 8109 C 763.207 2.98443 0.367739 0
M  V30 8110 C 764.755 3.09778 0.447928 0
M  V30 8111 C 765.23 4.5608 0.418946 0
M  V30 8112 N 766.721 4.60716 0.479022 0
M  V30 8113 C 767.456 5.71397 0.47881 0
M  V30 8114 N 766.952 6.91443 0.433417 0
M  V30 8115 N 768.745 5.59639 0.525364 0
M  V30 8116 H 760.896 1.95848 -0.822033 0
M  V30 8117 H 763.159 0.896418 -0.308447 0
M  V30 8118 H 762.865 3.47072 -0.56865 0
M  V30 8119 H 762.739 3.58335 1.17795 0
M  V30 8120 H 765.126 2.61122 1.37474 0
M  V30 8121 H 765.207 2.52796 -0.390857 0
M  V30 8122 H 764.851 5.05393 -0.504016 0
M  V30 8123 H 764.781 5.10925 1.27526 0
M  V30 8124 H 767.272 3.74328 0.518355 0
M  V30 8125 H 767.585 7.71562 0.43718 0
M  V30 8126 H 765.93 6.93847 0.400106 0
M  V30 8127 H 769.121 4.64756 0.558519 0
M  V30 8128 H 769.294 6.45896 0.52173 0
M  V30 8129 N 762.7 -0.34323 1.53817 0
M  V30 8130 C 764.116 -0.686355 1.44088 0
M  V30 8131 C 764.316 -1.92426 0.597882 0
M  V30 8132 O 763.372 -2.52343 0.0889918 0
M  V30 8133 C 764.685 -0.878698 2.87575 0
M  V30 8134 C 766.233 -0.977296 2.97352 0
M  V30 8135 C 766.708 -1.20195 4.41947 0
M  V30 8136 N 768.199 -1.26915 4.45474 0
M  V30 8137 C 768.934 -1.46049 5.54488 0
M  V30 8138 N 768.43 -1.62354 6.73508 0
M  V30 8139 N 770.223 -1.48599 5.42102 0
M  V30 8140 H 762.374 0.470679 2.07119 0
M  V30 8141 H 764.637 0.148652 0.936273 0
M  V30 8142 H 764.343 -0.040602 3.51677 0
M  V30 8143 H 764.217 -1.78034 3.32541 0
M  V30 8144 H 766.604 -1.80591 2.3339 0
M  V30 8145 H 766.685 -0.0525498 2.55746 0
M  V30 8146 H 766.329 -0.378262 5.06489 0
M  V30 8147 H 766.259 -2.14027 4.81145 0
M  V30 8148 H 768.75 -1.15837 3.59708 0
M  V30 8149 H 769.063 -1.76591 7.52353 0
M  V30 8150 H 767.408 -1.5949 6.76453 0
M  V30 8151 H 770.599 -1.35443 4.48077 0
M  V30 8152 H 770.772 -1.6317 6.2712 0
M  V30 8153 N 764.178 -1.45556 -0.604258 0
M  V30 8154 C 765.108 -1.57327 -1.72541 0
M  V30 8155 C 766.089 -0.424637 -1.64714 0
M  V30 8156 O 767.274 -0.648196 -1.83063 0
M  V30 8157 C 764.404 -1.54279 -3.11152 0
M  V30 8158 C 763.358 -2.67893 -3.33792 0
M  V30 8159 C 762.684 -2.499 -4.72709 0
M  V30 8160 C 763.984 -4.0988 -3.23722 0
M  V30 8161 H 765.678 -2.51175 -1.62947 0
M  V30 8162 H 763.224 -1.20884 -0.782504 0
M  V30 8163 H 765.177 -1.6111 -3.89386 0
M  V30 8164 H 763.901 -0.569627 -3.21594 0
M  V30 8165 H 762.56 -2.60495 -2.57949 0
M  V30 8166 H 762.208 -1.50715 -4.79889 0
M  V30 8167 H 761.908 -3.26091 -4.88813 0
M  V30 8168 H 763.432 -2.5859 -5.5314 0
M  V30 8169 H 764.846 -4.18503 -3.91826 0
M  V30 8170 H 763.243 -4.86487 -3.51355 0
M  V30 8171 H 764.313 -4.31553 -2.21111 0
M  V30 8172 N 765.656 0.84705 -1.32902 0
M  V30 8173 C 766.881 1.63925 -1.27056 0
M  V30 8174 C 767.306 1.87443 0.157136 0
M  V30 8175 O 766.664 1.43266 1.11106 0
M  V30 8176 C 766.712 2.97134 -2.04313 0
M  V30 8177 O 765.816 3.88049 -1.39614 0
M  V30 8178 H 765.157 0.499477 -0.437514 0
M  V30 8179 H 767.687 1.05443 -1.75336 0
M  V30 8180 H 767.697 3.46896 -2.14772 0
M  V30 8181 H 766.372 2.79339 -3.08128 0
M  V30 8182 H 764.949 3.46525 -1.3775 0
M  V30 8183 N 767.134 1.16236 1.06428 0
M  V30 8184 C 768.097 0.870163 2.1204 0
M  V30 8185 C 769.097 -0.134239 1.60239 0
M  V30 8186 O 770.287 0.0964932 1.73933 0
M  V30 8187 C 767.419 0.301033 3.39568 0
M  V30 8188 H 768.612 1.8064 2.39394 0
M  V30 8189 H 766.165 0.971116 1.2247 0
M  V30 8190 H 766.9 -0.642948 3.17863 0
M  V30 8191 H 766.685 1.02475 3.78472 0
M  V30 8192 H 768.175 0.114494 4.17443 0
M  V30 8193 N 768.612 -1.24939 0.960631 0
M  V30 8194 C 769.837 -1.9742 0.635608 0
M  V30 8195 C 770.262 -1.70857 -0.786737 0
M  V30 8196 O 769.62 -0.968063 -1.53291 0
M  V30 8197 C 769.668 -3.48987 0.907771 0
M  V30 8198 O 768.772 -4.12399 -0.0104053 0
M  V30 8199 H 768.113 -0.61871 0.241027 0
M  V30 8200 H 770.643 -1.58901 1.28886 0
M  V30 8201 H 770.653 -3.99334 0.836453 0
M  V30 8202 H 769.328 -3.6765 1.94439 0
M  V30 8203 H 767.905 -3.72727 0.113631 0
M  V30 8204 N 770.09 -0.729906 -1.39679 0
M  V30 8205 C 771.501 -0.346241 -1.83461 0
M  V30 8206 C 771.852 1.1215 -1.60987 0
M  V30 8207 O 770.977 1.86456 -1.09832 0
M  V30 8208 C 771.572 -0.621656 -3.33048 0
M  V30 8209 C 770.131 -0.291543 -3.75269 0
M  V30 8210 C 769.278 -0.886844 -2.62736 0
M  V30 8211 H 772.229 -0.927949 -1.28743 0
M  V30 8212 H 772.25 0.108301 -3.80346 0
M  V30 8213 H 771.762 -1.68996 -3.49373 0
M  V30 8214 H 769.863 0.771133 -3.64533 0
M  V30 8215 H 769.976 -0.770544 -4.72863 0
M  V30 8216 H 768.34 -0.313839 -2.52759 0
M  V30 8217 H 769.123 -1.95971 -2.81869 0
M  V30 8218 N 771.568 1.50203 -0.477153 0
M  V30 8219 C 772.979 1.86685 -0.0235041 0
M  V30 8220 C 773.33 1.39148 1.38319 0
M  V30 8221 O 772.455 0.759051 2.02651 0
M  V30 8222 C 773.05 3.38781 -0.0358767 0
M  V30 8223 C 771.609 3.74652 0.362327 0
M  V30 8224 C 770.756 2.7412 -0.41875 0
M  V30 8225 H 773.707 1.4286 -0.691133 0
M  V30 8226 H 773.728 3.72732 0.764924 0
M  V30 8227 H 773.24 3.73349 -1.05981 0
M  V30 8228 H 771.341 3.45686 1.39039 0
M  V30 8229 H 771.454 4.79063 0.059457 0
M  V30 8230 H 769.818 2.54376 0.128341 0
M  V30 8231 H 770.601 3.11532 -1.44231 0
M  V30 8232 N 773.046 0.209999 1.56195 0
M  V30 8233 C 774.294 -0.423974 1.97603 0
M  V30 8234 C 774.615 -1.61112 1.09854 0
M  V30 8235 O 773.885 -1.95134 0.173032 0
M  V30 8236 H 772.465 -0.159629 0.729745 0
M  V30 8237 H 775.127 0.300205 1.92574 0
M  V30 8238 H 774.223 -0.75809 3.02753 0
M  V30 8239 N 774.524 -1.57472 -0.0634922 0
M  V30 8240 C 775.94 -1.54016 -0.418466 0
M  V30 8241 C 776.14 -0.931376 -1.78683 0
M  V30 8242 O 775.196 -0.537465 -2.46714 0
M  V30 8243 C 776.509 -2.98634 -0.351906 0
M  V30 8244 C 778.057 -3.10012 -0.431494 0
M  V30 8245 C 778.532 -4.56296 -0.394754 0
M  V30 8246 N 780.023 -4.60964 -0.454583 0
M  V30 8247 C 780.758 -5.71643 -0.448501 0
M  V30 8248 N 780.254 -6.91663 -0.396742 0
M  V30 8249 N 782.047 -5.5991 -0.495677 0
M  V30 8250 H 774.198 -1.95409 0.832408 0
M  V30 8251 H 776.461 -0.894769 0.313197 0
M  V30 8252 H 776.167 -3.46766 0.587048 0
M  V30 8253 H 776.041 -3.58955 -1.15893 0
M  V30 8254 H 778.428 -2.61848 -1.36087 0
M  V30 8255 H 778.509 -2.52585 0.404258 0
M  V30 8256 H 778.153 -5.05119 0.530811 0
M  V30 8257 H 778.083 -5.11594 -1.24815 0
M  V30 8258 H 780.574 -3.74598 -0.498496 0
M  V30 8259 H 780.887 -7.71783 -0.396256 0
M  V30 8260 H 779.232 -6.9405 -0.363304 0
M  V30 8261 H 782.423 -4.65046 -0.533864 0
M  V30 8262 H 782.596 -6.46164 -0.487469 0
M  V30 8263 N 776.003 0.335068 -1.53997 0
M  V30 8264 C 777.414 0.910191 -1.6301 0
M  V30 8265 C 777.765 1.89271 -0.516809 0
M  V30 8266 O 776.89 2.13516 0.352123 0
M  V30 8267 C 777.485 1.65761 -2.9548 0
M  V30 8268 C 776.044 2.18163 -3.06728 0
M  V30 8269 C 775.191 1.00338 -2.5851 0
M  V30 8270 H 778.142 0.112965 -1.58297 0
M  V30 8271 H 778.163 2.52107 -2.84995 0
M  V30 8272 H 777.675 0.94227 -3.76488 0
M  V30 8273 H 775.776 2.92847 -2.30372 0
M  V30 8274 H 775.889 2.43952 -4.1234 0
M  V30 8275 H 774.253 1.37925 -2.14124 0
M  V30 8276 H 775.036 0.30254 -3.41964 0
M  V30 8277 N 777.481 1.45874 0.596531 0
M  V30 8278 C 778.444 1.54988 1.68853 0
M  V30 8279 C 779.444 0.428302 1.54991 0
M  V30 8280 O 780.634 0.692158 1.59859 0
M  V30 8281 C 777.766 1.457 3.08195 0
M  V30 8282 H 778.959 2.52294 1.62135 0
M  V30 8283 H 776.512 1.33479 0.813206 0
M  V30 8284 H 777.247 0.496204 3.20481 0
M  V30 8285 H 777.032 2.27061 3.19665 0
M  V30 8286 H 778.522 1.55133 3.87716 0
M  V30 8287 N 778.959 -0.83999 1.33349 0
M  V30 8288 C 780.37 -1.41139 1.22216 0
M  V30 8289 C 780.721 -1.95551 -0.159398 0
M  V30 8290 O 779.846 -1.88721 -1.05893 0
M  V30 8291 C 780.441 -2.56564 2.21269 0
M  V30 8292 C 779 -3.09661 2.13979 0
M  V30 8293 C 778.147 -1.82457 2.08818 0
M  V30 8294 H 781.098 -0.645853 1.44964 0
M  V30 8295 H 781.119 -3.34163 1.81976 0
M  V30 8296 H 780.631 -2.16932 3.21811 0
M  V30 8297 H 778.732 -3.53841 1.16736 0
M  V30 8298 H 778.845 -3.6991 3.04472 0
M  V30 8299 H 777.209 -2.0266 1.54276 0
M  V30 8300 H 777.992 -1.45022 3.11165 0
M  V30 8301 N 780.437 -1.16799 -1.0581 0
M  V30 8302 C 781.683 -0.953935 -1.78963 0
M  V30 8303 C 782.016 0.516638 -1.87202 0
M  V30 8304 O 781.291 1.38338 -1.36721 0
M  V30 8305 C 781.574 -1.58808 -3.23191 0
M  V30 8306 C 781.427 -3.13032 -3.23003 0
M  V30 8307 C 782.746 -1.2868 -4.20867 0
M  V30 8308 H 779.865 -0.347972 -0.64968 0
M  V30 8309 H 782.507 -1.44204 -1.23715 0
M  V30 8310 H 780.657 -1.17303 -3.70368 0
M  V30 8311 H 782.329 -3.63553 -2.83949 0
M  V30 8312 H 780.572 -3.46108 -2.61518 0
M  V30 8313 H 781.243 -3.52527 -4.24769 0
M  V30 8314 H 783.719 -1.6461 -3.82155 0
M  V30 8315 H 782.595 -1.75645 -5.20038 0
M  V30 8316 H 782.856 -0.206491 -4.41618 0
M  V30 8317 N 781.915 1.24427 -0.967243 0
M  V30 8318 C 783.192 1.87831 -0.545776 0
M  V30 8319 C 783.572 1.87126 0.977099 0
M  V30 8320 O 782.92 1.34357 1.84826 0
M  V30 8321 C 783.13 3.29967 -1.13679 0
M  V30 8322 C 784.478 4.06654 -1.22139 0
M  V30 8323 O 785.502 3.39136 -1.08926 0
M  V30 8324 O 784.361 5.27455 -1.43017 0
M  V30 8325 H 781.455 0.806745 -0.181912 0
M  V30 8326 H 784.001 1.32403 -1.06148 0
M  V30 8327 H 782.773 3.24977 -2.17958 0
M  V30 8328 H 782.396 3.92969 -0.605093 0
M  V30 8329 N 783.393 0.737304 1.3929 0
M  V30 8330 C 784.641 0.285691 2.00071 0
M  V30 8331 C 784.962 -1.13169 1.58801 0
M  V30 8332 O 784.232 -1.77104 0.837308 0
M  V30 8333 H 782.812 0.102638 0.739915 0
M  V30 8334 H 785.474 0.947775 1.70303 0
M  V30 8335 H 784.57 0.335906 3.10287 0
M  V30 8336 N 784.871 -1.49948 0.485112 0
M  V30 8337 C 786.119 -2.01996 -0.0648775 0
M  V30 8338 C 786.44 -1.36819 -1.38945 0
M  V30 8339 O 785.71 -0.518163 -1.88923 0
M  V30 8340 H 784.29 -0.746513 -0.0269662 0
M  V30 8341 H 786.952 -1.84136 0.638733 0
M  V30 8342 H 786.048 -3.11418 -0.20617 0
M  V30 8343 N 786.349 -0.21828 -1.56081 0
M  V30 8344 C 787.312 0.679633 -2.18892 0
M  V30 8345 C 788.312 1.12405 -1.14986 0
M  V30 8346 O 789.502 1.03339 -1.40238 0
M  V30 8347 C 786.634 1.93063 -2.80962 0
M  V30 8348 H 787.827 0.132066 -2.99609 0
M  V30 8349 H 785.38 0.0313374 -1.56269 0
M  V30 8350 H 786.115 2.52015 -2.04106 0
M  V30 8351 H 785.9 1.62046 -3.57048 0
M  V30 8352 H 787.39 2.57043 -3.29118 0
M  V30 8353 N 787.827 1.57504 0.0551401 0
M  V30 8354 C 789.052 1.92682 0.767352 0
M  V30 8355 C 789.477 0.81614 1.69472 0
M  V30 8356 O 788.835 -0.229989 1.79835 0
M  V30 8357 C 788.883 3.26866 1.52286 0
M  V30 8358 O 787.987 3.17274 2.63459 0
M  V30 8359 H 787.328 0.630502 0.208238 0
M  V30 8360 H 789.858 2.04592 0.0184026 0
M  V30 8361 H 789.868 3.61138 1.8985 0
M  V30 8362 H 788.543 4.07276 0.842541 0
M  V30 8363 H 787.12 2.94589 2.2863 0
M  V30 8364 N 789.305 -0.326896 1.54172 0
M  V30 8365 C 790.716 -0.901533 1.63491 0
M  V30 8366 C 791.067 -1.88994 0.52684 0
M  V30 8367 O 790.192 -2.137 -0.340794 0
M  V30 8368 C 790.787 -1.64192 2.96355 0
M  V30 8369 C 789.346 -2.16533 3.07881 0
M  V30 8370 C 788.493 -0.98966 2.59039 0
M  V30 8371 H 791.444 -0.104568 1.58355 0
M  V30 8372 H 791.465 -2.50592 2.86328 0
M  V30 8373 H 790.977 -0.922291 3.76982 0
M  V30 8374 H 789.078 -2.91622 2.31922 0
M  V30 8375 H 789.191 -2.41762 4.13628 0
M  V30 8376 H 787.555 -1.36787 2.14852 0
M  V30 8377 H 788.338 -0.284401 3.4212 0
M  V30 8378 N 790.784 -1.46188 -0.588786 0
M  V30 8379 C 791.716 -1.52319 -1.71265 0
M  V30 8380 C 792.729 -0.412096 -1.57498 0
M  V30 8381 O 793.918 -0.680146 -1.65034 0
M  V30 8382 C 791.018 -1.38164 -3.09458 0
M  V30 8383 C 790.191 -2.63284 -3.49286 0
M  V30 8384 C 789.25 -2.43415 -4.66514 0
M  V30 8385 O 788.276 -3.17113 -4.72682 0
M  V30 8386 N 789.478 -1.49187 -5.61002 0
M  V30 8387 H 792.243 -2.49219 -1.66463 0
M  V30 8388 H 789.804 -1.42167 -0.774601 0
M  V30 8389 H 791.796 -1.22653 -3.85666 0
M  V30 8390 H 790.366 -0.494678 -3.08661 0
M  V30 8391 H 789.586 -2.93779 -2.62845 0
M  V30 8392 H 790.874 -3.46413 -3.7266 0
M  V30 8393 H 790.272 -0.884027 -5.5875 0
M  V30 8394 H 788.829 -1.39642 -6.36666 0
M  V30 8395 N 792.262 0.832906 -1.33792 0
M  V30 8396 C 793.509 1.58853 -1.25586 0
M  V30 8397 C 793.837 1.93695 0.176807 0
M  V30 8398 O 793.092 1.59386 1.13554 0
M  V30 8399 C 793.391 2.9047 -2.08235 0
M  V30 8400 C 793.057 2.74965 -3.57358 0
M  V30 8401 C 791.719 2.70444 -3.98012 0
M  V30 8402 C 794.071 2.59347 -4.52093 0
M  V30 8403 C 791.399 2.48212 -5.31608 0
M  V30 8404 C 793.751 2.38649 -5.85858 0
M  V30 8405 C 792.415 2.32533 -6.25687 0
M  V30 8406 H 791.685 0.581285 -0.459553 0
M  V30 8407 H 794.332 0.964501 -1.65438 0
M  V30 8408 H 792.637 3.57111 -1.6118 0
M  V30 8409 H 794.334 3.48001 -1.99239 0
M  V30 8410 H 790.924 2.79319 -3.25083 0
M  V30 8411 H 795.108 2.6187 -4.2159 0
M  V30 8412 H 790.364 2.41929 -5.61498 0
M  V30 8413 H 794.538 2.25549 -6.58863 0
M  V30 8414 H 792.165 2.15067 -7.29143 0
M  V30 8415 N 793.74 1.17359 1.05189 0
M  V30 8416 C 795.017 0.871914 1.75091 0
M  V30 8417 C 795.397 -0.627821 2.01548 0
M  V30 8418 O 794.745 -1.5791 1.65156 0
M  V30 8419 C 794.955 1.70687 3.04413 0
M  V30 8420 C 796.303 1.92684 3.78362 0
M  V30 8421 O 797.327 1.67645 3.14282 0
M  V30 8422 O 796.186 2.34765 4.93505 0
M  V30 8423 H 793.28 0.322831 0.761386 0
M  V30 8424 H 795.826 1.28054 1.11357 0
M  V30 8425 H 794.598 2.72405 2.80911 0
M  V30 8426 H 794.221 1.29602 3.75884 0
M  V30 8427 N 795.218 -1.23913 0.973828 0
M  V30 8428 C 796.148 -2.27453 0.527969 0
M  V30 8429 C 797.129 -1.6443 -0.435513 0
M  V30 8430 O 798.314 -1.9137 -0.330306 0
M  V30 8431 C 795.444 -3.4685 -0.176757 0
M  V30 8432 C 794.398 -4.22181 0.703352 0
M  V30 8433 C 793.724 -5.34534 -0.133215 0
M  V30 8434 C 795.024 -4.82865 1.99096 0
M  V30 8435 H 796.718 -2.65 1.3934 0
M  V30 8436 H 794.264 -1.27388 0.671446 0
M  V30 8437 H 796.217 -4.18424 -0.499934 0
M  V30 8438 H 794.941 -3.08346 -1.07659 0
M  V30 8439 H 793.6 -3.52416 1.00989 0
M  V30 8440 H 793.248 -4.92271 -1.03338 0
M  V30 8441 H 792.948 -5.85855 0.452494 0
M  V30 8442 H 794.472 -6.08933 -0.450924 0
M  V30 8443 H 795.886 -5.46481 1.73297 0
M  V30 8444 H 794.283 -5.44444 2.52389 0
M  V30 8445 H 795.353 -4.03977 2.68199 0
M  V30 8446 N 796.696 -0.74468 -1.38897 0
M  V30 8447 C 797.973 -0.222773 -1.94327 0
M  V30 8448 C 798.353 1.27731 -1.68071 0
M  V30 8449 O 797.701 2.04754 -1.01429 0
M  V30 8450 C 797.911 -0.566836 -3.44366 0
M  V30 8451 C 799.259 -0.521531 -4.21385 0
M  V30 8452 O 800.283 -0.504599 -3.52608 0
M  V30 8453 O 799.142 -0.524595 -5.43976 0
M  V30 8454 H 796.236 -0.0439259 -0.825833 0
M  V30 8455 H 798.782 -0.824197 -1.48341 0
M  V30 8456 H 797.554 -1.60321 -3.56949 0
M  V30 8457 H 797.177 0.0630577 -3.9755 0
M  V30 8458 N 798.174 1.49689 -0.493057 0
M  V30 8459 C 799.42 2.02727 0.0543518 0
M  V30 8460 C 799.753 1.37264 1.37376 0
M  V30 8461 O 799.028 0.505644 1.87812 0
M  V30 8462 C 799.311 3.59456 0.215226 0
M  V30 8463 C 799.164 4.35459 -1.12675 0
M  V30 8464 C 800.483 4.29511 0.959586 0
M  V30 8465 H 797.602 0.736773 0.0182786 0
M  V30 8466 H 800.244 1.78792 -0.642924 0
M  V30 8467 H 798.394 3.79981 0.809122 0
M  V30 8468 H 800.066 4.2645 -1.75891 0
M  V30 8469 H 798.309 3.9833 -1.71801 0
M  V30 8470 H 798.98 5.43454 -0.967578 0
M  V30 8471 H 801.456 4.13594 0.455977 0
M  V30 8472 H 800.332 5.38939 1.04098 0
M  V30 8473 H 800.593 3.94202 2.00144 0
M  V30 8474 N 799.652 0.226554 1.55963 0
M  V30 8475 C 800.899 -0.403789 1.98433 0
M  V30 8476 C 801.227 -1.59416 1.1143 0
M  V30 8477 O 800.482 -1.95042 0.160389 0
M  V30 8478 C 800.781 -0.87642 3.46488 0
M  V30 8479 C 800.447 0.203973 4.50438 0
M  V30 8480 C 799.109 0.500754 4.78587 0
M  V30 8481 C 801.461 0.934396 5.12756 0
M  V30 8482 C 798.789 1.53239 5.66334 0
M  V30 8483 C 801.141 1.9554 6.0162 0
M  V30 8484 C 799.805 2.25905 6.28111 0
M  V30 8485 H 799.075 -0.147757 0.726119 0
M  V30 8486 H 801.722 0.330121 1.88633 0
M  V30 8487 H 800.027 -1.68918 3.53517 0
M  V30 8488 H 801.724 -1.37407 3.76723 0
M  V30 8489 H 798.314 -0.0374917 4.28584 0
M  V30 8490 H 802.498 0.718355 4.91074 0
M  V30 8491 H 797.754 1.77321 5.85122 0
M  V30 8492 H 801.928 2.52642 6.48957 0
M  V30 8493 H 799.555 3.05985 6.959 0
M  V30 8494 N 801.13 -1.57531 -0.0467866 0
M  V30 8495 C 802.379 -1.87632 -0.740069 0
M  V30 8496 C 802.692 -0.822691 -1.77457 0
M  V30 8497 O 803.898 -1.01235 -2.5192 0
M  V30 8498 C 802.354 -3.32917 -1.36727 0
M  V30 8499 C 801.962 -4.46469 -0.370035 0
M  V30 8500 C 803.706 -3.72189 -2.04146 0
M  V30 8501 C 801.613 -5.82806 -1.00457 0
M  V30 8502 H 800.543 -0.70002 -0.280158 0
M  V30 8503 H 803.194 -1.83499 0.00607151 0
M  V30 8504 H 801.576 -3.31739 -2.16252 0
M  V30 8505 H 802.75 -4.59085 0.397217 0
M  V30 8506 H 801.065 -4.15914 0.201079 0
M  V30 8507 H 803.662 -4.71357 -2.52441 0
M  V30 8508 H 804.005 -3.03268 -2.85192 0
M  V30 8509 H 804.538 -3.75465 -1.3142 0
M  V30 8510 H 801.277 -6.55083 -0.233907 0
M  V30 8511 H 800.797 -5.73944 -1.74209 0
M  V30 8512 H 802.476 -6.28961 -1.51713 0
M  V30 8513 N 802.608 0.318715 -1.54344 0
M  V30 8514 C 803.833 1.07987 -1.77069 0
M  V30 8515 C 804.258 1.80766 -0.520117 0
M  V30 8516 O 803.616 1.73424 0.528566 0
M  V30 8517 C 803.664 2.04987 -2.96669 0
M  V30 8518 O 802.768 3.12974 -2.68554 0
M  V30 8519 H 802.109 0.311109 -0.586606 0
M  V30 8520 H 804.639 0.361533 -2.0138 0
M  V30 8521 H 804.649 2.47771 -3.2415 0
M  V30 8522 H 803.324 1.51417 -3.87357 0
M  V30 8523 H 801.901 2.74831 -2.52037 0
M  V30 8524 N 804.086 1.46499 0.581025 0
M  V30 8525 C 805.502 1.31491 0.904563 0
M  V30 8526 C 805.702 0.287598 1.99437 0
M  V30 8527 O 804.758 -0.309247 2.50599 0
M  V30 8528 C 806.071 2.70163 1.32032 0
M  V30 8529 C 807.619 2.78266 1.43308 0
M  V30 8530 C 808.094 4.17524 1.8825 0
M  V30 8531 N 809.585 4.19949 1.9544 0
M  V30 8532 C 810.32 5.24594 2.31493 0
M  V30 8533 N 809.816 6.39564 2.66326 0
M  V30 8534 N 811.609 5.11961 2.32062 0
M  V30 8535 H 803.76 2.11946 -0.138856 0
M  V30 8536 H 806.023 0.948 0.000548528 0
M  V30 8537 H 805.729 3.46655 0.593554 0
M  V30 8538 H 805.603 3.00379 2.2815 0
M  V30 8539 H 807.99 2.02061 2.15071 0
M  V30 8540 H 808.071 2.51732 0.45438 0
M  V30 8541 H 807.715 4.94225 1.17065 0
M  V30 8542 H 807.645 4.41466 2.87081 0
M  V30 8543 H 810.136 3.36996 1.71004 0
M  V30 8544 H 810.449 7.15187 2.92793 0
M  V30 8545 H 808.794 6.42923 2.6396 0
M  V30 8546 H 811.985 4.21177 2.04272 0
M  V30 8547 H 812.158 5.93626 2.5983 0
M  V30 8548 N 805.565 -0.825799 1.34232 0
M  V30 8549 C 806.528 -1.91808 1.25468 0
M  V30 8550 C 807.528 -1.59893 0.170567 0
M  V30 8551 O 808.718 -1.68986 0.422996 0
M  V30 8552 C 805.85 -3.27786 0.93644 0
M  V30 8553 H 807.043 -2.01003 2.22571 0
M  V30 8554 H 804.596 -1.01944 1.18479 0
M  V30 8555 H 805.331 -3.24285 -0.0315408 0
M  V30 8556 H 805.116 -3.52333 1.72057 0
M  V30 8557 H 806.606 -4.07782 0.900214 0
M  V30 8558 N 807.043 -1.17915 -1.04565 0
M  V30 8559 C 807.973 -0.925033 -2.14395 0
M  V30 8560 C 808.954 0.135375 -1.6956 0
M  V30 8561 O 810.139 -0.0161774 -1.94193 0
M  V30 8562 C 807.269 -0.444469 -3.44444 0
M  V30 8563 C 806.223 -1.44478 -4.02877 0
M  V30 8564 C 805.549 -0.821933 -5.28345 0
M  V30 8565 C 806.849 -2.81995 -4.39632 0
M  V30 8566 H 808.543 -1.84354 -2.35911 0
M  V30 8567 H 806.089 -0.887806 -1.13375 0
M  V30 8568 H 808.042 -0.254078 -4.20633 0
M  V30 8569 H 806.766 0.509592 -3.226 0
M  V30 8570 H 805.425 -1.62203 -3.28764 0
M  V30 8571 H 805.073 0.139161 -5.02807 0
M  V30 8572 H 804.773 -1.48976 -5.68401 0
M  V30 8573 H 806.297 -0.641959 -6.07216 0
M  V30 8574 H 807.711 -2.67952 -5.06828 0
M  V30 8575 H 806.108 -3.45414 -4.90723 0
M  V30 8576 H 807.178 -3.35927 -3.49687 0
M  V30 8577 N 808.521 1.23394 -0.980386 0
M  V30 8578 C 809.468 2.24859 -0.520298 0
M  V30 8579 C 810.438 1.60144 0.440821 0
M  V30 8580 O 811.623 1.87593 0.348369 0
M  V30 8581 C 808.763 3.44675 0.171145 0
M  V30 8582 C 807.876 4.23947 -0.830233 0
M  V30 8583 C 807.011 5.31079 -0.113597 0
M  V30 8584 C 806.05 6.02058 -1.10419 0
M  V30 8585 N 805.187 7.00862 -0.416709 0
M  V30 8586 H 810.027 2.63579 -1.39032 0
M  V30 8587 H 807.564 1.29556 -0.696682 0
M  V30 8588 H 809.522 4.13024 0.588838 0
M  V30 8589 H 808.152 3.06755 1.00504 0
M  V30 8590 H 807.204 3.55016 -1.36631 0
M  V30 8591 H 808.516 4.72945 -1.58508 0
M  V30 8592 H 807.67 6.05622 0.36146 0
M  V30 8593 H 806.409 4.83022 0.673854 0
M  V30 8594 H 805.414 5.26307 -1.59 0
M  V30 8595 H 806.639 6.52203 -1.8923 0
M  V30 8596 H 804.585 6.55057 0.351535 0
M  V30 8597 H 804.502 7.47804 -1.11021 0
M  V30 8598 H 805.77 7.79492 0.0359606 0
M  V30 8599 N 809.999 0.752036 1.385 0
M  V30 8600 C 810.929 0.138718 2.33088 0
M  V30 8601 C 811.91 -0.705318 1.54788 0
M  V30 8602 O 813.095 -0.646821 1.83112 0
M  V30 8603 C 810.225 -0.75641 3.38963 0
M  V30 8604 C 809.179 -0.0152239 4.27997 0
M  V30 8605 C 808.505 -1.0285 5.24715 0
M  V30 8606 C 809.805 1.15226 5.09431 0
M  V30 8607 H 811.499 0.928852 2.84627 0
M  V30 8608 H 809.045 0.448111 1.3685 0
M  V30 8609 H 810.998 -1.19513 4.04097 0
M  V30 8610 H 809.722 -1.57885 2.85902 0
M  V30 8611 H 808.381 0.404061 3.64366 0
M  V30 8612 H 808.029 -1.84496 4.67943 0
M  V30 8613 H 807.729 -0.537238 5.85139 0
M  V30 8614 H 809.253 -1.46657 5.92726 0
M  V30 8615 H 810.667 0.791161 5.67815 0
M  V30 8616 H 809.064 1.57428 5.79082 0
M  V30 8617 H 810.134 1.9659 4.43261 0
M  V30 8618 N 811.477 -1.49425 0.500989 0
M  V30 8619 C 812.717 -2.04357 -0.0419004 0
M  V30 8620 C 813.081 -1.37236 -1.34277 0
M  V30 8621 O 814.282 -1.82889 -1.9699 0
M  V30 8622 C 812.553 -3.56889 -0.19112 0
M  V30 8623 S 814.112 -4.33369 -0.688259 0
M  V30 8624 H 810.93 -0.710998 -0.00177796 0
M  V30 8625 H 813.532 -1.83479 0.674953 0
M  V30 8626 H 812.236 -4.03283 0.760964 0
M  V30 8627 H 811.767 -3.82171 -0.933214 0
M  V30 8628 H 813.782 -4.55961 -1.9574 0
M  V30 8629 N 812.955 -0.234822 -1.55841 0
M  V30 8630 C 814.183 0.397745 -2.03041 0
M  V30 8631 C 814.598 1.52405 -1.11437 0
M  V30 8632 O 813.955 1.82061 -0.126466 0
M  V30 8633 C 814.006 0.916919 -3.49678 0
M  V30 8634 O 813.727 -0.164493 -4.37791 0
M  V30 8635 C 815.228 1.62139 -4.12584 0
M  V30 8636 H 812.448 0.0959214 -0.664108 0
M  V30 8637 H 814.992 -0.355156 -2.01392 0
M  V30 8638 H 813.147 1.62004 -3.519 0
M  V30 8639 H 813.561 0.227794 -5.24005 0
M  V30 8640 H 815.035 1.93651 -5.16917 0
M  V30 8641 H 815.512 2.53918 -3.58361 0
M  V30 8642 H 816.118 0.963145 -4.14251 0
M  V30 8643 N 814.433 1.57553 0.0384317 0
M  V30 8644 C 815.38 2.05942 1.04194 0
M  V30 8645 C 816.35 0.946637 1.36484 0
M  V30 8646 O 817.535 1.21658 1.46983 0
M  V30 8647 C 814.675 2.53588 2.34066 0
M  V30 8648 C 813.788 3.7862 2.08017 0
M  V30 8649 C 812.923 4.14915 3.31692 0
M  V30 8650 C 811.962 5.32891 3.01155 0
M  V30 8651 N 811.099 5.64662 4.17254 0
M  V30 8652 H 815.939 2.91429 0.622341 0
M  V30 8653 H 813.476 1.44098 0.295684 0
M  V30 8654 H 815.434 2.79276 3.09937 0
M  V30 8655 H 814.064 1.71031 2.73767 0
M  V30 8656 H 813.116 3.60073 1.22686 0
M  V30 8657 H 814.428 4.64613 1.81484 0
M  V30 8658 H 813.582 4.41681 4.15936 0
M  V30 8659 H 812.321 3.27555 3.6133 0
M  V30 8660 H 811.326 5.05887 2.15311 0
M  V30 8661 H 812.551 6.21896 2.72804 0
M  V30 8662 H 810.497 4.80261 4.46861 0
M  V30 8663 H 810.414 6.45145 3.94112 0
M  V30 8664 H 811.682 5.96 5.02399 0
M  V30 8665 N 815.911 -0.310526 1.54511 0
M  V30 8666 C 817.322 -0.884142 1.64438 0
M  V30 8667 C 817.673 -1.88425 0.546855 0
M  V30 8668 O 816.798 -2.14049 -0.31811 0
M  V30 8669 C 817.393 -1.6104 2.9808 0
M  V30 8670 C 815.952 -2.13255 3.1016 0
M  V30 8671 C 815.099 -0.96213 2.60074 0
M  V30 8672 H 818.05 -0.0877666 1.58457 0
M  V30 8673 H 818.071 -2.47541 2.8897 0
M  V30 8674 H 817.583 -0.882255 3.77939 0
M  V30 8675 H 815.684 -2.89145 2.35002 0
M  V30 8676 H 815.797 -2.37361 4.16169 0
M  V30 8677 H 814.161 -1.34501 2.16291 0
M  V30 8678 H 814.944 -0.248098 3.42402 0
M  V30 8679 N 817.389 -1.46805 -0.573248 0
M  V30 8680 C 818.299 -1.60687 -1.70929 0
M  V30 8681 C 819.315 -0.490084 -1.66956 0
M  V30 8682 O 820.491 -0.755482 -1.86693 0
M  V30 8683 C 817.556 -1.60259 -3.07438 0
M  V30 8684 C 816.617 -2.83242 -3.22603 0
M  V30 8685 C 815.85 -2.82825 -4.52599 0
M  V30 8686 O 816.073 -1.92113 -5.37074 0
M  V30 8687 O 815.007 -3.74489 -4.71213 0
M  V30 8688 H 818.833 -2.56782 -1.62163 0
M  V30 8689 H 816.418 -1.29706 -0.741399 0
M  V30 8690 H 818.3 -1.6275 -3.88704 0
M  V30 8691 H 816.975 -0.673268 -3.16621 0
M  V30 8692 H 815.882 -2.86302 -2.40794 0
M  V30 8693 H 817.215 -3.75415 -3.18315 0
M  V30 8694 N 818.867 0.818669 -1.34668 0
M  V30 8695 C 820.144 1.56118 -1.17841 0
M  V30 8696 C 820.524 2.09646 0.24731 0
M  V30 8697 O 819.872 1.91329 1.24922 0
M  V30 8698 C 820.082 2.67922 -2.23649 0
M  V30 8699 C 821.43 3.36579 -2.58843 0
M  V30 8700 O 822.454 2.78182 -2.22471 0
M  V30 8701 O 821.313 4.42045 -3.21339 0
M  V30 8702 H 818.407 0.689216 -0.457067 0
M  V30 8703 H 820.953 0.859674 -1.46314 0
M  V30 8704 H 819.725 2.26153 -3.19328 0
M  V30 8705 H 819.348 3.45719 -1.96377 0
M  V30 8706 N 820.346 1.18468 1.03938 0
M  V30 8707 C 821.276 0.936389 2.13902 0
M  V30 8708 C 822.257 -0.126381 1.6963 0
M  V30 8709 O 823.442 0.0264757 1.94182 0
M  V30 8710 C 820.572 0.462729 3.44204 0
M  V30 8711 C 819.526 1.46613 4.02105 0
M  V30 8712 C 818.852 0.84994 5.27902 0
M  V30 8713 C 820.152 2.84323 4.3813 0
M  V30 8714 H 821.846 1.85602 2.3493 0
M  V30 8715 H 819.392 0.893806 1.12903 0
M  V30 8716 H 821.345 0.276382 4.20493 0
M  V30 8717 H 820.069 -0.492477 3.22866 0
M  V30 8718 H 818.728 1.63944 3.27899 0
M  V30 8719 H 818.376 -0.112493 5.02874 0
M  V30 8720 H 818.076 1.51988 5.67603 0
M  V30 8721 H 819.6 0.674152 6.06867 0
M  V30 8722 H 821.014 2.70636 5.054 0
M  V30 8723 H 819.411 3.48012 4.88884 0
M  V30 8724 H 820.481 3.37776 3.47901 0
M  V30 8725 N 821.824 -1.22873 0.986916 0
M  V30 8726 C 823.235 -1.73264 0.695438 0
M  V30 8727 C 823.586 -1.79679 -0.788023 0
M  V30 8728 O 822.711 -1.43905 -1.61618 0
M  V30 8729 C 823.306 -3.14671 1.2557 0
M  V30 8730 C 821.865 -3.62492 1.01373 0
M  V30 8731 C 821.012 -2.40551 1.37951 0
M  V30 8732 H 823.963 -1.08304 1.15999 0
M  V30 8733 H 823.984 -3.75226 0.631322 0
M  V30 8734 H 823.496 -3.0997 2.33539 0
M  V30 8735 H 821.597 -3.72567 -0.0495917 0
M  V30 8736 H 821.71 -4.48944 1.67289 0
M  V30 8737 H 820.074 -2.41875 0.798033 0
M  V30 8738 H 820.857 -2.38516 2.46911 0
M  V30 8739 N 823.302 -0.75937 -1.38099 0
M  V30 8740 C 824.579 -0.243371 -1.9408 0
M  V30 8741 C 824.959 1.25942 -1.69416 0
M  V30 8742 O 824.307 2.03667 -1.03595 0
M  V30 8743 C 824.517 -0.603328 -3.43745 0
M  V30 8744 C 825.865 -0.566195 -4.20808 0
M  V30 8745 O 826.889 -0.541969 -3.52053 0
M  V30 8746 O 825.748 -0.582261 -5.43389 0
M  V30 8747 H 822.842 -0.0526825 -0.82532 0
M  V30 8748 H 825.388 -0.839884 -1.47459 0
M  V30 8749 H 824.16 -1.64098 -3.55229 0
M  V30 8750 H 823.783 0.0208887 -3.97595 0
M  V30 8751 N 824.78 1.49157 -0.508906 0
M  V30 8752 C 825.728 2.30922 0.278906 0
M  V30 8753 C 826.722 1.39889 0.955382 0
M  V30 8754 O 827.928 1.56901 0.882169 0
M  V30 8755 H 824.303 0.744087 0.108805 0
M  V30 8756 H 826.274 2.95277 -0.430583 0
M  V30 8757 C 825.023 3.21432 1.32576 0
M  V30 8758 H 824.346 3.91413 0.814634 0
M  V30 8759 H 825.786 3.81568 1.84882 0
M  V30 8760 C 824.245 2.41583 2.34817 0
M  V30 8761 O 824.775 2.1256 3.40854 0
M  V30 8762 N 822.981 2.03462 2.07489 0
M  V30 8763 H 822.528 2.27265 1.21278 0
M  V30 8764 H 822.486 1.50345 2.76123 0
M  V30 8765 N 826.258 0.243083 1.55714 0
M  V30 8766 C 827.205 -0.658078 2.21219 0
M  V30 8767 C 828.175 -1.1742 1.17481 0
M  V30 8768 O 829.36 -1.22937 1.45915 0
M  V30 8769 C 826.5 -1.85104 2.91257 0
M  V30 8770 C 825.613 -1.3718 4.09641 0
M  V30 8771 C 824.748 -2.52403 4.67404 0
M  V30 8772 C 823.787 -2.01321 5.78045 0
M  V30 8773 N 822.924 -3.09896 6.30007 0
M  V30 8774 H 827.764 -0.0927854 2.97856 0
M  V30 8775 H 825.301 -0.0340375 1.47061 0
M  V30 8776 H 827.259 -2.55179 3.3006 0
M  V30 8777 H 825.889 -2.38887 2.17101 0
M  V30 8778 H 824.941 -0.565232 3.76177 0
M  V30 8779 H 826.253 -0.957409 4.89525 0
M  V30 8780 H 825.407 -3.30525 5.08761 0
M  V30 8781 H 824.146 -2.97142 3.86728 0
M  V30 8782 H 823.151 -1.21667 5.36169 0
M  V30 8783 H 824.376 -1.57556 6.6057 0
M  V30 8784 H 822.322 -3.54077 5.52237 0
M  V30 8785 H 822.239 -2.72776 7.05074 0
M  V30 8786 H 823.507 -3.8809 6.76023 0
M  V30 8787 N 827.736 -1.57571 -0.0300757 0
M  V30 8788 C 828.666 -2.0953 -1.03051 0
M  V30 8789 C 829.647 -0.99761 -1.37774 0
M  V30 8790 O 830.832 -1.27279 -1.46676 0
M  V30 8791 C 827.962 -2.57385 -2.33174 0
M  V30 8792 C 826.916 -3.71409 -2.12696 0
M  V30 8793 C 826.242 -4.05467 -3.4857 0
M  V30 8794 C 827.542 -4.99877 -1.51396 0
M  V30 8795 H 829.236 -2.93367 -0.597999 0
M  V30 8796 H 826.782 -1.41127 -0.286203 0
M  V30 8797 H 828.735 -2.92355 -3.03491 0
M  V30 8798 H 827.459 -1.70629 -2.78484 0
M  V30 8799 H 826.118 -3.36786 -1.44813 0
M  V30 8800 H 825.766 -3.15779 -3.91526 0
M  V30 8801 H 825.466 -4.82269 -3.35694 0
M  V30 8802 H 826.99 -4.4297 -4.2025 0
M  V30 8803 H 828.404 -5.3281 -2.11629 0
M  V30 8804 H 826.801 -5.81283 -1.49098 0
M  V30 8805 H 827.871 -4.82522 -0.479676 0
M  V30 8806 N 829.214 0.302327 -1.54673 0
M  V30 8807 C 830.462 1.03565 -1.73547 0
M  V30 8808 C 830.783 1.87843 -0.523448 0
M  V30 8809 O 830.053 1.90367 0.462295 0
M  V30 8810 H 828.633 0.385358 -0.639928 0
M  V30 8811 H 831.295 0.333632 -1.92023 0
M  V30 8812 H 830.391 1.68952 -2.62415 0
M  V30 8813 N 830.692 1.47107 0.565454 0
M  V30 8814 C 831.969 1.43787 1.32607 0
M  V30 8815 C 832.349 0.130428 2.10697 0
M  V30 8816 O 831.697 -0.888086 2.10536 0
M  V30 8817 C 831.907 2.67833 2.23755 0
M  V30 8818 C 833.255 3.14704 2.85037 0
M  V30 8819 O 834.279 2.68503 2.34061 0
M  V30 8820 O 833.138 3.95002 3.77671 0
M  V30 8821 H 830.232 0.572623 0.596684 0
M  V30 8822 H 832.778 1.59296 0.58504 0
M  V30 8823 H 831.55 3.54532 1.65597 0
M  V30 8824 H 831.173 2.54869 3.05168 0
M  V30 8825 N 832.17 -0.811516 1.35101 0
M  V30 8826 C 833.1 -1.9378 1.30275 0
M  V30 8827 C 834.081 -1.69165 0.178075 0
M  V30 8828 O 835.266 -1.90599 0.372256 0
M  V30 8829 C 832.396 -3.30439 1.06899 0
M  V30 8830 C 831.35 -3.69523 2.15955 0
M  V30 8831 C 830.676 -5.0429 1.77751 0
M  V30 8832 C 831.976 -3.80419 3.57881 0
M  V30 8833 H 833.67 -1.98075 2.24514 0
M  V30 8834 H 831.216 -0.951586 1.08078 0
M  V30 8835 H 833.169 -4.08828 1.02164 0
M  V30 8836 H 831.893 -3.26473 0.0910462 0
M  V30 8837 H 830.552 -2.93416 2.19778 0
M  V30 8838 H 830.2 -4.96823 0.785876 0
M  V30 8839 H 829.9 -5.31411 2.5075 0
M  V30 8840 H 831.424 -5.85125 1.74533 0
M  V30 8841 H 832.838 -4.49051 3.56407 0
M  V30 8842 H 831.235 -4.19005 4.29598 0
M  V30 8843 H 832.305 -2.82105 3.94391 0
M  V30 8844 N 833.648 -1.19017 -1.03309 0
M  V30 8845 C 834.596 -0.920627 -2.13605 0
M  V30 8846 C 835.59 0.121969 -1.6896 0
M  V30 8847 O 836.796 -0.0268854 -1.7998 0
M  V30 8848 H 833.171 -0.280284 -0.697814 0
M  V30 8849 H 835.142 -1.85755 -2.33533 0
M  V30 8850 C 833.891 -0.471198 -3.44492 0
M  V30 8851 H 833.214 -1.26499 -3.7926 0
M  V30 8852 H 834.654 -0.321663 -4.22778 0
M  V30 8853 C 833.113 0.81411 -3.26916 0
M  V30 8854 O 833.643 1.87654 -3.55175 0
M  V30 8855 N 831.849 0.769695 -2.80221 0
M  V30 8856 H 831.396 -0.0951278 -2.57424 0
M  V30 8857 H 831.354 1.63008 -2.68842 0
M  V30 8858 N 835.127 1.22348 -0.993418 0
M  V30 8859 C 836.375 1.90733 -0.668246 0
M  V30 8860 C 836.696 1.77732 0.802261 0
M  V30 8861 O 835.966 1.16486 1.57505 0
M  V30 8862 H 834.546 0.705966 -0.244174 0
M  V30 8863 H 837.208 1.48691 -1.26004 0
M  V30 8864 H 836.304 2.97883 -0.931239 0
M  V30 8865 N 836.605 0.766683 1.37694 0
M  V30 8866 C 837.568 0.155849 2.2867 0
M  V30 8867 C 838.568 -0.633509 1.47795 0
M  V30 8868 O 839.758 -0.457844 1.68076 0
M  V30 8869 C 836.89 -0.786965 3.31692 0
M  V30 8870 H 838.083 0.957748 2.84196 0
M  V30 8871 H 835.636 0.534554 1.46875 0
M  V30 8872 H 836.371 -1.61406 2.8128 0
M  V30 8873 H 836.156 -0.223182 3.91464 0
M  V30 8874 H 837.646 -1.20994 3.99688 0
M  V30 8875 N 838.083 -1.48885 0.516809 0
M  V30 8876 C 839.323 -2.0439 -0.0202232 0
M  V30 8877 C 839.687 -1.38652 -1.32814 0
M  V30 8878 O 840.888 -1.84968 -1.95039 0
M  V30 8879 C 839.159 -3.57071 -0.153257 0
M  V30 8880 S 840.718 -4.34074 -0.642256 0
M  V30 8881 H 837.536 -0.710977 0.00576322 0
M  V30 8882 H 840.138 -1.82753 0.694376 0
M  V30 8883 H 838.842 -4.02454 0.803695 0
M  V30 8884 H 838.373 -3.83139 -0.892627 0
M  V30 8885 H 840.388 -4.58011 -1.90893 0
M  V30 8886 N 839.561 -0.251338 -1.55583 0
M  V30 8887 C 840.81 0.372681 -1.98227 0
M  V30 8888 C 841.123 1.58743 -1.1428 0
M  V30 8889 O 842.329 2.28289 -1.46957 0
M  V30 8890 C 840.785 0.714439 -3.52738 0
M  V30 8891 C 840.393 -0.479168 -4.4543 0
M  V30 8892 C 842.137 1.3024 -4.04027 0
M  V30 8893 C 840.044 -0.113318 -5.91291 0
M  V30 8894 H 838.974 0.14302 -0.740312 0
M  V30 8895 H 841.625 -0.352253 -1.80087 0
M  V30 8896 H 840.007 1.49762 -3.66589 0
M  V30 8897 H 841.181 -1.25644 -4.4334 0
M  V30 8898 H 839.496 -0.982359 -4.04646 0
M  V30 8899 H 842.093 1.58953 -5.10527 0
M  V30 8900 H 842.436 2.22837 -3.51638 0
M  V30 8901 H 842.969 0.582024 -3.93519 0
M  V30 8902 H 839.708 -1.00654 -6.47726 0
M  V30 8903 H 839.228 0.627666 -5.96507 0
M  V30 8904 H 840.907 0.30293 -6.4629 0
M  V30 8905 N 841.039 1.57585 0.0217189 0
M  V30 8906 C 842.45 1.7787 0.567377 0
M  V30 8907 C 842.801 0.883337 1.7519 0
M  V30 8908 O 841.926 0.0800819 2.16252 0
M  V30 8909 C 842.521 3.2257 1.03606 0
M  V30 8910 C 841.08 3.44026 1.52718 0
M  V30 8911 C 840.227 2.73313 0.468545 0
M  V30 8912 H 843.178 1.57377 -0.2045 0
M  V30 8913 H 843.199 3.29488 1.9031 0
M  V30 8914 H 842.711 3.87711 0.173739 0
M  V30 8915 H 840.812 2.8407 2.41111 0
M  V30 8916 H 840.925 4.52659 1.56962 0
M  V30 8917 H 839.289 2.37299 0.925263 0
M  V30 8918 H 840.072 3.41141 -0.384438 0
M  V30 8919 N 842.517 -0.29412 1.54831 0
M  V30 8920 C 843.427 -1.3854 1.89325 0
M  V30 8921 C 844.443 -1.55127 0.788133 0
M  V30 8922 O 845.619 -1.6966 1.08524 0
M  V30 8923 C 842.684 -2.72809 2.13954 0
M  V30 8924 C 841.745 -2.65148 3.37631 0
M  V30 8925 C 840.978 -3.93014 3.61076 0
M  V30 8926 O 841.201 -4.927 2.87406 0
M  V30 8927 O 840.135 -3.94491 4.54599 0
M  V30 8928 H 843.961 -1.12289 2.82179 0
M  V30 8929 H 841.546 -0.490793 1.41108 0
M  V30 8930 H 843.428 -3.52238 2.31315 0
M  V30 8931 H 842.103 -2.9889 1.24285 0
M  V30 8932 H 841.01 -1.84168 3.25627 0
M  V30 8933 H 842.343 -2.4402 4.27452 0
M  V30 8934 N 843.995 -1.47404 -0.557645 0
M  V30 8935 C 844.945 -1.56267 -1.66026 0
M  V30 8936 C 845.929 -0.42161 -1.55278 0
M  V30 8937 O 847.121 -0.671505 -1.63768 0
M  V30 8938 C 844.25 -1.57958 -3.04802 0
M  V30 8939 C 843.336 -2.77447 -3.20755 0
M  V30 8940 N 843.727 -4.02148 -3.06775 0
M  V30 8941 C 842.025 -2.74199 -3.51754 0
M  V30 8942 C 842.726 -4.82168 -3.25406 0
M  V30 8943 N 841.702 -4.14481 -3.5172 0
M  V30 8944 H 845.504 -2.50454 -1.53785 0
M  V30 8945 H 843.018 -1.43392 -0.762388 0
M  V30 8946 H 845.015 -1.62397 -3.8397 0
M  V30 8947 H 843.675 -0.648667 -3.18155 0
M  V30 8948 H 844.686 -4.33014 -2.84111 0
M  V30 8949 H 841.363 -1.90243 -3.71637 0
M  V30 8950 H 842.753 -5.91037 -3.19569 0
M  V30 8951 N 845.473 0.80434 -1.35529 0
M  V30 8952 C 846.884 1.37849 -1.25915 0
M  V30 8953 C 847.235 1.95905 0.107495 0
M  V30 8954 O 846.36 1.91462 1.00852 0
M  V30 8955 C 846.955 2.50608 -2.27994 0
M  V30 8956 C 845.514 3.03879 -2.22114 0
M  V30 8957 C 844.661 1.76856 -2.13582 0
M  V30 8958 H 847.612 0.607192 -1.46625 0
M  V30 8959 H 847.633 3.29221 -1.90772 0
M  V30 8960 H 847.145 2.08323 -3.27449 0
M  V30 8961 H 845.246 3.50622 -1.26077 0
M  V30 8962 H 845.359 3.61707 -3.14173 0
M  V30 8963 H 843.723 1.98498 -1.59595 0
M  V30 8964 H 844.506 1.36721 -3.14901 0
M  V30 8965 N 846.951 1.19563 1.02676 0
M  V30 8966 C 848.199 0.997593 1.75763 0
M  V30 8967 C 848.52 -0.47253 1.89188 0
M  V30 8968 O 847.79 -1.34214 1.42701 0
M  V30 8969 H 846.37 0.366128 0.651122 0
M  V30 8970 H 849.032 1.50495 1.23844 0
M  V30 8971 H 848.128 1.44741 2.76508 0
M  V30 8972 N 848.429 -1.21819 0.999893 0
M  V30 8973 C 849.706 -1.86318 0.595384 0
M  V30 8974 C 850.086 -1.8965 -0.927143 0
M  V30 8975 O 849.434 -1.3921 -1.81199 0
M  V30 8976 C 849.644 -3.26837 1.22387 0
M  V30 8977 C 850.992 -4.03272 1.32878 0
M  V30 8978 O 852.016 -3.36129 1.1788 0
M  V30 8979 O 850.875 -5.23477 1.56952 0
M  V30 8980 H 847.969 -0.801638 0.203238 0
M  V30 8981 H 850.515 -1.29542 1.09622 0
M  V30 8982 H 849.287 -3.19084 2.26497 0
M  V30 8983 H 848.91 -3.91226 0.709069 0
M  V30 8984 N 849.908 -0.773975 -1.37286 0
M  V30 8985 C 850.838 -0.175782 -2.32837 0
M  V30 8986 C 851.819 0.680603 -1.5589 0
M  V30 8987 O 853.004 0.617607 -1.84117 0
M  V30 8988 C 850.134 0.702388 -3.40123 0
M  V30 8989 C 849.088 -0.0528687 -4.27967 0
M  V30 8990 C 848.414 0.944891 -5.26285 0
M  V30 8991 C 849.714 -1.23316 -5.07534 0
M  V30 8992 H 851.408 -0.974016 -2.83114 0
M  V30 8993 H 848.954 -0.469826 -1.3612 0
M  V30 8994 H 850.907 1.13069 -4.05947 0
M  V30 8995 H 849.631 1.53316 -2.88378 0
M  V30 8996 H 848.29 -0.461978 -3.63678 0
M  V30 8997 H 847.938 1.77028 -4.70819 0
M  V30 8998 H 847.638 0.444079 -5.8592 0
M  V30 8999 H 849.162 1.37209 -5.94984 0
M  V30 9000 H 850.576 -0.881395 -5.66484 0
M  V30 9001 H 848.973 -1.66621 -5.76504 0
M  V30 9002 H 850.043 -2.03617 -4.40077 0
M  V30 9003 N 851.386 1.48609 -0.524698 0
M  V30 9004 C 852.632 2.02797 0.0113382 0
M  V30 9005 C 852.965 1.40147 1.34433 0
M  V30 9006 O 852.24 0.545368 1.86698 0
M  V30 9007 C 852.523 3.59832 0.138931 0
M  V30 9008 C 852.376 4.32971 -1.21886 0
M  V30 9009 C 853.695 4.3145 0.868265 0
M  V30 9010 H 850.814 0.736995 0.00264645 0
M  V30 9011 H 853.456 1.77388 -0.680704 0
M  V30 9012 H 851.606 3.81612 0.72834 0
M  V30 9013 H 853.278 4.22624 -1.84897 0
M  V30 9014 H 851.521 3.94597 -1.80211 0
M  V30 9015 H 852.192 5.41279 -1.08263 0
M  V30 9016 H 854.668 4.14468 0.368145 0
M  V30 9017 H 853.544 5.41025 0.926428 0
M  V30 9018 H 853.805 3.98358 1.91737 0
M  V30 9019 N 852.864 0.259585 1.55447 0
M  V30 9020 C 853.796 -0.667548 2.19263 0
M  V30 9021 C 854.809 -1.12925 1.17268 0
M  V30 9022 O 855.998 -1.05384 1.44071 0
M  V30 9023 C 853.098 -1.92066 2.7922 0
M  V30 9024 C 852.271 -1.60832 4.06758 0
M  V30 9025 C 851.33 -2.71231 4.50911 0
M  V30 9026 O 850.356 -2.38077 5.17019 0
M  V30 9027 N 851.558 -4.00984 4.19752 0
M  V30 9028 H 854.323 -0.121449 2.99454 0
M  V30 9029 H 851.884 0.0800519 1.61702 0
M  V30 9030 H 853.876 -2.65186 3.0571 0
M  V30 9031 H 852.446 -2.37621 2.03113 0
M  V30 9032 H 851.666 -0.711685 3.87722 0
M  V30 9033 H 852.954 -1.37445 4.89884 0
M  V30 9034 H 852.352 -4.30748 3.66706 0
M  V30 9035 H 850.909 -4.7053 4.51048 0
M  V30 9036 N 854.342 -1.57594 -0.0133615 0
M  V30 9037 C 855.57 -1.94251 -0.712328 0
M  V30 9038 C 855.985 -0.86063 -1.68043 0
M  V30 9039 O 855.342 0.161632 -1.81783 0
M  V30 9040 C 855.393 -3.30891 -1.45581 0
M  V30 9041 O 855.114 -4.34924 -0.526539 0
M  V30 9042 C 856.615 -3.81926 -2.2505 0
M  V30 9043 H 853.835 -0.640737 -0.199241 0
M  V30 9044 H 856.379 -2.04472 0.0337855 0
M  V30 9045 H 854.534 -3.22019 -2.15366 0
M  V30 9046 H 854.948 -5.1389 -1.04962 0
M  V30 9047 H 856.422 -4.79999 -2.72589 0
M  V30 9048 H 856.899 -3.13934 -3.07152 0
M  V30 9049 H 857.505 -3.93931 -1.60308 0
M  V30 9050 N 855.82 0.285905 -1.54985 0
M  V30 9051 C 856.73 1.37534 -1.90057 0
M  V30 9052 C 857.746 1.54707 -0.796348 0
M  V30 9053 O 858.922 1.69082 -1.09423 0
M  V30 9054 C 855.987 2.7167 -2.15398 0
M  V30 9055 C 855.048 2.63354 -3.39033 0
M  V30 9056 C 854.281 3.91093 -3.63155 0
M  V30 9057 O 854.504 4.91169 -2.90015 0
M  V30 9058 O 853.438 3.92075 -4.56685 0
M  V30 9059 H 857.264 1.10791 -2.8277 0
M  V30 9060 H 854.849 0.483303 -1.41367 0
M  V30 9061 H 856.731 3.51006 -2.33179 0
M  V30 9062 H 855.406 2.98226 -1.25868 0
M  V30 9063 H 854.313 1.82438 -3.26599 0
M  V30 9064 H 855.646 2.41749 -4.2874 0
M  V30 9065 N 857.298 1.47698 0.54982 0
M  V30 9066 C 858.261 1.60282 1.63837 0
M  V30 9067 C 859.261 0.477394 1.5355 0
M  V30 9068 O 860.451 0.742665 1.57576 0
M  V30 9069 C 857.583 1.55431 3.03404 0
M  V30 9070 H 858.776 2.57325 1.54026 0
M  V30 9071 H 856.329 1.35999 0.770329 0
M  V30 9072 H 857.064 0.597912 3.1874 0
M  V30 9073 H 856.849 2.37116 3.12279 0
M  V30 9074 H 858.339 1.6739 3.82584 0
M  V30 9075 N 858.776 -0.797141 1.35954 0
M  V30 9076 C 860.023 -1.55468 1.29754 0
M  V30 9077 C 860.351 -1.94095 -0.125391 0
M  V30 9078 O 859.606 -1.62341 -1.09288 0
M  V30 9079 C 859.905 -2.84847 2.15863 0
M  V30 9080 C 859.571 -2.65394 3.64523 0
M  V30 9081 C 858.233 -2.59796 4.05042 0
M  V30 9082 C 860.585 -2.4727 4.58811 0
M  V30 9083 C 857.913 -2.3403 5.38002 0
M  V30 9084 C 860.265 -2.23032 5.91979 0
M  V30 9085 C 858.929 -2.15862 6.31633 0
M  V30 9086 H 858.199 -0.568897 0.474803 0
M  V30 9087 H 860.846 -0.920299 1.67937 0
M  V30 9088 H 859.151 -3.52712 1.70591 0
M  V30 9089 H 860.848 -3.42597 2.08395 0
M  V30 9090 H 857.438 -2.70602 3.32374 0
M  V30 9091 H 861.622 -2.506 4.28384 0
M  V30 9092 H 856.878 -2.26956 5.67715 0
M  V30 9093 H 861.052 -2.08001 6.64612 0
M  V30 9094 H 858.679 -1.9566 7.34589 0
M  V30 9095 N 860.254 -1.20106 -1.0204 0
M  V30 9096 C 861.479 -1.0351 -1.79723 0
M  V30 9097 C 861.904 0.411328 -1.83548 0
M  V30 9098 O 861.262 1.29608 -1.26773 0
M  V30 9099 C 861.31 -1.61876 -3.22224 0
M  V30 9100 O 860.414 -0.853813 -4.03465 0
M  V30 9101 H 859.755 -0.365299 -0.554484 0
M  V30 9102 H 862.285 -1.59316 -1.28373 0
M  V30 9103 H 862.295 -1.65451 -3.72948 0
M  V30 9104 H 860.97 -2.67148 -3.18755 0
M  V30 9105 H 859.547 -0.891983 -3.62075 0
M  V30 9106 N 861.732 1.21287 -1.00634 0
M  V30 9107 C 862.679 2.23705 -0.567876 0
M  V30 9108 C 863.649 1.61043 0.406753 0
M  V30 9109 O 864.834 1.88289 0.308499 0
M  V30 9110 C 861.974 3.44961 0.097996 0
M  V30 9111 C 861.087 4.22091 -0.919972 0
M  V30 9112 C 860.222 5.30718 -0.226222 0
M  V30 9113 C 859.261 5.99581 -1.23165 0
M  V30 9114 N 858.398 6.99821 -0.565278 0
M  V30 9115 H 863.238 2.60571 -1.44592 0
M  V30 9116 H 860.775 1.28049 -0.724006 0
M  V30 9117 H 862.733 4.1418 0.501097 0
M  V30 9118 H 861.363 3.08818 0.939744 0
M  V30 9119 H 860.415 3.52038 -1.44131 0
M  V30 9120 H 861.727 4.69476 -1.68505 0
M  V30 9121 H 860.881 6.06253 0.232917 0
M  V30 9122 H 859.62 4.84343 0.571247 0
M  V30 9123 H 858.625 5.22816 -1.70128 0
M  V30 9124 H 859.85 6.48042 -2.03022 0
M  V30 9125 H 857.796 6.55656 0.212508 0
M  V30 9126 H 857.713 7.4528 -1.26858 0
M  V30 9127 H 858.981 7.79393 -0.129389 0
M  V30 9128 N 863.21 0.781244 1.36873 0
M  V30 9129 C 864.12 0.174981 2.33947 0
M  V30 9130 C 865.136 -0.668512 1.60645 0
M  V30 9131 O 866.312 -0.586213 1.9268 0
M  V30 9132 C 863.377 -0.686557 3.39834 0
M  V30 9133 C 862.438 0.174489 4.28945 0
M  V30 9134 C 861.671 -0.646024 5.29776 0
M  V30 9135 O 861.894 -1.88254 5.38439 0
M  V30 9136 O 860.828 -0.0502214 6.01879 0
M  V30 9137 H 864.654 0.977382 2.87543 0
M  V30 9138 H 862.239 0.542559 1.392 0
M  V30 9139 H 864.121 -1.1781 4.04597 0
M  V30 9140 H 862.796 -1.46699 2.8855 0
M  V30 9141 H 861.703 0.712604 3.6725 0
M  V30 9142 H 863.036 0.918232 4.83559 0
M  V30 9143 N 864.689 -1.48329 0.532571 0
M  V30 9144 C 866.105 -1.58458 0.190605 0
M  V30 9145 C 866.305 -1.53427 -1.30623 0
M  V30 9146 O 865.361 -1.4247 -2.08467 0
M  V30 9147 C 866.674 -2.89989 0.79543 0
M  V30 9148 C 868.222 -3.03523 0.7644 0
M  V30 9149 C 868.697 -4.37718 1.34785 0
M  V30 9150 N 870.188 -4.44292 1.30993 0
M  V30 9151 C 870.923 -5.4664 1.73124 0
M  V30 9152 N 870.419 -6.5593 2.22997 0
M  V30 9153 N 872.212 -5.37538 1.64346 0
M  V30 9154 H 864.363 -1.49842 1.50537 0
M  V30 9155 H 866.626 -0.71164 0.626316 0
M  V30 9156 H 866.332 -2.99333 1.84642 0
M  V30 9157 H 866.206 -3.76203 0.27403 0
M  V30 9158 H 868.593 -2.93789 -0.277831 0
M  V30 9159 H 868.674 -2.18912 1.3233 0
M  V30 9160 H 868.318 -4.48206 2.38902 0
M  V30 9161 H 868.248 -5.21019 0.764609 0
M  V30 9162 H 870.739 -3.65897 0.944868 0
M  V30 9163 H 871.052 -7.30167 2.53133 0
M  V30 9164 H 869.397 -6.56886 2.26992 0
M  V30 9165 H 872.588 -4.51052 1.25178 0
M  V30 9166 H 872.761 -6.17169 1.97501 0
M  V30 9167 N 866.167 -0.267825 -1.55308 0
M  V30 9168 C 867.413 0.34458 -2.0046 0
M  V30 9169 C 867.768 1.54028 -1.15296 0
M  V30 9170 O 867.061 1.90409 -0.213316 0
M  V30 9171 C 867.255 0.784247 -3.48689 0
M  V30 9172 C 867.084 -0.367304 -4.48197 0
M  V30 9173 C 865.854 -0.848746 -4.98121 0
M  V30 9174 C 868.052 -1.20136 -5.00072 0
M  V30 9175 N 866.034 -1.97052 -5.81415 0
M  V30 9176 C 867.405 -2.17115 -5.80742 0
M  V30 9177 C 869.46 -1.23553 -4.82327 0
M  V30 9178 C 868.163 -3.17248 -6.45559 0
M  V30 9179 C 870.189 -2.22527 -5.47938 0
M  V30 9180 C 869.551 -3.1824 -6.28413 0
M  V30 9181 H 865.65 0.091465 -0.776633 0
M  V30 9182 H 868.234 -0.390184 -1.9075 0
M  V30 9183 H 866.405 1.48825 -3.58756 0
M  V30 9184 H 868.137 1.37337 -3.80684 0
M  V30 9185 H 864.892 -0.429291 -4.7165 0
M  V30 9186 H 865.316 -2.53481 -6.27755 0
M  V30 9187 H 869.958 -0.50937 -4.1972 0
M  V30 9188 H 867.676 -3.90801 -7.07319 0
M  V30 9189 H 871.262 -2.25904 -5.36152 0
M  V30 9190 H 870.142 -3.93573 -6.78285 0
M  V30 9191 O 867.684 1.6095 -0.133191 0
M  V30 9192 H 868.375 1.88082 0.463129 0
M  V30 END ATOM
M  V30 BEGIN BOND
M  V30 END BOND
M  V30 END CTAB
M  END
$$$$
