drugbank_target|P31243 Porin (DB04233)
 OpenBabel12092120443D

  0  0  0     0  0            999 V3000
M  V30 BEGIN CTAB
M  V30 COUNTS 4291 4330 0 0 0
M  V30 BEGIN ATOM
M  V30 1 H -0.908 1.98254 -0.117106 0
M  V30 2 N 0 1.576 0 0
M  V30 3 C 0.91 2.11853 1.00774 0
M  V30 4 C 1.926 1.06379 1.37693 0
M  V30 5 O 3.102 1.3828 1.46426 0
M  V30 6 C 0.167 2.61108 2.28087 0
M  V30 7 C -0.772 3.81183 1.9748 0
M  V30 8 C -1.539 4.28079 3.18723 0
M  V30 9 O -1.316 3.74307 4.30407 0
M  V30 10 O -2.382 5.20234 3.02721 0
M  V30 11 H 1.444 2.98177 0.576547 0
M  V30 12 H -0.971 1.47789 0.218828 0
M  V30 13 H 0.911 2.92987 3.0288 0
M  V30 14 H -0.414 1.77881 2.70444 0
M  V30 15 H -1.507 3.54277 1.20162 0
M  V30 16 H -0.174 4.65482 1.5996 0
M  V30 17 N 1.4781 -0.272755 1.55222 0
M  V30 18 C 2.7241 -1.00581 1.761 0
M  V30 19 C 3.0571 -1.85932 0.560625 0
M  V30 20 O 2.3321 -1.89416 -0.441801 0
M  V30 21 C 2.6151 -1.88816 3.06628 0
M  V30 22 C 2.4681 -1.06457 4.37021 0
M  V30 23 C 3.7871 -2.8752 3.33197 0
M  V30 24 H 0.9061 -0.364244 0.640699 0
M  V30 25 H 3.5481 -0.278189 1.87952 0
M  V30 26 H 1.6981 -2.50856 2.96654 0
M  V30 27 H 3.3701 -0.464863 4.58952 0
M  V30 28 H 1.6131 -0.368043 4.32236 0
M  V30 29 H 2.2841 -1.71514 5.24678 0
M  V30 30 H 4.7601 -2.35615 3.42965 0
M  V30 31 H 3.6361 -3.46399 4.25792 0
M  V30 32 H 3.8971 -3.62657 2.52849 0
M  V30 33 N 2.9562 -1.48159 -0.537278 0
M  V30 34 C 3.9032 -1.62138 -1.64256 0
M  V30 35 C 4.8732 -0.463668 -1.59497 0
M  V30 36 O 6.0582 -0.686241 -1.78032 0
M  V30 37 C 3.1982 -1.66028 -3.02537 0
M  V30 38 C 2.3112 -2.92855 -3.17585 0
M  V30 39 C 1.4462 -2.87952 -4.46382 0
M  V30 40 C 0.4852 -4.09516 -4.54932 0
M  V30 41 N -0.3778 -4.02733 -5.75109 0
M  V30 42 H 4.4622 -2.56529 -1.51647 0
M  V30 43 H 1.9992 -1.27224 -0.738414 0
M  V30 44 H 3.9572 -1.66265 -3.82638 0
M  V30 45 H 2.5872 -0.751331 -3.13934 0
M  V30 46 H 1.6392 -3.02395 -2.30784 0
M  V30 47 H 2.9512 -3.82822 -3.19764 0
M  V30 48 H 2.1052 -2.8655 -5.34765 0
M  V30 49 H 0.8442 -1.95702 -4.46712 0
M  V30 50 H -0.1508 -4.11201 -3.64957 0
M  V30 51 H 1.0742 -5.02917 -4.56346 0
M  V30 52 H -0.9798 -3.13299 -5.76351 0
M  V30 53 H -1.0628 -4.86397 -5.78752 0
M  V30 54 H 0.2052 -4.05379 -6.65799 0
M  V30 55 N 4.4343 0.785586 -1.36625 0
M  V30 56 C 5.3643 1.91259 -1.33949 0
M  V30 57 C 6.3453 1.68795 -0.210325 0
M  V30 58 O 7.5303 1.89854 -0.408561 0
M  V30 59 C 4.6603 3.28339 -1.13186 0
M  V30 60 C 3.6143 3.65335 -2.22967 0
M  V30 61 C 2.9403 5.00806 -1.87342 0
M  V30 62 C 4.2403 3.7352 -3.65075 0
M  V30 63 H 5.9343 1.93755 -2.28253 0
M  V30 64 H 3.4803 0.930788 -1.09874 0
M  V30 65 H 5.4333 4.06804 -1.09948 0
M  V30 66 H 4.1573 3.2624 -0.153332 0
M  V30 67 H 2.8163 2.89169 -2.25337 0
M  V30 68 H 2.4643 4.95233 -0.880545 0
M  V30 69 H 2.1643 5.26529 -2.60846 0
M  V30 70 H 3.6883 5.81687 -1.85667 0
M  V30 71 H 5.1023 4.42168 -3.64911 0
M  V30 72 H 3.4993 4.10731 -4.37516 0
M  V30 73 H 4.5693 2.74527 -3.99703 0
M  V30 74 N 5.9124 1.20967 1.01018 0
M  V30 75 C 7.1374 1.0503 1.78839 0
M  V30 76 C 7.5624 -0.395752 1.8389 0
M  V30 77 O 6.9204 -1.28529 1.27867 0
M  V30 78 C 6.9684 1.64602 3.2084 0
M  V30 79 O 6.0724 0.887988 4.02726 0
M  V30 80 H 5.4134 0.369987 0.551367 0
M  V30 81 H 7.9434 1.60399 1.27018 0
M  V30 82 H 7.9534 1.68607 3.71532 0
M  V30 83 H 6.6284 2.69841 3.16479 0
M  V30 84 H 5.2054 0.922648 3.61305 0
M  V30 85 N 7.3905 -1.2043 1.01659 0
M  V30 86 C 8.6385 -1.89423 0.704522 0
M  V30 87 C 8.9595 -1.79231 -0.768197 0
M  V30 88 O 8.2295 -1.1947 -1.55254 0
M  V30 89 H 6.8095 -0.701178 0.257602 0
M  V30 90 H 9.4715 -1.4626 1.28818 0
M  V30 91 H 8.5675 -2.96052 0.987916 0
M  V30 92 N 8.8686 -0.792821 -1.36206 0
M  V30 93 C 10.1456 -0.290627 -1.93429 0
M  V30 94 C 10.5256 1.21773 -1.72437 0
M  V30 95 O 9.8736 2.0108 -1.08531 0
M  V30 96 C 10.0836 -0.686973 -3.42172 0
M  V30 97 C 11.4316 -0.668643 -4.19302 0
M  V30 98 O 12.4556 -0.627658 -3.50626 0
M  V30 99 O 11.3146 -0.714597 -5.41808 0
M  V30 100 H 8.4086 -0.0727927 -0.82379 0
M  V30 101 H 10.9546 -0.875593 -1.45367 0
M  V30 102 H 9.7266 -1.72711 -3.51122 0
M  V30 103 H 9.3496 -0.0760733 -3.97527 0
M  V30 104 N 10.3467 1.47872 -0.545128 0
M  V30 105 C 11.3097 2.28337 0.198717 0
M  V30 106 C 12.3097 1.36255 0.853888 0
M  V30 107 O 13.4997 1.59003 0.711606 0
M  V30 108 C 10.6317 3.15585 1.28915 0
M  V30 109 H 11.8247 2.95567 -0.507941 0
M  V30 110 H 9.3777 1.53362 -0.301616 0
M  V30 111 H 10.1127 2.53019 2.02859 0
M  V30 112 H 9.8977 3.83337 0.824309 0
M  V30 113 H 11.3877 3.76243 1.81194 0
M  V30 114 N 11.8248 0.280983 1.55075 0
M  V30 115 C 13.2408 -0.0729964 1.59433 0
M  V30 116 C 13.4408 -1.5411 1.29817 0
M  V30 117 O 12.4968 -2.29086 1.06187 0
M  V30 118 C 13.8098 0.306921 2.9913 0
M  V30 119 C 15.3578 0.254023 3.11968 0
M  V30 120 C 15.8328 0.608467 4.5394 0
M  V30 121 N 17.3238 0.560241 4.59799 0
M  V30 122 C 18.0588 0.80722 5.6769 0
M  V30 123 N 17.5548 1.11912 6.83701 0
M  V30 124 N 19.3478 0.735623 5.57266 0
M  V30 125 H 11.4988 1.238 1.7259 0
M  V30 126 H 13.7618 0.500547 0.805082 0
M  V30 127 H 13.4678 1.32816 3.25657 0
M  V30 128 H 13.3418 -0.349363 3.75579 0
M  V30 129 H 15.7288 -0.75794 2.852 0
M  V30 130 H 15.8098 0.944649 2.37718 0
M  V30 131 H 15.4538 1.61814 4.81434 0
M  V30 132 H 15.3838 -0.104013 5.26497 0
M  V30 133 H 17.8748 0.329288 3.76463 0
M  V30 134 H 18.1878 1.29409 7.61888 0
M  V30 135 H 16.5328 1.15695 6.85303 0
M  V30 136 H 19.7238 0.491752 4.6551 0
M  V30 137 H 19.8968 0.931482 6.4127 0
M  V30 138 N 13.3029 -1.57598 0.00835791 0
M  V30 139 C 14.2359 -2.04409 -1.01451 0
M  V30 140 C 15.2139 -0.935609 -1.32985 0
M  V30 141 O 16.3979 -1.20437 -1.45007 0
M  V30 142 C 13.5249 -2.44872 -2.33999 0
M  V30 143 C 12.5709 -3.66535 -2.18069 0
M  V30 144 S 13.4039 -5.14095 -1.4989 0
M  V30 145 C 14.5599 -5.57835 -2.8385 0
M  V30 146 H 14.7929 -2.90849 -0.615961 0
M  V30 147 H 12.3259 -1.53063 -0.202752 0
M  V30 148 H 14.2839 -2.68852 -3.10208 0
M  V30 149 H 12.9449 -1.58815 -2.70992 0
M  V30 150 H 12.1379 -3.92626 -3.16008 0
M  V30 151 H 11.7399 -3.426 -1.50004 0
M  V30 152 H 14.0319 -5.60806 -3.80136 0
M  V30 153 H 14.9749 -6.57667 -2.62449 0
M  V30 154 H 15.3829 -4.85421 -2.88144 0
M  V30 155 N 14.781 0.264519 -1.55364 0
M  V30 156 C 16.029 0.993021 -1.76021 0
M  V30 157 C 16.35 1.86511 -0.569099 0
M  V30 158 O 15.62 1.91438 0.415735 0
M  V30 159 H 14.2 0.369639 -0.649135 0
M  V30 160 H 16.862 0.286707 -1.9278 0
M  V30 161 H 15.958 1.62502 -2.66457 0
M  V30 162 N 16.2591 1.48442 0.529413 0
M  V30 163 C 17.5051 1.5672 1.28711 0
M  V30 164 C 17.8381 0.2406 1.92704 0
M  V30 165 O 17.1131 -0.753454 1.79313 0
M  V30 166 C 17.3961 2.70587 2.37603 0
M  V30 167 C 17.2491 4.12953 1.78297 0
M  V30 168 C 18.5681 2.80212 3.39366 0
M  V30 169 H 15.6871 0.570474 0.466613 0
M  V30 170 H 18.3291 1.80617 0.589706 0
M  V30 171 H 16.4791 2.50342 2.97088 0
M  V30 172 H 18.1511 4.44639 1.22858 0
M  V30 173 H 16.3941 4.19927 1.0883 0
M  V30 174 H 17.0651 4.88448 2.57144 0
M  V30 175 H 19.5411 2.98553 2.89836 0
M  V30 176 H 18.4171 3.61611 4.12951 0
M  V30 177 H 18.6781 1.88393 3.99951 0
M  V30 178 N 17.7372 -0.778329 1.37039 0
M  V30 179 C 18.6702 -1.8984 1.26633 0
M  V30 180 C 19.6482 -1.61923 0.148197 0
M  V30 181 O 20.8322 -1.85742 0.321265 0
M  V30 182 C 17.9592 -3.24916 0.956403 0
M  V30 183 C 17.0052 -3.71752 2.09051 0
M  V30 184 S 17.8382 -3.86201 3.70957 0
M  V30 185 C 18.9942 -5.24135 3.42101 0
M  V30 186 H 19.2272 -1.98377 2.21436 0
M  V30 187 H 16.7602 -0.938738 1.22585 0
M  V30 188 H 18.7182 -4.02936 0.784409 0
M  V30 189 H 17.3792 -3.14089 0.0259713 0
M  V30 190 H 16.5722 -4.69661 1.8285 0
M  V30 191 H 16.1742 -3.00815 2.2223 0
M  V30 192 H 18.4662 -6.09086 2.96682 0
M  V30 193 H 19.4092 -5.55346 4.39314 0
M  V30 194 H 19.8172 -4.91761 2.77185 0
M  V30 195 N 19.2153 -1.21501 -1.00376 0
M  V30 196 C 20.4453 -1.05746 -1.77486 0
M  V30 197 C 20.8533 0.395655 -1.85017 0
M  V30 198 O 20.1963 1.28626 -1.31152 0
M  V30 199 C 20.2583 -1.58092 -3.22873 0
M  V30 200 C 19.9223 -3.06568 -3.38917 0
M  V30 201 C 20.9193 -4.04106 -3.271 0
M  V30 202 C 18.6043 -3.45799 -3.64319 0
M  V30 203 C 20.5983 -5.38862 -3.40451 0
M  V30 204 C 18.2853 -4.80707 -3.77311 0
M  V30 205 C 19.2833 -5.77047 -3.65384 0
M  V30 206 O 18.9713 -7.09507 -3.77961 0
M  V30 207 H 18.7033 -0.371778 -0.564586 0
M  V30 208 H 21.2573 -1.61319 -1.27143 0
M  V30 209 H 19.4873 -0.969163 -3.74358 0
M  V30 210 H 21.1763 -1.38162 -3.81662 0
M  V30 211 H 21.9423 -3.75141 -3.07399 0
M  V30 212 H 17.8213 -2.71344 -3.72684 0
M  V30 213 H 21.3653 -6.14041 -3.31058 0
M  V30 214 H 17.2623 -5.09357 -3.96517 0
M  V30 215 H 18.0303 -7.16935 -3.94901 0
M  V30 216 N 20.6934 1.19889 -1.02296 0
M  V30 217 C 21.6414 2.24938 -0.592081 0
M  V30 218 C 22.6354 1.65257 0.372357 0
M  V30 219 O 23.8414 1.78371 0.241583 0
M  V30 220 H 20.2164 0.731787 -0.173182 0
M  V30 221 H 22.1874 2.58603 -1.48885 0
M  V30 222 C 20.9364 3.47668 0.047351 0
M  V30 223 H 20.2594 3.93875 -0.685772 0
M  V30 224 H 21.6994 4.22852 0.311862 0
M  V30 225 C 20.1584 3.11136 1.29212 0
M  V30 226 O 20.6884 3.2325 2.38479 0
M  V30 227 N 18.8944 2.65625 1.17863 0
M  V30 228 H 18.4414 2.55968 0.289493 0
M  V30 229 H 18.3994 2.41553 2.01245 0
M  V30 230 N 22.1715 0.800033 1.35784 0
M  V30 231 C 23.4195 0.376597 1.9856 0
M  V30 232 C 23.7405 -1.05812 1.63795 0
M  V30 233 O 23.0105 -1.73103 0.917171 0
M  V30 234 H 21.5905 0.136261 0.734467 0
M  V30 235 H 24.2525 1.02442 1.65806 0
M  V30 236 H 23.3485 0.477002 3.08433 0
M  V30 237 N 23.6496 -1.47581 0.552962 0
M  V30 238 C 24.9266 -1.95563 -0.0381515 0
M  V30 239 C 25.3066 -1.49552 -1.48988 0
M  V30 240 O 24.6546 -0.732414 -2.16444 0
M  V30 241 C 24.8646 -3.48848 0.102919 0
M  V30 242 C 26.2126 -4.24577 -0.0446082 0
M  V30 243 O 27.2366 -3.56187 0.0302548 0
M  V30 244 O 26.0956 -5.46116 -0.204923 0
M  V30 245 H 23.1896 -0.824321 -0.0665067 0
M  V30 246 H 25.7356 -1.58001 0.619186 0
M  V30 247 H 24.5076 -3.75129 1.11328 0
M  V30 248 H 24.1306 -3.93165 -0.592224 0
M  V30 249 N 25.1277 -0.289203 -1.54924 0
M  V30 250 C 26.4047 0.376032 -1.91951 0
M  V30 251 C 26.7847 1.72622 -1.21511 0
M  V30 252 O 26.1327 2.25853 -0.346767 0
M  V30 253 C 26.3427 0.502378 -3.45365 0
M  V30 254 C 27.6907 0.778741 -4.17398 0
M  V30 255 O 28.7147 0.586647 -3.51336 0
M  V30 256 O 27.5737 1.14698 -5.34328 0
M  V30 257 H 24.6677 0.208167 -0.800372 0
M  V30 258 H 27.2137 -0.336394 -1.66332 0
M  V30 259 H 25.9857 -0.447255 -3.88736 0
M  V30 260 H 25.6087 1.26373 -3.76982 0
M  V30 261 N 26.6058 1.57591 -0.0167156 0
M  V30 262 C 27.8518 1.92399 0.659861 0
M  V30 263 C 28.2068 0.892561 1.70444 0
M  V30 264 O 27.4998 -0.0930755 1.91374 0
M  V30 265 C 27.6938 3.3172 1.33029 0
M  V30 266 C 27.5228 4.48319 0.352174 0
M  V30 267 C 26.2928 5.05281 -0.0434883 0
M  V30 268 C 28.4908 5.12831 -0.388474 0
M  V30 269 N 26.4728 6.05399 -1.01807 0
M  V30 270 C 27.8438 6.07934 -1.2172 0
M  V30 271 C 29.8988 4.95858 -0.450513 0
M  V30 272 C 28.6018 6.87891 -2.10235 0
M  V30 273 C 30.6278 5.76413 -1.32295 0
M  V30 274 C 29.9898 6.71123 -2.13948 0
M  V30 275 H 26.0888 0.752106 0.21415 0
M  V30 276 H 28.6728 1.94532 -0.0809846 0
M  V30 277 H 26.8438 3.3043 2.04134 0
M  V30 278 H 28.5758 3.5391 1.9629 0
M  V30 279 H 25.3308 4.7246 0.328384 0
M  V30 280 H 25.7548 6.60145 -1.50123 0
M  V30 281 H 30.3968 4.22472 0.166512 0
M  V30 282 H 28.1148 7.60591 -2.72997 0
M  V30 283 H 31.7008 5.65317 -1.37508 0
M  V30 284 H 30.5808 7.3237 -2.80364 0
M  V30 285 N 28.0839 -0.256276 1.55502 0
M  V30 286 C 29.0319 -1.33694 1.90338 0
M  V30 287 C 30.0259 -1.50299 0.781441 0
M  V30 288 O 31.2319 -1.51885 0.965966 0
M  V30 289 H 27.6069 -0.447483 0.60437 0
M  V30 290 H 29.5779 -1.01574 2.8058 0
M  V30 291 C 28.3269 -2.68724 2.20642 0
M  V30 292 H 27.6499 -2.56743 3.06469 0
M  V30 293 H 29.0899 -3.43237 2.48926 0
M  V30 294 C 27.5489 -3.21101 1.01959 0
M  V30 295 O 28.0789 -4.0084 0.262762 0
M  V30 296 N 26.2849 -2.79003 0.812746 0
M  V30 297 H 25.8319 -2.14271 1.42989 0
M  V30 298 H 25.7899 -3.14393 0.0203076 0
M  V30 299 N 29.562 -1.4872 -0.521534 0
M  V30 300 C 30.809 -1.57168 -1.27689 0
M  V30 301 C 31.137 -0.249275 -1.92896 0
M  V30 302 O 30.392 0.761162 -1.80291 0
M  V30 303 C 30.691 -2.66497 -2.38148 0
M  V30 304 C 30.357 -4.08664 -1.90538 0
M  V30 305 C 29.019 -4.47357 -1.77271 0
M  V30 306 C 31.371 -4.97724 -1.54663 0
M  V30 307 C 28.699 -5.72905 -1.26478 0
M  V30 308 C 31.051 -6.2377 -1.05329 0
M  V30 309 C 29.715 -6.61311 -0.906861 0
M  V30 310 H 28.985 -0.575117 -0.467249 0
M  V30 311 H 31.632 -1.82472 -0.581051 0
M  V30 312 H 29.937 -2.35085 -3.13437 0
M  V30 313 H 31.634 -2.70246 -2.96257 0
M  V30 314 H 28.224 -3.78111 -2.01816 0
M  V30 315 H 32.408 -4.68501 -1.63768 0
M  V30 316 H 27.664 -6.00709 -1.13835 0
M  V30 317 H 31.838 -6.9217 -0.76644 0
M  V30 318 H 29.465 -7.5848 -0.511083 0
M  V30 319 N 31.0401 0.771051 -1.3745 0
M  V30 320 C 32.2651 1.56529 -1.36065 0
M  V30 321 C 32.6901 1.88029 0.0515859 0
M  V30 322 O 32.0481 1.49282 1.02882 0
M  V30 323 C 32.0961 2.85187 -2.20683 0
M  V30 324 O 31.2001 3.79593 -1.61193 0
M  V30 325 H 30.5411 0.47411 -0.464883 0
M  V30 326 H 33.0711 0.954269 -1.80983 0
M  V30 327 H 33.0811 3.34283 -2.33921 0
M  V30 328 H 31.7561 2.61588 -3.23334 0
M  V30 329 H 30.3331 3.38239 -1.56999 0
M  V30 330 N 32.5182 1.22032 0.997298 0
M  V30 331 C 33.7432 1.06921 1.77715 0
M  V30 332 C 34.1682 -0.376226 1.84299 0
M  V30 333 O 33.5262 -1.27165 1.29223 0
M  V30 334 C 33.5742 1.67996 3.19076 0
M  V30 335 O 32.6782 0.930653 4.01762 0
M  V30 336 H 32.0192 0.375814 0.547412 0
M  V30 337 H 34.5492 1.61737 1.25309 0
M  V30 338 H 34.5592 1.72538 3.69723 0
M  V30 339 H 33.2342 2.73182 3.13599 0
M  V30 340 H 31.8112 0.960917 3.60307 0
M  V30 341 N 33.9963 -1.19345 1.0293 0
M  V30 342 C 35.4123 -1.41069 0.746446 0
M  V30 343 C 35.6123 -1.90078 -0.668776 0
M  V30 344 O 34.6683 -2.0778 -1.4347 0
M  V30 345 C 35.9813 -2.42141 1.78292 0
M  V30 346 C 37.5293 -2.55887 1.80252 0
M  V30 347 C 38.0043 -3.60214 2.8286 0
M  V30 348 N 39.4953 -3.67711 2.81679 0
M  V30 349 C 40.2303 -4.48128 3.57727 0
M  V30 350 N 39.7263 -5.32248 4.43491 0
M  V30 351 N 41.5193 -4.42782 3.46267 0
M  V30 352 H 33.6703 -0.858536 1.94275 0
M  V30 353 H 35.9333 -0.439541 0.839945 0
M  V30 354 H 35.6393 -2.13155 2.79746 0
M  V30 355 H 35.5133 -3.41323 1.60557 0
M  V30 356 H 37.9003 -2.84196 0.794757 0
M  V30 357 H 37.9813 -1.56858 2.02062 0
M  V30 358 H 37.6253 -3.32647 3.83807 0
M  V30 359 H 37.5553 -4.58895 2.58307 0
M  V30 360 H 40.0463 -3.07634 2.19476 0
M  V30 361 H 40.3593 -5.90729 4.98256 0
M  V30 362 H 38.7043 -5.31707 4.47564 0
M  V30 363 H 41.8953 -3.76107 2.78677 0
M  V30 364 H 42.0683 -5.05215 4.05785 0
M  V30 365 N 35.4744 -0.807222 -1.35358 0
M  V30 366 C 36.6994 -0.399309 -2.0352 0
M  V30 367 C 37.1244 0.981986 -1.60433 0
M  V30 368 O 36.4824 1.63601 -0.781299 0
M  V30 369 C 36.5304 -0.491552 -3.57234 0
M  V30 370 O 35.6344 0.494754 -4.09421 0
M  V30 371 H 34.9754 -0.166682 -0.642739 0
M  V30 372 H 37.5054 -1.09328 -1.72941 0
M  V30 373 H 37.5154 -0.361588 -4.06395 0
M  V30 374 H 36.1904 -1.49907 -3.87944 0
M  V30 375 H 34.7674 0.324977 -3.71481 0
M  V30 376 N 36.9525 1.47285 -0.560781 0
M  V30 377 C 38.3685 1.58065 -0.22081 0
M  V30 378 C 38.5685 1.55892 1.27671 0
M  V30 379 O 37.6245 1.46422 2.0571 0
M  V30 380 C 38.9375 2.88418 -0.850625 0
M  V30 381 C 40.4855 3.02009 -0.822184 0
M  V30 382 C 40.9605 4.35066 -1.43113 0
M  V30 383 N 42.4515 4.41711 -1.39448 0
M  V30 384 C 43.1865 5.43237 -1.83525 0
M  V30 385 N 42.6825 6.51555 -2.35474 0
M  V30 386 N 44.4755 5.34304 -1.74574 0
M  V30 387 H 36.6265 1.46941 -1.53369 0
M  V30 388 H 38.8895 0.699558 -0.639783 0
M  V30 389 H 38.5955 2.95755 -1.9032 0
M  V30 390 H 38.4695 3.75612 -0.345773 0
M  V30 391 H 40.8565 2.94266 0.221714 0
M  V30 392 H 40.9375 2.16347 -1.36483 0
M  V30 393 H 40.5815 4.43565 -2.47412 0
M  V30 394 H 40.5115 5.19465 -0.863899 0
M  V30 395 H 43.0025 3.64027 -1.01452 0
M  V30 396 H 43.3155 7.25203 -2.67021 0
M  V30 397 H 41.6605 6.52435 -2.39487 0
M  V30 398 H 44.8515 4.48581 -1.33763 0
M  V30 399 H 45.0245 6.13288 -2.09242 0
M  V30 400 N 38.4306 0.297415 1.54768 0
M  V30 401 C 39.6766 -0.313376 2.00364 0
M  V30 402 C 40.0096 -1.53815 1.18553 0
M  V30 403 O 39.2846 -1.92739 0.261103 0
M  V30 404 C 39.5676 -0.673525 3.53745 0
M  V30 405 C 39.4206 0.560133 4.46299 0
M  V30 406 C 40.7396 -1.50143 4.13697 0
M  V30 407 H 37.8586 -0.112428 0.728374 0
M  V30 408 H 40.5006 0.4088 1.8555 0
M  V30 409 H 38.6506 -1.28881 3.665 0
M  V30 410 H 40.3226 1.19863 4.45455 0
M  V30 411 H 38.5656 1.19405 4.17043 0
M  V30 412 H 39.2366 0.26405 5.51368 0
M  V30 413 H 41.7126 -0.981588 4.04356 0
M  V30 414 H 40.5886 -1.72221 5.21182 0
M  V30 415 H 40.8496 -2.48952 3.65343 0
M  V30 416 N 39.9087 -1.5758 0.0250728 0
M  V30 417 C 40.8387 -2.13007 -0.956575 0
M  V30 418 C 41.8197 -1.0452 -1.342 0
M  V30 419 O 43.0047 -1.32332 -1.42133 0
M  V30 420 C 40.1347 -2.65386 -2.24026 0
M  V30 421 C 39.0887 -3.78623 -1.99571 0
M  V30 422 C 38.4147 -4.17414 -3.3417 0
M  V30 423 C 39.7147 -5.04867 -1.33814 0
M  V30 424 H 41.4087 -2.9528 -0.494991 0
M  V30 425 H 38.9547 -1.42042 -0.236651 0
M  V30 426 H 40.9077 -3.02794 -2.93076 0
M  V30 427 H 39.6317 -1.80268 -2.72343 0
M  V30 428 H 38.2907 -3.41646 -1.32941 0
M  V30 429 H 37.9387 -3.29284 -3.80238 0
M  V30 430 H 37.6387 -4.93719 -3.18615 0
M  V30 431 H 39.1627 -4.57402 -4.04495 0
M  V30 432 H 40.5767 -5.39888 -1.92857 0
M  V30 433 H 38.9737 -5.86144 -1.28669 0
M  V30 434 H 40.0437 -4.83904 -0.310561 0
M  V30 435 N 41.3868 0.248026 -1.55636 0
M  V30 436 C 42.6338 0.976224 -1.77415 0
M  V30 437 C 42.9618 1.85361 -0.589193 0
M  V30 438 O 42.2168 1.90973 0.427529 0
M  V30 439 C 42.5158 1.86819 -3.04686 0
M  V30 440 C 42.1818 1.14625 -4.36087 0
M  V30 441 C 40.8438 0.946723 -4.71795 0
M  V30 442 C 43.1958 0.634463 -5.17324 0
M  V30 443 C 40.5238 0.223091 -5.86276 0
M  V30 444 C 42.8758 -0.0756959 -6.32555 0
M  V30 445 C 41.5398 -0.286711 -6.66884 0
M  V30 446 H 40.8098 0.357226 -0.649208 0
M  V30 447 H 43.4568 0.246415 -1.89908 0
M  V30 448 H 41.7618 2.66502 -2.872 0
M  V30 449 H 43.4588 2.43329 -3.18735 0
M  V30 450 H 40.0488 1.3117 -4.08035 0
M  V30 451 H 44.2328 0.77616 -4.90193 0
M  V30 452 H 39.4888 0.0491185 -6.1138 0
M  V30 453 H 43.6628 -0.479899 -6.94745 0
M  V30 454 H 41.2898 -0.849389 -7.5544 0
M  V30 455 N 42.8649 1.48995 0.513639 0
M  V30 456 C 44.0929 1.61531 1.29288 0
M  V30 457 C 44.5079 0.281801 1.86685 0
M  V30 458 O 43.8649 -0.731111 1.67215 0
M  V30 459 C 43.9159 2.67449 2.43215 0
M  V30 460 O 43.6369 3.95626 1.88179 0
M  V30 461 C 45.1379 2.90575 3.34785 0
M  V30 462 H 42.3579 0.544165 0.392588 0
M  V30 463 H 44.9019 1.9494 0.617956 0
M  V30 464 H 43.0569 2.36853 3.0656 0
M  V30 465 H 43.4709 4.53868 2.62876 0
M  V30 466 H 44.9449 3.68449 4.11035 0
M  V30 467 H 45.4219 2.00011 3.91015 0
M  V30 468 H 46.0279 3.22538 2.77218 0
M  V30 469 N 44.343 -0.763751 1.37857 0
M  V30 470 C 45.276 -1.88486 1.28639 0
M  V30 471 C 46.254 -1.61757 0.165363 0
M  V30 472 O 47.438 -1.85391 0.340948 0
M  V30 473 C 44.565 -3.23884 0.990811 0
M  V30 474 C 43.611 -3.69514 2.12983 0
M  V30 475 S 44.444 -3.82244 3.75033 0
M  V30 476 C 45.6 -5.20477 3.47641 0
M  V30 477 H 45.833 -1.96017 2.23527 0
M  V30 478 H 43.366 -0.925684 1.23574 0
M  V30 479 H 45.324 -4.02081 0.827101 0
M  V30 480 H 43.985 -3.14044 0.0592832 0
M  V30 481 H 43.178 -4.67696 1.87821 0
M  V30 482 H 42.78 -2.98441 2.25408 0
M  V30 483 H 45.072 -6.05905 3.03125 0
M  V30 484 H 46.015 -5.50655 4.4518 0
M  V30 485 H 46.423 -4.88793 2.82385 0
M  V30 486 N 45.8211 -1.22559 -0.990812 0
M  V30 487 C 47.0461 -1.07862 -1.77145 0
M  V30 488 C 47.4711 0.366447 -1.84496 0
M  V30 489 O 46.8291 1.26478 -1.29896 0
M  V30 490 C 46.8771 -1.69686 -3.18181 0
M  V30 491 O 45.9811 -0.951946 -4.01263 0
M  V30 492 H 45.3221 -0.378712 -0.545411 0
M  V30 493 H 47.8521 -1.62399 -1.2445 0
M  V30 494 H 47.8621 -1.74496 -3.68802 0
M  V30 495 H 46.5371 -2.74841 -3.12146 0
M  V30 496 H 45.1141 -0.980011 -3.59792 0
M  V30 497 N 47.2992 1.18797 -1.03562 0
M  V30 498 C 48.5472 1.88278 -0.734569 0
M  V30 499 C 48.8682 1.8043 0.739586 0
M  V30 500 O 48.1382 1.21925 1.53333 0
M  V30 501 H 46.7182 0.696991 -0.268725 0
M  V30 502 H 49.3802 1.44192 -1.31129 0
M  V30 503 H 48.4762 2.94443 -1.03489 0
M  V30 504 N 48.7773 0.814389 1.34928 0
M  V30 505 C 50.0053 0.411136 2.02774 0
M  V30 506 C 50.4203 -0.980316 1.61354 0
M  V30 507 O 49.7773 -1.63299 0.814847 0
M  V30 508 C 49.8283 0.493865 3.58111 0
M  V30 509 O 49.5493 1.83047 3.98027 0
M  V30 510 C 51.0503 0.0844174 4.4322 0
M  V30 511 H 48.2703 0.166037 0.650133 0
M  V30 512 H 50.8143 1.10018 1.72384 0
M  V30 513 H 48.9693 -0.147006 3.87121 0
M  V30 514 H 49.3833 1.79872 4.92693 0
M  V30 515 H 50.8573 0.193404 5.51661 0
M  V30 516 H 51.3343 -0.97113 4.28329 0
M  V30 517 H 51.9403 0.69875 4.19521 0
M  V30 518 N 50.2554 -1.46986 0.568584 0
M  V30 519 C 51.4834 -2.0683 0.0539956 0
M  V30 520 C 51.8984 -1.41953 -1.24478 0
M  V30 521 O 51.2554 -0.519933 -1.74937 0
M  V30 522 C 51.3064 -3.61254 -0.133362 0
M  V30 523 O 51.0274 -4.237 1.11399 0
M  V30 524 C 52.5284 -4.37992 -0.683927 0
M  V30 525 H 49.7484 -0.669058 0.0510141 0
M  V30 526 H 52.2924 -1.88824 0.785234 0
M  V30 527 H 50.4474 -3.78735 -0.81477 0
M  V30 528 H 50.8614 -5.16388 0.91888 0
M  V30 529 H 52.3354 -5.46684 -0.764263 0
M  V30 530 H 52.8124 -4.05058 -1.69778 0
M  V30 531 H 53.4184 -4.25283 -0.0378494 0
M  V30 532 N 51.7335 -0.305618 -1.54608 0
M  V30 533 C 53.0105 0.355652 -1.92339 0
M  V30 534 C 53.3905 1.71324 -1.23335 0
M  V30 535 O 52.7385 2.25473 -0.370702 0
M  V30 536 C 52.9485 0.46572 -3.45879 0
M  V30 537 C 54.2965 0.734426 -4.182 0
M  V30 538 O 55.3205 0.54935 -3.51938 0
M  V30 539 O 54.1795 1.09024 -5.35515 0
M  V30 540 H 51.2735 0.199666 -0.802535 0
M  V30 541 H 53.8195 -0.354017 -1.65966 0
M  V30 542 H 52.5915 -0.488461 -3.88239 0
M  V30 543 H 52.2145 1.22367 -3.78301 0
M  V30 544 N 53.2116 1.57565 -0.0334293 0
M  V30 545 C 54.4366 1.96689 0.657895 0
M  V30 546 C 54.8616 0.910057 1.64619 0
M  V30 547 O 54.2196 -0.128598 1.80843 0
M  V30 548 C 54.2676 3.34905 1.33683 0
M  V30 549 O 53.3716 3.31574 2.45219 0
M  V30 550 H 52.7126 0.641205 0.172489 0
M  V30 551 H 55.2426 2.04372 -0.0965621 0
M  V30 552 H 55.2526 3.71234 1.69262 0
M  V30 553 H 53.9276 4.11366 0.612411 0
M  V30 554 H 52.5046 3.06968 2.11719 0
M  V30 555 N 54.6897 -0.239769 1.55765 0
M  V30 556 C 55.9377 -0.964892 1.77579 0
M  V30 557 C 56.2587 -1.85582 0.598699 0
M  V30 558 O 55.5287 -1.92075 -0.385226 0
M  V30 559 H 54.1087 -0.359265 0.654933 0
M  V30 560 H 56.7707 -0.256001 1.93211 0
M  V30 561 H 55.8667 -1.58243 2.69009 0
M  V30 562 N 56.1678 -1.49265 -0.50573 0
M  V30 563 C 57.0978 -1.68495 -1.61653 0
M  V30 564 C 58.0788 -0.53366 -1.61512 0
M  V30 565 O 59.2638 -0.76897 -1.78327 0
M  V30 566 C 56.3938 -1.74709 -3.00157 0
M  V30 567 C 55.3478 -2.89581 -3.15162 0
M  V30 568 C 54.6738 -2.80903 -4.5497 0
M  V30 569 C 55.9738 -4.30578 -2.95634 0
M  V30 570 H 57.6678 -2.61493 -1.45814 0
M  V30 571 H 55.2138 -1.25838 -0.70005 0
M  V30 572 H 57.1668 -1.86748 -3.77761 0
M  V30 573 H 55.8908 -0.783067 -3.17074 0
M  V30 574 H 54.5498 -2.77136 -2.39982 0
M  V30 575 H 54.1978 -1.82419 -4.68756 0
M  V30 576 H 53.8978 -3.57999 -4.65951 0
M  V30 577 H 55.4218 -2.94944 -5.34641 0
M  V30 578 H 56.8358 -4.4373 -3.63011 0
M  V30 579 H 55.2328 -5.0886 -3.18091 0
M  V30 580 H 56.3028 -4.45352 -1.91806 0
M  V30 581 N 57.6459 0.756429 -1.3826 0
M  V30 582 C 58.5559 1.9009 -1.37488 0
M  V30 583 C 59.5719 1.71855 -0.272366 0
M  V30 584 O 60.7479 1.94827 -0.510318 0
M  V30 585 C 57.8129 3.25421 -1.19592 0
M  V30 586 C 56.8739 3.56202 -2.39622 0
M  V30 587 C 56.1069 4.85075 -2.2257 0
M  V30 588 O 56.3299 5.57246 -1.21793 0
M  V30 589 O 55.2639 5.15269 -3.11098 0
M  V30 590 H 59.0899 1.93695 -2.33914 0
M  V30 591 H 56.6749 0.901313 -1.1915 0
M  V30 592 H 58.5569 4.06337 -1.11661 0
M  V30 593 H 57.2319 3.22634 -0.262486 0
M  V30 594 H 56.1389 2.75458 -2.53128 0
M  V30 595 H 57.4719 3.63747 -3.31586 0
M  V30 596 N 59.124 1.23083 0.984299 0
M  V30 597 C 60.371 1.06057 1.72505 0
M  V30 598 C 60.699 -0.403105 1.90277 0
M  V30 599 O 59.954 -1.3149 1.44944 0
M  V30 600 C 60.253 1.72673 3.1292 0
M  V30 601 C 59.919 3.22586 3.15038 0
M  V30 602 C 58.581 3.63489 3.15324 0
M  V30 603 C 60.933 4.185 3.10657 0
M  V30 604 C 58.261 4.98772 3.08939 0
M  V30 605 C 60.613 5.53769 3.05814 0
M  V30 606 C 59.277 5.94041 3.04419 0
M  V30 607 H 58.547 0.388091 0.631242 0
M  V30 608 H 61.194 1.52963 1.15215 0
M  V30 609 H 59.499 1.18116 3.73572 0
M  V30 610 H 61.196 1.56982 3.68996 0
M  V30 611 H 57.786 2.90022 3.15571 0
M  V30 612 H 61.97 3.87911 3.09579 0
M  V30 613 H 57.226 5.29193 3.0621 0
M  V30 614 H 61.4 6.27808 3.0138 0
M  V30 615 H 59.027 6.98833 2.99227 0
M  V30 616 N 60.6021 -1.18246 1.0419 0
M  V30 617 C 61.8501 -1.87886 0.744543 0
M  V30 618 C 62.1711 -1.8082 -0.730006 0
M  V30 619 O 61.4411 -1.22736 -1.52685 0
M  V30 620 H 60.0211 -0.695556 0.272417 0
M  V30 621 H 62.6831 -1.43494 1.31892 0
M  V30 622 H 61.7791 -2.9389 1.05049 0
M  V30 623 N 62.0802 -0.821533 -1.34494 0
M  V30 624 C 63.0432 -0.247847 -2.27856 0
M  V30 625 C 64.0432 0.573453 -1.50227 0
M  V30 626 O 65.2332 0.389759 -1.69784 0
M  V30 627 C 62.3652 0.652698 -3.34593 0
M  V30 628 H 63.5582 -1.07146 -2.80107 0
M  V30 629 H 61.1112 -0.593291 -1.44602 0
M  V30 630 H 61.8462 1.49943 -2.87555 0
M  V30 631 H 61.6312 0.065292 -3.92046 0
M  V30 632 H 63.1212 1.04793 -4.04238 0
M  V30 633 N 63.5583 1.46682 -0.576371 0
M  V30 634 C 64.7833 2.07304 -0.0630475 0
M  V30 635 C 65.2083 1.42329 1.2298 0
M  V30 636 O 64.5663 0.504865 1.74129 0
M  V30 637 C 64.6143 3.60472 0.095895 0
M  V30 638 O 63.7183 3.95927 1.15394 0
M  V30 639 H 63.0593 0.661288 -0.0599463 0
M  V30 640 H 65.5893 1.88417 -0.797511 0
M  V30 641 H 65.5993 4.06865 0.304071 0
M  V30 642 H 64.2743 4.07157 -0.84828 0
M  V30 643 H 62.8513 3.61252 0.924724 0
M  V30 644 N 65.0364 0.313813 1.54444 0
M  V30 645 C 66.2834 -0.291675 2.00388 0
M  V30 646 C 66.6114 -1.52904 1.2021 0
M  V30 647 O 65.8664 -1.93833 0.269707 0
M  V30 648 C 66.1654 -0.680386 3.50864 0
M  V30 649 C 65.8314 0.456699 4.48581 0
M  V30 650 C 64.4934 0.768824 4.75018 0
M  V30 651 C 66.8454 1.22098 5.06697 0
M  V30 652 C 64.1734 1.84812 5.56831 0
M  V30 653 C 66.5254 2.29029 5.89685 0
M  V30 654 C 65.1894 2.60834 6.14428 0
M  V30 655 H 64.4594 -0.106732 0.733273 0
M  V30 656 H 67.1064 0.43557 1.86481 0
M  V30 657 H 65.4114 -1.48791 3.62448 0
M  V30 658 H 67.1084 -1.16026 3.83847 0
M  V30 659 H 63.6984 0.203337 4.28117 0
M  V30 660 H 67.8824 0.993096 4.86263 0
M  V30 661 H 63.1384 2.09912 5.74236 0
M  V30 662 H 67.3124 2.887 6.33739 0
M  V30 663 H 64.9394 3.44596 6.77612 0
M  V30 664 N 66.5145 -1.57545 0.0417849 0
M  V30 665 C 67.4615 -2.10977 -0.935805 0
M  V30 666 C 68.4315 -1.01486 -1.31491 0
M  V30 667 O 69.6165 -1.2898 -1.40602 0
M  V30 668 C 66.7565 -2.65169 -2.2086 0
M  V30 669 C 65.8695 -3.88714 -1.88482 0
M  V30 670 C 65.0045 -4.31254 -3.1015 0
M  V30 671 C 64.0435 -5.47524 -2.7365 0
M  V30 672 N 63.1805 -5.85162 -3.87982 0
M  V30 673 H 68.0205 -2.94218 -0.473249 0
M  V30 674 H 65.5575 -1.45415 -0.221981 0
M  V30 675 H 67.5155 -2.94685 -2.95325 0
M  V30 676 H 66.1455 -1.8474 -2.64709 0
M  V30 677 H 65.1975 -3.65849 -1.04205 0
M  V30 678 H 66.5095 -4.73245 -1.57608 0
M  V30 679 H 65.6635 -4.62273 -3.92923 0
M  V30 680 H 64.4025 -3.45516 -3.44195 0
M  V30 681 H 63.4075 -5.16187 -1.89291 0
M  V30 682 H 64.6325 -6.34971 -2.40807 0
M  V30 683 H 62.5785 -5.02377 -4.21846 0
M  V30 684 H 62.4955 -6.64362 -3.60775 0
M  V30 685 H 63.7635 -6.20791 -4.71422 0
M  V30 686 N 67.9926 0.231505 -1.5589 0
M  V30 687 C 68.9556 1.27028 -1.90779 0
M  V30 688 C 69.9556 1.40308 -0.785507 0
M  V30 689 O 71.1456 1.38744 -1.05336 0
M  V30 690 C 68.2776 2.64566 -2.14983 0
M  V30 691 H 69.4706 0.973017 -2.83677 0
M  V30 692 H 67.0236 0.471486 -1.49019 0
M  V30 693 H 67.7586 2.99406 -1.24604 0
M  V30 694 H 67.5436 2.56305 -2.96732 0
M  V30 695 H 69.0336 3.39543 -2.43105 0
M  V30 696 N 69.4707 1.49531 0.497807 0
M  V30 697 C 70.4207 1.62829 1.59596 0
M  V30 698 C 71.4047 0.483824 1.53453 0
M  V30 699 O 72.5967 0.736937 1.60929 0
M  V30 700 C 69.7257 1.7011 2.98191 0
M  V30 701 C 68.8117 2.90144 3.09317 0
M  V30 702 N 69.2027 4.1418 2.90324 0
M  V30 703 C 67.5007 2.88148 3.40422 0
M  V30 704 C 68.2017 4.94886 3.05717 0
M  V30 705 N 67.1777 4.28314 3.34736 0
M  V30 706 H 70.9797 2.56446 1.4357 0
M  V30 707 H 68.4937 1.46347 0.704001 0
M  V30 708 H 70.4907 1.77735 3.77115 0
M  V30 709 H 69.1507 0.776315 3.15283 0
M  V30 710 H 70.1617 4.44109 2.66436 0
M  V30 711 H 66.8387 2.05061 3.63671 0
M  V30 712 H 68.2287 6.03432 2.95499 0
M  V30 713 N 70.9488 -0.749086 1.3866 0
M  V30 714 C 71.8588 -1.89358 1.38494 0
M  V30 715 C 72.8748 -1.71708 0.281476 0
M  V30 716 O 74.0508 -1.94554 0.520643 0
M  V30 717 C 71.1158 -3.24782 1.21316 0
M  V30 718 C 70.1768 -3.54926 2.41508 0
M  V30 719 C 69.4098 -4.83888 2.2514 0
M  V30 720 O 69.6328 -5.56592 1.24746 0
M  V30 721 O 68.5668 -5.13612 3.13826 0
M  V30 722 H 72.3928 -1.92452 2.34938 0
M  V30 723 H 69.9778 -0.894981 1.19626 0
M  V30 724 H 71.8598 -4.05739 1.13814 0
M  V30 725 H 70.5348 -3.2249 0.279592 0
M  V30 726 H 69.4418 -2.74112 2.54585 0
M  V30 727 H 70.7748 -3.61983 3.3351 0
M  V30 728 N 72.4269 -1.23603 -0.977757 0
M  V30 729 C 73.6519 -1.09735 -1.75991 0
M  V30 730 C 74.0769 0.346858 -1.84874 0
M  V30 731 O 73.4349 1.25093 -1.3123 0
M  V30 732 C 73.4829 -1.73051 -3.16363 0
M  V30 733 O 72.5869 -0.994452 -4.0023 0
M  V30 734 H 71.9279 -0.384476 -0.541364 0
M  V30 735 H 74.4579 -1.6371 -1.2272 0
M  V30 736 H 74.4679 -1.78398 -3.66931 0
M  V30 737 H 73.1429 -2.78137 -3.09213 0
M  V30 738 H 71.7199 -1.01812 -3.58732 0
M  V30 739 N 73.905 1.17692 -1.04816 0
M  V30 740 C 75.151 1.88137 -0.75711 0
M  V30 741 C 75.484 1.80604 0.713841 0
M  V30 742 O 74.759 1.21146 1.52164 0
M  V30 743 C 75.042 3.38318 -1.2334 0
M  V30 744 C 74.895 3.54622 -2.76701 0
M  V30 745 C 76.214 4.32214 -0.829415 0
M  V30 746 H 73.333 0.683163 -0.27651 0
M  V30 747 H 75.975 1.38424 -1.30149 0
M  V30 748 H 74.125 3.80787 -0.770286 0
M  V30 749 H 75.797 3.21194 -3.31107 0
M  V30 750 H 74.04 2.97026 -3.16161 0
M  V30 751 H 74.711 4.60028 -3.05088 0
M  V30 752 H 77.187 3.97565 -1.22805 0
M  V30 753 H 76.063 5.35838 -1.19033 0
M  V30 754 H 76.324 4.41294 0.266891 0
M  V30 755 N 75.3831 0.828654 1.34056 0
M  V30 756 C 76.6311 0.41863 1.97717 0
M  V30 757 C 76.9521 -1.02314 1.66002 0
M  V30 758 O 76.2221 -1.71119 0.953683 0
M  V30 759 H 74.8021 0.151809 0.731412 0
M  V30 760 H 77.4641 1.05936 1.63596 0
M  V30 761 H 76.5601 0.542318 3.07352 0
M  V30 762 N 76.8612 -1.46375 0.584142 0
M  V30 763 C 77.8242 -2.28784 -0.138108 0
M  V30 764 C 78.8242 -1.38471 -0.817462 0
M  V30 765 O 80.0142 -1.60833 -0.669199 0
M  V30 766 C 77.1462 -3.18892 -1.20503 0
M  V30 767 H 78.3392 -2.94117 0.586127 0
M  V30 768 H 75.8922 -1.52509 0.342171 0
M  V30 769 H 76.6272 -2.58309 -1.96079 0
M  V30 770 H 76.4122 -3.85388 -0.722384 0
M  V30 771 H 77.9022 -3.80914 -1.71155 0
M  V30 772 N 78.3393 -0.321999 -1.54275 0
M  V30 773 C 79.2493 0.553631 -2.27974 0
M  V30 774 C 80.2653 1.13054 -1.32268 0
M  V30 775 O 81.4413 1.15084 -1.6528 0
M  V30 776 C 78.5063 1.69927 -3.02201 0
M  V30 777 C 77.5673 1.15433 -4.1349 0
M  V30 778 C 76.8003 2.24537 -4.84168 0
M  V30 779 O 77.0233 3.44852 -4.5435 0
M  V30 780 O 75.9573 1.90044 -5.7111 0
M  V30 781 H 79.7833 -0.0448345 -3.03667 0
M  V30 782 H 77.3683 -0.0877418 -1.49142 0
M  V30 783 H 79.2503 2.3663 -3.48689 0
M  V30 784 H 77.9253 2.28395 -2.29385 0
M  V30 785 H 76.8323 0.452436 -3.71354 0
M  V30 786 H 78.1653 0.614805 -4.88345 0
M  V30 787 N 79.8174 1.5752 -0.0501392 0
M  V30 788 C 81.0454 1.96963 0.633492 0
M  V30 789 C 81.4604 0.927631 1.6444 0
M  V30 790 O 80.8174 -0.0882665 1.82286 0
M  V30 791 C 80.8684 3.36487 1.32132 0
M  V30 792 O 80.5894 4.36693 0.350894 0
M  V30 793 C 82.0904 3.90682 2.09481 0
M  V30 794 H 79.3104 0.648244 0.173266 0
M  V30 795 H 81.8544 2.0417 -0.116134 0
M  V30 796 H 80.0094 3.30434 2.02218 0
M  V30 797 H 80.4234 5.17702 0.841735 0
M  V30 798 H 81.8974 4.90591 2.5303 0
M  V30 799 H 82.3744 3.26053 2.94255 0
M  V30 800 H 82.9804 4.00069 1.44307 0
M  V30 801 N 81.2955 -0.223234 1.56011 0
M  V30 802 C 82.5435 -0.946003 1.78592 0
M  V30 803 C 82.8645 -1.84936 0.618349 0
M  V30 804 O 82.1345 -1.92473 -0.364833 0
M  V30 805 H 80.7145 -0.352298 0.658707 0
M  V30 806 H 83.3765 -0.235494 1.93472 0
M  V30 807 H 82.4725 -1.55381 2.70672 0
M  V30 808 N 82.7736 -1.49793 -0.48987 0
M  V30 809 C 83.6836 -1.70036 -1.61632 0
M  V30 810 C 84.6996 -0.583102 -1.63939 0
M  V30 811 O 85.8756 -0.859169 -1.82154 0
M  V30 812 C 82.9406 -1.77277 -2.97949 0
M  V30 813 C 82.0016 -3.00918 -3.06181 0
M  V30 814 C 81.2346 -3.07804 -4.35996 0
M  V30 815 O 81.4576 -2.21982 -5.25433 0
M  V30 816 O 80.3916 -4.00369 -4.49431 0
M  V30 817 H 84.2176 -2.65486 -1.47482 0
M  V30 818 H 81.8026 -1.33666 -0.667362 0
M  V30 819 H 83.6846 -1.84329 -3.78947 0
M  V30 820 H 82.3596 -0.850076 -3.12339 0
M  V30 821 H 81.2666 -2.99377 -2.2433 0
M  V30 822 H 82.5996 -3.92704 -2.96723 0
M  V30 823 N 84.2517 0.741722 -1.39055 0
M  V30 824 C 85.5287 1.49252 -1.26425 0
M  V30 825 C 85.9087 2.10705 0.129144 0
M  V30 826 O 85.2567 1.98045 1.13976 0
M  V30 827 C 85.4667 2.54934 -2.38347 0
M  V30 828 C 86.8147 3.21506 -2.77343 0
M  V30 829 O 87.8387 2.65245 -2.37747 0
M  V30 830 O 86.6977 4.23294 -3.45665 0
M  V30 831 H 83.7917 0.662451 -0.495064 0
M  V30 832 H 86.3377 0.776121 -1.50912 0
M  V30 833 H 85.1097 2.07857 -3.31529 0
M  V30 834 H 84.7327 3.34141 -2.15489 0
M  V30 835 N 85.7298 1.2412 0.971189 0
M  V30 836 C 86.9778 1.07668 1.71032 0
M  V30 837 C 87.2988 -0.385797 1.91146 0
M  V30 838 O 86.5688 -1.27569 1.4867 0
M  V30 839 H 85.1488 0.395429 0.633755 0
M  V30 840 H 87.8108 1.55984 1.16855 0
M  V30 841 H 86.9068 1.57195 2.69622 0
M  V30 842 N 87.2079 -1.17134 1.05439 0
M  V30 843 C 88.4359 -1.91372 0.786414 0
M  V30 844 C 88.8509 -1.76955 -0.658202 0
M  V30 845 O 88.2079 -1.10838 -1.44987 0
M  V30 846 C 88.2589 -3.42356 1.1608 0
M  V30 847 O 87.9799 -3.56332 2.54871 0
M  V30 848 C 89.4809 -4.33663 0.919322 0
M  V30 849 H 86.7009 -0.607118 0.285743 0
M  V30 850 H 89.2449 -1.48525 1.40572 0
M  V30 851 H 87.3999 -3.82939 0.586191 0
M  V30 852 H 87.8139 -4.49896 2.69618 0
M  V30 853 H 89.2879 -5.38099 1.231 0
M  V30 854 H 89.7649 -4.38959 -0.145359 0
M  V30 855 H 90.3709 -3.98796 1.47789 0
M  V30 856 N 88.686 -0.835752 -1.33615 0
M  V30 857 C 89.932 -0.430596 -1.98176 0
M  V30 858 C 90.265 1.00684 -1.66061 0
M  V30 859 O 89.54 1.70339 -0.938877 0
M  V30 860 C 89.823 -0.648065 -3.5422 0
M  V30 861 C 89.676 -2.13255 -3.96033 0
M  V30 862 C 90.995 -0.0922113 -4.40003 0
M  V30 863 H 88.114 -0.157924 -0.719881 0
M  V30 864 H 90.756 -1.05069 -1.58305 0
M  V30 865 H 88.906 -0.120237 -3.88314 0
M  V30 866 H 90.578 -2.725 -3.72211 0
M  V30 867 H 88.821 -2.61823 -3.45878 0
M  V30 868 H 89.492 -2.23547 -5.04708 0
M  V30 869 H 91.968 -0.543343 -4.12537 0
M  V30 870 H 90.844 -0.274083 -5.48215 0
M  V30 871 H 91.105 1.00378 -4.30554 0
M  V30 872 N 90.1641 1.46063 -0.591896 0
M  V30 873 C 91.4111 2.02338 -0.0809991 0
M  V30 874 C 91.7391 1.46228 1.28249 0
M  V30 875 O 90.9941 0.620818 1.85592 0
M  V30 876 C 91.2931 3.57391 0.0249813 0
M  V30 877 C 90.9591 4.32583 -1.27211 0
M  V30 878 C 89.6211 4.52844 -1.62745 0
M  V30 879 C 91.9731 4.75687 -2.13005 0
M  V30 880 C 89.3011 5.13462 -2.83855 0
M  V30 881 C 91.6531 5.37644 -3.3335 0
M  V30 882 C 90.3171 5.5613 -3.69155 0
M  V30 883 H 89.5871 0.740407 -0.0296397 0
M  V30 884 H 92.2341 1.75321 -0.770374 0
M  V30 885 H 90.5391 3.83597 0.797537 0
M  V30 886 H 92.2361 3.98621 0.436184 0
M  V30 887 H 88.8261 4.17116 -0.985499 0
M  V30 888 H 93.0101 4.59782 -1.86855 0
M  V30 889 H 88.2661 5.25965 -3.11722 0
M  V30 890 H 92.4401 5.7 -4.00092 0
M  V30 891 H 90.0671 6.0287 -4.63089 0
M  V30 892 N 91.6422 0.330177 1.54103 0
M  V30 893 C 92.5722 -0.525353 2.27513 0
M  V30 894 C 93.5532 -1.11383 1.2856 0
M  V30 895 O 94.7382 -1.13773 1.57383 0
M  V30 896 C 91.8682 -1.6831 3.03791 0
M  V30 897 C 90.8222 -1.2236 4.10137 0
M  V30 898 C 90.1482 -2.46882 4.74293 0
M  V30 899 C 91.4482 -0.333697 5.21233 0
M  V30 900 H 93.1422 0.087013 2.99274 0
M  V30 901 H 90.6882 0.0432893 1.43935 0
M  V30 902 H 92.6412 -2.28795 3.5388 0
M  V30 903 H 91.3652 -2.32216 2.29659 0
M  V30 904 H 90.0242 -0.64165 3.60941 0
M  V30 905 H 89.6722 -3.09165 3.96769 0
M  V30 906 H 89.3722 -2.16825 5.46133 0
M  V30 907 H 90.8962 -3.08117 5.27159 0
M  V30 908 H 92.3102 -0.845013 5.67038 0
M  V30 909 H 90.7072 -0.125612 5.99969 0
M  V30 910 H 91.7772 0.633724 4.80741 0
M  V30 911 N 93.1203 -1.57491 0.0584922 0
M  V30 912 C 94.3453 -1.97711 -0.62652 0
M  V30 913 C 94.7703 -0.936132 -1.63151 0
M  V30 914 O 94.1283 0.099811 -1.81025 0
M  V30 915 C 94.1763 -3.36989 -1.28338 0
M  V30 916 O 93.2803 -3.35433 -2.39913 0
M  V30 917 H 92.6213 -0.643868 -0.162266 0
M  V30 918 H 95.1513 -2.04193 0.129064 0
M  V30 919 H 95.1613 -3.73879 -1.63335 0
M  V30 920 H 93.8363 -4.12289 -0.546889 0
M  V30 921 H 92.4133 -3.10298 -2.06809 0
M  V30 922 N 94.5984 0.214957 -1.56127 0
M  V30 923 C 95.8464 0.936518 -1.79091 0
M  V30 924 C 96.1674 1.84606 -0.628148 0
M  V30 925 O 95.4374 1.92664 0.35462 0
M  V30 926 H 94.0174 0.3488 -0.660566 0
M  V30 927 H 96.6794 0.22523 -1.93594 0
M  V30 928 H 95.7754 1.53943 -2.71492 0
M  V30 929 N 96.0765 1.50051 0.48192 0
M  V30 930 C 97.0395 1.67584 1.5636 0
M  V30 931 C 98.0395 0.546894 1.51214 0
M  V30 932 O 99.2295 0.813725 1.54026 0
M  V30 933 C 96.3615 1.691 2.96003 0
M  V30 934 H 97.5545 2.64078 1.42136 0
M  V30 935 H 95.1075 1.39369 0.707533 0
M  V30 936 H 95.8425 0.742589 3.15684 0
M  V30 937 H 95.6275 2.51105 3.01146 0
M  V30 938 H 97.1175 1.84656 3.74556 0
M  V30 939 N 97.5546 -0.734337 1.39446 0
M  V30 940 C 98.8016 -1.49391 1.36706 0
M  V30 941 C 99.1296 -1.94465 -0.0367813 0
M  V30 942 O 98.3846 -1.67154 -1.01774 0
M  V30 943 C 98.6836 -2.74711 2.28623 0
M  V30 944 C 98.3496 -2.48501 3.76242 0
M  V30 945 C 97.0116 -2.41062 4.16464 0
M  V30 946 C 99.3636 -2.26098 4.69606 0
M  V30 947 C 96.6916 -2.09262 5.48112 0
M  V30 948 C 99.0436 -1.95814 6.01531 0
M  V30 949 C 97.7076 -1.86845 6.40816 0
M  V30 950 H 96.9776 -0.546661 0.500243 0
M  V30 951 H 99.6246 -0.842788 1.71957 0
M  V30 952 H 97.9296 -3.44569 1.86492 0
M  V30 953 H 99.6266 -3.32741 2.23796 0
M  V30 954 H 96.2166 -2.55169 3.44364 0
M  V30 955 H 100.401 -2.30812 4.39363 0
M  V30 956 H 95.6566 -2.00841 5.77471 0
M  V30 957 H 99.8306 -1.77488 6.73403 0
M  V30 958 H 97.4576 -1.6197 7.42745 0
M  V30 959 N 99.0327 -1.24633 -0.964593 0
M  V30 960 C 100.281 -1.08573 -1.70459 0
M  V30 961 C 100.602 0.375655 -1.91347 0
M  V30 962 O 99.8717 1.26779 -1.49345 0
M  V30 963 H 98.4517 -0.398784 -0.631649 0
M  V30 964 H 101.114 -1.56601 -1.16026 0
M  V30 965 H 100.21 -1.58623 -2.68785 0
M  V30 966 N 100.511 1.16574 -1.06058 0
M  V30 967 C 101.458 2.20883 -0.669263 0
M  V30 968 C 102.428 1.62729 0.332918 0
M  V30 969 O 103.613 1.895 0.222346 0
M  V30 970 C 100.753 3.45049 -0.0593572 0
M  V30 971 C 99.8658 4.17458 -1.11143 0
M  V30 972 C 99.0008 5.29135 -0.467916 0
M  V30 973 C 98.0398 5.93343 -1.50369 0
M  V30 974 N 97.1768 6.96516 -0.883706 0
M  V30 975 H 102.017 2.53709 -1.5632 0
M  V30 976 H 99.5538 1.24616 -0.781625 0
M  V30 977 H 101.512 4.16033 0.311771 0
M  V30 978 H 100.142 3.12781 0.797992 0
M  V30 979 H 99.1938 3.45101 -1.60029 0
M  V30 980 H 100.506 4.61307 -1.89731 0
M  V30 981 H 99.6598 6.06684 -0.0436871 0
M  V30 982 H 98.3988 4.86443 0.349864 0
M  V30 983 H 97.4038 5.14517 -1.93784 0
M  V30 984 H 98.6288 6.38114 -2.32352 0
M  V30 985 H 96.5748 6.55943 -0.086595 0
M  V30 986 H 96.4918 7.38723 -1.607 0
M  V30 987 H 97.7598 7.77993 -0.484543 0
M  V30 988 N 101.989 0.842826 1.3317 0
M  V30 989 C 103.238 0.436738 1.96915 0
M  V30 990 C 103.551 -1.01025 1.67491 0
M  V30 991 O 104.757 -1.5212 2.24881 0
M  V30 992 C 103.213 0.730021 3.52418 0
M  V30 993 C 102.821 2.19195 3.90714 0
M  V30 994 C 104.565 0.391076 4.22695 0
M  V30 995 C 102.472 2.42907 5.39212 0
M  V30 996 H 101.402 0.15958 0.736919 0
M  V30 997 H 104.053 1.03196 1.51733 0
M  V30 998 H 102.435 0.0643755 3.95948 0
M  V30 999 H 103.609 2.8984 3.58231 0
M  V30 1000 H 101.924 2.49425 3.33431 0
M  V30 1001 H 104.521 0.545817 5.31907 0
M  V30 1002 H 104.864 -0.666294 4.10933 0
M  V30 1003 H 105.397 1.01212 3.84709 0
M  V30 1004 H 102.136 3.47224 5.55982 0
M  V30 1005 H 101.656 1.76827 5.73142 0
M  V30 1006 H 103.335 2.2626 6.06148 0
M  V30 1007 N 103.467 -1.45747 0.599634 0
M  V30 1008 C 104.377 -2.34262 -0.125888 0
M  V30 1009 C 105.393 -1.50768 -0.868625 0
M  V30 1010 O 106.569 -1.83592 -0.828003 0
M  V30 1011 C 103.634 -3.28252 -1.11587 0
M  V30 1012 C 102.695 -4.27651 -0.375956 0
M  V30 1013 C 101.928 -5.1715 -1.31877 0
M  V30 1014 O 102.151 -5.09916 -2.55621 0
M  V30 1015 O 101.085 -5.96286 -0.820157 0
M  V30 1016 H 104.911 -2.97688 0.601315 0
M  V30 1017 H 102.496 -1.44999 0.359934 0
M  V30 1018 H 104.378 -3.86191 -1.68626 0
M  V30 1019 H 103.053 -2.67401 -1.82424 0
M  V30 1020 H 101.96 -3.7335 0.236698 0
M  V30 1021 H 103.293 -4.91334 0.29177 0
M  V30 1022 N 104.945 -0.338344 -1.53925 0
M  V30 1023 C 105.878 0.563758 -2.21127 0
M  V30 1024 C 106.856 1.10433 -1.19345 0
M  V30 1025 O 108.04 1.16557 -1.48144 0
M  V30 1026 C 105.167 1.77505 -2.88461 0
M  V30 1027 C 104.213 1.3644 -4.04087 0
M  V30 1028 S 105.046 0.388593 -5.34088 0
M  V30 1029 C 106.202 1.60683 -6.04923 0
M  V30 1030 H 106.435 -0.00704546 -2.97299 0
M  V30 1031 H 103.968 -0.122418 -1.53914 0
M  V30 1032 H 105.926 2.46999 -3.27875 0
M  V30 1033 H 104.587 2.31706 -2.12064 0
M  V30 1034 H 103.78 2.26739 -4.50117 0
M  V30 1035 H 103.382 0.748998 -3.66423 0
M  V30 1036 H 105.674 2.54209 -6.28 0
M  V30 1037 H 106.617 1.18842 -6.98056 0
M  V30 1038 H 107.025 1.80052 -5.35015 0
M  V30 1039 N 106.423 1.57458 -0.0668435 0
M  V30 1040 C 107.671 1.92919 0.602214 0
M  V30 1041 C 107.992 0.947215 1.70449 0
M  V30 1042 O 107.262 -0.00544117 1.95899 0
M  V30 1043 H 105.842 0.71217 0.22544 0
M  V30 1044 H 108.504 1.94508 -0.123535 0
M  V30 1045 H 107.6 2.94589 1.03073 0
M  V30 1046 N 107.901 -0.206675 1.56239 0
M  V30 1047 C 109.178 -0.954051 1.70755 0
M  V30 1048 C 109.558 -2.01841 0.618353 0
M  V30 1049 O 108.906 -2.25444 -0.372434 0
M  V30 1050 C 109.116 -1.551 3.12642 0
M  V30 1051 C 110.464 -2.03757 3.72516 0
M  V30 1052 O 111.488 -1.64965 3.15698 0
M  V30 1053 O 110.347 -2.75103 4.72208 0
M  V30 1054 H 107.441 -0.446636 0.696021 0
M  V30 1055 H 109.987 -0.197283 1.68549 0
M  V30 1056 H 108.759 -0.783212 3.83382 0
M  V30 1057 H 108.382 -2.37291 3.19028 0
M  V30 1058 N 109.379 -1.50304 -0.473955 0
M  V30 1059 C 110.342 -1.6841 -1.55469 0
M  V30 1060 C 111.342 -0.554905 -1.50922 0
M  V30 1061 O 112.532 -0.821882 -1.53593 0
M  V30 1062 C 109.664 -1.70667 -2.95102 0
M  V30 1063 H 110.857 -2.64828 -1.40733 0
M  V30 1064 H 108.41 -1.39742 -0.700132 0
M  V30 1065 H 109.145 -0.75932 -3.15285 0
M  V30 1066 H 108.93 -2.52698 -2.9981 0
M  V30 1067 H 110.42 -1.8664 -3.73571 0
M  V30 1068 N 110.857 0.726932 -1.39834 0
M  V30 1069 C 111.787 1.85405 -1.41941 0
M  V30 1070 C 112.768 1.67751 -0.281728 0
M  V30 1071 O 113.953 1.8795 -0.488717 0
M  V30 1072 C 111.083 3.23243 -1.2701 0
M  V30 1073 C 110.037 3.55549 -2.38262 0
M  V30 1074 C 109.363 4.9241 -2.08415 0
M  V30 1075 C 110.663 3.577 -3.80589 0
M  V30 1076 H 112.357 1.83899 -2.36266 0
M  V30 1077 H 109.903 0.883349 -1.13723 0
M  V30 1078 H 111.856 4.01775 -1.27103 0
M  V30 1079 H 110.58 3.25296 -0.291564 0
M  V30 1080 H 109.239 2.79351 -2.37399 0
M  V30 1081 H 108.887 4.91052 -1.0898 0
M  V30 1082 H 108.587 5.14992 -2.82943 0
M  V30 1083 H 110.111 5.73289 -2.10171 0
M  V30 1084 H 111.525 4.26293 -3.83337 0
M  V30 1085 H 109.922 3.91804 -4.54543 0
M  V30 1086 H 110.992 2.57328 -4.10987 0
M  V30 1087 N 112.336 1.25143 0.95797 0
M  V30 1088 C 113.584 1.09476 1.69881 0
M  V30 1089 C 113.905 -0.365502 1.91544 0
M  V30 1090 O 113.175 -1.25985 1.50015 0
M  V30 1091 H 111.755 0.402128 0.629525 0
M  V30 1092 H 114.417 1.57214 1.15194 0
M  V30 1093 H 113.513 1.60046 2.6794 0
M  V30 1094 N 113.814 -1.1601 1.06675 0
M  V30 1095 C 114.777 -2.18724 0.685001 0
M  V30 1096 C 115.777 -1.58496 -0.271246 0
M  V30 1097 O 116.967 -1.74119 -0.0531156 0
M  V30 1098 C 114.099 -3.40899 0.00853648 0
M  V30 1099 H 115.292 -2.54011 1.59431 0
M  V30 1100 H 112.845 -1.30352 0.862441 0
M  V30 1101 H 113.58 -3.11173 -0.913337 0
M  V30 1102 H 113.365 -3.8587 0.696204 0
M  V30 1103 H 114.855 -4.16886 -0.24414 0
M  V30 1104 N 115.292 -0.849877 -1.32721 0
M  V30 1105 C 116.517 -0.463856 -2.02146 0
M  V30 1106 C 116.942 0.930449 -1.63476 0
M  V30 1107 O 116.3 1.61033 -0.832952 0
M  V30 1108 C 116.348 -0.604955 -3.55489 0
M  V30 1109 O 115.452 0.36425 -4.10788 0
M  V30 1110 H 114.793 -0.187046 -0.637111 0
M  V30 1111 H 117.323 -1.14775 -1.69375 0
M  V30 1112 H 117.333 -0.490696 -4.05038 0
M  V30 1113 H 116.008 -1.62174 -3.82978 0
M  V30 1114 H 114.585 0.206628 -3.72327 0
M  V30 1115 N 116.77 1.45427 -0.607355 0
M  V30 1116 C 117.68 2.34325 0.113463 0
M  V30 1117 C 118.696 1.51226 0.860617 0
M  V30 1118 O 119.872 1.84029 0.818255 0
M  V30 1119 C 116.937 3.28839 1.09844 0
M  V30 1120 C 115.998 4.27844 0.353271 0
M  V30 1121 C 115.231 5.17842 1.29133 0
M  V30 1122 O 115.454 5.11264 2.52913 0
M  V30 1123 O 114.388 5.96713 0.788523 0
M  V30 1124 H 118.214 2.97364 -0.617094 0
M  V30 1125 H 115.799 1.44807 -0.367619 0
M  V30 1126 H 117.681 3.8708 1.66575 0
M  V30 1127 H 116.356 2.68365 1.81003 0
M  V30 1128 H 115.263 3.7322 -0.256494 0
M  V30 1129 H 116.596 4.91173 -0.317822 0
M  V30 1130 N 118.248 0.346503 1.53744 0
M  V30 1131 C 119.211 -0.496439 2.23759 0
M  V30 1132 C 120.211 -1.0252 1.2388 0
M  V30 1133 O 121.401 -0.913974 1.48297 0
M  V30 1134 C 118.533 -1.69187 2.95954 0
M  V30 1135 H 119.726 0.115952 2.99676 0
M  V30 1136 H 117.279 0.0978939 1.55993 0
M  V30 1137 H 118.014 -2.34288 2.24231 0
M  V30 1138 H 117.799 -1.31989 3.69217 0
M  V30 1139 H 119.289 -2.28969 3.49232 0
M  V30 1140 N 119.726 -1.57421 0.075193 0
M  V30 1141 C 120.656 -2.15942 -0.888324 0
M  V30 1142 C 121.637 -1.08737 -1.30806 0
M  V30 1143 O 122.822 -1.36787 -1.37851 0
M  V30 1144 C 119.952 -2.72379 -2.1547 0
M  V30 1145 C 118.906 -3.8478 -1.87425 0
M  V30 1146 C 118.232 -4.27834 -3.20721 0
M  V30 1147 C 119.532 -5.08869 -1.17684 0
M  V30 1148 H 121.226 -2.96705 -0.400799 0
M  V30 1149 H 118.772 -1.42723 -0.191342 0
M  V30 1150 H 120.725 -3.11965 -2.83295 0
M  V30 1151 H 119.449 -1.88841 -2.6647 0
M  V30 1152 H 118.108 -3.45703 -1.22004 0
M  V30 1153 H 117.756 -3.41214 -3.6957 0
M  V30 1154 H 117.456 -5.03605 -3.02746 0
M  V30 1155 H 118.98 -4.70039 -3.89738 0
M  V30 1156 H 120.394 -5.4575 -1.75584 0
M  V30 1157 H 118.791 -5.8994 -1.09956 0
M  V30 1158 H 119.861 -4.84648 -0.156453 0
M  V30 1159 N 121.204 0.198386 -1.56346 0
M  V30 1160 C 122.451 0.919286 -1.80431 0
M  V30 1161 C 122.779 1.83393 -0.647866 0
M  V30 1162 O 122.034 1.92236 0.366556 0
M  V30 1163 C 122.333 1.77031 -3.10475 0
M  V30 1164 C 121.999 1.00693 -4.39513 0
M  V30 1165 C 120.661 0.796145 -4.74568 0
M  V30 1166 C 123.013 0.469559 -5.19081 0
M  V30 1167 C 120.341 0.0364588 -5.86689 0
M  V30 1168 C 122.693 -0.2769 -6.31994 0
M  V30 1169 C 121.357 -0.49873 -6.65634 0
M  V30 1170 H 120.627 0.336391 -0.660244 0
M  V30 1171 H 123.274 0.185872 -1.90596 0
M  V30 1172 H 121.579 2.5723 -2.95533 0
M  V30 1173 H 123.276 2.33065 -3.26315 0
M  V30 1174 H 119.866 1.18122 -4.12001 0
M  V30 1175 H 124.05 0.619816 -4.92414 0
M  V30 1176 H 119.306 -0.145412 -6.11227 0
M  V30 1177 H 123.48 -0.700684 -6.92866 0
M  V30 1178 H 121.107 -1.0893 -7.52355 0
M  V30 1179 N 122.682 1.50554 0.465978 0
M  V30 1180 C 123.93 1.61479 1.21528 0
M  V30 1181 C 124.251 0.319596 1.92363 0
M  V30 1182 O 123.521 -0.663194 1.84333 0
M  V30 1183 H 122.101 0.595055 0.451573 0
M  V30 1184 H 124.763 1.87355 0.53704 0
M  V30 1185 H 123.859 2.42846 1.96042 0
M  V30 1186 N 124.16 -0.719506 1.40217 0
M  V30 1187 C 125.437 -1.47221 1.28784 0
M  V30 1188 C 125.817 -2.10883 -0.0956067 0
M  V30 1189 O 125.165 -1.99833 -1.10811 0
M  V30 1190 C 125.375 -2.5111 2.42373 0
M  V30 1191 C 126.723 -3.17053 2.82423 0
M  V30 1192 O 127.747 -2.61429 2.41937 0
M  V30 1193 O 126.606 -4.17742 3.52355 0
M  V30 1194 H 123.7 -0.654491 0.50554 0
M  V30 1195 H 126.246 -0.752014 1.52128 0
M  V30 1196 H 125.018 -2.02556 3.34793 0
M  V30 1197 H 124.641 -3.3067 2.20778 0
M  V30 1198 N 125.638 -1.25649 -0.95132 0
M  V30 1199 C 126.568 -1.08808 -2.06599 0
M  V30 1200 C 127.549 0.00382547 -1.701 0
M  V30 1201 O 128.734 -0.166325 -1.93486 0
M  V30 1202 C 125.864 -0.709542 -3.39975 0
M  V30 1203 C 124.818 -1.75206 -3.90496 0
M  V30 1204 C 124.144 -1.22811 -5.20405 0
M  V30 1205 C 125.444 -3.15153 -4.16504 0
M  V30 1206 H 127.138 -2.02048 -2.20946 0
M  V30 1207 H 124.684 -0.972835 -1.06169 0
M  V30 1208 H 126.637 -0.578649 -4.17408 0
M  V30 1209 H 125.361 0.258556 -3.25575 0
M  V30 1210 H 124.02 -1.87145 -3.15234 0
M  V30 1211 H 123.668 -0.250145 -5.02378 0
M  V30 1212 H 123.368 -1.92492 -5.55176 0
M  V30 1213 H 124.892 -1.10968 -6.00432 0
M  V30 1214 H 126.306 -3.06349 -4.84586 0
M  V30 1215 H 124.703 -3.82333 -4.62538 0
M  V30 1216 H 125.773 -3.61966 -3.22658 0
M  V30 1217 N 127.117 1.15442 -1.07289 0
M  V30 1218 C 128.347 1.89821 -0.815576 0
M  V30 1219 C 128.755 1.7823 0.634867 0
M  V30 1220 O 128.098 1.13152 1.44715 0
M  V30 1221 C 128.16 3.40817 -1.14385 0
M  V30 1222 C 127.824 3.76193 -2.59476 0
M  V30 1223 C 128.821 3.77269 -3.57721 0
M  V30 1224 C 126.506 4.0652 -2.95037 0
M  V30 1225 C 128.5 4.08176 -4.89562 0
M  V30 1226 C 126.187 4.37092 -4.27076 0
M  V30 1227 C 127.185 4.37902 -5.24148 0
M  V30 1228 O 126.873 4.67741 -6.53815 0
M  V30 1229 H 126.605 0.608465 -0.294528 0
M  V30 1230 H 129.159 1.472 -1.43252 0
M  V30 1231 H 127.389 3.83835 -0.469865 0
M  V30 1232 H 129.078 3.96485 -0.869179 0
M  V30 1233 H 129.844 3.5394 -3.3159 0
M  V30 1234 H 125.723 4.05049 -2.20128 0
M  V30 1235 H 129.267 4.08723 -5.65324 0
M  V30 1236 H 125.164 4.59889 -4.5296 0
M  V30 1237 H 125.932 4.85509 -6.58957 0
M  V30 1238 N 128.595 0.856903 1.32268 0
M  V30 1239 C 129.505 0.306131 2.32594 0
M  V30 1240 C 130.521 -0.577209 1.64147 0
M  V30 1241 O 131.697 -0.477043 1.95669 0
M  V30 1242 C 128.762 -0.494561 3.43154 0
M  V30 1243 C 127.823 0.415186 4.27288 0
M  V30 1244 C 127.056 -0.347387 5.32568 0
M  V30 1245 O 127.279 -1.57708 5.48165 0
M  V30 1246 O 126.213 0.287982 6.01211 0
M  V30 1247 H 130.039 1.13737 2.81598 0
M  V30 1248 H 127.624 0.619902 1.35932 0
M  V30 1249 H 129.506 -0.948944 4.10576 0
M  V30 1250 H 128.181 -1.30257 2.96336 0
M  V30 1251 H 127.088 0.917793 3.62667 0
M  V30 1252 H 128.421 1.18844 4.77637 0
M  V30 1253 N 130.073 -1.45103 0.615059 0
M  V30 1254 C 131.319 -2.02483 0.113347 0
M  V30 1255 C 131.652 -1.48146 -1.25564 0
M  V30 1256 O 130.927 -0.659104 -1.82992 0
M  V30 1257 C 131.21 -3.60005 0.0825278 0
M  V30 1258 C 131.063 -4.2466 1.48271 0
M  V30 1259 C 132.382 -4.35972 -0.601401 0
M  V30 1260 H 129.501 -0.735764 0.0426632 0
M  V30 1261 H 132.143 -1.72868 0.788461 0
M  V30 1262 H 130.293 -3.85367 -0.492378 0
M  V30 1263 H 131.965 -4.10458 2.10527 0
M  V30 1264 H 130.208 -3.82772 2.04127 0
M  V30 1265 H 130.879 -5.336 1.41332 0
M  V30 1266 H 133.355 -4.15947 -0.112666 0
M  V30 1267 H 132.231 -5.45697 -0.592097 0
M  V30 1268 H 132.492 -4.09391 -1.66887 0
M  V30 1269 N 131.551 -0.354651 -1.53558 0
M  V30 1270 C 132.799 0.237972 -2.00694 0
M  V30 1271 C 133.12 1.50173 -1.24391 0
M  V30 1272 O 132.39 1.92673 -0.354135 0
M  V30 1273 H 130.97 0.0909256 -0.741446 0
M  V30 1274 H 133.632 -0.478368 -1.88938 0
M  V30 1275 H 132.728 0.47264 -3.085 0
M  V30 1276 N 133.029 1.57378 -0.0835403 0
M  V30 1277 C 134.259 1.97975 0.590713 0
M  V30 1278 C 134.667 0.961083 1.62972 0
M  V30 1279 O 134.01 -0.0590879 1.83605 0
M  V30 1280 C 134.072 3.34915 1.3066 0
M  V30 1281 C 133.736 4.55069 0.419698 0
M  V30 1282 C 134.733 5.18868 -0.32749 0
M  V30 1283 C 132.418 5.0114 0.341137 0
M  V30 1284 C 134.412 6.27098 -1.14134 0
M  V30 1285 C 132.099 6.0924 -0.476374 0
M  V30 1286 C 133.097 6.72083 -1.21627 0
M  V30 1287 O 132.785 7.781 -2.02028 0
M  V30 1288 H 132.517 0.655818 0.163947 0
M  V30 1289 H 135.071 2.04807 -0.156021 0
M  V30 1290 H 133.301 3.24733 2.09966 0
M  V30 1291 H 134.99 3.60037 1.87424 0
M  V30 1292 H 135.756 4.84211 -0.276459 0
M  V30 1293 H 131.635 4.51996 0.90668 0
M  V30 1294 H 135.179 6.7608 -1.71935 0
M  V30 1295 H 131.076 6.43329 -0.528927 0
M  V30 1296 H 131.844 7.95034 -1.94586 0
M  V30 1297 N 134.507 -0.190092 1.56449 0
M  V30 1298 C 135.735 -0.925772 1.85033 0
M  V30 1299 C 136.15 -1.76638 0.666658 0
M  V30 1300 O 135.507 -1.78822 -0.364565 0
M  V30 1301 C 135.558 -1.81786 3.12468 0
M  V30 1302 O 135.279 -1.01118 4.26271 0
M  V30 1303 C 136.78 -2.6648 3.54265 0
M  V30 1304 H 134 -0.269872 0.614337 0
M  V30 1305 H 136.544 -0.195837 2.0356 0
M  V30 1306 H 134.699 -2.50136 2.95822 0
M  V30 1307 H 135.113 -1.61956 4.98869 0
M  V30 1308 H 136.587 -3.24722 4.46385 0
M  V30 1309 H 137.064 -3.40434 2.77491 0
M  V30 1310 H 137.67 -2.03493 3.73458 0
M  V30 1311 N 135.985 -1.50799 -0.457987 0
M  V30 1312 C 137.262 -1.52968 -1.21902 0
M  V30 1313 C 137.642 -0.281906 -2.09209 0
M  V30 1314 O 136.99 0.734076 -2.16388 0
M  V30 1315 C 137.2 -2.8326 -2.03875 0
M  V30 1316 C 138.548 -3.34425 -2.6162 0
M  V30 1317 O 139.572 -2.8467 -2.14106 0
M  V30 1318 O 138.431 -4.21188 -3.48228 0
M  V30 1319 H 135.525 -0.614129 -0.553873 0
M  V30 1320 H 138.071 -1.63098 -0.468739 0
M  V30 1321 H 136.843 -3.65543 -1.39621 0
M  V30 1322 H 136.466 -2.76195 -2.8601 0
M  V30 1323 N 137.463 0.71206 -1.40597 0
M  V30 1324 C 138.393 1.83889 -1.43899 0
M  V30 1325 C 139.374 1.67442 -0.299504 0
M  V30 1326 O 140.559 1.87421 -0.508624 0
M  V30 1327 C 137.689 3.21877 -1.30431 0
M  V30 1328 C 136.643 3.53002 -2.42019 0
M  V30 1329 C 135.969 4.90172 -2.13626 0
M  V30 1330 C 137.269 3.53643 -3.84362 0
M  V30 1331 H 138.963 1.81383 -2.38203 0
M  V30 1332 H 136.509 0.871237 -1.14654 0
M  V30 1333 H 138.462 4.00404 -1.31357 0
M  V30 1334 H 137.186 3.24968 -0.326049 0
M  V30 1335 H 135.845 2.76818 -2.40349 0
M  V30 1336 H 135.493 4.89869 -1.14182 0
M  V30 1337 H 135.193 5.11962 -2.88389 0
M  V30 1338 H 136.717 5.71028 -2.1624 0
M  V30 1339 H 138.131 4.22203 -3.87837 0
M  V30 1340 H 136.528 3.86961 -4.58673 0
M  V30 1341 H 137.598 2.52954 -4.13693 0
M  V30 1342 N 138.941 1.26152 0.944643 0
M  V30 1343 C 140.218 1.02247 1.66748 0
M  V30 1344 C 140.598 -0.448202 2.06287 0
M  V30 1345 O 139.946 -1.42779 1.78399 0
M  V30 1346 C 140.156 1.96788 2.88228 0
M  V30 1347 C 141.504 2.25201 3.59958 0
M  V30 1348 O 142.528 1.94626 2.98327 0
M  V30 1349 O 141.387 2.77242 4.70956 0
M  V30 1350 H 138.481 0.388517 0.730057 0
M  V30 1351 H 141.027 1.37348 0.99668 0
M  V30 1352 H 139.799 2.96047 2.55875 0
M  V30 1353 H 139.422 1.62145 3.63035 0
M  V30 1354 N 140.419 -1.14872 1.07899 0
M  V30 1355 C 141.696 -1.81928 0.71845 0
M  V30 1356 C 142.076 -1.95417 -0.798455 0
M  V30 1357 O 141.424 -1.50997 -1.715 0
M  V30 1358 C 141.634 -3.17937 1.43935 0
M  V30 1359 C 142.982 -3.93501 1.59506 0
M  V30 1360 O 144.006 -3.27509 1.40058 0
M  V30 1361 O 142.865 -5.1183 1.91551 0
M  V30 1362 H 139.959 -0.78628 0.256305 0
M  V30 1363 H 142.505 -1.21934 1.18026 0
M  V30 1364 H 141.277 -3.0325 2.47295 0
M  V30 1365 H 140.9 -3.85619 0.968687 0
M  V30 1366 N 141.898 -0.863906 -1.31812 0
M  V30 1367 C 143.314 -0.555004 -1.49639 0
M  V30 1368 C 143.514 0.912266 -1.79666 0
M  V30 1369 O 142.57 1.69479 -1.87171 0
M  V30 1370 C 143.883 -1.44998 -2.63431 0
M  V30 1371 C 145.431 -1.45138 -2.77316 0
M  V30 1372 C 145.906 -2.33179 -3.94197 0
M  V30 1373 N 147.397 -2.31025 -4.01474 0
M  V30 1374 C 148.132 -2.95871 -4.9117 0
M  V30 1375 N 147.628 -3.69863 -5.8581 0
M  V30 1376 N 149.421 -2.85211 -4.84367 0
M  V30 1377 H 141.572 -1.81339 -1.10589 0
M  V30 1378 H 143.835 -0.77505 -0.545895 0
M  V30 1379 H 143.541 -2.49377 -2.48 0
M  V30 1380 H 143.415 -1.14409 -3.59431 0
M  V30 1381 H 145.802 -0.415201 -2.92164 0
M  V30 1382 H 145.883 -1.79747 -1.82001 0
M  V30 1383 H 145.527 -3.3687 -3.80107 0
M  V30 1384 H 145.457 -1.95897 -4.88807 0
M  V30 1385 H 147.948 -1.77238 -3.33759 0
M  V30 1386 H 148.261 -4.16486 -6.50968 0
M  V30 1387 H 146.606 -3.73971 -5.85808 0
M  V30 1388 H 149.797 -2.26948 -4.09405 0
M  V30 1389 H 149.97 -3.36027 -5.54066 0
M  V30 1390 N 143.376 1.44774 -0.622745 0
M  V30 1391 C 144.624 2.01721 -0.123655 0
M  V30 1392 C 144.945 1.49172 1.25589 0
M  V30 1393 O 144.215 0.691974 1.83272 0
M  V30 1394 H 142.795 0.745777 -0.0427225 0
M  V30 1395 H 145.457 1.77382 -0.807559 0
M  V30 1396 H 144.553 3.11984 -0.0849534 0
M  V30 1397 N 144.854 0.36279 1.53368 0
M  V30 1398 C 146.102 -0.227326 2.00817 0
M  V30 1399 C 146.423 -1.49511 1.25186 0
M  V30 1400 O 145.693 -1.92482 0.364348 0
M  V30 1401 H 144.273 -0.0869923 0.741917 0
M  V30 1402 H 146.935 0.488381 1.88682 0
M  V30 1403 H 146.031 -0.456273 3.08747 0
M  V30 1404 N 146.332 -1.57332 0.0918853 0
M  V30 1405 C 147.28 -2.15075 -0.885747 0
M  V30 1406 C 148.274 -1.09277 -1.29441 0
M  V30 1407 O 149.48 -1.27627 -1.26931 0
M  V30 1408 H 145.855 -0.687966 -0.303656 0
M  V30 1409 H 147.826 -2.96047 -0.373995 0
M  V30 1410 C 146.575 -2.74325 -2.13638 0
M  V30 1411 H 145.898 -3.55418 -1.8308 0
M  V30 1412 H 147.338 -3.183 -2.80109 0
M  V30 1413 C 145.797 -1.70062 -2.90827 0
M  V30 1414 O 146.327 -1.13763 -3.85254 0
M  V30 1415 N 144.533 -1.40628 -2.54307 0
M  V30 1416 H 144.08 -1.866 -1.7759 0
M  V30 1417 H 144.038 -0.711043 -3.06254 0
M  V30 1418 N 147.81 0.181792 -1.56548 0
M  V30 1419 C 149.087 0.926765 -1.72251 0
M  V30 1420 C 149.467 2.00831 -0.650386 0
M  V30 1421 O 148.815 2.26008 0.336521 0
M  V30 1422 C 149.025 1.50106 -3.1507 0
M  V30 1423 C 150.373 1.97805 -3.75711 0
M  V30 1424 O 151.397 1.59922 -3.18282 0
M  V30 1425 O 150.256 2.67555 -4.76525 0
M  V30 1426 H 147.35 0.435506 -0.703039 0
M  V30 1427 H 149.896 0.170443 -1.68842 0
M  V30 1428 H 148.668 0.72212 -3.84579 0
M  V30 1429 H 148.291 2.32186 -3.22763 0
M  V30 1430 N 149.288 1.51039 0.449983 0
M  V30 1431 C 150.537 1.62317 1.19733 0
M  V30 1432 C 150.85 0.339101 1.92638 0
M  V30 1433 O 152.056 0.331069 2.69474 0
M  V30 1434 C 150.512 2.86608 2.17678 0
M  V30 1435 C 150.12 4.21972 1.50479 0
M  V30 1436 C 151.864 3.07239 2.92924 0
M  V30 1437 C 149.771 5.37426 2.46834 0
M  V30 1438 H 148.701 0.604532 0.450619 0
M  V30 1439 H 151.352 1.77494 0.465625 0
M  V30 1440 H 149.734 2.65037 2.94231 0
M  V30 1441 H 150.908 4.53878 0.795716 0
M  V30 1442 H 149.223 4.07117 0.874344 0
M  V30 1443 H 151.82 3.90668 3.65079 0
M  V30 1444 H 152.163 2.19807 3.5354 0
M  V30 1445 H 152.696 3.29091 2.23481 0
M  V30 1446 H 149.435 6.27079 1.90926 0
M  V30 1447 H 148.955 5.09912 3.15832 0
M  V30 1448 H 150.634 5.68862 3.08228 0
M  V30 1449 N 150.766 -0.704594 1.40972 0
M  V30 1450 C 152.177 -1.28418 1.3552 0
M  V30 1451 C 152.528 -1.96171 0.0339434 0
M  V30 1452 O 151.653 -1.98231 -0.867944 0
M  V30 1453 C 152.248 -2.33528 2.45459 0
M  V30 1454 C 150.807 -2.87085 2.43433 0
M  V30 1455 C 149.954 -1.61007 2.2577 0
M  V30 1456 H 152.905 -0.499963 1.50619 0
M  V30 1457 H 152.926 -3.14619 2.13998 0
M  V30 1458 H 152.438 -1.84187 3.41609 0
M  V30 1459 H 150.539 -3.40626 1.51013 0
M  V30 1460 H 150.652 -3.3813 3.39419 0
M  V30 1461 H 149.016 -1.86482 1.73483 0
M  V30 1462 H 149.799 -1.13675 3.23933 0
M  V30 1463 N 152.244 -1.26651 -0.937939 0
M  V30 1464 C 153.474 -1.15006 -1.71631 0
M  V30 1465 C 153.882 0.297026 -1.86854 0
M  V30 1466 O 153.225 1.21493 -1.37786 0
M  V30 1467 C 153.287 -1.74984 -3.14039 0
M  V30 1468 C 152.951 -3.24103 -3.2219 0
M  V30 1469 C 153.948 -4.20877 -3.05219 0
M  V30 1470 C 151.633 -3.64625 -3.45476 0
M  V30 1471 C 153.627 -5.56151 -3.11408 0
M  V30 1472 C 151.314 -5.00032 -3.513 0
M  V30 1473 C 152.312 -5.95604 -3.34282 0
M  V30 1474 O 152 -7.28545 -3.3982 0
M  V30 1475 H 151.732 -0.401183 -0.544085 0
M  V30 1476 H 154.286 -1.67832 -1.18413 0
M  V30 1477 H 152.516 -1.16624 -3.68695 0
M  V30 1478 H 154.205 -1.58199 -3.73802 0
M  V30 1479 H 154.971 -3.90908 -2.87081 0
M  V30 1480 H 150.85 -2.90718 -3.57777 0
M  V30 1481 H 154.394 -6.30727 -2.98043 0
M  V30 1482 H 150.291 -5.29659 -3.68959 0
M  V30 1483 H 151.059 -7.3686 -3.56343 0
M  V30 1484 N 153.722 1.14298 -1.08507 0
M  V30 1485 C 154.652 2.21542 -0.737646 0
M  V30 1486 C 155.633 1.67773 0.280377 0
M  V30 1487 O 156.818 1.93616 0.150521 0
M  V30 1488 C 153.948 3.46988 -0.147259 0
M  V30 1489 C 152.902 4.13789 -1.09374 0
M  V30 1490 C 152.228 5.33449 -0.365524 0
M  V30 1491 C 153.528 4.62208 -2.4323 0
M  V30 1492 H 155.222 2.5086 -1.6343 0
M  V30 1493 H 152.768 1.20576 -0.787243 0
M  V30 1494 H 154.721 4.21262 0.107808 0
M  V30 1495 H 153.445 3.17037 0.784538 0
M  V30 1496 H 152.104 3.4147 -1.33393 0
M  V30 1497 H 151.752 4.99759 0.57011 0
M  V30 1498 H 151.452 5.79088 -0.996512 0
M  V30 1499 H 152.976 6.10485 -0.118534 0
M  V30 1500 H 154.39 5.27952 -2.23472 0
M  V30 1501 H 152.787 5.18553 -3.02031 0
M  V30 1502 H 153.857 3.77224 -3.04681 0
M  V30 1503 N 155.201 0.870884 1.31352 0
M  V30 1504 C 156.429 0.49677 2.00848 0
M  V30 1505 C 156.844 -0.910998 1.65367 0
M  V30 1506 O 156.201 -1.59696 0.883374 0
M  V30 1507 C 156.252 0.645308 3.55694 0
M  V30 1508 O 155.973 1.99764 3.89905 0
M  V30 1509 C 157.474 0.272326 4.42463 0
M  V30 1510 H 154.694 0.193462 0.642506 0
M  V30 1511 H 157.238 1.1723 1.67563 0
M  V30 1512 H 155.393 0.0173176 3.87396 0
M  V30 1513 H 155.807 2.00607 4.84621 0
M  V30 1514 H 157.281 0.427208 5.50344 0
M  V30 1515 H 157.758 -0.788587 4.32062 0
M  V30 1516 H 158.364 0.876054 4.1618 0
M  V30 1517 N 156.679 -1.44442 0.630414 0
M  V30 1518 C 157.927 -2.01653 0.134351 0
M  V30 1519 C 158.248 -1.49836 -1.24796 0
M  V30 1520 O 157.518 -0.701684 -1.82902 0
M  V30 1521 H 156.098 -0.74554 0.0466769 0
M  V30 1522 H 158.76 -1.76952 0.816955 0
M  V30 1523 H 157.856 -3.11935 0.101498 0
M  V30 1524 N 158.157 -0.370918 -1.53173 0
M  V30 1525 C 159.434 0.273754 -1.93675 0
M  V30 1526 C 159.814 1.65938 -1.3049 0
M  V30 1527 O 159.162 2.23698 -0.465999 0
M  V30 1528 C 159.372 0.318602 -3.47543 0
M  V30 1529 C 160.72 0.556392 -4.20939 0
M  V30 1530 O 161.744 0.399587 -3.53952 0
M  V30 1531 O 160.603 0.862133 -5.39657 0
M  V30 1532 H 157.697 0.165448 -0.810281 0
M  V30 1533 H 160.243 -0.42409 -1.64315 0
M  V30 1534 H 159.015 -0.652687 -3.85818 0
M  V30 1535 H 158.638 1.06212 -3.83151 0
M  V30 1536 N 159.635 1.57281 -0.100228 0
M  V30 1537 C 160.545 2.17833 0.870965 0
M  V30 1538 C 161.561 1.14921 1.30649 0
M  V30 1539 O 162.737 1.47313 1.37335 0
M  V30 1540 C 159.802 2.75085 2.1102 0
M  V30 1541 C 158.863 3.9297 1.72838 0
M  V30 1542 C 158.096 4.47482 2.90854 0
M  V30 1543 O 158.319 4.00922 4.05731 0
M  V30 1544 O 157.253 5.38433 2.69023 0
M  V30 1545 H 161.079 3.0124 0.38575 0
M  V30 1546 H 158.664 1.48881 0.124397 0
M  V30 1547 H 160.546 3.11656 2.83634 0
M  V30 1548 H 159.221 1.94721 2.58584 0
M  V30 1549 H 158.128 3.61201 0.973883 0
M  V30 1550 H 159.461 4.74713 1.30033 0
M  V30 1551 N 161.113 -0.173488 1.56642 0
M  V30 1552 C 162.529 -0.525174 1.50712 0
M  V30 1553 C 162.729 -1.8476 0.804107 0
M  V30 1554 O 161.785 -2.49869 0.363574 0
M  V30 1555 C 163.098 -0.559937 2.95441 0
M  V30 1556 C 164.646 -0.647288 3.06234 0
M  V30 1557 C 165.121 -0.712963 4.52417 0
M  V30 1558 N 166.612 -0.775911 4.56655 0
M  V30 1559 C 167.347 -0.847264 5.67106 0
M  V30 1560 N 166.843 -0.879585 6.87194 0
M  V30 1561 N 168.636 -0.886117 5.55071 0
M  V30 1562 H 160.787 0.693681 2.00753 0
M  V30 1563 H 163.05 0.249841 0.914485 0
M  V30 1564 H 162.756 0.343049 3.50023 0
M  V30 1565 H 162.63 -1.40718 3.49969 0
M  V30 1566 H 165.017 -1.5407 2.51687 0
M  V30 1567 H 165.098 0.226586 2.54794 0
M  V30 1568 H 164.742 0.176183 5.07594 0
M  V30 1569 H 164.672 -1.60295 5.0161 0
M  V30 1570 H 167.163 -0.759304 3.70193 0
M  V30 1571 H 167.476 -0.935144 7.67121 0
M  V30 1572 H 165.821 -0.847898 6.89808 0
M  V30 1573 H 169.012 -0.857853 4.60172 0
M  V30 1574 H 169.185 -0.938263 6.41171 0
M  V30 1575 N 162.591 -1.51276 -0.441967 0
M  V30 1576 C 163.521 -1.752 -1.54361 0
M  V30 1577 C 164.502 -0.601682 -1.59103 0
M  V30 1578 O 165.687 -0.843913 -1.74905 0
M  V30 1579 C 162.817 -1.87282 -2.92477 0
M  V30 1580 C 161.771 -3.02687 -3.02596 0
M  V30 1581 C 161.097 -2.99947 -4.42647 0
M  V30 1582 C 162.397 -4.4273 -2.77106 0
M  V30 1583 H 164.091 -2.67442 -1.34592 0
M  V30 1584 H 161.637 -1.28694 -0.646048 0
M  V30 1585 H 163.59 -2.02602 -3.695 0
M  V30 1586 H 162.314 -0.916844 -3.13467 0
M  V30 1587 H 160.973 -2.87065 -2.28012 0
M  V30 1588 H 160.621 -2.02136 -4.60597 0
M  V30 1589 H 160.321 -3.77439 -4.50348 0
M  V30 1590 H 161.845 -3.17354 -5.2165 0
M  V30 1591 H 163.259 -4.58727 -3.43864 0
M  V30 1592 H 161.656 -5.21893 -2.96222 0
M  V30 1593 H 162.726 -4.53087 -1.72744 0
M  V30 1594 N 164.069 0.697108 -1.41344 0
M  V30 1595 C 165.297 1.48593 -1.43972 0
M  V30 1596 C 165.712 1.88747 -0.0445612 0
M  V30 1597 O 165.069 1.56682 0.935785 0
M  V30 1598 C 165.12 2.74946 -2.34706 0
M  V30 1599 O 164.841 2.36484 -3.68791 0
M  V30 1600 C 166.342 3.687 -2.46121 0
M  V30 1601 H 163.562 0.457964 -0.490418 0
M  V30 1602 H 166.106 0.858429 -1.8561 0
M  V30 1603 H 164.261 3.33937 -1.9638 0
M  V30 1604 H 164.675 3.17918 -4.17167 0
M  V30 1605 H 166.149 4.54145 -3.13777 0
M  V30 1606 H 166.626 4.13081 -1.49199 0
M  V30 1607 H 167.232 3.15613 -2.85076 0
M  V30 1608 N 165.547 1.27147 0.931209 0
M  V30 1609 C 166.51 1.09615 2.01289 0
M  V30 1610 C 167.51 0.0412581 1.60747 0
M  V30 1611 O 168.7 0.285545 1.71844 0
M  V30 1612 C 165.832 0.669447 3.34262 0
M  V30 1613 H 167.025 2.05662 2.18273 0
M  V30 1614 H 164.578 1.09885 1.11153 0
M  V30 1615 H 165.313 -0.292572 3.22978 0
M  V30 1616 H 165.098 1.43127 3.65044 0
M  V30 1617 H 166.588 0.568921 4.13706 0
M  V30 1618 N 167.025 -1.13721 1.09112 0
M  V30 1619 C 167.935 -2.22638 0.73957 0
M  V30 1620 C 168.951 -1.72091 -0.257068 0
M  V30 1621 O 170.127 -2.01155 -0.0992154 0
M  V30 1622 C 167.192 -3.46322 0.16191 0
M  V30 1623 C 166.253 -4.11775 1.21408 0
M  V30 1624 C 165.486 -5.29555 0.663891 0
M  V30 1625 O 165.709 -5.68077 -0.514274 0
M  V30 1626 O 164.643 -5.84973 1.41738 0
M  V30 1627 H 168.469 -2.55074 1.64836 0
M  V30 1628 H 166.054 -1.21791 0.865289 0
M  V30 1629 H 167.936 -4.21107 -0.157073 0
M  V30 1630 H 166.611 -3.15593 -0.719932 0
M  V30 1631 H 165.518 -3.3883 1.58571 0
M  V30 1632 H 166.851 -4.46627 2.06845 0
M  V30 1633 N 168.503 -0.877838 -1.30888 0
M  V30 1634 C 169.78 -0.413052 -1.91189 0
M  V30 1635 C 170.16 1.1056 -1.79832 0
M  V30 1636 O 169.508 1.93771 -1.21099 0
M  V30 1637 C 169.718 -0.903191 -3.3711 0
M  V30 1638 C 171.066 -0.93395 -4.14201 0
M  V30 1639 O 172.09 -0.849373 -3.45925 0
M  V30 1640 O 170.949 -1.05772 -5.36167 0
M  V30 1641 H 168.043 -0.125035 -0.817493 0
M  V30 1642 H 170.589 -0.966269 -1.39504 0
M  V30 1643 H 169.361 -1.94692 -3.39427 0
M  V30 1644 H 168.984 -0.328732 -3.96239 0
M  V30 1645 N 169.982 1.44106 -0.638065 0
M  V30 1646 C 170.93 2.3248 0.0748149 0
M  V30 1647 C 171.924 1.47746 0.828702 0
M  V30 1648 O 173.13 1.64049 0.740816 0
M  V30 1649 H 169.505 0.750771 0.0429686 0
M  V30 1650 H 171.476 2.90348 -0.688504 0
M  V30 1651 C 170.225 3.31843 1.03805 0
M  V30 1652 H 169.548 3.97059 0.467375 0
M  V30 1653 H 170.988 3.96345 1.50622 0
M  V30 1654 C 169.447 2.61291 2.1267 0
M  V30 1655 O 169.977 2.41702 3.20847 0
M  V30 1656 N 168.183 2.20915 1.88798 0
M  V30 1657 H 167.73 2.37047 1.00829 0
M  V30 1658 H 167.688 1.74038 2.61836 0
M  V30 1659 N 171.46 0.379036 1.52974 0
M  V30 1660 C 172.871 -0.0972525 1.86447 0
M  V30 1661 C 173.222 -1.47027 1.29914 0
M  V30 1662 O 172.347 -2.07135 0.626433 0
M  V30 1663 C 172.942 -0.183248 3.38304 0
M  V30 1664 C 171.501 -0.603812 3.71525 0
M  V30 1665 C 170.648 0.240632 2.76254 0
M  V30 1666 H 173.599 0.597316 1.4703 0
M  V30 1667 H 173.62 -1.00432 3.67006 0
M  V30 1668 H 173.132 0.816191 3.79421 0
M  V30 1669 H 171.233 -1.61099 3.35973 0
M  V30 1670 H 171.346 -0.369086 4.77676 0
M  V30 1671 H 169.71 -0.292548 2.53014 0
M  V30 1672 H 170.493 1.23786 3.20206 0
M  V30 1673 N 172.938 -1.57226 0.108567 0
M  V30 1674 C 174.184 -1.95121 -0.552761 0
M  V30 1675 C 174.517 -0.991345 -1.66991 0
M  V30 1676 O 173.792 -0.0267211 -1.94482 0
M  V30 1677 C 174.075 -3.43039 -1.09528 0
M  V30 1678 C 173.928 -4.49797 0.0177332 0
M  V30 1679 C 175.247 -3.92567 -1.98945 0
M  V30 1680 H 172.366 -0.709496 -0.199461 0
M  V30 1681 H 175.008 -1.89126 0.182011 0
M  V30 1682 H 173.158 -3.48279 -1.72146 0
M  V30 1683 H 174.83 -4.56661 0.652584 0
M  V30 1684 H 173.073 -4.284 0.682309 0
M  V30 1685 H 173.744 -5.50528 -0.402919 0
M  V30 1686 H 176.22 -3.89565 -1.46214 0
M  V30 1687 H 175.096 -4.96605 -2.33827 0
M  V30 1688 H 175.357 -3.32648 -2.91201 0
M  V30 1689 N 174.416 0.165178 -1.56732 0
M  V30 1690 C 175.346 1.20651 -1.99914 0
M  V30 1691 C 176.327 1.45827 -0.875705 0
M  V30 1692 O 177.512 1.57057 -1.14223 0
M  V30 1693 C 174.642 2.54401 -2.36427 0
M  V30 1694 C 173.596 2.43782 -3.51787 0
M  V30 1695 C 172.922 3.82078 -3.7406 0
M  V30 1696 C 174.222 1.93732 -4.85041 0
M  V30 1697 H 175.916 0.847534 -2.87154 0
M  V30 1698 H 173.462 0.40625 -1.38151 0
M  V30 1699 H 175.415 3.27458 -2.65234 0
M  V30 1700 H 174.139 2.92098 -1.46103 0
M  V30 1701 H 172.798 1.73178 -3.23117 0
M  V30 1702 H 172.446 4.17179 -2.81017 0
M  V30 1703 H 172.146 3.7584 -4.51684 0
M  V30 1704 H 173.67 4.56712 -4.05274 0
M  V30 1705 H 175.084 2.56569 -5.12684 0
M  V30 1706 H 173.481 1.98428 -5.66345 0
M  V30 1707 H 174.551 0.891962 -4.76626 0
M  V30 1708 N 175.894 1.51508 0.433938 0
M  V30 1709 C 176.824 1.76016 1.53429 0
M  V30 1710 C 177.805 0.610112 1.58782 0
M  V30 1711 O 178.99 0.853177 1.74455 0
M  V30 1712 C 176.12 1.88831 2.9148 0
M  V30 1713 C 175.074 3.04288 3.00987 0
M  V30 1714 C 174.4 3.0229 4.4105 0
M  V30 1715 C 175.7 4.44193 2.74754 0
M  V30 1716 H 177.394 2.68152 1.33171 0
M  V30 1717 H 174.94 1.29035 0.639214 0
M  V30 1718 H 176.893 2.04559 3.6842 0
M  V30 1719 H 175.617 0.933455 3.12976 0
M  V30 1720 H 174.276 2.8827 2.26486 0
M  V30 1721 H 173.924 2.04576 4.59519 0
M  V30 1722 H 173.624 3.79822 4.4834 0
M  V30 1723 H 175.148 3.20116 5.1996 0
M  V30 1724 H 176.562 4.60544 3.41426 0
M  V30 1725 H 174.959 5.23457 2.9345 0
M  V30 1726 H 176.029 4.53996 1.70339 0
M  V30 1727 N 177.372 -0.689602 1.41712 0
M  V30 1728 C 178.602 -1.47613 1.44548 0
M  V30 1729 C 179.01 -1.89132 0.0509034 0
M  V30 1730 O 178.353 -1.57741 -0.94146 0
M  V30 1731 C 178.415 -2.76596 2.2964 0
M  V30 1732 C 178.079 -2.57245 3.77722 0
M  V30 1733 C 179.076 -2.22804 4.69739 0
M  V30 1734 C 176.761 -2.727 4.2183 0
M  V30 1735 C 178.755 -2.04064 6.03851 0
M  V30 1736 C 176.442 -2.53576 5.56006 0
M  V30 1737 C 177.44 -2.1931 6.46832 0
M  V30 1738 O 177.128 -2.00359 7.78532 0
M  V30 1739 H 176.86 -0.461227 0.494212 0
M  V30 1740 H 179.414 -0.856045 1.86711 0
M  V30 1741 H 177.644 -3.41033 1.82301 0
M  V30 1742 H 179.333 -3.38424 2.24107 0
M  V30 1743 H 180.099 -2.10473 4.36951 0
M  V30 1744 H 175.978 -2.98353 3.51435 0
M  V30 1745 H 179.522 -1.77241 6.74708 0
M  V30 1746 H 175.419 -2.65499 5.88371 0
M  V30 1747 H 176.187 -2.15075 7.89737 0
M  V30 1748 N 178.85 -1.27639 -0.924453 0
M  V30 1749 C 180.078 -1.16989 -1.70649 0
M  V30 1750 C 180.493 0.272869 -1.86818 0
M  V30 1751 O 179.85 1.18549 -1.38753 0
M  V30 1752 C 179.901 -1.85229 -3.10439 0
M  V30 1753 O 179.622 -3.23868 -2.95028 0
M  V30 1754 C 181.123 -1.80746 -4.04779 0
M  V30 1755 H 178.343 -0.406595 -0.53378 0
M  V30 1756 H 180.887 -1.68569 -1.15778 0
M  V30 1757 H 179.042 -1.37545 -3.6216 0
M  V30 1758 H 179.456 -3.57889 -3.83426 0
M  V30 1759 H 180.93 -2.33101 -5.00368 0
M  V30 1760 H 181.407 -0.777499 -4.32263 0
M  V30 1761 H 182.013 -2.28059 -3.58984 0
M  V30 1762 N 180.328 1.1314 -1.09713 0
M  V30 1763 C 181.558 1.88048 -0.855656 0
M  V30 1764 C 181.966 1.79537 0.596919 0
M  V30 1765 O 181.309 1.16196 1.42282 0
M  V30 1766 C 181.371 3.38314 -1.21589 0
M  V30 1767 C 181.035 3.70605 -2.67397 0
M  V30 1768 C 182.032 3.69596 -3.65643 0
M  V30 1769 C 179.717 4.0017 -3.03593 0
M  V30 1770 C 181.711 3.977 -4.9811 0
M  V30 1771 C 179.398 4.27935 -4.36251 0
M  V30 1772 C 180.396 4.26685 -5.33318 0
M  V30 1773 O 180.084 4.53767 -6.63589 0
M  V30 1774 H 179.816 0.60208 -0.307368 0
M  V30 1775 H 182.37 1.44128 -1.46343 0
M  V30 1776 H 180.6 3.82752 -0.551177 0
M  V30 1777 H 182.289 3.94552 -0.953083 0
M  V30 1778 H 183.055 3.46826 -3.39023 0
M  V30 1779 H 178.934 4.00289 -2.2867 0
M  V30 1780 H 182.478 3.9664 -5.73866 0
M  V30 1781 H 178.375 4.50178 -4.62613 0
M  V30 1782 H 179.143 4.71422 -6.69107 0
M  V30 1783 N 181.806 0.884767 1.30421 0
M  V30 1784 C 183.031 0.517288 2.00845 0
M  V30 1785 C 183.456 -0.886779 1.65885 0
M  V30 1786 O 182.814 -1.58768 0.875354 0
M  V30 1787 C 182.862 0.698994 3.5376 0
M  V30 1788 O 181.966 -0.255208 4.1161 0
M  V30 1789 H 181.307 0.203872 0.631927 0
M  V30 1790 H 183.837 1.19225 1.66272 0
M  V30 1791 H 183.847 0.597912 4.03595 0
M  V30 1792 H 182.522 1.72271 3.78544 0
M  V30 1793 H 181.099 -0.10784 3.72744 0
M  V30 1794 N 183.284 -1.43765 0.645699 0
M  V30 1795 C 184.247 -2.29163 -0.0409488 0
M  V30 1796 C 185.247 -1.41813 -0.757996 0
M  V30 1797 O 186.437 -1.63527 -0.600382 0
M  V30 1798 C 183.569 -3.23716 -1.06869 0
M  V30 1799 H 184.762 -2.91366 0.710345 0
M  V30 1800 H 182.315 -1.5092 0.406547 0
M  V30 1801 H 183.05 -2.66393 -1.84947 0
M  V30 1802 H 182.835 -3.88105 -0.558277 0
M  V30 1803 H 184.325 -3.87831 -1.54845 0
M  V30 1804 N 184.763 -0.387143 -1.52771 0
M  V30 1805 C 186.011 0.195349 -2.01154 0
M  V30 1806 C 186.332 1.475 -1.27549 0
M  V30 1807 O 185.602 1.91878 -0.394924 0
M  V30 1808 H 184.182 0.075178 -0.743207 0
M  V30 1809 H 186.844 -0.518337 -1.87881 0
M  V30 1810 H 185.94 0.407096 -3.09434 0
M  V30 1811 N 186.241 1.57166 -0.116904 0
M  V30 1812 C 187.204 2.14039 0.819742 0
M  V30 1813 C 188.204 1.07477 1.19605 0
M  V30 1814 O 189.394 1.33263 1.1219 0
M  V30 1815 C 186.526 2.67891 2.10826 0
M  V30 1816 H 187.719 2.98128 0.325511 0
M  V30 1817 H 185.272 1.55739 0.132312 0
M  V30 1818 H 186.007 1.87384 2.64685 0
M  V30 1819 H 185.792 3.45823 1.84793 0
M  V30 1820 H 187.282 3.11809 2.77785 0
M  V30 1821 N 187.719 -0.156864 1.56817 0
M  V30 1822 C 188.966 -0.871125 1.82805 0
M  V30 1823 C 189.294 -1.81611 0.696262 0
M  V30 1824 O 188.549 -1.93141 -0.315459 0
M  V30 1825 C 188.848 -1.68737 3.1506 0
M  V30 1826 C 188.514 -0.890045 4.42028 0
M  V30 1827 C 187.176 -0.670042 4.76512 0
M  V30 1828 C 189.528 -0.331769 5.20143 0
M  V30 1829 C 186.856 0.119104 5.86579 0
M  V30 1830 C 189.208 0.444365 6.31037 0
M  V30 1831 C 187.872 0.675035 6.64078 0
M  V30 1832 H 187.142 -0.318767 0.668931 0
M  V30 1833 H 189.789 -0.135274 1.91022 0
M  V30 1834 H 188.094 -2.49304 3.0225 0
M  V30 1835 H 189.791 -2.24331 3.3238 0
M  V30 1836 H 186.381 -1.07157 4.14988 0
M  V30 1837 H 190.565 -0.489043 4.93885 0
M  V30 1838 H 185.821 0.307417 6.10627 0
M  V30 1839 H 189.995 0.884139 6.90765 0
M  V30 1840 H 187.622 1.28839 7.49203 0
M  V30 1841 N 189.197 -1.51736 -0.425897 0
M  V30 1842 C 190.422 -1.69082 -1.20108 0
M  V30 1843 C 190.847 -0.392398 -1.83962 0
M  V30 1844 O 190.205 0.64858 -1.69302 0
M  V30 1845 C 190.253 -2.81604 -2.25237 0
M  V30 1846 O 189.357 -2.46004 -3.30992 0
M  V30 1847 H 188.698 -0.563408 -0.35138 0
M  V30 1848 H 191.228 -1.98358 -0.501512 0
M  V30 1849 H 191.238 -3.06025 -2.69838 0
M  V30 1850 H 189.913 -3.75817 -1.78142 0
M  V30 1851 H 188.49 -2.32195 -2.91787 0
M  V30 1852 N 190.675 0.682077 -1.42076 0
M  V30 1853 C 191.921 1.44428 -1.42367 0
M  V30 1854 C 192.254 1.94164 -0.0373056 0
M  V30 1855 O 191.529 1.70429 0.937239 0
M  V30 1856 C 191.812 2.64654 -2.44194 0
M  V30 1857 C 191.665 2.20596 -3.91991 0
M  V30 1858 C 192.984 3.66865 -2.431 0
M  V30 1859 H 190.103 0.523834 -0.518428 0
M  V30 1860 H 192.745 0.77576 -1.73442 0
M  V30 1861 H 190.895 3.2169 -2.17826 0
M  V30 1862 H 192.567 1.68783 -4.29313 0
M  V30 1863 H 190.81 1.52242 -4.06208 0
M  V30 1864 H 191.481 3.06921 -4.58807 0
M  V30 1865 H 193.957 3.19531 -2.66532 0
M  V30 1866 H 192.833 4.48577 -3.16339 0
M  V30 1867 H 193.094 4.17493 -1.45437 0
M  V30 1868 N 192.153 1.28127 0.917671 0
M  V30 1869 C 193.116 1.11744 2.00115 0
M  V30 1870 C 194.116 0.0583052 1.60694 0
M  V30 1871 O 195.306 0.303755 1.71531 0
M  V30 1872 C 192.438 0.704862 3.33533 0
M  V30 1873 H 193.631 2.07966 2.16079 0
M  V30 1874 H 191.184 1.11058 1.09981 0
M  V30 1875 H 191.919 -0.258299 3.2327 0
M  V30 1876 H 191.704 1.4699 3.63505 0
M  V30 1877 H 193.194 0.612768 4.1308 0
M  V30 1878 N 193.631 -1.12557 1.10312 0
M  V30 1879 C 194.594 -2.16434 0.75424 0
M  V30 1880 C 195.594 -1.59278 -0.220685 0
M  V30 1881 O 196.784 -1.742 0.00230591 0
M  V30 1882 C 193.916 -3.40699 0.116987 0
M  V30 1883 H 195.109 -2.48811 1.67431 0
M  V30 1884 H 192.662 -1.27542 0.903475 0
M  V30 1885 H 193.397 -3.13921 -0.813877 0
M  V30 1886 H 193.182 -3.83459 0.818613 0
M  V30 1887 H 194.672 -4.17451 -0.111387 0
M  V30 1888 N 195.109 -0.891671 -1.2995 0
M  V30 1889 C 196.334 -0.527932 -2.00568 0
M  V30 1890 C 196.759 0.877969 -1.66353 0
M  V30 1891 O 196.117 1.58301 -0.883762 0
M  V30 1892 C 196.165 -0.717745 -3.53385 0
M  V30 1893 O 195.269 0.233376 -4.11739 0
M  V30 1894 H 194.61 -0.20722 -0.630837 0
M  V30 1895 H 197.14 -1.20105 -1.65638 0
M  V30 1896 H 197.15 -0.619307 -4.03272 0
M  V30 1897 H 195.825 -1.74276 -3.77625 0
M  V30 1898 H 194.402 0.0880706 -3.72796 0
M  V30 1899 N 196.587 1.43421 -0.653314 0
M  V30 1900 C 197.52 2.2803 0.0879804 0
M  V30 1901 C 198.498 1.39833 0.82979 0
M  V30 1902 O 199.682 1.69275 0.829341 0
M  V30 1903 C 196.809 3.19247 1.13132 0
M  V30 1904 C 195.855 4.23704 0.487546 0
M  V30 1905 S 196.688 5.30377 -0.738961 0
M  V30 1906 C 197.844 6.25162 0.30384 0
M  V30 1907 H 198.077 2.90554 -0.629739 0
M  V30 1908 H 195.61 1.47934 -0.442156 0
M  V30 1909 H 197.568 3.72346 1.72827 0
M  V30 1910 H 196.229 2.55901 1.82136 0
M  V30 1911 H 195.422 4.87631 1.27407 0
M  V30 1912 H 195.024 3.73983 -0.0352915 0
M  V30 1913 H 197.316 6.67321 1.17 0
M  V30 1914 H 198.259 7.07463 -0.300402 0
M  V30 1915 H 198.667 5.60864 0.63969 0
M  V30 1916 N 198.065 0.39524 1.52563 0
M  V30 1917 C 199.29 -0.187456 2.06551 0
M  V30 1918 C 199.715 -1.39249 1.26457 0
M  V30 1919 O 199.073 -1.78947 0.291151 0
M  V30 1920 C 199.121 -0.529985 3.56684 0
M  V30 1921 O 198.225 -1.62307 3.79118 0
M  V30 1922 H 197.566 -0.0202537 0.663691 0
M  V30 1923 H 200.096 0.564426 1.96661 0
M  V30 1924 H 200.106 -0.792598 4.00227 0
M  V30 1925 H 198.781 0.350987 4.14416 0
M  V30 1926 H 197.358 -1.3537 3.47461 0
M  V30 1927 N 199.544 -1.57102 0.125237 0
M  V30 1928 C 200.821 -1.86953 -0.575142 0
M  V30 1929 C 201.201 -1.02749 -1.84407 0
M  V30 1930 O 200.549 -0.108144 -2.28244 0
M  V30 1931 C 200.759 -3.38198 -0.861583 0
M  V30 1932 C 202.107 -4.06937 -1.21192 0
M  V30 1933 O 203.131 -3.43252 -0.951645 0
M  V30 1934 O 201.99 -5.19364 -1.70068 0
M  V30 1935 H 199.084 -0.774147 -0.290906 0
M  V30 1936 H 201.63 -1.68942 0.160211 0
M  V30 1937 H 200.402 -3.91282 0.0373647 0
M  V30 1938 H 200.025 -3.61661 -1.65188 0
M  V30 1939 N 201.022 0.148545 -1.56898 0
M  V30 1940 C 202.27 0.859717 -1.82902 0
M  V30 1941 C 202.591 1.81775 -0.70588 0
M  V30 1942 O 201.861 1.93994 0.272586 0
M  V30 1943 H 200.441 0.320469 -0.674766 0
M  V30 1944 H 203.103 0.142918 -1.94375 0
M  V30 1945 H 202.199 1.4229 -2.77777 0
M  V30 1946 N 202.5 1.5196 0.417844 0
M  V30 1947 C 203.447 1.74678 1.50852 0
M  V30 1948 C 204.417 0.588947 1.55308 0
M  V30 1949 O 205.602 0.825544 1.72016 0
M  V30 1950 C 202.742 1.89544 2.88387 0
M  V30 1951 C 201.855 3.17166 2.93309 0
M  V30 1952 C 200.99 3.22513 4.22088 0
M  V30 1953 C 200.029 4.44372 4.20951 0
M  V30 1954 N 199.166 4.47161 5.41287 0
M  V30 1955 H 204.006 2.67768 1.30783 0
M  V30 1956 H 201.543 1.32689 0.63498 0
M  V30 1957 H 203.501 1.96146 3.68216 0
M  V30 1958 H 202.131 0.998424 3.06971 0
M  V30 1959 H 201.183 3.19778 2.06024 0
M  V30 1960 H 202.495 4.07021 2.88332 0
M  V30 1961 H 201.649 3.28139 5.10303 0
M  V30 1962 H 200.388 2.30581 4.29748 0
M  V30 1963 H 199.393 4.38902 3.31127 0
M  V30 1964 H 200.618 5.3759 4.14938 0
M  V30 1965 H 198.564 3.58108 5.49632 0
M  V30 1966 H 198.481 5.3085 5.3827 0
M  V30 1967 H 199.749 4.57005 6.3148 0
M  V30 1968 N 203.978 -0.674533 1.42435 0
M  V30 1969 C 205.224 -1.43671 1.43131 0
M  V30 1970 C 205.557 -1.94142 0.0476021 0
M  V30 1971 O 204.832 -1.70924 -0.928188 0
M  V30 1972 C 205.115 -2.63355 2.45594 0
M  V30 1973 C 204.968 -2.18514 3.93156 0
M  V30 1974 C 206.287 -3.65571 2.45043 0
M  V30 1975 H 203.406 -0.521077 0.521198 0
M  V30 1976 H 206.048 -0.766551 1.7385 0
M  V30 1977 H 204.198 -3.2053 2.19528 0
M  V30 1978 H 205.87 -1.66504 4.30202 0
M  V30 1979 H 204.113 -1.50086 4.07009 0
M  V30 1980 H 204.784 -3.04484 4.60428 0
M  V30 1981 H 207.26 -3.18113 2.68223 0
M  V30 1982 H 206.136 -4.46893 3.18713 0
M  V30 1983 H 206.397 -4.16716 1.47649 0
M  V30 1984 N 205.456 -1.28612 -0.910864 0
M  V30 1985 C 206.704 -1.15705 -1.65701 0
M  V30 1986 C 207.025 0.29416 -1.92769 0
M  V30 1987 O 206.295 1.20331 -1.54588 0
M  V30 1988 H 204.875 -0.425216 -0.614167 0
M  V30 1989 H 207.537 -1.61381 -1.0928 0
M  V30 1990 H 206.633 -1.6988 -2.61815 0
M  V30 1991 N 206.934 1.1197 -1.10907 0
M  V30 1992 C 207.844 2.21433 -0.774896 0
M  V30 1993 C 208.86 1.72478 0.229657 0
M  V30 1994 O 210.036 2.01288 0.0672008 0
M  V30 1995 C 207.101 3.4602 -0.216986 0
M  V30 1996 C 206.162 4.09791 -1.27944 0
M  V30 1997 C 205.395 5.28431 -0.748055 0
M  V30 1998 O 205.618 5.68823 0.423833 0
M  V30 1999 O 204.552 5.82644 -1.51027 0
M  V30 2000 H 208.378 2.5242 -1.68873 0
M  V30 2001 H 205.963 1.20399 -0.884555 0
M  V30 2002 H 207.845 4.21304 0.090059 0
M  V30 2003 H 206.52 3.16698 0.669633 0
M  V30 2004 H 205.427 3.36265 -1.63941 0
M  V30 2005 H 206.76 4.4328 -2.13925 0
M  V30 2006 N 208.412 0.89855 1.29475 0
M  V30 2007 C 209.64 0.539261 1.99749 0
M  V30 2008 C 210.055 -0.875716 1.67262 0
M  V30 2009 O 209.412 -1.57786 0.917049 0
M  V30 2010 C 209.463 0.72061 3.54245 0
M  V30 2011 O 209.184 2.07989 3.8558 0
M  V30 2012 C 210.685 0.366118 4.41786 0
M  V30 2013 H 207.905 0.207047 0.638258 0
M  V30 2014 H 210.449 1.20758 1.65039 0
M  V30 2015 H 208.604 0.0994862 3.87272 0
M  V30 2016 H 209.018 2.10841 4.80257 0
M  V30 2017 H 210.492 0.543848 5.49314 0
M  V30 2018 H 210.969 -0.696763 4.33638 0
M  V30 2019 H 211.575 0.964135 4.14228 0
M  V30 2020 N 209.89 -1.43072 0.660911 0
M  V30 2021 C 211.115 -2.06584 0.183805 0
M  V30 2022 C 211.54 -1.49257 -1.14472 0
M  V30 2023 O 210.898 -0.605528 -1.70889 0
M  V30 2024 C 210.946 -3.60418 0.114434 0
M  V30 2025 O 210.05 -4.01981 -0.921137 0
M  V30 2026 H 209.391 -0.656669 0.0983994 0
M  V30 2027 H 211.921 -1.83447 0.906006 0
M  V30 2028 H 211.931 -4.07946 -0.0663394 0
M  V30 2029 H 210.606 -4.01519 1.08422 0
M  V30 2030 H 209.183 -3.66029 -0.71253 0
M  V30 2031 N 211.368 -0.403325 -1.52352 0
M  V30 2032 C 212.278 0.432009 -2.30588 0
M  V30 2033 C 213.294 1.05884 -1.38075 0
M  V30 2034 O 214.47 1.06161 -1.71148 0
M  V30 2035 C 211.535 1.53669 -3.10784 0
M  V30 2036 C 210.596 0.933525 -4.19027 0
M  V30 2037 C 209.829 1.98557 -4.9539 0
M  V30 2038 O 210.052 3.20283 -4.71991 0
M  V30 2039 O 208.986 1.59504 -5.80381 0
M  V30 2040 H 212.812 -0.205739 -3.03002 0
M  V30 2041 H 210.397 -0.166675 -1.48467 0
M  V30 2042 H 212.279 2.17814 -3.60742 0
M  V30 2043 H 210.954 2.15915 -2.41169 0
M  V30 2044 H 209.861 0.254954 -3.7323 0
M  V30 2045 H 211.194 0.35508 -4.90918 0
M  V30 2046 N 212.846 1.57033 -0.133567 0
M  V30 2047 C 214.123 1.87256 0.56522 0
M  V30 2048 C 214.503 1.03726 1.83859 0
M  V30 2049 O 213.851 0.120247 2.28183 0
M  V30 2050 C 214.061 3.3865 0.843636 0
M  V30 2051 C 215.409 4.07574 1.19032 0
M  V30 2052 O 216.433 3.43752 0.933429 0
M  V30 2053 O 215.292 5.20259 1.67312 0
M  V30 2054 H 212.386 0.775678 0.286796 0
M  V30 2055 H 214.932 1.68855 -0.169168 0
M  V30 2056 H 213.704 3.91257 -0.0581149 0
M  V30 2057 H 213.327 3.62532 1.63268 0
M  V30 2058 N 214.325 -0.140222 1.56975 0
M  V30 2059 C 215.602 -0.880769 1.74648 0
M  V30 2060 C 215.982 -1.99036 0.703404 0
M  V30 2061 O 215.33 -2.26821 -0.27648 0
M  V30 2062 C 215.54 -1.417 3.18939 0
M  V30 2063 C 216.888 -1.87774 3.80823 0
M  V30 2064 O 217.912 -1.51427 3.2241 0
M  V30 2065 O 216.771 -2.54827 4.83452 0
M  V30 2066 H 213.865 -0.416713 0.714338 0
M  V30 2067 H 216.411 -0.125618 1.69234 0
M  V30 2068 H 215.183 -0.619902 3.86359 0
M  V30 2069 H 214.806 -2.23546 3.28805 0
M  V30 2070 N 215.803 -1.52179 -0.40978 0
M  V30 2071 C 216.766 -1.74853 -1.48186 0
M  V30 2072 C 217.766 -0.618417 -1.48433 0
M  V30 2073 O 218.956 -0.886286 -1.49969 0
M  V30 2074 C 216.088 -1.8303 -2.87598 0
M  V30 2075 H 217.281 -2.70559 -1.29374 0
M  V30 2076 H 214.834 -1.42586 -0.640233 0
M  V30 2077 H 215.569 -0.89236 -3.11781 0
M  V30 2078 H 215.354 -2.65187 -2.88822 0
M  V30 2079 H 216.844 -2.02316 -3.65319 0
M  V30 2080 N 217.281 0.66697 -1.42791 0
M  V30 2081 C 218.213 1.7925 -1.42836 0
M  V30 2082 C 219.226 1.59496 -0.326333 0
M  V30 2083 O 220.415 1.6847 -0.589916 0
M  V30 2084 C 217.515 3.16476 -1.21229 0
M  V30 2085 C 216.688 3.63011 -2.44013 0
M  V30 2086 C 215.747 4.78993 -2.17834 0
M  V30 2087 O 214.773 4.89137 -2.91091 0
M  V30 2088 N 215.975 5.68248 -1.18635 0
M  V30 2089 H 218.74 1.79695 -2.39854 0
M  V30 2090 H 216.301 0.850338 -1.37771 0
M  V30 2091 H 218.293 3.91734 -1.01621 0
M  V30 2092 H 216.863 3.10884 -0.32706 0
M  V30 2093 H 216.083 2.78346 -2.79137 0
M  V30 2094 H 217.371 3.90845 -3.25757 0
M  V30 2095 H 216.769 5.62712 -0.580615 0
M  V30 2096 H 215.326 6.43285 -1.05013 0
M  V30 2097 N 218.759 1.29093 0.90403 0
M  V30 2098 C 219.669 1.15727 2.0407 0
M  V30 2099 C 220.685 0.0815308 1.73809 0
M  V30 2100 O 221.861 0.292749 1.99261 0
M  V30 2101 C 218.926 0.830424 3.36608 0
M  V30 2102 C 217.987 1.98955 3.80415 0
M  V30 2103 C 217.22 1.6782 5.06628 0
M  V30 2104 O 217.443 0.597105 5.67266 0
M  V30 2105 O 216.377 2.52486 5.46383 0
M  V30 2106 H 220.203 2.11171 2.18267 0
M  V30 2107 H 217.788 1.08504 1.027 0
M  V30 2108 H 219.67 0.662521 4.16159 0
M  V30 2109 H 218.345 -0.0942678 3.23563 0
M  V30 2110 H 217.252 2.21267 3.01648 0
M  V30 2111 H 218.585 2.89529 3.98037 0
M  V30 2112 N 220.237 -1.11381 1.11499 0
M  V30 2113 C 221.17 -2.16621 0.71769 0
M  V30 2114 C 222.148 -1.60058 -0.286413 0
M  V30 2115 O 223.332 -1.87613 -0.182689 0
M  V30 2116 C 220.459 -3.38646 0.0607265 0
M  V30 2117 C 219.505 -4.13874 1.03008 0
M  V30 2118 S 220.338 -4.70731 2.55289 0
M  V30 2119 C 221.494 -5.96079 1.90895 0
M  V30 2120 H 221.727 -2.49987 1.60915 0
M  V30 2121 H 219.26 -1.23015 0.933092 0
M  V30 2122 H 221.218 -4.09313 -0.311965 0
M  V30 2123 H 219.879 -3.03537 -0.807702 0
M  V30 2124 H 219.072 -5.01333 0.517853 0
M  V30 2125 H 218.674 -3.4897 1.34522 0
M  V30 2126 H 220.966 -6.65948 1.24577 0
M  V30 2127 H 221.909 -6.51946 2.76354 0
M  V30 2128 H 222.317 -5.47652 1.36885 0
M  V30 2129 N 221.715 -0.905404 -1.28997 0
M  V30 2130 C 222.678 -0.392253 -2.25819 0
M  V30 2131 C 223.678 0.476753 -1.5357 0
M  V30 2132 O 224.868 0.280994 -1.71919 0
M  V30 2133 C 222 0.438588 -3.38067 0
M  V30 2134 H 223.193 -1.24743 -2.72725 0
M  V30 2135 H 220.746 -0.684051 -1.40536 0
M  V30 2136 H 221.481 1.31352 -2.96508 0
M  V30 2137 H 221.266 -0.184167 -3.91667 0
M  V30 2138 H 222.756 0.78873 -4.10084 0
M  V30 2139 N 223.193 1.4272 -0.668489 0
M  V30 2140 C 224.439 2.01923 -0.188419 0
M  V30 2141 C 224.772 1.52704 1.19979 0
M  V30 2142 O 224.047 0.726566 1.8042 0
M  V30 2143 C 224.33 3.59451 -0.216085 0
M  V30 2144 C 224.183 4.18864 -1.6393 0
M  V30 2145 C 225.502 4.37903 0.439179 0
M  V30 2146 H 222.621 0.733674 -0.0699412 0
M  V30 2147 H 225.263 1.69822 -0.852076 0
M  V30 2148 H 223.413 3.86929 0.349012 0
M  V30 2149 H 225.085 4.02362 -2.25616 0
M  V30 2150 H 223.328 3.74933 -2.18193 0
M  V30 2151 H 223.999 5.27987 -1.61039 0
M  V30 2152 H 226.475 4.16079 -0.0417878 0
M  V30 2153 H 225.351 5.47519 0.389157 0
M  V30 2154 H 225.612 4.15303 1.51577 0
M  V30 2155 N 224.671 0.411399 1.52136 0
M  V30 2156 C 225.634 -0.401089 2.25663 0
M  V30 2157 C 226.634 -0.971732 1.28117 0
M  V30 2158 O 227.824 -0.850254 1.52041 0
M  V30 2159 C 224.956 -1.56483 3.02863 0
M  V30 2160 H 226.149 0.24295 2.98914 0
M  V30 2161 H 223.702 0.163968 1.55438 0
M  V30 2162 H 224.437 -2.24567 2.33967 0
M  V30 2163 H 224.222 -1.16211 3.74483 0
M  V30 2164 H 225.712 -2.13951 3.58629 0
M  V30 2165 N 226.149 -1.5696 0.141893 0
M  V30 2166 C 227.112 -2.15316 -0.785587 0
M  V30 2167 C 228.112 -1.09366 -1.1788 0
M  V30 2168 O 229.302 -1.35031 -1.10056 0
M  V30 2169 C 226.434 -2.71211 -2.06537 0
M  V30 2170 H 227.627 -2.98608 -0.278041 0
M  V30 2171 H 225.18 -1.5593 -0.107519 0
M  V30 2172 H 225.915 -1.91571 -2.6167 0
M  V30 2173 H 225.7 -3.4872 -1.79268 0
M  V30 2174 H 227.19 -3.16189 -2.72789 0
M  V30 2175 N 227.627 0.131896 -1.57047 0
M  V30 2176 C 228.59 1.14638 -1.98471 0
M  V30 2177 C 229.59 1.35029 -0.873148 0
M  V30 2178 O 230.78 1.31764 -1.13946 0
M  V30 2179 C 227.912 2.50358 -2.31373 0
M  V30 2180 H 229.105 0.79064 -2.8929 0
M  V30 2181 H 226.658 0.375761 -1.51716 0
M  V30 2182 H 227.393 2.90876 -1.43393 0
M  V30 2183 H 227.178 2.36915 -3.12432 0
M  V30 2184 H 228.668 3.23395 -2.64207 0
M  V30 2185 N 229.106 1.52395 0.401703 0
M  V30 2186 C 230.336 1.70429 1.1678 0
M  V30 2187 C 230.744 0.416702 1.84554 0
M  V30 2188 O 230.087 -0.617697 1.73003 0
M  V30 2189 C 230.149 2.78919 2.26814 0
M  V30 2190 C 229.813 4.20437 1.79113 0
M  V30 2191 C 230.81 5.04028 1.27482 0
M  V30 2192 C 228.495 4.66704 1.85722 0
M  V30 2193 C 230.489 6.31961 0.830913 0
M  V30 2194 C 228.176 5.94625 1.40942 0
M  V30 2195 C 229.174 6.77082 0.897128 0
M  V30 2196 O 228.862 8.02607 0.455822 0
M  V30 2197 H 228.594 0.574272 0.356634 0
M  V30 2198 H 231.148 1.99767 0.477724 0
M  V30 2199 H 229.378 2.44973 2.99207 0
M  V30 2200 H 231.067 2.8548 2.88541 0
M  V30 2201 H 231.833 4.69471 1.21744 0
M  V30 2202 H 227.712 4.0262 2.24539 0
M  V30 2203 H 231.256 6.96271 0.430368 0
M  V30 2204 H 227.153 6.28688 1.46362 0
M  V30 2205 H 227.921 8.16453 0.578457 0
M  V30 2206 N 230.584 -0.659388 1.43143 0
M  V30 2207 C 231.812 -1.44723 1.47861 0
M  V30 2208 C 232.227 -1.88563 0.0945886 0
M  V30 2209 O 231.584 -1.59108 -0.893915 0
M  V30 2210 C 231.635 -2.68627 2.41913 0
M  V30 2211 O 231.356 -2.26623 3.74932 0
M  V30 2212 C 232.857 -3.62045 2.55809 0
M  V30 2213 H 230.077 -0.444801 0.502387 0
M  V30 2214 H 232.621 -0.808916 1.87821 0
M  V30 2215 H 230.776 -3.28613 2.05164 0
M  V30 2216 H 231.19 -3.06745 4.2545 0
M  V30 2217 H 232.664 -4.45666 3.25708 0
M  V30 2218 H 233.141 -4.08981 1.60099 0
M  V30 2219 H 233.747 -3.07944 2.93344 0
M  V30 2220 N 232.062 -1.29571 -0.897171 0
M  V30 2221 C 233.309 -1.17689 -1.6479 0
M  V30 2222 C 233.637 0.27107 -1.92602 0
M  V30 2223 O 232.892 1.21193 -1.53658 0
M  V30 2224 C 233.191 -1.9382 -3.00281 0
M  V30 2225 C 232.857 -3.43522 -2.92068 0
M  V30 2226 C 231.519 -3.84348 -2.89535 0
M  V30 2227 C 233.871 -4.38906 -2.81089 0
M  V30 2228 C 231.199 -5.18869 -2.73846 0
M  V30 2229 C 233.551 -5.73521 -2.66939 0
M  V30 2230 C 232.215 -6.13601 -2.62774 0
M  V30 2231 H 231.485 -0.430654 -0.603008 0
M  V30 2232 H 234.132 -1.60536 -1.04404 0
M  V30 2233 H 232.437 -1.4357 -3.64547 0
M  V30 2234 H 234.134 -1.82028 -3.57305 0
M  V30 2235 H 230.724 -3.11072 -2.94842 0
M  V30 2236 H 234.908 -4.08315 -2.82121 0
M  V30 2237 H 230.164 -5.4903 -2.69027 0
M  V30 2238 H 234.338 -6.47078 -2.57416 0
M  V30 2239 H 231.965 -7.17786 -2.50375 0
M  V30 2240 N 233.54 1.10788 -1.12088 0
M  V30 2241 C 234.788 1.8231 -0.872205 0
M  V30 2242 C 235.109 1.85419 0.603709 0
M  V30 2243 O 234.379 1.32963 1.43867 0
M  V30 2244 H 232.959 0.675137 -0.319686 0
M  V30 2245 H 235.621 1.34068 -1.41463 0
M  V30 2246 H 234.717 2.85955 -1.25045 0
M  V30 2247 N 235.018 0.912232 1.28515 0
M  V30 2248 C 235.966 0.389597 2.29314 0
M  V30 2249 C 236.96 -0.517915 1.61289 0
M  V30 2250 O 238.166 -0.399328 1.75515 0
M  V30 2251 H 234.541 0.107386 0.744293 0
M  V30 2252 H 236.512 1.25286 2.70825 0
M  V30 2253 C 235.261 -0.356496 3.45868 0
M  V30 2254 H 234.584 0.332608 3.98414 0
M  V30 2255 H 236.024 -0.686851 4.184 0
M  V30 2256 C 234.483 -1.56383 2.98406 0
M  V30 2257 O 235.013 -2.66294 3.00749 0
M  V30 2258 N 233.219 -1.41029 2.54085 0
M  V30 2259 H 232.766 -0.516089 2.52377 0
M  V30 2260 H 232.724 -2.21939 2.22689 0
M  V30 2261 N 236.496 -1.42363 0.676048 0
M  V30 2262 C 237.726 -2.05561 0.206967 0
M  V30 2263 C 238.134 -1.50887 -1.14148 0
M  V30 2264 O 237.477 -0.643933 -1.72044 0
M  V30 2265 C 237.539 -3.5944 0.0659508 0
M  V30 2266 C 237.203 -4.36812 1.34331 0
M  V30 2267 C 238.2 -4.67383 2.27704 0
M  V30 2268 C 235.885 -4.76429 1.59125 0
M  V30 2269 C 237.879 -5.36509 3.44147 0
M  V30 2270 C 235.566 -5.45294 2.75857 0
M  V30 2271 C 236.564 -5.75259 3.68193 0
M  V30 2272 O 236.252 -6.42712 4.82883 0
M  V30 2273 H 235.984 -0.668872 0.0979084 0
M  V30 2274 H 238.538 -1.83467 0.923531 0
M  V30 2275 H 236.768 -3.80197 -0.706204 0
M  V30 2276 H 238.457 -4.0427 -0.363418 0
M  V30 2277 H 239.223 -4.37275 2.09799 0
M  V30 2278 H 235.102 -4.52498 0.881258 0
M  V30 2279 H 238.646 -5.59814 4.16238 0
M  V30 2280 H 234.543 -5.7482 2.93688 0
M  V30 2281 H 235.311 -6.61204 4.82444 0
M  V30 2282 N 237.974 -0.419461 -1.51915 0
M  V30 2283 C 239.202 0.152136 -2.0634 0
M  V30 2284 C 239.617 1.37988 -1.28859 0
M  V30 2285 O 238.974 1.79243 -0.343232 0
M  V30 2286 C 239.025 0.492266 -3.58133 0
M  V30 2287 O 238.746 -0.686736 -4.32684 0
M  V30 2288 C 240.247 1.11648 -4.2901 0
M  V30 2289 H 237.467 0.0158325 -0.670813 0
M  V30 2290 H 240.011 -0.593394 -1.95702 0
M  V30 2291 H 238.166 1.18769 -3.68745 0
M  V30 2292 H 238.58 -0.400341 -5.2297 0
M  V30 2293 H 240.054 1.3046 -5.36362 0
M  V30 2294 H 240.531 2.09251 -3.86148 0
M  V30 2295 H 241.137 0.460958 -4.22795 0
M  V30 2296 N 239.452 1.56882 -0.150215 0
M  V30 2297 C 240.698 1.96518 0.500834 0
M  V30 2298 C 241.031 1.03527 1.64304 0
M  V30 2299 O 240.306 0.0782751 1.94342 0
M  V30 2300 C 240.589 3.45822 1.00395 0
M  V30 2301 C 240.442 4.49591 -0.136983 0
M  V30 2302 C 241.761 3.97704 1.88467 0
M  V30 2303 H 238.88 0.714535 0.18058 0
M  V30 2304 H 241.522 1.88577 -0.232091 0
M  V30 2305 H 239.672 3.5272 1.62851 0
M  V30 2306 H 241.344 4.5477 -0.77343 0
M  V30 2307 H 239.587 4.26441 -0.795652 0
M  V30 2308 H 240.258 5.51402 0.256815 0
M  V30 2309 H 242.734 3.93304 1.35834 0
M  V30 2310 H 241.61 5.0263 2.20578 0
M  V30 2311 H 241.871 3.40252 2.82279 0
M  V30 2312 N 240.93 -0.123565 1.57115 0
M  V30 2313 C 242.178 -0.83051 1.84247 0
M  V30 2314 C 242.499 -1.80629 0.73471 0
M  V30 2315 O 241.769 -1.94403 -0.241688 0
M  V30 2316 H 240.349 -0.309694 0.679778 0
M  V30 2317 H 243.011 -0.111976 1.94578 0
M  V30 2318 H 242.107 -1.37852 2.80006 0
M  V30 2319 N 242.408 -1.52605 -0.393616 0
M  V30 2320 C 243.338 -1.80022 -1.48709 0
M  V30 2321 C 244.319 -0.651995 -1.57108 0
M  V30 2322 O 245.504 -0.89913 -1.72132 0
M  V30 2323 C 242.634 -1.96492 -2.86371 0
M  V30 2324 C 241.588 -3.12161 -2.92813 0
M  V30 2325 C 240.914 -3.13877 -4.3288 0
M  V30 2326 C 242.214 -4.51322 -2.6288 0
M  V30 2327 H 243.908 -2.71589 -1.26015 0
M  V30 2328 H 241.454 -1.30684 -0.604778 0
M  V30 2329 H 243.407 -2.14255 -3.62867 0
M  V30 2330 H 242.131 -1.01611 -3.10391 0
M  V30 2331 H 240.79 -2.94173 -2.18764 0
M  V30 2332 H 240.438 -2.16687 -4.53933 0
M  V30 2333 H 240.138 -3.91576 -4.38112 0
M  V30 2334 H 241.662 -3.33789 -5.1129 0
M  V30 2335 H 243.076 -4.69435 -3.29096 0
M  V30 2336 H 241.473 -5.31053 -2.79468 0
M  V30 2337 H 242.543 -4.58353 -1.58242 0
M  V30 2338 N 243.887 0.651787 -1.4349 0
M  V30 2339 C 245.135 1.40888 -1.44897 0
M  V30 2340 C 245.456 1.94856 -0.0749086 0
M  V30 2341 O 244.726 1.74518 0.889956 0
M  V30 2342 H 243.306 0.522887 -0.533478 0
M  V30 2343 H 245.968 0.768609 -1.79104 0
M  V30 2344 H 245.064 2.25052 -2.16236 0
M  V30 2345 N 245.365 1.30045 0.890287 0
M  V30 2346 C 246.595 1.21296 1.67245 0
M  V30 2347 C 247.003 -0.227471 1.87828 0
M  V30 2348 O 246.346 -1.16296 1.422 0
M  V30 2349 C 246.408 1.86519 3.07329 0
M  V30 2350 C 246.072 3.35837 3.09939 0
M  V30 2351 C 247.069 4.31915 2.89389 0
M  V30 2352 C 244.754 3.77196 3.31706 0
M  V30 2353 C 246.748 5.67325 2.90552 0
M  V30 2354 C 244.435 5.12725 3.32499 0
M  V30 2355 C 245.433 6.076 3.11947 0
M  V30 2356 O 245.121 7.40655 3.12547 0
M  V30 2357 H 244.853 0.4211 0.528821 0
M  V30 2358 H 247.407 1.72111 1.12103 0
M  V30 2359 H 245.637 1.30228 3.64112 0
M  V30 2360 H 247.326 1.71963 3.67673 0
M  V30 2361 H 248.092 4.01294 2.72375 0
M  V30 2362 H 243.971 3.03796 3.4674 0
M  V30 2363 H 247.515 6.41354 2.74429 0
M  V30 2364 H 243.412 5.42988 3.49047 0
M  V30 2365 H 244.18 7.49577 3.28749 0
M  V30 2366 N 246.843 -1.10192 1.12674 0
M  V30 2367 C 247.753 -2.20172 0.810026 0
M  V30 2368 C 248.769 -1.72821 -0.202188 0
M  V30 2369 O 249.945 -2.01369 -0.0351691 0
M  V30 2370 C 247.01 -3.45631 0.272007 0
M  V30 2371 C 246.071 -4.07704 1.34447 0
M  V30 2372 C 245.304 -5.27175 0.832029 0
M  V30 2373 O 245.527 -5.69425 -0.333284 0
M  V30 2374 O 244.461 -5.80168 1.60277 0
M  V30 2375 H 248.287 -2.49701 1.72867 0
M  V30 2376 H 245.872 -1.18977 0.903597 0
M  V30 2377 H 247.754 -4.21394 -0.0230219 0
M  V30 2378 H 246.429 -3.17723 -0.619164 0
M  V30 2379 H 245.336 -3.33614 1.6927 0
M  V30 2380 H 246.669 -4.3982 2.2095 0
M  V30 2381 N 248.321 -0.919034 -1.28029 0
M  V30 2382 C 249.268 -0.410005 -2.27129 0
M  V30 2383 C 250.238 0.518405 -1.57803 0
M  V30 2384 O 251.423 0.439451 -1.8567 0
M  V30 2385 C 248.563 0.339054 -3.4343 0
M  V30 2386 C 247.676 -0.622468 -4.27492 0
M  V30 2387 C 246.811 0.145567 -5.31001 0
M  V30 2388 C 245.85 -0.809226 -6.06727 0
M  V30 2389 N 244.987 -0.0743728 -7.02061 0
M  V30 2390 H 249.827 -1.26011 -2.70047 0
M  V30 2391 H 247.364 -0.632663 -1.328 0
M  V30 2392 H 249.322 0.789586 -4.0966 0
M  V30 2393 H 247.952 1.15346 -3.01488 0
M  V30 2394 H 247.004 -1.19153 -3.61257 0
M  V30 2395 H 248.316 -1.35252 -4.80113 0
M  V30 2396 H 247.47 0.656417 -6.03139 0
M  V30 2397 H 246.209 0.908643 -4.79161 0
M  V30 2398 H 245.214 -1.3314 -5.33436 0
M  V30 2399 H 246.439 -1.57194 -6.60656 0
M  V30 2400 H 244.385 0.670616 -6.52563 0
M  V30 2401 H 244.302 -0.744157 -7.52329 0
M  V30 2402 H 245.57 0.416109 -7.78389 0
M  V30 2403 N 249.799 1.42003 -0.683588 0
M  V30 2404 C 251.048 2.00638 -0.206681 0
M  V30 2405 C 251.361 1.5472 1.19671 0
M  V30 2406 O 252.567 2.05833 1.77045 0
M  V30 2407 C 251.023 3.58487 -0.318632 0
M  V30 2408 C 250.631 4.1339 -1.72663 0
M  V30 2409 C 252.375 4.24384 0.0991141 0
M  V30 2410 C 250.282 5.63633 -1.79087 0
M  V30 2411 H 249.212 0.750408 -0.0735107 0
M  V30 2412 H 251.863 1.62624 -0.850048 0
M  V30 2413 H 250.245 3.94047 0.392781 0
M  V30 2414 H 251.419 3.89273 -2.46583 0
M  V30 2415 H 249.734 3.59976 -2.09299 0
M  V30 2416 H 252.331 5.34652 0.0713833 0
M  V30 2417 H 252.674 4.00505 1.13586 0
M  V30 2418 H 253.207 3.93816 -0.561599 0
M  V30 2419 H 249.946 5.92323 -2.80774 0
M  V30 2420 H 249.466 5.89714 -1.09535 0
M  V30 2421 H 251.145 6.28201 -1.5483 0
M  V30 2422 N 251.277 0.427512 1.51691 0
M  V30 2423 C 252.554 -0.201684 1.94557 0
M  V30 2424 C 252.934 -1.60981 1.36559 0
M  V30 2425 O 252.282 -2.21814 0.548702 0
M  V30 2426 C 252.492 -0.189394 3.48486 0
M  V30 2427 C 253.84 -0.39978 4.22714 0
M  V30 2428 O 254.864 -0.267945 3.55191 0
M  V30 2429 O 253.723 -0.661249 5.42485 0
M  V30 2430 H 250.817 -0.135261 0.815864 0
M  V30 2431 H 253.363 0.484782 1.62628 0
M  V30 2432 H 252.135 0.795431 3.8313 0
M  V30 2433 H 251.758 -0.919187 3.86829 0
M  V30 2434 N 252.755 -1.56801 0.158532 0
M  V30 2435 C 253.98 -2.01295 -0.499516 0
M  V30 2436 C 254.405 -1.03799 -1.56867 0
M  V30 2437 O 253.763 -0.0155162 -1.81293 0
M  V30 2438 C 253.811 -3.44469 -1.06647 0
M  V30 2439 O 252.915 -3.50012 -2.18095 0
M  V30 2440 H 252.256 -0.652884 -0.12099 0
M  V30 2441 H 254.786 -2.02958 0.258661 0
M  V30 2442 H 254.796 -3.8351 -1.39227 0
M  V30 2443 H 253.471 -4.14932 -0.283581 0
M  V30 2444 H 252.048 -3.22822 -1.86656 0
M  V30 2445 N 254.233 0.115231 -1.57178 0
M  V30 2446 C 255.644 0.67197 -1.74188 0
M  V30 2447 C 255.995 1.80125 -0.777777 0
M  V30 2448 O 255.12 2.16346 0.0484376 0
M  V30 2449 C 255.715 1.22573 -3.1585 0
M  V30 2450 C 254.274 1.72872 -3.34353 0
M  V30 2451 C 253.421 0.629972 -2.70049 0
M  V30 2452 H 256.372 -0.110712 -1.58313 0
M  V30 2453 H 256.393 2.09535 -3.17609 0
M  V30 2454 H 255.905 0.403598 -3.85996 0
M  V30 2455 H 254.006 2.5755 -2.69256 0
M  V30 2456 H 254.119 1.83557 -4.42542 0
M  V30 2457 H 252.483 1.0645 -2.31388 0
M  V30 2458 H 253.266 -0.181241 -3.42821 0
M  V30 2459 N 255.711 1.52812 0.385517 0
M  V30 2460 C 256.988 1.5861 1.14465 0
M  V30 2461 C 257.368 0.381402 2.07626 0
M  V30 2462 O 256.716 -0.629999 2.19643 0
M  V30 2463 C 256.926 2.92664 1.90128 0
M  V30 2464 C 258.274 3.46526 2.45367 0
M  V30 2465 O 259.298 2.94562 2.0028 0
M  V30 2466 O 258.157 4.37323 3.27736 0
M  V30 2467 H 255.251 0.639855 0.523941 0
M  V30 2468 H 257.797 1.65149 0.390389 0
M  V30 2469 H 256.569 3.71788 1.22022 0
M  V30 2470 H 256.192 2.89527 2.72507 0
M  V30 2471 N 257.189 -0.644168 1.43834 0
M  V30 2472 C 258.417 -1.43147 1.49387 0
M  V30 2473 C 258.832 -1.88452 0.114583 0
M  V30 2474 O 258.189 -1.60047 -0.876989 0
M  V30 2475 C 258.24 -2.66046 2.44748 0
M  V30 2476 O 257.961 -2.22633 3.77314 0
M  V30 2477 C 259.462 -3.59311 2.59635 0
M  V30 2478 H 256.682 -0.439447 0.507077 0
M  V30 2479 H 259.226 -0.78895 1.88669 0
M  V30 2480 H 257.381 -3.26418 2.08638 0
M  V30 2481 H 257.795 -3.02216 4.28679 0
M  V30 2482 H 259.269 -4.42187 3.30416 0
M  V30 2483 H 259.746 -4.07259 1.64427 0
M  V30 2484 H 260.352 -3.04816 2.96593 0
M  V30 2485 N 258.668 -1.30515 -0.883378 0
M  V30 2486 C 259.631 -1.1701 -1.97082 0
M  V30 2487 C 260.631 -0.10089 -1.60483 0
M  V30 2488 O 261.821 -0.349127 -1.70666 0
M  V30 2489 C 258.953 -0.793045 -3.31547 0
M  V30 2490 H 260.146 -2.13622 -2.10489 0
M  V30 2491 H 257.699 -1.13935 -1.06998 0
M  V30 2492 H 258.434 0.172499 -3.23841 0
M  V30 2493 H 258.219 -1.56576 -3.5948 0
M  V30 2494 H 259.709 -0.722073 -4.1131 0
M  V30 2495 N 260.146 1.09593 -1.13257 0
M  V30 2496 C 261.076 2.18214 -0.830946 0
M  V30 2497 C 262.057 1.68812 0.208966 0
M  V30 2498 O 263.242 1.9408 0.0682666 0
M  V30 2499 C 260.372 3.46051 -0.294296 0
M  V30 2500 C 259.326 4.08778 -1.26826 0
M  V30 2501 C 258.652 5.31419 -0.591449 0
M  V30 2502 C 259.952 4.51476 -2.62615 0
M  V30 2503 H 261.646 2.43703 -1.73923 0
M  V30 2504 H 259.192 1.17128 -0.837675 0
M  V30 2505 H 261.145 4.2134 -0.0709606 0
M  V30 2506 H 259.869 3.20079 0.649366 0
M  V30 2507 H 258.528 3.35505 -1.47756 0
M  V30 2508 H 258.176 5.01727 0.357633 0
M  V30 2509 H 257.876 5.74341 -1.24123 0
M  V30 2510 H 259.4 6.09433 -0.377355 0
M  V30 2511 H 260.814 5.17999 -2.45663 0
M  V30 2512 H 259.211 5.05277 -3.23752 0
M  V30 2513 H 260.281 3.63962 -3.20406 0
M  V30 2514 N 261.624 0.925811 1.2754 0
M  V30 2515 C 262.557 0.367836 2.25216 0
M  V30 2516 C 263.535 -0.534738 1.53556 0
M  V30 2517 O 264.719 -0.475672 1.824 0
M  V30 2518 C 261.846 -0.47298 3.35381 0
M  V30 2519 C 260.892 0.365898 4.24928 0
M  V30 2520 S 261.725 1.78025 5.05042 0
M  V30 2521 C 262.881 0.947068 6.18693 0
M  V30 2522 H 263.114 1.19568 2.72196 0
M  V30 2523 H 260.647 0.727867 1.36167 0
M  V30 2524 H 262.605 -0.952242 3.99303 0
M  V30 2525 H 261.266 -1.27533 2.87044 0
M  V30 2526 H 260.459 -0.277582 5.03235 0
M  V30 2527 H 260.061 0.779261 3.65792 0
M  V30 2528 H 262.353 0.182201 6.77255 0
M  V30 2529 H 263.296 1.70309 6.87314 0
M  V30 2530 H 263.704 0.489913 5.6237 0
M  V30 2531 N 263.102 -1.41638 0.69111 0
M  V30 2532 C 264.065 -2.29178 0.0319786 0
M  V30 2533 C 265.065 -1.44153 -0.712496 0
M  V30 2534 O 266.255 -1.65354 -0.548053 0
M  V30 2535 C 263.387 -3.26952 -0.965161 0
M  V30 2536 H 264.58 -2.88959 0.802681 0
M  V30 2537 H 262.133 -1.4955 0.454356 0
M  V30 2538 H 262.868 -2.72142 -1.76378 0
M  V30 2539 H 262.653 -3.89685 -0.434522 0
M  V30 2540 H 264.143 -3.92561 -1.42428 0
M  V30 2541 N 264.58 -0.43555 -1.51462 0
M  V30 2542 C 265.857 0.191364 -1.94662 0
M  V30 2543 C 266.237 1.60254 -1.37411 0
M  V30 2544 O 265.585 2.2152 -0.560458 0
M  V30 2545 C 265.795 0.17091 -3.48581 0
M  V30 2546 C 267.143 0.377357 -4.2292 0
M  V30 2547 O 268.167 0.249104 -3.55328 0
M  V30 2548 O 267.026 0.63247 -5.42828 0
M  V30 2549 H 264.12 0.130932 -0.816569 0
M  V30 2550 H 266.666 -0.4934 -1.62369 0
M  V30 2551 H 265.438 -0.815738 -3.82703 0
M  V30 2552 H 265.061 0.898659 -3.87311 0
M  V30 2553 N 266.058 1.56714 -0.166846 0
M  V30 2554 C 266.991 2.13577 0.80375 0
M  V30 2555 C 267.969 1.06464 1.22899 0
M  V30 2556 O 269.153 1.34413 1.32157 0
M  V30 2557 C 266.28 2.67168 2.0818 0
M  V30 2558 C 265.326 3.86612 1.80093 0
M  V30 2559 S 266.159 5.26565 0.97416 0
M  V30 2560 C 267.315 5.83558 2.26297 0
M  V30 2561 H 267.548 2.9557 0.320267 0
M  V30 2562 H 265.081 1.54326 0.0477555 0
M  V30 2563 H 267.039 2.98692 2.8159 0
M  V30 2564 H 265.7 1.85269 2.53642 0
M  V30 2565 H 264.893 4.22422 2.7491 0
M  V30 2566 H 264.495 3.55951 1.14781 0
M  V30 2567 H 266.787 5.962 3.21795 0
M  V30 2568 H 267.73 6.80731 1.94962 0
M  V30 2569 H 268.138 5.11944 2.37853 0
M  V30 2570 N 267.536 -0.106894 1.57237 0
M  V30 2571 C 268.446 -1.14911 2.0453 0
M  V30 2572 C 269.462 -1.44592 0.96795 0
M  V30 2573 O 270.638 -1.55468 1.2803 0
M  V30 2574 C 267.703 -2.45272 2.45036 0
M  V30 2575 C 266.764 -2.22879 3.66911 0
M  V30 2576 C 265.997 -3.47024 4.05475 0
M  V30 2577 O 266.22 -4.54804 3.44252 0
M  V30 2578 O 265.154 -3.3731 4.98504 0
M  V30 2579 H 268.98 -0.777461 2.9358 0
M  V30 2580 H 266.565 -0.318563 1.45964 0
M  V30 2581 H 268.447 -3.22055 2.71769 0
M  V30 2582 H 267.122 -2.81886 1.59129 0
M  V30 2583 H 266.029 -1.43915 3.45311 0
M  V30 2584 H 267.362 -1.91163 4.53561 0
M  V30 2585 N 269.014 -1.53014 -0.377408 0
M  V30 2586 C 269.946 -1.74884 -1.48149 0
M  V30 2587 C 270.959 -0.629433 -1.5014 0
M  V30 2588 O 272.148 -0.905416 -1.53833 0
M  V30 2589 C 269.248 -1.80299 -2.86959 0
M  V30 2590 C 268.421 -3.09776 -3.08801 0
M  V30 2591 C 267.48 -3.06586 -4.27658 0
M  V30 2592 O 266.506 -3.80419 -4.23403 0
M  V30 2593 N 267.708 -2.26578 -5.34455 0
M  V30 2594 H 270.473 -2.70147 -1.29771 0
M  V30 2595 H 268.034 -1.51646 -0.56703 0
M  V30 2596 H 270.026 -1.75657 -3.64591 0
M  V30 2597 H 268.596 -0.92372 -2.98641 0
M  V30 2598 H 267.816 -3.27815 -2.18931 0
M  V30 2599 H 269.104 -3.95366 -3.20255 0
M  V30 2600 H 268.502 -1.66081 -5.40771 0
M  V30 2601 H 267.059 -2.27766 -6.10709 0
M  V30 2602 N 270.492 0.636531 -1.44174 0
M  V30 2603 C 271.422 1.76003 -1.53444 0
M  V30 2604 C 272.403 1.65619 -0.387841 0
M  V30 2605 O 273.588 1.84461 -0.607257 0
M  V30 2606 C 270.718 3.14511 -1.4731 0
M  V30 2607 C 269.672 3.39677 -2.60391 0
M  V30 2608 C 268.998 4.78159 -2.39308 0
M  V30 2609 C 270.298 3.32772 -4.02567 0
M  V30 2610 H 271.992 1.68501 -2.47483 0
M  V30 2611 H 269.538 0.809237 -1.19111 0
M  V30 2612 H 271.491 3.92878 -1.52397 0
M  V30 2613 H 270.215 3.22783 -0.49785 0
M  V30 2614 H 268.874 2.63688 -2.54684 0
M  V30 2615 H 268.522 4.83128 -1.39988 0
M  V30 2616 H 268.222 4.95956 -3.15122 0
M  V30 2617 H 269.746 5.58762 -2.46205 0
M  V30 2618 H 271.16 4.01051 -4.09672 0
M  V30 2619 H 269.557 3.62104 -4.7854 0
M  V30 2620 H 270.627 2.30669 -4.2652 0
M  V30 2621 N 271.97 1.30982 0.876444 0
M  V30 2622 C 272.88 1.2003 2.01569 0
M  V30 2623 C 273.896 0.11838 1.73597 0
M  V30 2624 O 275.072 0.33495 1.98595 0
M  V30 2625 C 272.137 0.901637 3.34771 0
M  V30 2626 C 271.198 2.06979 3.76109 0
M  V30 2627 C 270.431 1.78529 5.02954 0
M  V30 2628 O 270.654 0.717296 5.65872 0
M  V30 2629 O 269.588 2.64019 5.40905 0
M  V30 2630 H 273.414 2.15753 2.13739 0
M  V30 2631 H 270.999 1.10658 1.00375 0
M  V30 2632 H 272.881 0.750645 4.1466 0
M  V30 2633 H 271.556 -0.0256141 3.2369 0
M  V30 2634 H 270.463 2.27616 2.96887 0
M  V30 2635 H 271.796 2.97907 3.91807 0
M  V30 2636 N 273.449 -1.08991 1.13837 0
M  V30 2637 C 274.379 -2.17771 0.842507 0
M  V30 2638 C 275.36 -1.6892 -0.20001 0
M  V30 2639 O 276.545 -1.94113 -0.0579731 0
M  V30 2640 C 273.675 -3.4589 0.312644 0
M  V30 2641 C 272.629 -4.08099 1.28992 0
M  V30 2642 C 271.955 -5.31098 0.619623 0
M  V30 2643 C 273.255 -4.50077 2.65005 0
M  V30 2644 H 274.949 -2.42777 1.75213 0
M  V30 2645 H 272.495 -1.16682 0.843875 0
M  V30 2646 H 274.448 -4.21297 0.0933043 0
M  V30 2647 H 273.172 -3.20419 -0.632382 0
M  V30 2648 H 271.831 -3.34717 1.49533 0
M  V30 2649 H 271.479 -5.0191 -0.33102 0
M  V30 2650 H 271.179 -5.73674 1.27167 0
M  V30 2651 H 272.703 -6.09224 0.409669 0
M  V30 2652 H 274.117 -5.16688 2.48407 0
M  V30 2653 H 272.514 -5.03553 3.26427 0
M  V30 2654 H 273.584 -3.62257 3.22332 0
M  V30 2655 N 274.927 -0.932562 -1.27047 0
M  V30 2656 C 275.89 -0.440064 -2.24936 0
M  V30 2657 C 276.89 0.444071 -1.54547 0
M  V30 2658 O 278.08 0.244465 -1.72476 0
M  V30 2659 C 275.212 0.36678 -3.38921 0
M  V30 2660 H 276.405 -1.305 -2.70018 0
M  V30 2661 H 273.958 -0.713707 -1.39054 0
M  V30 2662 H 274.693 1.25033 -2.99228 0
M  V30 2663 H 274.478 -0.267204 -3.91188 0
M  V30 2664 H 275.968 0.701567 -4.11665 0
M  V30 2665 N 276.405 1.4127 -0.698611 0
M  V30 2666 C 277.368 2.29158 -0.044132 0
M  V30 2667 C 278.368 1.44529 0.704841 0
M  V30 2668 O 279.558 1.65643 0.539276 0
M  V30 2669 C 276.69 3.27459 0.947809 0
M  V30 2670 H 277.883 2.88529 -0.817994 0
M  V30 2671 H 275.436 1.49307 -0.46228 0
M  V30 2672 H 276.171 2.73073 1.74933 0
M  V30 2673 H 275.956 3.8991 0.41385 0
M  V30 2674 H 277.446 3.93311 1.40344 0
M  V30 2675 N 277.883 0.443576 1.51229 0
M  V30 2676 C 279.132 -0.122332 2.01329 0
M  V30 2677 C 279.445 -1.43237 1.33201 0
M  V30 2678 O 280.651 -2.0816 1.74304 0
M  V30 2679 C 279.107 -0.268551 3.58897 0
M  V30 2680 C 278.715 1.03142 4.35965 0
M  V30 2681 C 280.459 -0.787894 4.17124 0
M  V30 2682 C 278.366 0.850504 5.85252 0
M  V30 2683 H 277.296 -0.0494929 0.752374 0
M  V30 2684 H 279.947 0.574289 1.74282 0
M  V30 2685 H 278.329 -1.02832 3.82415 0
M  V30 2686 H 279.503 1.80001 4.24189 0
M  V30 2687 H 277.818 1.47977 3.89219 0
M  V30 2688 H 280.415 -0.939841 5.26375 0
M  V30 2689 H 280.758 -1.77201 3.76703 0
M  V30 2690 H 281.291 -0.0862669 3.97706 0
M  V30 2691 H 278.03 1.80718 6.30096 0
M  V30 2692 H 277.55 0.121825 5.99676 0
M  V30 2693 H 279.229 0.506163 6.45017 0
M  V30 2694 N 279.361 -1.56624 0.175154 0
M  V30 2695 C 280.324 -2.16934 -0.739738 0
M  V30 2696 C 281.324 -1.11842 -1.15533 0
M  V30 2697 O 282.514 -1.37335 -1.07167 0
M  V30 2698 C 279.646 -2.75531 -2.00738 0
M  V30 2699 H 280.839 -2.99131 -0.214639 0
M  V30 2700 H 278.392 -1.56123 -0.0744197 0
M  V30 2701 H 279.127 -1.97078 -2.57548 0
M  V30 2702 H 278.912 -3.52444 -1.71831 0
M  V30 2703 H 280.402 -3.21904 -2.66021 0
M  V30 2704 N 280.839 0.0985539 -1.57292 0
M  V30 2705 C 281.786 1.11981 -2.01814 0
M  V30 2706 C 282.756 1.39999 -0.89384 0
M  V30 2707 O 283.941 1.5152 -1.15958 0
M  V30 2708 C 281.081 2.43577 -2.44467 0
M  V30 2709 C 280.194 2.2232 -3.70402 0
M  V30 2710 C 279.329 3.4729 -4.01949 0
M  V30 2711 C 278.368 3.2128 -5.21005 0
M  V30 2712 N 277.505 4.38507 -5.48321 0
M  V30 2713 H 282.345 0.733149 -2.88841 0
M  V30 2714 H 279.882 0.350482 -1.42864 0
M  V30 2715 H 281.84 3.20373 -2.6724 0
M  V30 2716 H 280.47 2.80097 -1.60455 0
M  V30 2717 H 279.522 1.36343 -3.55126 0
M  V30 2718 H 280.834 1.99089 -4.57345 0
M  V30 2719 H 279.988 4.32495 -4.25479 0
M  V30 2720 H 278.727 3.73572 -3.13521 0
M  V30 2721 H 277.732 2.34468 -4.97298 0
M  V30 2722 H 278.957 2.96348 -6.11028 0
M  V30 2723 H 276.903 4.64871 -4.62851 0
M  V30 2724 H 276.82 4.18455 -6.29628 0
M  V30 2725 H 278.088 5.24787 -5.76385 0
M  V30 2726 N 282.317 1.53212 0.369288 0
M  V30 2727 C 283.564 1.69215 1.11232 0
M  V30 2728 C 283.892 0.442048 1.8941 0
M  V30 2729 O 283.147 -0.575944 1.87033 0
M  V30 2730 C 283.446 2.89101 2.10132 0
M  V30 2731 C 283.112 4.25758 1.48463 0
M  V30 2732 C 281.774 4.6292 1.31372 0
M  V30 2733 C 284.126 5.10757 1.03811 0
M  V30 2734 C 281.454 5.82722 0.68207 0
M  V30 2735 C 283.806 6.31201 0.420487 0
M  V30 2736 C 282.47 6.67079 0.237038 0
M  V30 2737 H 281.74 0.619201 0.407027 0
M  V30 2738 H 284.387 1.87391 0.394552 0
M  V30 2739 H 282.692 2.65421 2.88199 0
M  V30 2740 H 284.389 2.98676 2.6757 0
M  V30 2741 H 280.979 3.96494 1.62758 0
M  V30 2742 H 285.163 4.82599 1.1581 0
M  V30 2743 H 280.419 6.09113 0.528316 0
M  V30 2744 H 284.593 6.96368 0.0662874 0
M  V30 2745 H 282.22 7.59774 -0.254477 0
M  V30 2746 N 283.795 -0.628877 1.44509 0
M  V30 2747 C 285.043 -1.38565 1.4712 0
M  V30 2748 C 285.364 -1.94712 0.105899 0
M  V30 2749 O 284.634 -1.75912 -0.862079 0
M  V30 2750 H 283.214 -0.514333 0.541729 0
M  V30 2751 H 285.876 -0.740018 1.80305 0
M  V30 2752 H 284.972 -2.21583 2.19789 0
M  V30 2753 N 285.273 -1.31445 -0.869486 0
M  V30 2754 C 286.236 -1.19094 -1.9583 0
M  V30 2755 C 287.236 -0.117906 -1.60367 0
M  V30 2756 O 288.426 -0.367208 -1.70286 0
M  V30 2757 C 285.558 -0.828165 -3.30688 0
M  V30 2758 H 286.751 -2.15842 -2.08212 0
M  V30 2759 H 284.304 -1.15063 -1.05784 0
M  V30 2760 H 285.039 0.138142 -3.24006 0
M  V30 2761 H 284.824 -1.6038 -3.578 0
M  V30 2762 H 286.314 -0.765658 -4.10521 0
M  V30 2763 N 286.751 1.08385 -1.14413 0
M  V30 2764 C 287.979 1.84517 -0.936001 0
M  V30 2765 C 288.394 1.81626 0.515503 0
M  V30 2766 O 287.751 1.22008 1.35721 0
M  V30 2767 C 287.802 3.32049 -1.42918 0
M  V30 2768 O 287.523 3.34951 -2.82381 0
M  V30 2769 C 289.024 4.24986 -1.26103 0
M  V30 2770 H 286.244 0.582491 -0.333084 0
M  V30 2771 H 288.788 1.36885 -1.5193 0
M  V30 2772 H 286.943 3.7707 -0.888641 0
M  V30 2773 H 287.357 4.27048 -3.04517 0
M  V30 2774 H 288.831 5.26615 -1.6547 0
M  V30 2775 H 289.308 4.38726 -0.20392 0
M  V30 2776 H 289.914 3.85791 -1.79012 0
M  V30 2777 N 288.23 0.939286 1.26551 0
M  V30 2778 C 289.178 0.43815 2.28436 0
M  V30 2779 C 290.172 -0.483587 1.62351 0
M  V30 2780 O 291.378 -0.362009 1.76322 0
M  V30 2781 H 287.753 0.123149 0.741848 0
M  V30 2782 H 289.724 1.31002 2.68106 0
M  V30 2783 C 288.473 -0.283052 3.46546 0
M  V30 2784 H 287.796 0.417043 3.97619 0
M  V30 2785 H 289.236 -0.597948 4.19763 0
M  V30 2786 C 287.695 -1.50018 3.01656 0
M  V30 2787 O 288.225 -2.59855 3.0633 0
M  V30 2788 N 286.431 -1.35608 2.57019 0
M  V30 2789 H 285.978 -0.46244 2.53415 0
M  V30 2790 H 285.936 -2.17165 2.27347 0
M  V30 2791 N 289.708 -1.40897 0.706093 0
M  V30 2792 C 290.954 -2.01352 0.241889 0
M  V30 2793 C 291.287 -1.55832 -1.15888 0
M  V30 2794 O 290.562 -0.774145 -1.7843 0
M  V30 2795 C 290.845 -3.58752 0.311311 0
M  V30 2796 C 290.698 -4.1437 1.74978 0
M  V30 2797 C 292.017 -4.38914 -0.322922 0
M  V30 2798 H 289.136 -0.731562 0.0893687 0
M  V30 2799 H 291.778 -1.67504 0.896802 0
M  V30 2800 H 289.928 -3.87718 -0.246302 0
M  V30 2801 H 291.6 -3.96239 2.36205 0
M  V30 2802 H 289.843 -3.69016 2.28057 0
M  V30 2803 H 290.514 -5.23532 1.74981 0
M  V30 2804 H 292.99 -4.15822 0.152089 0
M  V30 2805 H 291.866 -5.48358 -0.243855 0
M  V30 2806 H 292.127 -4.19176 -1.40513 0
M  V30 2807 N 291.186 -0.45159 -1.50991 0
M  V30 2808 C 292.133 0.352625 -2.2809 0
M  V30 2809 C 293.103 1.0044 -1.32291 0
M  V30 2810 O 294.288 1.02058 -1.6121 0
M  V30 2811 C 291.428 1.43983 -3.13629 0
M  V30 2812 C 290.541 0.804772 -4.24438 0
M  V30 2813 C 289.676 1.86822 -4.97263 0
M  V30 2814 C 288.715 1.21236 -5.99973 0
M  V30 2815 N 287.852 2.2178 -6.66152 0
M  V30 2816 H 292.692 -0.311186 -2.96371 0
M  V30 2817 H 290.229 -0.165308 -1.46168 0
M  V30 2818 H 292.187 2.08161 -3.61559 0
M  V30 2819 H 290.817 2.07307 -2.47434 0
M  V30 2820 H 289.869 0.0509129 -3.80366 0
M  V30 2821 H 291.181 0.286076 -4.97979 0
M  V30 2822 H 290.335 2.58628 -5.48813 0
M  V30 2823 H 289.074 2.42068 -4.23385 0
M  V30 2824 H 288.079 0.479828 -5.47702 0
M  V30 2825 H 289.304 0.667051 -6.75816 0
M  V30 2826 H 287.25 2.76079 -5.95077 0
M  V30 2827 H 287.167 1.74841 -7.35504 0
M  V30 2828 H 288.435 2.93026 -7.22327 0
M  V30 2829 N 292.664 1.56529 -0.183458 0
M  V30 2830 C 293.627 2.17324 0.728223 0
M  V30 2831 C 294.627 1.12453 1.14939 0
M  V30 2832 O 295.817 1.37902 1.06437 0
M  V30 2833 C 292.949 2.76591 1.99274 0
M  V30 2834 H 294.142 2.99241 0.198772 0
M  V30 2835 H 291.695 1.5616 0.0661391 0
M  V30 2836 H 292.43 1.98441 2.56499 0
M  V30 2837 H 292.215 3.5335 1.69959 0
M  V30 2838 H 293.705 3.23311 2.6431 0
M  V30 2839 N 294.142 -0.090211 1.57342 0
M  V30 2840 C 295.372 -0.805055 1.90269 0
M  V30 2841 C 295.78 -1.72561 0.775842 0
M  V30 2842 O 295.123 -1.81839 -0.260843 0
M  V30 2843 C 295.185 -1.66734 3.18497 0
M  V30 2844 C 294.849 -0.918092 4.47683 0
M  V30 2845 C 295.846 -0.245674 5.19319 0
M  V30 2846 C 293.531 -0.890724 4.94339 0
M  V30 2847 C 295.525 0.444088 6.35851 0
M  V30 2848 C 293.212 -0.197179 6.10782 0
M  V30 2849 C 294.21 0.469044 6.81388 0
M  V30 2850 O 293.898 1.15146 7.95611 0
M  V30 2851 H 293.63 -0.235143 0.633785 0
M  V30 2852 H 296.184 -0.0703805 2.05279 0
M  V30 2853 H 294.414 -2.44437 2.99646 0
M  V30 2854 H 296.103 -2.25919 3.37217 0
M  V30 2855 H 296.869 -0.258246 4.84312 0
M  V30 2856 H 292.748 -1.39873 4.39268 0
M  V30 2857 H 296.292 0.964667 6.90898 0
M  V30 2858 H 292.189 -0.18247 6.45242 0
M  V30 2859 H 292.957 1.05885 8.11622 0
M  V30 2860 N 295.62 -1.53406 -0.361157 0
M  V30 2861 C 296.85 -1.73465 -1.1222 0
M  V30 2862 C 297.258 -0.465486 -1.83384 0
M  V30 2863 O 296.601 0.571611 -1.7458 0
M  V30 2864 C 296.663 -2.84834 -2.19339 0
M  V30 2865 C 296.327 -4.25038 -1.67903 0
M  V30 2866 C 297.324 -5.07231 -1.14074 0
M  V30 2867 C 295.009 -4.71464 -1.73282 0
M  V30 2868 C 297.003 -6.33942 -0.663068 0
M  V30 2869 C 294.69 -5.98153 -1.25127 0
M  V30 2870 C 295.688 -6.79223 -0.717296 0
M  V30 2871 O 295.376 -8.03533 -0.242865 0
M  V30 2872 H 295.108 -0.583526 -0.341283 0
M  V30 2873 H 297.662 -2.00964 -0.424591 0
M  V30 2874 H 295.892 -2.5282 -2.92607 0
M  V30 2875 H 297.581 -2.9303 -2.80871 0
M  V30 2876 H 298.347 -4.72534 -1.09254 0
M  V30 2877 H 294.226 -4.08432 -2.13786 0
M  V30 2878 H 297.77 -6.97167 -0.245612 0
M  V30 2879 H 293.667 -6.32347 -1.29642 0
M  V30 2880 H 294.435 -8.177 -0.361786 0
M  V30 2881 N 297.098 0.621204 -1.44841 0
M  V30 2882 C 298.061 1.71459 -1.521 0
M  V30 2883 C 299.061 1.55696 -0.401933 0
M  V30 2884 O 300.251 1.61011 -0.664925 0
M  V30 2885 C 297.383 3.10624 -1.40447 0
M  V30 2886 H 298.576 1.66394 -2.49506 0
M  V30 2887 H 296.129 0.835745 -1.3208 0
M  V30 2888 H 296.864 3.21277 -0.441737 0
M  V30 2889 H 296.649 3.23473 -2.21602 0
M  V30 2890 H 298.139 3.90293 -1.4853 0
M  V30 2891 N 298.576 1.31904 0.862503 0
M  V30 2892 C 299.853 1.12644 1.59908 0
M  V30 2893 C 300.233 -0.316104 2.0872 0
M  V30 2894 O 299.581 -1.31145 1.87118 0
M  V30 2895 C 299.791 2.1472 2.7513 0
M  V30 2896 C 301.139 2.47637 3.44907 0
M  V30 2897 O 302.163 2.13205 2.85346 0
M  V30 2898 O 301.022 3.06632 4.52371 0
M  V30 2899 H 298.116 0.43416 0.703871 0
M  V30 2900 H 300.662 1.43408 0.907314 0
M  V30 2901 H 299.434 3.1172 2.3653 0
M  V30 2902 H 299.057 1.84905 3.51989 0
M  V30 2903 N 300.054 -1.07777 1.14986 0
M  V30 2904 C 301.302 -1.79934 0.920235 0
M  V30 2905 C 301.623 -1.86955 -0.554336 0
M  V30 2906 O 300.893 -1.36731 -1.40291 0
M  V30 2907 H 299.473 -0.666424 0.337473 0
M  V30 2908 H 302.135 -1.3027 1.44968 0
M  V30 2909 H 301.231 -2.82539 1.32583 0
M  V30 2910 N 301.532 -0.945985 -1.26051 0
M  V30 2911 C 302.442 -0.465633 -2.29933 0
M  V30 2912 C 303.458 0.462761 -1.67733 0
M  V30 2913 O 304.634 0.341118 -1.9849 0
M  V30 2914 C 301.699 0.256994 -3.45746 0
M  V30 2915 C 300.76 -0.708549 -4.23412 0
M  V30 2916 C 299.993 -0.0203135 -5.33696 0
M  V30 2917 O 300.216 1.19571 -5.57726 0
M  V30 2918 O 299.15 -0.701459 -5.97799 0
M  V30 2919 H 302.976 -1.32866 -2.73094 0
M  V30 2920 H 300.561 -0.712071 -1.31339 0
M  V30 2921 H 302.443 0.663852 -4.16138 0
M  V30 2922 H 301.118 1.09533 -3.04605 0
M  V30 2923 H 300.025 -1.16545 -3.55483 0
M  V30 2924 H 301.358 -1.51465 -4.68315 0
M  V30 2925 N 303.011 1.40521 -0.713556 0
M  V30 2926 C 303.941 2.33381 -0.0743864 0
M  V30 2927 C 304.922 1.52784 0.747735 0
M  V30 2928 O 306.107 1.81258 0.697071 0
M  V30 2929 C 303.237 3.36748 0.849598 0
M  V30 2930 C 302.191 4.27793 0.133247 0
M  V30 2931 C 301.517 5.21679 1.17281 0
M  V30 2932 C 302.817 5.12415 -1.01134 0
M  V30 2933 H 304.511 2.87081 -0.850007 0
M  V30 2934 H 302.057 1.38034 -0.410201 0
M  V30 2935 H 304.01 4.00648 1.30612 0
M  V30 2936 H 302.734 2.81439 1.65709 0
M  V30 2937 H 301.393 3.65342 -0.303426 0
M  V30 2938 H 301.041 4.62677 1.9733 0
M  V30 2939 H 300.741 5.83435 0.698397 0
M  V30 2940 H 302.265 5.88456 1.62947 0
M  V30 2941 H 303.679 5.69781 -0.634274 0
M  V30 2942 H 302.076 5.83203 -1.41399 0
M  V30 2943 H 303.146 4.48514 -1.84292 0
M  V30 2944 N 304.489 0.459591 1.5075 0
M  V30 2945 C 305.766 -0.160371 1.94941 0
M  V30 2946 C 306.146 -1.58048 1.39943 0
M  V30 2947 O 305.494 -2.206 0.595629 0
M  V30 2948 C 305.704 -0.115432 3.48809 0
M  V30 2949 C 307.052 -0.310026 4.23467 0
M  V30 2950 O 308.076 -0.192543 3.55679 0
M  V30 2951 O 306.935 -0.546031 5.43765 0
M  V30 2952 H 304.029 -0.117925 0.818549 0
M  V30 2953 H 306.575 0.519169 1.61563 0
M  V30 2954 H 305.347 0.87652 3.81357 0
M  V30 2955 H 304.97 -0.836928 3.88692 0
M  V30 2956 N 305.967 -1.56429 0.191757 0
M  V30 2957 C 307.383 -1.58754 -0.164137 0
M  V30 2958 C 307.583 -1.20782 -1.61288 0
M  V30 2959 O 306.639 -0.928999 -2.34789 0
M  V30 2960 C 307.952 -3.00396 0.135195 0
M  V30 2961 C 309.5 -3.1291 0.0750351 0
M  V30 2962 C 309.975 -4.56679 0.347632 0
M  V30 2963 N 311.466 -4.62252 0.296131 0
M  V30 2964 C 312.201 -5.71379 0.480948 0
M  V30 2965 N 311.697 -6.88986 0.725933 0
M  V30 2966 N 313.49 -5.60563 0.415435 0
M  V30 2967 H 305.641 -1.79393 1.13718 0
M  V30 2968 H 307.904 -0.832414 0.453643 0
M  V30 2969 H 307.61 -3.32726 1.13958 0
M  V30 2970 H 307.484 -3.72963 -0.563773 0
M  V30 2971 H 309.871 -2.80394 -0.919948 0
M  V30 2972 H 309.952 -2.42736 0.807029 0
M  V30 2973 H 309.596 -4.89907 1.33992 0
M  V30 2974 H 309.526 -5.25039 -0.405212 0
M  V30 2975 H 312.017 -3.7773 0.113259 0
M  V30 2976 H 312.33 -7.68046 0.855857 0
M  V30 2977 H 310.675 -6.90801 0.762788 0
M  V30 2978 H 313.866 -4.67561 0.224486 0
M  V30 2979 H 314.039 -6.45551 0.562889 0
M  V30 2980 N 307.445 0.0818655 -1.57387 0
M  V30 2981 C 308.722 0.815343 -1.77796 0
M  V30 2982 C 309.102 1.96289 -0.77679 0
M  V30 2983 O 308.45 2.27691 0.192106 0
M  V30 2984 C 308.66 1.29765 -3.23978 0
M  V30 2985 C 310.008 1.7351 -3.8753 0
M  V30 2986 O 311.032 1.39356 -3.27808 0
M  V30 2987 O 309.891 2.36708 -4.92576 0
M  V30 2988 H 306.985 0.389914 -0.729312 0
M  V30 2989 H 309.531 0.0627213 -1.69584 0
M  V30 2990 H 308.303 0.47608 -3.88393 0
M  V30 2991 H 307.926 2.11189 -3.36875 0
M  V30 2992 N 308.923 1.53595 0.353017 0
M  V30 2993 C 310.17 1.70385 1.09431 0
M  V30 2994 C 310.498 0.462113 1.88931 0
M  V30 2995 O 309.753 -0.556074 1.87633 0
M  V30 2996 C 310.052 2.91313 2.07054 0
M  V30 2997 C 309.718 4.27308 1.43939 0
M  V30 2998 C 308.38 4.64287 1.26454 0
M  V30 2999 C 310.732 5.11829 0.983883 0
M  V30 3000 C 308.06 5.83412 0.620226 0
M  V30 3001 C 310.412 6.31611 0.353516 0
M  V30 3002 C 309.076 6.67293 0.166272 0
M  V30 3003 H 308.346 0.623484 0.400436 0
M  V30 3004 H 310.993 1.87799 0.374655 0
M  V30 3005 H 309.298 2.68463 2.85368 0
M  V30 3006 H 310.995 3.01497 2.64387 0
M  V30 3007 H 307.585 3.98198 1.58543 0
M  V30 3008 H 311.769 4.838 1.10685 0
M  V30 3009 H 307.025 6.09639 0.463681 0
M  V30 3010 H 311.199 6.964 -0.00757555 0
M  V30 3011 H 308.826 7.59461 -0.335047 0
M  V30 3012 N 310.401 -0.613514 1.45168 0
M  V30 3013 C 311.364 -1.7065 1.53007 0
M  V30 3014 C 312.364 -1.5548 0.410184 0
M  V30 3015 O 313.554 -1.60656 0.673455 0
M  V30 3016 C 310.686 -3.09875 1.42093 0
M  V30 3017 H 311.879 -1.65068 2.50385 0
M  V30 3018 H 309.432 -0.828728 1.32521 0
M  V30 3019 H 310.167 -3.21039 0.458769 0
M  V30 3020 H 309.952 -3.22293 2.23315 0
M  V30 3021 H 311.442 -3.895 1.50598 0
M  V30 3022 N 311.879 -1.3236 -0.855495 0
M  V30 3023 C 313.295 -1.11332 -1.14356 0
M  V30 3024 C 313.495 0.106751 -2.01217 0
M  V30 3025 O 312.551 0.791891 -2.39761 0
M  V30 3026 C 313.864 -2.39237 -1.82171 0
M  V30 3027 C 315.412 -2.44986 -1.9481 0
M  V30 3028 C 315.887 -3.7281 -2.66039 0
M  V30 3029 N 317.378 -3.73787 -2.73565 0
M  V30 3030 C 318.113 -4.69394 -3.29327 0
M  V30 3031 N 317.609 -5.75367 -3.85907 0
M  V30 3032 N 319.402 -4.56893 -3.27423 0
M  V30 3033 H 311.553 -2.10586 -0.277027 0
M  V30 3034 H 313.816 -0.929701 -0.185364 0
M  V30 3035 H 313.522 -3.28431 -1.25802 0
M  V30 3036 H 313.396 -2.50134 -2.82335 0
M  V30 3037 H 315.783 -1.56252 -2.50338 0
M  V30 3038 H 315.864 -2.38043 -0.936448 0
M  V30 3039 H 315.508 -4.61918 -2.11174 0
M  V30 3040 H 315.438 -3.77024 -3.67642 0
M  V30 3041 H 317.929 -2.97189 -2.33424 0
M  V30 3042 H 318.242 -6.44378 -4.26611 0
M  V30 3043 H 316.587 -5.79123 -3.84242 0
M  V30 3044 H 319.778 -3.73269 -2.82467 0
M  V30 3045 H 319.951 -5.31577 -3.7058 0
M  V30 3046 N 313.357 1.07166 -1.15556 0
M  V30 3047 C 314.32 2.12589 -0.856644 0
M  V30 3048 C 315.32 1.6015 0.14444 0
M  V30 3049 O 316.51 1.7399 -0.0854163 0
M  V30 3050 C 313.642 3.39753 -0.279405 0
M  V30 3051 H 314.835 2.40539 -1.79112 0
M  V30 3052 H 312.388 1.23086 -0.963298 0
M  V30 3053 H 313.123 3.17447 0.663174 0
M  V30 3054 H 312.908 3.79117 -1.00063 0
M  V30 3055 H 314.398 4.17507 -0.0879113 0
M  V30 3056 N 314.835 0.952656 1.25548 0
M  V30 3057 C 316.081 0.607272 1.93494 0
M  V30 3058 C 316.414 -0.853245 1.74452 0
M  V30 3059 O 315.689 -1.61194 1.08843 0
M  V30 3060 C 315.972 0.96435 3.46947 0
M  V30 3061 C 315.825 2.48045 3.75225 0
M  V30 3062 C 317.144 0.487987 4.37386 0
M  V30 3063 H 314.263 0.222096 0.702739 0
M  V30 3064 H 316.905 1.18895 1.48203 0
M  V30 3065 H 315.055 0.469361 3.85654 0
M  V30 3066 H 316.727 3.04905 3.46166 0
M  V30 3067 H 314.97 2.919 3.209 0
M  V30 3068 H 315.641 2.6808 4.82532 0
M  V30 3069 H 318.117 0.912558 4.0597 0
M  V30 3070 H 316.993 0.766547 5.43521 0
M  V30 3071 H 317.254 -0.612063 4.37843 0
M  V30 3072 N 316.313 -1.40141 0.720998 0
M  V30 3073 C 317.56 -2.00787 0.262842 0
M  V30 3074 C 317.888 -1.5718 -1.14563 0
M  V30 3075 O 317.143 -0.785391 -1.79249 0
M  V30 3076 C 317.442 -3.56165 0.296892 0
M  V30 3077 C 317.108 -4.19373 1.65641 0
M  V30 3078 C 315.77 -4.36352 2.02855 0
M  V30 3079 C 318.122 -4.54578 2.54968 0
M  V30 3080 C 315.45 -4.8582 3.28931 0
M  V30 3081 C 317.802 -5.05447 3.80402 0
M  V30 3082 C 316.466 -5.20635 4.17726 0
M  V30 3083 H 315.736 -0.734731 0.0961807 0
M  V30 3084 H 318.383 -1.67673 0.925093 0
M  V30 3085 H 316.688 -3.8922 -0.448932 0
M  V30 3086 H 318.385 -4.00929 -0.0755208 0
M  V30 3087 H 314.975 -4.06549 1.35704 0
M  V30 3088 H 319.159 -4.41091 2.27491 0
M  V30 3089 H 314.415 -4.95764 3.57811 0
M  V30 3090 H 318.589 -5.31663 4.49786 0
M  V30 3091 H 316.216 -5.58728 5.15487 0
M  V30 3092 N 317.792 -0.46758 -1.50504 0
M  V30 3093 C 319.069 0.15003 -1.95024 0
M  V30 3094 C 319.449 1.57304 -1.40779 0
M  V30 3095 O 318.797 2.20281 -0.607319 0
M  V30 3096 C 319.007 0.0969324 -3.48865 0
M  V30 3097 C 320.355 0.287565 -4.23625 0
M  V30 3098 O 321.379 0.173678 -3.55776 0
M  V30 3099 O 320.238 0.517186 -5.44047 0
M  V30 3100 H 317.332 0.113582 -0.819163 0
M  V30 3101 H 319.878 -0.52773 -1.61286 0
M  V30 3102 H 318.65 -0.896732 -3.80886 0
M  V30 3103 H 318.273 0.816303 -3.8913 0
M  V30 3104 N 319.27 1.56325 -0.20005 0
M  V30 3105 C 320.2 2.22318 0.713916 0
M  V30 3106 C 321.181 1.18788 1.21752 0
M  V30 3107 O 322.366 1.47309 1.26545 0
M  V30 3108 C 319.496 2.88639 1.93144 0
M  V30 3109 C 318.45 3.98457 1.56255 0
M  V30 3110 C 317.776 4.51967 2.85709 0
M  V30 3111 C 319.076 5.16612 0.768747 0
M  V30 3112 H 320.77 2.98952 0.163755 0
M  V30 3113 H 318.316 1.43792 0.0773219 0
M  V30 3114 H 320.269 3.33491 2.57608 0
M  V30 3115 H 318.993 2.09419 2.50621 0
M  V30 3116 H 317.652 3.54305 0.941471 0
M  V30 3117 H 317.3 3.69503 3.41287 0
M  V30 3118 H 317 5.26071 2.6177 0
M  V30 3119 H 318.524 4.99523 3.51154 0
M  V30 3120 H 319.938 5.57977 1.3166 0
M  V30 3121 H 318.335 5.96812 0.627286 0
M  V30 3122 H 319.405 4.84358 -0.229168 0
M  V30 3123 N 320.748 -0.0735177 1.57428 0
M  V30 3124 C 321.976 -0.785969 1.9139 0
M  V30 3125 C 322.391 -1.71207 0.795847 0
M  V30 3126 O 321.748 -1.81033 -0.230915 0
M  V30 3127 C 321.799 -1.58107 3.25091 0
M  V30 3128 O 321.52 -0.6922 4.32597 0
M  V30 3129 C 323.021 -2.39467 3.73055 0
M  V30 3130 H 320.241 -0.223558 0.632663 0
M  V30 3131 H 322.785 -0.044302 2.04452 0
M  V30 3132 H 320.94 -2.27503 3.13562 0
M  V30 3133 H 321.354 -1.24504 5.09508 0
M  V30 3134 H 322.828 -2.90716 4.69242 0
M  V30 3135 H 323.305 -3.18913 3.01979 0
M  V30 3136 H 323.911 -1.7523 3.87523 0
M  V30 3137 N 322.226 -1.5378 -0.344866 0
M  V30 3138 C 323.637 -1.62428 -0.920552 0
M  V30 3139 C 323.988 -0.504747 -1.89596 0
M  V30 3140 O 323.113 0.365711 -2.13287 0
M  V30 3141 C 323.708 -2.94419 -1.67639 0
M  V30 3142 C 322.267 -3.05333 -2.20111 0
M  V30 3143 C 321.414 -2.57866 -1.01982 0
M  V30 3144 H 324.365 -1.58222 -0.123042 0
M  V30 3145 H 324.386 -2.83384 -2.53917 0
M  V30 3146 H 323.898 -3.7588 -0.966224 0
M  V30 3147 H 321.999 -2.28502 -2.94308 0
M  V30 3148 H 322.112 -4.10778 -2.46573 0
M  V30 3149 H 320.476 -2.13241 -1.39285 0
M  V30 3150 H 321.259 -3.41765 -0.324308 0
M  V30 3151 N 323.704 0.605807 -1.45491 0
M  V30 3152 C 324.95 1.36679 -1.49823 0
M  V30 3153 C 325.283 1.93693 -0.140175 0
M  V30 3154 O 324.558 1.75158 0.845581 0
M  V30 3155 C 324.841 2.51337 -2.57879 0
M  V30 3156 C 324.694 1.99508 -4.03134 0
M  V30 3157 C 326.013 3.53463 -2.62205 0
M  V30 3158 H 323.132 0.495617 -0.545466 0
M  V30 3159 H 325.774 0.682732 -1.7731 0
M  V30 3160 H 323.924 3.09691 -2.34571 0
M  V30 3161 H 325.596 1.45789 -4.37656 0
M  V30 3162 H 323.839 1.30496 -4.13707 0
M  V30 3163 H 324.51 2.82169 -4.74431 0
M  V30 3164 H 326.986 3.04953 -2.83095 0
M  V30 3165 H 325.862 4.31178 -3.39672 0
M  V30 3166 H 326.123 4.09197 -1.67363 0
M  V30 3167 N 325.182 1.32811 0.848464 0
M  V30 3168 C 326.145 1.22194 1.9391 0
M  V30 3169 C 327.145 0.143404 1.60159 0
M  V30 3170 O 328.335 0.394253 1.6968 0
M  V30 3171 C 325.467 0.88067 3.29328 0
M  V30 3172 H 326.66 2.19127 2.04752 0
M  V30 3173 H 324.213 1.16731 1.0394 0
M  V30 3174 H 324.948 -0.0865776 3.24184 0
M  V30 3175 H 324.733 1.66052 3.55203 0
M  V30 3176 H 326.223 0.830871 4.09251 0
M  V30 3177 N 326.66 -1.06551 1.16123 0
M  V30 3178 C 327.623 -2.12132 0.867906 0
M  V30 3179 C 328.623 -1.60224 -0.135944 0
M  V30 3180 O 329.813 -1.73943 0.0946422 0
M  V30 3181 C 326.945 -3.396 0.297419 0
M  V30 3182 H 328.138 -2.39586 1.80385 0
M  V30 3183 H 325.691 -1.22574 0.969812 0
M  V30 3184 H 326.426 -3.17794 -0.64633 0
M  V30 3185 H 326.211 -3.78581 1.02073 0
M  V30 3186 H 327.701 -4.17455 0.110052 0
M  V30 3187 N 328.138 -0.959301 -1.25041 0
M  V30 3188 C 329.101 -0.487677 -2.23952 0
M  V30 3189 C 330.101 0.41119 -1.55454 0
M  V30 3190 O 331.291 0.207825 -1.72956 0
M  V30 3191 C 328.423 0.294807 -3.39623 0
M  V30 3192 H 329.616 -1.36198 -2.67189 0
M  V30 3193 H 327.169 -0.743042 -1.37508 0
M  V30 3194 H 327.904 1.18658 -3.01813 0
M  V30 3195 H 327.689 -0.35012 -3.90534 0
M  V30 3196 H 329.179 0.614089 -4.1306 0
M  V30 3197 N 329.616 1.39756 -0.72842 0
M  V30 3198 C 330.579 2.29012 -0.0927297 0
M  V30 3199 C 331.579 1.45992 0.674025 0
M  V30 3200 O 332.769 1.66749 0.50402 0
M  V30 3201 C 329.901 3.29396 0.878137 0
M  V30 3202 H 331.094 2.86729 -0.879011 0
M  V30 3203 H 328.647 1.48293 -0.493847 0
M  V30 3204 H 329.382 2.76722 1.69101 0
M  V30 3205 H 329.167 3.907 0.331051 0
M  V30 3206 H 330.657 3.96199 1.3197 0
M  V30 3207 N 331.094 0.475555 1.50254 0
M  V30 3208 C 332.322 -0.0754493 2.06762 0
M  V30 3209 C 332.737 -1.33111 1.33891 0
M  V30 3210 O 332.094 -1.77846 0.40952 0
M  V30 3211 C 332.145 -0.359008 3.59713 0
M  V30 3212 O 331.866 0.846851 4.29837 0
M  V30 3213 C 333.367 -0.956484 4.32858 0
M  V30 3214 H 330.587 0.00907525 0.670939 0
M  V30 3215 H 333.131 0.665618 1.93364 0
M  V30 3216 H 331.286 -1.05001 3.72899 0
M  V30 3217 H 331.7 0.594162 5.21124 0
M  V30 3218 H 333.174 -1.10463 5.40834 0
M  V30 3219 H 333.651 -1.94775 3.93649 0
M  V30 3220 H 334.257 -0.303723 4.24214 0
M  V30 3221 N 332.573 -1.56217 0.208337 0
M  V30 3222 C 333.536 -2.18455 -0.693557 0
M  V30 3223 C 334.536 -1.14268 -1.13135 0
M  V30 3224 O 335.726 -1.39577 -1.0423 0
M  V30 3225 C 332.858 -2.79727 -1.94848 0
M  V30 3226 H 334.051 -2.99519 -0.15114 0
M  V30 3227 H 331.604 -1.56245 -0.041287 0
M  V30 3228 H 332.339 -2.02497 -2.53309 0
M  V30 3229 H 332.124 -3.56009 -1.64316 0
M  V30 3230 H 333.614 -3.27475 -2.59133 0
M  V30 3231 N 334.051 0.0651679 -1.57465 0
M  V30 3232 C 335.297 0.764193 -1.87851 0
M  V30 3233 C 335.63 1.76889 -0.801495 0
M  V30 3234 O 334.905 1.93594 0.187528 0
M  V30 3235 C 335.188 1.46625 -3.28897 0
M  V30 3236 C 335.041 0.477515 -4.47258 0
M  V30 3237 C 336.36 2.4095 -3.68281 0
M  V30 3238 H 333.479 0.276351 -0.683227 0
M  V30 3239 H 336.121 0.0272868 -1.8998 0
M  V30 3240 H 334.271 2.09438 -3.27212 0
M  V30 3241 H 335.943 -0.145922 -4.61069 0
M  V30 3242 H 334.186 -0.206576 -4.33308 0
M  V30 3243 H 334.857 1.0065 -5.42746 0
M  V30 3244 H 337.333 1.88209 -3.71102 0
M  V30 3245 H 336.209 2.87072 -4.67847 0
M  V30 3246 H 336.47 3.26049 -2.98571 0
M  V30 3247 N 335.529 1.53961 0.336706 0
M  V30 3248 C 336.806 1.62171 1.09361 0
M  V30 3249 C 337.186 0.447263 2.06307 0
M  V30 3250 O 336.534 -0.559802 2.21537 0
M  V30 3251 C 336.744 2.98565 1.80721 0
M  V30 3252 C 338.092 3.54157 2.34218 0
M  V30 3253 O 339.116 3.00784 1.90807 0
M  V30 3254 O 337.975 4.47528 3.13657 0
M  V30 3255 H 335.069 0.6562 0.503319 0
M  V30 3256 H 337.615 1.66307 0.33765 0
M  V30 3257 H 336.387 3.75482 1.10132 0
M  V30 3258 H 336.01 2.9805 2.63158 0
M  V30 3259 N 337.007 -0.598083 1.45811 0
M  V30 3260 C 337.957 -1.70272 1.51629 0
M  V30 3261 C 338.941 -1.56382 0.378629 0
M  V30 3262 O 340.133 -1.65557 0.626087 0
M  V30 3263 C 337.262 -3.09042 1.49493 0
M  V30 3264 C 336.348 -3.28284 2.68496 0
M  V30 3265 N 336.739 -3.17748 3.93535 0
M  V30 3266 C 335.037 -3.59182 2.64394 0
M  V30 3267 C 335.738 -3.38579 4.7301 0
M  V30 3268 N 334.714 -3.63016 4.04624 0
M  V30 3269 H 338.516 -1.60634 2.46118 0
M  V30 3270 H 336.03 -0.801642 1.41235 0
M  V30 3271 H 338.027 -3.88302 1.51747 0
M  V30 3272 H 336.687 -3.19823 0.560683 0
M  V30 3273 H 337.698 -2.95944 4.25014 0
M  V30 3274 H 334.375 -3.76742 1.79922 0
M  V30 3275 H 335.765 -3.35747 5.82 0
M  V30 3276 N 338.485 -1.33259 -0.841409 0
M  V30 3277 C 339.432 -1.23302 -1.95103 0
M  V30 3278 C 340.402 -0.112204 -1.65721 0
M  V30 3279 O 341.587 -0.290038 -1.88583 0
M  V30 3280 C 338.727 -0.975583 -3.31023 0
M  V30 3281 C 337.84 -2.18243 -3.72819 0
M  V30 3282 C 336.975 -1.85936 -4.97595 0
M  V30 3283 C 336.014 -3.02866 -5.3192 0
M  V30 3284 N 335.151 -2.70565 -6.47873 0
M  V30 3285 H 339.991 -2.18207 -2.02952 0
M  V30 3286 H 337.528 -1.0851 -0.993173 0
M  V30 3287 H 339.486 -0.80677 -4.09325 0
M  V30 3288 H 338.116 -0.0632755 -3.22738 0
M  V30 3289 H 337.168 -2.46107 -2.90061 0
M  V30 3290 H 338.48 -3.05666 -3.94169 0
M  V30 3291 H 337.634 -1.65684 -5.83638 0
M  V30 3292 H 336.373 -0.957452 -4.78209 0
M  V30 3293 H 335.378 -3.23736 -4.44382 0
M  V30 3294 H 336.603 -3.93809 -5.53255 0
M  V30 3295 H 334.549 -1.8293 -6.29978 0
M  V30 3296 H 334.466 -3.51519 -6.69306 0
M  V30 3297 H 335.734 -2.53774 -7.37034 0
M  V30 3298 N 339.963 1.05934 -1.16686 0
M  V30 3299 C 340.926 2.11669 -0.879144 0
M  V30 3300 C 341.926 1.60294 0.127445 0
M  V30 3301 O 343.116 1.7389 -0.103865 0
M  V30 3302 C 340.248 3.39438 -0.315425 0
M  V30 3303 H 341.441 2.38626 -1.81653 0
M  V30 3304 H 338.994 1.22058 -0.976299 0
M  V30 3305 H 339.729 3.18132 0.629468 0
M  V30 3306 H 339.514 3.78034 -1.04079 0
M  V30 3307 H 341.004 4.17391 -0.132189 0
M  V30 3308 N 341.441 0.965919 1.2453 0
M  V30 3309 C 342.671 0.643451 1.96324 0
M  V30 3310 C 343.079 -0.790927 1.71875 0
M  V30 3311 O 342.422 -1.54208 0.998273 0
M  V30 3312 C 342.484 0.836078 3.49643 0
M  V30 3313 C 342.148 2.24975 3.97788 0
M  V30 3314 C 343.145 3.22735 4.07601 0
M  V30 3315 C 340.83 2.57697 4.31158 0
M  V30 3316 C 342.824 4.51303 4.50116 0
M  V30 3317 C 340.511 3.86492 4.73357 0
M  V30 3318 C 341.509 4.83107 4.828 0
M  V30 3319 O 341.197 6.09605 5.24058 0
M  V30 3320 H 340.929 0.239223 0.632257 0
M  V30 3321 H 343.483 1.29587 1.59362 0
M  V30 3322 H 341.713 0.12649 3.86493 0
M  V30 3323 H 343.402 0.512965 4.02646 0
M  V30 3324 H 344.168 2.98783 3.82039 0
M  V30 3325 H 340.047 1.83216 4.23028 0
M  V30 3326 H 343.591 5.26716 4.57401 0
M  V30 3327 H 339.488 4.10245 4.98366 0
M  V30 3328 H 340.256 6.13146 5.42213 0
M  V30 3329 N 342.919 -1.39368 0.735821 0
M  V30 3330 C 344.167 -2.00101 0.283562 0
M  V30 3331 C 344.488 -1.5868 -1.13338 0
M  V30 3332 O 343.758 -0.835423 -1.77193 0
M  V30 3333 H 342.338 -0.740024 0.101851 0
M  V30 3334 H 345 -1.70404 0.945962 0
M  V30 3335 H 344.096 -3.10323 0.332604 0
M  V30 3336 N 344.397 -0.483516 -1.5 0
M  V30 3337 C 345.327 0.293829 -2.31644 0
M  V30 3338 C 346.308 0.978864 -1.39112 0
M  V30 3339 O 347.493 0.973644 -1.68029 0
M  V30 3340 C 344.623 1.36897 -3.19181 0
M  V30 3341 C 343.577 0.804833 -4.20365 0
M  V30 3342 C 342.903 1.9792 -4.96721 0
M  V30 3343 C 344.203 -0.192313 -5.21946 0
M  V30 3344 H 345.897 -0.387616 -2.9688 0
M  V30 3345 H 343.443 -0.187856 -1.42769 0
M  V30 3346 H 345.396 1.92037 -3.751 0
M  V30 3347 H 344.12 2.07936 -2.51853 0
M  V30 3348 H 342.779 0.275319 -3.65565 0
M  V30 3349 H 342.427 2.67686 -4.25856 0
M  V30 3350 H 342.127 1.60789 -5.65173 0
M  V30 3351 H 343.651 2.53526 -5.55479 0
M  V30 3352 H 345.065 0.270333 -5.72662 0
M  V30 3353 H 343.462 -0.478543 -5.98189 0
M  V30 3354 H 344.532 -1.11409 -4.71928 0
M  V30 3355 N 345.875 1.56104 -0.216619 0
M  V30 3356 C 347.1 2.0301 0.424462 0
M  V30 3357 C 347.525 1.0955 1.52907 0
M  V30 3358 O 346.883 0.0827914 1.81111 0
M  V30 3359 C 346.931 3.4819 0.937883 0
M  V30 3360 O 346.035 3.57865 2.04955 0
M  V30 3361 H 345.376 0.656925 0.0966755 0
M  V30 3362 H 347.906 2.01859 -0.33381 0
M  V30 3363 H 347.916 3.88413 1.24897 0
M  V30 3364 H 346.591 4.15699 0.129387 0
M  V30 3365 H 345.168 3.29527 1.74546 0
M  V30 3366 N 347.353 -0.0568162 1.57498 0
M  V30 3367 C 348.599 -0.75422 1.88253 0
M  V30 3368 C 348.932 -1.76461 0.810865 0
M  V30 3369 O 348.207 -1.93691 -0.177259 0
M  V30 3370 C 348.49 -1.44878 3.2967 0
M  V30 3371 C 348.343 -0.453789 4.47505 0
M  V30 3372 C 349.662 -2.38994 3.69554 0
M  V30 3373 H 346.781 -0.272724 0.684683 0
M  V30 3374 H 349.423 -0.0172113 1.89992 0
M  V30 3375 H 347.573 -2.077 3.28318 0
M  V30 3376 H 349.245 0.170371 4.60985 0
M  V30 3377 H 347.488 0.229552 4.33192 0
M  V30 3378 H 348.159 -0.977699 5.43273 0
M  V30 3379 H 350.635 -1.86239 3.72095 0
M  V30 3380 H 349.511 -2.84587 4.69363 0
M  V30 3381 H 349.772 -3.24461 3.00296 0
M  V30 3382 N 348.832 -1.54138 -0.328536 0
M  V30 3383 C 350.109 -1.62749 -1.08499 0
M  V30 3384 C 350.489 -0.458198 -2.06067 0
M  V30 3385 O 349.837 0.548046 -2.2183 0
M  V30 3386 C 350.047 -2.99519 -1.79135 0
M  V30 3387 C 351.395 -3.55394 -2.32337 0
M  V30 3388 O 352.419 -3.01792 -1.89209 0
M  V30 3389 O 351.278 -4.49186 -3.11279 0
M  V30 3390 H 348.372 -0.65886 -0.499832 0
M  V30 3391 H 350.918 -1.66484 -0.328826 0
M  V30 3392 H 349.69 -3.76061 -1.08139 0
M  V30 3393 H 349.313 -2.99441 -2.61574 0
M  V30 3394 N 350.31 0.590341 -1.46126 0
M  V30 3395 C 351.535 1.37991 -1.54833 0
M  V30 3396 C 351.96 1.87163 -0.187506 0
M  V30 3397 O 351.318 1.61133 0.831008 0
M  V30 3398 C 351.366 2.54867 -2.55098 0
M  V30 3399 O 350.47 3.56061 -2.08073 0
M  V30 3400 H 349.811 0.411265 -0.521303 0
M  V30 3401 H 352.341 0.716819 -1.91632 0
M  V30 3402 H 352.351 3.01886 -2.74461 0
M  V30 3403 H 351.026 2.18429 -3.53923 0
M  V30 3404 H 349.603 3.15574 -1.98664 0
M  V30 3405 N 351.788 1.33704 0.83433 0
M  V30 3406 C 353.016 1.28467 1.62185 0
M  V30 3407 C 353.431 -0.143526 1.88254 0
M  V30 3408 O 352.788 -1.08709 1.4659 0
M  V30 3409 C 352.839 2.06174 2.96942 0
M  V30 3410 O 352.56 3.43422 2.72016 0
M  V30 3411 C 354.061 2.08201 3.91366 0
M  V30 3412 H 351.281 0.4424 0.504503 0
M  V30 3413 H 353.825 1.76145 1.03891 0
M  V30 3414 H 351.98 1.62167 3.51825 0
M  V30 3415 H 352.394 3.83453 3.57861 0
M  V30 3416 H 353.868 2.67017 4.83121 0
M  V30 3417 H 354.345 1.07343 4.2588 0
M  V30 3418 H 354.951 2.52246 3.42421 0
M  V30 3419 N 353.266 -1.05314 1.17247 0
M  V30 3420 C 354.513 -1.78293 0.960091 0
M  V30 3421 C 354.841 -1.87658 -0.51136 0
M  V30 3422 O 354.096 -1.3718 -1.39571 0
M  V30 3423 C 354.395 -3.2229 1.54479 0
M  V30 3424 C 354.061 -3.32987 3.04024 0
M  V30 3425 C 352.723 -3.35613 3.44844 0
M  V30 3426 C 355.075 -3.34102 4.00031 0
M  V30 3427 C 352.403 -3.36982 4.8027 0
M  V30 3428 C 354.755 -3.3701 5.35357 0
M  V30 3429 C 353.419 -3.37923 5.75642 0
M  V30 3430 H 352.689 -0.652422 0.351322 0
M  V30 3431 H 355.336 -1.23782 1.46117 0
M  V30 3432 H 353.641 -3.7972 0.965391 0
M  V30 3433 H 355.338 -3.77376 1.35603 0
M  V30 3434 H 351.928 -3.31655 2.71483 0
M  V30 3435 H 356.112 -3.31276 3.69554 0
M  V30 3436 H 351.368 -3.35999 5.10798 0
M  V30 3437 H 355.542 -3.36822 6.09528 0
M  V30 3438 H 353.169 -3.38738 6.80559 0
M  V30 3439 N 354.744 -0.972509 -1.24016 0
M  V30 3440 C 355.992 -0.635776 -1.91839 0
M  V30 3441 C 356.313 0.832312 -1.76345 0
M  V30 3442 O 355.583 1.5946 -1.13795 0
M  V30 3443 H 354.163 -0.232157 -0.710009 0
M  V30 3444 H 356.825 -1.23462 -1.50809 0
M  V30 3445 H 355.921 -0.880545 -2.99421 0
M  V30 3446 N 356.222 1.38976 -0.743202 0
M  V30 3447 C 357.185 2.28901 -0.117014 0
M  V30 3448 C 358.185 1.46698 0.658503 0
M  V30 3449 O 359.375 1.67274 0.486305 0
M  V30 3450 C 356.507 3.30309 0.84315 0
M  V30 3451 H 357.7 2.8578 -0.909373 0
M  V30 3452 H 355.253 1.47761 -0.509547 0
M  V30 3453 H 355.988 2.785 1.66157 0
M  V30 3454 H 355.773 3.91029 0.289594 0
M  V30 3455 H 357.263 3.97577 1.2776 0
M  V30 3456 N 357.7 0.491464 1.49741 0
M  V30 3457 C 358.928 -0.0535151 2.06831 0
M  V30 3458 C 359.343 -1.31683 1.35296 0
M  V30 3459 O 358.7 -1.77402 0.42836 0
M  V30 3460 C 358.751 -0.320835 3.60073 0
M  V30 3461 O 358.472 0.892394 4.28915 0
M  V30 3462 C 359.973 -0.910519 4.33848 0
M  V30 3463 H 357.193 0.0161909 0.670805 0
M  V30 3464 H 359.737 0.68609 1.92647 0
M  V30 3465 H 357.892 -1.0104 3.73991 0
M  V30 3466 H 358.306 0.649401 5.20464 0
M  V30 3467 H 359.78 -1.04721 5.41976 0
M  V30 3468 H 360.257 -1.90589 3.95692 0
M  V30 3469 H 360.863 -0.258712 4.24512 0
M  V30 3470 N 359.178 -1.55987 0.224894 0
M  V30 3471 C 360.406 -2.02784 -0.410665 0
M  V30 3472 C 360.821 -1.10464 -1.53112 0
M  V30 3473 O 360.178 -0.114871 -1.82138 0
M  V30 3474 C 360.229 -3.49087 -0.939165 0
M  V30 3475 O 359.95 -4.37887 0.136614 0
M  V30 3476 C 361.451 -4.11543 -1.64763 0
M  V30 3477 H 358.671 -0.663484 -0.100148 0
M  V30 3478 H 361.215 -2.01614 0.342326 0
M  V30 3479 H 359.37 -3.50861 -1.64242 0
M  V30 3480 H 359.784 -5.23849 -0.261155 0
M  V30 3481 H 361.258 -5.15673 -1.96939 0
M  V30 3482 H 361.735 -3.56736 -2.56195 0
M  V30 3483 H 362.341 -4.13629 -0.989503 0
M  V30 3484 N 360.656 0.0484629 -1.57525 0
M  V30 3485 C 361.902 0.744226 -1.88651 0
M  V30 3486 C 362.235 1.76029 -0.820212 0
M  V30 3487 O 361.51 1.93782 0.166985 0
M  V30 3488 C 361.793 1.43128 -3.30434 0
M  V30 3489 C 361.646 0.43005 -4.47739 0
M  V30 3490 C 362.965 2.37031 -3.70816 0
M  V30 3491 H 360.084 0.269089 -0.68612 0
M  V30 3492 H 362.726 0.00713532 -1.89999 0
M  V30 3493 H 360.876 2.05956 -3.29415 0
M  V30 3494 H 362.548 -0.194816 -4.60888 0
M  V30 3495 H 360.791 -0.252522 -4.33064 0
M  V30 3496 H 361.462 0.948874 -5.43783 0
M  V30 3497 H 363.938 1.84263 -3.73077 0
M  V30 3498 H 362.814 2.82094 -4.70865 0
M  V30 3499 H 363.075 3.22864 -3.02012 0
M  V30 3500 N 362.134 1.5431 0.320358 0
M  V30 3501 C 363.382 1.72327 1.05583 0
M  V30 3502 C 363.703 0.50149 1.88441 0
M  V30 3503 O 362.973 -0.48448 1.89815 0
M  V30 3504 H 361.553 0.635387 0.3928 0
M  V30 3505 H 364.215 1.91621 0.356019 0
M  V30 3506 H 363.311 2.60426 1.72003 0
M  V30 3507 N 363.613 -0.582584 1.46437 0
M  V30 3508 C 364.861 -1.33814 1.51453 0
M  V30 3509 C 365.182 -1.94277 0.167792 0
M  V30 3510 O 364.452 -1.78566 -0.805677 0
M  V30 3511 H 363.032 -0.496838 0.557818 0
M  V30 3512 H 365.694 -0.682281 1.82568 0
M  V30 3513 H 364.79 -2.14479 2.26728 0
M  V30 3514 N 365.091 -1.34144 -0.827227 0
M  V30 3515 C 366.321 -1.29138 -1.61267 0
M  V30 3516 C 366.729 0.137597 -1.88699 0
M  V30 3517 O 366.072 1.09379 -1.47587 0
M  V30 3518 C 366.134 -2.0097 -2.9808 0
M  V30 3519 C 365.798 -3.50242 -2.93563 0
M  V30 3520 C 366.795 -4.4523 -2.68452 0
M  V30 3521 C 364.48 -3.92592 -3.13331 0
M  V30 3522 C 366.474 -5.80542 -2.63154 0
M  V30 3523 C 364.161 -5.28005 -3.07658 0
M  V30 3524 C 365.159 -6.21792 -2.82602 0
M  V30 3525 O 364.847 -7.54723 -2.76853 0
M  V30 3526 H 364.579 -0.445851 -0.508127 0
M  V30 3527 H 367.133 -1.77263 -1.03763 0
M  V30 3528 H 365.363 -1.47451 -3.57484 0
M  V30 3529 H 367.052 -1.89309 -3.5905 0
M  V30 3530 H 367.818 -4.13832 -2.52919 0
M  V30 3531 H 363.697 -3.19994 -3.31851 0
M  V30 3532 H 367.241 -6.53717 -2.43516 0
M  V30 3533 H 363.138 -5.59023 -3.22743 0
M  V30 3534 H 363.906 -7.64409 -2.92611 0
M  V30 3535 N 366.569 1.04691 -1.17803 0
M  V30 3536 C 367.815 1.78045 -0.970969 0
M  V30 3537 C 368.148 1.87686 0.498751 0
M  V30 3538 O 367.423 1.38035 1.37027 0
M  V30 3539 C 367.706 3.2166 -1.61884 0
M  V30 3540 C 367.559 3.20001 -3.161 0
M  V30 3541 C 368.878 4.1962 -1.3269 0
M  V30 3542 H 365.997 0.64633 -0.354155 0
M  V30 3543 H 368.639 1.22333 -1.45378 0
M  V30 3544 H 366.789 3.69232 -1.20831 0
M  V30 3545 H 368.461 2.80467 -3.66246 0
M  V30 3546 H 366.704 2.58203 -3.48588 0
M  V30 3547 H 367.375 4.21386 -3.56564 0
M  V30 3548 H 369.851 3.80567 -1.68249 0
M  V30 3549 H 368.727 5.18339 -1.80599 0
M  V30 3550 H 368.988 4.414 -0.248622 0
M  V30 3551 N 368.047 0.979072 1.23499 0
M  V30 3552 C 368.979 0.476271 2.24197 0
M  V30 3553 C 369.992 -0.421166 1.57258 0
M  V30 3554 O 371.181 -0.225515 1.7707 0
M  V30 3555 C 368.281 -0.330503 3.37285 0
M  V30 3556 C 367.454 0.559744 4.33804 0
M  V30 3557 C 366.513 -0.192954 5.25846 0
M  V30 3558 O 365.539 0.416978 5.67671 0
M  V30 3559 N 366.741 -1.47932 5.61334 0
M  V30 3560 H 369.506 1.34211 2.67969 0
M  V30 3561 H 367.067 0.852189 1.37657 0
M  V30 3562 H 369.059 -0.842361 3.95836 0
M  V30 3563 H 367.629 -1.09734 2.92707 0
M  V30 3564 H 366.849 1.25245 3.73775 0
M  V30 3565 H 368.137 1.1665 4.95248 0
M  V30 3566 H 367.535 -1.9964 5.29302 0
M  V30 3567 H 366.092 -1.93664 6.22364 0
M  V30 3568 N 369.525 -1.3858 0.750561 0
M  V30 3569 C 370.771 -2.00481 0.305825 0
M  V30 3570 C 371.104 -1.5944 -1.10872 0
M  V30 3571 O 370.379 -0.83052 -1.75877 0
M  V30 3572 C 370.662 -3.5758 0.425287 0
M  V30 3573 C 370.515 -4.08594 1.88072 0
M  V30 3574 C 371.834 -4.39719 -0.183122 0
M  V30 3575 H 368.953 -0.728348 0.112598 0
M  V30 3576 H 371.595 -1.64566 0.949638 0
M  V30 3577 H 369.745 -3.88306 -0.122828 0
M  V30 3578 H 371.417 -3.88523 2.48691 0
M  V30 3579 H 369.66 -3.61574 2.39681 0
M  V30 3580 H 370.331 -5.177 1.91548 0
M  V30 3581 H 372.807 -4.15128 0.284303 0
M  V30 3582 H 371.683 -5.48856 -0.0692757 0
M  V30 3583 H 371.944 -4.23434 -1.27106 0
M  V30 3584 N 371.003 -0.499398 -1.49478 0
M  V30 3585 C 371.933 0.269244 -2.31943 0
M  V30 3586 C 372.914 0.964054 -1.40143 0
M  V30 3587 O 374.099 0.955767 -1.69052 0
M  V30 3588 C 371.229 1.33504 -3.20615 0
M  V30 3589 C 370.183 0.760202 -4.21195 0
M  V30 3590 C 369.509 1.9264 -4.98792 0
M  V30 3591 C 370.809 -0.247661 -5.21712 0
M  V30 3592 H 372.503 -0.419082 -2.96452 0
M  V30 3593 H 370.049 -0.202988 -1.42562 0
M  V30 3594 H 372.002 1.88048 -3.77115 0
M  V30 3595 H 370.726 2.05253 -2.54045 0
M  V30 3596 H 369.385 0.23653 -3.65836 0
M  V30 3597 H 369.033 2.63154 -4.28671 0
M  V30 3598 H 368.733 1.54785 -5.66847 0
M  V30 3599 H 370.257 2.4762 -5.58137 0
M  V30 3600 H 371.671 0.209579 -5.72917 0
M  V30 3601 H 370.068 -0.541962 -5.97648 0
M  V30 3602 H 371.138 -1.16409 -4.7072 0
M  V30 3603 N 372.481 1.55866 -0.233164 0
M  V30 3604 C 373.758 1.90471 0.444988 0
M  V30 3605 C 374.138 1.15209 1.7689 0
M  V30 3606 O 373.486 0.265119 2.26957 0
M  V30 3607 C 373.696 3.4333 0.626559 0
M  V30 3608 C 375.044 4.14319 0.92871 0
M  V30 3609 O 376.068 3.48993 0.712926 0
M  V30 3610 O 374.927 5.29846 1.33887 0
M  V30 3611 H 372.021 0.792347 0.236885 0
M  V30 3612 H 374.567 1.67437 -0.276211 0
M  V30 3613 H 373.339 3.90095 -0.306822 0
M  V30 3614 H 372.962 3.72181 1.39881 0
M  V30 3615 N 373.959 -0.0401083 1.57549 0
M  V30 3616 C 375.208 -0.732108 1.87944 0
M  V30 3617 C 375.521 -1.77107 0.830206 0
M  V30 3618 O 376.727 -2.51488 1.02302 0
M  V30 3619 C 375.183 -1.35315 3.33494 0
M  V30 3620 C 374.791 -0.351105 4.46622 0
M  V30 3621 C 376.535 -2.02566 3.73051 0
M  V30 3622 C 374.442 -0.979859 5.83226 0
M  V30 3623 H 373.372 -0.277188 0.701201 0
M  V30 3624 H 376.023 0.0138501 1.83495 0
M  V30 3625 H 374.405 -2.14844 3.32653 0
M  V30 3626 H 375.579 0.416674 4.58912 0
M  V30 3627 H 373.894 0.218708 4.15825 0
M  V30 3628 H 376.491 -2.50441 4.72423 0
M  V30 3629 H 376.834 -2.83904 3.04474 0
M  V30 3630 H 377.367 -1.29827 3.76018 0
M  V30 3631 H 374.106 -0.206135 6.55176 0
M  V30 3632 H 373.626 -1.71774 5.74677 0
M  V30 3633 H 375.305 -1.49046 6.29599 0
M  V30 3634 N 375.437 -1.54477 -0.31217 0
M  V30 3635 C 376.714 -1.63891 -1.06767 0
M  V30 3636 C 377.094 -0.480028 -2.0557 0
M  V30 3637 O 376.442 0.524487 -2.22399 0
M  V30 3638 C 376.652 -3.01402 -1.75948 0
M  V30 3639 C 378 -3.57838 -2.28554 0
M  V30 3640 O 379.024 -3.03782 -1.85998 0
M  V30 3641 O 377.883 -4.52462 -3.06497 0
M  V30 3642 H 374.977 -0.664125 -0.492816 0
M  V30 3643 H 377.523 -1.66823 -0.311149 0
M  V30 3644 H 376.295 -3.77187 -1.04144 0
M  V30 3645 H 375.918 -3.02199 -2.58383 0
M  V30 3646 N 376.915 0.57481 -1.46744 0
M  V30 3647 C 378.143 1.35856 -1.56047 0
M  V30 3648 C 378.558 1.87691 -0.204365 0
M  V30 3649 O 377.915 1.64049 0.79963 0
M  V30 3650 C 377.966 2.54066 -2.57163 0
M  V30 3651 O 377.687 2.04377 -3.87507 0
M  V30 3652 C 379.188 3.46514 -2.76483 0
M  V30 3653 H 376.408 0.414754 -0.527466 0
M  V30 3654 H 378.952 0.698035 -1.92218 0
M  V30 3655 H 377.107 3.16092 -2.23974 0
M  V30 3656 H 377.521 2.81419 -4.4261 0
M  V30 3657 H 378.995 4.25919 -3.51137 0
M  V30 3658 H 379.472 3.98951 -1.83671 0
M  V30 3659 H 380.078 2.90318 -3.10799 0
M  V30 3660 N 378.394 1.34581 0.820102 0
M  V30 3661 C 379.643 1.26437 1.57151 0
M  V30 3662 C 379.956 -0.163111 1.94919 0
M  V30 3663 O 381.162 -0.366722 2.69012 0
M  V30 3664 C 379.618 2.21658 2.83541 0
M  V30 3665 C 379.226 3.69679 2.53065 0
M  V30 3666 C 380.97 2.22428 3.61561 0
M  V30 3667 C 378.877 4.56761 3.75664 0
M  V30 3668 H 377.807 0.469707 0.589823 0
M  V30 3669 H 380.458 1.59763 0.902656 0
M  V30 3670 H 378.84 1.81287 3.52067 0
M  V30 3671 H 380.014 4.18605 1.92631 0
M  V30 3672 H 378.329 3.71384 1.88316 0
M  V30 3673 H 380.926 2.8471 4.52597 0
M  V30 3674 H 381.269 1.22434 3.97889 0
M  V30 3675 H 381.802 2.61259 2.99981 0
M  V30 3676 H 378.541 5.57702 3.44454 0
M  V30 3677 H 378.061 4.12568 4.35371 0
M  V30 3678 H 379.74 4.71509 4.43044 0
M  V30 3679 N 379.872 -1.04064 1.18357 0
M  V30 3680 C 381.149 -1.74252 0.888581 0
M  V30 3681 C 381.529 -2.02138 -0.60856 0
M  V30 3682 O 380.877 -1.66656 -1.56327 0
M  V30 3683 C 381.087 -3.0277 1.73584 0
M  V30 3684 C 382.435 -3.76506 1.96286 0
M  V30 3685 O 383.459 -3.12668 1.70637 0
M  V30 3686 O 382.318 -4.91243 2.39464 0
M  V30 3687 H 379.412 -0.758271 0.330082 0
M  V30 3688 H 381.958 -1.1013 1.2911 0
M  V30 3689 H 380.73 -2.78299 2.75073 0
M  V30 3690 H 380.353 -3.74631 1.33183 0
M  V30 3691 N 381.35 -0.985608 -1.22978 0
M  V30 3692 C 382.627 -0.573599 -1.87001 0
M  V30 3693 C 383.007 0.949213 -1.88555 0
M  V30 3694 O 382.355 1.82811 -1.37086 0
M  V30 3695 C 382.565 -1.18564 -3.28243 0
M  V30 3696 C 383.913 -1.28163 -4.04796 0
M  V30 3697 O 384.937 -1.13949 -3.37482 0
M  V30 3698 O 383.796 -1.50832 -5.25273 0
M  V30 3699 H 380.89 -0.193868 -0.803955 0
M  V30 3700 H 383.436 -1.08102 -1.30813 0
M  V30 3701 H 382.208 -2.22758 -3.21706 0
M  V30 3702 H 381.831 -0.663363 -3.92027 0
M  V30 3703 N 382.828 1.3818 -0.7579 0
M  V30 3704 C 384.074 2.00316 -0.316453 0
M  V30 3705 C 384.407 1.60026 1.10025 0
M  V30 3706 O 383.682 0.839835 1.75434 0
M  V30 3707 C 383.965 3.57349 -0.444245 0
M  V30 3708 C 383.818 4.07591 -1.90236 0
M  V30 3709 C 385.137 4.3981 0.1598 0
M  V30 3710 H 382.256 0.727741 -0.116459 0
M  V30 3711 H 384.898 1.6406 -0.958352 0
M  V30 3712 H 383.048 3.88365 0.102233 0
M  V30 3713 H 384.72 3.87199 -2.50748 0
M  V30 3714 H 382.963 3.60297 -2.41595 0
M  V30 3715 H 383.634 5.16677 -1.94291 0
M  V30 3716 H 386.11 4.14971 -0.306314 0
M  V30 3717 H 384.986 5.48885 0.0401675 0
M  V30 3718 H 385.247 4.24102 1.24859 0
M  V30 3719 N 384.306 0.507319 1.49211 0
M  V30 3720 C 385.534 -0.0315749 2.06876 0
M  V30 3721 C 385.949 -1.30241 1.36685 0
M  V30 3722 O 385.306 -1.76937 0.447152 0
M  V30 3723 C 385.357 -0.282627 3.60393 0
M  V30 3724 O 385.078 0.937835 4.27944 0
M  V30 3725 C 386.579 -0.864453 4.3479 0
M  V30 3726 H 383.799 0.0233048 0.670595 0
M  V30 3727 H 386.343 0.706484 1.91909 0
M  V30 3728 H 384.498 -0.97068 3.75042 0
M  V30 3729 H 384.912 0.704567 5.19746 0
M  V30 3730 H 386.386 -0.989664 5.43056 0
M  V30 3731 H 386.863 -1.86382 3.97692 0
M  V30 3732 H 387.469 -0.213672 4.24763 0
M  V30 3733 N 385.784 -1.5574 0.241426 0
M  V30 3734 C 387.014 -2.02913 -0.38857 0
M  V30 3735 C 387.422 -1.12014 -1.52478 0
M  V30 3736 O 386.765 -0.125903 -1.83268 0
M  V30 3737 C 386.827 -3.4636 -0.963075 0
M  V30 3738 C 386.491 -4.56982 0.0401916 0
M  V30 3739 C 387.488 -5.12941 0.847766 0
M  V30 3740 C 385.173 -5.0203 0.164699 0
M  V30 3741 C 387.167 -6.12437 1.76636 0
M  V30 3742 C 384.854 -6.01358 1.0868 0
M  V30 3743 C 385.852 -6.5644 1.88616 0
M  V30 3744 O 385.54 -7.53831 2.79273 0
M  V30 3745 H 385.272 -0.668983 -0.0971452 0
M  V30 3746 H 387.826 -2.02198 0.361248 0
M  V30 3747 H 386.056 -3.44206 -1.76235 0
M  V30 3748 H 387.745 -3.77065 -1.50257 0
M  V30 3749 H 388.511 -4.78974 0.762133 0
M  V30 3750 H 384.39 -4.58824 -0.447411 0
M  V30 3751 H 387.934 -6.55355 2.39071 0
M  V30 3752 H 383.831 -6.34746 1.17338 0
M  V30 3753 H 384.599 -7.71428 2.73572 0
M  V30 3754 N 387.262 0.0317525 -1.57568 0
M  V30 3755 C 388.492 0.733884 -1.93126 0
M  V30 3756 C 388.9 1.69563 -0.839352 0
M  V30 3757 O 388.243 1.82681 0.193175 0
M  V30 3758 C 388.305 1.54798 -3.24465 0
M  V30 3759 C 387.969 0.751304 -4.50782 0
M  V30 3760 C 388.966 0.0527632 -5.19873 0
M  V30 3761 C 386.651 0.706639 -4.97305 0
M  V30 3762 C 388.645 -0.679774 -6.33765 0
M  V30 3763 C 386.332 -0.0296449 -6.11093 0
M  V30 3764 C 387.33 -0.721614 -6.79177 0
M  V30 3765 O 387.018 -1.44595 -7.90789 0
M  V30 3766 H 386.75 0.211459 -0.642076 0
M  V30 3767 H 389.304 -0.00585615 -2.05399 0
M  V30 3768 H 387.534 2.33147 -3.08512 0
M  V30 3769 H 389.223 2.13247 -3.4537 0
M  V30 3770 H 389.989 0.0783188 -4.84937 0
M  V30 3771 H 385.868 1.23474 -4.44157 0
M  V30 3772 H 389.412 -1.22042 -6.86842 0
M  V30 3773 H 385.309 -0.0571331 -6.45475 0
M  V30 3774 H 386.077 -1.35935 -8.07133 0
M  V30 3775 N 388.74 1.54641 0.303973 0
M  V30 3776 C 389.988 1.73437 1.0375 0
M  V30 3777 C 390.309 0.521449 1.87899 0
M  V30 3778 O 389.579 -0.46432 1.90318 0
M  V30 3779 H 388.159 0.639518 0.386039 0
M  V30 3780 H 390.821 1.91988 0.335675 0
M  V30 3781 H 389.917 2.62235 1.69231 0
M  V30 3782 N 390.218 -0.567019 1.47046 0
M  V30 3783 C 391.148 -1.68482 1.61667 0
M  V30 3784 C 392.129 -1.6358 0.466418 0
M  V30 3785 O 393.314 -1.81354 0.694574 0
M  V30 3786 C 390.444 -3.07124 1.62148 0
M  V30 3787 C 389.398 -3.26867 2.76301 0
M  V30 3788 C 388.724 -4.66196 2.61849 0
M  V30 3789 C 390.024 -3.13186 4.17986 0
M  V30 3790 H 391.718 -1.56502 2.5524 0
M  V30 3791 H 389.264 -0.751486 1.22836 0
M  V30 3792 H 391.217 -3.8516 1.70968 0
M  V30 3793 H 389.941 -3.2004 0.651287 0
M  V30 3794 H 388.6 -2.51237 2.66975 0
M  V30 3795 H 388.248 -4.75898 1.62879 0
M  V30 3796 H 387.948 -4.80356 3.38425 0
M  V30 3797 H 389.472 -5.46379 2.72584 0
M  V30 3798 H 390.886 -3.81049 4.2834 0
M  V30 3799 H 389.283 -3.3886 4.95272 0
M  V30 3800 H 390.353 -2.10057 4.3704 0
M  V30 3801 N 391.696 -1.35014 -0.812953 0
M  V30 3802 C 392.944 -1.27678 -1.56661 0
M  V30 3803 C 393.265 0.150359 -1.94419 0
M  V30 3804 O 392.535 1.08532 -1.63088 0
M  V30 3805 H 391.115 -0.469602 -0.580933 0
M  V30 3806 H 393.777 -1.69043 -0.970076 0
M  V30 3807 H 392.873 -1.88833 -2.48492 0
M  V30 3808 N 393.175 1.03435 -1.18907 0
M  V30 3809 C 394.138 2.09756 -0.923844 0
M  V30 3810 C 395.138 1.60528 0.093416 0
M  V30 3811 O 396.328 1.73631 -0.140727 0
M  V30 3812 C 393.46 3.38692 -0.387354 0
M  V30 3813 H 394.653 2.34719 -1.86674 0
M  V30 3814 H 392.206 1.19959 -1.00197 0
M  V30 3815 H 392.941 3.19396 0.561845 0
M  V30 3816 H 392.726 3.75742 -1.12074 0
M  V30 3817 H 394.216 4.17016 -0.220694 0
M  V30 3818 N 394.653 0.992116 1.22453 0
M  V30 3819 C 395.878 0.685644 1.95739 0
M  V30 3820 C 396.303 -0.743 1.72804 0
M  V30 3821 O 395.661 -1.50778 1.00676 0
M  V30 3822 C 395.709 0.996293 3.46564 0
M  V30 3823 O 394.813 0.0945512 4.12292 0
M  V30 3824 H 394.154 0.256694 0.612376 0
M  V30 3825 H 396.684 1.32888 1.5557 0
M  V30 3826 H 396.694 0.93781 3.97076 0
M  V30 3827 H 395.369 2.03733 3.62582 0
M  V30 3828 H 393.946 0.208451 3.72317 0
M  V30 3829 N 396.131 -1.37776 0.765217 0
M  V30 3830 C 397.361 -2.03828 0.337277 0
M  V30 3831 C 397.769 -1.57841 -1.04321 0
M  V30 3832 O 397.112 -0.752043 -1.67601 0
M  V30 3833 C 397.174 -3.58292 0.294407 0
M  V30 3834 C 396.838 -4.27384 1.61838 0
M  V30 3835 C 397.835 -4.51956 2.56967 0
M  V30 3836 C 395.52 -4.65345 1.89102 0
M  V30 3837 C 397.514 -5.13536 3.77571 0
M  V30 3838 C 395.201 -5.26647 3.09978 0
M  V30 3839 C 396.199 -5.50679 4.04032 0
M  V30 3840 O 395.887 -6.10702 5.2278 0
M  V30 3841 H 395.619 -0.661292 0.140248 0
M  V30 3842 H 398.173 -1.77222 1.03834 0
M  V30 3843 H 396.403 -3.83918 -0.462983 0
M  V30 3844 H 398.092 -4.05763 -0.105581 0
M  V30 3845 H 398.858 -4.23048 2.37183 0
M  V30 3846 H 394.737 -4.45978 1.16725 0
M  V30 3847 H 398.281 -5.3221 4.50997 0
M  V30 3848 H 394.178 -5.54979 3.29649 0
M  V30 3849 H 394.946 -6.29183 5.23517 0
M  V30 3850 N 397.609 -0.515225 -1.4894 0
M  V30 3851 C 398.886 0.0879088 -1.95402 0
M  V30 3852 C 399.266 1.52745 -1.45712 0
M  V30 3853 O 398.614 2.18238 -0.677093 0
M  V30 3854 C 398.824 -0.0141055 -3.48997 0
M  V30 3855 C 400.172 0.152646 -4.24326 0
M  V30 3856 O 401.196 0.0604025 -3.56149 0
M  V30 3857 O 400.055 0.34384 -5.45417 0
M  V30 3858 H 397.149 0.0874636 -0.822362 0
M  V30 3859 H 399.695 -0.578775 -1.59525 0
M  V30 3860 H 398.467 -1.01745 -3.77841 0
M  V30 3861 H 398.09 0.692091 -3.9153 0
M  V30 3862 N 399.087 1.5561 -0.249682 0
M  V30 3863 C 400.017 2.24477 0.642826 0
M  V30 3864 C 400.998 1.22601 1.17911 0
M  V30 3865 O 402.183 1.5126 1.21795 0
M  V30 3866 C 399.313 2.94638 1.83863 0
M  V30 3867 C 398.267 4.03227 1.435 0
M  V30 3868 C 397.593 4.60828 2.71186 0
M  V30 3869 C 398.893 5.18796 0.604002 0
M  V30 3870 H 400.587 2.99321 0.0685625 0
M  V30 3871 H 398.133 1.43965 0.0315363 0
M  V30 3872 H 400.086 3.41517 2.46868 0
M  V30 3873 H 398.81 2.17287 2.43832 0
M  V30 3874 H 397.469 3.57121 0.828275 0
M  V30 3875 H 397.117 3.80174 3.29358 0
M  V30 3876 H 396.817 5.34132 2.44901 0
M  V30 3877 H 398.341 5.10442 3.35084 0
M  V30 3878 H 399.755 5.61883 1.13842 0
M  V30 3879 H 398.152 5.98506 0.437097 0
M  V30 3880 H 399.222 4.83384 -0.383147 0
M  V30 3881 N 400.565 -0.0233959 1.57583 0
M  V30 3882 C 401.813 -0.711654 1.89156 0
M  V30 3883 C 402.134 -1.75591 0.848096 0
M  V30 3884 O 401.404 -1.95547 -0.117566 0
M  V30 3885 H 399.984 -0.265835 0.698098 0
M  V30 3886 H 402.646 0.0119948 1.94896 0
M  V30 3887 H 401.742 -1.19766 2.88206 0
M  V30 3888 N 402.043 -1.548 -0.295768 0
M  V30 3889 C 403.291 -1.73985 -1.02828 0
M  V30 3890 C 403.612 -0.531406 -1.87619 0
M  V30 3891 O 402.882 0.454221 -1.90561 0
M  V30 3892 H 401.462 -0.641556 -0.382642 0
M  V30 3893 H 404.124 -1.92163 -0.325489 0
M  V30 3894 H 403.22 -2.63129 -1.67838 0
M  V30 3895 N 403.521 0.559213 -1.47345 0
M  V30 3896 C 404.769 1.31388 -1.53563 0
M  V30 3897 C 405.09 1.93985 -0.198678 0
M  V30 3898 O 404.36 1.79825 0.777167 0
M  V30 3899 H 402.94 0.487901 -0.565652 0
M  V30 3900 H 405.602 0.65315 -1.8363 0
M  V30 3901 H 404.698 2.10844 -2.30111 0
M  V30 3902 N 404.999 1.35443 0.805782 0
M  V30 3903 C 405.962 1.28301 1.89925 0
M  V30 3904 C 406.962 0.194285 1.59622 0
M  V30 3905 O 408.152 0.448036 1.6834 0
M  V30 3906 C 405.284 0.984997 3.2636 0
M  V30 3907 H 406.477 2.2553 1.97677 0
M  V30 3908 H 404.03 1.19979 1.00173 0
M  V30 3909 H 404.765 0.016603 3.24296 0
M  V30 3910 H 404.55 1.77269 3.4974 0
M  V30 3911 H 406.04 0.960651 4.064 0
M  V30 3912 N 406.477 -1.02803 1.19454 0
M  V30 3913 C 407.702 -1.80378 1.02364 0
M  V30 3914 C 408.127 -1.83282 -0.423007 0
M  V30 3915 O 407.485 -1.25945 -1.30413 0
M  V30 3916 C 407.533 -3.23248 1.59821 0
M  V30 3917 O 406.637 -4.04 0.828105 0
M  V30 3918 H 405.978 -0.556799 0.361761 0
M  V30 3919 H 408.508 -1.29385 1.58495 0
M  V30 3920 H 408.518 -3.73994 1.63073 0
M  V30 3921 H 407.193 -3.2045 2.65113 0
M  V30 3922 H 405.77 -3.62635 0.86891 0
M  V30 3923 N 407.956 -0.998596 -1.21925 0
M  V30 3924 C 409.205 -0.673085 -1.90138 0
M  V30 3925 C 409.518 0.79895 -1.78539 0
M  V30 3926 O 410.724 1.23628 -2.4172 0
M  V30 3927 C 409.18 -1.15339 -3.40918 0
M  V30 3928 C 408.788 -2.65106 -3.61141 0
M  V30 3929 C 410.532 -0.902476 -4.14796 0
M  V30 3930 C 408.439 -3.0671 -5.05651 0
M  V30 3931 H 407.369 -0.248057 -0.712028 0
M  V30 3932 H 410.02 -1.20891 -1.38049 0
M  V30 3933 H 408.402 -0.545658 -3.92223 0
M  V30 3934 H 409.576 -3.31274 -3.20304 0
M  V30 3935 H 407.891 -2.88142 -3.00605 0
M  V30 3936 H 410.488 -1.18895 -5.21314 0
M  V30 3937 H 410.831 0.161349 -4.15987 0
M  V30 3938 H 411.364 -1.47269 -3.69536 0
M  V30 3939 H 408.103 -4.12292 -5.09603 0
M  V30 3940 H 407.623 -2.45249 -5.47369 0
M  V30 3941 H 409.302 -2.9833 -5.74115 0
M  V30 3942 N 409.434 1.37368 -0.772513 0
M  V30 3943 C 410.68 1.99969 -0.337681 0
M  V30 3944 C 411.013 1.61184 1.08321 0
M  V30 3945 O 410.288 0.858395 1.74533 0
M  V30 3946 C 410.571 3.56858 -0.482121 0
M  V30 3947 C 410.424 4.0555 -1.94549 0
M  V30 3948 C 411.743 4.39955 0.113143 0
M  V30 3949 H 408.862 0.726464 -0.124171 0
M  V30 3950 H 411.504 1.63034 -0.975699 0
M  V30 3951 H 409.654 3.88452 0.0610361 0
M  V30 3952 H 411.326 3.84518 -2.54841 0
M  V30 3953 H 409.569 3.57715 -2.45403 0
M  V30 3954 H 410.24 5.14587 -1.9976 0
M  V30 3955 H 412.716 4.14623 -0.35031 0
M  V30 3956 H 411.592 5.48897 -0.0180514 0
M  V30 3957 H 411.853 4.25403 1.20354 0
M  V30 3958 N 410.912 0.523116 1.48665 0
M  V30 3959 C 412.16 -0.0134497 2.02096 0
M  V30 3960 C 412.481 -1.35418 1.40311 0
M  V30 3961 O 411.751 -1.87543 0.566074 0
M  V30 3962 H 410.331 -0.00795915 0.746958 0
M  V30 3963 H 412.993 0.685388 1.82451 0
M  V30 3964 H 412.089 -0.126849 3.11842 0
M  V30 3965 N 412.39 -1.55475 0.257931 0
M  V30 3966 C 413.638 -1.98813 -0.363009 0
M  V30 3967 C 413.959 -1.14757 -1.57657 0
M  V30 3968 O 413.229 -0.232956 -1.9451 0
M  V30 3969 H 411.809 -0.734308 -0.137113 0
M  V30 3970 H 414.471 -1.9156 0.359281 0
M  V30 3971 H 413.567 -3.04941 -0.664634 0
M  V30 3972 N 413.868 0.0150385 -1.57593 0
M  V30 3973 C 415.117 0.702115 -1.89085 0
M  V30 3974 C 415.43 1.75764 -0.858277 0
M  V30 3975 O 416.636 2.49829 -1.0629 0
M  V30 3976 C 415.092 1.29992 -3.35604 0
M  V30 3977 C 414.7 0.280007 -4.47124 0
M  V30 3978 C 416.444 1.96606 -3.76227 0
M  V30 3979 C 414.351 0.886949 -5.84711 0
M  V30 3980 H 413.281 0.265997 -0.705522 0
M  V30 3981 H 415.932 -0.0430408 -1.8345 0
M  V30 3982 H 414.314 2.09525 -3.36029 0
M  V30 3983 H 415.488 -0.489631 -4.58191 0
M  V30 3984 H 413.803 -0.284835 -4.15425 0
M  V30 3985 H 416.4 2.42893 -4.76347 0
M  V30 3986 H 416.743 2.79024 -3.08952 0
M  V30 3987 H 417.276 1.23828 -3.78036 0
M  V30 3988 H 414.015 0.101876 -6.55421 0
M  V30 3989 H 413.535 1.6261 -5.77337 0
M  V30 3990 H 415.214 1.39011 -6.3189 0
M  V30 3991 N 415.346 1.54954 0.287554 0
M  V30 3992 C 416.309 1.86076 1.33823 0
M  V30 3993 C 417.309 0.734414 1.43049 0
M  V30 3994 O 418.499 1.00266 1.42452 0
M  V30 3995 C 415.631 2.05305 2.72144 0
M  V30 3996 H 416.824 2.79984 1.07465 0
M  V30 3997 H 414.377 1.47223 0.524902 0
M  V30 3998 H 415.112 1.1373 3.03704 0
M  V30 3999 H 414.897 2.873 2.66836 0
M  V30 4000 H 416.387 2.30706 3.48087 0
M  V30 4001 N 416.824 -0.551391 1.4764 0
M  V30 4002 C 418.101 -1.31229 1.45046 0
M  V30 4003 C 418.481 -2.10563 0.150527 0
M  V30 4004 O 417.829 -2.11374 -0.867956 0
M  V30 4005 C 418.039 -2.21189 2.69956 0
M  V30 4006 C 419.387 -2.82021 3.1741 0
M  V30 4007 O 420.411 -2.31488 2.70724 0
M  V30 4008 O 419.27 -3.73885 3.98588 0
M  V30 4009 H 416.364 -0.591193 0.578291 0
M  V30 4010 H 418.91 -0.569813 1.59847 0
M  V30 4011 H 417.682 -1.62207 3.56096 0
M  V30 4012 H 417.305 -3.02722 2.57769 0
M  V30 4013 N 418.302 -1.35869 -0.798587 0
M  V30 4014 C 419.25 -1.29491 -1.93222 0
M  V30 4015 C 420.244 -0.18836 -1.6835 0
M  V30 4016 O 421.45 -0.354822 -1.76468 0
M  V30 4017 H 417.825 -0.402901 -0.63496 0
M  V30 4018 H 419.796 -2.25247 -1.9572 0
M  V30 4019 C 418.545 -1.09184 -3.30112 0
M  V30 4020 H 417.868 -1.93574 -3.49813 0
M  V30 4021 H 419.308 -1.08766 -4.09812 0
M  V30 4022 C 417.767 0.203959 -3.36282 0
M  V30 4023 O 418.297 1.19699 -3.83451 0
M  V30 4024 N 416.503 0.245488 -2.89561 0
M  V30 4025 H 416.05 -0.563223 -2.51367 0
M  V30 4026 H 416.008 1.11219 -2.94071 0
M  V30 4027 N 419.78 1.02168 -1.19998 0
M  V30 4028 C 421.057 1.72816 -0.916191 0
M  V30 4029 C 421.437 2.03081 0.576325 0
M  V30 4030 O 420.785 1.69122 1.53656 0
M  V30 4031 C 420.995 2.9997 -1.78378 0
M  V30 4032 C 422.343 3.73336 -2.02251 0
M  V30 4033 O 423.367 3.09914 -1.75589 0
M  V30 4034 O 422.226 4.87371 -2.47249 0
M  V30 4035 H 419.32 0.752924 -0.342103 0
M  V30 4036 H 421.866 1.08062 -1.30846 0
M  V30 4037 H 420.638 2.73888 -2.79466 0
M  V30 4038 H 420.261 3.72464 -1.39126 0
M  V30 4039 N 421.258 1.00505 1.21394 0
M  V30 4040 C 422.188 0.585684 2.26035 0
M  V30 4041 C 423.169 -0.393525 1.65485 0
M  V30 4042 O 424.354 -0.281497 1.92149 0
M  V30 4043 C 421.484 -0.0884283 3.47187 0
M  V30 4044 C 420.438 0.810567 4.20254 0
M  V30 4045 C 419.764 0.00286382 5.347 0
M  V30 4046 C 421.064 2.1132 4.77641 0
M  V30 4047 H 422.758 1.46039 2.61368 0
M  V30 4048 H 420.304 0.703648 1.25638 0
M  V30 4049 H 422.257 -0.393286 4.19561 0
M  V30 4050 H 420.981 -0.997766 3.10986 0
M  V30 4051 H 419.64 1.09925 3.49731 0
M  V30 4052 H 419.288 -0.907765 4.94741 0
M  V30 4053 H 418.988 0.601444 5.84514 0
M  V30 4054 H 420.512 -0.295808 6.09883 0
M  V30 4055 H 421.926 1.87148 5.41893 0
M  V30 4056 H 420.323 2.66164 5.37845 0
M  V30 4057 H 421.393 2.78393 3.9702 0
M  V30 4058 N 422.737 -1.36956 0.779787 0
M  V30 4059 C 424.148 -1.82094 0.412156 0
M  V30 4060 C 424.499 -1.64926 -1.06273 0
M  V30 4061 O 423.624 -1.16483 -1.82375 0
M  V30 4062 C 424.219 -3.3059 0.741319 0
M  V30 4063 C 422.778 -3.73974 0.426641 0
M  V30 4064 C 421.925 -2.59368 0.980987 0
M  V30 4065 H 424.876 -1.25314 0.973758 0
M  V30 4066 H 424.897 -3.80489 0.028887 0
M  V30 4067 H 424.409 -3.43054 1.81482 0
M  V30 4068 H 422.51 -3.67076 -0.639215 0
M  V30 4069 H 422.623 -4.69778 0.940515 0
M  V30 4070 H 420.987 -2.51463 0.404757 0
M  V30 4071 H 421.77 -2.74621 2.06005 0
M  V30 4072 N 424.215 -0.530993 -1.48385 0
M  V30 4073 C 425.163 0.244595 -2.3131 0
M  V30 4074 C 426.157 0.93451 -1.41291 0
M  V30 4075 O 427.363 0.85878 -1.58193 0
M  V30 4076 H 423.738 0.0977472 -0.74562 0
M  V30 4077 H 425.709 -0.474369 -2.94605 0
M  V30 4078 C 424.458 1.2779 -3.23365 0
M  V30 4079 H 423.781 0.756439 -3.92579 0
M  V30 4080 H 425.221 1.79198 -3.84271 0
M  V30 4081 C 423.68 2.31205 -2.45042 0
M  V30 4082 O 424.21 3.37661 -2.17596 0
M  V30 4083 N 422.416 2.04446 -2.0652 0
M  V30 4084 H 421.963 1.17891 -2.2904 0
M  V30 4085 H 421.921 2.73861 -1.54427 0
M  V30 4086 N 425.693 1.55336 -0.266172 0
M  V30 4087 C 426.918 2.04258 0.359661 0
M  V30 4088 C 427.343 1.14359 1.49344 0
M  V30 4089 O 426.701 0.140369 1.80756 0
M  V30 4090 C 426.749 3.50997 0.826635 0
M  V30 4091 O 425.853 3.64204 1.93466 0
M  V30 4092 H 425.194 0.659668 0.075727 0
M  V30 4093 H 427.724 2.00694 -0.39786 0
M  V30 4094 H 427.734 3.9219 1.12477 0
M  V30 4095 H 426.409 4.159 -0.00293032 0
M  V30 4096 H 424.986 3.34913 1.63974 0
M  V30 4097 N 427.171 -0.0066808 1.57599 0
M  V30 4098 C 428.448 -0.729586 1.81484 0
M  V30 4099 C 428.828 -1.92359 0.869558 0
M  V30 4100 O 428.176 -2.28348 -0.0832533 0
M  V30 4101 C 428.386 -1.1416 3.29801 0
M  V30 4102 C 429.734 -1.54823 3.95367 0
M  V30 4103 O 430.758 -1.23558 3.34084 0
M  V30 4104 O 429.617 -2.12937 5.03309 0
M  V30 4105 H 426.711 -0.354674 0.747085 0
M  V30 4106 H 429.257 0.0182609 1.6969 0
M  V30 4107 H 428.029 -0.290231 3.90222 0
M  V30 4108 H 427.652 -1.94876 3.46568 0
M  V30 4109 N 428.649 -1.55105 -0.279332 0
M  V30 4110 C 429.582 -1.82467 -1.37044 0
M  V30 4111 C 430.56 -0.677261 -1.47824 0
M  V30 4112 O 431.744 -0.919578 -1.64548 0
M  V30 4113 C 428.871 -1.98066 -2.7475 0
M  V30 4114 C 427.917 -3.20594 -2.81286 0
M  V30 4115 S 428.75 -4.78116 -2.41175 0
M  V30 4116 C 429.906 -4.9668 -3.80867 0
M  V30 4117 H 430.139 -2.74728 -1.1363 0
M  V30 4118 H 427.672 -1.46794 -0.478625 0
M  V30 4119 H 429.63 -2.07739 -3.54055 0
M  V30 4120 H 428.291 -1.06704 -2.9542 0
M  V30 4121 H 427.484 -3.28376 -3.82341 0
M  V30 4122 H 427.086 -3.09479 -2.09996 0
M  V30 4123 H 429.378 -4.82033 -4.76078 0
M  V30 4124 H 430.321 -5.98741 -3.78041 0
M  V30 4125 H 430.729 -4.24698 -3.71876 0
M  V30 4126 N 430.127 0.543554 -1.4793 0
M  V30 4127 C 431.373 1.30201 -1.55485 0
M  V30 4128 C 431.706 1.92925 -0.222201 0
M  V30 4129 O 430.981 1.78586 0.77053 0
M  V30 4130 C 431.264 2.40174 -2.68307 0
M  V30 4131 C 431.117 1.8223 -4.11233 0
M  V30 4132 C 432.436 3.42024 -2.76961 0
M  V30 4133 H 429.555 0.472036 -0.565996 0
M  V30 4134 H 432.197 0.606914 -1.80046 0
M  V30 4135 H 430.347 2.99463 -2.47495 0
M  V30 4136 H 432.019 1.27096 -4.43446 0
M  V30 4137 H 430.262 1.12832 -4.18869 0
M  V30 4138 H 430.933 2.61793 -4.85972 0
M  V30 4139 H 433.409 2.92672 -2.95774 0
M  V30 4140 H 432.285 4.16383 -3.57654 0
M  V30 4141 H 432.546 4.0173 -1.84568 0
M  V30 4142 N 431.605 1.3629 0.791371 0
M  V30 4143 C 432.568 1.30309 1.88553 0
M  V30 4144 C 433.568 0.211204 1.59407 0
M  V30 4145 O 434.758 0.465865 1.67855 0
M  V30 4146 C 431.89 1.01956 3.25297 0
M  V30 4147 H 433.083 2.27614 1.95273 0
M  V30 4148 H 430.636 1.21035 0.988953 0
M  V30 4149 H 431.371 0.050998 3.2426 0
M  V30 4150 H 431.156 1.80968 3.4784 0
M  V30 4151 H 432.646 1.0037 4.05359 0
M  V30 4152 N 433.083 -1.0153 1.20538 0
M  V30 4153 C 434.36 -1.72327 0.925343 0
M  V30 4154 C 434.74 -2.03383 -0.565547 0
M  V30 4155 O 434.088 -1.69934 -1.52757 0
M  V30 4156 C 434.298 -2.9902 1.79967 0
M  V30 4157 C 435.646 -3.72258 2.04228 0
M  V30 4158 O 436.67 -3.08979 1.77231 0
M  V30 4159 O 435.529 -4.86053 2.4983 0
M  V30 4160 H 432.623 -0.751099 0.346092 0
M  V30 4161 H 435.169 -1.07366 1.31417 0
M  V30 4162 H 433.941 -2.72402 2.80915 0
M  V30 4163 H 433.564 -3.71721 1.41099 0
M  V30 4164 N 434.561 -1.01147 -1.20859 0
M  V30 4165 C 435.491 -0.597663 -2.25722 0
M  V30 4166 C 436.472 0.384744 -1.65692 0
M  V30 4167 O 437.657 0.271303 -1.92296 0
M  V30 4168 C 434.787 0.0700149 -3.47229 0
M  V30 4169 C 433.741 -0.832843 -4.19819 0
M  V30 4170 C 433.067 -0.0312202 -5.34691 0
M  V30 4171 C 434.367 -2.1385 -4.76514 0
M  V30 4172 H 436.061 -1.47423 -2.60589 0
M  V30 4173 H 433.607 -0.710301 -1.25263 0
M  V30 4174 H 435.56 0.37103 -4.19763 0
M  V30 4175 H 434.284 0.981259 -3.11511 0
M  V30 4176 H 432.943 -1.11778 -3.49144 0
M  V30 4177 H 432.591 0.881515 -4.95215 0
M  V30 4178 H 432.291 -0.632434 -5.84187 0
M  V30 4179 H 433.815 0.26346 -6.10031 0
M  V30 4180 H 435.229 -1.9002 -5.40893 0
M  V30 4181 H 433.626 -2.69012 -5.36426 0
M  V30 4182 H 434.696 -2.80495 -3.95538 0
M  V30 4183 N 436.039 1.36541 -0.78704 0
M  V30 4184 C 437.287 1.98911 -0.357633 0
M  V30 4185 C 437.608 1.62778 1.07371 0
M  V30 4186 O 436.878 0.900612 1.73971 0
M  V30 4187 H 435.458 0.735734 -0.129246 0
M  V30 4188 H 438.12 1.66776 -1.00855 0
M  V30 4189 H 437.216 3.08874 -0.447549 0
M  V30 4190 N 437.518 0.538854 1.48102 0
M  V30 4191 C 438.764 0.00801365 2.02798 0
M  V30 4192 C 439.097 -1.3309 1.41424 0
M  V30 4193 O 438.372 -1.86169 0.563158 0
M  V30 4194 C 438.655 -0.104589 3.59948 0
M  V30 4195 C 438.508 1.26012 4.31788 0
M  V30 4196 C 439.827 -0.827055 4.32259 0
M  V30 4197 H 436.946 0.00438624 0.736987 0
M  V30 4198 H 439.588 0.6976 1.7673 0
M  V30 4199 H 437.738 -0.691893 3.82289 0
M  V30 4200 H 439.41 1.88922 4.2084 0
M  V30 4201 H 437.653 1.83968 3.92859 0
M  V30 4202 H 438.324 1.13424 5.40221 0
M  V30 4203 H 440.8 -0.328578 4.14801 0
M  V30 4204 H 439.676 -0.87476 5.41885 0
M  V30 4205 H 439.937 -1.87927 4.0017 0
M  V30 4206 N 438.996 -1.55193 0.274407 0
M  V30 4207 C 439.943 -2.225 -0.613374 0
M  V30 4208 C 440.913 -1.19823 -1.15029 0
M  V30 4209 O 442.098 -1.48362 -1.19973 0
M  V30 4210 C 439.238 -2.94927 -1.79199 0
M  V30 4211 C 438.351 -4.12322 -1.28899 0
M  V30 4212 C 437.486 -4.72394 -2.42934 0
M  V30 4213 C 436.525 -5.81984 -1.89634 0
M  V30 4214 N 435.662 -6.36123 -2.9714 0
M  V30 4215 H 440.502 -2.97982 -0.032756 0
M  V30 4216 H 438.039 -1.47099 -0.00440146 0
M  V30 4217 H 439.997 -3.35134 -2.48478 0
M  V30 4218 H 438.627 -2.2187 -2.34465 0
M  V30 4219 H 437.679 -3.7724 -0.489327 0
M  V30 4220 H 438.991 -4.91355 -0.858587 0
M  V30 4221 H 438.145 -5.15317 -3.20208 0
M  V30 4222 H 436.884 -3.92636 -2.8929 0
M  V30 4223 H 435.889 -5.38511 -1.1084 0
M  V30 4224 H 437.114 -6.6361 -1.44215 0
M  V30 4225 H 435.06 -5.59259 -3.42878 0
M  V30 4226 H 434.977 -7.10427 -2.58515 0
M  V30 4227 H 436.245 -6.83704 -3.74391 0
M  V30 4228 N 440.474 -0.00167713 -1.576 0
M  V30 4229 C 441.721 0.68282 -1.90641 0
M  V30 4230 C 442.049 1.73686 -0.875415 0
M  V30 4231 O 441.304 1.95334 0.119575 0
M  V30 4232 C 441.603 1.36189 -3.30435 0
M  V30 4233 C 441.269 0.440887 -4.48739 0
M  V30 4234 C 439.931 0.187312 -4.80835 0
M  V30 4235 C 442.283 -0.193134 -5.20842 0
M  V30 4236 C 439.611 -0.70855 -5.82406 0
M  V30 4237 C 441.963 -1.07688 -6.23367 0
M  V30 4238 C 440.627 -1.33962 -6.53919 0
M  V30 4239 H 439.897 0.249862 -0.697603 0
M  V30 4240 H 442.544 -0.0575642 -1.91413 0
M  V30 4241 H 440.849 2.17636 -3.25794 0
M  V30 4242 H 442.546 1.89759 -3.5326 0
M  V30 4243 H 439.136 0.648694 -4.23663 0
M  V30 4244 H 443.32 -0.0102445 -4.96299 0
M  V30 4245 H 438.576 -0.920097 -6.04437 0
M  V30 4246 H 442.75 -1.57451 -6.78367 0
M  V30 4247 H 440.377 -2.03549 -7.32442 0
M  V30 4248 N 441.952 1.55251 0.271103 0
M  V30 4249 C 442.899 1.88261 1.33516 0
M  V30 4250 C 443.869 0.734296 1.48988 0
M  V30 4251 O 445.054 0.985741 1.63364 0
M  V30 4252 C 442.194 2.16168 2.69008 0
M  V30 4253 C 441.307 3.43678 2.61743 0
M  V30 4254 C 440.442 3.61276 3.89427 0
M  V30 4255 C 439.481 4.82472 3.7668 0
M  V30 4256 N 438.618 4.96717 4.96202 0
M  V30 4257 H 443.458 2.79015 1.04665 0
M  V30 4258 H 440.995 1.38137 0.505618 0
M  V30 4259 H 442.953 2.30349 3.47844 0
M  V30 4260 H 441.583 1.28646 2.96057 0
M  V30 4261 H 440.635 3.37959 1.74607 0
M  V30 4262 H 441.947 4.3265 2.48224 0
M  V30 4263 H 441.101 3.75284 4.76704 0
M  V30 4264 H 439.84 2.70492 4.05814 0
M  V30 4265 H 438.845 4.68465 2.87786 0
M  V30 4266 H 440.07 5.74692 3.61809 0
M  V30 4267 H 438.016 4.08865 5.12997 0
M  V30 4268 H 437.933 5.79738 4.85222 0
M  V30 4269 H 439.201 5.15113 5.85046 0
M  V30 4270 N 443.43 -0.535701 1.48216 0
M  V30 4271 C 444.677 -1.29183 1.55942 0
M  V30 4272 C 445.005 -1.93125 0.230857 0
M  V30 4273 O 444.26 -1.79556 -0.778331 0
M  V30 4274 C 444.559 -2.4068 2.64212 0
M  V30 4275 C 444.225 -1.94428 4.06827 0
M  V30 4276 C 442.887 -1.81532 4.45645 0
M  V30 4277 C 445.239 -1.59405 4.96225 0
M  V30 4278 C 442.567 -1.31939 5.71672 0
M  V30 4279 C 444.919 -1.11276 6.22736 0
M  V30 4280 C 443.583 -0.969924 6.60416 0
M  V30 4281 H 442.853 -0.472715 0.570632 0
M  V30 4282 H 445.5 -0.598437 1.81909 0
M  V30 4283 H 443.805 -3.15666 2.32083 0
M  V30 4284 H 445.502 -2.98822 2.67407 0
M  V30 4285 H 442.092 -2.05415 3.76168 0
M  V30 4286 H 446.276 -1.68231 4.66917 0
M  V30 4287 H 441.532 -1.19562 5.99596 0
M  V30 4288 H 445.706 -0.832453 6.91407 0
M  V30 4289 H 443.333 -0.583436 7.57958 0
M  V30 4290 O 444.947 -1.46458 -0.680617 0
M  V30 4291 H 445.638 -1.40531 -1.33307 0
M  V30 END ATOM
M  V30 BEGIN BOND
M  V30 END BOND
M  V30 END CTAB
M  END
$$$$
