drugbank_target|P31260 Homeobox protein Hox-A10 (DB00136)
 OpenBabel12092121063D

  0  0  0     0  0            999 V3000
M  V30 BEGIN CTAB
M  V30 COUNTS 5853 5940 0 0 0
M  V30 BEGIN ATOM
M  V30 1 H -0.908 1.98254 -0.117106 0
M  V30 2 N 0 1.576 0 0
M  V30 3 C 0.933 2.03868 1.02534 0
M  V30 4 C 1.911 0.928543 1.3348 0
M  V30 5 O 3.095 1.19667 1.45644 0
M  V30 6 C 0.222 2.43627 2.35294 0
M  V30 7 C -0.732 3.65373 2.2001 0
M  V30 8 S 0.101 5.13292 1.52614 0
M  V30 9 C 1.257 5.56322 2.86805 0
M  V30 10 H 1.49 2.90518 0.631377 0
M  V30 11 H -0.977 1.52953 0.210867 0
M  V30 12 H 0.981 2.67203 3.11629 0
M  V30 13 H -0.358 1.57376 2.7183 0
M  V30 14 H -1.165 3.90944 3.18086 0
M  V30 15 H -1.563 3.418 1.51819 0
M  V30 16 H 0.729 5.58782 3.83104 0
M  V30 17 H 1.672 6.56266 2.65933 0
M  V30 18 H 2.08 4.83886 2.90714 0
M  V30 19 N 1.4781 -0.272755 1.55222 0
M  V30 20 C 2.7031 -1.02683 1.80197 0
M  V30 21 C 3.1281 -1.79142 0.573551 0
M  V30 22 O 2.4861 -1.74917 -0.476849 0
M  V30 23 C 2.5341 -1.9609 3.02624 0
M  V30 24 O 1.6381 -3.04863 2.77727 0
M  V30 25 H 0.9791 -0.293557 0.595584 0
M  V30 26 H 3.5091 -0.30159 2.02365 0
M  V30 27 H 3.5191 -2.38039 3.31363 0
M  V30 28 H 2.1941 -1.39851 3.91682 0
M  V30 29 H 0.7711 -2.67228 2.60084 0
M  V30 30 N 2.9562 -1.48159 -0.537278 0
M  V30 31 C 3.9192 -1.61665 -1.62472 0
M  V30 32 C 4.9192 -0.490395 -1.5314 0
M  V30 33 O 6.1092 -0.755998 -1.5694 0
M  V30 34 C 3.2412 -1.57997 -3.02076 0
M  V30 35 H 4.4342 -2.58621 -1.51839 0
M  V30 36 H 1.9872 -1.36647 -0.758771 0
M  V30 37 H 2.7222 -0.624913 -3.18222 0
M  V30 38 H 2.5072 -2.39755 -3.10258 0
M  V30 39 H 3.9972 -1.70627 -3.81151 0
M  V30 40 N 4.4343 0.785586 -1.36625 0
M  V30 41 C 5.8503 1.08419 -1.17122 0
M  V30 42 C 6.0503 2.015 0.00208491 0
M  V30 43 O 5.1063 2.43551 0.666278 0
M  V30 44 C 6.4193 1.69498 -2.48377 0
M  V30 45 C 7.9673 1.81821 -2.54775 0
M  V30 46 C 8.4423 2.46315 -3.86126 0
M  V30 47 N 9.9333 2.53779 -3.87492 0
M  V30 48 C 10.6683 3.045 -4.85868 0
M  V30 49 N 10.1643 3.55499 -5.94637 0
M  V30 50 N 11.9573 3.03247 -4.73284 0
M  V30 51 H 4.1083 0.167264 -2.1174 0
M  V30 52 H 6.3713 0.13682 -0.938075 0
M  V30 53 H 6.0773 1.08571 -3.34522 0
M  V30 54 H 5.9513 2.6896 -2.64462 0
M  V30 55 H 8.3383 2.41884 -1.69045 0
M  V30 56 H 8.4193 0.811532 -2.42586 0
M  V30 57 H 8.0633 1.86895 -4.72263 0
M  V30 58 H 7.9933 3.47561 -3.95612 0
M  V30 59 H 10.4843 2.17672 -3.08913 0
M  V30 60 H 10.7973 3.92562 -6.65669 0
M  V30 61 H 9.1423 3.5364 -5.98301 0
M  V30 62 H 12.3333 2.62696 -3.87438 0
M  V30 63 H 12.5063 3.42467 -5.50109 0
M  V30 64 N 5.9124 1.20967 1.01018 0
M  V30 65 C 6.8594 0.964281 2.09691 0
M  V30 66 C 7.8294 -0.107853 1.65749 0
M  V30 67 O 9.0144 0.0381987 1.90762 0
M  V30 68 C 6.1544 0.52943 3.41015 0
M  V30 69 C 5.2674 1.67043 3.98398 0
M  V30 70 C 4.4024 1.18525 5.17808 0
M  V30 71 C 3.4414 2.29892 5.67288 0
M  V30 72 N 2.5784 1.82546 6.77954 0
M  V30 73 H 7.4184 1.89463 2.30017 0
M  V30 74 H 4.9554 0.944289 1.1279 0
M  V30 75 H 6.9134 0.258588 4.16398 0
M  V30 76 H 5.5434 -0.363919 3.20742 0
M  V30 77 H 4.5954 2.05603 3.20049 0
M  V30 78 H 5.9074 2.50877 4.31117 0
M  V30 79 H 5.0614 0.870762 6.00419 0
M  V30 80 H 3.8004 0.316887 4.86669 0
M  V30 81 H 2.8054 2.6215 4.83278 0
M  V30 82 H 4.0304 3.17216 6.00459 0
M  V30 83 H 1.9764 0.980454 6.48632 0
M  V30 84 H 1.8934 2.59956 7.09901 0
M  V30 85 H 3.1614 1.54115 7.64113 0
M  V30 86 N 7.3905 -1.2043 1.01659 0
M  V30 87 C 8.6385 -1.89423 0.704522 0
M  V30 88 C 8.9595 -1.79231 -0.768197 0
M  V30 89 O 8.2295 -1.1947 -1.55254 0
M  V30 90 H 6.8095 -0.701178 0.257602 0
M  V30 91 H 9.4715 -1.4626 1.28818 0
M  V30 92 H 8.5675 -2.96052 0.987916 0
M  V30 93 N 8.8686 -0.792821 -1.36206 0
M  V30 94 C 10.0986 -0.378275 -2.03107 0
M  V30 95 C 10.5066 1.01119 -1.59911 0
M  V30 96 O 9.8496 1.66052 -0.785658 0
M  V30 97 C 9.9116 -0.366535 -3.57627 0
M  V30 98 C 9.5756 -1.70416 -4.24037 0
M  V30 99 C 10.5726 -2.6602 -4.46687 0
M  V30 100 C 8.2576 -1.98439 -4.6144 0
M  V30 101 C 10.2516 -3.8784 -5.05825 0
M  V30 102 C 7.9386 -3.20525 -5.20295 0
M  V30 103 C 8.9366 -4.15044 -5.42427 0
M  V30 104 O 8.6246 -5.34978 -6.00045 0
M  V30 105 H 8.3566 -0.153543 -0.658332 0
M  V30 106 H 10.9106 -1.07383 -1.75094 0
M  V30 107 H 9.1406 0.385539 -3.84773 0
M  V30 108 H 10.8296 0.0238088 -4.05893 0
M  V30 109 H 11.5956 -2.45658 -4.18183 0
M  V30 110 H 7.4746 -1.25686 -4.43536 0
M  V30 111 H 11.0186 -4.61628 -5.23015 0
M  V30 112 H 6.9156 -3.40764 -5.48225 0
M  V30 113 H 7.6836 -5.36088 -6.18508 0
M  V30 114 N 10.3467 1.47872 -0.545128 0
M  V30 115 C 11.2767 2.32661 0.197793 0
M  V30 116 C 12.2577 1.43041 0.920504 0
M  V30 117 O 13.4427 1.71912 0.90333 0
M  V30 118 C 10.5727 3.24569 1.23582 0
M  V30 119 C 9.5267 4.23333 0.630323 0
M  V30 120 C 8.8527 5.0448 1.77211 0
M  V30 121 C 10.1527 5.20704 -0.407974 0
M  V30 122 H 11.8467 2.95024 -0.510045 0
M  V30 123 H 9.3927 1.4187 -0.246731 0
M  V30 124 H 11.3457 3.8272 1.76362 0
M  V30 125 H 10.0697 2.60236 1.97344 0
M  V30 126 H 8.7287 3.6639 0.123922 0
M  V30 127 H 8.3767 4.36561 2.49847 0
M  V30 128 H 8.0767 5.71339 1.37281 0
M  V30 129 H 9.6007 5.65487 2.3034 0
M  V30 130 H 11.0147 5.7329 0.033305 0
M  V30 131 H 9.4117 5.95699 -0.725486 0
M  V30 132 H 10.4817 4.66917 -1.30828 0
M  V30 133 N 11.8248 0.280983 1.55075 0
M  V30 134 C 12.7548 -0.597469 2.25727 0
M  V30 135 C 13.7358 -1.15417 1.24952 0
M  V30 136 O 14.9208 -1.18722 1.53684 0
M  V30 137 C 12.0508 -1.7789 2.98283 0
M  V30 138 C 11.0048 -1.35347 4.06036 0
M  V30 139 C 10.3308 -2.61846 4.66198 0
M  V30 140 C 11.6308 -0.499354 5.19907 0
M  V30 141 H 13.3248 -0.00824265 2.99399 0
M  V30 142 H 10.8708 -0.0025244 1.44 0
M  V30 143 H 12.8238 -2.39937 3.46422 0
M  V30 144 H 11.5478 -2.39405 2.22155 0
M  V30 145 H 10.2068 -0.756156 3.58717 0
M  V30 146 H 9.8548 -3.21632 3.86732 0
M  V30 147 H 9.5548 -2.3409 5.38958 0
M  V30 148 H 11.0788 -3.24732 5.1709 0
M  V30 149 H 12.4928 -1.02498 5.64063 0
M  V30 150 H 10.8898 -0.316424 5.99265 0
M  V30 151 H 11.9598 0.480459 4.82514 0
M  V30 152 N 13.3029 -1.57598 0.00835791 0
M  V30 153 C 14.7139 -1.7892 -0.53333 0
M  V30 154 C 15.0649 -0.916609 -1.73473 0
M  V30 155 O 14.1899 -0.121336 -2.1606 0
M  V30 156 C 14.7849 -3.24488 -0.974313 0
M  V30 157 C 13.3439 -3.46878 -1.46125 0
M  V30 158 C 12.4909 -2.74157 -0.416302 0
M  V30 159 H 15.4419 -1.56958 0.234495 0
M  V30 160 H 15.4629 -3.3306 -1.83988 0
M  V30 161 H 14.9749 -3.87972 -0.099718 0
M  V30 162 H 13.0759 -2.8862 -2.35646 0
M  V30 163 H 13.1889 -4.55572 -1.48295 0
M  V30 164 H 11.5529 -2.39022 -0.87981 0
M  V30 165 H 12.3359 -3.40345 0.44947 0
M  V30 166 N 14.781 0.264519 -1.55364 0
M  V30 167 C 16.006 1.01726 -1.80739 0
M  V30 168 C 16.431 1.78836 -0.583044 0
M  V30 169 O 15.789 1.75167 0.467566 0
M  V30 170 C 15.837 1.94482 -3.03659 0
M  V30 171 O 14.941 3.03386 -2.7934 0
M  V30 172 H 14.282 0.290395 -0.597132 0
M  V30 173 H 16.812 0.290854 -2.02522 0
M  V30 174 H 16.822 2.36278 -3.32621 0
M  V30 175 H 15.497 1.37772 -3.92418 0
M  V30 176 H 14.074 2.65844 -2.61498 0
M  V30 177 N 16.2591 1.48442 0.529413 0
M  V30 178 C 17.6701 1.5002 1.11134 0
M  V30 179 C 18.0211 0.27031 1.94329 0
M  V30 180 O 17.1461 -0.622507 2.07253 0
M  V30 181 C 17.7411 2.71834 2.02217 0
M  V30 182 C 16.3001 2.76283 2.55627 0
M  V30 183 C 15.4471 2.43542 1.326 0
M  V30 184 H 18.3981 1.5555 0.314641 0
M  V30 185 H 18.4191 2.50384 2.8651 0
M  V30 186 H 17.9311 3.61331 1.41639 0
M  V30 187 H 16.0321 1.90995 3.19924 0
M  V30 188 H 16.1451 3.77725 2.94721 0
M  V30 189 H 14.5091 1.94709 1.64196 0
M  V30 190 H 15.2921 3.3528 0.737734 0
M  V30 191 N 17.7372 -0.778329 1.37039 0
M  V30 192 C 18.6852 -1.91278 1.32345 0
M  V30 193 C 19.6792 -1.68051 0.213331 0
M  V30 194 O 20.8852 -1.75922 0.38098 0
M  V30 195 H 17.2602 -0.628909 0.412283 0
M  V30 196 H 19.2312 -1.92355 2.28127 0
M  V30 197 C 17.9802 -3.28455 1.14073 0
M  V30 198 H 17.3032 -3.46901 1.98746 0
M  V30 199 H 18.7432 -4.08152 1.14837 0
M  V30 200 C 17.2022 -3.36548 -0.154015 0
M  V30 201 O 17.7322 -3.85186 -1.13993 0
M  V30 202 N 15.9382 -2.89894 -0.202475 0
M  V30 203 H 15.4852 -2.50504 0.600476 0
M  V30 204 H 15.4432 -2.9569 -1.06841 0
M  V30 205 N 19.2153 -1.21501 -1.00376 0
M  V30 206 C 20.4453 -1.05746 -1.77486 0
M  V30 207 C 20.8533 0.395655 -1.85017 0
M  V30 208 O 20.1963 1.28626 -1.31152 0
M  V30 209 C 20.2583 -1.58092 -3.22873 0
M  V30 210 C 19.9223 -3.06568 -3.38917 0
M  V30 211 C 20.9193 -4.04106 -3.271 0
M  V30 212 C 18.6043 -3.45799 -3.64319 0
M  V30 213 C 20.5983 -5.38862 -3.40451 0
M  V30 214 C 18.2853 -4.80707 -3.77311 0
M  V30 215 C 19.2833 -5.77047 -3.65384 0
M  V30 216 O 18.9713 -7.09507 -3.77961 0
M  V30 217 H 18.7033 -0.371778 -0.564586 0
M  V30 218 H 21.2573 -1.61319 -1.27143 0
M  V30 219 H 19.4873 -0.969163 -3.74358 0
M  V30 220 H 21.1763 -1.38162 -3.81662 0
M  V30 221 H 21.9423 -3.75141 -3.07399 0
M  V30 222 H 17.8213 -2.71344 -3.72684 0
M  V30 223 H 21.3653 -6.14041 -3.31058 0
M  V30 224 H 17.2623 -5.09357 -3.96517 0
M  V30 225 H 18.0303 -7.16935 -3.94901 0
M  V30 226 N 20.6934 1.19889 -1.02296 0
M  V30 227 C 22.1044 1.71124 -0.746568 0
M  V30 228 C 22.4554 1.81939 0.734335 0
M  V30 229 O 21.5804 1.48639 1.57275 0
M  V30 230 C 22.1754 3.10804 -1.34857 0
M  V30 231 C 20.7344 3.59323 -1.1209 0
M  V30 232 C 19.8814 2.3635 -1.45031 0
M  V30 233 H 22.8324 1.04813 -1.19163 0
M  V30 234 H 22.8534 3.73186 -0.742437 0
M  V30 235 H 22.3654 3.029 -2.42638 0
M  V30 236 H 20.4664 3.7255 -0.0610337 0
M  V30 237 H 20.5794 4.4378 -1.80544 0
M  V30 238 H 18.9434 2.39399 -0.869487 0
M  V30 239 H 19.7264 2.31081 -2.53883 0
M  V30 240 N 22.1715 0.800033 1.35784 0
M  V30 241 C 23.3995 0.389606 2.03199 0
M  V30 242 C 23.8145 -0.997375 1.60306 0
M  V30 243 O 23.1715 -1.64154 0.797481 0
M  V30 244 C 23.2225 0.455855 3.58614 0
M  V30 245 O 22.9435 1.78815 3.99946 0
M  V30 246 C 24.4445 0.0374032 4.43284 0
M  V30 247 H 21.6645 0.159132 0.651857 0
M  V30 248 H 24.2085 1.08183 1.73541 0
M  V30 249 H 22.3635 -0.188057 3.86943 0
M  V30 250 H 22.7775 1.74636 4.94573 0
M  V30 251 H 24.2515 0.134882 5.51835 0
M  V30 252 H 24.7285 -1.01651 4.27275 0
M  V30 253 H 25.3345 0.654215 4.20238 0
M  V30 254 N 23.6496 -1.47581 0.552962 0
M  V30 255 C 24.8776 -2.06875 0.0320556 0
M  V30 256 C 25.2926 -1.40625 -1.25976 0
M  V30 257 O 24.6496 -0.501349 -1.75479 0
M  V30 258 C 24.7006 -3.61092 -0.17167 0
M  V30 259 O 24.4216 -4.24858 1.06899 0
M  V30 260 C 25.9226 -4.37242 -0.730344 0
M  V30 261 H 23.1426 -0.669561 0.043915 0
M  V30 262 H 25.6866 -1.89646 0.765163 0
M  V30 263 H 23.8416 -3.7785 -0.854894 0
M  V30 264 H 24.2556 -5.17334 0.864059 0
M  V30 265 H 25.7296 -5.45842 -0.822203 0
M  V30 266 H 26.2066 -4.03235 -1.74064 0
M  V30 267 H 26.8126 -4.25219 -0.0829543 0
M  V30 268 N 25.1277 -0.289203 -1.54924 0
M  V30 269 C 26.0607 0.633823 -2.19221 0
M  V30 270 C 27.0387 1.14174 -1.15772 0
M  V30 271 O 28.2227 1.21211 -1.44361 0
M  V30 272 C 25.3497 1.86592 -2.82668 0
M  V30 273 C 24.3957 1.49227 -3.99542 0
M  V30 274 S 25.2287 0.558312 -5.32582 0
M  V30 275 C 26.3847 1.79847 -5.99505 0
M  V30 276 H 26.6177 0.0875416 -2.97171 0
M  V30 277 H 24.1507 -0.0733899 -1.54225 0
M  V30 278 H 26.1087 2.57305 -3.19851 0
M  V30 279 H 24.7697 2.38335 -2.04585 0
M  V30 280 H 23.9627 2.40945 -4.42676 0
M  V30 281 H 23.5647 0.865193 -3.63855 0
M  V30 282 H 25.8567 2.7406 -6.19595 0
M  V30 283 H 26.7997 1.4099 -6.93922 0
M  V30 284 H 27.2077 1.96982 -5.29016 0
M  V30 285 N 26.6058 1.57591 -0.0167156 0
M  V30 286 C 27.8308 1.9598 0.67872 0
M  V30 287 C 28.2558 0.892546 1.65575 0
M  V30 288 O 27.6138 -0.147772 1.80697 0
M  V30 289 C 27.6618 3.33468 1.37227 0
M  V30 290 O 26.7658 3.28954 2.48722 0
M  V30 291 H 26.1068 0.639339 0.17928 0
M  V30 292 H 28.6368 2.04463 -0.0748802 0
M  V30 293 H 28.6468 3.69417 1.7319 0
M  V30 294 H 27.3218 4.10694 0.656007 0
M  V30 295 H 25.8988 3.04705 2.14963 0
M  V30 296 N 28.0839 -0.256276 1.55502 0
M  V30 297 C 29.3239 -0.993081 1.78654 0
M  V30 298 C 29.6879 -1.8288 0.584724 0
M  V30 299 O 30.8889 -2.59665 0.694822 0
M  V30 300 C 29.1599 -1.83856 3.06483 0
M  V30 301 S 30.7189 -2.63573 3.5082 0
M  V30 302 H 27.5369 -0.334199 0.62756 0
M  V30 303 H 30.1389 -0.26184 1.93739 0
M  V30 304 H 28.8429 -1.21414 3.92029 0
M  V30 305 H 28.3739 -2.61271 2.94111 0
M  V30 306 H 30.3889 -3.86312 3.11412 0
M  V30 307 N 29.562 -1.4872 -0.521534 0
M  V30 308 C 30.787 -1.61101 -1.30618 0
M  V30 309 C 31.212 -0.274611 -1.86085 0
M  V30 310 O 30.57 0.754937 -1.64834 0
M  V30 311 C 30.618 -2.66709 -2.4269 0
M  V30 312 O 29.722 -2.24456 -3.45967 0
M  V30 313 H 29.063 -0.539921 -0.386499 0
M  V30 314 H 31.593 -1.94767 -0.626645 0
M  V30 315 H 31.603 -2.88245 -2.88754 0
M  V30 316 H 30.278 -3.63727 -2.01682 0
M  V30 317 H 28.855 -2.13168 -3.05964 0
M  V30 318 N 31.0401 0.771051 -1.3745 0
M  V30 319 C 31.9501 1.91538 -1.35464 0
M  V30 320 C 32.9661 1.72134 -0.254123 0
M  V30 321 O 34.1421 1.95358 -0.489626 0
M  V30 322 C 31.2071 3.26671 -1.16134 0
M  V30 323 C 30.2681 3.58723 -2.35831 0
M  V30 324 C 29.5011 4.87409 -2.17413 0
M  V30 325 O 29.7241 5.58506 -1.15876 0
M  V30 326 O 28.6581 5.18539 -3.05615 0
M  V30 327 H 32.4841 1.96165 -2.31847 0
M  V30 328 H 30.0691 0.9139 -1.18187 0
M  V30 329 H 31.9511 4.07499 -1.07345 0
M  V30 330 H 30.6261 3.22894 -0.228251 0
M  V30 331 H 29.5331 2.78127 -2.50192 0
M  V30 332 H 30.8661 3.67243 -3.27709 0
M  V30 333 N 32.5182 1.22032 0.997298 0
M  V30 334 C 33.7432 1.06921 1.77715 0
M  V30 335 C 34.1682 -0.376226 1.84299 0
M  V30 336 O 33.5262 -1.27165 1.29223 0
M  V30 337 C 33.5742 1.67996 3.19076 0
M  V30 338 O 32.6782 0.930653 4.01762 0
M  V30 339 H 32.0192 0.375814 0.547412 0
M  V30 340 H 34.5492 1.61737 1.25309 0
M  V30 341 H 34.5592 1.72538 3.69723 0
M  V30 342 H 33.2342 2.73182 3.13599 0
M  V30 343 H 31.8112 0.960917 3.60307 0
M  V30 344 N 33.9963 -1.19345 1.0293 0
M  V30 345 C 35.4073 -1.70725 0.755633 0
M  V30 346 C 35.7583 -1.82326 -0.724676 0
M  V30 347 O 34.8833 -1.49471 -1.56484 0
M  V30 348 C 35.4783 -3.10084 1.36503 0
M  V30 349 C 34.0373 -3.58723 1.13994 0
M  V30 350 C 33.1843 -2.35577 1.46283 0
M  V30 351 H 36.1353 -1.0418 1.19718 0
M  V30 352 H 36.1563 -3.72787 0.762217 0
M  V30 353 H 35.6683 -3.01609 2.44241 0
M  V30 354 H 33.7693 -3.72512 0.0807901 0
M  V30 355 H 33.8823 -4.42816 1.82894 0
M  V30 356 H 32.2463 -2.38935 0.88217 0
M  V30 357 H 33.0293 -2.29731 2.55105 0
M  V30 358 N 35.4744 -0.807222 -1.35358 0
M  V30 359 C 36.4374 -0.223665 -2.28106 0
M  V30 360 C 37.4374 0.589354 -1.4961 0
M  V30 361 O 38.6274 0.407745 -1.69361 0
M  V30 362 C 35.7594 0.688149 -3.33882 0
M  V30 363 H 36.9524 -1.04169 -2.81227 0
M  V30 364 H 34.5054 -0.577921 -1.45223 0
M  V30 365 H 35.2404 1.52984 -2.85948 0
M  V30 366 H 35.0254 0.10687 -3.91954 0
M  V30 367 H 36.5154 1.09075 -4.03104 0
M  V30 368 N 36.9525 1.47285 -0.560781 0
M  V30 369 C 37.9155 2.28535 0.174488 0
M  V30 370 C 38.9155 1.37153 0.839388 0
M  V30 371 O 40.1055 1.59748 0.694702 0
M  V30 372 C 37.2375 3.16934 1.25561 0
M  V30 373 H 38.4305 2.95012 -0.539262 0
M  V30 374 H 35.9835 1.53034 -0.317865 0
M  V30 375 H 36.7185 2.55157 2.00164 0
M  V30 376 H 36.5035 3.8419 0.783604 0
M  V30 377 H 37.9935 3.78143 1.77193 0
M  V30 378 N 38.4306 0.297415 1.54768 0
M  V30 379 C 39.3786 -0.596051 2.24833 0
M  V30 380 C 40.3726 -1.13992 1.25308 0
M  V30 381 O 41.5786 -1.09098 1.4317 0
M  V30 382 H 37.9536 -0.210814 0.721846 0
M  V30 383 H 39.9246 0.0174667 2.98395 0
M  V30 384 C 38.6736 -1.75818 2.99972 0
M  V30 385 H 37.9966 -1.3489 3.76357 0
M  V30 386 H 39.4366 -2.35949 3.52284 0
M  V30 387 C 37.8956 -2.66014 2.06732 0
M  V30 388 O 38.4256 -3.67009 1.63302 0
M  V30 389 N 36.6316 -2.33669 1.72763 0
M  V30 390 H 36.1786 -1.51586 2.08277 0
M  V30 391 H 36.1366 -2.94285 1.10652 0
M  V30 392 N 39.9087 -1.5758 0.0250728 0
M  V30 393 C 41.1337 -1.96337 -0.668317 0
M  V30 394 C 41.5587 -0.901314 -1.651 0
M  V30 395 O 40.9167 0.138187 -1.80773 0
M  V30 396 C 40.9647 -3.34191 -1.35457 0
M  V30 397 O 40.0687 -3.30269 -2.46974 0
M  V30 398 H 39.4097 -0.640281 -0.175887 0
M  V30 399 H 41.9397 -2.0442 0.0857224 0
M  V30 400 H 41.9497 -3.70331 -1.71228 0
M  V30 401 H 40.6247 -4.11036 -0.634218 0
M  V30 402 H 39.2017 -3.05841 -2.13344 0
M  V30 403 N 41.3868 0.248026 -1.55636 0
M  V30 404 C 42.6338 0.976224 -1.77415 0
M  V30 405 C 42.9618 1.85361 -0.589193 0
M  V30 406 O 42.2168 1.90973 0.427529 0
M  V30 407 C 42.5158 1.86819 -3.04686 0
M  V30 408 C 42.1818 1.14625 -4.36087 0
M  V30 409 C 40.8438 0.946723 -4.71795 0
M  V30 410 C 43.1958 0.634463 -5.17324 0
M  V30 411 C 40.5238 0.223091 -5.86276 0
M  V30 412 C 42.8758 -0.0756959 -6.32555 0
M  V30 413 C 41.5398 -0.286711 -6.66884 0
M  V30 414 H 40.8098 0.357226 -0.649208 0
M  V30 415 H 43.4568 0.246415 -1.89908 0
M  V30 416 H 41.7618 2.66502 -2.872 0
M  V30 417 H 43.4588 2.43329 -3.18735 0
M  V30 418 H 40.0488 1.3117 -4.08035 0
M  V30 419 H 44.2328 0.77616 -4.90193 0
M  V30 420 H 39.4888 0.0491185 -6.1138 0
M  V30 421 H 43.6628 -0.479899 -6.94745 0
M  V30 422 H 41.2898 -0.849389 -7.5544 0
M  V30 423 N 42.8649 1.48995 0.513639 0
M  V30 424 C 43.7949 1.67636 1.62544 0
M  V30 425 C 44.7759 0.525087 1.61793 0
M  V30 426 O 45.9609 0.759502 1.78732 0
M  V30 427 C 43.0909 1.73114 3.01079 0
M  V30 428 C 42.0449 2.87905 3.16693 0
M  V30 429 C 41.3709 2.78486 4.56453 0
M  V30 430 C 42.6709 4.29005 2.97913 0
M  V30 431 H 44.3649 2.60716 1.47198 0
M  V30 432 H 41.9109 1.25465 0.706714 0
M  V30 433 H 43.8639 1.84742 3.78746 0
M  V30 434 H 42.5879 0.766241 3.17484 0
M  V30 435 H 41.2469 2.75859 2.41448 0
M  V30 436 H 40.8949 1.7993 4.69717 0
M  V30 437 H 40.5949 3.55523 4.67843 0
M  V30 438 H 42.1189 2.92104 5.36197 0
M  V30 439 H 43.5329 4.41798 3.65359 0
M  V30 440 H 41.9299 5.07166 3.20785 0
M  V30 441 H 42.9999 4.44329 1.94165 0
M  V30 442 N 44.343 -0.763751 1.37857 0
M  V30 443 C 45.589 -1.52483 1.33704 0
M  V30 444 C 45.922 -1.94051 -0.0759612 0
M  V30 445 O 45.197 -1.64675 -1.03501 0
M  V30 446 C 45.48 -2.78441 2.28348 0
M  V30 447 C 45.333 -2.43075 3.78463 0
M  V30 448 C 46.652 -3.80415 2.21298 0
M  V30 449 H 43.771 -0.553169 0.487005 0
M  V30 450 H 46.413 -0.875562 1.68624 0
M  V30 451 H 44.563 -3.33842 1.987 0
M  V30 452 H 46.235 -1.93527 4.18742 0
M  V30 453 H 44.478 -1.75666 3.96641 0
M  V30 454 H 45.149 -3.33149 4.40132 0
M  V30 455 H 47.625 -3.34527 2.47449 0
M  V30 456 H 46.501 -4.66257 2.89647 0
M  V30 457 H 46.762 -4.25262 1.20849 0
M  V30 458 N 45.8211 -1.22559 -0.990812 0
M  V30 459 C 47.0981 -0.959875 -1.70428 0
M  V30 460 C 47.4781 0.524455 -2.04481 0
M  V30 461 O 46.8261 1.49302 -1.72977 0
M  V30 462 C 47.0361 -1.85955 -2.95333 0
M  V30 463 C 48.3841 -2.11687 -3.68068 0
M  V30 464 O 49.4081 -1.8342 -3.05345 0
M  V30 465 O 48.2671 -2.59572 -4.80921 0
M  V30 466 H 45.3611 -0.361154 -0.743974 0
M  V30 467 H 47.9071 -1.33554 -1.04697 0
M  V30 468 H 46.6791 -2.86346 -2.66687 0
M  V30 469 H 46.3021 -1.4856 -3.68803 0
M  V30 470 N 47.2992 1.18797 -1.03562 0
M  V30 471 C 48.5242 1.9314 -0.755764 0
M  V30 472 C 48.9492 1.7537 0.68022 0
M  V30 473 O 48.3072 1.06046 1.47051 0
M  V30 474 C 48.3552 3.42747 -1.12058 0
M  V30 475 O 47.4592 4.11683 -0.243124 0
M  V30 476 H 46.8002 0.602724 -0.278604 0
M  V30 477 H 49.3302 1.50678 -1.3841 0
M  V30 478 H 49.3402 3.93437 -1.08035 0
M  V30 479 H 48.0152 3.55002 -2.16672 0
M  V30 480 H 46.5922 3.71323 -0.342539 0
M  V30 481 N 48.7773 0.814389 1.34928 0
M  V30 482 C 49.7073 0.244827 2.32213 0
M  V30 483 C 50.6883 -0.634024 1.57842 0
M  V30 484 O 51.8733 -0.562676 1.8587 0
M  V30 485 C 49.0033 -0.601106 3.42058 0
M  V30 486 C 47.9573 0.179896 4.27622 0
M  V30 487 C 47.2833 -0.788237 5.28858 0
M  V30 488 C 48.5833 1.38329 5.03649 0
M  V30 489 H 50.2773 1.05763 2.80097 0
M  V30 490 H 47.8233 0.510029 1.34665 0
M  V30 491 H 49.7763 -1.00968 4.09125 0
M  V30 492 H 48.5003 -1.44688 2.92802 0
M  V30 493 H 47.1593 0.569739 3.62146 0
M  V30 494 H 46.8073 -1.62973 4.75866 0
M  V30 495 H 46.5073 -0.269942 5.8698 0
M  V30 496 H 48.0313 -1.19485 5.98795 0
M  V30 497 H 49.4453 1.04918 5.63618 0
M  V30 498 H 47.8423 1.83662 5.71304 0
M  V30 499 H 48.9123 2.16592 4.33839 0
M  V30 500 N 50.2554 -1.46986 0.568584 0
M  V30 501 C 51.5044 -2.01646 0.0465894 0
M  V30 502 C 51.8174 -1.44721 -1.31587 0
M  V30 503 O 53.0234 -1.91113 -1.92842 0
M  V30 504 C 51.4794 -3.59885 0.032752 0
M  V30 505 C 51.0874 -4.25804 1.39266 0
M  V30 506 C 52.8314 -4.22255 -0.436038 0
M  V30 507 C 50.7384 -5.76081 1.33732 0
M  V30 508 H 49.6684 -0.753876 0.013647 0
M  V30 509 H 52.3194 -1.68864 0.718131 0
M  V30 510 H 50.7014 -3.8968 -0.704669 0
M  V30 511 H 51.8754 -4.07637 2.1487 0
M  V30 512 H 50.1904 -3.7547 1.80032 0
M  V30 513 H 52.7874 -5.32394 -0.49602 0
M  V30 514 H 53.1304 -3.90212 -1.45053 0
M  V30 515 H 53.6634 -3.97033 0.246877 0
M  V30 516 H 50.4024 -6.12761 2.32817 0
M  V30 517 H 49.9224 -5.96553 0.623267 0
M  V30 518 H 51.6014 -6.38518 1.0442 0
M  V30 519 N 51.7335 -0.305618 -1.54608 0
M  V30 520 C 52.9585 0.307562 -2.05107 0
M  V30 521 C 53.3835 1.46385 -1.18123 0
M  V30 522 O 52.7415 1.8034 -0.186324 0
M  V30 523 C 52.7895 0.73704 -3.52987 0
M  V30 524 O 51.8935 1.84134 -3.6901 0
M  V30 525 H 51.2345 0.0589143 -0.661381 0
M  V30 526 H 53.7645 -0.448807 -1.99617 0
M  V30 527 H 53.7745 1.02459 -3.94925 0
M  V30 528 H 52.4495 -0.108773 -4.15758 0
M  V30 529 H 51.0265 1.55398 -3.38978 0
M  V30 530 N 53.2116 1.57565 -0.0334293 0
M  V30 531 C 54.4366 1.96689 0.657895 0
M  V30 532 C 54.8616 0.910057 1.64619 0
M  V30 533 O 54.2196 -0.128598 1.80843 0
M  V30 534 C 54.2676 3.34905 1.33683 0
M  V30 535 O 53.3716 3.31574 2.45219 0
M  V30 536 H 52.7126 0.641205 0.172489 0
M  V30 537 H 55.2426 2.04372 -0.0965621 0
M  V30 538 H 55.2526 3.71234 1.69262 0
M  V30 539 H 53.9276 4.11366 0.612411 0
M  V30 540 H 52.5046 3.06968 2.11719 0
M  V30 541 N 54.6897 -0.239769 1.55765 0
M  V30 542 C 55.9377 -0.964892 1.77579 0
M  V30 543 C 56.2587 -1.85582 0.598699 0
M  V30 544 O 55.5287 -1.92075 -0.385226 0
M  V30 545 H 54.1087 -0.359265 0.654933 0
M  V30 546 H 56.7707 -0.256001 1.93211 0
M  V30 547 H 55.8667 -1.58243 2.69009 0
M  V30 548 N 56.1678 -1.49265 -0.50573 0
M  V30 549 C 57.5838 -1.35923 -0.836486 0
M  V30 550 C 57.7838 -0.388704 -1.97715 0
M  V30 551 O 56.8398 0.181336 -2.51848 0
M  V30 552 C 58.1528 -2.76531 -1.18115 0
M  V30 553 C 59.7008 -2.85197 -1.28964 0
M  V30 554 C 60.1758 -4.26561 -1.66761 0
M  V30 555 N 61.6668 -4.2935 -1.73819 0
M  V30 556 C 62.4018 -5.35693 -2.045 0
M  V30 557 N 61.8978 -6.52287 -2.33438 0
M  V30 558 N 63.6908 -5.23105 -2.05711 0
M  V30 559 H 55.8418 -2.10965 0.246519 0
M  V30 560 H 58.1048 -0.9468 0.0476887 0
M  V30 561 H 57.8108 -3.49226 -0.416398 0
M  V30 562 H 57.6848 -3.11599 -2.1257 0
M  V30 563 H 60.0718 -2.12742 -2.04511 0
M  V30 564 H 60.1528 -2.53718 -0.325704 0
M  V30 565 H 59.7968 -4.99541 -0.917656 0
M  V30 566 H 59.7268 -4.55502 -2.64246 0
M  V30 567 H 62.2178 -3.4526 -1.53635 0
M  V30 568 H 62.5308 -7.29158 -2.56024 0
M  V30 569 H 60.8758 -6.55521 -2.30905 0
M  V30 570 H 64.0668 -4.31026 -1.82577 0
M  V30 571 H 64.2398 -6.06078 -2.29289 0
M  V30 572 N 57.6459 0.756429 -1.3826 0
M  V30 573 C 58.8939 1.51248 -1.34047 0
M  V30 574 C 59.2149 1.94875 0.0698372 0
M  V30 575 O 58.4849 1.67436 1.01696 0
M  V30 576 H 57.0649 0.561018 -0.493222 0
M  V30 577 H 59.7269 0.899347 -1.7291 0
M  V30 578 H 58.8229 2.40472 -1.98947 0
M  V30 579 N 59.124 1.23083 0.984299 0
M  V30 580 C 60.034 1.02515 2.11016 0
M  V30 581 C 61.05 -0.0291702 1.73976 0
M  V30 582 O 62.226 0.165434 2.00719 0
M  V30 583 C 59.291 0.614673 3.41208 0
M  V30 584 C 58.352 1.74359 3.92297 0
M  V30 585 C 57.585 1.35261 5.16275 0
M  V30 586 O 57.808 0.235136 5.69915 0
M  V30 587 O 56.742 2.17227 5.61334 0
M  V30 588 H 60.568 1.96862 2.31255 0
M  V30 589 H 58.153 1.01753 1.09392 0
M  V30 590 H 60.035 0.396518 4.1953 0
M  V30 591 H 58.71 -0.299851 3.22308 0
M  V30 592 H 57.617 2.01635 3.1511 0
M  V30 593 H 58.95 2.63629 4.15645 0
M  V30 594 N 60.6021 -1.18246 1.0419 0
M  V30 595 C 61.5651 -2.20128 0.638452 0
M  V30 596 C 62.5651 -1.57885 -0.304805 0
M  V30 597 O 63.7551 -1.73967 -0.0900369 0
M  V30 598 C 60.8871 -3.4084 -0.0637751 0
M  V30 599 H 62.0801 -2.57336 1.54007 0
M  V30 600 H 59.6331 -1.32152 0.834598 0
M  V30 601 H 60.3681 -3.09166 -0.979136 0
M  V30 602 H 60.1531 -3.8726 0.614198 0
M  V30 603 H 61.6431 -4.16274 -0.332512 0
M  V30 604 N 62.0802 -0.821533 -1.34494 0
M  V30 605 C 63.3282 -0.408139 -1.97936 0
M  V30 606 C 63.6492 1.03193 -1.65457 0
M  V30 607 O 62.9192 1.71622 -0.944595 0
M  V30 608 H 61.4992 -0.147928 -0.732206 0
M  V30 609 H 64.1612 -1.05067 -1.64155 0
M  V30 610 H 63.2572 -0.52601 -3.07635 0
M  V30 611 N 63.5583 1.46682 -0.576371 0
M  V30 612 C 64.8063 2.02013 -0.0594163 0
M  V30 613 C 65.1273 1.45101 1.30271 0
M  V30 614 O 64.3973 0.633317 1.8538 0
M  V30 615 H 62.9773 0.746759 -0.0189745 0
M  V30 616 H 65.6393 1.79862 -0.750717 0
M  V30 617 H 64.7353 3.12097 0.014345 0
M  V30 618 N 65.0364 0.313813 1.54444 0
M  V30 619 C 66.2844 -0.291099 1.99993 0
M  V30 620 C 66.6054 -1.53418 1.20366 0
M  V30 621 O 65.8754 -1.93544 0.302927 0
M  V30 622 H 64.4554 -0.110552 0.738774 0
M  V30 623 H 67.1174 0.428106 1.9014 0
M  V30 624 H 66.2134 -0.554268 3.07139 0
M  V30 625 N 66.5145 -1.57545 0.0417849 0
M  V30 626 C 67.7625 -1.91937 -0.632829 0
M  V30 627 C 68.0835 -0.919978 -1.71934 0
M  V30 628 O 67.3535 0.0366064 -1.95866 0
M  V30 629 H 65.9335 -0.708493 -0.236742 0
M  V30 630 H 68.5955 -1.9468 0.0925745 0
M  V30 631 H 67.6915 -2.92912 -1.07746 0
M  V30 632 N 67.9926 0.231505 -1.5589 0
M  V30 633 C 69.2406 0.955461 -1.78088 0
M  V30 634 C 69.5616 1.85262 -0.608533 0
M  V30 635 O 68.8316 1.92277 0.375035 0
M  V30 636 H 67.4116 0.355787 -0.656829 0
M  V30 637 H 70.0736 0.245751 -1.93344 0
M  V30 638 H 69.1696 1.56814 -2.69844 0
M  V30 639 N 69.4707 1.49531 0.497807 0
M  V30 640 C 70.7187 1.58865 1.24926 0
M  V30 641 C 71.0397 0.278721 1.92998 0
M  V30 642 O 70.3097 -0.702144 1.82885 0
M  V30 643 H 68.8897 0.585343 0.464094 0
M  V30 644 H 71.5517 1.86174 0.57666 0
M  V30 645 H 70.6477 2.38633 2.01149 0
M  V30 646 N 70.9488 -0.749086 1.3866 0
M  V30 647 C 71.9118 -1.84457 1.36045 0
M  V30 648 C 72.9118 -1.58682 0.260122 0
M  V30 649 O 74.1018 -1.66343 0.517261 0
M  V30 650 C 71.2338 -3.22008 1.11911 0
M  V30 651 H 72.4268 -1.88182 2.33512 0
M  V30 652 H 69.9798 -0.951266 1.24019 0
M  V30 653 H 70.7148 -3.2395 0.150686 0
M  V30 654 H 70.4998 -3.42111 1.91579 0
M  V30 655 H 71.9898 -4.0208 1.12788 0
M  V30 656 N 72.4269 -1.23603 -0.977757 0
M  V30 657 C 73.6749 -1.06759 -1.71601 0
M  V30 658 C 73.9959 0.395929 -1.90938 0
M  V30 659 O 73.2659 1.28356 -1.47992 0
M  V30 660 H 71.8459 -0.392062 -0.635843 0
M  V30 661 H 74.5079 -1.55362 -1.1768 0
M  V30 662 H 73.6039 -1.55763 -2.70452 0
M  V30 663 N 73.905 1.17692 -1.04816 0
M  V30 664 C 75.153 1.87488 -0.754497 0
M  V30 665 C 75.474 1.81205 0.720407 0
M  V30 666 O 74.744 1.23544 1.52032 0
M  V30 667 H 73.324 0.694101 -0.276102 0
M  V30 668 H 75.986 1.42793 -1.32651 0
M  V30 669 H 75.082 2.93328 -1.06606 0
M  V30 670 N 75.3831 0.828654 1.34056 0
M  V30 671 C 76.6311 0.41863 1.97717 0
M  V30 672 C 76.9521 -1.02314 1.66002 0
M  V30 673 O 76.2221 -1.71119 0.953683 0
M  V30 674 H 74.8021 0.151809 0.731412 0
M  V30 675 H 77.4641 1.05936 1.63596 0
M  V30 676 H 76.5601 0.542318 3.07352 0
M  V30 677 N 76.8612 -1.46375 0.584142 0
M  V30 678 C 78.1092 -2.01978 0.0701287 0
M  V30 679 C 78.4302 -1.4579 -1.295 0
M  V30 680 O 77.7002 -0.64314 -1.85042 0
M  V30 681 H 76.2802 -0.746648 0.0229345 0
M  V30 682 H 78.9422 -1.79461 0.760245 0
M  V30 683 H 78.0382 -3.121 0.0022064 0
M  V30 684 N 78.3393 -0.321999 -1.54275 0
M  V30 685 C 79.5873 0.280489 -2.00144 0
M  V30 686 C 79.9083 1.52777 -1.21178 0
M  V30 687 O 79.1783 1.9338 -0.313187 0
M  V30 688 H 77.7583 0.106632 -0.73935 0
M  V30 689 H 80.4203 -0.438184 -1.8991 0
M  V30 690 H 79.5163 0.537972 -3.07428 0
M  V30 691 N 79.8174 1.5752 -0.0501392 0
M  V30 692 C 81.0654 1.9227 0.622642 0
M  V30 693 C 81.3864 0.929083 1.71444 0
M  V30 694 O 80.6564 -0.0262186 1.95882 0
M  V30 695 H 79.2364 0.709739 0.232981 0
M  V30 696 H 81.8984 1.94628 -0.102898 0
M  V30 697 H 80.9944 2.93479 1.06191 0
M  V30 698 N 81.2955 -0.223234 1.56011 0
M  V30 699 C 82.5435 -0.946003 1.78592 0
M  V30 700 C 82.8645 -1.84936 0.618349 0
M  V30 701 O 82.1345 -1.92473 -0.364833 0
M  V30 702 H 80.7145 -0.352298 0.658707 0
M  V30 703 H 83.3765 -0.235494 1.93472 0
M  V30 704 H 82.4725 -1.55381 2.70672 0
M  V30 705 N 82.7736 -1.49793 -0.48987 0
M  V30 706 C 84.0036 -1.6333 -1.26518 0
M  V30 707 C 84.4116 -0.308392 -1.8667 0
M  V30 708 O 83.7546 0.717512 -1.69108 0
M  V30 709 C 83.8166 -2.6522 -2.4269 0
M  V30 710 C 83.4806 -4.09279 -2.03321 0
M  V30 711 C 84.4776 -4.95738 -1.56652 0
M  V30 712 C 82.1626 -4.55082 -2.12616 0
M  V30 713 C 84.1566 -6.26041 -1.19795 0
M  V30 714 C 81.8436 -5.85396 -1.75371 0
M  V30 715 C 82.8416 -6.707 -1.29036 0
M  V30 716 O 82.5296 -7.98584 -0.92299 0
M  V30 717 H 82.2616 -0.552502 -0.389509 0
M  V30 718 H 84.8156 -1.96642 -0.593381 0
M  V30 719 H 83.0456 -2.27112 -3.12981 0
M  V30 720 H 84.7346 -2.68171 -3.04695 0
M  V30 721 H 85.5006 -4.61575 -1.48908 0
M  V30 722 H 81.3796 -3.88844 -2.47631 0
M  V30 723 H 84.9236 -6.92578 -0.835582 0
M  V30 724 H 80.8206 -6.19085 -1.82768 0
M  V30 725 H 81.5886 -8.11692 -1.05349 0
M  V30 726 N 84.2517 0.741722 -1.39055 0
M  V30 727 C 85.4817 1.52876 -1.3897 0
M  V30 728 C 85.8897 1.8919 0.0193266 0
M  V30 729 O 85.2327 1.54138 0.999356 0
M  V30 730 C 85.2947 2.84929 -2.19216 0
M  V30 731 C 84.9587 2.71086 -3.67915 0
M  V30 732 C 85.9557 2.40084 -4.61146 0
M  V30 733 C 83.6407 2.88168 -4.11418 0
M  V30 734 C 85.6347 2.26335 -5.95862 0
M  V30 735 C 83.3217 2.74037 -5.46211 0
M  V30 736 C 84.3197 2.43166 -6.38247 0
M  V30 737 O 84.0077 2.29115 -7.70559 0
M  V30 738 H 83.7397 0.479252 -0.476753 0
M  V30 739 H 86.2937 0.924751 -1.83405 0
M  V30 740 H 84.5237 3.47564 -1.69518 0
M  V30 741 H 86.2127 3.46509 -2.11392 0
M  V30 742 H 86.9787 2.26545 -4.28838 0
M  V30 743 H 82.8577 3.11191 -3.40119 0
M  V30 744 H 86.4017 2.0216 -6.67665 0
M  V30 745 H 82.2987 2.87153 -5.78112 0
M  V30 746 H 83.0667 2.44237 -7.81211 0
M  V30 747 N 85.7298 1.2412 0.971189 0
M  V30 748 C 86.6928 1.03156 2.04674 0
M  V30 749 C 87.6928 -0.00990322 1.60797 0
M  V30 750 O 88.8828 0.230729 1.72665 0
M  V30 751 C 86.0148 0.562765 3.36223 0
M  V30 752 H 87.2078 1.98614 2.24705 0
M  V30 753 H 84.7608 1.06293 1.14593 0
M  V30 754 H 85.4958 -0.395176 3.21883 0
M  V30 755 H 85.2808 1.31441 3.69413 0
M  V30 756 H 86.7708 0.437015 4.15307 0
M  V30 757 N 87.2079 -1.17134 1.05439 0
M  V30 758 C 88.1579 -2.1919 0.627675 0
M  V30 759 C 89.1419 -1.57328 -0.337147 0
M  V30 760 O 90.3339 -1.76329 -0.153976 0
M  V30 761 C 87.4629 -3.43299 0.00651435 0
M  V30 762 C 86.5489 -4.12255 0.995312 0
M  V30 763 N 86.9399 -4.56997 2.16765 0
M  V30 764 C 85.2379 -4.38316 0.824336 0
M  V30 765 C 85.9389 -5.10239 2.7934 0
M  V30 766 N 84.9149 -5.02595 2.07122 0
M  V30 767 H 88.7169 -2.5149 1.52086 0
M  V30 768 H 86.2309 -1.33491 0.924868 0
M  V30 769 H 88.2279 -4.15693 -0.316965 0
M  V30 770 H 86.8879 -3.1249 -0.882033 0
M  V30 771 H 87.8989 -4.51006 2.54587 0
M  V30 772 H 84.5759 -4.17498 -0.0129526 0
M  V30 773 H 85.9659 -5.54961 3.78772 0
M  V30 774 N 88.686 -0.835752 -1.33615 0
M  V30 775 C 89.934 -0.429109 -1.97492 0
M  V30 776 C 90.255 1.01433 -1.66543 0
M  V30 777 O 89.525 1.70611 -0.962744 0
M  V30 778 H 88.105 -0.155686 -0.730596 0
M  V30 779 H 90.767 -1.06802 -1.63031 0
M  V30 780 H 89.863 -0.55861 -3.0706 0
M  V30 781 N 90.1641 1.46063 -0.591896 0
M  V30 782 C 91.4121 2.01938 -0.0808391 0
M  V30 783 C 91.7331 1.46475 1.28725 0
M  V30 784 O 91.0031 0.652944 1.84698 0
M  V30 785 H 89.5831 0.746516 -0.0268938 0
M  V30 786 H 92.2451 1.79055 -0.769752 0
M  V30 787 H 91.3411 3.12094 -0.0187578 0
M  V30 788 N 91.6422 0.330177 1.54103 0
M  V30 789 C 92.8882 -0.270806 2.00984 0
M  V30 790 C 93.2212 -1.51265 1.21789 0
M  V30 791 O 92.4962 -1.92142 0.301927 0
M  V30 792 C 92.7792 -0.598339 3.55094 0
M  V30 793 C 92.6322 0.654674 4.4501 0
M  V30 794 C 93.9512 -1.41334 4.16789 0
M  V30 795 H 91.0702 -0.0969531 0.730595 0
M  V30 796 H 93.7122 0.448066 1.84641 0
M  V30 797 H 91.8622 -1.21078 3.69151 0
M  V30 798 H 93.5342 1.29285 4.42813 0
M  V30 799 H 91.7772 1.28224 4.14416 0
M  V30 800 H 92.4482 0.380944 5.50684 0
M  V30 801 H 94.9242 -0.895597 4.06347 0
M  V30 802 H 93.8002 -1.61127 5.24718 0
M  V30 803 H 94.0612 -2.41146 3.70541 0
M  V30 804 N 93.1203 -1.57491 0.0584922 0
M  V30 805 C 94.3503 -1.9701 -0.622134 0
M  V30 806 C 94.7583 -0.935034 -1.6448 0
M  V30 807 O 94.1013 0.0882904 -1.83488 0
M  V30 808 C 94.1633 -3.32794 -1.35972 0
M  V30 809 C 93.8273 -4.54343 -0.492043 0
M  V30 810 C 94.8243 -5.19323 0.244901 0
M  V30 811 C 92.5093 -5.00534 -0.420821 0
M  V30 812 C 94.5033 -6.28835 1.04143 0
M  V30 813 C 92.1903 -6.09921 0.379389 0
M  V30 814 C 93.1883 -6.73933 1.10919 0
M  V30 815 O 92.8763 -7.81216 1.89623 0
M  V30 816 H 92.6083 -0.653127 -0.174359 0
M  V30 817 H 95.1623 -2.05029 0.123418 0
M  V30 818 H 93.3923 -3.21351 -2.15105 0
M  V30 819 H 95.0813 -3.5701 -1.93129 0
M  V30 820 H 95.8473 -4.8459 0.19939 0
M  V30 821 H 91.7263 -4.50496 -0.978474 0
M  V30 822 H 95.2703 -6.7873 1.61157 0
M  V30 823 H 91.1673 -6.44089 0.426512 0
M  V30 824 H 91.9353 -7.98029 1.81913 0
M  V30 825 N 94.5984 0.214957 -1.56127 0
M  V30 826 C 95.5284 1.2695 -1.95974 0
M  V30 827 C 96.5094 1.48539 -0.828868 0
M  V30 828 O 97.6944 1.60611 -1.09168 0
M  V30 829 C 94.8244 2.61794 -2.28214 0
M  V30 830 C 93.7784 2.54851 -3.43853 0
M  V30 831 C 93.1044 3.93785 -3.61715 0
M  V30 832 C 94.4044 2.09065 -4.78632 0
M  V30 833 H 96.0984 0.93846 -2.84312 0
M  V30 834 H 93.6444 0.449996 -1.36788 0
M  V30 835 H 95.5974 3.35731 -2.54682 0
M  V30 836 H 94.3214 2.96599 -1.36736 0
M  V30 837 H 92.9804 1.8337 -3.17444 0
M  V30 838 H 92.6284 4.25908 -2.67602 0
M  V30 839 H 92.3284 3.90019 -4.39498 0
M  V30 840 H 93.8524 4.69374 -3.90539 0
M  V30 841 H 95.2664 2.7275 -5.04262 0
M  V30 842 H 93.6634 2.16346 -5.59745 0
M  V30 843 H 94.7334 1.04315 -4.73547 0
M  V30 844 N 96.0765 1.50051 0.48192 0
M  V30 845 C 97.4875 1.5348 1.06305 0
M  V30 846 C 97.8385 0.331997 1.93371 0
M  V30 847 O 96.9635 -0.556256 2.09129 0
M  V30 848 C 97.5585 2.7813 1.93466 0
M  V30 849 C 96.1175 2.84275 2.46707 0
M  V30 850 C 95.2645 2.47637 1.24785 0
M  V30 851 H 98.2155 1.56472 0.264995 0
M  V30 852 H 98.2365 2.59372 2.78399 0
M  V30 853 H 97.7485 3.65654 1.30072 0
M  V30 854 H 95.8495 2.01077 3.13686 0
M  V30 855 H 95.9625 3.8691 2.82555 0
M  V30 856 H 94.3265 1.99835 1.57918 0
M  V30 857 H 95.1095 3.37457 0.630694 0
M  V30 858 N 97.5546 -0.734337 1.39446 0
M  V30 859 C 98.9656 -1.31264 1.32766 0
M  V30 860 C 99.3166 -1.96198 -0.00767497 0
M  V30 861 O 98.4416 -1.96346 -0.909796 0
M  V30 862 C 99.0366 -2.38682 2.4045 0
M  V30 863 C 97.5956 -2.92184 2.37288 0
M  V30 864 C 96.7426 -1.6576 2.22304 0
M  V30 865 H 99.6936 -0.531799 1.49525 0
M  V30 866 H 99.7146 -3.19087 2.07276 0
M  V30 867 H 99.2266 -1.91392 3.37625 0
M  V30 868 H 97.3276 -3.43752 1.43754 0
M  V30 869 H 97.4406 -3.45253 3.3217 0
M  V30 870 H 95.8046 -1.9012 1.69489 0
M  V30 871 H 96.5876 -1.20521 3.21449 0
M  V30 872 N 99.0327 -1.24633 -0.964593 0
M  V30 873 C 99.9957 -1.0424 -2.04124 0
M  V30 874 C 100.996 0.00137563 -1.608 0
M  V30 875 O 102.186 -0.239883 -1.7254 0
M  V30 876 C 99.3177 -0.580588 -3.3592 0
M  V30 877 H 100.511 -1.99803 -2.23649 0
M  V30 878 H 98.0637 -1.06899 -1.14027 0
M  V30 879 H 98.7987 0.3781 -3.22088 0
M  V30 880 H 98.5837 -1.33398 -3.6871 0
M  V30 881 H 100.074 -0.459034 -4.15069 0
M  V30 882 N 100.511 1.16574 -1.06058 0
M  V30 883 C 101.474 2.19085 -0.673392 0
M  V30 884 C 102.474 1.5835 0.279648 0
M  V30 885 O 103.664 1.74088 0.0623488 0
M  V30 886 C 100.796 3.40899 0.00954234 0
M  V30 887 H 101.989 2.54853 -1.58081 0
M  V30 888 H 99.5418 1.30808 -0.855516 0
M  V30 889 H 100.277 3.10684 0.929826 0
M  V30 890 H 100.062 3.86233 -0.67573 0
M  V30 891 H 101.552 4.1675 0.266245 0
M  V30 892 N 101.989 0.842826 1.3317 0
M  V30 893 C 103.266 0.362216 1.92217 0
M  V30 894 C 103.646 -1.15289 1.76838 0
M  V30 895 O 102.994 -1.96914 1.15919 0
M  V30 896 C 103.204 0.813495 3.39387 0
M  V30 897 C 104.552 0.823804 4.16532 0
M  V30 898 O 105.576 0.757358 3.48055 0
M  V30 899 O 104.435 0.915193 5.38782 0
M  V30 900 H 101.529 0.103317 0.820521 0
M  V30 901 H 104.075 0.928942 1.42017 0
M  V30 902 H 102.847 1.85624 3.4447 0
M  V30 903 H 102.47 0.223561 3.96971 0
M  V30 904 N 103.467 -1.45747 0.599634 0
M  V30 905 C 104.397 -2.33235 -0.111306 0
M  V30 906 C 105.378 -1.46359 -0.866781 0
M  V30 907 O 106.563 -1.75146 -0.838904 0
M  V30 908 C 103.693 -3.28932 -1.11451 0
M  V30 909 C 102.647 -4.25381 -0.472772 0
M  V30 910 C 101.973 -5.1071 -1.58365 0
M  V30 911 C 103.273 -5.18831 0.600948 0
M  V30 912 H 104.967 -2.92927 0.61919 0
M  V30 913 H 102.513 -1.40857 0.299215 0
M  V30 914 H 104.466 -3.89002 -1.62036 0
M  V30 915 H 103.19 -2.67381 -1.8755 0
M  V30 916 H 101.849 -3.66598 0.0121472 0
M  V30 917 H 101.497 -4.45533 -2.33473 0
M  V30 918 H 101.197 -5.7604 -1.15982 0
M  V30 919 H 102.721 -5.73647 -2.09194 0
M  V30 920 H 104.135 -5.73019 0.179491 0
M  V30 921 H 102.532 -5.92595 0.946076 0
M  V30 922 H 103.602 -4.6174 1.48068 0
M  V30 923 N 104.945 -0.338344 -1.53925 0
M  V30 924 C 106.356 0.146651 -1.86123 0
M  V30 925 C 106.707 1.5042 -1.2597 0
M  V30 926 O 105.832 2.08723 -0.571294 0
M  V30 927 C 106.427 0.272879 -3.37699 0
M  V30 928 C 104.986 0.702103 -3.69794 0
M  V30 929 C 104.133 -0.167304 -2.76795 0
M  V30 930 H 107.084 -0.558123 -1.48562 0
M  V30 931 H 107.105 1.10128 -3.64214 0
M  V30 932 H 106.617 -0.715307 -3.81451 0
M  V30 933 H 104.718 1.6995 -3.31584 0
M  V30 934 H 104.831 0.495604 -4.7653 0
M  V30 935 H 103.195 0.359527 -2.5215 0
M  V30 936 H 103.978 -1.15253 -3.23375 0
M  V30 937 N 106.423 1.57458 -0.0668435 0
M  V30 938 C 107.653 1.97337 0.611677 0
M  V30 939 C 108.061 0.943744 1.63982 0
M  V30 940 O 107.404 -0.0785584 1.83532 0
M  V30 941 C 107.466 3.33511 1.34205 0
M  V30 942 C 107.13 4.54598 0.467941 0
M  V30 943 C 108.127 5.19186 -0.272439 0
M  V30 944 C 105.812 5.0075 0.39427 0
M  V30 945 C 107.806 6.28274 -1.07476 0
M  V30 946 C 105.493 6.09711 -0.411729 0
M  V30 947 C 106.491 6.73335 -1.14492 0
M  V30 948 O 106.179 7.80199 -1.93763 0
M  V30 949 H 105.911 0.654042 0.170893 0
M  V30 950 H 108.465 2.04961 -0.134289 0
M  V30 951 H 106.695 3.22487 2.13398 0
M  V30 952 H 108.384 3.58029 1.91233 0
M  V30 953 H 109.15 4.84477 -0.225086 0
M  V30 954 H 105.029 4.51009 0.954569 0
M  V30 955 H 108.573 6.77866 -1.64755 0
M  V30 956 H 104.47 6.43854 -0.460664 0
M  V30 957 H 105.238 7.97053 -1.86142 0
M  V30 958 N 107.901 -0.206675 1.56239 0
M  V30 959 C 109.149 -0.927007 1.79586 0
M  V30 960 C 109.47 -1.8427 0.637929 0
M  V30 961 O 108.74 -1.92849 -0.344398 0
M  V30 962 H 107.32 -0.345292 0.662407 0
M  V30 963 H 109.982 -0.21496 1.93711 0
M  V30 964 H 109.078 -1.52501 2.72305 0
M  V30 965 N 109.379 -1.50304 -0.473955 0
M  V30 966 C 110.309 -1.71886 -1.58042 0
M  V30 967 C 111.29 -0.567799 -1.60344 0
M  V30 968 O 112.475 -0.806623 -1.76656 0
M  V30 969 C 109.605 -1.81036 -2.96384 0
M  V30 970 C 108.559 -2.962 -3.08949 0
M  V30 971 C 107.885 -2.9049 -4.48909 0
M  V30 972 C 109.185 -4.36752 -2.86434 0
M  V30 973 H 110.879 -2.64527 -1.40234 0
M  V30 974 H 108.425 -1.27295 -0.673201 0
M  V30 975 H 110.378 -1.94719 -3.73714 0
M  V30 976 H 109.102 -0.850147 -3.15341 0
M  V30 977 H 107.761 -2.82164 -2.3405 0
M  V30 978 H 107.409 -1.92321 -4.64781 0
M  V30 979 H 107.109 -3.67802 -4.58253 0
M  V30 980 H 108.633 -3.06218 -5.28264 0
M  V30 981 H 110.047 -4.5133 -3.53517 0
M  V30 982 H 108.444 -5.15493 -3.07225 0
M  V30 983 H 109.514 -4.49321 -1.82316 0
M  V30 984 N 110.857 0.726932 -1.39834 0
M  V30 985 C 111.789 1.85147 -1.35104 0
M  V30 986 C 112.802 1.60736 -0.258392 0
M  V30 987 O 113.991 1.70821 -0.517931 0
M  V30 988 C 111.091 3.21332 -1.07697 0
M  V30 989 C 110.264 3.73033 -2.28396 0
M  V30 990 C 109.323 4.87802 -1.97322 0
M  V30 991 O 108.349 5.01043 -2.70083 0
M  V30 992 N 109.551 5.72768 -0.944273 0
M  V30 993 H 112.316 1.89706 -2.32017 0
M  V30 994 H 109.877 0.908006 -1.3404 0
M  V30 995 H 111.869 3.95691 -0.849144 0
M  V30 996 H 110.439 3.11992 -0.194909 0
M  V30 997 H 109.659 2.89934 -2.6708 0
M  V30 998 H 110.947 4.0431 -3.08887 0
M  V30 999 H 110.345 5.64669 -0.341427 0
M  V30 1000 H 108.902 6.4716 -0.776346 0
M  V30 1001 N 112.336 1.25143 0.95797 0
M  V30 1002 C 113.561 1.12521 1.74223 0
M  V30 1003 C 113.986 -0.317402 1.85403 0
M  V30 1004 O 113.344 -1.2299 1.33204 0
M  V30 1005 C 113.392 1.78062 3.1357 0
M  V30 1006 O 112.496 1.058 3.98598 0
M  V30 1007 H 111.837 0.39304 0.535178 0
M  V30 1008 H 114.367 1.65641 1.201 0
M  V30 1009 H 114.377 1.84213 3.64046 0
M  V30 1010 H 113.052 2.83021 3.04749 0
M  V30 1011 H 111.629 1.07506 3.57067 0
M  V30 1012 N 113.814 -1.1601 1.06675 0
M  V30 1013 C 115.054 -1.88304 0.795037 0
M  V30 1014 C 115.418 -1.80062 -0.666466 0
M  V30 1015 O 116.619 -2.47319 -1.05293 0
M  V30 1016 C 114.89 -3.33664 1.28076 0
M  V30 1017 S 116.449 -4.23768 1.13868 0
M  V30 1018 H 113.267 -0.649928 0.288296 0
M  V30 1019 H 115.869 -1.4001 1.36445 0
M  V30 1020 H 114.573 -3.37203 2.33927 0
M  V30 1021 H 114.104 -3.87009 0.706253 0
M  V30 1022 H 116.119 -4.96148 0.0719668 0
M  V30 1023 N 115.292 -0.849877 -1.32721 0
M  V30 1024 C 116.54 -0.450032 -1.97026 0
M  V30 1025 C 116.861 0.996604 -1.67609 0
M  V30 1026 O 116.131 1.6958 -0.980786 0
M  V30 1027 H 114.711 -0.163426 -0.728904 0
M  V30 1028 H 117.373 -1.08526 -1.6189 0
M  V30 1029 H 116.469 -0.591146 -3.0645 0
M  V30 1030 N 116.77 1.45427 -0.607355 0
M  V30 1031 C 117.7 2.3329 0.0989352 0
M  V30 1032 C 118.681 1.46816 0.859007 0
M  V30 1033 O 119.866 1.75588 0.829604 0
M  V30 1034 C 116.996 3.29518 1.09705 0
M  V30 1035 C 115.95 4.25626 0.450206 0
M  V30 1036 C 115.276 5.11542 1.55655 0
M  V30 1037 C 116.576 5.18505 -0.628455 0
M  V30 1038 H 118.27 2.92595 -0.634716 0
M  V30 1039 H 115.816 1.40696 -0.306681 0
M  V30 1040 H 117.769 3.89855 1.59971 0
M  V30 1041 H 116.493 2.68372 1.86129 0
M  V30 1042 H 115.152 3.66586 -0.0315886 0
M  V30 1043 H 114.8 4.46765 2.31107 0
M  V30 1044 H 114.5 5.76647 1.12925 0
M  V30 1045 H 116.024 5.74748 2.06148 0
M  V30 1046 H 117.438 5.72916 -0.209877 0
M  V30 1047 H 115.835 5.92085 -0.977489 0
M  V30 1048 H 116.905 4.60948 -1.50514 0
M  V30 1049 N 118.248 0.346503 1.53744 0
M  V30 1050 C 119.495 -0.249104 2.00962 0
M  V30 1051 C 119.823 -1.5032 1.23426 0
M  V30 1052 O 119.078 -1.93217 0.310761 0
M  V30 1053 C 119.377 -0.605809 3.52228 0
M  V30 1054 C 119.043 0.551747 4.47512 0
M  V30 1055 C 117.705 0.86941 4.73281 0
M  V30 1056 C 120.057 1.32818 5.03993 0
M  V30 1057 C 117.385 1.96582 5.52786 0
M  V30 1058 C 119.737 2.41486 5.84694 0
M  V30 1059 C 118.401 2.73808 6.08757 0
M  V30 1060 H 117.671 -0.0911538 0.735372 0
M  V30 1061 H 120.318 0.475027 1.85515 0
M  V30 1062 H 118.623 -1.4107 3.65522 0
M  V30 1063 H 120.32 -1.07858 3.86222 0
M  V30 1064 H 116.91 0.294102 4.2759 0
M  V30 1065 H 121.094 1.09602 4.84047 0
M  V30 1066 H 116.35 2.22045 5.69654 0
M  V30 1067 H 120.524 3.02078 6.27473 0
M  V30 1068 H 118.151 3.58892 6.7015 0
M  V30 1069 N 119.726 -1.57421 0.075193 0
M  V30 1070 C 121.137 -1.81021 -0.456964 0
M  V30 1071 C 121.488 -0.98936 -1.69429 0
M  V30 1072 O 120.613 -0.212865 -2.15351 0
M  V30 1073 C 121.208 -3.28329 -0.83581 0
M  V30 1074 C 119.767 -3.52764 -1.31281 0
M  V30 1075 C 118.914 -2.75676 -0.299648 0
M  V30 1076 H 121.865 -1.55822 0.300856 0
M  V30 1077 H 121.886 -3.40564 -1.69696 0
M  V30 1078 H 121.398 -3.88046 0.0649238 0
M  V30 1079 H 119.499 -2.98355 -2.23193 0
M  V30 1080 H 119.612 -4.61451 -1.28839 0
M  V30 1081 H 117.976 -2.42538 -0.777641 0
M  V30 1082 H 118.759 -3.38132 0.593417 0
M  V30 1083 N 121.204 0.198386 -1.56346 0
M  V30 1084 C 122.432 0.935572 -1.84539 0
M  V30 1085 C 122.847 1.76989 -0.657281 0
M  V30 1086 O 122.204 1.78626 0.374043 0
M  V30 1087 C 122.255 1.8344 -3.11499 0
M  V30 1088 O 121.976 1.03377 -4.25728 0
M  V30 1089 C 123.477 2.68355 -3.52846 0
M  V30 1090 H 120.697 0.273126 -0.612897 0
M  V30 1091 H 123.241 0.20663 -2.03453 0
M  V30 1092 H 121.396 2.51701 -2.94492 0
M  V30 1093 H 121.81 1.64599 -4.98003 0
M  V30 1094 H 123.284 3.27085 -4.44657 0
M  V30 1095 H 123.761 3.41901 -2.75681 0
M  V30 1096 H 124.367 2.05471 -3.72373 0
M  V30 1097 N 122.682 1.50554 0.465978 0
M  V30 1098 C 123.612 1.72722 1.57128 0
M  V30 1099 C 124.593 0.576294 1.6004 0
M  V30 1100 O 125.778 0.81598 1.76225 0
M  V30 1101 C 122.908 1.82605 2.95419 0
M  V30 1102 C 121.862 2.97835 3.07373 0
M  V30 1103 C 121.188 2.92867 4.47363 0
M  V30 1104 C 122.488 4.38265 2.84114 0
M  V30 1105 H 124.182 2.65267 1.38829 0
M  V30 1106 H 121.728 1.2765 0.666441 0
M  V30 1107 H 123.681 1.96698 3.72677 0
M  V30 1108 H 122.405 0.866858 3.14886 0
M  V30 1109 H 121.064 2.83401 2.3255 0
M  V30 1110 H 120.712 1.94783 4.63755 0
M  V30 1111 H 120.412 3.70227 4.56296 0
M  V30 1112 H 121.936 3.09015 5.26633 0
M  V30 1113 H 123.35 4.53198 3.51118 0
M  V30 1114 H 121.747 5.17115 3.04487 0
M  V30 1115 H 122.817 4.50281 1.7993 0
M  V30 1116 N 124.16 -0.719506 1.40217 0
M  V30 1117 C 125.408 -1.47641 1.3801 0
M  V30 1118 C 125.729 -1.94992 -0.018145 0
M  V30 1119 O 124.999 -1.70073 -0.972207 0
M  V30 1120 H 123.579 -0.547744 0.507923 0
M  V30 1121 H 126.241 -0.853187 1.75233 0
M  V30 1122 H 125.337 -2.35112 2.05253 0
M  V30 1123 N 125.638 -1.25649 -0.95132 0
M  V30 1124 C 126.886 -1.10375 -1.69298 0
M  V30 1125 C 127.207 0.355339 -1.91735 0
M  V30 1126 O 126.477 1.25188 -1.50681 0
M  V30 1127 H 125.057 -0.405461 -0.627384 0
M  V30 1128 H 127.719 -1.57823 -1.14358 0
M  V30 1129 H 126.815 -1.61465 -2.67087 0
M  V30 1130 N 127.117 1.15442 -1.07289 0
M  V30 1131 C 128.064 2.20161 -0.692653 0
M  V30 1132 C 129.034 1.63073 0.31564 0
M  V30 1133 O 130.219 1.89725 0.202235 0
M  V30 1134 C 127.359 3.44967 -0.0959509 0
M  V30 1135 C 126.472 4.16256 -1.15564 0
M  V30 1136 C 125.607 5.28609 -0.524011 0
M  V30 1137 C 124.646 5.91715 -1.56653 0
M  V30 1138 N 123.783 6.9554 -0.957531 0
M  V30 1139 H 128.623 2.52037 -1.59002 0
M  V30 1140 H 126.16 1.2378 -0.794798 0
M  V30 1141 H 128.118 4.16341 0.267628 0
M  V30 1142 H 126.748 3.1361 0.764772 0
M  V30 1143 H 125.8 3.43385 -1.6368 0
M  V30 1144 H 127.112 4.59268 -1.94613 0
M  V30 1145 H 126.266 6.06604 -0.108032 0
M  V30 1146 H 125.005 4.86787 0.29825 0
M  V30 1147 H 124.01 5.12433 -1.9923 0
M  V30 1148 H 125.235 6.35614 -2.39107 0
M  V30 1149 H 123.181 6.55814 -0.156162 0
M  V30 1150 H 123.098 7.36977 -1.68526 0
M  V30 1151 H 124.366 7.77435 -0.567032 0
M  V30 1152 N 128.595 0.856903 1.32268 0
M  V30 1153 C 130.011 0.547061 1.49931 0
M  V30 1154 C 130.211 -0.921781 1.7918 0
M  V30 1155 O 129.267 -1.70469 1.8627 0
M  V30 1156 C 130.58 1.43599 2.64196 0
M  V30 1157 C 132.128 1.43665 2.78081 0
M  V30 1158 C 132.603 2.31085 3.95428 0
M  V30 1159 N 134.094 2.28893 4.02694 0
M  V30 1160 C 134.829 2.93262 4.92732 0
M  V30 1161 N 134.325 3.66751 5.87763 0
M  V30 1162 N 136.118 2.82638 4.85873 0
M  V30 1163 H 128.269 1.8075 1.11549 0
M  V30 1164 H 130.532 0.772144 0.549997 0
M  V30 1165 H 130.238 2.48058 2.49319 0
M  V30 1166 H 130.112 1.12502 3.60032 0
M  V30 1167 H 132.499 0.399701 2.92381 0
M  V30 1168 H 132.58 1.7878 1.82952 0
M  V30 1169 H 132.224 3.34849 3.81888 0
M  V30 1170 H 132.154 1.93302 4.89839 0
M  V30 1171 H 134.645 1.75466 3.34694 0
M  V30 1172 H 134.958 4.13027 6.53168 0
M  V30 1173 H 133.303 3.70859 5.87783 0
M  V30 1174 H 136.494 2.24774 4.10602 0
M  V30 1175 H 136.667 3.33084 5.55841 0
M  V30 1176 N 130.073 -1.45103 0.615059 0
M  V30 1177 C 131.021 -2.32331 -0.111791 0
M  V30 1178 C 132.015 -1.46409 -0.852102 0
M  V30 1179 O 133.221 -1.62849 -0.766821 0
M  V30 1180 H 129.596 -0.749993 -0.0549072 0
M  V30 1181 H 131.567 -2.91407 0.642225 0
M  V30 1182 C 130.316 -3.3015 -1.09071 0
M  V30 1183 H 129.639 -3.96265 -0.530485 0
M  V30 1184 H 131.079 -3.93898 -1.56908 0
M  V30 1185 C 129.538 -2.57875 -2.168 0
M  V30 1186 O 130.068 -2.36567 -3.24652 0
M  V30 1187 N 128.274 -2.17884 -1.92289 0
M  V30 1188 H 127.821 -2.35413 -1.04587 0
M  V30 1189 H 127.779 -1.6985 -2.64572 0
M  V30 1190 N 131.551 -0.354651 -1.53558 0
M  V30 1191 C 132.461 0.50515 -2.29097 0
M  V30 1192 C 133.477 1.10223 -1.34636 0
M  V30 1193 O 134.653 1.11553 -1.67684 0
M  V30 1194 C 131.718 1.63479 -3.05738 0
M  V30 1195 C 130.779 1.06636 -4.15845 0
M  V30 1196 C 130.012 2.14217 -4.88822 0
M  V30 1197 O 130.235 3.35137 -4.61562 0
M  V30 1198 O 129.169 1.77887 -5.75013 0
M  V30 1199 H 132.995 -0.109237 -3.03503 0
M  V30 1200 H 130.58 -0.119357 -1.48922 0
M  V30 1201 H 132.462 2.2918 -3.5363 0
M  V30 1202 H 131.137 2.23478 -2.34178 0
M  V30 1203 H 130.044 0.373565 -3.7223 0
M  V30 1204 H 131.377 0.511081 -4.89539 0
M  V30 1205 N 133.029 1.57378 -0.0835403 0
M  V30 1206 C 133.992 2.12252 0.864959 0
M  V30 1207 C 134.992 1.04916 1.21858 0
M  V30 1208 O 136.182 1.30853 1.14991 0
M  V30 1209 C 133.314 2.63358 2.16461 0
M  V30 1210 H 134.507 2.97371 0.388676 0
M  V30 1211 H 132.06 1.55423 0.165317 0
M  V30 1212 H 132.795 1.81727 2.686 0
M  V30 1213 H 132.58 3.41826 1.92087 0
M  V30 1214 H 134.07 3.05847 2.84337 0
M  V30 1215 N 134.507 -0.190092 1.56449 0
M  V30 1216 C 135.47 -1.21925 1.9408 0
M  V30 1217 C 136.47 -1.38176 0.822431 0
M  V30 1218 O 137.66 -1.35903 1.08977 0
M  V30 1219 C 134.792 -2.58773 2.21922 0
M  V30 1220 H 135.985 -0.897464 2.86157 0
M  V30 1221 H 133.538 -0.43181 1.50217 0
M  V30 1222 H 134.273 -2.95998 1.32499 0
M  V30 1223 H 134.058 -2.48348 3.03424 0
M  V30 1224 H 135.548 -3.32978 2.52022 0
M  V30 1225 N 135.985 -1.50799 -0.457987 0
M  V30 1226 C 137.21 -1.66496 -1.23668 0
M  V30 1227 C 137.635 -0.353288 -1.84752 0
M  V30 1228 O 136.993 0.684346 -1.67888 0
M  V30 1229 C 137.041 -2.76763 -2.3116 0
M  V30 1230 O 136.145 -2.38928 -3.36136 0
M  V30 1231 H 135.486 -0.555828 -0.363252 0
M  V30 1232 H 138.016 -1.9725 -0.543474 0
M  V30 1233 H 138.026 -3.00232 -2.76269 0
M  V30 1234 H 136.701 -3.71954 -1.86073 0
M  V30 1235 H 135.278 -2.25953 -2.96647 0
M  V30 1236 N 137.463 0.71206 -1.40597 0
M  V30 1237 C 138.874 1.29135 -1.34837 0
M  V30 1238 C 139.225 1.96186 -0.0235395 0
M  V30 1239 O 138.35 1.97768 0.878444 0
M  V30 1240 C 138.945 2.34827 -2.44217 0
M  V30 1241 C 137.504 2.88371 -2.41907 0
M  V30 1242 C 136.651 1.62202 -2.24913 0
M  V30 1243 H 139.602 0.507944 -1.50352 0
M  V30 1244 H 139.623 3.15749 -2.12327 0
M  V30 1245 H 139.135 1.85996 -3.40627 0
M  V30 1246 H 137.236 3.41422 -1.49204 0
M  V30 1247 H 137.349 3.39925 -3.37621 0
M  V30 1248 H 135.713 1.874 -1.72492 0
M  V30 1249 H 136.496 1.15391 -3.23326 0
M  V30 1250 N 138.941 1.26152 0.944643 0
M  V30 1251 C 140.189 1.11271 1.6871 0
M  V30 1252 C 140.51 -0.345166 1.91921 0
M  V30 1253 O 139.78 -1.24387 1.51343 0
M  V30 1254 H 138.36 0.408783 0.625224 0
M  V30 1255 H 141.022 1.58427 1.1352 0
M  V30 1256 H 140.118 1.62879 2.66227 0
M  V30 1257 N 140.419 -1.14872 1.07899 0
M  V30 1258 C 141.644 -1.90202 0.826926 0
M  V30 1259 C 142.069 -1.77774 -0.614664 0
M  V30 1260 O 141.427 -1.11431 -1.43013 0
M  V30 1261 C 141.475 -3.38352 1.24702 0
M  V30 1262 O 140.579 -4.10497 0.39575 0
M  V30 1263 H 139.92 -0.591968 0.300782 0
M  V30 1264 H 142.45 -1.45437 1.43907 0
M  V30 1265 H 142.46 -3.89156 1.22563 0
M  V30 1266 H 141.135 -3.46715 2.29698 0
M  V30 1267 H 139.712 -3.69796 0.480117 0
M  V30 1268 N 141.898 -0.863906 -1.31812 0
M  V30 1269 C 143.146 -0.470904 -1.96537 0
M  V30 1270 C 143.467 0.978771 -1.68657 0
M  V30 1271 O 142.737 1.6853 -0.998717 0
M  V30 1272 H 141.317 -0.171148 -0.72713 0
M  V30 1273 H 143.979 -1.10236 -1.60729 0
M  V30 1274 H 143.075 -0.623616 -3.05806 0
M  V30 1275 N 143.376 1.44774 -0.622745 0
M  V30 1276 C 144.624 2.01721 -0.123655 0
M  V30 1277 C 144.945 1.49172 1.25589 0
M  V30 1278 O 144.215 0.691974 1.83272 0
M  V30 1279 H 142.795 0.745777 -0.0427225 0
M  V30 1280 H 145.457 1.77382 -0.807559 0
M  V30 1281 H 144.553 3.11984 -0.0849534 0
M  V30 1282 N 144.854 0.36279 1.53368 0
M  V30 1283 C 146.102 -0.227326 2.00817 0
M  V30 1284 C 146.423 -1.49511 1.25186 0
M  V30 1285 O 145.693 -1.92482 0.364348 0
M  V30 1286 H 144.273 -0.0869923 0.741917 0
M  V30 1287 H 146.935 0.488381 1.88682 0
M  V30 1288 H 146.031 -0.456273 3.08747 0
M  V30 1289 N 146.332 -1.57332 0.0918853 0
M  V30 1290 C 147.58 -1.93853 -0.571446 0
M  V30 1291 C 147.901 -0.974212 -1.6892 0
M  V30 1292 O 147.171 -0.0257254 -1.95883 0
M  V30 1293 H 145.751 -0.715666 -0.214082 0
M  V30 1294 H 148.413 -1.94287 0.154464 0
M  V30 1295 H 147.509 -2.96191 -0.983729 0
M  V30 1296 N 147.81 0.181792 -1.56548 0
M  V30 1297 C 149.058 0.89832 -1.81038 0
M  V30 1298 C 149.379 1.83232 -0.667164 0
M  V30 1299 O 148.649 1.93372 0.313673 0
M  V30 1300 H 147.229 0.33471 -0.667816 0
M  V30 1301 H 149.891 0.184116 -1.94028 0
M  V30 1302 H 148.987 1.4815 -2.74696 0
M  V30 1303 N 149.288 1.51039 0.449983 0
M  V30 1304 C 150.536 1.62759 1.19808 0
M  V30 1305 C 150.857 0.339981 1.92013 0
M  V30 1306 O 150.127 -0.643606 1.85026 0
M  V30 1307 H 148.707 0.599811 0.445237 0
M  V30 1308 H 151.369 1.87914 0.517138 0
M  V30 1309 H 150.465 2.44911 1.93455 0
M  V30 1310 N 150.766 -0.704594 1.40972 0
M  V30 1311 C 151.696 -1.83124 1.44872 0
M  V30 1312 C 152.677 -1.67281 0.30838 0
M  V30 1313 O 153.862 -1.87149 0.518556 0
M  V30 1314 C 150.992 -3.21181 1.32136 0
M  V30 1315 C 149.946 -3.51714 2.43888 0
M  V30 1316 C 149.272 -4.89032 2.16222 0
M  V30 1317 C 150.572 -3.516 3.86232 0
M  V30 1318 H 152.266 -1.80117 2.39161 0
M  V30 1319 H 149.812 -0.865145 1.15114 0
M  V30 1320 H 151.765 -3.99702 1.33479 0
M  V30 1321 H 150.489 -3.24791 0.343279 0
M  V30 1322 H 149.148 -2.75539 2.41813 0
M  V30 1323 H 148.796 -4.89256 1.16778 0
M  V30 1324 H 148.496 -5.10426 2.911 0
M  V30 1325 H 150.02 -5.69873 2.19265 0
M  V30 1326 H 151.434 -4.2014 3.9007 0
M  V30 1327 H 149.831 -3.84523 4.60719 0
M  V30 1328 H 150.901 -2.50757 4.15029 0
M  V30 1329 N 152.244 -1.26651 -0.937939 0
M  V30 1330 C 153.492 -1.12165 -1.68118 0
M  V30 1331 C 153.813 0.334983 -1.92101 0
M  V30 1332 O 153.083 1.23583 -1.52 0
M  V30 1333 H 151.663 -0.412093 -0.623048 0
M  V30 1334 H 154.325 -1.59027 -1.12678 0
M  V30 1335 H 153.421 -1.64289 -2.6536 0
M  V30 1336 N 153.722 1.14298 -1.08507 0
M  V30 1337 C 155.133 1.66926 -0.836227 0
M  V30 1338 C 155.484 1.85576 0.63686 0
M  V30 1339 O 154.609 1.56767 1.49175 0
M  V30 1340 C 155.204 3.03219 -1.51142 0
M  V30 1341 C 153.763 3.52876 -1.30979 0
M  V30 1342 C 152.91 2.2833 -1.57356 0
M  V30 1343 H 155.861 0.983491 -1.24552 0
M  V30 1344 H 155.882 3.68726 -0.939211 0
M  V30 1345 H 155.394 2.89612 -2.58353 0
M  V30 1346 H 153.495 3.71703 -0.258429 0
M  V30 1347 H 153.608 4.33586 -2.03814 0
M  V30 1348 H 151.972 2.34454 -0.995164 0
M  V30 1349 H 152.755 2.17298 -2.65775 0
M  V30 1350 N 155.201 0.870884 1.31352 0
M  V30 1351 C 156.449 0.48132 1.96285 0
M  V30 1352 C 156.77 -0.969813 1.69173 0
M  V30 1353 O 156.04 -1.67998 1.00764 0
M  V30 1354 H 154.62 0.175002 0.726212 0
M  V30 1355 H 157.282 1.11087 1.60143 0
M  V30 1356 H 156.378 0.639825 3.05471 0
M  V30 1357 N 156.679 -1.44442 0.630414 0
M  V30 1358 C 157.642 -2.29107 -0.0652523 0
M  V30 1359 C 158.642 -1.41002 -0.772995 0
M  V30 1360 O 159.832 -1.62881 -0.617692 0
M  V30 1361 C 156.964 -3.22564 -1.10296 0
M  V30 1362 H 158.157 -2.92103 0.679401 0
M  V30 1363 H 155.71 -1.51343 0.390517 0
M  V30 1364 H 156.445 -2.64416 -1.87762 0
M  V30 1365 H 156.23 -3.87491 -0.59941 0
M  V30 1366 H 157.72 -3.86167 -1.5895 0
M  V30 1367 N 158.157 -0.370918 -1.53173 0
M  V30 1368 C 159.107 0.489588 -2.22681 0
M  V30 1369 C 160.091 1.04442 -1.22395 0
M  V30 1370 O 161.283 0.973578 -1.47819 0
M  V30 1371 C 158.412 1.626 -3.02351 0
M  V30 1372 C 157.498 1.08379 -4.10018 0
M  V30 1373 N 157.889 0.265004 -5.05105 0
M  V30 1374 C 156.187 1.35809 -4.2482 0
M  V30 1375 C 156.888 -0.0324755 -5.81691 0
M  V30 1376 N 155.864 0.566581 -5.40639 0
M  V30 1377 H 159.666 -0.142729 -2.93553 0
M  V30 1378 H 157.18 -0.179221 -1.61408 0
M  V30 1379 H 159.177 2.2547 -3.50669 0
M  V30 1380 H 157.837 2.26132 -2.33011 0
M  V30 1381 H 158.848 -0.0962352 -5.17811 0
M  V30 1382 H 155.525 1.9958 -3.66707 0
M  V30 1383 H 156.915 -0.69473 -6.68299 0
M  V30 1384 N 159.635 1.57281 -0.100228 0
M  V30 1385 C 160.883 1.94153 0.561157 0
M  V30 1386 C 161.204 0.983157 1.68401 0
M  V30 1387 O 160.474 0.0361132 1.95867 0
M  V30 1388 H 159.054 0.716791 0.210283 0
M  V30 1389 H 161.716 1.94202 -0.164765 0
M  V30 1390 H 160.812 2.96709 0.968008 0
M  V30 1391 N 161.113 -0.173488 1.56642 0
M  V30 1392 C 162.343 -0.904781 1.85734 0
M  V30 1393 C 162.751 -1.76431 0.68328 0
M  V30 1394 O 162.094 -1.802 -0.356865 0
M  V30 1395 C 162.156 -1.83382 3.09211 0
M  V30 1396 C 161.82 -1.15411 4.42187 0
M  V30 1397 C 162.817 -0.520609 5.17287 0
M  V30 1398 C 160.502 -1.15151 4.88923 0
M  V30 1399 C 162.496 0.106412 6.37311 0
M  V30 1400 C 160.183 -0.520664 6.08878 0
M  V30 1401 C 161.181 0.107196 6.82916 0
M  V30 1402 O 160.869 0.728102 8.00596 0
M  V30 1403 H 160.601 -0.268408 0.62043 0
M  V30 1404 H 163.155 -0.179096 2.04618 0
M  V30 1405 H 161.385 -2.59976 2.86268 0
M  V30 1406 H 163.074 -2.43476 3.24768 0
M  V30 1407 H 163.84 -0.514606 4.82262 0
M  V30 1408 H 159.719 -1.62961 4.31236 0
M  V30 1409 H 163.263 0.597081 6.9504 0
M  V30 1410 H 159.16 -0.524242 6.43368 0
M  V30 1411 H 159.928 0.627138 8.16094 0
M  V30 1412 N 162.591 -1.51276 -0.441967 0
M  V30 1413 C 163.839 -1.63392 -1.18943 0
M  V30 1414 C 164.16 -0.350159 -1.9183 0
M  V30 1415 O 163.43 0.633784 -1.85364 0
M  V30 1416 H 162.01 -0.602164 -0.442049 0
M  V30 1417 H 164.672 -1.88186 -0.507165 0
M  V30 1418 H 163.768 -2.45934 -1.92154 0
M  V30 1419 N 164.069 0.697108 -1.41344 0
M  V30 1420 C 165.48 1.27697 -1.36199 0
M  V30 1421 C 165.831 1.9615 -0.0443463 0
M  V30 1422 O 164.956 1.98689 0.857419 0
M  V30 1423 C 165.551 2.32223 -2.46694 0
M  V30 1424 C 164.11 2.8579 -2.44952 0
M  V30 1425 C 163.257 1.59807 -2.26621 0
M  V30 1426 H 166.208 0.491968 -1.50882 0
M  V30 1427 H 166.229 3.1348 -2.15664 0
M  V30 1428 H 165.741 1.82373 -3.42581 0
M  V30 1429 H 163.842 3.3982 -1.52817 0
M  V30 1430 H 163.955 3.36325 -3.41207 0
M  V30 1431 H 162.319 1.8556 -1.7447 0
M  V30 1432 H 163.102 1.11956 -3.24532 0
M  V30 1433 N 165.547 1.27147 0.931209 0
M  V30 1434 C 166.772 1.16191 1.71797 0
M  V30 1435 C 167.197 -0.278004 1.86034 0
M  V30 1436 O 166.555 -1.20137 1.35782 0
M  V30 1437 C 166.603 1.84673 3.09723 0
M  V30 1438 O 165.707 1.14231 3.96264 0
M  V30 1439 H 165.048 0.404303 0.526721 0
M  V30 1440 H 167.578 1.68152 1.1656 0
M  V30 1441 H 167.588 1.91893 3.60057 0
M  V30 1442 H 166.263 2.89421 2.98677 0
M  V30 1443 H 164.84 1.15056 3.54706 0
M  V30 1444 N 167.025 -1.13721 1.09112 0
M  V30 1445 C 168.436 -1.6648 0.845068 0
M  V30 1446 C 168.787 -1.85911 -0.62701 0
M  V30 1447 O 167.912 -1.57556 -1.48341 0
M  V30 1448 C 168.507 -3.02413 1.52748 0
M  V30 1449 C 167.066 -3.52176 1.32849 0
M  V30 1450 C 166.213 -2.27492 1.58564 0
M  V30 1451 H 169.164 -0.976872 1.25072 0
M  V30 1452 H 169.185 -3.68223 0.958752 0
M  V30 1453 H 168.697 -2.88238 2.59885 0
M  V30 1454 H 166.798 -3.7156 0.278137 0
M  V30 1455 H 166.911 -4.32499 2.0611 0
M  V30 1456 H 165.275 -2.33923 1.00758 0
M  V30 1457 H 166.058 -2.15886 2.66924 0
M  V30 1458 N 168.503 -0.877838 -1.30888 0
M  V30 1459 C 169.752 -0.488793 -1.95688 0
M  V30 1460 C 170.065 0.965485 -1.70111 0
M  V30 1461 O 171.271 1.46104 -2.28836 0
M  V30 1462 C 169.727 -0.823201 -3.50359 0
M  V30 1463 C 169.335 -2.29477 -3.84765 0
M  V30 1464 C 171.079 -0.503009 -4.21509 0
M  V30 1465 C 168.986 -2.57118 -5.32583 0
M  V30 1466 H 167.916 -0.179062 -0.732429 0
M  V30 1467 H 170.567 -1.07183 -1.48943 0
M  V30 1468 H 168.949 -0.169331 -3.95638 0
M  V30 1469 H 170.123 -2.99236 -3.5042 0
M  V30 1470 H 168.438 -2.58178 -3.267 0
M  V30 1471 H 171.035 -0.68665 -5.30273 0
M  V30 1472 H 171.378 0.557109 -4.12555 0
M  V30 1473 H 171.911 -1.11376 -3.8189 0
M  V30 1474 H 168.65 -3.61843 -5.4658 0
M  V30 1475 H 168.17 -1.91961 -5.68253 0
M  V30 1476 H 169.849 -2.42251 -5.99936 0
M  V30 1477 N 169.982 1.44106 -0.638065 0
M  V30 1478 C 171.259 1.95453 -0.0759321 0
M  V30 1479 C 171.639 1.57984 1.40015 0
M  V30 1480 O 170.987 0.857361 2.11806 0
M  V30 1481 C 171.197 3.47655 -0.306132 0
M  V30 1482 C 172.545 4.24114 -0.203008 0
M  V30 1483 O 173.569 3.55405 -0.237871 0
M  V30 1484 O 172.428 5.46381 -0.113827 0
M  V30 1485 H 169.522 0.826797 0.0183332 0
M  V30 1486 H 172.068 1.54122 -0.710251 0
M  V30 1487 H 170.84 3.68 -1.3301 0
M  V30 1488 H 170.463 3.95949 0.361991 0
M  V30 1489 N 171.46 0.379036 1.52974 0
M  V30 1490 C 172.39 -0.452706 2.29069 0
M  V30 1491 C 173.371 -1.07237 1.32039 0
M  V30 1492 O 174.556 -1.08708 1.60923 0
M  V30 1493 C 171.686 -1.5856 3.08992 0
M  V30 1494 C 170.64 -1.0925 4.13822 0
M  V30 1495 C 169.966 -2.31668 4.81907 0
M  V30 1496 C 171.266 -0.167702 5.22031 0
M  V30 1497 H 172.96 0.182181 2.98845 0
M  V30 1498 H 170.506 0.0890592 1.43724 0
M  V30 1499 H 172.459 -2.1742 3.6098 0
M  V30 1500 H 171.183 -2.24792 2.36931 0
M  V30 1501 H 169.842 -0.526494 3.628 0
M  V30 1502 H 169.49 -2.96386 4.06404 0
M  V30 1503 H 169.19 -1.9934 5.52754 0
M  V30 1504 H 170.714 -2.91189 5.36695 0
M  V30 1505 H 172.128 -0.664186 5.6944 0
M  V30 1506 H 170.525 0.0653265 6.00064 0
M  V30 1507 H 171.595 0.786347 4.78482 0
M  V30 1508 N 172.938 -1.57226 0.108567 0
M  V30 1509 C 174.184 -1.95919 -0.546564 0
M  V30 1510 C 174.539 -0.990417 -1.6495 0
M  V30 1511 O 173.832 -0.0186593 -1.91591 0
M  V30 1512 C 174.026 -3.38911 -1.13463 0
M  V30 1513 C 173.855 -4.4961 -0.0901926 0
M  V30 1514 C 172.625 -5.04168 0.338008 0
M  V30 1515 C 174.823 -5.09693 0.686808 0
M  V30 1516 N 172.805 -5.98434 1.36931 0
M  V30 1517 C 174.176 -5.99804 1.56958 0
M  V30 1518 C 176.231 -4.92388 0.738846 0
M  V30 1519 C 174.934 -6.74463 2.49983 0
M  V30 1520 C 176.96 -5.67719 1.65676 0
M  V30 1521 C 176.322 -6.57507 2.52713 0
M  V30 1522 H 172.421 -0.763312 -0.169936 0
M  V30 1523 H 175.005 -1.93728 0.194264 0
M  V30 1524 H 173.176 -3.41769 -1.84522 0
M  V30 1525 H 174.908 -3.64752 -1.75322 0
M  V30 1526 H 171.663 -4.73571 -0.0523673 0
M  V30 1527 H 172.087 -6.5027 1.88356 0
M  V30 1528 H 176.729 -4.22724 0.080084 0
M  V30 1529 H 174.447 -7.4338 3.16878 0
M  V30 1530 H 178.033 -5.56338 1.70233 0
M  V30 1531 H 176.913 -7.14778 3.22586 0
M  V30 1532 N 174.416 0.165178 -1.56732 0
M  V30 1533 C 175.346 1.20651 -1.99914 0
M  V30 1534 C 176.327 1.45827 -0.875705 0
M  V30 1535 O 177.512 1.57057 -1.14223 0
M  V30 1536 C 174.642 2.54401 -2.36427 0
M  V30 1537 C 173.596 2.43782 -3.51787 0
M  V30 1538 C 172.922 3.82078 -3.7406 0
M  V30 1539 C 174.222 1.93732 -4.85041 0
M  V30 1540 H 175.916 0.847534 -2.87154 0
M  V30 1541 H 173.462 0.40625 -1.38151 0
M  V30 1542 H 175.415 3.27458 -2.65234 0
M  V30 1543 H 174.139 2.92098 -1.46103 0
M  V30 1544 H 172.798 1.73178 -3.23117 0
M  V30 1545 H 172.446 4.17179 -2.81017 0
M  V30 1546 H 172.146 3.7584 -4.51684 0
M  V30 1547 H 173.67 4.56712 -4.05274 0
M  V30 1548 H 175.084 2.56569 -5.12684 0
M  V30 1549 H 173.481 1.98428 -5.66345 0
M  V30 1550 H 174.551 0.891962 -4.76626 0
M  V30 1551 N 175.894 1.51508 0.433938 0
M  V30 1552 C 177.171 1.54888 1.19453 0
M  V30 1553 C 177.551 0.315154 2.08734 0
M  V30 1554 O 176.899 -0.699558 2.17528 0
M  V30 1555 C 177.109 2.86467 1.99342 0
M  V30 1556 C 178.457 3.38545 2.56267 0
M  V30 1557 O 179.481 2.88041 2.0955 0
M  V30 1558 O 178.34 4.26675 3.41483 0
M  V30 1559 H 175.434 0.622863 0.544032 0
M  V30 1560 H 177.98 1.63823 0.442732 0
M  V30 1561 H 176.752 3.67718 1.33788 0
M  V30 1562 H 176.375 2.8071 2.8158 0
M  V30 1563 N 177.372 -0.689602 1.41712 0
M  V30 1564 C 178.335 -1.78521 1.43746 0
M  V30 1565 C 179.335 -1.57436 0.327191 0
M  V30 1566 O 180.525 -1.64 0.587348 0
M  V30 1567 C 177.657 -3.16971 1.25467 0
M  V30 1568 H 178.85 -1.78108 2.41283 0
M  V30 1569 H 176.403 -0.89781 1.27942 0
M  V30 1570 H 177.138 -3.23019 0.287948 0
M  V30 1571 H 176.923 -3.33678 2.05917 0
M  V30 1572 H 178.413 -3.96935 1.2974 0
M  V30 1573 N 178.85 -1.27639 -0.924453 0
M  V30 1574 C 180.261 -1.12834 -1.48746 0
M  V30 1575 C 180.612 0.285505 -1.94112 0
M  V30 1576 O 179.737 1.17874 -1.81479 0
M  V30 1577 C 180.332 -2.04217 -2.70334 0
M  V30 1578 C 178.891 -1.93509 -3.22848 0
M  V30 1579 C 178.038 -1.96583 -1.95577 0
M  V30 1580 H 180.989 -1.40484 -0.738233 0
M  V30 1581 H 181.01 -1.59989 -3.4523 0
M  V30 1582 H 180.522 -3.07111 -2.37285 0
M  V30 1583 H 178.623 -0.936131 -3.60649 0
M  V30 1584 H 178.736 -2.79917 -3.88823 0
M  V30 1585 H 177.1 -1.4085 -2.12211 0
M  V30 1586 H 177.883 -3.01137 -1.64837 0
M  V30 1587 N 180.328 1.1314 -1.09713 0
M  V30 1588 C 181.744 1.36477 -0.827423 0
M  V30 1589 C 181.944 1.93654 0.556817 0
M  V30 1590 O 181 2.15791 1.31112 0
M  V30 1591 C 182.313 2.31334 -1.92106 0
M  V30 1592 C 183.861 2.44943 -1.94864 0
M  V30 1593 C 184.336 3.4311 -3.0338 0
M  V30 1594 N 185.827 3.50662 -3.02639 0
M  V30 1595 C 186.562 4.2651 -3.83246 0
M  V30 1596 N 186.058 5.05485 -4.73768 0
M  V30 1597 N 187.851 4.2184 -3.71493 0
M  V30 1598 H 180.002 0.743807 -1.9895 0
M  V30 1599 H 182.265 0.389823 -0.864143 0
M  V30 1600 H 181.971 1.96483 -2.91698 0
M  V30 1601 H 181.845 3.31381 -1.80184 0
M  V30 1602 H 184.232 2.79079 -0.959099 0
M  V30 1603 H 184.313 1.4481 -2.10864 0
M  V30 1604 H 183.957 3.09704 -4.02549 0
M  V30 1605 H 183.887 4.43055 -2.84622 0
M  V30 1606 H 186.378 2.94315 -2.37039 0
M  V30 1607 H 186.691 5.60675 -5.3185 0
M  V30 1608 H 185.036 5.04708 -4.77802 0
M  V30 1609 H 188.227 3.5922 -3.00131 0
M  V30 1610 H 188.4 4.80697 -4.3455 0
M  V30 1611 N 181.806 0.884767 1.30421 0
M  V30 1612 C 183.031 0.517288 2.00845 0
M  V30 1613 C 183.456 -0.886779 1.65885 0
M  V30 1614 O 182.814 -1.58768 0.875354 0
M  V30 1615 C 182.862 0.698994 3.5376 0
M  V30 1616 O 181.966 -0.255208 4.1161 0
M  V30 1617 H 181.307 0.203872 0.631927 0
M  V30 1618 H 183.837 1.19225 1.66272 0
M  V30 1619 H 183.847 0.597912 4.03595 0
M  V30 1620 H 182.522 1.72271 3.78544 0
M  V30 1621 H 181.099 -0.10784 3.72744 0
M  V30 1622 N 183.284 -1.43765 0.645699 0
M  V30 1623 C 184.524 -2.03776 0.159542 0
M  V30 1624 C 184.888 -1.49792 -1.2011 0
M  V30 1625 O 186.089 -2.01398 -1.78023 0
M  V30 1626 C 184.36 -3.57036 0.161251 0
M  V30 1627 S 185.919 -4.3804 -0.258159 0
M  V30 1628 H 182.737 -0.707717 0.0682454 0
M  V30 1629 H 185.339 -1.75941 0.852352 0
M  V30 1630 H 184.043 -3.9383 1.15439 0
M  V30 1631 H 183.574 -3.89503 -0.552339 0
M  V30 1632 H 185.589 -4.7302 -1.49889 0
M  V30 1633 N 184.763 -0.387143 -1.52771 0
M  V30 1634 C 186.179 -0.037007 -1.59557 0
M  V30 1635 C 186.379 1.44801 -1.40124 0
M  V30 1636 O 185.435 2.21227 -1.21716 0
M  V30 1637 C 186.748 -0.512256 -2.96305 0
M  V30 1638 C 188.296 -0.468328 -3.09476 0
M  V30 1639 C 188.771 -0.919731 -4.4867 0
M  V30 1640 N 190.262 -0.875656 -4.54848 0
M  V30 1641 C 190.997 -1.19637 -5.6078 0
M  V30 1642 N 190.493 -1.58745 -6.74368 0
M  V30 1643 N 192.286 -1.11776 -5.50874 0
M  V30 1644 H 184.437 -1.35395 -1.63652 0
M  V30 1645 H 186.7 -0.554818 -0.768688 0
M  V30 1646 H 186.406 -1.54935 -3.15734 0
M  V30 1647 H 186.28 0.089805 -3.77093 0
M  V30 1648 H 188.667 0.559671 -2.89744 0
M  V30 1649 H 188.748 -1.10616 -2.30646 0
M  V30 1650 H 188.392 -1.94595 -4.69143 0
M  V30 1651 H 188.322 -0.258927 -5.25963 0
M  V30 1652 H 190.813 -0.587843 -3.733 0
M  V30 1653 H 191.126 -1.81586 -7.51163 0
M  V30 1654 H 189.471 -1.6263 -6.75705 0
M  V30 1655 H 192.662 -0.811264 -4.61016 0
M  V30 1656 H 192.835 -1.37103 -6.3333 0
M  V30 1657 N 186.241 1.57166 -0.116904 0
M  V30 1658 C 187.174 2.10912 0.871291 0
M  V30 1659 C 188.152 1.025 1.26224 0
M  V30 1660 O 189.336 1.3014 1.36366 0
M  V30 1661 C 186.463 2.6041 2.16574 0
M  V30 1662 C 185.509 3.80687 1.92302 0
M  V30 1663 S 186.342 5.23199 1.14119 0
M  V30 1664 C 187.498 5.76064 2.44748 0
M  V30 1665 H 187.731 2.94401 0.414138 0
M  V30 1666 H 185.264 1.54096 0.096829 0
M  V30 1667 H 187.222 2.89583 2.9095 0
M  V30 1668 H 185.883 1.77106 2.59408 0
M  V30 1669 H 185.076 4.13462 2.8821 0
M  V30 1670 H 184.678 3.5212 1.26047 0
M  V30 1671 H 186.97 5.8566 3.406 0
M  V30 1672 H 187.913 6.74184 2.16521 0
M  V30 1673 H 188.321 5.04117 2.54019 0
M  V30 1674 N 187.719 -0.156864 1.56817 0
M  V30 1675 C 188.629 -1.2136 2.00771 0
M  V30 1676 C 189.645 -1.47598 0.921459 0
M  V30 1677 O 190.821 -1.59462 1.2302 0
M  V30 1678 C 187.886 -2.52943 2.37109 0
M  V30 1679 C 186.947 -2.34439 3.59634 0
M  V30 1680 C 186.18 -3.59748 3.94229 0
M  V30 1681 O 186.403 -4.65526 3.29609 0
M  V30 1682 O 185.337 -3.52998 4.8752 0
M  V30 1683 H 189.163 -0.870468 2.90958 0
M  V30 1684 H 186.748 -0.36484 1.44877 0
M  V30 1685 H 188.63 -3.30538 2.61386 0
M  V30 1686 H 187.305 -2.86806 1.5008 0
M  V30 1687 H 186.212 -1.54828 3.40557 0
M  V30 1688 H 187.545 -2.05496 4.4725 0
M  V30 1689 N 189.197 -1.51736 -0.425897 0
M  V30 1690 C 190.608 -1.5732 -1.00536 0
M  V30 1691 C 190.959 -0.403537 -1.92005 0
M  V30 1692 O 190.084 0.478256 -2.11049 0
M  V30 1693 C 190.679 -2.85119 -1.8301 0
M  V30 1694 C 189.238 -2.93236 -2.35987 0
M  V30 1695 C 188.385 -2.52098 -1.15508 0
M  V30 1696 H 191.336 -1.57348 -0.206739 0
M  V30 1697 H 191.357 -2.69526 -2.68581 0
M  V30 1698 H 190.869 -3.7023 -1.16411 0
M  V30 1699 H 188.97 -2.12581 -3.06007 0
M  V30 1700 H 189.083 -3.9713 -2.68001 0
M  V30 1701 H 187.447 -2.05558 -1.50393 0
M  V30 1702 H 188.23 -3.39565 -0.505014 0
M  V30 1703 N 190.675 0.682077 -1.42076 0
M  V30 1704 C 192.086 1.26246 -1.37546 0
M  V30 1705 C 192.437 1.96092 -0.0651481 0
M  V30 1706 O 191.562 1.99587 0.836297 0
M  V30 1707 C 192.157 2.29594 -2.49143 0
M  V30 1708 C 190.716 2.83175 -2.47969 0
M  V30 1709 C 189.863 1.57395 -2.28303 0
M  V30 1710 H 192.814 0.475937 -1.51395 0
M  V30 1711 H 192.835 3.11175 -2.18976 0
M  V30 1712 H 192.347 1.78729 -3.44496 0
M  V30 1713 H 190.448 3.3818 -1.56413 0
M  V30 1714 H 190.561 3.32687 -3.44755 0
M  V30 1715 H 188.925 1.83699 -1.76428 0
M  V30 1716 H 189.708 1.08507 -3.25701 0
M  V30 1717 N 192.153 1.28127 0.917671 0
M  V30 1718 C 193.43 1.05761 1.64542 0
M  V30 1719 C 193.81 -0.404344 2.07191 0
M  V30 1720 O 193.158 -1.38963 1.81388 0
M  V30 1721 C 193.368 2.02857 2.83989 0
M  V30 1722 C 194.716 2.32786 3.551 0
M  V30 1723 O 195.74 2.0091 2.94132 0
M  V30 1724 O 194.599 2.87169 4.64969 0
M  V30 1725 H 191.693 0.403916 0.721652 0
M  V30 1726 H 194.239 1.39431 0.967322 0
M  V30 1727 H 193.011 3.01407 2.49538 0
M  V30 1728 H 192.634 1.69809 3.59514 0
M  V30 1729 N 193.631 -1.12557 1.10312 0
M  V30 1730 C 194.879 -1.83675 0.843091 0
M  V30 1731 C 195.2 -1.84435 -0.633131 0
M  V30 1732 O 194.47 -1.30657 -1.45964 0
M  V30 1733 H 193.05 -0.680138 0.308904 0
M  V30 1734 H 195.712 -1.36301 1.39313 0
M  V30 1735 H 194.808 -2.87908 1.2048 0
M  V30 1736 N 195.109 -0.891671 -1.2995 0
M  V30 1737 C 196.52 -0.563104 -1.78006 0
M  V30 1738 C 196.871 0.920978 -1.73241 0
M  V30 1739 O 195.996 1.71987 -1.31337 0
M  V30 1740 C 196.591 -1.01539 -3.23226 0
M  V30 1741 C 195.15 -0.738124 -3.69092 0
M  V30 1742 C 194.297 -1.19461 -2.50249 0
M  V30 1743 H 197.248 -1.07522 -1.16725 0
M  V30 1744 H 197.269 -0.347217 -3.78912 0
M  V30 1745 H 196.781 -2.09555 -3.26662 0
M  V30 1746 H 194.882 0.329766 -3.71138 0
M  V30 1747 H 194.995 -1.33037 -4.60259 0
M  V30 1748 H 193.359 -0.613787 -2.47194 0
M  V30 1749 H 194.142 -2.28265 -2.56417 0
M  V30 1750 N 196.587 1.43421 -0.653314 0
M  V30 1751 C 197.998 1.85065 -0.246537 0
M  V30 1752 C 198.349 1.54688 1.2069 0
M  V30 1753 O 197.474 0.995896 1.92122 0
M  V30 1754 C 198.069 3.35922 -0.440666 0
M  V30 1755 C 196.628 3.76297 -0.0882064 0
M  V30 1756 C 195.775 2.67147 -0.743484 0
M  V30 1757 H 198.726 1.33572 -0.856979 0
M  V30 1758 H 198.747 3.79204 0.313798 0
M  V30 1759 H 198.259 3.58 -1.49858 0
M  V30 1760 H 196.36 3.5983 0.96711 0
M  V30 1761 H 196.473 4.76338 -0.513738 0
M  V30 1762 H 194.837 2.54086 -0.176712 0
M  V30 1763 H 195.62 2.92053 -1.80443 0
M  V30 1764 N 198.065 0.39524 1.52563 0
M  V30 1765 C 199.476 -0.0774719 1.86539 0
M  V30 1766 C 199.827 -1.45641 1.31466 0
M  V30 1767 O 198.952 -2.06459 0.648367 0
M  V30 1768 C 199.547 -0.147356 3.38479 0
M  V30 1769 C 198.106 -0.564373 3.72145 0
M  V30 1770 C 197.253 0.269919 2.75983 0
M  V30 1771 H 200.204 0.612876 1.46388 0
M  V30 1772 H 200.225 -0.965343 3.68051 0
M  V30 1773 H 199.737 0.856387 3.78534 0
M  V30 1774 H 197.838 -1.57527 3.37663 0
M  V30 1775 H 197.951 -0.318402 4.78041 0
M  V30 1776 H 196.315 -0.265696 2.5331 0
M  V30 1777 H 197.098 1.27175 3.18875 0
M  V30 1778 N 199.544 -1.57102 0.125237 0
M  V30 1779 C 200.955 -1.82384 -0.399142 0
M  V30 1780 C 201.306 -1.04276 -1.66195 0
M  V30 1781 O 200.431 -0.281269 -2.14564 0
M  V30 1782 C 201.026 -3.30821 -0.730932 0
M  V30 1783 C 199.585 -3.56762 -1.19992 0
M  V30 1784 C 198.732 -2.7649 -0.211792 0
M  V30 1785 H 201.683 -1.54786 0.350277 0
M  V30 1786 H 201.704 -3.4579 -1.58775 0
M  V30 1787 H 201.216 -3.87643 0.188345 0
M  V30 1788 H 199.317 -3.05305 -2.13588 0
M  V30 1789 H 199.43 -4.65317 -1.14093 0
M  V30 1790 H 197.794 -2.4489 -0.700085 0
M  V30 1791 H 198.577 -3.36073 0.700691 0
M  V30 1792 N 201.022 0.148545 -1.56898 0
M  V30 1793 C 202.433 0.708766 -1.72723 0
M  V30 1794 C 202.784 1.81734 -0.739395 0
M  V30 1795 O 201.909 2.16194 0.0943169 0
M  V30 1796 C 202.504 1.29245 -3.13179 0
M  V30 1797 C 201.063 1.79925 -3.30611 0
M  V30 1798 C 200.21 0.687111 -2.68652 0
M  V30 1799 H 203.161 -0.0771063 -1.58513 0
M  V30 1800 H 203.182 2.16224 -3.13093 0
M  V30 1801 H 202.694 0.485382 -3.85053 0
M  V30 1802 H 200.795 2.63203 -2.63732 0
M  V30 1803 H 200.908 1.92903 -4.38549 0
M  V30 1804 H 199.272 1.11335 -2.29078 0
M  V30 1805 H 200.055 -0.108483 -3.43129 0
M  V30 1806 N 202.5 1.5196 0.417844 0
M  V30 1807 C 203.432 1.70895 1.52733 0
M  V30 1808 C 204.445 0.589405 1.51756 0
M  V30 1809 O 205.634 0.864312 1.56179 0
M  V30 1810 C 202.734 1.72627 2.91639 0
M  V30 1811 C 201.907 3.01479 3.16905 0
M  V30 1812 C 200.966 2.95139 4.35637 0
M  V30 1813 O 199.992 3.69059 4.3334 0
M  V30 1814 N 201.194 2.12328 5.40275 0
M  V30 1815 H 203.959 2.66612 1.36888 0
M  V30 1816 H 201.52 1.50089 0.607037 0
M  V30 1817 H 203.512 1.65928 3.6912 0
M  V30 1818 H 202.082 0.844216 3.00985 0
M  V30 1819 H 201.302 3.21895 2.27546 0
M  V30 1820 H 202.59 3.86736 3.30625 0
M  V30 1821 H 201.988 1.51685 5.44985 0
M  V30 1822 H 200.545 2.11494 6.16534 0
M  V30 1823 N 203.978 -0.674533 1.42435 0
M  V30 1824 C 204.91 -1.80005 1.41883 0
M  V30 1825 C 205.923 -1.59667 0.31787 0
M  V30 1826 O 207.112 -1.68781 0.580973 0
M  V30 1827 C 204.212 -3.17114 1.19549 0
M  V30 1828 C 203.385 -3.64299 2.42084 0
M  V30 1829 C 202.444 -4.80142 2.15291 0
M  V30 1830 O 201.47 -4.90673 2.88493 0
M  V30 1831 N 202.672 -5.68869 1.1562 0
M  V30 1832 H 205.437 -1.80964 2.38898 0
M  V30 1833 H 202.998 -0.857633 1.37318 0
M  V30 1834 H 204.99 -3.92267 0.995417 0
M  V30 1835 H 203.56 -3.11053 0.310569 0
M  V30 1836 H 202.78 -2.79822 2.77657 0
M  V30 1837 H 204.068 -3.92567 3.23679 0
M  V30 1838 H 203.466 -5.63012 0.550765 0
M  V30 1839 H 202.023 -6.43833 1.016 0
M  V30 1840 N 205.456 -1.28612 -0.910864 0
M  V30 1841 C 206.388 -1.08589 -2.01844 0
M  V30 1842 C 207.401 -0.0367419 -1.62759 0
M  V30 1843 O 208.59 -0.280101 -1.76289 0
M  V30 1844 C 205.69 -0.628626 -3.33019 0
M  V30 1845 C 204.863 -1.75382 -4.00699 0
M  V30 1846 C 203.922 -1.28945 -5.10156 0
M  V30 1847 O 202.948 -1.9922 -5.33198 0
M  V30 1848 N 204.15 -0.154224 -5.80295 0
M  V30 1849 H 206.915 -2.03973 -2.19579 0
M  V30 1850 H 204.476 -1.20403 -1.08234 0
M  V30 1851 H 206.468 -0.301508 -4.03575 0
M  V30 1852 H 205.038 0.232451 -3.11735 0
M  V30 1853 H 204.258 -2.25039 -3.23653 0
M  V30 1854 H 205.546 -2.50854 -4.42662 0
M  V30 1855 H 204.944 0.43194 -5.64049 0
M  V30 1856 H 203.501 0.113599 -6.51701 0
M  V30 1857 N 206.934 1.1197 -1.10907 0
M  V30 1858 C 208.345 1.65114 -0.871446 0
M  V30 1859 C 208.696 1.86885 0.597353 0
M  V30 1860 O 207.821 1.59896 1.45816 0
M  V30 1861 C 208.416 2.99944 -1.5754 0
M  V30 1862 C 206.975 3.50018 -1.38435 0
M  V30 1863 C 206.122 2.24941 -1.62164 0
M  V30 1864 H 209.073 0.956851 -1.2661 0
M  V30 1865 H 209.094 3.66651 -1.01721 0
M  V30 1866 H 208.606 2.84067 -2.64438 0
M  V30 1867 H 206.707 3.71071 -0.337214 0
M  V30 1868 H 206.82 4.29165 -2.12965 0
M  V30 1869 H 205.184 2.3229 -1.04467 0
M  V30 1870 H 205.967 2.11612 -2.70324 0
M  V30 1871 N 208.412 0.89855 1.29475 0
M  V30 1872 C 209.823 0.572537 1.77705 0
M  V30 1873 C 210.174 -0.911778 1.73727 0
M  V30 1874 O 209.299 -1.71288 1.32247 0
M  V30 1875 C 209.894 1.03252 3.22683 0
M  V30 1876 C 208.453 0.757687 3.68695 0
M  V30 1877 C 207.6 1.20787 2.49612 0
M  V30 1878 H 210.551 1.08139 1.16153 0
M  V30 1879 H 210.572 0.367307 3.78723 0
M  V30 1880 H 210.084 2.11285 3.25546 0
M  V30 1881 H 208.185 -0.310079 3.71308 0
M  V30 1882 H 208.298 1.35476 4.59547 0
M  V30 1883 H 206.662 0.626888 2.46865 0
M  V30 1884 H 207.445 2.29622 2.55203 0
M  V30 1885 N 209.89 -1.43072 0.660911 0
M  V30 1886 C 211.301 -1.84932 0.256348 0
M  V30 1887 C 211.652 -1.55325 -1.19868 0
M  V30 1888 O 210.777 -1.00607 -1.91591 0
M  V30 1889 C 211.372 -3.35684 0.458475 0
M  V30 1890 C 209.931 -3.76245 0.108161 0
M  V30 1891 C 209.078 -2.66749 0.757641 0
M  V30 1892 H 212.029 -1.33116 0.864051 0
M  V30 1893 H 212.05 -3.79365 -0.293683 0
M  V30 1894 H 211.562 -3.572 1.51755 0
M  V30 1895 H 209.663 -3.60338 -0.948014 0
M  V30 1896 H 209.776 -4.76058 0.538992 0
M  V30 1897 H 208.14 -2.53989 0.190185 0
M  V30 1898 H 208.923 -2.91092 1.81989 0
M  V30 1899 N 211.368 -0.403325 -1.52352 0
M  V30 1900 C 212.779 0.0675782 -1.86578 0
M  V30 1901 C 213.13 1.44941 -1.32236 0
M  V30 1902 O 212.255 2.06112 -0.659307 0
M  V30 1903 C 212.85 0.129404 -3.38553 0
M  V30 1904 C 211.409 0.544629 -3.72439 0
M  V30 1905 C 210.556 -0.284551 -2.75836 0
M  V30 1906 H 213.507 -0.620631 -1.46061 0
M  V30 1907 H 213.528 0.94581 -3.68558 0
M  V30 1908 H 213.04 -0.87645 -3.78074 0
M  V30 1909 H 211.141 1.55734 -3.38493 0
M  V30 1910 H 211.254 0.293046 -4.78203 0
M  V30 1911 H 209.618 0.252258 -2.53448 0
M  V30 1912 H 210.401 -1.28865 -3.18196 0
M  V30 1913 N 212.846 1.57033 -0.133567 0
M  V30 1914 C 214.257 1.82593 0.389464 0
M  V30 1915 C 214.608 1.05156 1.6564 0
M  V30 1916 O 213.733 0.292644 2.14412 0
M  V30 1917 C 214.328 3.31204 0.713377 0
M  V30 1918 C 212.887 3.57393 1.18098 0
M  V30 1919 C 212.034 2.76598 0.197126 0
M  V30 1920 H 214.985 1.54598 -0.358481 0
M  V30 1921 H 215.006 3.46627 1.56939 0
M  V30 1922 H 214.518 3.87537 -0.2089 0
M  V30 1923 H 212.619 3.06433 2.11966 0
M  V30 1924 H 212.732 4.65915 1.11624 0
M  V30 1925 H 211.096 2.45257 0.687088 0
M  V30 1926 H 211.879 3.35697 -0.718504 0
M  V30 1927 N 214.325 -0.140222 1.56975 0
M  V30 1928 C 215.257 -1.19818 1.95388 0
M  V30 1929 C 216.27 -1.38816 0.850525 0
M  V30 1930 O 217.459 -1.38267 1.12891 0
M  V30 1931 C 214.559 -2.56189 2.21857 0
M  V30 1932 C 213.732 -2.58077 3.5315 0
M  V30 1933 C 212.791 -3.76037 3.6808 0
M  V30 1934 O 211.817 -3.60598 4.40406 0
M  V30 1935 N 213.019 -4.93763 3.05251 0
M  V30 1936 H 215.784 -0.871609 2.86746 0
M  V30 1937 H 213.345 -0.32972 1.58507 0
M  V30 1938 H 215.337 -3.33623 2.2908 0
M  V30 1939 H 213.907 -2.81111 1.36731 0
M  V30 1940 H 213.127 -1.6651 3.57307 0
M  V30 1941 H 214.415 -2.56377 4.39486 0
M  V30 1942 H 213.813 -5.09209 2.46419 0
M  V30 1943 H 212.37 -5.68949 3.18026 0
M  V30 1944 N 215.803 -1.52179 -0.40978 0
M  V30 1945 C 217.214 -1.58377 -0.988615 0
M  V30 1946 C 217.565 -0.423879 -1.91566 0
M  V30 1947 O 216.69 0.455844 -2.11544 0
M  V30 1948 C 217.285 -2.87044 -1.79976 0
M  V30 1949 C 215.844 -2.95722 -2.32863 0
M  V30 1950 C 214.991 -2.53309 -1.12828 0
M  V30 1951 H 217.942 -1.57558 -0.190039 0
M  V30 1952 H 217.963 -2.7236 -2.65707 0
M  V30 1953 H 217.475 -3.71444 -1.12478 0
M  V30 1954 H 215.576 -2.15814 -3.03735 0
M  V30 1955 H 215.689 -3.99951 -2.63773 0
M  V30 1956 H 214.053 -2.07142 -1.48204 0
M  V30 1957 H 214.836 -3.40082 -0.46897 0
M  V30 1958 N 217.281 0.66697 -1.42791 0
M  V30 1959 C 218.692 1.2478 -1.38877 0
M  V30 1960 C 219.043 1.96012 -0.0859426 0
M  V30 1961 O 218.168 2.00463 0.815081 0
M  V30 1962 C 218.763 2.26938 -2.51564 0
M  V30 1963 C 217.322 2.80529 -2.50959 0
M  V30 1964 C 216.469 1.54965 -2.29959 0
M  V30 1965 H 219.42 0.459853 -1.51892 0
M  V30 1966 H 219.441 3.08834 -2.22265 0
M  V30 1967 H 218.953 1.75065 -3.46372 0
M  V30 1968 H 217.054 3.36502 -1.59991 0
M  V30 1969 H 217.167 3.29012 -3.48265 0
M  V30 1970 H 215.531 1.81817 -1.78366 0
M  V30 1971 H 216.314 1.05047 -3.26833 0
M  V30 1972 N 218.759 1.29093 0.90403 0
M  V30 1973 C 219.691 1.09658 2.01266 0
M  V30 1974 C 220.704 0.0453729 1.62737 0
M  V30 1975 O 221.893 0.289446 1.76138 0
M  V30 1976 C 218.993 0.646278 3.32681 0
M  V30 1977 C 218.166 1.77505 3.99763 0
M  V30 1978 C 217.225 1.31649 5.09465 0
M  V30 1979 O 216.251 2.02045 5.32134 0
M  V30 1980 N 217.453 0.184997 5.80205 0
M  V30 1981 H 220.218 2.05135 2.18494 0
M  V30 1982 H 217.779 1.20975 1.07594 0
M  V30 1983 H 219.771 0.322906 4.0341 0
M  V30 1984 H 218.341 -0.215916 3.11853 0
M  V30 1985 H 217.561 2.26752 3.22455 0
M  V30 1986 H 218.849 2.53198 4.41325 0
M  V30 1987 H 218.247 -0.402021 5.6427 0
M  V30 1988 H 216.804 -0.0790358 6.51752 0
M  V30 1989 N 220.237 -1.11381 1.11499 0
M  V30 1990 C 221.648 -1.6465 0.880191 0
M  V30 1991 C 221.999 -1.87199 -0.587434 0
M  V30 1992 O 221.124 -1.60667 -1.44966 0
M  V30 1993 C 221.719 -2.99105 1.59128 0
M  V30 1994 C 220.278 -3.49279 1.40289 0
M  V30 1995 C 219.425 -2.24077 1.63354 0
M  V30 1996 H 222.376 -0.950123 1.27116 0
M  V30 1997 H 222.397 -3.66107 1.03664 0
M  V30 1998 H 221.909 -2.82661 2.65941 0
M  V30 1999 H 220.01 -3.70887 0.356888 0
M  V30 2000 H 220.123 -4.2803 2.15238 0
M  V30 2001 H 218.487 -2.31733 1.05698 0
M  V30 2002 H 219.27 -2.10175 2.71443 0
M  V30 2003 N 221.715 -0.905404 -1.28997 0
M  V30 2004 C 222.678 -0.392253 -2.25819 0
M  V30 2005 C 223.678 0.476753 -1.5357 0
M  V30 2006 O 224.868 0.280994 -1.71919 0
M  V30 2007 C 222 0.438588 -3.38067 0
M  V30 2008 H 223.193 -1.24743 -2.72725 0
M  V30 2009 H 220.746 -0.684051 -1.40536 0
M  V30 2010 H 221.481 1.31352 -2.96508 0
M  V30 2011 H 221.266 -0.184167 -3.91667 0
M  V30 2012 H 222.756 0.78873 -4.10084 0
M  V30 2013 N 223.193 1.4272 -0.668489 0
M  V30 2014 C 224.604 1.84793 -0.266151 0
M  V30 2015 C 224.955 1.55959 1.19043 0
M  V30 2016 O 224.08 1.01622 1.91055 0
M  V30 2017 C 224.675 3.35436 -0.476271 0
M  V30 2018 C 223.234 3.76182 -0.128113 0
M  V30 2019 C 222.381 2.66344 -0.771777 0
M  V30 2020 H 225.332 1.32656 -0.871098 0
M  V30 2021 H 225.353 3.79515 0.273561 0
M  V30 2022 H 224.865 3.5639 -1.53647 0
M  V30 2023 H 222.966 3.60836 0.928891 0
M  V30 2024 H 223.079 4.75766 -0.564231 0
M  V30 2025 H 221.443 2.53885 -0.203652 0
M  V30 2026 H 222.226 2.90123 -1.83531 0
M  V30 2027 N 224.671 0.411399 1.52136 0
M  V30 2028 C 225.603 -0.448386 2.24771 0
M  V30 2029 C 226.616 -1.00828 1.27818 0
M  V30 2030 O 227.805 -0.906841 1.53749 0
M  V30 2031 C 224.905 -1.63636 2.96777 0
M  V30 2032 C 224.078 -1.19995 4.20618 0
M  V30 2033 C 223.137 -2.25509 4.75428 0
M  V30 2034 O 222.163 -1.86007 5.3795 0
M  V30 2035 N 223.365 -3.577 4.57199 0
M  V30 2036 H 226.13 0.174025 2.99194 0
M  V30 2037 H 223.691 0.238897 1.60128 0
M  V30 2038 H 225.683 -2.33793 3.30338 0
M  V30 2039 H 224.253 -2.16465 2.25526 0
M  V30 2040 H 223.473 -0.326421 3.92846 0
M  V30 2041 H 224.761 -0.885365 5.01038 0
M  V30 2042 H 224.159 -3.92543 4.07341 0
M  V30 2043 H 222.716 -4.23827 4.95191 0
M  V30 2044 N 226.149 -1.5696 0.141893 0
M  V30 2045 C 227.112 -2.15316 -0.785587 0
M  V30 2046 C 228.112 -1.09366 -1.1788 0
M  V30 2047 O 229.302 -1.35031 -1.10056 0
M  V30 2048 C 226.434 -2.71211 -2.06537 0
M  V30 2049 H 227.627 -2.98608 -0.278041 0
M  V30 2050 H 225.18 -1.5593 -0.107519 0
M  V30 2051 H 225.915 -1.91571 -2.6167 0
M  V30 2052 H 225.7 -3.4872 -1.79268 0
M  V30 2053 H 227.19 -3.16189 -2.72789 0
M  V30 2054 N 227.627 0.131896 -1.57047 0
M  V30 2055 C 228.855 0.856461 -1.88341 0
M  V30 2056 C 229.27 1.74042 -0.731757 0
M  V30 2057 O 228.627 1.80051 0.297945 0
M  V30 2058 C 228.678 1.70064 -3.18999 0
M  V30 2059 O 228.399 0.852278 -4.2973 0
M  V30 2060 C 229.9 2.53148 -3.63911 0
M  V30 2061 H 227.12 0.246885 -0.62393 0
M  V30 2062 H 229.664 0.120152 -2.04147 0
M  V30 2063 H 227.819 2.38984 -3.04902 0
M  V30 2064 H 228.233 1.43329 -5.04537 0
M  V30 2065 H 229.707 3.07931 -4.58129 0
M  V30 2066 H 230.184 3.29901 -2.89935 0
M  V30 2067 H 230.79 1.89492 -3.80753 0
M  V30 2068 N 229.106 1.52395 0.401703 0
M  V30 2069 C 230.331 1.70972 1.17403 0
M  V30 2070 C 230.756 0.421615 1.83314 0
M  V30 2071 O 230.114 -0.621564 1.70312 0
M  V30 2072 C 230.162 2.85151 2.20728 0
M  V30 2073 O 229.266 2.51238 3.27037 0
M  V30 2074 H 228.607 0.568927 0.342372 0
M  V30 2075 H 231.137 1.99131 0.469891 0
M  V30 2076 H 231.147 3.10279 2.64936 0
M  V30 2077 H 229.822 3.78603 1.7214 0
M  V30 2078 H 228.399 2.36808 2.88057 0
M  V30 2079 N 230.584 -0.659388 1.43143 0
M  V30 2080 C 231.824 -1.43121 1.45931 0
M  V30 2081 C 232.188 -1.91838 0.0789298 0
M  V30 2082 O 233.389 -2.68794 -0.018491 0
M  V30 2083 C 231.66 -2.58534 2.46769 0
M  V30 2084 S 233.219 -3.47154 2.68384 0
M  V30 2085 H 230.037 -0.488624 0.516496 0
M  V30 2086 H 232.639 -0.766128 1.79863 0
M  V30 2087 H 231.343 -2.21007 3.45809 0
M  V30 2088 H 230.874 -3.29898 2.14315 0
M  V30 2089 H 232.889 -4.55051 1.97845 0
M  V30 2090 N 232.062 -1.29571 -0.897171 0
M  V30 2091 C 233.287 -1.20705 -1.68656 0
M  V30 2092 C 233.712 0.228582 -1.86706 0
M  V30 2093 O 233.07 1.16494 -1.3892 0
M  V30 2094 C 233.118 -1.9282 -3.04717 0
M  V30 2095 O 232.222 -1.24697 -3.93096 0
M  V30 2096 H 231.563 -0.418126 -0.515816 0
M  V30 2097 H 234.093 -1.71183 -1.12061 0
M  V30 2098 H 234.103 -2.01372 -3.54843 0
M  V30 2099 H 232.778 -2.97239 -2.90899 0
M  V30 2100 H 231.355 -1.2442 -3.51531 0
M  V30 2101 N 233.54 1.10788 -1.12088 0
M  V30 2102 C 234.787 1.82671 -0.873931 0
M  V30 2103 C 235.115 1.85004 0.600311 0
M  V30 2104 O 234.37 1.30365 1.45957 0
M  V30 2105 C 234.669 3.29294 -1.38926 0
M  V30 2106 C 234.335 3.47113 -2.87791 0
M  V30 2107 C 232.997 3.51684 -3.28439 0
M  V30 2108 C 235.349 3.52808 -3.83635 0
M  V30 2109 C 232.677 3.59513 -4.63646 0
M  V30 2110 C 235.029 3.62169 -5.18668 0
M  V30 2111 C 233.693 3.65003 -5.58864 0
M  V30 2112 H 232.963 0.668441 -0.319794 0
M  V30 2113 H 235.61 1.30613 -1.40045 0
M  V30 2114 H 233.915 3.83894 -0.783122 0
M  V30 2115 H 235.612 3.83416 -1.17443 0
M  V30 2116 H 232.202 3.4423 -2.5535 0
M  V30 2117 H 236.386 3.4853 -3.53328 0
M  V30 2118 H 231.642 3.59987 -4.94185 0
M  V30 2119 H 235.816 3.6552 -5.92763 0
M  V30 2120 H 233.443 3.70822 -6.63623 0
M  V30 2121 N 235.018 0.912232 1.28515 0
M  V30 2122 C 235.981 0.404223 2.25607 0
M  V30 2123 C 236.981 -0.468602 1.53821 0
M  V30 2124 O 238.171 -0.271873 1.72065 0
M  V30 2125 C 235.303 -0.420653 3.38295 0
M  V30 2126 H 236.496 1.26188 2.7206 0
M  V30 2127 H 234.049 0.691495 1.40171 0
M  V30 2128 H 234.784 -1.29777 2.97201 0
M  V30 2129 H 234.569 0.204935 3.91564 0
M  V30 2130 H 236.059 -0.766971 4.10496 0
M  V30 2131 N 236.496 -1.42363 0.676048 0
M  V30 2132 C 237.428 -2.29164 -0.0404605 0
M  V30 2133 C 238.441 -1.43747 -0.764245 0
M  V30 2134 O 239.63 -1.67453 -0.618195 0
M  V30 2135 C 236.73 -3.21196 -1.08103 0
M  V30 2136 C 235.903 -4.35273 -0.430812 0
M  V30 2137 C 234.962 -5.08017 -1.37133 0
M  V30 2138 O 233.988 -5.62494 -0.87116 0
M  V30 2139 N 235.19 -5.13647 -2.70456 0
M  V30 2140 H 237.955 -2.91298 0.704667 0
M  V30 2141 H 235.516 -1.53303 0.520559 0
M  V30 2142 H 237.508 -3.66728 -1.71152 0
M  V30 2143 H 236.078 -2.60505 -1.72788 0
M  V30 2144 H 235.298 -3.92372 0.379209 0
M  V30 2145 H 236.586 -5.08795 0.0221132 0
M  V30 2146 H 235.984 -4.708 -3.1363 0
M  V30 2147 H 234.541 -5.62821 -3.28749 0
M  V30 2148 N 237.974 -0.419461 -1.51915 0
M  V30 2149 C 238.922 0.415502 -2.28859 0
M  V30 2150 C 239.916 1.03674 -1.3397 0
M  V30 2151 O 241.122 0.973757 -1.51387 0
M  V30 2152 H 237.497 0.152786 -0.736315 0
M  V30 2153 H 239.468 -0.254531 -2.97312 0
M  V30 2154 C 238.217 1.51425 -3.12995 0
M  V30 2155 H 237.54 1.04556 -3.85886 0
M  V30 2156 H 238.98 2.07208 -3.6992 0
M  V30 2157 C 237.439 2.48745 -2.27217 0
M  V30 2158 O 237.969 3.52871 -1.9195 0
M  V30 2159 N 236.175 2.19202 -1.90785 0
M  V30 2160 H 235.722 1.34556 -2.19664 0
M  V30 2161 H 235.68 2.84561 -1.33687 0
M  V30 2162 N 239.452 1.56882 -0.150215 0
M  V30 2163 C 240.701 1.95403 0.500071 0
M  V30 2164 C 241.014 1.03777 1.658 0
M  V30 2165 O 242.22 1.31889 2.37313 0
M  V30 2166 C 240.676 3.4738 0.941018 0
M  V30 2167 C 240.284 4.47596 -0.190158 0
M  V30 2168 C 242.028 3.9476 1.56091 0
M  V30 2169 C 239.935 5.90787 0.269237 0
M  V30 2170 H 238.865 0.729515 0.190588 0
M  V30 2171 H 241.516 1.81988 -0.235074 0
M  V30 2172 H 239.898 3.56138 1.73152 0
M  V30 2173 H 241.072 4.50536 -0.967157 0
M  V30 2174 H 239.387 4.10151 -0.718666 0
M  V30 2175 H 241.984 4.99181 1.9163 0
M  V30 2176 H 242.327 3.36494 2.45107 0
M  V30 2177 H 242.86 3.88932 0.835249 0
M  V30 2178 H 239.599 6.52879 -0.585621 0
M  V30 2179 H 239.119 5.912 1.01204 0
M  V30 2180 H 240.798 6.42979 0.720176 0
M  V30 2181 N 240.93 -0.123565 1.57115 0
M  V30 2182 C 241.877 -1.15177 2.00007 0
M  V30 2183 C 242.847 -1.41403 0.871454 0
M  V30 2184 O 244.032 -1.53346 1.13533 0
M  V30 2185 C 241.172 -2.47436 2.40561 0
M  V30 2186 C 240.285 -2.28184 3.66819 0
M  V30 2187 C 239.42 -3.53641 3.96373 0
M  V30 2188 C 238.459 -3.29528 5.15827 0
M  V30 2189 N 237.596 -4.47175 5.41275 0
M  V30 2190 H 242.436 -0.779008 2.87638 0
M  V30 2191 H 239.973 -0.373166 1.42288 0
M  V30 2192 H 241.931 -3.24584 2.62109 0
M  V30 2193 H 240.561 -2.82614 1.55978 0
M  V30 2194 H 239.613 -1.41976 3.52912 0
M  V30 2195 H 240.925 -2.0634 4.5412 0
M  V30 2196 H 240.079 -4.39209 4.18545 0
M  V30 2197 H 238.818 -3.78512 3.07538 0
M  V30 2198 H 237.823 -2.42349 4.93505 0
M  V30 2199 H 239.048 -3.06031 6.06236 0
M  V30 2200 H 236.994 -4.72175 4.55397 0
M  V30 2201 H 236.911 -4.28419 6.22891 0
M  V30 2202 H 238.179 -5.3389 5.67963 0
M  V30 2203 N 242.408 -1.52605 -0.393616 0
M  V30 2204 C 243.318 -1.79971 -1.50492 0
M  V30 2205 C 244.334 -0.686181 -1.59899 0
M  V30 2206 O 245.51 -0.973274 -1.76322 0
M  V30 2207 C 242.575 -1.95867 -2.86072 0
M  V30 2208 C 241.636 -3.19781 -2.86424 0
M  V30 2209 C 240.869 -3.34909 -4.15538 0
M  V30 2210 O 241.092 -2.54948 -5.10253 0
M  V30 2211 O 240.026 -4.28141 -4.23059 0
M  V30 2212 H 243.852 -2.74328 -1.30299 0
M  V30 2213 H 241.437 -1.3764 -0.581005 0
M  V30 2214 H 243.319 -2.08056 -3.66457 0
M  V30 2215 H 241.994 -1.04699 -3.063 0
M  V30 2216 H 240.901 -3.13038 -2.04837 0
M  V30 2217 H 242.234 -4.1078 -2.71147 0
M  V30 2218 N 243.887 0.651787 -1.4349 0
M  V30 2219 C 244.797 1.79368 -1.5121 0
M  V30 2220 C 245.813 1.69361 -0.399093 0
M  V30 2221 O 246.989 1.90505 -0.653431 0
M  V30 2222 C 244.054 3.15653 -1.43401 0
M  V30 2223 C 243.115 3.37446 -2.65384 0
M  V30 2224 C 242.348 4.67229 -2.57939 0
M  V30 2225 O 242.571 5.46676 -1.62792 0
M  V30 2226 O 241.505 4.90773 -3.48462 0
M  V30 2227 H 245.331 1.7581 -2.47638 0
M  V30 2228 H 242.916 0.810447 -1.25507 0
M  V30 2229 H 244.798 3.96935 -1.41494 0
M  V30 2230 H 243.473 3.19798 -0.501085 0
M  V30 2231 H 242.38 2.55923 -2.72863 0
M  V30 2232 H 243.713 3.38148 -3.57654 0
M  V30 2233 N 245.365 1.30045 0.890287 0
M  V30 2234 C 246.59 1.21598 1.68014 0
M  V30 2235 C 247.015 -0.218678 1.86825 0
M  V30 2236 O 246.373 -1.15756 1.39536 0
M  V30 2237 C 246.421 1.94434 3.03691 0
M  V30 2238 O 245.525 1.2678 3.92429 0
M  V30 2239 H 244.866 0.420856 0.513592 0
M  V30 2240 H 247.396 1.71775 1.11151 0
M  V30 2241 H 247.406 2.03251 3.5377 0
M  V30 2242 H 246.081 2.98777 2.89318 0
M  V30 2243 H 244.658 1.26282 3.50866 0
M  V30 2244 N 246.843 -1.10192 1.12674 0
M  V30 2245 C 248.068 -1.86523 0.906853 0
M  V30 2246 C 248.493 -1.80221 -0.538711 0
M  V30 2247 O 247.851 -1.17396 -1.38158 0
M  V30 2248 C 247.899 -3.32758 1.3894 0
M  V30 2249 O 247.003 -4.08449 0.5695 0
M  V30 2250 H 246.344 -0.578678 0.325619 0
M  V30 2251 H 248.874 -1.39203 1.49946 0
M  V30 2252 H 248.884 -3.83608 1.38958 0
M  V30 2253 H 247.559 -3.36661 2.44197 0
M  V30 2254 H 246.136 -3.67427 0.636528 0
M  V30 2255 N 248.321 -0.919034 -1.28029 0
M  V30 2256 C 249.551 -0.570143 -1.98577 0
M  V30 2257 C 249.959 0.854172 -1.68821 0
M  V30 2258 O 249.302 1.57807 -0.940351 0
M  V30 2259 C 249.364 -0.705734 -3.52505 0
M  V30 2260 C 249.028 -2.10057 -4.05863 0
M  V30 2261 C 250.025 -3.07385 -4.19298 0
M  V30 2262 C 247.71 -2.41517 -4.40426 0
M  V30 2263 C 249.704 -4.34287 -4.66555 0
M  V30 2264 C 247.391 -3.68657 -4.87376 0
M  V30 2265 C 248.389 -4.64856 -5.00398 0
M  V30 2266 O 248.077 -5.89735 -5.46322 0
M  V30 2267 H 247.809 -0.215592 -0.6407 0
M  V30 2268 H 250.363 -1.23583 -1.64062 0
M  V30 2269 H 248.593 0.0170414 -3.86696 0
M  V30 2270 H 250.282 -0.363172 -4.04272 0
M  V30 2271 H 251.048 -2.84398 -3.92865 0
M  V30 2272 H 246.927 -1.67389 -4.29537 0
M  V30 2273 H 250.471 -5.09377 -4.76635 0
M  V30 2274 H 246.368 -3.91466 -5.13249 0
M  V30 2275 H 247.136 -5.92599 -5.64596 0
M  V30 2276 N 249.799 1.42003 -0.683588 0
M  V30 2277 C 251.039 2.03282 -0.213513 0
M  V30 2278 C 251.403 1.52924 1.16097 0
M  V30 2279 O 252.604 2.06048 1.7262 0
M  V30 2280 C 250.875 3.56483 -0.255856 0
M  V30 2281 S 252.434 4.3857 0.14193 0
M  V30 2282 H 249.252 0.705659 -0.0869853 0
M  V30 2283 H 251.854 1.73619 -0.8987 0
M  V30 2284 H 250.558 3.90631 -1.25841 0
M  V30 2285 H 250.089 3.90831 0.448875 0
M  V30 2286 H 252.104 4.76828 1.37295 0
M  V30 2287 N 251.277 0.427512 1.51691 0
M  V30 2288 C 252.207 -0.3796 2.30394 0
M  V30 2289 C 253.188 -1.02982 1.35384 0
M  V30 2290 O 254.373 -1.03534 1.643 0
M  V30 2291 C 251.503 -1.48649 3.1388 0
M  V30 2292 C 250.457 -0.960294 4.17088 0
M  V30 2293 C 249.783 -2.16219 4.89033 0
M  V30 2294 C 251.083 -0.00153679 5.223 0
M  V30 2295 H 252.777 0.277164 2.98114 0
M  V30 2296 H 250.323 0.134739 1.43368 0
M  V30 2297 H 252.276 -2.05826 3.67714 0
M  V30 2298 H 251 -2.1714 2.43962 0
M  V30 2299 H 249.659 -0.410806 3.64291 0
M  V30 2300 H 249.307 -2.83307 4.15628 0
M  V30 2301 H 249.007 -1.81654 5.58816 0
M  V30 2302 H 250.531 -2.73968 5.45687 0
M  V30 2303 H 251.945 -0.482687 5.71264 0
M  V30 2304 H 250.342 0.256199 5.99553 0
M  V30 2305 H 251.412 0.938174 4.75738 0
M  V30 2306 N 252.755 -1.56801 0.158532 0
M  V30 2307 C 253.985 -2.00568 -0.495583 0
M  V30 2308 C 254.393 -1.03774 -1.58201 0
M  V30 2309 O 253.736 -0.0285797 -1.83678 0
M  V30 2310 C 253.798 -3.40768 -1.14532 0
M  V30 2311 C 253.462 -4.56553 -0.202101 0
M  V30 2312 C 254.459 -5.16714 0.574675 0
M  V30 2313 C 252.144 -5.02197 -0.101648 0
M  V30 2314 C 254.138 -6.20939 1.43924 0
M  V30 2315 C 251.825 -6.06274 0.766508 0
M  V30 2316 C 252.823 -6.65515 1.53555 0
M  V30 2317 O 252.511 -7.67575 2.38922 0
M  V30 2318 H 252.243 -0.662893 -0.13247 0
M  V30 2319 H 254.797 -2.03829 0.253559 0
M  V30 2320 H 253.027 -3.34381 -1.94233 0
M  V30 2321 H 254.716 -3.6857 -1.70033 0
M  V30 2322 H 255.482 -4.82341 0.507167 0
M  V30 2323 H 251.361 -4.55807 -0.689994 0
M  V30 2324 H 254.905 -6.67107 2.03996 0
M  V30 2325 H 250.802 -6.40073 0.835266 0
M  V30 2326 H 251.57 -7.84844 2.32296 0
M  V30 2327 N 254.233 0.115231 -1.57178 0
M  V30 2328 C 255.51 0.852873 -1.76027 0
M  V30 2329 C 255.89 1.97892 -0.73498 0
M  V30 2330 O 255.238 2.27232 0.24036 0
M  V30 2331 C 255.448 1.36608 -3.21153 0
M  V30 2332 C 256.796 1.81692 -3.83762 0
M  V30 2333 O 257.82 1.46278 -3.24779 0
M  V30 2334 O 256.679 2.47104 -4.87444 0
M  V30 2335 H 253.773 0.405296 -0.720877 0
M  V30 2336 H 256.319 0.0986785 -1.69413 0
M  V30 2337 H 255.091 0.558357 -3.87296 0
M  V30 2338 H 254.714 2.18287 -3.3232 0
M  V30 2339 N 255.711 1.52812 0.385517 0
M  V30 2340 C 256.936 1.72207 1.15583 0
M  V30 2341 C 257.361 0.441034 1.82857 0
M  V30 2342 O 256.719 -0.603465 1.70962 0
M  V30 2343 C 256.767 2.87476 2.17692 0
M  V30 2344 O 255.871 2.54693 3.24354 0
M  V30 2345 H 255.212 0.572526 0.336319 0
M  V30 2346 H 257.742 1.99618 0.448744 0
M  V30 2347 H 257.752 3.13072 2.6163 0
M  V30 2348 H 256.427 3.80408 1.68115 0
M  V30 2349 H 255.004 2.3985 2.85529 0
M  V30 2350 N 257.189 -0.644168 1.43834 0
M  V30 2351 C 258.152 -1.73857 1.49353 0
M  V30 2352 C 259.152 -1.56315 0.377112 0
M  V30 2353 O 260.342 -1.62048 0.639226 0
M  V30 2354 C 257.474 -3.12819 1.35488 0
M  V30 2355 H 258.667 -1.70342 2.46827 0
M  V30 2356 H 256.22 -0.856652 1.30733 0
M  V30 2357 H 256.955 -3.2194 0.390569 0
M  V30 2358 H 256.74 -3.26958 2.16428 0
M  V30 2359 H 258.23 -3.92606 1.42302 0
M  V30 2360 N 258.668 -1.30515 -0.883378 0
M  V30 2361 C 259.945 -1.10086 -1.6168 0
M  V30 2362 C 260.325 0.349269 -2.08191 0
M  V30 2363 O 259.673 1.34105 -1.85008 0
M  V30 2364 C 259.883 -2.10315 -2.78511 0
M  V30 2365 C 261.231 -2.42119 -3.48803 0
M  V30 2366 O 262.255 -2.08638 -2.88702 0
M  V30 2367 O 261.114 -2.99396 -4.57192 0
M  V30 2368 H 258.208 -0.422907 -0.710689 0
M  V30 2369 H 260.754 -1.41947 -0.930015 0
M  V30 2370 H 259.526 -3.07917 -2.41459 0
M  V30 2371 H 259.149 -1.79282 -3.54886 0
M  V30 2372 N 260.146 1.09593 -1.13257 0
M  V30 2373 C 261.093 2.1618 -0.808381 0
M  V30 2374 C 262.063 1.64517 0.228754 0
M  V30 2375 O 263.248 1.9053 0.101381 0
M  V30 2376 C 260.388 3.43973 -0.278675 0
M  V30 2377 C 259.501 4.09545 -1.37466 0
M  V30 2378 C 258.636 5.25088 -0.803479 0
M  V30 2379 C 257.675 5.82579 -1.87799 0
M  V30 2380 N 256.812 6.89486 -1.32488 0
M  V30 2381 H 261.652 2.43254 -1.72138 0
M  V30 2382 H 259.189 1.19392 -0.859294 0
M  V30 2383 H 261.147 4.17174 0.0465583 0
M  V30 2384 H 259.777 3.17223 0.597459 0
M  V30 2385 H 258.829 3.34226 -1.81652 0
M  V30 2386 H 260.141 4.48307 -2.18684 0
M  V30 2387 H 259.295 6.05178 -0.429427 0
M  V30 2388 H 258.034 4.87684 0.0397956 0
M  V30 2389 H 257.039 5.01152 -2.26113 0
M  V30 2390 H 258.264 6.22045 -2.72463 0
M  V30 2391 H 256.21 6.54064 -0.503575 0
M  V30 2392 H 256.127 7.27007 -2.07355 0
M  V30 2393 H 257.395 7.73336 -0.978336 0
M  V30 2394 N 261.624 0.925811 1.2754 0
M  V30 2395 C 262.864 0.572521 1.96218 0
M  V30 2396 C 263.228 -0.869719 1.71172 0
M  V30 2397 O 264.429 -1.33119 2.33523 0
M  V30 2398 C 262.7 0.887325 3.4621 0
M  V30 2399 S 264.259 0.642266 4.34074 0
M  V30 2400 H 261.077 0.211403 0.678845 0
M  V30 2401 H 263.679 1.19384 1.54815 0
M  V30 2402 H 262.383 1.93469 3.61936 0
M  V30 2403 H 261.914 0.255123 3.92572 0
M  V30 2404 H 263.929 -0.500822 4.93666 0
M  V30 2405 N 263.102 -1.41638 0.69111 0
M  V30 2406 C 264.513 -1.84346 0.295517 0
M  V30 2407 C 264.864 -1.57833 -1.16547 0
M  V30 2408 O 263.989 -1.04648 -1.89414 0
M  V30 2409 C 264.584 -3.34636 0.529575 0
M  V30 2410 C 263.143 -3.7593 0.187944 0
M  V30 2411 C 262.29 -2.65082 0.814052 0
M  V30 2412 H 265.241 -1.31253 0.892092 0
M  V30 2413 H 265.262 -3.79903 -0.213148 0
M  V30 2414 H 264.774 -3.53901 1.59297 0
M  V30 2415 H 262.875 -3.62268 -0.871367 0
M  V30 2416 H 262.988 -4.74808 0.63985 0
M  V30 2417 H 261.352 -2.53528 0.244017 0
M  V30 2418 H 262.135 -2.87167 1.88123 0
M  V30 2419 N 264.58 -0.43555 -1.51462 0
M  V30 2420 C 265.527 0.376797 -2.27703 0
M  V30 2421 C 266.497 1.01838 -1.31219 0
M  V30 2422 O 267.682 1.03762 -1.60119 0
M  V30 2423 C 264.822 1.47301 -3.12084 0
M  V30 2424 C 263.935 0.849744 -4.2356 0
M  V30 2425 C 263.07 1.92086 -4.95254 0
M  V30 2426 C 262.109 1.27593 -5.98654 0
M  V30 2427 N 261.246 2.28833 -6.63762 0
M  V30 2428 H 266.086 -0.279734 -2.96684 0
M  V30 2429 H 263.623 -0.149795 -1.46335 0
M  V30 2430 H 265.581 2.11984 -3.59331 0
M  V30 2431 H 264.211 2.0992 -2.45221 0
M  V30 2432 H 263.263 0.0912529 -3.80291 0
M  V30 2433 H 264.575 0.338878 -4.97648 0
M  V30 2434 H 263.729 2.64435 -5.46039 0
M  V30 2435 H 262.468 2.46545 -4.20793 0
M  V30 2436 H 261.473 0.537893 -5.47162 0
M  V30 2437 H 262.698 0.738693 -6.7507 0
M  V30 2438 H 260.644 2.82375 -5.92115 0
M  V30 2439 H 260.561 1.82632 -7.33608 0
M  V30 2440 H 261.829 3.00671 -7.19178 0
M  V30 2441 N 266.058 1.56714 -0.166846 0
M  V30 2442 C 267.304 1.97039 0.479962 0
M  V30 2443 C 267.637 1.05264 1.63197 0
M  V30 2444 O 266.912 0.0988833 1.94248 0
M  V30 2445 C 267.195 3.46867 0.967212 0
M  V30 2446 C 267.048 4.49421 -0.18466 0
M  V30 2447 C 268.367 3.9968 1.84238 0
M  V30 2448 H 265.486 0.71641 0.172992 0
M  V30 2449 H 268.128 1.8832 -0.252079 0
M  V30 2450 H 266.278 3.54428 1.59101 0
M  V30 2451 H 267.95 4.53924 -0.821621 0
M  V30 2452 H 266.193 4.25573 -0.840837 0
M  V30 2453 H 266.864 5.51644 0.198317 0
M  V30 2454 H 269.34 3.94723 1.31655 0
M  V30 2455 H 268.216 5.04941 2.15234 0
M  V30 2456 H 268.477 3.43226 2.78654 0
M  V30 2457 N 267.536 -0.106894 1.57237 0
M  V30 2458 C 268.761 -0.830287 1.90055 0
M  V30 2459 C 269.186 -1.72064 0.75998 0
M  V30 2460 O 268.544 -1.78982 -0.288991 0
M  V30 2461 C 268.592 -1.6295 3.21683 0
M  V30 2462 O 267.696 -2.73748 3.08441 0
M  V30 2463 H 267.037 -0.228855 0.623315 0
M  V30 2464 H 269.567 -0.085658 2.04421 0
M  V30 2465 H 269.577 -2.01621 3.54701 0
M  V30 2466 H 268.252 -0.975989 4.04286 0
M  V30 2467 H 266.829 -2.38192 2.86913 0
M  V30 2468 N 269.014 -1.53014 -0.377408 0
M  V30 2469 C 269.977 -1.77957 -1.44444 0
M  V30 2470 C 270.977 -0.649763 -1.47087 0
M  V30 2471 O 272.167 -0.917897 -1.48055 0
M  V30 2472 C 269.299 -1.89089 -2.83651 0
M  V30 2473 H 270.492 -2.73243 -1.23606 0
M  V30 2474 H 268.045 -1.43912 -0.609844 0
M  V30 2475 H 268.78 -0.958293 -3.09818 0
M  V30 2476 H 268.565 -2.71254 -2.83132 0
M  V30 2477 H 270.055 -2.1002 -3.60945 0
M  V30 2478 N 270.492 0.636531 -1.44174 0
M  V30 2479 C 271.72 1.42353 -1.50144 0
M  V30 2480 C 272.135 1.88389 -0.124575 0
M  V30 2481 O 271.492 1.6051 0.868489 0
M  V30 2482 C 271.543 2.64744 -2.46156 0
M  V30 2483 O 271.264 2.20629 -3.7849 0
M  V30 2484 C 272.765 3.57929 -2.61537 0
M  V30 2485 H 269.985 0.436752 -0.5094 0
M  V30 2486 H 272.529 0.778933 -1.89084 0
M  V30 2487 H 270.684 3.25307 -2.10366 0
M  V30 2488 H 271.098 2.99938 -4.30276 0
M  V30 2489 H 272.572 4.40428 -3.32757 0
M  V30 2490 H 273.049 4.06382 -1.66585 0
M  V30 2491 H 273.655 3.03238 -2.98206 0
M  V30 2492 N 271.97 1.30982 0.876444 0
M  V30 2493 C 272.933 1.18054 1.96459 0
M  V30 2494 C 273.933 0.109399 1.60427 0
M  V30 2495 O 275.123 0.358173 1.70478 0
M  V30 2496 C 272.255 0.810616 3.31122 0
M  V30 2497 H 273.448 2.14735 2.09354 0
M  V30 2498 H 271.001 1.145 1.06392 0
M  V30 2499 H 271.736 -0.155322 3.23928 0
M  V30 2500 H 271.521 1.58481 3.58645 0
M  V30 2501 H 273.011 0.743876 4.10921 0
M  V30 2502 N 273.449 -1.08991 1.13837 0
M  V30 2503 C 274.412 -2.13925 0.822715 0
M  V30 2504 C 275.412 -1.599 -0.1699 0
M  V30 2505 O 276.602 -1.74104 0.0577251 0
M  V30 2506 C 273.734 -3.40155 0.225318 0
M  V30 2507 H 274.927 -2.43358 1.75262 0
M  V30 2508 H 272.48 -1.24603 0.943594 0
M  V30 2509 H 273.215 -3.16352 -0.713594 0
M  V30 2510 H 273 -3.80661 0.940193 0
M  V30 2511 H 274.49 -4.17594 0.0214784 0
M  V30 2512 N 274.927 -0.932562 -1.27047 0
M  V30 2513 C 275.837 -0.441219 -2.30414 0
M  V30 2514 C 276.853 0.480525 -1.67233 0
M  V30 2515 O 278.029 0.362151 -1.98117 0
M  V30 2516 C 275.094 0.293651 -3.45454 0
M  V30 2517 C 274.155 -0.663601 -4.2414 0
M  V30 2518 C 273.388 0.0362932 -5.33688 0
M  V30 2519 O 273.611 1.2548 -5.56427 0
M  V30 2520 O 272.545 -0.638015 -5.98509 0
M  V30 2521 H 276.371 -1.29962 -2.74488 0
M  V30 2522 H 273.956 -0.6981 -1.32087 0
M  V30 2523 H 275.838 0.707951 -4.15411 0
M  V30 2524 H 274.513 1.12758 -3.03426 0
M  V30 2525 H 273.42 -1.12768 -3.56699 0
M  V30 2526 H 274.753 -1.46489 -4.69896 0
M  V30 2527 N 276.405 1.4127 -0.698611 0
M  V30 2528 C 277.335 2.33447 -0.049629 0
M  V30 2529 C 278.316 1.51982 0.763898 0
M  V30 2530 O 279.501 1.80509 0.716257 0
M  V30 2531 C 276.631 3.35828 0.885267 0
M  V30 2532 C 275.585 4.27627 0.178613 0
M  V30 2533 C 274.911 5.20406 1.22807 0
M  V30 2534 C 276.211 5.13459 -0.956933 0
M  V30 2535 H 277.905 2.87966 -0.81951 0
M  V30 2536 H 275.451 1.38461 -0.395538 0
M  V30 2537 H 277.404 3.9924 1.34854 0
M  V30 2538 H 276.128 2.79666 1.68685 0
M  V30 2539 H 274.787 3.65643 -0.26466 0
M  V30 2540 H 274.435 4.60558 2.02226 0
M  V30 2541 H 274.135 5.82661 0.760239 0
M  V30 2542 H 275.659 5.86695 1.69179 0
M  V30 2543 H 277.073 5.70421 -0.573805 0
M  V30 2544 H 275.47 5.8467 -1.35205 0
M  V30 2545 H 276.54 4.50443 -1.79524 0
M  V30 2546 N 277.883 0.443576 1.51229 0
M  V30 2547 C 278.846 -0.353132 2.26463 0
M  V30 2548 C 279.846 -0.944338 1.3015 0
M  V30 2549 O 281.036 -0.817813 1.5381 0
M  V30 2550 C 278.168 -1.50023 3.06114 0
M  V30 2551 H 279.361 0.3063 2.98332 0
M  V30 2552 H 276.914 0.196902 1.55055 0
M  V30 2553 H 277.649 -2.19553 2.38677 0
M  V30 2554 H 277.434 -1.08241 3.76864 0
M  V30 2555 H 278.924 -2.06296 3.63087 0
M  V30 2556 N 279.361 -1.56624 0.175154 0
M  V30 2557 C 280.772 -1.83561 -0.340916 0
M  V30 2558 C 281.123 -1.09511 -1.62794 0
M  V30 2559 O 280.248 -0.349389 -2.13561 0
M  V30 2560 C 280.843 -3.32979 -0.625313 0
M  V30 2561 C 279.402 -3.60399 -1.08581 0
M  V30 2562 C 278.549 -2.77024 -0.123722 0
M  V30 2563 H 281.5 -1.53593 0.399344 0
M  V30 2564 H 281.521 -3.50666 -1.47694 0
M  V30 2565 H 281.033 -3.86847 0.311575 0
M  V30 2566 H 279.134 -3.11945 -2.03767 0
M  V30 2567 H 279.247 -4.68711 -0.992317 0
M  V30 2568 H 277.611 -2.46993 -0.621821 0
M  V30 2569 H 278.394 -3.33674 0.807256 0
M  V30 2570 N 280.839 0.0985539 -1.57292 0
M  V30 2571 C 282.086 0.802678 -1.85912 0
M  V30 2572 C 282.414 1.78901 -0.763186 0
M  V30 2573 O 281.669 1.94178 0.243559 0
M  V30 2574 C 281.968 1.56927 -3.21105 0
M  V30 2575 C 281.634 0.725376 -4.45027 0
M  V30 2576 C 280.296 0.492726 -4.78671 0
M  V30 2577 C 282.648 0.138493 -5.21016 0
M  V30 2578 C 279.976 -0.336727 -5.85733 0
M  V30 2579 C 282.328 -0.678264 -6.28953 0
M  V30 2580 C 280.992 -0.921039 -6.61115 0
M  V30 2581 H 280.262 0.293721 -0.680301 0
M  V30 2582 H 282.909 0.0642841 -1.91392 0
M  V30 2583 H 281.214 2.37914 -3.11294 0
M  V30 2584 H 282.911 2.11841 -3.40477 0
M  V30 2585 H 279.501 0.916815 -4.18679 0
M  V30 2586 H 283.685 0.305404 -4.95359 0
M  V30 2587 H 278.941 -0.533836 -6.09065 0
M  V30 2588 H 283.115 -1.1399 -6.87007 0
M  V30 2589 H 280.742 -1.56556 -7.43905 0
M  V30 2590 N 282.317 1.53212 0.369288 0
M  V30 2591 C 283.728 1.60943 0.946276 0
M  V30 2592 C 284.079 0.47452 1.90375 0
M  V30 2593 O 283.204 -0.399597 2.12679 0
M  V30 2594 C 283.799 2.91715 1.72302 0
M  V30 2595 C 282.358 3.01792 2.24941 0
M  V30 2596 C 281.505 2.56211 1.06072 0
M  V30 2597 H 284.456 1.58007 0.148198 0
M  V30 2598 H 284.477 2.79309 2.58393 0
M  V30 2599 H 283.989 3.74295 1.0259 0
M  V30 2600 H 282.09 2.23791 2.97906 0
M  V30 2601 H 282.203 4.06803 2.53077 0
M  V30 2602 H 280.567 2.10998 1.4266 0
M  V30 2603 H 281.35 3.41206 0.378639 0
M  V30 2604 N 283.795 -0.628877 1.44509 0
M  V30 2605 C 285.211 -0.947305 1.28446 0
M  V30 2606 C 285.411 -2.00275 0.221872 0
M  V30 2607 O 284.467 -2.49447 -0.391471 0
M  V30 2608 C 285.78 -1.40843 2.65676 0
M  V30 2609 C 287.328 -1.52379 2.73404 0
M  V30 2610 C 287.803 -2.01875 4.11109 0
M  V30 2611 N 289.294 -2.09142 4.13296 0
M  V30 2612 C 290.029 -2.48615 5.16699 0
M  V30 2613 N 289.525 -2.87209 6.30462 0
M  V30 2614 N 291.318 -2.48768 5.04054 0
M  V30 2615 H 283.469 0.0690977 2.12288 0
M  V30 2616 H 285.732 -0.0317164 0.947469 0
M  V30 2617 H 285.438 -0.707206 3.44516 0
M  V30 2618 H 285.312 -2.37902 2.92716 0
M  V30 2619 H 287.699 -2.21598 1.9488 0
M  V30 2620 H 287.78 -0.536898 2.50102 0
M  V30 2621 H 287.424 -1.3325 4.90109 0
M  V30 2622 H 287.354 -3.0144 4.31789 0
M  V30 2623 H 289.845 -1.81991 3.31191 0
M  V30 2624 H 290.158 -3.16149 7.05174 0
M  V30 2625 H 288.503 -2.84955 6.33897 0
M  V30 2626 H 291.694 -2.18009 4.14234 0
M  V30 2627 H 291.867 -2.79207 5.84763 0
M  V30 2628 N 285.273 -1.31445 -0.869486 0
M  V30 2629 C 286.521 -1.20918 -1.61936 0
M  V30 2630 C 286.842 0.232683 -1.93607 0
M  V30 2631 O 286.112 1.15352 -1.58338 0
M  V30 2632 H 284.692 -0.44454 -0.600328 0
M  V30 2633 H 287.354 -1.64776 -1.0409 0
M  V30 2634 H 286.45 -1.78124 -2.56278 0
M  V30 2635 N 286.751 1.08385 -1.14413 0
M  V30 2636 C 288.162 1.62258 -0.923535 0
M  V30 2637 C 288.513 1.88691 0.537595 0
M  V30 2638 O 287.638 1.64454 1.40655 0
M  V30 2639 C 288.233 2.94781 -1.67002 0
M  V30 2640 C 286.792 3.45437 -1.495 0
M  V30 2641 C 285.939 2.19668 -1.69238 0
M  V30 2642 H 288.89 0.916086 -1.2959 0
M  V30 2643 H 288.911 3.63229 -1.13334 0
M  V30 2644 H 288.423 2.7551 -2.73342 0
M  V30 2645 H 286.524 3.6981 -0.455097 0
M  V30 2646 H 286.637 4.22173 -2.2651 0
M  V30 2647 H 285.001 2.28849 -1.11804 0
M  V30 2648 H 285.784 2.02905 -2.7692 0
M  V30 2649 N 288.23 0.939286 1.26551 0
M  V30 2650 C 289.641 0.628782 1.75793 0
M  V30 2651 C 289.992 -0.856046 1.7654 0
M  V30 2652 O 289.117 -1.66994 1.3763 0
M  V30 2653 C 289.712 1.13465 3.19235 0
M  V30 2654 C 288.271 0.874601 3.66098 0
M  V30 2655 C 287.418 1.28667 2.45642 0
M  V30 2656 H 290.369 1.1178 1.12654 0
M  V30 2657 H 290.39 0.487609 3.77363 0
M  V30 2658 H 289.902 2.21535 3.1866 0
M  V30 2659 H 288.003 -0.191793 3.72106 0
M  V30 2660 H 288.116 1.50028 4.55004 0
M  V30 2661 H 286.48 0.705109 2.44745 0
M  V30 2662 H 287.263 2.37625 2.47769 0
M  V30 2663 N 289.708 -1.40897 0.706093 0
M  V30 2664 C 291.119 -1.84023 0.315052 0
M  V30 2665 C 291.47 -1.5906 -1.14866 0
M  V30 2666 O 290.595 -1.06651 -1.88293 0
M  V30 2667 C 291.19 -3.34055 0.565038 0
M  V30 2668 C 289.749 -3.7571 0.227806 0
M  V30 2669 C 288.896 -2.64204 0.842122 0
M  V30 2670 H 291.847 -1.303 0.905963 0
M  V30 2671 H 291.868 -3.80107 -0.172843 0
M  V30 2672 H 291.38 -3.52192 1.63042 0
M  V30 2673 H 289.481 -3.63172 -0.832895 0
M  V30 2674 H 289.594 -4.74103 0.690174 0
M  V30 2675 H 287.958 -2.53255 0.270893 0
M  V30 2676 H 288.741 -2.85155 1.91158 0
M  V30 2677 N 291.186 -0.45159 -1.50991 0
M  V30 2678 C 292.463 0.170707 -1.94854 0
M  V30 2679 C 292.843 1.58788 -1.39103 0
M  V30 2680 O 292.191 2.20913 -0.583921 0
M  V30 2681 C 292.401 0.133929 -3.48743 0
M  V30 2682 C 293.749 0.33248 -4.23296 0
M  V30 2683 O 294.773 0.211403 -3.55572 0
M  V30 2684 O 293.632 0.57486 -5.43468 0
M  V30 2685 H 290.726 0.122264 -0.817912 0
M  V30 2686 H 293.272 -0.510594 -1.61836 0
M  V30 2687 H 292.044 -0.856283 -3.81816 0
M  V30 2688 H 291.667 0.857529 -3.88242 0
M  V30 2689 N 292.664 1.56529 -0.183458 0
M  V30 2690 C 293.912 1.96855 0.457452 0
M  V30 2691 C 294.233 1.07104 1.62953 0
M  V30 2692 O 293.503 0.139887 1.954 0
M  V30 2693 H 292.083 0.72693 0.171992 0
M  V30 2694 H 294.745 1.93056 -0.267476 0
M  V30 2695 H 293.841 3.01423 0.809368 0
M  V30 2696 N 294.142 -0.090211 1.57342 0
M  V30 2697 C 295.382 -0.798365 1.88163 0
M  V30 2698 C 295.746 -1.75662 0.775046 0
M  V30 2699 O 296.947 -2.50849 0.965816 0
M  V30 2700 C 295.218 -1.50376 3.24225 0
M  V30 2701 S 296.777 -2.24952 3.76752 0
M  V30 2702 H 293.595 -0.265883 0.659414 0
M  V30 2703 H 296.197 -0.055264 1.95422 0
M  V30 2704 H 294.901 -0.792286 4.0268 0
M  V30 2705 H 294.432 -2.28666 3.20118 0
M  V30 2706 H 296.447 -3.51173 3.5056 0
M  V30 2707 N 295.62 -1.53406 -0.361157 0
M  V30 2708 C 296.583 -1.79479 -1.42548 0
M  V30 2709 C 297.583 -0.665327 -1.4639 0
M  V30 2710 O 298.773 -0.933549 -1.47073 0
M  V30 2711 C 295.905 -1.92087 -2.8163 0
M  V30 2712 H 297.098 -2.74538 -1.20701 0
M  V30 2713 H 294.651 -1.4455 -0.594546 0
M  V30 2714 H 295.386 -0.991099 -3.08784 0
M  V30 2715 H 295.171 -2.74241 -2.80239 0
M  V30 2716 H 296.661 -2.13836 -3.58697 0
M  V30 2717 N 297.098 0.621204 -1.44841 0
M  V30 2718 C 298.028 1.74366 -1.55303 0
M  V30 2719 C 299.009 1.65199 -0.405385 0
M  V30 2720 O 300.194 1.83807 -0.626787 0
M  V30 2721 C 297.324 3.12931 -1.50637 0
M  V30 2722 C 296.278 3.36896 -2.63979 0
M  V30 2723 C 295.604 4.75594 -2.44366 0
M  V30 2724 C 296.904 3.28483 -4.06074 0
M  V30 2725 H 298.598 1.65867 -2.49256 0
M  V30 2726 H 296.144 0.796558 -1.19962 0
M  V30 2727 H 298.097 3.9124 -1.56555 0
M  V30 2728 H 296.821 3.22237 -0.532057 0
M  V30 2729 H 295.48 2.60972 -2.57467 0
M  V30 2730 H 295.128 4.81616 -1.45105 0
M  V30 2731 H 294.828 4.92586 -3.20364 0
M  V30 2732 H 296.352 5.5612 -2.52117 0
M  V30 2733 H 297.766 3.96684 -4.13902 0
M  V30 2734 H 296.163 3.57008 -4.82354 0
M  V30 2735 H 297.233 2.26133 -4.28943 0
M  V30 2736 N 298.576 1.31904 0.862503 0
M  V30 2737 C 299.824 1.21776 1.61292 0
M  V30 2738 C 300.145 -0.222413 1.93727 0
M  V30 2739 O 299.415 -1.1451 1.58947 0
M  V30 2740 H 297.995 0.447717 0.597962 0
M  V30 2741 H 300.657 1.65326 1.03215 0
M  V30 2742 H 299.753 1.7948 2.5533 0
M  V30 2743 N 300.054 -1.07777 1.14986 0
M  V30 2744 C 301.282 -1.84018 0.945773 0
M  V30 2745 C 301.697 -1.81897 -0.505863 0
M  V30 2746 O 301.054 -1.22726 -1.35072 0
M  V30 2747 C 301.105 -3.31287 1.44677 0
M  V30 2748 O 300.826 -3.33449 2.84154 0
M  V30 2749 C 302.327 -4.24311 1.28355 0
M  V30 2750 H 299.547 -0.580716 0.336169 0
M  V30 2751 H 302.091 -1.36077 1.52654 0
M  V30 2752 H 300.246 -3.76594 0.908625 0
M  V30 2753 H 300.66 -4.25427 3.06777 0
M  V30 2754 H 302.134 -5.2573 1.68261 0
M  V30 2755 H 302.611 -4.38612 0.227184 0
M  V30 2756 H 303.217 -3.84836 1.81056 0
M  V30 2757 N 301.532 -0.945985 -1.26051 0
M  V30 2758 C 302.757 -0.612525 -1.98149 0
M  V30 2759 C 303.182 0.806623 -1.69927 0
M  V30 2760 O 302.54 1.54411 -0.950108 0
M  V30 2761 C 302.588 -0.866981 -3.50023 0
M  V30 2762 O 301.692 0.0585333 -4.12358 0
M  V30 2763 H 301.033 -0.23379 -0.621481 0
M  V30 2764 H 303.563 -1.27023 -1.60395 0
M  V30 2765 H 303.573 -0.789792 -4.00283 0
M  V30 2766 H 302.248 -1.90135 -3.69894 0
M  V30 2767 H 300.825 -0.0701241 -3.72834 0
M  V30 2768 N 303.011 1.40521 -0.713556 0
M  V30 2769 C 304.236 2.05759 -0.26035 0
M  V30 2770 C 304.661 1.53403 1.08854 0
M  V30 2771 O 304.019 0.668535 1.68524 0
M  V30 2772 C 304.067 3.59745 -0.248122 0
M  V30 2773 O 303.171 4.05123 0.77131 0
M  V30 2774 H 302.512 0.652564 -0.122703 0
M  V30 2775 H 305.042 1.79958 -0.973467 0
M  V30 2776 H 305.052 4.07911 -0.0851129 0
M  V30 2777 H 303.727 3.97218 -1.2325 0
M  V30 2778 H 302.304 3.68422 0.57619 0
M  V30 2779 N 304.489 0.459591 1.5075 0
M  V30 2780 C 305.737 -0.0991532 2.01857 0
M  V30 2781 C 306.058 -1.41247 1.34441 0
M  V30 2782 O 305.328 -1.89775 0.486022 0
M  V30 2783 H 303.908 -0.039633 0.745948 0
M  V30 2784 H 306.57 0.607387 1.85194 0
M  V30 2785 H 305.666 -0.258998 3.11023 0
M  V30 2786 N 305.967 -1.56429 0.191757 0
M  V30 2787 C 307.213 -1.97777 -0.448554 0
M  V30 2788 C 307.546 -1.07847 -1.61501 0
M  V30 2789 O 306.821 -0.129774 -1.94067 0
M  V30 2790 C 307.104 -3.48362 -0.911906 0
M  V30 2791 C 306.957 -4.4907 0.256136 0
M  V30 2792 C 308.276 -4.02561 -1.77857 0
M  V30 2793 H 305.395 -0.719071 -0.161572 0
M  V30 2794 H 308.037 -1.87896 0.282007 0
M  V30 2795 H 306.187 -3.56914 -1.53442 0
M  V30 2796 H 307.859 -4.5256 0.893733 0
M  V30 2797 H 306.102 -4.24181 0.908436 0
M  V30 2798 H 306.773 -5.51889 -0.11053 0
M  V30 2799 H 309.249 -3.96767 -1.25359 0
M  V30 2800 H 308.125 -5.08301 -2.07174 0
M  V30 2801 H 308.386 -3.47616 -2.73158 0
M  V30 2802 N 307.445 0.0818655 -1.57387 0
M  V30 2803 C 308.856 0.634871 -1.75574 0
M  V30 2804 C 309.207 1.78435 -0.815809 0
M  V30 2805 O 308.332 2.164 0.0025366 0
M  V30 2806 C 308.927 1.15845 -3.18379 0
M  V30 2807 C 307.486 1.65741 -3.37945 0
M  V30 2808 C 306.633 0.572549 -2.71325 0
M  V30 2809 H 309.584 -0.144268 -1.58043 0
M  V30 2810 H 309.605 2.02751 -3.21982 0
M  V30 2811 H 309.117 0.321631 -3.86765 0
M  V30 2812 H 307.218 2.51781 -2.74658 0
M  V30 2813 H 307.331 1.74129 -4.46336 0
M  V30 2814 H 305.695 1.01518 -2.33594 0
M  V30 2815 H 306.478 -0.253918 -3.4236 0
M  V30 2816 N 308.923 1.53595 0.353017 0
M  V30 2817 C 310.169 1.70638 1.09593 0
M  V30 2818 C 310.502 0.463286 1.88593 0
M  V30 2819 O 309.777 -0.539597 1.86865 0
M  V30 2820 C 310.06 2.96406 2.04489 0
M  V30 2821 C 309.913 4.30901 1.29014 0
M  V30 2822 C 311.232 3.17812 3.0444 0
M  V30 2823 H 308.351 0.620913 0.397034 0
M  V30 2824 H 310.993 1.86254 0.375446 0
M  V30 2825 H 309.143 2.83223 2.65927 0
M  V30 2826 H 310.815 4.55917 0.702638 0
M  V30 2827 H 309.058 4.29741 0.592071 0
M  V30 2828 H 309.729 5.1506 1.98537 0
M  V30 2829 H 312.205 3.30263 2.53112 0
M  V30 2830 H 311.081 4.07223 3.6805 0
M  V30 2831 H 311.342 2.33669 3.75301 0
M  V30 2832 N 310.401 -0.613514 1.45168 0
M  V30 2833 C 311.812 -1.19539 1.43413 0
M  V30 2834 C 312.163 -1.95558 0.158632 0
M  V30 2835 O 311.288 -2.0335 -0.740119 0
M  V30 2836 C 311.883 -2.17445 2.59813 0
M  V30 2837 C 310.442 -2.71022 2.61197 0
M  V30 2838 C 309.589 -1.46323 2.35552 0
M  V30 2839 H 312.54 -0.403163 1.53494 0
M  V30 2840 H 312.561 -3.00373 2.33574 0
M  V30 2841 H 312.073 -1.62089 3.52631 0
M  V30 2842 H 310.174 -3.30332 1.7237 0
M  V30 2843 H 310.287 -3.15859 3.60236 0
M  V30 2844 H 308.651 -1.75072 1.84992 0
M  V30 2845 H 309.434 -0.92844 3.30507 0
M  V30 2846 N 311.879 -1.3236 -0.855495 0
M  V30 2847 C 313.127 -1.22629 -1.60644 0
M  V30 2848 C 313.448 0.212136 -1.93843 0
M  V30 2849 O 312.718 1.13666 -1.59552 0
M  V30 2850 H 311.298 -0.450882 -0.595579 0
M  V30 2851 H 313.96 -1.65871 -1.02337 0
M  V30 2852 H 313.056 -1.80832 -2.54374 0
M  V30 2853 N 313.357 1.07166 -1.15556 0
M  V30 2854 C 314.587 1.83248 -0.954133 0
M  V30 2855 C 314.995 1.82449 0.500911 0
M  V30 2856 O 314.338 1.23575 1.35923 0
M  V30 2857 C 314.4 3.31393 -1.39351 0
M  V30 2858 C 314.064 3.5591 -2.86666 0
M  V30 2859 C 315.061 3.49695 -3.8472 0
M  V30 2860 C 312.746 3.83515 -3.24379 0
M  V30 2861 C 314.74 3.70737 -5.18491 0
M  V30 2862 C 312.427 4.04209 -4.58321 0
M  V30 2863 C 313.425 3.97815 -5.55186 0
M  V30 2864 O 313.113 4.17954 -6.86709 0
M  V30 2865 H 312.845 0.584941 -0.338851 0
M  V30 2866 H 315.399 1.36169 -1.53777 0
M  V30 2867 H 313.629 3.79292 -0.75329 0
M  V30 2868 H 315.318 3.88945 -1.16089 0
M  V30 2869 H 316.084 3.28368 -3.56931 0
M  V30 2870 H 311.963 3.87605 -2.49567 0
M  V30 2871 H 315.507 3.65663 -5.94085 0
M  V30 2872 H 311.404 4.25023 -4.85825 0
M  V30 2873 H 312.172 4.35291 -6.93155 0
M  V30 2874 N 314.835 0.952656 1.25548 0
M  V30 2875 C 316.082 0.606373 1.93208 0
M  V30 2876 C 316.41 -0.85631 1.74636 0
M  V30 2877 O 315.665 -1.62951 1.08376 0
M  V30 2878 C 315.964 0.908818 3.45652 0
M  V30 2879 C 315.63 2.35722 3.84378 0
M  V30 2880 C 314.292 2.75312 3.9466 0
M  V30 2881 C 316.644 3.29793 4.03591 0
M  V30 2882 C 313.972 4.08047 4.21562 0
M  V30 2883 C 316.324 4.62138 4.31985 0
M  V30 2884 C 314.988 5.01528 4.40484 0
M  V30 2885 H 314.258 0.221888 0.706998 0
M  V30 2886 H 316.905 1.20132 1.49133 0
M  V30 2887 H 315.21 0.231456 3.91116 0
M  V30 2888 H 316.907 0.619498 3.96186 0
M  V30 2889 H 313.497 2.04017 3.76928 0
M  V30 2890 H 317.681 3.00397 3.95064 0
M  V30 2891 H 312.937 4.38212 4.26357 0
M  V30 2892 H 317.111 5.35012 4.45797 0
M  V30 2893 H 314.738 6.04406 4.61083 0
M  V30 2894 N 316.313 -1.40141 0.720998 0
M  V30 2895 C 317.729 -1.54632 0.395113 0
M  V30 2896 C 317.929 -1.69115 -1.09555 0
M  V30 2897 O 316.985 -1.68377 -1.88163 0
M  V30 2898 C 318.298 -2.77177 1.1659 0
M  V30 2899 C 319.846 -2.91 1.15274 0
M  V30 2900 C 320.321 -4.16465 1.90579 0
M  V30 2901 N 321.812 -4.23476 1.87675 0
M  V30 2902 C 322.547 -5.19475 2.42762 0
M  V30 2903 N 322.043 -6.21348 3.06428 0
M  V30 2904 N 323.836 -5.11592 2.32874 0
M  V30 2905 H 315.987 -1.28986 1.68749 0
M  V30 2906 H 318.25 -0.62412 0.713567 0
M  V30 2907 H 317.956 -2.72771 2.22011 0
M  V30 2908 H 317.83 -3.69442 0.76108 0
M  V30 2909 H 320.217 -2.94907 0.106702 0
M  V30 2910 H 320.298 -1.99838 1.59682 0
M  V30 2911 H 319.942 -4.1332 2.95176 0
M  V30 2912 H 319.872 -5.06646 1.43587 0
M  V30 2913 H 322.363 -3.50497 1.41281 0
M  V30 2914 H 322.676 -6.91034 3.45965 0
M  V30 2915 H 321.021 -6.21777 3.10514 0
M  V30 2916 H 324.212 -4.30936 1.82789 0
M  V30 2917 H 324.385 -5.86233 2.76106 0
M  V30 2918 N 317.792 -0.46758 -1.50504 0
M  V30 2919 C 318.722 0.318381 -2.31319 0
M  V30 2920 C 319.703 0.993564 -1.38066 0
M  V30 2921 O 320.888 0.991411 -1.66987 0
M  V30 2922 C 318.018 1.40275 -3.17711 0
M  V30 2923 C 316.972 0.849373 -4.19487 0
M  V30 2924 C 316.298 2.03177 -4.94594 0
M  V30 2925 C 317.598 -0.136942 -5.2212 0
M  V30 2926 H 319.292 -0.356106 -2.97275 0
M  V30 2927 H 316.838 -0.172703 -1.42961 0
M  V30 2928 H 318.791 1.96004 -3.73042 0
M  V30 2929 H 317.515 2.10596 -2.49634 0
M  V30 2930 H 316.174 0.314076 -3.65252 0
M  V30 2931 H 315.822 2.72187 -4.22993 0
M  V30 2932 H 315.522 1.66774 -5.63436 0
M  V30 2933 H 317.046 2.59403 -5.52759 0
M  V30 2934 H 318.46 0.331056 -5.72343 0
M  V30 2935 H 316.857 -0.41507 -5.98663 0
M  V30 2936 H 317.927 -1.06398 -4.73083 0
M  V30 2937 N 319.27 1.56325 -0.20005 0
M  V30 2938 C 320.495 2.02548 0.44597 0
M  V30 2939 C 320.92 1.07922 1.5406 0
M  V30 2940 O 320.278 0.0635775 1.81188 0
M  V30 2941 C 320.326 3.47175 0.974761 0
M  V30 2942 O 319.43 3.55671 2.08739 0
M  V30 2943 H 318.771 0.655862 0.103638 0
M  V30 2944 H 321.301 2.02201 -0.312381 0
M  V30 2945 H 321.311 3.87067 1.2901 0
M  V30 2946 H 319.986 4.15538 0.17347 0
M  V30 2947 H 318.563 3.27657 1.78032 0
M  V30 2948 N 320.748 -0.0735177 1.57428 0
M  V30 2949 C 321.68 -1.11423 2.00294 0
M  V30 2950 C 322.693 -1.35084 0.908637 0
M  V30 2951 O 323.882 -1.33355 1.18654 0
M  V30 2952 C 320.982 -2.46548 2.32523 0
M  V30 2953 C 320.155 -2.42867 3.63778 0
M  V30 2954 C 319.214 -3.60087 3.83697 0
M  V30 2955 O 318.24 -3.41595 4.55304 0
M  V30 2956 N 319.442 -4.80372 3.25919 0
M  V30 2957 H 322.207 -0.749206 2.90184 0
M  V30 2958 H 319.768 -0.262195 1.59763 0
M  V30 2959 H 321.76 -3.23607 2.43024 0
M  V30 2960 H 320.33 -2.75059 1.48531 0
M  V30 2961 H 319.55 -1.51206 3.64047 0
M  V30 2962 H 320.838 -2.37506 4.49965 0
M  V30 2963 H 320.236 -4.983 2.67795 0
M  V30 2964 H 318.793 -5.54948 3.41871 0
M  V30 2965 N 322.226 -1.5378 -0.344866 0
M  V30 2966 C 323.189 -1.80981 -1.40637 0
M  V30 2967 C 324.189 -0.680816 -1.45676 0
M  V30 2968 O 325.379 -0.949095 -1.46075 0
M  V30 2969 C 322.511 -1.95063 -2.79577 0
M  V30 2970 H 323.704 -2.75803 -1.17783 0
M  V30 2971 H 321.257 -1.45173 -0.579181 0
M  V30 2972 H 321.992 -1.02379 -3.07716 0
M  V30 2973 H 321.777 -2.77198 -2.77315 0
M  V30 2974 H 323.267 -2.17629 -3.56409 0
M  V30 2975 N 323.704 0.605807 -1.45491 0
M  V30 2976 C 324.934 1.38934 -1.52908 0
M  V30 2977 C 325.342 1.88513 -0.161086 0
M  V30 2978 O 324.685 1.62962 0.847891 0
M  V30 2979 C 324.747 2.62737 -2.45376 0
M  V30 2980 C 324.411 2.34785 -3.92078 0
M  V30 2981 C 325.408 1.95038 -4.8193 0
M  V30 2982 C 323.093 2.47642 -4.37011 0
M  V30 2983 C 325.087 1.68511 -6.14722 0
M  V30 2984 C 322.774 2.20728 -5.69844 0
M  V30 2985 C 323.772 1.81225 -6.58519 0
M  V30 2986 O 323.46 1.54627 -7.88889 0
M  V30 2987 H 323.192 0.431629 -0.520262 0
M  V30 2988 H 325.746 0.74573 -1.91384 0
M  V30 2989 H 323.976 3.29824 -2.01874 0
M  V30 2990 H 325.665 3.24783 -2.43456 0
M  V30 2991 H 326.431 1.84639 -4.48479 0
M  V30 2992 H 322.31 2.77356 -3.68232 0
M  V30 2993 H 325.854 1.37602 -6.83894 0
M  V30 2994 H 321.751 2.30744 -6.02849 0
M  V30 2995 H 322.519 1.68665 -8.00933 0
M  V30 2996 N 325.182 1.32811 0.848464 0
M  V30 2997 C 326.43 1.23479 1.59991 0
M  V30 2998 C 326.751 -0.201853 1.93952 0
M  V30 2999 O 326.021 -1.12818 1.60153 0
M  V30 3000 H 324.601 0.454034 0.593179 0
M  V30 3001 H 327.263 1.66412 1.01455 0
M  V30 3002 H 326.359 1.82178 2.53412 0
M  V30 3003 N 326.66 -1.06551 1.16123 0
M  V30 3004 C 327.888 -1.83005 0.965237 0
M  V30 3005 C 328.303 -1.82423 -0.486542 0
M  V30 3006 O 327.66 -1.24152 -1.33763 0
M  V30 3007 C 327.711 -3.29733 1.48183 0
M  V30 3008 O 327.432 -3.30416 2.87674 0
M  V30 3009 C 328.933 -4.22926 1.32848 0
M  V30 3010 H 326.153 -0.577118 0.342309 0
M  V30 3011 H 328.697 -1.3445 1.54089 0
M  V30 3012 H 326.852 -3.75609 0.948517 0
M  V30 3013 H 327.266 -4.22149 3.11272 0
M  V30 3014 H 328.74 -5.23916 1.73827 0
M  V30 3015 H 329.217 -4.38346 0.273692 0
M  V30 3016 H 329.823 -3.82894 1.85127 0
M  V30 3017 N 328.138 -0.959301 -1.25041 0
M  V30 3018 C 329.101 -0.487677 -2.23952 0
M  V30 3019 C 330.101 0.41119 -1.55454 0
M  V30 3020 O 331.291 0.207825 -1.72956 0
M  V30 3021 C 328.423 0.294807 -3.39623 0
M  V30 3022 H 329.616 -1.36198 -2.67189 0
M  V30 3023 H 327.169 -0.743042 -1.37508 0
M  V30 3024 H 327.904 1.18658 -3.01813 0
M  V30 3025 H 327.689 -0.35012 -3.90534 0
M  V30 3026 H 329.179 0.614089 -4.1306 0
M  V30 3027 N 329.616 1.39756 -0.72842 0
M  V30 3028 C 330.563 2.30647 -0.0841519 0
M  V30 3029 C 331.533 1.48869 0.7367 0
M  V30 3030 O 332.718 1.77574 0.698015 0
M  V30 3031 C 329.858 3.35165 0.822091 0
M  V30 3032 C 328.971 4.31999 -0.0106663 0
M  V30 3033 C 328.106 5.23585 0.896241 0
M  V30 3034 C 327.145 6.12072 0.0583381 0
M  V30 3035 N 326.282 6.96035 0.920818 0
M  V30 3036 H 331.122 2.85173 -0.864891 0
M  V30 3037 H 328.659 1.40422 -0.438179 0
M  V30 3038 H 330.617 3.94345 1.36189 0
M  V30 3039 H 329.247 2.8211 1.56888 0
M  V30 3040 H 328.299 3.74492 -0.66781 0
M  V30 3041 H 329.611 4.9443 -0.658825 0
M  V30 3042 H 328.765 5.87759 1.50412 0
M  V30 3043 H 327.504 4.61459 1.57819 0
M  V30 3044 H 326.509 5.46916 -0.562389 0
M  V30 3045 H 327.734 6.76261 -0.6203 0
M  V30 3046 H 325.68 6.36485 1.58818 0
M  V30 3047 H 325.597 7.55284 0.32899 0
M  V30 3048 H 326.865 7.64646 1.51447 0
M  V30 3049 N 331.094 0.475555 1.50254 0
M  V30 3050 C 332.342 -0.077738 2.0195 0
M  V30 3051 C 332.663 -1.39813 1.35931 0
M  V30 3052 O 331.933 -1.89249 0.506123 0
M  V30 3053 H 330.513 -0.031719 0.746326 0
M  V30 3054 H 333.175 0.626995 1.84539 0
M  V30 3055 H 332.271 -0.225995 3.11281 0
M  V30 3056 N 332.573 -1.56217 0.208337 0
M  V30 3057 C 333.803 -2.02043 -0.431523 0
M  V30 3058 C 334.211 -1.08755 -1.54819 0
M  V30 3059 O 333.554 -0.0870009 -1.83494 0
M  V30 3060 C 333.616 -3.44239 -1.03633 0
M  V30 3061 C 333.28 -4.56965 -0.0567502 0
M  V30 3062 C 334.277 -5.14624 0.738773 0
M  V30 3063 C 331.962 -5.02266 0.0581736 0
M  V30 3064 C 333.956 -6.16045 1.63605 0
M  V30 3065 C 331.643 -6.03528 0.959001 0
M  V30 3066 C 332.641 -6.60293 1.7465 0
M  V30 3067 O 332.329 -7.59586 2.6322 0
M  V30 3068 H 332.061 -0.666772 -0.111313 0
M  V30 3069 H 334.615 -2.02919 0.318277 0
M  V30 3070 H 332.845 -3.40391 -1.83497 0
M  V30 3071 H 334.534 -3.73793 -1.58221 0
M  V30 3072 H 335.3 -4.80483 0.660364 0
M  V30 3073 H 331.179 -4.57771 -0.544633 0
M  V30 3074 H 334.723 -6.60279 2.25116 0
M  V30 3075 H 330.62 -6.37092 1.03848 0
M  V30 3076 H 331.388 -7.77057 2.57148 0
M  V30 3077 N 334.051 0.0651679 -1.57465 0
M  V30 3078 C 335.299 0.761555 -1.87202 0
M  V30 3079 C 335.62 1.77778 -0.801243 0
M  V30 3080 O 334.89 1.95166 0.16937 0
M  V30 3081 H 333.47 0.284251 -0.690804 0
M  V30 3082 H 336.132 0.0396827 -1.9486 0
M  V30 3083 H 335.228 1.27365 -2.84929 0
M  V30 3084 N 335.529 1.53961 0.336706 0
M  V30 3085 C 336.754 1.75797 1.10046 0
M  V30 3086 C 337.179 0.498985 1.81361 0
M  V30 3087 O 336.537 -0.548769 1.72795 0
M  V30 3088 C 336.585 2.94257 2.08436 0
M  V30 3089 O 335.689 2.64883 3.16087 0
M  V30 3090 H 335.03 0.582936 0.317934 0
M  V30 3091 H 337.56 2.00945 0.38501 0
M  V30 3092 H 337.57 3.21237 2.51537 0
M  V30 3093 H 336.245 3.85564 1.55927 0
M  V30 3094 H 334.822 2.48812 2.77753 0
M  V30 3095 N 337.007 -0.598083 1.45811 0
M  V30 3096 C 338.255 -1.35413 1.50026 0
M  V30 3097 C 338.576 -1.94444 0.147177 0
M  V30 3098 O 337.846 -1.77701 -0.824571 0
M  V30 3099 H 336.426 -0.502727 0.552517 0
M  V30 3100 H 339.088 -0.701606 1.81834 0
M  V30 3101 H 338.184 -2.16871 2.2444 0
M  V30 3102 N 338.485 -1.33259 -0.841409 0
M  V30 3103 C 339.733 -1.24326 -1.59334 0
M  V30 3104 C 340.054 0.191564 -1.94057 0
M  V30 3105 O 339.324 1.11967 -1.60749 0
M  V30 3106 H 337.904 -0.457174 -0.590763 0
M  V30 3107 H 340.566 -1.66947 -1.00571 0
M  V30 3108 H 339.662 -1.8352 -2.52442 0
M  V30 3109 N 339.963 1.05934 -1.16686 0
M  V30 3110 C 341.211 1.78447 -0.948744 0
M  V30 3111 C 341.532 1.87813 0.524523 0
M  V30 3112 O 340.802 1.38945 1.38098 0
M  V30 3113 H 339.382 0.660971 -0.348033 0
M  V30 3114 H 342.044 1.27947 -1.47022 0
M  V30 3115 H 341.14 2.80394 -1.37061 0
M  V30 3116 N 341.441 0.965919 1.2453 0
M  V30 3117 C 342.689 0.625593 1.92174 0
M  V30 3118 C 343.01 -0.841652 1.75901 0
M  V30 3119 O 342.28 -1.60061 1.12948 0
M  V30 3120 H 340.86 0.228388 0.71123 0
M  V30 3121 H 343.522 1.2266 1.51461 0
M  V30 3122 H 342.618 0.864653 2.99884 0
M  V30 3123 N 342.919 -1.39368 0.735821 0
M  V30 3124 C 343.882 -2.2896 0.104874 0
M  V30 3125 C 344.882 -1.46347 -0.666274 0
M  V30 3126 O 346.072 -1.67014 -0.49517 0
M  V30 3127 C 343.204 -3.29857 -0.860656 0
M  V30 3128 H 344.397 -2.86259 0.894205 0
M  V30 3129 H 341.95 -1.48029 0.501704 0
M  V30 3130 H 342.685 -2.77615 -1.67631 0
M  V30 3131 H 342.47 -3.9087 -0.310327 0
M  V30 3132 H 343.96 -3.96893 -1.29867 0
M  V30 3133 N 344.397 -0.483516 -1.5 0
M  V30 3134 C 345.329 0.340634 -2.26655 0
M  V30 3135 C 346.342 0.946152 -1.32483 0
M  V30 3136 O 347.531 0.832453 -1.579 0
M  V30 3137 C 344.631 1.4929 -3.04246 0
M  V30 3138 C 343.804 0.997903 -4.25865 0
M  V30 3139 C 342.863 2.02569 -4.85646 0
M  V30 3140 O 341.889 1.60128 -5.46212 0
M  V30 3141 N 343.091 3.3548 -4.73744 0
M  V30 3142 H 345.856 -0.316577 -2.98023 0
M  V30 3143 H 343.417 -0.315024 -1.58806 0
M  V30 3144 H 345.409 2.17766 -3.41116 0
M  V30 3145 H 343.979 2.05458 -2.35597 0
M  V30 3146 H 343.199 0.138617 -3.93956 0
M  V30 3147 H 344.487 0.645305 -5.04691 0
M  V30 3148 H 343.885 3.72661 -4.25605 0
M  V30 3149 H 342.442 3.99718 -5.14848 0
M  V30 3150 N 345.875 1.56104 -0.216619 0
M  V30 3151 C 346.807 2.17339 0.72776 0
M  V30 3152 C 347.82 1.14109 1.16116 0
M  V30 3153 O 349.009 1.4111 1.09317 0
M  V30 3154 C 346.109 2.73818 1.99693 0
M  V30 3155 C 345.282 4.02168 1.71988 0
M  V30 3156 C 344.341 4.43259 2.83562 0
M  V30 3157 O 343.367 5.10257 2.52244 0
M  V30 3158 N 344.569 4.08535 4.12407 0
M  V30 3159 H 347.334 2.99005 0.203983 0
M  V30 3160 H 344.895 1.61861 -0.0354289 0
M  V30 3161 H 346.887 2.9828 2.73516 0
M  V30 3162 H 345.457 1.96483 2.43132 0
M  V30 3163 H 344.677 3.85612 0.818337 0
M  V30 3164 H 345.965 4.85907 1.50903 0
M  V30 3165 H 345.363 3.54687 4.40696 0
M  V30 3166 H 343.92 4.37901 4.8279 0
M  V30 3167 N 347.353 -0.0568162 1.57498 0
M  V30 3168 C 348.283 -1.06593 2.0775 0
M  V30 3169 C 349.264 -1.39448 0.974082 0
M  V30 3170 O 350.449 -1.48815 1.24771 0
M  V30 3171 C 347.579 -2.37509 2.5339 0
M  V30 3172 C 346.533 -2.1897 3.67745 0
M  V30 3173 C 345.859 -3.55402 3.99492 0
M  V30 3174 C 347.159 -1.59859 4.97235 0
M  V30 3175 H 348.853 -0.647706 2.9231 0
M  V30 3176 H 346.399 -0.310116 1.40621 0
M  V30 3177 H 348.352 -3.08409 2.87162 0
M  V30 3178 H 347.076 -2.8134 1.65878 0
M  V30 3179 H 345.735 -1.50508 3.3428 0
M  V30 3180 H 345.383 -3.9683 3.09088 0
M  V30 3181 H 345.083 -3.43831 4.76502 0
M  V30 3182 H 346.607 -4.27708 4.35773 0
M  V30 3183 H 348.021 -2.20642 5.29141 0
M  V30 3184 H 346.418 -1.58942 5.78669 0
M  V30 3185 H 347.488 -0.561506 4.81638 0
M  V30 3186 N 348.832 -1.54138 -0.328536 0
M  V30 3187 C 350.08 -1.71765 -1.06496 0
M  V30 3188 C 350.401 -0.49149 -1.88704 0
M  V30 3189 O 349.671 0.494539 -1.89555 0
M  V30 3190 H 348.251 -0.633295 -0.396164 0
M  V30 3191 H 350.913 -1.91429 -0.366176 0
M  V30 3192 H 350.009 -2.5951 -1.73381 0
M  V30 3193 N 350.31 0.590341 -1.46126 0
M  V30 3194 C 351.273 1.68194 -1.55703 0
M  V30 3195 C 352.273 1.54808 -0.434868 0
M  V30 3196 O 353.463 1.59564 -0.698928 0
M  V30 3197 C 350.595 3.07575 -1.47005 0
M  V30 3198 H 351.788 1.61064 -2.52979 0
M  V30 3199 H 349.341 0.807541 -1.33823 0
M  V30 3200 H 350.076 3.20268 -0.509785 0
M  V30 3201 H 349.861 3.187 -2.28414 0
M  V30 3202 H 351.351 3.87055 -1.56776 0
M  V30 3203 N 351.788 1.33704 0.83433 0
M  V30 3204 C 353.036 1.25169 1.58673 0
M  V30 3205 C 353.357 -0.18127 1.94156 0
M  V30 3206 O 352.627 -1.11113 1.6134 0
M  V30 3207 H 351.207 0.4603 0.58833 0
M  V30 3208 H 353.869 1.67478 0.996847 0
M  V30 3209 H 352.965 1.84856 2.51465 0
M  V30 3210 N 353.266 -1.05314 1.17247 0
M  V30 3211 C 354.677 -1.59753 0.96623 0
M  V30 3212 C 355.028 -1.9005 -0.487378 0
M  V30 3213 O 354.153 -1.68126 -1.36245 0
M  V30 3214 C 354.748 -2.90249 1.74759 0
M  V30 3215 C 353.307 -3.41352 1.58606 0
M  V30 3216 C 352.454 -2.15103 1.75002 0
M  V30 3217 H 355.405 -0.881406 1.31973 0
M  V30 3218 H 355.426 -3.60097 1.22925 0
M  V30 3219 H 354.938 -2.68166 2.8055 0
M  V30 3220 H 353.039 -3.68474 0.552985 0
M  V30 3221 H 353.152 -4.16019 2.37624 0
M  V30 3222 H 351.516 -2.25804 1.17833 0
M  V30 3223 H 352.299 -1.95491 2.82202 0
M  V30 3224 N 354.744 -0.972509 -1.24016 0
M  V30 3225 C 355.991 -0.637034 -1.92219 0
M  V30 3226 C 356.319 0.828418 -1.75976 0
M  V30 3227 O 355.574 1.61206 -1.10955 0
M  V30 3228 C 355.873 -0.963694 -3.44162 0
M  V30 3229 C 355.539 -2.41807 -3.80579 0
M  V30 3230 C 354.201 -2.81556 -3.9023 0
M  V30 3231 C 356.553 -3.36172 -3.98293 0
M  V30 3232 C 353.881 -4.14702 -4.15017 0
M  V30 3233 C 356.233 -4.68952 -4.24578 0
M  V30 3234 C 354.897 -5.08472 -4.32449 0
M  V30 3235 H 354.167 -0.233107 -0.703379 0
M  V30 3236 H 356.814 -1.2249 -1.47202 0
M  V30 3237 H 355.119 -0.29365 -3.90698 0
M  V30 3238 H 356.816 -0.682449 -3.9515 0
M  V30 3239 H 353.406 -2.09988 -3.73635 0
M  V30 3240 H 357.59 -3.06644 -3.90234 0
M  V30 3241 H 352.846 -4.4494 -4.19331 0
M  V30 3242 H 357.02 -5.42037 -4.37229 0
M  V30 3243 H 354.647 -6.11665 -4.51409 0
M  V30 3244 N 356.222 1.38976 -0.743202 0
M  V30 3245 C 357.633 1.83123 -0.363732 0
M  V30 3246 C 357.984 1.6205 1.10609 0
M  V30 3247 O 357.109 1.11606 1.854 0
M  V30 3248 C 357.704 3.32439 -0.653408 0
M  V30 3249 C 356.263 3.74974 -0.327338 0
M  V30 3250 C 355.41 2.61878 -0.911875 0
M  V30 3251 H 358.361 1.27852 -0.940191 0
M  V30 3252 H 358.382 3.80432 0.0720031 0
M  V30 3253 H 357.894 3.47745 -1.72323 0
M  V30 3254 H 355.995 3.65252 0.736314 0
M  V30 3255 H 356.108 4.72106 -0.815631 0
M  V30 3256 H 354.472 2.52448 -0.337944 0
M  V30 3257 H 355.255 2.79987 -1.98651 0
M  V30 3258 N 357.7 0.491464 1.49741 0
M  V30 3259 C 358.663 -0.280906 2.27472 0
M  V30 3260 C 359.663 -0.902454 1.33088 0
M  V30 3261 O 360.853 -0.768465 1.56334 0
M  V30 3262 C 357.985 -1.40209 3.10732 0
M  V30 3263 H 359.178 0.401056 2.97206 0
M  V30 3264 H 356.731 0.246131 1.5435 0
M  V30 3265 H 357.466 -2.11849 2.45541 0
M  V30 3266 H 357.251 -0.961969 3.80117 0
M  V30 3267 H 358.741 -1.9464 3.69466 0
M  V30 3268 N 359.178 -1.55987 0.224894 0
M  V30 3269 C 360.11 -2.17722 -0.716224 0
M  V30 3270 C 361.123 -1.14723 -1.15509 0
M  V30 3271 O 362.312 -1.41688 -1.08567 0
M  V30 3272 C 359.412 -2.74873 -1.98238 0
M  V30 3273 C 358.585 -4.03074 -1.69853 0
M  V30 3274 C 357.644 -4.44757 -2.81208 0
M  V30 3275 O 356.67 -5.11587 -2.49534 0
M  V30 3276 N 357.872 -4.10716 -4.10235 0
M  V30 3277 H 360.637 -2.99109 -0.188123 0
M  V30 3278 H 358.198 -1.6184 0.0440123 0
M  V30 3279 H 360.19 -2.99727 -2.7193 0
M  V30 3280 H 358.76 -1.9777 -2.42086 0
M  V30 3281 H 357.98 -3.86041 -0.797875 0
M  V30 3282 H 359.268 -4.86701 -1.48324 0
M  V30 3283 H 358.666 -3.57019 -4.38809 0
M  V30 3284 H 357.223 -4.40455 -4.80461 0
M  V30 3285 N 360.656 0.0484629 -1.57525 0
M  V30 3286 C 362.067 0.597486 -1.76881 0
M  V30 3287 C 362.418 1.76664 -0.853475 0
M  V30 3288 O 361.543 2.16357 -0.0433656 0
M  V30 3289 C 362.138 1.09066 -3.20765 0
M  V30 3290 C 360.697 1.58535 -3.41385 0
M  V30 3291 C 359.844 0.514868 -2.72478 0
M  V30 3292 H 362.795 -0.177758 -1.57701 0
M  V30 3293 H 362.816 1.95875 -3.2621 0
M  V30 3294 H 362.328 0.239521 -3.8736 0
M  V30 3295 H 360.429 2.45898 -2.79937 0
M  V30 3296 H 360.542 1.64622 -4.49929 0
M  V30 3297 H 358.906 0.965407 -2.35695 0
M  V30 3298 H 359.689 -0.32648 -3.41744 0
M  V30 3299 N 362.134 1.5431 0.320358 0
M  V30 3300 C 363.545 1.63872 0.894594 0
M  V30 3301 C 363.896 0.534847 1.88769 0
M  V30 3302 O 363.021 -0.331732 2.13842 0
M  V30 3303 C 363.616 2.97049 1.62934 0
M  V30 3304 C 362.175 3.08796 2.15226 0
M  V30 3305 C 361.322 2.59456 0.978671 0
M  V30 3306 H 364.273 1.58398 0.0978544 0
M  V30 3307 H 364.294 2.87388 2.49376 0
M  V30 3308 H 363.806 3.7737 0.906302 0
M  V30 3309 H 361.907 2.33156 2.90636 0
M  V30 3310 H 362.02 4.14649 2.40006 0
M  V30 3311 H 360.384 2.1543 1.35875 0
M  V30 3312 H 361.167 3.42237 0.269895 0
M  V30 3313 N 363.613 -0.582584 1.46437 0
M  V30 3314 C 364.861 -1.33814 1.51453 0
M  V30 3315 C 365.182 -1.94277 0.167792 0
M  V30 3316 O 364.452 -1.78566 -0.805677 0
M  V30 3317 H 363.032 -0.496838 0.557818 0
M  V30 3318 H 365.694 -0.682281 1.82568 0
M  V30 3319 H 364.79 -2.14479 2.26728 0
M  V30 3320 N 365.091 -1.34144 -0.827227 0
M  V30 3321 C 366.507 -1.13732 -1.11969 0
M  V30 3322 C 366.707 0.0640463 -2.01398 0
M  V30 3323 O 365.763 0.740856 -2.41387 0
M  V30 3324 C 367.076 -2.43047 -1.77055 0
M  V30 3325 C 368.624 -2.49063 -1.89569 0
M  V30 3326 C 369.099 -3.78369 -2.58072 0
M  V30 3327 N 370.59 -3.79505 -2.65575 0
M  V30 3328 C 371.325 -4.76274 -3.19297 0
M  V30 3329 N 370.821 -5.83424 -3.73616 0
M  V30 3330 N 372.614 -4.63735 -3.17658 0
M  V30 3331 H 364.765 -2.11126 -0.232296 0
M  V30 3332 H 367.028 -0.933424 -0.165602 0
M  V30 3333 H 366.734 -3.31025 -1.18807 0
M  V30 3334 H 366.608 -2.56066 -2.76966 0
M  V30 3335 H 368.995 -1.61527 -2.46968 0
M  V30 3336 H 369.076 -2.39975 -0.885745 0
M  V30 3337 H 368.72 -4.66293 -2.01329 0
M  V30 3338 H 368.65 -3.84737 -3.59562 0
M  V30 3339 H 371.141 -3.02074 -2.27068 0
M  V30 3340 H 371.454 -6.53282 -4.12846 0
M  V30 3341 H 369.799 -5.87143 -3.71871 0
M  V30 3342 H 372.99 -3.79177 -2.74486 0
M  V30 3343 H 373.163 -5.39318 -3.59221 0
M  V30 3344 N 366.569 1.04691 -1.17803 0
M  V30 3345 C 367.817 1.7743 -0.967617 0
M  V30 3346 C 368.138 1.88359 0.504574 0
M  V30 3347 O 367.408 1.40402 1.36617 0
M  V30 3348 H 365.988 0.657242 -0.355024 0
M  V30 3349 H 368.65 1.2638 -1.48371 0
M  V30 3350 H 367.746 2.78924 -1.40027 0
M  V30 3351 N 368.047 0.979072 1.23499 0
M  V30 3352 C 369.294 0.647219 1.91878 0
M  V30 3353 C 369.622 -0.819074 1.76413 0
M  V30 3354 O 368.877 -1.60616 1.11808 0
M  V30 3355 C 369.176 0.981932 3.43646 0
M  V30 3356 C 368.842 2.43822 3.79291 0
M  V30 3357 C 367.504 2.83622 3.88731 0
M  V30 3358 C 369.856 3.3828 3.96505 0
M  V30 3359 C 367.184 4.16897 4.12812 0
M  V30 3360 C 369.536 4.71197 4.22085 0
M  V30 3361 C 368.2 5.10758 4.29747 0
M  V30 3362 H 367.47 0.236834 0.702133 0
M  V30 3363 H 370.117 1.23268 1.46551 0
M  V30 3364 H 368.422 0.314365 3.90537 0
M  V30 3365 H 370.119 0.703395 3.94783 0
M  V30 3366 H 366.709 2.11966 3.72516 0
M  V30 3367 H 370.893 3.0871 3.88603 0
M  V30 3368 H 366.149 4.47157 4.16966 0
M  V30 3369 H 370.323 5.44348 4.34348 0
M  V30 3370 H 367.95 6.1405 4.48159 0
M  V30 3371 N 369.525 -1.3858 0.750561 0
M  V30 3372 C 370.802 -1.94231 0.231009 0
M  V30 3373 C 371.182 -1.68611 -1.27018 0
M  V30 3374 O 370.53 -1.02296 -2.04323 0
M  V30 3375 C 370.74 -3.44123 0.581428 0
M  V30 3376 C 372.088 -4.2116 0.539389 0
M  V30 3377 O 373.112 -3.52391 0.519541 0
M  V30 3378 O 371.971 -5.43749 0.54765 0
M  V30 3379 H 369.065 -0.825639 0.0474263 0
M  V30 3380 H 371.611 -1.4799 0.830478 0
M  V30 3381 H 370.383 -3.56267 1.61833 0
M  V30 3382 H 370.006 -3.97573 -0.0462047 0
M  V30 3383 N 371.003 -0.499398 -1.49478 0
M  V30 3384 C 371.933 0.269244 -2.31943 0
M  V30 3385 C 372.914 0.964054 -1.40143 0
M  V30 3386 O 374.099 0.955767 -1.69052 0
M  V30 3387 C 371.229 1.33504 -3.20615 0
M  V30 3388 C 370.183 0.760202 -4.21195 0
M  V30 3389 C 369.509 1.9264 -4.98792 0
M  V30 3390 C 370.809 -0.247661 -5.21712 0
M  V30 3391 H 372.503 -0.419082 -2.96452 0
M  V30 3392 H 370.049 -0.202988 -1.42562 0
M  V30 3393 H 372.002 1.88048 -3.77115 0
M  V30 3394 H 370.726 2.05253 -2.54045 0
M  V30 3395 H 369.385 0.23653 -3.65836 0
M  V30 3396 H 369.033 2.63154 -4.28671 0
M  V30 3397 H 368.733 1.54785 -5.66847 0
M  V30 3398 H 370.257 2.4762 -5.58137 0
M  V30 3399 H 371.671 0.209579 -5.72917 0
M  V30 3400 H 370.068 -0.541962 -5.97648 0
M  V30 3401 H 371.138 -1.16409 -4.7072 0
M  V30 3402 N 372.481 1.55866 -0.233164 0
M  V30 3403 C 373.892 1.847 0.272554 0
M  V30 3404 C 374.243 1.15477 1.58617 0
M  V30 3405 O 373.368 0.42841 2.12117 0
M  V30 3406 C 373.963 3.35071 0.501299 0
M  V30 3407 C 372.522 3.6418 0.951304 0
M  V30 3408 C 371.669 2.77292 0.0208209 0
M  V30 3409 H 374.62 1.52005 -0.456074 0
M  V30 3410 H 374.641 3.55906 1.34577 0
M  V30 3411 H 374.153 3.85424 -0.454936 0
M  V30 3412 H 372.254 3.19293 1.92049 0
M  V30 3413 H 372.367 4.72071 0.817675 0
M  V30 3414 H 370.731 2.49131 0.529723 0
M  V30 3415 H 371.514 3.30448 -0.93054 0
M  V30 3416 N 373.959 -0.0401083 1.57549 0
M  V30 3417 C 375.37 -0.588097 1.77196 0
M  V30 3418 C 375.721 -1.76209 0.862832 0
M  V30 3419 O 374.846 -2.16331 0.0548389 0
M  V30 3420 C 375.441 -1.07363 3.21339 0
M  V30 3421 C 374 -1.56723 3.42221 0
M  V30 3422 C 373.147 -0.50041 2.72747 0
M  V30 3423 H 376.098 0.186119 1.57605 0
M  V30 3424 H 376.119 -1.94143 3.27244 0
M  V30 3425 H 375.631 -0.218975 3.87482 0
M  V30 3426 H 373.732 -2.4441 2.81237 0
M  V30 3427 H 373.845 -1.62234 4.50796 0
M  V30 3428 H 372.209 -0.952894 2.36203 0
M  V30 3429 H 372.992 0.344599 3.41566 0
M  V30 3430 N 375.437 -1.54477 -0.31217 0
M  V30 3431 C 376.4 -1.83923 -1.36766 0
M  V30 3432 C 377.4 -0.711563 -1.44199 0
M  V30 3433 O 378.59 -0.979866 -1.44029 0
M  V30 3434 C 375.722 -2.0095 -2.75376 0
M  V30 3435 H 376.915 -2.78239 -1.11906 0
M  V30 3436 H 374.468 -1.46369 -0.548257 0
M  V30 3437 H 375.203 -1.08883 -3.05475 0
M  V30 3438 H 374.988 -2.83018 -2.71373 0
M  V30 3439 H 376.478 -2.2514 -3.51713 0
M  V30 3440 N 376.915 0.57481 -1.46744 0
M  V30 3441 C 377.845 1.69337 -1.60771 0
M  V30 3442 C 378.826 1.63825 -0.457736 0
M  V30 3443 O 380.011 1.8172 -0.684947 0
M  V30 3444 C 377.141 3.0798 -1.60517 0
M  V30 3445 C 376.095 3.28327 -2.74564 0
M  V30 3446 C 375.421 4.67578 -2.59373 0
M  V30 3447 C 376.721 3.15398 -4.16319 0
M  V30 3448 H 378.415 1.57853 -2.54407 0
M  V30 3449 H 375.961 0.75799 -1.22436 0
M  V30 3450 H 377.914 3.86061 -1.68923 0
M  V30 3451 H 376.638 3.20381 -0.634305 0
M  V30 3452 H 375.297 2.52649 -2.65639 0
M  V30 3453 H 374.945 4.76755 -1.60353 0
M  V30 3454 H 374.645 4.82144 -3.35873 0
M  V30 3455 H 376.169 5.47817 -2.69682 0
M  V30 3456 H 377.583 3.83315 -4.26313 0
M  V30 3457 H 375.98 3.41482 -4.93468 0
M  V30 3458 H 377.05 2.12372 -4.3592 0
M  V30 3459 N 378.394 1.34581 0.820102 0
M  V30 3460 C 379.357 1.2628 1.91275 0
M  V30 3461 C 380.357 0.177344 1.59819 0
M  V30 3462 O 381.547 0.430156 1.68806 0
M  V30 3463 C 378.679 0.950327 3.27386 0
M  V30 3464 H 379.872 2.23421 2.00057 0
M  V30 3465 H 377.425 1.1891 1.0144 0
M  V30 3466 H 378.16 -0.0177938 3.24295 0
M  V30 3467 H 377.945 1.73549 3.51601 0
M  V30 3468 H 379.435 0.917492 4.07396 0
M  V30 3469 N 379.872 -1.04064 1.18357 0
M  V30 3470 C 381.097 -1.81454 1.00445 0
M  V30 3471 C 381.522 -1.82823 -0.442423 0
M  V30 3472 O 380.88 -1.24555 -1.31741 0
M  V30 3473 C 380.928 -3.24925 1.56384 0
M  V30 3474 O 380.032 -4.04856 0.785209 0
M  V30 3475 H 379.373 -0.560604 0.355835 0
M  V30 3476 H 381.903 -1.31059 1.57114 0
M  V30 3477 H 381.913 -3.75702 1.59097 0
M  V30 3478 H 380.588 -3.23244 2.61699 0
M  V30 3479 H 379.165 -3.63537 0.830399 0
M  V30 3480 N 381.35 -0.985608 -1.22978 0
M  V30 3481 C 382.598 -0.656087 -1.91154 0
M  V30 3482 C 382.919 0.813561 -1.77218 0
M  V30 3483 O 382.189 1.58244 -1.1548 0
M  V30 3484 H 380.769 -0.239674 -0.707506 0
M  V30 3485 H 383.431 -1.25054 -1.49491 0
M  V30 3486 H 382.527 -0.912253 -2.9847 0
M  V30 3487 N 382.828 1.3818 -0.7579 0
M  V30 3488 C 384.053 2.04827 -0.325679 0
M  V30 3489 C 384.478 1.56788 1.03919 0
M  V30 3490 O 383.836 0.721811 1.66312 0
M  V30 3491 C 383.884 3.58774 -0.362447 0
M  V30 3492 O 382.988 4.07372 0.642033 0
M  V30 3493 H 382.329 0.64833 -0.143402 0
M  V30 3494 H 384.859 1.7677 -1.03023 0
M  V30 3495 H 384.869 4.07434 -0.214844 0
M  V30 3496 H 383.544 3.93096 -1.35824 0
M  V30 3497 H 382.121 3.70068 0.458688 0
M  V30 3498 N 384.306 0.507319 1.49211 0
M  V30 3499 C 385.269 -0.256763 2.27757 0
M  V30 3500 C 386.269 -0.888287 1.34038 0
M  V30 3501 O 387.459 -0.751841 1.5714 0
M  V30 3502 C 384.591 -1.36905 3.12202 0
M  V30 3503 H 385.784 0.432557 2.96764 0
M  V30 3504 H 383.337 0.262488 1.5408 0
M  V30 3505 H 384.072 -2.09233 2.47775 0
M  V30 3506 H 383.857 -0.921599 3.81115 0
M  V30 3507 H 385.347 -1.9071 3.7151 0
M  V30 3508 N 385.784 -1.5574 0.241426 0
M  V30 3509 C 387.061 -1.90704 -0.434881 0
M  V30 3510 C 387.441 -1.16145 -1.76277 0
M  V30 3511 O 386.789 -0.277152 -2.26813 0
M  V30 3512 C 386.999 -3.43657 -0.608343 0
M  V30 3513 C 388.347 -4.14806 -0.906725 0
M  V30 3514 O 389.371 -3.49366 -0.694408 0
M  V30 3515 O 388.23 -5.30548 -1.31075 0
M  V30 3516 H 385.324 -0.793592 -0.23268 0
M  V30 3517 H 387.87 -1.67288 0.285086 0
M  V30 3518 H 386.642 -3.89927 0.327505 0
M  V30 3519 H 386.265 -3.72918 -1.37906 0
M  V30 3520 N 387.262 0.0317525 -1.57568 0
M  V30 3521 C 388.225 1.01783 -2.0536 0
M  V30 3522 C 389.225 1.29203 -0.957253 0
M  V30 3523 O 390.415 1.24251 -1.22095 0
M  V30 3524 C 387.547 2.35137 -2.46827 0
M  V30 3525 H 388.74 0.605062 -2.93733 0
M  V30 3526 H 386.293 0.278514 -1.53799 0
M  V30 3527 H 387.028 2.81168 -1.61602 0
M  V30 3528 H 386.813 2.16566 -3.26866 0
M  V30 3529 H 388.303 3.05938 -2.84239 0
M  V30 3530 N 388.74 1.54641 0.303973 0
M  V30 3531 C 389.703 1.84646 1.35789 0
M  V30 3532 C 390.703 0.7192 1.4382 0
M  V30 3533 O 391.893 0.987491 1.43507 0
M  V30 3534 C 389.025 2.02407 2.74307 0
M  V30 3535 H 390.218 2.78829 1.10429 0
M  V30 3536 H 387.771 1.46658 0.540487 0
M  V30 3537 H 388.506 1.10502 3.04893 0
M  V30 3538 H 388.291 2.84453 2.69868 0
M  V30 3539 H 389.781 2.27002 3.50514 0
M  V30 3540 N 390.218 -0.567019 1.47046 0
M  V30 3541 C 391.634 -0.891975 1.32348 0
M  V30 3542 C 391.834 -1.99154 0.306616 0
M  V30 3543 O 390.89 -2.50883 -0.28532 0
M  V30 3544 C 392.203 -1.29449 2.7141 0
M  V30 3545 C 393.751 -1.40646 2.79621 0
M  V30 3546 C 394.226 -1.84257 4.19301 0
M  V30 3547 N 395.717 -1.91424 4.21795 0
M  V30 3548 C 396.452 -2.26476 5.26779 0
M  V30 3549 N 395.948 -2.60211 6.42077 0
M  V30 3550 N 397.741 -2.27166 5.14152 0
M  V30 3551 H 389.892 0.159074 2.11803 0
M  V30 3552 H 392.155 0.00849752 0.947962 0
M  V30 3553 H 391.861 -0.560448 3.47206 0
M  V30 3554 H 391.735 -2.25273 3.02542 0
M  V30 3555 H 394.122 -2.13133 2.04104 0
M  V30 3556 H 394.203 -0.430339 2.52154 0
M  V30 3557 H 393.847 -1.12343 4.95319 0
M  V30 3558 H 393.777 -2.82855 4.44185 0
M  V30 3559 H 396.268 -1.6778 3.38612 0
M  V30 3560 H 396.581 -2.85956 7.17948 0
M  V30 3561 H 394.926 -2.57813 6.45413 0
M  V30 3562 H 398.117 -2.00244 4.23107 0
M  V30 3563 H 398.29 -2.54154 5.96079 0
M  V30 3564 N 391.696 -1.35014 -0.812953 0
M  V30 3565 C 392.643 -1.27412 -1.92444 0
M  V30 3566 C 393.613 -0.14733 -1.65445 0
M  V30 3567 O 394.798 -0.329974 -1.87925 0
M  V30 3568 C 391.938 -1.04558 -3.28879 0
M  V30 3569 C 391.051 -2.26101 -3.68106 0
M  V30 3570 C 390.186 -1.96449 -4.9354 0
M  V30 3571 C 389.225 -3.14081 -5.25376 0
M  V30 3572 N 388.362 -2.84246 -6.41988 0
M  V30 3573 H 393.202 -2.22463 -1.98278 0
M  V30 3574 H 390.739 -1.10593 -0.969933 0
M  V30 3575 H 392.697 -0.893413 -4.07522 0
M  V30 3576 H 391.327 -0.131719 -3.22531 0
M  V30 3577 H 390.379 -2.52204 -2.84775 0
M  V30 3578 H 391.691 -3.13959 -3.87597 0
M  V30 3579 H 390.845 -1.78026 -5.79993 0
M  V30 3580 H 389.584 -1.05867 -4.76071 0
M  V30 3581 H 388.589 -3.33089 -4.37415 0
M  V30 3582 H 389.814 -4.05455 -5.44778 0
M  V30 3583 H 387.76 -1.96252 -6.25956 0
M  V30 3584 H 387.677 -3.65637 -6.61699 0
M  V30 3585 H 388.945 -2.6935 -7.31485 0
M  V30 3586 N 393.175 1.03435 -1.18907 0
M  V30 3587 C 394.085 2.15075 -0.937015 0
M  V30 3588 C 395.101 1.73706 0.101085 0
M  V30 3589 O 396.277 2.01232 -0.0822948 0
M  V30 3590 C 393.342 3.43458 -0.473057 0
M  V30 3591 C 392.403 3.99172 -1.57989 0
M  V30 3592 C 391.636 5.21427 -1.13797 0
M  V30 3593 O 391.859 5.704 0.000725941 0
M  V30 3594 O 390.793 5.69837 -1.9383 0
M  V30 3595 H 394.619 2.39198 -1.87131 0
M  V30 3596 H 392.204 1.13506 -0.971427 0
M  V30 3597 H 394.086 4.20811 -0.222702 0
M  V30 3598 H 392.761 3.20793 0.432869 0
M  V30 3599 H 391.668 3.23178 -1.88433 0
M  V30 3600 H 393.001 4.2619 -2.46217 0
M  V30 3601 N 394.653 0.992116 1.22453 0
M  V30 3602 C 396.069 0.702713 1.43297 0
M  V30 3603 C 396.269 -0.726909 1.87932 0
M  V30 3604 O 395.325 -1.49792 2.0327 0
M  V30 3605 C 396.638 1.70762 2.47509 0
M  V30 3606 C 398.186 1.72298 2.61309 0
M  V30 3607 C 398.661 2.71649 3.68742 0
M  V30 3608 N 400.152 2.70239 3.76199 0
M  V30 3609 C 400.887 3.43778 4.58917 0
M  V30 3610 N 400.383 4.26914 5.45633 0
M  V30 3611 N 402.176 3.32487 4.5322 0
M  V30 3612 H 394.327 1.91543 0.917871 0
M  V30 3613 H 396.59 0.826031 0.465162 0
M  V30 3614 H 396.296 2.73059 2.21657 0
M  V30 3615 H 396.17 1.49985 3.46099 0
M  V30 3616 H 398.557 0.706989 2.86506 0
M  V30 3617 H 398.638 1.97143 1.62997 0
M  V30 3618 H 398.282 3.73397 3.44292 0
M  V30 3619 H 398.212 2.44074 4.66622 0
M  V30 3620 H 400.703 2.09912 3.14237 0
M  V30 3621 H 401.016 4.79855 6.05771 0
M  V30 3622 H 399.361 4.31002 5.45218 0
M  V30 3623 H 402.552 2.6698 3.84499 0
M  V30 3624 H 402.725 3.90058 5.17454 0
M  V30 3625 N 396.131 -1.37776 0.765217 0
M  V30 3626 C 397.094 -2.28686 0.153416 0
M  V30 3627 C 398.094 -1.47727 -0.635081 0
M  V30 3628 O 399.284 -1.68027 -0.459632 0
M  V30 3629 C 396.416 -3.31608 -0.790495 0
M  V30 3630 H 397.609 -2.84297 0.954723 0
M  V30 3631 H 395.162 -1.46932 0.53299 0
M  V30 3632 H 395.897 -2.81109 -1.61705 0
M  V30 3633 H 395.682 -3.9144 -0.227348 0
M  V30 3634 H 397.172 -3.99559 -1.21419 0
M  V30 3635 N 397.609 -0.515225 -1.4894 0
M  V30 3636 C 398.539 0.244628 -2.32215 0
M  V30 3637 C 399.52 0.949136 -1.41157 0
M  V30 3638 O 400.705 0.937783 -1.70057 0
M  V30 3639 C 397.835 1.30096 -3.22013 0
M  V30 3640 C 396.789 0.715486 -4.21977 0
M  V30 3641 C 396.115 1.87339 -5.00808 0
M  V30 3642 C 397.415 -0.302982 -5.2142 0
M  V30 3643 H 399.109 -0.450501 -2.95991 0
M  V30 3644 H 396.655 -0.218098 -1.42339 0
M  V30 3645 H 398.608 1.84037 -3.79089 0
M  V30 3646 H 397.332 2.02547 -2.56207 0
M  V30 3647 H 395.991 0.197715 -3.66066 0
M  V30 3648 H 395.639 2.58592 -4.31438 0
M  V30 3649 H 395.339 1.48764 -5.68457 0
M  V30 3650 H 396.863 2.41686 -5.60732 0
M  V30 3651 H 398.277 0.148802 -5.73107 0
M  V30 3652 H 396.674 -0.60532 -5.97039 0
M  V30 3653 H 397.744 -1.21395 -4.69459 0
M  V30 3654 N 399.087 1.5561 -0.249682 0
M  V30 3655 C 400.364 1.90932 0.424761 0
M  V30 3656 C 400.744 1.17078 1.75658 0
M  V30 3657 O 400.092 0.289176 2.26663 0
M  V30 3658 C 400.302 3.43975 0.590109 0
M  V30 3659 C 401.65 4.15281 0.884714 0
M  V30 3660 O 402.674 3.49729 0.67587 0
M  V30 3661 O 401.533 5.31236 1.28259 0
M  V30 3662 H 398.627 0.794815 0.228468 0
M  V30 3663 H 401.173 1.67135 -0.293954 0
M  V30 3664 H 399.945 3.89748 -0.34818 0
M  V30 3665 H 399.568 3.73644 1.35926 0
M  V30 3666 N 400.565 -0.0233959 1.57583 0
M  V30 3667 C 401.79 -0.728376 1.94189 0
M  V30 3668 C 402.215 -1.67793 0.850119 0
M  V30 3669 O 401.573 -1.80262 -0.19371 0
M  V30 3670 C 401.621 -1.45669 3.29868 0
M  V30 3671 O 400.725 -2.57013 3.22518 0
M  V30 3672 H 400.066 -0.195493 0.63457 0
M  V30 3673 H 402.596 0.0228214 2.04587 0
M  V30 3674 H 402.606 -1.82535 3.6489 0
M  V30 3675 H 401.281 -0.760314 4.08891 0
M  V30 3676 H 399.858 -2.22648 2.99136 0
M  V30 3677 N 402.043 -1.548 -0.295768 0
M  V30 3678 C 403.454 -1.65274 -0.868411 0
M  V30 3679 C 403.805 -0.56481 -1.87894 0
M  V30 3680 O 402.93 0.29767 -2.14343 0
M  V30 3681 C 403.525 -2.99603 -1.58188 0
M  V30 3682 C 402.084 -3.12181 -2.10286 0
M  V30 3683 C 401.231 -2.6098 -0.93727 0
M  V30 3684 H 404.182 -1.58534 -0.0726422 0
M  V30 3685 H 404.203 -2.91319 -2.44772 0
M  V30 3686 H 403.715 -3.78764 -0.846151 0
M  V30 3687 H 401.816 -2.3775 -2.8689 0
M  V30 3688 H 401.929 -4.18415 -2.33379 0
M  V30 3689 H 400.293 -2.17564 -1.32431 0
M  V30 3690 H 401.076 -3.42623 -0.215414 0
M  V30 3691 N 403.521 0.559213 -1.47345 0
M  V30 3692 C 404.932 1.14134 -1.47751 0
M  V30 3693 C 405.283 1.94834 -0.231103 0
M  V30 3694 O 404.408 2.05957 0.664137 0
M  V30 3695 C 405.003 2.07653 -2.67705 0
M  V30 3696 C 403.562 2.61141 -2.71076 0
M  V30 3697 C 402.709 1.3748 -2.40821 0
M  V30 3698 H 405.66 0.345917 -1.54884 0
M  V30 3699 H 405.681 2.91497 -2.44561 0
M  V30 3700 H 405.193 1.4889 -3.58404 0
M  V30 3701 H 403.294 3.23707 -1.84511 0
M  V30 3702 H 403.407 3.02272 -3.7171 0
M  V30 3703 H 401.771 1.68086 -1.91362 0
M  V30 3704 H 402.554 0.805135 -3.33725 0
M  V30 3705 N 404.999 1.35443 0.805782 0
M  V30 3706 C 406.41 1.25768 1.37983 0
M  V30 3707 C 406.761 -0.10958 1.95894 0
M  V30 3708 O 405.886 -1.01056 1.91355 0
M  V30 3709 C 406.481 2.27727 2.5085 0
M  V30 3710 C 405.04 2.2179 3.04115 0
M  V30 3711 C 404.187 2.13393 1.77084 0
M  V30 3712 H 407.138 1.4656 0.608752 0
M  V30 3713 H 407.159 1.90422 3.29424 0
M  V30 3714 H 406.671 3.27227 2.08671 0
M  V30 3715 H 404.772 1.25703 3.50756 0
M  V30 3716 H 404.885 3.13788 3.62042 0
M  V30 3717 H 403.249 1.59384 1.98668 0
M  V30 3718 H 404.032 3.14755 1.37056 0
M  V30 3719 N 406.477 -1.02803 1.19454 0
M  V30 3720 C 407.888 -1.57667 0.999899 0
M  V30 3721 C 408.239 -1.91041 -0.446956 0
M  V30 3722 O 407.364 -1.70978 -1.32648 0
M  V30 3723 C 407.959 -2.86477 1.80877 0
M  V30 3724 C 406.518 -3.37911 1.65811 0
M  V30 3725 C 405.665 -2.11343 1.79526 0
M  V30 3726 H 408.616 -0.853214 1.33813 0
M  V30 3727 H 408.637 -3.57408 1.30536 0
M  V30 3728 H 408.149 -2.62155 2.86175 0
M  V30 3729 H 406.25 -3.67218 0.63102 0
M  V30 3730 H 406.363 -4.10885 2.46395 0
M  V30 3731 H 404.727 -2.23254 1.22596 0
M  V30 3732 H 405.51 -1.89461 2.86285 0
M  V30 3733 N 407.956 -0.998596 -1.21925 0
M  V30 3734 C 409.184 -0.696286 -1.94832 0
M  V30 3735 C 409.599 0.740032 -1.73692 0
M  V30 3736 O 408.956 1.5 -1.03953 0
M  V30 3737 C 409.007 -0.999833 -3.47398 0
M  V30 3738 O 408.728 -2.37972 -3.67833 0
M  V30 3739 C 410.229 -0.716025 -4.37479 0
M  V30 3740 H 407.449 -0.257111 -0.619786 0
M  V30 3741 H 409.993 -1.33491 -1.54921 0
M  V30 3742 H 408.148 -0.406918 -3.85257 0
M  V30 3743 H 408.562 -2.48338 -4.61983 0
M  V30 3744 H 410.036 -0.978642 -5.43256 0
M  V30 3745 H 410.513 0.349968 -4.37803 0
M  V30 3746 H 411.119 -1.29025 -4.05256 0
M  V30 3747 N 409.434 1.37368 -0.772513 0
M  V30 3748 C 410.364 2.32856 -0.173304 0
M  V30 3749 C 411.345 1.55818 0.682262 0
M  V30 3750 O 412.53 1.84052 0.619566 0
M  V30 3751 C 409.66 3.40048 0.706007 0
M  V30 3752 C 408.614 4.27973 -0.0483144 0
M  V30 3753 C 407.94 5.26184 0.950491 0
M  V30 3754 C 409.24 5.07665 -1.22776 0
M  V30 3755 H 410.934 2.83217 -0.971002 0
M  V30 3756 H 408.48 1.3617 -0.468377 0
M  V30 3757 H 410.433 4.05827 1.13501 0
M  V30 3758 H 409.157 2.88214 1.53623 0
M  V30 3759 H 407.816 3.63726 -0.458107 0
M  V30 3760 H 407.464 4.7063 1.77529 0
M  V30 3761 H 407.164 5.85872 0.450314 0
M  V30 3762 H 408.688 5.94838 1.37842 0
M  V30 3763 H 410.102 5.66578 -0.875366 0
M  V30 3764 H 408.499 5.76681 -1.66007 0
M  V30 3765 H 409.569 4.40294 -2.03149 0
M  V30 3766 N 410.912 0.523116 1.48665 0
M  V30 3767 C 411.875 -0.232592 2.28017 0
M  V30 3768 C 412.875 -0.874021 1.34972 0
M  V30 3769 O 414.065 -0.735132 1.57929 0
M  V30 3770 C 411.197 -1.33586 3.13636 0
M  V30 3771 H 412.39 0.464008 2.96289 0
M  V30 3772 H 409.943 0.278816 1.53793 0
M  V30 3773 H 410.678 -2.06593 2.4998 0
M  V30 3774 H 410.463 -0.881125 3.82071 0
M  V30 3775 H 411.953 -1.86759 3.73511 0
M  V30 3776 N 412.39 -1.55475 0.257931 0
M  V30 3777 C 413.63 -2.01112 -0.365129 0
M  V30 3778 C 413.994 -1.1423 -1.54323 0
M  V30 3779 O 415.195 -1.49371 -2.23477 0
M  V30 3780 C 413.466 -3.49353 -0.754117 0
M  V30 3781 S 415.025 -4.16992 -1.36614 0
M  V30 3782 H 411.843 -0.701737 -0.114397 0
M  V30 3783 H 414.445 -1.91855 0.375747 0
M  V30 3784 H 413.149 -4.10246 0.112441 0
M  V30 3785 H 412.68 -3.6256 -1.52689 0
M  V30 3786 H 414.695 -4.19191 -2.65505 0
M  V30 3787 N 413.868 0.0150385 -1.57593 0
M  V30 3788 C 415.116 0.701613 -1.8953 0
M  V30 3789 C 415.437 1.75139 -0.857396 0
M  V30 3790 O 414.707 1.95607 0.107194 0
M  V30 3791 H 413.287 0.26213 -0.699498 0
M  V30 3792 H 415.949 -0.0223304 -1.94887 0
M  V30 3793 H 415.045 1.18236 -2.88837 0
M  V30 3794 N 415.346 1.54954 0.287554 0
M  V30 3795 C 416.571 1.79209 1.04397 0
M  V30 3796 C 416.996 0.556431 1.79682 0
M  V30 3797 O 416.354 -0.493518 1.74454 0
M  V30 3798 C 416.402 3.00739 1.98969 0
M  V30 3799 O 415.506 2.74805 3.075 0
M  V30 3800 H 414.847 0.592755 0.299227 0
M  V30 3801 H 417.377 2.02068 0.320886 0
M  V30 3802 H 417.387 3.29077 2.4119 0
M  V30 3803 H 416.062 3.90329 1.43582 0
M  V30 3804 H 414.639 2.57523 2.69697 0
M  V30 3805 N 416.824 -0.551391 1.4764 0
M  V30 3806 C 418.072 -1.30572 1.54258 0
M  V30 3807 C 418.393 -1.93877 0.208963 0
M  V30 3808 O 417.663 -1.80234 -0.767619 0
M  V30 3809 H 416.243 -0.484894 0.568231 0
M  V30 3810 H 418.905 -0.643402 1.83974 0
M  V30 3811 H 418.001 -2.09621 2.31226 0
M  V30 3812 N 418.302 -1.35869 -0.798587 0
M  V30 3813 C 419.55 -1.29332 -1.55298 0
M  V30 3814 C 419.871 0.129729 -1.94568 0
M  V30 3815 O 419.141 1.06796 -1.6423 0
M  V30 3816 H 417.721 -0.475737 -0.57592 0
M  V30 3817 H 420.383 -1.70062 -0.952093 0
M  V30 3818 H 419.479 -1.91458 -2.46476 0
M  V30 3819 N 419.78 1.02168 -1.19998 0
M  V30 3820 C 421.028 1.75338 -1.00504 0
M  V30 3821 C 421.349 1.89387 0.464506 0
M  V30 3822 O 420.619 1.43268 1.33608 0
M  V30 3823 H 419.199 0.649564 -0.368885 0
M  V30 3824 H 421.861 1.23205 -1.51018 0
M  V30 3825 H 420.957 2.75892 -1.45912 0
M  V30 3826 N 421.258 1.00505 1.21394 0
M  V30 3827 C 422.483 0.706367 1.95001 0
M  V30 3828 C 422.908 -0.72463 1.73582 0
M  V30 3829 O 422.266 -1.49702 1.0227 0
M  V30 3830 C 422.314 1.03299 3.45487 0
M  V30 3831 O 421.418 0.138275 4.12168 0
M  V30 3832 H 420.759 0.263175 0.609619 0
M  V30 3833 H 423.289 1.34531 1.54151 0
M  V30 3834 H 423.299 0.979872 3.96059 0
M  V30 3835 H 421.974 2.07567 3.60401 0
M  V30 3836 H 420.551 0.247928 3.72075 0
M  V30 3837 N 422.737 -1.36956 0.779787 0
M  V30 3838 C 423.669 -2.28833 0.129639 0
M  V30 3839 C 424.682 -1.4902 -0.655511 0
M  V30 3840 O 425.871 -1.71578 -0.492279 0
M  V30 3841 C 422.971 -3.2833 -0.839792 0
M  V30 3842 C 422.144 -4.3727 -0.10675 0
M  V30 3843 C 421.203 -5.16789 -0.990717 0
M  V30 3844 O 420.229 -5.67406 -0.451516 0
M  V30 3845 N 421.431 -5.32294 -2.3161 0
M  V30 3846 H 424.196 -2.85268 0.918803 0
M  V30 3847 H 421.757 -1.49019 0.632841 0
M  V30 3848 H 423.749 -3.78413 -1.43477 0
M  V30 3849 H 422.319 -2.72605 -1.52988 0
M  V30 3850 H 421.539 -3.88478 0.669216 0
M  V30 3851 H 422.827 -5.07229 0.399464 0
M  V30 3852 H 422.225 -4.92768 -2.77843 0
M  V30 3853 H 420.782 -5.85656 -2.86095 0
M  V30 3854 N 424.215 -0.530993 -1.48385 0
M  V30 3855 C 425.463 0.00273189 -2.021 0
M  V30 3856 C 425.784 1.34672 -1.41027 0
M  V30 3857 O 425.054 1.8724 -0.576012 0
M  V30 3858 H 423.634 0.00399774 -0.746989 0
M  V30 3859 H 426.296 -0.695054 -1.82085 0
M  V30 3860 H 425.392 0.11031 -3.11905 0
M  V30 3861 N 425.693 1.55336 -0.266172 0
M  V30 3862 C 426.97 1.91372 0.404486 0
M  V30 3863 C 427.35 1.18935 1.74407 0
M  V30 3864 O 426.698 0.3132 2.26343 0
M  V30 3865 C 426.908 3.44581 0.553593 0
M  V30 3866 C 428.256 4.16196 0.840618 0
M  V30 3867 O 429.28 3.50426 0.638739 0
M  V30 3868 O 428.139 5.32567 1.22618 0
M  V30 3869 H 425.233 0.797194 0.220025 0
M  V30 3870 H 427.779 1.66813 -0.311664 0
M  V30 3871 H 426.551 3.89357 -0.389498 0
M  V30 3872 H 426.174 3.75065 1.31955 0
M  V30 3873 N 427.171 -0.0066808 1.57599 0
M  V30 3874 C 428.081 -1.01671 2.11424 0
M  V30 3875 C 429.097 -1.38143 1.05795 0
M  V30 3876 O 430.273 -1.47011 1.37658 0
M  V30 3877 C 427.338 -2.29192 2.60139 0
M  V30 3878 C 426.399 -1.99094 3.80342 0
M  V30 3879 C 425.632 -3.20535 4.26724 0
M  V30 3880 O 425.855 -4.3199 3.72479 0
M  V30 3881 O 424.789 -3.04924 5.18946 0
M  V30 3882 H 428.615 -0.589181 2.9793 0
M  V30 3883 H 426.2 -0.225091 1.47695 0
M  V30 3884 H 428.082 -3.0412 2.917 0
M  V30 3885 H 426.757 -2.71195 1.76733 0
M  V30 3886 H 425.664 -1.21663 3.53764 0
M  V30 3887 H 426.997 -1.61931 4.648 0
M  V30 3888 N 428.649 -1.55105 -0.279332 0
M  V30 3889 C 429.559 -1.90638 -1.36727 0
M  V30 3890 C 430.575 -0.802899 -1.54368 0
M  V30 3891 O 431.751 -1.10138 -1.68616 0
M  V30 3892 C 428.816 -2.16547 -2.70755 0
M  V30 3893 C 427.877 -3.40146 -2.61915 0
M  V30 3894 C 427.11 -3.6481 -3.8955 0
M  V30 3895 O 427.333 -2.92095 -4.89935 0
M  V30 3896 O 426.267 -4.58343 -3.90135 0
M  V30 3897 H 430.093 -2.83237 -1.09591 0
M  V30 3898 H 427.678 -1.4157 -0.477306 0
M  V30 3899 H 429.56 -2.34665 -3.50014 0
M  V30 3900 H 428.235 -1.27131 -2.9769 0
M  V30 3901 H 427.142 -3.2737 -1.81052 0
M  V30 3902 H 428.475 -4.29761 -2.3993 0
M  V30 3903 N 430.127 0.543554 -1.4793 0
M  V30 3904 C 431.09 1.63156 -1.60975 0
M  V30 3905 C 432.09 1.53346 -0.483899 0
M  V30 3906 O 433.28 1.5726 -0.749339 0
M  V30 3907 C 430.412 3.02743 -1.56716 0
M  V30 3908 H 431.605 1.52934 -2.57975 0
M  V30 3909 H 429.158 0.764557 -1.36324 0
M  V30 3910 H 429.893 3.18484 -0.611418 0
M  V30 3911 H 429.678 3.11272 -2.38438 0
M  V30 3912 H 431.168 3.81871 -1.6901 0
M  V30 3913 N 431.605 1.3629 0.791371 0
M  V30 3914 C 432.555 1.26988 1.89362 0
M  V30 3915 C 433.539 0.161795 1.60084 0
M  V30 3916 O 434.731 0.394426 1.72549 0
M  V30 3917 C 431.86 1.05944 3.26544 0
M  V30 3918 C 430.946 2.21211 3.61838 0
M  V30 3919 N 431.337 3.46518 3.68455 0
M  V30 3920 C 429.635 2.12933 3.91887 0
M  V30 3921 C 430.336 4.2241 3.99931 0
M  V30 3922 N 429.312 3.51329 4.14812 0
M  V30 3923 H 433.114 2.21908 1.92702 0
M  V30 3924 H 430.628 1.28982 0.986787 0
M  V30 3925 H 432.625 0.973666 4.05371 0
M  V30 3926 H 431.285 0.119223 3.24481 0
M  V30 3927 H 432.296 3.80677 3.51148 0
M  V30 3928 H 428.973 1.26855 3.97761 0
M  V30 3929 H 430.363 5.30767 4.1199 0
M  V30 3930 N 433.083 -1.0153 1.20538 0
M  V30 3931 C 434.046 -2.0826 0.957098 0
M  V30 3932 C 435.046 -1.60657 -0.0678655 0
M  V30 3933 O 436.236 -1.73385 0.168332 0
M  V30 3934 C 433.368 -3.38033 0.441188 0
M  V30 3935 H 434.561 -2.31719 1.90384 0
M  V30 3936 H 432.114 -1.1835 1.02093 0
M  V30 3937 H 432.849 -3.20249 -0.510961 0
M  V30 3938 H 432.634 -3.73911 1.18038 0
M  V30 3939 H 434.124 -4.16613 0.287009 0
M  V30 3940 N 434.561 -1.01147 -1.20859 0
M  V30 3941 C 435.786 -0.716698 -1.94623 0
M  V30 3942 C 436.211 0.715415 -1.73964 0
M  V30 3943 O 435.569 1.49157 -1.03062 0
M  V30 3944 C 435.617 -1.0513 -3.44935 0
M  V30 3945 O 434.721 -0.160131 -4.12089 0
M  V30 3946 H 434.062 -0.266404 -0.608214 0
M  V30 3947 H 436.592 -1.35346 -1.53436 0
M  V30 3948 H 436.602 -1.00086 -3.95533 0
M  V30 3949 H 435.277 -2.09475 -3.59295 0
M  V30 3950 H 433.854 -0.267657 -3.71938 0
M  V30 3951 N 436.039 1.36541 -0.78704 0
M  V30 3952 C 437.264 2.0409 -0.369053 0
M  V30 3953 C 437.689 1.58957 1.00569 0
M  V30 3954 O 437.047 0.756926 1.64743 0
M  V30 3955 C 437.095 3.57924 -0.438466 0
M  V30 3956 O 436.199 4.08642 0.555479 0
M  V30 3957 H 435.54 0.645142 -0.157122 0
M  V30 3958 H 438.07 1.74545 -1.06749 0
M  V30 3959 H 438.08 4.06887 -0.301218 0
M  V30 3960 H 436.755 3.90127 -1.44132 0
M  V30 3961 H 435.332 3.70958 0.380088 0
M  V30 3962 N 437.518 0.538854 1.48102 0
M  V30 3963 C 438.743 0.0102694 2.07397 0
M  V30 3964 C 439.168 -1.26562 1.39153 0
M  V30 3965 O 438.526 -1.75357 0.460387 0
M  V30 3966 C 438.574 -0.187602 3.60112 0
M  V30 3967 O 437.678 -1.25432 3.92862 0
M  V30 3968 H 437.019 0.0430975 0.6626 0
M  V30 3969 H 439.549 0.749301 1.90385 0
M  V30 3970 H 439.559 -0.407517 4.0596 0
M  V30 3971 H 438.234 0.744386 4.09184 0
M  V30 3972 H 436.811 -1.01636 3.58782 0
M  V30 3973 N 438.996 -1.55193 0.274407 0
M  V30 3974 C 439.959 -2.212 -0.600279 0
M  V30 3975 C 440.959 -1.18963 -1.08187 0
M  V30 3976 O 442.149 -1.43873 -0.982158 0
M  V30 3977 C 439.281 -2.87739 -1.82809 0
M  V30 3978 H 440.474 -2.9989 -0.0239682 0
M  V30 3979 H 438.027 -1.5628 0.0250192 0
M  V30 3980 H 438.762 -2.13058 -2.44493 0
M  V30 3981 H 438.547 -3.62658 -1.49069 0
M  V30 3982 H 440.037 -3.38171 -2.45011 0
M  V30 3983 N 440.474 -0.00167713 -1.576 0
M  V30 3984 C 441.437 0.974046 -2.07473 0
M  V30 3985 C 442.437 1.27143 -0.984444 0
M  V30 3986 O 443.627 1.21633 -1.24703 0
M  V30 3987 C 440.759 2.29849 -2.51759 0
M  V30 3988 H 441.952 0.54262 -2.9495 0
M  V30 3989 H 439.505 0.245829 -1.54355 0
M  V30 3990 H 440.24 2.77677 -1.67529 0
M  V30 3991 H 440.025 2.09584 -3.31386 0
M  V30 3992 H 441.515 2.9984 -2.90664 0
M  V30 3993 N 441.952 1.55251 0.271103 0
M  V30 3994 C 442.862 1.9136 1.35714 0
M  V30 3995 C 443.878 0.811075 1.5394 0
M  V30 3996 O 445.054 1.11031 1.6803 0
M  V30 3997 C 442.119 2.1798 2.69603 0
M  V30 3998 C 441.18 3.4153 2.60107 0
M  V30 3999 C 440.413 3.66871 3.8761 0
M  V30 4000 O 440.636 2.94689 4.8838 0
M  V30 4001 O 439.57 4.60405 3.87699 0
M  V30 4002 H 443.396 2.83815 1.08088 0
M  V30 4003 H 440.981 1.41821 0.469792 0
M  V30 4004 H 442.863 2.36518 3.48765 0
M  V30 4005 H 441.538 1.28708 2.97012 0
M  V30 4006 H 440.445 3.28325 1.79314 0
M  V30 4007 H 441.778 4.31027 2.37647 0
M  V30 4008 N 443.43 -0.535701 1.48216 0
M  V30 4009 C 444.34 -1.66785 1.64985 0
M  V30 4010 C 445.356 -1.65654 0.532414 0
M  V30 4011 O 446.532 -1.8471 0.80275 0
M  V30 4012 C 443.597 -3.0326 1.68031 0
M  V30 4013 C 442.658 -3.1529 2.9136 0
M  V30 4014 C 441.891 -4.45255 2.94252 0
M  V30 4015 O 442.114 -5.32011 2.05719 0
M  V30 4016 O 441.048 -4.6153 3.86359 0
M  V30 4017 H 444.874 -1.55576 2.60825 0
M  V30 4018 H 442.459 -0.70815 1.31551 0
M  V30 4019 H 444.341 -3.84436 1.72589 0
M  V30 4020 H 443.016 -3.14805 0.753628 0
M  V30 4021 H 441.923 -2.3343 2.92337 0
M  V30 4022 H 443.256 -3.08658 3.83394 0
M  V30 4023 N 444.908 -1.36708 -0.784132 0
M  V30 4024 C 445.838 -1.34153 -1.91116 0
M  V30 4025 C 446.819 -0.212121 -1.68772 0
M  V30 4026 O 448.004 -0.410581 -1.8981 0
M  V30 4027 C 445.134 -1.13535 -3.28218 0
M  V30 4028 C 444.088 -2.23356 -3.65097 0
M  V30 4029 C 443.414 -1.87875 -5.00607 0
M  V30 4030 C 444.714 -3.65473 -3.73131 0
M  V30 4031 H 446.408 -2.28459 -1.93512 0
M  V30 4032 H 443.954 -1.09973 -0.929618 0
M  V30 4033 H 445.907 -1.10381 -4.06687 0
M  V30 4034 H 444.631 -0.156804 -3.26223 0
M  V30 4035 H 443.29 -2.25645 -2.88929 0
M  V30 4036 H 442.938 -0.885814 -4.95139 0
M  V30 4037 H 442.638 -2.61406 -5.26252 0
M  V30 4038 H 444.162 -1.86286 -5.81489 0
M  V30 4039 H 445.576 -3.65382 -4.41779 0
M  V30 4040 H 443.973 -4.37953 -4.10265 0
M  V30 4041 H 445.043 -3.99995 -2.74102 0
M  V30 4042 N 446.386 1.0089 -1.21074 0
M  V30 4043 C 447.611 1.78727 -1.05221 0
M  V30 4044 C 448.036 1.83932 0.393795 0
M  V30 4045 O 447.394 1.28004 1.28393 0
M  V30 4046 C 447.442 3.20665 -1.64944 0
M  V30 4047 O 446.546 4.02632 -0.892273 0
M  V30 4048 H 445.887 0.550973 -0.370574 0
M  V30 4049 H 448.417 1.26847 -1.60534 0
M  V30 4050 H 448.427 3.71352 -1.69002 0
M  V30 4051 H 447.102 3.16191 -2.70177 0
M  V30 4052 H 445.679 3.61207 -0.926492 0
M  V30 4053 N 447.864 1.01787 1.20321 0
M  V30 4054 C 449.275 0.739307 1.71438 0
M  V30 4055 C 449.626 -0.742041 1.81627 0
M  V30 4056 O 448.751 -1.57903 1.47971 0
M  V30 4057 C 449.346 1.33538 3.11373 0
M  V30 4058 C 447.905 1.10566 3.59795 0
M  V30 4059 C 447.052 1.44028 2.36962 0
M  V30 4060 H 450.003 1.18718 1.05317 0
M  V30 4061 H 450.024 0.726611 3.73498 0
M  V30 4062 H 449.536 2.41352 3.03926 0
M  V30 4063 H 447.637 0.0452405 3.72573 0
M  V30 4064 H 447.75 1.78661 4.44542 0
M  V30 4065 H 446.114 0.85933 2.39766 0
M  V30 4066 H 446.897 2.52901 2.32155 0
M  V30 4067 N 449.342 -1.36122 0.79427 0
M  V30 4068 C 450.305 -2.28309 0.201889 0
M  V30 4069 C 451.305 -1.49041 -0.603603 0
M  V30 4070 O 452.495 -1.68964 -0.423888 0
M  V30 4071 C 449.627 -3.3321 -0.719978 0
M  V30 4072 H 450.82 -2.82208 1.01481 0
M  V30 4073 H 448.373 -1.45768 0.564037 0
M  V30 4074 H 449.108 -2.84475 -1.55706 0
M  V30 4075 H 448.893 -3.91835 -0.144266 0
M  V30 4076 H 450.383 -4.02044 -1.12916 0
M  V30 4077 N 450.82 -0.546701 -1.47814 0
M  V30 4078 C 452.231 -0.110564 -1.86372 0
M  V30 4079 C 452.582 1.31678 -1.45449 0
M  V30 4080 O 451.707 1.98889 -0.852758 0
M  V30 4081 C 452.302 -0.193873 -3.38245 0
M  V30 4082 C 450.861 0.187164 -3.75934 0
M  V30 4083 C 450.008 -0.546166 -2.71868 0
M  V30 4084 H 452.959 -0.757022 -1.39481 0
M  V30 4085 H 452.98 0.590218 -3.75895 0
M  V30 4086 H 452.492 -1.23282 -3.67999 0
M  V30 4087 H 450.593 1.22762 -3.51796 0
M  V30 4088 H 450.706 -0.164083 -4.78819 0
M  V30 4089 H 449.07 0.00953904 -2.54698 0
M  V30 4090 H 449.853 -1.58606 -3.04465 0
M  V30 4091 N 452.299 1.55045 -0.282633 0
M  V30 4092 C 453.524 2.04628 0.337977 0
M  V30 4093 C 453.949 1.15937 1.48123 0
M  V30 4094 O 453.307 0.159532 1.80597 0
M  V30 4095 C 453.355 3.51854 0.78936 0
M  V30 4096 O 452.459 3.66236 1.89592 0
M  V30 4097 H 451.8 0.660434 0.0687261 0
M  V30 4098 H 454.33 2.00261 -0.419124 0
M  V30 4099 H 454.34 3.93361 1.08311 0
M  V30 4100 H 453.015 4.15873 -0.0470419 0
M  V30 4101 H 451.592 3.36633 1.60413 0
M  V30 4102 N 453.777 0.010035 1.57597 0
M  V30 4103 C 454.687 -0.994226 2.12491 0
M  V30 4104 C 455.703 -1.37013 1.07254 0
M  V30 4105 O 456.879 -1.45542 1.3921 0
M  V30 4106 C 453.944 -2.2642 2.62555 0
M  V30 4107 C 453.005 -1.95049 3.82432 0
M  V30 4108 C 452.238 -3.15991 4.30099 0
M  V30 4109 O 452.461 -4.28015 3.7704 0
M  V30 4110 O 451.395 -2.99403 5.22151 0
M  V30 4111 H 455.221 -0.557549 2.98538 0
M  V30 4112 H 452.806 -0.209413 1.47925 0
M  V30 4113 H 454.688 -3.01009 2.9491 0
M  V30 4114 H 453.363 -2.69306 1.796 0
M  V30 4115 H 452.27 -1.17904 3.55034 0
M  V30 4116 H 453.603 -1.56992 4.66491 0
M  V30 4117 N 455.255 -1.55392 -0.262866 0
M  V30 4118 C 456.48 -1.80847 -1.01533 0
M  V30 4119 C 456.905 -0.584946 -1.78774 0
M  V30 4120 O 456.263 0.465701 -1.75217 0
M  V30 4121 C 456.311 -3.03866 -1.94159 0
M  V30 4122 O 455.415 -2.79662 -3.03089 0
M  V30 4123 H 454.756 -0.597441 -0.289759 0
M  V30 4124 H 457.286 -2.02553 -0.288698 0
M  V30 4125 H 457.296 -3.32872 -2.35924 0
M  V30 4126 H 455.971 -3.92564 -1.37354 0
M  V30 4127 H 454.548 -2.61781 -2.65566 0
M  V30 4128 N 456.733 0.527833 -1.48498 0
M  V30 4129 C 457.958 1.313 -1.60546 0
M  V30 4130 C 458.383 1.86199 -0.26672 0
M  V30 4131 O 457.741 1.64513 0.761918 0
M  V30 4132 C 457.789 2.43818 -2.65678 0
M  V30 4133 O 456.893 3.46916 -2.22987 0
M  V30 4134 H 456.234 0.388784 -0.538277 0
M  V30 4135 H 458.764 0.634896 -1.945 0
M  V30 4136 H 458.774 2.89973 -2.87018 0
M  V30 4137 H 457.449 2.03222 -3.62869 0
M  V30 4138 H 456.026 3.06864 -2.11869 0
M  V30 4139 N 458.211 1.37122 0.776871 0
M  V30 4140 C 459.158 1.3247 1.88998 0
M  V30 4141 C 460.128 0.191143 1.64997 0
M  V30 4142 O 461.313 0.379683 1.86984 0
M  V30 4143 C 458.453 1.13241 3.25992 0
M  V30 4144 C 457.566 2.35782 3.61982 0
M  V30 4145 C 456.701 2.09465 4.88158 0
M  V30 4146 C 455.74 3.279 5.16864 0
M  V30 4147 N 454.877 3.01167 6.34226 0
M  V30 4148 H 459.717 2.27642 1.9231 0
M  V30 4149 H 457.254 1.13125 0.94027 0
M  V30 4150 H 459.212 1.00115 4.0501 0
M  V30 4151 H 457.842 0.217186 3.22069 0
M  V30 4152 H 456.894 2.59666 2.77989 0
M  V30 4153 H 458.206 3.24125 3.79137 0
M  V30 4154 H 457.36 1.93341 5.75069 0
M  V30 4155 H 456.099 1.18452 4.73097 0
M  V30 4156 H 455.104 3.44569 4.2843 0
M  V30 4157 H 456.329 4.19757 5.33836 0
M  V30 4158 H 454.275 2.12779 6.20533 0
M  V30 4159 H 454.192 3.83052 6.51772 0
M  V30 4160 H 455.46 2.88649 7.24087 0
M  V30 4161 N 459.689 -1.00246 1.21608 0
M  V30 4162 C 460.652 -2.07233 0.979133 0
M  V30 4163 C 461.652 -1.6072 -0.0508219 0
M  V30 4164 O 462.842 -1.73196 0.186712 0
M  V30 4165 C 459.974 -3.37546 0.477016 0
M  V30 4166 H 461.167 -2.29687 1.92831 0
M  V30 4167 H 458.72 -1.17261 1.03342 0
M  V30 4168 H 459.455 -3.20773 -0.476966 0
M  V30 4169 H 459.24 -3.72638 1.21997 0
M  V30 4170 H 460.73 -4.16285 0.331181 0
M  V30 4171 N 461.167 -1.02423 -1.1978 0
M  V30 4172 C 462.392 -0.7373 -1.93852 0
M  V30 4173 C 462.817 0.696923 -1.74713 0
M  V30 4174 O 462.175 1.48056 -1.04638 0
M  V30 4175 C 462.223 -1.08783 -3.438 0
M  V30 4176 O 461.327 -0.20383 -4.11896 0
M  V30 4177 H 460.668 -0.27284 -0.605355 0
M  V30 4178 H 463.198 -1.36966 -1.51992 0
M  V30 4179 H 463.208 -1.04276 -3.9445 0
M  V30 4180 H 461.883 -2.13274 -3.57053 0
M  V30 4181 H 460.46 -0.307091 -3.71633 0
M  V30 4182 N 462.645 1.35699 -0.801477 0
M  V30 4183 C 464.056 1.81415 -0.441073 0
M  V30 4184 C 464.407 1.66595 1.03636 0
M  V30 4185 O 463.532 1.19369 1.80499 0
M  V30 4186 C 464.127 3.29369 -0.793819 0
M  V30 4187 C 462.686 3.73248 -0.486083 0
M  V30 4188 C 461.833 2.57775 -1.02213 0
M  V30 4189 H 464.784 1.23749 -0.993572 0
M  V30 4190 H 464.805 3.80395 -0.0894158 0
M  V30 4191 H 464.317 3.40123 -1.86917 0
M  V30 4192 H 462.418 3.68046 0.580735 0
M  V30 4193 H 462.531 4.68222 -1.01513 0
M  V30 4194 H 460.895 2.50788 -0.444712 0
M  V30 4195 H 461.678 2.71309 -2.10348 0
M  V30 4196 N 464.123 0.554532 1.47522 0
M  V30 4197 C 465.033 -0.197865 2.33764 0
M  V30 4198 C 466.049 -0.914576 1.48025 0
M  V30 4199 O 467.225 -0.884067 1.80959 0
M  V30 4200 C 464.29 -1.21628 3.24665 0
M  V30 4201 C 463.351 -0.507283 4.26292 0
M  V30 4202 C 462.584 -1.47718 5.1285 0
M  V30 4203 O 462.807 -2.7118 5.01814 0
M  V30 4204 O 461.741 -1.00313 5.93482 0
M  V30 4205 H 465.567 0.50949 2.99396 0
M  V30 4206 H 463.152 0.315176 1.46038 0
M  V30 4207 H 465.034 -1.80421 3.80823 0
M  V30 4208 H 463.709 -1.9056 2.61665 0
M  V30 4209 H 462.616 0.121778 3.73902 0
M  V30 4210 H 463.949 0.140544 4.91999 0
M  V30 4211 N 465.601 -1.54893 0.290851 0
M  V30 4212 C 466.548 -2.23138 -0.58974 0
M  V30 4213 C 467.518 -1.21036 -1.13752 0
M  V30 4214 O 468.703 -1.49626 -1.18392 0
M  V30 4215 C 465.843 -2.96811 -1.76061 0
M  V30 4216 C 464.956 -4.13665 -1.24519 0
M  V30 4217 C 464.091 -4.74944 -2.3791 0
M  V30 4218 C 463.13 -5.83963 -1.83451 0
M  V30 4219 N 462.267 -6.39239 -2.90376 0
M  V30 4220 H 467.107 -2.98 -0.00114915 0
M  V30 4221 H 464.644 -1.47096 0.0112006 0
M  V30 4222 H 466.602 -3.37751 -2.44909 0
M  V30 4223 H 465.232 -2.24344 -2.32098 0
M  V30 4224 H 464.284 -3.77737 -0.449288 0
M  V30 4225 H 465.596 -4.92238 -0.806424 0
M  V30 4226 H 464.75 -5.18684 -3.14724 0
M  V30 4227 H 463.489 -3.95682 -2.85109 0
M  V30 4228 H 462.494 -5.39657 -1.05122 0
M  V30 4229 H 463.719 -6.65103 -1.37169 0
M  V30 4230 H 461.665 -5.62864 -3.36927 0
M  V30 4231 H 461.582 -7.13129 -2.50965 0
M  V30 4232 H 462.85 -6.87637 -3.67118 0
M  V30 4233 N 467.08 -0.0183926 -1.57589 0
M  V30 4234 C 468.357 0.700621 -1.82622 0
M  V30 4235 C 468.737 1.90951 -0.90005 0
M  V30 4236 O 468.085 2.28452 0.0469145 0
M  V30 4237 C 468.295 1.08899 -3.31575 0
M  V30 4238 C 469.643 1.48514 -3.9778 0
M  V30 4239 O 470.667 1.18227 -3.36007 0
M  V30 4240 O 469.526 2.04903 -5.06633 0
M  V30 4241 H 466.62 0.342743 -0.752633 0
M  V30 4242 H 469.166 -0.0452548 -1.6964 0
M  V30 4243 H 467.938 0.228113 -3.90635 0
M  V30 4244 H 467.561 1.89338 -3.49624 0
M  V30 4245 N 468.558 1.5553 0.254621 0
M  V30 4246 C 469.783 1.81383 1.00573 0
M  V30 4247 C 470.208 0.594419 1.78461 0
M  V30 4248 O 469.566 -0.456403 1.75461 0
M  V30 4249 C 469.614 3.04892 1.92545 0
M  V30 4250 O 468.718 2.81266 3.01601 0
M  V30 4251 H 468.059 0.598969 0.286587 0
M  V30 4252 H 470.589 2.02703 0.277952 0
M  V30 4253 H 470.599 3.34119 2.34155 0
M  V30 4254 H 469.274 3.93287 1.3527 0
M  V30 4255 H 467.851 2.63185 2.64174 0
M  V30 4256 N 470.036 -0.519951 1.48776 0
M  V30 4257 C 470.966 -1.63253 1.66945 0
M  V30 4258 C 471.947 -1.62014 0.518224 0
M  V30 4259 O 473.132 -1.79053 0.751919 0
M  V30 4260 C 470.262 -3.0181 1.71836 0
M  V30 4261 C 469.216 -3.17911 2.8656 0
M  V30 4262 C 468.542 -4.5763 2.76548 0
M  V30 4263 C 469.842 -2.99729 4.27738 0
M  V30 4264 H 471.536 -1.48302 2.6009 0
M  V30 4265 H 469.082 -0.712026 1.25165 0
M  V30 4266 H 471.035 -3.79525 1.83135 0
M  V30 4267 H 469.759 -3.17806 0.752775 0
M  V30 4268 H 468.418 -2.42616 2.74833 0
M  V30 4269 H 468.066 -4.70476 1.77937 0
M  V30 4270 H 467.766 -4.69346 3.53536 0
M  V30 4271 H 469.29 -5.37431 2.89828 0
M  V30 4272 H 470.704 -3.67228 4.40246 0
M  V30 4273 H 469.101 -3.22932 5.05801 0
M  V30 4274 H 470.171 -1.96047 4.43502 0
M  V30 4275 N 471.514 -1.37532 -0.769588 0
M  V30 4276 C 472.762 -1.32597 -1.5252 0
M  V30 4277 C 473.083 0.0884294 -1.94799 0
M  V30 4278 O 472.353 1.03289 -1.66458 0
M  V30 4279 H 470.933 -0.487846 -0.565699 0
M  V30 4280 H 473.595 -1.72044 -0.915806 0
M  V30 4281 H 472.691 -1.96643 -2.42359 0
M  V30 4282 N 472.992 0.995999 -1.22138 0
M  V30 4283 C 473.94 2.10673 -0.985876 0
M  V30 4284 C 474.934 1.69255 0.0699553 0
M  V30 4285 O 476.14 1.79812 -0.0822176 0
M  V30 4286 H 472.515 0.688865 -0.30161 0
M  V30 4287 H 474.486 2.27711 -1.92848 0
M  V30 4288 C 473.235 3.42881 -0.576909 0
M  V30 4289 H 472.558 3.75191 -1.38101 0
M  V30 4290 H 473.998 4.21589 -0.451518 0
M  V30 4291 C 472.457 3.29265 0.713196 0
M  V30 4292 O 472.987 3.60777 1.76643 0
M  V30 4293 N 471.193 2.82456 0.683162 0
M  V30 4294 H 470.74 2.5701 -0.174242 0
M  V30 4295 H 470.698 2.73727 1.54663 0
M  V30 4296 N 474.47 1.03057 1.19235 0
M  V30 4297 C 475.695 0.74757 1.93458 0
M  V30 4298 C 476.12 -0.687648 1.7508 0
M  V30 4299 O 475.478 -1.47499 1.05422 0
M  V30 4300 C 475.526 1.10604 3.43219 0
M  V30 4301 O 474.63 0.225671 4.11782 0
M  V30 4302 H 473.971 0.276047 0.603899 0
M  V30 4303 H 476.501 1.3777 1.51263 0
M  V30 4304 H 476.511 1.06366 3.93891 0
M  V30 4305 H 475.186 2.15165 3.55917 0
M  V30 4306 H 473.763 0.326795 3.71465 0
M  V30 4307 N 475.948 -1.35272 0.808662 0
M  V30 4308 C 476.895 -2.29764 0.218482 0
M  V30 4309 C 477.865 -1.52911 -0.648652 0
M  V30 4310 O 479.05 -1.81341 -0.593297 0
M  V30 4311 C 476.19 -3.39388 -0.625282 0
M  V30 4312 C 475.303 -4.31202 0.262516 0
M  V30 4313 C 474.438 -5.27919 -0.589451 0
M  V30 4314 C 473.477 -6.11371 0.298617 0
M  V30 4315 N 472.614 -7.0022 -0.513443 0
M  V30 4316 H 477.454 -2.79645 1.02968 0
M  V30 4317 H 474.991 -1.37629 0.519303 0
M  V30 4318 H 476.949 -4.01615 -1.12966 0
M  V30 4319 H 475.579 -2.90777 -1.40173 0
M  V30 4320 H 474.631 -3.69962 0.885013 0
M  V30 4321 H 475.943 -4.89748 0.945971 0
M  V30 4322 H 475.097 -5.95529 -1.15888 0
M  V30 4323 H 473.836 -4.69875 -1.30647 0
M  V30 4324 H 472.841 -5.42707 0.880301 0
M  V30 4325 H 474.066 -6.71494 1.01352 0
M  V30 4326 H 472.012 -6.44662 -1.21439 0
M  V30 4327 H 471.929 -7.55917 0.111922 0
M  V30 4328 H 473.197 -7.72175 -1.06608 0
M  V30 4329 N 477.426 -0.562348 -1.47226 0
M  V30 4330 C 478.674 -0.0401371 -2.0206 0
M  V30 4331 C 478.995 1.3165 -1.43852 0
M  V30 4332 O 478.265 1.85976 -0.615599 0
M  V30 4333 H 476.845 -0.0118479 -0.746906 0
M  V30 4334 H 479.507 -0.73352 -1.8057 0
M  V30 4335 H 478.603 0.0441254 -3.12069 0
M  V30 4336 N 478.904 1.54736 -0.299062 0
M  V30 4337 C 479.814 2.27127 0.587413 0
M  V30 4338 C 480.83 1.30575 1.15005 0
M  V30 4339 O 482.006 1.63554 1.17525 0
M  V30 4340 C 479.071 2.99645 1.74395 0
M  V30 4341 C 478.132 4.11731 1.21559 0
M  V30 4342 C 477.365 4.80781 2.317 0
M  V30 4343 O 477.588 4.4918 3.51558 0
M  V30 4344 O 476.522 5.68226 1.98501 0
M  V30 4345 H 480.348 3.037 0.000250109 0
M  V30 4346 H 477.933 1.49256 -0.0655919 0
M  V30 4347 H 479.815 3.45138 2.4178 0
M  V30 4348 H 478.49 2.25969 2.31775 0
M  V30 4349 H 477.397 3.70641 0.507514 0
M  V30 4350 H 478.73 4.87379 0.687233 0
M  V30 4351 N 480.382 0.0267497 1.57577 0
M  V30 4352 C 481.33 -0.973923 2.11229 0
M  V30 4353 C 482.324 -1.33849 1.03831 0
M  V30 4354 O 483.53 -1.321 1.22269 0
M  V30 4355 H 479.905 -0.331844 0.674821 0
M  V30 4356 H 481.876 -0.496092 2.94247 0
M  V30 4357 C 480.625 -2.24798 2.65257 0
M  V30 4358 H 479.948 -1.9762 3.47543 0
M  V30 4359 H 481.388 -2.93031 3.06445 0
M  V30 4360 C 479.847 -2.97611 1.57891 0
M  V30 4361 O 480.377 -3.89629 0.97735 0
M  V30 4362 N 478.583 -2.59905 1.29992 0
M  V30 4363 H 478.13 -1.85154 1.79097 0
M  V30 4364 H 478.088 -3.08932 0.583798 0
M  V30 4365 N 481.861 -1.55662 -0.24637 0
M  V30 4366 C 482.824 -1.89558 -1.28842 0
M  V30 4367 C 483.824 -0.772082 -1.41052 0
M  V30 4368 O 485.014 -1.04007 -1.39743 0
M  V30 4369 C 482.146 -2.12449 -2.66605 0
M  V30 4370 H 483.339 -2.82735 -1.00004 0
M  V30 4371 H 480.892 -1.48562 -0.485684 0
M  V30 4372 H 481.627 -1.21742 -3.00582 0
M  V30 4373 H 481.412 -2.94273 -2.59125 0
M  V30 4374 H 482.902 -2.39854 -3.41847 0
M  V30 4375 N 483.339 0.512053 -1.4905 0
M  V30 4376 C 484.302 1.59704 -1.64399 0
M  V30 4377 C 485.302 1.52285 -0.516317 0
M  V30 4378 O 486.492 1.55635 -0.782527 0
M  V30 4379 C 483.624 2.9935 -1.63102 0
M  V30 4380 H 484.817 1.47428 -2.61161 0
M  V30 4381 H 482.37 0.735469 -1.37915 0
M  V30 4382 H 483.105 3.17116 -0.678836 0
M  V30 4383 H 482.89 3.06144 -2.44986 0
M  V30 4384 H 484.38 3.782 -1.77072 0
M  V30 4385 N 484.817 1.37938 0.762283 0
M  V30 4386 C 485.765 1.34569 1.89721 0
M  V30 4387 C 486.759 0.232929 1.67791 0
M  V30 4388 O 487.965 0.401485 1.75465 0
M  V30 4389 H 484.34 0.419594 0.624055 0
M  V30 4390 H 486.311 2.30357 1.8968 0
M  V30 4391 C 485.06 1.17898 3.27101 0
M  V30 4392 H 484.383 2.02781 3.44558 0
M  V30 4393 H 485.823 1.19593 4.06784 0
M  V30 4394 C 484.282 -0.114728 3.36705 0
M  V30 4395 O 484.812 -1.0949 3.8649 0
M  V30 4396 N 483.018 -0.16863 2.9011 0
M  V30 4397 H 482.565 0.62967 2.49786 0
M  V30 4398 H 482.523 -1.03383 2.96916 0
M  V30 4399 N 486.295 -0.989507 1.22664 0
M  V30 4400 C 487.541 -1.73298 1.06487 0
M  V30 4401 C 487.896 -1.88292 -0.395438 0
M  V30 4402 O 487.189 -1.41748 -1.28911 0
M  V30 4403 C 487.383 -3.13649 1.71345 0
M  V30 4404 C 487.212 -3.12341 3.23532 0
M  V30 4405 C 485.982 -3.18044 3.92653 0
M  V30 4406 C 488.18 -2.96226 4.20422 0
M  V30 4407 N 486.162 -3.06526 5.31898 0
M  V30 4408 C 487.533 -2.92773 5.4652 0
M  V30 4409 C 489.588 -2.80642 4.11271 0
M  V30 4410 C 488.291 -2.75332 6.64519 0
M  V30 4411 C 490.317 -2.64563 5.28924 0
M  V30 4412 C 489.679 -2.618 6.53942 0
M  V30 4413 H 485.778 -0.643643 0.444126 0
M  V30 4414 H 488.362 -1.17489 1.55256 0
M  V30 4415 H 486.533 -3.67694 1.25122 0
M  V30 4416 H 488.265 -3.76577 1.48229 0
M  V30 4417 H 485.02 -3.25861 3.43673 0
M  V30 4418 H 485.444 -3.04067 6.04874 0
M  V30 4419 H 490.086 -2.81574 3.15398 0
M  V30 4420 H 487.804 -2.73145 7.60538 0
M  V30 4421 H 491.39 -2.53482 5.23677 0
M  V30 4422 H 490.27 -2.49511 7.43447 0
M  V30 4423 N 487.773 -1.03688 -1.18687 0
M  V30 4424 C 488.703 -0.645407 -2.24403 0
M  V30 4425 C 489.684 0.349511 -1.66471 0
M  V30 4426 O 490.869 0.230453 -1.92828 0
M  V30 4427 C 487.999 -0.00365337 -3.473 0
M  V30 4428 C 486.953 -0.921705 -4.17958 0
M  V30 4429 C 486.279 -0.144629 -5.34504 0
M  V30 4430 C 487.579 -2.23909 -4.71871 0
M  V30 4431 H 489.273 -1.52917 -2.57404 0
M  V30 4432 H 486.819 -0.736711 -1.23728 0
M  V30 4433 H 488.772 0.281908 -4.20456 0
M  V30 4434 H 487.496 0.914963 -3.13522 0
M  V30 4435 H 486.155 -1.19159 -3.46694 0
M  V30 4436 H 485.803 0.776274 -4.96974 0
M  V30 4437 H 485.503 -0.756206 -5.82714 0
M  V30 4438 H 487.027 0.134004 -6.10453 0
M  V30 4439 H 488.441 -2.0145 -5.36741 0
M  V30 4440 H 486.838 -2.8033 -5.30599 0
M  V30 4441 H 487.908 -2.88822 -3.895 0
M  V30 4442 N 489.251 1.34841 -0.815825 0
M  V30 4443 C 490.479 2.0273 -0.413294 0
M  V30 4444 C 490.894 1.61459 0.978599 0
M  V30 4445 O 490.251 0.816584 1.63212 0
M  V30 4446 C 490.302 3.58058 -0.497676 0
M  V30 4447 O 490.023 3.97832 -1.8347 0
M  V30 4448 C 491.524 4.4321 -0.0891339 0
M  V30 4449 H 488.744 0.649956 -0.166728 0
M  V30 4450 H 491.288 1.72267 -1.10201 0
M  V30 4451 H 489.443 3.87136 0.142886 0
M  V30 4452 H 489.857 4.92501 -1.80396 0
M  V30 4453 H 491.331 5.5164 -0.199274 0
M  V30 4454 H 491.808 4.28432 0.966571 0
M  V30 4455 H 492.414 4.19446 -0.703214 0
M  V30 4456 N 490.729 0.570148 1.46925 0
M  V30 4457 C 491.692 -0.159933 2.28641 0
M  V30 4458 C 492.692 -0.830638 1.37685 0
M  V30 4459 O 493.882 -0.684516 1.60187 0
M  V30 4460 C 491.014 -1.2354 3.17727 0
M  V30 4461 H 492.207 0.558035 2.94662 0
M  V30 4462 H 489.76 0.327603 1.52828 0
M  V30 4463 H 490.495 -1.98535 2.56426 0
M  V30 4464 H 490.28 -0.759125 3.84681 0
M  V30 4465 H 491.77 -1.74782 3.79264 0
M  V30 4466 N 492.207 -1.54576 0.307264 0
M  V30 4467 C 493.154 -2.23751 -0.56604 0
M  V30 4468 C 494.124 -1.22235 -1.12462 0
M  V30 4469 O 495.309 -1.50873 -1.16799 0
M  V30 4470 C 492.449 -2.98661 -1.72903 0
M  V30 4471 C 491.562 -4.14963 -1.20124 0
M  V30 4472 C 490.697 -4.77441 -2.3286 0
M  V30 4473 C 489.736 -5.85875 -1.77247 0
M  V30 4474 N 488.873 -6.42282 -2.8358 0
M  V30 4475 H 493.713 -2.97984 0.0304578 0
M  V30 4476 H 491.25 -1.47076 0.0268015 0
M  V30 4477 H 493.208 -3.40329 -2.41313 0
M  V30 4478 H 491.838 -2.26793 -2.29706 0
M  V30 4479 H 490.89 -3.78193 -0.409198 0
M  V30 4480 H 492.202 -4.93066 -0.754171 0
M  V30 4481 H 491.356 -5.21993 -3.09205 0
M  V30 4482 H 490.095 -3.98684 -2.80896 0
M  V30 4483 H 489.1 -5.40741 -0.993926 0
M  V30 4484 H 490.325 -6.6652 -1.30107 0
M  V30 4485 H 488.271 -5.66406 -3.30939 0
M  V30 4486 H 488.188 -7.1575 -2.43388 0
M  V30 4487 H 489.456 -6.91492 -3.59804 0
M  V30 4488 N 493.685 -0.035106 -1.57561 0
M  V30 4489 C 494.91 0.655802 -1.96759 0
M  V30 4490 C 495.335 1.64523 -0.911809 0
M  V30 4491 O 494.693 1.80857 0.126673 0
M  V30 4492 C 494.741 1.33326 -3.35047 0
M  V30 4493 O 493.845 2.44866 -3.31835 0
M  V30 4494 H 493.186 0.171807 -0.641388 0
M  V30 4495 H 495.716 -0.0987369 -2.04362 0
M  V30 4496 H 495.726 1.68867 -3.71413 0
M  V30 4497 H 494.401 0.608033 -4.11431 0
M  V30 4498 H 492.978 2.11392 -3.07193 0
M  V30 4499 N 495.163 1.55791 0.238111 0
M  V30 4500 C 496.411 1.77681 0.963001 0
M  V30 4501 C 496.732 0.600674 1.85518 0
M  V30 4502 O 496.002 -0.383182 1.92116 0
M  V30 4503 H 494.582 0.655315 0.358568 0
M  V30 4504 H 497.244 1.93239 0.253945 0
M  V30 4505 H 496.34 2.69177 1.57956 0
M  V30 4506 N 496.642 -0.504142 1.49319 0
M  V30 4507 C 498.058 -0.835039 1.36012 0
M  V30 4508 C 498.258 -1.97674 0.390808 0
M  V30 4509 O 497.314 -2.51867 -0.178655 0
M  V30 4510 C 498.627 -1.17821 2.76656 0
M  V30 4511 C 500.175 -1.2866 2.85334 0
M  V30 4512 C 500.65 -1.66307 4.26739 0
M  V30 4513 N 502.141 -1.73362 4.29534 0
M  V30 4514 C 502.876 -2.0393 5.35911 0
M  V30 4515 N 502.372 -2.32744 6.52535 0
M  V30 4516 N 504.165 -2.05155 5.23324 0
M  V30 4517 H 496.316 0.248764 2.10938 0
M  V30 4518 H 498.579 0.0486962 0.946748 0
M  V30 4519 H 498.285 -0.412682 3.4927 0
M  V30 4520 H 498.159 -2.12239 3.11825 0
M  V30 4521 H 500.546 -2.04285 2.1296 0
M  V30 4522 H 500.627 -0.323004 2.53752 0
M  V30 4523 H 500.271 -0.91234 4.99639 0
M  V30 4524 H 500.201 -2.63761 4.55782 0
M  V30 4525 H 502.692 -1.53268 3.45424 0
M  V30 4526 H 503.005 -2.55248 7.2943 0
M  V30 4527 H 501.35 -2.30207 6.55767 0
M  V30 4528 H 504.541 -1.82119 4.3122 0
M  V30 4529 H 504.714 -2.28644 6.06322 0
M  V30 4530 N 498.12 -1.38341 -0.754957 0
M  V30 4531 C 499.067 -1.3546 -1.86867 0
M  V30 4532 C 500.037 -0.217369 -1.64672 0
M  V30 4533 O 501.222 -0.409383 -1.86356 0
M  V30 4534 C 498.362 -1.18413 -3.24149 0
M  V30 4535 C 497.475 -2.41511 -3.58185 0
M  V30 4536 C 496.61 -2.17205 -4.84763 0
M  V30 4537 C 495.649 -3.36081 -5.11582 0
M  V30 4538 N 494.786 -3.11219 -6.29354 0
M  V30 4539 H 499.626 -2.30672 -1.88664 0
M  V30 4540 H 497.163 -1.14607 -0.922154 0
M  V30 4541 H 499.121 -1.06545 -4.03366 0
M  V30 4542 H 497.751 -0.268397 -3.21682 0
M  V30 4543 H 496.803 -2.64056 -2.73822 0
M  V30 4544 H 498.115 -3.30115 -3.73932 0
M  V30 4545 H 497.269 -2.02465 -5.7192 0
M  V30 4546 H 496.008 -1.25964 -4.71152 0
M  V30 4547 H 495.013 -3.51341 -4.22894 0
M  V30 4548 H 496.238 -4.28196 -5.27091 0
M  V30 4549 H 494.184 -2.22624 -6.17069 0
M  V30 4550 H 494.101 -3.93373 -6.45596 0
M  V30 4551 H 495.369 -3.00132 -7.19403 0
M  V30 4552 N 499.598 0.982988 -1.23187 0
M  V30 4553 C 500.545 2.07491 -1.01075 0
M  V30 4554 C 501.515 1.65949 0.070905 0
M  V30 4555 O 502.7 1.90629 -0.0806822 0
M  V30 4556 C 499.84 3.39751 -0.605261 0
M  V30 4557 C 498.953 3.94578 -1.75876 0
M  V30 4558 C 498.088 5.15039 -1.3003 0
M  V30 4559 C 497.127 5.62027 -2.42472 0
M  V30 4560 N 496.264 6.73719 -1.97602 0
M  V30 4561 H 501.104 2.25739 -1.9454 0
M  V30 4562 H 498.641 1.10659 -0.969179 0
M  V30 4563 H 500.599 4.15719 -0.351279 0
M  V30 4564 H 499.229 3.21473 0.292382 0
M  V30 4565 H 498.281 3.1539 -2.12681 0
M  V30 4566 H 499.593 4.25422 -2.60418 0
M  V30 4567 H 498.747 5.9833 -1.00429 0
M  V30 4568 H 497.486 4.85843 -0.425216 0
M  V30 4569 H 496.491 4.77318 -2.7285 0
M  V30 4570 H 497.716 5.93244 -3.30512 0
M  V30 4571 H 495.662 6.46287 -1.1247 0
M  V30 4572 H 495.579 7.03934 -2.75705 0
M  V30 4573 H 496.847 7.6049 -1.71098 0
M  V30 4574 N 501.076 1.04316 1.18135 0
M  V30 4575 C 502.492 0.762858 1.40188 0
M  V30 4576 C 502.692 -0.646547 1.90846 0
M  V30 4577 O 501.748 -1.41036 2.0944 0
M  V30 4578 C 503.061 1.81106 2.40044 0
M  V30 4579 C 504.609 1.83226 2.53766 0
M  V30 4580 C 505.084 2.87044 3.56889 0
M  V30 4581 N 506.575 2.85951 3.64398 0
M  V30 4582 C 507.31 3.62932 4.43923 0
M  V30 4583 N 506.806 4.49672 5.27036 0
M  V30 4584 N 508.599 3.51411 4.38711 0
M  V30 4585 H 500.75 1.95264 0.835805 0
M  V30 4586 H 503.013 0.845017 0.429709 0
M  V30 4587 H 502.719 2.82214 2.09876 0
M  V30 4588 H 502.593 1.64529 3.39426 0
M  V30 4589 H 504.98 0.827869 2.8325 0
M  V30 4590 H 505.061 2.03879 1.54489 0
M  V30 4591 H 504.705 3.87663 3.28145 0
M  V30 4592 H 504.635 2.63645 4.5585 0
M  V30 4593 H 507.126 2.23051 3.05052 0
M  V30 4594 H 507.439 5.05116 5.84874 0
M  V30 4595 H 505.784 4.53738 5.26447 0
M  V30 4596 H 508.975 2.83047 3.72829 0
M  V30 4597 H 509.148 4.11654 5.00445 0
M  V30 4598 N 502.554 -1.34406 0.822964 0
M  V30 4599 C 503.794 -2.00103 0.416915 0
M  V30 4600 C 504.158 -1.63826 -1.00125 0
M  V30 4601 O 505.359 -2.22367 -1.51018 0
M  V30 4602 C 503.63 -3.52101 0.613151 0
M  V30 4603 S 505.189 -4.37774 0.299956 0
M  V30 4604 H 502.007 -0.69333 0.157527 0
M  V30 4605 H 504.609 -1.63698 1.06879 0
M  V30 4606 H 503.313 -3.75991 1.64496 0
M  V30 4607 H 502.844 -3.93364 -0.0534554 0
M  V30 4608 H 504.859 -4.8822 -0.886336 0
M  V30 4609 N 504.032 -0.577932 -1.46621 0
M  V30 4610 C 505.443 -0.150071 -1.86096 0
M  V30 4611 C 505.794 1.28563 -1.48209 0
M  V30 4612 O 504.919 1.97036 -0.894754 0
M  V30 4613 C 505.514 -0.265576 -3.37758 0
M  V30 4614 C 504.073 0.10738 -3.76247 0
M  V30 4615 C 503.22 -0.603711 -2.70649 0
M  V30 4616 H 506.171 -0.786438 -1.37844 0
M  V30 4617 H 506.192 0.510352 -3.77062 0
M  V30 4618 H 505.704 -1.3106 -3.65301 0
M  V30 4619 H 503.805 1.15272 -3.54321 0
M  V30 4620 H 503.918 -0.26561 -4.78363 0
M  V30 4621 H 502.282 -0.0444884 -2.54661 0
M  V30 4622 H 503.065 -1.65029 -3.01032 0
M  V30 4623 N 505.51 1.54411 -0.315457 0
M  V30 4624 C 506.74 2.04536 0.291315 0
M  V30 4625 C 507.148 1.19162 1.4696 0
M  V30 4626 O 506.491 0.213199 1.82459 0
M  V30 4627 C 506.553 3.5056 0.796725 0
M  V30 4628 C 506.217 4.5627 -0.258178 0
M  V30 4629 C 507.214 5.08312 -1.09153 0
M  V30 4630 C 504.899 5.00672 -0.404036 0
M  V30 4631 C 506.893 6.03312 -2.05655 0
M  V30 4632 C 504.58 5.95488 -1.37248 0
M  V30 4633 C 505.578 6.46693 -2.19721 0
M  V30 4634 O 505.266 7.39648 -3.14921 0
M  V30 4635 H 504.998 0.672856 0.0651165 0
M  V30 4636 H 507.552 2.00244 -0.457308 0
M  V30 4637 H 505.782 3.52223 1.59612 0
M  V30 4638 H 507.471 3.83804 1.32096 0
M  V30 4639 H 508.237 4.74793 -0.98979 0
M  V30 4640 H 504.116 4.60436 0.22799 0
M  V30 4641 H 507.66 6.43203 -2.70067 0
M  V30 4642 H 503.557 6.28424 -1.47489 0
M  V30 4643 H 504.325 7.57496 -3.10067 0
M  V30 4644 N 506.988 0.0434614 1.5754 0
M  V30 4645 C 508.216 -0.641835 1.96693 0
M  V30 4646 C 508.631 -1.64832 0.920652 0
M  V30 4647 O 507.988 -1.82247 -0.095993 0
M  V30 4648 C 508.039 -1.33557 3.35924 0
M  V30 4649 O 507.76 -0.369403 4.3654 0
M  V30 4650 C 509.261 -2.11135 3.89791 0
M  V30 4651 H 506.481 -0.176013 0.647503 0
M  V30 4652 H 509.025 0.107478 2.04217 0
M  V30 4653 H 507.18 -2.03617 3.29574 0
M  V30 4654 H 507.594 -0.863674 5.1734 0
M  V30 4655 H 509.068 -2.55107 4.89514 0
M  V30 4656 H 509.545 -2.95634 3.24803 0
M  V30 4657 H 510.151 -1.46002 3.99454 0
M  V30 4658 N 508.466 -1.55915 -0.229846 0
M  V30 4659 C 509.413 -1.91734 -1.28478 0
M  V30 4660 C 510.383 -0.773539 -1.46988 0
M  V30 4661 O 511.568 -1.02871 -1.60693 0
M  V30 4662 C 508.708 -2.23224 -2.63182 0
M  V30 4663 C 507.821 -3.50497 -2.52539 0
M  V30 4664 C 506.956 -3.71474 -3.79711 0
M  V30 4665 C 505.995 -4.92289 -3.63755 0
M  V30 4666 N 505.132 -5.09698 -4.82858 0
M  V30 4667 H 509.972 -2.81692 -0.972308 0
M  V30 4668 H 507.509 -1.39429 -0.468815 0
M  V30 4669 H 509.467 -2.3949 -3.41614 0
M  V30 4670 H 508.097 -1.36451 -2.92542 0
M  V30 4671 H 507.149 -3.4247 -1.65585 0
M  V30 4672 H 508.461 -4.39079 -2.36666 0
M  V30 4673 H 507.615 -3.87791 -4.66586 0
M  V30 4674 H 506.354 -2.81157 -3.985 0
M  V30 4675 H 505.359 -4.7593 -2.75264 0
M  V30 4676 H 506.584 -5.84083 -3.46445 0
M  V30 4677 H 504.53 -4.22322 -5.01976 0
M  V30 4678 H 504.447 -5.92399 -4.69681 0
M  V30 4679 H 505.715 -5.30443 -5.71183 0
M  V30 4680 N 509.944 0.496216 -1.49584 0
M  V30 4681 C 510.894 1.59422 -1.62999 0
M  V30 4682 C 511.878 1.53402 -0.485457 0
M  V30 4683 O 513.07 1.60851 -0.738649 0
M  V30 4684 C 510.199 2.98009 -1.70427 0
M  V30 4685 C 509.285 3.09008 -2.90473 0
M  V30 4686 N 509.676 2.89884 -4.14489 0
M  V30 4687 C 507.974 3.40115 -2.8851 0
M  V30 4688 C 508.675 3.0519 -4.95211 0
M  V30 4689 N 507.651 3.3428 -4.2867 0
M  V30 4690 H 511.453 1.43297 -2.56599 0
M  V30 4691 H 508.967 0.702443 -1.46422 0
M  V30 4692 H 510.964 3.76926 -1.78136 0
M  V30 4693 H 509.624 3.152 -0.77967 0
M  V30 4694 H 510.635 2.65963 -4.44392 0
M  V30 4695 H 507.312 3.63452 -2.05448 0
M  V30 4696 H 508.702 2.94856 -6.03746 0
M  V30 4697 N 511.423 1.38739 0.74761 0
M  V30 4698 C 512.355 1.32341 1.87132 0
M  V30 4699 C 513.368 0.234502 1.61102 0
M  V30 4700 O 514.557 0.492516 1.71571 0
M  V30 4701 C 511.657 1.02915 3.22896 0
M  V30 4702 C 510.83 2.22834 3.76383 0
M  V30 4703 C 509.889 1.90059 4.90677 0
M  V30 4704 O 508.915 2.62615 5.04997 0
M  V30 4705 N 510.117 0.859141 5.74107 0
M  V30 4706 H 512.882 2.29175 1.93129 0
M  V30 4707 H 510.443 1.32678 0.927805 0
M  V30 4708 H 512.435 0.79031 3.96908 0
M  V30 4709 H 511.005 0.148572 3.12247 0
M  V30 4710 H 510.225 2.62747 2.93867 0
M  V30 4711 H 511.513 3.02851 4.08851 0
M  V30 4712 H 510.911 0.257564 5.65113 0
M  V30 4713 H 509.468 0.680189 6.48241 0
M  V30 4714 N 512.901 -0.976442 1.23707 0
M  V30 4715 C 514.129 -1.75341 1.09833 0
M  V30 4716 C 514.544 -1.8553 -0.349885 0
M  V30 4717 O 513.901 -1.33732 -1.24185 0
M  V30 4718 C 513.952 -3.17833 1.72233 0
M  V30 4719 O 513.673 -3.08167 3.11391 0
M  V30 4720 C 515.174 -4.11906 1.63853 0
M  V30 4721 H 512.394 -0.550137 0.384175 0
M  V30 4722 H 514.938 -1.2265 1.63638 0
M  V30 4723 H 513.093 -3.67538 1.22452 0
M  V30 4724 H 513.507 -3.97897 3.41729 0
M  V30 4725 H 514.981 -5.09579 2.12211 0
M  V30 4726 H 515.458 -4.35109 0.598092 0
M  V30 4727 H 516.064 -3.68107 2.13019 0
M  V30 4728 N 514.379 -1.04941 -1.1758 0
M  V30 4729 C 515.309 -0.669172 -2.23706 0
M  V30 4730 C 516.29 0.331835 -1.66832 0
M  V30 4731 O 517.475 0.209988 -1.93061 0
M  V30 4732 C 514.605 -0.0404889 -3.47276 0
M  V30 4733 C 513.559 -0.965983 -4.16957 0
M  V30 4734 C 512.885 -0.201312 -5.34321 0
M  V30 4735 C 514.185 -2.28902 -4.69469 0
M  V30 4736 H 515.879 -1.55639 -2.55767 0
M  V30 4737 H 513.425 -0.749793 -1.22939 0
M  V30 4738 H 515.378 0.237298 -4.20731 0
M  V30 4739 H 514.102 0.881658 -3.14475 0
M  V30 4740 H 512.761 -1.22829 -3.45411 0
M  V30 4741 H 512.409 0.723519 -4.97769 0
M  V30 4742 H 512.109 -0.817968 -5.81879 0
M  V30 4743 H 513.633 0.0692499 -6.10561 0
M  V30 4744 H 515.047 -2.07132 -5.34574 0
M  V30 4745 H 513.444 -2.85942 -5.27596 0
M  V30 4746 H 514.514 -2.92937 -3.86414 0
M  V30 4747 N 515.857 1.33968 -0.830081 0
M  V30 4748 C 516.767 2.33164 -0.259207 0
M  V30 4749 C 517.783 1.62951 0.610164 0
M  V30 4750 O 518.959 1.94668 0.516369 0
M  V30 4751 C 516.024 3.42088 0.563598 0
M  V30 4752 C 515.085 4.28037 -0.329014 0
M  V30 4753 C 514.318 5.3176 0.454616 0
M  V30 4754 O 514.541 5.44876 1.6872 0
M  V30 4755 O 513.475 6.01669 -0.166794 0
M  V30 4756 H 517.301 2.83832 -1.08041 0
M  V30 4757 H 514.886 1.37154 -0.59239 0
M  V30 4758 H 516.768 4.08581 1.03147 0
M  V30 4759 H 515.443 2.93651 1.36201 0
M  V30 4760 H 514.35 3.64443 -0.844538 0
M  V30 4761 H 515.683 4.79934 -1.09196 0
M  V30 4762 N 517.335 0.585699 1.46312 0
M  V30 4763 C 518.265 -0.133556 2.33118 0
M  V30 4764 C 519.246 -0.880707 1.45525 0
M  V30 4765 O 520.431 -0.855579 1.74337 0
M  V30 4766 C 517.561 -1.14585 3.27853 0
M  V30 4767 C 516.515 -0.513341 4.2491 0
M  V30 4768 C 515.841 -1.63231 5.09175 0
M  V30 4769 C 517.141 0.551413 5.19381 0
M  V30 4770 H 518.835 0.59121 2.93505 0
M  V30 4771 H 516.381 0.285761 1.41136 0
M  V30 4772 H 518.334 -1.65741 3.87438 0
M  V30 4773 H 517.058 -1.90093 2.65579 0
M  V30 4774 H 515.717 -0.0228349 3.66593 0
M  V30 4775 H 515.365 -2.37713 4.43285 0
M  V30 4776 H 515.065 -1.21473 5.74907 0
M  V30 4777 H 516.589 -2.14658 5.71624 0
M  V30 4778 H 518.003 0.124804 5.73164 0
M  V30 4779 H 516.4 0.889486 5.93471 0
M  V30 4780 H 517.47 1.43655 4.63132 0
M  V30 4781 N 518.813 -1.54241 0.323641 0
M  V30 4782 C 519.723 -2.28033 -0.551205 0
M  V30 4783 C 520.739 -1.32388 -1.12913 0
M  V30 4784 O 521.915 -1.65403 -1.14908 0
M  V30 4785 C 518.98 -3.02382 -1.69606 0
M  V30 4786 C 518.041 -4.13612 -1.14993 0
M  V30 4787 C 517.274 -4.84407 -2.24022 0
M  V30 4788 O 517.497 -4.54716 -3.44368 0
M  V30 4789 O 516.431 -5.71312 -1.89436 0
M  V30 4790 H 520.257 -3.03662 0.048066 0
M  V30 4791 H 517.842 -1.49133 0.0893289 0
M  V30 4792 H 519.724 -3.48941 -2.36259 0
M  V30 4793 H 518.399 -2.29628 -2.28151 0
M  V30 4794 H 517.306 -3.71402 -0.448484 0
M  V30 4795 H 518.639 -4.8841 -0.609608 0
M  V30 4796 N 520.291 -0.0518155 -1.57515 0
M  V30 4797 C 521.238 0.922352 -2.11569 0
M  V30 4798 C 522.208 1.30842 -1.02321 0
M  V30 4799 O 523.393 1.39778 -1.29872 0
M  V30 4800 C 520.533 2.19167 -2.6657 0
M  V30 4801 C 519.646 1.86003 -3.89906 0
M  V30 4802 C 518.781 3.07398 -4.33221 0
M  V30 4803 C 517.82 2.70158 -5.49255 0
M  V30 4804 N 516.957 3.84248 -5.8762 0
M  V30 4805 H 521.797 0.454506 -2.94514 0
M  V30 4806 H 519.334 0.212718 -1.45554 0
M  V30 4807 H 521.292 2.93443 -2.96559 0
M  V30 4808 H 519.922 2.63528 -1.86421 0
M  V30 4809 H 518.974 1.01874 -3.66505 0
M  V30 4810 H 520.286 1.54592 -4.74239 0
M  V30 4811 H 519.44 3.89972 -4.64765 0
M  V30 4812 H 518.179 3.41988 -3.477 0
M  V30 4813 H 517.184 1.86001 -5.17382 0
M  V30 4814 H 518.409 2.36759 -6.36492 0
M  V30 4815 H 516.355 4.18638 -5.05053 0
M  V30 4816 H 516.272 3.56538 -6.66646 0
M  V30 4817 H 517.54 4.6746 -6.2378 0
M  V30 4818 N 521.769 1.56035 0.221574 0
M  V30 4819 C 522.679 1.95581 1.29558 0
M  V30 4820 C 523.695 0.859639 1.51282 0
M  V30 4821 O 524.871 1.16321 1.64413 0
M  V30 4822 C 521.936 2.26447 2.62531 0
M  V30 4823 C 520.997 3.49632 2.4911 0
M  V30 4824 C 520.23 3.79017 3.75742 0
M  V30 4825 O 520.453 3.10077 4.78757 0
M  V30 4826 O 519.387 4.72507 3.72855 0
M  V30 4827 H 523.213 2.8711 0.990035 0
M  V30 4828 H 520.798 1.43244 0.424434 0
M  V30 4829 H 522.68 2.47494 3.41064 0
M  V30 4830 H 521.355 1.38092 2.92766 0
M  V30 4831 H 520.262 3.33864 1.68777 0
M  V30 4832 H 521.595 4.3837 2.23814 0
M  V30 4833 N 523.247 -0.488276 1.49845 0
M  V30 4834 C 524.494 -1.24157 1.59973 0
M  V30 4835 C 524.822 -1.92293 0.292182 0
M  V30 4836 O 524.077 -1.81942 -0.720813 0
M  V30 4837 C 524.376 -2.32152 2.71735 0
M  V30 4838 C 524.042 -1.81387 4.12807 0
M  V30 4839 C 522.704 -1.67262 4.51195 0
M  V30 4840 C 525.056 -1.43537 5.01045 0
M  V30 4841 C 522.384 -1.13685 5.7558 0
M  V30 4842 C 524.736 -0.914081 6.25961 0
M  V30 4843 C 523.4 -0.759327 6.63167 0
M  V30 4844 H 522.67 -0.454322 0.585383 0
M  V30 4845 H 525.317 -0.540261 1.83721 0
M  V30 4846 H 523.622 -3.08122 2.42008 0
M  V30 4847 H 525.319 -2.90164 2.76778 0
M  V30 4848 H 521.909 -1.93344 3.82513 0
M  V30 4849 H 526.093 -1.53292 4.72033 0
M  V30 4850 H 521.349 -1.00426 6.03096 0
M  V30 4851 H 525.523 -0.612066 6.93705 0
M  V30 4852 H 523.15 -0.342002 7.5943 0
M  V30 4853 N 524.725 -1.39134 -0.740242 0
M  V30 4854 C 525.655 -1.40165 -1.86751 0
M  V30 4855 C 526.636 -0.265708 -1.68012 0
M  V30 4856 O 527.821 -0.47076 -1.88408 0
M  V30 4857 C 524.951 -1.2392 -3.2444 0
M  V30 4858 C 523.905 -2.34858 -3.57807 0
M  V30 4859 C 523.231 -2.03707 -4.94376 0
M  V30 4860 C 524.531 -3.77159 -3.61315 0
M  V30 4861 H 526.225 -2.345 -1.86145 0
M  V30 4862 H 523.771 -1.12875 -0.89416 0
M  V30 4863 H 525.724 -1.23263 -4.02969 0
M  V30 4864 H 524.448 -0.26051 -3.25559 0
M  V30 4865 H 523.107 -2.34723 -2.81604 0
M  V30 4866 H 522.755 -1.04289 -4.9207 0
M  V30 4867 H 522.455 -2.78016 -5.17669 0
M  V30 4868 H 523.979 -2.04691 -5.75268 0
M  V30 4869 H 525.393 -3.79252 -4.29931 0
M  V30 4870 H 523.79 -4.50784 -3.96124 0
M  V30 4871 H 524.86 -4.08513 -2.61238 0
M  V30 4872 N 526.204 0.969867 -1.24223 0
M  V30 4873 C 527.451 1.71256 -1.08063 0
M  V30 4874 C 527.779 1.90734 0.380872 0
M  V30 4875 O 527.034 1.46469 1.29789 0
M  V30 4876 C 527.333 3.10883 -1.76314 0
M  V30 4877 C 526.999 3.11252 -3.26241 0
M  V30 4878 C 525.661 3.1106 -3.67144 0
M  V30 4879 C 528.013 3.05751 -4.22097 0
M  V30 4880 C 525.341 3.03097 -5.02344 0
M  V30 4881 C 527.693 2.9933 -5.57301 0
M  V30 4882 C 526.357 2.97466 -5.97554 0
M  V30 4883 H 525.627 0.62667 -0.395431 0
M  V30 4884 H 528.274 1.13422 -1.54297 0
M  V30 4885 H 526.579 3.72168 -1.22468 0
M  V30 4886 H 528.276 3.67138 -1.61277 0
M  V30 4887 H 524.866 3.12165 -2.93685 0
M  V30 4888 H 529.05 3.05031 -3.91497 0
M  V30 4889 H 524.306 3.00013 -5.32731 0
M  V30 4890 H 528.48 2.94033 -6.31283 0
M  V30 4891 H 526.107 2.91051 -7.02277 0
M  V30 4892 N 527.682 1.05563 1.17022 0
M  V30 4893 C 528.63 0.653887 2.2322 0
M  V30 4894 C 529.624 -0.326642 1.66221 0
M  V30 4895 O 530.83 -0.192301 1.7897 0
M  V30 4896 H 527.205 0.193297 0.726733 0
M  V30 4897 H 529.176 1.5596 2.54399 0
M  V30 4898 C 527.925 0.0485434 3.47666 0
M  V30 4899 H 527.248 0.79413 3.91834 0
M  V30 4900 H 528.688 -0.195133 4.23551 0
M  V30 4901 C 527.147 -1.20583 3.14581 0
M  V30 4902 O 527.677 -2.29475 3.29703 0
M  V30 4903 N 525.883 -1.10493 2.68774 0
M  V30 4904 H 525.43 -0.218795 2.56669 0
M  V30 4905 H 525.388 -1.94507 2.47011 0
M  V30 4906 N 529.16 -1.33526 0.837174 0
M  V30 4907 C 530.093 -2.27192 0.214233 0
M  V30 4908 C 531.071 -1.49575 -0.637657 0
M  V30 4909 O 532.255 -1.78753 -0.598291 0
M  V30 4910 C 529.382 -3.31401 -0.699367 0
M  V30 4911 C 528.428 -4.26431 0.0768429 0
M  V30 4912 S 529.261 -5.15954 1.4336 0
M  V30 4913 C 530.417 -6.23692 0.525251 0
M  V30 4914 H 530.65 -2.79679 1.00831 0
M  V30 4915 H 528.183 -1.4079 0.633834 0
M  V30 4916 H 530.141 -3.91924 -1.22088 0
M  V30 4917 H 528.802 -2.77732 -1.46709 0
M  V30 4918 H 527.995 -5.00193 -0.618268 0
M  V30 4919 H 527.597 -3.70235 0.529364 0
M  V30 4920 H 529.889 -6.76931 -0.277575 0
M  V30 4921 H 530.832 -6.97283 1.23299 0
M  V30 4922 H 531.24 -5.64398 0.107351 0
M  V30 4923 N 530.638 -0.59345 -1.46 0
M  V30 4924 C 531.868 -0.0889642 -2.06408 0
M  V30 4925 C 532.276 1.22597 -1.44106 0
M  V30 4926 O 531.619 1.75448 -0.544398 0
M  V30 4927 C 531.681 0.139902 -3.59228 0
M  V30 4928 C 531.345 -1.09107 -4.43784 0
M  V30 4929 C 532.342 -2.00577 -4.79651 0
M  V30 4930 C 530.027 -1.31593 -4.84756 0
M  V30 4931 C 532.021 -3.12873 -5.55328 0
M  V30 4932 C 529.708 -2.44192 -5.60191 0
M  V30 4933 C 530.706 -3.34661 -5.95392 0
M  V30 4934 O 530.394 -4.45302 -6.69299 0
M  V30 4935 H 530.126 -0.0594613 -0.67338 0
M  V30 4936 H 532.68 -0.817 -1.88452 0
M  V30 4937 H 530.91 0.922672 -3.75531 0
M  V30 4938 H 532.599 0.594228 -4.01527 0
M  V30 4939 H 533.365 -1.84425 -4.48567 0
M  V30 4940 H 529.244 -0.620801 -4.56801 0
M  V30 4941 H 532.788 -3.83511 -5.82722 0
M  V30 4942 H 528.685 -2.60303 -5.90688 0
M  V30 4943 H 529.453 -4.43805 -6.87735 0
M  V30 4944 N 532.116 1.54067 -0.331816 0
M  V30 4945 C 533.046 2.27569 0.522932 0
M  V30 4946 C 534.027 1.28679 1.11247 0
M  V30 4947 O 535.212 1.57504 1.13605 0
M  V30 4948 C 532.342 3.0397 1.67987 0
M  V30 4949 C 531.296 4.10267 1.21924 0
M  V30 4950 C 530.622 4.74555 2.46377 0
M  V30 4951 C 531.922 5.21268 0.32815 0
M  V30 4952 H 533.616 2.99264 -0.0901977 0
M  V30 4953 H 531.162 1.4393 -0.044821 0
M  V30 4954 H 533.115 3.54123 2.28418 0
M  V30 4955 H 531.839 2.29906 2.31971 0
M  V30 4956 H 530.498 3.61009 0.637809 0
M  V30 4957 H 530.146 3.97098 3.08743 0
M  V30 4958 H 529.846 5.46363 2.16243 0
M  V30 4959 H 531.37 5.27487 3.07555 0
M  V30 4960 H 532.784 5.67128 0.838978 0
M  V30 4961 H 531.181 5.99982 0.119228 0
M  V30 4962 H 532.251 4.80673 -0.638839 0
M  V30 4963 N 533.594 0.0601682 1.57485 0
M  V30 4964 C 534.822 -0.620937 1.97363 0
M  V30 4965 C 535.237 -1.63846 0.938082 0
M  V30 4966 O 534.594 -1.82339 -0.0766578 0
M  V30 4967 C 534.645 -1.29987 3.37321 0
M  V30 4968 O 534.366 -0.323081 4.36907 0
M  V30 4969 C 535.867 -2.06989 3.92008 0
M  V30 4970 H 533.087 -0.169135 0.649334 0
M  V30 4971 H 535.631 0.129132 2.04092 0
M  V30 4972 H 533.786 -2.0011 3.31715 0
M  V30 4973 H 534.2 -0.808754 5.18227 0
M  V30 4974 H 535.674 -2.49901 4.92192 0
M  V30 4975 H 536.151 -2.92173 3.2792 0
M  V30 4976 H 536.757 -1.41757 4.0098 0
M  V30 4977 N 535.072 -1.5615 -0.213296 0
M  V30 4978 C 536.488 -1.49327 -0.56336 0
M  V30 4979 C 536.688 -0.756826 -1.86747 0
M  V30 4980 O 535.744 -0.299866 -2.50713 0
M  V30 4981 C 537.057 -2.9392 -0.634944 0
M  V30 4982 C 538.605 -3.04487 -0.725013 0
M  V30 4983 C 539.08 -4.50456 -0.82787 0
M  V30 4984 N 540.571 -4.54533 -0.891876 0
M  V30 4985 C 541.306 -5.64766 -0.991315 0
M  V30 4986 N 540.802 -6.84733 -1.05419 0
M  V30 4987 N 542.595 -5.52637 -1.02709 0
M  V30 4988 H 534.746 -2.02453 0.642366 0
M  V30 4989 H 537.009 -0.920548 0.226487 0
M  V30 4990 H 536.715 -3.50783 0.253859 0
M  V30 4991 H 536.589 -3.46274 -1.49579 0
M  V30 4992 H 538.976 -2.47685 -1.60425 0
M  V30 4993 H 539.057 -2.55289 0.161669 0
M  V30 4994 H 538.701 -5.07878 0.0469464 0
M  V30 4995 H 538.631 -4.97369 -1.73009 0
M  V30 4996 H 541.122 -3.68141 -0.85327 0
M  V30 4997 H 541.435 -7.64493 -1.13007 0
M  V30 4998 H 539.78 -6.87427 -1.02318 0
M  V30 4999 H 542.971 -4.5784 -0.974687 0
M  V30 5000 H 543.144 -6.38576 -1.10113 0
M  V30 5001 N 536.55 0.480323 -1.50102 0
M  V30 5002 C 537.46 1.60547 -1.71061 0
M  V30 5003 C 538.476 1.63564 -0.593529 0
M  V30 5004 O 539.652 1.81604 -0.870751 0
M  V30 5005 C 536.717 2.96814 -1.79171 0
M  V30 5006 C 535.778 3.04259 -3.02861 0
M  V30 5007 C 535.011 4.34027 -3.10574 0
M  V30 5008 O 535.234 5.24009 -2.25323 0
M  V30 5009 O 534.168 4.46873 -4.03223 0
M  V30 5010 H 537.994 1.45788 -2.6642 0
M  V30 5011 H 535.579 0.658838 -1.34088 0
M  V30 5012 H 537.461 3.77765 -1.86738 0
M  V30 5013 H 536.136 3.11791 -0.869947 0
M  V30 5014 H 535.043 2.22419 -3.008 0
M  V30 5015 H 536.376 2.94216 -3.94586 0
M  V30 5016 N 538.028 1.39524 0.732853 0
M  V30 5017 C 539.444 1.21176 1.03868 0
M  V30 5018 C 539.644 0.0748448 2.01361 0
M  V30 5019 O 538.7 -0.57281 2.45917 0
M  V30 5020 C 540.013 2.54667 1.59892 0
M  V30 5021 C 541.561 2.6153 1.71962 0
M  V30 5022 C 542.036 3.95248 2.31394 0
M  V30 5023 N 543.527 3.96899 2.38801 0
M  V30 5024 C 544.262 4.97138 2.85729 0
M  V30 5025 N 543.758 6.07775 3.32537 0
M  V30 5026 N 545.551 4.84516 2.84957 0
M  V30 5027 H 537.702 2.12225 0.086304 0
M  V30 5028 H 539.965 0.942614 0.100907 0
M  V30 5029 H 539.671 3.38423 0.95721 0
M  V30 5030 H 539.545 2.74538 2.58668 0
M  V30 5031 H 541.932 1.78156 2.35254 0
M  V30 5032 H 542.013 2.45507 0.718327 0
M  V30 5033 H 541.657 4.79054 1.68729 0
M  V30 5034 H 541.587 4.08593 3.32204 0
M  V30 5035 H 544.078 3.16998 2.05719 0
M  V30 5036 H 544.391 6.8017 3.66862 0
M  V30 5037 H 542.736 6.11366 3.30541 0
M  V30 5038 H 545.927 3.97185 2.47713 0
M  V30 5039 H 546.1 5.62783 3.21215 0
M  V30 5040 N 539.506 -0.963266 1.24736 0
M  V30 5041 C 540.922 -1.23273 1.01371 0
M  V30 5042 C 541.122 -1.99618 -0.274776 0
M  V30 5043 O 540.178 -2.32293 -0.989769 0
M  V30 5044 C 541.491 -2.01554 2.23152 0
M  V30 5045 C 543.039 -2.14629 2.27823 0
M  V30 5046 C 543.514 -2.96307 3.49237 0
M  V30 5047 N 545.005 -3.03887 3.49581 0
M  V30 5048 C 545.74 -3.67456 4.40186 0
M  V30 5049 N 545.236 -4.32706 5.41052 0
M  V30 5050 N 547.029 -3.64511 4.27888 0
M  V30 5051 H 539.18 -0.452294 2.07528 0
M  V30 5052 H 541.443 -0.262521 0.910926 0
M  V30 5053 H 541.149 -1.52847 3.1675 0
M  V30 5054 H 541.023 -3.02278 2.25628 0
M  V30 5055 H 543.41 -2.62537 1.34753 0
M  V30 5056 H 543.491 -1.13238 2.2937 0
M  V30 5057 H 543.135 -2.49091 4.42624 0
M  V30 5058 H 543.065 -3.97905 3.44933 0
M  V30 5059 H 545.556 -2.57477 2.76611 0
M  V30 5060 H 545.869 -4.79042 6.06415 0
M  V30 5061 H 544.214 -4.31361 5.44934 0
M  V30 5062 H 547.405 -3.12715 3.4832 0
M  V30 5063 H 547.578 -4.13768 4.98698 0
M  V30 5064 N 540.985 -1.06182 -1.16461 0
M  V30 5065 C 541.915 -0.692861 -2.22984 0
M  V30 5066 C 542.896 0.314122 -1.67174 0
M  V30 5067 O 544.081 0.189499 -1.93273 0
M  V30 5068 C 541.211 -0.07732 -3.47214 0
M  V30 5069 C 540.165 -1.01015 -4.15909 0
M  V30 5070 C 539.491 -0.257973 -5.34077 0
M  V30 5071 C 540.791 -2.33868 -4.67015 0
M  V30 5072 H 542.485 -1.58343 -2.54102 0
M  V30 5073 H 540.031 -0.76279 -1.22137 0
M  V30 5074 H 541.984 0.19266 -4.20959 0
M  V30 5075 H 540.708 0.848254 -3.15392 0
M  V30 5076 H 539.367 -1.26486 -3.44088 0
M  V30 5077 H 539.015 0.670684 -4.98509 0
M  V30 5078 H 538.715 -0.879638 -5.80979 0
M  V30 5079 H 540.239 0.00448788 -6.106 0
M  V30 5080 H 541.653 -2.1279 -5.32347 0
M  V30 5081 H 540.05 -2.91522 -5.24533 0
M  V30 5082 H 541.12 -2.97019 -3.83286 0
M  V30 5083 N 542.463 1.3308 -0.844243 0
M  V30 5084 C 543.373 2.32876 -0.283922 0
M  V30 5085 C 544.389 1.63589 0.592846 0
M  V30 5086 O 545.565 1.95205 0.495693 0
M  V30 5087 C 542.63 3.42667 0.527283 0
M  V30 5088 C 541.691 4.27664 -0.374394 0
M  V30 5089 C 540.924 5.32212 0.39819 0
M  V30 5090 O 541.147 5.46635 1.62932 0
M  V30 5091 O 540.081 6.01458 -0.2306 0
M  V30 5092 H 543.907 2.82671 -1.11045 0
M  V30 5093 H 541.492 1.36518 -0.606903 0
M  V30 5094 H 543.374 4.09652 0.988078 0
M  V30 5095 H 542.049 2.95079 1.33078 0
M  V30 5096 H 540.956 3.63526 -0.883144 0
M  V30 5097 H 542.289 4.78749 -1.1428 0
M  V30 5098 N 543.941 0.601185 1.45683 0
M  V30 5099 C 545.19 0.0914953 2.01492 0
M  V30 5100 C 545.503 -1.28331 1.47616 0
M  V30 5101 O 546.709 -1.88537 1.95362 0
M  V30 5102 C 545.165 0.11291 3.59723 0
M  V30 5103 C 544.773 1.48717 4.22596 0
M  V30 5104 C 546.517 -0.341871 4.23121 0
M  V30 5105 C 544.424 1.46531 5.7296 0
M  V30 5106 H 543.354 0.0304365 0.753385 0
M  V30 5107 H 546.005 0.755568 1.67223 0
M  V30 5108 H 544.387 -0.617692 3.91153 0
M  V30 5109 H 545.561 2.23897 4.02749 0
M  V30 5110 H 543.876 1.88351 3.71366 0
M  V30 5111 H 546.473 -0.377304 5.33367 0
M  V30 5112 H 546.816 -1.36325 3.93346 0
M  V30 5113 H 547.349 0.335256 3.96385 0
M  V30 5114 H 544.088 2.46408 6.07423 0
M  V30 5115 H 543.608 0.755997 5.95017 0
M  V30 5116 H 545.287 1.18618 6.36034 0
M  V30 5117 N 545.419 -1.53889 0.339982 0
M  V30 5118 C 546.644 -2.05741 -0.261798 0
M  V30 5119 C 547.069 -1.21354 -1.43718 0
M  V30 5120 O 546.427 -0.22645 -1.7988 0
M  V30 5121 C 546.475 -3.54542 -0.658228 0
M  V30 5122 O 545.579 -3.7302 -1.75869 0
M  V30 5123 H 544.92 -0.662529 -0.0441672 0
M  V30 5124 H 547.45 -1.98568 0.493161 0
M  V30 5125 H 547.46 -3.9711 -0.936368 0
M  V30 5126 H 546.135 -4.15412 0.201358 0
M  V30 5127 H 544.712 -3.42355 -1.47809 0
M  V30 5128 N 546.897 -0.0685191 -1.57451 0
M  V30 5129 C 548.313 0.288101 -1.56978 0
M  V30 5130 C 548.513 1.70262 -1.07765 0
M  V30 5131 O 547.569 2.4135 -0.742054 0
M  V30 5132 C 548.882 0.100745 -3.00531 0
M  V30 5133 C 550.43 0.170531 -3.12535 0
M  V30 5134 C 550.905 0.0114944 -4.57999 0
M  V30 5135 N 552.396 0.0672065 -4.63151 0
M  V30 5136 C 553.131 -0.0314813 -5.73391 0
M  V30 5137 N 552.627 -0.183503 -6.92557 0
M  V30 5138 N 554.42 0.0253489 -5.62094 0
M  V30 5139 H 546.571 -0.993026 -1.87757 0
M  V30 5140 H 548.834 -0.386981 -0.865419 0
M  V30 5141 H 548.54 -0.875197 -3.40636 0
M  V30 5142 H 548.414 0.854457 -3.67395 0
M  V30 5143 H 550.801 1.13696 -2.72318 0
M  V30 5144 H 550.882 -0.614229 -2.48316 0
M  V30 5145 H 550.526 -0.951684 -4.98904 0
M  V30 5146 H 550.456 0.815617 -5.20245 0
M  V30 5147 H 552.947 0.183246 -3.77455 0
M  V30 5148 H 553.26 -0.251041 -7.72392 0
M  V30 5149 H 551.605 -0.218822 -6.94655 0
M  V30 5150 H 554.796 0.142794 -4.67882 0
M  V30 5151 H 554.969 -0.0550166 -6.47977 0
M  V30 5152 N 548.375 1.56261 0.205012 0
M  V30 5153 C 549.6 1.84491 0.947512 0
M  V30 5154 C 550.025 0.650894 1.76479 0
M  V30 5155 O 549.383 -0.40035 1.76824 0
M  V30 5156 C 549.431 3.10863 1.82747 0
M  V30 5157 O 548.535 2.90719 2.925 0
M  V30 5158 H 547.876 0.607783 0.267386 0
M  V30 5159 H 550.406 2.03485 0.213323 0
M  V30 5160 H 550.416 3.41399 2.23407 0
M  V30 5161 H 549.091 3.97392 1.2269 0
M  V30 5162 H 547.668 2.71457 2.55667 0
M  V30 5163 N 549.853 -0.472356 1.50355 0
M  V30 5164 C 551.099 -1.22634 1.6152 0
M  V30 5165 C 551.432 -1.91645 0.313995 0
M  V30 5166 O 550.707 -1.82059 -0.684446 0
M  V30 5167 C 550.99 -2.27099 2.7946 0
M  V30 5168 C 550.843 -1.62402 4.19459 0
M  V30 5169 C 552.162 -3.28421 2.92964 0
M  V30 5170 H 549.281 -0.444494 0.587873 0
M  V30 5171 H 551.923 -0.520321 1.82737 0
M  V30 5172 H 550.073 -2.87314 2.61501 0
M  V30 5173 H 551.745 -1.05793 4.49005 0
M  V30 5174 H 549.988 -0.927184 4.23776 0
M  V30 5175 H 550.659 -2.38309 4.97909 0
M  V30 5176 H 553.135 -2.78227 3.09401 0
M  V30 5177 H 552.011 -3.98845 3.77113 0
M  V30 5178 H 552.272 -3.92467 2.03525 0
M  V30 5179 N 551.331 -1.39911 -0.725443 0
M  V30 5180 C 552.281 -1.35878 -1.83088 0
M  V30 5181 C 553.265 -0.237989 -1.5913 0
M  V30 5182 O 554.457 -0.476302 -1.70471 0
M  V30 5183 C 551.586 -1.21403 -3.21117 0
M  V30 5184 C 550.672 -2.38223 -3.50871 0
M  V30 5185 N 551.063 -3.63703 -3.51502 0
M  V30 5186 C 549.361 -2.31388 -3.81281 0
M  V30 5187 C 550.062 -4.4101 -3.79322 0
M  V30 5188 N 549.038 -3.7072 -3.97577 0
M  V30 5189 H 552.84 -2.3085 -1.81895 0
M  V30 5190 H 550.354 -1.33543 -0.924125 0
M  V30 5191 H 552.351 -1.16597 -4.00263 0
M  V30 5192 H 551.011 -0.273902 -3.23543 0
M  V30 5193 H 552.022 -3.96998 -3.32586 0
M  V30 5194 H 548.699 -1.45689 -3.91256 0
M  V30 5195 H 550.089 -5.49819 -3.86198 0
M  V30 5196 N 552.809 0.956637 -1.25245 0
M  V30 5197 C 553.739 2.07058 -1.07931 0
M  V30 5198 C 554.72 1.70096 0.0110361 0
M  V30 5199 O 555.905 1.93555 -0.158121 0
M  V30 5200 C 553.035 3.40272 -0.695124 0
M  V30 5201 C 551.989 3.91235 -1.73549 0
M  V30 5202 C 551.315 5.20921 -1.20604 0
M  V30 5203 C 552.615 4.17837 -3.13385 0
M  V30 5204 H 554.309 2.218 -2.01109 0
M  V30 5205 H 551.855 1.06581 -0.968326 0
M  V30 5206 H 553.808 4.1765 -0.560949 0
M  V30 5207 H 552.532 3.25462 0.272355 0
M  V30 5208 H 551.191 3.16025 -1.85807 0
M  V30 5209 H 550.839 5.02479 -0.228846 0
M  V30 5210 H 550.539 5.55987 -1.90136 0
M  V30 5211 H 552.063 6.00897 -1.08421 0
M  V30 5212 H 553.477 4.8588 -3.04292 0
M  V30 5213 H 551.874 4.64154 -3.80369 0
M  V30 5214 H 552.944 3.2419 -3.60595 0
M  V30 5215 N 554.287 1.06798 1.15896 0
M  V30 5216 C 555.515 0.808694 1.90441 0
M  V30 5217 C 555.93 -0.637506 1.77711 0
M  V30 5218 O 555.287 -1.43684 1.12522 0
M  V30 5219 C 555.338 1.20068 3.40978 0
M  V30 5220 O 555.059 2.59013 3.53333 0
M  V30 5221 C 556.56 0.96987 4.3256 0
M  V30 5222 H 553.78 0.292809 0.603742 0
M  V30 5223 H 556.324 1.42296 1.46874 0
M  V30 5224 H 554.479 0.630842 3.82229 0
M  V30 5225 H 554.893 2.7485 4.46719 0
M  V30 5226 H 556.367 1.29371 5.36626 0
M  V30 5227 H 556.844 -0.0941209 4.39099 0
M  V30 5228 H 557.45 1.52433 3.97044 0
M  V30 5229 N 555.766 -1.3263 0.851289 0
M  V30 5230 C 557.043 -1.91982 0.374448 0
M  V30 5231 C 557.423 -1.77568 -1.14161 0
M  V30 5232 O 556.771 -1.1717 -1.96172 0
M  V30 5233 C 556.981 -3.38862 0.835088 0
M  V30 5234 C 558.329 -4.15999 0.850309 0
M  V30 5235 O 559.353 -3.47566 0.779505 0
M  V30 5236 O 558.212 -5.38189 0.949481 0
M  V30 5237 H 555.306 -0.819846 0.10854 0
M  V30 5238 H 557.852 -1.41422 0.937966 0
M  V30 5239 H 556.624 -3.43281 1.87814 0
M  V30 5240 H 556.247 -3.96821 0.248833 0
M  V30 5241 N 557.244 -0.608902 -1.45362 0
M  V30 5242 C 558.66 -0.272659 -1.57254 0
M  V30 5243 C 558.86 1.22477 -1.60005 0
M  V30 5244 O 557.916 2.00785 -1.53106 0
M  V30 5245 C 559.229 -0.944991 -2.85465 0
M  V30 5246 C 560.777 -0.921033 -2.99142 0
M  V30 5247 C 561.252 -1.5734 -4.30126 0
M  V30 5248 N 562.743 -1.53895 -4.36887 0
M  V30 5249 C 563.478 -2.01286 -5.36909 0
M  V30 5250 N 562.974 -2.56768 -6.43461 0
M  V30 5251 N 564.767 -1.92046 -5.28275 0
M  V30 5252 H 556.918 -1.58117 -1.4182 0
M  V30 5253 H 559.181 -0.662437 -0.678146 0
M  V30 5254 H 558.887 -1.99941 -2.89338 0
M  V30 5255 H 558.761 -0.469079 -3.74272 0
M  V30 5256 H 561.148 0.124846 -2.94836 0
M  V30 5257 H 561.229 -1.43522 -2.11743 0
M  V30 5258 H 560.873 -2.61862 -4.35191 0
M  V30 5259 H 560.803 -1.03422 -5.16344 0
M  V30 5260 H 563.294 -1.13366 -3.60495 0
M  V30 5261 H 563.607 -2.9072 -7.16032 0
M  V30 5262 H 561.952 -2.60808 -6.44208 0
M  V30 5263 H 565.143 -1.48439 -4.43941 0
M  V30 5264 H 565.316 -2.29293 -6.06077 0
M  V30 5265 N 558.722 1.53707 -0.348139 0
M  V30 5266 C 559.654 2.22725 0.540946 0
M  V30 5267 C 560.667 1.2354 1.06027 0
M  V30 5268 O 561.856 1.49867 0.96964 0
M  V30 5269 C 558.956 2.89756 1.75768 0
M  V30 5270 C 558.129 4.15297 1.37285 0
M  V30 5271 C 557.188 4.65697 2.44976 0
M  V30 5272 O 556.214 5.29798 2.08092 0
M  V30 5273 N 557.416 4.42017 3.763 0
M  V30 5274 H 560.181 2.99658 -0.0501592 0
M  V30 5275 H 557.742 1.60979 -0.17248 0
M  V30 5276 H 559.734 3.20388 2.47252 0
M  V30 5277 H 558.304 2.16382 2.25605 0
M  V30 5278 H 557.524 3.9116 0.488584 0
M  V30 5279 H 558.812 4.96948 1.09179 0
M  V30 5280 H 558.21 3.9076 4.09051 0
M  V30 5281 H 556.767 4.77242 4.4394 0
M  V30 5282 N 560.2 0.0768682 1.57412 0
M  V30 5283 C 561.446 -0.591961 1.93968 0
M  V30 5284 C 561.779 -1.68954 0.9575 0
M  V30 5285 O 561.054 -1.94496 -0.0124675 0
M  V30 5286 C 561.337 -1.16418 3.40762 0
M  V30 5287 C 561.19 -0.0728933 4.49741 0
M  V30 5288 C 562.509 -2.06814 3.88479 0
M  V30 5289 H 559.628 -0.213716 0.705333 0
M  V30 5290 H 562.27 0.14387 1.89455 0
M  V30 5291 H 560.42 -1.79128 3.4474 0
M  V30 5292 H 562.092 0.560446 4.57883 0
M  V30 5293 H 560.335 0.595859 4.29688 0
M  V30 5294 H 561.006 -0.513755 5.49604 0
M  V30 5295 H 563.482 -1.54033 3.8654 0
M  V30 5296 H 562.358 -2.43785 4.91793 0
M  V30 5297 H 562.619 -2.97844 3.26713 0
M  V30 5298 N 561.678 -1.56367 -0.196722 0
M  V30 5299 C 562.625 -1.94417 -1.24382 0
M  V30 5300 C 563.595 -0.804543 -1.45315 0
M  V30 5301 O 564.78 -1.06256 -1.58475 0
M  V30 5302 C 561.92 -2.28757 -2.58388 0
M  V30 5303 C 561.033 -3.55775 -2.45047 0
M  V30 5304 C 560.168 -3.79445 -3.71746 0
M  V30 5305 C 559.207 -4.99894 -3.53231 0
M  V30 5306 N 558.344 -5.19826 -4.71938 0
M  V30 5307 H 563.184 -2.83691 -0.912338 0
M  V30 5308 H 560.721 -1.40392 -0.439135 0
M  V30 5309 H 562.679 -2.46682 -3.36457 0
M  V30 5310 H 561.309 -1.42625 -2.89582 0
M  V30 5311 H 560.361 -3.45905 -1.58284 0
M  V30 5312 H 561.673 -4.44 -2.27299 0
M  V30 5313 H 560.827 -3.97601 -4.58256 0
M  V30 5314 H 559.566 -2.89546 -3.92446 0
M  V30 5315 H 558.571 -4.81662 -2.65107 0
M  V30 5316 H 559.796 -5.913 -3.33978 0
M  V30 5317 H 557.742 -4.32875 -4.92905 0
M  V30 5318 H 557.659 -6.02228 -4.57009 0
M  V30 5319 H 558.927 -5.42439 -5.59803 0
M  V30 5320 N 563.156 0.464375 -1.50603 0
M  V30 5321 C 564.405 1.21277 -1.61167 0
M  V30 5322 C 564.718 1.92953 -0.320704 0
M  V30 5323 O 565.924 2.69778 -0.30534 0
M  V30 5324 C 564.38 2.20403 -2.84518 0
M  V30 5325 C 563.988 1.54499 -4.20516 0
M  V30 5326 C 565.732 2.95843 -3.0443 0
M  V30 5327 C 563.639 2.51951 -5.35047 0
M  V30 5328 H 562.569 0.456367 -0.600204 0
M  V30 5329 H 565.22 0.48254 -1.77042 0
M  V30 5330 H 563.602 2.96746 -2.62217 0
M  V30 5331 H 564.776 0.83899 -4.53098 0
M  V30 5332 H 563.091 0.913152 -4.06264 0
M  V30 5333 H 565.688 3.6879 -3.87167 0
M  V30 5334 H 566.031 3.55622 -2.16423 0
M  V30 5335 H 566.564 2.26611 -3.26944 0
M  V30 5336 H 563.303 1.96901 -6.25228 0
M  V30 5337 H 562.823 3.20683 -5.06875 0
M  V30 5338 H 564.502 3.13643 -5.65895 0
M  V30 5339 N 564.634 1.40294 0.718013 0
M  V30 5340 C 565.88 1.39648 1.47885 0
M  V30 5341 C 566.235 -0.0023879 1.924 0
M  V30 5342 O 565.528 -0.972304 1.65096 0
M  V30 5343 C 565.722 2.31814 2.72024 0
M  V30 5344 C 565.551 3.80523 2.3965 0
M  V30 5345 C 564.321 4.49351 2.3111 0
M  V30 5346 C 566.519 4.72077 2.04079 0
M  V30 5347 N 564.501 5.83305 1.91385 0
M  V30 5348 C 565.872 5.94809 1.74935 0
M  V30 5349 C 567.927 4.59935 1.90694 0
M  V30 5350 C 566.63 7.06755 1.33753 0
M  V30 5351 C 568.656 5.7182 1.50915 0
M  V30 5352 C 568.018 6.93637 1.22668 0
M  V30 5353 H 564.117 0.566263 0.539324 0
M  V30 5354 H 566.701 1.75986 0.832891 0
M  V30 5355 H 564.872 1.97607 3.34374 0
M  V30 5356 H 566.604 2.22042 3.38348 0
M  V30 5357 H 563.359 4.03002 2.4877 0
M  V30 5358 H 563.783 6.54239 1.74068 0
M  V30 5359 H 568.425 3.66274 2.11194 0
M  V30 5360 H 566.143 8.00302 1.11995 0
M  V30 5361 H 569.729 5.64421 1.4114 0
M  V30 5362 H 568.609 7.78743 0.923502 0
M  V30 5363 N 566.112 -0.949982 1.2575 0
M  V30 5364 C 567.359 -1.69515 1.10774 0
M  V30 5365 C 567.687 -1.91316 -0.350479 0
M  V30 5366 O 566.942 -1.48515 -1.27443 0
M  V30 5367 C 567.241 -3.08039 1.81237 0
M  V30 5368 C 566.907 -3.06023 3.31151 0
M  V30 5369 C 565.569 -3.0518 3.72047 0
M  V30 5370 C 567.921 -2.98998 4.26907 0
M  V30 5371 C 565.249 -2.95067 5.07102 0
M  V30 5372 C 567.601 -2.90426 5.61992 0
M  V30 5373 C 566.265 -2.87922 6.0221 0
M  V30 5374 H 565.535 -0.6203 0.405351 0
M  V30 5375 H 568.182 -1.10953 1.56082 0
M  V30 5376 H 566.487 -3.70172 1.28373 0
M  V30 5377 H 568.184 -3.64526 1.67098 0
M  V30 5378 H 564.774 -3.07453 2.98614 0
M  V30 5379 H 568.958 -2.98764 3.963 0
M  V30 5380 H 564.214 -2.915 5.37436 0
M  V30 5381 H 568.388 -2.83952 6.35881 0
M  V30 5382 H 566.015 -2.79841 7.06819 0
M  V30 5383 N 567.59 -1.07411 -1.15328 0
M  V30 5384 C 568.522 -0.652924 -2.19703 0
M  V30 5385 C 569.535 0.294869 -1.60107 0
M  V30 5386 O 570.724 0.0840932 -1.78302 0
M  V30 5387 C 567.824 0.061434 -3.38844 0
M  V30 5388 C 566.997 -0.902696 -4.27984 0
M  V30 5389 C 566.056 -0.225521 -5.25717 0
M  V30 5390 O 565.082 -0.86676 -5.62562 0
M  V30 5391 N 566.284 1.02858 -5.71315 0
M  V30 5392 H 569.049 -1.55081 -2.56457 0
M  V30 5393 H 566.61 -0.958883 -1.30449 0
M  V30 5394 H 568.602 0.525145 -4.01278 0
M  V30 5395 H 567.172 0.861269 -3.00501 0
M  V30 5396 H 566.392 -1.54551 -3.6264 0
M  V30 5397 H 567.68 -1.55636 -4.84412 0
M  V30 5398 H 567.078 1.56948 -5.43492 0
M  V30 5399 H 565.635 1.43596 -6.35786 0
M  V30 5400 N 569.068 1.32177 -0.85831 0
M  V30 5401 C 570.016 2.30729 -0.294442 0
M  V30 5402 C 571.01 1.59009 0.584165 0
M  V30 5403 O 572.216 1.73713 0.471562 0
M  V30 5404 H 568.591 0.748097 -0.0765171 0
M  V30 5405 H 570.562 2.75774 -1.1398 0
M  V30 5406 C 569.311 3.44098 0.499208 0
M  V30 5407 H 568.634 3.99449 -0.167579 0
M  V30 5408 H 570.074 4.15202 0.859273 0
M  V30 5409 C 568.533 2.91684 1.68588 0
M  V30 5410 O 569.063 2.89481 2.78503 0
M  V30 5411 N 567.269 2.48036 1.51415 0
M  V30 5412 H 566.816 2.50027 0.620006 0
M  V30 5413 H 566.774 2.13322 2.30957 0
M  V30 5414 N 570.547 0.616602 1.45037 0
M  V30 5415 C 571.963 0.280994 1.57107 0
M  V30 5416 C 572.163 -1.21627 1.60653 0
M  V30 5417 O 571.219 -1.9997 1.54169 0
M  V30 5418 C 572.532 0.960116 2.8496 0
M  V30 5419 C 574.08 0.936884 2.98649 0
M  V30 5420 C 574.555 1.59619 4.29285 0
M  V30 5421 N 576.046 1.5621 4.36065 0
M  V30 5422 C 576.781 2.04131 5.35834 0
M  V30 5423 N 576.277 2.60177 6.4209 0
M  V30 5424 N 578.07 1.94845 5.27249 0
M  V30 5425 H 570.221 1.58867 1.40979 0
M  V30 5426 H 572.484 0.666024 0.674623 0
M  V30 5427 H 572.19 2.01473 2.88273 0
M  V30 5428 H 572.064 0.488921 3.74018 0
M  V30 5429 H 574.451 -0.109209 2.94898 0
M  V30 5430 H 574.532 1.44643 2.10979 0
M  V30 5431 H 574.176 2.64166 4.33796 0
M  V30 5432 H 574.106 1.06159 5.15789 0
M  V30 5433 H 576.597 1.15276 3.59889 0
M  V30 5434 H 576.91 2.94513 7.1448 0
M  V30 5435 H 575.255 2.64221 6.42816 0
M  V30 5436 H 578.446 1.50792 4.43147 0
M  V30 5437 H 578.619 2.32504 6.04852 0
M  V30 5438 N 572.025 -1.5352 0.356285 0
M  V30 5439 C 573.441 -1.59599 0.00485267 0
M  V30 5440 C 573.641 -1.37179 -1.47595 0
M  V30 5441 O 572.697 -1.17234 -2.23635 0
M  V30 5442 C 574.01 -2.97277 0.452454 0
M  V30 5443 C 575.558 -3.10357 0.405881 0
M  V30 5444 C 576.033 -4.50432 0.829148 0
M  V30 5445 N 577.524 -4.5652 0.783838 0
M  V30 5446 C 578.259 -5.63077 1.08315 0
M  V30 5447 N 577.755 -6.77429 1.45126 0
M  V30 5448 N 579.548 -5.53014 1.00655 0
M  V30 5449 H 571.699 -1.66346 1.32071 0
M  V30 5450 H 573.962 -0.77971 0.539218 0
M  V30 5451 H 573.668 -3.18792 1.48542 0
M  V30 5452 H 573.542 -3.76836 -0.165762 0
M  V30 5453 H 575.929 -2.88558 -0.617934 0
M  V30 5454 H 576.01 -2.32828 1.05947 0
M  V30 5455 H 575.654 -4.72968 1.85103 0
M  V30 5456 H 575.584 -5.26378 0.152906 0
M  V30 5457 H 578.075 -3.74408 0.512513 0
M  V30 5458 H 578.388 -7.54669 1.66415 0
M  V30 5459 H 576.733 -6.78844 1.48983 0
M  V30 5460 H 579.924 -4.62557 0.718215 0
M  V30 5461 H 580.097 -6.35964 1.24315 0
M  V30 5462 N 573.503 -0.0852151 -1.57369 0
M  V30 5463 C 574.436 0.913608 -2.09113 0
M  V30 5464 C 575.414 1.28264 -0.999358 0
M  V30 5465 O 576.598 1.3896 -1.27367 0
M  V30 5466 C 573.725 2.21777 -2.55993 0
M  V30 5467 C 572.771 1.99932 -3.76735 0
M  V30 5468 S 573.604 1.24637 -5.20794 0
M  V30 5469 C 574.76 2.56304 -5.71016 0
M  V30 5470 H 574.993 0.473369 -2.93507 0
M  V30 5471 H 572.526 0.127856 -1.5387 0
M  V30 5472 H 574.484 2.96726 -2.83662 0
M  V30 5473 H 573.145 2.62923 -1.71843 0
M  V30 5474 H 572.338 2.96482 -4.07571 0
M  V30 5475 H 571.94 1.33116 -3.49509 0
M  V30 5476 H 574.232 3.5233 -5.78679 0
M  V30 5477 H 575.175 2.3006 -6.69685 0
M  V30 5478 H 575.583 2.64125 -4.98897 0
M  V30 5479 N 574.981 1.5647 0.188427 0
M  V30 5480 C 575.928 1.95073 1.23349 0
M  V30 5481 C 576.898 0.812238 1.44886 0
M  V30 5482 O 578.083 1.07095 1.57909 0
M  V30 5483 C 575.223 2.30124 2.57171 0
M  V30 5484 C 574.336 3.57069 2.43157 0
M  V30 5485 C 573.471 3.81411 3.69729 0
M  V30 5486 C 572.51 5.0176 3.50575 0
M  V30 5487 N 571.647 5.22321 4.69175 0
M  V30 5488 H 576.487 2.84171 0.89728 0
M  V30 5489 H 574.024 1.40623 0.431683 0
M  V30 5490 H 575.982 2.48463 3.35145 0
M  V30 5491 H 574.612 1.44159 2.88822 0
M  V30 5492 H 573.664 3.4674 1.56447 0
M  V30 5493 H 574.976 4.452 2.24942 0
M  V30 5494 H 574.13 4.00026 4.56141 0
M  V30 5495 H 572.869 2.91624 3.90905 0
M  V30 5496 H 571.874 4.83061 2.62549 0
M  V30 5497 H 573.099 5.93063 3.30837 0
M  V30 5498 H 571.045 4.35483 4.90602 0
M  V30 5499 H 570.962 6.04643 4.53809 0
M  V30 5500 H 572.23 5.45401 5.56919 0
M  V30 5501 N 576.459 -0.456382 1.50847 0
M  V30 5502 C 577.389 -1.56025 1.73719 0
M  V30 5503 C 578.37 -1.5967 0.586473 0
M  V30 5504 O 579.555 -1.75702 0.827185 0
M  V30 5505 C 576.685 -2.94251 1.84483 0
M  V30 5506 C 575.639 -3.05471 2.99786 0
M  V30 5507 C 574.965 -4.45489 2.95709 0
M  V30 5508 C 576.265 -2.81318 4.40065 0
M  V30 5509 H 577.959 -1.37138 2.66146 0
M  V30 5510 H 575.505 -0.658299 1.28072 0
M  V30 5511 H 577.458 -3.71417 1.99067 0
M  V30 5512 H 576.182 -3.14328 0.886891 0
M  V30 5513 H 574.841 -2.30741 2.84876 0
M  V30 5514 H 574.489 -4.62505 1.97732 0
M  V30 5515 H 574.189 -4.53929 3.73125 0
M  V30 5516 H 575.713 -5.24655 3.12362 0
M  V30 5517 H 577.127 -3.48226 4.55425 0
M  V30 5518 H 575.524 -3.01188 5.19043 0
M  V30 5519 H 576.594 -1.7706 4.51418 0
M  V30 5520 N 577.937 -1.40673 -0.710563 0
M  V30 5521 C 578.884 -1.41336 -1.82463 0
M  V30 5522 C 579.854 -0.269648 -1.63897 0
M  V30 5523 O 581.039 -0.468463 -1.8496 0
M  V30 5524 C 578.179 -1.28665 -3.20218 0
M  V30 5525 C 577.292 -2.52784 -3.5032 0
M  V30 5526 C 576.427 -2.32517 -4.77608 0
M  V30 5527 C 575.466 -3.52187 -5.0063 0
M  V30 5528 N 574.603 -3.31084 -6.19135 0
M  V30 5529 H 579.443 -2.36558 -1.8123 0
M  V30 5530 H 576.98 -1.17483 -0.885226 0
M  V30 5531 H 578.938 -1.19324 -3.99772 0
M  V30 5532 H 577.568 -0.370602 -3.20666 0
M  V30 5533 H 576.62 -2.72634 -2.65283 0
M  V30 5534 H 577.932 -3.41845 -3.63241 0
M  V30 5535 H 577.086 -2.20558 -5.65189 0
M  V30 5536 H 575.825 -1.40889 -4.66906 0
M  V30 5537 H 574.83 -3.64617 -4.11502 0
M  V30 5538 H 576.055 -4.44749 -5.13201 0
M  V30 5539 H 574.001 -2.42143 -6.09674 0
M  V30 5540 H 573.918 -4.13713 -6.32754 0
M  V30 5541 H 575.186 -3.22868 -7.0949 0
M  V30 5542 N 579.415 0.9433 -1.26252 0
M  V30 5543 C 580.362 2.0417 -1.07625 0
M  V30 5544 C 581.332 1.6609 0.0180738 0
M  V30 5545 O 582.517 1.90276 -0.141289 0
M  V30 5546 C 579.657 3.37653 -0.713043 0
M  V30 5547 C 578.77 3.88783 -1.8834 0
M  V30 5548 C 577.905 5.10642 -1.4635 0
M  V30 5549 C 576.944 5.54028 -2.60229 0
M  V30 5550 N 576.081 6.67092 -2.18936 0
M  V30 5551 H 580.921 2.19436 -2.01623 0
M  V30 5552 H 578.458 1.07519 -1.00389 0
M  V30 5553 H 580.416 4.14391 -0.483358 0
M  V30 5554 H 579.046 3.22241 0.18996 0
M  V30 5555 H 578.098 3.08464 -2.22608 0
M  V30 5556 H 579.41 4.16922 -2.73821 0
M  V30 5557 H 578.564 5.94832 -1.19414 0
M  V30 5558 H 577.303 4.84244 -0.579568 0
M  V30 5559 H 576.308 4.68396 -2.87898 0
M  V30 5560 H 577.533 5.82429 -3.49219 0
M  V30 5561 H 575.479 6.42381 -1.32974 0
M  V30 5562 H 575.396 6.94806 -2.97961 0
M  V30 5563 H 576.664 7.54662 -1.95206 0
M  V30 5564 N 580.893 1.08022 1.14757 0
M  V30 5565 C 581.826 0.650738 2.18725 0
M  V30 5566 C 582.804 -0.335496 1.59101 0
M  V30 5567 O 583.988 -0.240295 1.86962 0
M  V30 5568 C 581.115 -0.0434377 3.38672 0
M  V30 5569 C 580.161 0.90232 4.16846 0
M  V30 5570 S 580.994 2.40693 4.78359 0
M  V30 5571 C 582.15 1.72475 6.01667 0
M  V30 5572 H 582.383 1.53152 2.54817 0
M  V30 5573 H 579.916 0.894823 1.25826 0
M  V30 5574 H 581.874 -0.437684 4.0816 0
M  V30 5575 H 580.535 -0.900659 3.0091 0
M  V30 5576 H 579.728 0.363445 5.02688 0
M  V30 5577 H 579.33 1.23728 3.52941 0
M  V30 5578 H 581.622 1.0404 6.69464 0
M  V30 5579 H 582.565 2.56175 6.60136 0
M  V30 5580 H 582.973 1.19979 5.51602 0
M  V30 5581 N 582.371 -1.3172 0.865308 0
M  V30 5582 C 583.319 -2.30569 0.306674 0
M  V30 5583 C 584.313 -1.59317 -0.575724 0
M  V30 5584 O 585.519 -1.73961 -0.462343 0
M  V30 5585 H 581.894 -0.747681 0.0804834 0
M  V30 5586 H 583.865 -2.75165 1.15441 0
M  V30 5587 C 582.614 -3.44358 -0.480952 0
M  V30 5588 H 581.937 -3.99354 0.18876 0
M  V30 5589 H 583.377 -4.15652 -0.837241 0
M  V30 5590 C 581.836 -2.92574 -1.67039 0
M  V30 5591 O 582.366 -2.90954 -2.76964 0
M  V30 5592 N 580.572 -2.48835 -1.50097 0
M  V30 5593 H 580.119 -2.50353 -0.606738 0
M  V30 5594 H 580.077 -2.14543 -2.29823 0
M  V30 5595 N 583.85 -0.624285 -1.44708 0
M  V30 5596 C 585.266 -0.289322 -1.56956 0
M  V30 5597 C 585.466 1.20773 -1.61295 0
M  V30 5598 O 584.522 1.9915 -1.55227 0
M  V30 5599 C 585.835 -0.975215 -2.84447 0
M  V30 5600 C 587.383 -0.952709 -2.98148 0
M  V30 5601 C 587.858 -1.61893 -4.28433 0
M  V30 5602 N 589.349 -1.5852 -4.35231 0
M  V30 5603 C 590.084 -2.06969 -5.34744 0
M  V30 5604 N 589.58 -2.63579 -6.40701 0
M  V30 5605 N 591.373 -1.97638 -5.26209 0
M  V30 5606 H 583.524 -1.59612 -1.40135 0
M  V30 5607 H 585.787 -0.669592 -0.671081 0
M  V30 5608 H 585.493 -2.02999 -2.87201 0
M  V30 5609 H 585.367 -0.508749 -3.73753 0
M  V30 5610 H 587.754 0.093568 -2.94952 0
M  V30 5611 H 587.835 -1.4576 -2.10209 0
M  V30 5612 H 587.479 -2.66463 -4.32389 0
M  V30 5613 H 587.409 -1.08893 -5.15218 0
M  V30 5614 H 589.899 -1.17183 -3.59272 0
M  V30 5615 H 590.213 -2.98298 -7.12908 0
M  V30 5616 H 588.558 -2.67626 -6.41406 0
M  V30 5617 H 591.749 -1.5314 -4.42341 0
M  V30 5618 H 591.922 -2.35708 -6.03611 0
M  V30 5619 N 585.328 1.53329 -0.364422 0
M  V30 5620 C 586.238 2.29414 0.490552 0
M  V30 5621 C 587.254 1.35335 1.09363 0
M  V30 5622 O 588.43 1.68391 1.10483 0
M  V30 5623 C 585.495 3.06772 1.61529 0
M  V30 5624 C 584.556 4.16516 1.03986 0
M  V30 5625 C 583.789 4.90176 2.111 0
M  V30 5626 O 584.012 4.63687 3.32191 0
M  V30 5627 O 582.946 5.76134 1.74222 0
M  V30 5628 H 586.772 3.03428 -0.12856 0
M  V30 5629 H 584.357 1.48843 -0.128837 0
M  V30 5630 H 586.239 3.55082 2.26924 0
M  V30 5631 H 584.914 2.35596 2.21983 0
M  V30 5632 H 583.821 3.7246 0.349856 0
M  V30 5633 H 585.154 4.89855 0.4799 0
M  V30 5634 N 586.806 0.0935595 1.57322 0
M  V30 5635 C 587.754 -0.883457 2.15169 0
M  V30 5636 C 588.748 -1.29324 1.09415 0
M  V30 5637 O 589.954 -1.26795 1.27762 0
M  V30 5638 H 586.329 -0.302923 0.688289 0
M  V30 5639 H 588.3 -0.370845 2.96087 0
M  V30 5640 C 587.049 -2.13345 2.74552 0
M  V30 5641 H 586.372 -1.82702 3.55612 0
M  V30 5642 H 587.812 -2.7977 3.18598 0
M  V30 5643 C 586.271 -2.90646 1.70371 0
M  V30 5644 O 586.801 -3.85133 1.14173 0
M  V30 5645 N 585.007 -2.54157 1.40899 0
M  V30 5646 H 584.554 -1.77391 1.86789 0
M  V30 5647 H 584.512 -3.06178 0.714301 0
M  V30 5648 N 588.284 -1.56567 -0.180126 0
M  V30 5649 C 589.7 -1.50488 -0.531559 0
M  V30 5650 C 589.9 -0.796267 -1.851 0
M  V30 5651 O 588.956 -0.352978 -2.50021 0
M  V30 5652 C 590.269 -2.95201 -0.572456 0
M  V30 5653 C 591.817 -3.05957 -0.660264 0
M  V30 5654 C 592.292 -4.5211 -0.732135 0
M  V30 5655 N 593.783 -4.56322 -0.795262 0
M  V30 5656 C 594.518 -5.66742 -0.871296 0
M  V30 5657 N 594.014 -6.86815 -0.908708 0
M  V30 5658 N 595.807 -5.54691 -0.909639 0
M  V30 5659 H 587.958 -2.01045 0.685165 0
M  V30 5660 H 590.221 -0.915536 0.245962 0
M  V30 5661 H 589.927 -3.50165 0.328208 0
M  V30 5662 H 589.801 -3.49369 -1.422 0
M  V30 5663 H 592.188 -2.51032 -1.55136 0
M  V30 5664 H 592.269 -2.54888 0.215783 0
M  V30 5665 H 591.913 -5.07664 0.154664 0
M  V30 5666 H 591.843 -5.00926 -1.6242 0
M  V30 5667 H 594.334 -3.69868 -0.77499 0
M  V30 5668 H 594.647 -7.66718 -0.967654 0
M  V30 5669 H 592.992 -6.89443 -0.877132 0
M  V30 5670 H 596.183 -4.59804 -0.877353 0
M  V30 5671 H 596.356 -6.40768 -0.965434 0
M  V30 5672 N 589.762 0.448376 -1.51087 0
M  V30 5673 C 591.011 1.19561 -1.62444 0
M  V30 5674 C 591.324 1.92602 -0.341151 0
M  V30 5675 O 592.53 2.69439 -0.333936 0
M  V30 5676 C 590.986 2.17373 -2.8684 0
M  V30 5677 C 590.594 1.5003 -4.22131 0
M  V30 5678 C 592.338 2.92597 -3.0755 0
M  V30 5679 C 590.245 2.46262 -5.37689 0
M  V30 5680 H 589.175 0.449975 -0.605011 0
M  V30 5681 H 591.826 0.463735 -1.77544 0
M  V30 5682 H 590.208 2.93948 -2.65349 0
M  V30 5683 H 591.382 0.790886 -4.53962 0
M  V30 5684 H 589.697 0.870011 -4.0721 0
M  V30 5685 H 592.294 3.64663 -3.91056 0
M  V30 5686 H 592.637 3.53306 -2.20183 0
M  V30 5687 H 593.17 2.23131 -3.29329 0
M  V30 5688 H 589.909 1.90258 -6.27281 0
M  V30 5689 H 589.429 3.15289 -5.10248 0
M  V30 5690 H 591.108 3.07623 -5.6919 0
M  V30 5691 N 591.24 1.41047 0.703093 0
M  V30 5692 C 592.656 1.23351 1.01275 0
M  V30 5693 C 592.856 0.11754 2.01157 0
M  V30 5694 O 591.912 -0.520518 2.47077 0
M  V30 5695 C 593.225 2.58001 1.54454 0
M  V30 5696 C 594.773 2.65119 1.66376 0
M  V30 5697 C 595.248 4.00067 2.22958 0
M  V30 5698 N 596.739 4.01875 2.30328 0
M  V30 5699 C 597.474 5.03087 2.75119 0
M  V30 5700 N 596.97 6.14692 3.19571 0
M  V30 5701 N 598.763 4.90451 2.74616 0
M  V30 5702 H 590.914 2.1236 0.0412686 0
M  V30 5703 H 593.177 0.944543 0.08089 0
M  V30 5704 H 592.883 3.40378 0.88521 0
M  V30 5705 H 592.757 2.79962 2.52786 0
M  V30 5706 H 595.144 1.83106 2.31422 0
M  V30 5707 H 595.225 2.46975 0.666089 0
M  V30 5708 H 594.869 4.82526 1.58529 0
M  V30 5709 H 594.799 4.15547 3.23462 0
M  V30 5710 H 597.29 3.21291 1.98949 0
M  V30 5711 H 597.603 6.87799 3.52352 0
M  V30 5712 H 595.948 6.18239 3.17498 0
M  V30 5713 H 599.139 4.0235 2.39233 0
M  V30 5714 H 599.312 5.6947 3.09206 0
M  V30 5715 N 592.718 -0.936591 1.26751 0
M  V30 5716 C 593.628 -2.06949 1.10496 0
M  V30 5717 C 594.644 -1.7396 0.037271 0
M  V30 5718 O 595.82 -1.99941 0.241944 0
M  V30 5719 C 592.885 -3.38612 0.744491 0
M  V30 5720 C 591.946 -3.85355 1.89209 0
M  V30 5721 C 591.179 -5.10735 1.54873 0
M  V30 5722 O 591.402 -5.68602 0.452546 0
M  V30 5723 O 590.336 -5.52632 2.38499 0
M  V30 5724 H 594.162 -2.23571 2.05547 0
M  V30 5725 H 591.747 -1.05428 1.05855 0
M  V30 5726 H 593.629 -4.17711 0.556396 0
M  V30 5727 H 592.304 -3.23218 -0.176582 0
M  V30 5728 H 591.211 -3.07182 2.13518 0
M  V30 5729 H 592.544 -4.05277 2.79305 0
M  V30 5730 N 594.196 -1.08629 -1.14182 0
M  V30 5731 C 595.126 -0.740003 -2.21464 0
M  V30 5732 C 596.107 0.278591 -1.67803 0
M  V30 5733 O 597.292 0.148461 -1.93632 0
M  V30 5734 C 594.422 -0.150952 -3.46972 0
M  V30 5735 C 593.376 -1.09815 -4.13672 0
M  V30 5736 C 592.702 -0.3712 -5.3341 0
M  V30 5737 C 594.002 -2.43722 -4.61949 0
M  V30 5738 H 595.696 -1.63697 -2.50686 0
M  V30 5739 H 593.242 -0.788526 -1.20492 0
M  V30 5740 H 595.195 0.103325 -4.21273 0
M  V30 5741 H 593.919 0.781164 -3.1712 0
M  V30 5742 H 592.578 -1.33756 -3.41328 0
M  V30 5743 H 592.226 0.564792 -4.99819 0
M  V30 5744 H 591.926 -1.00267 -5.78982 0
M  V30 5745 H 593.45 -0.12503 -6.10472 0
M  V30 5746 H 594.864 -2.24034 -5.27714 0
M  V30 5747 H 593.261 -3.02582 -5.18232 0
M  V30 5748 H 594.331 -3.05082 -3.76899 0
M  V30 5749 N 595.674 1.31259 -0.872281 0
M  V30 5750 C 596.902 2.00795 -0.498907 0
M  V30 5751 C 597.317 1.65464 0.909238 0
M  V30 5752 O 596.674 0.885073 1.59602 0
M  V30 5753 C 596.725 3.55625 -0.649092 0
M  V30 5754 O 596.446 3.89692 -2.00179 0
M  V30 5755 C 597.947 4.42434 -0.277034 0
M  V30 5756 H 595.167 0.642299 -0.194145 0
M  V30 5757 H 597.711 1.67438 -1.17408 0
M  V30 5758 H 595.866 3.87394 -0.0214402 0
M  V30 5759 H 596.28 4.84407 -2.01122 0
M  V30 5760 H 597.754 5.50299 -0.433064 0
M  V30 5761 H 598.231 4.32146 0.783989 0
M  V30 5762 H 598.837 4.16086 -0.880483 0
M  V30 5763 N 597.152 0.631951 1.44375 0
M  V30 5764 C 598.115 -0.0628142 2.29114 0
M  V30 5765 C 599.115 -0.771494 1.41084 0
M  V30 5766 O 600.305 -0.615959 1.62947 0
M  V30 5767 C 597.437 -1.09953 3.22681 0
M  V30 5768 H 598.63 0.682509 2.92031 0
M  V30 5769 H 596.183 0.392128 1.51301 0
M  V30 5770 H 596.918 -1.87481 2.64616 0
M  V30 5771 H 596.703 -0.595286 3.87555 0
M  V30 5772 H 598.193 -1.58538 3.86336 0
M  V30 5773 N 598.631 -1.53133 0.372548 0
M  V30 5774 C 599.579 -2.27473 -0.485681 0
M  V30 5775 C 600.573 -1.30719 -1.07745 0
M  V30 5776 O 601.779 -1.48321 -1.01985 0
M  V30 5777 H 598.154 -0.731269 -0.175356 0
M  V30 5778 H 600.125 -2.97955 0.162986 0
M  V30 5779 C 598.874 -3.08191 -1.60978 0
M  V30 5780 H 598.197 -3.82488 -1.16373 0
M  V30 5781 H 599.637 -3.63373 -2.18485 0
M  V30 5782 C 598.096 -2.19461 -2.55614 0
M  V30 5783 O 598.626 -1.81008 -3.58607 0
M  V30 5784 N 596.832 -1.83955 -2.24965 0
M  V30 5785 H 596.379 -2.15423 -1.41247 0
M  V30 5786 H 596.337 -1.24874 -2.88538 0
M  V30 5787 N 600.109 -0.101901 -1.5727 0
M  V30 5788 C 601.356 0.560197 -1.94597 0
M  V30 5789 C 601.684 1.67767 -0.984101 0
M  V30 5790 O 600.939 1.95699 -0.00489193 0
M  V30 5791 C 601.238 1.14898 -3.38427 0
M  V30 5792 C 600.904 0.154613 -4.50635 0
M  V30 5793 C 599.566 -0.118861 -4.81053 0
M  V30 5794 C 601.918 -0.523979 -5.18559 0
M  V30 5795 C 599.246 -1.0775 -5.76721 0
M  V30 5796 C 601.598 -1.47114 -6.15256 0
M  V30 5797 C 600.262 -1.75278 -6.44076 0
M  V30 5798 H 599.532 0.204991 -0.712081 0
M  V30 5799 H 602.179 -0.17918 -1.9066 0
M  V30 5800 H 600.484 1.96476 -3.38976 0
M  V30 5801 H 602.181 1.66909 -3.64613 0
M  V30 5802 H 598.771 0.377948 -4.2693 0
M  V30 5803 H 602.955 -0.325851 -4.95229 0
M  V30 5804 H 598.211 -1.30263 -5.97362 0
M  V30 5805 H 602.385 -2.00274 -6.66981 0
M  V30 5806 H 600.012 -2.49717 -7.18015 0
M  V30 5807 N 601.587 1.56661 0.17182 0
M  V30 5808 C 602.535 1.97289 1.23207 0
M  V30 5809 C 603.529 0.861566 1.45854 0
M  V30 5810 O 604.735 1.04668 1.4644 0
M  V30 5811 H 601.11 0.627681 0.41415 0
M  V30 5812 H 603.081 2.85662 0.862542 0
M  V30 5813 C 601.83 2.34849 2.564 0
M  V30 5814 H 601.153 3.19903 2.39797 0
M  V30 5815 H 602.593 2.67121 3.29276 0
M  V30 5816 C 601.052 1.19172 3.15119 0
M  V30 5817 O 601.582 0.479113 3.98833 0
M  V30 5818 N 599.788 0.962415 2.74201 0
M  V30 5819 H 599.335 1.54365 2.06226 0
M  V30 5820 H 599.293 0.190272 3.13824 0
M  V30 5821 N 603.065 -0.440357 1.51323 0
M  V30 5822 C 604.312 -1.19004 1.63842 0
M  V30 5823 C 604.64 -1.91266 0.35321 0
M  V30 5824 O 603.895 -1.84143 -0.662565 0
M  V30 5825 C 604.194 -2.2339 2.78984 0
M  V30 5826 C 603.86 -1.68162 4.18369 0
M  V30 5827 C 602.522 -1.52823 4.56288 0
M  V30 5828 C 604.874 -1.27524 5.05358 0
M  V30 5829 C 602.202 -0.953157 5.78906 0
M  V30 5830 C 604.554 -0.714474 6.28552 0
M  V30 5831 C 603.218 -0.547961 6.65247 0
M  V30 5832 H 602.488 -0.435468 0.59954 0
M  V30 5833 H 605.135 -0.481538 1.85347 0
M  V30 5834 H 603.44 -3.00267 2.51688 0
M  V30 5835 H 605.137 -2.81211 2.85869 0
M  V30 5836 H 601.727 -1.81077 3.8847 0
M  V30 5837 H 605.911 -1.38197 4.76671 0
M  V30 5838 H 601.167 -0.811882 6.05986 0
M  V30 5839 H 605.341 -0.391059 6.95301 0
M  V30 5840 H 602.968 -0.100222 7.60134 0
M  V30 5841 N 604.543 -1.41418 -0.695603 0
M  V30 5842 C 605.768 -1.44329 -1.48942 0
M  V30 5843 C 606.193 -0.0501579 -1.88033 0
M  V30 5844 O 605.551 0.946598 -1.54626 0
M  V30 5845 C 605.599 -2.3578 -2.72837 0
M  V30 5846 O 604.703 -1.81482 -3.70322 0
M  V30 5847 H 604.044 -0.489838 -0.44828 0
M  V30 5848 H 606.574 -1.85878 -0.855014 0
M  V30 5849 H 606.584 -2.51654 -3.21145 0
M  V30 5850 H 605.259 -3.37005 -2.43722 0
M  V30 5851 H 603.836 -1.75058 -3.29255 0
M  V30 5852 O 606.06 0.837703 -1.38075 0
M  V30 5853 H 606.751 1.47967 -1.25002 0
M  V30 END ATOM
M  V30 BEGIN BOND
M  V30 END BOND
M  V30 END CTAB
M  END
$$$$
