drugbank_target|P31358 CAMPATH-1 antigen (DB00087)
 OpenBabel12092119243D

944952  0  0  0  0  0  0  0  0999 V2000
   -0.9080    1.9825   -0.1171 H   0  0  0  0  0 15  0  0  0  0  0  0
    0.0000    1.5760    0.0000 N   0  0  0  0  0 15  0  0  0  0  0  0
    0.9330    2.0387    1.0253 C   0  0  0  0  0 15  0  0  0  0  0  0
    1.9110    0.9285    1.3348 C   0  0  0  0  0 15  0  0  0  0  0  0
    3.0950    1.1967    1.4564 O   0  0  0  0  0 15  0  0  0  0  0  0
    0.2220    2.4363    2.3529 C   0  0  0  0  0 15  0  0  0  0  0  0
   -0.7320    3.6537    2.2001 C   0  0  0  0  0 15  0  0  0  0  0  0
    0.1010    5.1329    1.5261 S   0  0  0  0  0 15  0  0  0  0  0  0
    1.2570    5.5632    2.8680 C   0  0  0  0  0 15  0  0  0  0  0  0
    1.4900    2.9052    0.6314 H   0  0  0  0  0 15  0  0  0  0  0  0
   -0.9770    1.5295    0.2109 H   0  0  0  0  0 15  0  0  0  0  0  0
    0.9810    2.6720    3.1163 H   0  0  0  0  0 15  0  0  0  0  0  0
   -0.3580    1.5738    2.7183 H   0  0  0  0  0 15  0  0  0  0  0  0
   -1.1650    3.9094    3.1809 H   0  0  0  0  0 15  0  0  0  0  0  0
   -1.5630    3.4180    1.5182 H   0  0  0  0  0 15  0  0  0  0  0  0
    0.7290    5.5878    3.8310 H   0  0  0  0  0 15  0  0  0  0  0  0
    1.6720    6.5627    2.6593 H   0  0  0  0  0 15  0  0  0  0  0  0
    2.0800    4.8389    2.9071 H   0  0  0  0  0 15  0  0  0  0  0  0
    1.4781   -0.2728    1.5522 N   0  0  0  0  0 15  0  0  0  0  0  0
    2.4251   -1.3372    1.8812 C   0  0  0  0  0 15  0  0  0  0  0  0
    3.3951   -1.4907    0.7327 C   0  0  0  0  0 15  0  0  0  0  0  0
    4.5801   -1.6347    0.9840 O   0  0  0  0  0 15  0  0  0  0  0  0
    1.7201   -2.6924    2.1588 C   0  0  0  0  0 15  0  0  0  0  0  0
    0.8331   -2.6211    3.4340 C   0  0  0  0  0 15  0  0  0  0  0  0
   -0.0319   -3.8981    3.6086 C   0  0  0  0  0 15  0  0  0  0  0  0
   -0.9929   -3.7719    4.8207 C   0  0  0  0  0 15  0  0  0  0  0  0
   -1.8559   -4.9673    4.9619 N   0  0  0  0  0 15  0  0  0  0  0  0
    2.9841   -1.0496    2.7890 H   0  0  0  0  0 15  0  0  0  0  0  0
    0.5211   -0.5071    1.3808 H   0  0  0  0  0 15  0  0  0  0  0  0
    2.4791   -3.4809    2.2998 H   0  0  0  0  0 15  0  0  0  0  0  0
    1.1091   -2.9619    1.2833 H   0  0  0  0  0 15  0  0  0  0  0  0
    0.1611   -1.7497    3.3777 H   0  0  0  0  0 15  0  0  0  0  0  0
    1.4731   -2.4868    4.3239 H   0  0  0  0  0 15  0  0  0  0  0  0
    0.6271   -4.7710    3.7478 H   0  0  0  0  0 15  0  0  0  0  0  0
   -0.6339   -4.0610    2.7006 H   0  0  0  0  0 15  0  0  0  0  0  0
   -1.6289   -2.8828    4.6816 H   0  0  0  0  0 15  0  0  0  0  0  0
   -0.4039   -3.6242    5.7431 H   0  0  0  0  0 15  0  0  0  0  0  0
   -2.4579   -5.1343    4.0832 H   0  0  0  0  0 15  0  0  0  0  0  0
   -2.5409   -4.8584    5.7922 H   0  0  0  0  0 15  0  0  0  0  0  0
   -1.2729   -5.8559    5.1449 H   0  0  0  0  0 15  0  0  0  0  0  0
    2.9562   -1.4816   -0.5373 N   0  0  0  0  0 15  0  0  0  0  0  0
    4.3722   -1.3412   -0.8651 C   0  0  0  0  0 15  0  0  0  0  0  0
    4.5722   -0.3467   -1.9850 C   0  0  0  0  0 15  0  0  0  0  0  0
    3.6282    0.2347   -2.5141 O   0  0  0  0  0 15  0  0  0  0  0  0
    4.9412   -2.7396   -1.2395 C   0  0  0  0  0 15  0  0  0  0  0  0
    6.4892   -2.8240   -1.3498 C   0  0  0  0  0 15  0  0  0  0  0  0
    6.9642   -4.2293   -1.7577 C   0  0  0  0  0 15  0  0  0  0  0  0
    8.4552   -4.2557   -1.8289 N   0  0  0  0  0 15  0  0  0  0  0  0
    9.1902   -5.3123   -2.1582 C   0  0  0  0  0 15  0  0  0  0  0  0
    8.6862   -6.4719   -2.4722 N   0  0  0  0  0 15  0  0  0  0  0  0
   10.4792   -5.1862   -2.1676 N   0  0  0  0  0 15  0  0  0  0  0  0
    2.6302   -2.1144    0.2017 H   0  0  0  0  0 15  0  0  0  0  0  0
    4.8932   -0.9476    0.0276 H   0  0  0  0  0 15  0  0  0  0  0  0
    4.5992   -3.4826   -0.4904 H   0  0  0  0  0 15  0  0  0  0  0  0
    4.4732   -3.0702   -2.1913 H   0  0  0  0  0 15  0  0  0  0  0  0
    6.8602   -2.0836   -2.0898 H   0  0  0  0  0 15  0  0  0  0  0  0
    6.9412   -2.5297   -0.3794 H   0  0  0  0  0 15  0  0  0  0  0  0
    6.5852   -4.9748   -1.0234 H   0  0  0  0  0 15  0  0  0  0  0  0
    6.5152   -4.4979   -2.7385 H   0  0  0  0  0 15  0  0  0  0  0  0
    9.0062   -3.4192   -1.6092 H   0  0  0  0  0 15  0  0  0  0  0  0
    9.3192   -7.2356   -2.7143 H   0  0  0  0  0 15  0  0  0  0  0  0
    7.6642   -6.5048   -2.4476 H   0  0  0  0  0 15  0  0  0  0  0  0
   10.8552   -4.2706   -1.9168 H   0  0  0  0  0 15  0  0  0  0  0  0
   11.0282   -6.0108   -2.4209 H   0  0  0  0  0 15  0  0  0  0  0  0
    4.4343    0.7856   -1.3662 N   0  0  0  0  0 15  0  0  0  0  0  0
    5.6813    1.5436   -1.3107 C   0  0  0  0  0 15  0  0  0  0  0  0
    6.0093    1.9419    0.1089 C   0  0  0  0  0 15  0  0  0  0  0  0
    5.2643    1.6326    1.0791 O   0  0  0  0  0 15  0  0  0  0  0  0
    5.5633    2.8301   -2.1827 C   0  0  0  0  0 15  0  0  0  0  0  0
    5.2293    2.6229   -3.6676 C   0  0  0  0  0 15  0  0  0  0  0  0
    3.8913    2.5635   -4.0723 C   0  0  0  0  0 15  0  0  0  0  0  0
    6.2433    2.4337   -4.6089 C   0  0  0  0  0 15  0  0  0  0  0  0
    3.5713    2.2946   -5.3997 C   0  0  0  0  0 15  0  0  0  0  0  0
    5.9233    2.1800   -5.9385 C   0  0  0  0  0 15  0  0  0  0  0  0
    4.5873    2.1050   -6.3344 C   0  0  0  0  0 15  0  0  0  0  0  0
    3.8573    0.5649   -0.4796 H   0  0  0  0  0 15  0  0  0  0  0  0
    6.5043    0.9060   -1.6871 H   0  0  0  0  0 15  0  0  0  0  0  0
    4.8093    3.5125   -1.7358 H   0  0  0  0  0 15  0  0  0  0  0  0
    6.5063    3.4082   -2.1129 H   0  0  0  0  0 15  0  0  0  0  0  0
    3.0963    2.6777   -3.3466 H   0  0  0  0  0 15  0  0  0  0  0  0
    7.2803    2.4696   -4.3049 H   0  0  0  0  0 15  0  0  0  0  0  0
    2.5363    2.2214   -5.6962 H   0  0  0  0  0 15  0  0  0  0  0  0
    6.7103    2.0236   -6.6635 H   0  0  0  0  0 15  0  0  0  0  0  0
    4.3373    1.8942   -7.3622 H   0  0  0  0  0 15  0  0  0  0  0  0
    5.9124    1.2097    1.0102 N   0  0  0  0  0 15  0  0  0  0  0  0
    6.8424    0.9883    2.1155 C   0  0  0  0  0 15  0  0  0  0  0  0
    7.8234   -0.0850    1.6989 C   0  0  0  0  0 15  0  0  0  0  0  0
    9.0084    0.0738    1.9406 O   0  0  0  0  0 15  0  0  0  0  0  0
    6.1384    0.5465    3.4297 C   0  0  0  0  0 15  0  0  0  0  0  0
    5.0924    1.5637    3.9841 C   0  0  0  0  0 15  0  0  0  0  0  0
    4.4184    0.9784    5.2567 C   0  0  0  0  0 15  0  0  0  0  0  0
    5.7184    2.9492    4.3107 C   0  0  0  0  0 15  0  0  0  0  0  0
    7.4124    1.9128    2.3033 H   0  0  0  0  0 15  0  0  0  0  0  0
    4.9584    0.9211    1.1069 H   0  0  0  0  0 15  0  0  0  0  0  0
    6.9114    0.3788    4.1969 H   0  0  0  0  0 15  0  0  0  0  0  0
    5.6354   -0.4136    3.2397 H   0  0  0  0  0 15  0  0  0  0  0  0
    4.2944    1.7189    3.2380 H   0  0  0  0  0 15  0  0  0  0  0  0
    3.9424    0.0102    5.0300 H   0  0  0  0  0 15  0  0  0  0  0  0
    3.6424    1.6578    5.6373 H   0  0  0  0  0 15  0  0  0  0  0  0
    5.1664    0.8219    6.0504 H   0  0  0  0  0 15  0  0  0  0  0  0
    6.5804    2.8288    4.9865 H   0  0  0  0  0 15  0  0  0  0  0  0
    4.9774    3.5983    4.8025 H   0  0  0  0  0 15  0  0  0  0  0  0
    6.0474    3.4616    3.3956 H   0  0  0  0  0 15  0  0  0  0  0  0
    7.3905   -1.2043    1.0166 N   0  0  0  0  0 15  0  0  0  0  0  0
    8.6375   -1.8980    0.7059 C   0  0  0  0  0 15  0  0  0  0  0  0
    8.9655   -1.7885   -0.7644 C   0  0  0  0  0 15  0  0  0  0  0  0
    8.2205   -1.1669   -1.5710 O   0  0  0  0  0 15  0  0  0  0  0  0
    8.5195   -3.4046    1.0871 C   0  0  0  0  0 15  0  0  0  0  0  0
    8.1855   -3.7161    2.5537 C   0  0  0  0  0 15  0  0  0  0  0  0
    6.8475   -3.7983    2.9544 C   0  0  0  0  0 15  0  0  0  0  0  0
    9.1995   -3.8592    3.5031 C   0  0  0  0  0 15  0  0  0  0  0  0
    6.5275   -3.9980    4.2939 C   0  0  0  0  0 15  0  0  0  0  0  0
    8.8795   -4.0740    4.8395 C   0  0  0  0  0 15  0  0  0  0  0  0
    7.5435   -4.1384    5.2373 C   0  0  0  0  0 15  0  0  0  0  0  0
    6.8135   -0.6945    0.2583 H   0  0  0  0  0 15  0  0  0  0  0  0
    9.4605   -1.4269    1.2772 H   0  0  0  0  0 15  0  0  0  0  0  0
    7.7655   -3.8939    0.4343 H   0  0  0  0  0 15  0  0  0  0  0  0
    9.4625   -3.9243    0.8245 H   0  0  0  0  0 15  0  0  0  0  0  0
    6.0525   -3.6582    2.2332 H   0  0  0  0  0 15  0  0  0  0  0  0
   10.2365   -3.7893    3.2051 H   0  0  0  0  0 15  0  0  0  0  0  0
    5.4925   -4.0302    4.5977 H   0  0  0  0  0 15  0  0  0  0  0  0
    9.6665   -4.1740    5.5745 H   0  0  0  0  0 15  0  0  0  0  0  0
    7.2935   -4.2906    6.2754 H   0  0  0  0  0 15  0  0  0  0  0  0
    8.8686   -0.7928   -1.3621 N   0  0  0  0  0 15  0  0  0  0  0  0
    9.7986   -0.2079   -2.3257 C   0  0  0  0  0 15  0  0  0  0  0  0
   10.7796    0.6591   -1.5681 C   0  0  0  0  0 15  0  0  0  0  0  0
   11.9646    0.5922   -1.8495 O   0  0  0  0  0 15  0  0  0  0  0  0
    9.0946    0.6554   -3.4106 C   0  0  0  0  0 15  0  0  0  0  0  0
    8.0486   -0.1118   -4.2785 C   0  0  0  0  0 15  0  0  0  0  0  0
    7.3746    0.8723   -5.2754 C   0  0  0  0  0 15  0  0  0  0  0  0
    8.6746   -1.3030   -5.0579 C   0  0  0  0  0 15  0  0  0  0  0  0
   10.3686   -1.0129   -2.8174 H   0  0  0  0  0 15  0  0  0  0  0  0
    7.9146   -0.4885   -1.3546 H   0  0  0  0  0 15  0  0  0  0  0  0
    9.8676    1.0746   -4.0747 H   0  0  0  0  0 15  0  0  0  0  0  0
    8.5916    1.4933   -2.9046 H   0  0  0  0  0 15  0  0  0  0  0  0
    7.2506   -0.5121   -3.6301 H   0  0  0  0  0 15  0  0  0  0  0  0
    6.8986    1.7052   -4.7321 H   0  0  0  0  0 15  0  0  0  0  0  0
    6.5986    0.3633   -5.8648 H   0  0  0  0  0 15  0  0  0  0  0  0
    8.1226    1.2900   -5.9682 H   0  0  0  0  0 15  0  0  0  0  0  0
    9.5366   -0.9594   -5.6522 H   0  0  0  0  0 15  0  0  0  0  0  0
    7.9336   -1.7455   -5.7415 H   0  0  0  0  0 15  0  0  0  0  0  0
    9.0036   -2.0966   -4.3723 H   0  0  0  0  0 15  0  0  0  0  0  0
   10.3467    1.4787   -0.5451 N   0  0  0  0  0 15  0  0  0  0  0  0
   11.2767    2.3266    0.1978 C   0  0  0  0  0 15  0  0  0  0  0  0
   12.2577    1.4304    0.9205 C   0  0  0  0  0 15  0  0  0  0  0  0
   13.4427    1.7191    0.9033 O   0  0  0  0  0 15  0  0  0  0  0  0
   10.5727    3.2457    1.2358 C   0  0  0  0  0 15  0  0  0  0  0  0
    9.5267    4.2333    0.6303 C   0  0  0  0  0 15  0  0  0  0  0  0
    8.8527    5.0448    1.7721 C   0  0  0  0  0 15  0  0  0  0  0  0
   10.1527    5.2070   -0.4080 C   0  0  0  0  0 15  0  0  0  0  0  0
   11.8467    2.9502   -0.5100 H   0  0  0  0  0 15  0  0  0  0  0  0
    9.3927    1.4187   -0.2467 H   0  0  0  0  0 15  0  0  0  0  0  0
   11.3457    3.8272    1.7636 H   0  0  0  0  0 15  0  0  0  0  0  0
   10.0697    2.6024    1.9734 H   0  0  0  0  0 15  0  0  0  0  0  0
    8.7287    3.6639    0.1239 H   0  0  0  0  0 15  0  0  0  0  0  0
    8.3767    4.3656    2.4985 H   0  0  0  0  0 15  0  0  0  0  0  0
    8.0767    5.7134    1.3728 H   0  0  0  0  0 15  0  0  0  0  0  0
    9.6007    5.6549    2.3034 H   0  0  0  0  0 15  0  0  0  0  0  0
   11.0147    5.7329    0.0333 H   0  0  0  0  0 15  0  0  0  0  0  0
    9.4117    5.9570   -0.7255 H   0  0  0  0  0 15  0  0  0  0  0  0
   10.4817    4.6692   -1.3083 H   0  0  0  0  0 15  0  0  0  0  0  0
   11.8248    0.2810    1.5507 N   0  0  0  0  0 15  0  0  0  0  0  0
   12.7548   -0.5975    2.2573 C   0  0  0  0  0 15  0  0  0  0  0  0
   13.7358   -1.1542    1.2495 C   0  0  0  0  0 15  0  0  0  0  0  0
   14.9208   -1.1872    1.5368 O   0  0  0  0  0 15  0  0  0  0  0  0
   12.0508   -1.7789    2.9828 C   0  0  0  0  0 15  0  0  0  0  0  0
   11.0048   -1.3535    4.0604 C   0  0  0  0  0 15  0  0  0  0  0  0
   10.3308   -2.6185    4.6620 C   0  0  0  0  0 15  0  0  0  0  0  0
   11.6308   -0.4994    5.1991 C   0  0  0  0  0 15  0  0  0  0  0  0
   13.3248   -0.0082    2.9940 H   0  0  0  0  0 15  0  0  0  0  0  0
   10.8708   -0.0025    1.4400 H   0  0  0  0  0 15  0  0  0  0  0  0
   12.8238   -2.3994    3.4642 H   0  0  0  0  0 15  0  0  0  0  0  0
   11.5478   -2.3940    2.2216 H   0  0  0  0  0 15  0  0  0  0  0  0
   10.2068   -0.7562    3.5872 H   0  0  0  0  0 15  0  0  0  0  0  0
    9.8548   -3.2163    3.8673 H   0  0  0  0  0 15  0  0  0  0  0  0
    9.5548   -2.3409    5.3896 H   0  0  0  0  0 15  0  0  0  0  0  0
   11.0788   -3.2473    5.1709 H   0  0  0  0  0 15  0  0  0  0  0  0
   12.4928   -1.0250    5.6406 H   0  0  0  0  0 15  0  0  0  0  0  0
   10.8898   -0.3164    5.9927 H   0  0  0  0  0 15  0  0  0  0  0  0
   11.9598    0.4805    4.8251 H   0  0  0  0  0 15  0  0  0  0  0  0
   13.3029   -1.5760    0.0084 N   0  0  0  0  0 15  0  0  0  0  0  0
   14.5309   -1.9521   -0.6855 C   0  0  0  0  0 15  0  0  0  0  0  0
   14.9459   -0.8837   -1.6684 C   0  0  0  0  0 15  0  0  0  0  0  0
   14.3029    0.1366   -1.8199 O   0  0  0  0  0 15  0  0  0  0  0  0
   14.3539   -3.3287   -1.4101 C   0  0  0  0  0 15  0  0  0  0  0  0
   14.0749   -4.3561   -0.4666 O   0  0  0  0  0 15  0  0  0  0  0  0
   15.5759   -3.8499   -2.1977 C   0  0  0  0  0 15  0  0  0  0  0  0
   12.7959   -0.6434   -0.1904 H   0  0  0  0  0 15  0  0  0  0  0  0
   15.3399   -2.0441    0.0620 H   0  0  0  0  0 15  0  0  0  0  0  0
   13.4949   -3.2496   -2.1091 H   0  0  0  0  0 15  0  0  0  0  0  0
   13.9089   -5.1529   -0.9787 H   0  0  0  0  0 15  0  0  0  0  0  0
   15.3829   -4.8371   -2.6595 H   0  0  0  0  0 15  0  0  0  0  0  0
   15.8599   -3.1814   -3.0280 H   0  0  0  0  0 15  0  0  0  0  0  0
   16.4659   -3.9610   -1.5486 H   0  0  0  0  0 15  0  0  0  0  0  0
   14.7810    0.2645   -1.5536 N   0  0  0  0  0 15  0  0  0  0  0  0
   16.0300    0.9928   -1.7557 C   0  0  0  0  0 15  0  0  0  0  0  0
   16.3430    1.8714   -0.5690 C   0  0  0  0  0 15  0  0  0  0  0  0
   17.5490    2.6351   -0.6537 O   0  0  0  0  0 15  0  0  0  0  0  0
   16.0050    1.8152   -3.1077 C   0  0  0  0  0 15  0  0  0  0  0  0
   15.6130    0.9848   -4.3704 C   0  0  0  0  0 15  0  0  0  0  0  0
   17.3570    2.5373   -3.4033 C   0  0  0  0  0 15  0  0  0  0  0  0
   15.2640    1.8021   -5.6327 C   0  0  0  0  0 15  0  0  0  0  0  0
   14.1940    0.3744   -0.6545 H   0  0  0  0  0 15  0  0  0  0  0  0
   16.8450    0.2481   -1.8181 H   0  0  0  0  0 15  0  0  0  0  0  0
   15.2270    2.6011   -2.9859 H   0  0  0  0  0 15  0  0  0  0  0  0
   16.4010    0.2425   -4.6016 H   0  0  0  0  0 15  0  0  0  0  0  0
   14.7160    0.3769   -4.1469 H   0  0  0  0  0 15  0  0  0  0  0  0
   17.3130    3.1529   -4.3185 H   0  0  0  0  0 15  0  0  0  0  0  0
   17.6560    3.2445   -2.6084 H   0  0  0  0  0 15  0  0  0  0  0  0
   18.1890    1.8216   -3.5364 H   0  0  0  0  0 15  0  0  0  0  0  0
   14.9280    1.1390   -6.4553 H   0  0  0  0  0 15  0  0  0  0  0  0
   14.4480    2.5202   -5.4428 H   0  0  0  0  0 15  0  0  0  0  0  0
   16.1270    2.3736   -6.0189 H   0  0  0  0  0 15  0  0  0  0  0  0
   16.2591    1.4844    0.5294 N   0  0  0  0  0 15  0  0  0  0  0  0
   17.4841    1.6041    1.3147 C   0  0  0  0  0 15  0  0  0  0  0  0
   17.9091    0.2647    1.8623 C   0  0  0  0  0 15  0  0  0  0  0  0
   17.2671   -0.7637    1.6443 O   0  0  0  0  0 15  0  0  0  0  0  0
   17.3151    2.6542    2.4410 C   0  0  0  0  0 15  0  0  0  0  0  0
   16.4191    2.2262    3.4715 O   0  0  0  0  0 15  0  0  0  0  0  0
   15.7601    0.5379    0.3894 H   0  0  0  0  0 15  0  0  0  0  0  0
   18.2901    1.9443    0.6370 H   0  0  0  0  0 15  0  0  0  0  0  0
   18.3001    2.8671    2.9028 H   0  0  0  0  0 15  0  0  0  0  0  0
   16.9751    3.6265    2.0361 H   0  0  0  0  0 15  0  0  0  0  0  0
   15.5521    2.1154    3.0709 H   0  0  0  0  0 15  0  0  0  0  0  0
   17.7372   -0.7783    1.3704 N   0  0  0  0  0 15  0  0  0  0  0  0
   18.6672   -1.9055    1.3496 C   0  0  0  0  0 15  0  0  0  0  0  0
   19.6482   -1.6868    0.2193 C   0  0  0  0  0 15  0  0  0  0  0  0
   20.8332   -1.8963    0.4186 O   0  0  0  0  0 15  0  0  0  0  0  0
   17.9632   -3.2773    1.1493 C   0  0  0  0  0 15  0  0  0  0  0  0
   16.9172   -3.6415    2.2490 C   0  0  0  0  0 15  0  0  0  0  0  0
   16.2432   -4.9981    1.9000 C   0  0  0  0  0 15  0  0  0  0  0  0
   17.5432   -3.7158    3.6705 C   0  0  0  0  0 15  0  0  0  0  0  0
   19.2372   -1.9254    2.2928 H   0  0  0  0  0 15  0  0  0  0  0  0
   16.7832   -0.9249    1.1037 H   0  0  0  0  0 15  0  0  0  0  0  0
   18.7362   -4.0622    1.1210 H   0  0  0  0  0 15  0  0  0  0  0  0
   17.4602   -3.2615    0.1706 H   0  0  0  0  0 15  0  0  0  0  0  0
   16.1192   -2.8797    2.2687 H   0  0  0  0  0 15  0  0  0  0  0  0
   15.7672   -4.9476    0.9068 H   0  0  0  0  0 15  0  0  0  0  0  0
   15.4672   -5.2514    2.6363 H   0  0  0  0  0 15  0  0  0  0  0  0
   16.9912   -5.8069    1.8875 H   0  0  0  0  0 15  0  0  0  0  0  0
   18.4052   -4.4023    3.6725 H   0  0  0  0  0 15  0  0  0  0  0  0
   16.8022   -4.0840    4.3969 H   0  0  0  0  0 15  0  0  0  0  0  0
   17.8722   -2.7240    4.0115 H   0  0  0  0  0 15  0  0  0  0  0  0
   19.2153   -1.2150   -1.0038 N   0  0  0  0  0 15  0  0  0  0  0  0
   20.1453   -0.9995   -2.1103 C   0  0  0  0  0 15  0  0  0  0  0  0
   21.1263    0.0760   -1.6993 C   0  0  0  0  0 15  0  0  0  0  0  0
   22.3113   -0.0841   -1.9402 O   0  0  0  0  0 15  0  0  0  0  0  0
   19.4413   -0.5647   -3.4268 C   0  0  0  0  0 15  0  0  0  0  0  0
   18.3953   -1.5849   -3.9758 C   0  0  0  0  0 15  0  0  0  0  0  0
   17.7213   -1.0063   -5.2515 C   0  0  0  0  0 15  0  0  0  0  0  0
   19.0213   -2.9720   -4.2950 C   0  0  0  0  0 15  0  0  0  0  0  0
   20.7153   -1.9249   -2.2932 H   0  0  0  0  0 15  0  0  0  0  0  0
   18.2613   -0.9269   -1.1020 H   0  0  0  0  0 15  0  0  0  0  0  0
   20.2143   -0.4011   -4.1949 H   0  0  0  0  0 15  0  0  0  0  0  0
   18.9383    0.3964   -3.2419 H   0  0  0  0  0 15  0  0  0  0  0  0
   17.5973   -1.7361   -3.2289 H   0  0  0  0  0 15  0  0  0  0  0  0
   17.2453   -0.0368   -5.0299 H   0  0  0  0  0 15  0  0  0  0  0  0
   16.9453   -1.6877   -5.6284 H   0  0  0  0  0 15  0  0  0  0  0  0
   18.4693   -0.8540   -6.0460 H   0  0  0  0  0 15  0  0  0  0  0  0
   19.8833   -2.8552   -4.9714 H   0  0  0  0  0 15  0  0  0  0  0  0
   18.2803   -3.6237   -4.7834 H   0  0  0  0  0 15  0  0  0  0  0  0
   19.3503   -3.4796   -3.3772 H   0  0  0  0  0 15  0  0  0  0  0  0
   20.6934    1.1989   -1.0230 N   0  0  0  0  0 15  0  0  0  0  0  0
   21.9394    1.8970   -0.7170 C   0  0  0  0  0 15  0  0  0  0  0  0
   22.2724    1.7905    0.7520 C   0  0  0  0  0 15  0  0  0  0  0  0
   21.5474    1.1789    1.5470 O   0  0  0  0  0 15  0  0  0  0  0  0
   21.8304    3.4086   -1.1614 C   0  0  0  0  0 15  0  0  0  0  0  0
   21.6834    3.6041   -2.6912 C   0  0  0  0  0 15  0  0  0  0  0  0
   23.0024    4.3388   -0.7375 C   0  0  0  0  0 15  0  0  0  0  0  0
   20.1214    0.6889   -0.2620 H   0  0  0  0  0 15  0  0  0  0  0  0
   22.7634    1.4115   -1.2718 H   0  0  0  0  0 15  0  0  0  0  0  0
   20.9134    3.8234   -0.6893 H   0  0  0  0  0 15  0  0  0  0  0  0
   22.5854    3.2815   -3.2422 H   0  0  0  0  0 15  0  0  0  0  0  0
   20.8284    3.0367   -3.0979 H   0  0  0  0  0 15  0  0  0  0  0  0
   21.4994    4.6640   -2.9526 H   0  0  0  0  0 15  0  0  0  0  0  0
   23.9754    4.0008   -1.1434 H   0  0  0  0  0 15  0  0  0  0  0  0
   22.8514    5.3824   -1.0764 H   0  0  0  0  0 15  0  0  0  0  0  0
   23.1124    4.4063    0.3604 H   0  0  0  0  0 15  0  0  0  0  0  0
   22.1715    0.8000    1.3578 N   0  0  0  0  0 15  0  0  0  0  0  0
   23.1045    0.1515    2.2770 C   0  0  0  0  0 15  0  0  0  0  0  0
   24.0825   -0.6787    1.4776 C   0  0  0  0  0 15  0  0  0  0  0  0
   25.2665   -0.6474    1.7704 O   0  0  0  0  0 15  0  0  0  0  0  0
   22.3935   -0.7905    3.2935 C   0  0  0  0  0 15  0  0  0  0  0  0
   21.4395   -0.0408    4.2648 C   0  0  0  0  0 15  0  0  0  0  0  0
   22.2725    1.2908    5.1971 S   0  0  0  0  0 15  0  0  0  0  0  0
   23.4285    0.3531    6.2490 C   0  0  0  0  0 15  0  0  0  0  0  0
   23.6615    0.9308    2.8235 H   0  0  0  0  0 15  0  0  0  0  0  0
   21.1945    0.5948    1.4248 H   0  0  0  0  0 15  0  0  0  0  0  0
   23.1525   -1.3285    3.8841 H   0  0  0  0  0 15  0  0  0  0  0  0
   21.8135   -1.5431    2.7358 H   0  0  0  0  0 15  0  0  0  0  0  0
   21.0065   -0.7560    4.9830 H   0  0  0  0  0 15  0  0  0  0  0  0
   20.6085    0.4271    3.7155 H   0  0  0  0  0 15  0  0  0  0  0  0
   22.9005   -0.4641    6.7591 H   0  0  0  0  0 15  0  0  0  0  0  0
   23.8435    1.0402    7.0042 H   0  0  0  0  0 15  0  0  0  0  0  0
   24.2515   -0.0483    5.6448 H   0  0  0  0  0 15  0  0  0  0  0  0
   23.6496   -1.4758    0.5530 N   0  0  0  0  0 15  0  0  0  0  0  0
   24.8956   -2.0278    0.0274 C   0  0  0  0  0 15  0  0  0  0  0  0
   25.2286   -1.4269   -1.3173 C   0  0  0  0  0 15  0  0  0  0  0  0
   24.5036   -0.5809   -1.8562 O   0  0  0  0  0 15  0  0  0  0  0  0
   24.7866   -3.6003   -0.0702 C   0  0  0  0  0 15  0  0  0  0  0  0
   24.6396   -4.3057    1.3013 C   0  0  0  0  0 15  0  0  0  0  0  0
   25.9586   -4.3303   -0.7858 C   0  0  0  0  0 15  0  0  0  0  0  0
   23.0776   -0.7369    0.0114 H   0  0  0  0  0 15  0  0  0  0  0  0
   25.7196   -1.7606    0.7144 H   0  0  0  0  0 15  0  0  0  0  0  0
   23.8696   -3.8293   -0.6554 H   0  0  0  0  0 15  0  0  0  0  0  0
   25.5416   -4.1902    1.9293 H   0  0  0  0  0 15  0  0  0  0  0  0
   23.7846   -3.9109    1.8771 H   0  0  0  0  0 15  0  0  0  0  0  0
   24.4556   -5.3911    1.1857 H   0  0  0  0  0 15  0  0  0  0  0  0
   26.9316   -4.1510   -0.2890 H   0  0  0  0  0 15  0  0  0  0  0  0
   25.8076   -5.4269   -0.8230 H   0  0  0  0  0 15  0  0  0  0  0  0
   26.0686   -4.0194   -1.8410 H   0  0  0  0  0 15  0  0  0  0  0  0
   25.1277   -0.2892   -1.5492 N   0  0  0  0  0 15  0  0  0  0  0  0
   26.0597    0.6256   -2.2050 C   0  0  0  0  0 15  0  0  0  0  0  0
   27.0727    1.1067   -1.1940 C   0  0  0  0  0 15  0  0  0  0  0  0
   28.2617    1.0261   -1.4606 O   0  0  0  0  0 15  0  0  0  0  0  0
   25.3617    1.8670   -2.8283 C   0  0  0  0  0 15  0  0  0  0  0  0
   24.5347    1.5304   -4.0975 C   0  0  0  0  0 15  0  0  0  0  0  0
   23.5937    2.6258   -4.5600 C   0  0  0  0  0 15  0  0  0  0  0  0
   22.6197    2.2817   -5.2147 O   0  0  0  0  0 15  0  0  0  0  0  0
   23.8217    3.9290   -4.2733 N   0  0  0  0  0 15  0  0  0  0  0  0
   26.5867    0.0643   -2.9963 H   0  0  0  0  0 15  0  0  0  0  0  0
   24.1477   -0.1109   -1.6152 H   0  0  0  0  0 15  0  0  0  0  0  0
   26.1397    2.5930   -3.1071 H   0  0  0  0  0 15  0  0  0  0  0  0
   24.7097    2.3370   -2.0761 H   0  0  0  0  0 15  0  0  0  0  0  0
   23.9297    0.6376   -3.8901 H   0  0  0  0  0 15  0  0  0  0  0  0
   25.2177    1.2807   -4.9242 H   0  0  0  0  0 15  0  0  0  0  0  0
   24.6157    4.2367   -3.7486 H   0  0  0  0  0 15  0  0  0  0  0  0
   23.1727    4.6184   -4.5995 H   0  0  0  0  0 15  0  0  0  0  0  0
   26.6058    1.5759   -0.0167 N   0  0  0  0  0 15  0  0  0  0  0  0
   27.8548    1.9046    0.6639 C   0  0  0  0  0 15  0  0  0  0  0  0
   28.1678    0.8935    1.7400 C   0  0  0  0  0 15  0  0  0  0  0  0
   29.3738    1.1130    2.4764 O   0  0  0  0  0 15  0  0  0  0  0  0
   27.8298    3.3816    1.2320 C   0  0  0  0  0 15  0  0  0  0  0  0
   27.4378    4.4760    0.1899 C   0  0  0  0  0 15  0  0  0  0  0  0
   29.1818    3.8011    1.8899 C   0  0  0  0  0 15  0  0  0  0  0  0
   27.0888    5.8638    0.7690 C   0  0  0  0  0 15  0  0  0  0  0  0
   26.0188    0.7107    0.2517 H   0  0  0  0  0 15  0  0  0  0  0  0
   28.6698    1.8333   -0.0800 H   0  0  0  0  0 15  0  0  0  0  0  0
   27.0518    3.4018    2.0271 H   0  0  0  0  0 15  0  0  0  0  0  0
   28.2258    4.5711   -0.5818 H   0  0  0  0  0 15  0  0  0  0  0  0
   26.5408    4.1477   -0.3685 H   0  0  0  0  0 15  0  0  0  0  0  0
   29.1378    4.8114    2.3325 H   0  0  0  0  0 15  0  0  0  0  0  0
   29.4808    3.1451    2.7274 H   0  0  0  0  0 15  0  0  0  0  0  0
   30.0138    3.8045    1.1619 H   0  0  0  0  0 15  0  0  0  0  0  0
   26.7528    6.5549   -0.0302 H   0  0  0  0  0 15  0  0  0  0  0  0
   26.2728    5.8050    1.5094 H   0  0  0  0  0 15  0  0  0  0  0  0
   27.9518    6.3456    1.2625 H   0  0  0  0  0 15  0  0  0  0  0  0
   28.0839   -0.2563    1.5550 N   0  0  0  0  0 15  0  0  0  0  0  0
   29.0159   -1.3398    1.8596 C   0  0  0  0  0 15  0  0  0  0  0  0
   30.0289   -1.4474    0.7452 C   0  0  0  0  0 15  0  0  0  0  0  0
   31.2179   -1.4626    1.0232 O   0  0  0  0  0 15  0  0  0  0  0  0
   28.3179   -2.7194    2.0224 C   0  0  0  0  0 15  0  0  0  0  0  0
   27.4909   -2.8356    3.3303 C   0  0  0  0  0 15  0  0  0  0  0  0
   26.5499   -4.0230    3.3917 C   0  0  0  0  0 15  0  0  0  0  0  0
   25.5759   -3.9227    4.1244 O   0  0  0  0  0 15  0  0  0  0  0  0
   26.7779   -5.1505    2.6778 N   0  0  0  0  0 15  0  0  0  0  0  0
   29.5429   -1.0819    2.7949 H   0  0  0  0  0 15  0  0  0  0  0  0
   27.1039   -0.4464    1.5562 H   0  0  0  0  0 15  0  0  0  0  0  0
   29.0959   -3.4970    2.0370 H   0  0  0  0  0 15  0  0  0  0  0  0
   27.6659   -2.9048    1.1550 H   0  0  0  0  0 15  0  0  0  0  0  0
   26.8859   -1.9256    3.4397 H   0  0  0  0  0 15  0  0  0  0  0  0
   28.1739   -2.8827    4.1926 H   0  0  0  0  0 15  0  0  0  0  0  0
   27.5719   -5.2609    2.0797 H   0  0  0  0  0 15  0  0  0  0  0  0
   26.1289   -5.9097    2.7495 H   0  0  0  0  0 15  0  0  0  0  0  0
   29.5620   -1.4872   -0.5215 N   0  0  0  0  0 15  0  0  0  0  0  0
   30.7900   -1.6084   -1.3014 C   0  0  0  0  0 15  0  0  0  0  0  0
   31.2050   -0.2719   -1.8683 C   0  0  0  0  0 15  0  0  0  0  0  0
   30.5620    0.7400   -1.6683 O   0  0  0  0  0 15  0  0  0  0  0  0
   30.6130   -2.6616   -2.4463 C   0  0  0  0  0 15  0  0  0  0  0  0
   30.3340   -3.9462   -1.9027 O   0  0  0  0  0 15  0  0  0  0  0  0
   31.8350   -2.8880   -3.3632 C   0  0  0  0  0 15  0  0  0  0  0  0
   29.0550   -0.5421   -0.3955 H   0  0  0  0  0 15  0  0  0  0  0  0
   31.5990   -1.9461   -0.6283 H   0  0  0  0  0 15  0  0  0  0  0  0
   29.7540   -2.3522   -3.0781 H   0  0  0  0  0 15  0  0  0  0  0  0
   30.1680   -4.5247   -2.6528 H   0  0  0  0  0 15  0  0  0  0  0  0
   31.6420   -3.6626   -4.1298 H   0  0  0  0  0 15  0  0  0  0  0  0
   32.1190   -1.9793   -3.9207 H   0  0  0  0  0 15  0  0  0  0  0  0
   32.7250   -3.2106   -2.7892 H   0  0  0  0  0 15  0  0  0  0  0  0
   31.0401    0.7711   -1.3745 N   0  0  0  0  0 15  0  0  0  0  0  0
   32.2881    1.5266   -1.3243 C   0  0  0  0  0 15  0  0  0  0  0  0
   32.6091    1.9479    0.0905 C   0  0  0  0  0 15  0  0  0  0  0  0
   31.8791    1.6635    1.0347 O   0  0  0  0  0 15  0  0  0  0  0  0
   30.4591    0.5662   -0.4872 H   0  0  0  0  0 15  0  0  0  0  0  0
   33.1211    0.9176   -1.7195 H   0  0  0  0  0 15  0  0  0  0  0  0
   32.2171    2.4257   -1.9639 H   0  0  0  0  0 15  0  0  0  0  0  0
   32.5182    1.2203    0.9973 N   0  0  0  0  0 15  0  0  0  0  0  0
   33.4482    1.0107    2.1049 C   0  0  0  0  0 15  0  0  0  0  0  0
   34.4292   -0.0670    1.6997 C   0  0  0  0  0 15  0  0  0  0  0  0
   35.6142    0.0944    1.9397 O   0  0  0  0  0 15  0  0  0  0  0  0
   32.7442    0.5829    3.4237 C   0  0  0  0  0 15  0  0  0  0  0  0
   31.6982    1.6059    3.9673 C   0  0  0  0  0 15  0  0  0  0  0  0
   31.0242    1.0341    5.2460 C   0  0  0  0  0 15  0  0  0  0  0  0
   32.3242    2.9948    4.2791 C   0  0  0  0  0 15  0  0  0  0  0  0
   34.0182    1.9371    2.2829 H   0  0  0  0  0 15  0  0  0  0  0  0
   31.5642    0.9328    1.0971 H   0  0  0  0  0 15  0  0  0  0  0  0
   33.5172    0.4233    4.1927 H   0  0  0  0  0 15  0  0  0  0  0  0
   32.2412   -0.3792    3.2439 H   0  0  0  0  0 15  0  0  0  0  0  0
   30.9002    1.7532    3.2196 H   0  0  0  0  0 15  0  0  0  0  0  0
   30.5482    0.0635    5.0296 H   0  0  0  0  0 15  0  0  0  0  0  0
   30.2482    1.7175    5.6194 H   0  0  0  0  0 15  0  0  0  0  0  0
   31.7722    0.8861    6.0414 H   0  0  0  0  0 15  0  0  0  0  0  0
   33.1862    2.8815    4.9562 H   0  0  0  0  0 15  0  0  0  0  0  0
   31.5832    3.6490    4.7641 H   0  0  0  0  0 15  0  0  0  0  0  0
   32.6532    3.4974    3.3587 H   0  0  0  0  0 15  0  0  0  0  0  0
   33.9963   -1.1934    1.0293 N   0  0  0  0  0 15  0  0  0  0  0  0
   35.2213   -1.9354    0.7455 C   0  0  0  0  0 15  0  0  0  0  0  0
   35.6463   -1.7501   -0.6895 C   0  0  0  0  0 15  0  0  0  0  0  0
   35.0043   -1.0527   -1.4761 O   0  0  0  0  0 15  0  0  0  0  0  0
   35.0523   -3.4334    1.1024 C   0  0  0  0  0 15  0  0  0  0  0  0
   34.1563   -4.1181    0.2213 O   0  0  0  0  0 15  0  0  0  0  0  0
   33.4973   -0.6042    0.2754 H   0  0  0  0  0 15  0  0  0  0  0  0
   36.0273   -1.5141    1.3761 H   0  0  0  0  0 15  0  0  0  0  0  0
   36.0373   -3.9400    1.0595 H   0  0  0  0  0 15  0  0  0  0  0  0
   34.7123   -3.5615    2.1479 H   0  0  0  0  0 15  0  0  0  0  0  0
   33.2893   -3.7150    0.3228 H   0  0  0  0  0 15  0  0  0  0  0  0
   35.4744   -0.8072   -1.3536 N   0  0  0  0  0 15  0  0  0  0  0  0
   36.7224   -0.3871   -1.9836 C   0  0  0  0  0 15  0  0  0  0  0  0
   37.0434    1.0494   -1.6435 C   0  0  0  0  0 15  0  0  0  0  0  0
   36.3134    1.7261   -0.9263 O   0  0  0  0  0 15  0  0  0  0  0  0
   34.8934   -0.1402   -0.7337 H   0  0  0  0  0 15  0  0  0  0  0  0
   37.5554   -1.0332   -1.6526 H   0  0  0  0  0 15  0  0  0  0  0  0
   36.6514   -0.4934   -3.0818 H   0  0  0  0  0 15  0  0  0  0  0  0
   36.9525    1.4729   -0.5608 N   0  0  0  0  0 15  0  0  0  0  0  0
   37.8845    2.2812    0.2224 C   0  0  0  0  0 15  0  0  0  0  0  0
   38.8975    1.3722    0.8761 C   0  0  0  0  0 15  0  0  0  0  0  0
   40.0865    1.6201    0.7493 O   0  0  0  0  0 15  0  0  0  0  0  0
   37.1865    3.1159    1.3328 C   0  0  0  0  0 15  0  0  0  0  0  0
   36.3595    4.3047    0.7753 C   0  0  0  0  0 15  0  0  0  0  0  0
   35.4185    4.9551    1.7707 C   0  0  0  0  0 15  0  0  0  0  0  0
   34.4445    5.5379    1.3154 O   0  0  0  0  0 15  0  0  0  0  0  0
   35.6465    4.9053    3.1042 N   0  0  0  0  0 15  0  0  0  0  0  0
   38.4115    2.9598   -0.4710 H   0  0  0  0  0 15  0  0  0  0  0  0
   35.9725    1.5695   -0.3971 H   0  0  0  0  0 15  0  0  0  0  0  0
   37.9645    3.5197    1.9975 H   0  0  0  0  0 15  0  0  0  0  0  0
   36.5345    2.4595    1.9294 H   0  0  0  0  0 15  0  0  0  0  0  0
   35.7545    3.9414   -0.0662 H   0  0  0  0  0 15  0  0  0  0  0  0
   37.0425    5.0736    0.3823 H   0  0  0  0  0 15  0  0  0  0  0  0
   36.4405    4.4439    3.5005 H   0  0  0  0  0 15  0  0  0  0  0  0
   34.9975    5.3492    3.7243 H   0  0  0  0  0 15  0  0  0  0  0  0
   38.4306    0.2974    1.5477 N   0  0  0  0  0 15  0  0  0  0  0  0
   39.3786   -0.5961    2.2483 C   0  0  0  0  0 15  0  0  0  0  0  0
   40.3726   -1.1399    1.2531 C   0  0  0  0  0 15  0  0  0  0  0  0
   41.5786   -1.0910    1.4317 O   0  0  0  0  0 15  0  0  0  0  0  0
   37.9536   -0.2108    0.7218 H   0  0  0  0  0 15  0  0  0  0  0  0
   39.9246    0.0175    2.9839 H   0  0  0  0  0 15  0  0  0  0  0  0
   38.6736   -1.7582    2.9997 C   0  0  0  0  0 15  0  0  0  0  0  0
   37.9966   -1.3489    3.7636 H   0  0  0  0  0 15  0  0  0  0  0  0
   39.4366   -2.3595    3.5228 H   0  0  0  0  0 15  0  0  0  0  0  0
   37.8956   -2.6601    2.0673 C   0  0  0  0  0 15  0  0  0  0  0  0
   38.4256   -3.6701    1.6330 O   0  0  0  0  0 15  0  0  0  0  0  0
   36.6316   -2.3367    1.7276 N   0  0  0  0  0 15  0  0  0  0  0  0
   36.1786   -1.5159    2.0828 H   0  0  0  0  0 15  0  0  0  0  0  0
   36.1366   -2.9428    1.1065 H   0  0  0  0  0 15  0  0  0  0  0  0
   39.9087   -1.5758    0.0251 N   0  0  0  0  0 15  0  0  0  0  0  0
   41.1857   -1.8292   -0.6929 C   0  0  0  0  0 15  0  0  0  0  0  0
   41.5657   -0.9081   -1.9057 C   0  0  0  0  0 15  0  0  0  0  0  0
   40.9137    0.0372   -2.2847 O   0  0  0  0  0 15  0  0  0  0  0  0
   41.1237   -3.3203   -1.0749 C   0  0  0  0  0 15  0  0  0  0  0  0
   42.4717   -3.9841   -1.4683 C   0  0  0  0  0 15  0  0  0  0  0  0
   43.4957   -3.3651   -1.1680 O   0  0  0  0  0 15  0  0  0  0  0  0
   42.3547   -5.0750   -2.0275 O   0  0  0  0  0 15  0  0  0  0  0  0
   39.4487   -0.7541   -0.3395 H   0  0  0  0  0 15  0  0  0  0  0  0
   41.9947   -1.6962    0.0524 H   0  0  0  0  0 15  0  0  0  0  0  0
   40.7667   -3.9073   -0.2116 H   0  0  0  0  0 15  0  0  0  0  0  0
   40.3897   -3.5042   -1.8785 H   0  0  0  0  0 15  0  0  0  0  0  0
   41.3868    0.2480   -1.5564 N   0  0  0  0  0 15  0  0  0  0  0  0
   42.6148    0.9938   -1.8147 C   0  0  0  0  0 15  0  0  0  0  0  0
   43.0298    1.7899   -0.6006 C   0  0  0  0  0 15  0  0  0  0  0  0
   42.3868    1.7735    0.4307 O   0  0  0  0  0 15  0  0  0  0  0  0
   42.4378    1.9326   -3.0551 C   0  0  0  0  0 15  0  0  0  0  0  0
   42.1588    1.1687   -4.2222 O   0  0  0  0  0 15  0  0  0  0  0  0
   43.6598    2.7944   -3.4413 C   0  0  0  0  0 15  0  0  0  0  0  0
   40.8798    0.2925   -0.6039 H   0  0  0  0  0 15  0  0  0  0  0  0
   43.4238    0.2713   -2.0269 H   0  0  0  0  0 15  0  0  0  0  0  0
   41.5788    2.6094   -2.8633 H   0  0  0  0  0 15  0  0  0  0  0  0
   41.9928    1.8036   -4.9251 H   0  0  0  0  0 15  0  0  0  0  0  0
   43.4668    3.4107   -4.3403 H   0  0  0  0  0 15  0  0  0  0  0  0
   43.9438    3.5050   -2.6466 H   0  0  0  0  0 15  0  0  0  0  0  0
   44.5498    2.1721   -3.6565 H   0  0  0  0  0 15  0  0  0  0  0  0
   42.8649    1.4899    0.5136 N   0  0  0  0  0 15  0  0  0  0  0  0
   44.0899    1.6179    1.2976 C   0  0  0  0  0 15  0  0  0  0  0  0
   44.5149    0.2845    1.8594 C   0  0  0  0  0 15  0  0  0  0  0  0
   43.8729   -0.7462    1.6523 O   0  0  0  0  0 15  0  0  0  0  0  0
   43.9209    2.6799    2.4127 C   0  0  0  0  0 15  0  0  0  0  0  0
   43.0249    2.2629    3.4477 O   0  0  0  0  0 15  0  0  0  0  0  0
   42.3659    0.5420    0.3836 H   0  0  0  0  0 15  0  0  0  0  0  0
   44.8959    1.9510    0.6163 H   0  0  0  0  0 15  0  0  0  0  0  0
   44.9059    2.8977    2.8722 H   0  0  0  0  0 15  0  0  0  0  0  0
   43.5809    3.6479    1.9975 H   0  0  0  0  0 15  0  0  0  0  0  0
   42.1579    2.1479    3.0483 H   0  0  0  0  0 15  0  0  0  0  0  0
   44.3430   -0.7638    1.3786 N   0  0  0  0  0 15  0  0  0  0  0  0
   45.2750   -1.8866    1.3015 C   0  0  0  0  0 15  0  0  0  0  0  0
   46.2880   -1.6136    0.2157 C   0  0  0  0  0 15  0  0  0  0  0  0
   47.4770   -1.7213    0.4725 O   0  0  0  0  0 15  0  0  0  0  0  0
   44.5770   -3.2407    0.9914 C   0  0  0  0  0 15  0  0  0  0  0  0
   43.7500   -3.7896    2.1843 C   0  0  0  0  0 15  0  0  0  0  0  0
   42.8090   -4.9286    1.8432 C   0  0  0  0  0 15  0  0  0  0  0  0
   41.8350   -5.0803    2.5670 O   0  0  0  0  0 15  0  0  0  0  0  0
   43.0370   -5.7507    0.7921 N   0  0  0  0  0 15  0  0  0  0  0  0
   45.8020   -1.9579    2.2691 H   0  0  0  0  0 15  0  0  0  0  0  0
   43.3630   -0.9432    1.3159 H   0  0  0  0  0 15  0  0  0  0  0  0
   45.3550   -3.9780    0.7439 H   0  0  0  0  0 15  0  0  0  0  0  0
   43.9250   -3.1240    0.1121 H   0  0  0  0  0 15  0  0  0  0  0  0
   43.1450   -2.9691    2.5930 H   0  0  0  0  0 15  0  0  0  0  0  0
   44.4330   -4.1236    2.9806 H   0  0  0  0  0 15  0  0  0  0  0  0
   43.8310   -5.6538    0.1916 H   0  0  0  0  0 15  0  0  0  0  0  0
   42.3880   -6.4899    0.6045 H   0  0  0  0  0 15  0  0  0  0  0  0
   45.8211   -1.2256   -0.9908 N   0  0  0  0  0 15  0  0  0  0  0  0
   47.0491   -1.0778   -1.7661 C   0  0  0  0  0 15  0  0  0  0  0  0
   47.4641    0.3715   -1.8511 C   0  0  0  0  0 15  0  0  0  0  0  0
   46.8211    1.2574   -1.3227 O   0  0  0  0  0 15  0  0  0  0  0  0
   46.8721   -1.6851   -3.1982 C   0  0  0  0  0 15  0  0  0  0  0  0
   46.5931   -3.0777   -3.1178 O   0  0  0  0  0 15  0  0  0  0  0  0
   48.0941   -1.5904   -4.1379 C   0  0  0  0  0 15  0  0  0  0  0  0
   45.3141   -0.3777   -0.5546 H   0  0  0  0  0 15  0  0  0  0  0  0
   47.8581   -1.6220   -1.2455 H   0  0  0  0  0 15  0  0  0  0  0  0
   46.0131   -1.1815   -3.6894 H   0  0  0  0  0 15  0  0  0  0  0  0
   46.4271   -3.3706   -4.0186 H   0  0  0  0  0 15  0  0  0  0  0  0
   47.9011   -2.0625   -5.1202 H   0  0  0  0  0 15  0  0  0  0  0  0
   48.3781   -0.5473   -4.3578 H   0  0  0  0  0 15  0  0  0  0  0  0
   48.9841   -2.0871   -3.7057 H   0  0  0  0  0 15  0  0  0  0  0  0
   47.2992    1.1880   -1.0356 N   0  0  0  0  0 15  0  0  0  0  0  0
   48.5242    1.9314   -0.7558 C   0  0  0  0  0 15  0  0  0  0  0  0
   48.9492    1.7537    0.6802 C   0  0  0  0  0 15  0  0  0  0  0  0
   48.3072    1.0605    1.4705 O   0  0  0  0  0 15  0  0  0  0  0  0
   48.3552    3.4275   -1.1206 C   0  0  0  0  0 15  0  0  0  0  0  0
   47.4592    4.1168   -0.2431 O   0  0  0  0  0 15  0  0  0  0  0  0
   46.8002    0.6027   -0.2786 H   0  0  0  0  0 15  0  0  0  0  0  0
   49.3302    1.5068   -1.3841 H   0  0  0  0  0 15  0  0  0  0  0  0
   49.3402    3.9344   -1.0803 H   0  0  0  0  0 15  0  0  0  0  0  0
   48.0152    3.5500   -2.1667 H   0  0  0  0  0 15  0  0  0  0  0  0
   46.5922    3.7132   -0.3425 H   0  0  0  0  0 15  0  0  0  0  0  0
   48.7773    0.8144    1.3493 N   0  0  0  0  0 15  0  0  0  0  0  0
   50.0023    0.4101    2.0331 C   0  0  0  0  0 15  0  0  0  0  0  0
   50.4273   -0.9735    1.6095 C   0  0  0  0  0 15  0  0  0  0  0  0
   49.7853   -1.6318    0.7900 O   0  0  0  0  0 15  0  0  0  0  0  0
   49.8333    0.5105    3.5697 C   0  0  0  0  0 15  0  0  0  0  0  0
   48.9373   -0.4730    4.0968 O   0  0  0  0  0 15  0  0  0  0  0  0
   48.2783    0.1701    0.6418 H   0  0  0  0  0 15  0  0  0  0  0  0
   50.8083    1.1024    1.7236 H   0  0  0  0  0 15  0  0  0  0  0  0
   50.8183    0.3831    4.0620 H   0  0  0  0  0 15  0  0  0  0  0  0
   49.4933    1.5196    3.8714 H   0  0  0  0  0 15  0  0  0  0  0  0
   48.0703   -0.3053    3.7165 H   0  0  0  0  0 15  0  0  0  0  0  0
   50.2554   -1.4699    0.5686 N   0  0  0  0  0 15  0  0  0  0  0  0
   51.6664   -1.8619    0.1382 C   0  0  0  0  0 15  0  0  0  0  0  0
   52.0174   -1.4739   -1.2950 C   0  0  0  0  0 15  0  0  0  0  0  0
   51.1424   -0.8822   -1.9760 O   0  0  0  0  0 15  0  0  0  0  0  0
   51.7374   -3.3792    0.2441 C   0  0  0  0  0 15  0  0  0  0  0  0
   50.2964   -3.7617   -0.1313 C   0  0  0  0  0 15  0  0  0  0  0  0
   49.4434   -2.7103    0.5865 C   0  0  0  0  0 15  0  0  0  0  0  0
   52.3944   -1.3834    0.7776 H   0  0  0  0  0 15  0  0  0  0  0  0
   52.4154   -3.7673   -0.5344 H   0  0  0  0  0 15  0  0  0  0  0  0
   51.9274   -3.6613    1.2873 H   0  0  0  0  0 15  0  0  0  0  0  0
   50.0284   -3.5358   -1.1753 H   0  0  0  0  0 15  0  0  0  0  0  0
   50.1414   -4.7852    0.2351 H   0  0  0  0  0 15  0  0  0  0  0  0
   48.5054   -2.5468    0.0283 H   0  0  0  0  0 15  0  0  0  0  0  0
   49.2884   -3.0208    1.6311 H   0  0  0  0  0 15  0  0  0  0  0  0
   51.7335   -0.3056   -1.5461 N   0  0  0  0  0 15  0  0  0  0  0  0
   52.9585    0.3076   -2.0511 C   0  0  0  0  0 15  0  0  0  0  0  0
   53.3835    1.4639   -1.1812 C   0  0  0  0  0 15  0  0  0  0  0  0
   52.7415    1.8034   -0.1863 O   0  0  0  0  0 15  0  0  0  0  0  0
   52.7895    0.7370   -3.5299 C   0  0  0  0  0 15  0  0  0  0  0  0
   51.8935    1.8413   -3.6901 O   0  0  0  0  0 15  0  0  0  0  0  0
   51.2345    0.0589   -0.6614 H   0  0  0  0  0 15  0  0  0  0  0  0
   53.7645   -0.4488   -1.9962 H   0  0  0  0  0 15  0  0  0  0  0  0
   53.7745    1.0246   -3.9493 H   0  0  0  0  0 15  0  0  0  0  0  0
   52.4495   -0.1088   -4.1576 H   0  0  0  0  0 15  0  0  0  0  0  0
   51.0265    1.5540   -3.3898 H   0  0  0  0  0 15  0  0  0  0  0  0
   53.2116    1.5756   -0.0334 N   0  0  0  0  0 15  0  0  0  0  0  0
   54.1746    2.0939    0.9320 C   0  0  0  0  0 15  0  0  0  0  0  0
   55.1746    1.0099    1.2513 C   0  0  0  0  0 15  0  0  0  0  0  0
   56.3646    1.2713    1.1910 O   0  0  0  0  0 15  0  0  0  0  0  0
   53.4966    2.5634    2.2473 C   0  0  0  0  0 15  0  0  0  0  0  0
   54.6896    2.9598    0.4831 H   0  0  0  0  0 15  0  0  0  0  0  0
   52.2426    1.5482    0.2147 H   0  0  0  0  0 15  0  0  0  0  0  0
   52.9776    1.7309    2.7425 H   0  0  0  0  0 15  0  0  0  0  0  0
   52.7626    3.3554    2.0286 H   0  0  0  0  0 15  0  0  0  0  0  0
   54.2526    2.9665    2.9392 H   0  0  0  0  0 15  0  0  0  0  0  0
   54.6897   -0.2398    1.5577 N   0  0  0  0  0 15  0  0  0  0  0  0
   55.9147   -0.9884    1.8233 C   0  0  0  0  0 15  0  0  0  0  0  0
   56.3397   -1.7789    0.6114 C   0  0  0  0  0 15  0  0  0  0  0  0
   55.6977   -1.7589   -0.4396 O   0  0  0  0  0 15  0  0  0  0  0  0
   55.7457   -1.8963    3.0672 C   0  0  0  0  0 15  0  0  0  0  0  0
   54.8497   -2.9890    2.8413 O   0  0  0  0  0 15  0  0  0  0  0  0
   54.1907   -0.2809    0.6017 H   0  0  0  0  0 15  0  0  0  0  0  0
   56.7207   -0.2586    2.0296 H   0  0  0  0  0 15  0  0  0  0  0  0
   56.7307   -2.3096    3.3634 H   0  0  0  0  0 15  0  0  0  0  0  0
   55.4057   -1.3151    3.9456 H   0  0  0  0  0 15  0  0  0  0  0  0
   53.9827   -2.6165    2.6569 H   0  0  0  0  0 15  0  0  0  0  0  0
   56.1678   -1.4927   -0.5057 N   0  0  0  0  0 15  0  0  0  0  0  0
   57.3928   -1.6248   -1.2890 C   0  0  0  0  0 15  0  0  0  0  0  0
   57.8178   -0.2943   -1.8578 C   0  0  0  0  0 15  0  0  0  0  0  0
   57.1758    0.7374   -1.6563 O   0  0  0  0  0 15  0  0  0  0  0  0
   57.2238   -2.6927   -2.3985 C   0  0  0  0  0 15  0  0  0  0  0  0
   56.3278   -2.2811   -3.4357 O   0  0  0  0  0 15  0  0  0  0  0  0
   55.6688   -0.5440   -0.3808 H   0  0  0  0  0 15  0  0  0  0  0  0
   58.1988   -1.9542   -0.6060 H   0  0  0  0  0 15  0  0  0  0  0  0
   58.2088   -2.9129   -2.8568 H   0  0  0  0  0 15  0  0  0  0  0  0
   56.8838   -3.6585   -1.9781 H   0  0  0  0  0 15  0  0  0  0  0  0
   55.4608   -2.1640   -3.0369 H   0  0  0  0  0 15  0  0  0  0  0  0
   57.6459    0.7564   -1.3826 N   0  0  0  0  0 15  0  0  0  0  0  0
   58.5939    1.8915   -1.3537 C   0  0  0  0  0 15  0  0  0  0  0  0
   59.5879    1.6769   -0.2400 C   0  0  0  0  0 15  0  0  0  0  0  0
   60.7939    1.7529   -0.4089 O   0  0  0  0  0 15  0  0  0  0  0  0
   57.1689    0.6223   -0.4222 H   0  0  0  0  0 15  0  0  0  0  0  0
   59.1399    1.8870   -2.3116 H   0  0  0  0  0 15  0  0  0  0  0  0
   57.8889    3.2660   -1.1928 C   0  0  0  0  0 15  0  0  0  0  0  0
   57.2119    3.4369   -2.0424 H   0  0  0  0  0 15  0  0  0  0  0  0
   58.6519    4.0627   -1.2132 H   0  0  0  0  0 15  0  0  0  0  0  0
   57.1109    3.3675    0.1005 C   0  0  0  0  0 15  0  0  0  0  0  0
   57.6409    3.8695    1.0785 O   0  0  0  0  0 15  0  0  0  0  0  0
   55.8469    2.9018    0.1563 N   0  0  0  0  0 15  0  0  0  0  0  0
   55.3939    2.4952   -0.6403 H   0  0  0  0  0 15  0  0  0  0  0  0
   55.3519    2.9735    1.0212 H   0  0  0  0  0 15  0  0  0  0  0  0
   59.1240    1.2308    0.9843 N   0  0  0  0  0 15  0  0  0  0  0  0
   60.3730    1.0547    1.7193 C   0  0  0  0  0 15  0  0  0  0  0  0
   60.6860   -0.4092    1.9127 C   0  0  0  0  0 15  0  0  0  0  0  0
   61.8920   -0.7052    2.6218 O   0  0  0  0  0 15  0  0  0  0  0  0
   60.3480    1.8387    3.0938 C   0  0  0  0  0 15  0  0  0  0  0  0
   59.9560    3.3457    2.9794 C   0  0  0  0  0 15  0  0  0  0  0  0
   61.7000    1.7473    3.8687 C   0  0  0  0  0 15  0  0  0  0  0  0
   59.6070    4.0538    4.3060 C   0  0  0  0  0 15  0  0  0  0  0  0
   58.5370    0.3910    0.6447 H   0  0  0  0  0 15  0  0  0  0  0  0
   61.1880    1.4701    1.0982 H   0  0  0  0  0 15  0  0  0  0  0  0
   59.5700    1.3513    3.7223 H   0  0  0  0  0 15  0  0  0  0  0  0
   60.7440    3.9077    2.4421 H   0  0  0  0  0 15  0  0  0  0  0  0
   59.0590    3.4448    2.3393 H   0  0  0  0  0 15  0  0  0  0  0  0
   61.6560    2.2496    4.8508 H   0  0  0  0  0 15  0  0  0  0  0  0
   61.9990    0.7094    4.1021 H   0  0  0  0  0 15  0  0  0  0  0  0
   62.5320    2.2107    3.3072 H   0  0  0  0  0 15  0  0  0  0  0  0
   59.2710    5.0947    4.1246 H   0  0  0  0  0 15  0  0  0  0  0  0
   58.7910    3.5397    4.8422 H   0  0  0  0  0 15  0  0  0  0  0  0
   60.4700    4.1146    4.9931 H   0  0  0  0  0 15  0  0  0  0  0  0
   60.6021   -1.1825    1.0419 N   0  0  0  0  0 15  0  0  0  0  0  0
   61.8271   -1.9274    0.7660 C   0  0  0  0  0 15  0  0  0  0  0  0
   62.2521   -1.7573   -0.6709 C   0  0  0  0  0 15  0  0  0  0  0  0
   61.6101   -1.0682   -1.4649 O   0  0  0  0  0 15  0  0  0  0  0  0
   61.6581   -3.4215    1.1387 C   0  0  0  0  0 15  0  0  0  0  0  0
   60.7621   -4.1155    0.2650 O   0  0  0  0  0 15  0  0  0  0  0  0
   60.1031   -0.6012    0.2818 H   0  0  0  0  0 15  0  0  0  0  0  0
   62.6331   -1.4994    1.3921 H   0  0  0  0  0 15  0  0  0  0  0  0
   62.6431   -3.9286    1.1012 H   0  0  0  0  0 15  0  0  0  0  0  0
   61.3181   -3.5385    2.1855 H   0  0  0  0  0 15  0  0  0  0  0  0
   59.8951   -3.7114    0.3622 H   0  0  0  0  0 15  0  0  0  0  0  0
   62.0802   -0.8215   -1.3449 N   0  0  0  0  0 15  0  0  0  0  0  0
   63.3282   -0.4081   -1.9794 C   0  0  0  0  0 15  0  0  0  0  0  0
   63.6492    1.0319   -1.6546 C   0  0  0  0  0 15  0  0  0  0  0  0
   62.9192    1.7162   -0.9446 O   0  0  0  0  0 15  0  0  0  0  0  0
   61.4992   -0.1479   -0.7322 H   0  0  0  0  0 15  0  0  0  0  0  0
   64.1612   -1.0507   -1.6416 H   0  0  0  0  0 15  0  0  0  0  0  0
   63.2572   -0.5260   -3.0764 H   0  0  0  0  0 15  0  0  0  0  0  0
   63.5583    1.4668   -0.5764 N   0  0  0  0  0 15  0  0  0  0  0  0
   64.8063    2.0201   -0.0594 C   0  0  0  0  0 15  0  0  0  0  0  0
   65.1273    1.4510    1.3027 C   0  0  0  0  0 15  0  0  0  0  0  0
   64.3973    0.6333    1.8538 O   0  0  0  0  0 15  0  0  0  0  0  0
   62.9773    0.7468   -0.0190 H   0  0  0  0  0 15  0  0  0  0  0  0
   65.6393    1.7986   -0.7507 H   0  0  0  0  0 15  0  0  0  0  0  0
   64.7353    3.1210    0.0143 H   0  0  0  0  0 15  0  0  0  0  0  0
   65.0364    0.3138    1.5444 N   0  0  0  0  0 15  0  0  0  0  0  0
   66.2854   -0.2925    1.9957 C   0  0  0  0  0 15  0  0  0  0  0  0
   66.5984   -1.5401    1.2058 C   0  0  0  0  0 15  0  0  0  0  0  0
   67.8044   -2.2218    1.5604 O   0  0  0  0  0 15  0  0  0  0  0  0
   66.2604   -0.5718    3.5533 C   0  0  0  0  0 15  0  0  0  0  0  0
   65.8684    0.6582    4.4314 C   0  0  0  0  0 15  0  0  0  0  0  0
   67.6124   -1.1386    4.0895 C   0  0  0  0  0 15  0  0  0  0  0  0
   65.5194    0.3514    5.9035 C   0  0  0  0  0 15  0  0  0  0  0  0
   64.4494   -0.1131    0.7455 H   0  0  0  0  0 15  0  0  0  0  0  0
   67.1004    0.4245    1.7852 H   0  0  0  0  0 15  0  0  0  0  0  0
   65.4824   -1.3487    3.7232 H   0  0  0  0  0 15  0  0  0  0  0  0
   66.6564    1.4340    4.3792 H   0  0  0  0  0 15  0  0  0  0  0  0
   64.9714    1.1446    4.0036 H   0  0  0  0  0 15  0  0  0  0  0  0
   67.5684   -1.3826    5.1652 H   0  0  0  0  0 15  0  0  0  0  0  0
   67.9114   -2.0849    3.6033 H   0  0  0  0  0 15  0  0  0  0  0  0
   68.4444   -0.4230    3.9554 H   0  0  0  0  0 15  0  0  0  0  0  0
   65.1834    1.2667    6.4315 H   0  0  0  0  0 15  0  0  0  0  0  0
   64.7034   -0.3868    5.9855 H   0  0  0  0  0 15  0  0  0  0  0  0
   66.3824   -0.0423    6.4699 H   0  0  0  0  0 15  0  0  0  0  0  0
   66.5145   -1.5754    0.0418 N   0  0  0  0  0 15  0  0  0  0  0  0
   67.7615   -1.9232   -0.6341 C   0  0  0  0  0 15  0  0  0  0  0  0
   68.0895   -0.9193   -1.7140 C   0  0  0  0  0 15  0  0  0  0  0  0
   67.3445    0.0698   -1.9558 O   0  0  0  0  0 15  0  0  0  0  0  0
   67.6435   -3.3379   -1.2774 C   0  0  0  0  0 15  0  0  0  0  0  0
   67.3095   -4.4972   -0.3265 C   0  0  0  0  0 15  0  0  0  0  0  0
   65.9715   -4.8116   -0.0649 C   0  0  0  0  0 15  0  0  0  0  0  0
   68.3235   -5.2018    0.3256 C   0  0  0  0  0 15  0  0  0  0  0  0
   65.6515   -5.8041    0.8565 C   0  0  0  0  0 15  0  0  0  0  0  0
   68.0035   -6.2042    1.2352 C   0  0  0  0  0 15  0  0  0  0  0  0
   66.6675   -6.5030    1.5056 C   0  0  0  0  0 15  0  0  0  0  0  0
   65.9375   -0.7037   -0.2320 H   0  0  0  0  0 15  0  0  0  0  0  0
   68.5845   -1.9120    0.1063 H   0  0  0  0  0 15  0  0  0  0  0  0
   66.8895   -3.3123   -2.0927 H   0  0  0  0  0 15  0  0  0  0  0  0
   68.5865   -3.5797   -1.8071 H   0  0  0  0  0 15  0  0  0  0  0  0
   65.1765   -4.2518   -0.5407 H   0  0  0  0  0 15  0  0  0  0  0  0
   69.3605   -4.9611    0.1365 H   0  0  0  0  0 15  0  0  0  0  0  0
   64.6165   -6.0190    1.0736 H   0  0  0  0  0 15  0  0  0  0  0  0
   68.7905   -6.7414    1.7466 H   0  0  0  0  0 15  0  0  0  0  0  0
   66.4175   -7.2703    2.2212 H   0  0  0  0  0 15  0  0  0  0  0  0
   67.9926    0.2315   -1.5589 N   0  0  0  0  0 15  0  0  0  0  0  0
   68.9226    1.2902   -1.9462 C   0  0  0  0  0 15  0  0  0  0  0  0
   69.9036    1.4941   -0.8131 C   0  0  0  0  0 15  0  0  0  0  0  0
   71.0886    1.6176   -1.0746 O   0  0  0  0  0 15  0  0  0  0  0  0
   68.2186    2.6420   -2.2542 C   0  0  0  0  0 15  0  0  0  0  0  0
   67.1726    2.5848   -3.4113 C   0  0  0  0  0 15  0  0  0  0  0  0
   66.4986    3.9760   -3.5752 C   0  0  0  0  0 15  0  0  0  0  0  0
   67.7986    2.1413   -4.7639 C   0  0  0  0  0 15  0  0  0  0  0  0
   69.4926    0.9686   -2.8330 H   0  0  0  0  0 15  0  0  0  0  0  0
   67.0386    0.4645   -1.3630 H   0  0  0  0  0 15  0  0  0  0  0  0
   68.9916    3.3841   -2.5111 H   0  0  0  0  0 15  0  0  0  0  0  0
   67.7156    2.9803   -1.3358 H   0  0  0  0  0 15  0  0  0  0  0  0
   66.3746    1.8673   -3.1548 H   0  0  0  0  0 15  0  0  0  0  0  0
   66.0226    4.2872   -2.6307 H   0  0  0  0  0 15  0  0  0  0  0  0
   65.7226    3.9466   -4.3534 H   0  0  0  0  0 15  0  0  0  0  0  0
   67.2466    4.7349   -3.8554 H   0  0  0  0  0 15  0  0  0  0  0  0
   68.6606    2.7808   -5.0134 H   0  0  0  0  0 15  0  0  0  0  0  0
   67.0576    2.2227   -5.5742 H   0  0  0  0  0 15  0  0  0  0  0  0
   68.1276    1.0933   -4.7241 H   0  0  0  0  0 15  0  0  0  0  0  0
   69.4707    1.4953    0.4978 N   0  0  0  0  0 15  0  0  0  0  0  0
   70.7177    1.5918    1.2517 C   0  0  0  0  0 15  0  0  0  0  0  0
   71.0457    0.2799    1.9248 C   0  0  0  0  0 15  0  0  0  0  0  0
   70.3007   -0.7324    1.8148 O   0  0  0  0  0 15  0  0  0  0  0  0
   70.5997    2.7025    2.3388 C   0  0  0  0  0 15  0  0  0  0  0  0
   70.2657    4.1164    1.8401 C   0  0  0  0  0 15  0  0  0  0  0  0
   68.9277    4.5012    1.7013 C   0  0  0  0  0 15  0  0  0  0  0  0
   71.2797    5.0012    1.4672 C   0  0  0  0  0 15  0  0  0  0  0  0
   68.6077    5.7484    1.1735 C   0  0  0  0  0 15  0  0  0  0  0  0
   70.9597    6.2537    0.9539 C   0  0  0  0  0 15  0  0  0  0  0  0
   69.6237    6.6267    0.8015 C   0  0  0  0  0 15  0  0  0  0  0  0
   68.8937    0.5825    0.4580 H   0  0  0  0  0 15  0  0  0  0  0  0
   71.5407    1.8337    0.5519 H   0  0  0  0  0 15  0  0  0  0  0  0
   69.8457    2.4004    3.0966 H   0  0  0  0  0 15  0  0  0  0  0  0
   71.5427    2.7492    2.9192 H   0  0  0  0  0 15  0  0  0  0  0  0
   68.1327    3.8127    1.9578 H   0  0  0  0  0 15  0  0  0  0  0  0
   72.3167    4.7105    1.5629 H   0  0  0  0  0 15  0  0  0  0  0  0
   67.5727    6.0244    1.0426 H   0  0  0  0  0 15  0  0  0  0  0  0
   71.7467    6.9330    0.6562 H   0  0  0  0  0 15  0  0  0  0  0  0
   69.3737    7.5920    0.3904 H   0  0  0  0  0 15  0  0  0  0  0  0
   70.9488   -0.7491    1.3866 N   0  0  0  0  0 15  0  0  0  0  0  0
   72.1958   -1.5083    1.3511 C   0  0  0  0  0 15  0  0  0  0  0  0
   72.5238   -1.9442   -0.0574 C   0  0  0  0  0 15  0  0  0  0  0  0
   71.7788   -1.6607   -1.0354 O   0  0  0  0  0 15  0  0  0  0  0  0
   72.0778   -2.7712    2.2570 C   0  0  0  0  0 15  0  0  0  0  0  0
   71.7438   -2.5248    3.7359 C   0  0  0  0  0 15  0  0  0  0  0  0
   70.4058   -2.4547    4.1388 C   0  0  0  0  0 15  0  0  0  0  0  0
   72.7578   -2.3107    4.6718 C   0  0  0  0  0 15  0  0  0  0  0  0
   70.0858   -2.1506    5.4586 C   0  0  0  0  0 15  0  0  0  0  0  0
   72.4378   -2.0218    5.9942 C   0  0  0  0  0 15  0  0  0  0  0  0
   71.1018   -1.9363    6.3880 C   0  0  0  0  0 15  0  0  0  0  0  0
   70.3718   -0.5519    0.4944 H   0  0  0  0  0 15  0  0  0  0  0  0
   73.0188   -0.8610    1.7105 H   0  0  0  0  0 15  0  0  0  0  0  0
   71.3238   -3.4653    1.8283 H   0  0  0  0  0 15  0  0  0  0  0  0
   73.0208   -3.3510    2.2025 H   0  0  0  0  0 15  0  0  0  0  0  0
   69.6108   -2.5881    3.4164 H   0  0  0  0  0 15  0  0  0  0  0  0
   73.7948   -2.3546    4.3689 H   0  0  0  0  0 15  0  0  0  0  0  0
   69.0508   -2.0695    5.7531 H   0  0  0  0  0 15  0  0  0  0  0  0
   73.2248   -1.8462    6.7148 H   0  0  0  0  0 15  0  0  0  0  0  0
   70.8518   -1.6984    7.4099 H   0  0  0  0  0 15  0  0  0  0  0  0
   72.4269   -1.2360   -0.9778 N   0  0  0  0  0 15  0  0  0  0  0  0
   73.6729   -1.0713   -1.7220 C   0  0  0  0  0 15  0  0  0  0  0  0
   74.0059    0.3905   -1.9023 C   0  0  0  0  0 15  0  0  0  0  0  0
   73.2809    1.2890   -1.4565 O   0  0  0  0  0 15  0  0  0  0  0  0
   73.5639   -1.8003   -3.1187 C   0  0  0  0  0 15  0  0  0  0  0  0
   73.4169   -3.3390   -3.0138 C   0  0  0  0  0 15  0  0  0  0  0  0
   74.7359   -1.5649   -4.1134 C   0  0  0  0  0 15  0  0  0  0  0  0
   71.8549   -0.3906   -0.6250 H   0  0  0  0  0 15  0  0  0  0  0  0
   74.4969   -1.5214   -1.1381 H   0  0  0  0  0 15  0  0  0  0  0  0
   72.6469   -1.4177   -3.6171 H   0  0  0  0  0 15  0  0  0  0  0  0
   74.3189   -3.8170   -2.5904 H   0  0  0  0  0 15  0  0  0  0  0  0
   72.5619   -3.6280   -2.3783 H   0  0  0  0  0 15  0  0  0  0  0  0
   73.2329   -3.8010   -4.0029 H   0  0  0  0  0 15  0  0  0  0  0  0
   75.7089   -1.8976   -3.7031 H   0  0  0  0  0 15  0  0  0  0  0  0
   74.5849   -2.0997   -5.0715 H   0  0  0  0  0 15  0  0  0  0  0  0
   74.8459   -0.5009   -4.3925 H   0  0  0  0  0 15  0  0  0  0  0  0
   73.9050    1.1769   -1.0482 N   0  0  0  0  0 15  0  0  0  0  0  0
   74.8680    2.1979   -0.6501 C   0  0  0  0  0 15  0  0  0  0  0  0
   75.8680    1.5804    0.2964 C   0  0  0  0  0 15  0  0  0  0  0  0
   77.0580    1.7401    0.0808 O   0  0  0  0  0 15  0  0  0  0  0  0
   74.1900    3.4087    0.0457 C   0  0  0  0  0 15  0  0  0  0  0  0
   75.3830    2.5652   -1.5537 H   0  0  0  0  0 15  0  0  0  0  0  0
   72.9360    1.3171   -0.8416 H   0  0  0  0  0 15  0  0  0  0  0  0
   73.6710    3.0968    0.9627 H   0  0  0  0  0 15  0  0  0  0  0  0
   73.4560    3.8693   -0.6347 H   0  0  0  0  0 15  0  0  0  0  0  0
   74.9460    4.1644    0.3104 H   0  0  0  0  0 15  0  0  0  0  0  0
   75.3831    0.8287    1.3406 N   0  0  0  0  0 15  0  0  0  0  0  0
   76.3311    0.2430    2.3133 C   0  0  0  0  0 15  0  0  0  0  0  0
   77.3251   -0.6194    1.5767 C   0  0  0  0  0 15  0  0  0  0  0  0
   78.5311   -0.5101    1.7262 O   0  0  0  0  0 15  0  0  0  0  0  0
   74.9061    0.0598    0.7496 H   0  0  0  0  0 15  0  0  0  0  0  0
   76.8771    1.0781    2.7824 H   0  0  0  0  0 15  0  0  0  0  0  0
   75.6261   -0.5757    3.4290 C   0  0  0  0  0 15  0  0  0  0  0  0
   74.9491    0.0786    3.9972 H   0  0  0  0  0 15  0  0  0  0  0  0
   76.3891   -0.9515    4.1318 H   0  0  0  0  0 15  0  0  0  0  0  0
   74.8481   -1.7504    2.8786 C   0  0  0  0  0 15  0  0  0  0  0  0
   75.3781   -2.8488    2.8321 O   0  0  0  0  0 15  0  0  0  0  0  0
   73.5841   -1.5690    2.4460 N   0  0  0  0  0 15  0  0  0  0  0  0
   73.1311   -0.6755    2.4858 H   0  0  0  0  0 15  0  0  0  0  0  0
   73.0891   -2.3565    2.0812 H   0  0  0  0  0 15  0  0  0  0  0  0
   76.8612   -1.4637    0.5841 N   0  0  0  0  0 15  0  0  0  0  0  0
   77.8242   -2.2878   -0.1381 C   0  0  0  0  0 15  0  0  0  0  0  0
   78.8242   -1.3847   -0.8175 C   0  0  0  0  0 15  0  0  0  0  0  0
   80.0142   -1.6083   -0.6692 O   0  0  0  0  0 15  0  0  0  0  0  0
   77.1462   -3.1889   -1.2050 C   0  0  0  0  0 15  0  0  0  0  0  0
   78.3392   -2.9412    0.5861 H   0  0  0  0  0 15  0  0  0  0  0  0
   75.8922   -1.5251    0.3422 H   0  0  0  0  0 15  0  0  0  0  0  0
   76.6272   -2.5831   -1.9608 H   0  0  0  0  0 15  0  0  0  0  0  0
   76.4122   -3.8539   -0.7224 H   0  0  0  0  0 15  0  0  0  0  0  0
   77.9022   -3.8091   -1.7115 H   0  0  0  0  0 15  0  0  0  0  0  0
   78.3393   -0.3220   -1.5428 N   0  0  0  0  0 15  0  0  0  0  0  0
   79.5883    0.2819   -1.9972 C   0  0  0  0  0 15  0  0  0  0  0  0
   79.9013    1.5337   -1.2140 C   0  0  0  0  0 15  0  0  0  0  0  0
   81.1073    2.2135   -1.5721 O   0  0  0  0  0 15  0  0  0  0  0  0
   79.5633    0.5529   -3.5563 C   0  0  0  0  0 15  0  0  0  0  0  0
   79.1713   -0.6817   -4.4278 C   0  0  0  0  0 15  0  0  0  0  0  0
   80.9153    1.1169   -4.0954 C   0  0  0  0  0 15  0  0  0  0  0  0
   78.8223   -0.3827   -5.9016 C   0  0  0  0  0 15  0  0  0  0  0  0
   77.7523    0.1091   -0.7461 H   0  0  0  0  0 15  0  0  0  0  0  0
   80.4033   -0.4340   -1.7829 H   0  0  0  0  0 15  0  0  0  0  0  0
   78.7853    1.3290   -3.7303 H   0  0  0  0  0 15  0  0  0  0  0  0
   79.9593   -1.4572   -4.3715 H   0  0  0  0  0 15  0  0  0  0  0  0
   78.2743   -1.1658   -3.9975 H   0  0  0  0  0 15  0  0  0  0  0  0
   80.8713    1.3552   -5.1724 H   0  0  0  0  0 15  0  0  0  0  0  0
   81.2143    2.0658   -3.6143 H   0  0  0  0  0 15  0  0  0  0  0  0
   81.7473    0.4020   -3.9576 H   0  0  0  0  0 15  0  0  0  0  0  0
   78.4863   -1.3008   -6.4246 H   0  0  0  0  0 15  0  0  0  0  0  0
   78.0063    0.3551   -5.9875 H   0  0  0  0  0 15  0  0  0  0  0  0
   79.6853    0.0080   -6.4700 H   0  0  0  0  0 15  0  0  0  0  0  0
   79.8174    1.5752   -0.0501 N   0  0  0  0  0 15  0  0  0  0  0  0
   81.0664    1.9183    0.6233 C   0  0  0  0  0 15  0  0  0  0  0  0
   81.3794    0.9302    1.7206 C   0  0  0  0  0 15  0  0  0  0  0  0
   82.5854    1.1653    2.4522 O   0  0  0  0  0 15  0  0  0  0  0  0
   81.0414    3.4069    1.1600 C   0  0  0  0  0 15  0  0  0  0  0  0
   80.6494    4.4790    0.0949 C   0  0  0  0  0 15  0  0  0  0  0  0
   82.3934    3.8403    1.8088 C   0  0  0  0  0 15  0  0  0  0  0  0
   80.3004    5.8788    0.6444 C   0  0  0  0  0 15  0  0  0  0  0  0
   79.2304    0.7159    0.2366 H   0  0  0  0  0 15  0  0  0  0  0  0
   81.8814    1.8311   -0.1189 H   0  0  0  0  0 15  0  0  0  0  0  0
   80.2634    3.4441    1.9545 H   0  0  0  0  0 15  0  0  0  0  0  0
   81.4374    4.5577   -0.6787 H   0  0  0  0  0 15  0  0  0  0  0  0
   79.7524    4.1389   -0.4564 H   0  0  0  0  0 15  0  0  0  0  0  0
   82.3494    4.8598    2.2299 H   0  0  0  0  0 15  0  0  0  0  0  0
   82.6924    3.2023    2.6601 H   0  0  0  0  0 15  0  0  0  0  0  0
   83.2254    3.8283    1.0809 H   0  0  0  0  0 15  0  0  0  0  0  0
   79.9644    6.5528   -0.1692 H   0  0  0  0  0 15  0  0  0  0  0  0
   79.4844    5.8357    1.3860 H   0  0  0  0  0 15  0  0  0  0  0  0
   81.1634    6.3710    1.1276 H   0  0  0  0  0 15  0  0  0  0  0  0
   81.2955   -0.2232    1.5601 N   0  0  0  0  0 15  0  0  0  0  0  0
   82.2455   -1.2801    1.8867 C   0  0  0  0  0 15  0  0  0  0  0  0
   83.2295   -1.4237    0.7497 C   0  0  0  0  0 15  0  0  0  0  0  0
   84.4215   -1.4521    1.0120 O   0  0  0  0  0 15  0  0  0  0  0  0
   81.5505   -2.6308    2.2055 C   0  0  0  0  0 15  0  0  0  0  0  0
   80.6365   -2.5263    3.4064 C   0  0  0  0  0 15  0  0  0  0  0  0
   81.0275   -2.1183    4.5931 N   0  0  0  0  0 15  0  0  0  0  0  0
   79.3255   -2.8359    3.4422 C   0  0  0  0  0 15  0  0  0  0  0  0
   80.0265   -2.1259    5.4146 C   0  0  0  0  0 15  0  0  0  0  0  0
   79.0025   -2.5301    4.8113 N   0  0  0  0  0 15  0  0  0  0  0  0
   82.8045   -0.9555    2.7793 H   0  0  0  0  0 15  0  0  0  0  0  0
   80.3185   -0.4318    1.5655 H   0  0  0  0  0 15  0  0  0  0  0  0
   82.3155   -3.3939    2.4212 H   0  0  0  0  0 15  0  0  0  0  0  0
   80.9755   -2.9639    1.3260 H   0  0  0  0  0 15  0  0  0  0  0  0
   81.9865   -1.8299    4.8450 H   0  0  0  0  0 15  0  0  0  0  0  0
   78.6635   -3.2128    2.6661 H   0  0  0  0  0 15  0  0  0  0  0  0
   80.0535   -1.8318    6.4645 H   0  0  0  0  0 15  0  0  0  0  0  0
   82.7736   -1.4979   -0.4899 N   0  0  0  0  0 15  0  0  0  0  0  0
   83.7036   -1.7020   -1.5986 C   0  0  0  0  0 15  0  0  0  0  0  0
   84.6846   -0.5508   -1.6094 C   0  0  0  0  0 15  0  0  0  0  0  0
   85.8696   -0.7878   -1.7750 O   0  0  0  0  0 15  0  0  0  0  0  0
   82.9996   -1.7788   -2.9829 C   0  0  0  0  0 15  0  0  0  0  0  0
   81.9536   -2.9291   -3.1207 C   0  0  0  0  0 15  0  0  0  0  0  0
   81.2796   -2.8571   -4.5197 C   0  0  0  0  0 15  0  0  0  0  0  0
   82.5796   -4.3369   -2.9105 C   0  0  0  0  0 15  0  0  0  0  0  0
   84.2736   -2.6303   -1.4303 H   0  0  0  0  0 15  0  0  0  0  0  0
   81.8196   -1.2657   -0.6867 H   0  0  0  0  0 15  0  0  0  0  0  0
   83.7726   -1.9074   -3.7576 H   0  0  0  0  0 15  0  0  0  0  0  0
   82.4966   -0.8167   -3.1623 H   0  0  0  0  0 15  0  0  0  0  0  0
   81.1556   -2.7967   -2.3703 H   0  0  0  0  0 15  0  0  0  0  0  0
   80.8036   -1.8738   -4.6680 H   0  0  0  0  0 15  0  0  0  0  0  0
   80.5036   -3.6292   -4.6213 H   0  0  0  0  0 15  0  0  0  0  0  0
   82.0276   -3.0060   -5.3148 H   0  0  0  0  0 15  0  0  0  0  0  0
   83.4416   -4.4756   -3.5828 H   0  0  0  0  0 15  0  0  0  0  0  0
   81.8386   -5.1221   -3.1268 H   0  0  0  0  0 15  0  0  0  0  0  0
   82.9086   -4.4736   -1.8707 H   0  0  0  0  0 15  0  0  0  0  0  0
   84.2517    0.7417   -1.3905 N   0  0  0  0  0 15  0  0  0  0  0  0
   85.4987    1.5011   -1.3591 C   0  0  0  0  0 15  0  0  0  0  0  0
   85.8267    1.9444    0.0471 C   0  0  0  0  0 15  0  0  0  0  0  0
   85.0817    1.6661    1.0266 O   0  0  0  0  0 15  0  0  0  0  0  0
   85.3807    2.7592   -2.2716 C   0  0  0  0  0 15  0  0  0  0  0  0
   85.0467    2.5049   -3.7492 C   0  0  0  0  0 15  0  0  0  0  0  0
   83.7087    2.4327   -4.1518 C   0  0  0  0  0 15  0  0  0  0  0  0
   86.0607    2.2858   -4.6840 C   0  0  0  0  0 15  0  0  0  0  0  0
   83.3887    2.1217   -5.4699 C   0  0  0  0  0 15  0  0  0  0  0  0
   85.7407    1.9900   -6.0048 C   0  0  0  0  0 15  0  0  0  0  0  0
   84.4047    1.9024   -6.3982 C   0  0  0  0  0 15  0  0  0  0  0  0
   83.6747    0.5493   -0.4973 H   0  0  0  0  0 15  0  0  0  0  0  0
   86.3217    0.8519   -1.7151 H   0  0  0  0  0 15  0  0  0  0  0  0
   84.6267    3.4555   -1.8466 H   0  0  0  0  0 15  0  0  0  0  0  0
   86.3237    3.3392   -2.2203 H   0  0  0  0  0 15  0  0  0  0  0  0
   82.9137    2.5699   -3.4301 H   0  0  0  0  0 15  0  0  0  0  0  0
   87.0977    2.3314   -4.3813 H   0  0  0  0  0 15  0  0  0  0  0  0
   82.3537    2.0390   -5.7640 H   0  0  0  0  0 15  0  0  0  0  0  0
   86.5277    1.8106   -6.7245 H   0  0  0  0  0 15  0  0  0  0  0  0
   84.1547    1.6591   -7.4188 H   0  0  0  0  0 15  0  0  0  0  0  0
   85.7298    1.2412    0.9712 N   0  0  0  0  0 15  0  0  0  0  0  0
   86.9698    1.0907    1.7287 C   0  0  0  0  0 15  0  0  0  0  0  0
   87.3338   -0.3648    1.8850 C   0  0  0  0  0 15  0  0  0  0  0  0
   88.5348   -0.6367    2.6115 O   0  0  0  0  0 15  0  0  0  0  0  0
   86.8058    1.8063    3.0840 C   0  0  0  0  0 15  0  0  0  0  0  0
   88.3648    1.8126    3.9961 S   0  0  0  0  0 15  0  0  0  0  0  0
   85.1828    0.3901    0.5944 H   0  0  0  0  0 15  0  0  0  0  0  0
   87.7848    1.5740    1.1596 H   0  0  0  0  0 15  0  0  0  0  0  0
   86.4888    2.8565    2.9468 H   0  0  0  0  0 15  0  0  0  0  0  0
   86.0198    1.3262    3.7037 H   0  0  0  0  0 15  0  0  0  0  0  0
   88.0348    0.8778    4.8837 H   0  0  0  0  0 15  0  0  0  0  0  0
   87.2079   -1.1713    1.0544 N   0  0  0  0  0 15  0  0  0  0  0  0
   88.4549   -1.8746    0.7659 C   0  0  0  0  0 15  0  0  0  0  0  0
   88.7829   -1.8119   -0.7072 C   0  0  0  0  0 15  0  0  0  0  0  0
   88.0379   -1.2163   -1.5331 O   0  0  0  0  0 15  0  0  0  0  0  0
   88.3369   -3.3683    1.1949 C   0  0  0  0  0 15  0  0  0  0  0  0
   88.0029   -3.6330    2.6706 C   0  0  0  0  0 15  0  0  0  0  0  0
   86.6649   -3.7023    3.0738 C   0  0  0  0  0 15  0  0  0  0  0  0
   89.0169   -3.7457    3.6241 C   0  0  0  0  0 15  0  0  0  0  0  0
   86.3449   -3.8593    4.4190 C   0  0  0  0  0 15  0  0  0  0  0  0
   88.6969   -3.9179    4.9667 C   0  0  0  0  0 15  0  0  0  0  0  0
   87.3609   -3.9697    5.3663 C   0  0  0  0  0 15  0  0  0  0  0  0
   86.6309   -0.6859    0.2803 H   0  0  0  0  0 15  0  0  0  0  0  0
   89.2779   -1.3856    1.3219 H   0  0  0  0  0 15  0  0  0  0  0  0
   87.5829   -3.8781    0.5580 H   0  0  0  0  0 15  0  0  0  0  0  0
   89.2799   -3.8961    0.9489 H   0  0  0  0  0 15  0  0  0  0  0  0
   85.8699   -3.5853    2.3485 H   0  0  0  0  0 15  0  0  0  0  0  0
   90.0539   -3.6854    3.3241 H   0  0  0  0  0 15  0  0  0  0  0  0
   85.3099   -3.8819    4.7236 H   0  0  0  0  0 15  0  0  0  0  0  0
   89.4839   -3.9946    5.7044 H   0  0  0  0  0 15  0  0  0  0  0  0
   87.1109   -4.0888    6.4087 H   0  0  0  0  0 15  0  0  0  0  0  0
   88.6860   -0.8358   -1.3361 N   0  0  0  0  0 15  0  0  0  0  0  0
   89.9110   -0.4424   -2.0263 C   0  0  0  0  0 15  0  0  0  0  0  0
   90.3360    0.9477   -1.6248 C   0  0  0  0  0 15  0  0  0  0  0  0
   89.6940    1.6191   -0.8158 O   0  0  0  0  0 15  0  0  0  0  0  0
   89.7420   -0.5672   -3.5611 C   0  0  0  0  0 15  0  0  0  0  0  0
   88.8460    0.4078   -4.1038 O   0  0  0  0  0 15  0  0  0  0  0  0
   88.1870   -0.1803   -0.6391 H   0  0  0  0  0 15  0  0  0  0  0  0
   90.7170   -1.1297   -1.7058 H   0  0  0  0  0 15  0  0  0  0  0  0
   90.7270   -0.4477   -4.0554 H   0  0  0  0  0 15  0  0  0  0  0  0
   89.4020   -1.5810   -3.8468 H   0  0  0  0  0 15  0  0  0  0  0  0
   87.9790    0.2461   -3.7209 H   0  0  0  0  0 15  0  0  0  0  0  0
   90.2030    1.4393   -0.7325 O   0  0  0  0  0 15  0  0  0  0  0  0
   90.8940    1.9162   -0.2832 H   0  0  0  0  0 15  0  0  0  0  0  0
M  END
$$$$
