drugbank_target|P31323 cAMP-dependent protein kinase type II-beta regulatory subunit (DB02527)
 OpenBabel12092120543D

  0  0  0     0  0            999 V3000
M  V30 BEGIN CTAB
M  V30 COUNTS 6418 6472 0 0 0
M  V30 BEGIN ATOM
M  V30 1 H -0.908 1.98254 -0.117106 0
M  V30 2 N 0 1.576 0 0
M  V30 3 C 0.933 2.03868 1.02534 0
M  V30 4 C 1.911 0.928543 1.3348 0
M  V30 5 O 3.095 1.19667 1.45644 0
M  V30 6 C 0.222 2.43627 2.35294 0
M  V30 7 C -0.732 3.65373 2.2001 0
M  V30 8 S 0.101 5.13292 1.52614 0
M  V30 9 C 1.257 5.56322 2.86805 0
M  V30 10 H 1.49 2.90518 0.631377 0
M  V30 11 H -0.977 1.52953 0.210867 0
M  V30 12 H 0.981 2.67203 3.11629 0
M  V30 13 H -0.358 1.57376 2.7183 0
M  V30 14 H -1.165 3.90944 3.18086 0
M  V30 15 H -1.563 3.418 1.51819 0
M  V30 16 H 0.729 5.58782 3.83104 0
M  V30 17 H 1.672 6.56266 2.65933 0
M  V30 18 H 2.08 4.83886 2.90714 0
M  V30 19 N 1.4781 -0.272755 1.55222 0
M  V30 20 C 2.7031 -1.02683 1.80197 0
M  V30 21 C 3.1281 -1.79142 0.573551 0
M  V30 22 O 2.4861 -1.74917 -0.476849 0
M  V30 23 C 2.5341 -1.9609 3.02624 0
M  V30 24 O 1.6381 -3.04863 2.77727 0
M  V30 25 H 0.9791 -0.293557 0.595584 0
M  V30 26 H 3.5091 -0.30159 2.02365 0
M  V30 27 H 3.5191 -2.38039 3.31363 0
M  V30 28 H 2.1941 -1.39851 3.91682 0
M  V30 29 H 0.7711 -2.67228 2.60084 0
M  V30 30 N 2.9562 -1.48159 -0.537278 0
M  V30 31 C 4.2052 -1.5506 -1.28993 0
M  V30 32 C 4.5182 -0.226211 -1.94288 0
M  V30 33 O 5.7242 -0.173395 -2.70946 0
M  V30 34 C 4.1802 -2.73429 -2.34018 0
M  V30 35 C 3.7882 -4.1248 -1.74825 0
M  V30 36 C 5.5322 -2.89638 -3.10339 0
M  V30 37 C 3.4392 -5.22121 -2.77747 0
M  V30 38 H 2.3692 -0.577231 -0.485098 0
M  V30 39 H 5.0202 -1.74478 -0.568317 0
M  V30 40 H 3.4022 -2.47431 -3.09182 0
M  V30 41 H 4.5762 -4.48466 -1.05899 0
M  V30 42 H 2.8912 -4.01327 -1.11022 0
M  V30 43 H 5.4882 -3.68718 -3.87235 0
M  V30 44 H 5.8312 -1.9882 -3.65754 0
M  V30 45 H 6.3642 -3.15502 -2.42288 0
M  V30 46 H 3.1032 -6.1488 -2.27161 0
M  V30 47 H 2.6232 -4.90631 -3.45024 0
M  V30 48 H 4.3022 -5.49924 -3.4087 0
M  V30 49 N 4.4343 0.785586 -1.36625 0
M  V30 50 C 5.3443 1.92964 -1.33425 0
M  V30 51 C 6.3603 1.72394 -0.235851 0
M  V30 52 O 7.5363 1.95866 -0.468878 0
M  V30 53 C 4.6013 3.27884 -1.12662 0
M  V30 54 C 3.6623 3.61204 -2.32013 0
M  V30 55 C 2.8953 4.89687 -2.12231 0
M  V30 56 O 3.1183 5.59704 -1.09945 0
M  V30 57 O 2.0523 5.21752 -3.00098 0
M  V30 58 H 5.8783 1.98613 -2.29753 0
M  V30 59 H 3.4633 0.926384 -1.17211 0
M  V30 60 H 5.3453 4.08614 -1.03016 0
M  V30 61 H 4.0203 3.23118 -0.193991 0
M  V30 62 H 2.9273 2.80765 -2.47228 0
M  V30 63 H 4.2603 3.70698 -3.23796 0
M  V30 64 N 5.9124 1.20967 1.01018 0
M  V30 65 C 7.1614 1.01796 1.74128 0
M  V30 66 C 7.4744 -0.449691 1.90361 0
M  V30 67 O 8.6804 -0.76068 2.60626 0
M  V30 68 C 7.1364 1.7727 3.13215 0
M  V30 69 C 6.7444 3.28171 3.04972 0
M  V30 70 C 8.4884 1.66489 3.90489 0
M  V30 71 C 6.3954 3.96156 4.39107 0
M  V30 72 H 5.3254 0.377276 0.652824 0
M  V30 73 H 7.9764 1.44651 1.12909 0
M  V30 74 H 6.3584 1.27205 3.75013 0
M  V30 75 H 7.5324 3.85499 2.52443 0
M  V30 76 H 5.8474 3.39437 2.41188 0
M  V30 77 H 8.4444 2.14617 4.89738 0
M  V30 78 H 8.7874 0.6222 4.11624 0
M  V30 79 H 9.3204 2.14003 3.35332 0
M  V30 80 H 6.0594 5.00604 4.23174 0
M  V30 81 H 5.5794 3.43617 4.91617 0
M  V30 82 H 7.2584 4.00774 5.07926 0
M  V30 83 N 7.3905 -1.2043 1.01659 0
M  V30 84 C 8.8015 -1.71517 0.737482 0
M  V30 85 C 9.1525 -1.81547 -0.743973 0
M  V30 86 O 8.2775 -1.47803 -1.58061 0
M  V30 87 C 8.8725 -3.11515 1.33206 0
M  V30 88 C 7.4315 -3.59912 1.10183 0
M  V30 89 C 6.5785 -2.37116 1.43776 0
M  V30 90 H 9.5295 -1.05444 1.18606 0
M  V30 91 H 9.5505 -3.73575 0.722636 0
M  V30 92 H 9.0625 -3.04182 2.41028 0
M  V30 93 H 7.1635 -3.72577 0.0412756 0
M  V30 94 H 7.2765 -4.44731 1.78188 0
M  V30 95 H 5.6405 -2.39857 0.856778 0
M  V30 96 H 6.4235 -2.32424 2.52654 0
M  V30 97 N 8.8686 -0.792821 -1.36206 0
M  V30 98 C 9.8316 -0.199459 -2.2833 0
M  V30 99 C 10.8316 0.605189 -1.48977 0
M  V30 100 O 12.0216 0.425685 -1.68919 0
M  V30 101 C 9.1536 0.723523 -3.33134 0
M  V30 102 H 10.3466 -1.01181 -2.82316 0
M  V30 103 H 7.8996 -0.562485 -1.45828 0
M  V30 104 H 8.6346 1.56008 -2.84309 0
M  V30 105 H 8.4196 0.148436 -3.91819 0
M  V30 106 H 9.9096 1.13344 -4.01924 0
M  V30 107 N 10.3467 1.47872 -0.545128 0
M  V30 108 C 11.5947 2.02093 -0.016553 0
M  V30 109 C 11.9157 1.42305 1.3332 0
M  V30 110 O 11.1857 0.593853 1.86682 0
M  V30 111 H 9.7657 0.746993 -0.00313038 0
M  V30 112 H 12.4277 1.81414 -0.712397 0
M  V30 113 H 11.5237 3.11996 0.0805422 0
M  V30 114 N 11.8248 0.280983 1.55075 0
M  V30 115 C 12.7548 -0.597469 2.25727 0
M  V30 116 C 13.7358 -1.15417 1.24952 0
M  V30 117 O 14.9208 -1.18722 1.53684 0
M  V30 118 C 12.0508 -1.7789 2.98283 0
M  V30 119 C 11.0048 -1.35347 4.06036 0
M  V30 120 C 10.3308 -2.61846 4.66198 0
M  V30 121 C 11.6308 -0.499354 5.19907 0
M  V30 122 H 13.3248 -0.00824265 2.99399 0
M  V30 123 H 10.8708 -0.0025244 1.44 0
M  V30 124 H 12.8238 -2.39937 3.46422 0
M  V30 125 H 11.5478 -2.39405 2.22155 0
M  V30 126 H 10.2068 -0.756156 3.58717 0
M  V30 127 H 9.8548 -3.21632 3.86732 0
M  V30 128 H 9.5548 -2.3409 5.38958 0
M  V30 129 H 11.0788 -3.24732 5.1709 0
M  V30 130 H 12.4928 -1.02498 5.64063 0
M  V30 131 H 10.8898 -0.316424 5.99265 0
M  V30 132 H 11.9598 0.480459 4.82514 0
M  V30 133 N 13.3029 -1.57598 0.00835791 0
M  V30 134 C 14.5309 -1.95214 -0.68549 0
M  V30 135 C 14.9459 -0.883706 -1.66841 0
M  V30 136 O 14.3029 0.136565 -1.81988 0
M  V30 137 C 14.3539 -3.32865 -1.41007 0
M  V30 138 O 14.0749 -4.35609 -0.466552 0
M  V30 139 C 15.5759 -3.84991 -2.19765 0
M  V30 140 H 12.7959 -0.643422 -0.190392 0
M  V30 141 H 15.3399 -2.04406 0.0619607 0
M  V30 142 H 13.4949 -3.24956 -2.10908 0
M  V30 143 H 13.9089 -5.15288 -0.978699 0
M  V30 144 H 15.3829 -4.8371 -2.65948 0
M  V30 145 H 15.8599 -3.18137 -3.02796 0
M  V30 146 H 16.4659 -3.96103 -1.54864 0
M  V30 147 N 14.781 0.264519 -1.55364 0
M  V30 148 C 15.691 1.34902 -1.91934 0
M  V30 149 C 16.707 1.53595 -0.817593 0
M  V30 150 O 17.883 1.67558 -1.11742 0
M  V30 151 C 14.948 2.68676 -2.19121 0
M  V30 152 C 14.009 2.58657 -3.4263 0
M  V30 153 C 13.242 3.86051 -3.68511 0
M  V30 154 O 13.465 4.87126 -2.96757 0
M  V30 155 O 12.399 3.85744 -4.62045 0
M  V30 156 H 16.225 1.06883 -2.8427 0
M  V30 157 H 13.81 0.463775 -1.42019 0
M  V30 158 H 15.692 3.47759 -2.37995 0
M  V30 159 H 14.367 2.96463 -1.29966 0
M  V30 160 H 13.274 1.7792 -3.29082 0
M  V30 161 H 14.607 2.35818 -4.32031 0
M  V30 162 N 16.2591 1.48442 0.529413 0
M  V30 163 C 17.1891 1.65902 1.64313 0
M  V30 164 C 18.1701 0.507897 1.6234 0
M  V30 165 O 19.3551 0.740503 1.79528 0
M  V30 166 C 16.4851 1.69911 3.02898 0
M  V30 167 C 15.4391 2.8453 3.19729 0
M  V30 168 C 14.7651 2.73629 4.59381 0
M  V30 169 C 16.0651 4.25821 3.02447 0
M  V30 170 H 17.7591 2.5914 1.49955 0
M  V30 171 H 15.3051 1.24709 0.719982 0
M  V30 172 H 17.2581 1.80715 3.80684 0
M  V30 173 H 15.9821 0.732524 3.18279 0
M  V30 174 H 14.6411 2.73283 2.44361 0
M  V30 175 H 14.2891 1.74938 4.71599 0
M  V30 176 H 13.9891 3.50541 4.71588 0
M  V30 177 H 15.5131 2.86401 5.39265 0
M  V30 178 H 16.9271 4.37898 3.70024 0
M  V30 179 H 15.3241 5.03735 3.26146 0
M  V30 180 H 16.3941 4.42244 1.98867 0
M  V30 181 N 17.7372 -0.778329 1.37039 0
M  V30 182 C 18.6672 -1.90546 1.34962 0
M  V30 183 C 19.6482 -1.68681 0.219274 0
M  V30 184 O 20.8332 -1.89634 0.418624 0
M  V30 185 C 17.9632 -3.27734 1.14925 0
M  V30 186 C 16.9172 -3.64147 2.24902 0
M  V30 187 C 16.2432 -4.99806 1.89996 0
M  V30 188 C 17.5432 -3.71579 3.67051 0
M  V30 189 H 19.2372 -1.92541 2.29277 0
M  V30 190 H 16.7832 -0.924948 1.10366 0
M  V30 191 H 18.7362 -4.06215 1.12104 0
M  V30 192 H 17.4602 -3.26154 0.170631 0
M  V30 193 H 16.1192 -2.8797 2.26868 0
M  V30 194 H 15.7672 -4.94759 0.906796 0
M  V30 195 H 15.4672 -5.25139 2.63634 0
M  V30 196 H 16.9912 -5.80694 1.88749 0
M  V30 197 H 18.4052 -4.40227 3.67251 0
M  V30 198 H 16.8022 -4.08405 4.39688 0
M  V30 199 H 17.8722 -2.72404 4.01154 0
M  V30 200 N 19.2153 -1.21501 -1.00376 0
M  V30 201 C 20.1473 -0.933174 -2.09343 0
M  V30 202 C 21.1603 0.0840896 -1.62583 0
M  V30 203 O 22.3493 -0.148563 -1.77881 0
M  V30 204 C 19.4493 -0.379869 -3.36764 0
M  V30 205 C 18.6223 -1.45176 -4.12605 0
M  V30 206 C 17.6813 -0.907476 -5.18316 0
M  V30 207 O 16.7073 -1.5912 -5.46507 0
M  V30 208 N 17.9093 0.276649 -5.7984 0
M  V30 209 H 20.6743 -1.87124 -2.34104 0
M  V30 210 H 18.2353 -1.12043 -1.16867 0
M  V30 211 H 20.2273 -0.00131488 -4.047 0
M  V30 212 H 18.7973 0.463048 -3.09151 0
M  V30 213 H 18.0173 -2.00411 -3.39454 0
M  V30 214 H 19.3053 -2.17328 -4.6005 0
M  V30 215 H 18.7033 0.849147 -5.59291 0
M  V30 216 H 17.2603 0.596702 -6.49063 0
M  V30 217 N 20.6934 1.19889 -1.02296 0
M  V30 218 C 21.9414 1.89046 -0.714558 0
M  V30 219 C 22.2624 1.79636 0.758681 0
M  V30 220 O 21.5324 1.20292 1.54618 0
M  V30 221 H 20.1124 0.699802 -0.261317 0
M  V30 222 H 22.7744 1.45574 -1.29592 0
M  V30 223 H 21.8704 2.95524 -1.0036 0
M  V30 224 N 22.1715 0.800033 1.35784 0
M  V30 225 C 23.4185 0.377342 1.98953 0
M  V30 226 C 23.7465 -1.05378 1.6348 0
M  V30 227 O 23.0015 -1.74459 0.886707 0
M  V30 228 C 23.3005 0.500276 3.53881 0
M  V30 229 C 22.9665 1.89375 4.09204 0
M  V30 230 C 21.6285 2.27499 4.24025 0
M  V30 231 C 23.9805 2.8057 4.39238 0
M  V30 232 C 21.3085 3.562 4.66195 0
M  V30 233 C 23.6605 4.0871 4.82844 0
M  V30 234 C 22.3245 4.46843 4.95871 0
M  V30 235 H 21.5945 0.138079 0.728021 0
M  V30 236 H 24.2415 1.01955 1.62103 0
M  V30 237 H 22.5465 -0.225405 3.91151 0
M  V30 238 H 24.2435 0.154097 4.00704 0
M  V30 239 H 20.8335 1.58753 3.98115 0
M  V30 240 H 25.0175 2.52367 4.27346 0
M  V30 241 H 20.2735 3.85602 4.74469 0
M  V30 242 H 24.4475 4.79481 5.05046 0
M  V30 243 H 22.0745 5.46623 5.28306 0
M  V30 244 N 23.6496 -1.47581 0.552962 0
M  V30 245 C 24.8776 -2.06875 0.0320556 0
M  V30 246 C 25.2926 -1.40625 -1.25976 0
M  V30 247 O 24.6496 -0.501349 -1.75479 0
M  V30 248 C 24.7006 -3.61092 -0.17167 0
M  V30 249 O 24.4216 -4.24858 1.06899 0
M  V30 250 C 25.9226 -4.37242 -0.730344 0
M  V30 251 H 23.1426 -0.669561 0.043915 0
M  V30 252 H 25.6866 -1.89646 0.765163 0
M  V30 253 H 23.8416 -3.7785 -0.854894 0
M  V30 254 H 24.2556 -5.17334 0.864059 0
M  V30 255 H 25.7296 -5.45842 -0.822203 0
M  V30 256 H 26.2066 -4.03235 -1.74064 0
M  V30 257 H 26.8126 -4.25219 -0.0829543 0
M  V30 258 N 25.1277 -0.289203 -1.54924 0
M  V30 259 C 26.3737 0.323998 -2.00195 0
M  V30 260 C 26.7067 1.54441 -1.17735 0
M  V30 261 O 25.9817 1.92875 -0.250878 0
M  V30 262 C 26.2647 0.692276 -3.53383 0
M  V30 263 C 26.1177 -0.536457 -4.46589 0
M  V30 264 C 27.4367 1.52335 -4.12895 0
M  V30 265 H 24.5557 0.116289 -0.727768 0
M  V30 266 H 27.1977 -0.398954 -1.85764 0
M  V30 267 H 25.3477 1.30822 -3.65811 0
M  V30 268 H 27.0197 -1.17499 -4.46085 0
M  V30 269 H 25.2627 -1.17192 -4.1767 0
M  V30 270 H 25.9337 -0.234806 -5.515 0
M  V30 271 H 28.4097 1.00302 -4.0383 0
M  V30 272 H 27.2857 1.74982 -5.20262 0
M  V30 273 H 27.5467 2.50886 -3.64018 0
M  V30 274 N 26.6058 1.57591 -0.0167156 0
M  V30 275 C 27.5158 2.1291 0.98521 0
M  V30 276 C 28.5318 1.07834 1.36557 0
M  V30 277 O 29.7078 1.39826 1.44951 0
M  V30 278 C 26.7728 2.63512 2.25305 0
M  V30 279 C 25.8338 3.83256 1.93426 0
M  V30 280 C 25.0668 4.31435 3.14165 0
M  V30 281 O 25.2898 3.78851 4.26413 0
M  V30 282 O 24.2238 5.23416 2.97186 0
M  V30 283 H 28.0498 2.98772 0.544888 0
M  V30 284 H 25.6348 1.48012 0.203141 0
M  V30 285 H 27.5168 2.96183 2.99756 0
M  V30 286 H 26.1918 1.8074 2.68542 0
M  V30 287 H 25.0988 3.55531 1.16398 0
M  V30 288 H 26.4318 4.67153 1.55013 0
M  V30 289 N 28.0839 -0.256276 1.55502 0
M  V30 290 C 29.3299 -0.987079 1.77157 0
M  V30 291 C 29.6629 -1.85327 0.580315 0
M  V30 292 O 28.9379 -1.89874 -0.421686 0
M  V30 293 C 29.2209 -1.85553 3.08613 0
M  V30 294 C 29.0739 -1.01816 4.38125 0
M  V30 295 C 30.3929 -2.8397 3.36228 0
M  V30 296 H 27.5119 -0.357428 0.644526 0
M  V30 297 H 30.1539 -0.258239 1.88237 0
M  V30 298 H 28.3039 -2.47695 2.99298 0
M  V30 299 H 29.9759 -0.416159 4.59419 0
M  V30 300 H 28.2189 -0.322178 4.32602 0
M  V30 301 H 28.8899 -1.65939 5.26468 0
M  V30 302 H 31.3659 -2.31964 3.45445 0
M  V30 303 H 30.2419 -3.41864 4.29442 0
M  V30 304 H 30.5029 -3.59955 2.56681 0
M  V30 305 N 29.562 -1.4872 -0.521534 0
M  V30 306 C 30.492 -1.66771 -1.63431 0
M  V30 307 C 31.473 -0.516499 -1.62069 0
M  V30 308 O 32.658 -0.750013 -1.79132 0
M  V30 309 C 29.788 -1.71515 -3.01993 0
M  V30 310 C 28.742 -2.86222 -3.18216 0
M  V30 311 C 28.068 -2.76061 -4.57924 0
M  V30 312 C 29.368 -4.27419 -3.00184 0
M  V30 313 H 31.062 -2.59932 -1.48579 0
M  V30 314 H 28.608 -1.25089 -0.713358 0
M  V30 315 H 30.561 -1.82731 -3.7972 0
M  V30 316 H 29.285 -0.749393 -3.17886 0
M  V30 317 H 27.944 -2.74575 -2.42908 0
M  V30 318 H 27.592 -1.77437 -4.70665 0
M  V30 319 H 27.292 -3.53037 -4.69722 0
M  V30 320 H 28.816 -2.89256 -5.37739 0
M  V30 321 H 30.23 -4.39855 -3.67697 0
M  V30 322 H 28.627 -5.05458 -3.2347 0
M  V30 323 H 29.697 -4.43293 -1.96518 0
M  V30 324 N 31.0401 0.771051 -1.3745 0
M  V30 325 C 32.4561 1.07171 -1.18265 0
M  V30 326 C 32.6561 2.01491 -0.019287 0
M  V30 327 O 31.7121 2.44244 0.640408 0
M  V30 328 C 33.0251 1.66854 -2.50161 0
M  V30 329 C 34.5731 1.79109 -2.56689 0
M  V30 330 C 35.0481 2.42205 -3.88717 0
M  V30 331 N 36.5391 2.49655 -3.90162 0
M  V30 332 C 37.2741 2.9933 -4.8907 0
M  V30 333 N 36.7701 3.49172 -5.98374 0
M  V30 334 N 38.5631 2.9821 -4.76474 0
M  V30 335 H 30.7141 0.144796 -2.11906 0
M  V30 336 H 32.9771 0.126863 -0.939473 0
M  V30 337 H 32.6831 1.05017 -3.35655 0
M  V30 338 H 32.5571 2.6614 -2.673 0
M  V30 339 H 34.9441 2.40077 -1.71601 0
M  V30 340 H 35.0251 0.785757 -2.43433 0
M  V30 341 H 34.6691 1.81875 -4.74219 0
M  V30 342 H 34.5991 3.43345 -3.99276 0
M  V30 343 H 37.0901 2.14383 -3.11205 0
M  V30 344 H 37.4031 3.8548 -6.69795 0
M  V30 345 H 35.7481 3.47275 -6.02018 0
M  V30 346 H 38.9391 2.58572 -3.90203 0
M  V30 347 H 39.1121 3.36613 -5.53711 0
M  V30 348 N 32.5182 1.22032 0.997298 0
M  V30 349 C 33.4682 0.953838 2.07089 0
M  V30 350 C 34.4522 -0.0938669 1.60626 0
M  V30 351 O 35.6442 0.116078 1.76619 0
M  V30 352 C 32.7732 0.528726 3.39204 0
M  V30 353 C 31.8592 1.61092 3.92314 0
M  V30 354 N 32.2502 2.83768 4.18699 0
M  V30 355 C 30.5482 1.48158 4.20672 0
M  V30 356 C 31.2492 3.53715 4.61802 0
M  V30 357 N 30.2252 2.81174 4.65233 0
M  V30 358 H 34.0272 1.88577 2.25424 0
M  V30 359 H 31.5412 1.11719 1.17867 0
M  V30 360 H 33.5382 0.31915 4.15677 0
M  V30 361 H 32.1982 -0.39635 3.22272 0
M  V30 362 H 33.2092 3.20238 4.07023 0
M  V30 363 H 29.8862 0.622369 4.12835 0
M  V30 364 H 31.2762 4.58793 4.90875 0
M  V30 365 N 33.9963 -1.19345 1.0293 0
M  V30 366 C 34.9283 -2.22036 0.56857 0
M  V30 367 C 35.9413 -1.58865 -0.355779 0
M  V30 368 O 37.1303 -1.77851 -0.152103 0
M  V30 369 C 34.2303 -3.38363 -0.190752 0
M  V30 370 C 33.4033 -4.31118 0.738643 0
M  V30 371 C 32.4623 -5.26194 0.0246497 0
M  V30 372 O 31.4883 -5.65461 0.651354 0
M  V30 373 N 32.6903 -5.66971 -1.24594 0
M  V30 374 H 35.4553 -2.6219 1.45177 0
M  V30 375 H 33.0163 -1.34015 0.908381 0
M  V30 376 H 35.0083 -3.98981 -0.677961 0
M  V30 377 H 33.5783 -2.96994 -0.975366 0
M  V30 378 H 32.7983 -3.68276 1.40593 0
M  V30 379 H 34.0863 -4.90001 1.37029 0
M  V30 380 H 33.4843 -5.37104 -1.77583 0
M  V30 381 H 32.0413 -6.2984 -1.67764 0
M  V30 382 N 35.4744 -0.807222 -1.35358 0
M  V30 383 C 36.8854 -0.44876 -1.81226 0
M  V30 384 C 37.2364 1.02929 -1.67033 0
M  V30 385 O 36.3614 1.79991 -1.20133 0
M  V30 386 C 36.9564 -0.807774 -3.2903 0
M  V30 387 C 35.5154 -0.501901 -3.73039 0
M  V30 388 C 34.6624 -1.03304 -2.57339 0
M  V30 389 H 37.6134 -0.998808 -1.23327 0
M  V30 390 H 37.6344 -0.10554 -3.80354 0
M  V30 391 H 37.1464 -1.88357 -3.39328 0
M  V30 392 H 35.2474 0.565128 -3.68289 0
M  V30 393 H 35.3604 -1.03497 -4.67787 0
M  V30 394 H 33.7244 -0.455339 -2.50597 0
M  V30 395 H 34.5074 -2.11496 -2.70415 0
M  V30 396 N 36.9525 1.47285 -0.560781 0
M  V30 397 C 37.9155 2.28535 0.174488 0
M  V30 398 C 38.9155 1.37153 0.839388 0
M  V30 399 O 40.1055 1.59748 0.694702 0
M  V30 400 C 37.2375 3.16934 1.25561 0
M  V30 401 H 38.4305 2.95012 -0.539262 0
M  V30 402 H 35.9835 1.53034 -0.317865 0
M  V30 403 H 36.7185 2.55157 2.00164 0
M  V30 404 H 36.5035 3.8419 0.783604 0
M  V30 405 H 37.9935 3.78143 1.77193 0
M  V30 406 N 38.4306 0.297415 1.54768 0
M  V30 407 C 39.7076 -0.365847 1.92148 0
M  V30 408 C 40.0876 -1.71975 1.22424 0
M  V30 409 O 39.4356 -2.25666 0.358739 0
M  V30 410 C 39.6456 -0.484056 3.45627 0
M  V30 411 C 40.9936 -0.756594 4.17805 0
M  V30 412 O 42.0176 -0.568007 3.51642 0
M  V30 413 O 40.8766 -1.11863 5.34929 0
M  V30 414 H 37.9706 -0.203919 0.801465 0
M  V30 415 H 40.5166 0.34521 1.66152 0
M  V30 416 H 39.2886 0.467865 3.88493 0
M  V30 417 H 38.9116 -1.24372 3.77647 0
M  V30 418 N 39.9087 -1.5758 0.0250728 0
M  V30 419 C 40.8387 -2.13007 -0.956575 0
M  V30 420 C 41.8197 -1.0452 -1.342 0
M  V30 421 O 43.0047 -1.32332 -1.42133 0
M  V30 422 C 40.1347 -2.65386 -2.24026 0
M  V30 423 C 39.0887 -3.78623 -1.99571 0
M  V30 424 C 38.4147 -4.17414 -3.3417 0
M  V30 425 C 39.7147 -5.04867 -1.33814 0
M  V30 426 H 41.4087 -2.9528 -0.494991 0
M  V30 427 H 38.9547 -1.42042 -0.236651 0
M  V30 428 H 40.9077 -3.02794 -2.93076 0
M  V30 429 H 39.6317 -1.80268 -2.72343 0
M  V30 430 H 38.2907 -3.41646 -1.32941 0
M  V30 431 H 37.9387 -3.29284 -3.80238 0
M  V30 432 H 37.6387 -4.93719 -3.18615 0
M  V30 433 H 39.1627 -4.57402 -4.04495 0
M  V30 434 H 40.5767 -5.39888 -1.92857 0
M  V30 435 H 38.9737 -5.86144 -1.28669 0
M  V30 436 H 40.0437 -4.83904 -0.310561 0
M  V30 437 N 41.3868 0.248026 -1.55636 0
M  V30 438 C 42.3168 1.31079 -1.93237 0
M  V30 439 C 43.2978 1.50264 -0.797174 0
M  V30 440 O 44.4828 1.62891 -1.05737 0
M  V30 441 C 41.6128 2.66575 -2.22609 0
M  V30 442 C 40.5668 2.62087 -3.3837 0
M  V30 443 C 39.8928 4.01369 -3.53281 0
M  V30 444 C 41.1928 2.19171 -4.7409 0
M  V30 445 H 42.8868 0.998556 -2.82257 0
M  V30 446 H 40.4328 0.47891 -1.35803 0
M  V30 447 H 42.3858 3.41057 -2.47503 0
M  V30 448 H 41.1098 2.99432 -1.30414 0
M  V30 449 H 39.7688 1.90063 -3.13483 0
M  V30 450 H 39.4168 4.31489 -2.58508 0
M  V30 451 H 39.1168 3.99254 -4.31127 0
M  V30 452 H 40.6408 4.77552 -3.80495 0
M  V30 453 H 42.0548 2.83384 -4.98363 0
M  V30 454 H 40.4518 2.2817 -5.5503 0
M  V30 455 H 41.5218 1.14336 -4.71227 0
M  V30 456 N 42.8649 1.48995 0.513639 0
M  V30 457 C 43.7749 1.67443 1.64317 0
M  V30 458 C 44.7909 0.556947 1.64846 0
M  V30 459 O 45.9669 0.830082 1.83498 0
M  V30 460 C 43.0319 1.72515 3.00732 0
M  V30 461 C 42.0929 2.96009 3.1093 0
M  V30 462 C 41.3259 3.00829 4.40837 0
M  V30 463 O 41.5489 2.13594 5.28898 0
M  V30 464 O 40.4829 3.93168 4.55744 0
M  V30 465 H 44.3089 2.63106 1.51687 0
M  V30 466 H 41.8939 1.32588 0.688543 0
M  V30 467 H 43.7759 1.78277 3.81831 0
M  V30 468 H 42.4509 0.800278 3.13651 0
M  V30 469 H 41.3579 2.9577 2.29065 0
M  V30 470 H 42.6909 3.87934 3.02933 0
M  V30 471 N 44.343 -0.763751 1.37857 0
M  V30 472 C 45.59 -1.52257 1.33506 0
M  V30 473 C 45.918 -1.94343 -0.078022 0
M  V30 474 O 45.173 -1.64958 -1.05297 0
M  V30 475 C 45.472 -2.79499 2.22745 0
M  V30 476 C 45.138 -2.56426 3.70886 0
M  V30 477 C 43.8 -2.49842 4.11257 0
M  V30 478 C 46.152 -2.36008 4.64704 0
M  V30 479 C 43.48 -2.20841 5.43549 0
M  V30 480 C 45.832 -2.0853 5.97242 0
M  V30 481 C 44.496 -2.00396 6.36709 0
M  V30 482 H 43.766 -0.557149 0.488534 0
M  V30 483 H 46.413 -0.879073 1.70131 0
M  V30 484 H 44.718 -3.48447 1.79142 0
M  V30 485 H 46.415 -3.37413 2.16688 0
M  V30 486 H 43.005 -2.62416 3.38874 0
M  V30 487 H 47.189 -2.40079 4.34368 0
M  V30 488 H 42.445 -2.13045 5.73081 0
M  V30 489 H 46.619 -1.91732 6.69486 0
M  V30 490 H 44.246 -1.77688 7.39142 0
M  V30 491 N 45.8211 -1.22559 -0.990812 0
M  V30 492 C 46.7841 -0.998863 -2.0629 0
M  V30 493 C 47.7841 0.0354834 -1.60761 0
M  V30 494 O 48.9741 -0.203231 -1.7301 0
M  V30 495 C 46.1061 -0.509203 -3.37076 0
M  V30 496 H 47.2991 -1.95014 -2.27837 0
M  V30 497 H 44.8521 -1.04456 -1.16269 0
M  V30 498 H 45.5871 0.446335 -3.21214 0
M  V30 499 H 45.3721 -1.25547 -3.71457 0
M  V30 500 H 46.8621 -0.370888 -4.1595 0
M  V30 501 N 47.2992 1.18797 -1.03562 0
M  V30 502 C 48.2292 2.24472 -0.643019 0
M  V30 503 C 49.2102 1.66433 0.351283 0
M  V30 504 O 50.3952 1.92803 0.232505 0
M  V30 505 C 47.5252 3.473 4.24935e-05 0
M  V30 506 C 46.4792 4.18055 -0.917257 0
M  V30 507 C 45.8052 5.34519 -0.138941 0
M  V30 508 C 47.1052 4.72109 -2.23407 0
M  V30 509 H 48.7992 2.57566 -1.52643 0
M  V30 510 H 46.3452 1.23806 -0.735394 0
M  V30 511 H 48.2982 4.20426 0.286383 0
M  V30 512 H 47.0222 3.13424 0.918299 0
M  V30 513 H 45.6812 3.46821 -1.1879 0
M  V30 514 H 45.3292 4.96891 0.781562 0
M  V30 515 H 45.0292 5.82794 -0.750005 0
M  V30 516 H 46.5532 6.10438 0.1405 0
M  V30 517 H 47.9672 5.36955 -2.00879 0
M  V30 518 H 46.3642 5.30897 -2.79765 0
M  V30 519 H 47.4342 3.89807 -2.88407 0
M  V30 520 N 48.7773 0.814389 1.34928 0
M  V30 521 C 49.7093 0.187834 2.28429 0
M  V30 522 C 50.7223 -0.617374 1.5064 0
M  V30 523 O 51.9113 -0.448454 1.72775 0
M  V30 524 C 49.0113 -0.755962 3.30361 0
M  V30 525 C 48.1843 0.00456686 4.374 0
M  V30 526 C 47.2433 -0.858876 5.19143 0
M  V30 527 O 46.2693 -0.306968 5.68372 0
M  V30 528 N 47.4713 -2.17988 5.38016 0
M  V30 529 H 50.2363 0.991105 2.82838 0
M  V30 530 H 47.7973 0.670561 1.4736 0
M  V30 531 H 49.7893 -1.338 3.81942 0
M  V30 532 H 48.3593 -1.46001 2.7641 0
M  V30 533 H 47.5793 0.767865 3.86649 0
M  V30 534 H 48.8673 0.528422 5.06049 0
M  V30 535 H 48.2653 -2.65212 4.99679 0
M  V30 536 H 46.8223 -2.71098 5.92747 0
M  V30 537 N 50.2554 -1.46986 0.568584 0
M  V30 538 C 51.2054 -2.27179 -0.193339 0
M  V30 539 C 52.1894 -1.35035 -0.874895 0
M  V30 540 O 53.3814 -1.5931 -0.771322 0
M  V30 541 C 50.5104 -3.21063 -1.21546 0
M  V30 542 C 49.5964 -4.2069 -0.536738 0
M  V30 543 N 49.9874 -5.04218 0.399673 0
M  V30 544 C 48.2854 -4.38961 -0.789254 0
M  V30 545 C 48.9864 -5.76242 0.795017 0
M  V30 546 N 47.9624 -5.434 0.1473 0
M  V30 547 H 51.7644 -2.89146 0.526458 0
M  V30 548 H 49.2784 -1.57664 0.389342 0
M  V30 549 H 51.2754 -3.77209 -1.77536 0
M  V30 550 H 49.9354 -2.60654 -1.93623 0
M  V30 551 H 50.9464 -5.12077 0.774454 0
M  V30 552 H 47.6234 -3.89713 -1.49767 0
M  V30 553 H 49.0134 -6.53417 1.56513 0
M  V30 554 N 51.7335 -0.305618 -1.54608 0
M  V30 555 C 52.9805 0.302298 -2.00231 0
M  V30 556 C 53.3085 1.5354 -1.19398 0
M  V30 557 O 52.5635 1.93973 -0.259423 0
M  V30 558 C 52.8625 0.698983 -3.50498 0
M  V30 559 C 52.5285 -0.432903 -4.48817 0
M  V30 560 C 51.1905 -0.743622 -4.75419 0
M  V30 561 C 53.5425 -1.19409 -5.07337 0
M  V30 562 C 50.8705 -1.81857 -5.57804 0
M  V30 563 C 53.2225 -2.25899 -5.90891 0
M  V30 564 C 51.8865 -2.57572 -6.15803 0
M  V30 565 H 51.1565 0.110619 -0.732697 0
M  V30 566 H 53.8035 -0.425674 -1.86709 0
M  V30 567 H 52.1085 1.50711 -3.61654 0
M  V30 568 H 53.8055 1.1806 -3.83227 0
M  V30 569 H 50.3955 -0.18063 -4.28219 0
M  V30 570 H 54.5795 -0.967295 -4.86782 0
M  V30 571 H 49.8355 -2.06864 -5.75341 0
M  V30 572 H 54.0095 -2.85335 -6.35261 0
M  V30 573 H 51.6365 -3.40998 -6.7943 0
M  V30 574 N 53.2116 1.57565 -0.0334293 0
M  V30 575 C 54.4396 1.9628 0.654347 0
M  V30 576 C 54.8546 0.910138 1.65414 0
M  V30 577 O 54.2116 -0.107595 1.82183 0
M  V30 578 C 54.2626 3.35067 1.35693 0
M  V30 579 O 53.9836 4.36296 0.397191 0
M  V30 580 C 55.4846 3.88439 2.13613 0
M  V30 581 H 52.7046 0.646369 0.180132 0
M  V30 582 H 55.2486 2.04282 -0.0944721 0
M  V30 583 H 53.4036 3.2827 2.05712 0
M  V30 584 H 53.8176 5.1678 0.896597 0
M  V30 585 H 55.2916 4.8788 2.58219 0
M  V30 586 H 55.7686 3.22914 2.97696 0
M  V30 587 H 56.3746 3.98516 1.48543 0
M  V30 588 N 54.6897 -0.239769 1.55765 0
M  V30 589 C 56.1057 -0.588624 1.48349 0
M  V30 590 C 56.3057 -1.88005 0.72502 0
M  V30 591 O 55.3617 -2.51186 0.257269 0
M  V30 592 C 56.6747 -0.68474 2.928 0
M  V30 593 C 58.2227 -0.77659 3.03213 0
M  V30 594 C 58.6977 -0.904207 4.48986 0
M  V30 595 N 60.1887 -0.968896 4.52953 0
M  V30 596 C 60.9237 -1.08703 5.63002 0
M  V30 597 N 60.4197 -1.17026 6.82845 0
M  V30 598 N 62.2127 -1.12074 5.50814 0
M  V30 599 H 54.3637 0.607911 2.03515 0
M  V30 600 H 56.6267 0.21083 0.924259 0
M  V30 601 H 56.3327 0.194284 3.51163 0
M  V30 602 H 56.2067 -1.55435 3.43686 0
M  V30 603 H 58.5937 -1.64606 2.44926 0
M  V30 604 H 58.6747 0.118315 2.55526 0
M  V30 605 H 58.3187 -0.0392633 5.07885 0
M  V30 606 H 58.2487 -1.81426 4.9436 0
M  V30 607 H 60.7397 -0.915633 3.6664 0
M  V30 608 H 61.0527 -1.25966 7.62465 0
M  V30 609 H 59.3977 -1.13971 6.85591 0
M  V30 610 H 62.5887 -1.05226 4.5612 0
M  V30 611 H 62.7617 -1.20936 6.36615 0
M  V30 612 N 56.1678 -1.49265 -0.50573 0
M  V30 613 C 57.0978 -1.68495 -1.61653 0
M  V30 614 C 58.0788 -0.53366 -1.61512 0
M  V30 615 O 59.2638 -0.76897 -1.78327 0
M  V30 616 C 56.3938 -1.74709 -3.00157 0
M  V30 617 C 55.3478 -2.89581 -3.15162 0
M  V30 618 C 54.6738 -2.80903 -4.5497 0
M  V30 619 C 55.9738 -4.30578 -2.95634 0
M  V30 620 H 57.6678 -2.61493 -1.45814 0
M  V30 621 H 55.2138 -1.25838 -0.70005 0
M  V30 622 H 57.1668 -1.86748 -3.77761 0
M  V30 623 H 55.8908 -0.783067 -3.17074 0
M  V30 624 H 54.5498 -2.77136 -2.39982 0
M  V30 625 H 54.1978 -1.82419 -4.68756 0
M  V30 626 H 53.8978 -3.57999 -4.65951 0
M  V30 627 H 55.4218 -2.94944 -5.34641 0
M  V30 628 H 56.8358 -4.4373 -3.63011 0
M  V30 629 H 55.2328 -5.0886 -3.18091 0
M  V30 630 H 56.3028 -4.45352 -1.91806 0
M  V30 631 N 57.6459 0.756429 -1.3826 0
M  V30 632 C 58.5779 1.87971 -1.31147 0
M  V30 633 C 59.5909 1.61248 -0.224239 0
M  V30 634 O 60.7799 1.71881 -0.481581 0
M  V30 635 C 57.8799 3.23545 -1.00857 0
M  V30 636 C 57.0529 3.77794 -2.20432 0
M  V30 637 C 56.1119 4.91877 -1.86931 0
M  V30 638 O 55.1379 5.06659 -2.59395 0
M  V30 639 N 56.3399 5.74643 -0.822568 0
M  V30 640 H 59.1049 1.94585 -2.2794 0
M  V30 641 H 56.6659 0.936234 -1.32084 0
M  V30 642 H 58.6579 3.97403 -0.765021 0
M  V30 643 H 57.2279 3.12335 -0.128687 0
M  V30 644 H 56.4479 2.95534 -2.6087 0
M  V30 645 H 57.7359 4.10771 -3.00241 0
M  V30 646 H 57.1339 5.65266 -0.221575 0
M  V30 647 H 55.6909 6.48661 -0.638899 0
M  V30 648 N 59.124 1.23083 0.984299 0
M  V30 649 C 60.056 0.96636 2.07832 0
M  V30 650 C 61.069 -0.0582135 1.62696 0
M  V30 651 O 62.258 0.176843 1.77622 0
M  V30 652 C 59.358 0.433397 3.36117 0
M  V30 653 C 58.531 1.51722 4.10243 0
M  V30 654 C 57.59 0.989821 5.16807 0
M  V30 655 O 56.616 1.67794 5.43906 0
M  V30 656 N 57.818 -0.184367 5.80207 0
M  V30 657 H 60.583 1.90824 2.31098 0
M  V30 658 H 58.144 1.13888 1.1507 0
M  V30 659 H 60.136 0.065699 4.04647 0
M  V30 660 H 58.706 -0.413806 3.09849 0
M  V30 661 H 57.926 2.05786 3.36223 0
M  V30 662 H 59.214 2.24619 4.56534 0
M  V30 663 H 58.612 -0.760062 5.60571 0
M  V30 664 H 57.169 -0.493366 6.4993 0
M  V30 665 N 60.6021 -1.18246 1.0419 0
M  V30 666 C 61.5121 -2.25574 0.644476 0
M  V30 667 C 62.5281 -1.70845 -0.329826 0
M  V30 668 O 63.7041 -2.00554 -0.184443 0
M  V30 669 C 60.7691 -3.46697 0.014877 0
M  V30 670 C 59.8301 -4.16554 1.03834 0
M  V30 671 C 59.0631 -5.31894 0.438692 0
M  V30 672 O 59.2861 -5.65385 -0.754752 0
M  V30 673 O 58.2201 -5.90459 1.168 0
M  V30 674 H 62.0461 -2.61836 1.53869 0
M  V30 675 H 59.6311 -1.25352 0.812854 0
M  V30 676 H 61.5131 -4.20062 -0.335538 0
M  V30 677 H 60.1881 -3.12255 -0.853138 0
M  V30 678 H 59.0951 -3.45251 1.44057 0
M  V30 679 H 60.4281 -4.54998 1.87716 0
M  V30 680 N 62.0802 -0.821533 -1.34494 0
M  V30 681 C 63.0282 -0.230702 -2.31453 0
M  V30 682 C 64.0222 0.627793 -1.57338 0
M  V30 683 O 65.2282 0.519288 -1.72347 0
M  V30 684 H 61.6032 -0.0558577 -0.749923 0
M  V30 685 H 63.5742 -1.06332 -2.78812 0
M  V30 686 C 62.3232 0.59391 -3.4259 0
M  V30 687 H 61.6462 -0.0573588 -3.99759 0
M  V30 688 H 63.0862 0.973446 -4.12674 0
M  V30 689 C 61.5452 1.76568 -2.86924 0
M  V30 690 O 62.0752 2.8638 -2.81691 0
M  V30 691 N 60.2812 1.58198 -2.43766 0
M  V30 692 H 59.8282 0.68872 -2.48222 0
M  V30 693 H 59.7862 2.36752 -2.06871 0
M  V30 694 N 63.5583 1.46682 -0.576371 0
M  V30 695 C 64.4683 2.34032 0.163141 0
M  V30 696 C 65.4843 1.49367 0.892501 0
M  V30 697 O 66.6603 1.82252 0.857106 0
M  V30 698 C 63.7253 3.26435 1.16795 0
M  V30 699 C 62.7863 4.26998 0.443944 0
M  V30 700 C 62.0193 5.14986 1.40088 0
M  V30 701 O 62.2423 5.05785 2.637 0
M  V30 702 O 61.1763 5.94906 0.914917 0
M  V30 703 H 65.0023 2.98607 -0.55388 0
M  V30 704 H 62.5873 1.45554 -0.336821 0
M  V30 705 H 64.4693 3.83459 1.74748 0
M  V30 706 H 63.1443 2.64465 1.86655 0
M  V30 707 H 62.0513 3.7368 -0.177271 0
M  V30 708 H 63.3843 4.91736 -0.213566 0
M  V30 709 N 65.0364 0.313813 1.54444 0
M  V30 710 C 66.4524 -0.0391619 1.59552 0
M  V30 711 C 66.6524 -1.51322 1.33056 0
M  V30 712 O 65.7084 -2.26782 1.11022 0
M  V30 713 C 67.0214 0.370302 2.98411 0
M  V30 714 C 68.5694 0.320139 3.11358 0
M  V30 715 C 69.0444 0.704617 4.52547 0
M  V30 716 N 70.5354 0.657645 4.58508 0
M  V30 717 C 71.2704 0.927453 5.6585 0
M  V30 718 N 70.7664 1.26389 6.81174 0
M  V30 719 N 72.5594 0.853662 5.5558 0
M  V30 720 H 64.7104 1.27433 1.69925 0
M  V30 721 H 66.9734 0.517511 0.794284 0
M  V30 722 H 66.6794 1.39694 3.22767 0
M  V30 723 H 66.5534 -0.269619 3.76235 0
M  V30 724 H 68.9404 -0.697275 2.86744 0
M  V30 725 H 69.0214 0.99486 2.35661 0
M  V30 726 H 68.6654 1.7199 4.77893 0
M  V30 727 H 68.5954 0.00768843 5.26599 0
M  V30 728 H 71.0864 0.409067 3.75679 0
M  V30 729 H 71.3994 1.4554 7.58972 0
M  V30 730 H 69.7444 1.30206 6.82694 0
M  V30 731 H 72.9354 0.590383 4.64362 0
M  V30 732 H 73.1084 1.0673 6.3915 0
M  V30 733 N 66.5145 -1.57545 0.0417849 0
M  V30 734 C 67.4615 -2.10977 -0.935805 0
M  V30 735 C 68.4315 -1.01486 -1.31491 0
M  V30 736 O 69.6165 -1.2898 -1.40602 0
M  V30 737 C 66.7565 -2.65169 -2.2086 0
M  V30 738 C 65.8695 -3.88714 -1.88482 0
M  V30 739 C 65.0045 -4.31254 -3.1015 0
M  V30 740 C 64.0435 -5.47524 -2.7365 0
M  V30 741 N 63.1805 -5.85162 -3.87982 0
M  V30 742 H 68.0205 -2.94218 -0.473249 0
M  V30 743 H 65.5575 -1.45415 -0.221981 0
M  V30 744 H 67.5155 -2.94685 -2.95325 0
M  V30 745 H 66.1455 -1.8474 -2.64709 0
M  V30 746 H 65.1975 -3.65849 -1.04205 0
M  V30 747 H 66.5095 -4.73245 -1.57608 0
M  V30 748 H 65.6635 -4.62273 -3.92923 0
M  V30 749 H 64.4025 -3.45516 -3.44195 0
M  V30 750 H 63.4075 -5.16187 -1.89291 0
M  V30 751 H 64.6325 -6.34971 -2.40807 0
M  V30 752 H 62.5785 -5.02377 -4.21846 0
M  V30 753 H 62.4955 -6.64362 -3.60775 0
M  V30 754 H 63.7635 -6.20791 -4.71422 0
M  V30 755 N 67.9926 0.231505 -1.5589 0
M  V30 756 C 69.2406 0.955461 -1.78088 0
M  V30 757 C 69.5616 1.85262 -0.608533 0
M  V30 758 O 68.8316 1.92277 0.375035 0
M  V30 759 H 67.4116 0.355787 -0.656829 0
M  V30 760 H 70.0736 0.245751 -1.93344 0
M  V30 761 H 69.1696 1.56814 -2.69844 0
M  V30 762 N 69.4707 1.49531 0.497807 0
M  V30 763 C 70.6987 1.62893 1.27567 0
M  V30 764 C 71.1137 0.301585 1.86376 0
M  V30 765 O 70.4707 -0.713335 1.67982 0
M  V30 766 C 70.5217 2.70013 2.40364 0
M  V30 767 O 70.2427 3.976 1.83972 0
M  V30 768 C 71.7437 2.94109 3.31685 0
M  V30 769 H 68.9637 0.548298 0.386794 0
M  V30 770 H 71.5077 1.95584 0.597245 0
M  V30 771 H 69.6627 2.40092 3.04031 0
M  V30 772 H 70.0767 4.56631 2.58047 0
M  V30 773 H 71.5507 3.72788 4.07104 0
M  V30 774 H 72.0277 2.04147 3.88871 0
M  V30 775 H 72.6337 3.2546 2.73781 0
M  V30 776 N 70.9488 -0.749086 1.3866 0
M  V30 777 C 71.9118 -1.84457 1.36045 0
M  V30 778 C 72.9118 -1.58682 0.260122 0
M  V30 779 O 74.1018 -1.66343 0.517261 0
M  V30 780 C 71.2338 -3.22008 1.11911 0
M  V30 781 H 72.4268 -1.88182 2.33512 0
M  V30 782 H 69.9798 -0.951266 1.24019 0
M  V30 783 H 70.7148 -3.2395 0.150686 0
M  V30 784 H 70.4998 -3.42111 1.91579 0
M  V30 785 H 71.9898 -4.0208 1.12788 0
M  V30 786 N 72.4269 -1.23603 -0.977757 0
M  V30 787 C 73.8429 -0.999251 -1.24447 0
M  V30 788 C 74.0429 0.298053 -1.99283 0
M  V30 789 O 73.0989 1.01681 -2.31122 0
M  V30 790 C 74.4119 -2.20784 -2.04144 0
M  V30 791 C 75.9599 -2.25303 -2.17273 0
M  V30 792 C 76.4349 -3.45755 -3.00362 0
M  V30 793 N 77.9259 -3.4601 -3.07947 0
M  V30 794 C 78.6609 -4.35868 -3.72568 0
M  V30 795 N 78.1569 -5.35966 -4.38991 0
M  V30 796 N 79.9499 -4.23605 -3.6948 0
M  V30 797 H 72.1009 -2.06986 -0.476483 0
M  V30 798 H 74.3639 -0.907801 -0.273134 0
M  V30 799 H 74.0699 -3.14945 -1.56533 0
M  V30 800 H 73.9439 -2.22085 -3.04891 0
M  V30 801 H 76.3309 -1.3168 -2.64092 0
M  V30 802 H 76.4119 -2.28033 -1.15907 0
M  V30 803 H 76.0559 -4.39687 -2.5424 0
M  V30 804 H 75.9859 -3.40266 -4.01904 0
M  V30 805 H 78.4769 -2.73588 -2.60688 0
M  V30 806 H 78.7899 -6.00783 -4.86086 0
M  V30 807 H 77.1349 -5.39863 -4.37691 0
M  V30 808 H 80.3259 -3.44647 -3.16759 0
M  V30 809 H 80.4989 -4.93836 -4.1956 0
M  V30 810 N 73.905 1.17692 -1.04816 0
M  V30 811 C 75.152 1.87859 -0.75599 0
M  V30 812 C 75.48 1.80812 0.716752 0
M  V30 813 O 74.735 1.20819 1.53952 0
M  V30 814 C 75.034 3.37462 -1.17703 0
M  V30 815 C 74.7 3.64713 -2.65133 0
M  V30 816 C 73.362 3.71859 -3.05408 0
M  V30 817 C 75.714 3.76492 -3.60421 0
M  V30 818 C 73.042 3.88271 -4.39843 0
M  V30 819 C 75.394 3.94421 -4.94585 0
M  V30 820 C 74.058 3.99806 -5.3452 0
M  V30 821 H 73.328 0.687425 -0.276636 0
M  V30 822 H 75.975 1.39255 -1.31455 0
M  V30 823 H 74.28 3.88097 -0.537395 0
M  V30 824 H 75.977 3.90109 -0.928218 0
M  V30 825 H 72.567 3.59772 -2.32942 0
M  V30 826 H 76.751 3.70295 -3.30447 0
M  V30 827 H 72.007 3.90687 -4.70291 0
M  V30 828 H 76.181 4.02477 -5.68318 0
M  V30 829 H 73.808 4.12276 -6.38696 0
M  V30 830 N 75.3831 0.828654 1.34056 0
M  V30 831 C 76.6311 0.41863 1.97717 0
M  V30 832 C 76.9521 -1.02314 1.66002 0
M  V30 833 O 76.2221 -1.71119 0.953683 0
M  V30 834 H 74.8021 0.151809 0.731412 0
M  V30 835 H 77.4641 1.05936 1.63596 0
M  V30 836 H 76.5601 0.542318 3.07352 0
M  V30 837 N 76.8612 -1.46375 0.584142 0
M  V30 838 C 77.8112 -2.27371 -0.169232 0
M  V30 839 C 78.7952 -1.35955 -0.860523 0
M  V30 840 O 79.9872 -1.60119 -0.754382 0
M  V30 841 C 77.1162 -3.22334 -1.18134 0
M  V30 842 C 76.2022 -4.21235 -0.492088 0
M  V30 843 N 76.5932 -5.03766 0.453129 0
M  V30 844 C 74.8912 -4.39773 -0.742652 0
M  V30 845 C 75.5922 -5.75366 0.85609 0
M  V30 846 N 74.5682 -5.43214 0.204926 0
M  V30 847 H 78.3702 -2.88572 0.557097 0
M  V30 848 H 75.8842 -1.57242 0.406042 0
M  V30 849 H 77.8812 -3.79071 -1.73525 0
M  V30 850 H 76.5412 -2.62693 -1.90847 0
M  V30 851 H 77.5522 -5.11227 0.828723 0
M  V30 852 H 74.2292 -3.91279 -1.45625 0
M  V30 853 H 75.6192 -6.5172 1.63434 0
M  V30 854 N 78.3393 -0.321999 -1.54275 0
M  V30 855 C 79.2493 0.553631 -2.27974 0
M  V30 856 C 80.2653 1.13054 -1.32268 0
M  V30 857 O 81.4413 1.15084 -1.6528 0
M  V30 858 C 78.5063 1.69927 -3.02201 0
M  V30 859 C 77.5673 1.15433 -4.1349 0
M  V30 860 C 76.8003 2.24537 -4.84168 0
M  V30 861 O 77.0233 3.44852 -4.5435 0
M  V30 862 O 75.9573 1.90044 -5.7111 0
M  V30 863 H 79.7833 -0.0448345 -3.03667 0
M  V30 864 H 77.3683 -0.0877418 -1.49142 0
M  V30 865 H 79.2503 2.3663 -3.48689 0
M  V30 866 H 77.9253 2.28395 -2.29385 0
M  V30 867 H 76.8323 0.452436 -3.71354 0
M  V30 868 H 78.1653 0.614805 -4.88345 0
M  V30 869 N 79.8174 1.5752 -0.0501392 0
M  V30 870 C 81.0654 1.9227 0.622642 0
M  V30 871 C 81.3864 0.929083 1.71444 0
M  V30 872 O 80.6564 -0.0262186 1.95882 0
M  V30 873 H 79.2364 0.709739 0.232981 0
M  V30 874 H 81.8984 1.94628 -0.102898 0
M  V30 875 H 80.9944 2.93479 1.06191 0
M  V30 876 N 81.2955 -0.223234 1.56011 0
M  V30 877 C 82.7115 -0.572856 1.48965 0
M  V30 878 C 82.9115 -1.87225 0.74492 0
M  V30 879 O 81.9675 -2.50899 0.283896 0
M  V30 880 C 83.2805 -0.653646 2.9351 0
M  V30 881 C 84.8285 -0.744386 3.0402 0
M  V30 882 C 85.3035 -0.856535 4.49919 0
M  V30 883 N 86.7945 -0.9208 4.53955 0
M  V30 884 C 87.5295 -1.02726 5.64123 0
M  V30 885 N 87.0255 -1.09777 6.84047 0
M  V30 886 N 88.8185 -1.06226 5.51971 0
M  V30 887 H 80.9695 0.629462 2.02858 0
M  V30 888 H 83.2325 0.220621 0.921971 0
M  V30 889 H 82.9385 0.231518 3.50937 0
M  V30 890 H 82.8125 -1.51781 3.45315 0
M  V30 891 H 85.1995 -1.61999 2.46658 0
M  V30 892 H 85.2805 0.14541 2.55386 0
M  V30 893 H 84.9245 0.0146069 5.07898 0
M  V30 894 H 84.8545 -1.76172 4.96257 0
M  V30 895 H 87.3455 -0.876694 3.6759 0
M  V30 896 H 87.6585 -1.17872 7.63758 0
M  V30 897 H 86.0035 -1.06693 6.86762 0
M  V30 898 H 89.1945 -1.00382 4.5721 0
M  V30 899 H 89.3675 -1.14177 6.37862 0
M  V30 900 N 82.7736 -1.49793 -0.48987 0
M  V30 901 C 84.0016 -1.63568 -1.26701 0
M  V30 902 C 84.4166 -0.311465 -1.86213 0
M  V30 903 O 83.7736 0.704416 -1.68357 0
M  V30 904 C 83.8246 -2.71284 -2.38929 0
M  V30 905 O 83.5456 -3.9857 -1.81861 0
M  V30 906 C 85.0466 -2.95864 -3.3012 0
M  V30 907 H 82.2666 -0.550342 -0.383881 0
M  V30 908 H 84.8106 -1.95898 -0.586864 0
M  V30 909 H 82.9656 -2.417 -3.02753 0
M  V30 910 H 83.3796 -4.57993 -2.55622 0
M  V30 911 H 84.8536 -3.74941 -4.05121 0
M  V30 912 H 85.3306 -2.06206 -3.87783 0
M  V30 913 H 85.9366 -3.26907 -2.72051 0
M  V30 914 N 84.2517 0.741722 -1.39055 0
M  V30 915 C 85.4977 1.50234 -1.37118 0
M  V30 916 C 85.8527 1.92368 0.0350439 0
M  V30 917 O 85.1457 1.63422 1.00019 0
M  V30 918 C 85.3397 2.7592 -2.27163 0
M  V30 919 C 85.1687 2.46074 -3.76401 0
M  V30 920 C 83.9387 2.38704 -4.45364 0
M  V30 921 C 86.1367 2.12062 -4.68545 0
M  V30 922 N 84.1187 2.01258 -5.79973 0
M  V30 923 C 85.4897 1.85005 -5.91754 0
M  V30 924 C 87.5447 1.98473 -4.56632 0
M  V30 925 C 86.2477 1.4573 -7.04383 0
M  V30 926 C 88.2737 1.60599 -5.69176 0
M  V30 927 C 87.6357 1.34423 -6.91455 0
M  V30 928 H 83.7347 0.548858 -0.557027 0
M  V30 929 H 86.3187 0.862642 -1.74547 0
M  V30 930 H 84.4897 3.3768 -1.91904 0
M  V30 931 H 86.2217 3.42068 -2.16267 0
M  V30 932 H 82.9767 2.55574 -3.98721 0
M  V30 933 H 83.4007 1.85147 -6.51191 0
M  V30 934 H 88.0427 2.17381 -3.62637 0
M  V30 935 H 85.7607 1.25562 -7.98286 0
M  V30 936 H 89.3467 1.507 -5.61944 0
M  V30 937 H 88.2267 1.05555 -7.77064 0
M  V30 938 N 85.7298 1.2412 0.971189 0
M  V30 939 C 86.9778 1.07668 1.71032 0
M  V30 940 C 87.2988 -0.385797 1.91146 0
M  V30 941 O 86.5688 -1.27569 1.4867 0
M  V30 942 H 85.1488 0.395429 0.633755 0
M  V30 943 H 87.8108 1.55984 1.16855 0
M  V30 944 H 86.9068 1.57195 2.69622 0
M  V30 945 N 87.2079 -1.17134 1.05439 0
M  V30 946 C 88.4849 -1.83411 0.679699 0
M  V30 947 C 88.8649 -1.9368 -0.839726 0
M  V30 948 O 88.2129 -1.47325 -1.74664 0
M  V30 949 C 88.4229 -3.20918 1.37159 0
M  V30 950 C 89.7709 -3.96796 1.51123 0
M  V30 951 O 90.7949 -3.30406 1.3308 0
M  V30 952 O 89.6539 -5.15778 1.80651 0
M  V30 953 H 86.7479 -0.79154 0.239569 0
M  V30 954 H 89.2939 -1.24411 1.15413 0
M  V30 955 H 88.0659 -3.08428 2.40807 0
M  V30 956 H 87.6889 -3.87587 0.886674 0
M  V30 957 N 88.686 -0.835752 -1.33615 0
M  V30 958 C 89.616 -0.281739 -2.31794 0
M  V30 959 C 90.597 0.608833 -1.58831 0
M  V30 960 O 91.782 0.533035 -1.86741 0
M  V30 961 C 88.912 0.546612 -3.42971 0
M  V30 962 C 87.866 -0.247904 -4.27281 0
M  V30 963 C 87.192 0.704001 -5.30045 0
M  V30 964 C 88.492 -1.46324 -5.01385 0
M  V30 965 H 90.186 -1.10206 -2.78379 0
M  V30 966 H 87.732 -0.531388 -1.33837 0
M  V30 967 H 89.685 0.944467 -4.1068 0
M  V30 968 H 88.409 1.40011 -2.95067 0
M  V30 969 H 87.068 -0.627281 -3.61194 0
M  V30 970 H 86.716 1.55381 -4.78399 0
M  V30 971 H 86.416 0.176524 -5.87335 0
M  V30 972 H 87.94 1.09944 -6.0062 0
M  V30 973 H 89.354 -1.13871 -5.61877 0
M  V30 974 H 87.751 -1.92728 -5.6831 0
M  V30 975 H 88.821 -2.23467 -4.30338 0
M  V30 976 N 90.1641 1.46063 -0.591896 0
M  V30 977 C 91.4121 2.01938 -0.0808391 0
M  V30 978 C 91.7331 1.46475 1.28725 0
M  V30 979 O 91.0031 0.652944 1.84698 0
M  V30 980 H 89.5831 0.746516 -0.0268938 0
M  V30 981 H 92.2451 1.79055 -0.769752 0
M  V30 982 H 91.3411 3.12094 -0.0187578 0
M  V30 983 N 91.6422 0.330177 1.54103 0
M  V30 984 C 92.6052 -0.520144 2.2322 0
M  V30 985 C 93.6052 -1.03828 1.22786 0
M  V30 986 O 94.7952 -0.929652 1.4732 0
M  V30 987 C 91.9272 -1.72317 2.94142 0
M  V30 988 H 93.1202 0.0841605 2.99782 0
M  V30 989 H 90.6732 0.0813433 1.56088 0
M  V30 990 H 91.4082 -2.36653 2.21734 0
M  V30 991 H 91.1932 -1.35898 3.67796 0
M  V30 992 H 92.6832 -2.3266 3.46784 0
M  V30 993 N 93.1203 -1.57491 0.0584922 0
M  V30 994 C 94.0833 -2.1085 -0.898617 0
M  V30 995 C 95.0833 -1.02964 -1.23511 0
M  V30 996 O 96.2733 -1.29007 -1.17059 0
M  V30 997 C 93.4053 -2.59881 -2.20623 0
M  V30 998 H 94.5983 -2.96715 -0.435936 0
M  V30 999 H 92.1513 -1.55141 -0.190023 0
M  V30 1000 H 92.8863 -1.77431 -2.71457 0
M  V30 1001 H 92.6713 -3.38727 -1.97501 0
M  V30 1002 H 94.1613 -3.01285 -2.89166 0
M  V30 1003 N 94.5984 0.214957 -1.56127 0
M  V30 1004 C 95.5614 1.24997 -1.92116 0
M  V30 1005 C 96.5614 1.39467 -0.800344 0
M  V30 1006 O 97.7514 1.37619 -1.06802 0
M  V30 1007 C 94.8834 2.62271 -2.17777 0
M  V30 1008 H 96.0764 0.942875 -2.84693 0
M  V30 1009 H 93.6294 0.455654 -1.49511 0
M  V30 1010 H 94.3644 2.98068 -1.27773 0
M  V30 1011 H 94.1494 2.53143 -2.99434 0
M  V30 1012 H 95.6394 3.36946 -2.46693 0
M  V30 1013 N 96.0765 1.50051 0.48192 0
M  V30 1014 C 97.3245 1.60181 1.23234 0
M  V30 1015 C 97.6455 0.299176 1.92691 0
M  V30 1016 O 96.9155 -0.682708 1.83619 0
M  V30 1017 H 95.4955 0.590232 0.457859 0
M  V30 1018 H 98.1575 1.86775 0.556881 0
M  V30 1019 H 97.2535 2.40753 1.98607 0
M  V30 1020 N 97.5546 -0.734337 1.39446 0
M  V30 1021 C 98.8026 -1.49096 1.36436 0
M  V30 1022 C 99.1236 -1.94961 -0.0388255 0
M  V30 1023 O 98.3936 -1.69033 -0.990191 0
M  V30 1024 H 96.9736 -0.5531 0.502085 0
M  V30 1025 H 99.6356 -0.871725 1.74319 0
M  V30 1026 H 98.7316 -2.37276 2.02747 0
M  V30 1027 N 99.0327 -1.24633 -0.964593 0
M  V30 1028 C 100.281 -1.08573 -1.70459 0
M  V30 1029 C 100.602 0.375655 -1.91347 0
M  V30 1030 O 99.8717 1.26779 -1.49345 0
M  V30 1031 H 98.4517 -0.398784 -0.631649 0
M  V30 1032 H 101.114 -1.56601 -1.16026 0
M  V30 1033 H 100.21 -1.58623 -2.68785 0
M  V30 1034 N 100.511 1.16574 -1.06058 0
M  V30 1035 C 101.739 1.90952 -0.796552 0
M  V30 1036 C 102.154 1.77302 0.648808 0
M  V30 1037 O 101.511 1.11605 1.44397 0
M  V30 1038 C 101.562 3.41736 -1.17894 0
M  V30 1039 O 101.283 3.54975 -2.56758 0
M  V30 1040 C 102.784 4.33169 -0.942308 0
M  V30 1041 H 100.004 0.605594 -0.288959 0
M  V30 1042 H 102.548 1.47777 -1.41358 0
M  V30 1043 H 100.703 3.82623 -0.606491 0
M  V30 1044 H 101.117 4.4846 -2.72 0
M  V30 1045 H 102.591 5.37439 -1.25952 0
M  V30 1046 H 103.068 4.3903 0.122078 0
M  V30 1047 H 103.674 3.98007 -1.49902 0
M  V30 1048 N 101.989 0.842826 1.3317 0
M  V30 1049 C 103.4 0.496651 1.79973 0
M  V30 1050 C 103.751 -0.984641 1.69703 0
M  V30 1051 O 102.876 -1.76743 1.24863 0
M  V30 1052 C 103.471 0.894727 3.26772 0
M  V30 1053 C 102.03 0.600629 3.71577 0
M  V30 1054 C 101.177 1.10091 2.5451 0
M  V30 1055 H 104.128 1.03116 1.20635 0
M  V30 1056 H 104.149 0.206347 3.7994 0
M  V30 1057 H 103.661 1.97287 3.34215 0
M  V30 1058 H 101.762 -0.467284 3.69658 0
M  V30 1059 H 101.875 1.15863 4.64879 0
M  V30 1060 H 100.239 0.52162 2.49301 0
M  V30 1061 H 101.022 2.18591 2.64713 0
M  V30 1062 N 103.467 -1.45747 0.599634 0
M  V30 1063 C 104.692 -2.07178 0.0960198 0
M  V30 1064 C 105.117 -1.44268 -1.207 0
M  V30 1065 O 104.475 -0.532503 -1.73303 0
M  V30 1066 C 104.523 -3.60579 -0.0385348 0
M  V30 1067 O 103.627 -3.97713 -1.0908 0
M  V30 1068 H 102.968 -0.660251 0.0704593 0
M  V30 1069 H 105.498 -1.87124 0.827385 0
M  V30 1070 H 105.508 -4.07298 -0.239304 0
M  V30 1071 H 104.183 -4.05756 0.912947 0
M  V30 1072 H 102.76 -3.62678 -0.867135 0
M  V30 1073 N 104.945 -0.338344 -1.53925 0
M  V30 1074 C 105.892 0.520845 -2.24846 0
M  V30 1075 C 106.862 1.09976 -1.24477 0
M  V30 1076 O 108.047 1.13735 -1.53196 0
M  V30 1077 C 105.187 1.6685 -3.02084 0
M  V30 1078 C 104.3 1.11739 -4.17299 0
M  V30 1079 C 103.435 2.23193 -4.82036 0
M  V30 1080 C 102.474 1.65407 -5.89328 0
M  V30 1081 N 101.611 2.70582 -6.47866 0
M  V30 1082 H 106.451 -0.0904881 -2.97863 0
M  V30 1083 H 103.988 -0.0564282 -1.46992 0
M  V30 1084 H 105.946 2.34407 -3.45122 0
M  V30 1085 H 104.576 2.2509 -2.31375 0
M  V30 1086 H 103.628 0.332919 -3.7894 0
M  V30 1087 H 104.94 0.654677 -4.94485 0
M  V30 1088 H 104.094 2.98626 -5.28117 0
M  V30 1089 H 102.833 2.72807 -4.04262 0
M  V30 1090 H 101.838 0.884779 -5.42634 0
M  V30 1091 H 103.063 1.16652 -6.69006 0
M  V30 1092 H 101.009 3.1946 -5.72959 0
M  V30 1093 H 100.926 2.28917 -7.20509 0
M  V30 1094 H 102.194 3.45799 -6.98601 0
M  V30 1095 N 106.423 1.57458 -0.0668435 0
M  V30 1096 C 107.671 1.92919 0.602214 0
M  V30 1097 C 107.992 0.947215 1.70449 0
M  V30 1098 O 107.262 -0.00544117 1.95899 0
M  V30 1099 H 105.842 0.71217 0.22544 0
M  V30 1100 H 108.504 1.94508 -0.123535 0
M  V30 1101 H 107.6 2.94589 1.03073 0
M  V30 1102 N 107.901 -0.206675 1.56239 0
M  V30 1103 C 109.147 -0.930218 1.80208 0
M  V30 1104 C 109.48 -1.83387 0.638981 0
M  V30 1105 O 108.755 -1.91119 -0.361066 0
M  V30 1106 C 109.038 -1.75641 3.1436 0
M  V30 1107 C 108.891 -0.878257 4.41142 0
M  V30 1108 C 110.21 -2.73129 3.45092 0
M  V30 1109 H 107.329 -0.336742 0.655571 0
M  V30 1110 H 109.971 -0.198222 1.88963 0
M  V30 1111 H 108.121 -2.38048 3.07027 0
M  V30 1112 H 109.793 -0.269787 4.6051 0
M  V30 1113 H 108.036 -0.184385 4.33408 0
M  V30 1114 H 108.707 -1.49106 5.3148 0
M  V30 1115 H 111.183 -2.20856 3.52649 0
M  V30 1116 H 110.059 -3.28028 4.40101 0
M  V30 1117 H 110.32 -3.51606 2.68003 0
M  V30 1118 N 109.379 -1.50304 -0.473955 0
M  V30 1119 C 110.327 -1.69482 -1.59307 0
M  V30 1120 C 111.321 -0.560669 -1.59853 0
M  V30 1121 O 112.527 -0.741087 -1.64036 0
M  V30 1122 H 108.902 -0.534892 -0.528578 0
M  V30 1123 H 110.873 -2.63364 -1.40293 0
M  V30 1124 C 109.622 -1.80354 -2.97267 0
M  V30 1125 H 108.945 -2.67012 -2.97564 0
M  V30 1126 H 110.385 -1.97798 -3.75036 0
M  V30 1127 C 108.844 -0.55448 -3.32306 0
M  V30 1128 O 109.374 0.307661 -4.0052 0
M  V30 1129 N 107.58 -0.409354 -2.87702 0
M  V30 1130 H 107.127 -1.11196 -2.32364 0
M  V30 1131 H 107.085 0.425223 -3.11511 0
M  V30 1132 N 110.857 0.726932 -1.39834 0
M  V30 1133 C 112.104 1.48664 -1.37496 0
M  V30 1134 C 112.432 1.94482 0.0264678 0
M  V30 1135 O 111.687 1.67692 1.00886 0
M  V30 1136 C 111.986 2.73495 -2.30077 0
M  V30 1137 C 111.652 2.46502 -3.77555 0
M  V30 1138 C 110.314 2.3885 -4.17737 0
M  V30 1139 C 112.666 2.23604 -4.70798 0
M  V30 1140 C 109.994 2.06352 -5.49214 0
M  V30 1141 C 112.346 1.92622 -6.02561 0
M  V30 1142 C 111.01 1.83444 -6.41798 0
M  V30 1143 H 110.28 0.544001 -0.503135 0
M  V30 1144 H 112.927 0.833657 -1.72402 0
M  V30 1145 H 111.232 3.43575 -1.88317 0
M  V30 1146 H 112.929 3.31549 -2.25558 0
M  V30 1147 H 109.519 2.5334 -3.45712 0
M  V30 1148 H 113.703 2.28479 -4.40581 0
M  V30 1149 H 108.959 1.97776 -5.78528 0
M  V30 1150 H 113.133 1.73914 -6.74334 0
M  V30 1151 H 110.76 1.58029 -7.43593 0
M  V30 1152 N 112.336 1.25143 0.95797 0
M  V30 1153 C 113.299 1.05321 2.03569 0
M  V30 1154 C 114.299 0.007152 1.60798 0
M  V30 1155 O 115.489 0.24903 1.72411 0
M  V30 1156 C 112.621 0.598394 3.35607 0
M  V30 1157 H 113.814 2.00986 2.22586 0
M  V30 1158 H 111.367 1.07502 1.13459 0
M  V30 1159 H 112.102 -0.361014 3.22284 0
M  V30 1160 H 111.887 1.35351 3.67998 0
M  V30 1161 H 113.377 0.48104 4.1482 0
M  V30 1162 N 113.814 -1.1601 1.06675 0
M  V30 1163 C 114.724 -2.24156 0.692179 0
M  V30 1164 C 115.74 -1.71507 -0.293513 0
M  V30 1165 O 116.916 -2.009 -0.141861 0
M  V30 1166 C 113.981 -3.46587 0.0884131 0
M  V30 1167 C 113.042 -4.14257 1.12646 0
M  V30 1168 C 112.275 -5.30844 0.551416 0
M  V30 1169 O 112.498 -5.66858 -0.634656 0
M  V30 1170 O 111.432 -5.87848 1.29298 0
M  V30 1171 H 115.258 -2.58513 1.59388 0
M  V30 1172 H 112.843 -1.23599 0.83926 0
M  V30 1173 H 114.725 -4.20679 -0.246361 0
M  V30 1174 H 113.4 -3.13994 -0.786712 0
M  V30 1175 H 112.307 -3.42118 1.51348 0
M  V30 1176 H 113.64 -4.50914 1.97325 0
M  V30 1177 N 115.292 -0.849877 -1.32721 0
M  V30 1178 C 116.202 -0.293791 -2.32753 0
M  V30 1179 C 117.218 0.585906 -1.63839 0
M  V30 1180 O 118.394 0.487413 -1.95413 0
M  V30 1181 C 115.459 0.512752 -3.42887 0
M  V30 1182 C 114.52 -0.39252 -4.27502 0
M  V30 1183 C 113.753 0.375625 -5.32377 0
M  V30 1184 O 113.976 1.60613 -5.4732 0
M  V30 1185 O 112.91 -0.256094 -6.01355 0
M  V30 1186 H 116.736 -1.12242 -2.82197 0
M  V30 1187 H 114.321 -0.612685 -1.36259 0
M  V30 1188 H 116.203 0.970704 -4.10067 0
M  V30 1189 H 114.878 1.31826 -2.95641 0
M  V30 1190 H 113.785 -0.898547 -3.63149 0
M  V30 1191 H 115.118 -1.16309 -4.7826 0
M  V30 1192 N 116.77 1.45427 -0.607355 0
M  V30 1193 C 118.181 1.85756 -0.187535 0
M  V30 1194 C 118.532 1.5077 1.25551 0
M  V30 1195 O 117.657 0.93427 1.95193 0
M  V30 1196 C 118.252 3.37154 -0.333572 0
M  V30 1197 C 116.811 3.76387 0.0315542 0
M  V30 1198 C 115.958 2.69377 -0.658117 0
M  V30 1199 H 118.909 1.36231 -0.81405 0
M  V30 1200 H 118.93 3.78014 0.43428 0
M  V30 1201 H 118.442 3.62586 -1.38393 0
M  V30 1202 H 116.543 3.56571 1.0811 0
M  V30 1203 H 116.656 4.77731 -0.361935 0
M  V30 1204 H 115.02 2.5452 -0.0957873 0
M  V30 1205 H 115.803 2.97646 -1.7106 0
M  V30 1206 N 118.248 0.346503 1.53744 0
M  V30 1207 C 119.181 -0.552023 2.21423 0
M  V30 1208 C 120.159 -1.09798 1.19929 0
M  V30 1209 O 121.343 -1.1577 1.4876 0
M  V30 1210 C 118.47 -1.75972 2.89398 0
M  V30 1211 C 117.516 -1.34295 4.04805 0
M  V30 1212 S 118.349 -0.360263 5.34287 0
M  V30 1213 C 119.505 -1.57473 6.05767 0
M  V30 1214 H 119.738 0.0228119 2.97291 0
M  V30 1215 H 117.271 0.130579 1.53847 0
M  V30 1216 H 119.229 -2.45256 3.2918 0
M  V30 1217 H 117.89 -2.30578 2.1329 0
M  V30 1218 H 117.083 -2.24349 4.51313 0
M  V30 1219 H 116.685 -0.729555 3.66815 0
M  V30 1220 H 118.977 -2.50875 6.29339 0
M  V30 1221 H 119.92 -1.15138 6.98676 0
M  V30 1222 H 120.328 -1.77212 5.35963 0
M  V30 1223 N 119.726 -1.57421 0.075193 0
M  V30 1224 C 120.658 -2.09904 -0.920483 0
M  V30 1225 C 121.671 -1.03191 -1.25918 0
M  V30 1226 O 122.86 -1.30695 -1.21577 0
M  V30 1227 C 119.96 -2.54726 -2.23534 0
M  V30 1228 C 119.133 -3.8505 -2.07498 0
M  V30 1229 C 118.192 -4.15929 -3.22319 0
M  V30 1230 O 117.218 -4.85474 -2.9716 0
M  V30 1231 N 118.42 -3.69745 -4.47514 0
M  V30 1232 H 121.185 -2.95954 -0.472359 0
M  V30 1233 H 118.746 -1.61523 -0.110444 0
M  V30 1234 H 120.738 -2.72443 -2.9926 0
M  V30 1235 H 119.308 -1.73795 -2.59835 0
M  V30 1236 H 118.528 -3.76679 -1.16219 0
M  V30 1237 H 119.816 -4.70348 -1.94038 0
M  V30 1238 H 119.214 -3.13569 -4.7084 0
M  V30 1239 H 117.771 -3.92655 -5.20255 0
M  V30 1240 N 121.204 0.198386 -1.56346 0
M  V30 1241 C 122.429 0.939682 -1.84891 0
M  V30 1242 C 122.854 1.76202 -0.658369 0
M  V30 1243 O 122.212 1.76993 0.392851 0
M  V30 1244 C 122.26 1.81428 -3.11635 0
M  V30 1245 O 121.364 2.91265 -2.91956 0
M  V30 1246 H 120.705 0.264807 -0.608912 0
M  V30 1247 H 123.235 0.204695 -2.03573 0
M  V30 1248 H 123.245 2.21958 -3.42343 0
M  V30 1249 H 121.92 1.21004 -3.97908 0
M  V30 1250 H 120.497 2.54514 -2.72538 0
M  V30 1251 N 122.682 1.50554 0.465978 0
M  V30 1252 C 123.959 1.5232 1.22712 0
M  V30 1253 C 124.339 0.270807 2.09356 0
M  V30 1254 O 123.687 -0.745541 2.15995 0
M  V30 1255 C 123.897 2.82175 2.05374 0
M  V30 1256 C 125.245 3.33033 2.6339 0
M  V30 1257 O 126.269 2.83531 2.15612 0
M  V30 1258 O 125.128 4.19336 3.50456 0
M  V30 1259 H 122.222 0.611183 0.557122 0
M  V30 1260 H 124.768 1.62847 0.477381 0
M  V30 1261 H 123.54 3.64797 1.41558 0
M  V30 1262 H 123.163 2.74675 2.87471 0
M  V30 1263 N 124.16 -0.719506 1.40217 0
M  V30 1264 C 125.385 -1.51371 1.4178 0
M  V30 1265 C 125.81 -1.88091 0.0182355 0
M  V30 1266 O 125.168 -1.52997 -0.972707 0
M  V30 1267 C 125.216 -2.768 2.31115 0
M  V30 1268 O 124.32 -3.73349 1.7517 0
M  V30 1269 H 123.661 -0.456529 0.482159 0
M  V30 1270 H 126.191 -0.88644 1.844 0
M  V30 1271 H 126.201 -3.25371 2.46167 0
M  V30 1272 H 124.876 -2.49407 3.3282 0
M  V30 1273 H 123.453 -3.32179 1.69444 0
M  V30 1274 N 125.638 -1.25649 -0.95132 0
M  V30 1275 C 126.548 -1.08073 -2.08224 0
M  V30 1276 C 127.564 -0.0169666 -1.73992 0
M  V30 1277 O 128.74 -0.218593 -2.0021 0
M  V30 1278 C 125.805 -0.704922 -3.39458 0
M  V30 1279 C 124.866 -1.84699 -3.87537 0
M  V30 1280 C 124.099 -1.48902 -5.12508 0
M  V30 1281 O 124.322 -0.386156 -5.69091 0
M  V30 1282 O 123.256 -2.32033 -5.55378 0
M  V30 1283 H 127.082 -2.02924 -2.25954 0
M  V30 1284 H 124.667 -1.04618 -1.06656 0
M  V30 1285 H 126.549 -0.507609 -4.18332 0
M  V30 1286 H 125.224 0.214291 -3.2299 0
M  V30 1287 H 124.131 -2.09919 -3.09653 0
M  V30 1288 H 125.464 -2.74557 -4.08509 0
M  V30 1289 N 127.117 1.15442 -1.07289 0
M  V30 1290 C 128.394 1.82306 -0.708792 0
M  V30 1291 C 128.774 1.94991 0.808807 0
M  V30 1292 O 128.122 1.50085 1.72298 0
M  V30 1293 C 128.332 3.18695 -1.42247 0
M  V30 1294 C 129.68 3.94341 -1.57417 0
M  V30 1295 O 130.704 3.28247 -1.38319 0
M  V30 1296 O 129.563 5.12839 -1.88834 0
M  V30 1297 H 126.657 0.787628 -0.252132 0
M  V30 1298 H 129.203 1.22559 -1.17377 0
M  V30 1299 H 127.975 3.04557 -2.45684 0
M  V30 1300 H 127.598 3.86128 -0.948223 0
M  V30 1301 N 128.595 0.856903 1.32268 0
M  V30 1302 C 129.843 0.460474 1.96784 0
M  V30 1303 C 130.164 -0.987701 1.68135 0
M  V30 1304 O 129.434 -1.69058 0.989765 0
M  V30 1305 H 128.014 0.167289 0.728027 0
M  V30 1306 H 130.676 1.09383 1.61312 0
M  V30 1307 H 129.772 0.60739 3.06133 0
M  V30 1308 N 130.073 -1.45103 0.615059 0
M  V30 1309 C 130.983 -2.34382 -0.101034 0
M  V30 1310 C 131.999 -1.51681 -0.852585 0
M  V30 1311 O 133.175 -1.8446 -0.808484 0
M  V30 1312 C 130.24 -3.29417 -1.08099 0
M  V30 1313 C 129.301 -4.28025 -0.330577 0
M  V30 1314 C 128.534 -5.1852 -1.26385 0
M  V30 1315 O 128.757 -5.12598 -2.50198 0
M  V30 1316 O 127.691 -5.97122 -0.756866 0
M  V30 1317 H 131.517 -2.97033 0.632855 0
M  V30 1318 H 129.102 -1.4461 0.375293 0
M  V30 1319 H 130.984 -3.87958 -1.6452 0
M  V30 1320 H 129.659 -2.69321 -1.79577 0
M  V30 1321 H 128.566 -3.73078 0.276283 0
M  V30 1322 H 129.899 -4.90997 0.343866 0
M  V30 1323 N 131.551 -0.354651 -1.53558 0
M  V30 1324 C 132.461 0.50515 -2.29097 0
M  V30 1325 C 133.477 1.10223 -1.34636 0
M  V30 1326 O 134.653 1.11553 -1.67684 0
M  V30 1327 C 131.718 1.63479 -3.05738 0
M  V30 1328 C 130.779 1.06636 -4.15845 0
M  V30 1329 C 130.012 2.14217 -4.88822 0
M  V30 1330 O 130.235 3.35137 -4.61562 0
M  V30 1331 O 129.169 1.77887 -5.75013 0
M  V30 1332 H 132.995 -0.109237 -3.03503 0
M  V30 1333 H 130.58 -0.119357 -1.48922 0
M  V30 1334 H 132.462 2.2918 -3.5363 0
M  V30 1335 H 131.137 2.23478 -2.34178 0
M  V30 1336 H 130.044 0.373565 -3.7223 0
M  V30 1337 H 131.377 0.511081 -4.89539 0
M  V30 1338 N 133.029 1.57378 -0.0835403 0
M  V30 1339 C 133.939 2.16897 0.894021 0
M  V30 1340 C 134.955 1.13528 1.31861 0
M  V30 1341 O 136.131 1.45848 1.3889 0
M  V30 1342 C 133.196 2.72831 2.13925 0
M  V30 1343 C 132.257 3.91115 1.76997 0
M  V30 1344 C 131.49 4.44371 2.95584 0
M  V30 1345 O 131.713 3.96596 4.09961 0
M  V30 1346 O 130.647 5.35549 2.74719 0
M  V30 1347 H 134.473 3.00814 0.417679 0
M  V30 1348 H 132.058 1.48741 0.140181 0
M  V30 1349 H 133.94 3.0863 2.86924 0
M  V30 1350 H 132.615 1.91967 2.60635 0
M  V30 1351 H 131.522 3.60148 1.01214 0
M  V30 1352 H 132.855 4.73307 1.3506 0
M  V30 1353 N 134.507 -0.190092 1.56449 0
M  V30 1354 C 135.417 -1.25591 1.98152 0
M  V30 1355 C 136.433 -1.49519 0.889944 0
M  V30 1356 O 137.609 -1.62036 1.19609 0
M  V30 1357 C 134.674 -2.57916 2.3169 0
M  V30 1358 C 133.735 -2.42015 3.5458 0
M  V30 1359 C 132.968 -3.6803 3.8651 0
M  V30 1360 O 133.191 -4.72413 3.1966 0
M  V30 1361 O 132.125 -3.6326 4.79923 0
M  V30 1362 H 135.951 -0.931988 2.89046 0
M  V30 1363 H 133.536 -0.395488 1.4407 0
M  V30 1364 H 135.418 -3.36008 2.54316 0
M  V30 1365 H 134.093 -2.89925 1.43963 0
M  V30 1366 H 133 -1.62017 3.37196 0
M  V30 1367 H 134.333 -2.14937 4.4279 0
M  V30 1368 N 135.985 -1.50799 -0.457987 0
M  V30 1369 C 136.948 -1.7005 -1.53674 0
M  V30 1370 C 137.948 -0.570881 -1.50325 0
M  V30 1371 O 139.138 -0.838126 -1.52712 0
M  V30 1372 C 136.27 -1.73788 -2.93276 0
M  V30 1373 H 137.463 -2.66306 -1.37917 0
M  V30 1374 H 135.016 -1.40477 -0.685271 0
M  V30 1375 H 135.751 -0.792717 -3.14462 0
M  V30 1376 H 135.536 -2.55864 -2.97113 0
M  V30 1377 H 137.026 -1.90591 -3.71571 0
M  V30 1378 N 137.463 0.71206 -1.40597 0
M  V30 1379 C 138.426 1.80785 -1.40888 0
M  V30 1380 C 139.426 1.57937 -0.302103 0
M  V30 1381 O 140.616 1.64913 -0.561182 0
M  V30 1382 C 137.748 3.18927 -1.20409 0
M  V30 1383 H 138.941 1.81924 -2.38419 0
M  V30 1384 H 136.494 0.91805 -1.26497 0
M  V30 1385 H 137.229 3.23436 -0.236522 0
M  V30 1386 H 137.014 3.36911 -2.00582 0
M  V30 1387 H 138.504 3.98949 -1.23408 0
M  V30 1388 N 138.941 1.26152 0.944643 0
M  V30 1389 C 140.352 1.10454 1.50522 0
M  V30 1390 C 140.703 -0.31635 1.93633 0
M  V30 1391 O 139.828 -1.20746 1.79581 0
M  V30 1392 C 140.423 1.99891 2.73549 0
M  V30 1393 C 138.982 1.88348 3.25886 0
M  V30 1394 C 138.129 1.93447 1.9868 0
M  V30 1395 H 141.08 1.39292 0.760489 0
M  V30 1396 H 141.101 1.54477 3.47732 0
M  V30 1397 H 140.613 3.03297 2.42141 0
M  V30 1398 H 138.714 0.878636 3.62092 0
M  V30 1399 H 138.827 2.73696 3.93227 0
M  V30 1400 H 137.191 1.37456 2.14425 0
M  V30 1401 H 137.974 2.98476 1.69607 0
M  V30 1402 N 140.419 -1.14872 1.07899 0
M  V30 1403 C 141.382 -2.17986 0.708161 0
M  V30 1404 C 142.382 -1.58775 -0.25442 0
M  V30 1405 O 143.572 -1.74166 -0.034645 0
M  V30 1406 C 140.704 -3.40871 0.0446929 0
M  V30 1407 H 141.897 -2.52306 1.62116 0
M  V30 1408 H 139.45 -1.2943 0.876218 0
M  V30 1409 H 140.185 -3.12124 -0.880281 0
M  V30 1410 H 139.97 -3.8511 0.737091 0
M  V30 1411 H 141.46 -4.17121 -0.19991 0
M  V30 1412 N 141.898 -0.863906 -1.31812 0
M  V30 1413 C 143.175 -0.39275 -1.91616 0
M  V30 1414 C 143.555 1.12461 -1.7865 0
M  V30 1415 O 142.903 1.95045 -1.19037 0
M  V30 1416 C 143.113 -0.867385 -3.38049 0
M  V30 1417 C 144.461 -0.889966 -4.15168 0
M  V30 1418 O 145.485 -0.812635 -3.46806 0
M  V30 1419 O 144.344 -1.00079 -5.37258 0
M  V30 1420 H 141.438 -0.116358 -0.818773 0
M  V30 1421 H 143.984 -0.951418 -1.40521 0
M  V30 1422 H 142.756 -1.91081 -3.41473 0
M  V30 1423 H 142.379 -0.286687 -3.96565 0
M  V30 1424 N 143.376 1.44774 -0.622745 0
M  V30 1425 C 144.339 2.29069 0.0774015 0
M  V30 1426 C 145.339 1.4059 0.780461 0
M  V30 1427 O 146.529 1.62551 0.626322 0
M  V30 1428 C 143.661 3.21974 1.12006 0
M  V30 1429 H 144.854 2.92459 -0.663901 0
M  V30 1430 H 142.407 1.51548 -0.382486 0
M  V30 1431 H 143.142 2.63417 1.89162 0
M  V30 1432 H 142.927 3.87168 0.619951 0
M  V30 1433 H 144.417 3.85318 1.60995 0
M  V30 1434 N 144.854 0.36279 1.53368 0
M  V30 1435 C 146.102 -0.227326 2.00817 0
M  V30 1436 C 146.423 -1.49511 1.25186 0
M  V30 1437 O 145.693 -1.92482 0.364348 0
M  V30 1438 H 144.273 -0.0869923 0.741917 0
M  V30 1439 H 146.935 0.488381 1.88682 0
M  V30 1440 H 146.031 -0.456273 3.08747 0
M  V30 1441 N 146.332 -1.57332 0.0918853 0
M  V30 1442 C 147.295 -2.12708 -0.85369 0
M  V30 1443 C 148.295 -1.05561 -1.213 0
M  V30 1444 O 149.485 -1.31461 -1.14296 0
M  V30 1445 C 146.617 -2.64503 -2.15061 0
M  V30 1446 H 147.81 -2.97573 -0.3729 0
M  V30 1447 H 145.363 -1.55509 -0.157072 0
M  V30 1448 H 146.098 -1.83149 -2.67632 0
M  V30 1449 H 145.883 -3.4284 -1.90272 0
M  V30 1450 H 147.373 -3.07351 -2.82711 0
M  V30 1451 N 147.81 0.181792 -1.56548 0
M  V30 1452 C 149.057 0.900097 -1.81396 0
M  V30 1453 C 149.385 1.82695 -0.667281 0
M  V30 1454 O 148.64 1.92614 0.346146 0
M  V30 1455 C 148.939 1.73728 -3.12335 0
M  V30 1456 C 148.605 0.960255 -4.40556 0
M  V30 1457 C 147.267 0.745766 -4.75386 0
M  V30 1458 C 149.619 0.414477 -5.19549 0
M  V30 1459 C 146.947 -0.0257694 -5.86694 0
M  V30 1460 C 149.299 -0.343916 -6.31664 0
M  V30 1461 C 147.963 -0.569301 -6.65068 0
M  V30 1462 H 147.233 0.329369 -0.663775 0
M  V30 1463 H 149.88 0.165647 -1.90782 0
M  V30 1464 H 148.185 2.54081 -2.98245 0
M  V30 1465 H 149.882 2.29591 -3.28769 0
M  V30 1466 H 146.472 1.13746 -4.13231 0
M  V30 1467 H 150.656 0.567554 -4.93044 0
M  V30 1468 H 145.912 -0.210233 -6.11038 0
M  V30 1469 H 150.086 -0.774133 -6.92084 0
M  V30 1470 H 147.713 -1.16903 -7.51158 0
M  V30 1471 N 149.288 1.51039 0.449983 0
M  V30 1472 C 150.236 1.71995 1.5659 0
M  V30 1473 C 151.23 0.586029 1.5894 0
M  V30 1474 O 152.436 0.76709 1.62837 0
M  V30 1475 H 148.811 0.543233 0.520001 0
M  V30 1476 H 150.782 2.65562 1.36085 0
M  V30 1477 C 149.531 1.8506 2.9436 0
M  V30 1478 H 148.854 2.71712 2.93279 0
M  V30 1479 H 150.294 2.0374 3.71842 0
M  V30 1480 C 148.753 0.607277 3.31382 0
M  V30 1481 O 149.283 -0.243903 4.00959 0
M  V30 1482 N 147.489 0.455073 2.87015 0
M  V30 1483 H 147.036 1.14879 2.30566 0
M  V30 1484 H 146.994 -0.375611 3.12148 0
M  V30 1485 N 150.766 -0.704594 1.40972 0
M  V30 1486 C 151.729 -1.80035 1.41845 0
M  V30 1487 C 152.729 -1.57774 0.310474 0
M  V30 1488 O 153.919 -1.64613 0.56992 0
M  V30 1489 C 151.051 -3.18284 1.22098 0
M  V30 1490 H 152.244 -1.80658 2.3938 0
M  V30 1491 H 149.797 -0.911329 1.26982 0
M  V30 1492 H 150.532 -3.23306 0.253672 0
M  V30 1493 H 150.317 -3.35843 2.02366 0
M  V30 1494 H 151.807 -3.98289 1.25522 0
M  V30 1495 N 152.244 -1.26651 -0.937939 0
M  V30 1496 C 153.655 -1.1125 -1.49934 0
M  V30 1497 C 154.006 0.306077 -1.93798 0
M  V30 1498 O 153.131 1.19792 -1.80219 0
M  V30 1499 C 153.726 -2.01339 -2.72485 0
M  V30 1500 C 152.285 -1.90074 -3.24883 0
M  V30 1501 C 151.432 -1.94498 -1.97651 0
M  V30 1502 H 154.383 -1.39693 -0.753091 0
M  V30 1503 H 154.404 -1.56319 -3.46907 0
M  V30 1504 H 153.916 -3.04577 -2.40529 0
M  V30 1505 H 152.017 -0.897827 -3.61621 0
M  V30 1506 H 152.13 -2.75778 -3.9177 0
M  V30 1507 H 150.494 -1.38591 -2.13693 0
M  V30 1508 H 151.277 -2.99372 -1.68022 0
M  V30 1509 N 153.722 1.14298 -1.08507 0
M  V30 1510 C 154.968 1.85633 -0.816581 0
M  V30 1511 C 155.301 1.82784 0.656021 0
M  V30 1512 O 154.576 1.25926 1.48233 0
M  V30 1513 C 154.859 3.34223 -1.34041 0
M  V30 1514 C 154.712 3.45639 -2.87843 0
M  V30 1515 C 156.031 4.29356 -0.9665 0
M  V30 1516 H 153.15 0.67402 -0.298104 0
M  V30 1517 H 155.792 1.34214 -1.34487 0
M  V30 1518 H 153.942 3.78144 -0.89104 0
M  V30 1519 H 155.614 3.10498 -3.41158 0
M  V30 1520 H 153.857 2.86817 -3.25451 0
M  V30 1521 H 154.528 4.50089 -3.19569 0
M  V30 1522 H 157.004 3.93457 -1.35391 0
M  V30 1523 H 155.88 5.3178 -1.3602 0
M  V30 1524 H 156.141 4.41919 0.126362 0
M  V30 1525 N 155.201 0.870884 1.31352 0
M  V30 1526 C 156.45 0.478408 1.95944 0
M  V30 1527 C 156.763 -0.974493 1.69597 0
M  V30 1528 O 157.969 -1.47316 2.28058 0
M  V30 1529 C 156.425 0.804609 3.50791 0
M  V30 1530 C 156.033 2.27433 3.85977 0
M  V30 1531 C 157.777 0.480648 4.2177 0
M  V30 1532 C 155.684 2.5429 5.33939 0
M  V30 1533 H 154.614 0.175175 0.733369 0
M  V30 1534 H 157.265 1.06391 1.4951 0
M  V30 1535 H 155.647 0.148347 3.95722 0
M  V30 1536 H 156.821 2.97373 3.52002 0
M  V30 1537 H 155.136 2.56442 3.28065 0
M  V30 1538 H 157.733 0.658519 5.30629 0
M  V30 1539 H 158.076 -0.578979 4.12254 0
M  V30 1540 H 158.609 1.09349 3.82476 0
M  V30 1541 H 155.348 3.58939 5.48491 0
M  V30 1542 H 154.868 1.88945 5.69263 0
M  V30 1543 H 156.547 2.39066 6.01212 0
M  V30 1544 N 156.679 -1.44442 0.630414 0
M  V30 1545 C 157.627 -2.32437 -0.0871428 0
M  V30 1546 C 158.621 -1.47304 -0.836525 0
M  V30 1547 O 159.827 -1.63653 -0.749506 0
M  V30 1548 H 156.202 -0.750533 -0.0469495 0
M  V30 1549 H 158.173 -2.90709 0.673096 0
M  V30 1550 C 156.922 -3.31288 -1.05563 0
M  V30 1551 H 156.245 -3.96805 -0.488426 0
M  V30 1552 H 157.685 -3.9554 -1.52721 0
M  V30 1553 C 156.144 -2.6016 -2.14052 0
M  V30 1554 O 156.674 -2.39997 -3.22124 0
M  V30 1555 N 154.88 -2.19911 -1.89967 0
M  V30 1556 H 154.427 -2.36509 -1.02085 0
M  V30 1557 H 154.385 -1.72646 -2.62756 0
M  V30 1558 N 158.157 -0.370918 -1.53173 0
M  V30 1559 C 159.573 -0.0200818 -1.59587 0
M  V30 1560 C 159.773 1.46279 -1.38581 0
M  V30 1561 O 158.829 2.22506 -1.19363 0
M  V30 1562 C 160.142 -0.4808 -2.96831 0
M  V30 1563 C 161.69 -0.435477 -3.09956 0
M  V30 1564 C 162.165 -0.872092 -4.4962 0
M  V30 1565 N 163.656 -0.827364 -4.55751 0
M  V30 1566 C 164.391 -1.13683 -5.62018 0
M  V30 1567 N 163.887 -1.51584 -6.76014 0
M  V30 1568 N 165.68 -1.05927 -5.52029 0
M  V30 1569 H 157.831 -1.33652 -1.65079 0
M  V30 1570 H 160.094 -0.546634 -0.774529 0
M  V30 1571 H 159.8 -1.51577 -3.1736 0
M  V30 1572 H 159.674 0.129796 -3.76977 0
M  V30 1573 H 162.061 0.590371 -2.89134 0
M  V30 1574 H 162.142 -1.08164 -2.31806 0
M  V30 1575 H 161.786 -1.89608 -4.71181 0
M  V30 1576 H 161.716 -0.203127 -5.26208 0
M  V30 1577 H 164.207 -0.548216 -3.73902 0
M  V30 1578 H 164.52 -1.73609 -7.53047 0
M  V30 1579 H 162.865 -1.55454 -6.77391 0
M  V30 1580 H 166.056 -0.762321 -4.61851 0
M  V30 1581 H 166.229 -1.30378 -6.34749 0
M  V30 1582 N 159.635 1.57281 -0.100228 0
M  V30 1583 C 160.882 1.94537 0.562268 0
M  V30 1584 C 161.21 0.982315 1.67871 0
M  V30 1585 O 160.465 0.00280936 1.957 0
M  V30 1586 C 160.764 3.38305 1.15259 0
M  V30 1587 C 160.43 4.50618 0.159409 0
M  V30 1588 C 159.092 4.81066 -0.113741 0
M  V30 1589 C 161.444 5.18615 -0.518461 0
M  V30 1590 C 158.772 5.76835 -1.07137 0
M  V30 1591 C 161.124 6.15412 -1.46459 0
M  V30 1592 C 159.788 6.44262 -1.74592 0
M  V30 1593 H 159.058 0.711863 0.205748 0
M  V30 1594 H 161.705 1.90679 -0.17715 0
M  V30 1595 H 160.01 3.38766 1.96836 0
M  V30 1596 H 161.707 3.64435 1.67297 0
M  V30 1597 H 158.297 4.2689 0.382491 0
M  V30 1598 H 162.481 4.95264 -0.320581 0
M  V30 1599 H 157.737 5.975 -1.29628 0
M  V30 1600 H 161.911 6.67194 -1.99564 0
M  V30 1601 H 159.538 7.1828 -2.48953 0
M  V30 1602 N 161.113 -0.173488 1.56642 0
M  V30 1603 C 162.341 -0.906095 1.86004 0
M  V30 1604 C 162.756 -1.75921 0.685355 0
M  V30 1605 O 162.113 -1.79198 -0.345578 0
M  V30 1606 C 162.164 -1.78462 3.14378 0
M  V30 1607 O 161.885 -0.965914 4.27319 0
M  V30 1608 C 163.386 -2.62707 3.57071 0
M  V30 1609 H 160.606 -0.263341 0.617165 0
M  V30 1610 H 163.15 -0.174236 2.03756 0
M  V30 1611 H 161.305 -2.46984 2.98459 0
M  V30 1612 H 161.719 -1.56655 5.00559 0
M  V30 1613 H 163.193 -3.19969 4.49804 0
M  V30 1614 H 163.67 -3.37472 2.81086 0
M  V30 1615 H 164.276 -1.99521 3.75595 0
M  V30 1616 N 162.591 -1.51276 -0.441967 0
M  V30 1617 C 164.007 -1.39349 -0.778083 0
M  V30 1618 C 164.207 -0.472212 -1.95889 0
M  V30 1619 O 163.263 0.0743551 -2.5239 0
M  V30 1620 C 164.576 -2.81292 -1.0628 0
M  V30 1621 C 166.124 -2.9041 -1.16751 0
M  V30 1622 C 166.599 -4.33251 -1.48519 0
M  V30 1623 N 168.09 -4.36336 -1.55453 0
M  V30 1624 C 168.825 -5.43885 -1.81596 0
M  V30 1625 N 168.321 -6.61601 -2.05562 0
M  V30 1626 N 170.114 -5.3136 -1.8334 0
M  V30 1627 H 162.265 -2.09729 0.335774 0
M  V30 1628 H 164.528 -0.943925 0.0878028 0
M  V30 1629 H 164.234 -3.50678 -0.267905 0
M  V30 1630 H 164.108 -3.20334 -1.99163 0
M  V30 1631 H 166.495 -2.21225 -1.95304 0
M  V30 1632 H 166.576 -2.54871 -0.217801 0
M  V30 1633 H 166.22 -5.02984 -0.704958 0
M  V30 1634 H 166.15 -4.66299 -2.44689 0
M  V30 1635 H 168.641 -3.51466 -1.38853 0
M  V30 1636 H 168.954 -7.39361 -2.24867 0
M  V30 1637 H 167.299 -6.64725 -2.02894 0
M  V30 1638 H 170.49 -4.38382 -1.64132 0
M  V30 1639 H 170.663 -6.15258 -2.03377 0
M  V30 1640 N 164.069 0.697108 -1.41344 0
M  V30 1641 C 165.485 1.00751 -1.2378 0
M  V30 1642 C 165.685 2.01105 -0.126066 0
M  V30 1643 O 164.741 2.47295 0.51004 0
M  V30 1644 C 166.054 1.53359 -2.58653 0
M  V30 1645 C 167.602 1.6525 -2.65822 0
M  V30 1646 C 168.077 2.2126 -4.01009 0
M  V30 1647 N 169.568 2.28622 -4.02847 0
M  V30 1648 C 170.303 2.72984 -5.04249 0
M  V30 1649 N 169.799 3.16962 -6.16041 0
M  V30 1650 N 171.592 2.72534 -4.91611 0
M  V30 1651 H 163.743 0.0322662 -2.12375 0
M  V30 1652 H 166.006 0.0768853 -0.944877 0
M  V30 1653 H 165.712 0.870773 -3.4075 0
M  V30 1654 H 165.586 2.51597 -2.81032 0
M  V30 1655 H 167.973 2.30644 -1.84086 0
M  V30 1656 H 168.054 0.655614 -2.47256 0
M  V30 1657 H 167.698 1.56482 -4.83193 0
M  V30 1658 H 167.628 3.21698 -4.16915 0
M  V30 1659 H 170.119 1.97585 -3.22131 0
M  V30 1660 H 170.432 3.49434 -6.89287 0
M  V30 1661 H 168.777 3.14875 -6.1958 0
M  V30 1662 H 171.968 2.37525 -4.0336 0
M  V30 1663 H 172.141 3.06789 -5.70775 0
M  V30 1664 N 165.547 1.27147 0.931209 0
M  V30 1665 C 166.51 1.09615 2.01289 0
M  V30 1666 C 167.51 0.0412581 1.60747 0
M  V30 1667 O 168.7 0.285545 1.71844 0
M  V30 1668 C 165.832 0.669447 3.34262 0
M  V30 1669 H 167.025 2.05662 2.18273 0
M  V30 1670 H 164.578 1.09885 1.11153 0
M  V30 1671 H 165.313 -0.292572 3.22978 0
M  V30 1672 H 165.098 1.43127 3.65044 0
M  V30 1673 H 166.588 0.568921 4.13706 0
M  V30 1674 N 167.025 -1.13721 1.09112 0
M  V30 1675 C 168.25 -1.89314 0.847053 0
M  V30 1676 C 168.675 -1.78416 -0.595774 0
M  V30 1677 O 168.033 -1.12942 -1.41823 0
M  V30 1678 C 168.081 -3.3701 1.28284 0
M  V30 1679 O 167.185 -4.10054 0.439267 0
M  V30 1680 H 166.526 -0.588745 0.307044 0
M  V30 1681 H 169.056 -1.43902 1.45442 0
M  V30 1682 H 169.066 -3.87834 1.26683 0
M  V30 1683 H 167.741 -3.4426 2.33363 0
M  V30 1684 H 166.318 -3.69266 0.519312 0
M  V30 1685 N 168.503 -0.877838 -1.30888 0
M  V30 1686 C 169.749 -0.493426 -1.96706 0
M  V30 1687 C 170.082 0.953504 -1.6918 0
M  V30 1688 O 169.357 1.67266 -0.992594 0
M  V30 1689 C 169.64 -0.760429 -3.51979 0
M  V30 1690 C 169.493 -2.25747 -3.89048 0
M  V30 1691 C 170.812 -0.232148 -4.39487 0
M  V30 1692 H 167.931 -0.180746 -0.714493 0
M  V30 1693 H 170.573 -1.10052 -1.54882 0
M  V30 1694 H 168.723 -0.243715 -3.87735 0
M  V30 1695 H 170.395 -2.84204 -3.63354 0
M  V30 1696 H 168.638 -2.72694 -3.37373 0
M  V30 1697 H 169.309 -2.39491 -4.97341 0
M  V30 1698 H 171.785 -0.674314 -4.106 0
M  V30 1699 H 170.661 -0.448355 -5.47066 0
M  V30 1700 H 170.922 0.866297 -4.33529 0
M  V30 1701 N 169.982 1.44106 -0.638065 0
M  V30 1702 C 171.222 2.03858 -0.148733 0
M  V30 1703 C 171.586 1.49153 1.20903 0
M  V30 1704 O 172.787 2.00452 1.79088 0
M  V30 1705 C 171.058 3.57117 -0.142314 0
M  V30 1706 S 172.617 4.37897 0.281385 0
M  V30 1707 H 169.435 0.708069 -0.0644912 0
M  V30 1708 H 172.037 1.7639 -0.843009 0
M  V30 1709 H 170.741 3.94436 -1.13349 0
M  V30 1710 H 170.272 3.89205 0.572988 0
M  V30 1711 H 172.287 4.72218 1.52395 0
M  V30 1712 N 171.46 0.379036 1.52974 0
M  V30 1713 C 172.423 -0.448865 2.24762 0
M  V30 1714 C 173.423 -0.998689 1.26027 0
M  V30 1715 O 174.613 -0.882313 1.50203 0
M  V30 1716 C 171.745 -1.62872 2.99476 0
M  V30 1717 H 172.938 0.179491 2.99362 0
M  V30 1718 H 170.491 0.13096 1.5575 0
M  V30 1719 H 171.226 -2.29479 2.29151 0
M  V30 1720 H 171.011 -1.24128 3.71934 0
M  V30 1721 H 172.501 -2.2151 3.5401 0
M  V30 1722 N 172.938 -1.57226 0.108567 0
M  V30 1723 C 173.848 -2.18292 -0.859401 0
M  V30 1724 C 174.864 -1.15612 -1.30038 0
M  V30 1725 O 176.04 -1.48039 -1.36552 0
M  V30 1726 C 173.105 -2.762 -2.09558 0
M  V30 1727 C 172.166 -3.93881 -1.70752 0
M  V30 1728 C 171.399 -4.49018 -2.88477 0
M  V30 1729 O 171.622 -4.03068 -4.036 0
M  V30 1730 O 170.556 -5.39852 -2.66164 0
M  V30 1731 H 174.382 -3.01441 -0.369769 0
M  V30 1732 H 171.967 -1.48945 -0.1165 0
M  V30 1733 H 173.849 -3.13156 -2.81978 0
M  V30 1734 H 172.524 -1.96089 -2.57548 0
M  V30 1735 H 171.431 -3.61713 -0.954714 0
M  V30 1736 H 172.764 -4.75396 -1.27513 0
M  V30 1737 N 174.416 0.165178 -1.56732 0
M  V30 1738 C 175.379 1.18822 -1.95995 0
M  V30 1739 C 176.379 1.3685 -0.84431 0
M  V30 1740 O 177.569 1.34152 -1.11126 0
M  V30 1741 C 174.701 2.5521 -2.26011 0
M  V30 1742 H 175.894 0.851825 -2.87548 0
M  V30 1743 H 173.447 0.407857 -1.50885 0
M  V30 1744 H 174.182 2.93852 -1.37191 0
M  V30 1745 H 173.967 2.43489 -3.07336 0
M  V30 1746 H 175.457 3.28927 -2.57288 0
M  V30 1747 N 175.894 1.51508 0.433938 0
M  V30 1748 C 177.124 1.67914 1.20369 0
M  V30 1749 C 177.532 0.377461 1.85397 0
M  V30 1750 O 176.875 -0.654255 1.71654 0
M  V30 1751 C 176.937 2.74045 2.32679 0
M  V30 1752 C 176.601 4.16543 1.87991 0
M  V30 1753 C 177.598 5.01211 1.38145 0
M  V30 1754 C 175.283 4.6266 1.95579 0
M  V30 1755 C 177.277 6.30056 0.964774 0
M  V30 1756 C 174.964 5.91501 1.53523 0
M  V30 1757 C 175.962 6.75027 1.04055 0
M  V30 1758 O 175.65 8.01459 0.625964 0
M  V30 1759 H 175.382 0.566578 0.368735 0
M  V30 1760 H 177.936 1.98709 0.51999 0
M  V30 1761 H 176.166 2.38572 3.04336 0
M  V30 1762 H 177.855 2.79295 2.94532 0
M  V30 1763 H 178.621 4.66783 1.31675 0
M  V30 1764 H 174.5 3.97767 2.33029 0
M  V30 1765 H 178.044 6.95202 0.57796 0
M  V30 1766 H 173.941 6.25442 1.59665 0
M  V30 1767 H 174.709 8.15043 0.751509 0
M  V30 1768 N 177.372 -0.689602 1.41712 0
M  V30 1769 C 178.32 -1.82475 1.44242 0
M  V30 1770 C 179.314 -1.66354 0.319774 0
M  V30 1771 O 180.52 -1.73143 0.492089 0
M  V30 1772 H 176.895 -0.601416 0.451445 0
M  V30 1773 H 178.866 -1.77458 2.39899 0
M  V30 1774 C 177.615 -3.20535 1.3473 0
M  V30 1775 H 176.938 -3.33559 2.20405 0
M  V30 1776 H 178.378 -4.00023 1.40562 0
M  V30 1777 C 176.837 -3.36846 0.0603281 0
M  V30 1778 O 177.367 -3.91656 -0.892663 0
M  V30 1779 N 175.573 -2.90595 -0.0177039 0
M  V30 1780 H 175.12 -2.46178 0.758572 0
M  V30 1781 H 175.078 -3.01886 -0.878201 0
M  V30 1782 N 178.85 -1.27639 -0.924453 0
M  V30 1783 C 180.261 -1.12834 -1.48746 0
M  V30 1784 C 180.612 0.285505 -1.94112 0
M  V30 1785 O 179.737 1.17874 -1.81479 0
M  V30 1786 C 180.332 -2.04217 -2.70334 0
M  V30 1787 C 178.891 -1.93509 -3.22848 0
M  V30 1788 C 178.038 -1.96583 -1.95577 0
M  V30 1789 H 180.989 -1.40484 -0.738233 0
M  V30 1790 H 181.01 -1.59989 -3.4523 0
M  V30 1791 H 180.522 -3.07111 -2.37285 0
M  V30 1792 H 178.623 -0.936131 -3.60649 0
M  V30 1793 H 178.736 -2.79917 -3.88823 0
M  V30 1794 H 177.1 -1.4085 -2.12211 0
M  V30 1795 H 177.883 -3.01137 -1.64837 0
M  V30 1796 N 180.328 1.1314 -1.09713 0
M  V30 1797 C 181.605 1.80762 -0.747302 0
M  V30 1798 C 181.985 1.96663 0.767265 0
M  V30 1799 O 181.333 1.53706 1.69076 0
M  V30 1800 C 181.543 3.15606 -1.48975 0
M  V30 1801 C 182.891 3.90914 -1.65746 0
M  V30 1802 O 183.915 3.25239 -1.45251 0
M  V30 1803 O 182.774 5.08718 -1.9967 0
M  V30 1804 H 179.868 0.782103 -0.268782 0
M  V30 1805 H 182.414 1.20041 -1.19951 0
M  V30 1806 H 181.186 2.99278 -2.52088 0
M  V30 1807 H 180.809 3.84029 -1.02991 0
M  V30 1808 N 181.806 0.884767 1.30421 0
M  V30 1809 C 182.716 0.355398 2.31892 0
M  V30 1810 C 183.732 -0.542261 1.65335 0
M  V30 1811 O 184.908 -0.435432 1.96637 0
M  V30 1812 C 181.973 -0.421661 3.44126 0
M  V30 1813 C 181.034 0.505727 4.26311 0
M  V30 1814 C 180.267 -0.234343 5.33185 0
M  V30 1815 O 180.49 -1.46045 5.51386 0
M  V30 1816 O 179.424 0.415443 6.00465 0
M  V30 1817 H 183.25 1.19685 2.79122 0
M  V30 1818 H 180.835 0.648596 1.34587 0
M  V30 1819 H 182.717 -0.861641 4.12497 0
M  V30 1820 H 181.392 -1.23942 2.99032 0
M  V30 1821 H 180.299 0.994513 3.60639 0
M  V30 1822 H 181.632 1.28948 4.75009 0
M  V30 1823 N 183.284 -1.43765 0.645699 0
M  V30 1824 C 184.194 -2.34544 -0.0512957 0
M  V30 1825 C 185.21 -1.53455 -0.82022 0
M  V30 1826 O 186.386 -1.86133 -0.769176 0
M  V30 1827 C 183.451 -3.31636 -1.01087 0
M  V30 1828 C 182.512 -4.2863 -0.239712 0
M  V30 1829 C 181.745 -5.21084 -1.15358 0
M  V30 1830 O 181.968 -5.1779 -2.39269 0
M  V30 1831 O 180.902 -5.98593 -0.630038 0
M  V30 1832 H 184.728 -2.95624 0.695718 0
M  V30 1833 H 182.313 -1.43781 0.405882 0
M  V30 1834 H 184.195 -3.9136 -1.56254 0
M  V30 1835 H 182.87 -2.73069 -1.73824 0
M  V30 1836 H 181.777 -3.72408 0.355356 0
M  V30 1837 H 183.11 -4.90157 0.447936 0
M  V30 1838 N 184.763 -0.387143 -1.52771 0
M  V30 1839 C 185.673 0.456442 -2.30117 0
M  V30 1840 C 186.689 1.07342 -1.36944 0
M  V30 1841 O 187.865 1.07971 -1.70013 0
M  V30 1842 C 184.93 1.56957 -3.09136 0
M  V30 1843 C 183.991 0.977916 -4.18014 0
M  V30 1844 C 183.224 2.038 -4.93256 0
M  V30 1845 O 183.447 3.25271 -4.68567 0
M  V30 1846 O 182.381 1.6565 -5.78657 0
M  V30 1847 H 186.207 -0.17359 -3.03203 0
M  V30 1848 H 183.792 -0.150919 -1.48636 0
M  V30 1849 H 185.674 2.21628 -3.58412 0
M  V30 1850 H 184.349 2.18461 -2.38865 0
M  V30 1851 H 183.256 0.294525 -3.72939 0
M  V30 1852 H 184.589 0.407128 -4.90513 0
M  V30 1853 N 186.241 1.57166 -0.116904 0
M  V30 1854 C 187.518 1.86645 0.585049 0
M  V30 1855 C 187.898 1.0177 1.84949 0
M  V30 1856 O 187.246 0.0960379 2.28298 0
M  V30 1857 C 187.456 3.37736 0.879507 0
M  V30 1858 C 188.804 4.06289 1.23348 0
M  V30 1859 O 189.828 3.42743 0.969836 0
M  V30 1860 O 188.687 5.18455 1.7282 0
M  V30 1861 H 185.781 0.772593 0.295007 0
M  V30 1862 H 188.327 1.69025 -0.151249 0
M  V30 1863 H 187.099 3.91296 -0.0166136 0
M  V30 1864 H 186.722 3.6078 1.67103 0
M  V30 1865 N 187.719 -0.156864 1.56817 0
M  V30 1866 C 188.996 -0.899244 1.73704 0
M  V30 1867 C 189.376 -1.99771 0.682254 0
M  V30 1868 O 188.724 -2.26515 -0.300522 0
M  V30 1869 C 188.934 -1.45075 3.17418 0
M  V30 1870 C 190.282 -1.91802 3.7881 0
M  V30 1871 O 191.306 -1.54838 3.20786 0
M  V30 1872 O 190.165 -2.5994 4.80722 0
M  V30 1873 H 187.259 -0.424267 0.709878 0
M  V30 1874 H 189.805 -0.143561 1.69092 0
M  V30 1875 H 188.577 -0.660846 3.85679 0
M  V30 1876 H 188.2 -2.27021 3.26416 0
M  V30 1877 N 189.197 -1.51736 -0.425897 0
M  V30 1878 C 190.16 -1.73271 -1.50032 0
M  V30 1879 C 191.16 -0.602639 -1.4908 0
M  V30 1880 O 192.35 -0.87033 -1.509 0
M  V30 1881 C 189.482 -1.79969 -2.89523 0
M  V30 1882 H 190.675 -2.69172 -1.32237 0
M  V30 1883 H 188.228 -1.41899 -0.65532 0
M  V30 1884 H 188.963 -0.859241 -3.1271 0
M  V30 1885 H 188.748 -2.62109 -2.91619 0
M  V30 1886 H 190.238 -1.9843 -3.67444 0
M  V30 1887 N 190.675 0.682077 -1.42076 0
M  V30 1888 C 191.585 1.82535 -1.47371 0
M  V30 1889 C 192.601 1.7017 -0.363079 0
M  V30 1890 O 193.777 1.91848 -0.612875 0
M  V30 1891 C 190.842 3.18624 -1.36674 0
M  V30 1892 C 189.903 3.42999 -2.58167 0
M  V30 1893 C 189.136 4.72595 -2.4797 0
M  V30 1894 O 189.359 5.50006 -1.5116 0
M  V30 1895 O 188.293 4.98054 -3.37974 0
M  V30 1896 H 192.119 1.81023 -2.43853 0
M  V30 1897 H 189.704 0.836887 -1.2376 0
M  V30 1898 H 191.586 3.99847 -1.33043 0
M  V30 1899 H 190.261 3.20789 -0.433138 0
M  V30 1900 H 189.168 2.61653 -2.67373 0
M  V30 1901 H 190.501 3.45659 -3.50401 0
M  V30 1902 N 192.153 1.28127 0.917671 0
M  V30 1903 C 193.378 1.18007 1.70555 0
M  V30 1904 C 193.803 -0.258257 1.86319 0
M  V30 1905 O 193.161 -1.1869 1.37049 0
M  V30 1906 C 193.209 1.87948 3.07746 0
M  V30 1907 O 192.313 1.18427 3.9503 0
M  V30 1908 H 191.654 0.409867 0.522403 0
M  V30 1909 H 194.184 1.69379 1.1477 0
M  V30 1910 H 194.194 1.95701 3.58001 0
M  V30 1911 H 192.869 2.92573 2.95591 0
M  V30 1912 H 191.446 1.18811 3.53466 0
M  V30 1913 N 193.631 -1.12557 1.10312 0
M  V30 1914 C 195.047 -1.36036 0.834649 0
M  V30 1915 C 195.247 -1.93946 -0.546539 0
M  V30 1916 O 194.303 -2.16484 -1.29966 0
M  V30 1917 C 195.616 -2.30312 1.9333 0
M  V30 1918 C 197.164 -2.43906 1.9616 0
M  V30 1919 C 197.639 -3.41496 3.05195 0
M  V30 1920 N 199.13 -3.49053 3.04494 0
M  V30 1921 C 199.865 -4.24471 3.85502 0
M  V30 1922 N 199.361 -5.02966 4.76442 0
M  V30 1923 N 201.154 -4.19864 3.73725 0
M  V30 1924 H 193.305 -0.733246 1.99342 0
M  V30 1925 H 195.568 -0.385234 0.866198 0
M  V30 1926 H 195.274 -1.94933 2.92735 0
M  V30 1927 H 195.148 -3.30421 1.81939 0
M  V30 1928 H 197.535 -2.78567 0.973886 0
M  V30 1929 H 197.616 -1.4369 2.11629 0
M  V30 1930 H 197.26 -3.07565 4.04186 0
M  V30 1931 H 197.19 -4.41539 2.86968 0
M  V30 1932 H 199.681 -2.93053 2.38596 0
M  V30 1933 H 199.994 -5.57846 5.34815 0
M  V30 1934 H 198.339 -5.02167 4.80472 0
M  V30 1935 H 201.53 -3.57623 3.02032 0
M  V30 1936 H 201.703 -4.78386 4.37093 0
M  V30 1937 N 195.109 -0.891671 -1.2995 0
M  V30 1938 C 196.358 -0.509521 -1.95158 0
M  V30 1939 C 196.671 0.947388 -1.71125 0
M  V30 1940 O 197.877 1.43669 -2.30372 0
M  V30 1941 C 196.333 -0.860315 -3.49466 0
M  V30 1942 C 195.941 -2.33545 -3.8231 0
M  V30 1943 C 197.685 -0.547687 -4.20952 0
M  V30 1944 C 195.592 -2.62752 -5.29826 0
M  V30 1945 H 194.522 -0.18682 -0.730489 0
M  V30 1946 H 197.173 -1.08756 -1.47798 0
M  V30 1947 H 195.555 -0.211285 -3.95436 0
M  V30 1948 H 196.729 -3.02936 -3.47227 0
M  V30 1949 H 195.044 -2.61629 -3.23944 0
M  V30 1950 H 197.641 -0.742854 -5.29515 0
M  V30 1951 H 197.984 0.51332 -4.13123 0
M  V30 1952 H 198.517 -1.1542 -3.80688 0
M  V30 1953 H 195.256 -3.6762 -5.42712 0
M  V30 1954 H 194.776 -1.97977 -5.66185 0
M  V30 1955 H 196.455 -2.48601 -5.97333 0
M  V30 1956 N 196.587 1.43421 -0.653314 0
M  V30 1957 C 197.836 2.01032 -0.164076 0
M  V30 1958 C 198.149 1.52147 1.22926 0
M  V30 1959 O 199.355 2.02031 1.81371 0
M  V30 1960 C 197.811 3.59082 -0.24252 0
M  V30 1961 C 197.419 4.1696 -1.63855 0
M  V30 1962 C 199.163 4.24079 0.18911 0
M  V30 1963 C 197.07 5.67304 -1.67092 0
M  V30 1964 H 196 0.751798 -0.0575769 0
M  V30 1965 H 198.651 1.6439 -0.815362 0
M  V30 1966 H 197.033 3.93125 0.476276 0
M  V30 1967 H 198.207 3.94416 -2.38271 0
M  V30 1968 H 196.522 3.64335 -2.01616 0
M  V30 1969 H 199.119 5.34381 0.184775 0
M  V30 1970 H 199.462 3.98005 1.22056 0
M  V30 1971 H 199.995 3.94918 -0.477938 0
M  V30 1972 H 196.734 5.98145 -2.68146 0
M  V30 1973 H 196.254 5.91904 -0.970014 0
M  V30 1974 H 197.933 6.31344 -1.4147 0
M  V30 1975 N 198.065 0.39524 1.52563 0
M  V30 1976 C 199.015 -0.4541 2.23432 0
M  V30 1977 C 199.999 -1.02482 1.24042 0
M  V30 1978 O 201.191 -0.949938 1.49349 0
M  V30 1979 C 198.32 -1.57769 3.049 0
M  V30 1980 C 197.406 -1.01842 4.1169 0
M  V30 1981 N 197.797 -0.184613 5.05463 0
M  V30 1982 C 196.095 -1.29033 4.26927 0
M  V30 1983 C 196.796 0.125013 5.81566 0
M  V30 1984 N 195.772 -0.480498 5.41472 0
M  V30 1985 H 199.574 0.189413 2.93289 0
M  V30 1986 H 197.088 0.204877 1.61102 0
M  V30 1987 H 199.085 -2.19862 3.54212 0
M  V30 1988 H 197.745 -2.22397 2.36579 0
M  V30 1989 H 198.756 0.178602 5.17592 0
M  V30 1990 H 195.433 -1.93721 3.69836 0
M  V30 1991 H 196.823 0.800962 6.67109 0
M  V30 1992 N 199.544 -1.57102 0.125237 0
M  V30 1993 C 200.955 -1.82384 -0.399142 0
M  V30 1994 C 201.306 -1.04276 -1.66195 0
M  V30 1995 O 200.431 -0.281269 -2.14564 0
M  V30 1996 C 201.026 -3.30821 -0.730932 0
M  V30 1997 C 199.585 -3.56762 -1.19992 0
M  V30 1998 C 198.732 -2.7649 -0.211792 0
M  V30 1999 H 201.683 -1.54786 0.350277 0
M  V30 2000 H 201.704 -3.4579 -1.58775 0
M  V30 2001 H 201.216 -3.87643 0.188345 0
M  V30 2002 H 199.317 -3.05305 -2.13588 0
M  V30 2003 H 199.43 -4.65317 -1.14093 0
M  V30 2004 H 197.794 -2.4489 -0.700085 0
M  V30 2005 H 198.577 -3.36073 0.700691 0
M  V30 2006 N 201.022 0.148545 -1.56898 0
M  V30 2007 C 201.969 1.18345 -1.98149 0
M  V30 2008 C 202.939 1.42772 -0.848848 0
M  V30 2009 O 204.124 1.55132 -1.11079 0
M  V30 2010 C 201.264 2.51231 -2.36594 0
M  V30 2011 C 200.377 2.33991 -3.63142 0
M  V30 2012 C 199.512 3.59902 -3.90697 0
M  V30 2013 C 198.551 3.37692 -5.1052 0
M  V30 2014 N 197.688 4.5573 -5.34092 0
M  V30 2015 H 202.528 0.82467 -2.86362 0
M  V30 2016 H 200.065 0.395756 -1.41676 0
M  V30 2017 H 202.023 3.28713 -2.56912 0
M  V30 2018 H 200.653 2.85059 -1.51463 0
M  V30 2019 H 199.705 1.47572 -3.50609 0
M  V30 2020 H 201.017 2.13539 -4.5078 0
M  V30 2021 H 200.171 4.45813 -4.11505 0
M  V30 2022 H 198.91 3.83357 -3.01477 0
M  V30 2023 H 197.915 2.5017 -4.89587 0
M  V30 2024 H 199.14 3.15637 -6.0129 0
M  V30 2025 H 197.086 4.79361 -4.47827 0
M  V30 2026 H 197.003 4.38274 -6.15996 0
M  V30 2027 H 198.271 5.42858 -5.59397 0
M  V30 2028 N 202.5 1.5196 0.417844 0
M  V30 2029 C 203.728 1.69426 1.18753 0
M  V30 2030 C 204.143 0.399955 1.84515 0
M  V30 2031 O 203.5 -0.623288 1.71527 0
M  V30 2032 C 203.551 2.82375 2.25714 0
M  V30 2033 O 203.272 4.06793 1.62638 0
M  V30 2034 C 204.773 3.11277 3.15628 0
M  V30 2035 H 201.993 0.568031 0.357186 0
M  V30 2036 H 204.537 1.98475 0.49273 0
M  V30 2037 H 202.692 2.5587 2.90877 0
M  V30 2038 H 203.106 4.69667 2.3348 0
M  V30 2039 H 204.58 3.93843 3.86771 0
M  V30 2040 H 205.057 2.24473 3.77503 0
M  V30 2041 H 205.663 3.39515 2.56144 0
M  V30 2042 N 203.978 -0.674533 1.42435 0
M  V30 2043 C 205.255 -1.4305 1.33402 0
M  V30 2044 C 205.635 -2.11081 -0.0284674 0
M  V30 2045 O 204.983 -2.03257 -1.04397 0
M  V30 2046 C 205.193 -2.43272 2.50239 0
M  V30 2047 C 206.541 -3.07907 2.92367 0
M  V30 2048 O 207.565 -2.53599 2.50132 0
M  V30 2049 O 206.424 -4.0632 3.65467 0
M  V30 2050 H 203.518 -0.638076 0.526106 0
M  V30 2051 H 206.064 -0.703235 1.54443 0
M  V30 2052 H 204.836 -1.91803 3.41068 0
M  V30 2053 H 204.459 -3.23479 2.31186 0
M  V30 2054 N 205.456 -1.28612 -0.910864 0
M  V30 2055 C 206.733 -1.06632 -1.63979 0
M  V30 2056 C 207.113 0.393351 -2.07403 0
M  V30 2057 O 206.461 1.37999 -1.82122 0
M  V30 2058 C 206.671 -2.0436 -2.8291 0
M  V30 2059 C 208.019 -2.34666 -3.5386 0
M  V30 2060 O 209.043 -2.02467 -2.93062 0
M  V30 2061 O 207.902 -2.89631 -4.63439 0
M  V30 2062 H 204.996 -0.407737 -0.7195 0
M  V30 2063 H 207.542 -1.39942 -0.959914 0
M  V30 2064 H 206.314 -3.02727 -2.47936 0
M  V30 2065 H 205.937 -1.71714 -3.58609 0
M  V30 2066 N 206.934 1.1197 -1.10907 0
M  V30 2067 C 207.866 2.17592 -0.720175 0
M  V30 2068 C 208.879 1.60938 0.245495 0
M  V30 2069 O 210.068 1.78476 0.0292245 0
M  V30 2070 C 207.168 3.38873 -0.0427917 0
M  V30 2071 C 206.341 4.25006 -1.03388 0
M  V30 2072 C 205.4 5.24774 -0.387075 0
M  V30 2073 O 204.426 5.59631 -1.03934 0
M  V30 2074 N 205.628 5.74208 0.852407 0
M  V30 2075 H 208.393 2.51567 -1.62893 0
M  V30 2076 H 205.954 1.27439 -0.998543 0
M  V30 2077 H 207.946 4.02703 0.401501 0
M  V30 2078 H 206.516 3.03007 0.768456 0
M  V30 2079 H 205.736 3.57716 -1.65629 0
M  V30 2080 H 207.024 4.79397 -1.70458 0
M  V30 2081 H 206.422 5.48062 1.40161 0
M  V30 2082 H 204.979 6.39901 1.23977 0
M  V30 2083 N 208.412 0.89855 1.29475 0
M  V30 2084 C 209.828 0.594483 1.48115 0
M  V30 2085 C 210.028 -0.86431 1.82022 0
M  V30 2086 O 209.084 -1.64457 1.91599 0
M  V30 2087 C 210.397 1.51932 2.59494 0
M  V30 2088 C 211.945 1.5244 2.7337 0
M  V30 2089 C 212.42 2.43548 3.87877 0
M  V30 2090 N 213.911 2.41589 3.95208 0
M  V30 2091 C 214.646 3.08789 4.83153 0
M  V30 2092 N 214.142 3.85265 5.75798 0
M  V30 2093 N 215.935 2.97952 4.76635 0
M  V30 2094 H 208.086 1.84207 1.05742 0
M  V30 2095 H 210.349 0.789251 0.525154 0
M  V30 2096 H 210.055 2.55865 2.41301 0
M  V30 2097 H 209.929 1.23899 3.56271 0
M  V30 2098 H 212.316 0.492518 2.90961 0
M  V30 2099 H 212.397 1.8451 1.77172 0
M  V30 2100 H 212.041 3.46829 3.71041 0
M  V30 2101 H 211.971 2.08788 4.83441 0
M  V30 2102 H 214.462 1.86025 3.28943 0
M  V30 2103 H 214.775 4.33598 6.39697 0
M  V30 2104 H 213.12 3.89371 5.75687 0
M  V30 2105 H 216.311 2.37723 4.03244 0
M  V30 2106 H 216.484 3.50599 5.44962 0
M  V30 2107 N 209.89 -1.43072 0.660911 0
M  V30 2108 C 210.838 -2.32569 -0.0378199 0
M  V30 2109 C 211.832 -1.49046 -0.805092 0
M  V30 2110 O 213.038 -1.65206 -0.714624 0
M  V30 2111 H 209.413 -0.75136 -0.031019 0
M  V30 2112 H 211.384 -2.89216 0.734609 0
M  V30 2113 C 210.133 -3.33453 -0.985124 0
M  V30 2114 H 209.456 -3.97752 -0.404147 0
M  V30 2115 H 210.896 -3.98691 -1.44297 0
M  V30 2116 C 209.355 -2.64642 -2.08486 0
M  V30 2117 O 209.885 -2.46776 -3.16961 0
M  V30 2118 N 208.091 -2.23891 -1.8526 0
M  V30 2119 H 207.638 -2.38621 -0.970449 0
M  V30 2120 H 207.596 -1.78181 -2.59034 0
M  V30 2121 N 211.368 -0.403325 -1.52352 0
M  V30 2122 C 212.784 -0.0539281 -1.59509 0
M  V30 2123 C 212.984 1.43307 -1.41652 0
M  V30 2124 O 212.04 2.19924 -1.24056 0
M  V30 2125 C 213.353 -0.543654 -2.95745 0
M  V30 2126 C 214.901 -0.501125 -3.08962 0
M  V30 2127 C 215.376 -0.967267 -4.47669 0
M  V30 2128 N 216.867 -0.923849 -4.53893 0
M  V30 2129 C 217.602 -1.25578 -5.5948 0
M  V30 2130 N 217.098 -1.65889 -6.72646 0
M  V30 2131 N 218.891 -1.17613 -5.49658 0
M  V30 2132 H 211.042 -1.37123 -1.62206 0
M  V30 2133 H 213.305 -0.56294 -0.76276 0
M  V30 2134 H 213.011 -1.58275 -3.14073 0
M  V30 2135 H 212.885 0.0498042 -3.77167 0
M  V30 2136 H 215.272 0.528909 -2.90321 0
M  V30 2137 H 215.353 -1.13056 -2.2946 0
M  V30 2138 H 214.997 -1.9956 -4.67053 0
M  V30 2139 H 214.927 -0.314698 -5.25659 0
M  V30 2140 H 217.418 -0.627403 -3.72655 0
M  V30 2141 H 217.731 -1.89543 -7.49195 0
M  V30 2142 H 216.076 -1.69787 -6.73942 0
M  V30 2143 H 219.267 -0.860115 -4.6013 0
M  V30 2144 H 219.44 -1.43812 -6.3184 0
M  V30 2145 N 212.846 1.57033 -0.133567 0
M  V30 2146 C 213.776 2.1909 0.807567 0
M  V30 2147 C 214.757 1.13517 1.26681 0
M  V30 2148 O 215.942 1.41809 1.32679 0
M  V30 2149 C 213.072 2.80188 2.05212 0
M  V30 2150 C 212.026 3.91471 1.73015 0
M  V30 2151 C 211.352 4.39443 3.04622 0
M  V30 2152 C 212.652 5.12886 0.987168 0
M  V30 2153 H 214.346 2.97988 0.290403 0
M  V30 2154 H 211.892 1.43335 0.138239 0
M  V30 2155 H 213.845 3.22264 2.71521 0
M  V30 2156 H 212.569 1.98601 2.59278 0
M  V30 2157 H 211.228 3.49993 1.0909 0
M  V30 2158 H 210.876 3.54695 3.56651 0
M  V30 2159 H 210.576 5.14495 2.83847 0
M  V30 2160 H 212.1 4.8418 3.72024 0
M  V30 2161 H 213.514 5.51891 1.55208 0
M  V30 2162 H 211.911 5.93615 0.87985 0
M  V30 2163 H 212.981 4.84894 -0.0235286 0
M  V30 2164 N 214.325 -0.140222 1.56975 0
M  V30 2165 C 215.257 -1.19818 1.95388 0
M  V30 2166 C 216.27 -1.38816 0.850525 0
M  V30 2167 O 217.459 -1.38267 1.12891 0
M  V30 2168 C 214.559 -2.56189 2.21857 0
M  V30 2169 C 213.732 -2.58077 3.5315 0
M  V30 2170 C 212.791 -3.76037 3.6808 0
M  V30 2171 O 211.817 -3.60598 4.40406 0
M  V30 2172 N 213.019 -4.93763 3.05251 0
M  V30 2173 H 215.784 -0.871609 2.86746 0
M  V30 2174 H 213.345 -0.32972 1.58507 0
M  V30 2175 H 215.337 -3.33623 2.2908 0
M  V30 2176 H 213.907 -2.81111 1.36731 0
M  V30 2177 H 213.127 -1.6651 3.57307 0
M  V30 2178 H 214.415 -2.56377 4.39486 0
M  V30 2179 H 213.813 -5.09209 2.46419 0
M  V30 2180 H 212.37 -5.68949 3.18026 0
M  V30 2181 N 215.803 -1.52179 -0.40978 0
M  V30 2182 C 216.713 -1.78364 -1.52392 0
M  V30 2183 C 217.729 -0.669183 -1.60617 0
M  V30 2184 O 218.905 -0.954518 -1.77344 0
M  V30 2185 C 215.97 -1.92822 -2.88133 0
M  V30 2186 C 215.031 -3.16725 -2.898 0
M  V30 2187 C 214.264 -3.30483 -4.19067 0
M  V30 2188 O 214.487 -2.49522 -5.12928 0
M  V30 2189 O 213.421 -4.2363 -4.27576 0
M  V30 2190 H 217.247 -2.72931 -1.33201 0
M  V30 2191 H 214.832 -1.37016 -0.59557 0
M  V30 2192 H 216.714 -2.04157 -3.68643 0
M  V30 2193 H 215.389 -1.01444 -3.07393 0
M  V30 2194 H 214.296 -3.10848 -2.08146 0
M  V30 2195 H 215.629 -4.07881 -2.75489 0
M  V30 2196 N 217.281 0.66697 -1.42791 0
M  V30 2197 C 218.244 1.76211 -1.46568 0
M  V30 2198 C 219.244 1.56896 -0.352196 0
M  V30 2199 O 220.434 1.63044 -0.613364 0
M  V30 2200 C 217.566 3.14935 -1.30494 0
M  V30 2201 H 218.759 1.74247 -2.44086 0
M  V30 2202 H 216.312 0.877342 -1.29354 0
M  V30 2203 H 217.047 3.2252 -0.339301 0
M  V30 2204 H 216.832 3.30359 -2.11199 0
M  V30 2205 H 218.322 3.94821 -1.36038 0
M  V30 2206 N 218.759 1.29093 0.90403 0
M  V30 2207 C 219.999 1.18076 1.66845 0
M  V30 2208 C 220.363 -0.26436 1.90171 0
M  V30 2209 O 221.564 -0.497423 2.64157 0
M  V30 2210 C 219.835 1.96722 2.98388 0
M  V30 2211 S 221.394 2.0219 3.89441 0
M  V30 2212 H 218.212 0.421104 0.572881 0
M  V30 2213 H 220.814 1.63322 1.07453 0
M  V30 2214 H 219.518 3.00866 2.7912 0
M  V30 2215 H 219.049 1.52064 3.62823 0
M  V30 2216 H 221.064 1.13545 4.83034 0
M  V30 2217 N 220.237 -1.11381 1.11499 0
M  V30 2218 C 221.184 -2.17439 0.773887 0
M  V30 2219 C 222.154 -1.64132 -0.254899 0
M  V30 2220 O 223.339 -1.90345 -0.13168 0
M  V30 2221 C 220.479 -3.44373 0.223917 0
M  V30 2222 C 219.592 -4.1168 1.30934 0
M  V30 2223 C 218.727 -5.263 0.71984 0
M  V30 2224 C 217.766 -5.85493 1.78507 0
M  V30 2225 N 216.903 -6.91507 1.21502 0
M  V30 2226 H 221.743 -2.45962 1.68246 0
M  V30 2227 H 219.28 -1.20744 0.840191 0
M  V30 2228 H 221.238 -4.17047 -0.112921 0
M  V30 2229 H 219.868 -3.16232 -0.647851 0
M  V30 2230 H 218.92 -3.37073 1.76312 0
M  V30 2231 H 220.232 -4.51729 2.11524 0
M  V30 2232 H 219.386 -6.05785 0.333094 0
M  V30 2233 H 218.125 -4.87559 -0.117377 0
M  V30 2234 H 217.13 -5.04686 2.18111 0
M  V30 2235 H 218.355 -6.26301 2.62533 0
M  V30 2236 H 216.301 -6.54783 0.399455 0
M  V30 2237 H 216.218 -7.30214 1.95763 0
M  V30 2238 H 217.486 -7.74795 0.855181 0
M  V30 2239 N 221.715 -0.905404 -1.28997 0
M  V30 2240 C 222.992 -0.453513 -1.9027 0
M  V30 2241 C 223.372 1.06721 -1.82137 0
M  V30 2242 O 222.72 1.91159 -1.25182 0
M  V30 2243 C 222.93 -0.974494 -3.35119 0
M  V30 2244 C 224.278 -1.0216 -4.12127 0
M  V30 2245 O 225.302 -0.922557 -3.44046 0
M  V30 2246 O 224.161 -1.17121 -5.33802 0
M  V30 2247 H 221.255 -0.142347 -0.814657 0
M  V30 2248 H 223.801 -0.995642 -1.37423 0
M  V30 2249 H 222.573 -2.01848 -3.35221 0
M  V30 2250 H 222.196 -0.412706 -3.95452 0
M  V30 2251 N 223.193 1.4272 -0.668489 0
M  V30 2252 C 224.442 2.00846 -0.185389 0
M  V30 2253 C 224.755 1.53442 1.21305 0
M  V30 2254 O 225.961 2.03944 1.79218 0
M  V30 2255 C 224.417 3.58805 -0.280591 0
M  V30 2256 C 224.025 4.15198 -1.68268 0
M  V30 2257 C 225.769 4.24255 0.14412 0
M  V30 2258 C 223.676 5.655 -1.73099 0
M  V30 2259 H 222.606 0.751145 -0.0655475 0
M  V30 2260 H 225.257 1.63516 -0.832752 0
M  V30 2261 H 223.639 3.93608 0.434553 0
M  V30 2262 H 224.813 3.91866 -2.42441 0
M  V30 2263 H 223.128 3.62176 -2.05469 0
M  V30 2264 H 225.725 5.34547 0.128086 0
M  V30 2265 H 226.068 3.99277 1.17827 0
M  V30 2266 H 226.601 3.94389 -0.519798 0
M  V30 2267 H 223.34 5.95268 -2.74475 0
M  V30 2268 H 222.86 5.90842 -1.03274 0
M  V30 2269 H 224.539 6.29808 -1.48158 0
M  V30 2270 N 224.671 0.411399 1.52136 0
M  V30 2271 C 225.601 -0.404015 2.29978 0
M  V30 2272 C 226.582 -1.04412 1.34284 0
M  V30 2273 O 227.767 -1.0527 1.63192 0
M  V30 2274 C 224.897 -1.5197 3.12286 0
M  V30 2275 C 223.851 -1.00448 4.16046 0
M  V30 2276 C 223.177 -2.21393 4.86712 0
M  V30 2277 C 224.477 -0.0569336 5.22269 0
M  V30 2278 H 226.171 0.245529 2.98392 0
M  V30 2279 H 223.717 0.119525 1.43503 0
M  V30 2280 H 225.67 -2.09715 3.6551 0
M  V30 2281 H 224.394 -2.19716 2.41646 0
M  V30 2282 H 223.053 -0.449421 3.63835 0
M  V30 2283 H 222.701 -2.87699 4.12599 0
M  V30 2284 H 222.401 -1.87571 5.56858 0
M  V30 2285 H 223.925 -2.7974 5.4275 0
M  V30 2286 H 225.339 -0.54325 5.7072 0
M  V30 2287 H 223.736 0.192594 5.99791 0
M  V30 2288 H 224.806 0.887663 4.76706 0
M  V30 2289 N 226.149 -1.5696 0.141893 0
M  V30 2290 C 227.079 -2.19516 -0.795936 0
M  V30 2291 C 228.06 -1.14187 -1.26077 0
M  V30 2292 O 229.245 -1.42511 -1.31925 0
M  V30 2293 C 226.375 -2.81272 -2.03723 0
M  V30 2294 C 225.329 -3.92384 -1.70936 0
M  V30 2295 C 224.655 -4.41052 -3.02287 0
M  V30 2296 C 225.955 -5.13403 -0.959954 0
M  V30 2297 H 227.649 -2.98138 -0.274596 0
M  V30 2298 H 225.195 -1.43406 -0.130636 0
M  V30 2299 H 227.148 -3.237 -2.69808 0
M  V30 2300 H 225.872 -1.99973 -2.58221 0
M  V30 2301 H 224.531 -3.50566 -1.07232 0
M  V30 2302 H 224.179 -3.56582 -3.54765 0
M  V30 2303 H 223.879 -5.15993 -2.81114 0
M  V30 2304 H 225.403 -4.86146 -3.69451 0
M  V30 2305 H 226.817 -5.52706 -1.52279 0
M  V30 2306 H 225.214 -5.94073 -0.848357 0
M  V30 2307 H 226.284 -4.84875 0.0492434 0
M  V30 2308 N 227.627 0.131896 -1.57047 0
M  V30 2309 C 228.874 0.841932 -1.84168 0
M  V30 2310 C 229.202 1.8048 -0.725066 0
M  V30 2311 O 228.457 1.93618 0.284692 0
M  V30 2312 C 228.756 1.63703 -3.17704 0
M  V30 2313 C 228.422 0.81961 -4.43388 0
M  V30 2314 C 227.084 0.594148 -4.77518 0
M  V30 2315 C 229.436 0.248977 -5.20605 0
M  V30 2316 C 226.764 -0.212409 -5.86315 0
M  V30 2317 C 229.116 -0.544701 -6.30251 0
M  V30 2318 C 227.78 -0.780599 -6.6292 0
M  V30 2319 H 227.05 0.308085 -0.673917 0
M  V30 2320 H 229.697 0.104867 -1.91213 0
M  V30 2321 H 228.002 2.44464 -3.06177 0
M  V30 2322 H 229.699 2.19015 -3.35907 0
M  V30 2323 H 226.289 1.00542 -4.16641 0
M  V30 2324 H 230.473 0.410408 -4.946 0
M  V30 2325 H 225.729 -0.404524 -6.1006 0
M  V30 2326 H 229.903 -0.993922 -6.89271 0
M  V30 2327 H 227.53 -1.40742 -7.47058 0
M  V30 2328 N 229.106 1.52395 0.401703 0
M  V30 2329 C 230.053 1.76268 1.48991 0
M  V30 2330 C 231.023 0.605386 1.54675 0
M  V30 2331 O 232.208 0.843742 1.7113 0
M  V30 2332 C 229.348 1.92592 2.86361 0
M  V30 2333 C 228.461 3.20259 2.89928 0
M  V30 2334 C 227.596 3.26972 4.18644 0
M  V30 2335 C 226.635 4.48812 4.16214 0
M  V30 2336 N 225.772 4.52877 5.36514 0
M  V30 2337 H 230.612 2.6914 1.27935 0
M  V30 2338 H 228.149 1.33355 0.620871 0
M  V30 2339 H 230.107 2.0004 3.66115 0
M  V30 2340 H 228.737 1.03093 3.05895 0
M  V30 2341 H 227.789 3.21945 2.02621 0
M  V30 2342 H 229.101 4.10056 2.83999 0
M  V30 2343 H 228.255 3.33533 5.06794 0
M  V30 2344 H 226.994 2.35126 4.27278 0
M  V30 2345 H 225.999 4.4239 3.26453 0
M  V30 2346 H 227.224 5.41961 4.09213 0
M  V30 2347 H 225.17 3.63917 5.45802 0
M  V30 2348 H 225.087 5.36529 5.32609 0
M  V30 2349 H 226.355 4.63676 6.26597 0
M  V30 2350 N 230.584 -0.659388 1.43143 0
M  V30 2351 C 231.532 -1.79374 1.4808 0
M  V30 2352 C 232.526 -1.65639 0.354988 0
M  V30 2353 O 233.732 -1.7206 0.528704 0
M  V30 2354 H 230.107 -0.591705 0.4641 0
M  V30 2355 H 232.078 -1.72329 2.43609 0
M  V30 2356 C 230.827 -3.17606 1.41499 0
M  V30 2357 H 230.15 -3.28809 2.27431 0
M  V30 2358 H 231.59 -3.96951 1.49015 0
M  V30 2359 C 230.049 -3.36642 0.131765 0
M  V30 2360 O 230.579 -3.93461 -0.809386 0
M  V30 2361 N 228.785 -2.90567 0.0439396 0
M  V30 2362 H 228.332 -2.44513 0.810619 0
M  V30 2363 H 228.29 -3.03681 -0.813969 0
M  V30 2364 N 232.062 -1.29571 -0.897171 0
M  V30 2365 C 232.992 -1.17473 -2.01798 0
M  V30 2366 C 233.973 -0.068323 -1.69963 0
M  V30 2367 O 235.158 -0.248239 -1.92607 0
M  V30 2368 C 232.288 -0.853099 -3.36659 0
M  V30 2369 C 231.242 -1.9161 -3.82713 0
M  V30 2370 C 230.568 -1.44773 -5.14728 0
M  V30 2371 C 231.868 -3.32535 -4.02763 0
M  V30 2372 H 233.562 -2.11237 -2.12177 0
M  V30 2373 H 231.108 -1.01699 -1.01948 0
M  V30 2374 H 233.061 -0.755165 -4.14578 0
M  V30 2375 H 231.785 0.120236 -3.26379 0
M  V30 2376 H 230.444 -2.00346 -3.07013 0
M  V30 2377 H 230.092 -0.462995 -5.00865 0
M  V30 2378 H 229.792 -2.15865 -5.46513 0
M  V30 2379 H 231.316 -1.36334 -5.95185 0
M  V30 2380 H 232.73 -3.26626 -4.71156 0
M  V30 2381 H 231.127 -4.01607 -4.45905 0
M  V30 2382 H 232.197 -3.75326 -3.07016 0
M  V30 2383 N 233.54 1.10788 -1.12088 0
M  V30 2384 C 234.817 1.79136 -0.785476 0
M  V30 2385 C 235.197 1.98246 0.725377 0
M  V30 2386 O 234.545 1.57258 1.65778 0
M  V30 2387 C 234.755 3.12375 -1.55636 0
M  V30 2388 C 236.103 3.8731 -1.74001 0
M  V30 2389 O 237.127 3.22085 -1.52117 0
M  V30 2390 O 235.986 5.04369 -2.10415 0
M  V30 2391 H 233.08 0.776226 -0.285311 0
M  V30 2392 H 235.626 1.1747 -1.2247 0
M  V30 2393 H 234.398 2.93863 -2.5838 0
M  V30 2394 H 234.021 3.81758 -1.11114 0
M  V30 2395 N 235.018 0.912232 1.28515 0
M  V30 2396 C 236.429 0.591352 1.77087 0
M  V30 2397 C 236.78 -0.8933 1.74684 0
M  V30 2398 O 235.905 -1.69876 1.34056 0
M  V30 2399 C 236.5 1.06668 3.2157 0
M  V30 2400 C 235.059 0.79675 3.67871 0
M  V30 2401 C 234.206 1.23427 2.48316 0
M  V30 2402 H 237.157 1.09365 1.15 0
M  V30 2403 H 237.178 0.407455 3.78312 0
M  V30 2404 H 236.69 2.14726 3.23287 0
M  V30 2405 H 234.791 -0.270679 3.71616 0
M  V30 2406 H 234.904 1.40343 4.58084 0
M  V30 2407 H 233.268 0.653036 2.46186 0
M  V30 2408 H 234.051 2.32316 2.52753 0
M  V30 2409 N 236.496 -1.42363 0.676048 0
M  V30 2410 C 237.406 -2.346 -0.00153389 0
M  V30 2411 C 238.422 -1.5516 -0.787485 0
M  V30 2412 O 239.598 -1.87723 -0.729521 0
M  V30 2413 C 236.663 -3.33705 -0.940298 0
M  V30 2414 C 235.724 -4.29042 -0.148739 0
M  V30 2415 C 234.957 -5.23413 -1.04279 0
M  V30 2416 O 235.18 -5.22749 -2.28232 0
M  V30 2417 O 234.114 -5.99795 -0.502925 0
M  V30 2418 H 237.94 -2.94082 0.758268 0
M  V30 2419 H 235.525 -1.42888 0.436289 0
M  V30 2420 H 237.407 -3.94586 -1.47917 0
M  V30 2421 H 236.082 -2.76695 -1.67993 0
M  V30 2422 H 234.989 -3.71571 0.43427 0
M  V30 2423 H 236.322 -4.89097 0.551805 0
M  V30 2424 N 237.974 -0.419461 -1.51915 0
M  V30 2425 C 238.906 0.43646 -2.25006 0
M  V30 2426 C 239.919 1.00149 -1.28351 0
M  V30 2427 O 241.108 0.898674 -1.54227 0
M  V30 2428 C 238.208 1.6206 -2.9764 0
M  V30 2429 C 237.381 1.17763 -4.21249 0
M  V30 2430 C 236.44 2.22985 -4.76617 0
M  V30 2431 O 235.466 1.83151 -5.38929 0
M  V30 2432 N 236.668 3.55271 -4.59089 0
M  V30 2433 H 239.433 -0.18989 -2.99098 0
M  V30 2434 H 236.994 -0.247386 -1.59999 0
M  V30 2435 H 238.986 2.32038 -3.31573 0
M  V30 2436 H 237.556 2.15266 -2.2667 0
M  V30 2437 H 236.776 0.305582 -3.93014 0
M  V30 2438 H 238.064 0.858781 -5.015 0
M  V30 2439 H 237.462 3.90377 -4.09417 0
M  V30 2440 H 236.019 4.21195 -4.97432 0
M  V30 2441 N 239.452 1.56882 -0.150215 0
M  V30 2442 C 240.385 2.12712 0.826358 0
M  V30 2443 C 241.363 1.05154 1.24022 0
M  V30 2444 O 242.547 1.33004 1.33575 0
M  V30 2445 C 239.674 2.64945 2.11002 0
M  V30 2446 C 238.72 3.8468 1.84183 0
M  V30 2447 S 239.553 5.25502 1.02995 0
M  V30 2448 C 240.709 5.81125 2.32474 0
M  V30 2449 H 240.942 2.95214 0.351598 0
M  V30 2450 H 238.475 1.54267 0.0641211 0
M  V30 2451 H 240.433 2.95689 2.84742 0
M  V30 2452 H 239.094 1.82568 2.55593 0
M  V30 2453 H 238.287 4.19482 2.79375 0
M  V30 2454 H 237.889 3.54714 1.1855 0
M  V30 2455 H 240.181 5.92753 3.281 0
M  V30 2456 H 241.124 6.78625 2.02171 0
M  V30 2457 H 241.532 5.09392 2.43269 0
M  V30 2458 N 240.93 -0.123565 1.57115 0
M  V30 2459 C 242.155 -0.850398 1.89164 0
M  V30 2460 C 242.58 -1.7286 0.741688 0
M  V30 2461 O 241.938 -1.78665 -0.307958 0
M  V30 2462 C 241.986 -1.66353 3.19936 0
M  V30 2463 O 241.09 -2.77004 3.0552 0
M  V30 2464 H 240.431 -0.235454 0.620852 0
M  V30 2465 H 242.961 -0.107335 2.04318 0
M  V30 2466 H 242.971 -2.05372 3.52543 0
M  V30 2467 H 241.646 -1.01881 4.03228 0
M  V30 2468 H 240.223 -2.41221 2.84371 0
M  V30 2469 N 242.408 -1.52605 -0.393616 0
M  V30 2470 C 243.34 -1.73303 -1.49995 0
M  V30 2471 C 244.353 -0.613473 -1.50799 0
M  V30 2472 O 245.542 -0.889049 -1.54784 0
M  V30 2473 C 242.642 -1.77245 -2.88855 0
M  V30 2474 C 241.815 -3.06483 -3.12069 0
M  V30 2475 C 240.874 -3.02033 -4.30886 0
M  V30 2476 O 239.9 -3.75907 -4.27414 0
M  V30 2477 N 241.102 -2.20897 -5.36828 0
M  V30 2478 H 243.867 -2.68756 -1.32629 0
M  V30 2479 H 241.428 -1.51036 -0.583083 0
M  V30 2480 H 243.42 -1.7178 -3.66434 0
M  V30 2481 H 241.99 -0.891993 -2.99603 0
M  V30 2482 H 241.21 -3.25474 -2.22396 0
M  V30 2483 H 242.498 -3.91947 -3.2443 0
M  V30 2484 H 241.896 -1.60336 -5.42502 0
M  V30 2485 H 240.453 -2.21275 -6.13091 0
M  V30 2486 N 243.887 0.651787 -1.4349 0
M  V30 2487 C 245.133 1.41376 -1.45398 0
M  V30 2488 C 245.466 1.94041 -0.0784823 0
M  V30 2489 O 244.741 1.72379 0.900878 0
M  V30 2490 C 245.024 2.59414 -2.49752 0
M  V30 2491 C 244.877 2.12232 -3.96582 0
M  V30 2492 C 246.196 3.61626 -2.50827 0
M  V30 2493 H 243.315 0.512719 -0.529422 0
M  V30 2494 H 245.957 0.738796 -1.75048 0
M  V30 2495 H 244.107 3.16997 -2.246 0
M  V30 2496 H 245.779 1.59639 -4.32797 0
M  V30 2497 H 244.022 1.43592 -4.09346 0
M  V30 2498 H 244.693 2.9712 -4.65214 0
M  V30 2499 H 247.169 3.13805 -2.7325 0
M  V30 2500 H 246.045 4.41766 -3.25783 0
M  V30 2501 H 246.306 4.14314 -1.5426 0
M  V30 2502 N 245.365 1.30045 0.890287 0
M  V30 2503 C 246.295 1.18541 2.01172 0
M  V30 2504 C 247.276 0.0773356 1.69924 0
M  V30 2505 O 248.461 0.25845 1.92473 0
M  V30 2506 C 245.591 0.870941 3.36202 0
M  V30 2507 C 244.545 1.93637 3.81692 0
M  V30 2508 C 243.871 1.475 5.13953 0
M  V30 2509 C 245.171 3.34666 4.00994 0
M  V30 2510 H 246.865 2.12359 2.11054 0
M  V30 2511 H 244.411 1.02238 1.01407 0
M  V30 2512 H 246.364 0.777141 4.14172 0
M  V30 2513 H 245.088 -0.102926 3.26438 0
M  V30 2514 H 243.747 2.01972 3.05946 0
M  V30 2515 H 243.395 0.489551 5.00612 0
M  V30 2516 H 243.095 2.1876 5.4536 0
M  V30 2517 H 244.619 1.39489 5.94454 0
M  V30 2518 H 246.033 3.2912 4.69417 0
M  V30 2519 H 244.43 4.03966 4.43769 0
M  V30 2520 H 245.5 3.76949 3.05021 0
M  V30 2521 N 246.843 -1.10192 1.12674 0
M  V30 2522 C 248.12 -1.78717 0.794965 0
M  V30 2523 C 248.5 -1.98628 -0.714853 0
M  V30 2524 O 247.848 -1.58135 -1.64941 0
M  V30 2525 C 248.058 -3.11546 1.5729 0
M  V30 2526 C 249.406 -3.86382 1.76052 0
M  V30 2527 O 250.43 -3.21274 1.53823 0
M  V30 2528 O 249.289 -5.03246 2.13087 0
M  V30 2529 H 246.383 -0.774702 0.289423 0
M  V30 2530 H 248.929 -1.16819 1.23091 0
M  V30 2531 H 247.701 -2.92489 2.59935 0
M  V30 2532 H 247.324 -3.81164 1.13137 0
M  V30 2533 N 248.321 -0.919034 -1.28029 0
M  V30 2534 C 249.284 -0.416182 -2.2539 0
M  V30 2535 C 250.284 0.460438 -1.54067 0
M  V30 2536 O 251.474 0.262744 -1.72207 0
M  V30 2537 C 248.606 0.402707 -3.38513 0
M  V30 2538 H 249.799 -1.27629 -2.71387 0
M  V30 2539 H 247.352 -0.698919 -1.39803 0
M  V30 2540 H 248.087 1.282 -2.97885 0
M  V30 2541 H 247.872 -0.225698 -3.9145 0
M  V30 2542 H 249.362 0.745191 -4.10897 0
M  V30 2543 N 249.799 1.42003 -0.683588 0
M  V30 2544 C 250.732 2.28166 0.039592 0
M  V30 2545 C 251.71 1.41562 0.799942 0
M  V30 2546 O 252.894 1.70997 0.793248 0
M  V30 2547 C 250.021 3.21575 1.06335 0
M  V30 2548 C 249.067 4.24643 0.397562 0
M  V30 2549 S 249.9 5.2869 -0.851296 0
M  V30 2550 C 251.056 6.25666 0.171166 0
M  V30 2551 H 251.289 2.89153 -0.691229 0
M  V30 2552 H 248.822 1.46962 -0.473435 0
M  V30 2553 H 250.78 3.75928 1.6489 0
M  V30 2554 H 249.441 2.59707 1.76667 0
M  V30 2555 H 248.634 4.90223 1.17035 0
M  V30 2556 H 248.236 3.73824 -0.114611 0
M  V30 2557 H 250.528 6.69653 1.02819 0
M  V30 2558 H 251.471 7.06666 -0.450397 0
M  V30 2559 H 251.879 5.62095 0.520578 0
M  V30 2560 N 251.277 0.427512 1.51691 0
M  V30 2561 C 252.524 -0.142229 2.02 0
M  V30 2562 C 252.852 -1.43566 1.31221 0
M  V30 2563 O 252.107 -1.91298 0.412744 0
M  V30 2564 C 252.406 -0.418249 3.54944 0
M  V30 2565 C 252.072 0.788187 4.43958 0
M  V30 2566 C 250.734 1.11906 4.68007 0
M  V30 2567 C 253.086 1.59347 4.96244 0
M  V30 2568 C 250.414 2.25608 5.41588 0
M  V30 2569 C 252.766 2.7214 5.71072 0
M  V30 2570 C 251.43 3.05692 5.93387 0
M  V30 2571 H 250.7 -0.0520451 0.73917 0
M  V30 2572 H 253.347 0.572697 1.82736 0
M  V30 2573 H 251.652 -1.21496 3.72486 0
M  V30 2574 H 253.349 -0.872339 3.91397 0
M  V30 2575 H 249.939 0.520344 4.2543 0
M  V30 2576 H 254.123 1.35106 4.77556 0
M  V30 2577 H 249.379 2.51929 5.57083 0
M  V30 2578 H 253.553 3.34914 6.10578 0
M  V30 2579 H 251.18 3.9391 6.50184 0
M  V30 2580 N 252.755 -1.56801 0.158532 0
M  V30 2581 C 253.665 -2.20916 -0.789518 0
M  V30 2582 C 254.681 -1.1969 -1.26294 0
M  V30 2583 O 255.857 -1.52308 -1.31773 0
M  V30 2584 C 252.922 -2.82727 -2.00665 0
M  V30 2585 C 251.983 -3.99114 -1.58134 0
M  V30 2586 C 251.216 -4.57968 -2.74045 0
M  V30 2587 O 251.439 -4.15704 -3.90572 0
M  V30 2588 O 250.373 -5.48047 -2.48855 0
M  V30 2589 H 254.199 -3.02464 -0.273681 0
M  V30 2590 H 251.784 -1.4924 -0.0690548 0
M  V30 2591 H 253.666 -3.21968 -2.71872 0
M  V30 2592 H 252.341 -2.04184 -2.51179 0
M  V30 2593 H 251.248 -3.64567 -0.839155 0
M  V30 2594 H 252.581 -4.79212 -1.12325 0
M  V30 2595 N 254.233 0.115231 -1.57178 0
M  V30 2596 C 255.18 1.14115 -2.00615 0
M  V30 2597 C 256.15 1.40939 -0.878941 0
M  V30 2598 O 257.335 1.52741 -1.14345 0
M  V30 2599 C 254.475 2.46156 -2.4187 0
M  V30 2600 C 253.588 2.26236 -3.68024 0
M  V30 2601 C 252.723 3.51534 -3.98243 0
M  V30 2602 C 251.762 3.26787 -5.17568 0
M  V30 2603 N 250.899 4.44298 -5.43639 0
M  V30 2604 H 255.739 0.763743 -2.88047 0
M  V30 2605 H 253.276 0.365615 -1.42484 0
M  V30 2606 H 255.234 3.23189 -2.63827 0
M  V30 2607 H 253.864 2.81783 -1.57475 0
M  V30 2608 H 252.916 1.40102 -3.5366 0
M  V30 2609 H 254.228 2.03929 -4.55208 0
M  V30 2610 H 253.382 4.36984 -4.20868 0
M  V30 2611 H 252.121 3.76876 -3.09541 0
M  V30 2612 H 251.126 2.39729 -4.94783 0
M  V30 2613 H 252.351 3.02812 -6.0785 0
M  V30 2614 H 250.297 4.69754 -4.57895 0
M  V30 2615 H 250.214 4.25109 -6.25154 0
M  V30 2616 H 251.482 5.3087 -5.70786 0
M  V30 2617 N 255.711 1.52812 0.385517 0
M  V30 2618 C 256.641 1.80808 1.47752 0
M  V30 2619 C 257.622 0.660318 1.5676 0
M  V30 2620 O 258.807 0.908246 1.71652 0
M  V30 2621 C 255.937 1.98008 2.85324 0
M  V30 2622 C 254.891 3.13709 2.91154 0
M  V30 2623 C 254.217 3.16169 4.31209 0
M  V30 2624 C 255.517 4.52709 2.60483 0
M  V30 2625 H 257.211 2.72253 1.24573 0
M  V30 2626 H 254.757 1.31003 0.597839 0
M  V30 2627 H 256.71 2.16176 3.61726 0
M  V30 2628 H 255.434 1.03255 3.09848 0
M  V30 2629 H 254.093 2.95329 2.17201 0
M  V30 2630 H 253.741 2.19092 4.52778 0
M  V30 2631 H 253.441 3.93894 4.36029 0
M  V30 2632 H 254.965 3.36496 5.09512 0
M  V30 2633 H 256.379 4.71173 3.26602 0
M  V30 2634 H 254.776 5.32528 2.76648 0
M  V30 2635 H 255.846 4.59186 1.55809 0
M  V30 2636 N 257.189 -0.644168 1.43834 0
M  V30 2637 C 258.435 -1.40603 1.46146 0
M  V30 2638 C 258.768 -1.93997 0.0887717 0
M  V30 2639 O 258.043 -1.72854 -0.891724 0
M  V30 2640 C 258.326 -2.58086 2.51124 0
M  V30 2641 C 258.179 -2.10126 3.97702 0
M  V30 2642 C 259.498 -3.60291 2.52742 0
M  V30 2643 H 256.617 -0.509905 0.532134 0
M  V30 2644 H 259.259 -0.729502 1.75437 0
M  V30 2645 H 257.409 -3.15801 2.26278 0
M  V30 2646 H 259.081 -1.57342 4.33637 0
M  V30 2647 H 257.324 -1.41419 4.10101 0
M  V30 2648 H 257.995 -2.94649 4.66783 0
M  V30 2649 H 260.471 -3.12352 2.7491 0
M  V30 2650 H 259.347 -4.40032 3.28121 0
M  V30 2651 H 259.608 -4.1349 1.56455 0
M  V30 2652 N 258.668 -1.30515 -0.883378 0
M  V30 2653 C 259.615 -1.17032 -1.98927 0
M  V30 2654 C 260.585 -0.0594241 -1.65994 0
M  V30 2655 O 261.77 -0.229895 -1.8941 0
M  V30 2656 C 258.91 -0.869777 -3.33959 0
M  V30 2657 C 258.023 -2.06271 -3.79574 0
M  V30 2658 C 257.158 -1.70011 -5.03259 0
M  V30 2659 C 256.197 -2.8579 -5.41286 0
M  V30 2660 N 255.334 -2.49816 -6.56153 0
M  V30 2661 H 260.174 -2.1164 -2.09792 0
M  V30 2662 H 257.711 -1.05296 -1.02719 0
M  V30 2663 H 259.669 -0.676138 -4.11685 0
M  V30 2664 H 258.299 0.0394332 -3.22776 0
M  V30 2665 H 257.351 -2.36755 -2.97744 0
M  V30 2666 H 258.663 -2.92971 -4.03694 0
M  V30 2667 H 257.817 -1.47032 -5.88614 0
M  V30 2668 H 256.556 -0.804829 -4.81013 0
M  V30 2669 H 255.561 -3.09434 -4.54456 0
M  V30 2670 H 256.786 -3.76008 -5.65504 0
M  V30 2671 H 254.732 -1.62795 -6.35479 0
M  V30 2672 H 254.649 -3.30048 -6.8015 0
M  V30 2673 H 255.917 -2.30197 -7.44735 0
M  V30 2674 N 260.146 1.09593 -1.13257 0
M  V30 2675 C 261.423 1.78293 -0.804432 0
M  V30 2676 C 261.803 1.99004 0.70431 0
M  V30 2677 O 261.151 1.59007 1.641 0
M  V30 2678 C 261.361 3.10707 -1.5894 0
M  V30 2679 C 262.709 3.85443 -1.78099 0
M  V30 2680 O 263.733 3.20454 -1.55525 0
M  V30 2681 O 262.592 5.02108 -2.15753 0
M  V30 2682 H 259.686 0.773156 -0.293528 0
M  V30 2683 H 262.232 1.16164 -1.23709 0
M  V30 2684 H 261.004 2.91106 -2.61482 0
M  V30 2685 H 260.627 3.80558 -1.15157 0
M  V30 2686 N 261.624 0.925811 1.2754 0
M  V30 2687 C 262.872 0.564138 1.94067 0
M  V30 2688 C 263.193 -0.897188 1.73134 0
M  V30 2689 O 262.463 -1.63573 1.07799 0
M  V30 2690 H 261.043 0.205645 0.718136 0
M  V30 2691 H 263.705 1.1778 1.55287 0
M  V30 2692 H 262.801 0.76881 3.02483 0
M  V30 2693 N 263.102 -1.41638 0.69111 0
M  V30 2694 C 264.012 -2.34588 0.0233487 0
M  V30 2695 C 265.028 -1.55987 -0.770984 0
M  V30 2696 O 266.204 -1.88486 -0.709569 0
M  V30 2697 C 263.269 -3.34684 -0.904851 0
M  V30 2698 C 262.33 -4.29176 -0.103225 0
M  V30 2699 C 261.563 -5.2449 -0.987216 0
M  V30 2700 O 261.786 -5.2514 -2.22674 0
M  V30 2701 O 260.72 -6.00295 -0.439281 0
M  V30 2702 H 264.546 -2.93261 0.789416 0
M  V30 2703 H 262.131 -1.42417 0.45142 0
M  V30 2704 H 264.013 -3.96133 -1.43724 0
M  V30 2705 H 262.688 -2.78461 -1.65049 0
M  V30 2706 H 261.595 -3.71089 0.473655 0
M  V30 2707 H 262.928 -4.88484 0.60365 0
M  V30 2708 N 264.58 -0.43555 -1.51462 0
M  V30 2709 C 265.53 0.394701 -2.24558 0
M  V30 2710 C 266.514 0.99157 -1.26715 0
M  V30 2711 O 267.706 0.910007 -1.51815 0
M  V30 2712 C 264.835 1.4963 -3.08975 0
M  V30 2713 C 263.921 0.908912 -4.14246 0
M  V30 2714 N 264.312 0.0505335 -5.05775 0
M  V30 2715 C 262.61 1.17668 -4.30198 0
M  V30 2716 C 263.311 -0.279161 -5.8103 0
M  V30 2717 N 262.287 0.336767 -5.42556 0
M  V30 2718 H 266.089 -0.267106 -2.92684 0
M  V30 2719 H 263.603 -0.247518 -1.60503 0
M  V30 2720 H 265.6 2.10394 -3.59917 0
M  V30 2721 H 264.26 2.16046 -2.42393 0
M  V30 2722 H 265.271 -0.31577 -5.16936 0
M  V30 2723 H 261.948 1.83847 -3.74842 0
M  V30 2724 H 263.338 -0.977553 -6.64751 0
M  V30 2725 N 266.058 1.56714 -0.166846 0
M  V30 2726 C 267.304 1.97039 0.479962 0
M  V30 2727 C 267.637 1.05264 1.63197 0
M  V30 2728 O 266.912 0.0988833 1.94248 0
M  V30 2729 C 267.195 3.46867 0.967212 0
M  V30 2730 C 267.048 4.49421 -0.18466 0
M  V30 2731 C 268.367 3.9968 1.84238 0
M  V30 2732 H 265.486 0.71641 0.172992 0
M  V30 2733 H 268.128 1.8832 -0.252079 0
M  V30 2734 H 266.278 3.54428 1.59101 0
M  V30 2735 H 267.95 4.53924 -0.821621 0
M  V30 2736 H 266.193 4.25573 -0.840837 0
M  V30 2737 H 266.864 5.51644 0.198317 0
M  V30 2738 H 269.34 3.94723 1.31655 0
M  V30 2739 H 268.216 5.04941 2.15234 0
M  V30 2740 H 268.477 3.43226 2.78654 0
M  V30 2741 N 267.536 -0.106894 1.57237 0
M  V30 2742 C 268.785 -0.811163 1.8467 0
M  V30 2743 C 269.098 -1.80469 0.754342 0
M  V30 2744 O 270.304 -2.55601 0.915439 0
M  V30 2745 C 268.76 -1.49337 3.27454 0
M  V30 2746 C 268.368 -0.540217 4.44731 0
M  V30 2747 C 270.112 -2.18206 3.64124 0
M  V30 2748 C 268.019 -1.22634 5.78545 0
M  V30 2749 H 266.949 -0.306679 0.688813 0
M  V30 2750 H 269.6 -0.0639887 1.83388 0
M  V30 2751 H 267.982 -2.2876 3.23241 0
M  V30 2752 H 269.156 0.221659 4.60267 0
M  V30 2753 H 267.471 0.042146 4.16379 0
M  V30 2754 H 270.068 -2.70253 4.61376 0
M  V30 2755 H 270.411 -2.96562 2.92158 0
M  V30 2756 H 270.944 -1.45658 3.70174 0
M  V30 2757 H 267.683 -0.483832 6.53712 0
M  V30 2758 H 267.203 -1.95993 5.66874 0
M  V30 2759 H 268.882 -1.75615 6.2271 0
M  V30 2760 N 269.014 -1.53014 -0.377408 0
M  V30 2761 C 270.291 -1.59215 -1.13622 0
M  V30 2762 C 270.671 -0.392407 -2.07421 0
M  V30 2763 O 270.019 0.618342 -2.19975 0
M  V30 2764 C 270.229 -2.93669 -1.88573 0
M  V30 2765 C 271.577 -3.47822 -2.43526 0
M  V30 2766 O 272.601 -2.9562 -1.98715 0
M  V30 2767 O 271.46 -4.39055 -3.25412 0
M  V30 2768 H 268.554 -0.642625 -0.52054 0
M  V30 2769 H 271.1 -1.65353 -0.381625 0
M  V30 2770 H 269.872 -3.7243 -1.20048 0
M  V30 2771 H 269.495 -2.90968 -2.70968 0
M  V30 2772 N 270.492 0.636531 -1.44174 0
M  V30 2773 C 271.424 1.7618 -1.46606 0
M  V30 2774 C 272.437 1.58768 -0.360091 0
M  V30 2775 O 273.626 1.67181 -0.625518 0
M  V30 2776 C 270.726 3.13833 -1.27915 0
M  V30 2777 C 269.899 3.57753 -2.51658 0
M  V30 2778 C 268.958 4.74265 -2.27945 0
M  V30 2779 O 267.984 4.82852 -3.01401 0
M  V30 2780 N 269.186 5.65604 -1.30662 0
M  V30 2781 H 271.951 1.74567 -2.43612 0
M  V30 2782 H 269.512 0.820924 -1.39544 0
M  V30 2783 H 271.504 3.8949 -1.09907 0
M  V30 2784 H 270.074 3.10121 -0.39293 0
M  V30 2785 H 269.294 2.72362 -2.84978 0
M  V30 2786 H 270.582 3.83847 -3.33974 0
M  V30 2787 H 269.98 5.61354 -0.699844 0
M  V30 2788 H 268.537 6.40913 -1.18634 0
M  V30 2789 N 271.97 1.30982 0.876444 0
M  V30 2790 C 273.218 1.20058 1.62575 0
M  V30 2791 C 273.539 -0.242947 1.93481 0
M  V30 2792 O 272.809 -1.1619 1.57724 0
M  V30 2793 H 271.389 0.44135 0.602677 0
M  V30 2794 H 274.051 1.64222 1.04962 0
M  V30 2795 H 273.147 1.76762 2.57219 0
M  V30 2796 N 273.449 -1.08991 1.13837 0
M  V30 2797 C 274.726 -1.77863 0.813876 0
M  V30 2798 C 275.106 -1.99375 -0.693746 0
M  V30 2799 O 274.454 -1.59875 -1.63255 0
M  V30 2800 C 274.664 -3.0986 1.60586 0
M  V30 2801 C 276.012 -3.84493 1.8014 0
M  V30 2802 O 277.036 -3.19624 1.57222 0
M  V30 2803 O 275.895 -5.00957 2.18413 0
M  V30 2804 H 272.989 -0.771589 0.297624 0
M  V30 2805 H 275.535 -1.15507 1.24323 0
M  V30 2806 H 274.307 -2.89715 2.63022 0
M  V30 2807 H 273.93 -3.79942 1.17173 0
M  V30 2808 N 274.927 -0.932562 -1.27047 0
M  V30 2809 C 276.204 -0.49377 -1.89265 0
M  V30 2810 C 276.584 1.02833 -1.8436 0
M  V30 2811 O 275.932 1.88461 -1.29209 0
M  V30 2812 C 276.142 -1.04536 -3.32976 0
M  V30 2813 C 277.49 -1.10879 -4.09867 0
M  V30 2814 O 278.514 -0.995327 -3.42011 0
M  V30 2815 O 277.373 -1.28417 -5.31198 0
M  V30 2816 H 274.467 -0.159596 -0.811454 0
M  V30 2817 H 277.013 -1.02457 -1.3528 0
M  V30 2818 H 275.785 -2.08913 -3.30864 0
M  V30 2819 H 275.408 -0.496494 -3.94488 0
M  V30 2820 N 276.405 1.4127 -0.698611 0
M  V30 2821 C 277.653 2.00782 -0.230409 0
M  V30 2822 C 277.974 1.5562 1.17505 0
M  V30 2823 O 277.244 0.78815 1.79346 0
M  V30 2824 H 275.824 0.742464 -0.0821944 0
M  V30 2825 H 278.486 1.72852 -0.90045 0
M  V30 2826 H 277.582 3.11095 -0.25021 0
M  V30 2827 N 277.883 0.443576 1.51229 0
M  V30 2828 C 279.16 -0.181038 1.9476 0
M  V30 2829 C 279.54 -1.59523 1.38259 0
M  V30 2830 O 278.888 -2.2122 0.572198 0
M  V30 2831 C 279.098 -0.152422 3.48667 0
M  V30 2832 C 280.446 -0.354923 4.23114 0
M  V30 2833 O 281.47 -0.230257 3.55455 0
M  V30 2834 O 280.329 -0.603674 5.43156 0
M  V30 2835 H 277.423 -0.1266 0.817252 0
M  V30 2836 H 279.969 0.502004 1.62105 0
M  V30 2837 H 278.741 0.836022 3.82265 0
M  V30 2838 H 278.364 -0.878107 3.87782 0
M  V30 2839 N 279.361 -1.56624 0.175154 0
M  V30 2840 C 280.309 -2.19468 -0.770495 0
M  V30 2841 C 281.303 -1.15985 -1.23466 0
M  V30 2842 O 282.509 -1.34176 -1.19987 0
M  V30 2843 H 278.884 -0.703095 -0.266761 0
M  V30 2844 H 280.855 -2.97613 -0.216542 0
M  V30 2845 C 279.604 -2.85264 -1.98796 0
M  V30 2846 H 278.927 -3.64623 -1.63983 0
M  V30 2847 H 280.367 -3.327 -2.62843 0
M  V30 2848 C 278.826 -1.85239 -2.81404 0
M  V30 2849 O 279.356 -1.34024 -3.78682 0
M  V30 2850 N 277.562 -1.53911 -2.46495 0
M  V30 2851 H 277.109 -1.95751 -1.67449 0
M  V30 2852 H 277.067 -0.872382 -3.02054 0
M  V30 2853 N 280.839 0.0985539 -1.57292 0
M  V30 2854 C 282.086 0.802678 -1.85912 0
M  V30 2855 C 282.414 1.78901 -0.763186 0
M  V30 2856 O 281.669 1.94178 0.243559 0
M  V30 2857 C 281.968 1.56927 -3.21105 0
M  V30 2858 C 281.634 0.725376 -4.45027 0
M  V30 2859 C 280.296 0.492726 -4.78671 0
M  V30 2860 C 282.648 0.138493 -5.21016 0
M  V30 2861 C 279.976 -0.336727 -5.85733 0
M  V30 2862 C 282.328 -0.678264 -6.28953 0
M  V30 2863 C 280.992 -0.921039 -6.61115 0
M  V30 2864 H 280.262 0.293721 -0.680301 0
M  V30 2865 H 282.909 0.0642841 -1.91392 0
M  V30 2866 H 281.214 2.37914 -3.11294 0
M  V30 2867 H 282.911 2.11841 -3.40477 0
M  V30 2868 H 279.501 0.916815 -4.18679 0
M  V30 2869 H 283.685 0.305404 -4.95359 0
M  V30 2870 H 278.941 -0.533836 -6.09065 0
M  V30 2871 H 283.115 -1.1399 -6.87007 0
M  V30 2872 H 280.742 -1.56556 -7.43905 0
M  V30 2873 N 282.317 1.53212 0.369288 0
M  V30 2874 C 283.547 1.72868 1.13139 0
M  V30 2875 C 283.955 0.455754 1.83629 0
M  V30 2876 O 283.298 -0.580861 1.74275 0
M  V30 2877 C 283.36 2.83667 2.20847 0
M  V30 2878 C 283.024 4.24142 1.70155 0
M  V30 2879 C 284.021 5.06619 1.16763 0
M  V30 2880 C 281.706 4.70539 1.7578 0
M  V30 2881 C 283.7 6.33581 0.696678 0
M  V30 2882 C 281.387 5.97481 1.28297 0
M  V30 2883 C 282.385 6.78833 0.753307 0
M  V30 2884 O 282.073 8.03393 0.285475 0
M  V30 2885 H 281.805 0.581707 0.344373 0
M  V30 2886 H 284.359 2.00736 0.435243 0
M  V30 2887 H 282.589 2.51265 2.93944 0
M  V30 2888 H 284.278 2.91536 2.82421 0
M  V30 2889 H 285.044 4.71948 1.11758 0
M  V30 2890 H 280.923 4.07293 2.15949 0
M  V30 2891 H 284.467 6.97027 0.282581 0
M  V30 2892 H 280.364 6.31651 1.32994 0
M  V30 2893 H 281.132 8.17497 0.405145 0
M  V30 2894 N 283.795 -0.628877 1.44509 0
M  V30 2895 C 285.041 -1.39045 1.47629 0
M  V30 2896 C 285.374 -1.93892 0.109343 0
M  V30 2897 O 284.649 -1.7379 -0.87334 0
M  V30 2898 C 284.932 -2.55408 2.53848 0
M  V30 2899 C 284.785 -2.05896 3.99909 0
M  V30 2900 C 286.104 -3.5759 2.56549 0
M  V30 2901 H 283.223 -0.504232 0.537512 0
M  V30 2902 H 285.865 -0.710854 1.76201 0
M  V30 2903 H 284.015 -3.13384 2.29615 0
M  V30 2904 H 285.687 -1.52734 4.35282 0
M  V30 2905 H 283.93 -1.37061 4.11578 0
M  V30 2906 H 284.601 -2.89681 4.69882 0
M  V30 2907 H 287.077 -3.09419 2.78207 0
M  V30 2908 H 285.953 -4.36527 3.32769 0
M  V30 2909 H 286.214 -4.11808 1.60832 0
M  V30 2910 N 285.273 -1.31445 -0.869486 0
M  V30 2911 C 286.522 -1.20517 -1.61736 0
M  V30 2912 C 286.835 0.235341 -1.94179 0
M  V30 2913 O 288.041 0.466312 -2.67465 0
M  V30 2914 C 286.497 -2.10982 -2.91573 0
M  V30 2915 C 286.105 -3.60032 -2.66611 0
M  V30 2916 C 287.849 -2.08856 -3.69567 0
M  V30 2917 C 285.756 -4.42503 -3.92358 0
M  V30 2918 H 284.686 -0.447493 -0.606849 0
M  V30 2919 H 287.337 -1.56303 -0.96133 0
M  V30 2920 H 285.719 -1.68095 -3.58553 0
M  V30 2921 H 286.893 -4.11167 -2.08035 0
M  V30 2922 H 285.208 -3.64139 -2.0197 0
M  V30 2923 H 287.805 -2.67716 -4.62852 0
M  V30 2924 H 288.148 -1.07582 -4.02159 0
M  V30 2925 H 288.681 -2.49945 -3.09471 0
M  V30 2926 H 285.42 -5.44533 -3.64916 0
M  V30 2927 H 284.94 -3.96125 -4.50383 0
M  V30 2928 H 286.619 -4.54741 -4.60238 0
M  V30 2929 N 286.751 1.08385 -1.14413 0
M  V30 2930 C 288.028 1.77429 -0.823297 0
M  V30 2931 C 288.408 1.9974 0.683163 0
M  V30 2932 O 287.756 1.60739 1.62405 0
M  V30 2933 C 287.966 3.09004 -1.62227 0
M  V30 2934 C 289.314 3.83532 -1.82177 0
M  V30 2935 O 290.338 3.18786 -1.58915 0
M  V30 2936 O 289.197 4.99792 -2.21067 0
M  V30 2937 H 286.291 0.769999 -0.301712 0
M  V30 2938 H 288.837 1.14846 -1.24934 0
M  V30 2939 H 287.609 2.88316 -2.64555 0
M  V30 2940 H 287.232 3.79316 -1.19187 0
M  V30 2941 N 288.23 0.939286 1.26551 0
M  V30 2942 C 289.646 0.641304 1.46149 0
M  V30 2943 C 289.846 -0.805964 1.84679 0
M  V30 2944 O 288.902 -1.58278 1.96734 0
M  V30 2945 C 290.215 1.6011 2.54529 0
M  V30 2946 C 291.763 1.6106 2.68382 0
M  V30 2947 C 292.238 2.55765 3.79932 0
M  V30 2948 N 293.729 2.5404 3.87322 0
M  V30 2949 C 294.464 3.24004 4.73085 0
M  V30 2950 N 293.96 4.03388 5.63249 0
M  V30 2951 N 295.753 3.12965 4.66914 0
M  V30 2952 H 287.904 1.87478 0.998285 0
M  V30 2953 H 290.167 0.805559 0.499779 0
M  V30 2954 H 289.873 2.63412 2.33039 0
M  V30 2955 H 289.747 1.35171 3.52149 0
M  V30 2956 H 292.134 0.584835 2.89247 0
M  V30 2957 H 292.215 1.90053 1.71212 0
M  V30 2958 H 291.859 3.58458 3.5982 0
M  V30 2959 H 291.789 2.24063 4.76554 0
M  V30 2960 H 294.28 1.96396 3.22858 0
M  V30 2961 H 294.593 4.5373 6.25579 0
M  V30 2962 H 292.938 4.07489 5.63008 0
M  V30 2963 H 296.129 2.50432 3.95476 0
M  V30 2964 H 296.302 3.67759 5.33533 0
M  V30 2965 N 289.708 -1.40897 0.706093 0
M  V30 2966 C 290.956 -2.00657 0.241054 0
M  V30 2967 C 291.277 -1.56241 -1.16678 0
M  V30 2968 O 290.547 -0.79765 -1.78926 0
M  V30 2969 H 289.127 -0.742018 0.0861308 0
M  V30 2970 H 291.789 -1.72372 0.909604 0
M  V30 2971 H 290.885 -3.10958 0.266705 0
M  V30 2972 N 291.186 -0.45159 -1.50991 0
M  V30 2973 C 292.414 0.108334 -2.06616 0
M  V30 2974 C 292.829 1.35224 -1.31757 0
M  V30 2975 O 292.186 1.78475 -0.381174 0
M  V30 2976 C 292.237 0.41619 -3.59096 0
M  V30 2977 O 291.958 -0.778361 -4.3113 0
M  V30 2978 C 293.459 1.02523 -4.31282 0
M  V30 2979 H 290.679 0.00159995 -0.670998 0
M  V30 2980 H 293.223 -0.634771 -1.94399 0
M  V30 2981 H 291.378 1.10921 -3.71181 0
M  V30 2982 H 291.792 -0.511181 -5.22003 0
M  V30 2983 H 293.266 1.19053 -5.39009 0
M  V30 2984 H 293.743 2.01013 -3.905 0
M  V30 2985 H 294.349 0.371173 -4.23677 0
M  V30 2986 N 292.664 1.56529 -0.183458 0
M  V30 2987 C 293.911 1.97244 0.458357 0
M  V30 2988 C 294.239 1.06992 1.62428 0
M  V30 2989 O 293.494 0.106542 1.9541 0
M  V30 2990 C 293.793 3.43939 0.971637 0
M  V30 2991 C 293.459 4.5083 -0.0796784 0
M  V30 2992 C 292.121 4.79786 -0.368584 0
M  V30 2993 C 294.473 5.15138 -0.792638 0
M  V30 2994 C 291.801 5.70345 -1.37563 0
M  V30 2995 C 294.153 6.06784 -1.78875 0
M  V30 2996 C 292.817 6.34102 -2.08497 0
M  V30 2997 H 292.087 0.721768 0.167725 0
M  V30 2998 H 294.734 1.89472 -0.277976 0
M  V30 2999 H 293.039 3.48724 1.78602 0
M  V30 3000 H 294.736 3.72791 1.47744 0
M  V30 3001 H 291.326 4.28317 0.155668 0
M  V30 3002 H 295.51 4.92868 -0.582659 0
M  V30 3003 H 290.766 5.89789 -1.61118 0
M  V30 3004 H 294.94 6.55677 -2.3465 0
M  V30 3005 H 292.567 7.04074 -2.86678 0
M  V30 3006 N 294.142 -0.090211 1.57342 0
M  V30 3007 C 295.419 -0.824761 1.77361 0
M  V30 3008 C 295.799 -1.96698 0.76637 0
M  V30 3009 O 295.147 -2.27586 -0.204179 0
M  V30 3010 C 295.357 -1.31481 3.23286 0
M  V30 3011 C 296.705 -1.75563 3.86604 0
M  V30 3012 O 297.729 -1.41093 3.27065 0
M  V30 3013 O 296.588 -2.39317 4.91314 0
M  V30 3014 H 293.682 -0.393776 0.727234 0
M  V30 3015 H 296.228 -0.0717138 1.69548 0
M  V30 3016 H 295 -0.496671 3.88135 0
M  V30 3017 H 294.623 -2.12973 3.35751 0
M  V30 3018 N 295.62 -1.53406 -0.361157 0
M  V30 3019 C 296.869 -1.69022 -1.10066 0
M  V30 3020 C 297.182 -0.450838 -1.90333 0
M  V30 3021 O 298.388 -0.487617 -2.67085 0
M  V30 3022 C 296.844 -2.98812 -2.00598 0
M  V30 3023 C 296.452 -4.30027 -1.25621 0
M  V30 3024 C 298.196 -3.23795 -2.74513 0
M  V30 3025 C 296.103 -5.50903 -2.1508 0
M  V30 3026 H 295.033 -0.629776 -0.414606 0
M  V30 3027 H 297.684 -1.79907 -0.361348 0
M  V30 3028 H 296.066 -2.8174 -2.78278 0
M  V30 3029 H 297.24 -4.57745 -0.529739 0
M  V30 3030 H 295.555 -4.11522 -0.635496 0
M  V30 3031 H 298.152 -4.11289 -3.41681 0
M  V30 3032 H 298.495 -2.40045 -3.40123 0
M  V30 3033 H 299.028 -3.41561 -2.03914 0
M  V30 3034 H 295.767 -6.37143 -1.54041 0
M  V30 3035 H 295.287 -5.27459 -2.85565 0
M  V30 3036 H 296.966 -5.85865 -2.74538 0
M  V30 3037 N 297.098 0.621204 -1.44841 0
M  V30 3038 C 298.328 1.40548 -1.51426 0
M  V30 3039 C 298.736 1.88673 -0.141083 0
M  V30 3040 O 298.079 1.62053 0.865128 0
M  V30 3041 C 298.141 2.65325 -2.42576 0
M  V30 3042 C 297.805 2.3893 -3.89566 0
M  V30 3043 C 298.802 2.00138 -4.79834 0
M  V30 3044 C 296.487 2.52263 -4.3436 0
M  V30 3045 C 298.481 1.75021 -6.129 0
M  V30 3046 C 296.168 2.2676 -5.67471 0
M  V30 3047 C 297.166 1.88199 -6.56559 0
M  V30 3048 O 296.854 1.62986 -7.87204 0
M  V30 3049 H 296.586 0.437122 -0.515655 0
M  V30 3050 H 299.14 0.765987 -1.90583 0
M  V30 3051 H 297.37 3.31947 -1.98364 0
M  V30 3052 H 299.059 3.27347 -2.39998 0
M  V30 3053 H 299.825 1.89386 -4.46495 0
M  V30 3054 H 295.704 2.81246 -3.65269 0
M  V30 3055 H 299.248 1.44848 -6.82396 0
M  V30 3056 H 295.145 2.37125 -6.00368 0
M  V30 3057 H 295.913 1.7715 -7.991 0
M  V30 3058 N 298.576 1.31904 0.862503 0
M  V30 3059 C 299.822 1.22197 1.61851 0
M  V30 3060 C 300.155 -0.217641 1.92977 0
M  V30 3061 O 299.43 -1.15264 1.56666 0
M  V30 3062 C 299.713 2.07378 2.94391 0
M  V30 3063 C 299.566 3.59678 2.70096 0
M  V30 3064 C 300.885 1.92891 3.95577 0
M  V30 3065 H 298.004 0.445255 0.587296 0
M  V30 3066 H 300.646 1.6177 0.99651 0
M  V30 3067 H 298.796 1.73758 3.47477 0
M  V30 3068 H 300.468 4.03472 2.23625 0
M  V30 3069 H 298.711 3.82735 2.04197 0
M  V30 3070 H 299.382 4.14595 3.64438 0
M  V30 3071 H 301.858 2.22327 3.51724 0
M  V30 3072 H 300.734 2.54781 4.86187 0
M  V30 3073 H 300.995 0.894315 4.3296 0
M  V30 3074 N 300.054 -1.07777 1.14986 0
M  V30 3075 C 301.001 -2.14867 0.842672 0
M  V30 3076 C 301.971 -1.6486 -0.202552 0
M  V30 3077 O 303.156 -1.90668 -0.0710568 0
M  V30 3078 C 300.296 -3.43486 0.333363 0
M  V30 3079 C 299.409 -4.07306 1.43965 0
M  V30 3080 C 298.544 -5.23744 0.886914 0
M  V30 3081 C 297.583 -5.79517 1.97043 0
M  V30 3082 N 296.72 -6.87291 1.4344 0
M  V30 3083 H 301.56 -2.40485 1.75986 0
M  V30 3084 H 299.097 -1.1801 0.878179 0
M  V30 3085 H 301.055 -4.17195 0.0198163 0
M  V30 3086 H 299.685 -3.18133 -0.546916 0
M  V30 3087 H 298.737 -3.31293 1.86946 0
M  V30 3088 H 300.049 -4.44771 2.25788 0
M  V30 3089 H 299.203 -6.04419 0.525651 0
M  V30 3090 H 297.942 -4.87685 0.0377957 0
M  V30 3091 H 296.947 -4.97491 2.34057 0
M  V30 3092 H 298.172 -6.17632 2.82325 0
M  V30 3093 H 296.118 -6.5318 0.607567 0
M  V30 3094 H 296.035 -7.23617 2.18895 0
M  V30 3095 H 297.303 -7.71682 1.10124 0
M  V30 3096 N 301.532 -0.945985 -1.26051 0
M  V30 3097 C 302.772 -0.603665 -1.95282 0
M  V30 3098 C 303.136 0.842377 -1.72534 0
M  V30 3099 O 304.337 1.29387 -2.35611 0
M  V30 3100 C 302.608 -0.942292 -3.44754 0
M  V30 3101 S 304.167 -0.711242 -4.32997 0
M  V30 3102 H 300.985 -0.222176 -0.675395 0
M  V30 3103 H 303.587 -1.21832 -1.52896 0
M  V30 3104 H 302.291 -1.99203 -3.58812 0
M  V30 3105 H 301.822 -0.317546 -3.92116 0
M  V30 3106 H 303.837 0.422221 -4.944 0
M  V30 3107 N 303.011 1.40521 -0.713556 0
M  V30 3108 C 304.288 1.94775 -0.17943 0
M  V30 3109 C 304.668 1.65184 1.31444 0
M  V30 3110 O 304.016 0.968429 2.06963 0
M  V30 3111 C 304.226 3.45543 -0.489986 0
M  V30 3112 C 305.574 4.22442 -0.427536 0
M  V30 3113 O 306.598 3.53644 -0.425929 0
M  V30 3114 O 305.457 5.4501 -0.403292 0
M  V30 3115 H 302.551 0.826606 -0.0255192 0
M  V30 3116 H 305.097 1.5014 -0.790949 0
M  V30 3117 H 303.869 3.60432 -1.5233 0
M  V30 3118 H 303.492 3.97311 0.151598 0
M  V30 3119 N 304.489 0.459591 1.5075 0
M  V30 3120 C 305.737 -0.0991532 2.01857 0
M  V30 3121 C 306.058 -1.41247 1.34441 0
M  V30 3122 O 305.328 -1.89775 0.486022 0
M  V30 3123 H 303.908 -0.039633 0.745948 0
M  V30 3124 H 306.57 0.607387 1.85194 0
M  V30 3125 H 305.666 -0.258998 3.11023 0
M  V30 3126 N 305.967 -1.56429 0.191757 0
M  V30 3127 C 307.213 -1.97777 -0.448554 0
M  V30 3128 C 307.546 -1.07847 -1.61501 0
M  V30 3129 O 306.821 -0.129774 -1.94067 0
M  V30 3130 C 307.104 -3.48362 -0.911906 0
M  V30 3131 C 306.957 -4.4907 0.256136 0
M  V30 3132 C 308.276 -4.02561 -1.77857 0
M  V30 3133 H 305.395 -0.719071 -0.161572 0
M  V30 3134 H 308.037 -1.87896 0.282007 0
M  V30 3135 H 306.187 -3.56914 -1.53442 0
M  V30 3136 H 307.859 -4.5256 0.893733 0
M  V30 3137 H 306.102 -4.24181 0.908436 0
M  V30 3138 H 306.773 -5.51889 -0.11053 0
M  V30 3139 H 309.249 -3.96767 -1.25359 0
M  V30 3140 H 308.125 -5.08301 -2.07174 0
M  V30 3141 H 308.386 -3.47616 -2.73158 0
M  V30 3142 N 307.445 0.0818655 -1.57387 0
M  V30 3143 C 308.693 0.781368 -1.86384 0
M  V30 3144 C 309.014 1.78618 -0.782342 0
M  V30 3145 O 308.284 1.94976 0.190061 0
M  V30 3146 H 306.864 0.291562 -0.687751 0
M  V30 3147 H 309.526 0.060348 -1.94807 0
M  V30 3148 H 308.622 1.3038 -2.83562 0
M  V30 3149 N 308.923 1.53595 0.353017 0
M  V30 3150 C 310.339 1.43648 0.695516 0
M  V30 3151 C 310.539 0.585617 1.92802 0
M  V30 3152 O 309.595 0.0729223 2.52395 0
M  V30 3153 C 310.908 2.8701 0.896991 0
M  V30 3154 C 312.456 2.96723 0.996209 0
M  V30 3155 C 312.931 4.41173 1.23007 0
M  V30 3156 N 314.422 4.44657 1.29749 0
M  V30 3157 C 315.157 5.53547 1.49577 0
M  V30 3158 N 314.653 6.72461 1.66639 0
M  V30 3159 N 316.446 5.41145 1.52048 0
M  V30 3160 H 308.597 2.07415 -0.457481 0
M  V30 3161 H 310.86 0.9372 -0.142687 0
M  V30 3162 H 310.566 3.51644 0.0629938 0
M  V30 3163 H 310.44 3.31401 1.80148 0
M  V30 3164 H 312.827 2.32235 1.82074 0
M  V30 3165 H 312.908 2.55707 0.0688331 0
M  V30 3166 H 312.552 5.06238 0.410505 0
M  V30 3167 H 312.482 4.79772 2.17086 0
M  V30 3168 H 314.973 3.58963 1.18126 0
M  V30 3169 H 315.286 7.51214 1.81378 0
M  V30 3170 H 313.631 6.75423 1.63794 0
M  V30 3171 H 316.822 4.47205 1.38294 0
M  V30 3172 H 316.995 6.26068 1.67159 0
M  V30 3173 N 310.401 -0.613514 1.45168 0
M  V30 3174 C 311.641 -1.38405 1.5041 0
M  V30 3175 C 312.005 -1.91489 0.139922 0
M  V30 3176 O 313.206 -2.68716 0.067033 0
M  V30 3177 C 311.477 -2.50552 2.5487 0
M  V30 3178 S 313.036 -3.38439 2.79292 0
M  V30 3179 H 309.854 -0.471945 0.531779 0
M  V30 3180 H 312.456 -0.708518 1.82209 0
M  V30 3181 H 311.16 -2.09894 3.52665 0
M  V30 3182 H 310.691 -3.22913 2.24701 0
M  V30 3183 H 312.706 -4.48527 2.12222 0
M  V30 3184 N 311.879 -1.3236 -0.855495 0
M  V30 3185 C 313.125 -1.23054 -1.612 0
M  V30 3186 C 313.458 0.207404 -1.93089 0
M  V30 3187 O 312.733 1.14432 -1.57275 0
M  V30 3188 C 313.016 -2.08937 -2.93287 0
M  V30 3189 C 312.869 -3.61105 -2.68185 0
M  V30 3190 C 314.188 -1.94986 -3.94549 0
M  V30 3191 H 311.307 -0.448364 -0.584926 0
M  V30 3192 H 313.949 -1.62297 -0.987917 0
M  V30 3193 H 312.099 -1.75599 -3.46551 0
M  V30 3194 H 313.771 -4.04652 -2.21483 0
M  V30 3195 H 312.014 -3.83813 -2.02164 0
M  V30 3196 H 312.685 -4.16522 -3.62234 0
M  V30 3197 H 315.161 -2.24189 -3.5054 0
M  V30 3198 H 314.037 -2.57356 -4.84829 0
M  V30 3199 H 314.298 -0.917263 -4.3248 0
M  V30 3200 N 313.357 1.07166 -1.15556 0
M  V30 3201 C 314.605 1.79443 -0.929764 0
M  V30 3202 C 314.926 1.87246 0.544414 0
M  V30 3203 O 314.196 1.37473 1.39564 0
M  V30 3204 H 312.776 0.664625 -0.341003 0
M  V30 3205 H 315.438 1.29499 -1.45657 0
M  V30 3206 H 314.534 2.81832 -1.34079 0
M  V30 3207 N 314.835 0.952656 1.25548 0
M  V30 3208 C 315.783 0.462354 2.27958 0
M  V30 3209 C 316.777 -0.46634 1.62855 0
M  V30 3210 O 317.983 -0.343287 1.76696 0
M  V30 3211 H 314.358 0.13101 0.7405 0
M  V30 3212 H 316.329 1.33839 2.66702 0
M  V30 3213 C 315.078 -0.24628 3.46827 0
M  V30 3214 H 314.401 0.459192 3.97154 0
M  V30 3215 H 315.841 -0.553393 4.20373 0
M  V30 3216 C 314.3 -1.4681 3.0323 0
M  V30 3217 O 314.83 -2.56591 3.09069 0
M  V30 3218 N 313.036 -1.32874 2.58443 0
M  V30 3219 H 312.583 -0.435536 2.53891 0
M  V30 3220 H 312.541 -2.14742 2.29637 0
M  V30 3221 N 316.313 -1.40141 0.720998 0
M  V30 3222 C 317.543 -2.04798 0.27226 0
M  V30 3223 C 317.951 -1.54442 -1.09289 0
M  V30 3224 O 317.294 -0.698342 -1.69908 0
M  V30 3225 C 317.356 -3.59048 0.18027 0
M  V30 3226 C 317.02 -4.32317 1.48159 0
M  V30 3227 C 318.017 -4.59902 2.42458 0
M  V30 3228 C 315.702 -4.71125 1.74202 0
M  V30 3229 C 317.696 -5.25288 3.61042 0
M  V30 3230 C 315.383 -5.36242 2.93066 0
M  V30 3231 C 316.381 -5.63254 3.86308 0
M  V30 3232 O 316.069 -6.27024 5.03086 0
M  V30 3233 H 315.801 -0.665419 0.119139 0
M  V30 3234 H 318.355 -1.80436 0.981432 0
M  V30 3235 H 316.585 -3.82251 -0.58489 0
M  V30 3236 H 318.274 -4.05221 -0.234618 0
M  V30 3237 H 319.04 -4.30379 2.23604 0
M  V30 3238 H 314.919 -4.49466 1.02477 0
M  V30 3239 H 318.463 -5.46289 4.33837 0
M  V30 3240 H 314.36 -5.65185 3.11826 0
M  V30 3241 H 315.128 -6.4552 5.03235 0
M  V30 3242 N 317.792 -0.46758 -1.50504 0
M  V30 3243 C 319.069 0.15003 -1.95024 0
M  V30 3244 C 319.449 1.57304 -1.40779 0
M  V30 3245 O 318.797 2.20281 -0.607319 0
M  V30 3246 C 319.007 0.0969324 -3.48865 0
M  V30 3247 C 320.355 0.287565 -4.23625 0
M  V30 3248 O 321.379 0.173678 -3.55776 0
M  V30 3249 O 320.238 0.517186 -5.44047 0
M  V30 3250 H 317.332 0.113582 -0.819163 0
M  V30 3251 H 319.878 -0.52773 -1.61286 0
M  V30 3252 H 318.65 -0.896732 -3.80886 0
M  V30 3253 H 318.273 0.816303 -3.8913 0
M  V30 3254 N 319.27 1.56325 -0.20005 0
M  V30 3255 C 320.218 2.20666 0.735482 0
M  V30 3256 C 321.212 1.17934 1.21605 0
M  V30 3257 O 322.418 1.36068 1.17837 0
M  V30 3258 H 318.793 0.70725 0.255542 0
M  V30 3259 H 320.764 2.9792 0.169166 0
M  V30 3260 C 319.513 2.88391 1.94232 0
M  V30 3261 H 318.836 3.67185 1.58161 0
M  V30 3262 H 320.276 3.3684 2.57517 0
M  V30 3263 C 318.735 1.89692 2.78421 0
M  V30 3264 O 319.265 1.40032 3.76502 0
M  V30 3265 N 317.471 1.57813 2.44015 0
M  V30 3266 H 317.018 1.9839 1.64314 0
M  V30 3267 H 316.976 0.920325 3.00628 0
M  V30 3268 N 320.748 -0.0735177 1.57428 0
M  V30 3269 C 322.164 -0.428264 1.53747 0
M  V30 3270 C 322.364 -1.79272 0.91998 0
M  V30 3271 O 321.42 -2.47051 0.521745 0
M  V30 3272 C 322.733 -0.370914 2.98404 0
M  V30 3273 C 324.281 -0.451224 3.0973 0
M  V30 3274 C 324.756 -0.4238 4.56035 0
M  V30 3275 N 326.247 -0.483925 4.60665 0
M  V30 3276 C 326.982 -0.484891 5.71346 0
M  V30 3277 N 326.478 -0.440775 6.91396 0
M  V30 3278 N 328.271 -0.531319 5.59583 0
M  V30 3279 H 320.422 0.819949 1.95935 0
M  V30 3280 H 322.685 0.307493 0.896745 0
M  V30 3281 H 322.391 0.564956 3.47133 0
M  V30 3282 H 322.265 -1.18176 3.5821 0
M  V30 3283 H 324.652 -1.37752 2.60976 0
M  V30 3284 H 324.733 0.388167 2.52838 0
M  V30 3285 H 324.377 0.498638 5.05446 0
M  V30 3286 H 324.307 -1.2807 5.10789 0
M  V30 3287 H 326.798 -0.522338 3.74273 0
M  V30 3288 H 327.111 -0.44539 7.71515 0
M  V30 3289 H 325.456 -0.40749 6.93804 0
M  V30 3290 H 328.647 -0.563464 4.64696 0
M  V30 3291 H 328.82 -0.528603 6.4584 0
M  V30 3292 N 322.226 -1.5378 -0.344866 0
M  V30 3293 C 323.474 -1.70625 -1.08311 0
M  V30 3294 C 323.795 -0.471447 -1.89215 0
M  V30 3295 O 323.065 0.514616 -1.8902 0
M  V30 3296 H 321.645 -0.629058 -0.402859 0
M  V30 3297 H 324.307 -1.9103 -0.386459 0
M  V30 3298 H 323.403 -2.57656 -1.76124 0
M  V30 3299 N 323.704 0.605807 -1.45491 0
M  V30 3300 C 324.929 1.39625 -1.53361 0
M  V30 3301 C 325.354 1.87351 -0.167645 0
M  V30 3302 O 324.712 1.60243 0.848051 0
M  V30 3303 C 324.76 2.57559 -2.5238 0
M  V30 3304 O 323.864 3.58248 -2.04285 0
M  V30 3305 H 323.205 0.416771 -0.516912 0
M  V30 3306 H 325.735 0.737103 -1.90861 0
M  V30 3307 H 325.745 3.0478 -2.71244 0
M  V30 3308 H 324.42 2.22171 -3.51586 0
M  V30 3309 H 322.997 3.17664 -1.95305 0
M  V30 3310 N 325.182 1.32811 0.848464 0
M  V30 3311 C 326.429 1.23724 1.60308 0
M  V30 3312 C 326.757 -0.1994 1.93475 0
M  V30 3313 O 326.012 -1.15406 1.5805 0
M  V30 3314 C 326.311 2.04831 2.92881 0
M  V30 3315 C 325.977 3.54125 2.79117 0
M  V30 3316 C 324.639 3.94829 2.7507 0
M  V30 3317 C 326.991 4.49036 2.64606 0
M  V30 3318 C 324.319 5.28675 2.544 0
M  V30 3319 C 326.671 5.83033 2.4547 0
M  V30 3320 C 325.335 6.22931 2.39819 0
M  V30 3321 H 324.605 0.452737 0.586609 0
M  V30 3322 H 327.252 1.64301 0.983743 0
M  V30 3323 H 325.557 1.57001 3.58968 0
M  V30 3324 H 327.254 1.95164 3.50303 0
M  V30 3325 H 323.844 3.21801 2.83094 0
M  V30 3326 H 328.028 4.18505 2.66772 0
M  V30 3327 H 323.284 5.58637 2.48465 0
M  V30 3328 H 327.458 6.56186 2.33222 0
M  V30 3329 H 325.085 7.26584 2.23562 0
M  V30 3330 N 326.66 -1.06551 1.16123 0
M  V30 3331 C 327.908 -1.78947 0.939267 0
M  V30 3332 C 328.229 -1.87532 -0.534476 0
M  V30 3333 O 327.499 -1.38211 -1.38833 0
M  V30 3334 H 326.079 -0.662807 0.344523 0
M  V30 3335 H 328.741 -1.28725 1.46342 0
M  V30 3336 H 327.837 -2.81117 1.35572 0
M  V30 3337 N 328.138 -0.959301 -1.25041 0
M  V30 3338 C 329.048 -0.489994 -2.29426 0
M  V30 3339 C 330.064 0.444944 -1.68215 0
M  V30 3340 O 331.24 0.320046 -1.98841 0
M  V30 3341 C 328.305 0.220309 -3.45999 0
M  V30 3342 C 327.366 -0.753418 -4.22637 0
M  V30 3343 C 326.599 -0.076918 -5.33645 0
M  V30 3344 O 326.822 1.13649 -5.58963 0
M  V30 3345 O 325.756 -0.764824 -5.97021 0
M  V30 3346 H 329.582 -1.35755 -2.71669 0
M  V30 3347 H 327.167 -0.725961 -1.30576 0
M  V30 3348 H 329.049 0.619677 -4.16819 0
M  V30 3349 H 327.724 1.06296 -3.0575 0
M  V30 3350 H 326.631 -1.20308 -3.54227 0
M  V30 3351 H 327.964 -1.56423 -4.66683 0
M  V30 3352 N 329.616 1.39756 -0.72842 0
M  V30 3353 C 330.546 2.33289 -0.0991354 0
M  V30 3354 C 331.527 1.53568 0.731489 0
M  V30 3355 O 332.712 1.81987 0.677807 0
M  V30 3356 C 329.842 3.3763 0.813834 0
M  V30 3357 C 328.796 4.2791 0.0878663 0
M  V30 3358 C 328.122 5.22894 1.11741 0
M  V30 3359 C 329.422 5.11314 -1.06563 0
M  V30 3360 H 331.116 2.86163 -0.880408 0
M  V30 3361 H 328.662 1.37591 -0.424819 0
M  V30 3362 H 330.615 4.0201 1.26355 0
M  V30 3363 H 329.339 2.83181 1.62715 0
M  V30 3364 H 327.998 3.65 -0.342159 0
M  V30 3365 H 327.646 4.64744 1.92412 0
M  V30 3366 H 327.346 5.84143 0.636477 0
M  V30 3367 H 328.87 5.90151 1.56697 0
M  V30 3368 H 330.284 5.69076 -0.694671 0
M  V30 3369 H 328.681 5.81671 -1.47577 0
M  V30 3370 H 329.751 4.46534 -1.89038 0
M  V30 3371 N 331.094 0.475555 1.50254 0
M  V30 3372 C 332.057 -0.305016 2.27161 0
M  V30 3373 C 333.057 -0.916519 1.32123 0
M  V30 3374 O 334.247 -0.785003 1.5551 0
M  V30 3375 C 331.379 -1.43496 3.09227 0
M  V30 3376 H 332.572 0.369511 2.97615 0
M  V30 3377 H 330.125 0.229747 1.54602 0
M  V30 3378 H 330.86 -2.14441 2.43281 0
M  V30 3379 H 330.645 -1.00223 3.79075 0
M  V30 3380 H 332.135 -1.98548 3.67381 0
M  V30 3381 N 332.573 -1.56217 0.208337 0
M  V30 3382 C 333.503 -2.22694 -0.702116 0
M  V30 3383 C 334.484 -1.19432 -1.2112 0
M  V30 3384 O 335.669 -1.47978 -1.25762 0
M  V30 3385 C 332.799 -2.8966 -1.9161 0
M  V30 3386 C 331.753 -3.9928 -1.5414 0
M  V30 3387 C 331.079 -4.53476 -2.83308 0
M  V30 3388 C 332.379 -5.17012 -0.741339 0
M  V30 3389 H 334.073 -2.99034 -0.147898 0
M  V30 3390 H 331.619 -1.43831 -0.0696951 0
M  V30 3391 H 333.572 -3.34852 -2.55836 0
M  V30 3392 H 332.296 -2.10746 -2.49507 0
M  V30 3393 H 330.955 -3.54799 -0.922668 0
M  V30 3394 H 330.603 -3.71308 -3.39322 0
M  V30 3395 H 330.303 -5.27451 -2.58976 0
M  V30 3396 H 331.827 -5.01378 -3.485 0
M  V30 3397 H 333.241 -5.58667 -1.28699 0
M  V30 3398 H 331.638 -5.97137 -0.595627 0
M  V30 3399 H 332.708 -4.8423 0.254851 0
M  V30 3400 N 334.051 0.0651679 -1.57465 0
M  V30 3401 C 334.984 1.10876 -1.99453 0
M  V30 3402 C 335.962 1.37205 -0.872555 0
M  V30 3403 O 337.146 1.50468 -1.13542 0
M  V30 3404 C 334.273 2.45167 -2.3369 0
M  V30 3405 C 333.319 2.3493 -3.55964 0
M  V30 3406 S 334.152 1.73708 -5.06543 0
M  V30 3407 C 335.308 3.09563 -5.43987 0
M  V30 3408 H 335.541 0.750967 -2.87659 0
M  V30 3409 H 333.074 0.273933 -1.51951 0
M  V30 3410 H 335.032 3.22412 -2.54088 0
M  V30 3411 H 333.693 2.78105 -1.46001 0
M  V30 3412 H 332.886 3.3398 -3.77457 0
M  V30 3413 H 332.488 1.65823 -3.3523 0
M  V30 3414 H 334.78 4.05882 -5.42463 0
M  V30 3415 H 335.723 2.92843 -6.44708 0
M  V30 3416 H 336.131 3.10474 -4.71451 0
M  V30 3417 N 335.529 1.53961 0.336706 0
M  V30 3418 C 336.759 1.75229 1.09446 0
M  V30 3419 C 337.167 0.494602 1.82621 0
M  V30 3420 O 336.51 -0.543764 1.75468 0
M  V30 3421 C 336.572 2.88288 2.1478 0
M  V30 3422 C 336.236 4.27656 1.6112 0
M  V30 3423 C 337.233 5.08981 1.0599 0
M  V30 3424 C 334.918 4.74161 1.6576 0
M  V30 3425 C 336.912 6.34916 0.562129 0
M  V30 3426 C 334.599 6.00067 1.15595 0
M  V30 3427 C 335.597 6.80278 0.609147 0
M  V30 3428 O 335.285 8.03818 0.114999 0
M  V30 3429 H 335.017 0.588881 0.331956 0
M  V30 3430 H 337.571 2.01614 0.392566 0
M  V30 3431 H 335.801 2.57443 2.88548 0
M  V30 3432 H 337.49 2.97461 2.76174 0
M  V30 3433 H 338.256 4.74213 1.01722 0
M  V30 3434 H 334.135 4.11781 2.07261 0
M  V30 3435 H 337.679 6.9747 0.134668 0
M  V30 3436 H 333.576 6.3433 1.19566 0
M  V30 3437 H 334.344 8.18172 0.231651 0
M  V30 3438 N 337.007 -0.598083 1.45811 0
M  V30 3439 C 337.955 -1.72932 1.55555 0
M  V30 3440 C 338.949 -1.63984 0.424921 0
M  V30 3441 O 340.155 -1.69663 0.601205 0
M  V30 3442 H 336.53 -0.571489 0.488779 0
M  V30 3443 H 338.501 -1.61842 2.50699 0
M  V30 3444 C 337.25 -3.11318 1.54843 0
M  V30 3445 H 336.573 -3.18867 2.41172 0
M  V30 3446 H 338.013 -3.90274 1.65717 0
M  V30 3447 C 336.472 -3.3578 0.274427 0
M  V30 3448 O 337.002 -3.9654 -0.641778 0
M  V30 3449 N 335.208 -2.90119 0.167139 0
M  V30 3450 H 334.755 -2.40855 0.913596 0
M  V30 3451 H 334.713 -3.0686 -0.684435 0
M  V30 3452 N 338.485 -1.33259 -0.841409 0
M  V30 3453 C 339.713 -1.27605 -1.62864 0
M  V30 3454 C 340.128 0.153507 -1.88175 0
M  V30 3455 O 339.485 1.09485 -1.46011 0
M  V30 3456 C 339.536 -2.04596 -2.98031 0
M  V30 3457 O 339.257 -3.41975 -2.73834 0
M  V30 3458 C 340.758 -2.06122 -3.92465 0
M  V30 3459 H 337.978 -0.439718 -0.506842 0
M  V30 3460 H 340.522 -1.75591 -1.04824 0
M  V30 3461 H 338.677 -1.60299 -3.5268 0
M  V30 3462 H 339.091 -3.81549 -3.59889 0
M  V30 3463 H 340.565 -2.64451 -4.84531 0
M  V30 3464 H 341.042 -1.05083 -4.26444 0
M  V30 3465 H 341.648 -2.50427 -3.43753 0
M  V30 3466 N 339.963 1.05934 -1.16686 0
M  V30 3467 C 341.374 1.60263 -0.957745 0
M  V30 3468 C 341.725 1.89789 0.49745 0
M  V30 3469 O 340.85 1.67401 1.37135 0
M  V30 3470 C 341.445 2.91172 -1.73218 0
M  V30 3471 C 340.004 3.42188 -1.56794 0
M  V30 3472 C 339.151 2.16028 -1.73859 0
M  V30 3473 H 342.102 0.888392 -1.31504 0
M  V30 3474 H 342.123 3.60744 -1.21014 0
M  V30 3475 H 341.635 2.6965 -2.79124 0
M  V30 3476 H 339.736 3.68762 -0.533437 0
M  V30 3477 H 339.849 4.17273 -2.35414 0
M  V30 3478 H 338.213 2.26426 -1.16633 0
M  V30 3479 H 338.996 1.96985 -2.81161 0
M  V30 3480 N 341.441 0.965919 1.2453 0
M  V30 3481 C 342.857 0.67216 1.44756 0
M  V30 3482 C 343.057 -0.766609 1.86347 0
M  V30 3483 O 342.113 -1.5407 2.00047 0
M  V30 3484 C 343.426 1.65473 2.51076 0
M  V30 3485 C 344.974 1.66716 2.64905 0
M  V30 3486 C 345.449 2.63766 3.74421 0
M  V30 3487 N 346.94 2.62198 3.81846 0
M  V30 3488 C 347.675 3.33966 4.66106 0
M  V30 3489 N 347.171 4.15245 5.54566 0
M  V30 3490 N 348.964 3.22799 4.60171 0
M  V30 3491 H 341.115 1.89553 0.958293 0
M  V30 3492 H 343.378 0.815979 0.482579 0
M  V30 3493 H 343.084 2.68296 2.27399 0
M  V30 3494 H 342.958 1.4261 3.49202 0
M  V30 3495 H 345.345 0.646057 2.87941 0
M  V30 3496 H 345.426 1.93642 1.67142 0
M  V30 3497 H 345.07 3.6601 3.52135 0
M  V30 3498 H 345 2.34121 4.71694 0
M  V30 3499 H 347.491 2.032 3.18619 0
M  V30 3500 H 347.804 4.66898 6.15814 0
M  V30 3501 H 346.149 4.1934 5.54237 0
M  V30 3502 H 349.34 2.58764 3.90075 0
M  V30 3503 H 349.513 3.78994 5.25612 0
M  V30 3504 N 342.919 -1.39368 0.735821 0
M  V30 3505 C 343.882 -2.2896 0.104874 0
M  V30 3506 C 344.882 -1.46347 -0.666274 0
M  V30 3507 O 346.072 -1.67014 -0.49517 0
M  V30 3508 C 343.204 -3.29857 -0.860656 0
M  V30 3509 H 344.397 -2.86259 0.894205 0
M  V30 3510 H 341.95 -1.48029 0.501704 0
M  V30 3511 H 342.685 -2.77615 -1.67631 0
M  V30 3512 H 342.47 -3.9087 -0.310327 0
M  V30 3513 H 343.96 -3.96893 -1.29867 0
M  V30 3514 N 344.397 -0.483516 -1.5 0
M  V30 3515 C 345.36 0.292965 -2.2732 0
M  V30 3516 C 346.36 0.909499 -1.32608 0
M  V30 3517 O 347.55 0.776745 -1.55924 0
M  V30 3518 C 344.682 1.41854 -3.09984 0
M  V30 3519 H 345.875 -0.385289 -2.97415 0
M  V30 3520 H 343.428 -0.237942 -1.54478 0
M  V30 3521 H 344.163 2.13148 -2.44414 0
M  V30 3522 H 343.948 0.982114 -3.79601 0
M  V30 3523 H 345.438 1.96597 -3.68429 0
M  V30 3524 N 345.875 1.56104 -0.216619 0
M  V30 3525 C 347.103 2.02563 0.421413 0
M  V30 3526 C 347.518 1.0965 1.53695 0
M  V30 3527 O 346.875 0.10521 1.82196 0
M  V30 3528 C 346.926 3.48584 0.957665 0
M  V30 3529 O 346.647 4.37953 -0.113389 0
M  V30 3530 C 348.148 4.10664 1.66943 0
M  V30 3531 H 345.368 0.662944 0.103665 0
M  V30 3532 H 347.912 2.01793 -0.331629 0
M  V30 3533 H 346.067 3.49985 1.661 0
M  V30 3534 H 346.481 5.23704 0.288932 0
M  V30 3535 H 347.955 5.14622 1.99671 0
M  V30 3536 H 348.432 3.55373 2.58083 0
M  V30 3537 H 349.038 4.13098 1.01142 0
M  V30 3538 N 347.353 -0.0568162 1.57498 0
M  V30 3539 C 348.602 -0.752001 1.87157 0
M  V30 3540 C 348.915 -1.77978 0.811375 0
M  V30 3541 O 350.121 -2.52559 0.996293 0
M  V30 3542 C 348.577 -1.38844 3.3204 0
M  V30 3543 C 348.185 -0.398456 4.46225 0
M  V30 3544 C 349.929 -2.06512 3.70882 0
M  V30 3545 C 347.836 -1.04166 5.82154 0
M  V30 3546 H 346.766 -0.28461 0.698222 0
M  V30 3547 H 349.417 -0.00561272 1.83499 0
M  V30 3548 H 347.799 -2.1836 3.30356 0
M  V30 3549 H 348.973 0.367977 4.59328 0
M  V30 3550 H 347.288 0.174592 4.16034 0
M  V30 3551 H 349.885 -2.55437 4.6974 0
M  V30 3552 H 350.228 -2.87117 3.01445 0
M  V30 3553 H 350.761 -1.33808 3.7462 0
M  V30 3554 H 347.5 -0.275614 6.5492 0
M  V30 3555 H 347.02 -1.7786 5.72823 0
M  V30 3556 H 348.699 -1.55715 6.27982 0
M  V30 3557 N 348.832 -1.54138 -0.328536 0
M  V30 3558 C 350.06 -1.76062 -1.08673 0
M  V30 3559 C 350.475 -0.506852 -1.81869 0
M  V30 3560 O 349.832 0.522223 -1.74869 0
M  V30 3561 C 349.883 -2.95054 -2.08866 0
M  V30 3562 O 349.604 -4.15583 -1.38644 0
M  V30 3563 C 351.105 -3.2915 -2.96943 0
M  V30 3564 H 348.325 -0.587889 -0.323461 0
M  V30 3565 H 350.869 -2.0101 -0.376175 0
M  V30 3566 H 349.024 -2.72394 -2.75464 0
M  V30 3567 H 349.438 -4.82481 -2.05699 0
M  V30 3568 H 350.912 -4.15723 -3.63151 0
M  V30 3569 H 351.389 -2.461 -3.63774 0
M  V30 3570 H 351.995 -3.53871 -2.35914 0
M  V30 3571 N 350.31 0.590341 -1.46126 0
M  V30 3572 C 351.273 1.68194 -1.55703 0
M  V30 3573 C 352.273 1.54808 -0.434868 0
M  V30 3574 O 353.463 1.59564 -0.698928 0
M  V30 3575 C 350.595 3.07575 -1.47005 0
M  V30 3576 H 351.788 1.61064 -2.52979 0
M  V30 3577 H 349.341 0.807541 -1.33823 0
M  V30 3578 H 350.076 3.20268 -0.509785 0
M  V30 3579 H 349.861 3.187 -2.28414 0
M  V30 3580 H 351.351 3.87055 -1.56776 0
M  V30 3581 N 351.788 1.33704 0.83433 0
M  V30 3582 C 353.016 1.28467 1.62185 0
M  V30 3583 C 353.431 -0.143526 1.88254 0
M  V30 3584 O 352.788 -1.08709 1.4659 0
M  V30 3585 C 352.839 2.06174 2.96942 0
M  V30 3586 O 352.56 3.43422 2.72016 0
M  V30 3587 C 354.061 2.08201 3.91366 0
M  V30 3588 H 351.281 0.4424 0.504503 0
M  V30 3589 H 353.825 1.76145 1.03891 0
M  V30 3590 H 351.98 1.62167 3.51825 0
M  V30 3591 H 352.394 3.83453 3.57861 0
M  V30 3592 H 353.868 2.67017 4.83121 0
M  V30 3593 H 354.345 1.07343 4.2588 0
M  V30 3594 H 354.951 2.52246 3.42421 0
M  V30 3595 N 353.266 -1.05314 1.17247 0
M  V30 3596 C 354.491 -1.82509 0.985148 0
M  V30 3597 C 354.916 -1.82343 -0.461788 0
M  V30 3598 O 354.274 -1.23151 -1.33055 0
M  V30 3599 C 354.322 -3.26566 1.52929 0
M  V30 3600 O 353.426 -4.05666 0.742225 0
M  V30 3601 H 352.767 -0.564347 0.349869 0
M  V30 3602 H 355.297 -1.32718 1.55715 0
M  V30 3603 H 355.307 -3.77369 1.55103 0
M  V30 3604 H 353.982 -3.26001 2.58256 0
M  V30 3605 H 352.559 -3.64397 0.791794 0
M  V30 3606 N 354.744 -0.972509 -1.24016 0
M  V30 3607 C 356.155 -0.67517 -1.74064 0
M  V30 3608 C 356.506 0.808939 -1.78747 0
M  V30 3609 O 355.631 1.63286 -1.42009 0
M  V30 3610 C 356.226 -1.21889 -3.16115 0
M  V30 3611 C 354.785 -0.971358 -3.6365 0
M  V30 3612 C 353.932 -1.35134 -2.42145 0
M  V30 3613 H 356.883 -1.14727 -1.09651 0
M  V30 3614 H 356.904 -0.587489 -3.75937 0
M  V30 3615 H 356.416 -2.29906 -3.12674 0
M  V30 3616 H 354.517 0.0930686 -3.72484 0
M  V30 3617 H 354.63 -1.62039 -4.50866 0
M  V30 3618 H 352.994 -0.769751 -2.4279 0
M  V30 3619 H 353.777 -2.4411 -2.41381 0
M  V30 3620 N 356.222 1.38976 -0.743202 0
M  V30 3621 C 357.47 1.99948 -0.29417 0
M  V30 3622 C 357.791 1.59279 1.12495 0
M  V30 3623 O 357.061 0.844808 1.76748 0
M  V30 3624 H 355.641 0.739473 -0.105774 0
M  V30 3625 H 358.303 1.699 -0.954986 0
M  V30 3626 H 357.399 3.10142 -0.349056 0
M  V30 3627 N 357.7 0.491464 1.49741 0
M  V30 3628 C 358.663 -0.280906 2.27472 0
M  V30 3629 C 359.663 -0.902454 1.33088 0
M  V30 3630 O 360.853 -0.768465 1.56334 0
M  V30 3631 C 357.985 -1.40209 3.10732 0
M  V30 3632 H 359.178 0.401056 2.97206 0
M  V30 3633 H 356.731 0.246131 1.5435 0
M  V30 3634 H 357.466 -2.11849 2.45541 0
M  V30 3635 H 357.251 -0.961969 3.80117 0
M  V30 3636 H 358.741 -1.9464 3.69466 0
M  V30 3637 N 359.178 -1.55987 0.224894 0
M  V30 3638 C 360.108 -2.23426 -0.678457 0
M  V30 3639 C 361.089 -1.20709 -1.19847 0
M  V30 3640 O 362.274 -1.49304 -1.24186 0
M  V30 3641 C 359.404 -2.91676 -1.88527 0
M  V30 3642 C 358.358 -4.00893 -1.49896 0
M  V30 3643 C 357.684 -4.56455 -2.78483 0
M  V30 3644 C 358.984 -5.17769 -0.686461 0
M  V30 3645 H 360.678 -2.99175 -0.116173 0
M  V30 3646 H 358.224 -1.43897 -0.054436 0
M  V30 3647 H 360.177 -3.37547 -2.5227 0
M  V30 3648 H 358.901 -2.1338 -2.47258 0
M  V30 3649 H 357.56 -3.55758 -0.884985 0
M  V30 3650 H 357.208 -3.74886 -3.35365 0
M  V30 3651 H 356.908 -5.30169 -2.53368 0
M  V30 3652 H 358.432 -5.05047 -3.43162 0
M  V30 3653 H 359.846 -5.60001 -1.22767 0
M  V30 3654 H 358.243 -5.97735 -0.532259 0
M  V30 3655 H 359.313 -4.83932 0.306196 0
M  V30 3656 N 360.656 0.0484629 -1.57525 0
M  V30 3657 C 361.902 0.738854 -1.89506 0
M  V30 3658 C 362.257 1.73989 -0.821319 0
M  V30 3659 O 361.55 1.90825 0.172129 0
M  V30 3660 C 361.744 1.46632 -3.25935 0
M  V30 3661 C 361.573 0.537254 -4.46479 0
M  V30 3662 C 360.343 0.165484 -5.05029 0
M  V30 3663 C 362.541 -0.176085 -5.13998 0
M  V30 3664 N 360.523 -0.766868 -6.09091 0
M  V30 3665 C 361.894 -0.96478 -6.12448 0
M  V30 3666 C 363.949 -0.24509 -4.97296 0
M  V30 3667 C 362.652 -1.8161 -6.95996 0
M  V30 3668 C 364.678 -1.08347 -5.81391 0
M  V30 3669 C 364.04 -1.86014 -6.79395 0
M  V30 3670 H 360.139 0.245067 -0.742608 0
M  V30 3671 H 362.723 -0.000476161 -1.947 0
M  V30 3672 H 360.894 2.17623 -3.21706 0
M  V30 3673 H 362.626 2.10757 -3.45491 0
M  V30 3674 H 359.381 0.523466 -4.70698 0
M  V30 3675 H 359.805 -1.22698 -6.65788 0
M  V30 3676 H 364.447 0.341063 -4.21422 0
M  V30 3677 H 362.165 -2.41313 -7.71229 0
M  V30 3678 H 365.751 -1.14014 -5.70519 0
M  V30 3679 H 364.631 -2.4984 -7.43337 0
M  V30 3680 N 362.134 1.5431 0.320358 0
M  V30 3681 C 363.382 1.72327 1.05583 0
M  V30 3682 C 363.703 0.50149 1.88441 0
M  V30 3683 O 362.973 -0.48448 1.89815 0
M  V30 3684 H 361.553 0.635387 0.3928 0
M  V30 3685 H 364.215 1.91621 0.356019 0
M  V30 3686 H 363.311 2.60426 1.72003 0
M  V30 3687 N 363.613 -0.582584 1.46437 0
M  V30 3688 C 364.543 -1.70187 1.59871 0
M  V30 3689 C 365.524 -1.64066 0.449042 0
M  V30 3690 O 366.709 -1.82081 0.6753 0
M  V30 3691 C 363.839 -3.08827 1.58881 0
M  V30 3692 C 362.793 -3.29779 2.72819 0
M  V30 3693 C 362.119 -4.68947 2.5689 0
M  V30 3694 C 363.419 -3.17601 4.1464 0
M  V30 3695 H 365.113 -1.592 2.53566 0
M  V30 3696 H 362.659 -0.764472 1.22032 0
M  V30 3697 H 364.612 -3.86951 1.66873 0
M  V30 3698 H 363.336 -3.20713 0.617306 0
M  V30 3699 H 361.995 -2.54054 2.64296 0
M  V30 3700 H 361.643 -4.77599 1.57823 0
M  V30 3701 H 361.343 -4.83919 3.33312 0
M  V30 3702 H 362.867 -5.4924 2.66773 0
M  V30 3703 H 364.281 -3.8557 4.24274 0
M  V30 3704 H 362.678 -3.44094 4.9165 0
M  V30 3705 H 363.748 -2.14681 4.34788 0
M  V30 3706 N 365.091 -1.34144 -0.827227 0
M  V30 3707 C 366.368 -1.16844 -1.56865 0
M  V30 3708 C 366.748 0.260654 -2.09485 0
M  V30 3709 O 366.096 1.26138 -1.9053 0
M  V30 3710 C 366.306 -2.21939 -2.6934 0
M  V30 3711 C 367.654 -2.56695 -3.3822 0
M  V30 3712 O 368.678 -2.20695 -2.79593 0
M  V30 3713 O 367.537 -3.18518 -4.44082 0
M  V30 3714 H 364.631 -0.452669 -0.692112 0
M  V30 3715 H 367.177 -1.45763 -0.868973 0
M  V30 3716 H 365.949 -3.17882 -2.28182 0
M  V30 3717 H 365.572 -1.94172 -3.46962 0
M  V30 3718 N 366.569 1.04691 -1.17803 0
M  V30 3719 C 367.985 1.29963 -0.926379 0
M  V30 3720 C 368.185 1.97251 0.411635 0
M  V30 3721 O 367.241 2.24922 1.14744 0
M  V30 3722 C 368.554 2.16447 -2.08737 0
M  V30 3723 C 370.102 2.29814 -2.12496 0
M  V30 3724 C 370.577 3.19661 -3.27995 0
M  V30 3725 N 372.068 3.27247 -3.27816 0
M  V30 3726 C 372.803 3.96906 -4.13827 0
M  V30 3727 N 372.299 4.6895 -5.09959 0
M  V30 3728 N 374.092 3.93122 -4.01761 0
M  V30 3729 H 366.243 0.594182 -2.0392 0
M  V30 3730 H 368.506 0.324649 -0.890678 0
M  V30 3731 H 368.212 1.74304 -3.05469 0
M  V30 3732 H 368.086 3.17103 -2.04268 0
M  V30 3733 H 370.473 2.71196 -1.16347 0
M  V30 3734 H 370.554 1.2877 -2.21025 0
M  V30 3735 H 370.198 2.78991 -4.24413 0
M  V30 3736 H 370.128 4.20722 -3.16703 0
M  V30 3737 H 372.619 2.75921 -2.58217 0
M  V30 3738 H 372.932 5.19679 -5.71974 0
M  V30 3739 H 371.277 4.67875 -5.13924 0
M  V30 3740 H 374.468 3.35967 -3.2595 0
M  V30 3741 H 374.641 4.47139 -4.6901 0
M  V30 3742 N 368.047 0.979072 1.23499 0
M  V30 3743 C 369.293 0.648178 1.92163 0
M  V30 3744 C 369.626 -0.816049 1.76222 0
M  V30 3745 O 368.901 -1.58849 1.12237 0
M  V30 3746 C 369.184 1.03773 3.44824 0
M  V30 3747 C 369.037 2.55948 3.69879 0
M  V30 3748 C 370.356 0.580653 4.36253 0
M  V30 3749 H 367.475 0.236952 0.69787 0
M  V30 3750 H 370.117 1.22012 1.45647 0
M  V30 3751 H 368.267 0.551058 3.84572 0
M  V30 3752 H 369.939 3.12179 3.3962 0
M  V30 3753 H 368.182 2.98641 3.14636 0
M  V30 3754 H 368.853 2.78255 4.76737 0
M  V30 3755 H 371.329 0.998465 4.03943 0
M  V30 3756 H 370.205 0.881663 5.41773 0
M  V30 3757 H 370.466 -0.519052 4.39042 0
M  V30 3758 N 369.525 -1.3858 0.750561 0
M  V30 3759 C 370.753 -2.04471 0.316098 0
M  V30 3760 C 371.168 -1.56606 -1.05452 0
M  V30 3761 O 370.525 -0.737784 -1.66922 0
M  V30 3762 C 370.576 -3.60025 0.326275 0
M  V30 3763 O 370.297 -4.06133 1.6428 0
M  V30 3764 C 371.798 -4.43131 -0.122429 0
M  V30 3765 H 369.018 -0.65717 0.135528 0
M  V30 3766 H 371.562 -1.77329 1.01857 0
M  V30 3767 H 369.717 -3.86014 -0.327431 0
M  V30 3768 H 370.131 -5.00547 1.56693 0
M  V30 3769 H 371.605 -5.51963 -0.0641473 0
M  V30 3770 H 372.082 -4.23333 -1.16988 0
M  V30 3771 H 372.688 -4.22323 0.50229 0
M  V30 3772 N 371.003 -0.499398 -1.49478 0
M  V30 3773 C 372.25 0.0456899 -2.02448 0
M  V30 3774 C 372.578 1.37142 -1.37921 0
M  V30 3775 O 371.833 1.89111 -0.503544 0
M  V30 3776 C 372.132 0.248424 -3.56536 0
M  V30 3777 C 371.798 -0.999107 -4.39692 0
M  V30 3778 C 370.46 -1.34108 -4.62135 0
M  V30 3779 C 372.812 -1.82842 -4.88076 0
M  V30 3780 C 370.14 -2.51191 -5.30208 0
M  V30 3781 C 372.492 -2.99076 -5.57437 0
M  V30 3782 C 371.156 -3.33655 -5.78127 0
M  V30 3783 H 370.426 0.0167191 -0.740811 0
M  V30 3784 H 373.073 -0.65923 -1.79795 0
M  V30 3785 H 371.378 1.03586 -3.77859 0
M  V30 3786 H 373.075 0.684605 -3.95113 0
M  V30 3787 H 369.665 -0.722729 -4.22463 0
M  V30 3788 H 373.849 -1.57737 -4.70566 0
M  V30 3789 H 369.105 -2.78221 -5.44429 0
M  V30 3790 H 373.279 -3.63664 -5.93904 0
M  V30 3791 H 370.906 -4.24483 -6.30649 0
M  V30 3792 N 372.481 1.55866 -0.233164 0
M  V30 3793 C 373.897 1.59133 0.121988 0
M  V30 3794 C 374.097 1.25016 1.58029 0
M  V30 3795 O 373.153 0.990922 2.32243 0
M  V30 3796 C 374.466 2.99932 -0.214792 0
M  V30 3797 C 376.014 3.12601 -0.157971 0
M  V30 3798 C 376.489 4.55597 -0.46859 0
M  V30 3799 N 377.98 4.61305 -0.418585 0
M  V30 3800 C 378.715 5.69903 -0.63227 0
M  V30 3801 N 378.211 6.86819 -0.90835 0
M  V30 3802 N 380.004 5.59264 -0.563913 0
M  V30 3803 H 372.155 1.76315 -1.18434 0
M  V30 3804 H 374.418 0.820093 -0.475553 0
M  V30 3805 H 374.124 3.29588 -1.22739 0
M  V30 3806 H 373.998 3.74327 0.464691 0
M  V30 3807 H 376.385 2.82735 0.845283 0
M  V30 3808 H 376.466 2.40511 -0.871102 0
M  V30 3809 H 376.11 4.86182 -1.46934 0
M  V30 3810 H 376.04 5.25928 0.265865 0
M  V30 3811 H 378.531 3.77297 -0.213368 0
M  V30 3812 H 378.844 7.65507 -1.05919 0
M  V30 3813 H 377.189 6.88536 -0.945673 0
M  V30 3814 H 380.38 4.66802 -0.348372 0
M  V30 3815 H 380.553 6.43831 -0.733847 0
M  V30 3816 N 373.959 -0.0401083 1.57549 0
M  V30 3817 C 375.375 -0.395556 1.54621 0
M  V30 3818 C 375.575 -1.77281 0.957799 0
M  V30 3819 O 374.631 -2.45888 0.574031 0
M  V30 3820 C 375.944 -0.307535 2.99123 0
M  V30 3821 C 377.492 -0.385425 3.10618 0
M  V30 3822 C 377.967 -0.326973 4.56831 0
M  V30 3823 N 379.458 -0.386102 4.61588 0
M  V30 3824 C 380.193 -0.363591 5.72246 0
M  V30 3825 N 379.689 -0.29402 6.92176 0
M  V30 3826 N 381.482 -0.412503 5.60584 0
M  V30 3827 H 373.633 0.861325 1.94152 0
M  V30 3828 H 375.896 0.326445 0.890021 0
M  V30 3829 H 375.602 0.638461 3.45856 0
M  V30 3830 H 375.476 -1.10552 3.60636 0
M  V30 3831 H 377.863 -1.32185 2.63839 0
M  V30 3832 H 377.944 0.44171 2.51957 0
M  V30 3833 H 377.588 0.605738 5.04275 0
M  V30 3834 H 377.518 -1.17207 5.13391 0
M  V30 3835 H 380.009 -0.442832 3.75296 0
M  V30 3836 H 380.322 -0.28164 7.72287 0
M  V30 3837 H 378.667 -0.260232 6.94513 0
M  V30 3838 H 381.858 -0.464769 4.65787 0
M  V30 3839 H 382.031 -0.391492 6.46816 0
M  V30 3840 N 375.437 -1.54477 -0.31217 0
M  V30 3841 C 376.686 -1.72438 -1.04633 0
M  V30 3842 C 376.999 -0.511163 -1.88803 0
M  V30 3843 O 378.205 -0.572341 -2.65399 0
M  V30 3844 C 376.661 -3.05043 -1.9099 0
M  V30 3845 C 376.269 -4.33806 -1.11877 0
M  V30 3846 C 378.013 -3.32364 -2.64073 0
M  V30 3847 C 375.92 -5.57467 -1.97445 0
M  V30 3848 H 374.85 -0.642647 -0.394361 0
M  V30 3849 H 377.501 -1.80966 -0.303929 0
M  V30 3850 H 375.883 -2.90451 -2.69173 0
M  V30 3851 H 377.057 -4.59199 -0.383843 0
M  V30 3852 H 375.372 -4.13336 -0.504252 0
M  V30 3853 H 377.969 -4.21951 -3.28423 0
M  V30 3854 H 378.312 -2.50745 -3.32314 0
M  V30 3855 H 378.845 -3.47875 -1.92944 0
M  V30 3856 H 375.584 -6.41722 -1.33692 0
M  V30 3857 H 375.104 -5.36277 -2.6864 0
M  V30 3858 H 376.783 -5.94303 -2.5576 0
M  V30 3859 N 376.915 0.57481 -1.46744 0
M  V30 3860 C 378.164 1.32898 -1.51727 0
M  V30 3861 C 378.477 1.948 -0.176692 0
M  V30 3862 O 379.683 2.71299 -0.104385 0
M  V30 3863 C 378.139 2.40901 -2.67385 0
M  V30 3864 C 377.747 1.85266 -4.07898 0
M  V30 3865 C 379.491 3.17609 -2.81646 0
M  V30 3866 C 377.398 2.90945 -5.14883 0
M  V30 3867 H 376.328 0.499631 -0.564699 0
M  V30 3868 H 378.979 0.612536 -1.72975 0
M  V30 3869 H 377.361 3.15379 -2.39483 0
M  V30 3870 H 378.535 1.17278 -4.45626 0
M  V30 3871 H 376.85 1.21199 -3.98371 0
M  V30 3872 H 379.447 3.96493 -3.58744 0
M  V30 3873 H 379.79 3.70696 -1.89448 0
M  V30 3874 H 380.323 2.50239 -3.09233 0
M  V30 3875 H 377.062 2.42736 -6.089 0
M  V30 3876 H 376.582 3.57398 -4.81691 0
M  V30 3877 H 378.261 3.54755 -5.41071 0
M  V30 3878 N 378.394 1.34581 0.820102 0
M  V30 3879 C 379.64 1.27285 1.57881 0
M  V30 3880 C 379.973 -0.156137 1.93571 0
M  V30 3881 O 379.248 -1.10222 1.60254 0
M  V30 3882 C 379.531 2.16639 2.87645 0
M  V30 3883 C 379.384 3.68088 2.58517 0
M  V30 3884 C 380.703 2.05378 3.8924 0
M  V30 3885 H 377.822 0.463714 0.572833 0
M  V30 3886 H 380.464 1.64859 0.944539 0
M  V30 3887 H 378.614 1.84725 3.41773 0
M  V30 3888 H 380.286 4.10382 2.10676 0
M  V30 3889 H 378.529 3.89038 1.91917 0
M  V30 3890 H 379.2 4.2598 3.51063 0
M  V30 3891 H 381.676 2.33404 3.44473 0
M  V30 3892 H 380.552 2.7012 4.77835 0
M  V30 3893 H 380.813 1.0316 4.29896 0
M  V30 3894 N 379.872 -1.04064 1.18357 0
M  V30 3895 C 380.819 -2.12077 0.910603 0
M  V30 3896 C 381.789 -1.65421 -0.15 0
M  V30 3897 O 382.974 -1.90797 -0.0103614 0
M  V30 3898 C 380.114 -3.42252 0.442472 0
M  V30 3899 C 379.227 -4.0252 1.5685 0
M  V30 3900 C 378.362 -5.20657 1.05309 0
M  V30 3901 C 377.401 -5.72955 2.1538 0
M  V30 3902 N 376.538 -6.8238 1.65233 0
M  V30 3903 H 381.378 -2.34764 1.83548 0
M  V30 3904 H 378.915 -1.15157 0.915279 0
M  V30 3905 H 380.873 -4.16921 0.152534 0
M  V30 3906 H 379.503 -3.19712 -0.445428 0
M  V30 3907 H 378.555 -3.25178 1.97391 0
M  V30 3908 H 379.867 -4.37362 2.39824 0
M  V30 3909 H 379.021 -6.0244 0.717677 0
M  V30 3910 H 377.76 -4.87318 0.19293 0
M  V30 3911 H 376.765 -4.89793 2.49766 0
M  V30 3912 H 377.99 -6.08337 3.01832 0
M  V30 3913 H 375.936 -6.50917 0.815064 0
M  V30 3914 H 375.853 -7.16286 2.41805 0
M  V30 3915 H 377.121 -7.67788 1.34619 0
M  V30 3916 N 381.35 -0.985608 -1.22978 0
M  V30 3917 C 382.298 -0.522631 -2.26652 0
M  V30 3918 C 383.292 0.422998 -1.64034 0
M  V30 3919 O 384.498 0.296319 -1.77544 0
M  V30 3920 H 380.873 -0.150597 -0.736766 0
M  V30 3921 H 382.844 -1.40863 -2.63059 0
M  V30 3922 C 381.593 0.154238 -3.47358 0
M  V30 3923 H 380.916 -0.564329 -3.95797 0
M  V30 3924 H 382.356 0.441744 -4.21693 0
M  V30 3925 C 380.815 1.38719 -3.07016 0
M  V30 3926 O 381.345 2.48307 -3.15764 0
M  V30 3927 N 379.551 1.25975 -2.61875 0
M  V30 3928 H 379.098 0.368068 -2.54957 0
M  V30 3929 H 379.056 2.08578 -2.3525 0
M  V30 3930 N 382.828 1.3818 -0.7579 0
M  V30 3931 C 383.776 2.32277 -0.122482 0
M  V30 3932 C 384.77 1.54238 0.700505 0
M  V30 3933 O 385.976 1.69737 0.599119 0
M  V30 3934 H 382.351 0.751712 -0.0208143 0
M  V30 3935 H 384.322 2.83469 -0.932099 0
M  V30 3936 C 383.071 3.39447 0.753076 0
M  V30 3937 H 382.394 3.99591 0.129184 0
M  V30 3938 H 383.834 4.07684 1.16489 0
M  V30 3939 C 382.293 2.78375 1.8976 0
M  V30 3940 O 382.823 2.68025 2.99208 0
M  V30 3941 N 381.029 2.36121 1.69397 0
M  V30 3942 H 380.576 2.4474 0.803762 0
M  V30 3943 H 380.534 1.95602 2.46145 0
M  V30 3944 N 384.306 0.507319 1.49211 0
M  V30 3945 C 385.269 -0.256763 2.27757 0
M  V30 3946 C 386.269 -0.888287 1.34038 0
M  V30 3947 O 387.459 -0.751841 1.5714 0
M  V30 3948 C 384.591 -1.36905 3.12202 0
M  V30 3949 H 385.784 0.432557 2.96764 0
M  V30 3950 H 383.337 0.262488 1.5408 0
M  V30 3951 H 384.072 -2.09233 2.47775 0
M  V30 3952 H 383.857 -0.921599 3.81115 0
M  V30 3953 H 385.347 -1.9071 3.7151 0
M  V30 3954 N 385.784 -1.5574 0.241426 0
M  V30 3955 C 386.731 -2.21149 -0.660432 0
M  V30 3956 C 387.701 -1.17356 -1.17545 0
M  V30 3957 O 388.886 -1.45784 -1.23093 0
M  V30 3958 C 386.026 -2.91059 -1.85414 0
M  V30 3959 C 385.139 -4.09495 -1.37616 0
M  V30 3960 C 384.274 -4.67135 -2.529 0
M  V30 3961 C 383.313 -5.77831 -2.01936 0
M  V30 3962 N 382.45 -6.29677 -3.10566 0
M  V30 3963 H 387.29 -2.97845 -0.095955 0
M  V30 3964 H 384.827 -1.47057 -0.0356024 0
M  V30 3965 H 386.785 -3.29788 -2.5553 0
M  V30 3966 H 385.415 -2.16846 -2.39118 0
M  V30 3967 H 384.467 -3.76117 -0.569235 0
M  V30 3968 H 385.779 -4.89423 -0.962618 0
M  V30 3969 H 384.933 -5.08409 -3.31067 0
M  V30 3970 H 383.672 -3.86411 -2.97553 0
M  V30 3971 H 382.677 -5.36039 -1.22238 0
M  V30 3972 H 383.902 -6.60402 -1.58259 0
M  V30 3973 H 381.848 -5.5186 -3.54664 0
M  V30 3974 H 381.765 -7.04783 -2.73526 0
M  V30 3975 H 383.033 -6.75609 -3.88809 0
M  V30 3976 N 387.262 0.0317525 -1.57568 0
M  V30 3977 C 388.209 1.0332 -2.06382 0
M  V30 3978 C 389.179 1.36082 -0.952414 0
M  V30 3979 O 390.364 1.46466 -1.2228 0
M  V30 3980 C 387.504 2.32989 -2.54578 0
M  V30 3981 C 386.617 2.0641 -3.79498 0
M  V30 3982 C 385.752 3.2993 -4.16317 0
M  V30 3983 C 384.791 2.98893 -5.34162 0
M  V30 3984 N 383.928 4.14857 -5.66426 0
M  V30 3985 H 388.768 0.609982 -2.9169 0
M  V30 3986 H 386.305 0.289573 -1.44222 0
M  V30 3987 H 388.263 3.0875 -2.80587 0
M  V30 3988 H 386.893 2.73039 -1.7219 0
M  V30 3989 H 385.945 1.21158 -3.6059 0
M  V30 3990 H 387.257 1.79513 -4.65378 0
M  V30 3991 H 386.411 4.1406 -4.4344 0
M  V30 3992 H 385.15 3.59938 -3.29083 0
M  V30 3993 H 384.155 2.13164 -5.06795 0
M  V30 3994 H 385.38 2.70165 -6.23047 0
M  V30 3995 H 383.326 4.44821 -4.82151 0
M  V30 3996 H 383.243 3.91374 -6.4681 0
M  V30 3997 H 384.511 4.99868 -5.98124 0
M  V30 3998 N 388.74 1.54641 0.303973 0
M  V30 3999 C 390.156 1.45788 0.649463 0
M  V30 4000 C 390.356 0.64666 1.90842 0
M  V30 4001 O 389.412 0.153183 2.52035 0
M  V30 4002 C 390.725 2.89718 0.805227 0
M  V30 4003 C 392.273 2.99742 0.901305 0
M  V30 4004 C 392.748 4.44863 1.08909 0
M  V30 4005 N 394.239 4.48559 1.15536 0
M  V30 4006 C 394.974 5.58026 1.3189 0
M  V30 4007 N 394.47 6.77422 1.45161 0
M  V30 4008 N 396.263 5.45708 1.34755 0
M  V30 4009 H 388.414 2.05854 -0.523237 0
M  V30 4010 H 390.677 0.932186 -0.172431 0
M  V30 4011 H 390.383 3.51666 -0.0489108 0
M  V30 4012 H 390.257 3.36964 1.69513 0
M  V30 4013 H 392.644 2.3791 1.74593 0
M  V30 4014 H 392.725 2.55797 -0.0125531 0
M  V30 4015 H 392.369 5.07288 0.249241 0
M  V30 4016 H 392.299 4.86436 2.01713 0
M  V30 4017 H 394.79 3.6254 1.06646 0
M  V30 4018 H 395.103 7.56604 1.57387 0
M  V30 4019 H 393.448 6.80292 1.42223 0
M  V30 4020 H 396.639 4.51378 1.23996 0
M  V30 4021 H 396.812 6.3107 1.47157 0
M  V30 4022 N 390.218 -0.567019 1.47046 0
M  V30 4023 C 391.165 -1.67489 1.58796 0
M  V30 4024 C 392.135 -1.60399 0.43144 0
M  V30 4025 O 393.32 -1.79378 0.650233 0
M  V30 4026 C 390.46 -3.05821 1.59899 0
M  V30 4027 C 389.573 -3.2342 2.86397 0
M  V30 4028 C 388.708 -4.52093 2.789 0
M  V30 4029 C 387.747 -4.6309 4.00267 0
M  V30 4030 N 386.884 -5.83106 3.91064 0
M  V30 4031 H 391.724 -1.56785 2.53422 0
M  V30 4032 H 389.261 -0.763896 1.2571 0
M  V30 4033 H 391.219 -3.8591 1.58522 0
M  V30 4034 H 389.849 -3.15384 0.687929 0
M  V30 4035 H 388.901 -2.3683 2.97684 0
M  V30 4036 H 390.213 -3.27412 3.76301 0
M  V30 4037 H 389.367 -5.4043 2.75718 0
M  V30 4038 H 388.106 -4.50565 1.86662 0
M  V30 4039 H 387.111 -3.73168 4.03765 0
M  V30 4040 H 388.336 -4.66386 4.93621 0
M  V30 4041 H 386.282 -5.82546 3.01623 0
M  V30 4042 H 386.199 -5.88434 4.74638 0
M  V30 4043 H 387.467 -6.73831 3.91882 0
M  V30 4044 N 391.696 -1.35014 -0.812953 0
M  V30 4045 C 392.629 -1.21761 -1.93001 0
M  V30 4046 C 393.607 -0.10694 -1.62248 0
M  V30 4047 O 394.791 -0.273891 -1.865 0
M  V30 4048 C 391.918 -0.873404 -3.27245 0
M  V30 4049 C 390.964 -1.99523 -3.76952 0
M  V30 4050 S 391.797 -3.61009 -3.95516 0
M  V30 4051 C 392.953 -3.28651 -5.32672 0
M  V30 4052 H 393.186 -2.16315 -2.03948 0
M  V30 4053 H 390.719 -1.20156 -0.969631 0
M  V30 4054 H 392.677 -0.68161 -4.04802 0
M  V30 4055 H 391.338 0.053971 -3.14054 0
M  V30 4056 H 390.531 -1.70838 -4.74163 0
M  V30 4057 H 390.133 -2.14503 -3.06373 0
M  V30 4058 H 392.425 -2.81085 -6.1644 0
M  V30 4059 H 393.368 -4.25039 -5.66346 0
M  V30 4060 H 393.776 -2.6458 -4.98656 0
M  V30 4061 N 393.175 1.03435 -1.18907 0
M  V30 4062 C 394.405 1.8012 -1.01195 0
M  V30 4063 C 394.813 1.8395 0.442613 0
M  V30 4064 O 394.156 1.27836 1.31923 0
M  V30 4065 C 394.218 3.26792 -1.49823 0
M  V30 4066 C 393.882 3.46609 -2.97844 0
M  V30 4067 C 394.879 3.37278 -3.95651 0
M  V30 4068 C 392.564 3.73001 -3.36416 0
M  V30 4069 C 394.558 3.54054 -5.30023 0
M  V30 4070 C 392.245 3.89423 -4.70949 0
M  V30 4071 C 393.243 3.79951 -5.67562 0
M  V30 4072 O 392.931 3.95895 -6.99659 0
M  V30 4073 H 392.663 0.573865 -0.357289 0
M  V30 4074 H 395.217 1.31207 -1.58031 0
M  V30 4075 H 393.447 3.76703 -0.873578 0
M  V30 4076 H 395.136 3.85055 -1.28404 0
M  V30 4077 H 395.902 3.16846 -3.67197 0
M  V30 4078 H 391.781 3.79469 -2.61772 0
M  V30 4079 H 395.325 3.46577 -6.05417 0
M  V30 4080 H 391.222 4.09351 -4.99101 0
M  V30 4081 H 391.99 4.13019 -7.06653 0
M  V30 4082 N 394.653 0.992116 1.22453 0
M  V30 4083 C 395.563 0.55065 2.28046 0
M  V30 4084 C 396.579 -0.400189 1.69335 0
M  V30 4085 O 397.755 -0.267215 1.99619 0
M  V30 4086 C 394.82 -0.128496 3.46462 0
M  V30 4087 C 393.881 0.865208 4.20491 0
M  V30 4088 C 393.114 0.218377 5.33253 0
M  V30 4089 O 393.337 -0.987894 5.6178 0
M  V30 4090 O 392.271 0.922845 5.94783 0
M  V30 4091 H 396.097 1.4291 2.67975 0
M  V30 4092 H 393.682 0.760326 1.28606 0
M  V30 4093 H 395.564 -0.508947 4.18315 0
M  V30 4094 H 394.239 -0.981526 3.0846 0
M  V30 4095 H 393.146 1.29658 3.50913 0
M  V30 4096 H 394.479 1.68741 4.62371 0
M  V30 4097 N 396.131 -1.37776 0.765217 0
M  V30 4098 C 397.356 -2.04651 0.336537 0
M  V30 4099 C 397.781 -1.57337 -1.03086 0
M  V30 4100 O 397.139 -0.730621 -1.65927 0
M  V30 4101 C 397.187 -3.58577 0.381468 0
M  V30 4102 O 396.291 -4.07706 -0.62042 0
M  V30 4103 H 395.632 -0.64756 0.146838 0
M  V30 4104 H 398.162 -1.76221 1.03959 0
M  V30 4105 H 398.172 -4.07314 0.236448 0
M  V30 4106 H 396.847 -3.9237 1.37907 0
M  V30 4107 H 395.424 -3.70306 -0.439056 0
M  V30 4108 N 397.609 -0.515225 -1.4894 0
M  V30 4109 C 398.856 0.024215 -2.02486 0
M  V30 4110 C 399.184 1.35671 -1.39368 0
M  V30 4111 O 398.439 1.88566 -0.523574 0
M  V30 4112 C 398.738 0.210595 -3.56779 0
M  V30 4113 C 398.404 -1.04569 -4.38607 0
M  V30 4114 C 397.066 -1.39002 -4.60686 0
M  V30 4115 C 399.418 -1.88008 -4.86109 0
M  V30 4116 C 396.746 -2.568 -5.27514 0
M  V30 4117 C 399.098 -3.04972 -5.54234 0
M  V30 4118 C 397.762 -3.39768 -5.74555 0
M  V30 4119 H 397.032 0.00886088 -0.740947 0
M  V30 4120 H 399.679 -0.678263 -1.79086 0
M  V30 4121 H 397.984 0.99572 -3.78936 0
M  V30 4122 H 399.681 0.642659 -3.95817 0
M  V30 4123 H 396.271 -0.767497 -4.21672 0
M  V30 4124 H 400.455 -1.62719 -4.68867 0
M  V30 4125 H 395.711 -2.8398 -5.41447 0
M  V30 4126 H 399.885 -3.69943 -5.90013 0
M  V30 4127 H 397.512 -4.31148 -6.26112 0
M  V30 4128 N 399.087 1.5561 -0.249682 0
M  V30 4129 C 400.336 1.98187 0.37479 0
M  V30 4130 C 400.649 1.14111 1.58865 0
M  V30 4131 O 401.855 1.46714 2.28445 0
M  V30 4132 C 400.311 3.52661 0.718192 0
M  V30 4133 C 399.919 4.45481 -0.474428 0
M  V30 4134 C 401.663 4.03888 1.3067 0
M  V30 4135 C 399.57 5.91303 -0.107026 0
M  V30 4136 H 398.5 0.740159 0.143808 0
M  V30 4137 H 401.151 1.80125 -0.350336 0
M  V30 4138 H 399.533 3.66429 1.50152 0
M  V30 4139 H 400.707 4.43473 -1.25172 0
M  V30 4140 H 399.022 4.04751 -0.978052 0
M  V30 4141 H 401.619 5.10358 1.59496 0
M  V30 4142 H 401.962 3.51401 2.23211 0
M  V30 4143 H 402.495 3.93457 0.586211 0
M  V30 4144 H 399.234 6.47833 -0.999642 0
M  V30 4145 H 398.754 5.9644 0.634013 0
M  V30 4146 H 400.433 6.46258 0.309807 0
M  V30 4147 N 400.565 -0.0233959 1.57583 0
M  V30 4148 C 401.475 -1.03907 2.10334 0
M  V30 4149 C 402.491 -1.39257 1.04323 0
M  V30 4150 O 403.667 -1.48462 1.36091 0
M  V30 4151 C 400.732 -2.31938 2.57693 0
M  V30 4152 C 399.793 -2.03117 3.78209 0
M  V30 4153 C 399.026 -3.25043 4.233 0
M  V30 4154 O 399.249 -4.35916 3.67876 0
M  V30 4155 O 398.183 -3.10411 5.15683 0
M  V30 4156 H 402.009 -0.620748 2.97288 0
M  V30 4157 H 399.594 -0.240743 1.47448 0
M  V30 4158 H 401.476 -3.07196 2.88458 0
M  V30 4159 H 400.151 -2.73055 1.73847 0
M  V30 4160 H 399.058 -1.25408 3.52454 0
M  V30 4161 H 400.391 -1.66852 4.63056 0
M  V30 4162 N 402.043 -1.548 -0.295768 0
M  V30 4163 C 403.268 -1.78653 -1.05346 0
M  V30 4164 C 403.693 -0.546894 -1.79974 0
M  V30 4165 O 403.051 0.502763 -1.7419 0
M  V30 4166 C 403.099 -2.99679 -2.00561 0
M  V30 4167 O 402.203 -2.7317 -3.08953 0
M  V30 4168 H 401.544 -0.59116 -0.302367 0
M  V30 4169 H 404.074 -2.01895 -0.331598 0
M  V30 4170 H 404.084 -3.27793 -2.42932 0
M  V30 4171 H 402.759 -3.89562 -1.4565 0
M  V30 4172 H 401.336 -2.56089 -2.71059 0
M  V30 4173 N 403.521 0.559213 -1.47345 0
M  V30 4174 C 404.451 1.67622 -1.62558 0
M  V30 4175 C 405.432 1.63331 -0.475087 0
M  V30 4176 O 406.617 1.80983 -0.704182 0
M  V30 4177 C 403.747 3.0626 -1.63774 0
M  V30 4178 C 402.701 3.25397 -2.7803 0
M  V30 4179 C 402.027 4.64801 -2.64318 0
M  V30 4180 C 403.327 3.10965 -4.19641 0
M  V30 4181 H 405.021 1.55146 -2.56067 0
M  V30 4182 H 402.567 0.744961 -1.23233 0
M  V30 4183 H 404.52 3.84247 -1.73008 0
M  V30 4184 H 403.244 3.1969 -0.66825 0
M  V30 4185 H 401.903 2.49817 -2.68304 0
M  V30 4186 H 401.551 4.75028 -1.65401 0
M  V30 4187 H 401.251 4.78555 -3.40968 0
M  V30 4188 H 402.775 5.44926 -2.75478 0
M  V30 4189 H 404.189 3.78772 -4.30354 0
M  V30 4190 H 402.586 3.36229 -4.97062 0
M  V30 4191 H 403.656 2.07736 -4.38148 0
M  V30 4192 N 404.999 1.35443 0.805782 0
M  V30 4193 C 406.41 1.25768 1.37983 0
M  V30 4194 C 406.761 -0.10958 1.95894 0
M  V30 4195 O 405.886 -1.01056 1.91355 0
M  V30 4196 C 406.481 2.27727 2.5085 0
M  V30 4197 C 405.04 2.2179 3.04115 0
M  V30 4198 C 404.187 2.13393 1.77084 0
M  V30 4199 H 407.138 1.4656 0.608752 0
M  V30 4200 H 407.159 1.90422 3.29424 0
M  V30 4201 H 406.671 3.27227 2.08671 0
M  V30 4202 H 404.772 1.25703 3.50756 0
M  V30 4203 H 404.885 3.13788 3.62042 0
M  V30 4204 H 403.249 1.59384 1.98668 0
M  V30 4205 H 404.032 3.14755 1.37056 0
M  V30 4206 N 406.477 -1.02803 1.19454 0
M  V30 4207 C 407.724 -1.76217 0.997693 0
M  V30 4208 C 408.052 -1.887 -0.47144 0
M  V30 4209 O 407.307 -1.4011 -1.3663 0
M  V30 4210 C 407.606 -3.18941 1.6128 0
M  V30 4211 C 407.272 -3.26463 3.11019 0
M  V30 4212 C 405.934 -3.28223 3.51885 0
M  V30 4213 C 408.286 -3.25542 4.07028 0
M  V30 4214 C 405.614 -3.26719 4.8731 0
M  V30 4215 C 407.966 -3.25579 5.42385 0
M  V30 4216 C 406.63 -3.25637 5.82681 0
M  V30 4217 H 405.9 -0.644823 0.365082 0
M  V30 4218 H 408.547 -1.20655 1.4871 0
M  V30 4219 H 406.852 -3.77587 1.04572 0
M  V30 4220 H 408.549 -3.74415 1.43577 0
M  V30 4221 H 405.139 -3.25822 2.78457 0
M  V30 4222 H 409.323 -3.23362 3.76498 0
M  V30 4223 H 404.579 -3.25089 5.1781 0
M  V30 4224 H 408.753 -3.23817 6.16535 0
M  V30 4225 H 406.38 -3.24226 6.87591 0
M  V30 4226 N 407.956 -0.998596 -1.21925 0
M  V30 4227 C 408.886 -0.573688 -2.26343 0
M  V30 4228 C 409.867 0.402296 -1.65274 0
M  V30 4229 O 411.052 0.291683 -1.91997 0
M  V30 4230 C 408.182 0.106839 -3.47136 0
M  V30 4231 C 407.136 -0.788269 -4.20678 0
M  V30 4232 C 406.462 0.0254927 -5.34694 0
M  V30 4233 C 407.762 -2.08784 -4.78755 0
M  V30 4234 H 409.456 -1.44651 -2.62138 0
M  V30 4235 H 407.002 -0.696975 -1.26009 0
M  V30 4236 H 408.955 0.415531 -4.19346 0
M  V30 4237 H 407.679 1.01424 -3.10452 0
M  V30 4238 H 406.338 -1.08069 -3.50309 0
M  V30 4239 H 405.986 0.933989 -4.94253 0
M  V30 4240 H 405.686 -0.570437 -5.84825 0
M  V30 4241 H 407.21 0.328147 -6.09718 0
M  V30 4242 H 408.624 -1.84272 -5.42878 0
M  V30 4243 H 407.021 -2.63307 -5.39249 0
M  V30 4244 H 408.091 -2.76284 -3.98491 0
M  V30 4245 N 409.434 1.37368 -0.772513 0
M  V30 4246 C 410.381 2.30262 -0.157488 0
M  V30 4247 C 411.351 1.51137 0.688965 0
M  V30 4248 O 412.536 1.79704 0.641168 0
M  V30 4249 C 409.676 3.37611 0.715045 0
M  V30 4250 C 408.789 4.31746 -0.148098 0
M  V30 4251 C 407.924 5.26171 0.729213 0
M  V30 4252 C 406.963 6.11948 -0.136418 0
M  V30 4253 N 406.1 6.98613 0.698914 0
M  V30 4254 H 410.94 2.82277 -0.955179 0
M  V30 4255 H 408.477 1.38957 -0.482631 0
M  V30 4256 H 410.435 3.98479 1.23575 0
M  V30 4257 H 409.065 2.86959 1.47833 0
M  V30 4258 H 408.117 3.72178 -0.786613 0
M  V30 4259 H 409.429 4.92084 -0.81579 0
M  V30 4260 H 408.583 5.92247 1.31637 0
M  V30 4261 H 407.322 4.66246 1.43059 0
M  V30 4262 H 406.327 5.4485 -0.736102 0
M  V30 4263 H 407.552 6.73945 -0.835134 0
M  V30 4264 H 405.498 6.41215 1.38489 0
M  V30 4265 H 405.415 7.55948 0.0885358 0
M  V30 4266 H 406.683 7.69077 1.27044 0
M  V30 4267 N 410.912 0.523116 1.48665 0
M  V30 4268 C 412.137 -0.0117284 2.07397 0
M  V30 4269 C 412.562 -1.28031 1.37803 0
M  V30 4270 O 411.92 -1.75836 0.441762 0
M  V30 4271 C 411.968 -0.225786 3.59892 0
M  V30 4272 O 411.072 -1.29592 3.91509 0
M  V30 4273 H 410.413 0.0360673 0.66302 0
M  V30 4274 H 412.943 0.729066 1.9117 0
M  V30 4275 H 412.953 -0.450552 4.05505 0
M  V30 4276 H 411.628 0.700944 4.09951 0
M  V30 4277 H 410.205 -1.05436 3.57684 0
M  V30 4278 N 412.39 -1.55475 0.257931 0
M  V30 4279 C 413.32 -2.24815 -0.630912 0
M  V30 4280 C 414.301 -1.23224 -1.17259 0
M  V30 4281 O 415.486 -1.51904 -1.20991 0
M  V30 4282 C 412.616 -2.95609 -1.82298 0
M  V30 4283 C 411.57 -4.03982 -1.41359 0
M  V30 4284 C 410.896 -4.6226 -2.68738 0
M  V30 4285 C 412.196 -5.19109 -0.57648 0
M  V30 4286 H 413.89 -2.99354 -0.0526878 0
M  V30 4287 H 411.436 -1.4398 -0.023901 0
M  V30 4288 H 413.389 -3.42822 -2.45054 0
M  V30 4289 H 412.113 -2.18577 -2.42676 0
M  V30 4290 H 410.772 -3.57555 -0.809324 0
M  V30 4291 H 410.42 -3.81915 -3.27338 0
M  V30 4292 H 410.12 -5.35424 -2.42065 0
M  V30 4293 H 411.644 -5.12212 -3.32372 0
M  V30 4294 H 413.058 -5.62479 -1.10861 0
M  V30 4295 H 411.455 -5.98729 -0.405351 0
M  V30 4296 H 412.525 -4.83174 0.408776 0
M  V30 4297 N 413.868 0.0150385 -1.57593 0
M  V30 4298 C 414.778 1.02791 -2.10882 0
M  V30 4299 C 415.794 1.38702 -1.0506 0
M  V30 4300 O 416.97 1.47739 -1.36877 0
M  V30 4301 C 414.035 2.30568 -2.58919 0
M  V30 4302 C 413.096 2.01108 -3.79281 0
M  V30 4303 C 412.329 3.22794 -4.25018 0
M  V30 4304 O 412.552 4.33959 -3.70183 0
M  V30 4305 O 411.486 3.07672 -5.17322 0
M  V30 4306 H 415.312 0.604973 -2.97613 0
M  V30 4307 H 412.897 0.23292 -1.47573 0
M  V30 4308 H 414.779 3.05662 -2.90084 0
M  V30 4309 H 413.454 2.72129 -1.75293 0
M  V30 4310 H 412.361 1.23537 -3.53114 0
M  V30 4311 H 413.694 1.64394 -4.63935 0
M  V30 4312 N 415.346 1.54954 0.287554 0
M  V30 4313 C 416.593 1.74873 1.02106 0
M  V30 4314 C 416.921 0.541829 1.86801 0
M  V30 4315 O 416.176 -0.475992 1.89823 0
M  V30 4316 C 416.475 2.99833 1.94512 0
M  V30 4317 C 416.141 4.33029 1.25686 0
M  V30 4318 C 414.803 4.69233 1.06649 0
M  V30 4319 C 417.155 5.15542 0.765913 0
M  V30 4320 C 414.483 5.85518 0.372222 0
M  V30 4321 C 416.835 6.32542 0.0853101 0
M  V30 4322 C 415.499 6.67398 -0.1169 0
M  V30 4323 H 414.769 0.639906 0.373632 0
M  V30 4324 H 417.416 1.89219 0.294665 0
M  V30 4325 H 415.721 2.80325 2.73725 0
M  V30 4326 H 417.418 3.1244 2.51361 0
M  V30 4327 H 414.008 4.04564 1.41512 0
M  V30 4328 H 418.192 4.88059 0.90066 0
M  V30 4329 H 413.448 6.11057 0.204695 0
M  V30 4330 H 417.622 6.95741 -0.302936 0
M  V30 4331 H 415.249 7.57357 -0.656859 0
M  V30 4332 N 416.824 -0.551391 1.4764 0
M  V30 4333 C 418.049 -1.33837 1.58437 0
M  V30 4334 C 418.474 -1.866 0.237063 0
M  V30 4335 O 417.832 -1.6328 -0.787994 0
M  V30 4336 C 417.88 -2.48014 2.61766 0
M  V30 4337 O 416.984 -3.50419 2.1744 0
M  V30 4338 H 416.325 -0.397299 0.532024 0
M  V30 4339 H 418.855 -0.665759 1.93465 0
M  V30 4340 H 418.865 -2.94503 2.82369 0
M  V30 4341 H 417.54 -2.08969 3.5959 0
M  V30 4342 H 416.117 -3.10196 2.06961 0
M  V30 4343 N 418.302 -1.35869 -0.798587 0
M  V30 4344 C 419.212 -1.31578 -1.94228 0
M  V30 4345 C 420.228 -0.21939 -1.72611 0
M  V30 4346 O 421.404 -0.450167 -1.96305 0
M  V30 4347 C 418.469 -1.09528 -3.28944 0
M  V30 4348 C 417.53 -2.28556 -3.63402 0
M  V30 4349 C 416.763 -2.07549 -4.9169 0
M  V30 4350 O 416.986 -1.046 -5.60727 0
M  V30 4351 O 415.92 -2.95106 -5.24591 0
M  V30 4352 H 419.746 -2.27847 -2.00796 0
M  V30 4353 H 417.331 -1.16322 -0.937526 0
M  V30 4354 H 419.213 -0.991127 -4.09579 0
M  V30 4355 H 417.888 -0.16315 -3.23289 0
M  V30 4356 H 416.795 -2.44538 -2.83112 0
M  V30 4357 H 418.128 -3.20244 -3.73771 0
M  V30 4358 N 419.78 1.02168 -1.19998 0
M  V30 4359 C 421.196 1.27969 -0.953737 0
M  V30 4360 C 421.396 1.98079 0.369703 0
M  V30 4361 O 420.452 2.27306 1.09947 0
M  V30 4362 C 421.765 2.11971 -2.13281 0
M  V30 4363 C 423.313 2.25255 -2.17323 0
M  V30 4364 C 423.788 3.12632 -3.34702 0
M  V30 4365 N 425.279 3.2022 -3.34684 0
M  V30 4366 C 426.014 3.88039 -4.22153 0
M  V30 4367 N 425.51 4.58027 -5.19791 0
M  V30 4368 N 427.303 3.84511 -4.10009 0
M  V30 4369 H 419.454 0.550794 -2.05134 0
M  V30 4370 H 421.717 0.305683 -0.897364 0
M  V30 4371 H 421.423 1.67785 -3.09097 0
M  V30 4372 H 421.297 3.12699 -2.10949 0
M  V30 4373 H 423.684 2.68667 -1.22073 0
M  V30 4374 H 423.765 1.24053 -2.23706 0
M  V30 4375 H 423.409 2.69926 -4.30235 0
M  V30 4376 H 423.339 4.13909 -3.25556 0
M  V30 4377 H 425.83 2.70382 -2.64012 0
M  V30 4378 H 426.143 5.07429 -5.82868 0
M  V30 4379 H 424.488 4.56869 -5.23733 0
M  V30 4380 H 427.679 3.28978 -3.33003 0
M  V30 4381 H 427.852 4.3709 -4.78389 0
M  V30 4382 N 421.258 1.00505 1.21394 0
M  V30 4383 C 422.188 0.585684 2.26035 0
M  V30 4384 C 423.169 -0.393525 1.65485 0
M  V30 4385 O 424.354 -0.281497 1.92149 0
M  V30 4386 C 421.484 -0.0884283 3.47187 0
M  V30 4387 C 420.438 0.810567 4.20254 0
M  V30 4388 C 419.764 0.00286382 5.347 0
M  V30 4389 C 421.064 2.1132 4.77641 0
M  V30 4390 H 422.758 1.46039 2.61368 0
M  V30 4391 H 420.304 0.703648 1.25638 0
M  V30 4392 H 422.257 -0.393286 4.19561 0
M  V30 4393 H 420.981 -0.997766 3.10986 0
M  V30 4394 H 419.64 1.09925 3.49731 0
M  V30 4395 H 419.288 -0.907765 4.94741 0
M  V30 4396 H 418.988 0.601444 5.84514 0
M  V30 4397 H 420.512 -0.295808 6.09883 0
M  V30 4398 H 421.926 1.87148 5.41893 0
M  V30 4399 H 420.323 2.66164 5.37845 0
M  V30 4400 H 421.393 2.78393 3.9702 0
M  V30 4401 N 422.737 -1.36956 0.779787 0
M  V30 4402 C 423.684 -2.30175 0.169697 0
M  V30 4403 C 424.654 -1.51501 -0.68094 0
M  V30 4404 O 425.839 -1.80042 -0.631629 0
M  V30 4405 C 422.979 -3.37985 -0.697131 0
M  V30 4406 C 422.092 -4.31661 0.170992 0
M  V30 4407 C 421.227 -5.2655 -0.701298 0
M  V30 4408 C 420.266 -6.11867 0.168869 0
M  V30 4409 N 419.403 -6.98973 -0.661855 0
M  V30 4410 H 424.243 -2.81767 0.970135 0
M  V30 4411 H 421.78 -1.38699 0.489994 0
M  V30 4412 H 423.738 -3.99128 -1.2146 0
M  V30 4413 H 422.368 -2.87739 -1.46309 0
M  V30 4414 H 421.42 -3.71756 0.80634 0
M  V30 4415 H 422.732 -4.91644 0.841875 0
M  V30 4416 H 421.886 -5.92937 -1.28494 0
M  V30 4417 H 420.625 -4.66998 -1.40584 0
M  V30 4418 H 419.63 -5.44452 0.764986 0
M  V30 4419 H 420.855 -6.73493 0.870863 0
M  V30 4420 H 418.801 -6.41941 -1.35086 0
M  V30 4421 H 418.718 -7.55984 -0.0484447 0
M  V30 4422 H 419.986 -7.6974 -1.22963 0
M  V30 4423 N 424.215 -0.530993 -1.48385 0
M  V30 4424 C 425.461 0.00274135 -2.028 0
M  V30 4425 C 425.794 1.33838 -1.40716 0
M  V30 4426 O 425.069 1.86465 -0.553277 0
M  V30 4427 C 425.352 0.123676 -3.59888 0
M  V30 4428 C 425.205 -1.2372 -4.3245 0
M  V30 4429 C 426.524 0.849967 -4.31814 0
M  V30 4430 H 423.643 -0.000477758 -0.737 0
M  V30 4431 H 426.285 -0.688217 -1.77098 0
M  V30 4432 H 424.435 0.712157 -3.81917 0
M  V30 4433 H 426.107 -1.86687 -4.21836 0
M  V30 4434 H 424.35 -1.81882 -3.93829 0
M  V30 4435 H 425.021 -1.10557 -5.40815 0
M  V30 4436 H 427.497 0.350572 -4.14621 0
M  V30 4437 H 426.373 0.903486 -5.41413 0
M  V30 4438 H 426.634 1.90047 -3.99167 0
M  V30 4439 N 425.693 1.55336 -0.266172 0
M  V30 4440 C 426.939 1.99692 0.353681 0
M  V30 4441 C 427.272 1.1543 1.56172 0
M  V30 4442 O 426.547 0.222218 1.93226 0
M  V30 4443 C 426.83 3.52316 0.74466 0
M  V30 4444 C 426.683 4.47337 -0.470101 0
M  V30 4445 C 428.002 4.10588 1.58447 0
M  V30 4446 H 425.121 0.725961 0.12708 0
M  V30 4447 H 427.763 1.86336 -0.371333 0
M  V30 4448 H 425.913 3.63829 1.36239 0
M  V30 4449 H 427.585 4.4778 -1.10864 0
M  V30 4450 H 425.828 4.19364 -1.10978 0
M  V30 4451 H 426.499 5.51788 -0.15291 0
M  V30 4452 H 428.975 4.02297 1.06286 0
M  V30 4453 H 427.851 5.17607 1.82686 0
M  V30 4454 H 428.112 3.60253 2.56262 0
M  V30 4455 N 427.171 -0.0066808 1.57599 0
M  V30 4456 C 428.448 -0.729586 1.81484 0
M  V30 4457 C 428.828 -1.92359 0.869558 0
M  V30 4458 O 428.176 -2.28348 -0.0832533 0
M  V30 4459 C 428.386 -1.1416 3.29801 0
M  V30 4460 C 429.734 -1.54823 3.95367 0
M  V30 4461 O 430.758 -1.23558 3.34084 0
M  V30 4462 O 429.617 -2.12937 5.03309 0
M  V30 4463 H 426.711 -0.354674 0.747085 0
M  V30 4464 H 429.257 0.0182609 1.6969 0
M  V30 4465 H 428.029 -0.290231 3.90222 0
M  V30 4466 H 427.652 -1.94876 3.46568 0
M  V30 4467 N 428.649 -1.55105 -0.279332 0
M  V30 4468 C 429.895 -1.75672 -1.01327 0
M  V30 4469 C 430.228 -0.552739 -1.86168 0
M  V30 4470 O 429.503 0.449827 -1.89227 0
M  V30 4471 C 429.786 -3.05825 -1.90114 0
M  V30 4472 C 429.639 -4.36565 -1.08309 0
M  V30 4473 C 430.958 -3.31975 -2.8893 0
M  V30 4474 H 428.077 -0.639149 -0.366957 0
M  V30 4475 H 430.719 -1.87833 -0.286154 0
M  V30 4476 H 428.869 -2.95588 -2.52111 0
M  V30 4477 H 430.541 -4.58751 -0.484314 0
M  V30 4478 H 428.784 -4.32076 -0.386362 0
M  V30 4479 H 429.455 -5.23946 -1.73737 0
M  V30 4480 H 431.931 -3.41963 -2.37067 0
M  V30 4481 H 430.807 -4.2432 -3.48201 0
M  V30 4482 H 431.068 -2.51309 -3.63725 0
M  V30 4483 N 430.127 0.543554 -1.4793 0
M  V30 4484 C 431.376 1.29649 -1.54512 0
M  V30 4485 C 431.689 1.94382 -0.217973 0
M  V30 4486 O 432.895 2.71017 -0.161908 0
M  V30 4487 C 431.351 2.35175 -2.72435 0
M  V30 4488 C 430.959 1.76572 -4.11736 0
M  V30 4489 C 432.703 3.11564 -2.8832 0
M  V30 4490 C 430.61 2.79958 -5.20939 0
M  V30 4491 H 429.54 0.487541 -0.57517 0
M  V30 4492 H 432.191 0.575708 -1.74235 0
M  V30 4493 H 430.573 3.10229 -2.46118 0
M  V30 4494 H 431.747 1.07799 -4.48013 0
M  V30 4495 H 430.062 1.12722 -4.00852 0
M  V30 4496 H 432.659 3.88794 -3.67074 0
M  V30 4497 H 433.002 3.66594 -1.97268 0
M  V30 4498 H 433.535 2.43623 -3.14472 0
M  V30 4499 H 430.274 2.29766 -6.13912 0
M  V30 4500 H 429.794 3.47101 -4.89164 0
M  V30 4501 H 431.473 3.43198 -5.48474 0
M  V30 4502 N 431.605 1.3629 0.791371 0
M  V30 4503 C 432.853 1.30154 1.5461 0
M  V30 4504 C 433.174 -0.119409 1.94634 0
M  V30 4505 O 432.444 -1.05924 1.64794 0
M  V30 4506 H 431.024 0.478784 0.573389 0
M  V30 4507 H 433.686 1.70565 0.94306 0
M  V30 4508 H 432.782 1.92762 2.45457 0
M  V30 4509 N 433.083 -1.0153 1.20538 0
M  V30 4510 C 434.311 -1.78746 1.04199 0
M  V30 4511 C 434.726 -1.84323 -0.408733 0
M  V30 4512 O 434.083 -1.29714 -1.28377 0
M  V30 4513 C 434.134 -3.23152 1.62035 0
M  V30 4514 O 433.855 -3.17918 3.0143 0
M  V30 4515 C 435.356 -4.16911 1.50666 0
M  V30 4516 H 432.576 -0.56208 0.366479 0
M  V30 4517 H 435.12 -1.27794 1.59653 0
M  V30 4518 H 433.275 -3.71248 1.10697 0
M  V30 4519 H 433.689 -4.08567 3.28897 0
M  V30 4520 H 435.163 -5.16072 1.95892 0
M  V30 4521 H 435.64 -4.36791 0.459363 0
M  V30 4522 H 436.246 -3.74698 2.01201 0
M  V30 4523 N 434.561 -1.01147 -1.20859 0
M  V30 4524 C 435.508 -0.577354 -2.23462 0
M  V30 4525 C 436.478 0.399922 -1.61214 0
M  V30 4526 O 437.663 0.300515 -1.88419 0
M  V30 4527 C 434.803 0.083372 -3.44999 0
M  V30 4528 C 433.916 -0.937856 -4.21697 0
M  V30 4529 C 433.051 -0.248717 -5.30617 0
M  V30 4530 C 432.09 -1.25705 -5.99053 0
M  V30 4531 N 431.227 -0.594939 -6.99575 0
M  V30 4532 H 436.067 -1.45695 -2.59956 0
M  V30 4533 H 433.604 -0.729428 -1.27741 0
M  V30 4534 H 435.562 0.483535 -4.14388 0
M  V30 4535 H 434.192 0.926645 -3.09214 0
M  V30 4536 H 433.244 -1.45622 -3.51423 0
M  V30 4537 H 434.556 -1.70493 -4.68757 0
M  V30 4538 H 433.71 0.207215 -6.06346 0
M  V30 4539 H 432.449 0.55071 -4.84581 0
M  V30 4540 H 431.454 -1.72343 -5.2209 0
M  V30 4541 H 432.679 -2.05767 -6.47176 0
M  V30 4542 H 430.625 0.184713 -6.5574 0
M  V30 4543 H 430.542 -1.30017 -7.44736 0
M  V30 4544 H 431.81 -0.162427 -7.79331 0
M  V30 4545 N 436.039 1.36541 -0.78704 0
M  V30 4546 C 437.285 1.99599 -0.358872 0
M  V30 4547 C 437.618 1.62323 1.06606 0
M  V30 4548 O 436.893 0.876858 1.73613 0
M  V30 4549 C 437.176 3.56327 -0.519944 0
M  V30 4550 C 437.029 4.03464 -1.98839 0
M  V30 4551 C 438.348 4.4005 0.0664737 0
M  V30 4552 H 435.467 0.725107 -0.131869 0
M  V30 4553 H 438.109 1.6199 -0.992936 0
M  V30 4554 H 436.259 3.88495 0.0198321 0
M  V30 4555 H 437.931 3.81793 -2.58905 0
M  V30 4556 H 436.174 3.55092 -2.49183 0
M  V30 4557 H 436.845 5.12439 -2.05207 0
M  V30 4558 H 439.321 4.14228 -0.394267 0
M  V30 4559 H 438.197 5.48847 -0.0762682 0
M  V30 4560 H 438.458 4.26655 1.15835 0
M  V30 4561 N 437.518 0.538854 1.48102 0
M  V30 4562 C 438.748 0.0122958 2.06596 0
M  V30 4563 C 439.156 -1.27861 1.39457 0
M  V30 4564 O 438.499 -1.77348 0.478907 0
M  V30 4565 C 438.561 -0.273131 3.58461 0
M  V30 4566 C 438.225 0.92561 4.47528 0
M  V30 4567 C 439.222 1.82637 4.86765 0
M  V30 4568 C 436.907 1.13511 4.89306 0
M  V30 4569 C 438.901 2.92047 5.66558 0
M  V30 4570 C 436.588 2.23233 5.68868 0
M  V30 4571 C 437.586 3.12333 6.07402 0
M  V30 4572 O 437.274 4.20155 6.85365 0
M  V30 4573 H 437.006 0.0344283 0.675123 0
M  V30 4574 H 439.56 0.746494 1.91355 0
M  V30 4575 H 437.79 -1.06141 3.71848 0
M  V30 4576 H 439.479 -0.742842 3.99045 0
M  V30 4577 H 440.245 1.67649 4.55103 0
M  V30 4578 H 436.124 0.450835 4.5879 0
M  V30 4579 H 439.668 3.6162 5.96554 0
M  V30 4580 H 435.565 2.38201 5.99942 0
M  V30 4581 H 436.333 4.17975 7.03732 0
M  V30 4582 N 438.996 -1.55193 0.274407 0
M  V30 4583 C 439.944 -2.23924 -0.629362 0
M  V30 4584 C 440.938 -1.23602 -1.1584 0
M  V30 4585 O 442.144 -1.41535 -1.11211 0
M  V30 4586 H 438.519 -0.718637 -0.221507 0
M  V30 4587 H 440.49 -2.98388 -0.0268322 0
M  V30 4588 C 439.239 -2.97329 -1.80252 0
M  V30 4589 H 438.562 -3.74313 -1.40462 0
M  V30 4590 H 440.002 -3.48743 -2.41152 0
M  V30 4591 C 438.461 -2.0276 -2.69054 0
M  V30 4592 O 438.991 -1.57836 -3.69392 0
M  V30 4593 N 437.197 -1.69275 -2.36208 0
M  V30 4594 H 436.744 -2.06004 -1.54661 0
M  V30 4595 H 436.702 -1.06271 -2.95895 0
M  V30 4596 N 440.474 -0.00167713 -1.576 0
M  V30 4597 C 441.751 0.719951 -1.81868 0
M  V30 4598 C 442.131 1.91895 -0.879747 0
M  V30 4599 O 441.479 2.28389 0.0711423 0
M  V30 4600 C 441.689 1.12409 -3.30402 0
M  V30 4601 C 443.037 1.52724 -3.96182 0
M  V30 4602 O 444.061 1.21784 -3.34734 0
M  V30 4603 O 442.92 2.10265 -5.04431 0
M  V30 4604 H 440.014 0.350707 -0.748955 0
M  V30 4605 H 442.56 -0.0272597 -1.69678 0
M  V30 4606 H 441.332 0.269532 -3.90371 0
M  V30 4607 H 440.955 1.93035 -3.47596 0
M  V30 4608 N 441.952 1.55251 0.271103 0
M  V30 4609 C 443.2 1.75599 1.00047 0
M  V30 4610 C 443.521 0.561188 1.8675 0
M  V30 4611 O 442.791 -0.423846 1.9126 0
M  V30 4612 H 441.371 0.647562 0.372387 0
M  V30 4613 H 444.033 1.92656 0.294876 0
M  V30 4614 H 443.129 2.65766 1.6363 0
M  V30 4615 N 443.43 -0.535701 1.48216 0
M  V30 4616 C 444.34 -1.66785 1.64985 0
M  V30 4617 C 445.356 -1.65654 0.532414 0
M  V30 4618 O 446.532 -1.8471 0.80275 0
M  V30 4619 C 443.597 -3.0326 1.68031 0
M  V30 4620 C 442.658 -3.1529 2.9136 0
M  V30 4621 C 441.891 -4.45255 2.94252 0
M  V30 4622 O 442.114 -5.32011 2.05719 0
M  V30 4623 O 441.048 -4.6153 3.86359 0
M  V30 4624 H 444.874 -1.55576 2.60825 0
M  V30 4625 H 442.459 -0.70815 1.31551 0
M  V30 4626 H 444.341 -3.84436 1.72589 0
M  V30 4627 H 443.016 -3.14805 0.753628 0
M  V30 4628 H 441.923 -2.3343 2.92337 0
M  V30 4629 H 443.256 -3.08658 3.83394 0
M  V30 4630 N 444.908 -1.36708 -0.784132 0
M  V30 4631 C 445.84 -1.27333 -1.90575 0
M  V30 4632 C 446.853 -0.191706 -1.61667 0
M  V30 4633 O 448.042 -0.446854 -1.72816 0
M  V30 4634 C 445.142 -0.943177 -3.25511 0
M  V30 4635 C 444.315 -2.12776 -3.82158 0
M  V30 4636 C 443.374 -1.76983 -4.95544 0
M  V30 4637 O 442.4 -2.49134 -5.11782 0
M  V30 4638 N 443.602 -0.706624 -5.76183 0
M  V30 4639 H 446.367 -2.23974 -1.99138 0
M  V30 4640 H 443.928 -1.30171 -0.962656 0
M  V30 4641 H 445.92 -0.684799 -3.98864 0
M  V30 4642 H 444.49 -0.0657333 -3.12531 0
M  V30 4643 H 443.71 -2.54863 -3.0073 0
M  V30 4644 H 444.998 -2.91904 -4.16737 0
M  V30 4645 H 444.396 -0.107643 -5.65598 0
M  V30 4646 H 442.953 -0.50808 -6.49817 0
M  V30 4647 N 446.386 1.0089 -1.21074 0
M  V30 4648 C 447.635 1.74019 -1.01981 0
M  V30 4649 C 447.948 1.90408 0.447665 0
M  V30 4650 O 449.154 2.60707 0.757906 0
M  V30 4651 C 447.61 3.13026 -1.77603 0
M  V30 4652 C 447.218 3.04623 -3.28495 0
M  V30 4653 C 448.962 3.90312 -1.66904 0
M  V30 4654 C 446.869 4.38685 -3.96623 0
M  V30 4655 H 445.799 0.652422 -0.377971 0
M  V30 4656 H 448.45 1.12755 -1.44771 0
M  V30 4657 H 446.832 3.74878 -1.27604 0
M  V30 4658 H 448.006 2.52032 -3.85767 0
M  V30 4659 H 446.321 2.40827 -3.39693 0
M  V30 4660 H 448.918 4.8951 -2.15138 0
M  V30 4661 H 449.261 4.11558 -0.62658 0
M  V30 4662 H 449.794 3.35104 -2.14359 0
M  V30 4663 H 446.533 4.22641 -5.01054 0
M  V30 4664 H 446.053 4.91252 -3.4414 0
M  V30 4665 H 447.732 5.075 -4.01314 0
M  V30 4666 N 447.864 1.01787 1.20321 0
M  V30 4667 C 449.113 0.703249 1.89043 0
M  V30 4668 C 449.426 -0.770445 1.79787 0
M  V30 4669 O 450.632 -1.19767 2.43656 0
M  V30 4670 C 449.088 1.20749 3.3904 0
M  V30 4671 C 448.696 2.70817 3.56878 0
M  V30 4672 C 450.44 0.968352 4.13308 0
M  V30 4673 C 448.347 3.14716 5.00708 0
M  V30 4674 H 447.277 0.259354 0.707991 0
M  V30 4675 H 449.928 1.23072 1.36108 0
M  V30 4676 H 448.31 0.607989 3.91305 0
M  V30 4677 H 449.484 3.36327 3.14993 0
M  V30 4678 H 447.799 2.92888 2.95983 0
M  V30 4679 H 450.396 1.27173 5.19356 0
M  V30 4680 H 450.739 -0.095149 4.16191 0
M  V30 4681 H 451.272 1.53129 3.67146 0
M  V30 4682 H 448.011 4.20347 5.02979 0
M  V30 4683 H 447.531 2.53927 5.43398 0
M  V30 4684 H 449.21 3.07426 5.69296 0
M  V30 4685 N 449.342 -1.36122 0.79427 0
M  V30 4686 C 450.305 -2.28309 0.201889 0
M  V30 4687 C 451.305 -1.49041 -0.603603 0
M  V30 4688 O 452.495 -1.68964 -0.423888 0
M  V30 4689 C 449.627 -3.3321 -0.719978 0
M  V30 4690 H 450.82 -2.82208 1.01481 0
M  V30 4691 H 448.373 -1.45768 0.564037 0
M  V30 4692 H 449.108 -2.84475 -1.55706 0
M  V30 4693 H 448.893 -3.91835 -0.144266 0
M  V30 4694 H 450.383 -4.02044 -1.12916 0
M  V30 4695 N 450.82 -0.546701 -1.47814 0
M  V30 4696 C 451.752 0.244196 -2.27895 0
M  V30 4697 C 452.765 0.88911 -1.36377 0
M  V30 4698 O 453.954 0.764733 -1.61289 0
M  V30 4699 C 451.054 1.36252 -3.10304 0
M  V30 4700 C 450.227 0.816382 -4.29714 0
M  V30 4701 C 449.286 1.81789 -4.93801 0
M  V30 4702 O 448.312 1.36818 -5.52512 0
M  V30 4703 N 449.514 3.15085 -4.87547 0
M  V30 4704 H 452.279 -0.442694 -2.96412 0
M  V30 4705 H 449.84 -0.382095 -1.57327 0
M  V30 4706 H 451.832 2.03102 -3.50045 0
M  V30 4707 H 450.402 1.95281 -2.44099 0
M  V30 4708 H 449.622 -0.0285981 -3.9419 0
M  V30 4709 H 450.91 0.430668 -5.06974 0
M  V30 4710 H 450.308 3.54275 -4.41028 0
M  V30 4711 H 448.865 3.77522 -5.31339 0
M  V30 4712 N 452.299 1.55045 -0.282633 0
M  V30 4713 C 453.547 1.99365 0.331334 0
M  V30 4714 C 453.868 1.1725 1.55812 0
M  V30 4715 O 453.138 0.263871 1.94115 0
M  V30 4716 H 451.718 0.736397 0.125414 0
M  V30 4717 H 454.38 1.90964 -0.389711 0
M  V30 4718 H 453.476 3.0596 0.616036 0
M  V30 4719 N 453.777 0.010035 1.57597 0
M  V30 4720 C 455.054 -0.710296 1.82248 0
M  V30 4721 C 455.434 -1.91426 0.889911 0
M  V30 4722 O 454.782 -2.28424 -0.0590292 0
M  V30 4723 C 454.992 -1.10655 3.30993 0
M  V30 4724 C 456.34 -1.50621 3.96987 0
M  V30 4725 O 457.364 -1.20007 3.35375 0
M  V30 4726 O 456.223 -2.07587 5.05539 0
M  V30 4727 H 453.317 -0.34673 0.750804 0
M  V30 4728 H 455.863 0.0362578 1.69661 0
M  V30 4729 H 454.635 -0.248826 3.90508 0
M  V30 4730 H 454.258 -1.91189 3.48615 0
M  V30 4731 N 455.255 -1.55392 -0.262866 0
M  V30 4732 C 456.48 -1.80847 -1.01533 0
M  V30 4733 C 456.905 -0.584946 -1.78774 0
M  V30 4734 O 456.263 0.465701 -1.75217 0
M  V30 4735 C 456.311 -3.03866 -1.94159 0
M  V30 4736 O 455.415 -2.79662 -3.03089 0
M  V30 4737 H 454.756 -0.597441 -0.289759 0
M  V30 4738 H 457.286 -2.02553 -0.288698 0
M  V30 4739 H 457.296 -3.32872 -2.35924 0
M  V30 4740 H 455.971 -3.92564 -1.37354 0
M  V30 4741 H 454.548 -2.61781 -2.65566 0
M  V30 4742 N 456.733 0.527833 -1.48498 0
M  V30 4743 C 457.696 1.61439 -1.62696 0
M  V30 4744 C 458.696 1.52824 -0.500136 0
M  V30 4745 O 459.886 1.56456 -0.765976 0
M  V30 4746 C 457.018 3.01063 -1.59918 0
M  V30 4747 H 458.211 1.50189 -2.59583 0
M  V30 4748 H 455.764 0.750055 -1.37127 0
M  V30 4749 H 456.499 3.17818 -0.645163 0
M  V30 4750 H 456.284 3.08725 -2.41726 0
M  V30 4751 H 457.774 3.80057 -1.73051 0
M  V30 4752 N 458.211 1.37122 0.776871 0
M  V30 4753 C 459.488 1.22586 1.52421 0
M  V30 4754 C 459.868 -0.182726 2.10308 0
M  V30 4755 O 459.216 -1.18979 1.9508 0
M  V30 4756 C 459.426 2.31782 2.60918 0
M  V30 4757 C 460.774 2.69071 3.2846 0
M  V30 4758 O 461.798 2.3092 2.71209 0
M  V30 4759 O 460.657 3.3478 4.31954 0
M  V30 4760 H 457.751 0.478045 0.674835 0
M  V30 4761 H 460.297 1.48888 0.814275 0
M  V30 4762 H 459.069 3.26131 2.16227 0
M  V30 4763 H 458.692 2.06916 3.39517 0
M  V30 4764 N 459.689 -1.00246 1.21608 0
M  V30 4765 C 460.914 -1.78167 1.06167 0
M  V30 4766 C 461.339 -1.84138 -0.384035 0
M  V30 4767 O 460.697 -1.28683 -1.27712 0
M  V30 4768 C 460.745 -3.19786 1.66642 0
M  V30 4769 O 459.849 -4.02153 0.913613 0
M  V30 4770 H 459.19 -0.549 0.37349 0
M  V30 4771 H 461.72 -1.25994 1.61204 0
M  V30 4772 H 461.73 -3.70451 1.70969 0
M  V30 4773 H 460.405 -3.14754 2.7185 0
M  V30 4774 H 458.982 -3.60711 0.945635 0
M  V30 4775 N 461.167 -1.02423 -1.1978 0
M  V30 4776 C 462.414 -0.717988 -1.89344 0
M  V30 4777 C 462.742 0.753036 -1.79331 0
M  V30 4778 O 461.997 1.56355 -1.17692 0
M  V30 4779 C 462.296 -1.1088 -3.39765 0
M  V30 4780 C 461.962 -2.57731 -3.6998 0
M  V30 4781 C 460.624 -2.97854 -3.77937 0
M  V30 4782 C 462.976 -3.52763 -3.83677 0
M  V30 4783 C 460.304 -4.31931 -3.97054 0
M  V30 4784 C 462.656 -4.86538 -4.04306 0
M  V30 4785 C 461.32 -5.26356 -4.10494 0
M  V30 4786 H 460.59 -0.26273 -0.692859 0
M  V30 4787 H 463.237 -1.28623 -1.41875 0
M  V30 4788 H 461.542 -0.459094 -3.89101 0
M  V30 4789 H 463.239 -0.849432 -3.919 0
M  V30 4790 H 459.829 -2.25646 -3.64393 0
M  V30 4791 H 464.013 -3.2292 -3.76877 0
M  V30 4792 H 459.269 -4.62324 -4.00083 0
M  V30 4793 H 463.443 -5.60093 -4.13846 0
M  V30 4794 H 461.07 -6.3026 -4.2506 0
M  V30 4795 N 462.645 1.35699 -0.801477 0
M  V30 4796 C 463.892 1.98913 -0.379459 0
M  V30 4797 C 464.22 1.63592 1.05204 0
M  V30 4798 O 463.475 0.888563 1.74365 0
M  V30 4799 C 463.774 3.53828 -0.504041 0
M  V30 4800 C 463.44 4.09002 -1.8981 0
M  V30 4801 C 462.102 4.23783 -2.27951 0
M  V30 4802 C 464.454 4.38939 -2.81038 0
M  V30 4803 C 461.782 4.65816 -3.56696 0
M  V30 4804 C 464.134 4.82409 -4.09224 0
M  V30 4805 C 462.798 4.95395 -4.4737 0
M  V30 4806 H 462.068 0.727874 -0.138854 0
M  V30 4807 H 464.715 1.61994 -1.02128 0
M  V30 4808 H 463.02 3.91175 0.221242 0
M  V30 4809 H 464.717 4.00687 -0.158361 0
M  V30 4810 H 461.307 3.97946 -1.59176 0
M  V30 4811 H 465.491 4.27077 -2.52821 0
M  V30 4812 H 460.747 4.74059 -3.86106 0
M  V30 4813 H 464.921 5.04535 -4.80018 0
M  V30 4814 H 462.548 5.27724 -5.47185 0
M  V30 4815 N 464.123 0.554532 1.47522 0
M  V30 4816 C 465.372 0.0273458 2.01681 0
M  V30 4817 C 465.685 -1.32962 1.43459 0
M  V30 4818 O 466.891 -1.94657 1.89265 0
M  V30 4819 C 465.347 -0.00159057 3.599 0
M  V30 4820 C 464.955 1.35197 4.27113 0
M  V30 4821 C 466.699 -0.476311 4.21819 0
M  V30 4822 C 464.606 1.28229 5.77331 0
M  V30 4823 H 463.536 0.00645269 0.753972 0
M  V30 4824 H 466.187 0.701985 1.69542 0
M  V30 4825 H 464.569 -0.741821 3.8899 0
M  V30 4826 H 465.743 2.1097 4.09668 0
M  V30 4827 H 464.058 1.76441 3.77171 0
M  V30 4828 H 466.655 -0.5468 5.31897 0
M  V30 4829 H 466.998 -1.4877 3.8881 0
M  V30 4830 H 467.531 0.20898 3.97251 0
M  V30 4831 H 464.27 2.26959 6.14955 0
M  V30 4832 H 463.79 0.566314 5.97121 0
M  V30 4833 H 465.469 0.983226 6.39485 0
M  V30 4834 N 465.601 -1.54893 0.290851 0
M  V30 4835 C 466.847 -2.0023 -0.321867 0
M  V30 4836 C 467.18 -1.179 -1.54316 0
M  V30 4837 O 466.455 -0.25293 -1.92848 0
M  V30 4838 C 466.738 -3.53456 -0.688515 0
M  V30 4839 C 466.591 -4.46532 0.541209 0
M  V30 4840 C 467.91 -4.13057 -1.51895 0
M  V30 4841 H 465.029 -0.727891 -0.115515 0
M  V30 4842 H 467.671 -1.85722 0.400931 0
M  V30 4843 H 465.821 -3.6595 -1.30433 0
M  V30 4844 H 467.493 -4.4596 1.17973 0
M  V30 4845 H 465.736 -4.17545 1.17636 0
M  V30 4846 H 466.407 -5.51475 0.240675 0
M  V30 4847 H 468.883 -4.03937 -0.99872 0
M  V30 4848 H 467.759 -5.20448 -1.74429 0
M  V30 4849 H 468.02 -3.64284 -2.50498 0
M  V30 4850 N 467.08 -0.0183926 -1.57589 0
M  V30 4851 C 467.99 0.982943 -2.13015 0
M  V30 4852 C 469.006 1.36443 -1.07979 0
M  V30 4853 O 470.182 1.44802 -1.3998 0
M  V30 4854 C 467.247 2.25024 -2.63752 0
M  V30 4855 C 466.308 1.93018 -3.83461 0
M  V30 4856 C 465.541 3.13706 -4.31769 0
M  V30 4857 O 465.764 4.2601 -3.79305 0
M  V30 4858 O 464.698 2.96629 -5.23732 0
M  V30 4859 H 468.524 0.541709 -2.9883 0
M  V30 4860 H 466.109 0.201565 -1.48034 0
M  V30 4861 H 467.991 2.99441 -2.96502 0
M  V30 4862 H 466.666 2.68349 -1.81026 0
M  V30 4863 H 465.573 1.16019 -3.55655 0
M  V30 4864 H 466.906 1.54516 -4.67317 0
M  V30 4865 N 468.558 1.5553 0.254621 0
M  V30 4866 C 469.783 1.81383 1.00573 0
M  V30 4867 C 470.208 0.594419 1.78461 0
M  V30 4868 O 469.566 -0.456403 1.75461 0
M  V30 4869 C 469.614 3.04892 1.92545 0
M  V30 4870 O 468.718 2.81266 3.01601 0
M  V30 4871 H 468.059 0.598969 0.286587 0
M  V30 4872 H 470.589 2.02703 0.277952 0
M  V30 4873 H 470.599 3.34119 2.34155 0
M  V30 4874 H 469.274 3.93287 1.3527 0
M  V30 4875 H 467.851 2.63185 2.64174 0
M  V30 4876 N 470.036 -0.519951 1.48776 0
M  V30 4877 C 471.284 -1.2727 1.56993 0
M  V30 4878 C 471.605 -1.9339 0.25004 0
M  V30 4879 O 470.875 -1.81822 -0.729216 0
M  V30 4880 H 469.455 -0.472732 0.578389 0
M  V30 4881 H 472.117 -0.604234 1.85297 0
M  V30 4882 H 471.213 -2.04669 2.3562 0
M  V30 4883 N 471.514 -1.37532 -0.769588 0
M  V30 4884 C 472.424 -1.35668 -1.91393 0
M  V30 4885 C 473.44 -0.255954 -1.72107 0
M  V30 4886 O 474.616 -0.491704 -1.95305 0
M  V30 4887 C 471.681 -1.16481 -3.26547 0
M  V30 4888 C 470.742 -2.36212 -3.58472 0
M  V30 4889 C 469.975 -2.17932 -4.87177 0
M  V30 4890 O 470.198 -1.1647 -5.58382 0
M  V30 4891 O 469.132 -3.06167 -5.18214 0
M  V30 4892 H 472.958 -2.32055 -1.95918 0
M  V30 4893 H 470.543 -1.18284 -0.912641 0
M  V30 4894 H 472.425 -1.07778 -4.07384 0
M  V30 4895 H 471.1 -0.231687 -3.2287 0
M  V30 4896 H 470.007 -2.50488 -2.77861 0
M  V30 4897 H 471.34 -3.281 -3.66894 0
M  V30 4898 N 472.992 0.995999 -1.22138 0
M  V30 4899 C 474.238 1.73767 -1.04561 0
M  V30 4900 C 474.571 1.89633 0.418698 0
M  V30 4901 O 473.846 1.43723 1.3105 0
M  V30 4902 C 474.129 3.14505 -1.75382 0
M  V30 4903 C 473.982 3.06306 -3.29388 0
M  V30 4904 C 475.301 4.13615 -1.50369 0
M  V30 4905 H 472.42 0.630728 -0.38125 0
M  V30 4906 H 475.062 1.16057 -1.50435 0
M  V30 4907 H 473.212 3.63775 -1.36383 0
M  V30 4908 H 474.884 2.64681 -3.77812 0
M  V30 4909 H 473.127 2.43186 -3.59226 0
M  V30 4910 H 473.798 4.05884 -3.74116 0
M  V30 4911 H 476.274 3.73089 -1.84239 0
M  V30 4912 H 475.15 5.10212 -2.02421 0
M  V30 4913 H 475.411 4.39949 -0.435611 0
M  V30 4914 N 474.47 1.03057 1.19235 0
M  V30 4915 C 475.417 0.612832 2.22515 0
M  V30 4916 C 476.387 -0.374224 1.61829 0
M  V30 4917 O 477.572 -0.270501 1.88873 0
M  V30 4918 C 474.712 -0.028475 3.45088 0
M  V30 4919 C 473.825 1.00483 4.20151 0
M  V30 4920 C 472.96 0.333102 5.30155 0
M  V30 4921 C 471.999 1.3522 5.96977 0
M  V30 4922 N 471.136 0.70616 6.9854 0
M  V30 4923 H 475.976 1.49812 2.57605 0
M  V30 4924 H 473.513 0.749658 1.26564 0
M  V30 4925 H 475.471 -0.417548 4.15105 0
M  V30 4926 H 474.101 -0.877334 3.10649 0
M  V30 4927 H 473.153 1.51194 3.49062 0
M  V30 4928 H 474.465 1.77929 4.65986 0
M  V30 4929 H 473.619 -0.110725 6.06599 0
M  V30 4930 H 472.358 -0.473547 4.85396 0
M  V30 4931 H 471.363 1.80627 5.19282 0
M  V30 4932 H 472.588 2.16037 6.4382 0
M  V30 4933 H 470.534 -0.0803667 6.55951 0
M  V30 4934 H 470.451 1.41848 7.42573 0
M  V30 4935 H 471.719 0.286391 7.78974 0
M  V30 4936 N 475.948 -1.35272 0.808662 0
M  V30 4937 C 477.197 -1.97963 0.386483 0
M  V30 4938 C 477.51 -1.64866 -1.05255 0
M  V30 4939 O 478.716 -2.20937 -1.57794 0
M  V30 4940 C 477.172 -3.54162 0.640096 0
M  V30 4941 C 476.78 -3.96166 2.0918 0
M  V30 4942 C 478.524 -4.23553 0.283376 0
M  V30 4943 C 476.431 -5.4522 2.29106 0
M  V30 4944 H 475.361 -0.740742 0.140774 0
M  V30 4945 H 478.012 -1.5431 0.993012 0
M  V30 4946 H 476.394 -3.95983 -0.0364117 0
M  V30 4947 H 477.568 -3.65491 2.80629 0
M  V30 4948 H 475.883 -3.3967 2.40859 0
M  V30 4949 H 478.48 -5.33124 0.410273 0
M  V30 4950 H 478.823 -4.09105 -0.770659 0
M  V30 4951 H 479.356 -3.8716 0.913884 0
M  V30 4952 H 476.095 -5.64638 3.32962 0
M  V30 4953 H 475.615 -5.77457 1.62184 0
M  V30 4954 H 477.294 -6.1171 2.1076 0
M  V30 4955 N 477.426 -0.562348 -1.47226 0
M  V30 4956 C 478.654 -0.0452275 -2.06851 0
M  V30 4957 C 479.069 1.25078 -1.41424 0
M  V30 4958 O 478.426 1.75156 -0.512513 0
M  V30 4959 C 478.477 0.148674 -3.61194 0
M  V30 4960 O 478.198 -1.09602 -4.24169 0
M  V30 4961 C 479.699 0.702488 -4.37699 0
M  V30 4962 H 476.919 -0.0481775 -0.669268 0
M  V30 4963 H 479.463 -0.777223 -1.89155 0
M  V30 4964 H 477.618 0.830817 -3.78386 0
M  V30 4965 H 478.032 -0.896982 -5.16773 0
M  V30 4966 H 479.506 0.78743 -5.46355 0
M  V30 4967 H 479.983 1.71493 -4.04335 0
M  V30 4968 H 480.589 0.0558772 -4.25263 0
M  V30 4969 N 478.904 1.54736 -0.299062 0
M  V30 4970 C 479.837 2.1962 0.619851 0
M  V30 4971 C 480.815 1.16496 1.13434 0
M  V30 4972 O 481.999 1.4513 1.2029 0
M  V30 4973 C 479.126 2.8385 1.84788 0
M  V30 4974 C 478.172 4.00484 1.46679 0
M  V30 4975 S 479.005 5.32926 0.524389 0
M  V30 4976 C 480.161 6.00638 1.76026 0
M  V30 4977 H 480.394 2.97221 0.0686177 0
M  V30 4978 H 477.927 1.54176 -0.0832085 0
M  V30 4979 H 479.885 3.21483 2.55263 0
M  V30 4980 H 478.546 2.06099 2.37028 0
M  V30 4981 H 477.739 4.44201 2.38121 0
M  V30 4982 H 477.341 3.64398 0.842008 0
M  V30 4983 H 479.633 6.21327 2.70109 0
M  V30 4984 H 480.576 6.94805 1.36569 0
M  V30 4985 H 480.984 5.3026 1.93609 0
M  V30 4986 N 480.382 0.0267497 1.57577 0
M  V30 4987 C 481.329 -0.955894 2.10075 0
M  V30 4988 C 482.299 -1.32453 1.00226 0
M  V30 4989 O 483.484 -1.41826 1.27632 0
M  V30 4990 C 480.624 -2.2338 2.6305 0
M  V30 4991 C 479.737 -1.92183 3.86898 0
M  V30 4992 C 478.872 -3.14251 4.28275 0
M  V30 4993 C 477.911 -2.78862 5.44888 0
M  V30 4994 N 477.048 -3.93548 5.81433 0
M  V30 4995 H 481.888 -0.501303 2.93753 0
M  V30 4996 H 479.425 -0.235847 1.45197 0
M  V30 4997 H 481.383 -2.98124 2.91853 0
M  V30 4998 H 480.013 -2.6646 1.82205 0
M  V30 4999 H 479.065 -1.07692 3.64838 0
M  V30 5000 H 480.377 -1.62117 4.7172 0
M  V30 5001 H 479.531 -3.97317 4.58502 0
M  V30 5002 H 478.27 -3.47476 3.42215 0
M  V30 5003 H 477.275 -1.94208 5.14357 0
M  V30 5004 H 478.5 -2.46855 6.32645 0
M  V30 5005 H 476.446 -4.2662 4.98328 0
M  V30 5006 H 476.363 -3.67098 6.6089 0
M  V30 5007 H 477.631 -4.77325 6.16264 0
M  V30 5008 N 481.861 -1.55662 -0.24637 0
M  V30 5009 C 483.277 -1.48098 -0.594907 0
M  V30 5010 C 483.477 -0.717044 -1.8831 0
M  V30 5011 O 482.533 -0.246618 -2.51293 0
M  V30 5012 C 483.846 -2.92507 -0.697146 0
M  V30 5013 C 485.394 -3.02881 -0.789436 0
M  V30 5014 C 485.869 -4.48598 -0.923232 0
M  V30 5015 N 487.36 -4.52538 -0.988088 0
M  V30 5016 C 488.095 -5.62536 -1.11089 0
M  V30 5017 N 487.591 -6.82342 -1.19919 0
M  V30 5018 N 489.384 -5.50334 -1.14408 0
M  V30 5019 H 481.535 -2.0377 0.599278 0
M  V30 5020 H 483.798 -0.925145 0.20691 0
M  V30 5021 H 483.504 -3.51242 0.179396 0
M  V30 5022 H 483.378 -3.43024 -1.5689 0
M  V30 5023 H 485.765 -2.44226 -1.65643 0
M  V30 5024 H 485.846 -2.55574 0.107482 0
M  V30 5025 H 485.49 -5.07864 -0.0607927 0
M  V30 5026 H 485.42 -4.93587 -1.8352 0
M  V30 5027 H 487.911 -3.66248 -0.931167 0
M  V30 5028 H 488.224 -7.61924 -1.29197 0
M  V30 5029 H 486.569 -6.85102 -1.16876 0
M  V30 5030 H 489.76 -4.5567 -1.07158 0
M  V30 5031 H 489.933 -6.36096 -1.23634 0
M  V30 5032 N 483.339 0.512053 -1.4905 0
M  V30 5033 C 484.286 1.6148 -1.64902 0
M  V30 5034 C 485.256 1.58687 -0.490673 0
M  V30 5035 O 486.441 1.76842 -0.71636 0
M  V30 5036 C 483.581 2.99676 -1.71139 0
M  V30 5037 C 482.694 3.12568 -2.98203 0
M  V30 5038 C 481.829 4.4143 -2.95487 0
M  V30 5039 C 480.868 4.47916 -4.17179 0
M  V30 5040 N 480.005 5.68191 -4.12437 0
M  V30 5041 H 484.845 1.47271 -2.59066 0
M  V30 5042 H 482.382 0.716713 -1.28459 0
M  V30 5043 H 484.34 3.79761 -1.72736 0
M  V30 5044 H 482.97 3.12614 -0.804508 0
M  V30 5045 H 482.022 2.25618 -3.06269 0
M  V30 5046 H 483.334 3.1322 -3.88194 0
M  V30 5047 H 482.488 5.29825 -2.95585 0
M  V30 5048 H 481.227 4.43326 -2.03256 0
M  V30 5049 H 480.232 3.57925 -4.17337 0
M  V30 5050 H 481.457 4.47744 -5.1059 0
M  V30 5051 H 479.403 5.7095 -3.23036 0
M  V30 5052 H 479.32 5.70413 -4.96151 0
M  V30 5053 H 480.588 6.58823 -4.16621 0
M  V30 5054 N 484.817 1.37938 0.762283 0
M  V30 5055 C 486.065 1.33404 1.51815 0
M  V30 5056 C 486.386 -0.0780975 1.94844 0
M  V30 5057 O 485.656 -1.02405 1.67003 0
M  V30 5058 H 484.236 0.490839 0.563104 0
M  V30 5059 H 486.898 1.72527 0.906669 0
M  V30 5060 H 485.994 1.97926 2.41313 0
M  V30 5061 N 486.295 -0.989507 1.22664 0
M  V30 5062 C 487.242 -2.08024 0.999733 0
M  V30 5063 C 488.212 -1.65909 -0.0797047 0
M  V30 5064 O 489.397 -1.90669 0.0705715 0
M  V30 5065 C 486.537 -3.40067 0.587234 0
M  V30 5066 C 485.65 -3.95505 1.73781 0
M  V30 5067 C 484.785 -5.15722 1.27297 0
M  V30 5068 C 483.824 -5.63305 2.39488 0
M  V30 5069 N 482.961 -6.74758 1.94026 0
M  V30 5070 H 487.801 -2.26768 1.9334 0
M  V30 5071 H 485.338 -1.11171 0.963297 0
M  V30 5072 H 487.296 -4.15899 0.329227 0
M  V30 5073 H 485.926 -3.21314 -0.309426 0
M  V30 5074 H 484.978 -3.16513 2.11006 0
M  V30 5075 H 486.29 -4.26797 2.58158 0
M  V30 5076 H 485.444 -5.98854 0.972546 0
M  V30 5077 H 484.183 -4.86061 0.399445 0
M  V30 5078 H 483.188 -4.78759 2.70315 0
M  V30 5079 H 484.413 -5.94988 3.27362 0
M  V30 5080 H 482.359 -6.46874 1.09041 0
M  V30 5081 H 482.276 -7.05386 2.71968 0
M  V30 5082 H 483.544 -7.61387 1.67062 0
M  V30 5083 N 487.773 -1.03688 -1.18687 0
M  V30 5084 C 488.998 -0.757819 -1.93059 0
M  V30 5085 C 489.423 0.678353 -1.75442 0
M  V30 5086 O 488.781 1.46938 -1.06203 0
M  V30 5087 C 488.829 -1.12423 -3.42627 0
M  V30 5088 O 487.933 -0.247505 -4.11657 0
M  V30 5089 H 487.274 -0.279245 -0.602427 0
M  V30 5090 H 489.804 -1.3857 -1.5053 0
M  V30 5091 H 489.814 -1.08454 -3.93322 0
M  V30 5092 H 488.489 -2.17049 -3.54771 0
M  V30 5093 H 487.066 -0.34649 -3.71287 0
M  V30 5094 N 489.251 1.34841 -0.815825 0
M  V30 5095 C 490.161 2.33425 -0.234462 0
M  V30 5096 C 491.177 1.62295 0.627413 0
M  V30 5097 O 492.353 1.94109 0.536987 0
M  V30 5098 C 489.418 3.41471 0.599849 0
M  V30 5099 C 488.479 4.28362 -0.283596 0
M  V30 5100 C 487.712 5.31248 0.51099 0
M  V30 5101 O 487.935 5.43056 1.7449 0
M  V30 5102 O 486.869 6.01812 -0.10297 0
M  V30 5103 H 490.695 2.84962 -1.05024 0
M  V30 5104 H 488.28 1.37774 -0.577809 0
M  V30 5105 H 490.162 4.07464 1.07475 0
M  V30 5106 H 488.837 2.9219 1.39308 0
M  V30 5107 H 487.744 3.65318 -0.805836 0
M  V30 5108 H 489.077 4.81066 -1.041 0
M  V30 5109 N 490.729 0.570148 1.46925 0
M  V30 5110 C 491.975 0.0510284 2.02736 0
M  V30 5111 C 492.308 -1.3006 1.44215 0
M  V30 5112 O 491.583 -1.84932 0.602521 0
M  V30 5113 C 491.866 -0.028215 3.60089 0
M  V30 5114 C 491.719 1.35142 4.29018 0
M  V30 5115 C 493.038 -0.735181 4.33916 0
M  V30 5116 H 490.157 0.0200178 0.736728 0
M  V30 5117 H 492.799 0.73493 1.75211 0
M  V30 5118 H 490.949 -0.610648 3.83671 0
M  V30 5119 H 492.621 1.97806 4.16738 0
M  V30 5120 H 490.864 1.9226 3.88868 0
M  V30 5121 H 491.535 1.24857 5.37694 0
M  V30 5122 H 494.011 -0.240519 4.15404 0
M  V30 5123 H 492.887 -0.759622 5.43618 0
M  V30 5124 H 493.148 -1.79397 4.04066 0
M  V30 5125 N 492.207 -1.54576 0.307264 0
M  V30 5126 C 493.117 -2.27435 -0.57536 0
M  V30 5127 C 494.133 -1.31183 -1.14311 0
M  V30 5128 O 495.309 -1.64175 -1.16656 0
M  V30 5129 C 492.374 -3.00566 -1.72803 0
M  V30 5130 C 491.435 -4.12369 -1.19373 0
M  V30 5131 C 490.668 -4.82003 -2.29147 0
M  V30 5132 O 490.891 -4.51038 -3.49171 0
M  V30 5133 O 489.825 -5.69271 -1.95485 0
M  V30 5134 H 493.651 -3.03696 0.0158558 0
M  V30 5135 H 491.236 -1.49219 0.0735064 0
M  V30 5136 H 493.118 -3.46416 -2.39946 0
M  V30 5137 H 491.793 -2.27195 -2.30574 0
M  V30 5138 H 490.7 -3.70905 -0.487851 0
M  V30 5139 H 492.033 -4.87736 -0.661376 0
M  V30 5140 N 493.685 -0.035106 -1.57561 0
M  V30 5141 C 494.595 0.960295 -2.14046 0
M  V30 5142 C 495.611 1.3529 -1.0942 0
M  V30 5143 O 496.787 1.43309 -1.41508 0
M  V30 5144 C 493.852 2.22214 -2.66124 0
M  V30 5145 C 492.913 1.8894 -3.85487 0
M  V30 5146 C 492.146 3.09109 -4.35072 0
M  V30 5147 O 492.369 4.21963 -3.83802 0
M  V30 5148 O 491.303 2.91058 -5.26848 0
M  V30 5149 H 495.129 0.509983 -2.99387 0
M  V30 5150 H 492.714 0.185853 -1.48239 0
M  V30 5151 H 494.596 2.96279 -2.99661 0
M  V30 5152 H 493.271 2.66414 -1.83862 0
M  V30 5153 H 492.178 1.12241 -3.56865 0
M  V30 5154 H 493.511 1.49551 -4.6893 0
M  V30 5155 N 495.163 1.55791 0.238111 0
M  V30 5156 C 496.111 1.91885 1.31464 0
M  V30 5157 C 497.105 0.798929 1.49377 0
M  V30 5158 O 498.311 0.983626 1.50747 0
M  V30 5159 H 494.686 0.609551 0.440399 0
M  V30 5160 H 496.657 2.81747 0.982925 0
M  V30 5161 C 495.406 2.23763 2.6613 0
M  V30 5162 H 494.729 3.09444 2.53149 0
M  V30 5163 H 496.169 2.52915 3.40309 0
M  V30 5164 C 494.628 1.05699 3.1989 0
M  V30 5165 O 495.158 0.309524 4.00506 0
M  V30 5166 N 493.364 0.845251 2.78036 0
M  V30 5167 H 492.911 1.4548 2.12588 0
M  V30 5168 H 492.869 0.0569973 3.14348 0
M  V30 5169 N 496.642 -0.504142 1.49319 0
M  V30 5170 C 497.89 -1.25598 1.58334 0
M  V30 5171 C 498.211 -1.93114 0.270538 0
M  V30 5172 O 497.481 -1.82585 -0.709891 0
M  V30 5173 H 496.061 -0.466571 0.58337 0
M  V30 5174 H 498.723 -0.584547 1.85928 0
M  V30 5175 H 497.819 -2.02159 2.37778 0
M  V30 5176 N 498.12 -1.38341 -0.754957 0
M  V30 5177 C 499.083 -1.35262 -1.85032 0
M  V30 5178 C 500.083 -0.253393 -1.58791 0
M  V30 5179 O 501.273 -0.510205 -1.66561 0
M  V30 5180 C 498.405 -1.10544 -3.22479 0
M  V30 5181 H 499.598 -2.32712 -1.8917 0
M  V30 5182 H 497.151 -1.23614 -0.956515 0
M  V30 5183 H 497.886 -0.136952 -3.24011 0
M  V30 5184 H 497.671 -1.90127 -3.4292 0
M  V30 5185 H 499.161 -1.11082 -4.02555 0
M  V30 5186 N 499.598 0.982988 -1.23187 0
M  V30 5187 C 500.844 1.72648 -1.06398 0
M  V30 5188 C 501.177 1.90066 0.398561 0
M  V30 5189 O 500.452 1.45105 1.29518 0
M  V30 5190 C 500.735 3.12627 -1.78707 0
M  V30 5191 C 500.588 3.02795 -3.32618 0
M  V30 5192 C 501.907 4.11997 -1.54747 0
M  V30 5193 H 499.026 0.626649 -0.387918 0
M  V30 5194 H 501.668 1.14455 -1.51658 0
M  V30 5195 H 499.818 3.62308 -1.40234 0
M  V30 5196 H 501.49 2.60659 -3.80598 0
M  V30 5197 H 499.733 2.39362 -3.61785 0
M  V30 5198 H 500.404 4.01893 -3.78399 0
M  V30 5199 H 502.88 3.71114 -1.88186 0
M  V30 5200 H 501.756 5.08037 -2.07821 0
M  V30 5201 H 502.017 4.39462 -0.482249 0
M  V30 5202 N 501.076 1.04316 1.18135 0
M  V30 5203 C 501.986 0.646876 2.25505 0
M  V30 5204 C 503.002 -0.328008 1.7088 0
M  V30 5205 O 504.178 -0.182309 2.00573 0
M  V30 5206 C 501.243 0.0185664 3.46695 0
M  V30 5207 C 500.304 1.04277 4.16443 0
M  V30 5208 C 499.537 0.444352 5.31847 0
M  V30 5209 O 499.76 -0.748735 5.65465 0
M  V30 5210 O 498.694 1.17428 5.90334 0
M  V30 5211 H 502.52 1.54147 2.61672 0
M  V30 5212 H 500.105 0.814188 1.25265 0
M  V30 5213 H 501.987 -0.331068 4.20097 0
M  V30 5214 H 500.662 -0.849814 3.12346 0
M  V30 5215 H 499.569 1.44425 3.45098 0
M  V30 5216 H 500.902 1.882 4.54798 0
M  V30 5217 N 502.554 -1.34406 0.822964 0
M  V30 5218 C 503.803 -1.97542 0.407458 0
M  V30 5219 C 504.116 -1.65973 -1.035 0
M  V30 5220 O 505.322 -2.22598 -1.55442 0
M  V30 5221 C 503.778 -3.53463 0.677623 0
M  V30 5222 C 503.386 -3.93925 2.1337 0
M  V30 5223 C 505.13 -4.23229 0.328284 0
M  V30 5224 C 503.037 -5.42759 2.34876 0
M  V30 5225 H 501.967 -0.739207 0.148623 0
M  V30 5226 H 504.618 -1.53248 1.00932 0
M  V30 5227 H 503 -3.96 0.00558965 0
M  V30 5228 H 504.174 -3.62494 2.8449 0
M  V30 5229 H 502.489 -3.37097 2.44448 0
M  V30 5230 H 505.086 -5.32659 0.466794 0
M  V30 5231 H 505.429 -4.09899 -0.727224 0
M  V30 5232 H 505.962 -3.86169 0.954896 0
M  V30 5233 H 502.701 -5.61075 3.38932 0
M  V30 5234 H 502.221 -5.75704 1.68299 0
M  V30 5235 H 503.9 -6.0944 2.17236 0
M  V30 5236 N 504.032 -0.577932 -1.46621 0
M  V30 5237 C 504.995 0.147805 -2.28723 0
M  V30 5238 C 505.995 0.823325 -1.38123 0
M  V30 5239 O 507.185 0.676011 -1.60548 0
M  V30 5240 C 504.317 1.21853 -3.18378 0
M  V30 5241 H 505.51 -0.573654 -2.94362 0
M  V30 5242 H 503.063 -0.335703 -1.52652 0
M  V30 5243 H 503.798 1.97173 -2.57475 0
M  V30 5244 H 503.583 0.738714 -3.85078 0
M  V30 5245 H 505.073 1.72768 -3.80186 0
M  V30 5246 N 505.51 1.54411 -0.315457 0
M  V30 5247 C 506.926 1.59556 0.037464 0
M  V30 5248 C 507.126 1.33217 1.5118 0
M  V30 5249 O 506.182 1.11264 2.26664 0
M  V30 5250 C 507.495 2.98372 -0.373477 0
M  V30 5251 C 509.043 3.11324 -0.323452 0
M  V30 5252 C 509.518 4.52472 -0.709433 0
M  V30 5253 N 511.009 4.58437 -0.662524 0
M  V30 5254 C 511.744 5.65751 -0.933474 0
M  V30 5255 N 511.24 6.81039 -1.27114 0
M  V30 5256 N 513.033 5.55489 -0.859573 0
M  V30 5257 H 505.184 1.6979 -1.27614 0
M  V30 5258 H 507.447 0.793732 -0.518356 0
M  V30 5259 H 507.153 3.22618 -1.40037 0
M  V30 5260 H 507.027 3.76264 0.265615 0
M  V30 5261 H 509.414 2.86818 0.694223 0
M  V30 5262 H 509.495 2.35555 -0.997367 0
M  V30 5263 H 509.139 4.7771 -1.72498 0
M  V30 5264 H 509.069 5.26598 -0.0132923 0
M  V30 5265 H 511.56 3.75636 -0.413065 0
M  V30 5266 H 511.873 7.58816 -1.46348 0
M  V30 5267 H 510.218 6.82555 -1.30932 0
M  V30 5268 H 513.409 4.64299 -0.595324 0
M  V30 5269 H 513.582 6.39036 -1.0741 0
M  V30 5270 N 506.988 0.0434614 1.5754 0
M  V30 5271 C 508.228 -0.636023 1.94253 0
M  V30 5272 C 508.592 -1.68461 0.921132 0
M  V30 5273 O 509.793 -2.41762 1.17494 0
M  V30 5274 C 508.064 -1.22357 3.35803 0
M  V30 5275 S 509.623 -1.92213 3.94461 0
M  V30 5276 H 506.441 -0.209041 0.679575 0
M  V30 5277 H 509.043 0.110556 1.95187 0
M  V30 5278 H 507.747 -0.448162 4.07946 0
M  V30 5279 H 507.278 -2.00713 3.38346 0
M  V30 5280 H 509.293 -3.20199 3.79061 0
M  V30 5281 N 508.466 -1.55915 -0.229846 0
M  V30 5282 C 509.691 -1.8296 -0.976743 0
M  V30 5283 C 510.116 -0.622735 -1.77493 0
M  V30 5284 O 509.474 0.428431 -1.76165 0
M  V30 5285 C 509.522 -3.07916 -1.8767 0
M  V30 5286 O 508.626 -2.86028 -2.97088 0
M  V30 5287 H 507.967 -0.603453 -0.277021 0
M  V30 5288 H 510.497 -2.0312 -0.245669 0
M  V30 5289 H 510.507 -3.37802 -2.2881 0
M  V30 5290 H 509.182 -3.95389 -1.28996 0
M  V30 5291 H 507.759 -2.67355 -2.59954 0
M  V30 5292 N 509.944 0.496216 -1.49584 0
M  V30 5293 C 511.36 0.827814 -1.36453 0
M  V30 5294 C 511.56 1.97464 -0.401285 0
M  V30 5295 O 510.616 2.51958 0.165296 0
M  V30 5296 C 511.929 1.16352 -2.77277 0
M  V30 5297 C 513.477 1.27145 -2.86013 0
M  V30 5298 C 513.952 1.64042 -4.27615 0
M  V30 5299 N 515.443 1.71082 -4.30448 0
M  V30 5300 C 516.178 2.01085 -5.36984 0
M  V30 5301 N 515.674 2.2928 -6.5376 0
M  V30 5302 N 517.467 2.02376 -5.24405 0
M  V30 5303 H 509.618 -0.259947 -2.10803 0
M  V30 5304 H 511.881 -0.0537163 -0.946477 0
M  V30 5305 H 511.587 0.394153 -3.49484 0
M  V30 5306 H 511.461 2.10582 -3.12946 0
M  V30 5307 H 513.848 2.03152 -2.1404 0
M  V30 5308 H 513.929 0.309542 -2.5392 0
M  V30 5309 H 513.573 0.88583 -5.00115 0
M  V30 5310 H 513.503 2.6134 -4.57175 0
M  V30 5311 H 515.994 1.51434 -3.46232 0
M  V30 5312 H 516.307 2.51376 -7.30774 0
M  V30 5313 H 514.652 2.26726 -6.56978 0
M  V30 5314 H 517.843 1.79829 -4.32179 0
M  V30 5315 H 518.016 2.25425 -6.07526 0
M  V30 5316 N 511.423 1.38739 0.74761 0
M  V30 5317 C 512.671 1.35007 1.50391 0
M  V30 5318 C 512.992 -0.0574274 1.94915 0
M  V30 5319 O 512.262 -1.00628 1.6808 0
M  V30 5320 H 510.842 0.496784 0.557866 0
M  V30 5321 H 513.504 1.73479 0.888319 0
M  V30 5322 H 512.6 2.00474 2.392 0
M  V30 5323 N 512.901 -0.976442 1.23707 0
M  V30 5324 C 513.833 -2.07212 0.979574 0
M  V30 5325 C 514.846 -1.6273 -0.0478528 0
M  V30 5326 O 516.035 -1.77506 0.18815 0
M  V30 5327 C 513.135 -3.35835 0.45479 0
M  V30 5328 C 512.308 -4.09268 1.54331 0
M  V30 5329 C 511.367 -5.16166 1.02271 0
M  V30 5330 O 510.393 -5.42827 1.71254 0
M  V30 5331 N 511.595 -5.80313 -0.147419 0
M  V30 5332 H 514.36 -2.29878 1.92292 0
M  V30 5333 H 511.921 -1.14343 1.14618 0
M  V30 5334 H 513.913 -4.04597 0.0914631 0
M  V30 5335 H 512.483 -3.10106 -0.394068 0
M  V30 5336 H 511.703 -3.34906 2.07923 0
M  V30 5337 H 512.991 -4.55095 2.27522 0
M  V30 5338 H 512.389 -5.61043 -0.724353 0
M  V30 5339 H 510.946 -6.50231 -0.451972 0
M  V30 5340 N 514.379 -1.04941 -1.1758 0
M  V30 5341 C 515.609 -0.777166 -1.91425 0
M  V30 5342 C 516.017 0.670647 -1.76915 0
M  V30 5343 O 515.36 1.46965 -1.10213 0
M  V30 5344 C 515.422 -1.07495 -3.43052 0
M  V30 5345 C 515.086 -2.51844 -3.81345 0
M  V30 5346 C 516.083 -3.50047 -3.844 0
M  V30 5347 C 513.768 -2.86787 -4.12382 0
M  V30 5348 C 515.762 -4.81239 -4.17957 0
M  V30 5349 C 513.449 -4.18182 -4.45608 0
M  V30 5350 C 514.447 -5.15219 -4.48373 0
M  V30 5351 O 514.135 -6.44258 -4.80819 0
M  V30 5352 H 513.867 -0.282209 -0.614275 0
M  V30 5353 H 516.421 -1.40258 -1.50056 0
M  V30 5354 H 514.651 -0.392437 -3.84704 0
M  V30 5355 H 516.34 -0.78912 -3.98155 0
M  V30 5356 H 517.106 -3.24391 -3.60548 0
M  V30 5357 H 512.985 -2.11922 -4.09402 0
M  V30 5358 H 516.529 -5.56974 -4.2003 0
M  V30 5359 H 512.426 -4.43602 -4.68922 0
M  V30 5360 H 513.194 -6.49041 -4.98686 0
M  V30 5361 N 515.857 1.33968 -0.830081 0
M  V30 5362 C 517.104 1.98063 -0.421566 0
M  V30 5363 C 517.432 1.65787 1.0171 0
M  V30 5364 O 516.687 0.925348 1.72441 0
M  V30 5365 C 516.986 3.52679 -0.57898 0
M  V30 5366 C 516.652 4.04884 -1.98443 0
M  V30 5367 C 515.314 4.18852 -2.36888 0
M  V30 5368 C 517.666 4.32879 -2.90285 0
M  V30 5369 C 514.994 4.58145 -3.66497 0
M  V30 5370 C 517.346 4.7362 -4.19364 0
M  V30 5371 C 516.01 4.85794 -4.57778 0
M  V30 5372 H 515.28 0.724765 -0.154262 0
M  V30 5373 H 517.927 1.59792 -1.05541 0
M  V30 5374 H 516.232 3.91556 0.138219 0
M  V30 5375 H 517.929 4.00261 -0.243317 0
M  V30 5376 H 514.519 3.9448 -1.67581 0
M  V30 5377 H 518.703 4.21619 -2.61823 0
M  V30 5378 H 513.959 4.65762 -3.96075 0
M  V30 5379 H 518.133 4.9424 -4.90612 0
M  V30 5380 H 515.76 5.15998 -5.58256 0
M  V30 5381 N 517.335 0.585699 1.46312 0
M  V30 5382 C 518.583 0.072278 2.01971 0
M  V30 5383 C 518.904 -1.29345 1.45928 0
M  V30 5384 O 518.174 -1.84973 0.645109 0
M  V30 5385 H 516.754 0.023729 0.746623 0
M  V30 5386 H 519.416 0.762155 1.7938 0
M  V30 5387 H 518.512 0.00552767 3.121 0
M  V30 5388 N 518.813 -1.54241 0.323641 0
M  V30 5389 C 519.723 -2.28033 -0.551205 0
M  V30 5390 C 520.739 -1.32388 -1.12913 0
M  V30 5391 O 521.915 -1.65403 -1.14908 0
M  V30 5392 C 518.98 -3.02382 -1.69606 0
M  V30 5393 C 518.041 -4.13612 -1.14993 0
M  V30 5394 C 517.274 -4.84407 -2.24022 0
M  V30 5395 O 517.497 -4.54716 -3.44368 0
M  V30 5396 O 516.431 -5.71312 -1.89436 0
M  V30 5397 H 520.257 -3.03662 0.048066 0
M  V30 5398 H 517.842 -1.49133 0.0893289 0
M  V30 5399 H 519.724 -3.48941 -2.36259 0
M  V30 5400 H 518.399 -2.29628 -2.28151 0
M  V30 5401 H 517.306 -3.71402 -0.448484 0
M  V30 5402 H 518.639 -4.8841 -0.609608 0
M  V30 5403 N 520.291 -0.0518155 -1.57515 0
M  V30 5404 C 521.221 0.920283 -2.146 0
M  V30 5405 C 522.202 1.32406 -1.06783 0
M  V30 5406 O 523.387 1.39866 -1.34726 0
M  V30 5407 C 520.517 2.1949 -2.6915 0
M  V30 5408 C 519.471 1.93116 -3.81956 0
M  V30 5409 C 518.797 3.27037 -4.23026 0
M  V30 5410 C 520.097 1.25225 -5.07066 0
M  V30 5411 H 521.791 0.444801 -2.96077 0
M  V30 5412 H 519.337 0.212508 -1.42423 0
M  V30 5413 H 521.29 2.87894 -3.07725 0
M  V30 5414 H 520.014 2.69244 -1.84865 0
M  V30 5415 H 518.673 1.27123 -3.43854 0
M  V30 5416 H 518.321 3.74595 -3.3569 0
M  V30 5417 H 518.021 3.10189 -4.99056 0
M  V30 5418 H 519.545 3.96673 -4.64202 0
M  V30 5419 H 520.959 1.83666 -5.43083 0
M  V30 5420 H 519.356 1.18702 -5.88243 0
M  V30 5421 H 520.426 0.228382 -4.84362 0
M  V30 5422 N 521.769 1.56035 0.221574 0
M  V30 5423 C 522.732 1.91584 1.2581 0
M  V30 5424 C 523.732 0.794425 1.39805 0
M  V30 5425 O 524.922 1.06217 1.38071 0
M  V30 5426 C 522.054 2.16663 2.63192 0
M  V30 5427 H 523.247 2.8429 0.954935 0
M  V30 5428 H 520.8 1.49316 0.461988 0
M  V30 5429 H 521.535 1.26508 2.98607 0
M  V30 5430 H 521.32 2.98358 2.5441 0
M  V30 5431 H 522.81 2.45262 3.37988 0
M  V30 5432 N 523.247 -0.488276 1.49845 0
M  V30 5433 C 524.177 -1.59675 1.70371 0
M  V30 5434 C 525.158 -1.60878 0.552473 0
M  V30 5435 O 526.343 -1.77417 0.78973 0
M  V30 5436 C 523.473 -2.98098 1.782 0
M  V30 5437 C 522.427 -3.11761 2.93239 0
M  V30 5438 C 521.753 -4.51661 2.86193 0
M  V30 5439 C 523.053 -2.90589 4.33999 0
M  V30 5440 H 524.747 -1.42752 2.63177 0
M  V30 5441 H 522.293 -0.685317 1.26647 0
M  V30 5442 H 524.246 -3.75555 1.91144 0
M  V30 5443 H 522.97 -3.16138 0.820018 0
M  V30 5444 H 521.629 -2.36732 2.79917 0
M  V30 5445 H 521.277 -4.66595 1.87877 0
M  V30 5446 H 520.977 -4.61742 3.63412 0
M  V30 5447 H 522.501 -5.31162 3.01163 0
M  V30 5448 H 523.915 -3.57807 4.47936 0
M  V30 5449 H 522.312 -3.1213 5.12538 0
M  V30 5450 H 523.382 -1.86595 4.4756 0
M  V30 5451 N 524.725 -1.39134 -0.740242 0
M  V30 5452 C 525.971 -1.36273 -1.50192 0
M  V30 5453 C 526.304 0.0430136 -1.94152 0
M  V30 5454 O 525.579 1.00691 -1.66408 0
M  V30 5455 C 525.862 -2.33041 -2.74525 0
M  V30 5456 C 525.715 -3.82535 -2.36617 0
M  V30 5457 C 527.034 -2.27723 -3.76604 0
M  V30 5458 H 524.153 -0.496323 -0.544823 0
M  V30 5459 H 526.795 -1.70085 -0.846815 0
M  V30 5460 H 524.945 -2.04337 -3.30422 0
M  V30 5461 H 526.617 -4.21967 -1.86391 0
M  V30 5462 H 524.86 -3.99565 -1.68909 0
M  V30 5463 H 525.531 -4.45723 -3.2563 0
M  V30 5464 H 528.007 -2.53091 -3.30279 0
M  V30 5465 H 526.883 -2.97519 -4.61274 0
M  V30 5466 H 527.144 -1.28049 -4.2315 0
M  V30 5467 N 526.204 0.969867 -1.24223 0
M  V30 5468 C 527.432 1.74756 -1.10761 0
M  V30 5469 C 527.847 1.85713 0.340041 0
M  V30 5470 O 527.204 1.34389 1.23474 0
M  V30 5471 C 527.255 3.16915 -1.73917 0
M  V30 5472 O 526.976 3.06511 -3.13021 0
M  V30 5473 C 528.477 4.11032 -1.66036 0
M  V30 5474 H 525.697 0.548092 -0.387087 0
M  V30 5475 H 528.241 1.2178 -1.64286 0
M  V30 5476 H 526.396 3.66884 -1.244 0
M  V30 5477 H 526.81 3.96079 -3.43834 0
M  V30 5478 H 528.284 5.08446 -2.14911 0
M  V30 5479 H 528.761 4.34785 -0.621159 0
M  V30 5480 H 529.367 3.66972 -2.14969 0
M  V30 5481 N 527.682 1.05563 1.17022 0
M  V30 5482 C 528.63 0.653887 2.2322 0
M  V30 5483 C 529.624 -0.326642 1.66221 0
M  V30 5484 O 530.83 -0.192301 1.7897 0
M  V30 5485 H 527.205 0.193297 0.726733 0
M  V30 5486 H 529.176 1.5596 2.54399 0
M  V30 5487 C 527.925 0.0485434 3.47666 0
M  V30 5488 H 527.248 0.79413 3.91834 0
M  V30 5489 H 528.688 -0.195133 4.23551 0
M  V30 5490 C 527.147 -1.20583 3.14581 0
M  V30 5491 O 527.677 -2.29475 3.29703 0
M  V30 5492 N 525.883 -1.10493 2.68774 0
M  V30 5493 H 525.43 -0.218795 2.56669 0
M  V30 5494 H 525.388 -1.94507 2.47011 0
M  V30 5495 N 529.16 -1.33526 0.837174 0
M  V30 5496 C 530.107 -2.29248 0.267169 0
M  V30 5497 C 531.077 -1.54252 -0.616071 0
M  V30 5498 O 532.262 -1.82559 -0.554699 0
M  V30 5499 C 529.402 -3.40638 -0.553152 0
M  V30 5500 C 528.515 -4.30548 0.353921 0
M  V30 5501 C 527.65 -5.29051 -0.477339 0
M  V30 5502 C 526.689 -6.106 0.42823 0
M  V30 5503 N 525.826 -7.01152 -0.364801 0
M  V30 5504 H 530.666 -2.77398 1.08877 0
M  V30 5505 H 528.203 -1.36496 0.54838 0
M  V30 5506 H 530.161 -4.03921 -1.04422 0
M  V30 5507 H 528.791 -2.93685 -1.33973 0
M  V30 5508 H 527.843 -3.68001 0.963289 0
M  V30 5509 H 529.155 -4.87631 1.04964 0
M  V30 5510 H 528.309 -5.97853 -1.0323 0
M  V30 5511 H 527.048 -4.72541 -1.2065 0
M  V30 5512 H 526.053 -5.40718 0.995219 0
M  V30 5513 H 527.278 -6.69193 1.15573 0
M  V30 5514 H 525.224 -6.47092 -1.07738 0
M  V30 5515 H 525.141 -7.5551 0.272238 0
M  V30 5516 H 526.409 -7.74263 -0.902054 0
M  V30 5517 N 530.638 -0.59345 -1.46 0
M  V30 5518 C 532.049 -0.169801 -1.85926 0
M  V30 5519 C 532.4 1.26984 -1.49565 0
M  V30 5520 O 531.525 1.96076 -0.915602 0
M  V30 5521 C 532.12 -0.301385 -3.37457 0
M  V30 5522 C 530.679 0.0674684 -3.7634 0
M  V30 5523 C 529.826 -0.632383 -2.69993 0
M  V30 5524 H 532.777 -0.801014 -1.37002 0
M  V30 5525 H 532.798 0.470331 -3.77582 0
M  V30 5526 H 532.31 -1.34927 -3.63891 0
M  V30 5527 H 530.411 1.11507 -3.55523 0
M  V30 5528 H 530.524 -0.316332 -4.78055 0
M  V30 5529 H 528.888 -0.0714961 -2.546 0
M  V30 5530 H 529.671 -1.68212 -2.99265 0
M  V30 5531 N 532.116 1.54067 -0.331816 0
M  V30 5532 C 533.532 1.59587 0.0205388 0
M  V30 5533 C 533.732 1.34813 1.49759 0
M  V30 5534 O 532.788 1.13661 2.25471 0
M  V30 5535 C 534.101 2.97959 -0.405103 0
M  V30 5536 C 535.649 3.10964 -0.356454 0
M  V30 5537 C 536.124 4.51694 -0.757384 0
M  V30 5538 N 537.615 4.57709 -0.71111 0
M  V30 5539 C 538.35 5.64729 -0.993427 0
M  V30 5540 N 537.846 6.79652 -1.3433 0
M  V30 5541 N 539.639 5.54546 -0.918442 0
M  V30 5542 H 531.79 1.68426 -1.29407 0
M  V30 5543 H 534.053 0.78819 -0.526745 0
M  V30 5544 H 533.759 3.21115 -1.43451 0
M  V30 5545 H 533.633 3.76524 0.225692 0
M  V30 5546 H 536.02 2.87538 0.663763 0
M  V30 5547 H 536.101 2.34484 -1.02229 0
M  V30 5548 H 535.745 4.75853 -1.77555 0
M  V30 5549 H 535.675 5.26555 -0.0691444 0
M  V30 5550 H 538.166 3.75176 -0.452883 0
M  V30 5551 H 538.479 7.57221 -1.54388 0
M  V30 5552 H 536.824 6.81128 -1.38164 0
M  V30 5553 H 540.015 4.63641 -0.644536 0
M  V30 5554 H 540.188 6.37861 -1.14181 0
M  V30 5555 N 533.594 0.0601682 1.57485 0
M  V30 5556 C 534.557 -0.896373 2.10945 0
M  V30 5557 C 535.557 -1.23402 1.03095 0
M  V30 5558 O 536.747 -1.16921 1.29132 0
M  V30 5559 C 533.879 -2.20346 2.60116 0
M  V30 5560 H 535.072 -0.432778 2.96761 0
M  V30 5561 H 532.625 -0.188372 1.55161 0
M  V30 5562 H 533.36 -2.71268 1.7772 0
M  V30 5563 H 533.145 -1.9714 3.38937 0
M  V30 5564 H 534.635 -2.88846 3.01592 0
M  V30 5565 N 535.072 -1.5615 -0.213296 0
M  V30 5566 C 536.035 -1.92249 -1.24792 0
M  V30 5567 C 537.035 -0.801828 -1.39382 0
M  V30 5568 O 538.225 -1.06948 -1.37506 0
M  V30 5569 C 535.357 -2.18056 -2.62039 0
M  V30 5570 H 536.55 -2.84793 -0.939845 0
M  V30 5571 H 534.103 -1.49559 -0.454062 0
M  V30 5572 H 534.838 -1.2809 -2.97932 0
M  V30 5573 H 534.623 -2.99703 -2.52825 0
M  V30 5574 H 536.113 -2.47051 -3.36683 0
M  V30 5575 N 536.55 0.480323 -1.50102 0
M  V30 5576 C 537.775 1.26126 -1.64642 0
M  V30 5577 C 538.2 1.85257 -0.325823 0
M  V30 5578 O 537.558 1.66854 0.709194 0
M  V30 5579 C 537.606 2.35243 -2.73301 0
M  V30 5580 O 536.71 3.39646 -2.33911 0
M  V30 5581 H 536.051 0.371463 -0.550374 0
M  V30 5582 H 538.581 0.572696 -1.96421 0
M  V30 5583 H 538.591 2.80695 -2.96098 0
M  V30 5584 H 537.266 1.91574 -3.6915 0
M  V30 5585 H 535.843 2.99969 -2.21525 0
M  V30 5586 N 538.028 1.39524 0.732853 0
M  V30 5587 C 538.991 1.38189 1.82857 0
M  V30 5588 C 539.991 0.278624 1.58368 0
M  V30 5589 O 541.181 0.536639 1.65728 0
M  V30 5590 C 538.313 1.15661 3.2068 0
M  V30 5591 H 539.506 2.35692 1.85444 0
M  V30 5592 H 537.059 1.2512 0.936728 0
M  V30 5593 H 537.794 0.188482 3.23752 0
M  V30 5594 H 537.579 1.95559 3.39852 0
M  V30 5595 H 539.069 1.17472 4.00737 0
M  V30 5596 N 539.506 -0.963266 1.24736 0
M  V30 5597 C 540.456 -2.0438 1.01058 0
M  V30 5598 C 541.44 -1.60824 -0.0495354 0
M  V30 5599 O 542.632 -1.76232 0.164741 0
M  V30 5600 C 539.761 -3.37617 0.622067 0
M  V30 5601 C 538.847 -3.87722 1.7185 0
M  V30 5602 N 539.238 -4.10715 2.95207 0
M  V30 5603 C 537.536 -4.16426 1.59703 0
M  V30 5604 C 538.237 -4.51872 3.66315 0
M  V30 5605 N 537.213 -4.57302 2.93897 0
M  V30 5606 H 541.015 -2.20138 1.94721 0
M  V30 5607 H 538.529 -1.14741 1.14927 0
M  V30 5608 H 540.526 -4.14638 0.43366 0
M  V30 5609 H 539.186 -3.23242 -0.307327 0
M  V30 5610 H 540.197 -3.98037 3.31341 0
M  V30 5611 H 536.874 -4.10962 0.73598 0
M  V30 5612 H 538.264 -4.78037 4.72155 0
M  V30 5613 N 540.985 -1.06182 -1.16461 0
M  V30 5614 C 541.948 -0.675723 -2.19013 0
M  V30 5615 C 542.948 0.277963 -1.58379 0
M  V30 5616 O 544.138 0.0604962 -1.74095 0
M  V30 5617 C 541.27 0.00591459 -3.40899 0
M  V30 5618 H 542.463 -1.58353 -2.54685 0
M  V30 5619 H 540.016 -0.856908 -1.30716 0
M  V30 5620 H 540.751 0.92652 -3.10783 0
M  V30 5621 H 540.536 -0.67984 -3.86161 0
M  V30 5622 H 542.026 0.26181 -4.16778 0
M  V30 5623 N 542.463 1.3308 -0.844243 0
M  V30 5624 C 543.712 1.96868 -0.438833 0
M  V30 5625 C 544.025 1.67599 1.00846 0
M  V30 5626 O 545.231 2.25043 1.51881 0
M  V30 5627 C 543.687 3.5234 -0.73377 0
M  V30 5628 C 543.295 3.90481 -2.1961 0
M  V30 5629 C 545.039 4.22653 -0.395574 0
M  V30 5630 C 542.946 5.38954 -2.43481 0
M  V30 5631 H 541.876 0.736749 -0.160364 0
M  V30 5632 H 544.527 1.51623 -1.03358 0
M  V30 5633 H 542.909 3.95941 -0.068589 0
M  V30 5634 H 544.083 3.57922 -2.90221 0
M  V30 5635 H 542.398 3.33165 -2.4978 0
M  V30 5636 H 544.995 5.31848 -0.551477 0
M  V30 5637 H 545.338 4.11004 0.661921 0
M  V30 5638 H 545.871 3.84601 -1.01621 0
M  V30 5639 H 542.61 5.55612 -3.47816 0
M  V30 5640 H 542.13 5.72954 -1.77437 0
M  V30 5641 H 543.809 6.05907 -2.26905 0
M  V30 5642 N 543.941 0.601185 1.45683 0
M  V30 5643 C 545.189 0.0936957 2.01883 0
M  V30 5644 C 545.51 -1.2779 1.47291 0
M  V30 5645 O 544.78 -1.84279 0.664691 0
M  V30 5646 H 543.36 0.0316466 0.746329 0
M  V30 5647 H 546.022 0.781137 1.78562 0
M  V30 5648 H 545.118 0.0386297 3.12076 0
M  V30 5649 N 545.419 -1.53889 0.339982 0
M  V30 5650 C 546.647 -2.05271 -0.259114 0
M  V30 5651 C 547.062 -1.21517 -1.44496 0
M  V30 5652 O 546.419 -0.24966 -1.80784 0
M  V30 5653 C 546.47 -3.55092 -0.677634 0
M  V30 5654 O 546.191 -4.35667 0.461051 0
M  V30 5655 C 547.692 -4.22631 -1.33782 0
M  V30 5656 H 544.912 -0.669085 -0.0506566 0
M  V30 5657 H 547.456 -1.9852 0.490935 0
M  V30 5658 H 545.611 -3.62077 -1.37763 0
M  V30 5659 H 546.025 -5.24343 0.128144 0
M  V30 5660 H 547.499 -5.28861 -1.58145 0
M  V30 5661 H 547.976 -3.74758 -2.29027 0
M  V30 5662 H 548.582 -4.19829 -0.679957 0
M  V30 5663 N 546.897 -0.0685191 -1.57451 0
M  V30 5664 C 548.143 0.602239 -1.93652 0
M  V30 5665 C 548.476 1.6946 -0.948526 0
M  V30 5666 O 547.751 1.94487 0.022782 0
M  V30 5667 C 548.034 1.18223 -3.4014 0
M  V30 5668 C 547.887 0.0967431 -4.49696 0
M  V30 5669 C 549.206 2.08872 -3.87377 0
M  V30 5670 H 546.325 0.217453 -0.70419 0
M  V30 5671 H 548.967 -0.133821 -1.89528 0
M  V30 5672 H 547.117 1.80953 -3.43785 0
M  V30 5673 H 548.789 -0.536155 -4.58174 0
M  V30 5674 H 547.032 -0.573063 -4.29998 0
M  V30 5675 H 547.703 0.542894 -5.49324 0
M  V30 5676 H 550.179 1.56081 -3.85717 0
M  V30 5677 H 549.055 2.46389 -4.90493 0
M  V30 5678 H 549.316 2.99572 -3.25129 0
M  V30 5679 N 548.375 1.56261 0.205012 0
M  V30 5680 C 549.322 1.93754 1.25411 0
M  V30 5681 C 550.292 0.796826 1.45739 0
M  V30 5682 O 551.477 1.05414 1.59036 0
M  V30 5683 C 548.617 2.27383 2.59598 0
M  V30 5684 C 547.73 3.5447 2.46931 0
M  V30 5685 C 546.865 3.77468 3.73753 0
M  V30 5686 C 545.904 4.98014 3.55877 0
M  V30 5687 N 545.041 5.17316 4.74688 0
M  V30 5688 H 549.881 2.83203 0.92737 0
M  V30 5689 H 547.418 1.40158 0.446574 0
M  V30 5690 H 549.376 2.44895 3.37761 0
M  V30 5691 H 548.006 1.41088 2.90335 0
M  V30 5692 H 547.058 3.45061 1.60116 0
M  V30 5693 H 548.37 4.42789 2.29651 0
M  V30 5694 H 547.524 3.95165 4.60358 0
M  V30 5695 H 546.263 2.87461 3.93976 0
M  V30 5696 H 545.268 4.80249 2.67657 0
M  V30 5697 H 546.493 5.8952 3.37109 0
M  V30 5698 H 544.439 4.30255 4.95194 0
M  V30 5699 H 544.356 5.99796 4.60197 0
M  V30 5700 H 545.624 5.39463 5.62672 0
M  V30 5701 N 549.853 -0.472356 1.50355 0
M  V30 5702 C 551.093 -1.23439 1.62918 0
M  V30 5703 C 551.457 -1.89284 0.321801 0
M  V30 5704 O 552.658 -2.66854 0.322852 0
M  V30 5705 C 550.929 -2.25119 2.7759 0
M  V30 5706 S 552.488 -3.10278 3.10279 0
M  V30 5707 H 549.306 -0.41911 0.574341 0
M  V30 5708 H 551.908 -0.531621 1.88133 0
M  V30 5709 H 550.612 -1.75324 3.71066 0
M  V30 5710 H 550.143 -3.00026 2.54457 0
M  V30 5711 H 552.158 -4.26257 2.54007 0
M  V30 5712 N 551.331 -1.39911 -0.725443 0
M  V30 5713 C 552.261 -1.42138 -1.85254 0
M  V30 5714 C 553.242 -0.283513 -1.67721 0
M  V30 5715 O 554.427 -0.490717 -1.87898 0
M  V30 5716 C 551.557 -1.27354 -3.23107 0
M  V30 5717 C 550.511 -2.3864 -3.55296 0
M  V30 5718 C 549.837 -2.08939 -4.92188 0
M  V30 5719 C 551.137 -3.8097 -3.57295 0
M  V30 5720 H 552.831 -2.36461 -1.83648 0
M  V30 5721 H 550.377 -1.13817 -0.882138 0
M  V30 5722 H 552.33 -1.2753 -4.01639 0
M  V30 5723 H 551.054 -0.295025 -3.25265 0
M  V30 5724 H 549.713 -2.37696 -2.79099 0
M  V30 5725 H 549.361 -1.09502 -4.90936 0
M  V30 5726 H 549.061 -2.83491 -5.14691 0
M  V30 5727 H 550.585 -2.10781 -5.73065 0
M  V30 5728 H 551.999 -3.8379 -4.25885 0
M  V30 5729 H 550.396 -4.5496 -3.9132 0
M  V30 5730 H 551.466 -4.11261 -2.5689 0
M  V30 5731 N 552.809 0.956637 -1.25245 0
M  V30 5732 C 553.772 2.03457 -1.05537 0
M  V30 5733 C 554.772 1.60798 -0.00886317 0
M  V30 5734 O 555.962 1.72384 -0.250865 0
M  V30 5735 C 553.094 3.35543 -0.601965 0
M  V30 5736 H 554.287 2.22372 -2.01223 0
M  V30 5737 H 551.84 1.13344 -1.07623 0
M  V30 5738 H 552.575 3.22323 0.357584 0
M  V30 5739 H 552.36 3.67854 -1.35743 0
M  V30 5740 H 553.85 4.14769 -0.485454 0
M  V30 5741 N 554.287 1.06798 1.15896 0
M  V30 5742 C 555.22 0.627503 2.19403 0
M  V30 5743 C 556.198 -0.352352 1.58736 0
M  V30 5744 O 557.382 -0.260111 1.86697 0
M  V30 5745 C 554.509 -0.079356 3.38607 0
M  V30 5746 C 553.555 0.858057 4.17779 0
M  V30 5747 S 554.388 2.35605 4.80885 0
M  V30 5748 C 555.544 1.66083 6.03463 0
M  V30 5749 H 555.777 1.50441 2.56427 0
M  V30 5750 H 553.31 0.881427 1.26768 0
M  V30 5751 H 555.268 -0.48095 4.07673 0
M  V30 5752 H 553.929 -0.932524 2.99938 0
M  V30 5753 H 553.122 0.310108 5.03045 0
M  V30 5754 H 552.724 1.19977 3.54234 0
M  V30 5755 H 555.016 0.969337 6.7053 0
M  V30 5756 H 555.959 2.49159 6.62816 0
M  V30 5757 H 556.367 1.14122 5.52844 0
M  V30 5758 N 555.766 -1.3263 0.851289 0
M  V30 5759 C 557.043 -1.91982 0.374448 0
M  V30 5760 C 557.423 -1.77568 -1.14161 0
M  V30 5761 O 556.771 -1.1717 -1.96172 0
M  V30 5762 C 556.981 -3.38862 0.835088 0
M  V30 5763 C 558.329 -4.15999 0.850309 0
M  V30 5764 O 559.353 -3.47566 0.779505 0
M  V30 5765 O 558.212 -5.38189 0.949481 0
M  V30 5766 H 555.306 -0.819846 0.10854 0
M  V30 5767 H 557.852 -1.41422 0.937966 0
M  V30 5768 H 556.624 -3.43281 1.87814 0
M  V30 5769 H 556.247 -3.96821 0.248833 0
M  V30 5770 N 557.244 -0.608902 -1.45362 0
M  V30 5771 C 558.49 -0.104762 -2.02529 0
M  V30 5772 C 558.823 1.26191 -1.47613 0
M  V30 5773 O 558.098 1.8327 -0.65134 0
M  V30 5774 C 558.381 -0.0672661 -3.60037 0
M  V30 5775 C 558.234 -1.4647 -4.25284 0
M  V30 5776 C 559.553 0.619877 -4.35713 0
M  V30 5777 H 556.672 -0.0395438 -0.735938 0
M  V30 5778 H 559.314 -0.781126 -1.73201 0
M  V30 5779 H 557.464 0.50871 -3.85155 0
M  V30 5780 H 559.136 -2.08785 -4.11347 0
M  V30 5781 H 557.379 -2.02502 -3.83634 0
M  V30 5782 H 558.05 -1.39069 -5.34195 0
M  V30 5783 H 560.526 0.130297 -4.15896 0
M  V30 5784 H 559.402 0.615224 -5.45441 0
M  V30 5785 H 559.663 1.68621 -4.0868 0
M  V30 5786 N 558.722 1.53707 -0.348139 0
M  V30 5787 C 559.654 2.22725 0.540946 0
M  V30 5788 C 560.667 1.2354 1.06027 0
M  V30 5789 O 561.856 1.49867 0.96964 0
M  V30 5790 C 558.956 2.89756 1.75768 0
M  V30 5791 C 558.129 4.15297 1.37285 0
M  V30 5792 C 557.188 4.65697 2.44976 0
M  V30 5793 O 556.214 5.29798 2.08092 0
M  V30 5794 N 557.416 4.42017 3.763 0
M  V30 5795 H 560.181 2.99658 -0.0501592 0
M  V30 5796 H 557.742 1.60979 -0.17248 0
M  V30 5797 H 559.734 3.20388 2.47252 0
M  V30 5798 H 558.304 2.16382 2.25605 0
M  V30 5799 H 557.524 3.9116 0.488584 0
M  V30 5800 H 558.812 4.96948 1.09179 0
M  V30 5801 H 558.21 3.9076 4.09051 0
M  V30 5802 H 556.767 4.77242 4.4394 0
M  V30 5803 N 560.2 0.0768682 1.57412 0
M  V30 5804 C 561.163 -0.873949 2.11884 0
M  V30 5805 C 562.163 -1.22301 1.04398 0
M  V30 5806 O 563.353 -1.15545 1.30365 0
M  V30 5807 C 560.485 -2.17575 2.62438 0
M  V30 5808 H 561.678 -0.401278 2.97203 0
M  V30 5809 H 559.231 -0.171904 1.55352 0
M  V30 5810 H 559.966 -2.69368 1.80587 0
M  V30 5811 H 559.751 -1.93534 3.41009 0
M  V30 5812 H 561.241 -2.85631 3.04639 0
M  V30 5813 N 561.678 -1.56367 -0.196722 0
M  V30 5814 C 562.925 -1.80529 -0.917366 0
M  V30 5815 C 563.253 -0.649817 -1.83324 0
M  V30 5816 O 562.508 0.36451 -1.92275 0
M  V30 5817 C 562.807 -3.10663 -1.767 0
M  V30 5818 C 562.473 -4.3962 -1.00225 0
M  V30 5819 C 561.135 -4.74653 -0.791095 0
M  V30 5820 C 563.487 -5.1913 -0.464035 0
M  V30 5821 C 560.815 -5.86692 -0.0302155 0
M  V30 5822 C 563.167 -6.31964 0.283625 0
M  V30 5823 C 561.831 -6.65581 0.505813 0
M  V30 5824 H 561.101 -0.660602 -0.335688 0
M  V30 5825 H 563.748 -1.90615 -0.183844 0
M  V30 5826 H 562.053 -2.95807 -2.56915 0
M  V30 5827 H 563.75 -3.26563 -2.32718 0
M  V30 5828 H 560.34 -4.12127 -1.17684 0
M  V30 5829 H 564.524 -4.9248 -0.614575 0
M  V30 5830 H 559.78 -6.11211 0.151917 0
M  V30 5831 H 563.954 -6.92791 0.708057 0
M  V30 5832 H 561.581 -7.52239 1.0973 0
M  V30 5833 N 563.156 0.464375 -1.50603 0
M  V30 5834 C 564.066 1.58723 -1.72754 0
M  V30 5835 C 565.082 1.62925 -0.610844 0
M  V30 5836 O 566.258 1.8067 -0.889963 0
M  V30 5837 C 563.323 2.94897 -1.82309 0
M  V30 5838 C 562.384 3.0103 -3.06071 0
M  V30 5839 C 561.617 4.30708 -3.1516 0
M  V30 5840 O 561.84 5.2159 -2.30868 0
M  V30 5841 O 560.774 4.42571 -4.0794 0
M  V30 5842 H 564.6 1.42954 -2.67951 0
M  V30 5843 H 562.185 0.644579 -1.3478 0
M  V30 5844 H 564.067 3.75764 -1.90735 0
M  V30 5845 H 562.742 3.10851 -0.902967 0
M  V30 5846 H 561.649 2.19217 -3.03142 0
M  V30 5847 H 562.982 2.90014 -3.97684 0
M  V30 5848 N 564.634 1.40294 0.718013 0
M  V30 5849 C 566.05 1.2227 1.02577 0
M  V30 5850 C 566.25 0.0961976 2.0127 0
M  V30 5851 O 565.306 -0.546695 2.46511 0
M  V30 5852 C 566.619 2.56348 1.57182 0
M  V30 5853 C 568.167 2.6334 1.69178 0
M  V30 5854 C 568.642 3.9768 2.27188 0
M  V30 5855 N 570.133 3.99409 2.34578 0
M  V30 5856 C 570.868 5.00141 2.8044 0
M  V30 5857 N 570.364 6.11268 3.26073 0
M  V30 5858 N 572.157 4.87511 2.79802 0
M  V30 5859 H 564.308 2.12304 0.0637899 0
M  V30 5860 H 566.571 0.943632 0.0909036 0
M  V30 5861 H 566.277 3.3942 0.921262 0
M  V30 5862 H 566.151 2.77266 2.55741 0
M  V30 5863 H 568.538 1.80641 2.33351 0
M  V30 5864 H 568.619 2.46255 0.692247 0
M  V30 5865 H 568.263 4.80817 1.63638 0
M  V30 5866 H 568.193 4.12093 3.27852 0
M  V30 5867 H 570.684 3.19162 2.02346 0
M  V30 5868 H 570.997 6.84023 3.59628 0
M  V30 5869 H 569.342 6.14837 3.24038 0
M  V30 5870 H 572.533 3.9979 2.43487 0
M  V30 5871 H 572.706 5.66158 3.15228 0
M  V30 5872 N 566.112 -0.949982 1.2575 0
M  V30 5873 C 567.042 -2.06483 1.09028 0
M  V30 5874 C 568.023 -1.701 -0.00201532 0
M  V30 5875 O 569.208 -1.93469 0.168383 0
M  V30 5876 C 566.338 -3.39899 0.71316 0
M  V30 5877 C 565.292 -3.90309 1.75621 0
M  V30 5878 C 564.618 -5.20274 1.23365 0
M  V30 5879 C 565.918 -4.16169 3.15596 0
M  V30 5880 H 567.612 -2.20731 2.02283 0
M  V30 5881 H 565.158 -1.06066 0.973964 0
M  V30 5882 H 567.111 -4.17346 0.58309 0
M  V30 5883 H 565.835 -3.25602 -0.255091 0
M  V30 5884 H 564.494 -3.15035 1.8748 0
M  V30 5885 H 564.142 -5.02351 0.255491 0
M  V30 5886 H 563.842 -5.54971 1.93082 0
M  V30 5887 H 565.366 -6.00314 1.11607 0
M  V30 5888 H 566.78 -4.84259 3.06864 0
M  V30 5889 H 565.177 -4.62131 3.82825 0
M  V30 5890 H 566.247 -3.22273 3.6231 0
M  V30 5891 N 567.59 -1.07411 -1.15328 0
M  V30 5892 C 568.52 -0.716472 -2.22236 0
M  V30 5893 C 569.501 0.296373 -1.67498 0
M  V30 5894 O 570.686 0.168989 -1.93463 0
M  V30 5895 C 567.816 -0.114142 -3.47112 0
M  V30 5896 C 566.77 -1.05421 -4.14814 0
M  V30 5897 C 566.096 -0.314604 -5.33774 0
M  V30 5898 C 567.396 -2.38808 -4.64508 0
M  V30 5899 H 569.09 -1.61029 -2.52408 0
M  V30 5900 H 566.636 -0.775702 -1.21321 0
M  V30 5901 H 568.589 0.148001 -4.2114 0
M  V30 5902 H 567.313 0.814755 -3.16274 0
M  V30 5903 H 565.972 -1.30128 -3.42728 0
M  V30 5904 H 565.62 0.617772 -4.99192 0
M  V30 5905 H 565.32 -0.941209 -5.80013 0
M  V30 5906 H 566.844 -0.0602747 -6.1057 0
M  V30 5907 H 568.258 -2.18424 -5.3006 0
M  V30 5908 H 566.655 -2.97069 -5.21412 0
M  V30 5909 H 567.725 -3.01067 -3.80114 0
M  V30 5910 N 569.068 1.32177 -0.85831 0
M  V30 5911 C 570.316 1.96735 -0.462568 0
M  V30 5912 C 570.637 1.6824 0.985911 0
M  V30 5913 O 569.907 0.991564 1.68952 0
M  V30 5914 H 568.487 0.727849 -0.168064 0
M  V30 5915 H 571.149 1.61195 -1.09554 0
M  V30 5916 H 570.245 3.06068 -0.610647 0
M  V30 5917 N 570.547 0.616602 1.45037 0
M  V30 5918 C 571.958 0.199359 1.85633 0
M  V30 5919 C 572.309 -1.24588 1.51566 0
M  V30 5920 O 571.434 -1.94594 0.94668 0
M  V30 5921 C 572.029 0.355033 3.36935 0
M  V30 5922 C 570.588 -0.00758748 3.76399 0
M  V30 5923 C 569.735 0.675256 2.68953 0
M  V30 5924 H 572.686 0.822708 1.3571 0
M  V30 5925 H 572.707 -0.410201 3.78282 0
M  V30 5926 H 572.219 1.40699 3.61698 0
M  V30 5927 H 570.32 -1.05837 3.57252 0
M  V30 5928 H 570.433 0.392346 4.77491 0
M  V30 5929 H 568.797 0.111992 2.54454 0
M  V30 5930 H 569.58 1.72952 2.96551 0
M  V30 5931 N 572.025 -1.5352 0.356285 0
M  V30 5932 C 573.265 -2.03027 -0.23649 0
M  V30 5933 C 573.629 -1.23813 -1.46746 0
M  V30 5934 O 574.83 -1.63281 -2.13525 0
M  V30 5935 C 573.101 -3.53442 -0.530415 0
M  V30 5936 S 574.66 -4.24836 -1.09819 0
M  V30 5937 H 571.478 -0.707591 -0.0695378 0
M  V30 5938 H 574.08 -1.89077 0.496999 0
M  V30 5939 H 572.784 -4.087 0.373114 0
M  V30 5940 H 572.315 -3.71536 -1.29323 0
M  V30 5941 H 574.33 -4.35228 -2.38309 0
M  V30 5942 N 573.503 -0.0852151 -1.57369 0
M  V30 5943 C 574.436 0.913608 -2.09113 0
M  V30 5944 C 575.414 1.28264 -0.999358 0
M  V30 5945 O 576.598 1.3896 -1.27367 0
M  V30 5946 C 573.725 2.21777 -2.55993 0
M  V30 5947 C 572.771 1.99932 -3.76735 0
M  V30 5948 S 573.604 1.24637 -5.20794 0
M  V30 5949 C 574.76 2.56304 -5.71016 0
M  V30 5950 H 574.993 0.473369 -2.93507 0
M  V30 5951 H 572.526 0.127856 -1.5387 0
M  V30 5952 H 574.484 2.96726 -2.83662 0
M  V30 5953 H 573.145 2.62923 -1.71843 0
M  V30 5954 H 572.338 2.96482 -4.07571 0
M  V30 5955 H 571.94 1.33116 -3.49509 0
M  V30 5956 H 574.232 3.5233 -5.78679 0
M  V30 5957 H 575.175 2.3006 -6.69685 0
M  V30 5958 H 575.583 2.64125 -4.98897 0
M  V30 5959 N 574.981 1.5647 0.188427 0
M  V30 5960 C 575.891 1.98285 1.2538 0
M  V30 5961 C 576.907 0.891535 1.49424 0
M  V30 5962 O 578.083 1.19782 1.61908 0
M  V30 5963 C 575.148 2.31965 2.57669 0
M  V30 5964 C 574.209 3.54838 2.41638 0
M  V30 5965 C 573.442 3.86901 3.67618 0
M  V30 5966 O 573.665 3.20163 4.72072 0
M  V30 5967 O 572.599 4.80309 3.62749 0
M  V30 5968 H 576.425 2.89145 0.928912 0
M  V30 5969 H 574.01 1.44112 0.393955 0
M  V30 5970 H 575.892 2.54673 3.35737 0
M  V30 5971 H 574.567 1.44271 2.89771 0
M  V30 5972 H 573.474 3.37369 1.61658 0
M  V30 5973 H 574.807 4.43019 2.14465 0
M  V30 5974 N 576.459 -0.456382 1.50847 0
M  V30 5975 C 577.708 -1.2042 1.61808 0
M  V30 5976 C 578.021 -1.9278 0.330932 0
M  V30 5977 O 579.227 -2.69612 0.319643 0
M  V30 5978 C 577.683 -2.18891 2.85683 0
M  V30 5979 C 577.291 -1.52267 4.2133 0
M  V30 5980 C 579.035 -2.94224 3.05994 0
M  V30 5981 C 576.942 -2.4911 5.36375 0
M  V30 5982 H 575.872 -0.453177 0.602616 0
M  V30 5983 H 578.523 -0.473144 1.77295 0
M  V30 5984 H 576.905 -2.95351 2.63787 0
M  V30 5985 H 578.079 -0.814949 4.53536 0
M  V30 5986 H 576.394 -0.891594 4.06743 0
M  V30 5987 H 578.991 -3.66732 3.89117 0
M  V30 5988 H 579.334 -3.54469 2.18306 0
M  V30 5989 H 579.867 -2.24874 3.28141 0
M  V30 5990 H 576.606 -1.93582 6.26264 0
M  V30 5991 H 576.126 -3.17991 5.08569 0
M  V30 5992 H 577.805 -3.10637 5.67551 0
M  V30 5993 N 577.937 -1.40673 -0.710563 0
M  V30 5994 C 578.87 -1.35742 -1.83438 0
M  V30 5995 C 579.848 -0.226997 -1.61008 0
M  V30 5996 O 581.032 -0.411477 -1.83954 0
M  V30 5997 C 578.159 -1.11374 -3.19865 0
M  V30 5998 C 577.205 -2.26935 -3.61113 0
M  V30 5999 S 578.038 -3.89352 -3.67648 0
M  V30 6000 C 579.194 -3.67258 -5.06826 0
M  V30 6001 H 579.427 -2.30848 -1.87341 0
M  V30 6002 H 576.96 -1.27018 -0.877831 0
M  V30 6003 H 578.918 -0.980004 -3.9863 0
M  V30 6004 H 577.579 -0.179135 -3.13589 0
M  V30 6005 H 576.772 -2.0554 -4.60184 0
M  V30 6006 H 576.374 -2.36638 -2.89618 0
M  V30 6007 H 578.666 -3.26036 -5.93891 0
M  V30 6008 H 579.609 -4.65878 -5.33257 0
M  V30 6009 H 580.017 -3.0084 -4.77656 0
M  V30 6010 N 579.415 0.9433 -1.26252 0
M  V30 6011 C 580.362 2.0417 -1.07625 0
M  V30 6012 C 581.332 1.6609 0.0180738 0
M  V30 6013 O 582.517 1.90276 -0.141289 0
M  V30 6014 C 579.657 3.37653 -0.713043 0
M  V30 6015 C 578.77 3.88783 -1.8834 0
M  V30 6016 C 577.905 5.10642 -1.4635 0
M  V30 6017 C 576.944 5.54028 -2.60229 0
M  V30 6018 N 576.081 6.67092 -2.18936 0
M  V30 6019 H 580.921 2.19436 -2.01623 0
M  V30 6020 H 578.458 1.07519 -1.00389 0
M  V30 6021 H 580.416 4.14391 -0.483358 0
M  V30 6022 H 579.046 3.22241 0.18996 0
M  V30 6023 H 578.098 3.08464 -2.22608 0
M  V30 6024 H 579.41 4.16922 -2.73821 0
M  V30 6025 H 578.564 5.94832 -1.19414 0
M  V30 6026 H 577.303 4.84244 -0.579568 0
M  V30 6027 H 576.308 4.68396 -2.87898 0
M  V30 6028 H 577.533 5.82429 -3.49219 0
M  V30 6029 H 575.479 6.42381 -1.32974 0
M  V30 6030 H 575.396 6.94806 -2.97961 0
M  V30 6031 H 576.664 7.54662 -1.95206 0
M  V30 6032 N 580.893 1.08022 1.14757 0
M  V30 6033 C 582.309 0.807072 1.3769 0
M  V30 6034 C 582.509 -0.585504 1.92806 0
M  V30 6035 O 581.565 -1.34301 2.13821 0
M  V30 6036 C 582.878 1.88651 2.34161 0
M  V30 6037 C 584.426 1.91206 2.47809 0
M  V30 6038 C 584.901 2.98253 3.47576 0
M  V30 6039 N 586.392 2.974 3.55117 0
M  V30 6040 C 587.127 3.76872 4.32152 0
M  V30 6041 N 586.623 4.66212 5.12463 0
M  V30 6042 N 588.416 3.6519 4.27309 0
M  V30 6043 H 580.567 1.97824 0.77326 0
M  V30 6044 H 582.83 0.85826 0.402608 0
M  V30 6045 H 582.536 2.88749 2.00791 0
M  V30 6046 H 582.41 1.75244 3.3402 0
M  V30 6047 H 584.797 0.917564 2.80472 0
M  V30 6048 H 584.878 2.08691 1.47925 0
M  V30 6049 H 584.522 3.97907 3.15646 0
M  V30 6050 H 584.452 2.78014 4.47231 0
M  V30 6051 H 586.943 2.32643 2.97801 0
M  V30 6052 H 587.256 5.23468 5.68508 0
M  V30 6053 H 585.601 4.70257 5.11745 0
M  V30 6054 H 588.792 2.94765 3.63636 0
M  V30 6055 H 588.965 4.27366 4.87095 0
M  V30 6056 N 582.371 -1.3172 0.865308 0
M  V30 6057 C 583.319 -2.30569 0.306674 0
M  V30 6058 C 584.313 -1.59317 -0.575724 0
M  V30 6059 O 585.519 -1.73961 -0.462343 0
M  V30 6060 H 581.894 -0.747681 0.0804834 0
M  V30 6061 H 583.865 -2.75165 1.15441 0
M  V30 6062 C 582.614 -3.44358 -0.480952 0
M  V30 6063 H 581.937 -3.99354 0.18876 0
M  V30 6064 H 583.377 -4.15652 -0.837241 0
M  V30 6065 C 581.836 -2.92574 -1.67039 0
M  V30 6066 O 582.366 -2.90954 -2.76964 0
M  V30 6067 N 580.572 -2.48835 -1.50097 0
M  V30 6068 H 580.119 -2.50353 -0.606738 0
M  V30 6069 H 580.077 -2.14543 -2.29823 0
M  V30 6070 N 583.85 -0.624285 -1.44708 0
M  V30 6071 C 585.099 -0.123539 -2.01321 0
M  V30 6072 C 585.412 1.25966 -1.49639 0
M  V30 6073 O 586.618 1.85405 -1.98336 0
M  V30 6074 C 585.074 -0.170124 -3.59498 0
M  V30 6075 C 584.682 -1.55421 -4.20176 0
M  V30 6076 C 586.426 0.274513 -4.23611 0
M  V30 6077 C 584.332 -1.55628 -5.70556 0
M  V30 6078 H 583.263 -0.0424183 -0.752806 0
M  V30 6079 H 585.913 -0.782076 -1.65999 0
M  V30 6080 H 584.296 0.555385 -3.92086 0
M  V30 6081 H 585.47 -2.30276 -3.99136 0
M  V30 6082 H 583.784 -1.94235 -3.68323 0
M  V30 6083 H 586.382 0.292402 -5.339 0
M  V30 6084 H 586.725 1.3005 -3.95465 0
M  V30 6085 H 587.258 -0.398275 -3.95801 0
M  V30 6086 H 583.997 -2.56041 -6.03426 0
M  V30 6087 H 583.517 -0.850563 -5.93739 0
M  V30 6088 H 585.196 -1.28721 -6.34066 0
M  V30 6089 N 585.328 1.53329 -0.364422 0
M  V30 6090 C 586.291 2.24323 0.470292 0
M  V30 6091 C 587.291 1.25068 1.01067 0
M  V30 6092 O 588.481 1.49354 0.896605 0
M  V30 6093 C 585.613 2.97908 1.65722 0
M  V30 6094 H 586.806 2.9952 -0.150917 0
M  V30 6095 H 584.359 1.55868 -0.116092 0
M  V30 6096 H 585.094 2.2695 2.31655 0
M  V30 6097 H 584.879 3.70732 1.27671 0
M  V30 6098 H 586.369 3.5188 2.24878 0
M  V30 6099 N 586.806 0.0935595 1.57322 0
M  V30 6100 C 588.034 -0.578934 1.98635 0
M  V30 6101 C 588.449 -1.61819 0.972626 0
M  V30 6102 O 587.806 -1.82461 -0.0379638 0
M  V30 6103 C 587.857 -1.22802 3.40003 0
M  V30 6104 O 587.578 -0.230334 4.37494 0
M  V30 6105 C 589.079 -1.98627 3.96311 0
M  V30 6106 H 586.299 -0.155324 0.652775 0
M  V30 6107 H 588.843 0.172393 2.03772 0
M  V30 6108 H 586.998 -1.93029 3.35885 0
M  V30 6109 H 587.412 -0.698649 5.19826 0
M  V30 6110 H 588.886 -2.39405 4.97382 0
M  V30 6111 H 589.363 -2.85151 3.34044 0
M  V30 6112 H 589.969 -1.3322 4.03897 0
M  V30 6113 N 588.284 -1.56567 -0.180126 0
M  V30 6114 C 589.514 -1.85349 -0.912647 0
M  V30 6115 C 589.922 -0.675795 -1.76719 0
M  V30 6116 O 589.265 0.3645 -1.80047 0
M  V30 6117 C 589.327 -3.08431 -1.84691 0
M  V30 6118 C 588.991 -4.41694 -1.17284 0
M  V30 6119 C 589.988 -5.17062 -0.542532 0
M  V30 6120 C 587.673 -4.8843 -1.17223 0
M  V30 6121 C 589.667 -6.37351 0.0793953 0
M  V30 6122 C 587.354 -6.08652 -0.54647 0
M  V30 6123 C 588.352 -6.82955 0.0782458 0
M  V30 6124 O 588.04 -8.00897 0.694158 0
M  V30 6125 H 587.772 -0.619286 -0.271036 0
M  V30 6126 H 590.326 -2.0454 -0.187768 0
M  V30 6127 H 588.556 -2.85163 -2.61188 0
M  V30 6128 H 590.245 -3.23733 -2.44851 0
M  V30 6129 H 591.011 -4.8204 -0.535045 0
M  V30 6130 H 586.89 -4.30542 -1.64788 0
M  V30 6131 H 590.434 -6.95287 0.567612 0
M  V30 6132 H 586.331 -6.4314 -0.55151 0
M  V30 6133 H 587.099 -8.16352 0.592537 0
M  V30 6134 N 589.762 0.448376 -1.51087 0
M  V30 6135 C 590.672 1.56882 -1.74428 0
M  V30 6136 C 591.688 1.62268 -0.62809 0
M  V30 6137 O 592.864 1.79716 -0.909075 0
M  V30 6138 C 589.929 2.92947 -1.85426 0
M  V30 6139 C 588.99 2.97766 -3.09247 0
M  V30 6140 C 588.223 4.27341 -3.19711 0
M  V30 6141 O 588.446 5.19112 -2.36387 0
M  V30 6142 O 587.38 4.38219 -4.12611 0
M  V30 6143 H 591.206 1.40104 -2.69452 0
M  V30 6144 H 588.791 0.630247 -1.35456 0
M  V30 6145 H 590.673 3.73719 -1.94709 0
M  V30 6146 H 589.348 3.09876 -0.935887 0
M  V30 6147 H 588.255 2.15989 -3.0545 0
M  V30 6148 H 589.588 2.8578 -4.00738 0
M  V30 6149 N 591.24 1.41047 0.703093 0
M  V30 6150 C 592.15 1.44645 1.84703 0
M  V30 6151 C 593.166 0.337778 1.7069 0
M  V30 6152 O 594.342 0.584327 1.92737 0
M  V30 6153 C 591.407 1.31928 3.20618 0
M  V30 6154 C 590.468 2.53047 3.46794 0
M  V30 6155 C 589.701 2.40927 4.76224 0
M  V30 6156 O 589.924 1.42978 5.5219 0
M  V30 6157 O 588.858 3.30543 5.03016 0
M  V30 6158 H 592.684 2.41139 1.84624 0
M  V30 6159 H 590.269 1.22504 0.855167 0
M  V30 6160 H 592.151 1.27092 4.01778 0
M  V30 6161 H 590.826 0.385469 3.21397 0
M  V30 6162 H 589.733 2.6346 2.65593 0
M  V30 6163 H 591.066 3.45231 3.50822 0
M  V30 6164 N 592.718 -0.936591 1.26751 0
M  V30 6165 C 593.65 -2.03991 1.045 0
M  V30 6166 C 594.663 -1.628 0.00394261 0
M  V30 6167 O 595.852 -1.76817 0.244526 0
M  V30 6168 C 592.952 -3.34218 0.561403 0
M  V30 6169 C 592.125 -4.04151 1.67274 0
M  V30 6170 C 591.184 -5.12651 1.1864 0
M  V30 6171 O 590.21 -5.37104 1.88437 0
M  V30 6172 N 591.412 -5.80488 0.037278 0
M  V30 6173 H 594.177 -2.23644 1.99508 0
M  V30 6174 H 591.738 -1.10638 1.18198 0
M  V30 6175 H 593.73 -4.04101 0.220136 0
M  V30 6176 H 592.3 -3.11203 -0.295211 0
M  V30 6177 H 591.52 -3.28121 2.18472 0
M  V30 6178 H 592.808 -4.47626 2.41885 0
M  V30 6179 H 592.206 -5.63064 -0.545494 0
M  V30 6180 H 590.763 -6.5134 -0.244877 0
M  V30 6181 N 594.196 -1.08629 -1.14182 0
M  V30 6182 C 595.126 -0.740003 -2.21464 0
M  V30 6183 C 596.107 0.278591 -1.67803 0
M  V30 6184 O 597.292 0.148461 -1.93632 0
M  V30 6185 C 594.422 -0.150952 -3.46972 0
M  V30 6186 C 593.376 -1.09815 -4.13672 0
M  V30 6187 C 592.702 -0.3712 -5.3341 0
M  V30 6188 C 594.002 -2.43722 -4.61949 0
M  V30 6189 H 595.696 -1.63697 -2.50686 0
M  V30 6190 H 593.242 -0.788526 -1.20492 0
M  V30 6191 H 595.195 0.103325 -4.21273 0
M  V30 6192 H 593.919 0.781164 -3.1712 0
M  V30 6193 H 592.578 -1.33756 -3.41328 0
M  V30 6194 H 592.226 0.564792 -4.99819 0
M  V30 6195 H 591.926 -1.00267 -5.78982 0
M  V30 6196 H 593.45 -0.12503 -6.10472 0
M  V30 6197 H 594.864 -2.24034 -5.27714 0
M  V30 6198 H 593.261 -3.02582 -5.18232 0
M  V30 6199 H 594.331 -3.05082 -3.76899 0
M  V30 6200 N 595.674 1.31259 -0.872281 0
M  V30 6201 C 596.92 1.96913 -0.485083 0
M  V30 6202 C 597.253 1.68774 0.960667 0
M  V30 6203 O 596.528 0.985495 1.67685 0
M  V30 6204 C 596.811 3.52299 -0.745502 0
M  V30 6205 C 596.664 3.90002 -2.24095 0
M  V30 6206 C 597.983 4.39582 -0.213516 0
M  V30 6207 H 595.102 0.715252 -0.177716 0
M  V30 6208 H 597.744 1.55347 -1.09395 0
M  V30 6209 H 595.894 3.87835 -0.227276 0
M  V30 6210 H 597.566 3.64555 -2.82661 0
M  V30 6211 H 595.809 3.38526 -2.71261 0
M  V30 6212 H 596.48 4.98352 -2.37381 0
M  V30 6213 H 598.956 4.10882 -0.656902 0
M  V30 6214 H 597.832 5.47251 -0.42516 0
M  V30 6215 H 598.093 4.33158 0.884666 0
M  V30 6216 N 597.152 0.631951 1.44375 0
M  V30 6217 C 598.115 -0.0628142 2.29114 0
M  V30 6218 C 599.115 -0.771494 1.41084 0
M  V30 6219 O 600.305 -0.615959 1.62947 0
M  V30 6220 C 597.437 -1.09953 3.22681 0
M  V30 6221 H 598.63 0.682509 2.92031 0
M  V30 6222 H 596.183 0.392128 1.51301 0
M  V30 6223 H 596.918 -1.87481 2.64616 0
M  V30 6224 H 596.703 -0.595286 3.87555 0
M  V30 6225 H 598.193 -1.58538 3.86336 0
M  V30 6226 N 598.631 -1.53133 0.372548 0
M  V30 6227 C 599.561 -2.28876 -0.462412 0
M  V30 6228 C 600.542 -1.31583 -1.07796 0
M  V30 6229 O 601.727 -1.60461 -1.09389 0
M  V30 6230 C 598.857 -3.08317 -1.59868 0
M  V30 6231 C 597.811 -4.13355 -1.11003 0
M  V30 6232 C 597.137 -4.8092 -2.33708 0
M  V30 6233 C 598.437 -5.21955 -0.18983 0
M  V30 6234 H 600.131 -2.9892 0.169511 0
M  V30 6235 H 597.677 -1.43761 0.0829658 0
M  V30 6236 H 599.63 -3.60055 -2.18949 0
M  V30 6237 H 598.354 -2.35976 -2.25794 0
M  V30 6238 H 597.013 -3.62573 -0.541869 0
M  V30 6239 H 596.661 -4.05144 -2.98106 0
M  V30 6240 H 596.361 -5.51904 -2.01682 0
M  V30 6241 H 597.885 -5.35455 -2.93462 0
M  V30 6242 H 599.299 -5.69153 -0.688319 0
M  V30 6243 H 597.696 -6.00087 0.0398887 0
M  V30 6244 H 598.766 -4.78811 0.766057 0
M  V30 6245 N 600.109 -0.101901 -1.5727 0
M  V30 6246 C 601.356 0.560197 -1.94597 0
M  V30 6247 C 601.684 1.67767 -0.984101 0
M  V30 6248 O 600.939 1.95699 -0.00489193 0
M  V30 6249 C 601.238 1.14898 -3.38427 0
M  V30 6250 C 600.904 0.154613 -4.50635 0
M  V30 6251 C 599.566 -0.118861 -4.81053 0
M  V30 6252 C 601.918 -0.523979 -5.18559 0
M  V30 6253 C 599.246 -1.0775 -5.76721 0
M  V30 6254 C 601.598 -1.47114 -6.15256 0
M  V30 6255 C 600.262 -1.75278 -6.44076 0
M  V30 6256 H 599.532 0.204991 -0.712081 0
M  V30 6257 H 602.179 -0.17918 -1.9066 0
M  V30 6258 H 600.484 1.96476 -3.38976 0
M  V30 6259 H 602.181 1.66909 -3.64613 0
M  V30 6260 H 598.771 0.377948 -4.2693 0
M  V30 6261 H 602.955 -0.325851 -4.95229 0
M  V30 6262 H 598.211 -1.30263 -5.97362 0
M  V30 6263 H 602.385 -2.00274 -6.66981 0
M  V30 6264 H 600.012 -2.49717 -7.18015 0
M  V30 6265 N 601.587 1.56661 0.17182 0
M  V30 6266 C 602.835 1.81606 0.886774 0
M  V30 6267 C 603.156 0.678818 1.82803 0
M  V30 6268 O 602.426 -0.301354 1.93568 0
M  V30 6269 H 601.006 0.669934 0.330451 0
M  V30 6270 H 603.668 1.94142 0.171757 0
M  V30 6271 H 602.764 2.75634 1.46398 0
M  V30 6272 N 603.065 -0.440357 1.51323 0
M  V30 6273 C 604.293 -1.21255 1.67645 0
M  V30 6274 C 604.708 -1.85088 0.37252 0
M  V30 6275 O 604.065 -1.70582 -0.648683 0
M  V30 6276 C 604.116 -2.29881 2.78993 0
M  V30 6277 O 603.837 -1.68659 4.04334 0
M  V30 6278 C 605.338 -3.20214 3.06558 0
M  V30 6279 H 602.558 -0.36558 0.562666 0
M  V30 6280 H 605.102 -0.52214 1.97722 0
M  V30 6281 H 603.257 -2.94643 2.51524 0
M  V30 6282 H 603.671 -2.40426 4.6615 0
M  V30 6283 H 605.145 -3.92575 3.88058 0
M  V30 6284 H 605.622 -3.80794 2.18844 0
M  V30 6285 H 606.228 -2.61156 3.35675 0
M  V30 6286 N 604.543 -1.41418 -0.695603 0
M  V30 6287 C 605.491 -1.43467 -1.83084 0
M  V30 6288 C 606.485 -0.312719 -1.66489 0
M  V30 6289 O 607.691 -0.484744 -1.7335 0
M  V30 6290 H 604.066 -0.448891 -0.603325 0
M  V30 6291 H 606.037 -2.39144 -1.78473 0
M  V30 6292 C 604.786 -1.3337 -3.21104 0
M  V30 6293 H 604.109 -2.18989 -3.3449 0
M  V30 6294 H 605.549 -1.38865 -4.00615 0
M  V30 6295 C 604.008 -0.0460484 -3.36869 0
M  V30 6296 O 604.538 0.909258 -3.91274 0
M  V30 6297 N 602.744 0.0300222 -2.90584 0
M  V30 6298 H 602.291 -0.748129 -2.46497 0
M  V30 6299 H 602.249 0.890991 -3.01511 0
M  V30 6300 N 606.021 0.929856 -1.27246 0
M  V30 6301 C 606.954 2.03069 -1.04106 0
M  V30 6302 C 607.932 1.62556 0.0378417 0
M  V30 6303 O 609.116 1.88197 -0.106869 0
M  V30 6304 C 606.243 3.33718 -0.578778 0
M  V30 6305 C 605.289 3.93209 -1.65193 0
M  V30 6306 S 606.122 4.26068 -3.24386 0
M  V30 6307 C 607.278 5.598 -2.79954 0
M  V30 6308 H 607.511 2.22386 -1.97311 0
M  V30 6309 H 605.044 1.07269 -1.11053 0
M  V30 6310 H 607.002 4.09261 -0.31874 0
M  V30 6311 H 605.663 3.12328 0.333182 0
M  V30 6312 H 604.856 4.87482 -1.27973 0
M  V30 6313 H 604.458 3.24243 -1.86393 0
M  V30 6314 H 606.75 6.39004 -2.25123 0
M  V30 6315 H 607.693 6.01917 -3.72963 0
M  V30 6316 H 608.101 5.20219 -2.19164 0
M  V30 6317 N 607.499 1.09233 1.13605 0
M  V30 6318 C 608.776 0.739633 1.81077 0
M  V30 6319 C 609.156 -0.775595 1.96336 0
M  V30 6320 O 608.504 -1.69726 1.52988 0
M  V30 6321 C 608.714 1.47636 3.16235 0
M  V30 6322 C 610.062 1.64087 3.91613 0
M  V30 6323 O 611.086 1.43871 3.25852 0
M  V30 6324 O 609.945 1.97511 5.0956 0
M  V30 6325 H 607.039 0.265464 0.783236 0
M  V30 6326 H 609.585 1.19441 1.20549 0
M  V30 6327 H 608.357 2.50818 3.00344 0
M  V30 6328 H 607.98 1.01362 3.84462 0
M  V30 6329 N 608.977 -1.30795 0.87923 0
M  V30 6330 C 610.226 -1.95636 0.490875 0
M  V30 6331 C 610.539 -1.70214 -0.963674 0
M  V30 6332 O 611.745 -2.28991 -1.45861 0
M  V30 6333 C 610.201 -3.50271 0.826929 0
M  V30 6334 C 609.809 -3.84521 2.29886 0
M  V30 6335 C 611.553 -4.21456 0.507494 0
M  V30 6336 C 609.46 -5.32309 2.57685 0
M  V30 6337 H 608.39 -0.732238 0.179841 0
M  V30 6338 H 611.041 -1.48829 1.07341 0
M  V30 6339 H 609.423 -3.9562 0.173542 0
M  V30 6340 H 610.597 -3.50102 2.99609 0
M  V30 6341 H 608.912 -3.26425 2.58526 0
M  V30 6342 H 611.509 -5.30199 0.692293 0
M  V30 6343 H 611.852 -4.12614 -0.552718 0
M  V30 6344 H 612.385 -3.81772 1.11782 0
M  V30 6345 H 609.124 -5.46195 3.62424 0
M  V30 6346 H 608.644 -5.68048 1.92566 0
M  V30 6347 H 610.323 -5.99678 2.42889 0
M  V30 6348 N 610.455 -0.639598 -1.44038 0
M  V30 6349 C 611.701 -0.147698 -2.02261 0
M  V30 6350 C 612.034 1.23031 -1.50256 0
M  V30 6351 O 611.309 1.81847 -0.690068 0
M  V30 6352 C 611.592 -0.14362 -3.59813 0
M  V30 6353 C 611.445 -1.55458 -4.22082 0
M  V30 6354 C 612.764 0.527317 -4.36929 0
M  V30 6355 H 609.883 -0.0551453 -0.734934 0
M  V30 6356 H 612.525 -0.817688 -1.71505 0
M  V30 6357 H 610.675 0.426898 -3.86147 0
M  V30 6358 H 612.347 -2.17464 -4.06826 0
M  V30 6359 H 610.59 -2.10594 -3.79253 0
M  V30 6360 H 611.261 -1.50369 -5.31124 0
M  V30 6361 H 613.737 0.0420504 -4.16079 0
M  V30 6362 H 612.613 0.499389 -5.46624 0
M  V30 6363 H 612.874 1.59914 -4.12165 0
M  V30 6364 N 611.933 1.52934 -0.380664 0
M  V30 6365 C 612.843 2.29921 0.466192 0
M  V30 6366 C 613.859 1.36488 1.07922 0
M  V30 6367 O 615.035 1.69553 1.0869 0
M  V30 6368 C 612.1 3.08468 1.58266 0
M  V30 6369 C 611.161 4.17595 0.995627 0
M  V30 6370 C 610.394 4.92387 2.05889 0
M  V30 6371 O 610.617 4.67184 3.27254 0
M  V30 6372 O 609.551 5.77949 1.68102 0
M  V30 6373 H 613.377 3.03274 -0.160735 0
M  V30 6374 H 610.962 1.48698 -0.144617 0
M  V30 6375 H 612.844 3.57469 2.23145 0
M  V30 6376 H 611.519 2.37937 2.19471 0
M  V30 6377 H 610.426 3.72811 0.310332 0
M  V30 6378 H 611.759 4.90336 0.427918 0
M  V30 6379 N 613.412 0.11024 1.57214 0
M  V30 6380 C 614.823 -0.416527 1.81994 0
M  V30 6381 C 615.174 -1.67183 1.02686 0
M  V30 6382 O 614.299 -2.14823 0.260782 0
M  V30 6383 C 614.894 -0.762466 3.30109 0
M  V30 6384 C 613.453 -1.23391 3.556 0
M  V30 6385 C 612.6 -0.238166 2.76275 0
M  V30 6386 H 615.551 0.335491 1.55113 0
M  V30 6387 H 615.572 -1.62068 3.44259 0
M  V30 6388 H 615.084 0.151346 3.87805 0
M  V30 6389 H 613.185 -2.16492 3.03253 0
M  V30 6390 H 613.298 -1.18528 4.64207 0
M  V30 6391 H 611.662 -0.723421 2.4421 0
M  V30 6392 H 612.445 0.668591 3.36727 0
M  V30 6393 N 614.89 -1.56749 -0.16351 0
M  V30 6394 C 616.118 -1.86577 -0.894233 0
M  V30 6395 C 616.533 -0.696543 -1.75481 0
M  V30 6396 O 615.89 0.334161 -1.79415 0
M  V30 6397 C 615.941 -3.15508 -1.76456 0
M  V30 6398 O 615.662 -4.27926 -0.938685 0
M  V30 6399 C 617.163 -3.58737 -2.60428 0
M  V30 6400 H 614.383 -0.618829 -0.259405 0
M  V30 6401 H 616.927 -2.03863 -0.161259 0
M  V30 6402 H 615.082 -3.00025 -2.45079 0
M  V30 6403 H 615.496 -5.01546 -1.53465 0
M  V30 6404 H 616.97 -4.51832 -3.17099 0
M  V30 6405 H 617.447 -2.83229 -3.35675 0
M  V30 6406 H 618.053 -3.76858 -1.97125 0
M  V30 6407 N 616.368 0.432326 -1.51554 0
M  V30 6408 C 617.331 1.50765 -1.72634 0
M  V30 6409 C 618.331 1.49334 -0.596314 0
M  V30 6410 O 619.521 1.51268 -0.863925 0
M  V30 6411 C 616.653 2.90284 -1.7874 0
M  V30 6412 H 617.846 1.33377 -2.68609 0
M  V30 6413 H 615.399 0.661329 -1.4162 0
M  V30 6414 H 616.134 3.13071 -0.845977 0
M  V30 6415 H 615.919 2.92727 -2.6087 0
M  V30 6416 H 617.409 3.68282 -1.96871 0
M  V30 6417 O 617.885 1.50798 0.578109 0
M  V30 6418 H 618.576 1.4938 1.2331 0
M  V30 END ATOM
M  V30 BEGIN BOND
M  V30 END BOND
M  V30 END CTAB
M  END
$$$$
