drugbank_target|P31391 Somatostatin receptor type 4 (DB09099; DB13985)
 OpenBabel12092121123D

  0  0  0     0  0            999 V3000
M  V30 BEGIN CTAB
M  V30 COUNTS 6006 6077 0 0 0
M  V30 BEGIN ATOM
M  V30 1 H -0.908 1.98254 -0.117106 0
M  V30 2 N 0 1.576 0 0
M  V30 3 C 0.933 2.03868 1.02534 0
M  V30 4 C 1.911 0.928543 1.3348 0
M  V30 5 O 3.095 1.19667 1.45644 0
M  V30 6 C 0.222 2.43627 2.35294 0
M  V30 7 C -0.732 3.65373 2.2001 0
M  V30 8 S 0.101 5.13292 1.52614 0
M  V30 9 C 1.257 5.56322 2.86805 0
M  V30 10 H 1.49 2.90518 0.631377 0
M  V30 11 H -0.977 1.52953 0.210867 0
M  V30 12 H 0.981 2.67203 3.11629 0
M  V30 13 H -0.358 1.57376 2.7183 0
M  V30 14 H -1.165 3.90944 3.18086 0
M  V30 15 H -1.563 3.418 1.51819 0
M  V30 16 H 0.729 5.58782 3.83104 0
M  V30 17 H 1.672 6.56266 2.65933 0
M  V30 18 H 2.08 4.83886 2.90714 0
M  V30 19 N 1.4781 -0.272755 1.55222 0
M  V30 20 C 2.7031 -1.02683 1.80197 0
M  V30 21 C 3.1281 -1.79142 0.573551 0
M  V30 22 O 2.4861 -1.74917 -0.476849 0
M  V30 23 C 2.5341 -1.9609 3.02624 0
M  V30 24 O 1.6381 -3.04863 2.77727 0
M  V30 25 H 0.9791 -0.293557 0.595584 0
M  V30 26 H 3.5091 -0.30159 2.02365 0
M  V30 27 H 3.5191 -2.38039 3.31363 0
M  V30 28 H 2.1941 -1.39851 3.91682 0
M  V30 29 H 0.7711 -2.67228 2.60084 0
M  V30 30 N 2.9562 -1.48159 -0.537278 0
M  V30 31 C 3.9192 -1.61665 -1.62472 0
M  V30 32 C 4.9192 -0.490395 -1.5314 0
M  V30 33 O 6.1092 -0.755998 -1.5694 0
M  V30 34 C 3.2412 -1.57997 -3.02076 0
M  V30 35 H 4.4342 -2.58621 -1.51839 0
M  V30 36 H 1.9872 -1.36647 -0.758771 0
M  V30 37 H 2.7222 -0.624913 -3.18222 0
M  V30 38 H 2.5072 -2.39755 -3.10258 0
M  V30 39 H 3.9972 -1.70627 -3.81151 0
M  V30 40 N 4.4343 0.785586 -1.36625 0
M  V30 41 C 5.8453 1.36101 -1.27803 0
M  V30 42 C 6.1963 1.96035 0.0804875 0
M  V30 43 O 5.3213 1.92834 0.982042 0
M  V30 44 C 5.9163 2.47442 -2.31426 0
M  V30 45 C 4.4753 3.00789 -2.26281 0
M  V30 46 C 3.6223 1.73896 -2.15999 0
M  V30 47 H 6.5733 0.586928 -1.47448 0
M  V30 48 H 6.5943 3.2656 -1.95291 0
M  V30 49 H 6.1063 2.03791 -3.30289 0
M  V30 50 H 4.2073 3.48851 -1.30896 0
M  V30 51 H 4.3203 3.57343 -3.19128 0
M  V30 52 H 2.6843 1.9628 -1.62316 0
M  V30 53 H 3.4673 1.32368 -3.16755 0
M  V30 54 N 5.9124 1.20967 1.01018 0
M  V30 55 C 7.1374 1.0503 1.78839 0
M  V30 56 C 7.5624 -0.395752 1.8389 0
M  V30 57 O 6.9204 -1.28529 1.27867 0
M  V30 58 C 6.9684 1.64602 3.2084 0
M  V30 59 O 6.0724 0.887988 4.02726 0
M  V30 60 H 5.4134 0.369987 0.551367 0
M  V30 61 H 7.9434 1.60399 1.27018 0
M  V30 62 H 7.9534 1.68607 3.71532 0
M  V30 63 H 6.6284 2.69841 3.16479 0
M  V30 64 H 5.2054 0.922648 3.61305 0
M  V30 65 N 7.3905 -1.2043 1.01659 0
M  V30 66 C 8.6185 -1.93777 0.725132 0
M  V30 67 C 9.0335 -1.74772 -0.714166 0
M  V30 68 O 8.3905 -1.06169 -1.4844 0
M  V30 69 C 8.4415 -3.45876 1.05129 0
M  V30 70 O 8.1625 -3.6426 2.43406 0
M  V30 71 C 9.6635 -4.36368 0.780891 0
M  V30 72 H 6.8835 -0.615901 0.266284 0
M  V30 73 H 9.4275 -1.52922 1.35776 0
M  V30 74 H 7.5825 -3.8461 0.464065 0
M  V30 75 H 7.9965 -4.58246 2.55169 0
M  V30 76 H 9.4705 -5.41743 1.05918 0
M  V30 77 H 9.9475 -4.38275 -0.284937 0
M  V30 78 H 10.5535 -4.03296 1.35027 0
M  V30 79 N 8.8686 -0.792821 -1.36206 0
M  V30 80 C 9.7986 -0.207853 -2.32573 0
M  V30 81 C 10.7796 0.659055 -1.56813 0
M  V30 82 O 11.9646 0.592176 -1.84951 0
M  V30 83 C 9.0946 0.655449 -3.41059 0
M  V30 84 C 8.0486 -0.111842 -4.27854 0
M  V30 85 C 7.3746 0.872274 -5.27537 0
M  V30 86 C 8.6746 -1.30299 -5.05786 0
M  V30 87 H 10.3686 -1.01294 -2.81744 0
M  V30 88 H 7.9146 -0.48854 -1.3546 0
M  V30 89 H 9.8676 1.07464 -4.07467 0
M  V30 90 H 8.5916 1.49328 -2.90463 0
M  V30 91 H 7.2506 -0.512053 -3.63006 0
M  V30 92 H 6.8986 1.70523 -4.73214 0
M  V30 93 H 6.5986 0.363291 -5.86476 0
M  V30 94 H 8.1226 1.28996 -5.96818 0
M  V30 95 H 9.5366 -0.959379 -5.65216 0
M  V30 96 H 7.9336 -1.7455 -5.74154 0
M  V30 97 H 9.0036 -2.09663 -4.37229 0
M  V30 98 N 10.3467 1.47872 -0.545128 0
M  V30 99 C 11.7577 1.86384 -0.108581 0
M  V30 100 C 12.1087 1.45309 1.31832 0
M  V30 101 O 11.2337 0.850641 1.9898 0
M  V30 102 C 11.8287 3.38265 -0.190274 0
M  V30 103 C 10.3877 3.75914 0.191164 0
M  V30 104 C 9.5347 2.71926 -0.543273 0
M  V30 105 H 12.4857 1.39561 -0.755537 0
M  V30 106 H 12.5067 3.75831 0.594217 0
M  V30 107 H 12.0187 3.6813 -1.2289 0
M  V30 108 H 10.1197 3.51665 1.23136 0
M  V30 109 H 10.2327 4.78836 -0.158987 0
M  V30 110 H 8.5967 2.54697 0.0122495 0
M  V30 111 H 9.3797 3.04634 -1.58282 0
M  V30 112 N 11.8248 0.280983 1.55075 0
M  V30 113 C 13.2358 -0.215629 1.85451 0
M  V30 114 C 13.5868 -1.54991 1.203 0
M  V30 115 O 12.7118 -2.10699 0.493435 0
M  V30 116 C 13.3068 -0.398026 3.36454 0
M  V30 117 C 11.8658 -0.838866 3.66933 0
M  V30 118 C 11.0128 0.064458 2.77225 0
M  V30 119 H 13.9638 0.502601 1.50531 0
M  V30 120 H 13.9848 -1.23569 3.59876 0
M  V30 121 H 13.4968 0.573241 3.83843 0
M  V30 122 H 11.5978 -1.8214 3.25048 0
M  V30 123 H 11.7108 -0.672123 4.74362 0
M  V30 124 H 10.0748 -0.452863 2.50642 0
M  V30 125 H 10.8578 1.03172 3.2743 0
M  V30 126 N 13.3029 -1.57598 0.00835791 0
M  V30 127 C 14.5509 -1.90551 -0.6734 0
M  V30 128 C 14.8719 -0.883301 -1.73847 0
M  V30 129 O 14.1419 0.0781442 -1.95744 0
M  V30 130 H 12.7219 -0.703312 -0.251717 0
M  V30 131 H 15.3839 -1.94833 0.0512592 0
M  V30 132 H 14.4799 -2.9056 -1.13935 0
M  V30 133 N 14.781 0.264519 -1.55364 0
M  V30 134 C 16.029 0.993021 -1.76021 0
M  V30 135 C 16.35 1.86511 -0.569099 0
M  V30 136 O 15.62 1.91438 0.415735 0
M  V30 137 H 14.2 0.369639 -0.649135 0
M  V30 138 H 16.862 0.286707 -1.9278 0
M  V30 139 H 15.958 1.62502 -2.66457 0
M  V30 140 N 16.2591 1.48442 0.529413 0
M  V30 141 C 17.1691 1.6569 1.66084 0
M  V30 142 C 18.1851 0.539432 1.65427 0
M  V30 143 O 19.3611 0.810572 1.84368 0
M  V30 144 C 16.4261 1.69315 3.02545 0
M  V30 145 C 15.4871 2.92694 3.14052 0
M  V30 146 C 14.7201 2.96137 4.44003 0
M  V30 147 O 14.9431 2.07973 5.31134 0
M  V30 148 O 13.8771 3.88312 4.59888 0
M  V30 149 H 17.7031 2.61483 1.54469 0
M  V30 150 H 15.2881 1.3185 0.702567 0
M  V30 151 H 17.1701 1.74217 3.83701 0
M  V30 152 H 15.8451 0.766966 3.14483 0
M  V30 153 H 14.7521 2.93324 2.32189 0
M  V30 154 H 16.0851 3.84699 3.0703 0
M  V30 155 N 17.7372 -0.778329 1.37039 0
M  V30 156 C 18.6472 -1.92253 1.34446 0
M  V30 157 C 19.6632 -1.72267 0.244991 0
M  V30 158 O 20.8392 -1.95615 0.479258 0
M  V30 159 C 17.9042 -3.27282 1.144 0
M  V30 160 C 16.9652 -3.59969 2.33925 0
M  V30 161 C 16.1982 -4.88555 2.14825 0
M  V30 162 O 16.4212 -5.59113 1.12912 0
M  V30 163 O 15.3552 -5.20153 3.02861 0
M  V30 164 H 19.1812 -1.97392 2.30803 0
M  V30 165 H 16.7662 -0.920154 1.17701 0
M  V30 166 H 18.6482 -4.08062 1.05182 0
M  V30 167 H 17.3232 -3.23011 0.211124 0
M  V30 168 H 16.2302 -2.7945 2.48714 0
M  V30 169 H 17.5632 -3.68976 3.25757 0
M  V30 170 N 19.2153 -1.21501 -1.00376 0
M  V30 171 C 20.4633 -1.03095 -1.73827 0
M  V30 172 C 20.7843 0.436341 -1.90055 0
M  V30 173 O 20.0543 1.31466 -1.45236 0
M  V30 174 H 18.6343 -0.378487 -0.644016 0
M  V30 175 H 21.2963 -1.52831 -1.20949 0
M  V30 176 H 20.3923 -1.49991 -2.73695 0
M  V30 177 N 20.6934 1.19889 -1.02296 0
M  V30 178 C 21.6234 2.25141 -0.619174 0
M  V30 179 C 22.6044 1.66051 0.368915 0
M  V30 180 O 23.7894 1.92546 0.252941 0
M  V30 181 C 20.9194 3.4728 0.0368783 0
M  V30 182 C 19.8734 4.19005 -0.872865 0
M  V30 183 C 19.1994 5.34637 -0.0822402 0
M  V30 184 C 20.4994 4.74452 -2.18387 0
M  V30 185 H 22.1934 2.59171 -1.49903 0
M  V30 186 H 19.7394 1.24579 -0.722222 0
M  V30 187 H 21.6924 4.20098 0.330958 0
M  V30 188 H 20.4164 3.12433 0.95149 0
M  V30 189 H 19.0754 3.48061 -1.15105 0
M  V30 190 H 18.7234 4.96034 0.83422 0
M  V30 191 H 18.4234 5.83557 -0.688149 0
M  V30 192 H 19.9474 6.10255 0.205238 0
M  V30 193 H 21.3614 5.39055 -1.95172 0
M  V30 194 H 19.7584 5.33834 -2.74119 0
M  V30 195 H 20.8284 3.92844 -2.84257 0
M  V30 196 N 22.1715 0.800033 1.35784 0
M  V30 197 C 23.4195 0.376597 1.9856 0
M  V30 198 C 23.7405 -1.05812 1.63795 0
M  V30 199 O 23.0105 -1.73103 0.917171 0
M  V30 200 H 21.5905 0.136261 0.734467 0
M  V30 201 H 24.2525 1.02442 1.65806 0
M  V30 202 H 23.3485 0.477002 3.08433 0
M  V30 203 N 23.6496 -1.47581 0.552962 0
M  V30 204 C 24.8776 -2.06875 0.0320556 0
M  V30 205 C 25.2926 -1.40625 -1.25976 0
M  V30 206 O 24.6496 -0.501349 -1.75479 0
M  V30 207 C 24.7006 -3.61092 -0.17167 0
M  V30 208 O 24.4216 -4.24858 1.06899 0
M  V30 209 C 25.9226 -4.37242 -0.730344 0
M  V30 210 H 23.1426 -0.669561 0.043915 0
M  V30 211 H 25.6866 -1.89646 0.765163 0
M  V30 212 H 23.8416 -3.7785 -0.854894 0
M  V30 213 H 24.2556 -5.17334 0.864059 0
M  V30 214 H 25.7296 -5.45842 -0.822203 0
M  V30 215 H 26.2066 -4.03235 -1.74064 0
M  V30 216 H 26.8126 -4.25219 -0.0829543 0
M  V30 217 N 25.1277 -0.289203 -1.54924 0
M  V30 218 C 26.0907 0.579144 -2.21762 0
M  V30 219 C 27.0907 1.07047 -1.1999 0
M  V30 220 O 28.2807 0.968384 -1.44803 0
M  V30 221 C 25.4127 1.80055 -2.8947 0
M  V30 222 H 26.6057 -0.00464908 -2.999 0
M  V30 223 H 24.1587 -0.0399306 -1.56249 0
M  V30 224 H 24.8937 2.42449 -2.15381 0
M  V30 225 H 24.6787 1.45602 -3.64064 0
M  V30 226 H 26.1687 2.41773 -3.40493 0
M  V30 227 N 26.6058 1.57591 -0.0167156 0
M  V30 228 C 27.8518 1.92399 0.659861 0
M  V30 229 C 28.2068 0.892561 1.70444 0
M  V30 230 O 27.4998 -0.0930755 1.91374 0
M  V30 231 C 27.6938 3.3172 1.33029 0
M  V30 232 C 27.5228 4.48319 0.352174 0
M  V30 233 C 26.2928 5.05281 -0.0434883 0
M  V30 234 C 28.4908 5.12831 -0.388474 0
M  V30 235 N 26.4728 6.05399 -1.01807 0
M  V30 236 C 27.8438 6.07934 -1.2172 0
M  V30 237 C 29.8988 4.95858 -0.450513 0
M  V30 238 C 28.6018 6.87891 -2.10235 0
M  V30 239 C 30.6278 5.76413 -1.32295 0
M  V30 240 C 29.9898 6.71123 -2.13948 0
M  V30 241 H 26.0888 0.752106 0.21415 0
M  V30 242 H 28.6728 1.94532 -0.0809846 0
M  V30 243 H 26.8438 3.3043 2.04134 0
M  V30 244 H 28.5758 3.5391 1.9629 0
M  V30 245 H 25.3308 4.7246 0.328384 0
M  V30 246 H 25.7548 6.60145 -1.50123 0
M  V30 247 H 30.3968 4.22472 0.166512 0
M  V30 248 H 28.1148 7.60591 -2.72997 0
M  V30 249 H 31.7008 5.65317 -1.37508 0
M  V30 250 H 30.5808 7.3237 -2.80364 0
M  V30 251 N 28.0839 -0.256276 1.55502 0
M  V30 252 C 29.4949 -0.826068 1.67431 0
M  V30 253 C 29.8459 -1.86396 0.612446 0
M  V30 254 O 28.9709 -2.15031 -0.243025 0
M  V30 255 C 29.5659 -1.50512 3.03532 0
M  V30 256 C 28.1249 -2.02273 3.17431 0
M  V30 257 C 27.2719 -0.870548 2.63281 0
M  V30 258 H 30.2229 -0.0322728 1.58667 0
M  V30 259 H 30.2439 -2.37279 2.97454 0
M  V30 260 H 29.7559 -0.749484 3.80794 0
M  V30 261 H 27.8569 -2.80746 2.44974 0
M  V30 262 H 27.9699 -2.22655 4.24219 0
M  V30 263 H 26.3339 -1.26851 2.20864 0
M  V30 264 H 27.1169 -0.128149 3.43061 0
M  V30 265 N 29.562 -1.4872 -0.521534 0
M  V30 266 C 30.787 -1.61101 -1.30618 0
M  V30 267 C 31.212 -0.274611 -1.86085 0
M  V30 268 O 30.57 0.754937 -1.64834 0
M  V30 269 C 30.618 -2.66709 -2.4269 0
M  V30 270 O 29.722 -2.24456 -3.45967 0
M  V30 271 H 29.063 -0.539921 -0.386499 0
M  V30 272 H 31.593 -1.94767 -0.626645 0
M  V30 273 H 31.603 -2.88245 -2.88754 0
M  V30 274 H 30.278 -3.63727 -2.01682 0
M  V30 275 H 28.855 -2.13168 -3.05964 0
M  V30 276 N 31.0401 0.771051 -1.3745 0
M  V30 277 C 32.0031 1.86598 -1.33093 0
M  V30 278 C 33.0031 1.59076 -0.234845 0
M  V30 279 O 34.1931 1.67145 -0.490732 0
M  V30 280 C 31.3251 3.23747 -1.06773 0
M  V30 281 H 32.5181 1.91873 -2.30488 0
M  V30 282 H 30.0711 0.970876 -1.2249 0
M  V30 283 H 30.8061 3.24148 -0.099129 0
M  V30 284 H 30.5911 3.45115 -1.86112 0
M  V30 285 H 32.0811 4.03824 -1.06377 0
M  V30 286 N 32.5182 1.22032 0.997298 0
M  V30 287 C 33.4812 0.987909 2.06816 0
M  V30 288 C 34.4812 -0.0440084 1.6074 0
M  V30 289 O 35.6712 0.194053 1.73116 0
M  V30 290 C 32.8032 0.49132 3.37341 0
M  V30 291 H 33.9962 1.93803 2.28868 0
M  V30 292 H 31.5492 1.03838 1.16822 0
M  V30 293 H 32.2842 -0.463364 3.20973 0
M  V30 294 H 32.0692 1.23575 3.72118 0
M  V30 295 H 33.5592 0.348824 4.16141 0
M  V30 296 N 33.9963 -1.19345 1.0293 0
M  V30 297 C 34.9443 -2.24621 0.604001 0
M  V30 298 C 35.9383 -1.65452 -0.363587 0
M  V30 299 O 37.1443 -1.78497 -0.23212 0
M  V30 300 H 33.5193 -0.730858 0.177061 0
M  V30 301 H 35.4903 -2.5781 1.50255 0
M  V30 302 C 34.2393 -3.47688 -0.0289127 0
M  V30 303 H 33.5623 -3.93505 0.706651 0
M  V30 304 H 35.0023 -4.23011 -0.289432 0
M  V30 305 C 33.4613 -3.11817 -1.2756 0
M  V30 306 O 33.9913 -3.2451 -2.36762 0
M  V30 307 N 32.1973 -2.66246 -1.16453 0
M  V30 308 H 31.7443 -2.56118 -0.275914 0
M  V30 309 H 31.7023 -2.42617 -1.99961 0
M  V30 310 N 35.4744 -0.807222 -1.35358 0
M  V30 311 C 36.4374 -0.223665 -2.28106 0
M  V30 312 C 37.4374 0.589354 -1.4961 0
M  V30 313 O 38.6274 0.407745 -1.69361 0
M  V30 314 C 35.7594 0.688149 -3.33882 0
M  V30 315 H 36.9524 -1.04169 -2.81227 0
M  V30 316 H 34.5054 -0.577921 -1.45223 0
M  V30 317 H 35.2404 1.52984 -2.85948 0
M  V30 318 H 35.0254 0.10687 -3.91954 0
M  V30 319 H 36.5154 1.09075 -4.03104 0
M  V30 320 N 36.9525 1.47285 -0.560781 0
M  V30 321 C 38.1775 2.07359 -0.0410566 0
M  V30 322 C 38.6025 1.41017 1.24483 0
M  V30 323 O 37.9605 0.486368 1.74654 0
M  V30 324 C 38.0085 3.6035 0.134123 0
M  V30 325 O 37.1125 3.94681 1.19587 0
M  V30 326 H 36.4535 0.661887 -0.0529291 0
M  V30 327 H 38.9835 1.89252 -0.777482 0
M  V30 328 H 38.9935 4.0652 0.347207 0
M  V30 329 H 37.6685 4.08034 -0.805047 0
M  V30 330 H 36.2455 3.60251 0.962987 0
M  V30 331 N 38.4306 0.297415 1.54768 0
M  V30 332 C 39.6556 -0.318435 2.04941 0
M  V30 333 C 40.0806 -1.4701 1.17345 0
M  V30 334 O 39.4386 -1.80436 0.176758 0
M  V30 335 C 39.4866 -0.755749 3.52592 0
M  V30 336 O 38.5906 -1.86088 3.68028 0
M  V30 337 H 37.9316 -0.062421 0.661059 0
M  V30 338 H 40.4616 0.438215 1.99852 0
M  V30 339 H 40.4716 -1.04552 3.94376 0
M  V30 340 H 39.1466 0.0867233 4.1581 0
M  V30 341 H 37.7236 -1.57193 3.38149 0
M  V30 342 N 39.9087 -1.5758 0.0250728 0
M  V30 343 C 40.8717 -2.08896 -0.943139 0
M  V30 344 C 41.8717 -1.00321 -1.25668 0
M  V30 345 O 43.0617 -1.26495 -1.19769 0
M  V30 346 C 40.1937 -2.55143 -2.26086 0
M  V30 347 H 41.3867 -2.95723 -0.498775 0
M  V30 348 H 38.9397 -1.54703 -0.222888 0
M  V30 349 H 39.6747 -1.71633 -2.75159 0
M  V30 350 H 39.4597 -3.34461 -2.04641 0
M  V30 351 H 40.9497 -2.95083 -2.95492 0
M  V30 352 N 41.3868 0.248026 -1.55636 0
M  V30 353 C 42.7978 0.817177 -1.67866 0
M  V30 354 C 43.1488 1.86069 -0.622322 0
M  V30 355 O 42.2738 2.15157 0.231618 0
M  V30 356 C 42.8688 1.489 -3.04326 0
M  V30 357 C 41.4278 2.00587 -3.185 0
M  V30 358 C 40.5748 0.856573 -2.63739 0
M  V30 359 H 43.5258 0.0238579 -1.58682 0
M  V30 360 H 43.5468 2.35698 -2.98708 0
M  V30 361 H 43.0588 0.729279 -3.81186 0
M  V30 362 H 41.1598 2.79443 -2.4646 0
M  V30 363 H 41.2728 2.20402 -4.25393 0
M  V30 364 H 39.6368 1.25678 -2.21534 0
M  V30 365 H 40.4198 0.109953 -3.43124 0
M  V30 366 N 42.8649 1.48995 0.513639 0
M  V30 367 C 43.8279 1.64229 1.59879 0
M  V30 368 C 44.8279 0.514696 1.5234 0
M  V30 369 O 46.0179 0.78087 1.55718 0
M  V30 370 C 43.1499 1.62783 2.99524 0
M  V30 371 H 44.3429 2.61004 1.47705 0
M  V30 372 H 41.8959 1.37837 0.736936 0
M  V30 373 H 42.6309 0.675461 3.17188 0
M  V30 374 H 42.4159 2.4466 3.06404 0
M  V30 375 H 43.9059 1.76669 3.78388 0
M  V30 376 N 44.343 -0.763751 1.37857 0
M  V30 377 C 45.253 -1.90817 1.36478 0
M  V30 378 C 46.269 -1.71997 0.263248 0
M  V30 379 O 47.445 -1.95095 0.499979 0
M  V30 380 C 44.51 -3.2605 1.17864 0
M  V30 381 C 43.571 -3.57467 2.3773 0
M  V30 382 C 42.804 -4.86249 2.19995 0
M  V30 383 O 43.027 -5.57884 1.18836 0
M  V30 384 O 41.961 -5.16911 3.08361 0
M  V30 385 H 45.787 -1.94933 2.32884 0
M  V30 386 H 43.372 -0.907619 1.1867 0
M  V30 387 H 45.254 -4.06924 1.09504 0
M  V30 388 H 43.929 -3.22769 0.245372 0
M  V30 389 H 42.836 -2.76796 2.51664 0
M  V30 390 H 44.169 -3.655 3.29652 0
M  V30 391 N 45.8211 -1.22559 -0.990812 0
M  V30 392 C 46.7841 -0.998863 -2.0629 0
M  V30 393 C 47.7841 0.0354834 -1.60761 0
M  V30 394 O 48.9741 -0.203231 -1.7301 0
M  V30 395 C 46.1061 -0.509203 -3.37076 0
M  V30 396 H 47.2991 -1.95014 -2.27837 0
M  V30 397 H 44.8521 -1.04456 -1.16269 0
M  V30 398 H 45.5871 0.446335 -3.21214 0
M  V30 399 H 45.3721 -1.25547 -3.71457 0
M  V30 400 H 46.8621 -0.370888 -4.1595 0
M  V30 401 N 47.2992 1.18797 -1.03562 0
M  V30 402 C 48.2092 2.25913 -0.632505 0
M  V30 403 C 49.2252 1.70668 0.338882 0
M  V30 404 O 50.4012 2.00453 0.195076 0
M  V30 405 C 47.4662 3.467 0.00350942 0
M  V30 406 C 46.5272 4.17098 -1.01624 0
M  V30 407 C 45.7602 5.32119 -0.410478 0
M  V30 408 O 45.9832 5.64976 0.784725 0
M  V30 409 O 44.9172 5.9107 -1.13667 0
M  V30 410 H 48.7432 2.62648 -1.52478 0
M  V30 411 H 46.3282 1.25781 -0.806195 0
M  V30 412 H 48.2102 4.19878 0.35781 0
M  V30 413 H 46.8852 3.11798 0.869686 0
M  V30 414 H 45.7922 3.4601 -1.42224 0
M  V30 415 H 47.1252 4.55987 -1.85301 0
M  V30 416 N 48.7773 0.814389 1.34928 0
M  V30 417 C 49.6873 0.231978 2.3345 0
M  V30 418 C 50.7033 -0.629139 1.62228 0
M  V30 419 O 51.8793 -0.539052 1.94052 0
M  V30 420 C 48.9443 -0.603482 3.41407 0
M  V30 421 C 48.0053 0.279037 4.28392 0
M  V30 422 C 47.2383 -0.516643 5.31193 0
M  V30 423 O 47.4613 -1.75068 5.4287 0
M  V30 424 O 46.3953 0.0965652 6.01823 0
M  V30 425 H 50.2213 1.04721 2.85074 0
M  V30 426 H 47.8063 0.576343 1.37836 0
M  V30 427 H 49.6883 -1.07908 4.0735 0
M  V30 428 H 48.3633 -1.39618 2.92042 0
M  V30 429 H 47.2703 0.801948 3.65403 0
M  V30 430 H 48.6033 1.03588 4.81176 0
M  V30 431 N 50.2554 -1.46986 0.568584 0
M  V30 432 C 51.2184 -2.28624 -0.162366 0
M  V30 433 C 52.2184 -1.37596 -0.832103 0
M  V30 434 O 53.4084 -1.60115 -0.68622 0
M  V30 435 C 50.5404 -3.17596 -1.23878 0
M  V30 436 H 51.7334 -2.94722 0.554899 0
M  V30 437 H 49.2864 -1.52863 0.325976 0
M  V30 438 H 50.0214 -2.56214 -1.98808 0
M  V30 439 H 49.8064 -3.846 -0.763219 0
M  V30 440 H 51.2964 -3.79078 -1.75185 0
M  V30 441 N 51.7335 -0.305618 -1.54608 0
M  V30 442 C 52.9795 0.302746 -2.00528 0
M  V30 443 C 53.3125 1.53184 -1.19367 0
M  V30 444 O 52.5875 1.92598 -0.271321 0
M  V30 445 C 52.8705 0.654756 -3.54097 0
M  V30 446 C 52.7235 -0.583793 -4.45995 0
M  V30 447 C 54.0425 1.47947 -4.14487 0
M  V30 448 H 51.1615 0.108564 -0.72896 0
M  V30 449 H 53.8035 -0.418634 -1.85331 0
M  V30 450 H 51.9535 1.26935 -3.67178 0
M  V30 451 H 53.6255 -1.22224 -4.44814 0
M  V30 452 H 51.8685 -1.21615 -4.16404 0
M  V30 453 H 52.5395 -0.293287 -5.5122 0
M  V30 454 H 55.0155 0.96013 -4.04871 0
M  V30 455 H 53.8915 1.69454 -5.22088 0
M  V30 456 H 54.1525 2.47011 -3.66658 0
M  V30 457 N 53.2116 1.57565 -0.0334293 0
M  V30 458 C 54.1746 2.09393 0.932048 0
M  V30 459 C 55.1746 1.00986 1.25134 0
M  V30 460 O 56.3646 1.27129 1.19096 0
M  V30 461 C 53.4966 2.56338 2.2473 0
M  V30 462 H 54.6896 2.95984 0.483085 0
M  V30 463 H 52.2426 1.54819 0.21468 0
M  V30 464 H 52.9776 1.7309 2.74245 0
M  V30 465 H 52.7626 3.35542 2.02865 0
M  V30 466 H 54.2526 2.96646 2.93923 0
M  V30 467 N 54.6897 -0.239769 1.55765 0
M  V30 468 C 55.9377 -0.964892 1.77579 0
M  V30 469 C 56.2587 -1.85582 0.598699 0
M  V30 470 O 55.5287 -1.92075 -0.385226 0
M  V30 471 H 54.1087 -0.359265 0.654933 0
M  V30 472 H 56.7707 -0.256001 1.93211 0
M  V30 473 H 55.8667 -1.58243 2.69009 0
M  V30 474 N 56.1678 -1.49265 -0.50573 0
M  V30 475 C 57.5788 -1.51769 -1.08734 0
M  V30 476 C 57.9298 -0.301192 -1.93874 0
M  V30 477 O 57.0548 0.589456 -2.08217 0
M  V30 478 C 57.6498 -2.75017 -1.97867 0
M  V30 479 C 56.2088 -2.80314 -2.51199 0
M  V30 480 C 55.3558 -2.4562 -1.28709 0
M  V30 481 H 58.3068 -1.56031 -0.289855 0
M  V30 482 H 58.3278 -2.5491 -2.82491 0
M  V30 483 H 57.8398 -3.63539 -1.35873 0
M  V30 484 H 55.9408 -1.96061 -3.16845 0
M  V30 485 H 56.0538 -3.82366 -2.88675 0
M  V30 486 H 54.4178 -1.97297 -1.61078 0
M  V30 487 H 55.2008 -3.36411 -0.6843 0
M  V30 488 N 57.6459 0.756429 -1.3826 0
M  V30 489 C 58.8939 1.51248 -1.34047 0
M  V30 490 C 59.2149 1.94875 0.0698372 0
M  V30 491 O 58.4849 1.67436 1.01696 0
M  V30 492 H 57.0649 0.561018 -0.493222 0
M  V30 493 H 59.7269 0.899347 -1.7291 0
M  V30 494 H 58.8229 2.40472 -1.98947 0
M  V30 495 N 59.124 1.23083 0.984299 0
M  V30 496 C 60.401 0.9689 1.69917 0
M  V30 497 C 60.781 -0.513604 2.04757 0
M  V30 498 O 60.129 -1.48383 1.73767 0
M  V30 499 C 60.339 1.87518 2.94343 0
M  V30 500 C 61.687 2.13636 3.6694 0
M  V30 501 O 62.711 1.85036 3.04368 0
M  V30 502 O 61.57 2.62119 4.79537 0
M  V30 503 H 58.664 0.365095 0.742048 0
M  V30 504 H 61.21 1.34107 1.03987 0
M  V30 505 H 59.982 2.87756 2.65164 0
M  V30 506 H 59.605 1.50514 3.6801 0
M  V30 507 N 60.6021 -1.18246 1.0419 0
M  V30 508 C 61.5651 -2.20128 0.638452 0
M  V30 509 C 62.5651 -1.57885 -0.304805 0
M  V30 510 O 63.7551 -1.73967 -0.0900369 0
M  V30 511 C 60.8871 -3.4084 -0.0637751 0
M  V30 512 H 62.0801 -2.57336 1.54007 0
M  V30 513 H 59.6331 -1.32152 0.834598 0
M  V30 514 H 60.3681 -3.09166 -0.979136 0
M  V30 515 H 60.1531 -3.8726 0.614198 0
M  V30 516 H 61.6431 -4.16274 -0.332512 0
M  V30 517 N 62.0802 -0.821533 -1.34494 0
M  V30 518 C 63.4962 -0.507117 -1.51329 0
M  V30 519 C 63.6962 0.968964 -1.76673 0
M  V30 520 O 62.7522 1.75348 -1.81685 0
M  V30 521 C 64.0652 -1.36544 -2.67911 0
M  V30 522 C 65.6132 -1.36242 -2.81793 0
M  V30 523 C 66.0882 -2.2052 -4.01416 0
M  V30 524 N 67.5792 -2.18136 -4.08621 0
M  V30 525 C 68.3142 -2.80095 -5.00334 0
M  V30 526 N 67.8102 -3.51039 -5.9728 0
M  V30 527 N 69.6032 -2.69656 -4.93196 0
M  V30 528 H 61.7542 -1.77729 -1.16302 0
M  V30 529 H 64.0172 -0.757291 -0.570276 0
M  V30 530 H 63.7232 -2.41361 -2.55808 0
M  V30 531 H 63.5972 -1.02917 -3.62888 0
M  V30 532 H 65.9842 -0.322041 -2.93338 0
M  V30 533 H 66.0652 -1.73866 -1.87628 0
M  V30 534 H 65.7092 -3.24607 -3.90631 0
M  V30 535 H 65.6392 -1.80247 -4.94791 0
M  V30 536 H 68.1302 -1.6653 -3.39229 0
M  V30 537 H 68.4432 -3.95565 -6.63889 0
M  V30 538 H 66.7882 -3.55145 -5.97409 0
M  V30 539 H 69.9792 -2.13808 -4.16418 0
M  V30 540 H 70.1522 -3.1823 -5.64476 0
M  V30 541 N 63.5583 1.46682 -0.576371 0
M  V30 542 C 64.5213 2.28707 0.150239 0
M  V30 543 C 65.5213 1.38035 0.824794 0
M  V30 544 O 66.7113 1.60476 0.677719 0
M  V30 545 C 63.8433 3.18248 1.22192 0
M  V30 546 H 65.0363 2.94423 -0.570521 0
M  V30 547 H 62.5893 1.52688 -0.334078 0
M  V30 548 H 63.3243 2.57265 1.97447 0
M  V30 549 H 63.1093 3.85 0.742812 0
M  V30 550 H 64.5993 3.80001 1.73172 0
M  V30 551 N 65.0364 0.313813 1.54444 0
M  V30 552 C 65.9994 -0.54379 2.22656 0
M  V30 553 C 66.9994 -1.05124 1.21678 0
M  V30 554 O 68.1894 -0.945225 1.46325 0
M  V30 555 C 65.3214 -1.75427 2.92298 0
M  V30 556 H 66.5144 0.0523599 2.99854 0
M  V30 557 H 64.0674 0.0647834 1.56166 0
M  V30 558 H 64.8024 -2.38991 2.19211 0
M  V30 559 H 64.5874 -1.39791 3.66334 0
M  V30 560 H 66.0774 -2.36325 3.44297 0
M  V30 561 N 66.5145 -1.57545 0.0417849 0
M  V30 562 C 67.7625 -1.91937 -0.632829 0
M  V30 563 C 68.0835 -0.919978 -1.71934 0
M  V30 564 O 67.3535 0.0366064 -1.95866 0
M  V30 565 H 65.9335 -0.708493 -0.236742 0
M  V30 566 H 68.5955 -1.9468 0.0925745 0
M  V30 567 H 67.6915 -2.92912 -1.07746 0
M  V30 568 N 67.9926 0.231505 -1.5589 0
M  V30 569 C 68.9256 1.31369 -1.86595 0
M  V30 570 C 69.9036 1.45671 -0.722397 0
M  V30 571 O 71.0876 1.61642 -0.969743 0
M  V30 572 C 68.2146 2.68529 -2.06421 0
M  V30 573 C 67.2606 2.71295 -3.29092 0
M  V30 574 S 68.0936 2.26358 -4.85306 0
M  V30 575 C 69.2496 3.65414 -5.08157 0
M  V30 576 H 69.4826 1.05128 -2.78092 0
M  V30 577 H 67.0156 0.433259 -1.48197 0
M  V30 578 H 68.9736 3.47499 -2.18528 0
M  V30 579 H 67.6346 2.91999 -1.15738 0
M  V30 580 H 66.8276 3.72063 -3.39978 0
M  V30 581 H 66.4296 2.0038 -3.15791 0
M  V30 582 H 68.7216 4.6103 -4.96445 0
M  V30 583 H 69.6646 3.5945 -6.10083 0
M  V30 584 H 70.0726 3.5864 -4.35933 0
M  V30 585 N 69.4707 1.49531 0.497807 0
M  V30 586 C 70.7167 1.59415 1.25358 0
M  V30 587 C 71.0497 0.281422 1.9215 0
M  V30 588 O 70.3247 -0.715249 1.80871 0
M  V30 589 C 70.6077 2.75566 2.3181 0
M  V30 590 C 70.4607 4.16642 1.69498 0
M  V30 591 C 71.7797 2.87347 3.33346 0
M  V30 592 H 68.8987 0.580244 0.454408 0
M  V30 593 H 71.5407 1.81827 0.551262 0
M  V30 594 H 69.6907 2.56587 2.91711 0
M  V30 595 H 71.3627 4.47145 1.13399 0
M  V30 596 H 69.6057 4.22141 0.998978 0
M  V30 597 H 70.2767 4.93792 2.46725 0
M  V30 598 H 72.7527 3.04634 2.83438 0
M  V30 599 H 71.6287 3.70289 4.05188 0
M  V30 600 H 71.8897 1.96834 3.95865 0
M  V30 601 N 70.9488 -0.749086 1.3866 0
M  V30 602 C 71.9118 -1.84457 1.36045 0
M  V30 603 C 72.9118 -1.58682 0.260122 0
M  V30 604 O 74.1018 -1.66343 0.517261 0
M  V30 605 C 71.2338 -3.22008 1.11911 0
M  V30 606 H 72.4268 -1.88182 2.33512 0
M  V30 607 H 69.9798 -0.951266 1.24019 0
M  V30 608 H 70.7148 -3.2395 0.150686 0
M  V30 609 H 70.4998 -3.42111 1.91579 0
M  V30 610 H 71.9898 -4.0208 1.12788 0
M  V30 611 N 72.4269 -1.23603 -0.977757 0
M  V30 612 C 73.6759 -1.06377 -1.71368 0
M  V30 613 C 73.9889 0.399062 -1.91486 0
M  V30 614 O 75.1949 0.691312 -2.62551 0
M  V30 615 C 73.6509 -1.85512 -3.08404 0
M  V30 616 C 73.2589 -3.36141 -2.96164 0
M  V30 617 C 75.0029 -1.76783 -3.85938 0
M  V30 618 C 72.9099 -4.07659 -4.28449 0
M  V30 619 H 71.8399 -0.394452 -0.642591 0
M  V30 620 H 74.4909 -1.47594 -1.09034 0
M  V30 621 H 72.8729 -1.37103 -3.71509 0
M  V30 622 H 74.0469 -3.92056 -2.42133 0
M  V30 623 H 72.3619 -3.45712 -2.32104 0
M  V30 624 H 74.9589 -2.27526 -4.83876 0
M  V30 625 H 75.3019 -0.731116 -4.0983 0
M  V30 626 H 75.8349 -2.22818 -3.2954 0
M  V30 627 H 72.5739 -5.11648 -4.09752 0
M  V30 628 H 72.0939 -3.5653 -4.82334 0
M  V30 629 H 73.7729 -4.141 -4.97122 0
M  V30 630 N 73.905 1.17692 -1.04816 0
M  V30 631 C 74.837 2.21103 -0.603822 0
M  V30 632 C 75.85 1.59411 0.33046 0
M  V30 633 O 77.039 1.7807 0.12379 0
M  V30 634 C 74.139 3.38623 0.136898 0
M  V30 635 C 73.312 4.29888 -0.807137 0
M  V30 636 C 72.371 5.26088 -0.10836 0
M  V30 637 O 71.397 5.64353 -0.741232 0
M  V30 638 N 72.599 5.68882 1.15558 0
M  V30 639 H 75.364 2.59848 -1.49329 0
M  V30 640 H 72.925 1.32553 -0.929587 0
M  V30 641 H 74.917 4.00009 0.614401 0
M  V30 642 H 73.487 2.98508 0.927993 0
M  V30 643 H 72.707 3.65993 -1.46434 0
M  V30 644 H 73.995 4.87759 -1.44807 0
M  V30 645 H 73.393 5.39861 1.69015 0
M  V30 646 H 71.95 6.32429 1.57722 0
M  V30 647 N 75.3831 0.828654 1.34056 0
M  V30 648 C 76.6231 0.425394 1.99924 0
M  V30 649 C 76.9871 -0.994294 1.64249 0
M  V30 650 O 78.1881 -1.50074 2.23005 0
M  V30 651 C 76.4591 0.628071 3.51838 0
M  V30 652 S 78.0181 0.318511 4.37642 0
M  V30 653 H 74.8361 0.160465 0.692656 0
M  V30 654 H 77.4381 1.07572 1.63244 0
M  V30 655 H 76.1421 1.66089 3.7529 0
M  V30 656 H 75.6731 -0.0367799 3.93383 0
M  V30 657 H 77.6881 -0.865632 4.88591 0
M  V30 658 N 76.8612 -1.46375 0.584142 0
M  V30 659 C 78.1102 -2.01585 0.0679741 0
M  V30 660 C 78.4232 -1.46109 -1.30045 0
M  V30 661 O 79.6292 -1.93148 -1.90804 0
M  V30 662 C 78.0852 -3.5983 0.0709207 0
M  V30 663 C 77.6932 -4.24303 1.43775 0
M  V30 664 C 79.4372 -4.22693 -0.391228 0
M  V30 665 C 77.3442 -5.74631 1.39834 0
M  V30 666 H 76.2742 -0.753689 0.0216421 0
M  V30 667 H 78.9252 -1.68093 0.736001 0
M  V30 668 H 77.3072 -3.90405 -0.663299 0
M  V30 669 H 78.4812 -4.05335 2.19181 0
M  V30 670 H 76.7962 -3.73539 1.84004 0
M  V30 671 H 79.3932 -5.3289 -0.439524 0
M  V30 672 H 79.7362 -3.91728 -1.40906 0
M  V30 673 H 80.2692 -3.96749 0.288974 0
M  V30 674 H 77.0082 -6.10258 2.39303 0
M  V30 675 H 76.5282 -5.95858 0.686505 0
M  V30 676 H 78.2072 -6.37375 1.11187 0
M  V30 677 N 78.3393 -0.321999 -1.54275 0
M  V30 678 C 79.5693 0.282642 -2.04658 0
M  V30 679 C 79.9773 1.46453 -1.19784 0
M  V30 680 O 79.3203 1.82367 -0.220932 0
M  V30 681 C 79.3823 0.781857 -3.50895 0
M  V30 682 C 79.0463 -0.277517 -4.56157 0
M  V30 683 C 80.0433 -1.11307 -5.07845 0
M  V30 684 C 77.7283 -0.425256 -5.00497 0
M  V30 685 C 79.7223 -2.08211 -6.02434 0
M  V30 686 C 77.4093 -1.39771 -5.94901 0
M  V30 687 C 78.4073 -2.2246 -6.45756 0
M  V30 688 O 78.0953 -3.18054 -7.38307 0
M  V30 689 H 77.8273 0.0622636 -0.673126 0
M  V30 690 H 80.3813 -0.465792 -2.00049 0
M  V30 691 H 78.6113 1.58118 -3.52896 0
M  V30 692 H 80.3003 1.30467 -3.84361 0
M  V30 693 H 81.0663 -1.00991 -4.74369 0
M  V30 694 H 76.9453 0.20847 -4.60528 0
M  V30 695 H 80.4893 -2.72791 -6.42052 0
M  V30 696 H 76.3863 -1.50152 -6.27794 0
M  V30 697 H 77.1543 -3.13275 -7.56175 0
M  V30 698 N 79.8174 1.5752 -0.0501392 0
M  V30 699 C 80.7804 2.1037 0.909786 0
M  V30 700 C 81.7804 1.02308 1.24056 0
M  V30 701 O 82.9704 1.28385 1.17741 0
M  V30 702 C 80.1024 2.58708 2.21998 0
M  V30 703 H 81.2954 2.96479 0.451665 0
M  V30 704 H 78.8484 1.55038 0.198248 0
M  V30 705 H 79.5834 1.75989 2.72394 0
M  V30 706 H 79.3684 3.37675 1.99295 0
M  V30 707 H 80.8584 2.99747 2.9076 0
M  V30 708 N 81.2955 -0.223234 1.56011 0
M  V30 709 C 82.2255 -1.27988 1.95298 0
M  V30 710 C 83.2065 -1.48976 0.820979 0
M  V30 711 O 84.3915 -1.61188 1.08315 0
M  V30 712 C 81.5215 -2.63 2.26822 0
M  V30 713 C 80.4755 -2.56671 3.42497 0
M  V30 714 C 79.8015 -3.95697 3.59622 0
M  V30 715 C 81.1015 -2.11601 4.77517 0
M  V30 716 H 82.7955 -0.953525 2.8381 0
M  V30 717 H 80.3415 -0.457244 1.36548 0
M  V30 718 H 82.2945 -3.37077 2.52898 0
M  V30 719 H 81.0185 -2.9732 1.35161 0
M  V30 720 H 79.6775 -1.85051 3.16467 0
M  V30 721 H 79.3255 -4.27322 2.6534 0
M  V30 722 H 79.0255 -3.92345 4.37424 0
M  V30 723 H 80.5495 -4.71438 3.88044 0
M  V30 724 H 81.9635 -2.7542 5.02809 0
M  V30 725 H 80.3605 -2.19311 5.5859 0
M  V30 726 H 81.4305 -1.06824 4.72987 0
M  V30 727 N 82.7736 -1.49793 -0.48987 0
M  V30 728 C 84.0196 -1.60078 -1.24511 0
M  V30 729 C 84.3526 -0.291608 -1.91998 0
M  V30 730 O 83.6276 0.705647 -1.81248 0
M  V30 731 C 83.9106 -2.76791 -2.30345 0
M  V30 732 C 83.7636 -4.17535 -1.67286 0
M  V30 733 C 85.0826 -2.89111 -3.31817 0
M  V30 734 H 82.2016 -0.582645 -0.451324 0
M  V30 735 H 84.8436 -1.82117 -0.541612 0
M  V30 736 H 82.9936 -2.5813 -2.90346 0
M  V30 737 H 84.6656 -4.4774 -1.11026 0
M  V30 738 H 82.9086 -4.22665 -0.976577 0
M  V30 739 H 83.5796 -4.95094 -2.44103 0
M  V30 740 H 86.0556 -3.06133 -2.81819 0
M  V30 741 H 84.9316 -3.72433 -4.03219 0
M  V30 742 H 85.1926 -1.9893 -3.94815 0
M  V30 743 N 84.2517 0.741722 -1.39055 0
M  V30 744 C 85.4917 1.51385 -1.37338 0
M  V30 745 C 85.8557 1.91972 0.0330513 0
M  V30 746 O 87.0567 2.68229 0.175174 0
M  V30 747 C 85.3277 2.72481 -2.31276 0
M  V30 748 S 86.8867 3.62211 -2.47687 0
M  V30 749 H 83.7047 0.517906 -0.487129 0
M  V30 750 H 86.3067 0.86969 -1.7509 0
M  V30 751 H 85.0107 2.40793 -3.32336 0
M  V30 752 H 84.5417 3.41832 -1.94716 0
M  V30 753 H 86.5567 4.65812 -1.70978 0
M  V30 754 N 85.7298 1.2412 0.971189 0
M  V30 755 C 86.6598 1.05508 2.08304 0
M  V30 756 C 87.6408 -0.0308864 1.70072 0
M  V30 757 O 88.8258 0.135521 1.93727 0
M  V30 758 C 85.9558 0.655365 3.4106 0
M  V30 759 C 84.9098 1.68971 3.93234 0
M  V30 760 C 84.2358 1.14516 5.22293 0
M  V30 761 C 85.5358 3.08487 4.21465 0
M  V30 762 H 87.2298 1.98507 2.24132 0
M  V30 763 H 84.7758 0.955821 1.07704 0
M  V30 764 H 86.7288 0.51217 4.18276 0
M  V30 765 H 85.4528 -0.31032 3.25122 0
M  V30 766 H 84.1118 1.82106 3.18171 0
M  V30 767 H 83.7598 0.170189 5.02712 0
M  V30 768 H 83.4598 1.83635 5.58168 0
M  V30 769 H 84.9838 1.01401 6.02121 0
M  V30 770 H 86.3978 2.98601 4.89398 0
M  V30 771 H 84.7948 3.74926 4.68562 0
M  V30 772 H 85.8648 3.56787 3.28376 0
M  V30 773 N 87.2079 -1.17134 1.05439 0
M  V30 774 C 88.4539 -1.87733 0.767077 0
M  V30 775 C 88.7869 -1.8098 -0.704253 0
M  V30 776 O 88.0619 -1.21951 -1.5152 0
M  V30 777 C 88.3449 -3.37659 1.25133 0
M  V30 778 C 88.1979 -3.53149 2.78578 0
M  V30 779 C 89.5169 -4.31768 0.852324 0
M  V30 780 H 86.6359 -0.681687 0.280129 0
M  V30 781 H 89.2779 -1.37732 1.30881 0
M  V30 782 H 87.4279 -3.80373 0.790469 0
M  V30 783 H 89.0999 -3.19434 3.32806 0
M  V30 784 H 87.3429 -2.95345 3.17732 0
M  V30 785 H 88.0139 -4.58403 3.07523 0
M  V30 786 H 90.4899 -3.96909 1.24911 0
M  V30 787 H 89.3659 -5.35199 1.21873 0
M  V30 788 H 89.6269 -4.41429 -0.243485 0
M  V30 789 N 88.686 -0.835752 -1.33615 0
M  V30 790 C 89.934 -0.429109 -1.97492 0
M  V30 791 C 90.255 1.01433 -1.66543 0
M  V30 792 O 89.525 1.70611 -0.962744 0
M  V30 793 H 88.105 -0.155686 -0.730596 0
M  V30 794 H 90.767 -1.06802 -1.63031 0
M  V30 795 H 89.863 -0.55861 -3.0706 0
M  V30 796 N 90.1641 1.46063 -0.591896 0
M  V30 797 C 91.0941 2.33172 0.123673 0
M  V30 798 C 92.0751 1.45897 0.87453 0
M  V30 799 O 93.2601 1.74698 0.848181 0
M  V30 800 C 90.3901 3.28336 1.13194 0
M  V30 801 C 89.3441 4.25124 0.495324 0
M  V30 802 C 88.6701 5.09863 1.61071 0
M  V30 803 C 89.9701 5.19143 -0.573425 0
M  V30 804 H 91.6641 2.93252 -0.603646 0
M  V30 805 H 89.2101 1.41014 -0.291741 0
M  V30 806 H 91.1631 3.88137 1.64097 0
M  V30 807 H 89.8871 2.66383 1.88965 0
M  V30 808 H 88.5461 3.66599 0.00729452 0
M  V30 809 H 88.1941 4.44288 2.35832 0
M  V30 810 H 87.8941 5.75417 1.19035 0
M  V30 811 H 89.4181 5.72529 2.12233 0
M  V30 812 H 90.8321 5.73106 -0.1491 0
M  V30 813 H 89.2291 5.93089 -0.914636 0
M  V30 814 H 90.2991 4.62519 -1.45617 0
M  V30 815 N 91.6422 0.330177 1.54103 0
M  V30 816 C 92.8882 -0.270806 2.00984 0
M  V30 817 C 93.2212 -1.51265 1.21789 0
M  V30 818 O 92.4962 -1.92142 0.301927 0
M  V30 819 C 92.7792 -0.598339 3.55094 0
M  V30 820 C 92.6322 0.654674 4.4501 0
M  V30 821 C 93.9512 -1.41334 4.16789 0
M  V30 822 H 91.0702 -0.0969531 0.730595 0
M  V30 823 H 93.7122 0.448066 1.84641 0
M  V30 824 H 91.8622 -1.21078 3.69151 0
M  V30 825 H 93.5342 1.29285 4.42813 0
M  V30 826 H 91.7772 1.28224 4.14416 0
M  V30 827 H 92.4482 0.380944 5.50684 0
M  V30 828 H 94.9242 -0.895597 4.06347 0
M  V30 829 H 93.8002 -1.61127 5.24718 0
M  V30 830 H 94.0612 -2.41146 3.70541 0
M  V30 831 N 93.1203 -1.57491 0.0584922 0
M  V30 832 C 94.3683 -1.92597 -0.612436 0
M  V30 833 C 94.6893 -0.938162 -1.70949 0
M  V30 834 O 93.9593 0.0158301 -1.95894 0
M  V30 835 H 92.5393 -0.710964 -0.229214 0
M  V30 836 H 95.2013 -1.94571 0.113218 0
M  V30 837 H 94.2973 -2.94038 -1.04633 0
M  V30 838 N 94.5984 0.214957 -1.56127 0
M  V30 839 C 95.5464 1.28601 -1.93816 0
M  V30 840 C 96.5404 1.48175 -0.821016 0
M  V30 841 O 97.7464 1.49271 -1.0059 0
M  V30 842 H 94.1214 0.431302 -0.616022 0
M  V30 843 H 96.0924 0.940991 -2.83175 0
M  V30 844 C 94.8414 2.62779 -2.27689 0
M  V30 845 H 94.1644 2.48527 -3.13168 0
M  V30 846 H 95.6044 3.36517 -2.57939 0
M  V30 847 C 94.0634 3.18285 -1.10436 0
M  V30 848 O 94.5934 4.00002 -0.368945 0
M  V30 849 N 92.7994 2.7675 -0.886433 0
M  V30 850 H 92.3464 2.10404 -1.48619 0
M  V30 851 H 92.3044 3.14229 -0.103656 0
M  V30 852 N 96.0765 1.50051 0.48192 0
M  V30 853 C 97.0395 1.67584 1.5636 0
M  V30 854 C 98.0395 0.546894 1.51214 0
M  V30 855 O 99.2295 0.813725 1.54026 0
M  V30 856 C 96.3615 1.691 2.96003 0
M  V30 857 H 97.5545 2.64078 1.42136 0
M  V30 858 H 95.1075 1.39369 0.707533 0
M  V30 859 H 95.8425 0.742589 3.15684 0
M  V30 860 H 95.6275 2.51105 3.01146 0
M  V30 861 H 97.1175 1.84656 3.74556 0
M  V30 862 N 97.5546 -0.734337 1.39446 0
M  V30 863 C 98.4846 -1.86155 1.40955 0
M  V30 864 C 99.4656 -1.67898 0.272827 0
M  V30 865 O 100.651 -1.88207 0.478743 0
M  V30 866 C 97.7806 -3.23912 1.25294 0
M  V30 867 C 96.7346 -3.56808 2.36373 0
M  V30 868 C 96.0606 -4.93508 2.058 0
M  V30 869 C 97.3606 -3.59713 3.78687 0
M  V30 870 H 99.0546 -1.8515 2.35287 0
M  V30 871 H 96.6006 -0.889367 1.13253 0
M  V30 872 H 98.5536 -4.02443 1.2497 0
M  V30 873 H 97.2776 -3.25446 0.274308 0
M  V30 874 H 95.9366 -2.80606 2.35914 0
M  V30 875 H 95.5846 -4.91623 1.06374 0
M  V30 876 H 95.2846 -5.16486 2.80208 0
M  V30 877 H 96.8086 -5.74396 2.07128 0
M  V30 878 H 98.2226 -4.2832 3.81071 0
M  V30 879 H 96.6196 -3.94209 4.52459 0
M  V30 880 H 97.6896 -2.59504 4.09617 0
M  V30 881 N 99.0327 -1.24633 -0.964593 0
M  V30 882 C 100.279 -1.08949 -1.71049 0
M  V30 883 C 100.612 0.370302 -1.90637 0
M  V30 884 O 99.8867 1.27349 -1.47011 0
M  V30 885 C 100.17 -1.83329 -3.0994 0
M  V30 886 C 100.023 -3.37077 -2.97824 0
M  V30 887 C 101.342 -1.60846 -4.09654 0
M  V30 888 H 98.4607 -0.397178 -0.620821 0
M  V30 889 H 101.103 -1.5334 -1.12191 0
M  V30 890 H 99.2527 -1.45597 -3.60186 0
M  V30 891 H 100.925 -3.84425 -2.5498 0
M  V30 892 H 99.1677 -3.65298 -2.33965 0
M  V30 893 H 99.8387 -3.84324 -3.96231 0
M  V30 894 H 102.315 -1.93674 -3.68279 0
M  V30 895 H 101.191 -2.1534 -5.04896 0
M  V30 896 H 101.452 -0.547434 -4.38698 0
M  V30 897 N 100.511 1.16574 -1.06058 0
M  V30 898 C 101.76 1.86385 -0.770944 0
M  V30 899 C 102.073 1.82448 0.705129 0
M  V30 900 O 103.279 2.47815 1.10905 0
M  V30 901 C 101.735 3.34466 -1.32893 0
M  V30 902 C 101.343 3.46883 -2.83507 0
M  V30 903 C 103.087 4.09548 -1.11672 0
M  V30 904 C 100.994 4.89036 -3.32562 0
M  V30 905 H 99.9238 0.698181 -0.284709 0
M  V30 906 H 102.575 1.31583 -1.27899 0
M  V30 907 H 100.957 3.88859 -0.748662 0
M  V30 908 H 102.131 3.02663 -3.47465 0
M  V30 909 H 100.446 2.85232 -3.03368 0
M  V30 910 H 103.043 5.14434 -1.45814 0
M  V30 911 H 103.386 4.16264 -0.0549535 0
M  V30 912 H 103.919 3.61387 -1.66265 0
M  V30 913 H 100.658 4.87499 -4.38207 0
M  V30 914 H 100.178 5.3389 -2.73351 0
M  V30 915 H 101.857 5.57843 -3.2775 0
M  V30 916 N 101.989 0.842826 1.3317 0
M  V30 917 C 103.236 0.440447 1.97652 0
M  V30 918 C 103.564 -1.00123 1.6675 0
M  V30 919 O 102.819 -1.7155 0.941761 0
M  V30 920 C 103.118 0.612607 3.52111 0
M  V30 921 C 102.784 2.02297 4.02972 0
M  V30 922 C 101.446 2.40874 4.16573 0
M  V30 923 C 103.798 2.94402 4.30089 0
M  V30 924 C 101.126 3.70852 4.54627 0
M  V30 925 C 103.478 4.23865 4.69597 0
M  V30 926 C 102.142 4.62392 4.81404 0
M  V30 927 H 101.412 0.161171 0.72326 0
M  V30 928 H 104.059 1.07061 1.58777 0
M  V30 929 H 102.364 -0.100849 3.9167 0
M  V30 930 H 104.061 0.2815 4.00011 0
M  V30 931 H 100.651 1.71338 3.92863 0
M  V30 932 H 104.835 2.65835 4.19101 0
M  V30 933 H 100.091 4.00501 4.61962 0
M  V30 934 H 104.265 4.95306 4.89536 0
M  V30 935 H 101.892 5.63154 5.10648 0
M  V30 936 N 103.467 -1.45747 0.599634 0
M  V30 937 C 104.713 -2.02592 0.0918643 0
M  V30 938 C 105.046 -1.46806 -1.27128 0
M  V30 939 O 104.321 -0.639658 -1.83681 0
M  V30 940 C 104.604 -3.60073 0.0443398 0
M  V30 941 C 104.457 -4.26208 1.43759 0
M  V30 942 C 105.776 -4.35309 -0.647608 0
M  V30 943 H 102.895 -0.736175 0.034857 0
M  V30 944 H 105.537 -1.73694 0.770081 0
M  V30 945 H 103.687 -3.84823 -0.533224 0
M  V30 946 H 105.359 -4.12668 2.06162 0
M  V30 947 H 103.602 -3.84916 2.00056 0
M  V30 948 H 104.273 -5.35069 1.35665 0
M  V30 949 H 106.749 -4.15805 -0.156776 0
M  V30 950 H 105.625 -5.45038 -0.649942 0
M  V30 951 H 105.886 -4.07598 -1.71219 0
M  V30 952 N 104.945 -0.338344 -1.53925 0
M  V30 953 C 106.194 0.260732 -2.00008 0
M  V30 954 C 106.507 1.52073 -1.23017 0
M  V30 955 O 107.713 2.19672 -1.5955 0
M  V30 956 C 106.169 0.51515 -3.56194 0
M  V30 957 C 105.777 -0.728645 -4.42035 0
M  V30 958 C 107.521 1.07337 -4.10706 0
M  V30 959 C 105.428 -0.445315 -5.89721 0
M  V30 960 H 104.358 0.101205 -0.747177 0
M  V30 961 H 107.009 -0.452866 -1.77824 0
M  V30 962 H 105.391 1.28932 -3.74423 0
M  V30 963 H 106.565 -1.50352 -4.35581 0
M  V30 964 H 104.88 -1.20813 -3.98489 0
M  V30 965 H 107.477 1.30022 -5.18651 0
M  V30 966 H 107.82 2.0273 -3.63602 0
M  V30 967 H 108.353 0.360034 -3.96167 0
M  V30 968 H 105.092 -1.36883 -6.41049 0
M  V30 969 H 104.612 0.291569 -5.99091 0
M  V30 970 H 106.291 -0.0606218 -6.46972 0
M  V30 971 N 106.423 1.57458 -0.0668435 0
M  V30 972 C 107.353 2.15468 0.899764 0
M  V30 973 C 108.334 1.08042 1.31381 0
M  V30 974 O 109.519 1.36054 1.38574 0
M  V30 975 C 106.649 2.71232 2.16911 0
M  V30 976 C 105.603 3.83781 1.89463 0
M  V30 977 C 104.929 4.26127 3.22986 0
M  V30 978 C 106.229 5.08238 1.20381 0
M  V30 979 H 107.923 2.96488 0.416529 0
M  V30 980 H 105.469 1.4262 0.198908 0
M  V30 981 H 107.422 3.10458 2.84945 0
M  V30 982 H 106.146 1.87426 2.67468 0
M  V30 983 H 104.805 3.45051 1.23836 0
M  V30 984 H 104.453 3.39249 3.71374 0
M  V30 985 H 104.153 5.01993 3.05413 0
M  V30 986 H 105.677 4.67966 3.92225 0
M  V30 987 H 107.091 5.44811 1.78475 0
M  V30 988 H 105.488 5.89349 1.13083 0
M  V30 989 H 106.558 4.84558 0.182153 0
M  V30 990 N 107.901 -0.206675 1.56239 0
M  V30 991 C 109.317 -0.557025 1.49564 0
M  V30 992 C 109.517 -1.86424 0.764735 0
M  V30 993 O 108.573 -2.50584 0.310491 0
M  V30 994 C 109.886 -0.622478 2.94186 0
M  V30 995 C 111.434 -0.712099 3.04792 0
M  V30 996 C 111.909 -0.808767 4.50803 0
M  V30 997 N 113.4 -0.8726 4.54907 0
M  V30 998 C 114.135 -0.967365 5.65181 0
M  V30 999 N 113.631 -1.02515 6.85173 0
M  V30 1000 N 115.424 -1.00366 5.53067 0
M  V30 1001 H 107.575 0.650943 2.02179 0
M  V30 1002 H 109.838 0.230387 0.919579 0
M  V30 1003 H 109.544 0.268727 3.50672 0
M  V30 1004 H 109.418 -1.4811 3.46905 0
M  V30 1005 H 111.805 -1.59374 2.48363 0
M  V30 1006 H 111.886 0.172489 2.55218 0
M  V30 1007 H 111.53 0.0684754 5.07854 0
M  V30 1008 H 111.46 -1.70899 4.98098 0
M  V30 1009 H 113.951 -0.837657 3.68499 0
M  V30 1010 H 114.264 -1.09765 7.64965 0
M  V30 1011 H 112.609 -0.994026 6.87855 0
M  V30 1012 H 115.8 -0.95527 4.58249 0
M  V30 1013 H 115.973 -1.07405 6.39037 0
M  V30 1014 N 109.379 -1.50304 -0.473955 0
M  V30 1015 C 110.609 -1.64663 -1.24778 0
M  V30 1016 C 111.017 -0.328174 -1.86332 0
M  V30 1017 O 110.36 0.699536 -1.69859 0
M  V30 1018 C 110.422 -2.6778 -2.39863 0
M  V30 1019 C 110.086 -4.11413 -1.98969 0
M  V30 1020 C 111.083 -4.97372 -1.51385 0
M  V30 1021 C 108.768 -4.57312 -2.07777 0
M  V30 1022 C 110.762 -6.27277 -1.13148 0
M  V30 1023 C 108.449 -5.87223 -1.69152 0
M  V30 1024 C 109.447 -6.72031 -1.21915 0
M  V30 1025 O 109.135 -7.99518 -0.838237 0
M  V30 1026 H 108.867 -0.556602 -0.383627 0
M  V30 1027 H 111.421 -1.9726 -0.572491 0
M  V30 1028 H 109.651 -2.30419 -3.10554 0
M  V30 1029 H 111.34 -2.71388 -3.01833 0
M  V30 1030 H 112.106 -4.63128 -1.44004 0
M  V30 1031 H 107.985 -3.91449 -2.43493 0
M  V30 1032 H 111.529 -6.93425 -0.762077 0
M  V30 1033 H 107.426 -6.20989 -1.76191 0
M  V30 1034 H 108.194 -8.12764 -0.967339 0
M  V30 1035 N 110.857 0.726932 -1.39834 0
M  V30 1036 C 111.82 1.82269 -1.38962 0
M  V30 1037 C 112.82 1.58248 -0.285334 0
M  V30 1038 O 114.01 1.65499 -0.54366 0
M  V30 1039 C 111.142 3.20186 -1.17019 0
M  V30 1040 H 112.335 1.84443 -2.36476 0
M  V30 1041 H 109.888 0.931416 -1.25516 0
M  V30 1042 H 110.623 3.23669 -0.202204 0
M  V30 1043 H 110.408 3.3902 -1.96998 0
M  V30 1044 H 111.898 4.00235 -1.1917 0
M  V30 1045 N 112.336 1.25143 0.95797 0
M  V30 1046 C 113.283 1.05235 2.05412 0
M  V30 1047 C 114.253 -0.0374561 1.66058 0
M  V30 1048 O 115.438 0.119073 1.90428 0
M  V30 1049 C 112.578 0.673589 3.38462 0
M  V30 1050 C 111.691 1.8379 3.90954 0
M  V30 1051 C 110.826 1.40381 5.12315 0
M  V30 1052 C 109.865 2.53746 5.57027 0
M  V30 1053 N 109.002 2.11136 6.69601 0
M  V30 1054 H 113.842 1.99048 2.21774 0
M  V30 1055 H 111.379 0.991277 1.08683 0
M  V30 1056 H 113.337 0.434964 4.14926 0
M  V30 1057 H 111.967 -0.227554 3.21997 0
M  V30 1058 H 111.019 2.18992 3.11041 0
M  V30 1059 H 112.331 2.68937 4.20089 0
M  V30 1060 H 111.485 1.12464 5.96185 0
M  V30 1061 H 110.224 0.523015 4.84887 0
M  V30 1062 H 109.229 2.82412 4.71724 0
M  V30 1063 H 110.454 3.42398 5.86464 0
M  V30 1064 H 108.4 1.25468 6.4389 0
M  V30 1065 H 108.317 2.89832 6.98236 0
M  V30 1066 H 109.585 1.86385 7.56889 0
M  V30 1067 N 113.814 -1.1601 1.06675 0
M  V30 1068 C 114.747 -2.1947 0.625168 0
M  V30 1069 C 115.725 -1.58699 -0.354041 0
M  V30 1070 O 116.909 -1.86669 -0.262098 0
M  V30 1071 C 114.036 -3.38598 -0.0829593 0
M  V30 1072 C 113.082 -4.1787 0.853611 0
M  V30 1073 S 113.915 -4.81135 2.35094 0
M  V30 1074 C 115.071 -6.03639 1.65441 0
M  V30 1075 H 115.304 -2.56587 1.50168 0
M  V30 1076 H 112.837 -1.26862 0.880078 0
M  V30 1077 H 114.795 -4.07621 -0.485288 0
M  V30 1078 H 113.456 -2.99839 -0.935716 0
M  V30 1079 H 112.649 -5.03078 0.304755 0
M  V30 1080 H 112.251 -3.54361 1.196 0
M  V30 1081 H 114.543 -6.70632 0.962201 0
M  V30 1082 H 115.486 -6.63081 2.48454 0
M  V30 1083 H 115.894 -5.52965 1.13534 0
M  V30 1084 N 115.292 -0.849877 -1.32721 0
M  V30 1085 C 116.239 -0.289033 -2.28983 0
M  V30 1086 C 117.209 0.601324 -1.54833 0
M  V30 1087 O 118.394 0.537253 -1.8308 0
M  V30 1088 C 115.534 0.520623 -3.4115 0
M  V30 1089 C 114.647 -0.394989 -4.3019 0
M  V30 1090 C 113.782 0.426834 -5.29482 0
M  V30 1091 C 112.821 -0.486476 -6.10164 0
M  V30 1092 N 111.958 0.297879 -7.01468 0
M  V30 1093 H 116.798 -1.11519 -2.76347 0
M  V30 1094 H 114.335 -0.56138 -1.35967 0
M  V30 1095 H 116.293 1.00563 -4.04899 0
M  V30 1096 H 114.923 1.31165 -2.9495 0
M  V30 1097 H 113.975 -0.99836 -3.67065 0
M  V30 1098 H 115.287 -1.09612 -4.86607 0
M  V30 1099 H 114.441 0.975205 -5.98811 0
M  V30 1100 H 113.18 1.16136 -4.73671 0
M  V30 1101 H 112.185 -1.04677 -5.39743 0
M  V30 1102 H 113.41 -1.21953 -6.6806 0
M  V30 1103 H 111.356 1.01558 -6.48091 0
M  V30 1104 H 111.273 -0.344318 -7.55216 0
M  V30 1105 H 112.541 0.828131 -7.75089 0
M  V30 1106 N 116.77 1.45427 -0.607355 0
M  V30 1107 C 117.998 2.06614 -0.108814 0
M  V30 1108 C 118.413 1.45204 1.2067 0
M  V30 1109 O 117.77 0.566132 1.73497 0
M  V30 1110 C 117.821 3.61481 0.0375347 0
M  V30 1111 O 117.542 4.20598 -1.22593 0
M  V30 1112 C 119.043 4.39652 0.567561 0
M  V30 1113 H 116.263 0.66747 -0.0687351 0
M  V30 1114 H 118.807 1.86675 -0.835022 0
M  V30 1115 H 116.962 3.80762 0.714068 0
M  V30 1116 H 117.376 5.1377 -1.05547 0
M  V30 1117 H 118.85 5.48518 0.61905 0
M  V30 1118 H 119.327 4.09417 1.58978 0
M  V30 1119 H 119.933 4.25234 -0.0749202 0
M  V30 1120 N 118.248 0.346503 1.53744 0
M  V30 1121 C 119.211 -0.496439 2.23759 0
M  V30 1122 C 120.211 -1.0252 1.2388 0
M  V30 1123 O 121.401 -0.913974 1.48297 0
M  V30 1124 C 118.533 -1.69187 2.95954 0
M  V30 1125 H 119.726 0.115952 2.99676 0
M  V30 1126 H 117.279 0.0978939 1.55993 0
M  V30 1127 H 118.014 -2.34288 2.24231 0
M  V30 1128 H 117.799 -1.31989 3.69217 0
M  V30 1129 H 119.289 -2.28969 3.49232 0
M  V30 1130 N 119.726 -1.57421 0.075193 0
M  V30 1131 C 120.954 -1.97946 -0.602076 0
M  V30 1132 C 121.369 -0.953674 -1.62943 0
M  V30 1133 O 120.726 0.0592551 -1.82404 0
M  V30 1134 C 120.777 -3.38546 -1.26762 0
M  V30 1135 O 120.498 -4.37195 -0.281376 0
M  V30 1136 C 121.999 -3.93966 -2.03239 0
M  V30 1137 H 119.219 -0.650918 -0.162931 0
M  V30 1138 H 121.763 -2.03959 0.148601 0
M  V30 1139 H 119.918 -3.33609 -1.96936 0
M  V30 1140 H 120.332 -5.18975 -0.759267 0
M  V30 1141 H 121.806 -4.94555 -2.45193 0
M  V30 1142 H 122.283 -3.30693 -2.8903 0
M  V30 1143 H 122.889 -4.02315 -1.37924 0
M  V30 1144 N 121.204 0.198386 -1.56346 0
M  V30 1145 C 122.152 1.26538 -1.95169 0
M  V30 1146 C 123.146 1.47295 -0.836685 0
M  V30 1147 O 124.352 1.48195 -1.02167 0
M  V30 1148 H 120.727 0.424744 -0.620561 0
M  V30 1149 H 122.698 0.910904 -2.84157 0
M  V30 1150 C 121.447 2.6035 -2.30463 0
M  V30 1151 H 120.77 2.45192 -3.15786 0
M  V30 1152 H 122.21 3.33762 -2.61494 0
M  V30 1153 C 120.669 3.17096 -1.13806 0
M  V30 1154 O 121.199 3.99588 -0.41135 0
M  V30 1155 N 119.405 2.75795 -0.915736 0
M  V30 1156 H 118.952 2.08816 -1.50843 0
M  V30 1157 H 118.91 3.14101 -0.136979 0
M  V30 1158 N 122.682 1.50554 0.465978 0
M  V30 1159 C 123.931 1.61038 1.21448 0
M  V30 1160 C 124.244 0.31865 1.92987 0
M  V30 1161 O 125.45 0.302469 2.6981 0
M  V30 1162 C 123.906 2.84283 2.20706 0
M  V30 1163 C 123.514 4.20352 1.54946 0
M  V30 1164 C 125.258 3.04115 2.96166 0
M  V30 1165 C 123.165 5.34778 2.5252 0
M  V30 1166 H 122.095 0.599718 0.457005 0
M  V30 1167 H 124.746 1.7699 0.484424 0
M  V30 1168 H 123.128 2.61901 2.97025 0
M  V30 1169 H 124.302 4.53008 0.843811 0
M  V30 1170 H 122.617 4.06167 0.917475 0
M  V30 1171 H 125.214 3.86774 3.69202 0
M  V30 1172 H 125.557 2.16045 3.55852 0
M  V30 1173 H 126.09 3.26702 2.26959 0
M  V30 1174 H 122.829 6.25018 1.97566 0
M  V30 1175 H 122.349 5.06534 3.21222 0
M  V30 1176 H 124.028 5.65561 3.14245 0
M  V30 1177 N 124.16 -0.719506 1.40217 0
M  V30 1178 C 125.39 -1.50646 1.41384 0
M  V30 1179 C 125.798 -1.89197 0.0107743 0
M  V30 1180 O 125.141 -1.55709 -0.974708 0
M  V30 1181 C 125.203 -2.81405 2.23722 0
M  V30 1182 C 124.867 -2.65199 3.72181 0
M  V30 1183 C 125.864 -2.32717 4.64907 0
M  V30 1184 C 123.549 -2.81586 4.1595 0
M  V30 1185 C 125.543 -2.16827 5.99387 0
M  V30 1186 C 123.23 -2.65313 5.50502 0
M  V30 1187 C 124.228 -2.32981 6.42035 0
M  V30 1188 O 123.916 -2.16827 7.74107 0
M  V30 1189 H 123.648 -0.471606 0.484318 0
M  V30 1190 H 126.202 -0.895456 1.84853 0
M  V30 1191 H 124.432 -3.44823 1.75026 0
M  V30 1192 H 126.121 -3.43102 2.16878 0
M  V30 1193 H 126.887 -2.19694 4.32388 0
M  V30 1194 H 122.766 -3.0574 3.45027 0
M  V30 1195 H 126.31 -1.91513 6.70797 0
M  V30 1196 H 122.207 -2.7792 5.82607 0
M  V30 1197 H 122.975 -2.31778 7.84998 0
M  V30 1198 N 125.638 -1.25649 -0.95132 0
M  V30 1199 C 126.568 -1.08808 -2.06599 0
M  V30 1200 C 127.549 0.00382547 -1.701 0
M  V30 1201 O 128.734 -0.166325 -1.93486 0
M  V30 1202 C 125.864 -0.709542 -3.39975 0
M  V30 1203 C 124.818 -1.75206 -3.90496 0
M  V30 1204 C 124.144 -1.22811 -5.20405 0
M  V30 1205 C 125.444 -3.15153 -4.16504 0
M  V30 1206 H 127.138 -2.02048 -2.20946 0
M  V30 1207 H 124.684 -0.972835 -1.06169 0
M  V30 1208 H 126.637 -0.578649 -4.17408 0
M  V30 1209 H 125.361 0.258556 -3.25575 0
M  V30 1210 H 124.02 -1.87145 -3.15234 0
M  V30 1211 H 123.668 -0.250145 -5.02378 0
M  V30 1212 H 123.368 -1.92492 -5.55176 0
M  V30 1213 H 124.892 -1.10968 -6.00432 0
M  V30 1214 H 126.306 -3.06349 -4.84586 0
M  V30 1215 H 124.703 -3.82333 -4.62538 0
M  V30 1216 H 125.773 -3.61966 -3.22658 0
M  V30 1217 N 127.117 1.15442 -1.07289 0
M  V30 1218 C 128.047 2.22312 -0.714107 0
M  V30 1219 C 129.028 1.67467 0.298155 0
M  V30 1220 O 130.213 1.93445 0.171048 0
M  V30 1221 C 127.343 3.47124 -0.110448 0
M  V30 1222 C 126.297 4.14926 -1.04979 0
M  V30 1223 C 125.623 5.33807 -0.308924 0
M  V30 1224 C 126.923 4.64762 -2.38314 0
M  V30 1225 H 128.617 2.5258 -1.6076 0
M  V30 1226 H 126.163 1.21404 -0.77441 0
M  V30 1227 H 128.116 4.21124 0.152482 0
M  V30 1228 H 126.84 3.16187 0.81812 0
M  V30 1229 H 125.499 3.42866 -1.29764 0
M  V30 1230 H 125.147 4.99126 0.623084 0
M  V30 1231 H 124.847 5.80113 -0.935036 0
M  V30 1232 H 126.371 6.10576 -0.0537771 0
M  V30 1233 H 127.785 5.30292 -2.1786 0
M  V30 1234 H 126.182 5.21728 -2.96514 0
M  V30 1235 H 127.252 3.80434 -3.00663 0
M  V30 1236 N 128.595 0.856903 1.32268 0
M  V30 1237 C 129.543 0.291987 2.3076 0
M  V30 1238 C 130.537 -0.585857 1.58947 0
M  V30 1239 O 131.743 -0.47341 1.73663 0
M  V30 1240 H 128.118 0.075721 0.748178 0
M  V30 1241 H 130.089 1.13687 2.75895 0
M  V30 1242 C 128.838 -0.502869 3.44044 0
M  V30 1243 H 128.161 0.163328 3.99466 0
M  V30 1244 H 129.601 -0.863691 4.1511 0
M  V30 1245 C 128.06 -1.68898 2.91505 0
M  V30 1246 O 128.59 -2.78811 2.89184 0
M  V30 1247 N 126.796 -1.51679 2.47875 0
M  V30 1248 H 126.343 -0.622666 2.49961 0
M  V30 1249 H 126.301 -2.31184 2.13076 0
M  V30 1250 N 130.073 -1.45103 0.615059 0
M  V30 1251 C 131.003 -2.33339 -0.0865619 0
M  V30 1252 C 131.984 -1.4727 -0.851209 0
M  V30 1253 O 133.169 -1.76026 -0.820281 0
M  V30 1254 C 130.299 -3.30095 -1.07956 0
M  V30 1255 C 129.253 -4.25858 -0.427628 0
M  V30 1256 C 128.579 -5.12361 -1.5294 0
M  V30 1257 C 129.879 -5.18165 0.655944 0
M  V30 1258 H 131.573 -2.92254 0.650224 0
M  V30 1259 H 129.119 -1.40532 0.314138 0
M  V30 1260 H 131.072 -3.90698 -1.57901 0
M  V30 1261 H 129.796 -2.69355 -1.84703 0
M  V30 1262 H 128.455 -3.66564 0.0510292 0
M  V30 1263 H 128.103 -4.47984 -2.28734 0
M  V30 1264 H 127.803 -5.77238 -1.09865 0
M  V30 1265 H 129.327 -5.75833 -2.03098 0
M  V30 1266 H 130.741 -5.72796 0.240257 0
M  V30 1267 H 129.138 -5.91559 1.00888 0
M  V30 1268 H 130.208 -4.60144 1.52957 0
M  V30 1269 N 131.551 -0.354651 -1.53558 0
M  V30 1270 C 132.514 0.484566 -2.24019 0
M  V30 1271 C 133.514 1.01861 -1.24422 0
M  V30 1272 O 134.704 0.906097 -1.4878 0
M  V30 1273 C 131.836 1.67615 -2.96847 0
M  V30 1274 H 133.029 -0.131843 -2.9961 0
M  V30 1275 H 130.582 -0.106165 -1.55939 0
M  V30 1276 H 131.317 2.33095 -2.25471 0
M  V30 1277 H 131.102 1.30029 -3.69912 0
M  V30 1278 H 132.592 2.27114 -3.50441 0
M  V30 1279 N 133.029 1.57378 -0.0835403 0
M  V30 1280 C 134.275 1.94217 0.583733 0
M  V30 1281 C 134.608 0.964653 1.68547 0
M  V30 1282 O 133.883 -0.00422258 1.945 0
M  V30 1283 C 134.166 3.41253 1.14972 0
M  V30 1284 C 134.019 4.49768 0.0538277 0
M  V30 1285 C 135.338 3.89352 2.05166 0
M  V30 1286 H 132.457 0.706233 0.210724 0
M  V30 1287 H 135.099 1.89392 -0.1519 0
M  V30 1288 H 133.249 3.45496 1.77665 0
M  V30 1289 H 134.921 4.57641 -0.579851 0
M  V30 1290 H 133.164 4.29432 -0.614068 0
M  V30 1291 H 133.835 5.49817 0.490452 0
M  V30 1292 H 136.311 3.87189 1.52393 0
M  V30 1293 H 135.187 4.92822 2.41698 0
M  V30 1294 H 135.448 3.27973 2.96456 0
M  V30 1295 N 134.507 -0.190092 1.56449 0
M  V30 1296 C 135.47 -1.21925 1.9408 0
M  V30 1297 C 136.47 -1.38176 0.822431 0
M  V30 1298 O 137.66 -1.35903 1.08977 0
M  V30 1299 C 134.792 -2.58773 2.21922 0
M  V30 1300 H 135.985 -0.897464 2.86157 0
M  V30 1301 H 133.538 -0.43181 1.50217 0
M  V30 1302 H 134.273 -2.95998 1.32499 0
M  V30 1303 H 134.058 -2.48348 3.03424 0
M  V30 1304 H 135.548 -3.32978 2.52022 0
M  V30 1305 N 135.985 -1.50799 -0.457987 0
M  V30 1306 C 137.262 -1.52968 -1.21902 0
M  V30 1307 C 137.642 -0.281906 -2.09209 0
M  V30 1308 O 136.99 0.734076 -2.16388 0
M  V30 1309 C 137.2 -2.8326 -2.03875 0
M  V30 1310 C 138.548 -3.34425 -2.6162 0
M  V30 1311 O 139.572 -2.8467 -2.14106 0
M  V30 1312 O 138.431 -4.21188 -3.48228 0
M  V30 1313 H 135.525 -0.614129 -0.553873 0
M  V30 1314 H 138.071 -1.63098 -0.468739 0
M  V30 1315 H 136.843 -3.65543 -1.39621 0
M  V30 1316 H 136.466 -2.76195 -2.8601 0
M  V30 1317 N 137.463 0.71206 -1.40597 0
M  V30 1318 C 138.373 1.8562 -1.43466 0
M  V30 1319 C 139.389 1.70902 -0.326902 0
M  V30 1320 O 140.565 1.93105 -0.572043 0
M  V30 1321 C 137.63 3.21451 -1.29884 0
M  V30 1322 C 136.691 3.48398 -2.50833 0
M  V30 1323 C 135.924 4.77749 -2.3789 0
M  V30 1324 O 136.147 5.53089 -1.39459 0
M  V30 1325 O 135.081 5.05111 -3.27333 0
M  V30 1326 H 138.907 1.86155 -2.39958 0
M  V30 1327 H 136.492 0.86295 -1.21957 0
M  V30 1328 H 138.374 4.02579 -1.24531 0
M  V30 1329 H 137.049 3.21636 -0.364997 0
M  V30 1330 H 135.956 2.67265 -2.61763 0
M  V30 1331 H 137.289 3.53014 -3.4299 0
M  V30 1332 N 138.941 1.26152 0.944643 0
M  V30 1333 C 139.871 1.09902 2.06019 0
M  V30 1334 C 140.852 0.00519538 1.70099 0
M  V30 1335 O 142.037 0.176583 1.93396 0
M  V30 1336 C 139.167 0.727562 3.39594 0
M  V30 1337 C 138.121 1.77274 3.89561 0
M  V30 1338 C 137.447 1.25569 5.19747 0
M  V30 1339 C 138.747 3.17357 4.14827 0
M  V30 1340 H 140.441 2.03217 2.19871 0
M  V30 1341 H 137.987 0.978452 1.05652 0
M  V30 1342 H 139.94 0.600777 4.17095 0
M  V30 1343 H 138.664 -0.241287 3.25707 0
M  V30 1344 H 137.323 1.88814 3.14237 0
M  V30 1345 H 136.971 0.276783 5.02238 0
M  V30 1346 H 136.671 1.95433 5.54148 0
M  V30 1347 H 138.195 1.1415 5.99835 0
M  V30 1348 H 139.609 3.08914 4.82954 0
M  V30 1349 H 138.006 3.84781 4.60504 0
M  V30 1350 H 139.076 3.63673 3.20734 0
M  V30 1351 N 140.419 -1.14872 1.07899 0
M  V30 1352 C 141.666 -1.85789 0.805532 0
M  V30 1353 C 141.994 -1.82649 -0.668561 0
M  V30 1354 O 141.249 -1.24858 -1.50695 0
M  V30 1355 C 141.548 -3.34223 1.26609 0
M  V30 1356 C 141.214 -3.57555 2.74709 0
M  V30 1357 C 139.876 -3.63631 3.1516 0
M  V30 1358 C 142.228 -3.66803 3.70277 0
M  V30 1359 C 139.556 -3.76473 4.49983 0
M  V30 1360 C 141.908 -3.8117 5.04869 0
M  V30 1361 C 140.572 -3.85494 5.44932 0
M  V30 1362 H 139.842 -0.679849 0.294765 0
M  V30 1363 H 142.489 -1.3572 1.35101 0
M  V30 1364 H 140.794 -3.86536 0.640103 0
M  V30 1365 H 142.491 -3.87511 1.03132 0
M  V30 1366 H 139.081 -3.5347 2.42398 0
M  V30 1367 H 143.265 -3.61404 3.40149 0
M  V30 1368 H 138.521 -3.7808 4.80484 0
M  V30 1369 H 142.695 -3.87268 5.78789 0
M  V30 1370 H 140.322 -3.95197 6.49403 0
M  V30 1371 N 141.898 -0.863906 -1.31812 0
M  V30 1372 C 142.831 -0.259963 -2.26714 0
M  V30 1373 C 143.809 0.607392 -1.50829 0
M  V30 1374 O 144.993 0.562155 -1.79922 0
M  V30 1375 C 142.12 0.632456 -3.32743 0
M  V30 1376 C 141.166 -0.162743 -4.26189 0
M  V30 1377 S 141.999 -1.53726 -5.12961 0
M  V30 1378 C 143.155 -0.650803 -6.22507 0
M  V30 1379 H 143.388 -1.06445 -2.77591 0
M  V30 1380 H 140.921 -0.662071 -1.39485 0
M  V30 1381 H 142.879 1.14167 -3.94305 0
M  V30 1382 H 141.54 1.41083 -2.80632 0
M  V30 1383 H 140.733 0.517366 -5.01338 0
M  V30 1384 H 140.335 -0.60385 -3.69093 0
M  V30 1385 H 142.627 0.141134 -6.77353 0
M  V30 1386 H 143.57 -1.37322 -6.94657 0
M  V30 1387 H 143.978 -0.221041 -5.64067 0
M  V30 1388 N 143.376 1.44774 -0.622745 0
M  V30 1389 C 144.306 2.33382 0.0741861 0
M  V30 1390 C 145.287 1.47719 0.843387 0
M  V30 1391 O 146.472 1.76458 0.810934 0
M  V30 1392 C 143.602 3.30663 1.06204 0
M  V30 1393 C 142.556 4.26079 0.405037 0
M  V30 1394 C 141.882 5.13165 1.5022 0
M  V30 1395 C 143.182 5.1781 -0.683414 0
M  V30 1396 H 144.876 2.91905 -0.665713 0
M  V30 1397 H 142.422 1.40363 -0.321587 0
M  V30 1398 H 144.375 3.9153 1.55827 0
M  V30 1399 H 143.099 2.70331 1.83272 0
M  V30 1400 H 141.758 3.66532 -0.0704683 0
M  V30 1401 H 141.406 4.49191 2.26355 0
M  V30 1402 H 141.106 5.77812 1.06803 0
M  V30 1403 H 142.63 5.76902 2.00041 0
M  V30 1404 H 144.044 5.72661 -0.270631 0
M  V30 1405 H 142.441 5.91015 -1.04023 0
M  V30 1406 H 143.511 4.59326 -1.55395 0
M  V30 1407 N 144.854 0.36279 1.53368 0
M  V30 1408 C 146.079 -0.231226 2.06107 0
M  V30 1409 C 146.504 -1.419 1.23474 0
M  V30 1410 O 145.862 -1.79524 0.253128 0
M  V30 1411 C 145.91 -0.605523 3.5548 0
M  V30 1412 O 145.014 -1.70312 3.7559 0
M  V30 1413 H 144.355 -0.034327 0.663112 0
M  V30 1414 H 146.885 0.522584 1.97814 0
M  V30 1415 H 146.895 -0.877314 3.98456 0
M  V30 1416 H 145.57 0.263004 4.15068 0
M  V30 1417 H 144.147 -1.4271 3.44512 0
M  V30 1418 N 146.332 -1.57332 0.0918853 0
M  V30 1419 C 147.578 -1.94524 -0.573425 0
M  V30 1420 C 147.911 -0.973578 -1.68033 0
M  V30 1421 O 147.186 -0.00609226 -1.94499 0
M  V30 1422 C 147.469 -3.41858 -1.13161 0
M  V30 1423 C 147.322 -4.4979 -0.0299747 0
M  V30 1424 C 148.641 -3.90435 -2.03098 0
M  V30 1425 H 145.76 -0.70734 -0.206975 0
M  V30 1426 H 148.402 -1.89309 0.161942 0
M  V30 1427 H 146.552 -3.46433 -1.7583 0
M  V30 1428 H 148.224 -4.57327 0.604112 0
M  V30 1429 H 146.467 -4.291 0.636833 0
M  V30 1430 H 147.138 -5.50069 -0.461287 0
M  V30 1431 H 149.614 -3.87992 -1.50338 0
M  V30 1432 H 148.49 -4.94097 -2.39081 0
M  V30 1433 H 148.751 -3.29541 -2.94712 0
M  V30 1434 N 147.81 0.181792 -1.56548 0
M  V30 1435 C 149.221 0.745244 -1.71181 0
M  V30 1436 C 149.572 1.83262 -0.70068 0
M  V30 1437 O 148.697 2.15946 0.140154 0
M  V30 1438 C 149.292 1.35859 -3.10367 0
M  V30 1439 C 147.851 1.86898 -3.2672 0
M  V30 1440 C 146.998 0.743942 -2.67134 0
M  V30 1441 H 149.949 -0.0434661 -1.5864 0
M  V30 1442 H 149.97 2.22817 -3.08436 0
M  V30 1443 H 149.482 0.566948 -3.83937 0
M  V30 1444 H 147.583 2.68738 -2.5809 0
M  V30 1445 H 147.696 2.02162 -4.34359 0
M  V30 1446 H 146.06 1.16169 -2.26665 0
M  V30 1447 H 146.843 -0.035676 -3.43281 0
M  V30 1448 N 149.288 1.51039 0.449983 0
M  V30 1449 C 150.535 1.63081 1.20045 0
M  V30 1450 C 150.863 0.341024 1.91487 0
M  V30 1451 O 150.118 -0.674276 1.83717 0
M  V30 1452 C 150.417 2.77556 2.25161 0
M  V30 1453 C 150.083 4.17289 1.70823 0
M  V30 1454 C 148.745 4.55305 1.55725 0
M  V30 1455 C 151.097 5.04536 1.3074 0
M  V30 1456 C 148.425 5.78287 0.989999 0
M  V30 1457 C 150.777 6.28085 0.754482 0
M  V30 1458 C 149.441 6.64885 0.590308 0
M  V30 1459 H 148.711 0.596755 0.439277 0
M  V30 1460 H 151.358 1.85037 0.49333 0
M  V30 1461 H 149.663 2.49771 3.01863 0
M  V30 1462 H 151.36 2.84073 2.83026 0
M  V30 1463 H 147.95 3.8731 1.83546 0
M  V30 1464 H 152.134 4.75782 1.41229 0
M  V30 1465 H 147.39 6.05456 0.850451 0
M  V30 1466 H 151.564 6.95038 0.435324 0
M  V30 1467 H 149.191 7.60055 0.14862 0
M  V30 1468 N 150.766 -0.704594 1.40972 0
M  V30 1469 C 152.012 -1.46675 1.40051 0
M  V30 1470 C 152.345 -1.94199 0.00641102 0
M  V30 1471 O 151.62 -1.68916 -0.964235 0
M  V30 1472 C 151.903 -2.68505 2.39952 0
M  V30 1473 C 151.756 -2.26805 3.88432 0
M  V30 1474 C 153.075 -3.70686 2.37233 0
M  V30 1475 H 150.194 -0.532015 0.510028 0
M  V30 1476 H 152.836 -0.803255 1.72185 0
M  V30 1477 H 150.986 -3.25114 2.1268 0
M  V30 1478 H 152.658 -1.75592 4.26574 0
M  V30 1479 H 150.901 -1.58685 4.03734 0
M  V30 1480 H 151.572 -3.14181 4.53866 0
M  V30 1481 H 154.048 -3.23731 2.61415 0
M  V30 1482 H 152.924 -4.53553 3.09162 0
M  V30 1483 H 153.185 -4.19754 1.38777 0
M  V30 1484 N 152.244 -1.26651 -0.937939 0
M  V30 1485 C 153.207 -1.08546 -2.01867 0
M  V30 1486 C 154.207 -0.0327327 -1.60767 0
M  V30 1487 O 155.397 -0.276427 -1.71993 0
M  V30 1488 C 152.529 -0.651711 -3.34613 0
M  V30 1489 H 153.722 -2.04502 -2.1936 0
M  V30 1490 H 151.275 -1.09294 -1.11734 0
M  V30 1491 H 152.01 0.309696 -3.22818 0
M  V30 1492 H 151.795 -1.41189 -3.65798 0
M  V30 1493 H 153.285 -0.546973 -4.14002 0
M  V30 1494 N 153.722 1.14298 -1.08507 0
M  V30 1495 C 154.947 1.8976 -0.837001 0
M  V30 1496 C 155.372 1.78097 0.605228 0
M  V30 1497 O 154.73 1.12188 1.4242 0
M  V30 1498 C 154.778 3.37685 -1.26495 0
M  V30 1499 O 153.882 4.10281 -0.417514 0
M  V30 1500 H 153.223 0.590365 -0.303917 0
M  V30 1501 H 155.753 1.44672 -1.44676 0
M  V30 1502 H 155.763 3.88501 -1.24625 0
M  V30 1503 H 154.438 3.45492 -2.31534 0
M  V30 1504 H 153.015 3.69536 -0.499722 0
M  V30 1505 N 155.201 0.870884 1.31352 0
M  V30 1506 C 156.426 0.495957 2.01383 0
M  V30 1507 C 156.851 -0.904324 1.64935 0
M  V30 1508 O 156.209 -1.59687 0.858466 0
M  V30 1509 C 156.257 0.661433 3.54482 0
M  V30 1510 O 155.361 -0.298851 4.11316 0
M  V30 1511 H 154.702 0.197158 0.634054 0
M  V30 1512 H 157.232 1.17455 1.67527 0
M  V30 1513 H 157.242 0.555072 4.04207 0
M  V30 1514 H 155.917 1.68246 3.8035 0
M  V30 1515 H 154.494 -0.147368 3.72609 0
M  V30 1516 N 156.679 -1.44442 0.630414 0
M  V30 1517 C 157.642 -2.29107 -0.0652523 0
M  V30 1518 C 158.642 -1.41002 -0.772995 0
M  V30 1519 O 159.832 -1.62881 -0.617692 0
M  V30 1520 C 156.964 -3.22564 -1.10296 0
M  V30 1521 H 158.157 -2.92103 0.679401 0
M  V30 1522 H 155.71 -1.51343 0.390517 0
M  V30 1523 H 156.445 -2.64416 -1.87762 0
M  V30 1524 H 156.23 -3.87491 -0.59941 0
M  V30 1525 H 157.72 -3.86167 -1.5895 0
M  V30 1526 N 158.157 -0.370918 -1.53173 0
M  V30 1527 C 159.12 0.460778 -2.24521 0
M  V30 1528 C 160.12 1.00536 -1.25496 0
M  V30 1529 O 161.31 0.890266 -1.49733 0
M  V30 1530 C 158.442 1.64457 -2.98608 0
M  V30 1531 H 159.635 -0.163613 -2.99453 0
M  V30 1532 H 157.188 -0.122699 -1.55818 0
M  V30 1533 H 157.923 2.30691 -2.2793 0
M  V30 1534 H 157.708 1.26099 -3.7127 0
M  V30 1535 H 159.198 2.23384 -3.5283 0
M  V30 1536 N 159.635 1.57281 -0.100228 0
M  V30 1537 C 160.565 2.17328 0.853857 0
M  V30 1538 C 161.546 1.10804 1.2906 0
M  V30 1539 O 162.731 1.38963 1.35657 0
M  V30 1540 C 159.861 2.75772 2.11109 0
M  V30 1541 C 158.815 3.87713 1.81279 0
M  V30 1542 C 158.141 4.32882 3.13874 0
M  V30 1543 C 159.441 5.10677 1.09574 0
M  V30 1544 H 161.135 2.97305 0.353545 0
M  V30 1545 H 158.681 1.43009 0.168612 0
M  V30 1546 H 160.634 3.16433 2.78296 0
M  V30 1547 H 159.358 1.93057 2.63432 0
M  V30 1548 H 158.017 3.476 1.16489 0
M  V30 1549 H 157.665 3.47051 3.64095 0
M  V30 1550 H 157.365 5.08358 2.94696 0
M  V30 1551 H 158.889 4.7618 3.82211 0
M  V30 1552 H 160.303 5.48474 1.66879 0
M  V30 1553 H 158.7 5.91615 1.00557 0
M  V30 1554 H 159.77 4.84835 0.0793299 0
M  V30 1555 N 161.113 -0.173488 1.56642 0
M  V30 1556 C 162.529 -0.525174 1.50712 0
M  V30 1557 C 162.729 -1.8476 0.804107 0
M  V30 1558 O 161.785 -2.49869 0.363574 0
M  V30 1559 C 163.098 -0.559937 2.95441 0
M  V30 1560 C 164.646 -0.647288 3.06234 0
M  V30 1561 C 165.121 -0.712963 4.52417 0
M  V30 1562 N 166.612 -0.775911 4.56655 0
M  V30 1563 C 167.347 -0.847264 5.67106 0
M  V30 1564 N 166.843 -0.879585 6.87194 0
M  V30 1565 N 168.636 -0.886117 5.55071 0
M  V30 1566 H 160.787 0.693681 2.00753 0
M  V30 1567 H 163.05 0.249841 0.914485 0
M  V30 1568 H 162.756 0.343049 3.50023 0
M  V30 1569 H 162.63 -1.40718 3.49969 0
M  V30 1570 H 165.017 -1.5407 2.51687 0
M  V30 1571 H 165.098 0.226586 2.54794 0
M  V30 1572 H 164.742 0.176183 5.07594 0
M  V30 1573 H 164.672 -1.60295 5.0161 0
M  V30 1574 H 167.163 -0.759304 3.70193 0
M  V30 1575 H 167.476 -0.935144 7.67121 0
M  V30 1576 H 165.821 -0.847898 6.89808 0
M  V30 1577 H 169.012 -0.857853 4.60172 0
M  V30 1578 H 169.185 -0.938263 6.41171 0
M  V30 1579 N 162.591 -1.51276 -0.441967 0
M  V30 1580 C 163.541 -1.6864 -1.53442 0
M  V30 1581 C 164.525 -0.540444 -1.51552 0
M  V30 1582 O 165.717 -0.796157 -1.58083 0
M  V30 1583 C 162.846 -1.8106 -2.91672 0
M  V30 1584 C 161.932 -3.01424 -2.98336 0
M  V30 1585 N 162.323 -4.2467 -2.74752 0
M  V30 1586 C 160.621 -3.00584 -3.29493 0
M  V30 1587 C 161.322 -5.05891 -2.87139 0
M  V30 1588 N 160.298 -4.40442 -3.18609 0
M  V30 1589 H 164.1 -2.61598 -1.33954 0
M  V30 1590 H 161.614 -1.4886 -0.6492 0
M  V30 1591 H 163.611 -1.91609 -3.70259 0
M  V30 1592 H 162.271 -0.892795 -3.12185 0
M  V30 1593 H 163.282 -4.53691 -2.49769 0
M  V30 1594 H 159.959 -2.18417 -3.55809 0
M  V30 1595 H 161.349 -6.13983 -2.72899 0
M  V30 1596 N 164.069 0.697108 -1.41344 0
M  V30 1597 C 165.315 1.45796 -1.41828 0
M  V30 1598 C 165.67 1.92382 -0.0261743 0
M  V30 1599 O 164.963 1.66522 0.947688 0
M  V30 1600 C 165.157 2.68553 -2.35826 0
M  V30 1601 C 164.986 2.33975 -3.84039 0
M  V30 1602 C 163.756 2.24414 -4.52732 0
M  V30 1603 C 165.954 1.97048 -4.75054 0
M  V30 1604 N 163.936 1.82705 -5.86082 0
M  V30 1605 C 165.307 1.66086 -5.9734 0
M  V30 1606 C 167.362 1.83845 -4.62715 0
M  V30 1607 C 166.065 1.23246 -7.08663 0
M  V30 1608 C 168.091 1.4241 -5.73998 0
M  V30 1609 C 167.453 1.12357 -6.95381 0
M  V30 1610 H 163.552 0.530859 -0.574206 0
M  V30 1611 H 166.136 0.806674 -1.77203 0
M  V30 1612 H 164.307 3.31404 -2.02549 0
M  V30 1613 H 166.039 3.35015 -2.2704 0
M  V30 1614 H 162.794 2.4276 -4.0665 0
M  V30 1615 H 163.218 1.64337 -6.56751 0
M  V30 1616 H 167.86 2.05734 -3.69369 0
M  V30 1617 H 165.578 1.00102 -8.01876 0
M  V30 1618 H 169.164 1.32746 -5.66454 0
M  V30 1619 H 168.044 0.807795 -7.80028 0
M  V30 1620 N 165.547 1.27147 0.931209 0
M  V30 1621 C 166.958 1.12044 1.49342 0
M  V30 1622 C 167.309 -0.295795 1.93957 0
M  V30 1623 O 166.434 -1.18835 1.80852 0
M  V30 1624 C 167.029 2.02781 2.71414 0
M  V30 1625 C 165.588 1.91794 3.2387 0
M  V30 1626 C 164.735 1.95543 1.96617 0
M  V30 1627 H 167.686 1.40091 0.745672 0
M  V30 1628 H 167.707 1.58156 3.46074 0
M  V30 1629 H 167.219 3.05848 2.38911 0
M  V30 1630 H 165.32 0.916992 3.6114 0
M  V30 1631 H 165.433 2.77852 3.90302 0
M  V30 1632 H 163.797 1.39722 2.12955 0
M  V30 1633 H 164.58 3.00259 1.66432 0
M  V30 1634 N 167.025 -1.13721 1.09112 0
M  V30 1635 C 168.272 -1.84924 0.825192 0
M  V30 1636 C 168.6 -1.83347 -0.649151 0
M  V30 1637 O 167.855 -1.26449 -1.49362 0
M  V30 1638 C 168.154 -3.32861 1.30146 0
M  V30 1639 C 167.82 -3.54621 2.78486 0
M  V30 1640 C 166.482 -3.60268 3.18999 0
M  V30 1641 C 168.834 -3.62855 3.74146 0
M  V30 1642 C 166.162 -3.71679 4.53951 0
M  V30 1643 C 168.514 -3.75793 5.08883 0
M  V30 1644 C 167.178 -3.79692 5.4899 0
M  V30 1645 H 166.448 -0.676684 0.301959 0
M  V30 1646 H 169.095 -1.3428 1.36533 0
M  V30 1647 H 167.4 -3.85835 0.681064 0
M  V30 1648 H 169.097 -3.86395 1.07236 0
M  V30 1649 H 165.687 -3.50879 2.46134 0
M  V30 1650 H 169.871 -3.57775 3.43963 0
M  V30 1651 H 165.127 -3.72963 4.84467 0
M  V30 1652 H 169.301 -3.81107 5.82864 0
M  V30 1653 H 166.928 -3.88287 6.53558 0
M  V30 1654 N 168.503 -0.877838 -1.30888 0
M  V30 1655 C 169.751 -0.491723 -1.96027 0
M  V30 1656 C 170.072 0.960827 -1.69685 0
M  V30 1657 O 169.342 1.67462 -1.01654 0
M  V30 1658 H 167.922 -0.17885 -0.725273 0
M  V30 1659 H 170.584 -1.11935 -1.59551 0
M  V30 1660 H 169.68 -0.656016 -3.05128 0
M  V30 1661 N 169.982 1.44106 -0.638065 0
M  V30 1662 C 171.207 2.0685 -0.150916 0
M  V30 1663 C 171.632 1.47417 1.16833 0
M  V30 1664 O 170.99 0.578264 1.71831 0
M  V30 1665 C 171.038 3.60555 -0.05708 0
M  V30 1666 O 170.142 4.00465 0.984972 0
M  V30 1667 H 169.483 0.658151 -0.0879399 0
M  V30 1668 H 172.013 1.84865 -0.876707 0
M  V30 1669 H 172.023 4.07789 0.131232 0
M  V30 1670 H 170.698 4.03193 -1.02021 0
M  V30 1671 H 169.275 3.64849 0.770672 0
M  V30 1672 N 171.46 0.379036 1.52974 0
M  V30 1673 C 172.706 -0.206727 2.01744 0
M  V30 1674 C 173.039 -1.47314 1.26539 0
M  V30 1675 O 172.314 -1.91084 0.362903 0
M  V30 1676 C 172.597 -0.485066 3.56818 0
M  V30 1677 C 172.45 0.795919 4.42702 0
M  V30 1678 C 173.769 -1.28003 4.21074 0
M  V30 1679 H 170.888 -0.0736607 0.73331 0
M  V30 1680 H 173.53 0.506581 1.83122 0
M  V30 1681 H 171.68 -1.09272 3.72816 0
M  V30 1682 H 173.352 1.43307 4.38476 0
M  V30 1683 H 171.595 1.41344 4.10127 0
M  V30 1684 H 172.266 0.555947 5.49193 0
M  V30 1685 H 174.742 -0.765867 4.08991 0
M  V30 1686 H 173.618 -1.44352 5.29579 0
M  V30 1687 H 173.879 -2.29236 3.78026 0
M  V30 1688 N 172.938 -1.57226 0.108567 0
M  V30 1689 C 173.868 -2.17778 -0.84232 0
M  V30 1690 C 174.849 -1.11487 -1.2847 0
M  V30 1691 O 176.034 -1.39681 -1.34918 0
M  V30 1692 C 173.164 -2.76888 -2.09644 0
M  V30 1693 C 172.118 -3.88669 -1.79221 0
M  V30 1694 C 171.444 -4.34541 -3.11574 0
M  V30 1695 C 172.744 -5.11251 -1.06864 0
M  V30 1696 H 174.438 -2.97489 -0.337774 0
M  V30 1697 H 171.984 -1.43097 -0.161025 0
M  V30 1698 H 173.937 -3.17904 -2.76614 0
M  V30 1699 H 172.661 -1.94451 -2.62405 0
M  V30 1700 H 171.32 -3.48213 -1.14644 0
M  V30 1701 H 170.968 -3.48977 -3.62249 0
M  V30 1702 H 170.668 -5.09914 -2.91996 0
M  V30 1703 H 172.192 -4.782 -3.7968 0
M  V30 1704 H 173.606 -5.49352 -1.63968 0
M  V30 1705 H 172.003 -5.9214 -0.974178 0
M  V30 1706 H 173.073 -4.8487 -0.0536168 0
M  V30 1707 N 174.416 0.165178 -1.56732 0
M  V30 1708 C 175.656 0.887231 -1.8414 0
M  V30 1709 C 176.02 1.79159 -0.690353 0
M  V30 1710 O 177.221 2.55172 -0.845032 0
M  V30 1711 C 175.492 1.65674 -3.16681 0
M  V30 1712 S 177.051 2.42671 -3.6559 0
M  V30 1713 H 173.869 0.297042 -0.645978 0
M  V30 1714 H 176.471 0.148439 -1.94936 0
M  V30 1715 H 175.175 0.983507 -3.98441 0
M  V30 1716 H 174.706 2.43679 -3.08843 0
M  V30 1717 H 176.721 3.67499 -3.33406 0
M  V30 1718 N 175.894 1.51508 0.433938 0
M  V30 1719 C 177.31 1.39759 0.770682 0
M  V30 1720 C 177.51 0.482594 1.95636 0
M  V30 1721 O 176.566 -0.0609691 2.52426 0
M  V30 1722 C 177.879 2.81851 1.04787 0
M  V30 1723 C 179.427 2.91025 1.1521 0
M  V30 1724 C 179.902 4.34032 1.46219 0
M  V30 1725 N 181.393 4.37154 1.53136 0
M  V30 1726 C 182.128 5.4484 1.78709 0
M  V30 1727 N 181.624 6.62682 2.02051 0
M  V30 1728 N 183.417 5.32324 1.80519 0
M  V30 1729 H 175.568 2.09548 -0.346892 0
M  V30 1730 H 177.831 0.943446 -0.0928074 0
M  V30 1731 H 177.537 3.50815 0.249304 0
M  V30 1732 H 177.411 3.21386 1.97461 0
M  V30 1733 H 179.798 2.22257 1.94128 0
M  V30 1734 H 179.879 2.54983 0.204281 0
M  V30 1735 H 179.523 5.03351 0.678274 0
M  V30 1736 H 179.453 4.6759 2.42212 0
M  V30 1737 H 181.944 3.52197 1.36987 0
M  V30 1738 H 182.257 7.40543 2.20943 0
M  V30 1739 H 180.602 6.65791 1.99366 0
M  V30 1740 H 183.793 4.39246 1.61805 0
M  V30 1741 H 183.966 6.16328 2.00111 0
M  V30 1742 N 177.372 -0.689602 1.41712 0
M  V30 1743 C 178.335 -1.78521 1.43746 0
M  V30 1744 C 179.335 -1.57436 0.327191 0
M  V30 1745 O 180.525 -1.64 0.587348 0
M  V30 1746 C 177.657 -3.16971 1.25467 0
M  V30 1747 H 178.85 -1.78108 2.41283 0
M  V30 1748 H 176.403 -0.89781 1.27942 0
M  V30 1749 H 177.138 -3.23019 0.287948 0
M  V30 1750 H 176.923 -3.33678 2.05917 0
M  V30 1751 H 178.413 -3.96935 1.2974 0
M  V30 1752 N 178.85 -1.27639 -0.924453 0
M  V30 1753 C 180.096 -1.14336 -1.67497 0
M  V30 1754 C 180.429 0.309465 -1.91718 0
M  V30 1755 O 179.704 1.22608 -1.50989 0
M  V30 1756 C 179.987 -1.93096 -3.0395 0
M  V30 1757 C 179.84 -3.46381 -2.8695 0
M  V30 1758 C 181.159 -1.73798 -4.0433 0
M  V30 1759 H 178.278 -0.416728 -0.607871 0
M  V30 1760 H 180.92 -1.56832 -1.07256 0
M  V30 1761 H 179.07 -1.56982 -3.55372 0
M  V30 1762 H 180.742 -3.92343 -2.42621 0
M  V30 1763 H 178.985 -3.72557 -2.22225 0
M  V30 1764 H 179.656 -3.96735 -3.83804 0
M  V30 1765 H 182.132 -2.05293 -3.61931 0
M  V30 1766 H 181.008 -2.31294 -4.97789 0
M  V30 1767 H 181.269 -0.686725 -4.36734 0
M  V30 1768 N 180.328 1.1314 -1.09713 0
M  V30 1769 C 181.258 2.20748 -0.761102 0
M  V30 1770 C 182.239 1.68061 0.262566 0
M  V30 1771 O 183.424 1.93765 0.129977 0
M  V30 1772 C 180.554 3.46812 -0.184054 0
M  V30 1773 C 179.508 4.12606 -1.13757 0
M  V30 1774 C 178.834 5.33031 -0.422083 0
M  V30 1775 C 180.134 4.59603 -2.48118 0
M  V30 1776 H 181.828 2.49113 -1.66082 0
M  V30 1777 H 179.374 1.19734 -0.799987 0
M  V30 1778 H 181.327 4.21353 0.0631215 0
M  V30 1779 H 180.051 3.17851 0.750868 0
M  V30 1780 H 178.71 3.40036 -1.37007 0
M  V30 1781 H 178.358 5.00335 0.517072 0
M  V30 1782 H 178.058 5.77999 -1.05788 0
M  V30 1783 H 179.582 6.10325 -0.183277 0
M  V30 1784 H 180.996 5.25552 -2.29059 0
M  V30 1785 H 179.393 5.15321 -3.07514 0
M  V30 1786 H 180.463 3.73971 -3.08665 0
M  V30 1787 N 181.806 0.884767 1.30421 0
M  V30 1788 C 183.031 0.517288 2.00845 0
M  V30 1789 C 183.456 -0.886779 1.65885 0
M  V30 1790 O 182.814 -1.58768 0.875354 0
M  V30 1791 C 182.862 0.698994 3.5376 0
M  V30 1792 O 181.966 -0.255208 4.1161 0
M  V30 1793 H 181.307 0.203872 0.631927 0
M  V30 1794 H 183.837 1.19225 1.66272 0
M  V30 1795 H 183.847 0.597912 4.03595 0
M  V30 1796 H 182.522 1.72271 3.78544 0
M  V30 1797 H 181.099 -0.10784 3.72744 0
M  V30 1798 N 183.284 -1.43765 0.645699 0
M  V30 1799 C 184.53 -2.02197 0.156271 0
M  V30 1800 C 184.863 -1.50776 -1.22393 0
M  V30 1801 O 184.138 -0.697771 -1.81553 0
M  V30 1802 C 184.421 -3.59749 0.158872 0
M  V30 1803 C 184.274 -4.21419 1.57245 0
M  V30 1804 C 185.593 -4.37149 -0.50879 0
M  V30 1805 H 182.712 -0.734694 0.0582602 0
M  V30 1806 H 185.354 -1.71157 0.824951 0
M  V30 1807 H 183.504 -3.86325 -0.410525 0
M  V30 1808 H 185.176 -4.059 2.19186 0
M  V30 1809 H 183.419 -3.78356 2.122 0
M  V30 1810 H 184.09 -5.30482 1.52619 0
M  V30 1811 H 186.566 -4.16093 -0.024412 0
M  V30 1812 H 185.442 -5.4683 -0.476213 0
M  V30 1813 H 185.703 -4.12839 -1.58165 0
M  V30 1814 N 184.763 -0.387143 -1.52771 0
M  V30 1815 C 186.04 0.253197 -1.93954 0
M  V30 1816 C 186.42 1.64545 -1.32243 0
M  V30 1817 O 185.768 2.23191 -0.489699 0
M  V30 1818 C 185.978 0.281722 -3.47861 0
M  V30 1819 C 187.326 0.511715 -4.21505 0
M  V30 1820 O 188.35 0.362023 -3.54356 0
M  V30 1821 O 187.209 0.804847 -5.40541 0
M  V30 1822 H 184.303 0.156845 -0.811991 0
M  V30 1823 H 186.849 -0.441494 -1.63856 0
M  V30 1824 H 185.621 -0.693571 -3.85104 0
M  V30 1825 H 185.244 1.02142 -3.84256 0
M  V30 1826 N 186.241 1.57166 -0.116904 0
M  V30 1827 C 187.489 1.94737 0.540533 0
M  V30 1828 C 187.81 1.00096 1.67349 0
M  V30 1829 O 187.08 0.0568854 1.95817 0
M  V30 1830 H 185.66 0.718981 0.202669 0
M  V30 1831 H 188.322 1.94017 -0.185353 0
M  V30 1832 H 187.418 2.97719 0.936483 0
M  V30 1833 N 187.719 -0.156864 1.56817 0
M  V30 1834 C 188.649 -1.19589 2.00551 0
M  V30 1835 C 189.63 -1.4536 0.883426 0
M  V30 1836 O 190.815 -1.56449 1.15054 0
M  V30 1837 C 187.945 -2.53143 2.37773 0
M  V30 1838 C 186.899 -2.41913 3.53075 0
M  V30 1839 C 186.225 -3.80088 3.76081 0
M  V30 1840 C 187.525 -1.91157 4.86062 0
M  V30 1841 H 189.219 -0.832293 2.87599 0
M  V30 1842 H 186.765 -0.398918 1.38364 0
M  V30 1843 H 188.718 -3.26047 2.66967 0
M  V30 1844 H 187.442 -2.91319 1.4765 0
M  V30 1845 H 186.101 -1.71462 3.24031 0
M  V30 1846 H 185.749 -4.15683 2.83225 0
M  V30 1847 H 185.449 -3.73439 4.53671 0
M  V30 1848 H 186.973 -4.54556 4.0769 0
M  V30 1849 H 188.387 -2.53846 5.14038 0
M  V30 1850 H 186.784 -1.95422 5.67389 0
M  V30 1851 H 187.854 -0.866673 4.77092 0
M  V30 1852 N 189.197 -1.51736 -0.425897 0
M  V30 1853 C 190.145 -1.74464 -1.53834 0
M  V30 1854 C 191.139 -0.611241 -1.57988 0
M  V30 1855 O 192.345 -0.792899 -1.61596 0
M  V30 1856 H 188.72 -0.551437 -0.511293 0
M  V30 1857 H 190.691 -2.67694 -1.31843 0
M  V30 1858 C 189.44 -1.8972 -2.91379 0
M  V30 1859 H 188.763 -2.76344 -2.88919 0
M  V30 1860 H 190.203 -2.09629 -3.68553 0
M  V30 1861 C 188.662 -0.65992 -3.30374 0
M  V30 1862 O 189.192 0.180083 -4.01296 0
M  V30 1863 N 187.398 -0.500677 -2.86254 0
M  V30 1864 H 186.945 -1.18532 -2.28709 0
M  V30 1865 H 186.903 0.325903 -3.12706 0
M  V30 1866 N 190.675 0.682077 -1.42076 0
M  V30 1867 C 191.608 1.80666 -1.3941 0
M  V30 1868 C 192.586 1.60518 -0.25939 0
M  V30 1869 O 193.77 1.83088 -0.448456 0
M  V30 1870 C 190.897 3.17556 -1.17796 0
M  V30 1871 C 189.943 3.56468 -2.34164 0
M  V30 1872 S 190.776 3.59729 -3.96681 0
M  V30 1873 C 191.932 4.99323 -3.77395 0
M  V30 1874 H 192.165 1.82652 -2.34575 0
M  V30 1875 H 189.698 0.852062 -1.2876 0
M  V30 1876 H 191.656 3.96575 -1.06012 0
M  V30 1877 H 190.317 3.13164 -0.242279 0
M  V30 1878 H 189.51 4.5595 -2.1477 0
M  V30 1879 H 189.112 2.84792 -2.42425 0
M  V30 1880 H 191.404 5.87202 -3.37935 0
M  V30 1881 H 192.347 5.23763 -4.76527 0
M  V30 1882 H 192.755 4.71498 -3.10403 0
M  V30 1883 N 192.153 1.28127 0.917671 0
M  V30 1884 C 193.4 1.15052 1.66641 0
M  V30 1885 C 193.728 -0.301677 1.92146 0
M  V30 1886 O 192.983 -1.23622 1.51711 0
M  V30 1887 C 193.282 1.89018 3.03327 0
M  V30 1888 C 192.948 3.38832 2.97496 0
M  V30 1889 C 191.61 3.79693 2.95613 0
M  V30 1890 C 193.962 4.34378 2.88036 0
M  V30 1891 C 191.29 5.14447 2.82066 0
M  V30 1892 C 193.642 5.69201 2.7603 0
M  V30 1893 C 192.306 6.09343 2.72502 0
M  V30 1894 H 191.576 0.421006 0.609783 0
M  V30 1895 H 194.223 1.58855 1.06945 0
M  V30 1896 H 192.528 1.37752 3.66785 0
M  V30 1897 H 194.225 1.76321 3.60156 0
M  V30 1898 H 190.815 3.06342 2.99754 0
M  V30 1899 H 194.999 4.03775 2.88581 0
M  V30 1900 H 190.255 5.44681 2.77728 0
M  V30 1901 H 194.429 6.42901 2.67678 0
M  V30 1902 H 192.056 7.13712 2.61762 0
M  V30 1903 N 193.631 -1.12557 1.10312 0
M  V30 1904 C 194.859 -1.87864 0.866873 0
M  V30 1905 C 195.274 -1.79588 -0.582557 0
M  V30 1906 O 194.631 -1.16887 -1.40156 0
M  V30 1907 C 194.682 -3.37125 1.30496 0
M  V30 1908 O 194.403 -3.45201 2.69755 0
M  V30 1909 C 195.904 -4.29373 1.10243 0
M  V30 1910 H 193.124 -0.594452 0.311236 0
M  V30 1911 H 195.668 -1.42429 1.46745 0
M  V30 1912 H 193.823 -3.80109 0.748081 0
M  V30 1913 H 194.237 -4.38056 2.88457 0
M  V30 1914 H 195.711 -5.32394 1.45811 0
M  V30 1915 H 196.188 -4.39181 0.0409492 0
M  V30 1916 H 196.794 -3.92169 1.64571 0
M  V30 1917 N 195.109 -0.891671 -1.2995 0
M  V30 1918 C 196.334 -0.527932 -2.00568 0
M  V30 1919 C 196.759 0.877969 -1.66353 0
M  V30 1920 O 196.117 1.58301 -0.883762 0
M  V30 1921 C 196.165 -0.717745 -3.53385 0
M  V30 1922 O 195.269 0.233376 -4.11739 0
M  V30 1923 H 194.61 -0.20722 -0.630837 0
M  V30 1924 H 197.14 -1.20105 -1.65638 0
M  V30 1925 H 197.15 -0.619307 -4.03272 0
M  V30 1926 H 195.825 -1.74276 -3.77625 0
M  V30 1927 H 194.402 0.0880706 -3.72796 0
M  V30 1928 N 196.587 1.43421 -0.653314 0
M  V30 1929 C 197.833 2.02111 -0.166992 0
M  V30 1930 C 198.166 1.51423 1.21592 0
M  V30 1931 O 197.441 0.707389 1.8118 0
M  V30 1932 C 197.724 3.5966 -0.177948 0
M  V30 1933 C 197.577 4.20579 -1.59478 0
M  V30 1934 C 198.896 4.37413 0.4856 0
M  V30 1935 H 196.015 0.734374 -0.0621557 0
M  V30 1936 H 198.657 1.70717 -0.834016 0
M  V30 1937 H 196.807 3.86537 0.390032 0
M  V30 1938 H 198.479 4.04732 -2.21336 0
M  V30 1939 H 196.722 3.77226 -2.14204 0
M  V30 1940 H 197.393 5.29665 -1.5543 0
M  V30 1941 H 199.869 4.161 0.00234528 0
M  V30 1942 H 198.745 5.47075 0.447207 0
M  V30 1943 H 199.006 4.13672 1.55974 0
M  V30 1944 N 198.065 0.39524 1.52563 0
M  V30 1945 C 199.312 -0.185044 2.01653 0
M  V30 1946 C 199.64 -1.46317 1.28146 0
M  V30 1947 O 198.895 -1.9213 0.372074 0
M  V30 1948 C 199.194 -0.493444 3.53977 0
M  V30 1949 C 198.86 0.69384 4.4553 0
M  V30 1950 C 197.522 1.01954 4.70275 0
M  V30 1951 C 199.874 1.48785 4.99512 0
M  V30 1952 C 197.202 2.14069 5.46252 0
M  V30 1953 C 199.554 2.59965 5.76716 0
M  V30 1954 C 198.218 2.93037 5.99738 0
M  V30 1955 H 197.488 -0.0677123 0.7379 0
M  V30 1956 H 200.135 0.533807 1.8391 0
M  V30 1957 H 198.44 -1.29369 3.69825 0
M  V30 1958 H 200.137 -0.955163 3.89458 0
M  V30 1959 H 196.727 0.429987 4.26438 0
M  V30 1960 H 200.911 1.24946 4.80315 0
M  V30 1961 H 196.167 2.40056 5.62302 0
M  V30 1962 H 200.341 3.21887 6.17545 0
M  V30 1963 H 197.968 3.8003 6.58393 0
M  V30 1964 N 199.544 -1.57102 0.125237 0
M  V30 1965 C 200.784 -1.97294 -0.534259 0
M  V30 1966 C 201.148 -1.0074 -1.63449 0
M  V30 1967 O 202.349 -1.29893 -2.35332 0
M  V30 1968 C 200.62 -3.41705 -1.04748 0
M  V30 1969 S 202.179 -4.03913 -1.71463 0
M  V30 1970 H 198.997 -0.689517 -0.173458 0
M  V30 1971 H 201.599 -1.94349 0.211797 0
M  V30 1972 H 200.303 -4.09723 -0.235649 0
M  V30 1973 H 199.834 -3.48315 -1.82867 0
M  V30 1974 H 201.849 -3.95182 -3.00077 0
M  V30 1975 N 201.022 0.148545 -1.56898 0
M  V30 1976 C 201.952 1.18524 -2.01182 0
M  V30 1977 C 202.933 1.4489 -0.891123 0
M  V30 1978 O 204.118 1.55836 -1.15882 0
M  V30 1979 C 201.248 2.51879 -2.39112 0
M  V30 1980 C 200.202 2.40038 -3.54353 0
M  V30 1981 C 199.528 3.78089 -3.78091 0
M  V30 1982 C 200.828 1.88577 -4.87069 0
M  V30 1983 H 202.522 0.817029 -2.88036 0
M  V30 1984 H 200.068 0.391575 -1.38574 0
M  V30 1985 H 202.021 3.24627 -2.68692 0
M  V30 1986 H 200.745 2.90532 -1.49193 0
M  V30 1987 H 199.404 1.69742 -3.24936 0
M  V30 1988 H 199.052 4.14175 -2.85426 0
M  V30 1989 H 198.752 3.71028 -4.55645 0
M  V30 1990 H 200.276 4.52387 -4.10095 0
M  V30 1991 H 201.69 2.51117 -5.15377 0
M  V30 1992 H 200.087 1.9241 -5.68417 0
M  V30 1993 H 201.157 0.84136 -4.77545 0
M  V30 1994 N 202.5 1.5196 0.417844 0
M  V30 1995 C 203.728 1.69426 1.18753 0
M  V30 1996 C 204.143 0.399955 1.84515 0
M  V30 1997 O 203.5 -0.623288 1.71527 0
M  V30 1998 C 203.551 2.82375 2.25714 0
M  V30 1999 O 203.272 4.06793 1.62638 0
M  V30 2000 C 204.773 3.11277 3.15628 0
M  V30 2001 H 201.993 0.568031 0.357186 0
M  V30 2002 H 204.537 1.98475 0.49273 0
M  V30 2003 H 202.692 2.5587 2.90877 0
M  V30 2004 H 203.106 4.69667 2.3348 0
M  V30 2005 H 204.58 3.93843 3.86771 0
M  V30 2006 H 205.057 2.24473 3.77503 0
M  V30 2007 H 205.663 3.39515 2.56144 0
M  V30 2008 N 203.978 -0.674533 1.42435 0
M  V30 2009 C 205.224 -1.43671 1.43131 0
M  V30 2010 C 205.557 -1.94142 0.0476021 0
M  V30 2011 O 204.832 -1.70924 -0.928188 0
M  V30 2012 C 205.115 -2.63355 2.45594 0
M  V30 2013 C 204.968 -2.18514 3.93156 0
M  V30 2014 C 206.287 -3.65571 2.45043 0
M  V30 2015 H 203.406 -0.521077 0.521198 0
M  V30 2016 H 206.048 -0.766551 1.7385 0
M  V30 2017 H 204.198 -3.2053 2.19528 0
M  V30 2018 H 205.87 -1.66504 4.30202 0
M  V30 2019 H 204.113 -1.50086 4.07009 0
M  V30 2020 H 204.784 -3.04484 4.60428 0
M  V30 2021 H 207.26 -3.18113 2.68223 0
M  V30 2022 H 206.136 -4.46893 3.18713 0
M  V30 2023 H 206.397 -4.16716 1.47649 0
M  V30 2024 N 205.456 -1.28612 -0.910864 0
M  V30 2025 C 206.386 -1.15326 -2.03032 0
M  V30 2026 C 207.367 -0.0502924 -1.70026 0
M  V30 2027 O 208.552 -0.227797 -1.92859 0
M  V30 2028 C 205.682 -0.817343 -3.37545 0
M  V30 2029 C 204.636 -1.8754 -3.84724 0
M  V30 2030 C 203.962 -1.39305 -5.16235 0
M  V30 2031 C 205.262 -3.28244 -4.06267 0
M  V30 2032 H 206.956 -2.08975 -2.14406 0
M  V30 2033 H 204.502 -1.00612 -1.03021 0
M  V30 2034 H 206.455 -0.711151 -4.15356 0
M  V30 2035 H 205.179 0.154846 -3.26233 0
M  V30 2036 H 203.838 -1.97079 -3.09121 0
M  V30 2037 H 203.486 -0.409846 -5.01328 0
M  V30 2038 H 203.186 -2.10057 -5.48771 0
M  V30 2039 H 204.71 -1.30014 -5.96598 0
M  V30 2040 H 206.124 -3.21611 -4.74594 0
M  V30 2041 H 204.521 -3.96855 -4.5014 0
M  V30 2042 H 205.591 -3.72048 -3.10979 0
M  V30 2043 N 206.934 1.1197 -1.10907 0
M  V30 2044 C 208.159 1.87942 -0.877064 0
M  V30 2045 C 208.584 1.79341 0.567314 0
M  V30 2046 O 207.942 1.15184 1.40009 0
M  V30 2047 C 207.99 3.34926 -1.33629 0
M  V30 2048 O 207.094 4.09303 -0.504447 0
M  V30 2049 H 206.435 0.583785 -0.316371 0
M  V30 2050 H 208.965 1.4157 -1.47712 0
M  V30 2051 H 208.975 3.8577 -1.32837 0
M  V30 2052 H 207.65 3.40504 -2.3881 0
M  V30 2053 H 206.227 3.68393 -0.577993 0
M  V30 2054 N 208.412 0.89855 1.29475 0
M  V30 2055 C 209.658 0.524658 1.95896 0
M  V30 2056 C 209.991 -0.926468 1.70676 0
M  V30 2057 O 209.266 -1.65665 1.01908 0
M  V30 2058 C 209.549 0.81633 3.50725 0
M  V30 2059 C 209.402 2.31907 3.85408 0
M  V30 2060 C 210.721 0.302038 4.39062 0
M  V30 2061 H 207.84 0.19209 0.711527 0
M  V30 2062 H 210.482 1.12502 1.53112 0
M  V30 2063 H 208.632 0.305369 3.87298 0
M  V30 2064 H 210.304 2.89949 3.58786 0
M  V30 2065 H 208.547 2.78027 3.32992 0
M  V30 2066 H 209.218 2.47373 4.93468 0
M  V30 2067 H 211.694 0.739551 4.09475 0
M  V30 2068 H 210.57 0.535331 5.46283 0
M  V30 2069 H 210.831 -0.797216 4.34853 0
M  V30 2070 N 209.89 -1.43072 0.660911 0
M  V30 2071 C 211.167 -1.95307 0.107017 0
M  V30 2072 C 211.547 -1.60192 -1.37484 0
M  V30 2073 O 210.895 -0.890949 -2.10415 0
M  V30 2074 C 211.105 -3.47124 0.361402 0
M  V30 2075 C 212.453 -4.23738 0.270455 0
M  V30 2076 O 213.477 -3.54981 0.294382 0
M  V30 2077 O 212.336 -5.46131 0.200737 0
M  V30 2078 H 209.43 -0.826984 -0.00517729 0
M  V30 2079 H 211.976 -1.52972 0.734681 0
M  V30 2080 H 210.748 -3.65837 1.38848 0
M  V30 2081 H 210.371 -3.96475 -0.298953 0
M  V30 2082 N 211.368 -0.403325 -1.52352 0
M  V30 2083 C 212.784 -0.0539281 -1.59509 0
M  V30 2084 C 212.984 1.43307 -1.41652 0
M  V30 2085 O 212.04 2.19924 -1.24056 0
M  V30 2086 C 213.353 -0.543654 -2.95745 0
M  V30 2087 C 214.901 -0.501125 -3.08962 0
M  V30 2088 C 215.376 -0.967267 -4.47669 0
M  V30 2089 N 216.867 -0.923849 -4.53893 0
M  V30 2090 C 217.602 -1.25578 -5.5948 0
M  V30 2091 N 217.098 -1.65889 -6.72646 0
M  V30 2092 N 218.891 -1.17613 -5.49658 0
M  V30 2093 H 211.042 -1.37123 -1.62206 0
M  V30 2094 H 213.305 -0.56294 -0.76276 0
M  V30 2095 H 213.011 -1.58275 -3.14073 0
M  V30 2096 H 212.885 0.0498042 -3.77167 0
M  V30 2097 H 215.272 0.528909 -2.90321 0
M  V30 2098 H 215.353 -1.13056 -2.2946 0
M  V30 2099 H 214.997 -1.9956 -4.67053 0
M  V30 2100 H 214.927 -0.314698 -5.25659 0
M  V30 2101 H 217.418 -0.627403 -3.72655 0
M  V30 2102 H 217.731 -1.89543 -7.49195 0
M  V30 2103 H 216.076 -1.69787 -6.73942 0
M  V30 2104 H 219.267 -0.860115 -4.6013 0
M  V30 2105 H 219.44 -1.43812 -6.3184 0
M  V30 2106 N 212.846 1.57033 -0.133567 0
M  V30 2107 C 214.076 1.99754 0.527429 0
M  V30 2108 C 214.484 1.01245 1.59832 0
M  V30 2109 O 213.827 -0.000645496 1.837 0
M  V30 2110 C 213.889 3.38903 1.19939 0
M  V30 2111 C 213.553 4.56174 0.274709 0
M  V30 2112 C 214.55 5.17563 -0.492398 0
M  V30 2113 C 212.235 5.01972 0.18153 0
M  V30 2114 C 214.229 6.2315 -1.34027 0
M  V30 2115 C 211.916 6.07416 -0.669958 0
M  V30 2116 C 212.914 6.67874 -1.42947 0
M  V30 2117 O 212.602 7.71279 -2.2668 0
M  V30 2118 H 212.334 0.660702 0.142999 0
M  V30 2119 H 214.888 2.04207 -0.221099 0
M  V30 2120 H 213.118 3.31248 1.99528 0
M  V30 2121 H 214.807 3.65818 1.75875 0
M  V30 2122 H 215.573 4.83087 -0.430367 0
M  V30 2123 H 211.452 4.54652 0.762422 0
M  V30 2124 H 214.996 6.70268 -1.93357 0
M  V30 2125 H 210.893 6.41321 -0.73333 0
M  V30 2126 H 211.661 7.88441 -2.1978 0
M  V30 2127 N 214.325 -0.140222 1.56975 0
M  V30 2128 C 215.571 -0.852949 1.83991 0
M  V30 2129 C 215.904 -1.80512 0.716187 0
M  V30 2130 O 215.179 -1.92479 -0.279681 0
M  V30 2131 C 215.462 -1.6215 3.21527 0
M  V30 2132 C 215.315 -0.690363 4.4447 0
M  V30 2133 C 216.634 -2.58247 3.56366 0
M  V30 2134 H 213.753 -0.308634 0.669264 0
M  V30 2135 H 216.395 -0.117898 1.89634 0
M  V30 2136 H 214.545 -2.24812 3.16847 0
M  V30 2137 H 216.217 -0.0742264 4.6124 0
M  V30 2138 H 214.46 -0.000396433 4.338 0
M  V30 2139 H 215.131 -1.2643 5.37326 0
M  V30 2140 H 217.607 -2.05701 3.61699 0
M  V30 2141 H 216.483 -3.09067 4.53617 0
M  V30 2142 H 216.744 -3.39923 2.82674 0
M  V30 2143 N 215.803 -1.52179 -0.40978 0
M  V30 2144 C 216.766 -1.74853 -1.48186 0
M  V30 2145 C 217.766 -0.618417 -1.48433 0
M  V30 2146 O 218.956 -0.886286 -1.49969 0
M  V30 2147 C 216.088 -1.8303 -2.87598 0
M  V30 2148 H 217.281 -2.70559 -1.29374 0
M  V30 2149 H 214.834 -1.42586 -0.640233 0
M  V30 2150 H 215.569 -0.89236 -3.11781 0
M  V30 2151 H 215.354 -2.65187 -2.88822 0
M  V30 2152 H 216.844 -2.02316 -3.65319 0
M  V30 2153 N 217.281 0.66697 -1.42791 0
M  V30 2154 C 218.527 1.4291 -1.43891 0
M  V30 2155 C 218.86 1.94114 -0.0578972 0
M  V30 2156 O 218.135 1.71414 0.91911 0
M  V30 2157 C 218.418 2.62049 -2.46987 0
M  V30 2158 C 218.271 2.16426 -3.94309 0
M  V30 2159 C 219.59 3.64266 -2.46978 0
M  V30 2160 H 216.709 0.518306 -0.523954 0
M  V30 2161 H 219.351 0.757321 -1.74255 0
M  V30 2162 H 217.501 3.19361 -2.21225 0
M  V30 2163 H 219.173 1.64221 -4.31079 0
M  V30 2164 H 217.416 1.47925 -4.078 0
M  V30 2165 H 218.087 3.02038 -4.62036 0
M  V30 2166 H 220.563 3.16686 -2.69906 0
M  V30 2167 H 219.439 4.45196 -3.21079 0
M  V30 2168 H 219.7 4.15927 -1.49857 0
M  V30 2169 N 218.759 1.29093 0.90403 0
M  V30 2170 C 220.005 1.16986 1.65656 0
M  V30 2171 C 220.338 -0.278925 1.92186 0
M  V30 2172 O 219.613 -1.2019 1.5292 0
M  V30 2173 C 219.896 1.97908 3.0084 0
M  V30 2174 C 219.749 3.50903 2.81403 0
M  V30 2175 C 221.068 1.80208 4.01513 0
M  V30 2176 H 218.187 0.426346 0.601164 0
M  V30 2177 H 220.829 1.58518 1.04747 0
M  V30 2178 H 218.979 1.62616 3.52829 0
M  V30 2179 H 220.651 3.96153 2.36348 0
M  V30 2180 H 218.894 3.76045 2.1627 0
M  V30 2181 H 219.565 4.02791 3.77443 0
M  V30 2182 H 222.041 2.11025 3.58619 0
M  V30 2183 H 220.917 2.39184 4.94047 0
M  V30 2184 H 221.178 0.756119 4.35586 0
M  V30 2185 N 220.237 -1.11381 1.11499 0
M  V30 2186 C 221.187 -2.15555 0.74298 0
M  V30 2187 C 222.171 -1.58894 -0.253276 0
M  V30 2188 O 223.363 -1.76897 -0.0602918 0
M  V30 2189 C 220.492 -3.42782 0.188481 0
M  V30 2190 C 219.578 -4.064 1.21244 0
M  V30 2191 N 219.969 -4.44864 2.40685 0
M  V30 2192 C 218.267 -4.3333 1.05552 0
M  V30 2193 C 218.968 -4.94715 3.05994 0
M  V30 2194 N 217.944 -4.90909 2.33472 0
M  V30 2195 H 221.746 -2.43074 1.65203 0
M  V30 2196 H 219.26 -1.28401 0.994329 0
M  V30 2197 H 221.257 -4.16789 -0.0961693 0
M  V30 2198 H 219.917 -3.16727 -0.715149 0
M  V30 2199 H 220.928 -4.36876 2.78136 0
M  V30 2200 H 217.605 -4.1698 0.208372 0
M  V30 2201 H 218.995 -5.34103 4.07656 0
M  V30 2202 N 221.715 -0.905404 -1.28997 0
M  V30 2203 C 223.126 -0.581953 -1.77398 0
M  V30 2204 C 223.477 0.902552 -1.74208 0
M  V30 2205 O 222.602 1.70584 -1.33154 0
M  V30 2206 C 223.197 -1.04961 -3.22131 0
M  V30 2207 C 221.756 -0.777229 -3.68288 0
M  V30 2208 C 220.903 -1.22109 -2.48967 0
M  V30 2209 H 223.854 -1.08754 -1.15578 0
M  V30 2210 H 223.875 -0.387387 -3.78523 0
M  V30 2211 H 223.387 -2.13008 -3.24421 0
M  V30 2212 H 221.488 0.290383 -3.71467 0
M  V30 2213 H 221.601 -1.37911 -4.58822 0
M  V30 2214 H 219.965 -0.639971 -2.46529 0
M  V30 2215 H 220.748 -2.30972 -2.53982 0
M  V30 2216 N 223.193 1.4272 -0.668489 0
M  V30 2217 C 224.123 2.335 -0.000100175 0
M  V30 2218 C 225.104 1.50328 0.795964 0
M  V30 2219 O 226.289 1.78949 0.754385 0
M  V30 2220 C 223.419 3.33874 0.956302 0
M  V30 2221 C 222.373 4.27152 0.269278 0
M  V30 2222 C 221.699 5.17684 1.33818 0
M  V30 2223 C 222.999 5.15373 -0.847805 0
M  V30 2224 H 224.693 2.89639 -0.758244 0
M  V30 2225 H 222.239 1.39269 -0.366079 0
M  V30 2226 H 224.192 3.9629 1.43292 0
M  V30 2227 H 222.916 2.76025 1.74579 0
M  V30 2228 H 221.575 3.66123 -0.187042 0
M  V30 2229 H 221.223 4.56165 2.1195 0
M  V30 2230 H 220.923 5.80918 0.883659 0
M  V30 2231 H 222.447 5.82974 1.81586 0
M  V30 2232 H 223.861 5.7151 -0.452681 0
M  V30 2233 H 222.258 5.87407 -1.22773 0
M  V30 2234 H 223.328 4.5415 -1.69929 0
M  V30 2235 N 224.671 0.411399 1.52136 0
M  V30 2236 C 226.087 0.0623865 1.59478 0
M  V30 2237 C 226.287 -1.42554 1.4241 0
M  V30 2238 O 225.343 -2.19263 1.2522 0
M  V30 2239 C 226.656 0.559331 2.95452 0
M  V30 2240 C 228.204 0.517503 3.08692 0
M  V30 2241 C 228.679 0.990994 4.4715 0
M  V30 2242 N 230.17 0.947908 4.53397 0
M  V30 2243 C 230.905 1.28544 5.58806 0
M  V30 2244 N 230.401 1.69454 6.71757 0
M  V30 2245 N 232.194 1.20526 5.49026 0
M  V30 2246 H 224.345 1.37982 1.61477 0
M  V30 2247 H 226.608 0.566977 0.759764 0
M  V30 2248 H 226.314 1.59938 3.1323 0
M  V30 2249 H 226.188 -0.0298014 3.77188 0
M  V30 2250 H 228.575 -0.513505 2.90598 0
M  V30 2251 H 228.656 1.14272 2.28857 0
M  V30 2252 H 228.3 2.02034 4.65988 0
M  V30 2253 H 228.23 0.34257 5.25485 0
M  V30 2254 H 230.721 0.647157 3.72317 0
M  V30 2255 H 231.034 1.93513 7.48179 0
M  V30 2256 H 229.379 1.73359 6.73032 0
M  V30 2257 H 232.57 0.884505 4.59667 0
M  V30 2258 H 232.743 1.47161 6.31069 0
M  V30 2259 N 226.149 -1.5696 0.141893 0
M  V30 2260 C 227.112 -2.15316 -0.785587 0
M  V30 2261 C 228.112 -1.09366 -1.1788 0
M  V30 2262 O 229.302 -1.35031 -1.10056 0
M  V30 2263 C 226.434 -2.71211 -2.06537 0
M  V30 2264 H 227.627 -2.98608 -0.278041 0
M  V30 2265 H 225.18 -1.5593 -0.107519 0
M  V30 2266 H 225.915 -1.91571 -2.6167 0
M  V30 2267 H 225.7 -3.4872 -1.79268 0
M  V30 2268 H 227.19 -3.16189 -2.72789 0
M  V30 2269 N 227.627 0.131896 -1.57047 0
M  V30 2270 C 228.59 1.14638 -1.98471 0
M  V30 2271 C 229.59 1.35029 -0.873148 0
M  V30 2272 O 230.78 1.31764 -1.13946 0
M  V30 2273 C 227.912 2.50358 -2.31373 0
M  V30 2274 H 229.105 0.79064 -2.8929 0
M  V30 2275 H 226.658 0.375761 -1.51716 0
M  V30 2276 H 227.393 2.90876 -1.43393 0
M  V30 2277 H 227.178 2.36915 -3.12432 0
M  V30 2278 H 228.668 3.23395 -2.64207 0
M  V30 2279 N 229.106 1.52395 0.401703 0
M  V30 2280 C 230.334 1.70676 1.16949 0
M  V30 2281 C 230.749 0.419503 1.8408 0
M  V30 2282 O 230.106 -0.605061 1.72178 0
M  V30 2283 C 230.157 2.84753 2.22706 0
M  V30 2284 O 229.878 4.08495 1.58314 0
M  V30 2285 C 231.379 3.14608 3.12309 0
M  V30 2286 H 228.599 0.571787 0.351142 0
M  V30 2287 H 231.143 1.98987 0.471652 0
M  V30 2288 H 229.298 2.58941 2.88147 0
M  V30 2289 H 229.712 4.72117 2.28485 0
M  V30 2290 H 231.186 3.97923 3.82572 0
M  V30 2291 H 231.663 2.28464 3.75101 0
M  V30 2292 H 232.269 3.42212 2.52529 0
M  V30 2293 N 230.584 -0.659388 1.43143 0
M  V30 2294 C 231.814 -1.44513 1.47646 0
M  V30 2295 C 232.222 -1.88981 0.0910095 0
M  V30 2296 O 231.565 -1.59702 -0.907789 0
M  V30 2297 C 231.627 -2.71663 2.35456 0
M  V30 2298 C 231.291 -2.49175 3.83094 0
M  V30 2299 C 232.288 -2.1279 4.74359 0
M  V30 2300 C 229.973 -2.63691 4.27519 0
M  V30 2301 C 231.967 -1.9121 6.08044 0
M  V30 2302 C 229.654 -2.41726 5.61259 0
M  V30 2303 C 230.652 -2.0554 6.51339 0
M  V30 2304 O 230.34 -1.838 7.82606 0
M  V30 2305 H 230.072 -0.45064 0.503884 0
M  V30 2306 H 232.626 -0.816248 1.88485 0
M  V30 2307 H 230.856 -3.37089 1.89493 0
M  V30 2308 H 232.545 -3.33595 2.31235 0
M  V30 2309 H 233.311 -2.01157 4.41317 0
M  V30 2310 H 229.19 -2.90832 3.57684 0
M  V30 2311 H 232.734 -1.62889 6.78316 0
M  V30 2312 H 228.631 -2.52959 5.9387 0
M  V30 2313 H 229.399 -1.98275 7.94122 0
M  V30 2314 N 232.062 -1.29571 -0.897171 0
M  V30 2315 C 233.478 -1.07637 -1.17841 0
M  V30 2316 C 233.678 0.170713 -2.00776 0
M  V30 2317 O 232.734 0.867768 -2.3712 0
M  V30 2318 C 234.047 -2.3332 -1.8969 0
M  V30 2319 C 235.595 -2.38664 -2.02505 0
M  V30 2320 C 236.07 -3.64157 -2.77765 0
M  V30 2321 N 237.561 -3.64894 -2.85318 0
M  V30 2322 C 238.296 -4.58679 -3.44094 0
M  V30 2323 N 237.792 -5.62799 -4.04017 0
M  V30 2324 N 239.585 -4.46245 -3.41793 0
M  V30 2325 H 231.736 -2.09598 -0.343883 0
M  V30 2326 H 233.999 -0.923333 -0.214848 0
M  V30 2327 H 233.705 -3.24262 -1.36187 0
M  V30 2328 H 233.579 -2.41025 -2.9015 0
M  V30 2329 H 235.966 -1.48208 -2.55183 0
M  V30 2330 H 236.047 -2.34943 -1.01171 0
M  V30 2331 H 235.691 -4.54965 -2.25763 0
M  V30 2332 H 235.621 -3.65137 -3.7945 0
M  V30 2333 H 238.112 -2.89613 -2.42761 0
M  V30 2334 H 238.425 -6.3048 -4.46895 0
M  V30 2335 H 236.77 -5.66605 -4.02472 0
M  V30 2336 H 239.961 -3.64094 -2.94199 0
M  V30 2337 H 240.134 -5.19518 -3.87304 0
M  V30 2338 N 233.54 1.10788 -1.12088 0
M  V30 2339 C 234.956 1.34691 -0.856186 0
M  V30 2340 C 235.156 1.94791 0.515615 0
M  V30 2341 O 234.212 2.18524 1.26505 0
M  V30 2342 C 235.525 2.27208 -1.9697 0
M  V30 2343 C 237.073 2.40755 -2.00016 0
M  V30 2344 C 237.548 3.36598 -3.1059 0
M  V30 2345 N 239.039 3.44164 -3.10008 0
M  V30 2346 C 239.774 4.18284 -3.92206 0
M  V30 2347 N 239.27 4.95322 -4.84384 0
M  V30 2348 N 241.063 4.13865 -3.80357 0
M  V30 2349 H 233.214 0.70144 -2.00483 0
M  V30 2350 H 235.477 0.371405 -0.872217 0
M  V30 2351 H 235.183 1.90251 -2.958 0
M  V30 2352 H 235.057 3.27485 -1.87172 0
M  V30 2353 H 237.444 2.76982 -1.01808 0
M  V30 2354 H 237.525 1.40305 -2.13888 0
M  V30 2355 H 237.169 3.01096 -4.09028 0
M  V30 2356 H 237.099 4.36918 -2.93956 0
M  V30 2357 H 239.59 2.8922 -2.43228 0
M  V30 2358 H 239.903 5.49267 -5.43623 0
M  V30 2359 H 238.248 4.94459 -4.884 0
M  V30 2360 H 241.439 3.52773 -3.07683 0
M  V30 2361 H 241.612 4.71372 -4.44649 0
M  V30 2362 N 235.018 0.912232 1.28515 0
M  V30 2363 C 236.429 0.591352 1.77087 0
M  V30 2364 C 236.78 -0.8933 1.74684 0
M  V30 2365 O 235.905 -1.69876 1.34056 0
M  V30 2366 C 236.5 1.06668 3.2157 0
M  V30 2367 C 235.059 0.79675 3.67871 0
M  V30 2368 C 234.206 1.23427 2.48316 0
M  V30 2369 H 237.157 1.09365 1.15 0
M  V30 2370 H 237.178 0.407455 3.78312 0
M  V30 2371 H 236.69 2.14726 3.23287 0
M  V30 2372 H 234.791 -0.270679 3.71616 0
M  V30 2373 H 234.904 1.40343 4.58084 0
M  V30 2374 H 233.268 0.653036 2.46186 0
M  V30 2375 H 234.051 2.32316 2.52753 0
M  V30 2376 N 236.496 -1.42363 0.676048 0
M  V30 2377 C 237.721 -2.06377 0.205705 0
M  V30 2378 C 238.146 -1.50463 -1.12883 0
M  V30 2379 O 237.504 -0.623619 -1.70237 0
M  V30 2380 C 237.552 -3.60277 0.152655 0
M  V30 2381 O 236.656 -4.02935 -0.87845 0
M  V30 2382 H 235.997 -0.655588 0.105359 0
M  V30 2383 H 238.527 -1.82475 0.925412 0
M  V30 2384 H 238.537 -4.07993 -0.0230675 0
M  V30 2385 H 237.212 -4.00346 1.12675 0
M  V30 2386 H 235.789 -3.66764 -0.673668 0
M  V30 2387 N 237.974 -0.419461 -1.51915 0
M  V30 2388 C 239.22 0.153166 -2.02221 0
M  V30 2389 C 239.553 1.43907 -1.30401 0
M  V30 2390 O 238.828 1.90055 -0.413438 0
M  V30 2391 C 239.111 0.390291 -3.57979 0
M  V30 2392 C 238.964 -0.913014 -4.40436 0
M  V30 2393 C 240.283 1.16794 -4.2432 0
M  V30 2394 H 237.402 0.0541924 -0.735005 0
M  V30 2395 H 240.044 -0.554955 -1.81715 0
M  V30 2396 H 238.194 0.993491 -3.75582 0
M  V30 2397 H 239.866 -1.54882 -4.34522 0
M  V30 2398 H 238.109 -1.52168 -4.06236 0
M  V30 2399 H 238.78 -0.701361 -5.47526 0
M  V30 2400 H 241.256 0.657161 -4.10878 0
M  V30 2401 H 240.132 1.3026 -5.3322 0
M  V30 2402 H 240.393 2.19132 -3.83971 0
M  V30 2403 N 239.452 1.56882 -0.150215 0
M  V30 2404 C 240.415 2.1573 0.774157 0
M  V30 2405 C 241.415 1.0999 1.17298 0
M  V30 2406 O 242.605 1.35613 1.09338 0
M  V30 2407 C 239.737 2.72302 2.05096 0
M  V30 2408 H 240.93 2.98752 0.262201 0
M  V30 2409 H 238.483 1.55985 0.099248 0
M  V30 2410 H 239.218 1.92956 2.6065 0
M  V30 2411 H 239.003 3.49665 1.77416 0
M  V30 2412 H 240.493 3.17632 2.71109 0
M  V30 2413 N 240.93 -0.123565 1.57115 0
M  V30 2414 C 241.877 -1.15177 2.00007 0
M  V30 2415 C 242.847 -1.41403 0.871454 0
M  V30 2416 O 244.032 -1.53346 1.13533 0
M  V30 2417 C 241.172 -2.47436 2.40561 0
M  V30 2418 C 240.285 -2.28184 3.66819 0
M  V30 2419 C 239.42 -3.53641 3.96373 0
M  V30 2420 C 238.459 -3.29528 5.15827 0
M  V30 2421 N 237.596 -4.47175 5.41275 0
M  V30 2422 H 242.436 -0.779008 2.87638 0
M  V30 2423 H 239.973 -0.373166 1.42288 0
M  V30 2424 H 241.931 -3.24584 2.62109 0
M  V30 2425 H 240.561 -2.82614 1.55978 0
M  V30 2426 H 239.613 -1.41976 3.52912 0
M  V30 2427 H 240.925 -2.0634 4.5412 0
M  V30 2428 H 240.079 -4.39209 4.18545 0
M  V30 2429 H 238.818 -3.78512 3.07538 0
M  V30 2430 H 237.823 -2.42349 4.93505 0
M  V30 2431 H 239.048 -3.06031 6.06236 0
M  V30 2432 H 236.994 -4.72175 4.55397 0
M  V30 2433 H 236.911 -4.28419 6.22891 0
M  V30 2434 H 238.179 -5.3389 5.67963 0
M  V30 2435 N 242.408 -1.52605 -0.393616 0
M  V30 2436 C 243.338 -1.80022 -1.48709 0
M  V30 2437 C 244.319 -0.651995 -1.57108 0
M  V30 2438 O 245.504 -0.89913 -1.72132 0
M  V30 2439 C 242.634 -1.96492 -2.86371 0
M  V30 2440 C 241.588 -3.12161 -2.92813 0
M  V30 2441 C 240.914 -3.13877 -4.3288 0
M  V30 2442 C 242.214 -4.51322 -2.6288 0
M  V30 2443 H 243.908 -2.71589 -1.26015 0
M  V30 2444 H 241.454 -1.30684 -0.604778 0
M  V30 2445 H 243.407 -2.14255 -3.62867 0
M  V30 2446 H 242.131 -1.01611 -3.10391 0
M  V30 2447 H 240.79 -2.94173 -2.18764 0
M  V30 2448 H 240.438 -2.16687 -4.53933 0
M  V30 2449 H 240.138 -3.91576 -4.38112 0
M  V30 2450 H 241.662 -3.33789 -5.1129 0
M  V30 2451 H 243.076 -4.69435 -3.29096 0
M  V30 2452 H 241.473 -5.31053 -2.79468 0
M  V30 2453 H 242.543 -4.58353 -1.58242 0
M  V30 2454 N 243.887 0.651787 -1.4349 0
M  V30 2455 C 245.136 1.40754 -1.44469 0
M  V30 2456 C 245.449 1.95463 -0.0731845 0
M  V30 2457 O 246.655 2.71471 0.0395721 0
M  V30 2458 C 245.111 2.54735 -2.5424 0
M  V30 2459 C 244.719 2.06628 -3.97504 0
M  V30 2460 C 246.463 3.32092 -2.64414 0
M  V30 2461 C 244.37 3.17829 -4.98737 0
M  V30 2462 H 243.3 0.528862 -0.53742 0
M  V30 2463 H 245.951 0.703365 -1.69485 0
M  V30 2464 H 244.333 3.2763 -2.22428 0
M  V30 2465 H 245.507 1.40734 -4.38783 0
M  V30 2466 H 243.822 1.42146 -3.91387 0
M  V30 2467 H 246.419 4.14952 -3.37223 0
M  V30 2468 H 246.762 3.80217 -1.69532 0
M  V30 2469 H 247.295 2.66279 -2.95534 0
M  V30 2470 H 244.034 2.74671 -5.95177 0
M  V30 2471 H 243.554 3.82429 -4.62069 0
M  V30 2472 H 245.233 3.82937 -5.21505 0
M  V30 2473 N 245.365 1.30045 0.890287 0
M  V30 2474 C 246.313 1.15873 2.01683 0
M  V30 2475 C 247.307 0.0719403 1.69247 0
M  V30 2476 O 248.513 0.232414 1.78493 0
M  V30 2477 H 244.888 0.358203 0.661207 0
M  V30 2478 H 246.859 2.11229 2.10772 0
M  V30 2479 C 245.608 0.861842 3.36849 0
M  V30 2480 H 244.931 1.69016 3.62317 0
M  V30 2481 H 246.371 0.802762 4.16331 0
M  V30 2482 C 244.83 -0.435132 3.34078 0
M  V30 2483 O 245.36 -1.4583 3.74295 0
M  V30 2484 N 243.566 -0.444377 2.87182 0
M  V30 2485 H 243.113 0.388723 2.5465 0
M  V30 2486 H 243.071 -1.31213 2.85711 0
M  V30 2487 N 246.843 -1.10192 1.12674 0
M  V30 2488 C 247.773 -2.18652 0.819362 0
M  V30 2489 C 248.754 -1.68698 -0.217915 0
M  V30 2490 O 249.939 -1.94041 -0.0785581 0
M  V30 2491 C 247.069 -3.46202 0.27594 0
M  V30 2492 C 246.023 -4.09444 1.24656 0
M  V30 2493 C 245.349 -5.31725 0.563258 0
M  V30 2494 C 246.649 -4.52863 2.60217 0
M  V30 2495 H 248.343 -2.44622 1.72628 0
M  V30 2496 H 245.889 -1.17571 0.831451 0
M  V30 2497 H 247.842 -4.21372 0.0486149 0
M  V30 2498 H 246.566 -3.1973 -0.666331 0
M  V30 2499 H 245.225 -3.36284 1.45974 0
M  V30 2500 H 244.873 -5.0153 -0.384235 0
M  V30 2501 H 244.573 -5.74991 1.21075 0
M  V30 2502 H 246.097 -6.09624 0.34503 0
M  V30 2503 H 247.511 -5.19294 2.42913 0
M  V30 2504 H 245.908 -5.06986 3.21068 0
M  V30 2505 H 246.978 -3.65656 3.18471 0
M  V30 2506 N 248.321 -0.919034 -1.28029 0
M  V30 2507 C 249.569 -0.553838 -1.94363 0
M  V30 2508 C 249.89 0.906357 -1.72656 0
M  V30 2509 O 249.16 1.64143 -1.0693 0
M  V30 2510 H 247.74 -0.201834 -0.719216 0
M  V30 2511 H 250.402 -1.16954 -1.55909 0
M  V30 2512 H 249.498 -0.752758 -3.02886 0
M  V30 2513 N 249.799 1.42003 -0.683588 0
M  V30 2514 C 251.045 2.01712 -0.209825 0
M  V30 2515 C 251.378 1.53968 1.18353 0
M  V30 2516 O 250.653 0.745661 1.79639 0
M  V30 2517 C 250.936 3.59202 -0.254197 0
M  V30 2518 C 250.789 4.17102 -1.68363 0
M  V30 2519 C 252.108 4.38344 0.392709 0
M  V30 2520 H 249.227 0.732891 -0.0777189 0
M  V30 2521 H 251.869 1.68909 -0.87004 0
M  V30 2522 H 250.019 3.87278 0.307954 0
M  V30 2523 H 251.691 3.99946 -2.29871 0
M  V30 2524 H 249.934 3.72597 -2.22157 0
M  V30 2525 H 250.605 5.26249 -1.6663 0
M  V30 2526 H 253.081 4.16011 -0.0859162 0
M  V30 2527 H 251.957 5.47901 0.331063 0
M  V30 2528 H 252.218 4.16887 1.47164 0
M  V30 2529 N 251.277 0.427512 1.51691 0
M  V30 2530 C 252.523 -0.134744 2.02953 0
M  V30 2531 C 252.878 -1.41235 1.30654 0
M  V30 2532 O 252.171 -1.87168 0.409713 0
M  V30 2533 C 252.365 -0.418249 3.54944 0
M  V30 2534 C 252.194 0.830327 4.41968 0
M  V30 2535 C 250.964 1.36097 4.86627 0
M  V30 2536 C 253.162 1.7137 4.84909 0
M  V30 2537 N 251.144 2.56311 5.57833 0
M  V30 2538 C 252.515 2.76195 5.55082 0
M  V30 2539 C 254.57 1.72928 4.66905 0
M  V30 2540 C 253.273 3.82512 6.09161 0
M  V30 2541 C 255.299 2.78175 5.21894 0
M  V30 2542 C 254.661 3.8172 5.92004 0
M  V30 2543 H 250.76 -0.0103958 0.781931 0
M  V30 2544 H 253.344 0.585981 1.85673 0
M  V30 2545 H 251.515 -1.10801 3.7226 0
M  V30 2546 H 253.247 -0.970999 3.92879 0
M  V30 2547 H 250.002 0.916311 4.64651 0
M  V30 2548 H 250.426 3.17242 5.98069 0
M  V30 2549 H 255.068 0.942081 4.12171 0
M  V30 2550 H 252.786 4.62077 6.62956 0
M  V30 2551 H 256.372 2.8031 5.09821 0
M  V30 2552 H 255.252 4.61821 6.33791 0
M  V30 2553 N 252.755 -1.56801 0.158532 0
M  V30 2554 C 253.685 -2.20347 -0.772609 0
M  V30 2555 C 254.666 -1.15518 -1.24859 0
M  V30 2556 O 255.851 -1.43902 -1.30406 0
M  V30 2557 C 252.981 -2.83417 -2.00729 0
M  V30 2558 C 251.935 -3.94174 -1.66765 0
M  V30 2559 C 251.261 -4.44233 -2.97592 0
M  V30 2560 C 252.561 -5.14392 -0.905447 0
M  V30 2561 H 254.255 -2.98413 -0.242959 0
M  V30 2562 H 251.801 -1.43537 -0.115419 0
M  V30 2563 H 253.754 -3.26543 -2.6636 0
M  V30 2564 H 252.478 -2.02701 -2.56086 0
M  V30 2565 H 251.137 -3.51684 -1.03508 0
M  V30 2566 H 250.785 -3.60325 -3.50963 0
M  V30 2567 H 250.485 -5.18945 -2.75626 0
M  V30 2568 H 252.009 -4.90037 -3.64274 0
M  V30 2569 H 253.423 -5.5429 -1.46408 0
M  V30 2570 H 251.82 -5.9494 -0.7853 0
M  V30 2571 H 252.89 -4.84795 0.100668 0
M  V30 2572 N 254.233 0.115231 -1.57178 0
M  V30 2573 C 255.196 1.12526 -1.99676 0
M  V30 2574 C 256.196 1.34095 -0.88742 0
M  V30 2575 O 257.386 1.30548 -1.15337 0
M  V30 2576 C 254.518 2.4789 -2.34015 0
M  V30 2577 H 255.711 0.759912 -2.90113 0
M  V30 2578 H 253.264 0.359648 -1.52106 0
M  V30 2579 H 253.999 2.89339 -1.4647 0
M  V30 2580 H 253.784 2.33588 -3.14927 0
M  V30 2581 H 255.274 3.20575 -2.67622 0
M  V30 2582 N 255.711 1.52812 0.385517 0
M  V30 2583 C 256.936 1.72207 1.15583 0
M  V30 2584 C 257.361 0.441034 1.82857 0
M  V30 2585 O 256.719 -0.603465 1.70962 0
M  V30 2586 C 256.767 2.87476 2.17692 0
M  V30 2587 O 255.871 2.54693 3.24354 0
M  V30 2588 H 255.212 0.572526 0.336319 0
M  V30 2589 H 257.742 1.99618 0.448744 0
M  V30 2590 H 257.752 3.13072 2.6163 0
M  V30 2591 H 256.427 3.80408 1.68115 0
M  V30 2592 H 255.004 2.3985 2.85529 0
M  V30 2593 N 257.189 -0.644168 1.43834 0
M  V30 2594 C 258.119 -1.76814 1.52509 0
M  V30 2595 C 259.1 -1.65823 0.379052 0
M  V30 2596 O 260.285 -1.84781 0.597466 0
M  V30 2597 C 257.415 -3.15288 1.4564 0
M  V30 2598 C 256.369 -3.41053 2.58586 0
M  V30 2599 C 255.695 -4.79421 2.36769 0
M  V30 2600 C 256.995 -3.34902 4.00797 0
M  V30 2601 H 258.689 -1.69812 2.46586 0
M  V30 2602 H 256.235 -0.815542 1.1868 0
M  V30 2603 H 258.188 -3.93681 1.50311 0
M  V30 2604 H 256.912 -3.23043 0.480725 0
M  V30 2605 H 255.571 -2.65035 2.53282 0
M  V30 2606 H 255.219 -4.83863 1.37424 0
M  V30 2607 H 254.919 -4.9762 3.12487 0
M  V30 2608 H 256.443 -5.6006 2.43238 0
M  V30 2609 H 257.857 -4.03218 4.07539 0
M  V30 2610 H 256.254 -3.64637 4.76613 0
M  V30 2611 H 257.324 -2.32928 4.25291 0
M  V30 2612 N 258.668 -1.30515 -0.883378 0
M  V30 2613 C 259.598 -1.19607 -2.00541 0
M  V30 2614 C 260.579 -0.086346 -1.69881 0
M  V30 2615 O 261.764 -0.268654 -1.92333 0
M  V30 2616 C 258.894 -0.888758 -3.35736 0
M  V30 2617 C 257.848 -1.95659 -3.8066 0
M  V30 2618 C 257.174 -1.50224 -5.13164 0
M  V30 2619 C 258.474 -3.36788 -3.99213 0
M  V30 2620 H 260.168 -2.13476 -2.09925 0
M  V30 2621 H 257.714 -1.02775 -1.00863 0
M  V30 2622 H 259.667 -0.799094 -4.13754 0
M  V30 2623 H 258.391 0.0856125 -3.26488 0
M  V30 2624 H 257.05 -2.03591 -3.04871 0
M  V30 2625 H 256.698 -0.516092 -5.00345 0
M  V30 2626 H 256.398 -2.2165 -5.44192 0
M  V30 2627 H 257.922 -1.42639 -5.93706 0
M  V30 2628 H 259.336 -3.31605 -4.67665 0
M  V30 2629 H 257.733 -4.06314 -4.41621 0
M  V30 2630 H 258.803 -3.78561 -3.03017 0
M  V30 2631 N 260.146 1.09593 -1.13257 0
M  V30 2632 C 261.392 1.82003 -0.89458 0
M  V30 2633 C 261.725 1.85402 0.577906 0
M  V30 2634 O 261 1.32099 1.42759 0
M  V30 2635 C 261.283 3.28237 -1.48096 0
M  V30 2636 C 261.136 3.3312 -3.02244 0
M  V30 2637 C 262.455 4.24871 -1.14774 0
M  V30 2638 H 259.574 0.66077 -0.326424 0
M  V30 2639 H 262.216 1.28389 -1.40058 0
M  V30 2640 H 260.366 3.74024 -1.05062 0
M  V30 2641 H 262.038 2.95748 -3.54021 0
M  V30 2642 H 260.281 2.72756 -3.37323 0
M  V30 2643 H 260.952 4.3613 -3.38371 0
M  V30 2644 H 263.428 3.87361 -1.51957 0
M  V30 2645 H 262.304 5.25532 -1.58452 0
M  V30 2646 H 262.565 4.42058 -0.0611849 0
M  V30 2647 N 261.624 0.925811 1.2754 0
M  V30 2648 C 262.852 0.581509 1.9856 0
M  V30 2649 C 263.267 -0.840041 1.69082 0
M  V30 2650 O 262.624 -1.55805 0.950312 0
M  V30 2651 C 262.675 0.795589 3.52637 0
M  V30 2652 O 262.396 2.16121 3.81082 0
M  V30 2653 C 263.897 0.459744 4.4091 0
M  V30 2654 H 261.117 0.220538 0.633722 0
M  V30 2655 H 263.661 1.24232 1.6244 0
M  V30 2656 H 261.816 0.18161 3.86974 0
M  V30 2657 H 262.23 2.2098 4.75676 0
M  V30 2658 H 263.704 0.660244 5.48037 0
M  V30 2659 H 264.181 -0.604625 4.35018 0
M  V30 2660 H 264.787 1.05178 4.12089 0
M  V30 2661 N 263.102 -1.41638 0.69111 0
M  V30 2662 C 264.032 -2.3347 0.037248 0
M  V30 2663 C 265.013 -1.51575 -0.771947 0
M  V30 2664 O 266.198 -1.80126 -0.72582 0
M  V30 2665 C 263.328 -3.35354 -0.903064 0
M  V30 2666 C 262.282 -4.27526 -0.201288 0
M  V30 2667 C 261.608 -5.19747 -1.25565 0
M  V30 2668 C 262.908 -5.13959 0.929689 0
M  V30 2669 H 264.602 -2.88397 0.804227 0
M  V30 2670 H 262.148 -1.38669 0.388189 0
M  V30 2671 H 264.101 -3.98519 -1.36969 0
M  V30 2672 H 262.825 -2.78767 -1.70166 0
M  V30 2673 H 261.484 -3.65779 0.245265 0
M  V30 2674 H 261.132 -4.59479 -2.04666 0
M  V30 2675 H 260.832 -5.8225 -0.791128 0
M  V30 2676 H 262.356 -5.85789 -1.72288 0
M  V30 2677 H 263.77 -5.70718 0.543546 0
M  V30 2678 H 262.167 -5.85379 1.32103 0
M  V30 2679 H 263.237 -4.51389 1.77133 0
M  V30 2680 N 264.58 -0.43555 -1.51462 0
M  V30 2681 C 265.991 0.0279871 -1.86679 0
M  V30 2682 C 266.342 1.42104 -1.35281 0
M  V30 2683 O 265.467 2.04667 -0.702878 0
M  V30 2684 C 266.062 0.0575626 -3.38751 0
M  V30 2685 C 264.621 0.465507 -3.7351 0
M  V30 2686 C 263.768 -0.342996 -2.75171 0
M  V30 2687 H 266.719 -0.651473 -1.44712 0
M  V30 2688 H 266.74 0.867421 -3.70481 0
M  V30 2689 H 266.252 -0.956448 -3.7613 0
M  V30 2690 H 264.353 1.48519 -3.41721 0
M  V30 2691 H 264.466 0.191546 -4.78717 0
M  V30 2692 H 262.83 0.198442 -2.53926 0
M  V30 2693 H 263.613 -1.35585 -3.15391 0
M  V30 2694 N 266.058 1.56714 -0.166846 0
M  V30 2695 C 267.307 1.95922 0.479318 0
M  V30 2696 C 267.62 1.05529 1.6469 0
M  V30 2697 O 268.826 1.34399 2.35901 0
M  V30 2698 C 267.282 3.48359 0.90412 0
M  V30 2699 C 266.89 4.47369 -0.237621 0
M  V30 2700 C 268.634 3.96394 1.51896 0
M  V30 2701 C 266.541 5.91039 0.206561 0
M  V30 2702 H 265.471 0.731495 0.18284 0
M  V30 2703 H 268.122 1.81728 -0.254363 0
M  V30 2704 H 266.504 3.57955 1.69365 0
M  V30 2705 H 267.678 4.49485 -1.01489 0
M  V30 2706 H 265.993 4.09366 -0.762128 0
M  V30 2707 H 268.59 5.01186 1.86325 0
M  V30 2708 H 268.933 3.39075 2.41524 0
M  V30 2709 H 269.466 3.89796 0.79395 0
M  V30 2710 H 266.205 6.52221 -0.654834 0
M  V30 2711 H 265.725 5.9224 0.949282 0
M  V30 2712 H 267.404 6.43707 0.651939 0
M  V30 2713 N 267.536 -0.106894 1.57237 0
M  V30 2714 C 268.499 -1.11466 2.0027 0
M  V30 2715 C 269.499 -1.33623 0.894519 0
M  V30 2716 O 270.689 -1.29935 1.16028 0
M  V30 2717 C 267.821 -2.46646 2.35327 0
M  V30 2718 H 269.014 -0.744516 2.90512 0
M  V30 2719 H 266.567 -0.351576 1.52295 0
M  V30 2720 H 267.302 -2.88558 1.48003 0
M  V30 2721 H 267.087 -2.31915 3.16161 0
M  V30 2722 H 268.577 -3.19151 2.69318 0
M  V30 2723 N 269.014 -1.53014 -0.377408 0
M  V30 2724 C 270.263 -1.67845 -1.11853 0
M  V30 2725 C 270.576 -0.430625 -1.90801 0
M  V30 2726 O 271.782 -0.459261 -2.67587 0
M  V30 2727 C 270.238 -2.96668 -2.03756 0
M  V30 2728 C 269.846 -4.28671 -1.30175 0
M  V30 2729 C 271.59 -3.20865 -2.77932 0
M  V30 2730 C 269.497 -5.48591 -2.20911 0
M  V30 2731 H 268.427 -0.625343 -0.421263 0
M  V30 2732 H 271.078 -1.79514 -0.380409 0
M  V30 2733 H 269.46 -2.78773 -2.8125 0
M  V30 2734 H 270.634 -4.57157 -0.578259 0
M  V30 2735 H 268.949 -4.10825 -0.679108 0
M  V30 2736 H 271.546 -4.07642 -3.46024 0
M  V30 2737 H 271.889 -2.36424 -3.4265 0
M  V30 2738 H 272.422 -3.39379 -2.07525 0
M  V30 2739 H 269.161 -6.35474 -1.6079 0
M  V30 2740 H 268.681 -5.244 -2.91144 0
M  V30 2741 H 270.36 -5.8292 -2.80736 0
M  V30 2742 N 270.492 0.636531 -1.44174 0
M  V30 2743 C 271.739 1.39619 -1.46672 0
M  V30 2744 C 272.067 1.94257 -0.0972691 0
M  V30 2745 O 271.322 1.73768 0.900175 0
M  V30 2746 C 271.621 2.58309 -2.47005 0
M  V30 2747 C 271.287 2.21992 -3.92467 0
M  V30 2748 C 269.949 2.118 -4.32081 0
M  V30 2749 C 272.301 1.9321 -4.84065 0
M  V30 2750 C 269.629 1.71007 -5.61225 0
M  V30 2751 C 271.981 1.53911 -6.13591 0
M  V30 2752 C 270.645 1.42257 -6.52165 0
M  V30 2753 H 269.915 0.510902 -0.536712 0
M  V30 2754 H 272.562 0.722328 -1.77355 0
M  V30 2755 H 270.867 3.30903 -2.09786 0
M  V30 2756 H 272.564 3.16533 -2.46186 0
M  V30 2757 H 269.154 2.30841 -3.61124 0
M  V30 2758 H 273.338 1.99997 -4.54219 0
M  V30 2759 H 268.594 1.60583 -5.89935 0
M  V30 2760 H 272.768 1.30677 -6.8403 0
M  V30 2761 H 270.395 1.10419 -7.52138 0
M  V30 2762 N 271.97 1.30982 0.876444 0
M  V30 2763 C 272.933 1.18054 1.96459 0
M  V30 2764 C 273.933 0.109399 1.60427 0
M  V30 2765 O 275.123 0.358173 1.70478 0
M  V30 2766 C 272.255 0.810616 3.31122 0
M  V30 2767 H 273.448 2.14735 2.09354 0
M  V30 2768 H 271.001 1.145 1.06392 0
M  V30 2769 H 271.736 -0.155322 3.23928 0
M  V30 2770 H 271.521 1.58481 3.58645 0
M  V30 2771 H 273.011 0.743876 4.10921 0
M  V30 2772 N 273.449 -1.08991 1.13837 0
M  V30 2773 C 274.726 -1.77863 0.813876 0
M  V30 2774 C 275.106 -1.99375 -0.693746 0
M  V30 2775 O 274.454 -1.59875 -1.63255 0
M  V30 2776 C 274.664 -3.0986 1.60586 0
M  V30 2777 C 276.012 -3.84493 1.8014 0
M  V30 2778 O 277.036 -3.19624 1.57222 0
M  V30 2779 O 275.895 -5.00957 2.18413 0
M  V30 2780 H 272.989 -0.771589 0.297624 0
M  V30 2781 H 275.535 -1.15507 1.24323 0
M  V30 2782 H 274.307 -2.89715 2.63022 0
M  V30 2783 H 273.93 -3.79942 1.17173 0
M  V30 2784 N 274.927 -0.932562 -1.27047 0
M  V30 2785 C 276.155 -0.592031 -1.98249 0
M  V30 2786 C 276.57 0.831062 -1.69525 0
M  V30 2787 O 275.927 1.55299 -0.958561 0
M  V30 2788 C 275.978 -0.814279 -3.5221 0
M  V30 2789 O 275.699 -2.18139 -3.7993 0
M  V30 2790 C 277.2 -0.483121 -4.4066 0
M  V30 2791 H 274.42 -0.223896 -0.632544 0
M  V30 2792 H 276.964 -1.25091 -1.61779 0
M  V30 2793 H 275.119 -0.20213 -3.86872 0
M  V30 2794 H 275.533 -2.235 -4.74498 0
M  V30 2795 H 277.007 -0.689298 -5.47679 0
M  V30 2796 H 277.484 0.581546 -4.35333 0
M  V30 2797 H 278.09 -1.07362 -4.11526 0
M  V30 2798 N 276.405 1.4127 -0.698611 0
M  V30 2799 C 277.821 1.55241 -0.370462 0
M  V30 2800 C 278.021 1.67351 1.12231 0
M  V30 2801 O 277.077 1.65363 1.90818 0
M  V30 2802 C 278.39 2.78997 -1.12165 0
M  V30 2803 C 279.938 2.92797 -1.1063 0
M  V30 2804 C 280.413 4.19445 -1.8393 0
M  V30 2805 N 281.904 4.26409 -1.80914 0
M  V30 2806 C 282.639 5.23271 -2.34467 0
M  V30 2807 N 282.135 6.26145 -2.96504 0
M  V30 2808 N 283.928 5.15232 -2.24706 0
M  V30 2809 H 276.079 1.31654 -1.66676 0
M  V30 2810 H 278.342 0.635393 -0.703548 0
M  V30 2811 H 278.048 2.76268 -2.17644 0
M  V30 2812 H 277.922 3.70606 -0.702209 0
M  V30 2813 H 280.309 2.95039 -0.0597713 0
M  V30 2814 H 280.39 2.02353 -1.56483 0
M  V30 2815 H 280.034 4.17964 -2.88563 0
M  V30 2816 H 279.964 5.08866 -1.35509 0
M  V30 2817 H 282.455 3.527 -1.35687 0
M  V30 2818 H 282.768 6.96451 -3.34927 0
M  V30 2819 H 281.113 6.26638 -3.00583 0
M  V30 2820 H 284.304 4.33789 -1.7591 0
M  V30 2821 H 284.477 5.90552 -2.66745 0
M  V30 2822 N 277.883 0.443576 1.51229 0
M  V30 2823 C 279.294 -0.0180867 1.86691 0
M  V30 2824 C 279.645 -1.41384 1.36033 0
M  V30 2825 O 278.77 -2.04291 0.713722 0
M  V30 2826 C 279.365 -0.039597 3.38777 0
M  V30 2827 C 277.924 -0.445692 3.73752 0
M  V30 2828 C 277.071 0.357584 2.74985 0
M  V30 2829 H 280.022 0.659138 1.44364 0
M  V30 2830 H 280.043 -0.847761 3.70936 0
M  V30 2831 H 279.555 0.976382 3.75617 0
M  V30 2832 H 277.656 -1.46704 3.42503 0
M  V30 2833 H 277.769 -0.166155 4.78812 0
M  V30 2834 H 276.133 -0.184973 2.54027 0
M  V30 2835 H 276.916 1.37256 3.14668 0
M  V30 2836 N 279.361 -1.56624 0.175154 0
M  V30 2837 C 280.324 -2.16934 -0.739738 0
M  V30 2838 C 281.324 -1.11842 -1.15533 0
M  V30 2839 O 282.514 -1.37335 -1.07167 0
M  V30 2840 C 279.646 -2.75531 -2.00738 0
M  V30 2841 H 280.839 -2.99131 -0.214639 0
M  V30 2842 H 278.392 -1.56123 -0.0744197 0
M  V30 2843 H 279.127 -1.97078 -2.57548 0
M  V30 2844 H 278.912 -3.52444 -1.71831 0
M  V30 2845 H 280.402 -3.21904 -2.66021 0
M  V30 2846 N 280.839 0.0985539 -1.57292 0
M  V30 2847 C 282.255 0.45267 -1.53046 0
M  V30 2848 C 282.455 1.80713 -0.891342 0
M  V30 2849 O 281.511 2.4785 -0.482375 0
M  V30 2850 C 282.824 0.418341 -2.97776 0
M  V30 2851 C 284.372 0.500443 -3.08973 0
M  V30 2852 C 284.847 0.496297 -4.55303 0
M  V30 2853 N 286.338 0.557151 -4.59837 0
M  V30 2854 C 287.073 0.575726 -5.70502 0
M  V30 2855 N 286.569 0.550714 -6.90608 0
M  V30 2856 N 288.362 0.620277 -5.58667 0
M  V30 2857 H 280.513 -0.788673 -1.97215 0
M  V30 2858 H 282.776 -0.293188 -0.901524 0
M  V30 2859 H 282.482 -0.509659 -3.47988 0
M  V30 2860 H 282.356 1.2386 -3.56284 0
M  V30 2861 H 284.743 1.41886 -2.58751 0
M  V30 2862 H 284.824 -0.347894 -2.53423 0
M  V30 2863 H 284.468 -0.418162 -5.06176 0
M  V30 2864 H 284.398 1.3618 -5.08687 0
M  V30 2865 H 286.889 0.581816 -3.73394 0
M  V30 2866 H 287.202 0.568075 -7.70709 0
M  V30 2867 H 285.547 0.517816 -6.93068 0
M  V30 2868 H 288.738 0.637322 -4.63741 0
M  V30 2869 H 288.911 0.631283 -6.44918 0
M  V30 2870 N 282.317 1.53212 0.369288 0
M  V30 2871 C 283.565 1.68881 1.11012 0
M  V30 2872 C 283.886 0.441285 1.89941 0
M  V30 2873 O 283.156 -0.544623 1.88177 0
M  V30 2874 H 281.736 0.622569 0.412816 0
M  V30 2875 H 284.398 1.90391 0.416802 0
M  V30 2876 H 283.494 2.54822 1.80201 0
M  V30 2877 N 283.795 -0.628877 1.44509 0
M  V30 2878 C 285.043 -1.38565 1.4712 0
M  V30 2879 C 285.364 -1.94712 0.105899 0
M  V30 2880 O 284.634 -1.75912 -0.862079 0
M  V30 2881 H 283.214 -0.514333 0.541729 0
M  V30 2882 H 285.876 -0.740018 1.80305 0
M  V30 2883 H 284.972 -2.21583 2.19789 0
M  V30 2884 N 285.273 -1.31445 -0.869486 0
M  V30 2885 C 286.205 -1.14955 -1.98287 0
M  V30 2886 C 287.218 -0.0885037 -1.62559 0
M  V30 2887 O 288.407 -0.336044 -1.75308 0
M  V30 2888 C 285.507 -0.734255 -3.3085 0
M  V30 2889 C 284.68 -1.88042 -3.94917 0
M  V30 2890 C 283.739 -1.4511 -5.05796 0
M  V30 2891 O 282.765 -2.16082 -5.2659 0
M  V30 2892 N 283.967 -0.338763 -5.79511 0
M  V30 2893 H 286.732 -2.10856 -2.12979 0
M  V30 2894 H 284.293 -1.23786 -1.04349 0
M  V30 2895 H 286.285 -0.42975 -4.02412 0
M  V30 2896 H 284.855 0.133158 -3.12316 0
M  V30 2897 H 284.075 -2.35222 -3.1633 0
M  V30 2898 H 285.363 -2.6481 -4.34457 0
M  V30 2899 H 284.761 0.252274 -5.65137 0
M  V30 2900 H 283.318 -0.0937925 -6.51733 0
M  V30 2901 N 286.751 1.08385 -1.14413 0
M  V30 2902 C 287.714 2.13486 -0.834048 0
M  V30 2903 C 288.714 1.59988 0.161418 0
M  V30 2904 O 289.904 1.74071 -0.0669575 0
M  V30 2905 C 287.036 3.4003 -0.243354 0
M  V30 2906 H 288.229 2.42425 -1.7655 0
M  V30 2907 H 285.782 1.24101 -0.950189 0
M  V30 2908 H 286.517 3.16726 0.696807 0
M  V30 2909 H 286.302 3.80157 -0.960367 0
M  V30 2910 H 287.792 4.17577 -0.0436242 0
M  V30 2911 N 288.23 0.939286 1.26551 0
M  V30 2912 C 289.476 0.586715 1.94128 0
M  V30 2913 C 289.809 -0.8717 1.73537 0
M  V30 2914 O 289.084 -1.62339 1.07127 0
M  V30 2915 C 289.367 0.927497 3.4795 0
M  V30 2916 C 289.22 2.44052 3.77834 0
M  V30 2917 C 290.539 0.441569 4.37879 0
M  V30 2918 H 287.658 0.21463 0.705055 0
M  V30 2919 H 290.3 1.17316 1.49455 0
M  V30 2920 H 288.45 0.428431 3.8613 0
M  V30 2921 H 290.122 3.01216 3.4938 0
M  V30 2922 H 288.365 2.8848 3.23978 0
M  V30 2923 H 289.036 2.62947 4.85348 0
M  V30 2924 H 291.512 0.869448 4.06915 0
M  V30 2925 H 290.388 0.708856 5.44304 0
M  V30 2926 H 290.649 -0.658467 4.37169 0
M  V30 2927 N 289.708 -1.40897 0.706093 0
M  V30 2928 C 290.671 -2.29131 0.0562841 0
M  V30 2929 C 291.671 -1.44901 -0.697166 0
M  V30 2930 O 292.861 -1.65926 -0.530484 0
M  V30 2931 C 289.993 -3.27957 -0.93043 0
M  V30 2932 H 291.186 -2.88091 0.833284 0
M  V30 2933 H 288.739 -1.4906 0.470192 0
M  V30 2934 H 289.474 -2.73997 -1.73482 0
M  V30 2935 H 289.259 -3.90124 -0.393166 0
M  V30 2936 H 290.749 -3.94049 -1.38256 0
M  V30 2937 N 291.186 -0.45159 -1.50991 0
M  V30 2938 C 292.426 0.109066 -2.04109 0
M  V30 2939 C 292.79 1.38716 -1.32747 0
M  V30 2940 O 293.991 2.02896 -1.76314 0
M  V30 2941 C 292.262 0.308354 -3.56067 0
M  V30 2942 S 293.821 0.830369 -4.30872 0
M  V30 2943 H 290.639 0.0251531 -0.710555 0
M  V30 2944 H 293.241 -0.614264 -1.85599 0
M  V30 2945 H 291.945 -0.627962 -4.05567 0
M  V30 2946 H 291.476 1.05836 -3.78896 0
M  V30 2947 H 293.491 2.10626 -4.49279 0
M  V30 2948 N 292.664 1.56529 -0.183458 0
M  V30 2949 C 293.612 2.19873 0.758845 0
M  V30 2950 C 294.606 1.16638 1.22849 0
M  V30 2951 O 295.812 1.3481 1.19274 0
M  V30 2952 H 292.187 0.7045 0.263029 0
M  V30 2953 H 294.158 2.97724 0.200755 0
M  V30 2954 C 292.907 2.86314 1.9728 0
M  V30 2955 H 292.23 3.65487 1.62047 0
M  V30 2956 H 293.67 3.3409 2.61075 0
M  V30 2957 C 292.129 1.86729 2.80418 0
M  V30 2958 O 292.659 1.36031 3.77966 0
M  V30 2959 N 290.865 1.55216 2.45675 0
M  V30 2960 H 290.412 1.96636 1.66409 0
M  V30 2961 H 290.37 0.888388 3.01588 0
M  V30 2962 N 294.142 -0.090211 1.57342 0
M  V30 2963 C 295.072 -1.10976 2.05443 0
M  V30 2964 C 296.053 -1.41482 0.944284 0
M  V30 2965 O 297.238 -1.51428 1.21586 0
M  V30 2966 C 294.368 -2.42831 2.48295 0
M  V30 2967 C 293.322 -2.26721 3.63018 0
M  V30 2968 C 292.648 -3.63796 3.91863 0
M  V30 2969 C 293.948 -1.7037 4.93732 0
M  V30 2970 H 295.642 -0.709564 2.9087 0
M  V30 2971 H 293.188 -0.339874 1.39932 0
M  V30 2972 H 295.141 -3.14431 2.80555 0
M  V30 2973 H 293.865 -2.84795 1.59873 0
M  V30 2974 H 292.524 -1.57565 3.31012 0
M  V30 2975 H 292.172 -4.03297 3.00601 0
M  V30 2976 H 291.872 -3.53861 4.69101 0
M  V30 2977 H 293.396 -4.36855 4.26603 0
M  V30 2978 H 294.81 -2.31816 5.24342 0
M  V30 2979 H 293.207 -1.71181 5.75167 0
M  V30 2980 H 294.277 -0.663542 4.80339 0
M  V30 2981 N 295.62 -1.53406 -0.361157 0
M  V30 2982 C 296.552 -1.76446 -1.46286 0
M  V30 2983 C 297.565 -0.645322 -1.49464 0
M  V30 2984 O 298.754 -0.921681 -1.52864 0
M  V30 2985 C 295.854 -1.83332 -2.85031 0
M  V30 2986 C 295.027 -3.13033 -3.05498 0
M  V30 2987 C 294.086 -3.11104 -4.24383 0
M  V30 2988 O 293.112 -3.84888 -4.19344 0
M  V30 2989 N 294.314 -2.32234 -5.32022 0
M  V30 2990 H 297.079 -2.71508 -1.26899 0
M  V30 2991 H 294.64 -1.52238 -0.550915 0
M  V30 2992 H 296.632 -1.79514 -3.62708 0
M  V30 2993 H 295.202 -0.955342 -2.97644 0
M  V30 2994 H 294.422 -3.30119 -2.15442 0
M  V30 2995 H 295.71 -3.9874 -3.16044 0
M  V30 2996 H 295.108 -1.71807 -5.38979 0
M  V30 2997 H 293.665 -2.3423 -6.08259 0
M  V30 2998 N 297.098 0.621204 -1.44841 0
M  V30 2999 C 298.344 1.38073 -1.49357 0
M  V30 3000 C 298.699 1.91973 -0.128115 0
M  V30 3001 O 297.992 1.71311 0.858087 0
M  V30 3002 C 298.186 2.55675 -2.4973 0
M  V30 3003 C 298.015 2.13289 -3.95901 0
M  V30 3004 C 296.785 2.001 -4.63991 0
M  V30 3005 C 298.983 1.7159 -4.84831 0
M  V30 3006 N 296.965 1.51381 -5.94943 0
M  V30 3007 C 298.336 1.34188 -6.05304 0
M  V30 3008 C 300.391 1.59059 -4.7181 0
M  V30 3009 C 299.094 0.855085 -7.14199 0
M  V30 3010 C 301.12 1.11784 -5.8074 0
M  V30 3011 C 300.482 0.753385 -7.0036 0
M  V30 3012 H 296.581 0.499675 -0.601539 0
M  V30 3013 H 299.165 0.711609 -1.8123 0
M  V30 3014 H 297.336 3.20201 -2.19832 0
M  V30 3015 H 299.068 3.22509 -2.4448 0
M  V30 3016 H 295.823 2.20863 -4.18947 0
M  V30 3017 H 296.247 1.29293 -6.64539 0
M  V30 3018 H 300.889 1.85865 -3.79755 0
M  V30 3019 H 298.607 0.574552 -8.06055 0
M  V30 3020 H 302.193 1.02533 -5.72694 0
M  V30 3021 H 301.073 0.393183 -7.83214 0
M  V30 3022 N 298.576 1.31904 0.862503 0
M  V30 3023 C 299.987 1.19803 1.43193 0
M  V30 3024 C 300.338 -0.192567 1.95253 0
M  V30 3025 O 299.463 -1.09081 1.86896 0
M  V30 3026 C 300.058 2.16883 2.60283 0
M  V30 3027 C 298.617 2.08692 3.13248 0
M  V30 3028 C 297.764 2.05691 1.85975 0
M  V30 3029 H 300.715 1.43846 0.670365 0
M  V30 3030 H 300.736 1.76278 3.37204 0
M  V30 3031 H 300.248 3.18083 2.22363 0
M  V30 3032 H 298.349 1.10713 3.55771 0
M  V30 3033 H 298.462 2.9815 3.75025 0
M  V30 3034 H 296.826 1.50814 2.05249 0
M  V30 3035 H 297.609 3.08659 1.50282 0
M  V30 3036 N 300.054 -1.07777 1.14986 0
M  V30 3037 C 301.004 -2.13082 0.811181 0
M  V30 3038 C 301.988 -1.59619 -0.202597 0
M  V30 3039 O 303.18 -1.77 -0.00398275 0
M  V30 3040 C 300.309 -3.42009 0.297439 0
M  V30 3041 C 299.395 -4.02337 1.34112 0
M  V30 3042 N 299.786 -4.36982 2.54716 0
M  V30 3043 C 298.084 -4.29752 1.19285 0
M  V30 3044 C 298.785 -4.84729 3.21578 0
M  V30 3045 N 297.761 -4.83233 2.48972 0
M  V30 3046 H 301.563 -2.37696 1.72853 0
M  V30 3047 H 299.077 -1.25173 1.03468 0
M  V30 3048 H 301.074 -4.16884 0.0364777 0
M  V30 3049 H 299.734 -3.18841 -0.614022 0
M  V30 3050 H 300.745 -4.27807 2.91894 0
M  V30 3051 H 297.422 -4.16106 0.340926 0
M  V30 3052 H 298.812 -5.20863 4.24442 0
M  V30 3053 N 301.532 -0.945985 -1.26051 0
M  V30 3054 C 302.943 -0.638096 -1.75457 0
M  V30 3055 C 303.294 0.846672 -1.76991 0
M  V30 3056 O 302.419 1.66262 -1.38513 0
M  V30 3057 C 303.014 -1.15157 -3.18629 0
M  V30 3058 C 301.573 -0.894004 -3.65629 0
M  V30 3059 C 300.72 -1.29967 -2.44957 0
M  V30 3060 H 303.671 -1.12376 -1.1206 0
M  V30 3061 H 303.692 -0.507615 -3.77099 0
M  V30 3062 H 303.204 -2.23222 -3.1748 0
M  V30 3063 H 301.305 0.172057 -3.72203 0
M  V30 3064 H 301.418 -1.52439 -4.54202 0
M  V30 3065 H 299.782 -0.718078 -2.44368 0
M  V30 3066 H 300.565 -2.38935 -2.46505 0
M  V30 3067 N 303.011 1.40521 -0.713556 0
M  V30 3068 C 303.974 2.29098 -0.0684347 0
M  V30 3069 C 304.974 1.45268 0.689472 0
M  V30 3070 O 306.164 1.66205 0.521677 0
M  V30 3071 C 303.296 3.28446 0.913024 0
M  V30 3072 H 304.489 2.87645 -0.84855 0
M  V30 3073 H 302.042 1.48809 -0.47809 0
M  V30 3074 H 302.777 2.74913 1.72027 0
M  V30 3075 H 302.562 3.90327 0.372472 0
M  V30 3076 H 304.052 3.94777 1.36165 0
M  V30 3077 N 304.489 0.459591 1.5075 0
M  V30 3078 C 305.735 -0.091664 2.03193 0
M  V30 3079 C 306.09 -1.38432 1.3362 0
M  V30 3080 O 305.383 -1.86257 0.449322 0
M  V30 3081 C 305.577 -0.342866 3.55752 0
M  V30 3082 C 305.406 0.923888 4.40107 0
M  V30 3083 C 304.176 1.46388 4.83631 0
M  V30 3084 C 306.374 1.81617 4.81165 0
M  V30 3085 N 304.356 2.68086 5.52271 0
M  V30 3086 C 305.727 2.87907 5.49099 0
M  V30 3087 C 307.782 1.82793 4.63132 0
M  V30 3088 C 306.485 3.95347 6.0091 0
M  V30 3089 C 308.511 2.89182 5.15876 0
M  V30 3090 C 307.873 3.94191 5.83774 0
M  V30 3091 H 303.972 0.00619247 0.781975 0
M  V30 3092 H 306.556 0.625233 1.84388 0
M  V30 3093 H 304.727 -1.0288 3.74527 0
M  V30 3094 H 306.459 -0.887445 3.9485 0
M  V30 3095 H 303.214 1.01466 4.62603 0
M  V30 3096 H 303.638 3.29857 5.91205 0
M  V30 3097 H 308.28 1.0293 4.1008 0
M  V30 3098 H 305.998 4.76035 6.53006 0
M  V30 3099 H 309.584 2.91061 5.0376 0
M  V30 3100 H 308.464 4.75161 6.23853 0
M  V30 3101 N 305.967 -1.56429 0.191757 0
M  V30 3102 C 307.192 -2.02309 -0.456706 0
M  V30 3103 C 307.617 -1.07103 -1.5463 0
M  V30 3104 O 306.975 -0.0539677 -1.8122 0
M  V30 3105 C 307.023 -3.46654 -0.993159 0
M  V30 3106 O 306.127 -3.54559 -2.10622 0
M  V30 3107 H 305.468 -0.655303 -0.107114 0
M  V30 3108 H 307.998 -2.02364 0.301653 0
M  V30 3109 H 308.008 -3.86377 -1.31061 0
M  V30 3110 H 306.683 -4.1544 -0.195504 0
M  V30 3111 H 305.26 -3.26708 -1.79767 0
M  V30 3112 N 307.445 0.0818655 -1.57387 0
M  V30 3113 C 308.408 1.08265 -2.02018 0
M  V30 3114 C 309.408 1.32183 -0.915664 0
M  V30 3115 O 310.598 1.28073 -1.18081 0
M  V30 3116 C 307.73 2.42871 -2.39221 0
M  V30 3117 H 308.923 0.698204 -2.91659 0
M  V30 3118 H 306.476 0.327303 -1.52835 0
M  V30 3119 H 307.211 2.86167 -1.52575 0
M  V30 3120 H 306.996 2.26855 -3.19811 0
M  V30 3121 H 308.486 3.14826 -2.74362 0
M  V30 3122 N 308.923 1.53595 0.353017 0
M  V30 3123 C 310.169 1.70638 1.09593 0
M  V30 3124 C 310.502 0.463286 1.88593 0
M  V30 3125 O 309.777 -0.539597 1.86865 0
M  V30 3126 C 310.06 2.96406 2.04489 0
M  V30 3127 C 309.913 4.30901 1.29014 0
M  V30 3128 C 311.232 3.17812 3.0444 0
M  V30 3129 H 308.351 0.620913 0.397034 0
M  V30 3130 H 310.993 1.86254 0.375446 0
M  V30 3131 H 309.143 2.83223 2.65927 0
M  V30 3132 H 310.815 4.55917 0.702638 0
M  V30 3133 H 309.058 4.29741 0.592071 0
M  V30 3134 H 309.729 5.1506 1.98537 0
M  V30 3135 H 312.205 3.30263 2.53112 0
M  V30 3136 H 311.081 4.07223 3.6805 0
M  V30 3137 H 311.342 2.33669 3.75301 0
M  V30 3138 N 310.401 -0.613514 1.45168 0
M  V30 3139 C 311.648 -1.37268 1.48875 0
M  V30 3140 C 311.976 -1.94077 0.128161 0
M  V30 3141 O 311.231 -1.75178 -0.872416 0
M  V30 3142 C 311.53 -2.54347 2.51083 0
M  V30 3143 C 311.196 -2.1572 3.95949 0
M  V30 3144 C 309.858 -2.04899 4.35396 0
M  V30 3145 C 312.21 -1.85485 4.87078 0
M  V30 3146 C 309.538 -1.62057 5.63875 0
M  V30 3147 C 311.89 -1.4413 6.15962 0
M  V30 3148 C 310.554 -1.31863 6.54346 0
M  V30 3149 H 309.824 -0.502299 0.544773 0
M  V30 3150 H 312.471 -0.694021 1.78481 0
M  V30 3151 H 310.776 -3.27524 2.15024 0
M  V30 3152 H 312.473 -3.12577 2.51191 0
M  V30 3153 H 309.063 -2.25066 3.64751 0
M  V30 3154 H 313.247 -1.92745 4.57343 0
M  V30 3155 H 308.503 -1.51177 5.92415 0
M  V30 3156 H 312.677 -1.19778 6.86022 0
M  V30 3157 H 310.304 -0.984392 7.538 0
M  V30 3158 N 311.879 -1.3236 -0.855495 0
M  V30 3159 C 313.125 -1.23054 -1.612 0
M  V30 3160 C 313.458 0.207404 -1.93089 0
M  V30 3161 O 312.733 1.14432 -1.57275 0
M  V30 3162 C 313.016 -2.08937 -2.93287 0
M  V30 3163 C 312.869 -3.61105 -2.68185 0
M  V30 3164 C 314.188 -1.94986 -3.94549 0
M  V30 3165 H 311.307 -0.448364 -0.584926 0
M  V30 3166 H 313.949 -1.62297 -0.987917 0
M  V30 3167 H 312.099 -1.75599 -3.46551 0
M  V30 3168 H 313.771 -4.04652 -2.21483 0
M  V30 3169 H 312.014 -3.83813 -2.02164 0
M  V30 3170 H 312.685 -4.16522 -3.62234 0
M  V30 3171 H 315.161 -2.24189 -3.5054 0
M  V30 3172 H 314.037 -2.57356 -4.84829 0
M  V30 3173 H 314.298 -0.917263 -4.3248 0
M  V30 3174 N 313.357 1.07166 -1.15556 0
M  V30 3175 C 314.603 1.80065 -0.932984 0
M  V30 3176 C 314.936 1.86586 0.53845 0
M  V30 3177 O 314.211 1.35098 1.39924 0
M  V30 3178 C 314.494 3.25022 -1.55025 0
M  V30 3179 C 314.347 3.26634 -3.09242 0
M  V30 3180 C 315.666 4.22341 -1.2376 0
M  V30 3181 H 312.785 0.653697 -0.340366 0
M  V30 3182 H 315.427 1.25389 -1.4275 0
M  V30 3183 H 313.577 3.71712 -1.12972 0
M  V30 3184 H 315.249 2.88173 -3.60214 0
M  V30 3185 H 313.492 2.65539 -3.43033 0
M  V30 3186 H 314.163 4.28854 -3.47546 0
M  V30 3187 H 316.639 3.8405 -1.60139 0
M  V30 3188 H 315.515 5.22053 -1.69564 0
M  V30 3189 H 315.776 4.41828 -0.154938 0
M  V30 3190 N 314.835 0.952656 1.25548 0
M  V30 3191 C 316.065 0.622592 1.96996 0
M  V30 3192 C 316.473 -0.809112 1.71026 0
M  V30 3193 O 315.816 -1.55258 0.981861 0
M  V30 3194 C 315.878 0.798946 3.5051 0
M  V30 3195 C 315.542 2.20744 4.00151 0
M  V30 3196 C 316.539 3.18394 4.11001 0
M  V30 3197 C 314.224 2.5311 4.33867 0
M  V30 3198 C 316.218 4.46504 4.54877 0
M  V30 3199 C 313.905 3.8145 4.7743 0
M  V30 3200 C 314.903 4.77959 4.87897 0
M  V30 3201 O 314.591 6.04012 5.30494 0
M  V30 3202 H 314.323 0.232503 0.634758 0
M  V30 3203 H 316.877 1.2789 1.60728 0
M  V30 3204 H 315.107 0.0854903 3.86605 0
M  V30 3205 H 316.796 0.47023 4.03167 0
M  V30 3206 H 317.562 2.94715 3.85186 0
M  V30 3207 H 313.441 1.78719 4.24948 0
M  V30 3208 H 316.985 5.21835 4.62962 0
M  V30 3209 H 312.882 4.04936 5.0269 0
M  V30 3210 H 313.65 6.0736 5.48685 0
M  V30 3211 N 316.313 -1.40141 0.720998 0
M  V30 3212 C 317.541 -2.05096 0.272656 0
M  V30 3213 C 317.956 -1.54334 -1.0875 0
M  V30 3214 O 317.313 -0.702211 -1.6845 0
M  V30 3215 C 317.364 -3.60636 0.249835 0
M  V30 3216 O 317.085 -4.09526 1.55629 0
M  V30 3217 C 318.586 -4.42772 -0.216396 0
M  V30 3218 H 315.806 -0.659897 0.121558 0
M  V30 3219 H 318.35 -1.79449 0.980723 0
M  V30 3220 H 316.505 -3.85232 -0.409237 0
M  V30 3221 H 316.919 -5.03758 1.4604 0
M  V30 3222 H 318.393 -5.51702 -0.181212 0
M  V30 3223 H 318.87 -4.20756 -1.25941 0
M  V30 3224 H 319.476 -4.23294 0.412596 0
M  V30 3225 N 317.792 -0.46758 -1.50504 0
M  V30 3226 C 319.039 0.0886219 -2.02306 0
M  V30 3227 C 319.367 1.40037 -1.34981 0
M  V30 3228 O 318.622 1.90136 -0.463318 0
M  V30 3229 C 318.921 0.323995 -3.55928 0
M  V30 3230 C 318.587 -0.905618 -4.41712 0
M  V30 3231 C 317.249 -1.24275 -4.64875 0
M  V30 3232 C 319.601 -1.72448 -4.91845 0
M  V30 3233 C 316.929 -2.39888 -5.35417 0
M  V30 3234 C 319.281 -2.87185 -5.63656 0
M  V30 3235 C 317.945 -3.21317 -5.85074 0
M  V30 3236 H 317.215 0.0324291 -0.74029 0
M  V30 3237 H 319.862 -0.620945 -1.81153 0
M  V30 3238 H 318.167 1.11577 -3.75577 0
M  V30 3239 H 319.864 0.76826 -3.93572 0
M  V30 3240 H 316.454 -0.632956 -4.239 0
M  V30 3241 H 320.638 -1.4772 -4.73806 0
M  V30 3242 H 315.894 -2.66611 -5.50208 0
M  V30 3243 H 320.068 -3.50985 -6.01484 0
M  V30 3244 H 317.695 -4.1101 -6.39511 0
M  V30 3245 N 319.27 1.56325 -0.20005 0
M  V30 3246 C 320.2 2.22318 0.713916 0
M  V30 3247 C 321.181 1.18788 1.21752 0
M  V30 3248 O 322.366 1.47309 1.26545 0
M  V30 3249 C 319.496 2.88639 1.93144 0
M  V30 3250 C 318.45 3.98457 1.56255 0
M  V30 3251 C 317.776 4.51967 2.85709 0
M  V30 3252 C 319.076 5.16612 0.768747 0
M  V30 3253 H 320.77 2.98952 0.163755 0
M  V30 3254 H 318.316 1.43792 0.0773219 0
M  V30 3255 H 320.269 3.33491 2.57608 0
M  V30 3256 H 318.993 2.09419 2.50621 0
M  V30 3257 H 317.652 3.54305 0.941471 0
M  V30 3258 H 317.3 3.69503 3.41287 0
M  V30 3259 H 317 5.26071 2.6177 0
M  V30 3260 H 318.524 4.99523 3.51154 0
M  V30 3261 H 319.938 5.57977 1.3166 0
M  V30 3262 H 318.335 5.96812 0.627286 0
M  V30 3263 H 319.405 4.84358 -0.229168 0
M  V30 3264 N 320.748 -0.0735177 1.57428 0
M  V30 3265 C 321.678 -1.0879 2.06608 0
M  V30 3266 C 322.659 -1.40473 0.959237 0
M  V30 3267 O 323.844 -1.5013 1.23185 0
M  V30 3268 C 320.974 -2.40183 2.50857 0
M  V30 3269 C 319.928 -2.22858 3.65402 0
M  V30 3270 C 319.254 -3.59619 3.957 0
M  V30 3271 C 320.554 -1.65123 4.95511 0
M  V30 3272 H 322.248 -0.678673 2.91607 0
M  V30 3273 H 319.794 -0.325013 1.40284 0
M  V30 3274 H 321.747 -3.11437 2.83874 0
M  V30 3275 H 320.471 -2.83083 1.62885 0
M  V30 3276 H 319.13 -1.54045 3.32664 0
M  V30 3277 H 318.778 -4.00086 3.04861 0
M  V30 3278 H 318.478 -3.48866 4.72828 0
M  V30 3279 H 320.002 -4.32306 4.31212 0
M  V30 3280 H 321.416 -2.26241 5.26771 0
M  V30 3281 H 319.813 -1.65071 5.7695 0
M  V30 3282 H 320.883 -0.612559 4.81015 0
M  V30 3283 N 322.226 -1.5378 -0.344866 0
M  V30 3284 C 323.474 -1.70625 -1.08311 0
M  V30 3285 C 323.795 -0.471447 -1.89215 0
M  V30 3286 O 323.065 0.514616 -1.8902 0
M  V30 3287 H 321.645 -0.629058 -0.402859 0
M  V30 3288 H 324.307 -1.9103 -0.386459 0
M  V30 3289 H 323.403 -2.57656 -1.76124 0
M  V30 3290 N 323.704 0.605807 -1.45491 0
M  V30 3291 C 324.951 1.36476 -1.49601 0
M  V30 3292 C 325.279 1.94007 -0.138452 0
M  V30 3293 O 324.534 1.75638 0.863114 0
M  V30 3294 C 324.833 2.53012 -2.52428 0
M  V30 3295 C 324.499 2.13617 -3.97087 0
M  V30 3296 C 323.161 2.02587 -4.36477 0
M  V30 3297 C 325.513 1.82899 -4.88055 0
M  V30 3298 C 322.841 1.59064 -5.64726 0
M  V30 3299 C 325.193 1.40861 -6.16718 0
M  V30 3300 C 323.857 1.28391 -6.55036 0
M  V30 3301 H 323.127 0.499402 -0.547429 0
M  V30 3302 H 325.774 0.684546 -1.78847 0
M  V30 3303 H 324.079 3.26379 -2.16758 0
M  V30 3304 H 325.776 3.1124 -2.52845 0
M  V30 3305 H 322.366 2.23129 -3.65939 0
M  V30 3306 H 326.55 1.90317 -4.58359 0
M  V30 3307 H 321.806 1.48034 -5.93208 0
M  V30 3308 H 325.98 1.16138 -6.86648 0
M  V30 3309 H 323.607 0.944403 -7.54311 0
M  V30 3310 N 325.182 1.32811 0.848464 0
M  V30 3311 C 326.112 1.24882 1.97299 0
M  V30 3312 C 327.093 0.131357 1.69592 0
M  V30 3313 O 328.278 0.319553 1.91553 0
M  V30 3314 C 325.408 0.97746 3.33261 0
M  V30 3315 C 324.362 2.05682 3.75338 0
M  V30 3316 C 323.688 1.63777 5.09 0
M  V30 3317 C 324.988 3.47254 3.90144 0
M  V30 3318 H 326.682 2.18966 2.04191 0
M  V30 3319 H 324.228 1.05413 0.981029 0
M  V30 3320 H 326.181 0.908513 4.1149 0
M  V30 3321 H 324.905 0.000980011 3.266 0
M  V30 3322 H 323.564 2.11603 2.99366 0
M  V30 3323 H 323.212 0.648569 4.98801 0
M  V30 3324 H 322.912 2.36 5.38124 0
M  V30 3325 H 324.436 1.5833 5.89715 0
M  V30 3326 H 325.85 3.43888 4.58709 0
M  V30 3327 H 324.247 4.1788 4.30693 0
M  V30 3328 H 325.317 3.86462 2.92874 0
M  V30 3329 N 326.66 -1.06551 1.16123 0
M  V30 3330 C 327.59 -2.15935 0.88851 0
M  V30 3331 C 328.571 -1.69306 -0.164135 0
M  V30 3332 O 329.756 -1.94193 -0.0167857 0
M  V30 3333 C 326.886 -3.45149 0.385942 0
M  V30 3334 C 325.84 -4.05271 1.3762 0
M  V30 3335 C 325.166 -5.29664 0.732137 0
M  V30 3336 C 326.466 -4.44355 2.74493 0
M  V30 3337 H 328.16 -2.39006 1.80323 0
M  V30 3338 H 325.706 -1.14866 0.868435 0
M  V30 3339 H 327.659 -4.21004 0.182647 0
M  V30 3340 H 326.383 -3.21689 -0.564274 0
M  V30 3341 H 325.042 -3.3147 1.56599 0
M  V30 3342 H 324.69 -5.02499 -0.224483 0
M  V30 3343 H 324.39 -5.70848 1.39307 0
M  V30 3344 H 325.914 -6.08218 0.538802 0
M  V30 3345 H 327.328 -5.11303 2.59311 0
M  V30 3346 H 325.725 -4.96515 3.37035 0
M  V30 3347 H 326.795 -3.55339 3.29943 0
M  V30 3348 N 328.138 -0.959301 -1.25041 0
M  V30 3349 C 329.549 -0.65667 -1.74771 0
M  V30 3350 C 329.9 0.827852 -1.77879 0
M  V30 3351 O 329.025 1.64783 -1.40269 0
M  V30 3352 C 329.62 -1.1853 -3.1739 0
M  V30 3353 C 328.179 -0.932734 -3.6466 0
M  V30 3354 C 327.326 -1.32558 -2.43564 0
M  V30 3355 H 330.277 -1.13558 -1.10862 0
M  V30 3356 H 330.298 -0.547582 -3.76539 0
M  V30 3357 H 329.81 -2.26576 -3.15095 0
M  V30 3358 H 327.911 0.13257 -3.72364 0
M  V30 3359 H 328.024 -1.57248 -4.52559 0
M  V30 3360 H 326.388 -0.743956 -2.43593 0
M  V30 3361 H 327.171 -2.41537 -2.43957 0
M  V30 3362 N 329.616 1.39756 -0.72842 0
M  V30 3363 C 330.862 2.00942 -0.273892 0
M  V30 3364 C 331.195 1.57656 1.13394 0
M  V30 3365 O 330.47 0.802434 1.77176 0
M  V30 3366 C 330.753 3.58211 -0.368346 0
M  V30 3367 C 330.606 4.11534 -1.81548 0
M  V30 3368 C 331.925 4.39372 0.253054 0
M  V30 3369 H 329.044 0.730047 -0.100996 0
M  V30 3370 H 331.686 1.66056 -0.923337 0
M  V30 3371 H 329.836 3.88061 0.184588 0
M  V30 3372 H 331.508 3.92431 -2.42478 0
M  V30 3373 H 329.751 3.65341 -2.33898 0
M  V30 3374 H 330.422 5.20682 -1.83288 0
M  V30 3375 H 332.898 4.15527 -0.218224 0
M  V30 3376 H 331.774 5.48677 0.156585 0
M  V30 3377 H 332.035 4.21358 1.33826 0
M  V30 3378 N 331.094 0.475555 1.50254 0
M  V30 3379 C 332.024 -0.30611 2.31485 0
M  V30 3380 C 333.005 -0.986228 1.38591 0
M  V30 3381 O 334.19 -0.982541 1.67511 0
M  V30 3382 C 331.32 -1.38588 3.1845 0
M  V30 3383 C 330.274 -0.827115 4.19932 0
M  V30 3384 C 329.6 -2.00551 4.95665 0
M  V30 3385 C 330.9 0.16463 5.2204 0
M  V30 3386 H 332.594 0.371866 2.97082 0
M  V30 3387 H 330.14 0.180282 1.42867 0
M  V30 3388 H 332.093 -1.94023 3.74076 0
M  V30 3389 H 330.817 -2.09269 2.50747 0
M  V30 3390 H 329.476 -0.294702 3.65414 0
M  V30 3391 H 329.124 -2.6994 4.2443 0
M  V30 3392 H 328.824 -1.63784 5.64313 0
M  V30 3393 H 330.348 -2.56468 5.54127 0
M  V30 3394 H 331.762 -0.300699 5.72511 0
M  V30 3395 H 330.159 0.446813 5.98434 0
M  V30 3396 H 331.229 1.08905 4.72512 0
M  V30 3397 N 332.573 -1.56217 0.208337 0
M  V30 3398 C 333.536 -2.18455 -0.693557 0
M  V30 3399 C 334.536 -1.14268 -1.13135 0
M  V30 3400 O 335.726 -1.39577 -1.0423 0
M  V30 3401 C 332.858 -2.79727 -1.94848 0
M  V30 3402 H 334.051 -2.99519 -0.15114 0
M  V30 3403 H 331.604 -1.56245 -0.041287 0
M  V30 3404 H 332.339 -2.02497 -2.53309 0
M  V30 3405 H 332.124 -3.56009 -1.64316 0
M  V30 3406 H 333.614 -3.27475 -2.59133 0
M  V30 3407 N 334.051 0.0651679 -1.57465 0
M  V30 3408 C 335.3 0.761916 -1.86756 0
M  V30 3409 C 335.613 1.78406 -0.801925 0
M  V30 3410 O 336.819 2.53084 -0.982885 0
M  V30 3411 C 335.275 1.40603 -3.31299 0
M  V30 3412 C 334.883 0.422115 -4.46007 0
M  V30 3413 C 336.627 2.08476 -3.69781 0
M  V30 3414 C 334.534 1.07252 -5.81593 0
M  V30 3415 H 333.464 0.288308 -0.696702 0
M  V30 3416 H 336.115 0.015344 -1.83494 0
M  V30 3417 H 334.497 2.20109 -3.29193 0
M  V30 3418 H 335.671 -0.343613 -4.59517 0
M  V30 3419 H 333.986 -0.152527 -4.16121 0
M  V30 3420 H 336.583 2.57925 -4.68379 0
M  V30 3421 H 336.926 2.88712 -2.99919 0
M  V30 3422 H 337.459 1.35792 -3.73905 0
M  V30 3423 H 334.198 0.310342 -6.54765 0
M  V30 3424 H 333.718 1.80895 -5.71872 0
M  V30 3425 H 335.397 1.59043 -6.27148 0
M  V30 3426 N 335.529 1.53961 0.336706 0
M  V30 3427 C 336.777 1.71197 1.07405 0
M  V30 3428 C 337.098 0.481475 1.88962 0
M  V30 3429 O 336.368 -0.504585 1.8929 0
M  V30 3430 H 334.948 0.631185 0.399517 0
M  V30 3431 H 337.61 1.91232 0.376323 0
M  V30 3432 H 336.706 2.58587 1.74755 0
M  V30 3433 N 337.007 -0.598083 1.45811 0
M  V30 3434 C 337.937 -1.71873 1.58057 0
M  V30 3435 C 338.918 -1.64533 0.431615 0
M  V30 3436 O 340.103 -1.82787 0.65595 0
M  V30 3437 C 337.233 -3.10495 1.55597 0
M  V30 3438 C 336.187 -3.32654 2.69305 0
M  V30 3439 C 335.513 -4.71646 2.51902 0
M  V30 3440 C 336.813 -3.21981 4.11248 0
M  V30 3441 H 338.507 -1.61881 2.51863 0
M  V30 3442 H 336.053 -0.777372 1.21214 0
M  V30 3443 H 338.006 -3.88699 1.6276 0
M  V30 3444 H 336.73 -3.2135 0.583255 0
M  V30 3445 H 335.389 -2.56843 2.61586 0
M  V30 3446 H 335.037 -4.79246 1.52748 0
M  V30 3447 H 334.737 -4.87426 3.2816 0
M  V30 3448 H 336.261 -5.52038 2.60933 0
M  V30 3449 H 337.675 -3.90049 4.20161 0
M  V30 3450 H 336.072 -3.49289 4.87972 0
M  V30 3451 H 337.142 -2.1928 4.32486 0
M  V30 3452 N 338.485 -1.33259 -0.841409 0
M  V30 3453 C 339.725 -1.25902 -1.61022 0
M  V30 3454 C 340.089 0.173325 -1.91216 0
M  V30 3455 O 341.29 0.370824 -2.6623 0
M  V30 3456 C 339.561 -2.10735 -2.88662 0
M  V30 3457 S 341.12 -2.20541 -3.79351 0
M  V30 3458 H 337.938 -0.447958 -0.552137 0
M  V30 3459 H 340.54 -1.68263 -0.995382 0
M  V30 3460 H 339.244 -3.1384 -2.64448 0
M  V30 3461 H 338.775 -1.69201 -3.55154 0
M  V30 3462 H 340.79 -1.36462 -4.77067 0
M  V30 3463 N 339.963 1.05934 -1.16686 0
M  V30 3464 C 341.193 1.82226 -0.973515 0
M  V30 3465 C 341.601 1.8297 0.481532 0
M  V30 3466 O 340.944 1.25009 1.34604 0
M  V30 3467 C 341.006 3.29897 -1.42858 0
M  V30 3468 C 340.67 3.52849 -2.90425 0
M  V30 3469 C 341.667 3.45595 -3.88407 0
M  V30 3470 C 339.352 3.80053 -3.28428 0
M  V30 3471 C 341.346 3.65217 -5.22394 0
M  V30 3472 C 339.033 3.99325 -4.62583 0
M  V30 3473 C 340.031 3.91905 -5.59374 0
M  V30 3474 O 339.719 4.10647 -6.91104 0
M  V30 3475 H 339.451 0.581314 -0.345036 0
M  V30 3476 H 342.005 1.3453 -1.55212 0
M  V30 3477 H 340.235 3.78472 -0.793477 0
M  V30 3478 H 341.924 3.87692 -1.20207 0
M  V30 3479 H 342.69 3.24564 -3.60393 0
M  V30 3480 H 338.569 3.84936 -2.53664 0
M  V30 3481 H 342.113 3.59341 -5.9793 0
M  V30 3482 H 338.01 4.19846 -4.90306 0
M  V30 3483 H 338.778 4.27915 -6.97733 0
M  V30 3484 N 341.441 0.965919 1.2453 0
M  V30 3485 C 342.371 0.513476 2.27784 0
M  V30 3486 C 343.352 -0.445974 1.6415 0
M  V30 3487 O 344.537 -0.342485 1.91156 0
M  V30 3488 C 341.667 -0.198839 3.4673 0
M  V30 3489 C 340.621 0.676456 4.2262 0
M  V30 3490 C 339.947 -0.167248 5.34438 0
M  V30 3491 C 341.247 1.96017 4.84123 0
M  V30 3492 H 342.941 1.3765 2.65881 0
M  V30 3493 H 340.487 0.663321 1.27813 0
M  V30 3494 H 342.44 -0.526567 4.18097 0
M  V30 3495 H 341.164 -1.0962 3.07654 0
M  V30 3496 H 339.823 0.98743 3.53052 0
M  V30 3497 H 339.471 -1.0647 4.91603 0
M  V30 3498 H 339.171 0.415181 5.86131 0
M  V30 3499 H 340.695 -0.489688 6.08633 0
M  V30 3500 H 342.109 1.69814 5.47573 0
M  V30 3501 H 340.506 2.48918 5.4604 0
M  V30 3502 H 341.576 2.65622 4.05676 0
M  V30 3503 N 342.919 -1.39368 0.735821 0
M  V30 3504 C 343.849 -2.33234 0.111506 0
M  V30 3505 C 344.83 -1.53954 -0.723334 0
M  V30 3506 O 346.015 -1.82344 -0.668147 0
M  V30 3507 C 343.145 -3.38057 -0.795917 0
M  V30 3508 C 342.099 -4.2795 -0.065172 0
M  V30 3509 C 341.425 -5.23479 -1.08967 0
M  V30 3510 C 342.725 -5.10741 1.09273 0
M  V30 3511 H 344.419 -2.85692 0.895571 0
M  V30 3512 H 341.965 -1.37364 0.432109 0
M  V30 3513 H 343.918 -4.02675 -1.24221 0
M  V30 3514 H 342.642 -2.8404 -1.61211 0
M  V30 3515 H 341.301 -3.64813 0.361511 0
M  V30 3516 H 340.949 -4.65758 -1.89944 0
M  V30 3517 H 340.649 -5.84472 -0.605489 0
M  V30 3518 H 342.173 -5.90974 -1.53565 0
M  V30 3519 H 343.587 -5.68699 0.724841 0
M  V30 3520 H 341.984 -5.8088 1.50659 0
M  V30 3521 H 343.054 -4.45525 1.91404 0
M  V30 3522 N 344.397 -0.483516 -1.5 0
M  V30 3523 C 345.646 0.0689102 -2.01582 0
M  V30 3524 C 345.959 1.39655 -1.36952 0
M  V30 3525 O 347.165 2.03465 -1.79762 0
M  V30 3526 C 345.621 0.173302 -3.59483 0
M  V30 3527 C 345.229 -1.14665 -4.33077 0
M  V30 3528 C 346.973 0.677024 -4.19066 0
M  V30 3529 C 344.88 -1.00537 -5.82792 0
M  V30 3530 H 343.81 0.0295277 -0.753422 0
M  V30 3531 H 346.461 -0.620295 -1.72698 0
M  V30 3532 H 344.843 0.926569 -3.85007 0
M  V30 3533 H 346.017 -1.91184 -4.19268 0
M  V30 3534 H 344.332 -1.58244 -3.85159 0
M  V30 3535 H 346.929 0.799952 -5.28682 0
M  V30 3536 H 347.272 1.67151 -3.81269 0
M  V30 3537 H 347.805 -0.0192083 -3.97795 0
M  V30 3538 H 344.544 -1.9736 -6.25083 0
M  V30 3539 H 344.064 -0.280776 -5.99142 0
M  V30 3540 H 345.743 -0.677 -6.43448 0
M  V30 3541 N 345.875 1.56104 -0.216619 0
M  V30 3542 C 347.121 1.98466 0.417033 0
M  V30 3543 C 347.454 1.10403 1.59765 0
M  V30 3544 O 346.729 0.160632 1.93836 0
M  V30 3545 C 347.012 3.49769 0.85637 0
M  V30 3546 C 346.865 4.48606 -0.327546 0
M  V30 3547 C 348.184 4.05339 1.7143 0
M  V30 3548 H 345.303 0.721551 0.150112 0
M  V30 3549 H 347.945 1.87423 -0.311864 0
M  V30 3550 H 346.095 3.5931 1.47745 0
M  V30 3551 H 347.767 4.5108 -0.965618 0
M  V30 3552 H 346.01 4.22682 -0.975805 0
M  V30 3553 H 346.681 5.51995 0.0227149 0
M  V30 3554 H 349.157 3.98712 1.19031 0
M  V30 3555 H 348.033 5.11533 1.99061 0
M  V30 3556 H 348.294 3.51918 2.67593 0
M  V30 3557 N 347.353 -0.0568162 1.57498 0
M  V30 3558 C 348.601 -0.751617 1.87604 0
M  V30 3559 C 348.922 -1.77351 0.81066 0
M  V30 3560 O 348.192 -1.95254 -0.159018 0
M  V30 3561 H 346.772 -0.280583 0.692302 0
M  V30 3562 H 349.434 -0.0293483 1.94878 0
M  V30 3563 H 348.53 -1.25852 2.856 0
M  V30 3564 N 348.832 -1.54138 -0.328536 0
M  V30 3565 C 349.779 -1.83176 -1.40411 0
M  V30 3566 C 350.749 -0.678494 -1.5161 0
M  V30 3567 O 351.934 -0.92443 -1.6691 0
M  V30 3568 C 349.074 -2.06035 -2.76846 0
M  V30 3569 C 348.187 -3.33727 -2.74318 0
M  V30 3570 C 347.322 -3.46574 -4.02567 0
M  V30 3571 C 346.361 -4.68159 -3.94327 0
M  V30 3572 N 345.498 -4.77959 -5.14296 0
M  V30 3573 H 350.338 -2.74938 -1.14948 0
M  V30 3574 H 347.875 -1.36166 -0.556538 0
M  V30 3575 H 349.833 -2.1728 -3.56153 0
M  V30 3576 H 348.463 -1.1757 -3.00628 0
M  V30 3577 H 347.515 -3.31246 -1.8703 0
M  V30 3578 H 348.827 -4.23139 -2.64111 0
M  V30 3579 H 347.981 -3.57333 -4.90304 0
M  V30 3580 H 346.72 -2.55245 -4.15574 0
M  V30 3581 H 345.725 -4.57461 -3.04974 0
M  V30 3582 H 346.95 -5.60868 -3.82889 0
M  V30 3583 H 344.896 -3.89544 -5.27818 0
M  V30 3584 H 344.813 -5.6133 -5.06404 0
M  V30 3585 H 346.081 -4.93044 -6.03761 0
M  V30 3586 N 350.31 0.590341 -1.46126 0
M  V30 3587 C 351.243 1.71434 -1.50617 0
M  V30 3588 C 352.221 1.58543 -0.360948 0
M  V30 3589 O 353.405 1.79865 -0.563985 0
M  V30 3590 C 350.532 3.09422 -1.37753 0
M  V30 3591 C 349.578 3.40854 -2.5636 0
M  V30 3592 S 350.411 3.33773 -4.18755 0
M  V30 3593 C 351.567 4.74312 -4.08386 0
M  V30 3594 H 351.8 1.67364 -2.45717 0
M  V30 3595 H 349.333 0.76845 -1.33919 0
M  V30 3596 H 351.291 3.8903 -1.31018 0
M  V30 3597 H 349.952 3.10989 -0.440949 0
M  V30 3598 H 349.145 4.41368 -2.43332 0
M  V30 3599 H 348.747 2.68798 -2.60046 0
M  V30 3600 H 351.039 5.64522 -3.74595 0
M  V30 3601 H 351.982 4.92397 -5.08872 0
M  V30 3602 H 352.39 4.50803 -3.3976 0
M  V30 3603 N 351.788 1.33704 0.83433 0
M  V30 3604 C 353.204 1.13137 1.12571 0
M  V30 3605 C 353.404 -0.0747261 2.01361 0
M  V30 3606 O 352.46 -0.753647 2.4099 0
M  V30 3607 C 353.773 2.42105 1.78342 0
M  V30 3608 C 355.321 2.48054 1.90888 0
M  V30 3609 C 355.796 3.76995 2.60075 0
M  V30 3610 N 357.287 3.78092 2.67584 0
M  V30 3611 C 358.022 4.74574 3.21818 0
M  V30 3612 N 357.518 5.81434 3.76705 0
M  V30 3613 N 359.311 4.62044 3.20112 0
M  V30 3614 H 351.462 2.11 0.243489 0
M  V30 3615 H 353.725 0.932532 0.17055 0
M  V30 3616 H 353.431 3.30391 1.20561 0
M  V30 3617 H 353.305 2.54594 2.7832 0
M  V30 3618 H 355.692 1.60215 2.47821 0
M  V30 3619 H 355.773 2.39502 0.898459 0
M  V30 3620 H 355.417 4.65219 2.03799 0
M  V30 3621 H 355.347 3.82825 3.61597 0
M  V30 3622 H 357.838 3.00865 2.28667 0
M  V30 3623 H 358.151 6.51084 4.16305 0
M  V30 3624 H 356.496 5.85163 3.7498 0
M  V30 3625 H 359.687 3.77716 2.76493 0
M  V30 3626 H 359.86 5.37406 3.62076 0
M  V30 3627 N 353.266 -1.05314 1.17247 0
M  V30 3628 C 354.229 -2.112 0.890357 0
M  V30 3629 C 355.229 -1.60359 -0.118943 0
M  V30 3630 O 356.419 -1.73833 0.113086 0
M  V30 3631 C 353.551 -3.39266 0.333422 0
M  V30 3632 H 354.744 -2.37659 1.82916 0
M  V30 3633 H 352.297 -1.21538 0.982758 0
M  V30 3634 H 353.032 -3.18462 -0.612587 0
M  V30 3635 H 352.817 -3.77477 1.06082 0
M  V30 3636 H 354.307 -4.17315 0.154322 0
M  V30 3637 N 354.744 -0.972509 -1.24016 0
M  V30 3638 C 355.99 -0.637978 -1.92504 0
M  V30 3639 C 356.323 0.825383 -1.75787 0
M  V30 3640 O 355.598 1.59442 -1.11393 0
M  V30 3641 C 355.881 -1.01942 -3.45369 0
M  V30 3642 C 355.734 -2.53983 -3.71231 0
M  V30 3643 C 357.053 -0.55751 -4.36555 0
M  V30 3644 H 354.172 -0.233248 -0.699117 0
M  V30 3645 H 356.814 -1.21238 -1.46292 0
M  V30 3646 H 354.964 -0.530656 -3.84859 0
M  V30 3647 H 356.636 -3.10374 -3.41271 0
M  V30 3648 H 354.879 -2.96968 -3.16216 0
M  V30 3649 H 355.55 -2.75723 -4.78206 0
M  V30 3650 H 358.026 -0.977029 -4.04467 0
M  V30 3651 H 356.902 -0.85292 -5.42233 0
M  V30 3652 H 357.163 0.542328 -4.38761 0
M  V30 3653 N 356.222 1.38976 -0.743202 0
M  V30 3654 C 357.185 2.28901 -0.117014 0
M  V30 3655 C 358.185 1.46698 0.658503 0
M  V30 3656 O 359.375 1.67274 0.486305 0
M  V30 3657 C 356.507 3.30309 0.84315 0
M  V30 3658 H 357.7 2.8578 -0.909373 0
M  V30 3659 H 355.253 1.47761 -0.509547 0
M  V30 3660 H 355.988 2.785 1.66157 0
M  V30 3661 H 355.773 3.91029 0.289594 0
M  V30 3662 H 357.263 3.97577 1.2776 0
M  V30 3663 N 357.7 0.491464 1.49741 0
M  V30 3664 C 358.63 -0.28154 2.31796 0
M  V30 3665 C 359.611 -0.971473 1.3963 0
M  V30 3666 O 360.796 -0.964719 1.68543 0
M  V30 3667 C 357.926 -1.35203 3.19902 0
M  V30 3668 C 356.88 -0.782529 4.20786 0
M  V30 3669 C 356.206 -1.95283 4.97764 0
M  V30 3670 C 357.506 0.21999 5.21837 0
M  V30 3671 H 359.2 0.403355 2.96671 0
M  V30 3672 H 356.746 0.195425 1.42668 0
M  V30 3673 H 358.699 -1.90045 3.76113 0
M  V30 3674 H 357.423 -2.06598 2.52953 0
M  V30 3675 H 356.082 -0.255928 3.65706 0
M  V30 3676 H 355.73 -2.65423 4.2727 0
M  V30 3677 H 355.43 -1.57789 5.66018 0
M  V30 3678 H 356.954 -2.50577 5.56816 0
M  V30 3679 H 358.368 -0.23996 5.72798 0
M  V30 3680 H 356.765 0.51026 5.97927 0
M  V30 3681 H 357.835 1.13911 4.7133 0
M  V30 3682 N 359.178 -1.55987 0.224894 0
M  V30 3683 C 360.594 -1.59066 -0.130426 0
M  V30 3684 C 360.794 -1.24176 -1.5869 0
M  V30 3685 O 359.85 -0.978592 -2.32766 0
M  V30 3686 C 361.163 -3.00042 0.198883 0
M  V30 3687 C 362.711 -3.1268 0.141391 0
M  V30 3688 C 363.186 -4.55839 0.444422 0
M  V30 3689 N 364.677 -4.6152 0.394115 0
M  V30 3690 C 365.412 -5.70231 0.602038 0
M  V30 3691 N 364.908 -6.87291 0.871914 0
M  V30 3692 N 366.701 -5.59555 0.534245 0
M  V30 3693 H 358.852 -1.76941 1.17497 0
M  V30 3694 H 361.115 -0.822604 0.471197 0
M  V30 3695 H 360.821 -3.30234 1.2099 0
M  V30 3696 H 360.695 -3.74075 -0.484535 0
M  V30 3697 H 363.082 -2.82283 -0.860265 0
M  V30 3698 H 363.163 -2.40969 0.858335 0
M  V30 3699 H 362.807 -4.86954 1.44353 0
M  V30 3700 H 362.737 -5.2578 -0.293752 0
M  V30 3701 H 365.228 -3.77405 0.193356 0
M  V30 3702 H 365.541 -7.66058 1.01858 0
M  V30 3703 H 363.886 -6.89028 0.909145 0
M  V30 3704 H 367.077 -4.6698 0.323612 0
M  V30 3705 H 367.25 -6.44211 0.699693 0
M  V30 3706 N 360.656 0.0484629 -1.57525 0
M  V30 3707 C 361.619 1.03956 -2.04269 0
M  V30 3708 C 362.619 1.30211 -0.943496 0
M  V30 3709 O 363.809 1.25539 -1.20771 0
M  V30 3710 C 360.941 2.37742 -2.44319 0
M  V30 3711 H 362.134 0.636182 -2.93075 0
M  V30 3712 H 359.687 0.294811 -1.53494 0
M  V30 3713 H 360.422 2.82866 -1.5861 0
M  V30 3714 H 360.207 2.20021 -3.24551 0
M  V30 3715 H 361.697 3.08936 -2.80978 0
M  V30 3716 N 362.134 1.5431 0.320358 0
M  V30 3717 C 363.382 1.72327 1.05583 0
M  V30 3718 C 363.703 0.50149 1.88441 0
M  V30 3719 O 362.973 -0.48448 1.89815 0
M  V30 3720 H 361.553 0.635387 0.3928 0
M  V30 3721 H 364.215 1.91621 0.356019 0
M  V30 3722 H 363.311 2.60426 1.72003 0
M  V30 3723 N 363.613 -0.582584 1.46437 0
M  V30 3724 C 364.859 -1.34064 1.52965 0
M  V30 3725 C 365.214 -1.91566 0.178968 0
M  V30 3726 O 364.507 -1.73526 -0.812365 0
M  V30 3727 C 364.701 -2.48964 2.56421 0
M  V30 3728 C 364.53 -2.02717 4.01417 0
M  V30 3729 C 363.3 -1.87728 4.69134 0
M  V30 3730 C 365.498 -1.58675 4.8921 0
M  V30 3731 N 363.48 -1.35554 5.98747 0
M  V30 3732 C 364.851 -1.18093 6.08649 0
M  V30 3733 C 366.906 -1.46494 4.75861 0
M  V30 3734 C 365.609 -0.665427 7.16215 0
M  V30 3735 C 367.635 -0.96347 5.83499 0
M  V30 3736 C 366.997 -0.567432 7.02111 0
M  V30 3737 H 363.096 -0.483551 0.614575 0
M  V30 3738 H 365.68 -0.663309 1.83053 0
M  V30 3739 H 363.851 -3.1426 2.28244 0
M  V30 3740 H 365.583 -3.15913 2.52944 0
M  V30 3741 H 362.338 -2.09678 4.24655 0
M  V30 3742 H 362.762 -1.11628 6.67734 0
M  V30 3743 H 367.404 -1.75731 3.8455 0
M  V30 3744 H 365.122 -0.360639 8.07295 0
M  V30 3745 H 368.708 -0.873129 5.75211 0
M  V30 3746 H 367.588 -0.185389 7.83981 0
M  V30 3747 N 365.091 -1.34144 -0.827227 0
M  V30 3748 C 366.023 -1.21206 -1.9453 0
M  V30 3749 C 367.036 -0.140176 -1.62195 0
M  V30 3750 O 368.225 -0.391647 -1.7415 0
M  V30 3751 C 365.325 -0.839141 -3.28347 0
M  V30 3752 C 364.498 -2.0051 -3.88734 0
M  V30 3753 C 363.557 -1.61128 -5.00923 0
M  V30 3754 O 362.583 -2.32726 -5.19449 0
M  V30 3755 N 363.785 -0.522958 -5.7814 0
M  V30 3756 H 366.55 -2.17525 -2.06162 0
M  V30 3757 H 364.111 -1.27043 -1.00358 0
M  V30 3758 H 366.103 -0.557556 -4.00841 0
M  V30 3759 H 364.673 0.0337293 -3.12582 0
M  V30 3760 H 363.893 -2.45166 -3.08686 0
M  V30 3761 H 365.181 -2.78498 -4.25812 0
M  V30 3762 H 364.579 0.0723518 -5.65654 0
M  V30 3763 H 363.136 -0.301089 -6.51104 0
M  V30 3764 N 366.569 1.04691 -1.17803 0
M  V30 3765 C 367.501 2.12571 -0.857097 0
M  V30 3766 C 368.514 1.62174 0.142647 0
M  V30 3767 O 369.703 1.78301 -0.0843387 0
M  V30 3768 C 366.803 3.37915 -0.258216 0
M  V30 3769 C 365.976 4.1757 -1.30207 0
M  V30 3770 C 365.035 5.2125 -0.720029 0
M  V30 3771 O 364.061 5.51888 -1.39314 0
M  V30 3772 N 365.263 5.78466 0.485507 0
M  V30 3773 H 368.028 2.40698 -1.78562 0
M  V30 3774 H 365.589 1.20831 -1.07757 0
M  V30 3775 H 367.581 4.04442 0.144584 0
M  V30 3776 H 366.151 3.07281 0.574199 0
M  V30 3777 H 365.371 3.46458 -1.88043 0
M  V30 3778 H 366.659 4.67586 -2.00601 0
M  V30 3779 H 366.057 5.55866 1.05022 0
M  V30 3780 H 364.614 6.4649 0.830307 0
M  V30 3781 N 368.047 0.979072 1.23499 0
M  V30 3782 C 369.463 0.687475 1.44034 0
M  V30 3783 C 369.663 -0.746801 1.8715 0
M  V30 3784 O 368.719 -1.51939 2.0167 0
M  V30 3785 C 370.032 1.68127 2.49307 0
M  V30 3786 C 371.58 1.69516 2.63122 0
M  V30 3787 C 372.055 2.67723 3.71603 0
M  V30 3788 N 373.546 2.66233 3.79044 0
M  V30 3789 C 374.281 3.38891 4.62537 0
M  V30 3790 N 373.777 4.21103 5.50131 0
M  V30 3791 N 375.57 3.27661 4.56721 0
M  V30 3792 H 367.721 1.90559 0.938135 0
M  V30 3793 H 369.984 0.821051 0.473897 0
M  V30 3794 H 369.69 2.70693 2.2454 0
M  V30 3795 H 369.564 1.46306 3.4767 0
M  V30 3796 H 371.951 0.676561 2.8724 0
M  V30 3797 H 372.032 1.95404 1.65079 0
M  V30 3798 H 371.676 3.69724 3.48233 0
M  V30 3799 H 371.606 2.39111 4.69184 0
M  V30 3800 H 374.097 2.06568 3.16446 0
M  V30 3801 H 374.41 4.73403 6.10827 0
M  V30 3802 H 372.755 4.25195 5.49759 0
M  V30 3803 H 375.946 2.62887 3.87309 0
M  V30 3804 H 376.119 3.84547 5.21562 0
M  V30 3805 N 369.525 -1.3858 0.750561 0
M  V30 3806 C 370.941 -1.53759 0.427824 0
M  V30 3807 C 371.141 -1.71401 -1.05943 0
M  V30 3808 O 370.197 -1.72331 -1.84549 0
M  V30 3809 C 371.51 -2.74642 1.22443 0
M  V30 3810 C 373.058 -2.88489 1.2142 0
M  V30 3811 C 373.533 -4.12329 1.9937 0
M  V30 3812 N 375.024 -4.194 1.96616 0
M  V30 3813 C 375.759 -5.14209 2.53727 0
M  V30 3814 N 375.255 -6.14709 3.19539 0
M  V30 3815 N 377.048 -5.06537 2.43673 0
M  V30 3816 H 369.199 -1.25377 1.71447 0
M  V30 3817 H 371.462 -0.608844 0.726645 0
M  V30 3818 H 371.168 -2.68 2.27747 0
M  V30 3819 H 371.042 -3.67745 0.839273 0
M  V30 3820 H 373.429 -2.94614 0.169232 0
M  V30 3821 H 373.51 -1.96406 1.63885 0
M  V30 3822 H 373.154 -4.06966 3.03877 0
M  V30 3823 H 373.084 -5.03486 1.54302 0
M  V30 3824 H 375.575 -3.47421 1.48684 0
M  V30 3825 H 375.888 -6.8354 3.60545 0
M  V30 3826 H 374.233 -6.1505 3.23633 0
M  V30 3827 H 377.424 -4.26962 1.91889 0
M  V30 3828 H 377.597 -5.80245 2.88479 0
M  V30 3829 N 371.003 -0.499398 -1.49478 0
M  V30 3830 C 372.419 -0.155261 -1.58843 0
M  V30 3831 C 372.619 1.34008 -1.50479 0
M  V30 3832 O 371.675 2.11589 -1.37791 0
M  V30 3833 C 372.988 -0.730636 -2.91689 0
M  V30 3834 C 374.536 -0.696599 -3.0515 0
M  V30 3835 C 375.011 -1.25001 -4.40612 0
M  V30 3836 N 376.502 -1.21064 -4.47099 0
M  V30 3837 C 377.237 -1.60905 -5.50361 0
M  V30 3838 N 376.733 -2.08331 -6.60735 0
M  V30 3839 N 378.526 -1.52331 -5.41065 0
M  V30 3840 H 370.677 -1.47162 -1.53158 0
M  V30 3841 H 372.94 -0.610309 -0.725415 0
M  V30 3842 H 372.646 -1.77928 -3.03372 0
M  V30 3843 H 372.52 -0.190161 -3.7672 0
M  V30 3844 H 374.907 0.343204 -2.93097 0
M  V30 3845 H 374.988 -1.2742 -2.21806 0
M  V30 3846 H 374.632 -2.28859 -4.53416 0
M  V30 3847 H 374.562 -0.64836 -5.22593 0
M  V30 3848 H 377.053 -0.863128 -3.67911 0
M  V30 3849 H 377.366 -2.36805 -7.35624 0
M  V30 3850 H 375.711 -2.12304 -6.6178 0
M  V30 3851 H 378.902 -1.151 -4.53729 0
M  V30 3852 H 379.075 -1.83704 -6.21415 0
M  V30 3853 N 372.481 1.55866 -0.233164 0
M  V30 3854 C 373.706 2.03449 0.402906 0
M  V30 3855 C 374.131 1.11166 1.51736 0
M  V30 3856 O 373.489 0.101996 1.81013 0
M  V30 3857 C 373.537 3.49165 0.9009 0
M  V30 3858 O 372.641 3.60019 2.01147 0
M  V30 3859 H 371.982 0.657913 0.0897025 0
M  V30 3860 H 374.512 2.01493 -0.355201 0
M  V30 3861 H 374.522 3.89716 1.2077 0
M  V30 3862 H 373.197 4.15813 0.0852889 0
M  V30 3863 H 371.774 3.3136 1.71042 0
M  V30 3864 N 373.959 -0.0401083 1.57549 0
M  V30 3865 C 374.869 -1.06133 2.0922 0
M  V30 3866 C 375.885 -1.40356 1.0284 0
M  V30 3867 O 377.061 -1.49897 1.34509 0
M  V30 3868 C 374.126 -2.34658 2.55218 0
M  V30 3869 C 373.187 -2.07117 3.76033 0
M  V30 3870 C 372.42 -3.29514 4.19829 0
M  V30 3871 O 372.643 -4.39794 3.63232 0
M  V30 3872 O 371.577 -3.15863 5.12362 0
M  V30 3873 H 375.403 -0.652244 2.96613 0
M  V30 3874 H 372.988 -0.256368 1.47184 0
M  V30 3875 H 374.87 -3.10239 2.85184 0
M  V30 3876 H 373.545 -2.74883 1.70941 0
M  V30 3877 H 372.452 -1.29139 3.51104 0
M  V30 3878 H 373.785 -1.71754 4.61261 0
M  V30 3879 N 375.437 -1.54477 -0.31217 0
M  V30 3880 C 376.384 -1.84655 -1.38461 0
M  V30 3881 C 377.354 -0.694536 -1.50882 0
M  V30 3882 O 378.539 -0.942081 -1.6592 0
M  V30 3883 C 375.679 -2.0896 -2.74645 0
M  V30 3884 C 374.792 -3.36618 -2.70763 0
M  V30 3885 C 373.927 -3.50824 -3.98868 0
M  V30 3886 C 372.966 -4.72315 -3.89339 0
M  V30 3887 N 372.103 -4.83387 -5.09197 0
M  V30 3888 H 376.943 -2.76142 -1.12026 0
M  V30 3889 H 374.48 -1.36748 -0.542065 0
M  V30 3890 H 376.438 -2.21045 -3.53829 0
M  V30 3891 H 375.068 -1.20752 -2.99364 0
M  V30 3892 H 374.12 -3.33211 -1.83506 0
M  V30 3893 H 375.432 -4.25917 -2.59608 0
M  V30 3894 H 374.586 -3.62513 -4.86486 0
M  V30 3895 H 373.325 -2.59638 -4.12843 0
M  V30 3896 H 372.33 -4.6067 -3.00105 0
M  V30 3897 H 373.555 -5.64897 -3.76919 0
M  V30 3898 H 371.501 -3.9512 -5.23657 0
M  V30 3899 H 371.418 -5.66669 -5.00422 0
M  V30 3900 H 372.686 -4.9942 -5.98498 0
M  V30 3901 N 376.915 0.57481 -1.46744 0
M  V30 3902 C 377.862 1.68329 -1.57905 0
M  V30 3903 C 378.832 1.60625 -0.422927 0
M  V30 3904 O 380.017 1.79721 -0.640711 0
M  V30 3905 C 377.157 3.06665 -1.58274 0
M  V30 3906 C 376.27 3.24935 -2.84678 0
M  V30 3907 C 375.405 4.53566 -2.76499 0
M  V30 3908 C 374.444 4.65207 -3.97806 0
M  V30 3909 N 373.581 5.85172 -3.87967 0
M  V30 3910 H 378.421 1.58127 -2.52587 0
M  V30 3911 H 375.958 0.770552 -1.25303 0
M  V30 3912 H 377.916 3.86745 -1.56473 0
M  V30 3913 H 376.546 3.15745 -0.671194 0
M  V30 3914 H 375.598 2.38405 -2.96424 0
M  V30 3915 H 376.91 3.29403 -3.7456 0
M  V30 3916 H 376.064 5.41885 -2.72848 0
M  V30 3917 H 374.803 4.51548 -1.8427 0
M  V30 3918 H 373.808 3.75304 -4.0178 0
M  V30 3919 H 375.033 4.68997 -4.9114 0
M  V30 3920 H 372.979 5.84137 -2.98529 0
M  V30 3921 H 372.896 5.90943 -4.71511 0
M  V30 3922 H 374.164 6.759 -3.88303 0
M  V30 3923 N 378.394 1.34581 0.820102 0
M  V30 3924 C 379.643 1.26437 1.57151 0
M  V30 3925 C 379.956 -0.163111 1.94919 0
M  V30 3926 O 381.162 -0.366722 2.69012 0
M  V30 3927 C 379.618 2.21658 2.83541 0
M  V30 3928 C 379.226 3.69679 2.53065 0
M  V30 3929 C 380.97 2.22428 3.61561 0
M  V30 3930 C 378.877 4.56761 3.75664 0
M  V30 3931 H 377.807 0.469707 0.589823 0
M  V30 3932 H 380.458 1.59763 0.902656 0
M  V30 3933 H 378.84 1.81287 3.52067 0
M  V30 3934 H 380.014 4.18605 1.92631 0
M  V30 3935 H 378.329 3.71384 1.88316 0
M  V30 3936 H 380.926 2.8471 4.52597 0
M  V30 3937 H 381.269 1.22434 3.97889 0
M  V30 3938 H 381.802 2.61259 2.99981 0
M  V30 3939 H 378.541 5.57702 3.44454 0
M  V30 3940 H 378.061 4.12568 4.35371 0
M  V30 3941 H 379.74 4.71509 4.43044 0
M  V30 3942 N 379.872 -1.04064 1.18357 0
M  V30 3943 C 381.1 -1.80916 1.00384 0
M  V30 3944 C 381.515 -1.83414 -0.447738 0
M  V30 3945 O 380.872 -1.26962 -1.31099 0
M  V30 3946 C 380.923 -3.26516 1.55144 0
M  V30 3947 O 380.644 -3.2424 2.94618 0
M  V30 3948 C 382.145 -4.20013 1.41789 0
M  V30 3949 H 379.365 -0.569728 0.354474 0
M  V30 3950 H 381.909 -1.31151 1.56906 0
M  V30 3951 H 380.064 -3.73512 1.02798 0
M  V30 3952 H 380.478 -4.15452 3.20156 0
M  V30 3953 H 381.952 -5.20111 1.84901 0
M  V30 3954 H 382.429 -4.37667 0.36661 0
M  V30 3955 H 383.035 -3.78881 1.93207 0
M  V30 3956 N 381.35 -0.985608 -1.22978 0
M  V30 3957 C 382.766 -0.695104 -1.43668 0
M  V30 3958 C 382.966 0.736866 -1.87543 0
M  V30 3959 O 382.022 1.50868 -2.02473 0
M  V30 3960 C 383.335 -1.69447 -2.48412 0
M  V30 3961 C 384.883 -1.70909 -2.62219 0
M  V30 3962 C 385.358 -2.6969 -3.70178 0
M  V30 3963 N 386.849 -2.6824 -3.77626 0
M  V30 3964 C 387.584 -3.41339 -4.60733 0
M  V30 3965 N 387.08 -4.24015 -5.4789 0
M  V30 3966 N 388.873 -3.30079 -4.54977 0
M  V30 3967 H 381.024 -1.91054 -0.928016 0
M  V30 3968 H 383.287 -0.823553 -0.469536 0
M  V30 3969 H 382.993 -2.7188 -2.23102 0
M  V30 3970 H 382.867 -1.48147 -3.46889 0
M  V30 3971 H 385.254 -0.691785 -2.86877 0
M  V30 3972 H 385.335 -1.96276 -1.6404 0
M  V30 3973 H 384.979 -3.71566 -3.46268 0
M  V30 3974 H 384.909 -2.41595 -4.67909 0
M  V30 3975 H 387.4 -2.08243 -3.15346 0
M  V30 3976 H 387.713 -4.76636 -6.08308 0
M  V30 3977 H 386.058 -4.28104 -5.47496 0
M  V30 3978 H 389.249 -2.64937 -3.85909 0
M  V30 3979 H 389.422 -3.87308 -5.19516 0
M  V30 3980 N 382.828 1.3818 -0.7579 0
M  V30 3981 C 383.758 2.33027 -0.148597 0
M  V30 3982 C 384.739 1.55085 0.69875 0
M  V30 3983 O 385.924 1.83384 0.639053 0
M  V30 3984 C 383.054 3.3928 0.742034 0
M  V30 3985 C 382.008 4.28 -0.00291946 0
M  V30 3986 C 381.334 5.25146 1.00625 0
M  V30 3987 C 382.634 5.08938 -1.17385 0
M  V30 3988 H 384.328 2.84231 -0.940909 0
M  V30 3989 H 381.874 1.36659 -0.453908 0
M  V30 3990 H 383.827 4.046 1.17799 0
M  V30 3991 H 382.551 2.86569 1.56671 0
M  V30 3992 H 381.21 3.64192 -0.419504 0
M  V30 3993 H 380.858 4.68721 1.8251 0
M  V30 3994 H 380.558 5.85361 0.512428 0
M  V30 3995 H 382.082 5.93342 1.44143 0
M  V30 3996 H 383.496 5.67474 -0.815224 0
M  V30 3997 H 381.893 5.7841 -1.59882 0
M  V30 3998 H 382.963 4.42424 -1.98468 0
M  V30 3999 N 384.306 0.507319 1.49211 0
M  V30 4000 C 385.552 -0.0350047 2.0277 0
M  V30 4001 C 385.885 -1.3606 1.38569 0
M  V30 4002 O 385.16 -1.87321 0.523542 0
M  V30 4003 C 385.443 -0.180916 3.59645 0
M  V30 4004 C 385.296 1.16825 4.34364 0
M  V30 4005 C 386.615 -0.918558 4.30407 0
M  V30 4006 H 383.734 -0.0112473 0.736914 0
M  V30 4007 H 386.376 0.659956 1.7817 0
M  V30 4008 H 384.526 -0.772826 3.80736 0
M  V30 4009 H 386.198 1.79952 4.24753 0
M  V30 4010 H 384.441 1.75594 3.96673 0
M  V30 4011 H 385.112 1.01939 5.42506 0
M  V30 4012 H 387.588 -0.41649 4.1401 0
M  V30 4013 H 386.464 -0.989505 5.39907 0
M  V30 4014 H 386.725 -1.96373 3.96093 0
M  V30 4015 N 385.784 -1.5574 0.241426 0
M  V30 4016 C 386.714 -2.24133 -0.654722 0
M  V30 4017 C 387.695 -1.21974 -1.1856 0
M  V30 4018 O 388.88 -1.50612 -1.22595 0
M  V30 4019 C 386.01 -2.93659 -1.85423 0
M  V30 4020 C 384.964 -4.0246 -1.45636 0
M  V30 4021 C 384.29 -4.59383 -2.73626 0
M  V30 4022 C 385.59 -5.18468 -0.631506 0
M  V30 4023 H 387.284 -2.99281 -0.0844353 0
M  V30 4024 H 384.83 -1.43947 -0.0391707 0
M  V30 4025 H 386.783 -3.40203 -2.48676 0
M  V30 4026 H 385.507 -2.15991 -2.44981 0
M  V30 4027 H 384.166 -3.56676 -0.847202 0
M  V30 4028 H 383.814 -3.78422 -3.3137 0
M  V30 4029 H 383.514 -5.32826 -2.4773 0
M  V30 4030 H 385.038 -5.08658 -3.37786 0
M  V30 4031 H 386.452 -5.61272 -1.1682 0
M  V30 4032 H 384.849 -5.98266 -0.468831 0
M  V30 4033 H 385.919 -4.8358 0.357506 0
M  V30 4034 N 387.262 0.0317525 -1.57568 0
M  V30 4035 C 388.195 1.06621 -2.0176 0
M  V30 4036 C 389.173 1.35323 -0.901462 0
M  V30 4037 O 390.357 1.48025 -1.16708 0
M  V30 4038 C 387.484 2.40155 -2.38837 0
M  V30 4039 C 386.53 2.27327 -3.60867 0
M  V30 4040 S 387.363 1.62925 -5.10113 0
M  V30 4041 C 388.519 2.97955 -5.5043 0
M  V30 4042 H 388.752 0.689781 -2.89187 0
M  V30 4043 H 386.285 0.24164 -1.52497 0
M  V30 4044 H 388.243 3.1695 -2.6087 0
M  V30 4045 H 386.904 2.74946 -1.51867 0
M  V30 4046 H 386.097 3.25898 -3.84456 0
M  V30 4047 H 385.699 1.58675 -3.38671 0
M  V30 4048 H 387.991 3.94285 -5.5095 0
M  V30 4049 H 388.934 2.79102 -6.50775 0
M  V30 4050 H 389.342 3.00404 -4.77931 0
M  V30 4051 N 388.74 1.54641 0.303973 0
M  V30 4052 C 389.986 1.74038 1.04109 0
M  V30 4053 C 390.319 0.523051 1.87024 0
M  V30 4054 O 389.594 -0.479874 1.88487 0
M  V30 4055 C 389.877 3.02761 1.94955 0
M  V30 4056 C 389.73 4.34787 1.1524 0
M  V30 4057 C 391.049 3.27336 2.94175 0
M  V30 4058 H 388.168 0.63323 0.377079 0
M  V30 4059 H 390.81 1.87354 0.316001 0
M  V30 4060 H 388.96 2.9154 2.56782 0
M  V30 4061 H 390.632 4.57922 0.557236 0
M  V30 4062 H 388.875 4.31407 0.455053 0
M  V30 4063 H 389.546 5.21116 1.8205 0
M  V30 4064 H 392.022 3.38148 2.42477 0
M  V30 4065 H 390.898 4.18726 3.54908 0
M  V30 4066 H 391.159 2.45491 3.67677 0
M  V30 4067 N 390.218 -0.567019 1.47046 0
M  V30 4068 C 391.464 -1.32658 1.53394 0
M  V30 4069 C 391.797 -1.93254 0.19148 0
M  V30 4070 O 391.072 -1.77338 -0.798844 0
M  V30 4071 C 391.355 -2.44412 2.64452 0
M  V30 4072 C 391.208 -1.88749 4.08282 0
M  V30 4073 C 392.527 -3.46387 2.71485 0
M  V30 4074 H 389.646 -0.48098 0.558415 0
M  V30 4075 H 392.288 -0.635481 1.79058 0
M  V30 4076 H 390.438 -3.03363 2.427 0
M  V30 4077 H 392.11 -1.34134 4.41368 0
M  V30 4078 H 390.353 -1.19481 4.17021 0
M  V30 4079 H 391.024 -2.69491 4.81745 0
M  V30 4080 H 393.5 -2.9734 2.91081 0
M  V30 4081 H 392.376 -4.2202 3.50985 0
M  V30 4082 H 392.637 -4.04616 1.78153 0
M  V30 4083 N 391.696 -1.35014 -0.812953 0
M  V30 4084 C 392.942 -1.2812 -1.57204 0
M  V30 4085 C 393.275 0.145869 -1.93651 0
M  V30 4086 O 392.55 1.0937 -1.60836 0
M  V30 4087 C 392.833 -2.18162 -2.86492 0
M  V30 4088 C 392.686 -3.69454 -2.56561 0
M  V30 4089 C 394.005 -2.07439 -3.88145 0
M  V30 4090 H 391.124 -0.466746 -0.570366 0
M  V30 4091 H 393.766 -1.65357 -0.935783 0
M  V30 4092 H 391.916 -1.86535 -3.40789 0
M  V30 4093 H 393.588 -4.11493 -2.08497 0
M  V30 4094 H 391.831 -3.9005 -1.89851 0
M  V30 4095 H 392.502 -4.27835 -3.48799 0
M  V30 4096 H 394.978 -2.35228 -3.4323 0
M  V30 4097 H 393.854 -2.7265 -4.76396 0
M  V30 4098 H 394.115 -1.05439 -4.29343 0
M  V30 4099 N 393.175 1.03435 -1.18907 0
M  V30 4100 C 394.421 1.77005 -0.989798 0
M  V30 4101 C 394.754 1.88205 0.478816 0
M  V30 4102 O 394.029 1.39481 1.35556 0
M  V30 4103 C 394.312 3.19925 -1.65287 0
M  V30 4104 C 394.165 3.1663 -3.19477 0
M  V30 4105 C 395.484 4.18189 -1.37134 0
M  V30 4106 H 392.603 0.642538 -0.360991 0
M  V30 4107 H 395.245 1.20784 -1.46667 0
M  V30 4108 H 393.395 3.67929 -1.24741 0
M  V30 4109 H 395.067 2.76567 -3.692 0
M  V30 4110 H 393.31 2.54491 -3.51307 0
M  V30 4111 H 393.981 4.1758 -3.61013 0
M  V30 4112 H 396.457 3.78761 -1.72276 0
M  V30 4113 H 395.333 5.16394 -1.86087 0
M  V30 4114 H 395.594 4.41112 -0.295424 0
M  V30 4115 N 394.653 0.992116 1.22453 0
M  V30 4116 C 395.9 0.667534 1.91181 0
M  V30 4117 C 396.228 -0.800317 1.77271 0
M  V30 4118 O 395.483 -1.59421 1.13505 0
M  V30 4119 C 395.782 1.01832 3.42586 0
M  V30 4120 C 395.448 2.47831 3.76684 0
M  V30 4121 C 394.11 2.87729 3.85701 0
M  V30 4122 C 396.462 3.42466 3.92895 0
M  V30 4123 C 393.79 4.21252 4.08367 0
M  V30 4124 C 396.142 4.75648 4.17064 0
M  V30 4125 C 394.806 5.15288 4.24305 0
M  V30 4126 H 394.076 0.244268 0.699581 0
M  V30 4127 H 396.723 1.24816 1.45235 0
M  V30 4128 H 395.028 0.355769 3.90181 0
M  V30 4129 H 396.725 0.745228 3.94014 0
M  V30 4130 H 393.315 2.15905 3.70247 0
M  V30 4131 H 397.499 3.12814 3.85307 0
M  V30 4132 H 392.755 4.51554 4.122 0
M  V30 4133 H 396.929 5.48924 4.2855 0
M  V30 4134 H 394.556 6.18769 4.41621 0
M  V30 4135 N 396.131 -1.37776 0.765217 0
M  V30 4136 C 397.377 -2.00145 0.327072 0
M  V30 4137 C 397.71 -1.60607 -1.09175 0
M  V30 4138 O 396.985 -0.849127 -1.74986 0
M  V30 4139 C 397.268 -3.57109 0.46319 0
M  V30 4140 C 397.121 -4.06576 1.92395 0
M  V30 4141 C 398.44 -4.39888 -0.136473 0
M  V30 4142 H 395.559 -0.727113 0.120316 0
M  V30 4143 H 398.201 -1.63549 0.967039 0
M  V30 4144 H 396.351 -3.88414 -0.0816358 0
M  V30 4145 H 398.023 -3.85864 2.52798 0
M  V30 4146 H 396.266 -3.59011 2.43503 0
M  V30 4147 H 396.937 -5.15639 1.97028 0
M  V30 4148 H 399.413 -4.14803 0.328317 0
M  V30 4149 H 398.289 -5.48899 -0.0110582 0
M  V30 4150 H 398.55 -4.24758 -1.22608 0
M  V30 4151 N 397.609 -0.515225 -1.4894 0
M  V30 4152 C 398.539 0.244628 -2.32215 0
M  V30 4153 C 399.52 0.949136 -1.41157 0
M  V30 4154 O 400.705 0.937783 -1.70057 0
M  V30 4155 C 397.835 1.30096 -3.22013 0
M  V30 4156 C 396.789 0.715486 -4.21977 0
M  V30 4157 C 396.115 1.87339 -5.00808 0
M  V30 4158 C 397.415 -0.302982 -5.2142 0
M  V30 4159 H 399.109 -0.450501 -2.95991 0
M  V30 4160 H 396.655 -0.218098 -1.42339 0
M  V30 4161 H 398.608 1.84037 -3.79089 0
M  V30 4162 H 397.332 2.02547 -2.56207 0
M  V30 4163 H 395.991 0.197715 -3.66066 0
M  V30 4164 H 395.639 2.58592 -4.31438 0
M  V30 4165 H 395.339 1.48764 -5.68457 0
M  V30 4166 H 396.863 2.41686 -5.60732 0
M  V30 4167 H 398.277 0.148802 -5.73107 0
M  V30 4168 H 396.674 -0.60532 -5.97039 0
M  V30 4169 H 397.744 -1.21395 -4.69459 0
M  V30 4170 N 399.087 1.5561 -0.249682 0
M  V30 4171 C 400.327 2.00916 0.37579 0
M  V30 4172 C 400.691 1.13409 1.54927 0
M  V30 4173 O 401.892 1.48183 2.24266 0
M  V30 4174 C 400.163 3.48949 0.772633 0
M  V30 4175 S 401.722 4.16261 1.38824 0
M  V30 4176 H 398.54 0.70112 0.118117 0
M  V30 4177 H 401.142 1.92052 -0.365567 0
M  V30 4178 H 399.846 4.103 -0.090683 0
M  V30 4179 H 399.377 3.61745 1.5461 0
M  V30 4180 H 401.392 4.17778 2.67724 0
M  V30 4181 N 400.565 -0.0233959 1.57583 0
M  V30 4182 C 401.811 -0.708611 1.90657 0
M  V30 4183 C 402.166 -1.7266 0.848895 0
M  V30 4184 O 401.459 -1.91075 -0.141749 0
M  V30 4185 C 401.653 -1.41428 3.28227 0
M  V30 4186 C 401.482 -0.466155 4.47277 0
M  V30 4187 C 400.252 -0.085117 5.05228 0
M  V30 4188 C 402.45 0.257836 5.13653 0
M  V30 4189 N 400.432 0.863672 6.07794 0
M  V30 4190 C 401.803 1.06209 6.10835 0
M  V30 4191 C 403.858 0.324174 4.96844 0
M  V30 4192 C 402.561 1.9266 6.93018 0
M  V30 4193 C 404.587 1.17583 5.79593 0
M  V30 4194 C 403.949 1.96799 6.7635 0
M  V30 4195 H 400.048 -0.233222 0.746412 0
M  V30 4196 H 402.632 0.0314512 1.94675 0
M  V30 4197 H 400.803 -2.12477 3.25128 0
M  V30 4198 H 402.535 -2.05233 3.488 0
M  V30 4199 H 399.29 -0.448516 4.71471 0
M  V30 4200 H 399.714 1.33274 6.63752 0
M  V30 4201 H 404.356 -0.273975 4.21911 0
M  V30 4202 H 402.074 2.53552 7.67292 0
M  V30 4203 H 405.66 1.23076 5.68633 0
M  V30 4204 H 404.54 2.61635 7.39268 0
M  V30 4205 N 402.043 -1.548 -0.295768 0
M  V30 4206 C 402.976 -1.81003 -1.38972 0
M  V30 4207 C 403.954 -0.661544 -1.48534 0
M  V30 4208 O 405.138 -0.902074 -1.65514 0
M  V30 4209 C 402.265 -1.95141 -2.76835 0
M  V30 4210 C 401.311 -3.17592 -2.84671 0
M  V30 4211 S 402.144 -4.75531 -2.46232 0
M  V30 4212 C 403.3 -4.92613 -3.86114 0
M  V30 4213 H 403.533 -2.73507 -1.16537 0
M  V30 4214 H 401.066 -1.46278 -0.494168 0
M  V30 4215 H 403.024 -2.03972 -3.56238 0
M  V30 4216 H 401.685 -1.03565 -2.96535 0
M  V30 4217 H 400.878 -3.24303 -3.85803 0
M  V30 4218 H 400.48 -3.07235 -2.13267 0
M  V30 4219 H 402.772 -4.76957 -4.81164 0
M  V30 4220 H 403.715 -5.94698 -3.8437 0
M  V30 4221 H 404.123 -4.2073 -3.76359 0
M  V30 4222 N 403.521 0.559213 -1.47345 0
M  V30 4223 C 404.932 1.14134 -1.47751 0
M  V30 4224 C 405.283 1.94834 -0.231103 0
M  V30 4225 O 404.408 2.05957 0.664137 0
M  V30 4226 C 405.003 2.07653 -2.67705 0
M  V30 4227 C 403.562 2.61141 -2.71076 0
M  V30 4228 C 402.709 1.3748 -2.40821 0
M  V30 4229 H 405.66 0.345917 -1.54884 0
M  V30 4230 H 405.681 2.91497 -2.44561 0
M  V30 4231 H 405.193 1.4889 -3.58404 0
M  V30 4232 H 403.294 3.23707 -1.84511 0
M  V30 4233 H 403.407 3.02272 -3.7171 0
M  V30 4234 H 401.771 1.68086 -1.91362 0
M  V30 4235 H 402.554 0.805135 -3.33725 0
M  V30 4236 N 404.999 1.35443 0.805782 0
M  V30 4237 C 406.246 1.28761 1.56291 0
M  V30 4238 C 406.574 -0.137747 1.94012 0
M  V30 4239 O 405.829 -1.1032 1.61642 0
M  V30 4240 C 406.128 2.14045 2.86216 0
M  V30 4241 C 405.794 3.62826 2.67709 0
M  V30 4242 C 404.456 4.0338 2.6237 0
M  V30 4243 C 406.808 4.57227 2.50186 0
M  V30 4244 C 404.136 5.36501 2.37451 0
M  V30 4245 C 406.488 5.90547 2.26797 0
M  V30 4246 C 405.152 6.30245 2.1988 0
M  V30 4247 H 404.422 0.471171 0.571908 0
M  V30 4248 H 407.069 1.67347 0.930974 0
M  V30 4249 H 405.374 1.68342 3.53791 0
M  V30 4250 H 407.071 2.0621 3.43917 0
M  V30 4251 H 403.661 3.30644 2.72713 0
M  V30 4252 H 407.845 4.2678 2.53323 0
M  V30 4253 H 403.101 5.66259 2.30567 0
M  V30 4254 H 407.275 6.63274 2.12228 0
M  V30 4255 H 404.902 7.33328 2.00333 0
M  V30 4256 N 406.477 -1.02803 1.19454 0
M  V30 4257 C 407.707 -1.79581 1.02149 0
M  V30 4258 C 408.115 -1.84182 -0.432851 0
M  V30 4259 O 407.458 -1.28534 -1.31243 0
M  V30 4260 C 407.52 -3.25993 1.51554 0
M  V30 4261 C 407.184 -3.45025 2.99678 0
M  V30 4262 C 408.181 -3.35175 3.97434 0
M  V30 4263 C 405.866 -3.71212 3.38389 0
M  V30 4264 C 407.86 -3.51238 5.31893 0
M  V30 4265 C 405.547 -3.8692 4.73008 0
M  V30 4266 C 406.545 -3.76936 5.69569 0
M  V30 4267 O 406.233 -3.92179 7.01748 0
M  V30 4268 H 405.965 -0.571962 0.360327 0
M  V30 4269 H 408.519 -1.30367 1.58725 0
M  V30 4270 H 406.749 -3.76235 0.893543 0
M  V30 4271 H 408.438 -3.84368 1.30444 0
M  V30 4272 H 409.204 -3.14895 3.68872 0
M  V30 4273 H 405.083 -3.78075 2.6378 0
M  V30 4274 H 408.627 -3.43362 6.07247 0
M  V30 4275 H 404.524 -4.06699 5.01265 0
M  V30 4276 H 405.292 -4.09265 7.08833 0
M  V30 4277 N 407.956 -0.998596 -1.21925 0
M  V30 4278 C 409.202 -0.678667 -1.91107 0
M  V30 4279 C 409.535 0.78791 -1.77498 0
M  V30 4280 O 408.81 1.57043 -1.1475 0
M  V30 4281 C 409.093 -1.09245 -3.43129 0
M  V30 4282 C 408.946 -2.61801 -3.6576 0
M  V30 4283 C 410.265 -0.649984 -4.35274 0
M  V30 4284 H 407.384 -0.248025 -0.694012 0
M  V30 4285 H 410.026 -1.24314 -1.43688 0
M  V30 4286 H 408.176 -0.612171 -3.83647 0
M  V30 4287 H 409.848 -3.17543 -3.34611 0
M  V30 4288 H 408.091 -3.03609 -3.09845 0
M  V30 4289 H 408.762 -2.85804 -4.7225 0
M  V30 4290 H 411.238 -1.0626 -4.02303 0
M  V30 4291 H 410.114 -0.967743 -5.40302 0
M  V30 4292 H 410.375 0.449139 -4.39813 0
M  V30 4293 N 409.434 1.37368 -0.772513 0
M  V30 4294 C 410.68 1.99969 -0.337681 0
M  V30 4295 C 411.013 1.61184 1.08321 0
M  V30 4296 O 410.288 0.858395 1.74533 0
M  V30 4297 C 410.571 3.56858 -0.482121 0
M  V30 4298 C 410.424 4.0555 -1.94549 0
M  V30 4299 C 411.743 4.39955 0.113143 0
M  V30 4300 H 408.862 0.726464 -0.124171 0
M  V30 4301 H 411.504 1.63034 -0.975699 0
M  V30 4302 H 409.654 3.88452 0.0610361 0
M  V30 4303 H 411.326 3.84518 -2.54841 0
M  V30 4304 H 409.569 3.57715 -2.45403 0
M  V30 4305 H 410.24 5.14587 -1.9976 0
M  V30 4306 H 412.716 4.14623 -0.35031 0
M  V30 4307 H 411.592 5.48897 -0.0180514 0
M  V30 4308 H 411.853 4.25403 1.20354 0
M  V30 4309 N 410.912 0.523116 1.48665 0
M  V30 4310 C 411.844 -0.280421 2.27478 0
M  V30 4311 C 412.857 -0.910694 1.34945 0
M  V30 4312 O 414.046 -0.790295 1.60052 0
M  V30 4313 C 411.146 -1.41171 3.08097 0
M  V30 4314 C 410.319 -0.884642 4.28361 0
M  V30 4315 C 409.378 -1.89622 4.90846 0
M  V30 4316 O 408.404 -1.4559 5.50265 0
M  V30 4317 N 409.606 -3.22801 4.82472 0
M  V30 4318 H 412.371 0.395481 2.97079 0
M  V30 4319 H 409.932 0.357018 1.57915 0
M  V30 4320 H 411.924 -2.08645 3.4677 0
M  V30 4321 H 410.494 -1.99139 2.40961 0
M  V30 4322 H 409.714 -0.0341177 3.94185 0
M  V30 4323 H 411.002 -0.511268 5.06225 0
M  V30 4324 H 410.4 -3.61246 4.35336 0
M  V30 4325 H 408.957 -3.85927 5.25265 0
M  V30 4326 N 412.39 -1.55475 0.257931 0
M  V30 4327 C 413.32 -2.24815 -0.630912 0
M  V30 4328 C 414.301 -1.23224 -1.17259 0
M  V30 4329 O 415.486 -1.51904 -1.20991 0
M  V30 4330 C 412.616 -2.95609 -1.82298 0
M  V30 4331 C 411.57 -4.03982 -1.41359 0
M  V30 4332 C 410.896 -4.6226 -2.68738 0
M  V30 4333 C 412.196 -5.19109 -0.57648 0
M  V30 4334 H 413.89 -2.99354 -0.0526878 0
M  V30 4335 H 411.436 -1.4398 -0.023901 0
M  V30 4336 H 413.389 -3.42822 -2.45054 0
M  V30 4337 H 412.113 -2.18577 -2.42676 0
M  V30 4338 H 410.772 -3.57555 -0.809324 0
M  V30 4339 H 410.42 -3.81915 -3.27338 0
M  V30 4340 H 410.12 -5.35424 -2.42065 0
M  V30 4341 H 411.644 -5.12212 -3.32372 0
M  V30 4342 H 413.058 -5.62479 -1.10861 0
M  V30 4343 H 411.455 -5.98729 -0.405351 0
M  V30 4344 H 412.525 -4.83174 0.408776 0
M  V30 4345 N 413.868 0.0150385 -1.57593 0
M  V30 4346 C 414.798 1.01047 -2.10503 0
M  V30 4347 C 415.779 1.36816 -1.01071 0
M  V30 4348 O 416.964 1.45455 -1.28672 0
M  V30 4349 C 414.094 2.30708 -2.59598 0
M  V30 4350 C 413.048 2.09142 -3.73421 0
M  V30 4351 C 412.374 3.44685 -4.08774 0
M  V30 4352 C 413.674 1.46619 -5.01298 0
M  V30 4353 H 415.368 0.569978 -2.93925 0
M  V30 4354 H 412.914 0.272724 -1.41394 0
M  V30 4355 H 414.867 3.00687 -2.95238 0
M  V30 4356 H 413.591 2.76843 -1.73279 0
M  V30 4357 H 412.25 1.41592 -3.38153 0
M  V30 4358 H 411.898 3.88495 -3.195 0
M  V30 4359 H 411.598 3.31077 -4.8545 0
M  V30 4360 H 413.122 4.16004 -4.4696 0
M  V30 4361 H 414.536 2.06535 -5.34805 0
M  V30 4362 H 412.933 1.43544 -5.82679 0
M  V30 4363 H 414.003 0.433611 -4.82957 0
M  V30 4364 N 415.346 1.54954 0.287554 0
M  V30 4365 C 416.294 1.87606 1.37502 0
M  V30 4366 C 417.288 0.751001 1.51843 0
M  V30 4367 O 418.494 0.935169 1.53801 0
M  V30 4368 H 414.869 0.595231 0.459569 0
M  V30 4369 H 416.84 2.78477 1.07206 0
M  V30 4370 C 415.589 2.15183 2.73115 0
M  V30 4371 H 414.912 3.01234 2.62866 0
M  V30 4372 H 416.352 2.4196 3.48183 0
M  V30 4373 C 414.811 0.954686 3.2309 0
M  V30 4374 O 415.341 0.181949 4.01288 0
M  V30 4375 N 413.547 0.756368 2.80584 0
M  V30 4376 H 413.094 1.38643 2.17108 0
M  V30 4377 H 413.052 -0.0430391 3.14371 0
M  V30 4378 N 416.824 -0.551391 1.4764 0
M  V30 4379 C 417.754 -1.66757 1.63445 0
M  V30 4380 C 418.735 -1.63077 0.483742 0
M  V30 4381 O 419.92 -1.80607 0.71377 0
M  V30 4382 C 417.05 -3.05387 1.65396 0
M  V30 4383 C 416.004 -3.23918 2.79752 0
M  V30 4384 C 415.33 -4.63393 2.66779 0
M  V30 4385 C 416.63 -3.08735 4.21284 0
M  V30 4386 H 418.324 -1.53786 2.56886 0
M  V30 4387 H 415.87 -0.738415 1.23626 0
M  V30 4388 H 417.823 -3.83325 1.75043 0
M  V30 4389 H 416.547 -3.19332 0.685195 0
M  V30 4390 H 415.206 -2.48391 2.69625 0
M  V30 4391 H 414.854 -4.74144 1.67918 0
M  V30 4392 H 414.554 -4.7674 3.43501 0
M  V30 4393 H 416.078 -5.43458 2.78364 0
M  V30 4394 H 417.492 -3.76484 4.32357 0
M  V30 4395 H 415.889 -3.33588 4.98838 0
M  V30 4396 H 416.959 -2.0541 4.39243 0
M  V30 4397 N 418.302 -1.35869 -0.798587 0
M  V30 4398 C 419.549 -1.29588 -1.55606 0
M  V30 4399 C 419.877 0.127456 -1.94082 0
M  V30 4400 O 419.132 1.09461 -1.62225 0
M  V30 4401 C 419.431 -2.1556 -2.85077 0
M  V30 4402 C 419.097 -3.6424 -2.65781 0
M  V30 4403 C 417.759 -4.04766 -2.60227 0
M  V30 4404 C 420.111 -4.58547 -2.47758 0
M  V30 4405 C 417.439 -5.37753 -2.34603 0
M  V30 4406 C 419.791 -5.91742 -2.23662 0
M  V30 4407 C 418.455 -6.31402 -2.16534 0
M  V30 4408 H 417.725 -0.474197 -0.569402 0
M  V30 4409 H 420.372 -1.67839 -0.922086 0
M  V30 4410 H 418.677 -1.70216 -3.52893 0
M  V30 4411 H 420.374 -2.08031 -3.42818 0
M  V30 4412 H 416.964 -3.32086 -2.70956 0
M  V30 4413 H 421.148 -4.28117 -2.51056 0
M  V30 4414 H 416.404 -5.67474 -2.2756 0
M  V30 4415 H 420.578 -6.6439 -2.08708 0
M  V30 4416 H 418.205 -7.34381 -1.96441 0
M  V30 4417 N 419.78 1.02168 -1.19998 0
M  V30 4418 C 421.026 1.75945 -1.00852 0
M  V30 4419 C 421.359 1.88702 0.458828 0
M  V30 4420 O 420.634 1.40911 1.34069 0
M  V30 4421 C 420.917 3.18154 -1.68671 0
M  V30 4422 C 420.77 3.13224 -3.22817 0
M  V30 4423 C 422.089 4.16711 -1.41561 0
M  V30 4424 H 419.208 0.638673 -0.367785 0
M  V30 4425 H 421.85 1.19222 -1.4794 0
M  V30 4426 H 420 3.66586 -1.28636 0
M  V30 4427 H 421.672 2.72635 -3.72112 0
M  V30 4428 H 419.915 2.50751 -3.53986 0
M  V30 4429 H 420.586 4.13728 -3.65422 0
M  V30 4430 H 423.062 3.76913 -1.76284 0
M  V30 4431 H 421.938 5.14391 -1.91553 0
M  V30 4432 H 422.199 4.40774 -0.342193 0
M  V30 4433 N 421.258 1.00505 1.21394 0
M  V30 4434 C 422.486 0.706609 1.9446 0
M  V30 4435 C 422.901 -0.73081 1.74082 0
M  V30 4436 O 422.258 -1.49446 1.04747 0
M  V30 4437 C 422.309 1.01824 3.46863 0
M  V30 4438 O 422.03 2.39919 3.66566 0
M  V30 4439 C 423.531 0.739216 4.37093 0
M  V30 4440 H 420.751 0.260394 0.618414 0
M  V30 4441 H 423.295 1.34311 1.54211 0
M  V30 4442 H 421.45 0.427343 3.85036 0
M  V30 4443 H 421.864 2.50784 4.6066 0
M  V30 4444 H 423.338 1.00744 5.42729 0
M  V30 4445 H 423.815 -0.326746 4.37983 0
M  V30 4446 H 424.421 1.31173 4.04566 0
M  V30 4447 N 422.737 -1.36956 0.779787 0
M  V30 4448 C 423.962 -2.04283 0.358224 0
M  V30 4449 C 424.387 -1.58422 -1.01411 0
M  V30 4450 O 423.745 -0.748179 -1.65142 0
M  V30 4451 C 423.793 -3.58152 0.419479 0
M  V30 4452 O 422.897 -4.08342 -0.577142 0
M  V30 4453 H 422.238 -0.645967 0.153698 0
M  V30 4454 H 424.768 -1.75108 1.05822 0
M  V30 4455 H 424.778 -4.07041 0.279636 0
M  V30 4456 H 423.453 -3.90886 1.42061 0
M  V30 4457 H 422.03 -3.70751 -0.399755 0
M  V30 4458 N 424.215 -0.530993 -1.48385 0
M  V30 4459 C 425.145 0.219985 -2.32461 0
M  V30 4460 C 426.126 0.934111 -1.42156 0
M  V30 4461 O 427.311 0.919694 -1.71042 0
M  V30 4462 C 424.441 1.26674 -3.23375 0
M  V30 4463 C 423.395 0.67069 -4.22712 0
M  V30 4464 C 422.721 1.82017 -5.02766 0
M  V30 4465 C 424.021 -0.358268 -5.2107 0
M  V30 4466 H 425.715 -0.48187 -2.95497 0
M  V30 4467 H 423.261 -0.233182 -1.42099 0
M  V30 4468 H 425.214 1.80006 -3.81019 0
M  V30 4469 H 423.938 1.99818 -2.58341 0
M  V30 4470 H 422.597 0.158878 -3.66256 0
M  V30 4471 H 422.245 2.54002 -4.34157 0
M  V30 4472 H 421.945 1.42727 -5.70003 0
M  V30 4473 H 423.469 2.35725 -5.63264 0
M  V30 4474 H 424.883 0.0880081 -5.73232 0
M  V30 4475 H 423.28 -0.66861 -5.96364 0
M  V30 4476 H 424.35 -1.26367 -4.68145 0
M  V30 4477 N 425.693 1.55336 -0.266172 0
M  V30 4478 C 426.97 1.91372 0.404486 0
M  V30 4479 C 427.35 1.18935 1.74407 0
M  V30 4480 O 426.698 0.3132 2.26343 0
M  V30 4481 C 426.908 3.44581 0.553593 0
M  V30 4482 C 428.256 4.16196 0.840618 0
M  V30 4483 O 429.28 3.50426 0.638739 0
M  V30 4484 O 428.139 5.32567 1.22618 0
M  V30 4485 H 425.233 0.797194 0.220025 0
M  V30 4486 H 427.779 1.66813 -0.311664 0
M  V30 4487 H 426.551 3.89357 -0.389498 0
M  V30 4488 H 426.174 3.75065 1.31955 0
M  V30 4489 N 427.171 -0.0066808 1.57599 0
M  V30 4490 C 428.134 -0.985035 2.06953 0
M  V30 4491 C 429.134 -1.27663 0.977687 0
M  V30 4492 O 430.324 -1.22293 1.24057 0
M  V30 4493 C 427.456 -2.3118 2.50536 0
M  V30 4494 H 428.649 -0.558255 2.94658 0
M  V30 4495 H 426.202 -0.254011 1.54222 0
M  V30 4496 H 426.937 -2.78561 1.66054 0
M  V30 4497 H 426.722 -2.11338 3.3027 0
M  V30 4498 H 428.212 -3.01377 2.8907 0
M  V30 4499 N 428.649 -1.55105 -0.279332 0
M  V30 4500 C 429.877 -1.7943 -1.03017 0
M  V30 4501 C 430.292 -0.564456 -1.80165 0
M  V30 4502 O 429.649 0.466326 -1.76442 0
M  V30 4503 C 429.7 -3.0155 -1.99374 0
M  V30 4504 O 429.421 -4.19784 -1.25352 0
M  V30 4505 C 430.922 -3.3843 -2.86321 0
M  V30 4506 H 428.142 -0.597882 -0.304594 0
M  V30 4507 H 430.686 -2.02105 -0.312035 0
M  V30 4508 H 428.841 -2.81019 -2.66659 0
M  V30 4509 H 429.255 -4.88781 -1.90246 0
M  V30 4510 H 430.729 -4.27066 -3.49741 0
M  V30 4511 H 431.206 -2.57549 -3.5576 0
M  V30 4512 H 431.812 -3.61197 -2.24536 0
M  V30 4513 N 430.127 0.543554 -1.4793 0
M  V30 4514 C 431.373 1.30201 -1.55485 0
M  V30 4515 C 431.706 1.92925 -0.222201 0
M  V30 4516 O 430.981 1.78586 0.77053 0
M  V30 4517 C 431.264 2.40174 -2.68307 0
M  V30 4518 C 431.117 1.8223 -4.11233 0
M  V30 4519 C 432.436 3.42024 -2.76961 0
M  V30 4520 H 429.555 0.472036 -0.565996 0
M  V30 4521 H 432.197 0.606914 -1.80046 0
M  V30 4522 H 430.347 2.99463 -2.47495 0
M  V30 4523 H 432.019 1.27096 -4.43446 0
M  V30 4524 H 430.262 1.12832 -4.18869 0
M  V30 4525 H 430.933 2.61793 -4.85972 0
M  V30 4526 H 433.409 2.92672 -2.95774 0
M  V30 4527 H 432.285 4.16383 -3.57654 0
M  V30 4528 H 432.546 4.0173 -1.84568 0
M  V30 4529 N 431.605 1.3629 0.791371 0
M  V30 4530 C 432.553 1.30514 1.92533 0
M  V30 4531 C 433.547 0.197285 1.68247 0
M  V30 4532 O 434.753 0.364176 1.76278 0
M  V30 4533 H 431.128 0.406263 0.632815 0
M  V30 4534 H 433.099 2.26282 1.94523 0
M  V30 4535 C 431.848 1.10933 3.29529 0
M  V30 4536 H 431.171 1.95427 3.48781 0
M  V30 4537 H 432.611 1.10937 4.0923 0
M  V30 4538 C 431.07 -0.186123 3.36385 0
M  V30 4539 O 431.6 -1.17664 3.84081 0
M  V30 4540 N 429.806 -0.230128 2.89687 0
M  V30 4541 H 429.353 0.576545 2.51065 0
M  V30 4542 H 429.311 -1.09658 2.94657 0
M  V30 4543 N 433.083 -1.0153 1.20538 0
M  V30 4544 C 434.033 -2.08482 0.922991 0
M  V30 4545 C 435.017 -1.60469 -0.117702 0
M  V30 4546 O 436.209 -1.76772 0.0898465 0
M  V30 4547 C 433.338 -3.39952 0.478312 0
M  V30 4548 C 432.424 -3.94662 1.5525 0
M  V30 4549 N 432.815 -4.22866 2.77521 0
M  V30 4550 C 431.113 -4.22825 1.41897 0
M  V30 4551 C 431.814 -4.67002 3.4682 0
M  V30 4552 N 430.79 -4.69356 2.74237 0
M  V30 4553 H 434.592 -2.28199 1.85209 0
M  V30 4554 H 432.106 -1.19512 1.09957 0
M  V30 4555 H 434.103 -4.16105 0.257408 0
M  V30 4556 H 432.763 -3.21648 -0.444148 0
M  V30 4557 H 433.774 -4.11732 3.1416 0
M  V30 4558 H 430.451 -4.13714 0.561015 0
M  V30 4559 H 431.841 -4.97632 4.51455 0
M  V30 4560 N 434.561 -1.01147 -1.20859 0
M  V30 4561 C 435.807 -0.698899 -1.90377 0
M  V30 4562 C 436.14 0.76904 -1.78324 0
M  V30 4563 O 435.415 1.55817 -1.16409 0
M  V30 4564 C 435.698 -1.12878 -3.41951 0
M  V30 4565 C 435.551 -2.65665 -3.62963 0
M  V30 4566 C 436.87 -0.696114 -4.3456 0
M  V30 4567 H 433.989 -0.255372 -0.691342 0
M  V30 4568 H 436.631 -1.25831 -1.42361 0
M  V30 4569 H 434.781 -0.652827 -3.82976 0
M  V30 4570 H 436.453 -3.21074 -3.31224 0
M  V30 4571 H 434.696 -3.06878 -3.06608 0
M  V30 4572 H 435.367 -2.90797 -4.69192 0
M  V30 4573 H 437.843 -1.10521 -4.01154 0
M  V30 4574 H 436.719 -1.025 -5.39245 0
M  V30 4575 H 436.98 0.402465 -4.40264 0
M  V30 4576 N 436.039 1.36541 -0.78704 0
M  V30 4577 C 437.264 2.0409 -0.369053 0
M  V30 4578 C 437.689 1.58957 1.00569 0
M  V30 4579 O 437.047 0.756926 1.64743 0
M  V30 4580 C 437.095 3.57924 -0.438466 0
M  V30 4581 O 436.199 4.08642 0.555479 0
M  V30 4582 H 435.54 0.645142 -0.157122 0
M  V30 4583 H 438.07 1.74545 -1.06749 0
M  V30 4584 H 438.08 4.06887 -0.301218 0
M  V30 4585 H 436.755 3.90127 -1.44132 0
M  V30 4586 H 435.332 3.70958 0.380088 0
M  V30 4587 N 437.518 0.538854 1.48102 0
M  V30 4588 C 438.448 -0.207654 2.32575 0
M  V30 4589 C 439.429 -0.926559 1.4265 0
M  V30 4590 O 440.614 -0.91061 1.71527 0
M  V30 4591 C 437.744 -1.24957 3.24042 0
M  V30 4592 C 436.698 -0.648263 4.23062 0
M  V30 4593 C 436.024 -1.79348 5.03725 0
M  V30 4594 C 437.324 0.385897 5.20872 0
M  V30 4595 H 439.018 0.497534 2.95237 0
M  V30 4596 H 436.564 0.240715 1.41974 0
M  V30 4597 H 438.517 -1.77983 3.81969 0
M  V30 4598 H 437.241 -1.98446 2.59397 0
M  V30 4599 H 435.9 -0.139452 3.66335 0
M  V30 4600 H 435.548 -2.51696 4.35498 0
M  V30 4601 H 435.248 -1.39702 5.70751 0
M  V30 4602 H 436.772 -2.32735 5.64506 0
M  V30 4603 H 438.186 -0.057607 5.73271 0
M  V30 4604 H 436.583 0.700227 5.96001 0
M  V30 4605 H 437.653 1.28848 4.67468 0
M  V30 4606 N 438.996 -1.55193 0.274407 0
M  V30 4607 C 440.245 -1.98758 -0.343213 0
M  V30 4608 C 440.558 -1.16624 -1.5703 0
M  V30 4609 O 441.764 -1.5033 -2.26082 0
M  V30 4610 C 440.22 -3.53759 -0.661996 0
M  V30 4611 C 439.828 -4.4467 0.54524 0
M  V30 4612 C 441.572 -4.05916 -1.24228 0
M  V30 4613 C 439.479 -5.91058 0.201084 0
M  V30 4614 H 438.409 -0.742353 -0.132014 0
M  V30 4615 H 441.06 -1.79545 0.378948 0
M  V30 4616 H 439.442 -3.68772 -1.44304 0
M  V30 4617 H 440.616 -4.41426 1.32212 0
M  V30 4618 H 438.931 -4.03143 1.04232 0
M  V30 4619 H 441.528 -5.12831 -1.51357 0
M  V30 4620 H 441.871 -3.54908 -2.17592 0
M  V30 4621 H 442.404 -3.9434 -0.523542 0
M  V30 4622 H 439.143 -6.46161 1.10258 0
M  V30 4623 H 438.663 -5.97373 -0.539045 0
M  V30 4624 H 440.342 -6.46669 -0.206954 0
M  V30 4625 N 440.474 -0.00167713 -1.576 0
M  V30 4626 C 441.404 0.988091 -2.11563 0
M  V30 4627 C 442.385 1.35736 -1.02517 0
M  V30 4628 O 443.57 1.44082 -1.30208 0
M  V30 4629 C 440.7 2.27941 -2.62031 0
M  V30 4630 C 439.654 2.0517 -3.75619 0
M  V30 4631 C 438.98 3.4033 -4.12407 0
M  V30 4632 C 440.28 1.41294 -5.02825 0
M  V30 4633 H 441.974 0.538771 -2.94513 0
M  V30 4634 H 439.52 0.257712 -1.41675 0
M  V30 4635 H 441.473 2.97539 -2.9841 0
M  V30 4636 H 440.197 2.74989 -1.76205 0
M  V30 4637 H 438.856 1.37998 -3.39635 0
M  V30 4638 H 438.504 3.85085 -3.23603 0
M  V30 4639 H 438.204 3.25909 -4.88935 0
M  V30 4640 H 439.728 4.1124 -4.51347 0
M  V30 4641 H 441.142 2.00851 -5.36965 0
M  V30 4642 H 439.539 1.37356 -5.84169 0
M  V30 4643 H 440.609 0.382362 -4.8339 0
M  V30 4644 N 441.952 1.55251 0.271103 0
M  V30 4645 C 443.177 1.80306 1.02491 0
M  V30 4646 C 443.602 0.575457 1.79081 0
M  V30 4647 O 442.96 -0.474987 1.74967 0
M  V30 4648 C 443.008 3.02832 1.95768 0
M  V30 4649 O 442.112 2.78051 3.04568 0
M  V30 4650 H 441.453 0.595896 0.292923 0
M  V30 4651 H 443.983 2.02397 0.299436 0
M  V30 4652 H 443.993 3.31616 2.37686 0
M  V30 4653 H 442.668 3.9183 1.39434 0
M  V30 4654 H 441.245 2.60369 2.66951 0
M  V30 4655 N 443.43 -0.535701 1.48216 0
M  V30 4656 C 444.66 -1.3148 1.59363 0
M  V30 4657 C 445.068 -1.8753 0.250844 0
M  V30 4658 O 444.411 -1.66821 -0.769174 0
M  V30 4659 C 444.473 -2.50731 2.57632 0
M  V30 4660 C 444.137 -2.15811 4.02833 0
M  V30 4661 C 445.134 -1.71822 4.90686 0
M  V30 4662 C 442.819 -2.26509 4.48329 0
M  V30 4663 C 444.813 -1.3899 6.22062 0
M  V30 4664 C 442.5 -1.93289 5.79726 0
M  V30 4665 C 443.498 -1.49599 6.66415 0
M  V30 4666 O 443.186 -1.16812 7.95368 0
M  V30 4667 H 442.918 -0.406315 0.540263 0
M  V30 4668 H 445.472 -0.653569 1.94725 0
M  V30 4669 H 443.702 -3.19817 2.1738 0
M  V30 4670 H 445.391 -3.12797 2.58675 0
M  V30 4671 H 446.157 -1.63031 4.56778 0
M  V30 4672 H 442.036 -2.59471 3.81045 0
M  V30 4673 H 445.58 -1.04816 6.89681 0
M  V30 4674 H 441.477 -2.01718 6.13172 0
M  V30 4675 H 442.245 -1.30259 8.08069 0
M  V30 4676 N 444.908 -1.36708 -0.784132 0
M  V30 4677 C 445.871 -1.31307 -1.87859 0
M  V30 4678 C 446.871 -0.219654 -1.59293 0
M  V30 4679 O 448.061 -0.47476 -1.67606 0
M  V30 4680 C 445.193 -1.03679 -3.24751 0
M  V30 4681 H 446.386 -2.28647 -1.94064 0
M  V30 4682 H 443.939 -1.21558 -0.98252 0
M  V30 4683 H 444.674 -0.0681936 -3.24228 0
M  V30 4684 H 444.459 -1.82811 -3.46876 0
M  V30 4685 H 445.949 -1.02518 -4.04821 0
M  V30 4686 N 446.386 1.0089 -1.21074 0
M  V30 4687 C 447.334 2.11707 -0.963476 0
M  V30 4688 C 448.328 1.69172 0.0879032 0
M  V30 4689 O 449.534 1.79889 -0.0631415 0
M  V30 4690 H 445.909 0.692026 -0.294287 0
M  V30 4691 H 447.88 2.29743 -1.90422 0
M  V30 4692 C 446.629 3.43473 -0.540509 0
M  V30 4693 H 445.952 3.76634 -1.34114 0
M  V30 4694 H 447.392 4.22044 -0.406777 0
M  V30 4695 C 445.851 3.2849 0.748079 0
M  V30 4696 O 446.381 3.58883 1.8046 0
M  V30 4697 N 444.587 2.81715 0.713081 0
M  V30 4698 H 444.134 2.5718 -0.146973 0
M  V30 4699 H 444.092 2.72071 1.57558 0
M  V30 4700 N 447.864 1.01787 1.20321 0
M  V30 4701 C 449.089 0.727009 1.9424 0
M  V30 4702 C 449.514 -0.706179 1.74341 0
M  V30 4703 O 448.872 -1.48609 1.03852 0
M  V30 4704 C 448.92 1.06958 3.44372 0
M  V30 4705 O 448.024 0.181983 4.11998 0
M  V30 4706 H 447.365 0.269626 0.606793 0
M  V30 4707 H 449.895 1.36158 1.52716 0
M  V30 4708 H 449.905 1.02182 3.94997 0
M  V30 4709 H 448.58 2.11378 3.58179 0
M  V30 4710 H 447.157 0.287378 3.71791 0
M  V30 4711 N 449.342 -1.36122 0.79427 0
M  V30 4712 C 450.582 -2.00942 0.374376 0
M  V30 4713 C 450.946 -1.61666 -1.03577 0
M  V30 4714 O 452.147 -2.19113 -1.55701 0
M  V30 4715 C 450.418 -3.53323 0.538327 0
M  V30 4716 S 451.977 -4.38311 0.20703 0
M  V30 4717 H 448.795 -0.696515 0.142785 0
M  V30 4718 H 451.397 -1.65929 1.03382 0
M  V30 4719 H 450.101 -3.79395 1.56484 0
M  V30 4720 H 449.632 -3.93162 -0.136882 0
M  V30 4721 H 451.647 -4.8623 -0.989695 0
M  V30 4722 N 450.82 -0.546701 -1.47814 0
M  V30 4723 C 451.783 0.196287 -2.28358 0
M  V30 4724 C 452.783 0.852437 -1.36346 0
M  V30 4725 O 453.973 0.709913 -1.59078 0
M  V30 4726 C 451.105 1.28579 -3.15722 0
M  V30 4727 H 452.298 -0.511086 -2.95513 0
M  V30 4728 H 449.851 -0.303248 -1.5333 0
M  V30 4729 H 450.586 2.0259 -2.53235 0
M  V30 4730 H 450.371 0.820229 -3.83425 0
M  V30 4731 H 451.861 1.80793 -3.76435 0
M  V30 4732 N 452.299 1.55045 -0.282633 0
M  V30 4733 C 453.247 2.24254 0.617478 0
M  V30 4734 C 454.241 1.24215 1.15183 0
M  V30 4735 O 455.447 1.42123 1.10459 0
M  V30 4736 H 451.822 0.719801 0.217693 0
M  V30 4737 H 453.793 2.98398 0.0110076 0
M  V30 4738 C 452.542 2.98281 1.78672 0
M  V30 4739 H 451.865 3.75053 1.38475 0
M  V30 4740 H 453.305 3.50017 2.393 0
M  V30 4741 C 451.764 2.04184 2.67975 0
M  V30 4742 O 452.294 1.59792 3.6855 0
M  V30 4743 N 450.5 1.70526 2.35307 0
M  V30 4744 H 450.047 2.06821 1.53567 0
M  V30 4745 H 450.005 1.07839 2.95327 0
M  V30 4746 N 453.777 0.010035 1.57597 0
M  V30 4747 C 455.188 -0.531426 1.78977 0
M  V30 4748 C 455.539 -1.73375 0.918454 0
M  V30 4749 O 454.664 -2.16047 0.123635 0
M  V30 4750 C 455.259 -0.97086 3.24592 0
M  V30 4751 C 453.818 -1.45756 3.47033 0
M  V30 4752 C 452.965 -0.413384 2.74201 0
M  V30 4753 H 455.916 0.236166 1.56933 0
M  V30 4754 H 455.937 -1.83633 3.33255 0
M  V30 4755 H 455.449 -0.0955893 3.87982 0
M  V30 4756 H 453.55 -2.35339 2.88871 0
M  V30 4757 H 453.663 -1.4781 4.55729 0
M  V30 4758 H 452.027 -0.877266 2.39115 0
M  V30 4759 H 452.81 0.453092 3.40297 0
M  V30 4760 N 455.255 -1.55392 -0.262866 0
M  V30 4761 C 456.504 -1.75679 -0.990943 0
M  V30 4762 C 456.817 -0.57097 -1.87081 0
M  V30 4763 O 458.023 -0.656486 -2.63444 0
M  V30 4764 C 456.479 -3.10964 -1.81188 0
M  V30 4765 C 456.087 -4.37146 -0.980188 0
M  V30 4766 C 457.831 -3.40597 -2.53365 0
M  V30 4767 C 455.738 -5.63466 -1.7961 0
M  V30 4768 H 454.668 -0.654868 -0.373716 0
M  V30 4769 H 457.319 -1.81841 -0.246203 0
M  V30 4770 H 455.701 -2.98867 -2.59797 0
M  V30 4771 H 456.875 -4.60187 -0.237558 0
M  V30 4772 H 455.19 -4.14731 -0.372497 0
M  V30 4773 H 457.787 -4.32186 -3.14833 0
M  V30 4774 H 458.13 -2.6119 -3.24169 0
M  V30 4775 H 458.663 -3.53838 -1.81779 0
M  V30 4776 H 455.402 -6.4565 -1.13209 0
M  V30 4777 H 454.922 -5.44552 -2.51443 0
M  V30 4778 H 456.601 -6.02139 -2.36723 0
M  V30 4779 N 456.733 0.527833 -1.48498 0
M  V30 4780 C 457.663 1.64136 -1.66077 0
M  V30 4781 C 458.644 1.62286 -0.509625 0
M  V30 4782 O 459.829 1.79449 -0.742413 0
M  V30 4783 C 456.959 3.02717 -1.70234 0
M  V30 4784 C 455.913 3.19426 -2.8487 0
M  V30 4785 C 455.239 4.5909 -2.74118 0
M  V30 4786 C 456.539 3.01993 -4.26142 0
M  V30 4787 H 458.233 1.4968 -2.593 0
M  V30 4788 H 455.779 0.718654 -1.24785 0
M  V30 4789 H 457.732 3.80491 -1.8112 0
M  V30 4790 H 456.456 3.18201 -0.735911 0
M  V30 4791 H 455.115 2.4407 -2.73542 0
M  V30 4792 H 454.763 4.71413 -1.7544 0
M  V30 4793 H 454.463 4.71214 -3.51042 0
M  V30 4794 H 455.987 5.3896 -2.86974 0
M  V30 4795 H 457.401 3.69558 -4.38292 0
M  V30 4796 H 455.798 3.2561 -5.04082 0
M  V30 4797 H 456.868 1.98396 -4.42456 0
M  V30 4798 N 458.211 1.37122 0.776871 0
M  V30 4799 C 459.441 1.35034 1.56363 0
M  V30 4800 C 459.849 -0.0674681 1.8908 0
M  V30 4801 O 459.192 -1.03826 1.51545 0
M  V30 4802 C 459.254 2.11894 2.90415 0
M  V30 4803 C 458.918 3.60897 2.80362 0
M  V30 4804 C 459.915 4.54887 2.51742 0
M  V30 4805 C 457.6 4.03951 2.98545 0
M  V30 4806 C 459.594 5.89909 2.41426 0
M  V30 4807 C 457.281 5.3906 2.87849 0
M  V30 4808 C 458.279 6.31852 2.5933 0
M  V30 4809 O 457.967 7.64479 2.48651 0
M  V30 4810 H 457.699 0.464402 0.49123 0
M  V30 4811 H 460.253 1.80992 0.971127 0
M  V30 4812 H 458.483 1.60618 3.51765 0
M  V30 4813 H 460.172 2.02505 3.51776 0
M  V30 4814 H 460.938 4.22934 2.37385 0
M  V30 4815 H 456.817 3.3209 3.19746 0
M  V30 4816 H 460.361 6.62304 2.19086 0
M  V30 4817 H 456.258 5.70617 3.01773 0
M  V30 4818 H 457.026 7.74742 2.64039 0
M  V30 4819 N 459.689 -1.00246 1.21608 0
M  V30 4820 C 460.937 -1.73717 1.0328 0
M  V30 4821 C 461.258 -1.90102 -0.434318 0
M  V30 4822 O 460.528 -1.45376 -1.31311 0
M  V30 4823 H 459.108 -0.643613 0.379172 0
M  V30 4824 H 461.77 -1.20787 1.52959 0
M  V30 4825 H 460.866 -2.73535 1.50283 0
M  V30 4826 N 461.167 -1.02423 -1.1978 0
M  V30 4827 C 462.414 -0.717988 -1.89344 0
M  V30 4828 C 462.742 0.753036 -1.79331 0
M  V30 4829 O 461.997 1.56355 -1.17692 0
M  V30 4830 C 462.296 -1.1088 -3.39765 0
M  V30 4831 C 461.962 -2.57731 -3.6998 0
M  V30 4832 C 460.624 -2.97854 -3.77937 0
M  V30 4833 C 462.976 -3.52763 -3.83677 0
M  V30 4834 C 460.304 -4.31931 -3.97054 0
M  V30 4835 C 462.656 -4.86538 -4.04306 0
M  V30 4836 C 461.32 -5.26356 -4.10494 0
M  V30 4837 H 460.59 -0.26273 -0.692859 0
M  V30 4838 H 463.237 -1.28623 -1.41875 0
M  V30 4839 H 461.542 -0.459094 -3.89101 0
M  V30 4840 H 463.239 -0.849432 -3.919 0
M  V30 4841 H 459.829 -2.25646 -3.64393 0
M  V30 4842 H 464.013 -3.2292 -3.76877 0
M  V30 4843 H 459.269 -4.62324 -4.00083 0
M  V30 4844 H 463.443 -5.60093 -4.13846 0
M  V30 4845 H 461.07 -6.3026 -4.2506 0
M  V30 4846 N 462.645 1.35699 -0.801477 0
M  V30 4847 C 463.575 2.32436 -0.222658 0
M  V30 4848 C 464.556 1.5723 0.649057 0
M  V30 4849 O 465.741 1.85324 0.580387 0
M  V30 4850 C 462.871 3.41469 0.633719 0
M  V30 4851 C 461.825 4.27774 -0.139083 0
M  V30 4852 C 461.151 5.28082 0.838666 0
M  V30 4853 C 462.451 5.04946 -1.33517 0
M  V30 4854 H 464.145 2.81094 -1.03086 0
M  V30 4855 H 461.691 1.35146 -0.497155 0
M  V30 4856 H 463.644 4.08143 1.04868 0
M  V30 4857 H 462.368 2.91408 1.47475 0
M  V30 4858 H 461.027 3.62673 -0.535156 0
M  V30 4859 H 460.675 4.7429 1.67506 0
M  V30 4860 H 460.375 5.86695 0.32594 0
M  V30 4861 H 461.899 5.97628 1.25194 0
M  V30 4862 H 463.313 5.64593 -0.995349 0
M  V30 4863 H 461.71 5.7303 -1.78202 0
M  V30 4864 H 462.78 4.35886 -2.12442 0
M  V30 4865 N 464.123 0.554532 1.47522 0
M  V30 4866 C 465.348 0.0322661 2.07375 0
M  V30 4867 C 465.773 -1.25079 1.40488 0
M  V30 4868 O 465.131 -1.74859 0.47896 0
M  V30 4869 C 465.179 -0.149397 3.6029 0
M  V30 4870 O 464.283 -1.21259 3.9417 0
M  V30 4871 H 463.624 0.0501228 0.662106 0
M  V30 4872 H 466.154 0.769452 1.8958 0
M  V30 4873 H 466.164 -0.364437 4.06369 0
M  V30 4874 H 464.839 0.787743 4.08372 0
M  V30 4875 H 463.416 -0.97825 3.5984 0
M  V30 4876 N 465.601 -1.54893 0.290851 0
M  V30 4877 C 466.878 -1.91991 -0.373989 0
M  V30 4878 C 467.258 -1.21694 -1.72493 0
M  V30 4879 O 466.606 -0.34917 -2.25816 0
M  V30 4880 C 466.816 -3.45419 -0.498703 0
M  V30 4881 C 468.164 -4.1748 -0.774298 0
M  V30 4882 O 469.188 -3.51398 -0.582908 0
M  V30 4883 O 468.047 -5.3445 -1.14129 0
M  V30 4884 H 465.141 -0.800593 -0.207315 0
M  V30 4885 H 467.687 -1.66297 0.338164 0
M  V30 4886 H 466.459 -3.88688 0.451392 0
M  V30 4887 H 466.082 -3.77117 -1.25972 0
M  V30 4888 N 467.08 -0.0183926 -1.57589 0
M  V30 4889 C 468.028 0.985111 -2.10709 0
M  V30 4890 C 469.022 1.34397 -1.0312 0
M  V30 4891 O 470.228 1.32746 -1.21567 0
M  V30 4892 H 466.603 0.335418 -0.673052 0
M  V30 4893 H 468.574 0.511689 -2.9398 0
M  V30 4894 C 467.323 2.26202 -2.64061 0
M  V30 4895 H 466.646 1.9946 -3.4649 0
M  V30 4896 H 468.086 2.94652 -3.04887 0
M  V30 4897 C 466.545 2.98444 -1.5631 0
M  V30 4898 O 467.075 3.90142 -0.956674 0
M  V30 4899 N 465.281 2.6059 -1.28612 0
M  V30 4900 H 464.828 1.86101 -1.78112 0
M  V30 4901 H 464.786 3.09238 -0.567406 0
M  V30 4902 N 468.558 1.5553 0.254621 0
M  V30 4903 C 469.805 1.77 0.983736 0
M  V30 4904 C 470.133 0.58133 1.85609 0
M  V30 4905 O 469.388 -0.435621 1.9079 0
M  V30 4906 C 469.687 3.03891 1.88109 0
M  V30 4907 C 469.353 4.35597 1.16472 0
M  V30 4908 C 468.015 4.7139 0.966714 0
M  V30 4909 C 470.367 5.1705 0.656387 0
M  V30 4910 C 467.695 5.86176 0.247942 0
M  V30 4911 C 470.047 6.32581 -0.0488807 0
M  V30 4912 C 468.711 6.67 -0.258438 0
M  V30 4913 H 467.981 0.647688 0.359974 0
M  V30 4914 H 470.628 1.89802 0.254463 0
M  V30 4915 H 468.933 2.86068 2.67717 0
M  V30 4916 H 470.63 3.17701 2.44677 0
M  V30 4917 H 467.22 4.07475 1.32899 0
M  V30 4918 H 471.404 4.8986 0.796933 0
M  V30 4919 H 466.66 6.11354 0.075035 0
M  V30 4920 H 470.834 6.94942 -0.450444 0
M  V30 4921 H 468.461 7.55793 -0.817358 0
M  V30 4922 N 470.036 -0.519951 1.48776 0
M  V30 4923 C 471.452 -0.849418 1.35119 0
M  V30 4924 C 471.652 -1.98077 0.36982 0
M  V30 4925 O 470.708 -2.51664 -0.205359 0
M  V30 4926 C 472.021 -1.20748 2.75391 0
M  V30 4927 C 473.569 -1.31679 2.83954 0
M  V30 4928 C 474.044 -1.70824 4.24951 0
M  V30 4929 N 475.535 -1.77908 4.27672 0
M  V30 4930 C 476.27 -2.09603 5.33717 0
M  V30 4931 N 475.766 -2.39652 6.5003 0
M  V30 4932 N 477.559 -2.10694 5.21119 0
M  V30 4933 H 469.71 0.226377 2.1119 0
M  V30 4934 H 471.973 0.0386519 0.947212 0
M  V30 4935 H 471.679 -0.449703 3.48813 0
M  V30 4936 H 471.553 -2.15534 3.09556 0
M  V30 4937 H 473.94 -2.06532 2.10781 0
M  V30 4938 H 474.021 -0.3499 2.53396 0
M  V30 4939 H 473.665 -0.965282 4.98643 0
M  V30 4940 H 473.595 -2.6858 4.52959 0
M  V30 4941 H 476.086 -1.56923 3.43779 0
M  V30 4942 H 476.399 -2.6297 7.26682 0
M  V30 4943 H 474.744 -2.37149 6.53288 0
M  V30 4944 H 477.935 -1.86682 4.29264 0
M  V30 4945 H 478.108 -2.35062 6.03863 0
M  V30 4946 N 471.514 -1.37532 -0.769588 0
M  V30 4947 C 472.93 -1.18379 -1.07045 0
M  V30 4948 C 473.13 -0.0214312 -2.01489 0
M  V30 4949 O 472.186 0.637809 -2.44312 0
M  V30 4950 C 473.499 -2.50338 -1.66588 0
M  V30 4951 C 475.047 -2.56879 -1.78835 0
M  V30 4952 C 475.522 -3.88974 -2.41792 0
M  V30 4953 N 477.013 -3.90428 -2.4924 0
M  V30 4954 C 477.748 -4.89388 -2.98809 0
M  V30 4955 N 477.244 -5.98745 -3.48535 0
M  V30 4956 N 479.037 -4.76791 -2.97703 0
M  V30 4957 H 471.188 -2.11921 -0.142541 0
M  V30 4958 H 473.451 -0.939608 -0.125863 0
M  V30 4959 H 473.157 -3.35767 -1.0466 0
M  V30 4960 H 473.031 -2.67583 -2.65856 0
M  V30 4961 H 475.418 -1.71856 -2.39895 0
M  V30 4962 H 475.499 -2.43516 -0.783166 0
M  V30 4963 H 475.143 -4.74412 -1.81371 0
M  V30 4964 H 475.073 -3.99641 -3.4292 0
M  V30 4965 H 477.564 -3.11433 -2.14052 0
M  V30 4966 H 477.877 -6.70205 -3.84767 0
M  V30 4967 H 476.222 -6.02387 -3.46634 0
M  V30 4968 H 479.413 -3.90478 -2.58157 0
M  V30 4969 H 479.586 -5.54069 -3.36024 0
M  V30 4970 N 472.992 0.995999 -1.22138 0
M  V30 4971 C 474.239 1.7351 -1.04406 0
M  V30 4972 C 474.567 1.89884 0.421244 0
M  V30 4973 O 473.822 1.43683 1.32867 0
M  V30 4974 C 474.121 3.14553 -1.6968 0
M  V30 4975 C 473.787 3.18102 -3.19565 0
M  V30 4976 C 472.449 3.18778 -3.60464 0
M  V30 4977 C 474.801 3.14636 -4.15516 0
M  V30 4978 C 472.129 3.13684 -4.95801 0
M  V30 4979 C 474.481 3.11084 -5.50826 0
M  V30 4980 C 473.145 3.10074 -5.91109 0
M  V30 4981 H 472.415 0.634916 -0.38205 0
M  V30 4982 H 475.062 1.1667 -1.51857 0
M  V30 4983 H 473.367 3.74682 -1.14546 0
M  V30 4984 H 475.064 3.70477 -1.53454 0
M  V30 4985 H 471.654 3.18324 -2.86998 0
M  V30 4986 H 475.838 3.13266 -3.84939 0
M  V30 4987 H 471.094 3.11245 -5.26247 0
M  V30 4988 H 475.268 3.07357 -6.24904 0
M  V30 4989 H 472.895 3.05882 -6.95946 0
M  V30 4990 N 474.47 1.03057 1.19235 0
M  V30 4991 C 475.717 0.728019 1.88961 0
M  V30 4992 C 476.045 -0.743515 1.79728 0
M  V30 4993 O 475.3 -1.55729 1.1852 0
M  V30 4994 C 475.599 1.1268 3.39172 0
M  V30 4995 C 475.265 2.5969 3.68608 0
M  V30 4996 C 473.927 2.99854 3.76352 0
M  V30 4997 C 476.279 3.54793 3.81801 0
M  V30 4998 C 473.607 4.34031 3.94758 0
M  V30 4999 C 475.959 4.88675 4.0172 0
M  V30 5000 C 474.623 5.28526 4.07697 0
M  V30 5001 H 473.893 0.266401 0.691456 0
M  V30 5002 H 476.54 1.29373 1.41191 0
M  V30 5003 H 474.845 0.479722 3.88852 0
M  V30 5004 H 476.542 0.870203 3.91444 0
M  V30 5005 H 473.132 2.27575 3.63191 0
M  V30 5006 H 477.316 3.24914 3.7516 0
M  V30 5007 H 472.572 4.6444 3.97625 0
M  V30 5008 H 476.746 5.6228 4.1087 0
M  V30 5009 H 474.373 6.32506 4.21712 0
M  V30 5010 N 475.948 -1.35272 0.808662 0
M  V30 5011 C 476.88 -2.28507 0.178149 0
M  V30 5012 C 477.893 -1.50377 -0.623754 0
M  V30 5013 O 479.082 -1.72583 -0.455774 0
M  V30 5014 C 476.182 -3.30038 -0.769959 0
M  V30 5015 C 475.355 -4.37398 -0.0139749 0
M  V30 5016 C 474.414 -5.18775 -0.880875 0
M  V30 5017 O 473.44 -5.68236 -0.331059 0
M  V30 5018 N 474.642 -5.37087 -2.20267 0
M  V30 5019 H 477.407 -2.83255 0.979106 0
M  V30 5020 H 474.968 -1.47643 0.664308 0
M  V30 5021 H 476.96 -3.81371 -1.35418 0
M  V30 5022 H 475.53 -2.75789 -1.47171 0
M  V30 5023 H 474.75 -3.86971 0.751468 0
M  V30 5024 H 476.038 -5.06268 0.506965 0
M  V30 5025 H 475.436 -4.9855 -2.67328 0
M  V30 5026 H 473.993 -5.91593 -2.73608 0
M  V30 5027 N 477.426 -0.562348 -1.47226 0
M  V30 5028 C 478.842 -0.222492 -1.58042 0
M  V30 5029 C 479.042 1.27505 -1.56028 0
M  V30 5030 O 478.098 2.05555 -1.46641 0
M  V30 5031 C 479.411 -0.853694 -2.88327 0
M  V30 5032 C 480.959 -0.825397 -3.01921 0
M  V30 5033 C 481.434 -1.43576 -4.34914 0
M  V30 5034 N 482.925 -1.39918 -4.41562 0
M  V30 5035 C 483.66 -1.84103 -5.43041 0
M  V30 5036 N 483.156 -2.36167 -6.51304 0
M  V30 5037 N 484.949 -1.75142 -5.34118 0
M  V30 5038 H 477.1 -1.53525 -1.46778 0
M  V30 5039 H 479.363 -0.640527 -0.698877 0
M  V30 5040 H 479.069 -1.90635 -2.95552 0
M  V30 5041 H 478.943 -0.34977 -3.75575 0
M  V30 5042 H 481.33 0.218583 -2.94289 0
M  V30 5043 H 481.411 -1.36713 -2.16202 0
M  V30 5044 H 481.055 -2.47884 -4.43301 0
M  V30 5045 H 480.985 -0.869427 -5.19373 0
M  V30 5046 H 483.476 -1.0184 -3.63919 0
M  V30 5047 H 483.789 -2.67793 -7.24919 0
M  V30 5048 H 482.134 -2.40181 -6.52179 0
M  V30 5049 H 485.325 -1.34241 -4.48439 0
M  V30 5050 H 485.498 -2.09895 -6.13065 0
M  V30 5051 N 478.904 1.54736 -0.299062 0
M  V30 5052 C 480.15 2.00397 0.311244 0
M  V30 5053 C 480.483 1.18716 1.53688 0
M  V30 5054 O 479.758 0.263154 1.92712 0
M  V30 5055 C 480.041 3.53817 0.669761 0
M  V30 5056 C 479.894 4.46239 -0.564882 0
M  V30 5057 C 481.213 4.13856 1.49702 0
M  V30 5058 H 478.332 0.728493 0.111653 0
M  V30 5059 H 480.974 1.85506 -0.410774 0
M  V30 5060 H 479.124 3.66637 1.28491 0
M  V30 5061 H 480.796 4.45328 -1.20337 0
M  V30 5062 H 479.039 4.16916 -1.19849 0
M  V30 5063 H 479.71 5.5134 -0.269918 0
M  V30 5064 H 482.186 4.04461 0.977284 0
M  V30 5065 H 481.062 5.21365 1.71666 0
M  V30 5066 H 481.323 3.65608 2.48563 0
M  V30 5067 N 480.382 0.0267497 1.57577 0
M  V30 5068 C 481.312 -0.954308 2.13108 0
M  V30 5069 C 482.293 -1.34088 1.04663 0
M  V30 5070 O 483.478 -1.41992 1.32484 0
M  V30 5071 C 480.608 -2.23744 2.65624 0
M  V30 5072 C 479.562 -1.99168 3.78835 0
M  V30 5073 C 478.888 -3.33726 4.17769 0
M  V30 5074 C 480.188 -1.33277 5.0501 0
M  V30 5075 H 481.882 -0.491848 2.95332 0
M  V30 5076 H 479.428 -0.23514 1.42067 0
M  V30 5077 H 481.381 -2.92754 3.03106 0
M  V30 5078 H 480.105 -2.72151 1.80558 0
M  V30 5079 H 478.764 -1.32577 3.41788 0
M  V30 5080 H 478.412 -3.79888 3.29688 0
M  V30 5081 H 478.112 -3.18089 4.94058 0
M  V30 5082 H 479.636 -4.04008 4.57832 0
M  V30 5083 H 481.05 -1.92283 5.40093 0
M  V30 5084 H 479.447 -1.28045 5.8628 0
M  V30 5085 H 480.517 -0.305411 4.83937 0
M  V30 5086 N 481.861 -1.55662 -0.24637 0
M  V30 5087 C 483.101 -1.79283 -0.981685 0
M  V30 5088 C 483.465 -0.596356 -1.82504 0
M  V30 5089 O 484.666 -0.711342 -2.59217 0
M  V30 5090 C 482.937 -3.07648 -1.819 0
M  V30 5091 S 484.496 -3.52491 -2.61334 0
M  V30 5092 H 481.314 -0.629676 -0.330196 0
M  V30 5093 H 483.916 -1.93901 -0.249498 0
M  V30 5094 H 482.62 -3.92794 -1.18915 0
M  V30 5095 H 482.151 -2.95768 -2.59393 0
M  V30 5096 H 484.166 -3.13866 -3.84321 0
M  V30 5097 N 483.339 0.512053 -1.4905 0
M  V30 5098 C 484.269 1.62365 -1.67809 0
M  V30 5099 C 485.25 1.61737 -0.526809 0
M  V30 5100 O 486.435 1.78651 -0.761404 0
M  V30 5101 C 483.565 3.00895 -1.73435 0
M  V30 5102 C 482.519 3.16387 -2.88242 0
M  V30 5103 C 481.845 4.56157 -2.78971 0
M  V30 5104 C 483.145 2.97457 -4.29321 0
M  V30 5105 H 484.839 1.46921 -2.60873 0
M  V30 5106 H 482.385 0.705379 -1.2554 0
M  V30 5107 H 484.338 3.78549 -1.85145 0
M  V30 5108 H 483.062 3.17403 -0.769619 0
M  V30 5109 H 481.721 2.41155 -2.76116 0
M  V30 5110 H 481.369 4.69525 -1.8043 0
M  V30 5111 H 481.069 4.67465 -3.5602 0
M  V30 5112 H 482.593 5.35886 -2.92675 0
M  V30 5113 H 484.007 3.64888 -4.42187 0
M  V30 5114 H 482.404 3.20245 -5.07507 0
M  V30 5115 H 483.474 1.93692 -4.44535 0
M  V30 5116 N 484.817 1.37938 0.762283 0
M  V30 5117 C 486.233 1.18945 1.06415 0
M  V30 5118 C 486.433 0.0321163 2.01474 0
M  V30 5119 O 485.489 -0.624844 2.44647 0
M  V30 5120 C 486.802 2.51218 1.65258 0
M  V30 5121 C 488.35 2.57824 1.7747 0
M  V30 5122 C 488.825 3.90251 2.39725 0
M  V30 5123 N 490.316 3.91744 2.47166 0
M  V30 5124 C 491.051 4.90966 2.96209 0
M  V30 5125 N 490.547 6.00585 3.45354 0
M  V30 5126 N 492.34 4.78363 2.9517 0
M  V30 5127 H 484.491 2.11994 0.131301 0
M  V30 5128 H 486.754 0.940262 0.120879 0
M  V30 5129 H 486.46 3.36317 1.02878 0
M  V30 5130 H 486.334 2.68989 2.64433 0
M  V30 5131 H 488.721 1.73126 2.3898 0
M  V30 5132 H 488.802 2.43928 0.770241 0
M  V30 5133 H 488.446 4.75368 1.78852 0
M  V30 5134 H 488.376 4.01454 3.40796 0
M  V30 5135 H 490.867 3.12563 2.12397 0
M  V30 5136 H 491.18 6.72236 3.81207 0
M  V30 5137 H 489.525 6.04217 3.43434 0
M  V30 5138 H 492.716 3.91841 2.56082 0
M  V30 5139 H 492.889 5.55843 3.33081 0
M  V30 5140 N 486.295 -0.989507 1.22664 0
M  V30 5141 C 487.535 -1.7447 1.06488 0
M  V30 5142 C 487.899 -1.8794 -0.392737 0
M  V30 5143 O 489.1 -2.60175 -0.675446 0
M  V30 5144 C 487.371 -3.11043 1.76031 0
M  V30 5145 S 488.93 -4.02258 1.7531 0
M  V30 5146 H 485.748 -0.600123 0.381278 0
M  V30 5147 H 488.35 -1.18283 1.55658 0
M  V30 5148 H 487.054 -2.98884 2.81241 0
M  V30 5149 H 486.585 -3.72301 1.27105 0
M  V30 5150 H 488.6 -4.89623 0.805208 0
M  V30 5151 N 487.773 -1.03688 -1.18687 0
M  V30 5152 C 489.013 -0.746858 -1.90267 0
M  V30 5153 C 489.377 0.712075 -1.78307 0
M  V30 5154 O 490.578 1.11553 -2.44559 0
M  V30 5155 C 488.849 -1.19543 -3.36815 0
M  V30 5156 S 490.408 -1.03047 -4.26529 0
M  V30 5157 H 487.226 -0.271663 -0.657054 0
M  V30 5158 H 489.828 -1.32838 -1.43437 0
M  V30 5159 H 488.532 -2.2527 -3.43047 0
M  V30 5160 H 488.063 -0.607533 -3.88681 0
M  V30 5161 H 490.078 0.0543232 -4.9617 0
M  V30 5162 N 489.251 1.34841 -0.815825 0
M  V30 5163 C 490.181 2.32187 -0.247298 0
M  V30 5164 C 491.162 1.5791 0.632344 0
M  V30 5165 O 492.347 1.8593 0.560698 0
M  V30 5166 C 489.477 3.42122 0.597466 0
M  V30 5167 C 488.431 4.27602 -0.184446 0
M  V30 5168 C 487.757 5.28942 0.782609 0
M  V30 5169 C 489.057 5.03502 -1.38865 0
M  V30 5170 H 490.751 2.79985 -1.06061 0
M  V30 5171 H 488.297 1.34611 -0.511461 0
M  V30 5172 H 490.25 4.09232 1.00533 0
M  V30 5173 H 488.974 2.92956 1.44376 0
M  V30 5174 H 487.633 3.62085 -0.573592 0
M  V30 5175 H 487.281 4.7604 1.62466 0
M  V30 5176 H 486.981 5.87008 0.263695 0
M  V30 5177 H 488.505 5.98922 1.18848 0
M  V30 5178 H 489.919 5.63506 -1.05518 0
M  V30 5179 H 488.316 5.71108 -1.8427 0
M  V30 5180 H 489.386 4.33608 -2.17054 0
M  V30 5181 N 490.729 0.570148 1.46925 0
M  V30 5182 C 491.659 -0.158274 2.32963 0
M  V30 5183 C 492.64 -0.896093 1.44583 0
M  V30 5184 O 493.825 -0.874022 1.7342 0
M  V30 5185 C 490.955 -1.18055 3.26619 0
M  V30 5186 C 489.909 -0.558379 4.24342 0
M  V30 5187 C 489.235 -1.68623 5.07415 0
M  V30 5188 C 490.535 0.496295 5.19937 0
M  V30 5189 H 492.229 0.560046 2.94115 0
M  V30 5190 H 489.775 0.270775 1.41431 0
M  V30 5191 H 491.728 -1.69841 3.85658 0
M  V30 5192 H 490.452 -1.92899 2.63548 0
M  V30 5193 H 489.111 -0.0617157 3.66548 0
M  V30 5194 H 488.759 -2.42402 4.40738 0
M  V30 5195 H 488.459 -1.27564 5.73586 0
M  V30 5196 H 489.983 -2.20709 5.69315 0
M  V30 5197 H 491.397 0.0640052 5.73264 0
M  V30 5198 H 489.794 0.82649 5.94381 0
M  V30 5199 H 490.864 1.38735 4.6463 0
M  V30 5200 N 492.207 -1.54576 0.307264 0
M  V30 5201 C 493.117 -2.27435 -0.57536 0
M  V30 5202 C 494.133 -1.31183 -1.14311 0
M  V30 5203 O 495.309 -1.64175 -1.16656 0
M  V30 5204 C 492.374 -3.00566 -1.72803 0
M  V30 5205 C 491.435 -4.12369 -1.19373 0
M  V30 5206 C 490.668 -4.82003 -2.29147 0
M  V30 5207 O 490.891 -4.51038 -3.49171 0
M  V30 5208 O 489.825 -5.69271 -1.95485 0
M  V30 5209 H 493.651 -3.03696 0.0158558 0
M  V30 5210 H 491.236 -1.49219 0.0735064 0
M  V30 5211 H 493.118 -3.46416 -2.39946 0
M  V30 5212 H 491.793 -2.27195 -2.30574 0
M  V30 5213 H 490.7 -3.70905 -0.487851 0
M  V30 5214 H 492.033 -4.87736 -0.661376 0
M  V30 5215 N 493.685 -0.035106 -1.57561 0
M  V30 5216 C 494.933 0.64096 -1.91667 0
M  V30 5217 C 495.254 1.72323 -0.912681 0
M  V30 5218 O 494.524 1.95849 0.0449089 0
M  V30 5219 H 493.104 0.239743 -0.707483 0
M  V30 5220 H 495.766 -0.084321 -1.94718 0
M  V30 5221 H 494.862 1.08987 -2.92452 0
M  V30 5222 N 495.163 1.55791 0.238111 0
M  V30 5223 C 496.126 1.90239 1.27835 0
M  V30 5224 C 497.126 0.779552 1.4064 0
M  V30 5225 O 498.316 1.04747 1.3919 0
M  V30 5226 C 495.448 2.13859 2.65475 0
M  V30 5227 H 496.641 2.83262 0.985034 0
M  V30 5228 H 494.194 1.48818 0.477799 0
M  V30 5229 H 494.929 1.23334 2.99932 0
M  V30 5230 H 494.714 2.95643 2.57561 0
M  V30 5231 H 496.204 2.41664 3.40571 0
M  V30 5232 N 496.642 -0.504142 1.49319 0
M  V30 5233 C 497.89 -1.25598 1.58334 0
M  V30 5234 C 498.211 -1.93114 0.270538 0
M  V30 5235 O 497.481 -1.82585 -0.709891 0
M  V30 5236 H 496.061 -0.466571 0.58337 0
M  V30 5237 H 498.723 -0.584547 1.85928 0
M  V30 5238 H 497.819 -2.02159 2.37778 0
M  V30 5239 N 498.12 -1.38341 -0.754957 0
M  V30 5240 C 499.368 -1.34208 -1.51105 0
M  V30 5241 C 499.689 0.0677634 -1.94882 0
M  V30 5242 O 498.959 1.01517 -1.67544 0
M  V30 5243 H 497.539 -0.493819 -0.560493 0
M  V30 5244 H 500.201 -1.73005 -0.897507 0
M  V30 5245 H 499.297 -1.99203 -2.4026 0
M  V30 5246 N 499.598 0.982988 -1.23187 0
M  V30 5247 C 500.561 2.05649 -1.01198 0
M  V30 5248 C 501.561 1.6078 0.0252464 0
M  V30 5249 O 502.751 1.72878 -0.214243 0
M  V30 5250 C 499.883 3.36744 -0.530656 0
M  V30 5251 H 501.076 2.2659 -1.96461 0
M  V30 5252 H 498.629 1.15602 -1.05195 0
M  V30 5253 H 499.364 3.21492 0.425873 0
M  V30 5254 H 499.149 3.7065 -1.2791 0
M  V30 5255 H 500.639 4.15705 -0.397366 0
M  V30 5256 N 501.076 1.04316 1.18135 0
M  V30 5257 C 501.986 0.646876 2.25505 0
M  V30 5258 C 503.002 -0.328008 1.7088 0
M  V30 5259 O 504.178 -0.182309 2.00573 0
M  V30 5260 C 501.243 0.0185664 3.46695 0
M  V30 5261 C 500.304 1.04277 4.16443 0
M  V30 5262 C 499.537 0.444352 5.31847 0
M  V30 5263 O 499.76 -0.748735 5.65465 0
M  V30 5264 O 498.694 1.17428 5.90334 0
M  V30 5265 H 502.52 1.54147 2.61672 0
M  V30 5266 H 500.105 0.814188 1.25265 0
M  V30 5267 H 501.987 -0.331068 4.20097 0
M  V30 5268 H 500.662 -0.849814 3.12346 0
M  V30 5269 H 499.569 1.44425 3.45098 0
M  V30 5270 H 500.902 1.882 4.54798 0
M  V30 5271 N 502.554 -1.34406 0.822964 0
M  V30 5272 C 503.464 -2.33298 0.246838 0
M  V30 5273 C 504.48 -1.62625 -0.618797 0
M  V30 5274 O 505.656 -1.94391 -0.526685 0
M  V30 5275 C 502.721 -3.41785 -0.581731 0
M  V30 5276 C 501.782 -4.28206 0.306309 0
M  V30 5277 C 501.015 -5.31512 -0.48281 0
M  V30 5278 O 501.238 -5.43973 -1.71607 0
M  V30 5279 O 500.172 -6.01749 0.134884 0
M  V30 5280 H 503.998 -2.84401 1.06534 0
M  V30 5281 H 501.583 -1.37466 0.585108 0
M  V30 5282 H 503.465 -4.08028 -1.05313 0
M  V30 5283 H 502.14 -2.92925 -1.37756 0
M  V30 5284 H 501.047 -3.64885 0.825199 0
M  V30 5285 H 502.38 -4.80507 1.06649 0
M  V30 5286 N 504.032 -0.577932 -1.46621 0
M  V30 5287 C 504.942 0.160651 -2.34049 0
M  V30 5288 C 505.958 0.890911 -1.49462 0
M  V30 5289 O 507.134 0.855166 -1.82343 0
M  V30 5290 C 504.199 1.16447 -3.26559 0
M  V30 5291 C 503.26 0.4394 -4.27045 0
M  V30 5292 C 502.493 1.3954 -5.15135 0
M  V30 5293 O 502.716 2.63162 -5.06065 0
M  V30 5294 O 501.65 0.908585 -5.95003 0
M  V30 5295 H 505.476 -0.557057 -2.98547 0
M  V30 5296 H 503.061 -0.338369 -1.45518 0
M  V30 5297 H 504.943 1.7434 -3.83645 0
M  V30 5298 H 503.618 1.86373 -2.64663 0
M  V30 5299 H 502.525 -0.181247 -3.73661 0
M  V30 5300 H 503.858 -0.218799 -4.91713 0
M  V30 5301 N 505.51 1.54411 -0.315457 0
M  V30 5302 C 506.921 1.85885 0.174265 0
M  V30 5303 C 507.272 1.23723 1.52273 0
M  V30 5304 O 506.397 0.540246 2.09548 0
M  V30 5305 C 506.992 3.37257 0.322981 0
M  V30 5306 C 505.551 3.68711 0.756922 0
M  V30 5307 C 504.698 2.77013 -0.126195 0
M  V30 5308 H 507.649 1.49374 -0.536007 0
M  V30 5309 H 507.67 3.62539 1.15522 0
M  V30 5310 H 507.182 3.82471 -0.658602 0
M  V30 5311 H 505.283 3.29024 1.74854 0
M  V30 5312 H 505.396 4.75741 0.566291 0
M  V30 5313 H 503.76 2.51588 0.39692 0
M  V30 5314 H 504.543 3.25051 -1.1044 0
M  V30 5315 N 506.988 0.0434614 1.5754 0
M  V30 5316 C 507.918 -0.931651 2.14109 0
M  V30 5317 C 508.899 -1.32971 1.06079 0
M  V30 5318 O 510.084 -1.40579 1.33982 0
M  V30 5319 C 507.214 -2.20914 2.67982 0
M  V30 5320 C 506.168 -1.95139 3.80926 0
M  V30 5321 C 505.494 -3.29276 4.21285 0
M  V30 5322 C 506.794 -1.27913 5.06395 0
M  V30 5323 H 508.488 -0.460497 2.95837 0
M  V30 5324 H 506.034 -0.220058 1.42309 0
M  V30 5325 H 507.987 -2.89522 3.06194 0
M  V30 5326 H 506.711 -2.70221 1.83434 0
M  V30 5327 H 505.37 -1.28945 3.43175 0
M  V30 5328 H 505.018 -3.76369 3.33699 0
M  V30 5329 H 504.718 -3.12831 4.97404 0
M  V30 5330 H 506.242 -3.99129 4.62091 0
M  V30 5331 H 507.656 -1.86544 5.42102 0
M  V30 5332 H 506.053 -1.2182 5.87605 0
M  V30 5333 H 507.123 -0.254066 4.84234 0
M  V30 5334 N 508.466 -1.55915 -0.229846 0
M  V30 5335 C 509.743 -1.6932 -0.979295 0
M  V30 5336 C 510.123 -0.588321 -2.02736 0
M  V30 5337 O 509.471 0.40586 -2.24867 0
M  V30 5338 C 509.681 -3.10305 -1.59724 0
M  V30 5339 C 511.029 -3.6945 -2.09264 0
M  V30 5340 O 512.053 -3.13214 -1.69633 0
M  V30 5341 O 510.912 -4.68072 -2.82082 0
M  V30 5342 H 508.006 -0.689314 -0.456919 0
M  V30 5343 H 510.552 -1.68238 -0.222283 0
M  V30 5344 H 509.324 -3.82177 -0.840039 0
M  V30 5345 H 508.947 -3.1547 -2.42001 0
M  V30 5346 N 509.944 0.496216 -1.49584 0
M  V30 5347 C 511.174 1.27209 -1.62793 0
M  V30 5348 C 511.582 1.86799 -0.300476 0
M  V30 5349 O 510.925 1.68802 0.724674 0
M  V30 5350 C 510.987 2.43812 -2.64189 0
M  V30 5351 C 510.651 2.05055 -4.08414 0
M  V30 5352 C 511.648 1.58752 -4.9507 0
M  V30 5353 C 509.333 2.14543 -4.54177 0
M  V30 5354 C 511.327 1.22448 -6.25528 0
M  V30 5355 C 509.014 1.77851 -5.84647 0
M  V30 5356 C 510.012 1.31878 -6.70147 0
M  V30 5357 O 509.7 0.956834 -7.98185 0
M  V30 5358 H 509.432 0.391848 -0.550846 0
M  V30 5359 H 511.986 0.601712 -1.96389 0
M  V30 5360 H 510.216 3.13941 -2.25783 0
M  V30 5361 H 511.905 3.05829 -2.66877 0
M  V30 5362 H 512.671 1.50863 -4.60939 0
M  V30 5363 H 508.55 2.49277 -3.87791 0
M  V30 5364 H 512.094 0.864933 -6.92217 0
M  V30 5365 H 507.991 1.8539 -6.18305 0
M  V30 5366 H 508.759 1.08789 -8.11238 0
M  V30 5367 N 511.423 1.38739 0.74761 0
M  V30 5368 C 512.653 1.3832 1.53464 0
M  V30 5369 C 513.061 -0.0273464 1.8918 0
M  V30 5370 O 512.404 -1.00588 1.53713 0
M  V30 5371 C 512.466 2.18007 2.85855 0
M  V30 5372 C 512.13 3.66762 2.72644 0
M  V30 5373 C 513.127 4.60124 2.42037 0
M  V30 5374 C 510.812 4.10193 2.89909 0
M  V30 5375 C 512.806 5.94897 2.28859 0
M  V30 5376 C 510.493 5.45045 2.7635 0
M  V30 5377 C 511.491 6.37211 2.45869 0
M  V30 5378 O 511.179 7.69581 2.3238 0
M  V30 5379 H 510.911 0.474718 0.481268 0
M  V30 5380 H 513.465 1.83012 0.932518 0
M  V30 5381 H 511.695 1.68043 3.48279 0
M  V30 5382 H 513.384 2.09921 3.47402 0
M  V30 5383 H 514.15 4.27874 2.28361 0
M  V30 5384 H 510.029 3.38797 3.1263 0
M  V30 5385 H 513.573 6.66802 2.04989 0
M  V30 5386 H 509.47 5.76889 2.89601 0
M  V30 5387 H 510.238 7.80169 2.47546 0
M  V30 5388 N 512.901 -0.976442 1.23707 0
M  V30 5389 C 513.864 -2.0511 1.02287 0
M  V30 5390 C 514.864 -1.60791 -0.0167195 0
M  V30 5391 O 516.054 -1.72761 0.223408 0
M  V30 5392 C 513.186 -3.36458 0.548507 0
M  V30 5393 H 514.379 -2.25545 1.9766 0
M  V30 5394 H 511.932 -1.15042 1.05806 0
M  V30 5395 H 512.667 -3.21713 -0.408818 0
M  V30 5396 H 512.452 -3.69967 1.29874 0
M  V30 5397 H 513.942 -4.15489 0.419406 0
M  V30 5398 N 514.379 -1.04941 -1.1758 0
M  V30 5399 C 515.607 -0.778294 -1.91703 0
M  V30 5400 C 516.022 0.665697 -1.76675 0
M  V30 5401 O 515.379 1.45456 -1.10222 0
M  V30 5402 C 515.43 -1.14628 -3.42845 0
M  V30 5403 O 515.151 -2.53359 -3.57409 0
M  V30 5404 C 516.652 -0.900931 -4.34049 0
M  V30 5405 H 513.872 -0.283167 -0.608323 0
M  V30 5406 H 516.416 -1.39942 -1.49119 0
M  V30 5407 H 514.571 -0.569953 -3.83184 0
M  V30 5408 H 514.985 -2.67709 -4.51035 0
M  V30 5409 H 516.459 -1.20817 -5.38616 0
M  V30 5410 H 516.936 0.163966 -4.38894 0
M  V30 5411 H 517.542 -1.46097 -3.99419 0
M  V30 5412 N 515.857 1.33968 -0.830081 0
M  V30 5413 C 516.82 2.27694 -0.26235 0
M  V30 5414 C 517.82 1.50589 0.563876 0
M  V30 5415 O 519.01 1.70028 0.378941 0
M  V30 5416 C 516.142 3.35002 0.63138 0
M  V30 5417 H 517.335 2.79419 -1.08928 0
M  V30 5418 H 514.888 1.44221 -0.602486 0
M  V30 5419 H 515.623 2.88504 1.48109 0
M  V30 5420 H 515.408 3.92079 0.0403276 0
M  V30 5421 H 516.898 4.04897 1.02217 0
M  V30 5422 N 517.335 0.585699 1.46312 0
M  V30 5423 C 518.265 -0.133556 2.33118 0
M  V30 5424 C 519.246 -0.880707 1.45525 0
M  V30 5425 O 520.431 -0.855579 1.74337 0
M  V30 5426 C 517.561 -1.14585 3.27853 0
M  V30 5427 C 516.515 -0.513341 4.2491 0
M  V30 5428 C 515.841 -1.63231 5.09175 0
M  V30 5429 C 517.141 0.551413 5.19381 0
M  V30 5430 H 518.835 0.59121 2.93505 0
M  V30 5431 H 516.381 0.285761 1.41136 0
M  V30 5432 H 518.334 -1.65741 3.87438 0
M  V30 5433 H 517.058 -1.90093 2.65579 0
M  V30 5434 H 515.717 -0.0228349 3.66593 0
M  V30 5435 H 515.365 -2.37713 4.43285 0
M  V30 5436 H 515.065 -1.21473 5.74907 0
M  V30 5437 H 516.589 -2.14658 5.71624 0
M  V30 5438 H 518.003 0.124804 5.73164 0
M  V30 5439 H 516.4 0.889486 5.93471 0
M  V30 5440 H 517.47 1.43655 4.63132 0
M  V30 5441 N 518.813 -1.54241 0.323641 0
M  V30 5442 C 519.76 -2.24339 -0.542277 0
M  V30 5443 C 520.73 -1.23421 -1.11159 0
M  V30 5444 O 521.915 -1.52104 -1.15192 0
M  V30 5445 C 519.055 -3.00479 -1.69725 0
M  V30 5446 C 518.168 -4.16214 -1.15716 0
M  V30 5447 C 517.303 -4.79884 -2.27783 0
M  V30 5448 C 516.342 -5.87722 -1.71023 0
M  V30 5449 N 515.479 -6.45254 -2.76752 0
M  V30 5450 H 520.319 -2.97935 0.0620613 0
M  V30 5451 H 517.856 -1.47039 0.0423993 0
M  V30 5452 H 519.814 -3.42869 -2.3769 0
M  V30 5453 H 518.444 -2.29217 -2.27288 0
M  V30 5454 H 517.496 -3.78605 -0.369063 0
M  V30 5455 H 518.808 -4.93838 -0.701832 0
M  V30 5456 H 517.962 -5.25243 -3.03651 0
M  V30 5457 H 516.701 -4.01641 -2.76652 0
M  V30 5458 H 515.706 -5.41765 -0.936518 0
M  V30 5459 H 516.931 -6.67863 -1.2303 0
M  V30 5460 H 514.877 -5.69884 -3.24912 0
M  V30 5461 H 514.794 -7.18292 -2.35782 0
M  V30 5462 H 516.062 -6.95269 -3.5245 0
M  V30 5463 N 520.291 -0.0518155 -1.57515 0
M  V30 5464 C 521.516 0.634896 -1.97443 0
M  V30 5465 C 521.941 1.63546 -0.929207 0
M  V30 5466 O 521.299 1.80981 0.107484 0
M  V30 5467 C 521.347 1.29765 -3.36442 0
M  V30 5468 O 520.451 2.41333 -3.34413 0
M  V30 5469 H 519.792 0.164994 -0.643174 0
M  V30 5470 H 522.322 -0.120407 -2.04245 0
M  V30 5471 H 522.332 1.64918 -3.73184 0
M  V30 5472 H 521.007 0.564361 -4.12053 0
M  V30 5473 H 519.584 2.08122 -3.09418 0
M  V30 5474 N 521.769 1.56035 0.221574 0
M  V30 5475 C 522.716 1.92413 1.27459 0
M  V30 5476 C 523.686 0.781323 1.46576 0
M  V30 5477 O 524.871 1.03721 1.60145 0
M  V30 5478 C 522.011 2.24617 2.61995 0
M  V30 5479 C 521.124 3.51831 2.50677 0
M  V30 5480 C 520.259 3.73482 3.77736 0
M  V30 5481 C 519.298 4.94211 3.6114 0
M  V30 5482 N 518.435 5.12252 4.80148 0
M  V30 5483 H 523.275 2.82203 0.957355 0
M  V30 5484 H 520.812 1.39676 0.461415 0
M  V30 5485 H 522.77 2.41298 3.40339 0
M  V30 5486 H 521.4 1.38 2.91815 0
M  V30 5487 H 520.452 3.43343 1.63767 0
M  V30 5488 H 521.764 4.40328 2.34334 0
M  V30 5489 H 520.918 3.9026 4.64523 0
M  V30 5490 H 519.657 2.83266 3.97003 0
M  V30 5491 H 518.662 4.77384 2.72736 0
M  V30 5492 H 519.887 5.85912 3.43343 0
M  V30 5493 H 517.833 4.24978 4.99729 0
M  V30 5494 H 517.75 5.94881 4.66532 0
M  V30 5495 H 519.018 5.33465 5.68362 0
M  V30 5496 N 523.247 -0.488276 1.49845 0
M  V30 5497 C 524.495 -1.23911 1.59657 0
M  V30 5498 C 524.816 -1.92816 0.291005 0
M  V30 5499 O 524.086 -1.83328 -0.690485 0
M  V30 5500 H 522.666 -0.460357 0.588286 0
M  V30 5501 H 525.328 -0.564794 1.86537 0
M  V30 5502 H 524.424 -1.99625 2.39909 0
M  V30 5503 N 524.725 -1.39134 -0.740242 0
M  V30 5504 C 525.973 -1.35803 -1.49673 0
M  V30 5505 C 526.294 0.0470897 -1.94943 0
M  V30 5506 O 525.564 0.997347 -1.68611 0
M  V30 5507 H 524.144 -0.499736 -0.555224 0
M  V30 5508 H 526.806 -1.73947 -0.879107 0
M  V30 5509 H 525.902 -2.0174 -2.38133 0
M  V30 5510 N 526.204 0.969867 -1.24223 0
M  V30 5511 C 527.167 2.04564 -1.03373 0
M  V30 5512 C 528.167 1.60798 0.00819206 0
M  V30 5513 O 529.357 1.72641 -0.232567 0
M  V30 5514 C 526.489 3.36163 -0.566343 0
M  V30 5515 H 527.682 2.24494 -1.98853 0
M  V30 5516 H 525.235 1.1448 -1.06415 0
M  V30 5517 H 525.97 3.21925 0.391751 0
M  V30 5518 H 525.755 3.69273 -1.31834 0
M  V30 5519 H 527.245 4.1526 -0.441435 0
M  V30 5520 N 527.682 1.05563 1.17022 0
M  V30 5521 C 528.93 0.76642 1.87004 0
M  V30 5522 C 529.251 -0.708854 1.8166 0
M  V30 5523 O 528.521 -1.51242 1.2451 0
M  V30 5524 H 527.101 0.280516 0.692329 0
M  V30 5525 H 529.763 1.33557 1.41945 0
M  V30 5526 H 528.859 1.08472 2.92644 0
M  V30 5527 N 529.16 -1.33526 0.837174 0
M  V30 5528 C 530.4 -1.99649 0.438115 0
M  V30 5529 C 530.764 -1.64879 -0.983816 0
M  V30 5530 O 531.965 -2.23956 -1.48651 0
M  V30 5531 C 530.236 -3.51431 0.650461 0
M  V30 5532 S 531.795 -4.37431 0.346371 0
M  V30 5533 H 528.613 -0.69162 0.164872 0
M  V30 5534 H 531.215 -1.62556 1.08609 0
M  V30 5535 H 529.919 -3.74225 1.68475 0
M  V30 5536 H 529.45 -3.93398 -0.0117309 0
M  V30 5537 H 531.465 -4.89132 -0.834504 0
M  V30 5538 N 530.638 -0.59345 -1.46 0
M  V30 5539 C 531.571 0.182196 -2.27472 0
M  V30 5540 C 532.549 0.886901 -1.36282 0
M  V30 5541 O 533.733 0.898627 -1.65701 0
M  V30 5542 C 530.86 1.26236 -3.14296 0
M  V30 5543 C 529.906 0.662331 -4.21326 0
M  V30 5544 S 530.739 -0.519017 -5.32979 0
M  V30 5545 C 531.895 0.562086 -6.23371 0
M  V30 5546 H 532.128 -0.509056 -2.92909 0
M  V30 5547 H 529.661 -0.380607 -1.49635 0
M  V30 5548 H 531.619 1.88075 -3.64881 0
M  V30 5549 H 530.28 1.92562 -2.48151 0
M  V30 5550 H 529.473 1.47461 -4.81945 0
M  V30 5551 H 529.075 0.119381 -3.73809 0
M  V30 5552 H 531.367 1.44494 -6.61912 0
M  V30 5553 H 532.31 -0.00760776 -7.081 0
M  V30 5554 H 532.718 0.871061 -5.57739 0
M  V30 5555 N 532.116 1.54067 -0.331816 0
M  V30 5556 C 533.356 2.02625 0.26876 0
M  V30 5557 C 533.72 1.21462 1.48697 0
M  V30 5558 O 534.921 1.59863 2.16096 0
M  V30 5559 C 533.192 3.52554 0.586577 0
M  V30 5560 S 534.751 4.23035 1.16563 0
M  V30 5561 H 531.569 0.706395 0.0807862 0
M  V30 5562 H 534.171 1.89844 -0.466856 0
M  V30 5563 H 532.875 4.09242 -0.308046 0
M  V30 5564 H 532.406 3.69432 1.35217 0
M  V30 5565 H 534.421 4.31382 2.45203 0
M  V30 5566 N 533.594 0.0601682 1.57485 0
M  V30 5567 C 535.005 -0.474217 1.80577 0
M  V30 5568 C 535.356 -1.70365 0.973147 0
M  V30 5569 O 534.481 -2.15544 0.192306 0
M  V30 5570 C 535.076 -0.867102 3.27516 0
M  V30 5571 C 533.635 -1.34642 3.51495 0
M  V30 5572 C 532.782 -0.32594 2.75378 0
M  V30 5573 H 535.733 0.285973 1.56102 0
M  V30 5574 H 535.754 -1.72938 3.38929 0
M  V30 5575 H 535.266 0.0278927 3.8809 0
M  V30 5576 H 533.367 -2.2603 2.96212 0
M  V30 5577 H 533.48 -1.33237 4.60201 0
M  V30 5578 H 531.844 -0.800749 2.41785 0
M  V30 5579 H 532.627 0.561125 3.38683 0
M  V30 5580 N 535.072 -1.5615 -0.213296 0
M  V30 5581 C 536.483 -1.69645 -0.779582 0
M  V30 5582 C 536.834 -0.663615 -1.84636 0
M  V30 5583 O 535.959 0.183633 -2.15619 0
M  V30 5584 C 536.554 -3.07567 -1.42084 0
M  V30 5585 C 535.113 -3.22889 -1.93442 0
M  V30 5586 C 534.26 -2.65581 -0.797612 0
M  V30 5587 H 537.211 -1.58696 0.0114951 0
M  V30 5588 H 537.232 -3.03884 -2.28986 0
M  V30 5589 H 536.744 -3.82716 -0.644187 0
M  V30 5590 H 534.845 -2.52623 -2.73884 0
M  V30 5591 H 534.958 -4.30197 -2.10872 0
M  V30 5592 H 533.322 -2.24278 -1.20712 0
M  V30 5593 H 534.105 -3.43284 -0.033494 0
M  V30 5594 N 536.55 0.480323 -1.50102 0
M  V30 5595 C 537.48 1.58769 -1.71215 0
M  V30 5596 C 538.461 1.60583 -0.560997 0
M  V30 5597 O 539.646 1.76996 -0.799127 0
M  V30 5598 C 536.776 2.97148 -1.79778 0
M  V30 5599 C 535.73 3.10201 -2.94888 0
M  V30 5600 C 535.056 4.50137 -2.88584 0
M  V30 5601 C 536.356 2.88283 -4.35534 0
M  V30 5602 H 538.05 1.41354 -2.6393 0
M  V30 5603 H 535.596 0.678591 -1.27008 0
M  V30 5604 H 537.549 3.74536 -1.93133 0
M  V30 5605 H 536.273 3.15699 -0.836772 0
M  V30 5606 H 534.932 2.35244 -2.81169 0
M  V30 5607 H 534.58 4.65593 -1.90349 0
M  V30 5608 H 534.28 4.59808 -3.65856 0
M  V30 5609 H 535.804 5.29558 -3.03976 0
M  V30 5610 H 537.218 3.55427 -4.49827 0
M  V30 5611 H 535.615 3.09408 -5.14186 0
M  V30 5612 H 536.685 1.84219 -4.48544 0
M  V30 5613 N 538.028 1.39524 0.732853 0
M  V30 5614 C 539.439 1.32905 1.31122 0
M  V30 5615 C 539.79 -0.00558708 1.96199 0
M  V30 5616 O 538.915 -0.907706 1.96443 0
M  V30 5617 C 539.51 2.40704 2.38426 0
M  V30 5618 C 538.069 2.37599 2.91931 0
M  V30 5619 C 537.216 2.2248 1.65523 0
M  V30 5620 H 540.167 1.49581 0.530207 0
M  V30 5621 H 540.188 2.07616 3.18867 0
M  V30 5622 H 539.7 3.37829 1.91033 0
M  V30 5623 H 537.801 1.44119 3.43599 0
M  V30 5624 H 537.914 3.32538 3.44899 0
M  V30 5625 H 536.278 1.69691 1.8994 0
M  V30 5626 H 537.061 3.21577 1.20178 0
M  V30 5627 N 539.506 -0.963266 1.24736 0
M  V30 5628 C 540.746 -1.72172 1.10165 0
M  V30 5629 C 541.11 -1.88731 -0.352784 0
M  V30 5630 O 542.311 -2.61549 -0.620107 0
M  V30 5631 C 540.582 -3.0724 1.82589 0
M  V30 5632 S 542.141 -3.98449 1.83803 0
M  V30 5633 H 538.959 -0.591901 0.393922 0
M  V30 5634 H 541.561 -1.14955 1.58132 0
M  V30 5635 H 540.265 -2.92851 2.87518 0
M  V30 5636 H 539.796 -3.69521 1.34973 0
M  V30 5637 H 541.811 -4.87805 0.908883 0
M  V30 5638 N 540.985 -1.06182 -1.16461 0
M  V30 5639 C 541.917 -0.629584 -2.20383 0
M  V30 5640 C 542.93 0.311834 -1.59786 0
M  V30 5641 O 544.119 0.103 -1.78203 0
M  V30 5642 C 541.219 0.0973695 -3.3876 0
M  V30 5643 C 540.392 -0.857252 -4.28917 0
M  V30 5644 C 539.451 -0.169749 -5.25926 0
M  V30 5645 O 538.477 -0.807044 -5.6345 0
M  V30 5646 N 539.679 1.08911 -5.70192 0
M  V30 5647 H 542.444 -1.52352 -2.58087 0
M  V30 5648 H 540.005 -0.944993 -1.31459 0
M  V30 5649 H 541.997 0.567676 -4.00699 0
M  V30 5650 H 540.567 0.893093 -2.99571 0
M  V30 5651 H 539.787 -1.50696 -3.64259 0
M  V30 5652 H 541.075 -1.50489 -4.86035 0
M  V30 5653 H 540.473 1.62703 -5.41797 0
M  V30 5654 H 539.03 1.50331 -6.34227 0
M  V30 5655 N 542.463 1.3308 -0.844243 0
M  V30 5656 C 543.395 2.27954 -0.238671 0
M  V30 5657 C 544.408 1.51978 0.583665 0
M  V30 5658 O 545.597 1.73731 0.409857 0
M  V30 5659 C 542.697 3.31963 0.682185 0
M  V30 5660 C 541.87 4.37281 -0.101998 0
M  V30 5661 C 540.929 5.20928 0.743022 0
M  V30 5662 O 539.955 5.68914 0.180285 0
M  V30 5663 N 541.157 5.42738 2.0595 0
M  V30 5664 H 543.922 2.8056 -1.05386 0
M  V30 5665 H 541.483 1.4583 -0.70322 0
M  V30 5666 H 543.475 3.84828 1.25259 0
M  V30 5667 H 542.045 2.79594 1.39808 0
M  V30 5668 H 541.265 3.84843 -0.853802 0
M  V30 5669 H 542.553 5.04746 -0.641015 0
M  V30 5670 H 541.951 5.05463 2.54016 0
M  V30 5671 H 540.508 5.98639 2.57827 0
M  V30 5672 N 543.941 0.601185 1.45683 0
M  V30 5673 C 544.851 -0.123395 2.34275 0
M  V30 5674 C 545.867 -0.86702 1.5086 0
M  V30 5675 O 547.043 -0.826049 1.8368 0
M  V30 5676 C 544.108 -1.11237 3.2837 0
M  V30 5677 C 543.169 -0.371405 4.2769 0
M  V30 5678 C 542.402 -1.31327 5.1729 0
M  V30 5679 O 542.625 -2.55078 5.10188 0
M  V30 5680 O 541.559 -0.813811 5.96373 0
M  V30 5681 H 545.385 0.604483 2.97623 0
M  V30 5682 H 542.97 0.361477 1.44961 0
M  V30 5683 H 544.852 -1.68214 3.8637 0
M  V30 5684 H 543.527 -1.82139 2.67595 0
M  V30 5685 H 542.434 0.24067 3.73325 0
M  V30 5686 H 543.767 0.296998 4.91303 0
M  V30 5687 N 545.419 -1.53889 0.339982 0
M  V30 5688 C 546.382 -2.23547 -0.50592 0
M  V30 5689 C 547.382 -1.23445 -1.03044 0
M  V30 5690 O 548.572 -1.47909 -0.920253 0
M  V30 5691 C 545.704 -2.95234 -1.7044 0
M  V30 5692 H 546.897 -2.99722 0.103247 0
M  V30 5693 H 544.45 -1.56033 0.0912804 0
M  V30 5694 H 545.185 -2.23236 -2.35236 0
M  V30 5695 H 544.97 -3.68654 -1.33553 0
M  V30 5696 H 546.46 -3.48258 -2.30447 0
M  V30 5697 N 546.897 -0.0685191 -1.57451 0
M  V30 5698 C 547.827 0.89747 -2.15564 0
M  V30 5699 C 548.808 1.31266 -1.08181 0
M  V30 5700 O 549.993 1.38429 -1.36202 0
M  V30 5701 C 547.123 2.16623 -2.71463 0
M  V30 5702 C 546.077 1.89054 -3.83982 0
M  V30 5703 C 545.403 3.22532 -4.26471 0
M  V30 5704 C 546.703 1.1984 -5.08366 0
M  V30 5705 H 548.397 0.413373 -2.96533 0
M  V30 5706 H 545.943 0.197391 -1.42641 0
M  V30 5707 H 547.896 2.84614 -3.10761 0
M  V30 5708 H 546.62 2.67269 -1.8771 0
M  V30 5709 H 545.279 1.23469 -3.45183 0
M  V30 5710 H 544.927 3.71013 -3.39644 0
M  V30 5711 H 544.627 3.04879 -5.02317 0
M  V30 5712 H 546.151 3.91727 -4.68383 0
M  V30 5713 H 547.565 1.77896 -5.45001 0
M  V30 5714 H 545.962 1.12456 -5.89469 0
M  V30 5715 H 547.032 0.176996 -4.84577 0
M  V30 5716 N 548.375 1.56261 0.205012 0
M  V30 5717 C 549.307 1.90266 1.27795 0
M  V30 5718 C 550.32 0.792397 1.42214 0
M  V30 5719 O 551.509 1.07077 1.42817 0
M  V30 5720 C 548.609 2.11074 2.65143 0
M  V30 5721 C 547.782 3.42176 2.7246 0
M  V30 5722 C 546.841 3.52216 3.90936 0
M  V30 5723 O 545.867 4.25119 3.78501 0
M  V30 5724 N 547.069 2.84573 5.05963 0
M  V30 5725 H 549.834 2.82896 0.989434 0
M  V30 5726 H 547.395 1.57008 0.394981 0
M  V30 5727 H 549.387 2.15089 3.4281 0
M  V30 5728 H 547.957 1.2499 2.86524 0
M  V30 5729 H 547.177 3.50116 1.81142 0
M  V30 5730 H 548.465 4.28509 2.74331 0
M  V30 5731 H 547.863 2.25152 5.18963 0
M  V30 5732 H 546.42 2.94228 5.81613 0
M  V30 5733 N 549.853 -0.472356 1.50355 0
M  V30 5734 C 551.264 -1.05326 1.54154 0
M  V30 5735 C 551.615 -1.93155 0.344303 0
M  V30 5736 O 550.74 -2.09479 -0.542928 0
M  V30 5737 C 551.335 -1.91691 2.79356 0
M  V30 5738 C 549.894 -2.44892 2.8584 0
M  V30 5739 C 549.041 -1.23205 2.48426 0
M  V30 5740 H 551.992 -0.255027 1.56637 0
M  V30 5741 H 552.013 -2.76742 2.6114 0
M  V30 5742 H 551.525 -1.27741 3.66475 0
M  V30 5743 H 549.626 -3.12399 2.0307 0
M  V30 5744 H 549.739 -2.80086 3.88701 0
M  V30 5745 H 548.103 -1.56643 2.00836 0
M  V30 5746 H 548.886 -0.609194 3.37852 0
M  V30 5747 N 551.331 -1.39911 -0.725443 0
M  V30 5748 C 552.241 -1.41688 -1.8698 0
M  V30 5749 C 553.257 -0.310579 -1.71206 0
M  V30 5750 O 554.433 -0.55359 -1.93642 0
M  V30 5751 C 551.498 -1.26811 -3.22676 0
M  V30 5752 C 550.559 -2.47497 -3.50776 0
M  V30 5753 C 549.792 -2.3332 -4.79997 0
M  V30 5754 O 550.015 -1.34175 -5.54394 0
M  V30 5755 O 548.949 -3.22498 -5.08211 0
M  V30 5756 H 552.775 -2.38171 -1.88436 0
M  V30 5757 H 550.36 -1.21128 -0.874548 0
M  V30 5758 H 552.242 -1.20684 -4.03749 0
M  V30 5759 H 550.917 -0.334289 -3.21969 0
M  V30 5760 H 549.824 -2.59201 -2.69751 0
M  V30 5761 H 551.157 -3.39606 -3.5627 0
M  V30 5762 N 552.809 0.956637 -1.25245 0
M  V30 5763 C 554.22 1.51569 -1.09012 0
M  V30 5764 C 554.571 1.93322 0.334813 0
M  V30 5765 O 553.696 1.78421 1.22454 0
M  V30 5766 C 554.291 2.75444 -1.97271 0
M  V30 5767 C 552.85 3.27669 -1.8523 0
M  V30 5768 C 551.997 2.00517 -1.91542 0
M  V30 5769 H 554.948 0.773746 -1.3856 0
M  V30 5770 H 554.969 3.4919 -1.51151 0
M  V30 5771 H 554.481 2.45024 -3.00973 0
M  V30 5772 H 552.582 3.62914 -0.844045 0
M  V30 5773 H 552.695 3.9582 -2.69932 0
M  V30 5774 H 551.059 2.15727 -1.35404 0
M  V30 5775 H 551.842 1.72448 -2.96844 0
M  V30 5776 N 554.287 1.06798 1.15896 0
M  V30 5777 C 555.535 0.786211 1.8618 0
M  V30 5778 C 555.856 -0.689547 1.82401 0
M  V30 5779 O 555.126 -1.49913 1.26107 0
M  V30 5780 H 553.706 0.287843 0.689315 0
M  V30 5781 H 556.368 1.35055 1.40521 0
M  V30 5782 H 555.464 1.1157 2.91477 0
M  V30 5783 N 555.766 -1.3263 0.851289 0
M  V30 5784 C 557.182 -1.50162 0.5407 0
M  V30 5785 C 557.382 -1.78788 -0.929369 0
M  V30 5786 O 556.438 -1.85545 -1.71258 0
M  V30 5787 C 557.751 -2.64803 1.42478 0
M  V30 5788 C 559.299 -2.78688 1.42485 0
M  V30 5789 C 559.774 -3.96405 2.29407 0
M  V30 5790 N 561.265 -4.0366 2.27184 0
M  V30 5791 C 562 -4.93971 2.9117 0
M  V30 5792 N 561.496 -5.89313 3.64256 0
M  V30 5793 N 563.289 -4.87066 2.80576 0
M  V30 5794 H 555.44 -1.12315 1.80275 0
M  V30 5795 H 557.703 -0.553266 0.769806 0
M  V30 5796 H 557.409 -2.50368 2.46999 0
M  V30 5797 H 557.283 -3.60506 1.10974 0
M  V30 5798 H 559.67 -2.92547 0.387304 0
M  V30 5799 H 559.751 -1.83708 1.78002 0
M  V30 5800 H 559.395 -3.83304 3.33228 0
M  V30 5801 H 559.325 -4.90654 1.91224 0
M  V30 5802 H 561.816 -3.35435 1.74045 0
M  V30 5803 H 562.129 -6.54913 4.10255 0
M  V30 5804 H 560.474 -5.8935 3.68364 0
M  V30 5805 H 563.665 -4.11552 2.23031 0
M  V30 5806 H 563.838 -5.57248 3.30725 0
M  V30 5807 N 557.244 -0.608902 -1.45362 0
M  V30 5808 C 558.191 0.109172 -2.30542 0
M  V30 5809 C 559.161 0.858704 -1.42181 0
M  V30 5810 O 560.346 0.844178 -1.71109 0
M  V30 5811 C 557.486 1.09971 -3.27109 0
M  V30 5812 C 556.599 0.350911 -4.30572 0
M  V30 5813 C 555.734 1.33129 -5.14247 0
M  V30 5814 C 554.773 0.570377 -6.09437 0
M  V30 5815 N 553.91 1.5001 -6.85887 0
M  V30 5816 H 558.75 -0.623195 -2.91411 0
M  V30 5817 H 556.287 -0.319122 -1.43597 0
M  V30 5818 H 558.245 1.68714 -3.81564 0
M  V30 5819 H 556.875 1.79947 -2.67991 0
M  V30 5820 H 555.927 -0.352054 -3.78767 0
M  V30 5821 H 557.239 -0.242725 -4.98209 0
M  V30 5822 H 556.393 1.99074 -5.73109 0
M  V30 5823 H 555.132 1.95885 -4.46632 0
M  V30 5824 H 554.137 -0.102702 -5.49704 0
M  V30 5825 H 555.362 -0.0521607 -6.7908 0
M  V30 5826 H 553.308 2.11529 -6.2096 0
M  V30 5827 H 553.225 0.959934 -7.49881 0
M  V30 5828 H 554.493 2.14909 -7.49289 0
M  V30 5829 N 558.722 1.53707 -0.348139 0
M  V30 5830 C 560.138 1.596 0.00361134 0
M  V30 5831 C 560.338 1.36394 1.4832 0
M  V30 5832 O 559.394 1.16046 2.24253 0
M  V30 5833 C 560.707 2.97512 -0.436682 0
M  V30 5834 C 562.255 3.10568 -0.389416 0
M  V30 5835 C 562.73 4.50866 -0.805249 0
M  V30 5836 N 564.221 4.56929 -0.759616 0
M  V30 5837 C 564.956 5.63643 -1.05327 0
M  V30 5838 N 564.452 6.78189 -1.41531 0
M  V30 5839 N 566.245 5.5354 -0.977207 0
M  V30 5840 H 558.396 1.67044 -1.31187 0
M  V30 5841 H 560.659 0.782559 -0.535075 0
M  V30 5842 H 560.365 3.19575 -1.46849 0
M  V30 5843 H 560.239 3.76742 0.185744 0
M  V30 5844 H 562.626 2.88226 0.633228 0
M  V30 5845 H 562.707 2.33387 -1.04711 0
M  V30 5846 H 562.351 4.73943 -1.82593 0
M  V30 5847 H 562.281 5.26452 -0.124989 0
M  V30 5848 H 564.772 3.74675 -0.49265 0
M  V30 5849 H 565.085 7.55541 -1.62411 0
M  V30 5850 H 563.43 6.79624 -1.45381 0
M  V30 5851 H 566.621 4.62932 -0.693675 0
M  V30 5852 H 566.794 6.36614 -1.2094 0
M  V30 5853 N 560.2 0.0768682 1.57412 0
M  V30 5854 C 561.449 -0.590679 1.92857 0
M  V30 5855 C 561.762 -1.70461 0.959293 0
M  V30 5856 O 562.968 -2.43207 1.20675 0
M  V30 5857 C 561.424 -1.10204 3.42612 0
M  V30 5858 C 561.032 -0.0188447 4.47996 0
M  V30 5859 C 562.776 -1.74336 3.87049 0
M  V30 5860 C 560.683 -0.544536 5.88888 0
M  V30 5861 H 559.613 -0.224411 0.71983 0
M  V30 5862 H 562.264 0.149924 1.82887 0
M  V30 5863 H 560.646 -1.89577 3.47673 0
M  V30 5864 H 561.82 0.755936 4.54557 0
M  V30 5865 H 560.135 0.526555 4.13057 0
M  V30 5866 H 562.732 -2.14708 4.89699 0
M  V30 5867 H 563.075 -2.60537 3.24694 0
M  V30 5868 H 563.608 -1.01577 3.84613 0
M  V30 5869 H 560.347 0.280426 6.549 0
M  V30 5870 H 559.867 -1.28673 5.85836 0
M  V30 5871 H 561.546 -1.01933 6.3892 0
M  V30 5872 N 561.678 -1.56367 -0.196722 0
M  V30 5873 C 563.089 -1.70462 -0.761545 0
M  V30 5874 C 563.44 -0.683161 -1.83922 0
M  V30 5875 O 562.565 0.160753 -2.15802 0
M  V30 5876 C 563.16 -3.09057 -1.38814 0
M  V30 5877 C 561.719 -3.24922 -1.90007 0
M  V30 5878 C 560.866 -2.66412 -0.769399 0
M  V30 5879 H 563.817 -1.58675 0.0283263 0
M  V30 5880 H 563.838 -3.06296 -2.2575 0
M  V30 5881 H 563.35 -3.83378 -0.603559 0
M  V30 5882 H 561.451 -2.55514 -2.71189 0
M  V30 5883 H 561.564 -4.3241 -2.06297 0
M  V30 5884 H 559.928 -2.25546 -1.18326 0
M  V30 5885 H 560.711 -3.433 0.00291773 0
M  V30 5886 N 563.156 0.464375 -1.50603 0
M  V30 5887 C 564.086 1.56944 -1.72889 0
M  V30 5888 C 565.067 1.59979 -0.577997 0
M  V30 5889 O 566.252 1.76138 -0.817855 0
M  V30 5890 C 563.382 2.95225 -1.8292 0
M  V30 5891 C 562.336 3.07056 -2.98162 0
M  V30 5892 C 561.662 4.47051 -2.93343 0
M  V30 5893 C 562.962 2.83648 -4.38567 0
M  V30 5894 H 564.656 1.38547 -2.65415 0
M  V30 5895 H 562.202 0.665082 -1.27721 0
M  V30 5896 H 564.155 3.72467 -1.97095 0
M  V30 5897 H 562.879 3.14793 -0.870209 0
M  V30 5898 H 561.538 2.32248 -2.83648 0
M  V30 5899 H 561.186 4.63547 -1.95276 0
M  V30 5900 H 560.886 4.55902 -3.70712 0
M  V30 5901 H 562.41 5.26304 -3.09575 0
M  V30 5902 H 563.824 3.50636 -4.53572 0
M  V30 5903 H 562.221 3.03937 -5.17438 0
M  V30 5904 H 563.291 1.79451 -4.50472 0
M  V30 5905 N 564.634 1.40294 0.718013 0
M  V30 5906 C 565.862 1.4175 1.50714 0
M  V30 5907 C 566.277 0.0165366 1.88793 0
M  V30 5908 O 565.634 -0.958942 1.55276 0
M  V30 5909 C 565.685 2.30598 2.784 0
M  V30 5910 O 565.406 3.6524 2.41932 0
M  V30 5911 C 566.907 2.4062 3.72313 0
M  V30 5912 H 564.127 0.483565 0.465194 0
M  V30 5913 H 566.671 1.84316 0.885889 0
M  V30 5914 H 564.826 1.91401 3.36815 0
M  V30 5915 H 565.24 4.12402 3.24076 0
M  V30 5916 H 566.714 3.07001 4.58753 0
M  V30 5917 H 567.191 1.4305 4.15251 0
M  V30 5918 H 567.797 2.80359 3.19811 0
M  V30 5919 N 566.112 -0.949982 1.2575 0
M  V30 5920 C 567.528 -1.22191 1.02672 0
M  V30 5921 C 567.728 -1.99898 -0.253588 0
M  V30 5922 O 566.784 -2.33329 -0.965076 0
M  V30 5923 C 568.097 -1.99175 2.25277 0
M  V30 5924 C 569.645 -2.12201 2.30087 0
M  V30 5925 C 570.12 -2.92586 3.5236 0
M  V30 5926 N 571.611 -3.00163 3.52784 0
M  V30 5927 C 572.346 -3.62766 4.44059 0
M  V30 5928 N 571.842 -4.26943 5.45611 0
M  V30 5929 N 573.635 -3.59953 4.3173 0
M  V30 5930 H 565.786 -0.430258 2.07996 0
M  V30 5931 H 568.049 -0.252844 0.91366 0
M  V30 5932 H 567.755 -1.49479 3.18354 0
M  V30 5933 H 567.629 -2.99868 2.28821 0
M  V30 5934 H 570.016 -2.61093 1.3753 0
M  V30 5935 H 570.097 -1.10799 2.30559 0
M  V30 5936 H 569.741 -2.44383 4.45241 0
M  V30 5937 H 569.671 -3.94224 3.49134 0
M  V30 5938 H 572.162 -2.54529 2.79327 0
M  V30 5939 H 572.475 -4.72583 6.11461 0
M  V30 5940 H 570.82 -4.25557 5.49478 0
M  V30 5941 H 574.011 -3.09003 3.51617 0
M  V30 5942 H 574.184 -4.08455 5.03059 0
M  V30 5943 N 567.59 -1.07411 -1.15328 0
M  V30 5944 C 568.818 -0.818782 -1.90009 0
M  V30 5945 C 569.233 0.628072 -1.78047 0
M  V30 5946 O 568.59 1.43085 -1.13282 0
M  V30 5947 C 568.641 -1.21874 -3.40337 0
M  V30 5948 O 568.362 -2.60883 -3.51954 0
M  V30 5949 C 569.863 -0.992796 -4.3204 0
M  V30 5950 H 567.083 -0.296007 -0.60218 0
M  V30 5951 H 569.627 -1.43073 -1.46117 0
M  V30 5952 H 567.782 -0.651103 -3.81889 0
M  V30 5953 H 568.196 -2.77216 -4.45255 0
M  V30 5954 H 569.67 -1.32215 -5.35932 0
M  V30 5955 H 570.147 0.0708331 -4.39143 0
M  V30 5956 H 570.753 -1.54537 -3.9623 0
M  V30 5957 N 569.068 1.32177 -0.85831 0
M  V30 5958 C 570.296 2.01313 -0.477582 0
M  V30 5959 C 570.711 1.6449 0.926736 0
M  V30 5960 O 570.068 0.868096 1.60531 0
M  V30 5961 C 570.119 3.56293 -0.611337 0
M  V30 5962 O 569.84 3.91794 -1.96034 0
M  V30 5963 C 571.341 4.42702 -0.230093 0
M  V30 5964 H 568.561 0.644323 -0.187322 0
M  V30 5965 H 571.105 1.68674 -1.15626 0
M  V30 5966 H 569.26 3.87395 0.0196494 0
M  V30 5967 H 569.674 4.86513 -1.95973 0
M  V30 5968 H 571.148 5.50727 -0.374674 0
M  V30 5969 H 571.625 4.3129 0.829779 0
M  V30 5970 H 572.231 4.16997 -0.836302 0
M  V30 5971 N 570.547 0.616602 1.45037 0
M  V30 5972 C 571.775 0.121968 2.0654 0
M  V30 5973 C 572.19 -1.19743 1.45969 0
M  V30 5974 O 571.547 -1.73133 0.577168 0
M  V30 5975 C 571.598 -0.0145171 3.61497 0
M  V30 5976 O 571.319 1.25269 4.19809 0
M  V30 5977 C 572.82 -0.539555 4.40004 0
M  V30 5978 H 570.04 0.0729837 0.667019 0
M  V30 5979 H 572.584 0.846891 1.8614 0
M  V30 5980 H 570.739 -0.689809 3.81209 0
M  V30 5981 H 571.153 1.08816 5.13088 0
M  V30 5982 H 572.627 -0.584112 5.48901 0
M  V30 5983 H 573.104 -1.56368 4.10421 0
M  V30 5984 H 573.71 0.101995 4.25178 0
M  V30 5985 N 572.025 -1.5352 0.356285 0
M  V30 5986 C 573.272 -2.01117 -0.236303 0
M  V30 5987 C 573.6 -1.24381 -1.49531 0
M  V30 5988 O 572.855 -0.323057 -1.93015 0
M  V30 5989 C 573.154 -3.52607 -0.583369 0
M  V30 5990 C 572.82 -4.47151 0.58023 0
M  V30 5991 C 571.482 -4.72718 0.899528 0
M  V30 5992 C 573.834 -5.03137 1.36024 0
M  V30 5993 C 571.162 -5.51523 2.00098 0
M  V30 5994 C 573.514 -5.83145 2.45204 0
M  V30 5995 C 572.178 -6.07001 2.77679 0
M  V30 5996 H 571.448 -0.735938 -0.0864695 0
M  V30 5997 H 574.095 -1.85209 0.48683 0
M  V30 5998 H 572.4 -3.66413 -1.38739 0
M  V30 5999 H 574.097 -3.86901 -1.05397 0
M  V30 6000 H 570.687 -4.27394 0.321322 0
M  V30 6001 H 574.871 -4.83339 1.12682 0
M  V30 6002 H 570.127 -5.68229 2.25668 0
M  V30 6003 H 574.301 -6.25537 3.06067 0
M  V30 6004 H 571.928 -6.67851 3.63151 0
M  V30 6005 O 573.542 -0.225101 -1.59924 0
M  V30 6006 H 574.233 0.354711 -1.90425 0
M  V30 END ATOM
M  V30 BEGIN BOND
M  V30 END BOND
M  V30 END CTAB
M  END
$$$$
