drugbank_target|P31491 YopE regulator (DB03366)
 OpenBabel12092120273D

  0  0  0     0  0            999 V3000
M  V30 BEGIN CTAB
M  V30 COUNTS 2050 2074 0 0 0
M  V30 BEGIN ATOM
M  V30 1 H -0.908 1.98254 -0.117106 0
M  V30 2 N 0 1.576 0 0
M  V30 3 C 0.933 2.03868 1.02534 0
M  V30 4 C 1.911 0.928543 1.3348 0
M  V30 5 O 3.095 1.19667 1.45644 0
M  V30 6 C 0.222 2.43627 2.35294 0
M  V30 7 C -0.732 3.65373 2.2001 0
M  V30 8 S 0.101 5.13292 1.52614 0
M  V30 9 C 1.257 5.56322 2.86805 0
M  V30 10 H 1.49 2.90518 0.631377 0
M  V30 11 H -0.977 1.52953 0.210867 0
M  V30 12 H 0.981 2.67203 3.11629 0
M  V30 13 H -0.358 1.57376 2.7183 0
M  V30 14 H -1.165 3.90944 3.18086 0
M  V30 15 H -1.563 3.418 1.51819 0
M  V30 16 H 0.729 5.58782 3.83104 0
M  V30 17 H 1.672 6.56266 2.65933 0
M  V30 18 H 2.08 4.83886 2.90714 0
M  V30 19 N 1.4781 -0.272755 1.55222 0
M  V30 20 C 2.7081 -1.02107 1.79604 0
M  V30 21 C 3.1161 -1.80419 0.569693 0
M  V30 22 O 2.4591 -1.77566 -0.470743 0
M  V30 23 C 2.5211 -2.02675 2.96922 0
M  V30 24 C 2.1851 -1.43299 4.33952 0
M  V30 25 C 3.1821 -0.84853 5.12929 0
M  V30 26 C 0.8671 -1.46012 4.8061 0
M  V30 27 C 2.8611 -0.299109 6.36698 0
M  V30 28 C 0.5481 -0.906833 6.04334 0
M  V30 29 C 1.5461 -0.32733 6.82215 0
M  V30 30 O 1.2341 0.217479 8.03606 0
M  V30 31 H 0.9661 -0.307322 0.602104 0
M  V30 32 H 3.5201 -0.308862 2.03065 0
M  V30 33 H 1.7501 -2.77656 2.69155 0
M  V30 34 H 3.4391 -2.63637 3.08626 0
M  V30 35 H 4.2051 -0.820265 4.78013 0
M  V30 36 H 0.0841 -1.90056 4.2 0
M  V30 37 H 3.6281 0.153852 6.9743 0
M  V30 38 H -0.4749 -0.932339 6.38731 0
M  V30 39 H 0.2931 0.106863 8.1843 0
M  V30 40 N 2.9562 -1.48159 -0.537278 0
M  V30 41 C 4.1812 -1.59707 -1.32319 0
M  V30 42 C 4.6062 -0.254859 -1.86365 0
M  V30 43 O 3.9642 0.772378 -1.64024 0
M  V30 44 C 4.0122 -2.6412 -2.45505 0
M  V30 45 O 3.1162 -2.20774 -3.48328 0
M  V30 46 H 2.4572 -0.535791 -0.392204 0
M  V30 47 H 4.9872 -1.94092 -0.647268 0
M  V30 48 H 4.9972 -2.85166 -2.91795 0
M  V30 49 H 3.6722 -3.61567 -2.05528 0
M  V30 50 H 2.2492 -2.09911 -3.08207 0
M  V30 51 N 4.4343 0.785586 -1.36625 0
M  V30 52 C 5.6813 1.54362 -1.31067 0
M  V30 53 C 6.0093 1.94195 0.10893 0
M  V30 54 O 5.2643 1.63262 1.07908 0
M  V30 55 C 5.5633 2.83007 -2.1827 0
M  V30 56 C 5.2293 2.62294 -3.6676 0
M  V30 57 C 3.8913 2.56353 -4.0723 0
M  V30 58 C 6.2433 2.43371 -4.6089 0
M  V30 59 C 3.5713 2.29461 -5.39967 0
M  V30 60 C 5.9233 2.18005 -5.93849 0
M  V30 61 C 4.5873 2.105 -6.3344 0
M  V30 62 H 3.8573 0.564851 -0.479609 0
M  V30 63 H 6.5043 0.906028 -1.68711 0
M  V30 64 H 4.8093 3.51253 -1.73576 0
M  V30 65 H 6.5063 3.40817 -2.11292 0
M  V30 66 H 3.0963 2.67774 -3.34656 0
M  V30 67 H 7.2803 2.46959 -4.30494 0
M  V30 68 H 2.5363 2.22135 -5.69619 0
M  V30 69 H 6.7103 2.02359 -6.66351 0
M  V30 70 H 4.3373 1.89425 -7.36222 0
M  V30 71 N 5.9124 1.20967 1.01018 0
M  V30 72 C 6.8224 0.980157 2.13143 0
M  V30 73 C 7.8384 -0.0660665 1.73875 0
M  V30 74 O 9.0144 0.122821 2.01025 0
M  V30 75 C 6.0794 0.54216 3.42435 0
M  V30 76 C 5.1404 1.65999 3.95908 0
M  V30 77 C 4.3734 1.2428 5.19028 0
M  V30 78 O 4.5964 0.114196 5.70286 0
M  V30 79 O 3.5304 2.05271 5.65816 0
M  V30 80 H 7.3564 1.91913 2.35379 0
M  V30 81 H 4.9414 0.994099 1.11526 0
M  V30 82 H 6.8234 0.30744 4.20277 0
M  V30 83 H 5.4984 -0.36815 3.216 0
M  V30 84 H 4.4054 1.94906 3.19316 0
M  V30 85 H 5.7384 2.54753 4.21143 0
M  V30 86 N 7.3905 -1.2043 1.01659 0
M  V30 87 C 8.3225 -2.22626 0.544988 0
M  V30 88 C 9.3355 -1.58479 -0.372609 0
M  V30 89 O 10.5245 -1.77679 -0.170958 0
M  V30 90 C 7.6245 -3.38141 -0.22663 0
M  V30 91 C 6.7975 -4.31877 0.692876 0
M  V30 92 C 5.8565 -5.26191 -0.0311616 0
M  V30 93 O 4.8825 -5.6612 0.591343 0
M  V30 94 N 6.0845 -5.65618 -1.30601 0
M  V30 95 H 8.8495 -2.63716 1.42388 0
M  V30 96 H 6.4105 -1.34971 0.894116 0
M  V30 97 H 8.4025 -3.98239 -0.72024 0
M  V30 98 H 6.9725 -2.95943 -1.00681 0
M  V30 99 H 6.1925 -3.69746 1.36679 0
M  V30 100 H 7.4805 -4.91426 1.31824 0
M  V30 101 H 6.8785 -5.3519 -1.83269 0
M  V30 102 H 5.4355 -6.28025 -1.74435 0
M  V30 103 N 8.8686 -0.792821 -1.36206 0
M  V30 104 C 9.8316 -0.199459 -2.2833 0
M  V30 105 C 10.8316 0.605189 -1.48977 0
M  V30 106 O 12.0216 0.425685 -1.68919 0
M  V30 107 C 9.1536 0.723523 -3.33134 0
M  V30 108 H 10.3466 -1.01181 -2.82316 0
M  V30 109 H 7.8996 -0.562485 -1.45828 0
M  V30 110 H 8.6346 1.56008 -2.84309 0
M  V30 111 H 8.4196 0.148436 -3.91819 0
M  V30 112 H 9.9096 1.13344 -4.01924 0
M  V30 113 N 10.3467 1.47872 -0.545128 0
M  V30 114 C 11.5957 2.01695 -0.0145033 0
M  V30 115 C 11.9087 1.42609 1.33873 0
M  V30 116 O 13.1147 1.88021 1.95858 0
M  V30 117 C 11.5707 3.59892 0.0245068 0
M  V30 118 C 11.1787 4.27966 -1.32475 0
M  V30 119 C 12.9227 4.21507 0.50316 0
M  V30 120 C 10.8297 5.78136 -1.2455 0
M  V30 121 H 9.7597 0.753998 -0.00165172 0
M  V30 122 H 12.4107 1.69985 -0.691175 0
M  V30 123 H 10.7927 3.88509 0.766575 0
M  V30 124 H 11.9667 4.11003 -2.08357 0
M  V30 125 H 10.2817 3.78286 -1.74036 0
M  V30 126 H 12.8787 5.31538 0.580656 0
M  V30 127 H 13.2217 3.87855 1.51243 0
M  V30 128 H 13.7547 3.97376 -0.183681 0
M  V30 129 H 10.4937 6.16388 -2.23039 0
M  V30 130 H 10.0137 5.97469 -0.528282 0
M  V30 131 H 11.6927 6.40099 -0.942488 0
M  V30 132 N 11.8248 0.280983 1.55075 0
M  V30 133 C 13.0528 -0.337293 2.04132 0
M  V30 134 C 13.4678 -1.4903 1.15912 0
M  V30 135 O 12.8248 -1.81606 0.180459 0
M  V30 136 C 12.8758 -0.812706 3.52246 0
M  V30 137 O 12.5968 0.294387 4.3711 0
M  V30 138 C 14.0978 -1.4982 4.17216 0
M  V30 139 H 11.3178 -0.0761638 0.666663 0
M  V30 140 H 13.8618 0.414787 2.00249 0
M  V30 141 H 12.0168 -1.51486 3.56554 0
M  V30 142 H 12.4308 -0.0721325 5.2445 0
M  V30 143 H 13.9048 -1.7822 5.22438 0
M  V30 144 H 14.3818 -2.43168 3.65741 0
M  V30 145 H 14.9878 -0.839742 4.16927 0
M  V30 146 N 13.3029 -1.57598 0.00835791 0
M  V30 147 C 14.2349 -2.05811 -1.00868 0
M  V30 148 C 15.2479 -0.977579 -1.30182 0
M  V30 149 O 16.4369 -1.25421 -1.27011 0
M  V30 150 C 13.5369 -2.45016 -2.34137 0
M  V30 151 C 12.7099 -3.75903 -2.23643 0
M  V30 152 C 11.7689 -4.01884 -3.3967 0
M  V30 153 O 10.7949 -4.72433 -3.17483 0
M  V30 154 N 11.9969 -3.50432 -4.62793 0
M  V30 155 H 14.7619 -2.93684 -0.597458 0
M  V30 156 H 12.3229 -1.60909 -0.178852 0
M  V30 157 H 14.3149 -2.59506 -3.10546 0
M  V30 158 H 12.8849 -1.62618 -2.66972 0
M  V30 159 H 12.1049 -3.7141 -1.32091 0
M  V30 160 H 13.3929 -4.61695 -2.13812 0
M  V30 161 H 12.7909 -2.93317 -4.83716 0
M  V30 162 H 11.3479 -3.70236 -5.3644 0
M  V30 163 N 14.781 0.264519 -1.55364 0
M  V30 164 C 15.711 1.33121 -1.91836 0
M  V30 165 C 16.692 1.51101 -0.781192 0
M  V30 166 O 17.877 1.64003 -1.04003 0
M  V30 167 C 15.007 2.68921 -2.19769 0
M  V30 168 C 13.961 2.65661 -3.35571 0
M  V30 169 C 13.287 4.05093 -3.49004 0
M  V30 170 C 14.587 2.24187 -4.71739 0
M  V30 171 H 16.281 1.02844 -2.81182 0
M  V30 172 H 13.827 0.493286 -1.35287 0
M  V30 173 H 15.78 3.43663 -2.43872 0
M  V30 174 H 14.504 3.00799 -1.27231 0
M  V30 175 H 13.163 1.93377 -3.1145 0
M  V30 176 H 12.811 4.34206 -2.53917 0
M  V30 177 H 12.511 4.03804 -4.26868 0
M  V30 178 H 14.035 4.81561 -3.75408 0
M  V30 179 H 15.449 2.88654 -4.9533 0
M  V30 180 H 13.846 2.34044 -5.52579 0
M  V30 181 H 14.916 1.19327 -4.69988 0
M  V30 182 N 16.2591 1.48442 0.529413 0
M  V30 183 C 17.5061 1.56488 1.28521 0
M  V30 184 C 17.8341 0.239042 1.93025 0
M  V30 185 O 17.0891 -0.770713 1.79885 0
M  V30 186 C 17.3881 2.6523 2.39558 0
M  V30 187 C 17.0541 4.07648 1.92702 0
M  V30 188 C 15.7161 4.46411 1.79641 0
M  V30 189 C 18.0681 4.96896 1.573 0
M  V30 190 C 15.3961 5.72226 1.29514 0
M  V30 191 C 17.7481 6.23202 1.08636 0
M  V30 192 C 16.4121 6.60821 0.941919 0
M  V30 193 H 15.6821 0.572631 0.470292 0
M  V30 194 H 18.3291 1.82161 0.59072 0
M  V30 195 H 16.6341 2.33419 3.14679 0
M  V30 196 H 18.3311 2.68671 2.97686 0
M  V30 197 H 14.9211 3.77036 2.03819 0
M  V30 198 H 19.1051 4.67626 1.66251 0
M  V30 199 H 14.3611 6.00097 1.17019 0
M  V30 200 H 18.5351 6.91753 0.803136 0
M  V30 201 H 16.1621 7.58198 0.5513 0
M  V30 202 N 17.7372 -0.778329 1.37039 0
M  V30 203 C 18.6692 -1.90034 1.2814 0
M  V30 204 C 19.6822 -1.61585 0.198558 0
M  V30 205 O 20.8712 -1.72625 0.454175 0
M  V30 206 C 17.9712 -3.25108 0.956968 0
M  V30 207 C 17.1442 -3.81253 2.14394 0
M  V30 208 C 16.2032 -4.94789 1.79082 0
M  V30 209 O 15.2292 -5.10721 2.51301 0
M  V30 210 N 16.4312 -5.75878 0.731043 0
M  V30 211 H 19.1962 -1.98186 2.24816 0
M  V30 212 H 16.7572 -0.957129 1.30578 0
M  V30 213 H 18.7492 -3.9857 0.701701 0
M  V30 214 H 17.3192 -3.125 0.0789812 0
M  V30 215 H 16.5392 -2.99647 2.56135 0
M  V30 216 H 17.8272 -4.15495 2.93668 0
M  V30 217 H 17.2252 -5.65547 0.131618 0
M  V30 218 H 15.7822 -6.49596 0.535622 0
M  V30 219 N 19.2153 -1.21501 -1.00376 0
M  V30 220 C 20.1473 -0.933174 -2.09343 0
M  V30 221 C 21.1603 0.0840896 -1.62583 0
M  V30 222 O 22.3493 -0.148563 -1.77881 0
M  V30 223 C 19.4493 -0.379869 -3.36764 0
M  V30 224 C 18.6223 -1.45176 -4.12605 0
M  V30 225 C 17.6813 -0.907476 -5.18316 0
M  V30 226 O 16.7073 -1.5912 -5.46507 0
M  V30 227 N 17.9093 0.276649 -5.7984 0
M  V30 228 H 20.6743 -1.87124 -2.34104 0
M  V30 229 H 18.2353 -1.12043 -1.16867 0
M  V30 230 H 20.2273 -0.00131488 -4.047 0
M  V30 231 H 18.7973 0.463048 -3.09151 0
M  V30 232 H 18.0173 -2.00411 -3.39454 0
M  V30 233 H 19.3053 -2.17328 -4.6005 0
M  V30 234 H 18.7033 0.849147 -5.59291 0
M  V30 235 H 17.2603 0.596702 -6.49063 0
M  V30 236 N 20.6934 1.19889 -1.02296 0
M  V30 237 C 21.6234 2.25141 -0.619174 0
M  V30 238 C 22.6044 1.66051 0.368915 0
M  V30 239 O 23.7894 1.92546 0.252941 0
M  V30 240 C 20.9194 3.4728 0.0368783 0
M  V30 241 C 19.8734 4.19005 -0.872865 0
M  V30 242 C 19.1994 5.34637 -0.0822402 0
M  V30 243 C 20.4994 4.74452 -2.18387 0
M  V30 244 H 22.1934 2.59171 -1.49903 0
M  V30 245 H 19.7394 1.24579 -0.722222 0
M  V30 246 H 21.6924 4.20098 0.330958 0
M  V30 247 H 20.4164 3.12433 0.95149 0
M  V30 248 H 19.0754 3.48061 -1.15105 0
M  V30 249 H 18.7234 4.96034 0.83422 0
M  V30 250 H 18.4234 5.83557 -0.688149 0
M  V30 251 H 19.9474 6.10255 0.205238 0
M  V30 252 H 21.3614 5.39055 -1.95172 0
M  V30 253 H 19.7584 5.33834 -2.74119 0
M  V30 254 H 20.8284 3.92844 -2.84257 0
M  V30 255 N 22.1715 0.800033 1.35784 0
M  V30 256 C 23.3965 0.388511 2.03729 0
M  V30 257 C 23.8215 -0.990481 1.5991 0
M  V30 258 O 23.1795 -1.64013 0.772612 0
M  V30 259 C 23.2275 0.4726 3.5749 0
M  V30 260 O 22.3315 -0.51646 4.09153 0
M  V30 261 H 21.6725 0.163271 0.643614 0
M  V30 262 H 24.2025 1.0841 1.73518 0
M  V30 263 H 24.2125 0.34003 4.06581 0
M  V30 264 H 22.8875 1.47848 3.88734 0
M  V30 265 H 21.4645 -0.344673 3.71304 0
M  V30 266 N 23.6496 -1.47581 0.552962 0
M  V30 267 C 24.5796 -2.32762 -0.185451 0
M  V30 268 C 25.5606 -1.43527 -0.912905 0
M  V30 269 O 26.7456 -1.72388 -0.894201 0
M  V30 270 C 23.8756 -3.25219 -1.21859 0
M  V30 271 C 22.8296 -4.23661 -0.607864 0
M  V30 272 C 22.1556 -5.05413 -1.74533 0
M  V30 273 C 23.4556 -5.20481 0.435582 0
M  V30 274 H 25.1496 -2.94749 0.525684 0
M  V30 275 H 22.6956 -1.41738 0.254251 0
M  V30 276 H 24.6486 -3.8365 -1.7433 0
M  V30 277 H 23.3726 -2.61279 -1.95961 0
M  V30 278 H 22.0316 -3.66451 -0.104489 0
M  V30 279 H 21.6796 -4.3788 -2.47529 0
M  V30 280 H 21.3796 -5.72059 -1.34249 0
M  V30 281 H 22.9036 -5.66701 -2.27338 0
M  V30 282 H 24.3176 -5.733 -0.00290157 0
M  V30 283 H 22.7146 -5.95305 0.757067 0
M  V30 284 H 23.7846 -4.66217 1.33303 0
M  V30 285 N 25.1277 -0.289203 -1.54924 0
M  V30 286 C 26.3527 0.329299 -2.04769 0
M  V30 287 C 26.7777 1.4763 -1.16564 0
M  V30 288 O 26.1357 1.80527 -0.167186 0
M  V30 289 C 26.1837 0.774438 -3.52186 0
M  V30 290 O 25.2877 1.88038 -3.67036 0
M  V30 291 H 24.6287 0.0659259 -0.660719 0
M  V30 292 H 27.1587 -0.42761 -2.00082 0
M  V30 293 H 27.1687 1.06642 -3.93816 0
M  V30 294 H 25.8437 -0.0646707 -4.1585 0
M  V30 295 H 24.4207 1.58985 -3.3731 0
M  V30 296 N 26.6058 1.57591 -0.0167156 0
M  V30 297 C 27.8548 1.90461 0.663877 0
M  V30 298 C 28.1678 0.893515 1.73999 0
M  V30 299 O 29.3738 1.11302 2.47637 0
M  V30 300 C 27.8298 3.38155 1.23204 0
M  V30 301 C 27.4378 4.47597 0.189866 0
M  V30 302 C 29.1818 3.80111 1.88986 0
M  V30 303 C 27.0888 5.86379 0.768964 0
M  V30 304 H 26.0188 0.710738 0.251729 0
M  V30 305 H 28.6698 1.83326 -0.0799926 0
M  V30 306 H 27.0518 3.40182 2.02712 0
M  V30 307 H 28.2258 4.57112 -0.581846 0
M  V30 308 H 26.5408 4.14766 -0.368475 0
M  V30 309 H 29.1378 4.81145 2.33247 0
M  V30 310 H 29.4808 3.14511 2.72743 0
M  V30 311 H 30.0138 3.80454 1.16187 0
M  V30 312 H 26.7528 6.55493 -0.0301957 0
M  V30 313 H 26.2728 5.80496 1.50945 0
M  V30 314 H 27.9518 6.34563 1.26251 0
M  V30 315 N 28.0839 -0.256276 1.55502 0
M  V30 316 C 29.4949 -0.826068 1.67431 0
M  V30 317 C 29.8459 -1.86396 0.612446 0
M  V30 318 O 28.9709 -2.15031 -0.243025 0
M  V30 319 C 29.5659 -1.50512 3.03532 0
M  V30 320 C 28.1249 -2.02273 3.17431 0
M  V30 321 C 27.2719 -0.870548 2.63281 0
M  V30 322 H 30.2229 -0.0322728 1.58667 0
M  V30 323 H 30.2439 -2.37279 2.97454 0
M  V30 324 H 29.7559 -0.749484 3.80794 0
M  V30 325 H 27.8569 -2.80746 2.44974 0
M  V30 326 H 27.9699 -2.22655 4.24219 0
M  V30 327 H 26.3339 -1.26851 2.20864 0
M  V30 328 H 27.1169 -0.128149 3.43061 0
M  V30 329 N 29.562 -1.4872 -0.521534 0
M  V30 330 C 30.839 -1.4766 -1.2828 0
M  V30 331 C 31.219 -0.19292 -2.10217 0
M  V30 332 O 30.567 0.825193 -2.13079 0
M  V30 333 C 30.777 -2.74358 -2.15705 0
M  V30 334 C 32.125 -3.23028 -2.75569 0
M  V30 335 O 33.149 -2.75333 -2.25987 0
M  V30 336 O 32.008 -4.0604 -3.65778 0
M  V30 337 H 29.102 -0.590085 -0.579421 0
M  V30 338 H 31.648 -1.60963 -0.537492 0
M  V30 339 H 30.42 -3.59292 -1.54999 0
M  V30 340 H 30.043 -2.63816 -2.97467 0
M  V30 341 N 31.0401 0.771051 -1.3745 0
M  V30 342 C 32.2681 1.56015 -1.35893 0
M  V30 343 C 32.6831 1.88718 0.0555523 0
M  V30 344 O 32.0401 1.51502 1.01752 0
M  V30 345 C 32.0911 2.87001 -2.19801 0
M  V30 346 O 31.8121 2.557 -3.55738 0
M  V30 347 C 33.3131 3.81228 -2.26231 0
M  V30 348 H 30.5331 0.483317 -0.465453 0
M  V30 349 H 33.0771 0.955611 -1.80799 0
M  V30 350 H 31.2321 3.43877 -1.78402 0
M  V30 351 H 31.6461 3.39584 -3.99729 0
M  V30 352 H 33.1201 4.70139 -2.89263 0
M  V30 353 H 33.5971 4.20409 -1.27093 0
M  V30 354 H 34.2031 3.30281 -2.67945 0
M  V30 355 N 32.5182 1.22032 0.997298 0
M  V30 356 C 33.7672 1.03637 1.73038 0
M  V30 357 C 34.0802 -0.429475 1.90827 0
M  V30 358 O 35.2862 -0.732995 2.61418 0
M  V30 359 C 33.7422 1.80582 3.11317 0
M  V30 360 C 33.3502 3.31387 3.01474 0
M  V30 361 C 35.0942 1.70621 3.88701 0
M  V30 362 C 33.0012 4.00791 4.3488 0
M  V30 363 H 31.9312 0.384179 0.648785 0
M  V30 364 H 34.5822 1.4584 1.11368 0
M  V30 365 H 32.9642 1.31175 3.73643 0
M  V30 366 H 34.1382 3.88155 2.4834 0
M  V30 367 H 32.4532 3.41976 2.37575 0
M  V30 368 H 35.0502 2.19799 4.87434 0
M  V30 369 H 35.3932 0.665823 4.10941 0
M  V30 370 H 35.9262 2.17547 3.33044 0
M  V30 371 H 32.6652 5.05064 4.1784 0
M  V30 372 H 32.1852 3.48811 4.87945 0
M  V30 373 H 33.8642 4.06139 5.03647 0
M  V30 374 N 33.9963 -1.19345 1.0293 0
M  V30 375 C 34.9063 -2.26245 0.620515 0
M  V30 376 C 35.9223 -1.70486 -0.347928 0
M  V30 377 O 37.0983 -2.00347 -0.205704 0
M  V30 378 C 34.1633 -3.46693 -0.0218957 0
M  V30 379 C 33.2243 -4.17632 0.994102 0
M  V30 380 C 32.4573 -5.32329 0.382253 0
M  V30 381 O 32.6803 -5.64552 -0.814676 0
M  V30 382 O 31.6143 -5.91664 1.10531 0
M  V30 383 H 35.4403 -2.63453 1.51083 0
M  V30 384 H 33.0253 -1.26207 0.799513 0
M  V30 385 H 34.9073 -4.19683 -0.380072 0
M  V30 386 H 33.5823 -3.11333 -0.886209 0
M  V30 387 H 32.4893 -3.4676 1.40387 0
M  V30 388 H 33.8223 -4.56964 1.8288 0
M  V30 389 N 35.4744 -0.807222 -1.35358 0
M  V30 390 C 36.8854 -0.44876 -1.81226 0
M  V30 391 C 37.2364 1.02929 -1.67033 0
M  V30 392 O 36.3614 1.79991 -1.20133 0
M  V30 393 C 36.9564 -0.807774 -3.2903 0
M  V30 394 C 35.5154 -0.501901 -3.73039 0
M  V30 395 C 34.6624 -1.03304 -2.57339 0
M  V30 396 H 37.6134 -0.998808 -1.23327 0
M  V30 397 H 37.6344 -0.10554 -3.80354 0
M  V30 398 H 37.1464 -1.88357 -3.39328 0
M  V30 399 H 35.2474 0.565128 -3.68289 0
M  V30 400 H 35.3604 -1.03497 -4.67787 0
M  V30 401 H 33.7244 -0.455339 -2.50597 0
M  V30 402 H 34.5074 -2.11496 -2.70415 0
M  V30 403 N 36.9525 1.47285 -0.560781 0
M  V30 404 C 38.1985 2.02764 -0.0381184 0
M  V30 405 C 38.5315 1.43384 1.30976 0
M  V30 406 O 37.8065 0.590733 1.85312 0
M  V30 407 C 38.0895 3.60064 0.0511427 0
M  V30 408 C 37.9425 4.2987 -1.32408 0
M  V30 409 C 39.2615 4.33439 0.762795 0
M  V30 410 H 36.3805 0.736841 -0.0153264 0
M  V30 411 H 39.0225 1.75675 -0.723759 0
M  V30 412 H 37.1725 3.83274 0.635065 0
M  V30 413 H 38.8445 4.17989 -1.95148 0
M  V30 414 H 37.0875 3.90085 -1.8978 0
M  V30 415 H 37.7585 5.38478 -1.21431 0
M  V30 416 H 40.2345 4.15243 0.266965 0
M  V30 417 H 39.1105 5.43124 0.794221 0
M  V30 418 H 39.3715 4.02915 1.81966 0
M  V30 419 N 38.4306 0.297415 1.54768 0
M  V30 420 C 39.6796 -0.313669 1.99246 0
M  V30 421 C 39.9926 -1.55281 1.18942 0
M  V30 422 O 41.1986 -2.23825 1.5367 0
M  V30 423 C 39.6546 -0.609407 3.54703 0
M  V30 424 C 39.2626 0.611192 4.43811 0
M  V30 425 C 41.0066 -1.18188 4.07715 0
M  V30 426 C 38.9136 0.288805 5.90694 0
M  V30 427 H 37.8436 -0.120979 0.744231 0
M  V30 428 H 40.4946 0.40556 1.78962 0
M  V30 429 H 38.8766 -1.38813 3.70873 0
M  V30 430 H 40.0506 1.3875 4.39414 0
M  V30 431 H 38.3656 1.10205 4.01552 0
M  V30 432 H 40.9626 -1.43727 5.15021 0
M  V30 433 H 41.3056 -2.12299 3.58099 0
M  V30 434 H 41.8386 -0.464944 3.95074 0
M  V30 435 H 38.5776 1.19838 6.44453 0
M  V30 436 H 38.0976 -0.450305 5.98107 0
M  V30 437 H 39.7766 -0.110933 6.46905 0
M  V30 438 N 39.9087 -1.5758 0.0250728 0
M  V30 439 C 41.1567 -1.91255 -0.653151 0
M  V30 440 C 41.4777 -0.901691 -1.729 0
M  V30 441 O 40.7477 0.0573785 -1.95816 0
M  V30 442 H 39.3277 -0.705942 -0.244243 0
M  V30 443 H 41.9897 -1.94767 0.0719209 0
M  V30 444 H 41.0857 -2.91752 -1.10847 0
M  V30 445 N 41.3868 0.248026 -1.55636 0
M  V30 446 C 42.6328 0.97767 -1.77678 0
M  V30 447 C 42.9658 1.85016 -0.590135 0
M  V30 448 O 42.2408 1.90095 0.411611 0
M  V30 449 C 42.5238 1.83914 -3.09593 0
M  V30 450 C 42.3768 0.99491 -4.38659 0
M  V30 451 C 43.6958 2.82183 -3.37729 0
M  V30 452 H 40.8148 0.354005 -0.646413 0
M  V30 453 H 43.4568 0.248253 -1.88371 0
M  V30 454 H 41.6068 2.46104 -3.00608 0
M  V30 455 H 43.2788 0.391789 -4.59633 0
M  V30 456 H 41.5218 0.299231 -4.32767 0
M  V30 457 H 42.1928 1.63145 -5.2734 0
M  V30 458 H 44.6688 2.30129 -3.4667 0
M  V30 459 H 43.5448 3.39582 -4.31249 0
M  V30 460 H 43.8058 3.58588 -2.58586 0
M  V30 461 N 42.8649 1.48995 0.513639 0
M  V30 462 C 43.8119 1.6473 1.61656 0
M  V30 463 C 44.7819 0.488984 1.58739 0
M  V30 464 O 45.9669 0.714478 1.76918 0
M  V30 465 C 43.1069 1.7082 2.99858 0
M  V30 466 C 42.2199 2.9787 3.12885 0
M  V30 467 C 41.3549 2.95017 4.41744 0
M  V30 468 C 40.3939 4.16702 4.48359 0
M  V30 469 N 39.5309 4.11832 5.68629 0
M  V30 470 H 44.3709 2.58909 1.47547 0
M  V30 471 H 41.9079 1.28382 0.71808 0
M  V30 472 H 43.8659 1.72331 3.79944 0
M  V30 473 H 42.4959 0.801181 3.12699 0
M  V30 474 H 41.5479 3.06029 2.25944 0
M  V30 475 H 42.8599 3.8786 3.13633 0
M  V30 476 H 42.0139 2.95021 5.30139 0
M  V30 477 H 40.7529 2.02784 4.43542 0
M  V30 478 H 39.7579 4.16955 3.58369 0
M  V30 479 H 40.9829 5.10113 4.48287 0
M  V30 480 H 38.9289 3.22428 5.71293 0
M  V30 481 H 38.8459 4.95543 5.7094 0
M  V30 482 H 40.1139 4.1592 6.59266 0
M  V30 483 N 44.343 -0.763751 1.37857 0
M  V30 484 C 45.589 -1.52483 1.33704 0
M  V30 485 C 45.922 -1.94051 -0.0759612 0
M  V30 486 O 45.197 -1.64675 -1.03501 0
M  V30 487 C 45.48 -2.78441 2.28348 0
M  V30 488 C 45.333 -2.43075 3.78463 0
M  V30 489 C 46.652 -3.80415 2.21298 0
M  V30 490 H 43.771 -0.553169 0.487005 0
M  V30 491 H 46.413 -0.875562 1.68624 0
M  V30 492 H 44.563 -3.33842 1.987 0
M  V30 493 H 46.235 -1.93527 4.18742 0
M  V30 494 H 44.478 -1.75666 3.96641 0
M  V30 495 H 45.149 -3.33149 4.40132 0
M  V30 496 H 47.625 -3.34527 2.47449 0
M  V30 497 H 46.501 -4.66257 2.89647 0
M  V30 498 H 46.762 -4.25262 1.20849 0
M  V30 499 N 45.8211 -1.22559 -0.990812 0
M  V30 500 C 47.0691 -1.04933 -1.72724 0
M  V30 501 C 47.3901 0.416158 -1.90508 0
M  V30 502 O 46.6601 1.29918 -1.46622 0
M  V30 503 H 45.2401 -0.385296 -0.639965 0
M  V30 504 H 47.9021 -1.54105 -1.19322 0
M  V30 505 H 46.9981 -1.52886 -2.72089 0
M  V30 506 N 47.2992 1.18797 -1.03562 0
M  V30 507 C 48.2092 2.25913 -0.632505 0
M  V30 508 C 49.2252 1.70668 0.338882 0
M  V30 509 O 50.4012 2.00453 0.195076 0
M  V30 510 C 47.4662 3.467 0.00350942 0
M  V30 511 C 46.5272 4.17098 -1.01624 0
M  V30 512 C 45.7602 5.32119 -0.410478 0
M  V30 513 O 45.9832 5.64976 0.784725 0
M  V30 514 O 44.9172 5.9107 -1.13667 0
M  V30 515 H 48.7432 2.62648 -1.52478 0
M  V30 516 H 46.3282 1.25781 -0.806195 0
M  V30 517 H 48.2102 4.19878 0.35781 0
M  V30 518 H 46.8852 3.11798 0.869686 0
M  V30 519 H 45.7922 3.4601 -1.42224 0
M  V30 520 H 47.1252 4.55987 -1.85301 0
M  V30 521 N 48.7773 0.814389 1.34928 0
M  V30 522 C 50.0243 0.398423 1.98542 0
M  V30 523 C 50.3523 -1.03638 1.64589 0
M  V30 524 O 49.6073 -1.73509 0.90516 0
M  V30 525 C 49.9063 0.537781 3.53331 0
M  V30 526 C 49.5723 1.93704 4.07172 0
M  V30 527 C 48.2343 2.31984 4.21589 0
M  V30 528 C 50.5863 2.85213 4.36237 0
M  V30 529 C 47.9143 3.61125 4.62391 0
M  V30 530 C 50.2663 4.13809 4.78482 0
M  V30 531 C 48.9303 4.52077 4.91104 0
M  V30 532 H 48.2003 0.145793 0.726516 0
M  V30 533 H 50.8473 1.03669 1.61012 0
M  V30 534 H 49.1523 -0.183906 3.91368 0
M  V30 535 H 50.8493 0.196588 4.00518 0
M  V30 536 H 47.4393 1.62966 3.96409 0
M  V30 537 H 51.6233 2.56885 4.24645 0
M  V30 538 H 46.8793 3.90612 4.70353 0
M  V30 539 H 51.0533 4.84811 4.99932 0
M  V30 540 H 48.6803 5.52196 5.22478 0
M  V30 541 N 50.2554 -1.46986 0.568584 0
M  V30 542 C 51.2184 -2.28624 -0.162366 0
M  V30 543 C 52.2184 -1.37596 -0.832103 0
M  V30 544 O 53.4084 -1.60115 -0.68622 0
M  V30 545 C 50.5404 -3.17596 -1.23878 0
M  V30 546 H 51.7334 -2.94722 0.554899 0
M  V30 547 H 49.2864 -1.52863 0.325976 0
M  V30 548 H 50.0214 -2.56214 -1.98808 0
M  V30 549 H 49.8064 -3.846 -0.763219 0
M  V30 550 H 51.2964 -3.79078 -1.75185 0
M  V30 551 N 51.7335 -0.305618 -1.54608 0
M  V30 552 C 52.9735 0.303114 -2.0214 0
M  V30 553 C 53.3375 1.50737 -1.18921 0
M  V30 554 O 54.5385 2.18778 -1.56172 0
M  V30 555 C 52.8095 0.646332 -3.51507 0
M  V30 556 S 54.3685 1.23727 -4.20995 0
M  V30 557 H 51.1865 0.0927643 -0.704923 0
M  V30 558 H 53.7885 -0.434566 -1.90609 0
M  V30 559 H 52.4925 -0.238541 -4.09706 0
M  V30 560 H 52.0235 1.41468 -3.67084 0
M  V30 561 H 54.0385 2.52489 -4.27158 0
M  V30 562 N 53.2116 1.57565 -0.0334293 0
M  V30 563 C 54.1616 2.06978 0.956237 0
M  V30 564 C 55.1456 0.971193 1.28283 0
M  V30 565 O 56.3376 1.23471 1.26822 0
M  V30 566 C 53.4666 2.60393 2.23719 0
M  V30 567 C 52.5526 3.7719 1.93877 0
M  V30 568 N 52.9436 4.87639 1.34321 0
M  V30 569 C 51.2416 3.85758 2.23845 0
M  V30 570 C 51.9426 5.68825 1.21709 0
M  V30 571 N 50.9186 5.1587 1.71404 0
M  V30 572 H 54.7206 2.89773 0.490815 0
M  V30 573 H 52.2346 1.61492 0.171478 0
M  V30 574 H 54.2316 2.94088 2.95496 0
M  V30 575 H 52.8916 1.79031 2.70884 0
M  V30 576 H 53.9026 5.07803 1.01767 0
M  V30 577 H 50.5796 3.1531 2.73653 0
M  V30 578 H 51.9696 6.67631 0.75621 0
M  V30 579 N 54.6897 -0.239769 1.55765 0
M  V30 580 C 55.9387 -0.964754 1.77131 0
M  V30 581 C 56.2517 -1.86213 0.59868 0
M  V30 582 O 57.4577 -2.6244 0.695522 0
M  V30 583 C 55.9137 -1.76552 3.1362 0
M  V30 584 C 55.5217 -0.915185 4.38553 0
M  V30 585 C 57.2657 -2.48281 3.44321 0
M  V30 586 C 55.1727 -1.71225 5.66071 0
M  V30 587 H 54.1027 -0.363953 0.660344 0
M  V30 588 H 56.7537 -0.219181 1.82186 0
M  V30 589 H 55.1357 -2.55331 3.02691 0
M  V30 590 H 56.3097 -0.169217 4.60489 0
M  V30 591 H 54.6247 -0.310889 4.15238 0
M  V30 592 H 57.2217 -3.08382 4.36812 0
M  V30 593 H 57.5647 -3.20256 2.65973 0
M  V30 594 H 58.0977 -1.76507 3.56497 0
M  V30 595 H 54.8367 -1.03612 6.4726 0
M  V30 596 H 54.3567 -2.43331 5.48224 0
M  V30 597 H 56.0357 -2.27758 6.05587 0
M  V30 598 N 56.1678 -1.49265 -0.50573 0
M  V30 599 C 57.3958 -1.62215 -1.28429 0
M  V30 600 C 57.8108 -0.291697 -1.86533 0
M  V30 601 O 57.1678 0.722233 -1.67601 0
M  V30 602 C 57.2188 -2.68735 -2.41793 0
M  V30 603 O 56.9398 -3.96619 -1.86078 0
M  V30 604 C 58.4408 -2.92346 -3.3324 0
M  V30 605 H 55.6608 -0.546239 -0.389697 0
M  V30 606 H 58.2048 -1.95265 -0.607609 0
M  V30 607 H 56.3598 -2.38476 -3.053 0
M  V30 608 H 56.7738 -4.55256 -2.60465 0
M  V30 609 H 58.2478 -3.70623 -4.09075 0
M  V30 610 H 58.7248 -2.02081 -3.89948 0
M  V30 611 H 59.3308 -3.24003 -2.75503 0
M  V30 612 N 57.6459 0.756429 -1.3826 0
M  V30 613 C 58.5559 1.9009 -1.37488 0
M  V30 614 C 59.5719 1.71855 -0.272366 0
M  V30 615 O 60.7479 1.94827 -0.510318 0
M  V30 616 C 57.8129 3.25421 -1.19592 0
M  V30 617 C 56.8739 3.56202 -2.39622 0
M  V30 618 C 56.1069 4.85075 -2.2257 0
M  V30 619 O 56.3299 5.57246 -1.21793 0
M  V30 620 O 55.2639 5.15269 -3.11098 0
M  V30 621 H 59.0899 1.93695 -2.33914 0
M  V30 622 H 56.6749 0.901313 -1.1915 0
M  V30 623 H 58.5569 4.06337 -1.11661 0
M  V30 624 H 57.2319 3.22634 -0.262486 0
M  V30 625 H 56.1389 2.75458 -2.53128 0
M  V30 626 H 57.4719 3.63747 -3.31586 0
M  V30 627 N 59.124 1.23083 0.984299 0
M  V30 628 C 60.074 0.975749 2.06066 0
M  V30 629 C 61.058 -0.0768251 1.60716 0
M  V30 630 O 62.25 0.134805 1.76486 0
M  V30 631 C 59.379 0.564673 3.38624 0
M  V30 632 C 58.465 1.65244 3.90583 0
M  V30 633 N 58.856 2.88193 4.15666 0
M  V30 634 C 57.154 1.52612 4.19077 0
M  V30 635 C 57.855 3.58593 4.58024 0
M  V30 636 N 56.831 2.86093 4.62225 0
M  V30 637 H 60.633 1.90957 2.23411 0
M  V30 638 H 58.147 1.12963 1.16675 0
M  V30 639 H 60.144 0.36322 4.15315 0
M  V30 640 H 58.804 -0.362147 3.22674 0
M  V30 641 H 59.815 3.24537 4.03604 0
M  V30 642 H 56.492 0.666121 4.12152 0
M  V30 643 H 57.882 4.63974 4.85982 0
M  V30 644 N 60.6021 -1.18246 1.0419 0
M  V30 645 C 62.0131 -1.69914 0.773698 0
M  V30 646 C 62.3641 -1.83085 -0.705297 0
M  V30 647 O 61.4891 -1.51123 -1.5489 0
M  V30 648 C 62.0841 -3.08619 1.39784 0
M  V30 649 C 60.6431 -3.57494 1.17792 0
M  V30 650 C 59.7901 -2.34013 1.48773 0
M  V30 651 H 62.7411 -1.02904 1.20816 0
M  V30 652 H 62.7621 -3.71958 0.801714 0
M  V30 653 H 62.2741 -2.99001 2.47426 0
M  V30 654 H 60.3751 -3.72406 0.120295 0
M  V30 655 H 60.4881 -4.40852 1.87581 0
M  V30 656 H 58.8521 -2.37986 0.907463 0
M  V30 657 H 59.6351 -2.27013 2.57527 0
M  V30 658 N 62.0802 -0.821533 -1.34494 0
M  V30 659 C 63.3262 -0.409552 -1.98622 0
M  V30 660 C 63.6592 1.0244 -1.64984 0
M  V30 661 O 62.9342 1.71325 -0.920758 0
M  V30 662 C 63.2172 -0.610458 -3.54888 0
M  V30 663 C 63.0702 -2.09043 -3.98273 0
M  V30 664 C 64.3892 -0.0455379 -4.40076 0
M  V30 665 H 61.5082 -0.15028 -0.721516 0
M  V30 666 H 64.1502 -1.03384 -1.59411 0
M  V30 667 H 62.3002 -0.079044 -3.8842 0
M  V30 668 H 63.9722 -2.68537 -3.75081 0
M  V30 669 H 62.2152 -2.58139 -3.48635 0
M  V30 670 H 62.8862 -2.18182 -5.07051 0
M  V30 671 H 65.3622 -0.499557 -4.1309 0
M  V30 672 H 64.2382 -0.215922 -5.48475 0
M  V30 673 H 64.4992 1.04939 -4.29465 0
M  V30 674 N 63.5583 1.46682 -0.576371 0
M  V30 675 C 64.8063 2.02013 -0.0594163 0
M  V30 676 C 65.1273 1.45101 1.30271 0
M  V30 677 O 64.3973 0.633317 1.8538 0
M  V30 678 H 62.9773 0.746759 -0.0189745 0
M  V30 679 H 65.6393 1.79862 -0.750717 0
M  V30 680 H 64.7353 3.12097 0.014345 0
M  V30 681 N 65.0364 0.313813 1.54444 0
M  V30 682 C 65.9684 -0.590425 2.21465 0
M  V30 683 C 66.9814 -1.08753 1.21147 0
M  V30 684 O 68.1704 -1.00278 1.4767 0
M  V30 685 C 65.2704 -1.82179 2.85769 0
M  V30 686 C 64.4434 -1.46502 4.12136 0
M  V30 687 C 63.5024 -2.55288 4.60124 0
M  V30 688 O 62.5284 -2.19842 5.25032 0
M  V30 689 N 63.7304 -3.86053 4.33525 0
M  V30 690 H 66.4954 -0.0166033 2.99695 0
M  V30 691 H 64.0564 0.136578 1.61323 0
M  V30 692 H 66.0484 -2.54328 3.14801 0
M  V30 693 H 64.6184 -2.30369 2.11303 0
M  V30 694 H 63.8384 -0.575595 3.89975 0
M  V30 695 H 65.1264 -1.20221 4.94393 0
M  V30 696 H 64.5244 -4.17654 3.81552 0
M  V30 697 H 63.0814 -4.54461 4.67235 0
M  V30 698 N 66.5145 -1.57545 0.0417849 0
M  V30 699 C 67.7635 -1.91494 -0.633492 0
M  V30 700 C 68.0765 -0.921084 -1.72556 0
M  V30 701 O 69.2825 -1.15228 -2.45835 0
M  V30 702 C 67.7385 -3.40072 -1.17808 0
M  V30 703 C 67.3465 -4.47843 -0.118633 0
M  V30 704 C 69.0905 -3.8307 -1.82915 0
M  V30 705 C 66.9975 -5.87529 -0.675578 0
M  V30 706 H 65.9275 -0.714653 -0.24039 0
M  V30 707 H 68.5785 -1.83175 0.109148 0
M  V30 708 H 66.9605 -3.43364 -1.97274 0
M  V30 709 H 68.1345 -4.56128 0.654494 0
M  V30 710 H 66.4495 -4.14128 0.434414 0
M  V30 711 H 69.0465 -4.84794 -2.25563 0
M  V30 712 H 69.3895 -3.1881 -2.67705 0
M  V30 713 H 69.9225 -3.82255 -1.10119 0
M  V30 714 H 66.6615 -6.55362 0.134475 0
M  V30 715 H 66.1815 -5.82824 -1.4169 0
M  V30 716 H 67.8605 -6.36491 -1.1614 0
M  V30 717 N 67.9926 0.231505 -1.5589 0
M  V30 718 C 68.9226 1.29022 -1.94617 0
M  V30 719 C 69.9036 1.4941 -0.813067 0
M  V30 720 O 71.0886 1.6176 -1.07459 0
M  V30 721 C 68.2186 2.64199 -2.25424 0
M  V30 722 C 67.1726 2.58484 -3.41131 0
M  V30 723 C 66.4986 3.97599 -3.57518 0
M  V30 724 C 67.7986 2.1413 -4.76388 0
M  V30 725 H 69.4926 0.968563 -2.83301 0
M  V30 726 H 67.0386 0.464479 -1.36303 0
M  V30 727 H 68.9916 3.38413 -2.51107 0
M  V30 728 H 67.7156 2.98032 -1.33583 0
M  V30 729 H 66.3746 1.86727 -3.15481 0
M  V30 730 H 66.0226 4.28723 -2.6307 0
M  V30 731 H 65.7226 3.94659 -4.35337 0
M  V30 732 H 67.2466 4.7349 -3.85538 0
M  V30 733 H 68.6606 2.78083 -5.01341 0
M  V30 734 H 67.0576 2.2227 -5.57419 0
M  V30 735 H 68.1276 1.09331 -4.72414 0
M  V30 736 N 69.4707 1.49531 0.497807 0
M  V30 737 C 70.4037 1.61043 1.6168 0
M  V30 738 C 71.3817 0.459386 1.55976 0
M  V30 739 O 72.5657 0.675358 1.75986 0
M  V30 740 C 69.6927 1.56833 3.00202 0
M  V30 741 C 68.7387 2.77173 3.24156 0
M  V30 742 S 69.5717 4.38808 3.06933 0
M  V30 743 C 70.7277 4.37248 4.47845 0
M  V30 744 H 70.9607 2.55702 1.51671 0
M  V30 745 H 68.4937 1.38462 0.683201 0
M  V30 746 H 70.4517 1.55089 3.80076 0
M  V30 747 H 69.1127 0.634561 3.07623 0
M  V30 748 H 68.3057 2.70456 4.25288 0
M  V30 749 H 67.9077 2.76346 2.5201 0
M  V30 750 H 70.1997 4.09164 5.39992 0
M  V30 751 H 71.1427 5.38668 4.59612 0
M  V30 752 H 71.5507 3.67286 4.28674 0
M  V30 753 N 70.9488 -0.749086 1.3866 0
M  V30 754 C 72.1958 -1.50833 1.35114 0
M  V30 755 C 72.5238 -1.94415 -0.0574049 0
M  V30 756 O 71.7788 -1.66065 -1.03541 0
M  V30 757 C 72.0778 -2.7712 2.25697 0
M  V30 758 C 71.7438 -2.52477 3.73585 0
M  V30 759 C 70.4058 -2.45466 4.13884 0
M  V30 760 C 72.7578 -2.31066 4.67181 0
M  V30 761 C 70.0858 -2.15064 5.45861 0
M  V30 762 C 72.4378 -2.02183 5.9942 0
M  V30 763 C 71.1018 -1.93631 6.38798 0
M  V30 764 H 70.3718 -0.551936 0.494416 0
M  V30 765 H 73.0188 -0.860979 1.71054 0
M  V30 766 H 71.3238 -3.46528 1.82827 0
M  V30 767 H 73.0208 -3.35096 2.20254 0
M  V30 768 H 69.6108 -2.58807 3.41638 0
M  V30 769 H 73.7948 -2.35459 4.3689 0
M  V30 770 H 69.0508 -2.06954 5.75308 0
M  V30 771 H 73.2248 -1.8462 6.71482 0
M  V30 772 H 70.8518 -1.69839 7.40985 0
M  V30 773 N 72.4269 -1.23603 -0.977757 0
M  V30 774 C 73.6549 -1.09646 -1.75458 0
M  V30 775 C 74.0699 0.351859 -1.85492 0
M  V30 776 O 73.4269 1.24327 -1.336 0
M  V30 777 C 73.4779 -1.71895 -3.18016 0
M  V30 778 O 73.1989 -3.11063 -3.08498 0
M  V30 779 C 74.6999 -1.63415 -4.12081 0
M  V30 780 H 71.9199 -0.38359 -0.550545 0
M  V30 781 H 74.4639 -1.63507 -1.22824 0
M  V30 782 H 72.6189 -1.22061 -3.67668 0
M  V30 783 H 73.0329 -3.41305 -3.9826 0
M  V30 784 H 74.5069 -2.11669 -5.09804 0
M  V30 785 H 74.9839 -0.593462 -4.35172 0
M  V30 786 H 75.5899 -2.12628 -3.68334 0
M  V30 787 N 73.905 1.17692 -1.04816 0
M  V30 788 C 74.835 2.23777 -0.666791 0
M  V30 789 C 75.816 1.66796 0.33361 0
M  V30 790 O 77.001 1.93039 0.212042 0
M  V30 791 C 74.131 3.47281 -0.0367933 0
M  V30 792 C 73.085 4.17059 -0.961546 0
M  V30 793 C 72.411 5.34342 -0.195626 0
M  V30 794 C 73.711 4.69713 -2.28402 0
M  V30 795 H 75.405 2.55933 -1.55367 0
M  V30 796 H 72.951 1.23019 -0.748484 0
M  V30 797 H 74.904 4.20706 0.241775 0
M  V30 798 H 73.628 3.14381 0.885004 0
M  V30 799 H 72.287 3.45541 -1.22462 0
M  V30 800 H 71.935 4.97692 0.728816 0
M  V30 801 H 71.635 5.81966 -0.811775 0
M  V30 802 H 73.159 6.10553 0.0757473 0
M  V30 803 H 74.573 5.34794 -2.06563 0
M  V30 804 H 72.97 5.279 -2.8538 0
M  V30 805 H 74.04 3.86726 -2.92525 0
M  V30 806 N 75.3831 0.828654 1.34056 0
M  V30 807 C 76.7941 0.477534 1.8049 0
M  V30 808 C 77.1451 -1.00258 1.6865 0
M  V30 809 O 76.2701 -1.78057 1.22982 0
M  V30 810 C 76.8651 0.860018 3.27703 0
M  V30 811 C 75.4241 0.561185 3.72193 0
M  V30 812 C 74.5711 1.07385 2.55663 0
M  V30 813 H 77.5221 1.0183 1.21722 0
M  V30 814 H 77.5431 0.166038 3.80138 0
M  V30 815 H 77.0551 1.93731 3.36288 0
M  V30 816 H 75.1561 -0.506465 3.69142 0
M  V30 817 H 75.2691 1.10926 4.66082 0
M  V30 818 H 73.6331 0.495149 2.49841 0
M  V30 819 H 74.4161 2.15771 2.67016 0
M  V30 820 N 76.8612 -1.46375 0.584142 0
M  V30 821 C 78.0862 -2.07268 0.0740405 0
M  V30 822 C 78.5112 -1.42979 -1.22223 0
M  V30 823 O 77.8692 -0.514092 -1.73859 0
M  V30 824 C 77.9172 -3.60518 -0.0767769 0
M  V30 825 O 77.0212 -3.96533 -1.13292 0
M  V30 826 H 76.3622 -0.660961 0.0634524 0
M  V30 827 H 78.8922 -1.87991 0.807492 0
M  V30 828 H 78.9022 -4.07021 -0.282489 0
M  V30 829 H 77.5772 -4.06702 0.86986 0
M  V30 830 H 76.1542 -3.61738 -0.905553 0
M  V30 831 N 78.3393 -0.321999 -1.54275 0
M  V30 832 C 79.2693 0.537411 -2.27231 0
M  V30 833 C 80.2503 1.12064 -1.27968 0
M  V30 834 O 81.4353 1.14606 -1.56777 0
M  V30 835 C 78.5653 1.69919 -3.02894 0
M  V30 836 C 77.5193 1.24534 -4.09482 0
M  V30 837 C 76.8453 2.49394 -4.72977 0
M  V30 838 C 78.1453 0.361335 -5.21049 0
M  V30 839 H 79.8393 -0.0711406 -2.99315 0
M  V30 840 H 77.3853 -0.0356555 -1.43956 0
M  V30 841 H 79.3383 2.30668 -3.52662 0
M  V30 842 H 78.0623 2.33431 -2.28424 0
M  V30 843 H 76.7213 0.660782 -3.60596 0
M  V30 844 H 76.3693 3.11265 -3.95124 0
M  V30 845 H 76.0693 2.19718 -5.44975 0
M  V30 846 H 77.5933 3.10908 -5.25517 0
M  V30 847 H 79.0073 0.875072 -5.66582 0
M  V30 848 H 77.4043 0.157428 -5.99893 0
M  V30 849 H 78.4743 -0.60822 -4.8107 0
M  V30 850 N 79.8174 1.5752 -0.0501392 0
M  V30 851 C 81.0944 1.83996 0.663685 0
M  V30 852 C 81.4744 0.938339 1.89099 0
M  V30 853 O 80.8224 -0.00087759 2.285 0
M  V30 854 C 81.0324 3.33702 1.02196 0
M  V30 855 C 82.3804 4.00691 1.40469 0
M  V30 856 O 83.4044 3.38321 1.11433 0
M  V30 857 O 82.2634 5.10658 1.94654 0
M  V30 858 H 79.3574 0.759385 0.32751 0
M  V30 859 H 81.9034 1.69514 -0.0794238 0
M  V30 860 H 80.6754 3.91015 0.149364 0
M  V30 861 H 80.2984 3.53368 1.82255 0
M  V30 862 N 81.2955 -0.223234 1.56011 0
M  V30 863 C 82.2435 -1.29627 1.93131 0
M  V30 864 C 83.2375 -1.48608 0.813146 0
M  V30 865 O 84.4435 -1.49802 0.997966 0
M  V30 866 H 80.8185 -0.434563 0.613726 0
M  V30 867 H 82.7895 -0.955995 2.82672 0
M  V30 868 C 81.5385 -2.63983 2.26292 0
M  V30 869 H 80.8615 -2.50185 3.11846 0
M  V30 870 H 82.3015 -3.3788 2.56151 0
M  V30 871 C 80.7605 -3.18866 1.08747 0
M  V30 872 O 81.2905 -4.00192 0.347727 0
M  V30 873 N 79.4965 -2.77217 0.871743 0
M  V30 874 H 79.0435 -2.1119 1.47501 0
M  V30 875 H 79.0015 -3.1428 0.0869905 0
M  V30 876 N 82.7736 -1.49793 -0.48987 0
M  V30 877 C 83.7216 -1.67783 -1.61095 0
M  V30 878 C 84.7156 -0.543683 -1.60438 0
M  V30 879 O 85.9216 -0.723647 -1.64813 0
M  V30 880 H 82.2966 -0.529255 -0.534222 0
M  V30 881 H 84.2676 -2.61861 -1.43078 0
M  V30 882 C 83.0166 -1.77191 -2.99164 0
M  V30 883 H 82.3396 -2.63841 -3.0038 0
M  V30 884 H 83.7796 -1.93809 -3.77113 0
M  V30 885 C 82.2386 -0.519203 -3.32875 0
M  V30 886 O 82.7686 0.350124 -4.00171 0
M  V30 887 N 80.9746 -0.378816 -2.8812 0
M  V30 888 H 80.5216 -1.08725 -2.33531 0
M  V30 889 H 80.4796 0.458239 -3.11043 0
M  V30 890 N 84.2517 0.741722 -1.39055 0
M  V30 891 C 85.5287 1.49252 -1.26425 0
M  V30 892 C 85.9087 2.10705 0.129144 0
M  V30 893 O 85.2567 1.98045 1.13976 0
M  V30 894 C 85.4667 2.54934 -2.38347 0
M  V30 895 C 86.8147 3.21506 -2.77343 0
M  V30 896 O 87.8387 2.65245 -2.37747 0
M  V30 897 O 86.6977 4.23294 -3.45665 0
M  V30 898 H 83.7917 0.662451 -0.495064 0
M  V30 899 H 86.3377 0.776121 -1.50912 0
M  V30 900 H 85.1097 2.07857 -3.31529 0
M  V30 901 H 84.7327 3.34141 -2.15489 0
M  V30 902 N 85.7298 1.2412 0.971189 0
M  V30 903 C 86.6398 1.04747 2.09917 0
M  V30 904 C 87.6558 -0.0107162 1.73997 0
M  V30 905 O 88.8318 0.186714 2.00533 0
M  V30 906 C 85.8968 0.650828 3.40537 0
M  V30 907 C 84.9578 1.7851 3.90426 0
M  V30 908 C 84.1908 1.40729 5.14812 0
M  V30 909 O 84.4138 0.29557 5.69634 0
M  V30 910 O 83.3478 2.23168 5.58999 0
M  V30 911 H 87.1738 1.99304 2.29154 0
M  V30 912 H 84.7588 1.02908 1.08307 0
M  V30 913 H 86.6408 0.440992 4.19086 0
M  V30 914 H 85.3158 -0.265649 3.22608 0
M  V30 915 H 84.2228 2.04966 3.12953 0
M  V30 916 H 85.5558 2.68023 4.12825 0
M  V30 917 N 87.2079 -1.17134 1.05439 0
M  V30 918 C 88.1549 -2.21235 0.657539 0
M  V30 919 C 89.1249 -1.62551 -0.341543 0
M  V30 920 O 90.3099 -1.89379 -0.232393 0
M  V30 921 C 87.4499 -3.45076 0.0410575 0
M  V30 922 C 86.5629 -4.18042 1.08927 0
M  V30 923 C 85.6979 -5.29376 0.439848 0
M  V30 924 C 84.7369 -5.94132 1.4722 0
M  V30 925 N 83.8739 -6.96975 0.846756 0
M  V30 926 H 88.7139 -2.54534 1.54972 0
M  V30 927 H 86.2509 -1.25028 0.775006 0
M  V30 928 H 88.2089 -4.15862 -0.33383 0
M  V30 929 H 86.8389 -3.12353 -0.814568 0
M  V30 930 H 85.8909 -3.45945 1.58196 0
M  V30 931 H 87.2029 -4.62306 1.87282 0
M  V30 932 H 86.3569 -6.06699 0.0115125 0
M  V30 933 H 85.0959 -4.86251 -0.375656 0
M  V30 934 H 84.1009 -5.15538 1.91052 0
M  V30 935 H 85.3259 -6.39337 2.28965 0
M  V30 936 H 83.2719 -6.5598 0.0518075 0
M  V30 937 H 83.1889 -7.39565 1.5678 0
M  V30 938 H 84.4569 -7.78239 0.443277 0
M  V30 939 N 88.686 -0.835752 -1.33615 0
M  V30 940 C 89.596 -0.269088 -2.33052 0
M  V30 941 C 90.612 0.603251 -1.63208 0
M  V30 942 O 91.788 0.508112 -1.94885 0
M  V30 943 C 88.853 0.549091 -3.42324 0
M  V30 944 C 87.914 -0.347156 -4.27894 0
M  V30 945 C 87.147 0.43207 -5.31948 0
M  V30 946 O 87.37 1.66409 -5.45586 0
M  V30 947 O 86.304 -0.192298 -6.01593 0
M  V30 948 H 90.13 -1.09243 -2.83372 0
M  V30 949 H 87.715 -0.598198 -1.36901 0
M  V30 950 H 89.597 1.01414 -4.09015 0
M  V30 951 H 88.272 1.34955 -2.94226 0
M  V30 952 H 87.179 -0.859979 -3.64081 0
M  V30 953 H 88.512 -1.1123 -4.79467 0
M  V30 954 N 90.1641 1.46063 -0.591896 0
M  V30 955 C 91.3921 2.06717 -0.0868936 0
M  V30 956 C 91.8071 1.43916 1.22203 0
M  V30 957 O 91.1641 0.547698 1.74088 0
M  V30 958 C 91.2151 3.6142 0.0758725 0
M  V30 959 O 90.9361 4.21874 -1.18126 0
M  V30 960 C 92.4371 4.39025 0.61416 0
M  V30 961 H 89.6571 0.668162 -0.0616518 0
M  V30 962 H 92.2011 1.8755 -0.815175 0
M  V30 963 H 90.3561 3.79983 0.754413 0
M  V30 964 H 90.7701 5.14861 -1.00092 0
M  V30 965 H 92.2441 5.4783 0.677193 0
M  V30 966 H 92.7211 4.07708 1.63312 0
M  V30 967 H 93.3271 4.2529 -0.0298142 0
M  V30 968 N 91.6422 0.330177 1.54103 0
M  V30 969 C 92.5722 -0.525353 2.27513 0
M  V30 970 C 93.5532 -1.11383 1.2856 0
M  V30 971 O 94.7382 -1.13773 1.57383 0
M  V30 972 C 91.8682 -1.6831 3.03791 0
M  V30 973 C 90.8222 -1.2236 4.10137 0
M  V30 974 C 90.1482 -2.46882 4.74293 0
M  V30 975 C 91.4482 -0.333697 5.21233 0
M  V30 976 H 93.1422 0.087013 2.99274 0
M  V30 977 H 90.6882 0.0432893 1.43935 0
M  V30 978 H 92.6412 -2.28795 3.5388 0
M  V30 979 H 91.3652 -2.32216 2.29659 0
M  V30 980 H 90.0242 -0.64165 3.60941 0
M  V30 981 H 89.6722 -3.09165 3.96769 0
M  V30 982 H 89.3722 -2.16825 5.46133 0
M  V30 983 H 90.8962 -3.08117 5.27159 0
M  V30 984 H 92.3102 -0.845013 5.67038 0
M  V30 985 H 90.7072 -0.125612 5.99969 0
M  V30 986 H 91.7772 0.633724 4.80741 0
M  V30 987 N 93.1203 -1.57491 0.0584922 0
M  V30 988 C 94.0503 -2.14988 -0.911178 0
M  V30 989 C 95.0313 -1.07343 -1.31952 0
M  V30 990 O 96.2163 -1.35318 -1.39294 0
M  V30 991 C 93.3463 -2.70078 -2.18347 0
M  V30 992 C 92.3003 -3.82771 -1.91495 0
M  V30 993 C 91.6263 -4.24408 -3.25241 0
M  V30 994 C 92.9263 -5.07592 -1.23075 0
M  V30 995 H 94.6203 -2.96263 -0.432246 0
M  V30 996 H 92.1663 -1.42512 -0.206469 0
M  V30 997 H 94.1193 -3.08943 -2.86587 0
M  V30 998 H 92.8433 -1.86005 -2.68458 0
M  V30 999 H 91.5023 -3.44389 -1.25664 0
M  V30 1000 H 91.1503 -3.37275 -3.73168 0
M  V30 1001 H 90.8503 -5.00366 -3.08071 0
M  V30 1002 H 92.3743 -4.65879 -3.94701 0
M  V30 1003 H 93.7883 -5.43857 -1.81362 0
M  V30 1004 H 92.1853 -5.88741 -1.16207 0
M  V30 1005 H 93.2553 -4.84454 -0.207847 0
M  V30 1006 N 94.5984 0.214957 -1.56127 0
M  V30 1007 C 95.8234 0.95924 -1.83884 0
M  V30 1008 C 96.2484 1.7689 -0.639644 0
M  V30 1009 O 95.6064 1.76566 0.411601 0
M  V30 1010 C 95.6544 1.84723 -3.09693 0
M  V30 1011 O 94.7584 2.94346 -2.8885 0
M  V30 1012 H 94.0994 0.27125 -0.606069 0
M  V30 1013 H 96.6294 0.226276 -2.03345 0
M  V30 1014 H 96.6394 2.25576 -3.39969 0
M  V30 1015 H 95.3144 1.25218 -3.96602 0
M  V30 1016 H 93.8914 2.57391 -2.69823 0
M  V30 1017 N 96.0765 1.50051 0.48192 0
M  V30 1018 C 97.0265 1.64512 1.5786 0
M  V30 1019 C 98.0105 0.500073 1.52932 0
M  V30 1020 O 99.2025 0.753964 1.60139 0
M  V30 1021 C 96.3315 1.73263 2.9637 0
M  V30 1022 C 95.4175 2.93409 3.06222 0
M  V30 1023 N 95.8085 4.17236 2.85915 0
M  V30 1024 C 94.1065 2.91742 3.37346 0
M  V30 1025 C 94.8075 4.981 3.00451 0
M  V30 1026 N 93.7835 4.3184 3.30174 0
M  V30 1027 H 97.5855 2.57955 1.40842 0
M  V30 1028 H 95.0995 1.47086 0.688439 0
M  V30 1029 H 97.0965 1.81724 3.75209 0
M  V30 1030 H 95.7565 0.809711 3.14442 0
M  V30 1031 H 96.7675 4.46909 2.6171 0
M  V30 1032 H 93.4445 2.08907 3.61475 0
M  V30 1033 H 94.8345 6.06532 2.89082 0
M  V30 1034 N 97.5546 -0.734337 1.39446 0
M  V30 1035 C 98.5026 -1.86971 1.38364 0
M  V30 1036 C 99.4966 -1.67288 0.266687 0
M  V30 1037 O 100.703 -1.74621 0.436755 0
M  V30 1038 H 97.0776 -0.615474 0.432082 0
M  V30 1039 H 99.0486 -1.85 2.34132 0
M  V30 1040 C 97.7976 -3.2466 1.24465 0
M  V30 1041 H 97.1206 -3.40402 2.09682 0
M  V30 1042 H 98.5606 -4.04292 1.27764 0
M  V30 1043 C 97.0196 -3.36867 -0.0468674 0
M  V30 1044 O 97.5496 -3.88618 -1.01681 0
M  V30 1045 N 95.7556 -2.90391 -0.110145 0
M  V30 1046 H 95.3026 -2.48466 0.679868 0
M  V30 1047 H 95.2606 -2.98939 -0.973799 0
M  V30 1048 N 99.0327 -1.24633 -0.964593 0
M  V30 1049 C 100.282 -1.08188 -1.7023 0
M  V30 1050 C 100.595 0.37873 -1.91898 0
M  V30 1051 O 101.801 0.663427 -2.6327 0
M  V30 1052 C 100.257 -1.88773 -3.06419 0
M  V30 1053 C 99.8647 -3.39263 -2.92582 0
M  V30 1054 C 101.609 -1.80867 -3.84041 0
M  V30 1055 C 99.5157 -4.1218 -4.24101 0
M  V30 1056 H 98.4457 -0.401245 -0.638372 0
M  V30 1057 H 101.097 -1.48742 -1.07462 0
M  V30 1058 H 99.4787 -1.41035 -3.70034 0
M  V30 1059 H 100.653 -3.94603 -2.37961 0
M  V30 1060 H 98.9677 -3.48154 -2.28424 0
M  V30 1061 H 101.565 -2.32646 -4.81435 0
M  V30 1062 H 101.908 -0.774543 -4.09031 0
M  V30 1063 H 102.441 -2.26301 -3.27159 0
M  V30 1064 H 99.1797 -5.15965 -4.04303 0
M  V30 1065 H 98.6997 -3.61626 -4.78526 0
M  V30 1066 H 100.379 -4.19349 -4.92702 0
M  V30 1067 N 100.511 1.16574 -1.06058 0
M  V30 1068 C 101.758 1.87047 -0.775873 0
M  V30 1069 C 102.086 1.81562 0.697534 0
M  V30 1070 O 101.341 1.22445 1.52662 0
M  V30 1071 C 101.64 3.36195 -1.21275 0
M  V30 1072 C 101.306 3.6188 -2.68986 0
M  V30 1073 C 99.9678 3.68599 -3.09335 0
M  V30 1074 C 102.32 3.72648 -3.64394 0
M  V30 1075 C 99.6478 3.83584 -4.43937 0
M  V30 1076 C 102 3.89154 -4.98741 0
M  V30 1077 C 100.664 3.94114 -5.3873 0
M  V30 1078 H 99.9338 0.684452 -0.283912 0
M  V30 1079 H 102.581 1.37853 -1.32925 0
M  V30 1080 H 100.886 3.87505 -0.578528 0
M  V30 1081 H 102.583 3.89103 -0.969542 0
M  V30 1082 H 99.1728 3.57281 -2.36744 0
M  V30 1083 H 103.357 3.66769 -3.34356 0
M  V30 1084 H 98.6128 3.85677 -4.74409 0
M  V30 1085 H 102.787 3.96427 -5.72554 0
M  V30 1086 H 100.414 4.05478 -6.43033 0
M  V30 1087 N 101.989 0.842826 1.3317 0
M  V30 1088 C 103.214 0.453129 2.02389 0
M  V30 1089 C 103.639 -0.939105 1.6298 0
M  V30 1090 O 102.997 -1.61472 0.8244 0
M  V30 1091 C 103.045 0.586094 3.55805 0
M  V30 1092 O 102.149 -0.386029 4.10589 0
M  V30 1093 H 101.49 0.183664 0.638094 0
M  V30 1094 H 104.02 1.13875 1.69981 0
M  V30 1095 H 104.03 0.469209 4.05293 0
M  V30 1096 H 102.705 1.6014 3.83833 0
M  V30 1097 H 101.282 -0.226371 3.72212 0
M  V30 1098 N 103.467 -1.45747 0.599634 0
M  V30 1099 C 104.399 -2.28628 -0.161879 0
M  V30 1100 C 105.412 -1.39494 -0.839367 0
M  V30 1101 O 106.601 -1.63941 -0.706089 0
M  V30 1102 C 103.701 -3.15014 -1.24976 0
M  V30 1103 C 102.874 -4.32378 -0.660935 0
M  V30 1104 C 101.933 -5.00033 -1.63869 0
M  V30 1105 O 100.959 -5.57085 -1.1681 0
M  V30 1106 N 102.161 -4.98589 -2.97303 0
M  V30 1107 H 104.926 -2.94624 0.549265 0
M  V30 1108 H 102.487 -1.55847 0.438565 0
M  V30 1109 H 104.479 -3.5714 -1.9035 0
M  V30 1110 H 103.049 -2.5098 -1.86354 0
M  V30 1111 H 102.269 -3.9383 0.170688 0
M  V30 1112 H 103.557 -5.08197 -0.247619 0
M  V30 1113 H 102.955 -4.53514 -3.38145 0
M  V30 1114 H 101.512 -5.44603 -3.58121 0
M  V30 1115 N 104.945 -0.338344 -1.53925 0
M  V30 1116 C 106.222 0.314774 -1.93051 0
M  V30 1117 C 106.602 1.68669 -1.26941 0
M  V30 1118 O 105.95 2.24636 -0.418445 0
M  V30 1119 C 106.16 0.392249 -3.46789 0
M  V30 1120 C 107.508 0.645554 -4.19664 0
M  V30 1121 O 108.532 0.474575 -3.53024 0
M  V30 1122 O 107.391 0.976408 -5.37707 0
M  V30 1123 H 104.485 0.182598 -0.80659 0
M  V30 1124 H 107.031 -0.389141 -1.65178 0
M  V30 1125 H 105.803 -0.570702 -3.87116 0
M  V30 1126 H 105.426 1.14316 -3.80812 0
M  V30 1127 N 106.423 1.57458 -0.0668435 0
M  V30 1128 C 107.672 1.92477 0.602947 0
M  V30 1129 C 107.985 0.948419 1.71068 0
M  V30 1130 O 109.191 1.19124 2.43971 0
M  V30 1131 C 107.647 3.41903 1.12383 0
M  V30 1132 C 107.255 4.47975 0.04737 0
M  V30 1133 C 108.999 3.85931 1.76797 0
M  V30 1134 C 106.906 5.88529 0.582022 0
M  V30 1135 H 105.836 0.718387 0.22899 0
M  V30 1136 H 108.487 1.82978 -0.138276 0
M  V30 1137 H 106.869 3.46459 1.91787 0
M  V30 1138 H 108.043 4.55029 -0.726978 0
M  V30 1139 H 106.358 4.13384 -0.500243 0
M  V30 1140 H 108.955 4.88322 2.17821 0
M  V30 1141 H 109.298 3.23029 2.62599 0
M  V30 1142 H 109.831 3.83958 1.04024 0
M  V30 1143 H 106.57 6.55065 -0.238721 0
M  V30 1144 H 106.09 5.85004 1.324 0
M  V30 1145 H 107.769 6.38258 1.05999 0
M  V30 1146 N 107.901 -0.206675 1.56239 0
M  V30 1147 C 108.831 -1.25909 1.96645 0
M  V30 1148 C 109.812 -1.48097 0.836734 0
M  V30 1149 O 110.997 -1.6003 1.10019 0
M  V30 1150 C 108.127 -2.6058 2.29599 0
M  V30 1151 C 107.081 -2.53024 3.452 0
M  V30 1152 C 106.407 -3.91861 3.63798 0
M  V30 1153 C 107.707 -2.06524 4.79734 0
M  V30 1154 H 109.401 -0.923369 2.84806 0
M  V30 1155 H 106.947 -0.442735 1.37025 0
M  V30 1156 H 108.9 -3.34375 2.56459 0
M  V30 1157 H 107.624 -2.95869 1.38307 0
M  V30 1158 H 106.283 -1.81684 3.18412 0
M  V30 1159 H 105.931 -4.24483 2.69857 0
M  V30 1160 H 105.631 -3.87683 4.4156 0
M  V30 1161 H 107.155 -4.67296 3.93022 0
M  V30 1162 H 108.569 -2.70072 5.05702 0
M  V30 1163 H 106.966 -2.13374 5.60885 0
M  V30 1164 H 108.036 -1.01802 4.74093 0
M  V30 1165 N 109.379 -1.50304 -0.473955 0
M  V30 1166 C 110.326 -1.68959 -1.57231 0
M  V30 1167 C 111.296 -0.530899 -1.57387 0
M  V30 1168 O 112.481 -0.761133 -1.74961 0
M  V30 1169 C 109.621 -1.7871 -2.95223 0
M  V30 1170 C 108.734 -3.06061 -3.04878 0
M  V30 1171 C 107.869 -3.06626 -4.33767 0
M  V30 1172 C 106.908 -4.28443 -4.37154 0
M  V30 1173 N 106.045 -4.26763 -5.5751 0
M  V30 1174 H 110.885 -2.6273 -1.40631 0
M  V30 1175 H 108.422 -1.30241 -0.683789 0
M  V30 1176 H 110.38 -1.82344 -3.75242 0
M  V30 1177 H 109.01 -0.883806 -3.10465 0
M  V30 1178 H 108.062 -3.11911 -2.17751 0
M  V30 1179 H 109.374 -3.96039 -3.0324 0
M  V30 1180 H 108.528 -3.08973 -5.22131 0
M  V30 1181 H 107.267 -2.14473 -4.3801 0
M  V30 1182 H 106.272 -4.2631 -3.47188 0
M  V30 1183 H 107.497 -5.2182 -4.34605 0
M  V30 1184 H 105.443 -3.37462 -5.62544 0
M  V30 1185 H 105.36 -5.10507 -5.57601 0
M  V30 1186 H 106.628 -4.33253 -6.48006 0
M  V30 1187 N 110.857 0.726932 -1.39834 0
M  V30 1188 C 112.268 1.30558 -1.3346 0
M  V30 1189 C 112.619 1.962 -0.00273003 0
M  V30 1190 O 111.744 1.96826 0.899371 0
M  V30 1191 C 112.339 2.37404 -2.41713 0
M  V30 1192 C 110.898 2.90921 -2.38835 0
M  V30 1193 C 110.045 1.64578 -2.2318 0
M  V30 1194 H 112.996 0.523862 -1.49804 0
M  V30 1195 H 113.017 3.17984 -2.08966 0
M  V30 1196 H 112.529 1.89599 -3.38635 0
M  V30 1197 H 110.63 3.42985 -1.45575 0
M  V30 1198 H 110.743 3.43487 -3.33997 0
M  V30 1199 H 109.107 1.89219 -1.70494 0
M  V30 1200 H 109.89 1.18814 -3.22084 0
M  V30 1201 N 112.336 1.25143 0.95797 0
M  V30 1202 C 113.585 1.0909 1.69654 0
M  V30 1203 C 113.898 -0.368548 1.92097 0
M  V30 1204 O 115.104 -0.649455 2.63618 0
M  V30 1205 C 113.56 1.90395 3.05414 0
M  V30 1206 C 113.168 3.4081 2.90779 0
M  V30 1207 C 114.912 1.82901 3.83076 0
M  V30 1208 C 112.819 4.14423 4.21909 0
M  V30 1209 H 111.749 0.404625 0.636235 0
M  V30 1210 H 114.4 1.4931 1.06672 0
M  V30 1211 H 112.782 1.42996 3.69281 0
M  V30 1212 H 113.956 3.95859 2.35865 0
M  V30 1213 H 112.271 3.49361 2.26575 0
M  V30 1214 H 114.868 2.35196 4.80195 0
M  V30 1215 H 115.211 0.796224 4.08615 0
M  V30 1216 H 115.744 2.28033 3.25954 0
M  V30 1217 H 112.483 5.18102 4.01561 0
M  V30 1218 H 112.003 3.64159 4.76601 0
M  V30 1219 H 113.682 4.21956 4.90471 0
M  V30 1220 N 113.814 -1.1601 1.06675 0
M  V30 1221 C 114.744 -2.22688 0.702307 0
M  V30 1222 C 115.725 -1.67306 -0.307032 0
M  V30 1223 O 116.91 -1.93352 -0.181305 0
M  V30 1224 C 114.04 -3.47178 0.092038 0
M  V30 1225 C 112.994 -4.15477 1.02777 0
M  V30 1226 C 112.32 -5.33963 0.28061 0
M  V30 1227 C 113.62 -4.66019 2.35846 0
M  V30 1228 H 115.314 -2.53429 1.59419 0
M  V30 1229 H 112.86 -1.21813 0.767961 0
M  V30 1230 H 114.813 -4.21037 -0.174814 0
M  V30 1231 H 113.537 -3.15749 -0.834877 0
M  V30 1232 H 112.196 -3.43549 1.27944 0
M  V30 1233 H 111.844 -4.98788 -0.649545 0
M  V30 1234 H 111.544 -5.806 0.904258 0
M  V30 1235 H 113.068 -6.10596 0.021396 0
M  V30 1236 H 114.482 -5.3144 2.15045 0
M  V30 1237 H 112.879 -5.23293 2.93743 0
M  V30 1238 H 113.949 -3.82023 2.98641 0
M  V30 1239 N 115.292 -0.849877 -1.32721 0
M  V30 1240 C 116.517 -0.463856 -2.02146 0
M  V30 1241 C 116.942 0.930449 -1.63476 0
M  V30 1242 O 116.3 1.61033 -0.832952 0
M  V30 1243 C 116.348 -0.604955 -3.55489 0
M  V30 1244 O 115.452 0.36425 -4.10788 0
M  V30 1245 H 114.793 -0.187046 -0.637111 0
M  V30 1246 H 117.323 -1.14775 -1.69375 0
M  V30 1247 H 117.333 -0.490696 -4.05038 0
M  V30 1248 H 116.008 -1.62174 -3.82978 0
M  V30 1249 H 114.585 0.206628 -3.72327 0
M  V30 1250 N 116.77 1.45427 -0.607355 0
M  V30 1251 C 118.016 2.03097 -0.111035 0
M  V30 1252 C 118.371 1.46735 1.24445 0
M  V30 1253 O 117.664 0.632478 1.8086 0
M  V30 1254 C 117.858 3.57398 -0.0129263 0
M  V30 1255 C 117.687 4.28726 -1.35735 0
M  V30 1256 C 116.457 4.66659 -1.93798 0
M  V30 1257 C 118.655 4.60699 -2.28607 0
M  V30 1258 N 116.637 5.22845 -3.21723 0
M  V30 1259 C 118.008 5.17716 -3.41131 0
M  V30 1260 C 120.063 4.42638 -2.27982 0
M  V30 1261 C 118.766 5.58576 -4.53194 0
M  V30 1262 C 120.792 4.84531 -3.39093 0
M  V30 1263 C 120.154 5.4164 -4.50339 0
M  V30 1264 H 116.253 0.777476 -0.083994 0
M  V30 1265 H 118.837 1.77249 -0.805655 0
M  V30 1266 H 117.008 3.82907 0.650914 0
M  V30 1267 H 118.74 4.01722 0.490033 0
M  V30 1268 H 115.495 4.50207 -1.47007 0
M  V30 1269 H 115.919 5.55438 -3.87063 0
M  V30 1270 H 120.561 3.97798 -1.43235 0
M  V30 1271 H 118.279 6.02382 -5.38667 0
M  V30 1272 H 121.865 4.72289 -3.39757 0
M  V30 1273 H 120.745 5.73461 -5.34895 0
M  V30 1274 N 118.248 0.346503 1.53744 0
M  V30 1275 C 119.525 -0.304532 1.93215 0
M  V30 1276 C 119.905 -1.67993 1.27834 0
M  V30 1277 O 119.253 -2.24411 0.430352 0
M  V30 1278 C 119.463 -0.373852 3.46992 0
M  V30 1279 C 120.811 -0.62329 4.2 0
M  V30 1280 O 121.835 -0.455847 3.53271 0
M  V30 1281 O 120.694 -0.947879 5.38217 0
M  V30 1282 H 117.788 -0.178318 0.807547 0
M  V30 1283 H 120.334 0.397895 1.64969 0
M  V30 1284 H 119.106 0.591224 3.86808 0
M  V30 1285 H 118.729 -1.12294 3.81413 0
M  V30 1286 N 119.726 -1.57421 0.075193 0
M  V30 1287 C 120.636 -2.1642 -0.905511 0
M  V30 1288 C 121.652 -1.12828 -1.32461 0
M  V30 1289 O 122.828 -1.45109 -1.39661 0
M  V30 1290 C 119.893 -2.71693 -2.15369 0
M  V30 1291 C 118.954 -3.90171 -1.79068 0
M  V30 1292 C 118.187 -4.42798 -2.97936 0
M  V30 1293 O 118.41 -3.94416 -4.12058 0
M  V30 1294 O 117.344 -5.34085 -2.77555 0
M  V30 1295 H 121.17 -3.00588 -0.433626 0
M  V30 1296 H 118.755 -1.48664 -0.148067 0
M  V30 1297 H 120.637 -3.07104 -2.88557 0
M  V30 1298 H 119.312 -1.90582 -2.61649 0
M  V30 1299 H 118.219 -3.59606 -1.03122 0
M  V30 1300 H 119.552 -4.72584 -1.37569 0
M  V30 1301 N 121.204 0.198386 -1.56346 0
M  V30 1302 C 122.45 0.920648 -1.80698 0
M  V30 1303 C 122.783 1.83045 -0.648697 0
M  V30 1304 O 122.058 1.91308 0.350925 0
M  V30 1305 C 122.341 1.73971 -3.15287 0
M  V30 1306 C 122.194 0.85485 -4.41602 0
M  V30 1307 C 123.513 2.71296 -3.46535 0
M  V30 1308 H 120.632 0.333261 -0.657348 0
M  V30 1309 H 123.274 0.188198 -1.89066 0
M  V30 1310 H 121.424 2.36416 -3.08285 0
M  V30 1311 H 123.096 0.245362 -4.60647 0
M  V30 1312 H 121.339 0.161398 -4.335 0
M  V30 1313 H 122.01 1.46286 -5.32264 0
M  V30 1314 H 124.486 2.18983 -3.53816 0
M  V30 1315 H 123.362 3.2569 -4.41834 0
M  V30 1316 H 123.623 3.5018 -2.69864 0
M  V30 1317 N 122.682 1.50554 0.465978 0
M  V30 1318 C 123.93 1.61479 1.21528 0
M  V30 1319 C 124.251 0.319596 1.92363 0
M  V30 1320 O 123.521 -0.663194 1.84333 0
M  V30 1321 H 122.101 0.595055 0.451573 0
M  V30 1322 H 124.763 1.87355 0.53704 0
M  V30 1323 H 123.859 2.42846 1.96042 0
M  V30 1324 N 124.16 -0.719506 1.40217 0
M  V30 1325 C 125.408 -1.47641 1.3801 0
M  V30 1326 C 125.729 -1.94992 -0.018145 0
M  V30 1327 O 124.999 -1.70073 -0.972207 0
M  V30 1328 H 123.579 -0.547744 0.507923 0
M  V30 1329 H 126.241 -0.853187 1.75233 0
M  V30 1330 H 125.337 -2.35112 2.05253 0
M  V30 1331 N 125.638 -1.25649 -0.95132 0
M  V30 1332 C 126.588 -1.03004 -2.03406 0
M  V30 1333 C 127.572 0.034187 -1.60864 0
M  V30 1334 O 128.764 -0.181549 -1.76066 0
M  V30 1335 C 125.893 -0.654255 -3.37008 0
M  V30 1336 C 124.979 -1.75542 -3.86065 0
M  V30 1337 N 125.37 -2.99113 -4.07879 0
M  V30 1338 C 123.668 -1.63669 -4.14884 0
M  V30 1339 C 124.369 -3.70611 -4.48356 0
M  V30 1340 N 123.345 -2.98247 -4.54477 0
M  V30 1341 H 127.147 -1.96813 -2.1827 0
M  V30 1342 H 124.661 -1.16017 -1.13639 0
M  V30 1343 H 126.658 -0.473206 -4.14206 0
M  V30 1344 H 125.318 0.276468 -3.23521 0
M  V30 1345 H 126.329 -3.35124 -3.94857 0
M  V30 1346 H 123.006 -0.775161 -4.10241 0
M  V30 1347 H 124.396 -4.76695 -4.73509 0
M  V30 1348 N 127.117 1.15442 -1.07289 0
M  V30 1349 C 128.528 1.67803 -0.818475 0
M  V30 1350 C 128.879 1.8489 0.656507 0
M  V30 1351 O 128.004 1.55176 1.50829 0
M  V30 1352 C 128.599 3.04805 -1.47917 0
M  V30 1353 C 127.158 3.54245 -1.27229 0
M  V30 1354 C 126.305 2.29986 -1.54925 0
M  V30 1355 H 129.256 0.996646 -1.23502 0
M  V30 1356 H 129.277 3.69702 -0.90005 0
M  V30 1357 H 128.789 2.92336 -2.55267 0
M  V30 1358 H 126.89 3.71956 -0.21899 0
M  V30 1359 H 127.003 4.35723 -1.99203 0
M  V30 1360 H 125.367 2.35496 -0.970242 0
M  V30 1361 H 126.15 2.20105 -2.63455 0
M  V30 1362 N 128.595 0.856903 1.32268 0
M  V30 1363 C 129.841 0.462069 1.97466 0
M  V30 1364 C 130.174 -0.980298 1.67642 0
M  V30 1365 O 129.449 -1.68824 0.965858 0
M  V30 1366 C 129.732 0.704336 3.53145 0
M  V30 1367 C 129.585 2.19529 3.9259 0
M  V30 1368 C 130.904 0.1622 4.39801 0
M  V30 1369 H 128.023 0.169357 0.717278 0
M  V30 1370 H 130.665 1.07574 1.56614 0
M  V30 1371 H 128.815 0.181999 3.88073 0
M  V30 1372 H 130.487 2.78387 3.67829 0
M  V30 1373 H 128.73 2.67292 3.41668 0
M  V30 1374 H 129.401 2.31549 5.01088 0
M  V30 1375 H 131.877 0.608905 4.11621 0
M  V30 1376 H 130.753 0.361265 5.4771 0
M  V30 1377 H 131.014 -0.935158 4.32096 0
M  V30 1378 N 130.073 -1.45103 0.615059 0
M  V30 1379 C 131.003 -2.33339 -0.0865619 0
M  V30 1380 C 131.984 -1.4727 -0.851209 0
M  V30 1381 O 133.169 -1.76026 -0.820281 0
M  V30 1382 C 130.299 -3.30095 -1.07956 0
M  V30 1383 C 129.253 -4.25858 -0.427628 0
M  V30 1384 C 128.579 -5.12361 -1.5294 0
M  V30 1385 C 129.879 -5.18165 0.655944 0
M  V30 1386 H 131.573 -2.92254 0.650224 0
M  V30 1387 H 129.119 -1.40532 0.314138 0
M  V30 1388 H 131.072 -3.90698 -1.57901 0
M  V30 1389 H 129.796 -2.69355 -1.84703 0
M  V30 1390 H 128.455 -3.66564 0.0510292 0
M  V30 1391 H 128.103 -4.47984 -2.28734 0
M  V30 1392 H 127.803 -5.77238 -1.09865 0
M  V30 1393 H 129.327 -5.75833 -2.03098 0
M  V30 1394 H 130.741 -5.72796 0.240257 0
M  V30 1395 H 129.138 -5.91559 1.00888 0
M  V30 1396 H 130.208 -4.60144 1.52957 0
M  V30 1397 N 131.551 -0.354651 -1.53558 0
M  V30 1398 C 132.797 0.231422 -2.02079 0
M  V30 1399 C 133.152 1.47308 -1.23767 0
M  V30 1400 O 132.445 1.8891 -0.319947 0
M  V30 1401 C 132.639 0.587121 -3.52545 0
M  V30 1402 C 132.468 -0.618513 -4.45426 0
M  V30 1403 C 131.238 -1.12724 -4.92566 0
M  V30 1404 C 133.436 -1.48039 -4.92533 0
M  V30 1405 N 131.418 -2.29404 -5.69427 0
M  V30 1406 C 132.789 -2.49397 -5.67628 0
M  V30 1407 C 134.844 -1.50454 -4.74624 0
M  V30 1408 C 133.547 -3.53013 -6.26717 0
M  V30 1409 C 135.573 -2.52958 -5.34571 0
M  V30 1410 C 134.935 -3.5304 -6.09543 0
M  V30 1411 H 131.034 0.0476909 -0.780544 0
M  V30 1412 H 133.618 -0.496727 -1.88257 0
M  V30 1413 H 131.789 1.28436 -3.6655 0
M  V30 1414 H 133.521 1.15734 -3.87799 0
M  V30 1415 H 130.276 -0.693577 -4.68494 0
M  V30 1416 H 130.7 -2.88347 -6.12524 0
M  V30 1417 H 135.342 -0.744356 -4.16196 0
M  V30 1418 H 133.06 -4.2992 -6.84247 0
M  V30 1419 H 136.646 -2.55667 -5.22614 0
M  V30 1420 H 135.526 -4.31056 -6.55103 0
M  V30 1421 N 133.029 1.57378 -0.0835403 0
M  V30 1422 C 133.977 2.14602 0.89714 0
M  V30 1423 C 134.971 1.08589 1.30018 0
M  V30 1424 O 136.177 1.26952 1.27606 0
M  V30 1425 H 132.552 0.686346 0.3073 0
M  V30 1426 H 134.523 2.95845 0.38969 0
M  V30 1427 C 133.272 2.73188 2.15089 0
M  V30 1428 H 132.595 3.54442 1.84962 0
M  V30 1429 H 134.035 3.1681 2.81793 0
M  V30 1430 C 132.494 1.68517 2.91725 0
M  V30 1431 O 133.024 1.11718 3.85852 0
M  V30 1432 N 131.23 1.39277 2.55049 0
M  V30 1433 H 130.777 1.85655 1.78577 0
M  V30 1434 H 130.735 0.694791 3.06627 0
M  V30 1435 N 134.507 -0.190092 1.56449 0
M  V30 1436 C 135.923 -0.54113 1.50146 0
M  V30 1437 C 136.123 -1.85603 0.784465 0
M  V30 1438 O 135.179 -2.5024 0.337051 0
M  V30 1439 C 136.492 -0.591241 2.9483 0
M  V30 1440 C 138.04 -0.679732 3.0553 0
M  V30 1441 C 138.515 -0.760908 4.51635 0
M  V30 1442 N 140.006 -0.824302 4.55806 0
M  V30 1443 C 140.741 -0.907365 5.66175 0
M  V30 1444 N 140.237 -0.952422 6.86222 0
M  V30 1445 N 142.03 -0.94494 5.541 0
M  V30 1446 H 134.181 0.67235 2.01478 0
M  V30 1447 H 136.444 0.240127 0.917084 0
M  V30 1448 H 136.15 0.305905 3.50367 0
M  V30 1449 H 136.024 -1.44422 3.48457 0
M  V30 1450 H 138.411 -1.56731 2.50039 0
M  V30 1451 H 138.492 0.199549 2.5502 0
M  V30 1452 H 138.136 0.122336 5.07753 0
M  V30 1453 H 138.066 -1.65606 4.99882 0
M  V30 1454 H 140.557 -0.798526 3.69367 0
M  V30 1455 H 140.87 -1.01645 7.66086 0
M  V30 1456 H 139.215 -0.921014 6.8887 0
M  V30 1457 H 142.406 -0.906612 4.59236 0
M  V30 1458 H 142.579 -1.00622 6.4014 0
M  V30 1459 N 135.985 -1.50799 -0.457987 0
M  V30 1460 C 136.917 -1.66786 -1.57211 0
M  V30 1461 C 137.93 -0.548962 -1.53265 0
M  V30 1462 O 139.119 -0.8226 -1.58416 0
M  V30 1463 C 136.219 -1.64834 -2.96113 0
M  V30 1464 C 135.392 -2.92971 -3.24787 0
M  V30 1465 C 134.451 -2.83485 -4.43309 0
M  V30 1466 O 133.477 -3.5744 -4.42973 0
M  V30 1467 N 134.679 -1.97929 -5.45714 0
M  V30 1468 H 137.444 -2.62889 -1.43909 0
M  V30 1469 H 135.005 -1.48427 -0.646617 0
M  V30 1470 H 136.997 -1.56084 -3.7339 0
M  V30 1471 H 135.567 -0.764118 -3.03117 0
M  V30 1472 H 134.787 -3.15749 -2.36 0
M  V30 1473 H 136.075 -3.77834 -3.40762 0
M  V30 1474 H 135.473 -1.37182 -5.48815 0
M  V30 1475 H 134.03 -1.95073 -6.21924 0
M  V30 1476 N 137.463 0.71206 -1.40597 0
M  V30 1477 C 138.874 1.29135 -1.34837 0
M  V30 1478 C 139.225 1.96186 -0.0235395 0
M  V30 1479 O 138.35 1.97768 0.878444 0
M  V30 1480 C 138.945 2.34827 -2.44217 0
M  V30 1481 C 137.504 2.88371 -2.41907 0
M  V30 1482 C 136.651 1.62202 -2.24913 0
M  V30 1483 H 139.602 0.507944 -1.50352 0
M  V30 1484 H 139.623 3.15749 -2.12327 0
M  V30 1485 H 139.135 1.85996 -3.40627 0
M  V30 1486 H 137.236 3.41422 -1.49204 0
M  V30 1487 H 137.349 3.39925 -3.37621 0
M  V30 1488 H 135.713 1.874 -1.72492 0
M  V30 1489 H 136.496 1.15391 -3.23326 0
M  V30 1490 N 138.941 1.26152 0.944643 0
M  V30 1491 C 139.871 1.09902 2.06019 0
M  V30 1492 C 140.852 0.00519538 1.70099 0
M  V30 1493 O 142.037 0.176583 1.93396 0
M  V30 1494 C 139.167 0.727562 3.39594 0
M  V30 1495 C 138.121 1.77274 3.89561 0
M  V30 1496 C 137.447 1.25569 5.19747 0
M  V30 1497 C 138.747 3.17357 4.14827 0
M  V30 1498 H 140.441 2.03217 2.19871 0
M  V30 1499 H 137.987 0.978452 1.05652 0
M  V30 1500 H 139.94 0.600777 4.17095 0
M  V30 1501 H 138.664 -0.241287 3.25707 0
M  V30 1502 H 137.323 1.88814 3.14237 0
M  V30 1503 H 136.971 0.276783 5.02238 0
M  V30 1504 H 136.671 1.95433 5.54148 0
M  V30 1505 H 138.195 1.1415 5.99835 0
M  V30 1506 H 139.609 3.08914 4.82954 0
M  V30 1507 H 138.006 3.84781 4.60504 0
M  V30 1508 H 139.076 3.63673 3.20734 0
M  V30 1509 N 140.419 -1.14872 1.07899 0
M  V30 1510 C 141.367 -2.21857 0.698727 0
M  V30 1511 C 142.361 -1.66845 -0.293086 0
M  V30 1512 O 143.567 -1.79321 -0.156204 0
M  V30 1513 H 139.942 -0.722691 0.207899 0
M  V30 1514 H 141.913 -2.51205 1.61054 0
M  V30 1515 C 140.662 -3.47498 0.11858 0
M  V30 1516 H 139.985 -3.90154 0.872914 0
M  V30 1517 H 141.425 -4.23858 -0.109759 0
M  V30 1518 C 139.884 -3.16947 -1.1422 0
M  V30 1519 O 140.414 -3.3426 -2.22785 0
M  V30 1520 N 138.62 -2.70946 -1.05055 0
M  V30 1521 H 138.167 -2.57058 -0.167038 0
M  V30 1522 H 138.125 -2.50879 -1.89491 0
M  V30 1523 N 141.898 -0.863906 -1.31812 0
M  V30 1524 C 143.123 -0.48527 -2.01643 0
M  V30 1525 C 143.548 0.913058 -1.64453 0
M  V30 1526 O 142.906 1.6014 -0.849985 0
M  V30 1527 C 142.954 -0.642625 -3.54828 0
M  V30 1528 O 142.058 0.320659 -4.11151 0
M  V30 1529 H 141.399 -0.193793 -0.635091 0
M  V30 1530 H 143.929 -1.16565 -1.68148 0
M  V30 1531 H 143.939 -0.533628 -4.04495 0
M  V30 1532 H 142.614 -1.66227 -3.81237 0
M  V30 1533 H 141.191 0.167126 -3.72525 0
M  V30 1534 N 143.376 1.44774 -0.622745 0
M  V30 1535 C 144.306 2.33382 0.0741861 0
M  V30 1536 C 145.287 1.47719 0.843387 0
M  V30 1537 O 146.472 1.76458 0.810934 0
M  V30 1538 C 143.602 3.30663 1.06204 0
M  V30 1539 C 142.556 4.26079 0.405037 0
M  V30 1540 C 141.882 5.13165 1.5022 0
M  V30 1541 C 143.182 5.1781 -0.683414 0
M  V30 1542 H 144.876 2.91905 -0.665713 0
M  V30 1543 H 142.422 1.40363 -0.321587 0
M  V30 1544 H 144.375 3.9153 1.55827 0
M  V30 1545 H 143.099 2.70331 1.83272 0
M  V30 1546 H 141.758 3.66532 -0.0704683 0
M  V30 1547 H 141.406 4.49191 2.26355 0
M  V30 1548 H 141.106 5.77812 1.06803 0
M  V30 1549 H 142.63 5.76902 2.00041 0
M  V30 1550 H 144.044 5.72661 -0.270631 0
M  V30 1551 H 142.441 5.91015 -1.04023 0
M  V30 1552 H 143.511 4.59326 -1.55395 0
M  V30 1553 N 144.854 0.36279 1.53368 0
M  V30 1554 C 146.131 -0.284021 1.93527 0
M  V30 1555 C 146.511 -1.66628 1.29608 0
M  V30 1556 O 145.859 -2.23942 0.45413 0
M  V30 1557 C 146.069 -0.337028 3.47369 0
M  V30 1558 C 147.417 -0.578708 4.20638 0
M  V30 1559 O 148.441 -0.418352 3.53735 0
M  V30 1560 O 147.3 -0.89074 5.39192 0
M  V30 1561 H 144.394 -0.169743 0.809393 0
M  V30 1562 H 146.94 0.41537 1.64538 0
M  V30 1563 H 145.712 0.632217 3.86159 0
M  V30 1564 H 145.335 -1.08243 3.82582 0
M  V30 1565 N 146.332 -1.57332 0.0918853 0
M  V30 1566 C 147.28 -2.15075 -0.885747 0
M  V30 1567 C 148.274 -1.09277 -1.29441 0
M  V30 1568 O 149.48 -1.27627 -1.26931 0
M  V30 1569 H 145.855 -0.687966 -0.303656 0
M  V30 1570 H 147.826 -2.96047 -0.373995 0
M  V30 1571 C 146.575 -2.74325 -2.13638 0
M  V30 1572 H 145.898 -3.55418 -1.8308 0
M  V30 1573 H 147.338 -3.183 -2.80109 0
M  V30 1574 C 145.797 -1.70062 -2.90827 0
M  V30 1575 O 146.327 -1.13763 -3.85254 0
M  V30 1576 N 144.533 -1.40628 -2.54307 0
M  V30 1577 H 144.08 -1.866 -1.7759 0
M  V30 1578 H 144.038 -0.711043 -3.06254 0
M  V30 1579 N 147.81 0.181792 -1.56548 0
M  V30 1580 C 148.758 1.24461 -1.965 0
M  V30 1581 C 149.752 1.464 -0.852261 0
M  V30 1582 O 150.958 1.47103 -1.03733 0
M  V30 1583 H 147.333 0.418138 -0.625031 0
M  V30 1584 H 149.304 0.880714 -2.85107 0
M  V30 1585 C 148.053 2.57891 -2.33212 0
M  V30 1586 H 147.376 2.41829 -3.18369 0
M  V30 1587 H 148.816 3.3097 -2.65019 0
M  V30 1588 C 147.275 3.15871 -1.17163 0
M  V30 1589 O 147.805 3.9913 -0.453708 0
M  V30 1590 N 146.011 2.74808 -0.944936 0
M  V30 1591 H 145.558 2.07205 -1.53049 0
M  V30 1592 H 145.516 3.13939 -0.170286 0
M  V30 1593 N 149.288 1.51039 0.449983 0
M  V30 1594 C 150.513 1.6715 1.22783 0
M  V30 1595 C 150.938 0.363081 1.84563 0
M  V30 1596 O 150.296 -0.675433 1.68249 0
M  V30 1597 C 150.344 2.77985 2.29689 0
M  V30 1598 O 149.448 2.40707 3.34864 0
M  V30 1599 H 148.789 0.557746 0.360299 0
M  V30 1600 H 151.319 1.97535 0.533005 0
M  V30 1601 H 151.329 3.01693 2.74673 0
M  V30 1602 H 150.004 3.72935 1.84098 0
M  V30 1603 H 148.581 2.27523 2.95445 0
M  V30 1604 N 150.766 -0.704594 1.40972 0
M  V30 1605 C 151.696 -1.83124 1.44872 0
M  V30 1606 C 152.677 -1.67281 0.30838 0
M  V30 1607 O 153.862 -1.87149 0.518556 0
M  V30 1608 C 150.992 -3.21181 1.32136 0
M  V30 1609 C 149.946 -3.51714 2.43888 0
M  V30 1610 C 149.272 -4.89032 2.16222 0
M  V30 1611 C 150.572 -3.516 3.86232 0
M  V30 1612 H 152.266 -1.80117 2.39161 0
M  V30 1613 H 149.812 -0.865145 1.15114 0
M  V30 1614 H 151.765 -3.99702 1.33479 0
M  V30 1615 H 150.489 -3.24791 0.343279 0
M  V30 1616 H 149.148 -2.75539 2.41813 0
M  V30 1617 H 148.796 -4.89256 1.16778 0
M  V30 1618 H 148.496 -5.10426 2.911 0
M  V30 1619 H 150.02 -5.69873 2.19265 0
M  V30 1620 H 151.434 -4.2014 3.9007 0
M  V30 1621 H 149.831 -3.84523 4.60719 0
M  V30 1622 H 150.901 -2.50757 4.15029 0
M  V30 1623 N 152.244 -1.26651 -0.937939 0
M  V30 1624 C 153.474 -1.15006 -1.71631 0
M  V30 1625 C 153.882 0.297026 -1.86854 0
M  V30 1626 O 153.225 1.21493 -1.37786 0
M  V30 1627 C 153.287 -1.74984 -3.14039 0
M  V30 1628 C 152.951 -3.24103 -3.2219 0
M  V30 1629 C 153.948 -4.20877 -3.05219 0
M  V30 1630 C 151.633 -3.64625 -3.45476 0
M  V30 1631 C 153.627 -5.56151 -3.11408 0
M  V30 1632 C 151.314 -5.00032 -3.513 0
M  V30 1633 C 152.312 -5.95604 -3.34282 0
M  V30 1634 O 152 -7.28545 -3.3982 0
M  V30 1635 H 151.732 -0.401183 -0.544085 0
M  V30 1636 H 154.286 -1.67832 -1.18413 0
M  V30 1637 H 152.516 -1.16624 -3.68695 0
M  V30 1638 H 154.205 -1.58199 -3.73802 0
M  V30 1639 H 154.971 -3.90908 -2.87081 0
M  V30 1640 H 150.85 -2.90718 -3.57777 0
M  V30 1641 H 154.394 -6.30727 -2.98043 0
M  V30 1642 H 150.291 -5.29659 -3.68959 0
M  V30 1643 H 151.059 -7.3686 -3.56343 0
M  V30 1644 N 153.722 1.14298 -1.08507 0
M  V30 1645 C 154.95 1.89219 -0.836876 0
M  V30 1646 C 155.365 1.78638 0.611054 0
M  V30 1647 O 154.722 1.14643 1.41998 0
M  V30 1648 C 154.773 3.39158 -1.25116 0
M  V30 1649 O 154.494 3.49449 -2.64229 0
M  V30 1650 C 155.995 4.31073 -1.03398 0
M  V30 1651 H 153.215 0.599328 -0.301739 0
M  V30 1652 H 155.759 1.44746 -1.44461 0
M  V30 1653 H 153.914 3.81251 -0.687514 0
M  V30 1654 H 154.328 4.42589 -2.81452 0
M  V30 1655 H 155.802 5.34646 -1.37323 0
M  V30 1656 H 156.279 4.3919 0.0289259 0
M  V30 1657 H 156.885 3.94738 -1.58311 0
M  V30 1658 N 155.201 0.870884 1.31352 0
M  V30 1659 C 156.133 0.28455 2.27427 0
M  V30 1660 C 157.146 -0.552927 1.53123 0
M  V30 1661 O 158.335 -0.374771 1.74521 0
M  V30 1662 C 155.435 -0.615164 3.3327 0
M  V30 1663 C 154.608 0.190079 4.36987 0
M  V30 1664 C 153.667 -0.637917 5.22319 0
M  V30 1665 O 152.693 -0.065626 5.69162 0
M  V30 1666 N 153.895 -1.94973 5.46778 0
M  V30 1667 H 156.66 1.11017 2.7838 0
M  V30 1668 H 154.221 0.732458 1.44384 0
M  V30 1669 H 156.213 -1.1748 3.87273 0
M  V30 1670 H 154.783 -1.34146 2.82354 0
M  V30 1671 H 154.003 0.931165 3.83044 0
M  V30 1672 H 155.291 0.742579 5.03352 0
M  V30 1673 H 154.689 -2.4378 5.10478 0
M  V30 1674 H 153.246 -2.45713 6.03712 0
M  V30 1675 N 156.679 -1.44442 0.630414 0
M  V30 1676 C 157.609 -2.33418 -0.0618083 0
M  V30 1677 C 158.59 -1.48165 -0.835541 0
M  V30 1678 O 159.775 -1.76886 -0.801564 0
M  V30 1679 C 156.905 -3.31222 -1.04449 0
M  V30 1680 C 155.859 -4.26288 -0.382436 0
M  V30 1681 C 155.185 -5.13954 -1.47497 0
M  V30 1682 C 156.485 -5.1744 0.710865 0
M  V30 1683 H 158.179 -2.91548 0.681184 0
M  V30 1684 H 155.725 -1.40191 0.329026 0
M  V30 1685 H 157.678 -3.92351 -1.53748 0
M  V30 1686 H 156.402 -2.71299 -1.81836 0
M  V30 1687 H 155.061 -3.6649 0.0899054 0
M  V30 1688 H 154.709 -4.50385 -2.2397 0
M  V30 1689 H 154.409 -5.7837 -1.03737 0
M  V30 1690 H 155.933 -5.77955 -1.96979 0
M  V30 1691 H 157.347 -5.72509 0.300996 0
M  V30 1692 H 155.744 -5.90455 1.07156 0
M  V30 1693 H 156.814 -4.58496 1.57829 0
M  V30 1694 N 158.157 -0.370918 -1.53173 0
M  V30 1695 C 159.067 0.480823 -2.2962 0
M  V30 1696 C 160.083 1.08789 -1.35798 0
M  V30 1697 O 161.259 1.09768 -1.68858 0
M  V30 1698 C 158.324 1.60227 -3.07454 0
M  V30 1699 C 157.385 1.0222 -4.16953 0
M  V30 1700 C 156.618 2.0902 -4.91066 0
M  V30 1701 O 156.841 3.30222 -4.65091 0
M  V30 1702 O 155.775 1.71778 -5.76867 0
M  V30 1703 H 159.601 -0.141421 -3.03371 0
M  V30 1704 H 157.186 -0.135146 -1.48787 0
M  V30 1705 H 159.068 2.25417 -3.56041 0
M  V30 1706 H 157.743 2.20982 -2.36535 0
M  V30 1707 H 156.65 0.334064 -3.72605 0
M  V30 1708 H 157.983 0.459131 -4.90054 0
M  V30 1709 N 159.635 1.57281 -0.100228 0
M  V30 1710 C 160.568 2.09976 0.893612 0
M  V30 1711 C 161.546 1.01155 1.27304 0
M  V30 1712 O 162.73 1.28687 1.37739 0
M  V30 1713 C 159.857 2.58098 2.19324 0
M  V30 1714 C 158.903 3.78626 1.96328 0
M  V30 1715 S 159.736 5.21959 1.19662 0
M  V30 1716 C 160.892 5.73435 2.50844 0
M  V30 1717 H 161.125 2.93946 0.44534 0
M  V30 1718 H 158.658 1.53985 0.113167 0
M  V30 1719 H 160.616 2.8648 2.94005 0
M  V30 1720 H 159.277 1.74344 2.61272 0
M  V30 1721 H 158.47 4.10382 2.92579 0
M  V30 1722 H 158.072 3.50763 1.29775 0
M  V30 1723 H 160.364 5.82015 3.46792 0
M  V30 1724 H 161.307 6.7185 2.23659 0
M  V30 1725 H 161.715 5.01395 2.59352 0
M  V30 1726 N 161.113 -0.173488 1.56642 0
M  V30 1727 C 162.043 -1.2171 1.99271 0
M  V30 1728 C 163.024 -1.46289 0.867959 0
M  V30 1729 O 164.209 -1.5766 1.13388 0
M  V30 1730 C 161.339 -2.55651 2.35074 0
M  V30 1731 C 160.293 -2.45645 3.50489 0
M  V30 1732 C 159.619 -3.84056 3.72028 0
M  V30 1733 C 160.919 -1.96302 4.84007 0
M  V30 1734 H 162.613 -0.86275 2.867 0
M  V30 1735 H 160.159 -0.413571 1.37933 0
M  V30 1736 H 162.112 -3.2886 2.63494 0
M  V30 1737 H 160.836 -2.92869 1.44552 0
M  V30 1738 H 159.495 -1.7489 3.22194 0
M  V30 1739 H 159.143 -4.18664 2.788 0
M  V30 1740 H 158.843 -3.7823 4.49684 0
M  V30 1741 H 160.367 -4.58854 4.02846 0
M  V30 1742 H 161.781 -2.59284 5.11317 0
M  V30 1743 H 160.178 -2.01429 5.65284 0
M  V30 1744 H 161.248 -0.917226 4.76146 0
M  V30 1745 N 162.591 -1.51276 -0.441967 0
M  V30 1746 C 163.837 -1.63958 -1.19355 0
M  V30 1747 C 164.17 -0.352543 -1.90973 0
M  V30 1748 O 163.445 0.647627 -1.83401 0
M  V30 1749 C 163.728 -2.83979 -2.21422 0
M  V30 1750 C 163.581 -4.22646 -1.53918 0
M  V30 1751 C 164.9 -2.99521 -3.22451 0
M  V30 1752 H 162.019 -0.596709 -0.432559 0
M  V30 1753 H 164.661 -1.83748 -0.483398 0
M  V30 1754 H 162.811 -2.67237 -2.81987 0
M  V30 1755 H 164.483 -4.51045 -0.967256 0
M  V30 1756 H 162.726 -4.25558 -0.841615 0
M  V30 1757 H 163.397 -5.02609 -2.28229 0
M  V30 1758 H 165.873 -3.14944 -2.71937 0
M  V30 1759 H 164.749 -3.85072 -3.91166 0
M  V30 1760 H 165.01 -2.11391 -3.88287 0
M  V30 1761 N 164.069 0.697108 -1.41344 0
M  V30 1762 C 165.001 1.8224 -1.39001 0
M  V30 1763 C 166.014 1.60152 -0.292428 0
M  V30 1764 O 167.203 1.69684 -0.554048 0
M  V30 1765 C 164.303 3.18976 -1.14489 0
M  V30 1766 C 163.476 3.68105 -2.36258 0
M  V30 1767 C 162.535 4.83506 -2.07625 0
M  V30 1768 O 161.561 4.95201 -2.8065 0
M  V30 1769 N 162.763 5.70637 -1.06555 0
M  V30 1770 H 165.528 1.84742 -2.35988 0
M  V30 1771 H 163.089 0.87937 -1.35936 0
M  V30 1772 H 165.081 3.93801 -0.932885 0
M  V30 1773 H 163.651 3.11508 -0.261043 0
M  V30 1774 H 162.871 2.84204 -2.7317 0
M  V30 1775 H 164.159 3.97667 -3.17393 0
M  V30 1776 H 163.557 5.63817 -0.461125 0
M  V30 1777 H 162.114 6.45368 -0.913444 0
M  V30 1778 N 165.547 1.27147 0.931209 0
M  V30 1779 C 166.795 1.13055 1.6752 0
M  V30 1780 C 167.116 -0.324791 1.92276 0
M  V30 1781 O 166.386 -1.22775 1.52654 0
M  V30 1782 H 164.966 0.415391 0.620854 0
M  V30 1783 H 167.628 1.59623 1.11833 0
M  V30 1784 H 166.724 1.65694 2.64485 0
M  V30 1785 N 167.025 -1.13721 1.09112 0
M  V30 1786 C 167.988 -2.17222 0.731241 0
M  V30 1787 C 168.988 -1.59035 -0.237566 0
M  V30 1788 O 170.178 -1.74192 -0.0161704 0
M  V30 1789 C 167.31 -3.40804 0.0808443 0
M  V30 1790 H 168.503 -2.50573 1.64783 0
M  V30 1791 H 166.056 -1.28493 0.889897 0
M  V30 1792 H 166.791 -3.1304 -0.847127 0
M  V30 1793 H 166.576 -3.84306 0.777896 0
M  V30 1794 H 168.066 -4.1731 -0.155657 0
M  V30 1795 N 168.503 -0.877838 -1.30888 0
M  V30 1796 C 169.413 -0.343096 -2.32078 0
M  V30 1797 C 170.429 0.551022 -1.65045 0
M  V30 1798 O 171.605 0.445854 -1.96403 0
M  V30 1799 C 168.67 0.439905 -3.43898 0
M  V30 1800 C 167.731 -0.483111 -4.26573 0
M  V30 1801 C 166.964 0.262616 -5.33053 0
M  V30 1802 O 167.187 1.48967 -5.50604 0
M  V30 1803 O 166.121 -0.383593 -6.00676 0
M  V30 1804 H 169.947 -1.18203 -2.79753 0
M  V30 1805 H 167.532 -0.64145 -1.34929 0
M  V30 1806 H 169.414 0.883504 -4.12034 0
M  V30 1807 H 168.089 1.25526 -2.98371 0
M  V30 1808 H 166.996 -0.975374 -3.61161 0
M  V30 1809 H 168.329 -1.26427 -4.75686 0
M  V30 1810 N 169.982 1.44106 -0.638065 0
M  V30 1811 C 171.398 1.56672 -0.304286 0
M  V30 1812 C 171.598 1.6244 1.19228 0
M  V30 1813 O 170.654 1.57121 1.9766 0
M  V30 1814 C 171.967 2.83503 -1.00231 0
M  V30 1815 C 173.515 2.97226 -0.981116 0
M  V30 1816 C 173.99 4.26868 -1.65974 0
M  V30 1817 N 175.481 4.33698 -1.62666 0
M  V30 1818 C 176.216 5.32745 -2.12063 0
M  V30 1819 N 175.712 6.38157 -2.6968 0
M  V30 1820 N 177.505 5.24299 -2.02651 0
M  V30 1821 H 169.656 1.38605 -1.60942 0
M  V30 1822 H 171.919 0.664661 -0.675965 0
M  V30 1823 H 171.625 2.85251 -2.0573 0
M  V30 1824 H 171.499 3.73251 -0.54439 0
M  V30 1825 H 173.886 2.95027 0.0654188 0
M  V30 1826 H 173.967 2.08808 -1.47759 0
M  V30 1827 H 173.611 4.29826 -2.70576 0
M  V30 1828 H 173.541 5.14156 -1.13804 0
M  V30 1829 H 176.032 3.58138 -1.20606 0
M  V30 1830 H 176.345 7.10029 -3.05087 0
M  V30 1831 H 174.69 6.38823 -2.73734 0
M  V30 1832 H 177.881 4.4086 -1.57353 0
M  V30 1833 H 178.054 6.01334 -2.41457 0
M  V30 1834 N 171.46 0.379036 1.52974 0
M  V30 1835 C 172.39 -0.452706 2.29069 0
M  V30 1836 C 173.371 -1.07237 1.32039 0
M  V30 1837 O 174.556 -1.08708 1.60923 0
M  V30 1838 C 171.686 -1.5856 3.08992 0
M  V30 1839 C 170.64 -1.0925 4.13822 0
M  V30 1840 C 169.966 -2.31668 4.81907 0
M  V30 1841 C 171.266 -0.167702 5.22031 0
M  V30 1842 H 172.96 0.182181 2.98845 0
M  V30 1843 H 170.506 0.0890592 1.43724 0
M  V30 1844 H 172.459 -2.1742 3.6098 0
M  V30 1845 H 171.183 -2.24792 2.36931 0
M  V30 1846 H 169.842 -0.526494 3.628 0
M  V30 1847 H 169.49 -2.96386 4.06404 0
M  V30 1848 H 169.19 -1.9934 5.52754 0
M  V30 1849 H 170.714 -2.91189 5.36695 0
M  V30 1850 H 172.128 -0.664186 5.6944 0
M  V30 1851 H 170.525 0.0653265 6.00064 0
M  V30 1852 H 171.595 0.786347 4.78482 0
M  V30 1853 N 172.938 -1.57226 0.108567 0
M  V30 1854 C 173.87 -2.11809 -0.875752 0
M  V30 1855 C 174.883 -1.05839 -1.23701 0
M  V30 1856 O 176.072 -1.33245 -1.18778 0
M  V30 1857 C 173.172 -2.59411 -2.18081 0
M  V30 1858 C 172.345 -3.89364 -1.99284 0
M  V30 1859 C 171.404 -4.22672 -3.13424 0
M  V30 1860 O 170.43 -4.91668 -2.86795 0
M  V30 1861 N 171.632 -3.79154 -4.3957 0
M  V30 1862 H 174.397 -2.9689 -0.409477 0
M  V30 1863 H 171.958 -1.61721 -0.076158 0
M  V30 1864 H 173.95 -2.7873 -2.93414 0
M  V30 1865 H 172.52 -1.79268 -2.5609 0
M  V30 1866 H 171.74 -3.79059 -1.08203 0
M  V30 1867 H 173.028 -4.74358 -1.84017 0
M  V30 1868 H 172.426 -3.23486 -4.64083 0
M  V30 1869 H 170.983 -4.03602 -5.11809 0
M  V30 1870 N 174.416 0.165178 -1.56732 0
M  V30 1871 C 175.644 0.896218 -1.86482 0
M  V30 1872 C 176.059 1.75555 -0.694675 0
M  V30 1873 O 175.416 1.79379 0.33607 0
M  V30 1874 C 175.467 1.76792 -3.1532 0
M  V30 1875 O 175.188 0.943239 -4.27825 0
M  V30 1876 C 176.689 2.6081 -3.58459 0
M  V30 1877 H 173.909 0.260064 -0.618553 0
M  V30 1878 H 176.453 0.163428 -2.03846 0
M  V30 1879 H 174.608 2.45398 -2.99764 0
M  V30 1880 H 175.022 1.53998 -5.01383 0
M  V30 1881 H 176.496 3.17579 -4.51495 0
M  V30 1882 H 176.973 3.35977 -2.82872 0
M  V30 1883 H 177.579 1.97526 -3.76648 0
M  V30 1884 N 175.894 1.51508 0.433938 0
M  V30 1885 C 177.119 1.68443 1.21003 0
M  V30 1886 C 177.544 0.382636 1.84167 0
M  V30 1887 O 176.902 -0.65755 1.68956 0
M  V30 1888 C 176.95 2.80405 2.26727 0
M  V30 1889 O 176.054 2.44245 3.32292 0
M  V30 1890 H 175.395 0.561536 0.354363 0
M  V30 1891 H 177.925 1.9809 0.512024 0
M  V30 1892 H 177.935 3.0459 2.71457 0
M  V30 1893 H 176.61 3.74867 1.80132 0
M  V30 1894 H 175.187 2.30644 2.93015 0
M  V30 1895 N 177.372 -0.689602 1.41712 0
M  V30 1896 C 178.597 -1.48329 1.44959 0
M  V30 1897 C 179.022 -1.8801 0.0581283 0
M  V30 1898 O 178.38 -1.55026 -0.940035 0
M  V30 1899 C 178.428 -2.71835 2.36935 0
M  V30 1900 O 177.532 -3.69549 1.8305 0
M  V30 1901 H 176.873 -0.446199 0.491734 0
M  V30 1902 H 179.403 -0.847127 1.86239 0
M  V30 1903 H 179.413 -3.20076 2.53013 0
M  V30 1904 H 178.088 -2.42291 3.38035 0
M  V30 1905 H 176.665 -3.2851 1.76452 0
M  V30 1906 N 178.85 -1.27639 -0.924453 0
M  V30 1907 C 179.78 -1.13166 -2.04244 0
M  V30 1908 C 180.761 -0.032256 -1.70069 0
M  V30 1909 O 181.946 -0.207328 -1.9309 0
M  V30 1910 C 179.076 -0.781496 -3.38393 0
M  V30 1911 C 178.03 -1.83449 -3.86692 0
M  V30 1912 C 177.356 -1.33822 -5.17683 0
M  V30 1913 C 178.656 -3.23917 -4.09726 0
M  V30 1914 H 180.35 -2.06689 -2.1661 0
M  V30 1915 H 177.896 -0.995136 -1.04082 0
M  V30 1916 H 179.849 -0.667057 -4.16087 0
M  V30 1917 H 178.573 0.189439 -3.2605 0
M  V30 1918 H 177.232 -1.93789 -3.11193 0
M  V30 1919 H 176.88 -0.35665 -5.01734 0
M  V30 1920 H 176.58 -2.04224 -5.50968 0
M  V30 1921 H 178.104 -1.23679 -5.97943 0
M  V30 1922 H 179.518 -3.16559 -4.77978 0
M  V30 1923 H 177.915 -3.92059 -4.54324 0
M  V30 1924 H 178.985 -3.68729 -3.14908 0
M  V30 1925 N 180.328 1.1314 -1.09713 0
M  V30 1926 C 181.577 1.83838 -0.829851 0
M  V30 1927 C 181.89 1.84599 0.646728 0
M  V30 1928 O 183.096 2.51218 1.02965 0
M  V30 1929 C 181.552 3.30069 -1.43466 0
M  V30 1930 C 181.16 3.37688 -2.94399 0
M  V30 1931 C 182.904 4.05788 -1.24645 0
M  V30 1932 C 180.811 4.78209 -3.47952 0
M  V30 1933 H 179.741 0.68877 -0.306777 0
M  V30 1934 H 182.392 1.27448 -1.3202 0
M  V30 1935 H 180.774 3.8628 -0.871996 0
M  V30 1936 H 181.948 2.91456 -3.56918 0
M  V30 1937 H 180.263 2.75436 -3.12289 0
M  V30 1938 H 182.86 5.09535 -1.62107 0
M  V30 1939 H 183.203 4.15878 -0.187357 0
M  V30 1940 H 183.736 3.55915 -1.77678 0
M  V30 1941 H 180.475 4.73311 -4.53495 0
M  V30 1942 H 179.995 5.24924 -2.90198 0
M  V30 1943 H 181.674 5.47133 -3.45332 0
M  V30 1944 N 181.806 0.884767 1.30421 0
M  V30 1945 C 183.031 0.517288 2.00845 0
M  V30 1946 C 183.456 -0.886779 1.65885 0
M  V30 1947 O 182.814 -1.58768 0.875354 0
M  V30 1948 C 182.862 0.698994 3.5376 0
M  V30 1949 O 181.966 -0.255208 4.1161 0
M  V30 1950 H 181.307 0.203872 0.631927 0
M  V30 1951 H 183.837 1.19225 1.66272 0
M  V30 1952 H 183.847 0.597912 4.03595 0
M  V30 1953 H 182.522 1.72271 3.78544 0
M  V30 1954 H 181.099 -0.10784 3.72744 0
M  V30 1955 N 183.284 -1.43765 0.645699 0
M  V30 1956 C 184.695 -1.85193 0.236719 0
M  V30 1957 C 185.046 -1.54045 -1.21509 0
M  V30 1958 O 184.171 -0.985694 -1.92647 0
M  V30 1959 C 184.766 -3.36151 0.422845 0
M  V30 1960 C 183.325 -3.76338 0.0682492 0
M  V30 1961 C 182.472 -2.67538 0.729306 0
M  V30 1962 H 185.423 -1.34025 0.849883 0
M  V30 1963 H 185.444 -3.79032 -0.333904 0
M  V30 1964 H 184.956 -3.5879 1.47958 0
M  V30 1965 H 183.057 -3.59312 -0.986179 0
M  V30 1966 H 183.17 -4.76603 0.488469 0
M  V30 1967 H 181.534 -2.54176 0.163235 0
M  V30 1968 H 182.317 -2.93006 1.78892 0
M  V30 1969 N 184.763 -0.387143 -1.52771 0
M  V30 1970 C 186.174 0.0873634 -1.86495 0
M  V30 1971 C 186.525 1.46336 -1.30691 0
M  V30 1972 O 185.65 2.068 -0.637409 0
M  V30 1973 C 186.245 0.165305 -3.38396 0
M  V30 1974 C 184.804 0.584101 -3.7184 0
M  V30 1975 C 183.951 -0.255279 -2.76122 0
M  V30 1976 H 186.902 -0.605104 -1.46711 0
M  V30 1977 H 186.923 0.984848 -3.67534 0
M  V30 1978 H 186.435 -0.836301 -3.78982 0
M  V30 1979 H 184.536 1.59315 -3.36823 0
M  V30 1980 H 184.649 0.343749 -4.77865 0
M  V30 1981 H 183.013 0.279126 -2.53166 0
M  V30 1982 H 183.796 -1.25482 -3.19545 0
M  V30 1983 N 186.241 1.57166 -0.116904 0
M  V30 1984 C 187.657 1.5779 0.239693 0
M  V30 1985 C 187.857 1.1295 1.66867 0
M  V30 1986 O 186.913 0.81592 2.38954 0
M  V30 1987 C 188.226 3.00699 0.00828202 0
M  V30 1988 C 189.774 3.12912 0.0743438 0
M  V30 1989 C 190.249 4.57817 -0.129348 0
M  V30 1990 N 191.74 4.63139 -0.075247 0
M  V30 1991 C 192.475 5.73023 -0.207788 0
M  V30 1992 N 191.971 6.91665 -0.396382 0
M  V30 1993 N 193.764 5.61906 -0.14751 0
M  V30 1994 H 185.915 1.84615 -1.05029 0
M  V30 1995 H 188.178 0.85311 -0.41341 0
M  V30 1996 H 187.884 3.37784 -0.979531 0
M  V30 1997 H 187.758 3.69848 0.741077 0
M  V30 1998 H 190.145 2.75686 1.05268 0
M  V30 1999 H 190.226 2.4631 -0.690297 0
M  V30 2000 H 189.87 4.95742 -1.10465 0
M  V30 2001 H 189.8 5.22507 0.655253 0
M  V30 2002 H 192.291 3.7784 0.0670898 0
M  V30 2003 H 192.604 7.71255 -0.488437 0
M  V30 2004 H 190.949 6.93654 -0.432329 0
M  V30 2005 H 194.14 4.681 -0.00115036 0
M  V30 2006 H 194.313 6.47501 -0.254247 0
M  V30 2007 N 187.719 -0.156864 1.56817 0
M  V30 2008 C 188.944 -0.890331 1.87318 0
M  V30 2009 C 189.369 -1.74394 0.704855 0
M  V30 2010 O 188.727 -1.77972 -0.345786 0
M  V30 2011 C 188.775 -1.73102 3.16336 0
M  V30 2012 O 187.879 -2.83422 2.99576 0
M  V30 2013 H 187.22 -0.24857 0.615718 0
M  V30 2014 H 189.75 -0.150649 2.04045 0
M  V30 2015 H 189.76 -2.12803 3.48107 0
M  V30 2016 H 188.435 -1.10412 4.00976 0
M  V30 2017 H 187.012 -2.47199 2.7919 0
M  V30 2018 N 189.197 -1.51736 -0.425897 0
M  V30 2019 C 190.444 -1.6497 -1.17436 0
M  V30 2020 C 190.772 -0.371445 -1.9092 0
M  V30 2021 O 190.027 0.644963 -1.84767 0
M  V30 2022 C 190.326 -2.81103 -2.20717 0
M  V30 2023 C 189.992 -4.19954 -1.64162 0
M  V30 2024 C 188.654 -4.57725 -1.48462 0
M  V30 2025 C 191.006 -5.06552 -1.22696 0
M  V30 2026 C 188.334 -5.79789 -0.897873 0
M  V30 2027 C 190.686 -6.29205 -0.654464 0
M  V30 2028 C 189.35 -6.6574 -0.484456 0
M  V30 2029 H 188.62 -0.603668 -0.429727 0
M  V30 2030 H 191.267 -1.85798 -0.463829 0
M  V30 2031 H 189.572 -2.54542 -2.97852 0
M  V30 2032 H 191.269 -2.8854 -2.78471 0
M  V30 2033 H 187.859 -3.90181 -1.77361 0
M  V30 2034 H 192.043 -4.77968 -1.33642 0
M  V30 2035 H 187.299 -6.06733 -0.75402 0
M  V30 2036 H 191.473 -6.95643 -0.324694 0
M  V30 2037 H 189.1 -7.60195 -0.0276833 0
M  V30 2038 N 190.675 0.682077 -1.42076 0
M  V30 2039 C 191.9 1.47558 -1.45744 0
M  V30 2040 C 192.325 1.87977 -0.0680981 0
M  V30 2041 O 191.683 1.55522 0.9318 0
M  V30 2042 C 191.731 2.70575 -2.38373 0
M  V30 2043 O 190.835 3.68573 -1.85007 0
M  V30 2044 H 190.176 0.443585 -0.494093 0
M  V30 2045 H 192.706 0.837238 -1.86686 0
M  V30 2046 H 192.716 3.18729 -2.54707 0
M  V30 2047 H 191.391 2.40495 -3.39315 0
M  V30 2048 H 189.968 3.2757 -1.78192 0
M  V30 2049 O 192.192 1.38868 0.824489 0
M  V30 2050 H 192.883 1.26408 1.46767 0
M  V30 END ATOM
M  V30 BEGIN BOND
M  V30 END BOND
M  V30 END CTAB
M  END
$$$$
