drugbank_target|P31415 Calsequestrin-1 (DB11093; DB11348; DB13800; DB14481)
 OpenBabel12092121053D

  0  0  0     0  0            999 V3000
M  V30 BEGIN CTAB
M  V30 COUNTS 6192 6260 0 0 0
M  V30 BEGIN ATOM
M  V30 1 H -0.908 1.98254 -0.117106 0
M  V30 2 N 0 1.576 0 0
M  V30 3 C 0.933 2.03868 1.02534 0
M  V30 4 C 1.911 0.928543 1.3348 0
M  V30 5 O 3.095 1.19667 1.45644 0
M  V30 6 C 0.222 2.43627 2.35294 0
M  V30 7 C -0.732 3.65373 2.2001 0
M  V30 8 S 0.101 5.13292 1.52614 0
M  V30 9 C 1.257 5.56322 2.86805 0
M  V30 10 H 1.49 2.90518 0.631377 0
M  V30 11 H -0.977 1.52953 0.210867 0
M  V30 12 H 0.981 2.67203 3.11629 0
M  V30 13 H -0.358 1.57376 2.7183 0
M  V30 14 H -1.165 3.90944 3.18086 0
M  V30 15 H -1.563 3.418 1.51819 0
M  V30 16 H 0.729 5.58782 3.83104 0
M  V30 17 H 1.672 6.56266 2.65933 0
M  V30 18 H 2.08 4.83886 2.90714 0
M  V30 19 N 1.4781 -0.272755 1.55222 0
M  V30 20 C 2.7031 -1.02683 1.80197 0
M  V30 21 C 3.1281 -1.79142 0.573551 0
M  V30 22 O 2.4861 -1.74917 -0.476849 0
M  V30 23 C 2.5341 -1.9609 3.02624 0
M  V30 24 O 1.6381 -3.04863 2.77727 0
M  V30 25 H 0.9791 -0.293557 0.595584 0
M  V30 26 H 3.5091 -0.30159 2.02365 0
M  V30 27 H 3.5191 -2.38039 3.31363 0
M  V30 28 H 2.1941 -1.39851 3.91682 0
M  V30 29 H 0.7711 -2.67228 2.60084 0
M  V30 30 N 2.9562 -1.48159 -0.537278 0
M  V30 31 C 3.9192 -1.61665 -1.62472 0
M  V30 32 C 4.9192 -0.490395 -1.5314 0
M  V30 33 O 6.1092 -0.755998 -1.5694 0
M  V30 34 C 3.2412 -1.57997 -3.02076 0
M  V30 35 H 4.4342 -2.58621 -1.51839 0
M  V30 36 H 1.9872 -1.36647 -0.758771 0
M  V30 37 H 2.7222 -0.624913 -3.18222 0
M  V30 38 H 2.5072 -2.39755 -3.10258 0
M  V30 39 H 3.9972 -1.70627 -3.81151 0
M  V30 40 N 4.4343 0.785586 -1.36625 0
M  V30 41 C 5.6623 1.57448 -1.3423 0
M  V30 42 C 6.0773 1.88649 0.0755653 0
M  V30 43 O 5.4343 1.50414 1.03354 0
M  V30 44 C 5.4853 2.89316 -2.16745 0
M  V30 45 O 5.2063 2.59459 -3.53005 0
M  V30 46 C 6.7073 3.83606 -2.22174 0
M  V30 47 H 3.9273 0.488226 -0.4603 0
M  V30 48 H 6.4713 0.974733 -1.79775 0
M  V30 49 H 4.6263 3.4575 -1.74745 0
M  V30 50 H 5.0403 3.43804 -3.96105 0
M  V30 51 H 6.5143 4.73181 -2.8426 0
M  V30 52 H 6.9913 4.21734 -1.22627 0
M  V30 53 H 7.5973 3.33104 -2.64427 0
M  V30 54 N 5.9124 1.20967 1.01018 0
M  V30 55 C 7.1894 0.93264 1.71934 0
M  V30 56 C 7.5694 -0.55692 2.03621 0
M  V30 57 O 6.9174 -1.52035 1.7058 0
M  V30 58 C 7.1274 1.81233 2.98254 0
M  V30 59 C 8.4754 2.05804 3.71389 0
M  V30 60 O 9.4994 1.78539 3.08225 0
M  V30 61 O 8.3584 2.51888 4.84989 0
M  V30 62 H 5.4524 0.349272 0.749625 0
M  V30 63 H 7.9984 1.31871 1.06808 0
M  V30 64 H 6.7704 2.82067 2.71208 0
M  V30 65 H 6.3934 1.42674 3.7112 0
M  V30 66 N 7.3905 -1.2043 1.01659 0
M  V30 67 C 8.8065 -1.41852 0.731442 0
M  V30 68 C 9.0065 -1.89358 -0.688898 0
M  V30 69 O 8.0625 -2.06247 -1.45666 0
M  V30 70 C 9.3755 -2.44019 1.75714 0
M  V30 71 C 10.9235 -2.57785 1.77527 0
M  V30 72 C 11.3985 -3.63194 2.79023 0
M  V30 73 N 12.8895 -3.70678 2.77763 0
M  V30 74 C 13.6245 -4.51897 3.52954 0
M  V30 75 N 13.1205 -5.36921 4.37821 0
M  V30 76 N 14.9135 -4.4643 3.41551 0
M  V30 77 H 7.0645 -0.879093 1.93354 0
M  V30 78 H 9.3275 -0.448425 0.835236 0
M  V30 79 H 9.0335 -2.1611 2.77469 0
M  V30 80 H 8.9075 -3.43007 1.56927 0
M  V30 81 H 11.2945 -2.85023 0.764569 0
M  V30 82 H 11.3755 -1.58992 2.00387 0
M  V30 83 H 11.0195 -3.36699 3.80258 0
M  V30 84 H 10.9495 -4.61609 2.53425 0
M  V30 85 H 13.4405 -3.09944 2.16201 0
M  V30 86 H 13.7535 -5.95981 4.91962 0
M  V30 87 H 12.0985 -5.36424 4.41899 0
M  V30 88 H 15.2895 -3.79042 2.74672 0
M  V30 89 H 15.4625 -5.09491 4.00404 0
M  V30 90 N 8.8686 -0.792821 -1.36206 0
M  V30 91 C 9.8016 -0.139422 -2.27774 0
M  V30 92 C 10.7796 0.68649 -1.47398 0
M  V30 93 O 11.9636 0.656738 -1.7669 0
M  V30 94 C 9.0906 0.807947 -3.28922 0
M  V30 95 C 8.1366 0.0633999 -4.26453 0
M  V30 96 S 8.9696 -1.26319 -5.20388 0
M  V30 97 C 10.1256 -0.31991 -6.25082 0
M  V30 98 H 10.3586 -0.915809 -2.82843 0
M  V30 99 H 7.8916 -0.587203 -1.42798 0
M  V30 100 H 9.8496 1.34908 -3.87699 0
M  V30 101 H 8.5106 1.55761 -2.72759 0
M  V30 102 H 7.7036 0.782386 -4.9789 0
M  V30 103 H 7.3056 -0.407352 -3.71775 0
M  V30 104 H 9.5976 0.499985 -6.75653 0
M  V30 105 H 10.5406 -1.00307 -7.00959 0
M  V30 106 H 10.9486 0.0782694 -5.64446 0
M  V30 107 N 10.3467 1.47872 -0.545128 0
M  V30 108 C 11.5947 2.02093 -0.016553 0
M  V30 109 C 11.9157 1.42305 1.3332 0
M  V30 110 O 11.1857 0.593853 1.86682 0
M  V30 111 H 9.7657 0.746993 -0.00313038 0
M  V30 112 H 12.4277 1.81414 -0.712397 0
M  V30 113 H 11.5237 3.11996 0.0805422 0
M  V30 114 N 11.8248 0.280983 1.55075 0
M  V30 115 C 13.2358 -0.215629 1.85451 0
M  V30 116 C 13.5868 -1.54991 1.203 0
M  V30 117 O 12.7118 -2.10699 0.493435 0
M  V30 118 C 13.3068 -0.398026 3.36454 0
M  V30 119 C 11.8658 -0.838866 3.66933 0
M  V30 120 C 11.0128 0.064458 2.77225 0
M  V30 121 H 13.9638 0.502601 1.50531 0
M  V30 122 H 13.9848 -1.23569 3.59876 0
M  V30 123 H 13.4968 0.573241 3.83843 0
M  V30 124 H 11.5978 -1.8214 3.25048 0
M  V30 125 H 11.7108 -0.672123 4.74362 0
M  V30 126 H 10.0748 -0.452863 2.50642 0
M  V30 127 H 10.8578 1.03172 3.2743 0
M  V30 128 N 13.3029 -1.57598 0.00835791 0
M  V30 129 C 14.7189 -1.55764 -0.347822 0
M  V30 130 C 14.9189 -1.01186 -1.74252 0
M  V30 131 O 13.9749 -0.649371 -2.44007 0
M  V30 132 C 15.2879 -2.99927 -0.215407 0
M  V30 133 C 16.8359 -3.11656 -0.289725 0
M  V30 134 C 17.3109 -4.57621 -0.18634 0
M  V30 135 N 18.8019 -4.62557 -0.243978 0
M  V30 136 C 19.5369 -5.73094 -0.18745 0
M  V30 137 N 19.0329 -6.92753 -0.0810331 0
M  V30 138 N 20.8259 -5.61588 -0.239925 0
M  V30 139 H 12.9769 -1.91411 0.92062 0
M  V30 140 H 15.2399 -0.879562 0.353659 0
M  V30 141 H 14.9459 -3.43729 0.744512 0
M  V30 142 H 14.8199 -3.63865 -0.994097 0
M  V30 143 H 17.2069 -2.67779 -1.24009 0
M  V30 144 H 17.2879 -2.5048 0.51898 0
M  V30 145 H 16.9319 -5.02174 0.760519 0
M  V30 146 H 16.8619 -5.16752 -1.01364 0
M  V30 147 H 19.3529 -3.76481 -0.327217 0
M  V30 148 H 19.6659 -7.72787 -0.0440241 0
M  V30 149 H 18.0109 -6.94984 -0.0465419 0
M  V30 150 H 21.2019 -4.66996 -0.321317 0
M  V30 151 H 21.3749 -6.47714 -0.192407 0
M  V30 152 N 14.781 0.264519 -1.55364 0
M  V30 153 C 15.744 1.31046 -1.88042 0
M  V30 154 C 16.744 1.41943 -0.755569 0
M  V30 155 O 17.934 1.40947 -1.02369 0
M  V30 156 C 15.066 2.69067 -2.09323 0
M  V30 157 H 16.259 1.03297 -2.81549 0
M  V30 158 H 13.812 0.502989 -1.47986 0
M  V30 159 H 14.547 3.01982 -1.18226 0
M  V30 160 H 14.332 2.62542 -2.91229 0
M  V30 161 H 15.822 3.44623 -2.35848 0
M  V30 162 N 16.2591 1.48442 0.529413 0
M  V30 163 C 17.5051 1.5672 1.28711 0
M  V30 164 C 17.8381 0.2406 1.92704 0
M  V30 165 O 17.1131 -0.753454 1.79313 0
M  V30 166 C 17.3961 2.70587 2.37603 0
M  V30 167 C 17.2491 4.12953 1.78297 0
M  V30 168 C 18.5681 2.80212 3.39366 0
M  V30 169 H 15.6871 0.570474 0.466613 0
M  V30 170 H 18.3291 1.80617 0.589706 0
M  V30 171 H 16.4791 2.50342 2.97088 0
M  V30 172 H 18.1511 4.44639 1.22858 0
M  V30 173 H 16.3941 4.19927 1.0883 0
M  V30 174 H 17.0651 4.88448 2.57144 0
M  V30 175 H 19.5411 2.98553 2.89836 0
M  V30 176 H 18.4171 3.61611 4.12951 0
M  V30 177 H 18.6781 1.88393 3.99951 0
M  V30 178 N 17.7372 -0.778329 1.37039 0
M  V30 179 C 19.1482 -1.35421 1.28523 0
M  V30 180 C 19.4992 -1.96075 -0.0700901 0
M  V30 181 O 18.6242 -1.93352 -0.971801 0
M  V30 182 C 19.2192 -2.46211 2.32735 0
M  V30 183 C 17.7782 -2.99585 2.27873 0
M  V30 184 C 16.9252 -1.72748 2.16918 0
M  V30 185 H 19.8762 -0.5791 1.47757 0
M  V30 186 H 19.8972 -3.2552 1.9702 0
M  V30 187 H 19.4092 -2.02036 3.31365 0
M  V30 188 H 17.5102 -3.48152 1.32745 0
M  V30 189 H 17.6232 -3.55646 3.21018 0
M  V30 190 H 15.9872 -1.95416 1.63354 0
M  V30 191 H 16.7702 -1.30686 3.17452 0
M  V30 192 N 19.2153 -1.21501 -1.00376 0
M  V30 193 C 20.4633 -1.03095 -1.73827 0
M  V30 194 C 20.7843 0.436341 -1.90055 0
M  V30 195 O 20.0543 1.31466 -1.45236 0
M  V30 196 H 18.6343 -0.378487 -0.644016 0
M  V30 197 H 21.2963 -1.52831 -1.20949 0
M  V30 198 H 20.3923 -1.49991 -2.73695 0
M  V30 199 N 20.6934 1.19889 -1.02296 0
M  V30 200 C 21.6234 2.25141 -0.619174 0
M  V30 201 C 22.6044 1.66051 0.368915 0
M  V30 202 O 23.7894 1.92546 0.252941 0
M  V30 203 C 20.9194 3.4728 0.0368783 0
M  V30 204 C 19.8734 4.19005 -0.872865 0
M  V30 205 C 19.1994 5.34637 -0.0822402 0
M  V30 206 C 20.4994 4.74452 -2.18387 0
M  V30 207 H 22.1934 2.59171 -1.49903 0
M  V30 208 H 19.7394 1.24579 -0.722222 0
M  V30 209 H 21.6924 4.20098 0.330958 0
M  V30 210 H 20.4164 3.12433 0.95149 0
M  V30 211 H 19.0754 3.48061 -1.15105 0
M  V30 212 H 18.7234 4.96034 0.83422 0
M  V30 213 H 18.4234 5.83557 -0.688149 0
M  V30 214 H 19.9474 6.10255 0.205238 0
M  V30 215 H 21.3614 5.39055 -1.95172 0
M  V30 216 H 19.7584 5.33834 -2.74119 0
M  V30 217 H 20.8284 3.92844 -2.84257 0
M  V30 218 N 22.1715 0.800033 1.35784 0
M  V30 219 C 23.5875 0.482977 1.52117 0
M  V30 220 C 23.7875 -0.996948 1.75109 0
M  V30 221 O 22.8435 -1.78216 1.78872 0
M  V30 222 C 24.1565 1.32264 2.70049 0
M  V30 223 C 25.7045 1.31742 2.83924 0
M  V30 224 C 26.1795 2.14106 4.04874 0
M  V30 225 N 27.6705 2.11607 4.12039 0
M  V30 226 C 28.4055 2.72099 5.04727 0
M  V30 227 N 27.9015 3.41492 6.02789 0
M  V30 228 N 29.6945 2.61776 4.97423 0
M  V30 229 H 21.8455 1.75856 1.19115 0
M  V30 230 H 24.1085 0.748122 0.582252 0
M  V30 231 H 23.8145 2.37261 2.59616 0
M  V30 232 H 23.6885 0.971303 3.6448 0
M  V30 233 H 26.0755 0.275333 2.93813 0
M  V30 234 H 26.1565 1.70859 1.9037 0
M  V30 235 H 25.8005 3.18351 3.95746 0
M  V30 236 H 25.7305 1.72353 4.97596 0
M  V30 237 H 28.2215 1.61112 3.41835 0
M  V30 238 H 28.5345 3.84953 6.70098 0
M  V30 239 H 26.8795 3.45596 6.02983 0
M  V30 240 H 30.0705 2.07157 4.19766 0
M  V30 241 H 30.2435 3.0921 5.69468 0
M  V30 242 N 23.6496 -1.47581 0.552962 0
M  V30 243 C 24.5796 -2.32762 -0.185451 0
M  V30 244 C 25.5606 -1.43527 -0.912905 0
M  V30 245 O 26.7456 -1.72388 -0.894201 0
M  V30 246 C 23.8756 -3.25219 -1.21859 0
M  V30 247 C 22.8296 -4.23661 -0.607864 0
M  V30 248 C 22.1556 -5.05413 -1.74533 0
M  V30 249 C 23.4556 -5.20481 0.435582 0
M  V30 250 H 25.1496 -2.94749 0.525684 0
M  V30 251 H 22.6956 -1.41738 0.254251 0
M  V30 252 H 24.6486 -3.8365 -1.7433 0
M  V30 253 H 23.3726 -2.61279 -1.95961 0
M  V30 254 H 22.0316 -3.66451 -0.104489 0
M  V30 255 H 21.6796 -4.3788 -2.47529 0
M  V30 256 H 21.3796 -5.72059 -1.34249 0
M  V30 257 H 22.9036 -5.66701 -2.27338 0
M  V30 258 H 24.3176 -5.733 -0.00290157 0
M  V30 259 H 22.7146 -5.95305 0.757067 0
M  V30 260 H 23.7846 -4.66217 1.33303 0
M  V30 261 N 25.1277 -0.289203 -1.54924 0
M  V30 262 C 26.0907 0.579144 -2.21762 0
M  V30 263 C 27.0907 1.07047 -1.1999 0
M  V30 264 O 28.2807 0.968384 -1.44803 0
M  V30 265 C 25.4127 1.80055 -2.8947 0
M  V30 266 H 26.6057 -0.00464908 -2.999 0
M  V30 267 H 24.1587 -0.0399306 -1.56249 0
M  V30 268 H 24.8937 2.42449 -2.15381 0
M  V30 269 H 24.6787 1.45602 -3.64064 0
M  V30 270 H 26.1687 2.41773 -3.40493 0
M  V30 271 N 26.6058 1.57591 -0.0167156 0
M  V30 272 C 27.5358 2.12496 0.967858 0
M  V30 273 C 28.5168 1.03807 1.34752 0
M  V30 274 O 29.7018 1.31577 1.42833 0
M  V30 275 C 26.8318 2.64194 2.25431 0
M  V30 276 C 25.7858 3.77559 2.01576 0
M  V30 277 C 25.1118 4.15636 3.36379 0
M  V30 278 C 26.4118 5.04151 1.36489 0
M  V30 279 H 28.1058 2.95013 0.510643 0
M  V30 280 H 25.6518 1.41915 0.244181 0
M  V30 281 H 27.6048 3.01236 2.94678 0
M  V30 282 H 26.3288 1.78821 2.73296 0
M  V30 283 H 24.9878 3.40937 1.34751 0
M  V30 284 H 24.6358 3.27263 3.81979 0
M  V30 285 H 24.3358 4.92022 3.21229 0
M  V30 286 H 25.8598 4.5525 4.06915 0
M  V30 287 H 27.2738 5.38857 1.95718 0
M  V30 288 H 25.6708 5.85453 1.31776 0
M  V30 289 H 26.7408 4.83733 0.336219 0
M  V30 290 N 28.0839 -0.256276 1.55502 0
M  V30 291 C 29.0139 -1.32102 1.92539 0
M  V30 292 C 29.9949 -1.50684 0.789194 0
M  V30 293 O 31.1799 -1.63449 1.04872 0
M  V30 294 C 28.3099 -2.67752 2.21192 0
M  V30 295 C 27.2639 -2.63878 3.36975 0
M  V30 296 C 26.5899 -4.03236 3.51147 0
M  V30 297 C 27.8899 -2.21682 4.72921 0
M  V30 298 H 29.5839 -1.01351 2.81724 0
M  V30 299 H 27.1299 -0.486105 1.35547 0
M  V30 300 H 29.0829 -3.42365 2.45691 0
M  V30 301 H 27.8069 -3.0012 1.28824 0
M  V30 302 H 26.4659 -1.91722 3.12471 0
M  V30 303 H 26.1139 -4.32854 2.56216 0
M  V30 304 H 25.8139 -4.01535 4.29003 0
M  V30 305 H 27.3379 -4.79563 3.77957 0
M  V30 306 H 28.7519 -2.86023 4.96854 0
M  V30 307 H 27.1489 -2.3111 5.53812 0
M  V30 308 H 28.2189 -1.16833 4.70615 0
M  V30 309 N 29.562 -1.4872 -0.521534 0
M  V30 310 C 30.492 -1.66771 -1.63431 0
M  V30 311 C 31.473 -0.516499 -1.62069 0
M  V30 312 O 32.658 -0.750013 -1.79132 0
M  V30 313 C 29.788 -1.71515 -3.01993 0
M  V30 314 C 28.742 -2.86222 -3.18216 0
M  V30 315 C 28.068 -2.76061 -4.57924 0
M  V30 316 C 29.368 -4.27419 -3.00184 0
M  V30 317 H 31.062 -2.59932 -1.48579 0
M  V30 318 H 28.608 -1.25089 -0.713358 0
M  V30 319 H 30.561 -1.82731 -3.7972 0
M  V30 320 H 29.285 -0.749393 -3.17886 0
M  V30 321 H 27.944 -2.74575 -2.42908 0
M  V30 322 H 27.592 -1.77437 -4.70665 0
M  V30 323 H 27.292 -3.53037 -4.69722 0
M  V30 324 H 28.816 -2.89256 -5.37739 0
M  V30 325 H 30.23 -4.39855 -3.67697 0
M  V30 326 H 28.627 -5.05458 -3.2347 0
M  V30 327 H 29.697 -4.43293 -1.96518 0
M  V30 328 N 31.0401 0.771051 -1.3745 0
M  V30 329 C 31.9701 1.89827 -1.3597 0
M  V30 330 C 32.9511 1.68562 -0.228216 0
M  V30 331 O 34.1361 1.8941 -0.428675 0
M  V30 332 C 31.2661 3.2712 -1.16662 0
M  V30 333 C 30.2201 3.6295 -2.2683 0
M  V30 334 C 29.5461 4.98791 -1.92644 0
M  V30 335 C 30.8461 3.69627 -3.69017 0
M  V30 336 H 32.5401 1.91323 -2.30295 0
M  V30 337 H 30.0861 0.919082 -1.10855 0
M  V30 338 H 32.0391 4.05615 -1.14256 0
M  V30 339 H 30.7631 3.26059 -0.187926 0
M  V30 340 H 29.4221 2.86763 -2.28392 0
M  V30 341 H 29.0701 4.94271 -0.933021 0
M  V30 342 H 28.7701 5.23733 -2.66416 0
M  V30 343 H 30.2941 5.79685 -1.91826 0
M  V30 344 H 31.7081 4.38273 -3.69581 0
M  V30 345 H 30.1051 4.06067 -4.41848 0
M  V30 346 H 31.1751 2.70273 -4.02592 0
M  V30 347 N 32.5182 1.22032 0.997298 0
M  V30 348 C 33.4482 1.01065 2.10495 0
M  V30 349 C 34.4292 -0.0669542 1.69968 0
M  V30 350 O 35.6142 0.0943987 1.9397 0
M  V30 351 C 32.7442 0.582874 3.42374 0
M  V30 352 C 31.6982 1.60592 3.96729 0
M  V30 353 C 31.0242 1.03412 5.24605 0
M  V30 354 C 32.3242 2.99478 4.27914 0
M  V30 355 H 34.0182 1.93708 2.28292 0
M  V30 356 H 31.5642 0.932761 1.09707 0
M  V30 357 H 33.5172 0.423332 4.19268 0
M  V30 358 H 32.2412 -0.379213 3.24391 0
M  V30 359 H 30.9002 1.75316 3.21963 0
M  V30 360 H 30.5482 0.063518 5.0296 0
M  V30 361 H 30.2482 1.71754 5.61938 0
M  V30 362 H 31.7722 0.886066 6.04137 0
M  V30 363 H 33.1862 2.88153 4.95622 0
M  V30 364 H 31.5832 3.64903 4.76409 0
M  V30 365 H 32.6532 3.49742 3.3587 0
M  V30 366 N 33.9963 -1.19345 1.0293 0
M  V30 367 C 35.2423 -1.89318 0.727083 0
M  V30 368 C 35.5753 -1.79446 -0.742483 0
M  V30 369 O 34.8503 -1.1871 -1.54072 0
M  V30 370 C 35.1333 -3.40238 1.17942 0
M  V30 371 C 34.9863 -3.58979 2.71024 0
M  V30 372 C 36.3053 -4.33479 0.760548 0
M  V30 373 H 33.4243 -0.687475 0.265606 0
M  V30 374 H 36.0663 -1.40477 1.2793 0
M  V30 375 H 34.2163 -3.81964 0.709608 0
M  V30 376 H 35.8883 -3.26421 3.25955 0
M  V30 377 H 34.1313 -3.02018 3.11396 0
M  V30 378 H 34.8023 -4.64823 2.9773 0
M  V30 379 H 37.2783 -3.99469 1.16464 0
M  V30 380 H 36.1543 -5.37664 1.10493 0
M  V30 381 H 36.4153 -4.40813 -0.337063 0
M  V30 382 N 35.4744 -0.807222 -1.35358 0
M  V30 383 C 36.4044 -0.232509 -2.3234 0
M  V30 384 C 37.3854 0.642386 -1.57504 0
M  V30 385 O 38.5704 0.572526 -1.85569 0
M  V30 386 C 35.7004 0.619238 -3.41735 0
M  V30 387 C 34.6544 -0.157215 -4.27711 0
M  V30 388 C 33.9804 0.816273 -5.28433 0
M  V30 389 C 35.2804 -1.35656 -5.04376 0
M  V30 390 H 36.9744 -1.04276 -2.80654 0
M  V30 391 H 34.5204 -0.50288 -1.34934 0
M  V30 392 H 36.4734 1.03137 -4.08584 0
M  V30 393 H 35.1974 1.46239 -2.92031 0
M  V30 394 H 33.8564 -0.550525 -3.62443 0
M  V30 395 H 33.5044 1.65494 -4.74996 0
M  V30 396 H 33.2044 0.301067 -5.86828 0
M  V30 397 H 34.7284 1.22659 -5.98153 0
M  V30 398 H 36.1424 -1.01927 -5.64166 0
M  V30 399 H 34.5394 -1.8063 -5.7227 0
M  V30 400 H 35.6094 -2.14288 -4.34981 0
M  V30 401 N 36.9525 1.47285 -0.560781 0
M  V30 402 C 38.2005 2.02064 -0.0379868 0
M  V30 403 C 38.5215 1.43711 1.31803 0
M  V30 404 O 37.7915 0.61362 1.86042 0
M  V30 405 H 36.3715 0.746918 -0.0110531 0
M  V30 406 H 39.0335 1.80648 -0.731598 0
M  V30 407 H 38.1295 3.12064 0.0474463 0
M  V30 408 N 38.4306 0.297415 1.54768 0
M  V30 409 C 39.6586 -0.315623 2.04478 0
M  V30 410 C 40.0736 -1.47792 1.17486 0
M  V30 411 O 39.4306 -1.81404 0.19971 0
M  V30 412 C 39.4816 -0.7753 3.53088 0
M  V30 413 O 39.2026 0.340732 4.36773 0
M  V30 414 C 40.7036 -1.45386 4.18781 0
M  V30 415 H 37.9236 -0.0690887 0.667434 0
M  V30 416 H 40.4676 0.436003 1.99798 0
M  V30 417 H 38.6226 -1.47696 3.58141 0
M  V30 418 H 39.0366 -0.0165035 5.24497 0
M  V30 419 H 40.5106 -1.72669 5.24299 0
M  V30 420 H 40.9876 -2.39275 3.68299 0
M  V30 421 H 41.5936 -0.795475 4.17795 0
M  V30 422 N 39.9087 -1.5758 0.0250728 0
M  V30 423 C 41.3197 -1.79476 -0.514323 0
M  V30 424 C 41.6707 -0.934956 -1.72491 0
M  V30 425 O 40.7957 -0.144245 -2.15919 0
M  V30 426 C 41.3907 -3.25503 -0.939842 0
M  V30 427 C 39.9497 -3.48408 -1.42438 0
M  V30 428 C 39.0967 -2.74583 -0.387201 0
M  V30 429 H 42.0477 -1.567 0.25113 0
M  V30 430 H 42.0687 -3.34992 -1.80445 0
M  V30 431 H 41.5807 -3.88056 -0.0585628 0
M  V30 432 H 39.6817 -2.91103 -2.32572 0
M  V30 433 H 39.7947 -4.57119 -1.43455 0
M  V30 434 H 38.1587 -2.39942 -0.854409 0
M  V30 435 H 38.9417 -3.39849 0.485543 0
M  V30 436 N 41.3868 0.248026 -1.55636 0
M  V30 437 C 42.3338 1.30707 -1.90222 0
M  V30 438 C 43.3038 1.47881 -0.756332 0
M  V30 439 O 44.4888 1.61883 -1.00988 0
M  V30 440 C 41.6288 2.65769 -2.20138 0
M  V30 441 C 40.7418 2.56612 -3.47526 0
M  V30 442 C 39.8768 3.8402 -3.67017 0
M  V30 443 C 38.9158 3.69476 -4.8801 0
M  V30 444 N 38.0528 4.88774 -5.04029 0
M  V30 445 H 42.8928 1.00512 -2.80538 0
M  V30 446 H 40.4298 0.485055 -1.38873 0
M  V30 447 H 42.3878 3.44386 -2.35487 0
M  V30 448 H 41.0178 2.94115 -1.33027 0
M  V30 449 H 40.0698 1.69571 -3.40514 0
M  V30 450 H 41.3818 2.41774 -4.36287 0
M  V30 451 H 40.5358 4.7108 -3.8232 0
M  V30 452 H 39.2748 4.01754 -2.76487 0
M  V30 453 H 38.2798 2.80799 -4.72686 0
M  V30 454 H 39.5048 3.53238 -5.8 0
M  V30 455 H 37.4508 5.0687 -4.16435 0
M  V30 456 H 37.3678 4.76562 -5.86877 0
M  V30 457 H 38.6358 5.77335 -5.23741 0
M  V30 458 N 42.8649 1.48995 0.513639 0
M  V30 459 C 44.0899 1.61792 1.29762 0
M  V30 460 C 44.5149 0.284475 1.85936 0
M  V30 461 O 43.8729 -0.746185 1.65232 0
M  V30 462 C 43.9209 2.67993 2.41272 0
M  V30 463 O 43.0249 2.26287 3.44772 0
M  V30 464 H 42.3659 0.541963 0.38363 0
M  V30 465 H 44.8959 1.95097 0.616307 0
M  V30 466 H 44.9059 2.89772 2.87221 0
M  V30 467 H 43.5809 3.64791 1.9975 0
M  V30 468 H 42.1579 2.14788 3.04829 0
M  V30 469 N 44.343 -0.763751 1.37857 0
M  V30 470 C 45.591 -1.51957 1.33243 0
M  V30 471 C 45.912 -1.94835 -0.0801709 0
M  V30 472 O 45.182 -1.66894 -1.02582 0
M  V30 473 H 43.762 -0.563626 0.49024 0
M  V30 474 H 46.424 -0.908504 1.7243 0
M  V30 475 H 45.52 -2.41523 1.97669 0
M  V30 476 N 45.8211 -1.22559 -0.990812 0
M  V30 477 C 47.0671 -1.05297 -1.73322 0
M  V30 478 C 47.4001 0.410655 -1.89808 0
M  V30 479 O 46.6751 1.30439 -1.44277 0
M  V30 480 C 46.9581 -1.76713 -3.13759 0
M  V30 481 C 46.8111 -3.30684 -3.04907 0
M  V30 482 C 48.1301 -1.52121 -4.12974 0
M  V30 483 H 45.2491 -0.38392 -0.629106 0
M  V30 484 H 47.8911 -1.50926 -1.15418 0
M  V30 485 H 46.0411 -1.37924 -3.63193 0
M  V30 486 H 47.7131 -3.7893 -2.63077 0
M  V30 487 H 45.9561 -3.60253 -2.41661 0
M  V30 488 H 46.6271 -3.75833 -4.04294 0
M  V30 489 H 49.1031 -1.85819 -3.72304 0
M  V30 490 H 47.9791 -2.04582 -5.0935 0
M  V30 491 H 48.2401 -0.454257 -4.3976 0
M  V30 492 N 47.2992 1.18797 -1.03562 0
M  V30 493 C 48.2312 2.21731 -0.580337 0
M  V30 494 C 49.2442 1.59051 0.347349 0
M  V30 495 O 50.4332 1.77929 0.142669 0
M  V30 496 C 47.5332 3.38459 0.172805 0
M  V30 497 C 46.7062 4.3072 -0.761496 0
M  V30 498 C 45.7652 5.26174 -0.0525547 0
M  V30 499 O 44.7912 5.65108 -0.681333 0
M  V30 500 N 45.9932 5.67624 1.21586 0
M  V30 501 H 48.7582 2.61417 -1.46565 0
M  V30 502 H 46.3192 1.33531 -0.915476 0
M  V30 503 H 48.3112 3.99335 0.656793 0
M  V30 504 H 46.8812 2.97507 0.959602 0
M  V30 505 H 46.1012 3.67525 -1.42544 0
M  V30 506 H 47.3892 4.89267 -1.39626 0
M  V30 507 H 46.7872 5.38038 1.74732 0
M  V30 508 H 45.3442 6.30721 1.64421 0
M  V30 509 N 48.7773 0.814389 1.34928 0
M  V30 510 C 50.0253 0.397636 1.9815 0
M  V30 511 C 50.3463 -1.04069 1.64908 0
M  V30 512 O 49.6163 -1.72121 0.93548 0
M  V30 513 H 48.1963 0.144043 0.732981 0
M  V30 514 H 50.8583 1.04195 1.6471 0
M  V30 515 H 49.9543 0.509688 3.0791 0
M  V30 516 N 50.2554 -1.46986 0.568584 0
M  V30 517 C 51.1874 -2.28233 -0.210337 0
M  V30 518 C 52.2004 -1.37682 -0.868767 0
M  V30 519 O 53.3894 -1.62406 -0.740705 0
M  V30 520 C 50.4894 -3.12293 -1.3163 0
M  V30 521 C 49.6624 -4.30878 -0.7525 0
M  V30 522 C 48.7214 -4.96445 -1.74439 0
M  V30 523 O 47.7474 -5.54482 -1.286 0
M  V30 524 N 48.9494 -4.92171 -3.07812 0
M  V30 525 H 51.7144 -2.95723 0.486648 0
M  V30 526 H 49.2754 -1.56742 0.405409 0
M  V30 527 H 51.2674 -3.53022 -1.97883 0
M  V30 528 H 49.8374 -2.46971 -1.91636 0
M  V30 529 H 49.0574 -3.94104 0.0871128 0
M  V30 530 H 50.3454 -5.07558 -0.35536 0
M  V30 531 H 49.7434 -4.46239 -3.47688 0
M  V30 532 H 48.3004 -5.36884 -3.69592 0
M  V30 533 N 51.7335 -0.305618 -1.54608 0
M  V30 534 C 52.6435 0.57778 -2.27374 0
M  V30 535 C 53.6595 1.14451 -1.31061 0
M  V30 536 O 54.8355 1.16831 -1.6405 0
M  V30 537 C 51.9005 1.73123 -3.00382 0
M  V30 538 C 50.9615 1.19812 -4.12242 0
M  V30 539 C 50.1945 2.2966 -4.81759 0
M  V30 540 O 50.4175 3.49651 -4.50666 0
M  V30 541 O 49.3515 1.96091 -5.69062 0
M  V30 542 H 53.1775 -0.012624 -3.03697 0
M  V30 543 H 50.7625 -0.0719184 -1.49227 0
M  V30 544 H 52.6445 2.40315 -3.4616 0
M  V30 545 H 51.3195 2.30815 -2.26949 0
M  V30 546 H 50.2265 0.491798 -3.70853 0
M  V30 547 H 51.5595 0.666566 -4.87666 0
M  V30 548 N 53.2116 1.57565 -0.0334293 0
M  V30 549 C 54.4596 1.91598 0.642999 0
M  V30 550 C 54.7806 0.910847 1.7242 0
M  V30 551 O 54.0506 -0.0469931 1.95844 0
M  V30 552 H 52.6306 0.707228 0.240496 0
M  V30 553 H 55.2926 1.94726 -0.0822488 0
M  V30 554 H 54.3886 2.92336 1.09298 0
M  V30 555 N 54.6897 -0.239769 1.55765 0
M  V30 556 C 55.6197 -1.30052 1.9393 0
M  V30 557 C 56.6007 -1.49839 0.805132 0
M  V30 558 O 57.7857 -1.62328 1.06599 0
M  V30 559 C 54.9157 -2.65391 2.2402 0
M  V30 560 C 53.8697 -2.60289 3.39755 0
M  V30 561 C 53.1957 -3.99489 3.55405 0
M  V30 562 C 54.4957 -2.16654 4.75246 0
M  V30 563 H 56.1897 -0.983573 2.82783 0
M  V30 564 H 53.7357 -0.471701 1.36055 0
M  V30 565 H 55.6887 -3.3974 2.49308 0
M  V30 566 H 54.4127 -2.98736 1.32 0
M  V30 567 H 53.0717 -1.88398 3.14487 0
M  V30 568 H 52.7197 -4.30112 2.60793 0
M  V30 569 H 52.4197 -3.96962 4.33238 0
M  V30 570 H 53.9437 -4.75528 3.83022 0
M  V30 571 H 55.3577 -2.80737 4.99859 0
M  V30 572 H 53.7547 -2.25223 5.56232 0
M  V30 573 H 54.8247 -1.11835 4.71827 0
M  V30 574 N 56.1678 -1.49265 -0.50573 0
M  V30 575 C 57.4448 -1.49012 -1.26707 0
M  V30 576 C 57.8248 -0.215205 -2.1 0
M  V30 577 O 57.1728 0.802547 -2.13943 0
M  V30 578 C 57.3828 -2.7663 -2.12783 0
M  V30 579 C 58.7308 -3.25932 -2.72127 0
M  V30 580 O 59.7548 -2.77715 -2.23054 0
M  V30 581 O 58.6138 -4.09897 -3.61451 0
M  V30 582 H 55.7078 -0.596197 -0.57313 0
M  V30 583 H 58.2538 -1.61524 -0.52039 0
M  V30 584 H 57.0258 -3.60916 -1.5118 0
M  V30 585 H 56.6488 -2.66956 -2.94653 0
M  V30 586 N 57.6459 0.756429 -1.3826 0
M  V30 587 C 58.8929 1.51547 -1.34312 0
M  V30 588 C 59.2209 1.94382 0.0677144 0
M  V30 589 O 58.4759 1.65514 1.04421 0
M  V30 590 C 58.7749 2.78313 -2.24224 0
M  V30 591 C 58.4409 2.54455 -3.72241 0
M  V30 592 C 57.1029 2.47657 -4.12576 0
M  V30 593 C 59.4549 2.3354 -4.65949 0
M  V30 594 C 56.7829 2.17956 -5.44713 0
M  V30 595 C 59.1349 2.05359 -5.9834 0
M  V30 596 C 57.7989 1.97016 -6.37762 0
M  V30 597 H 57.0689 0.55455 -0.491482 0
M  V30 598 H 59.7159 0.870039 -1.70595 0
M  V30 599 H 58.0209 3.47492 -1.80987 0
M  V30 600 H 59.7179 3.36259 -2.18474 0
M  V30 601 H 56.3079 2.60616 -3.40261 0
M  V30 602 H 60.4919 2.37772 -4.35635 0
M  V30 603 H 55.7479 2.10003 -5.74203 0
M  V30 604 H 59.9219 1.88179 -6.70494 0
M  V30 605 H 57.5489 1.73766 -7.40074 0
M  V30 606 N 59.124 1.23083 0.984299 0
M  V30 607 C 60.535 1.05609 1.5396 0
M  V30 608 C 60.886 -0.377793 1.92528 0
M  V30 609 O 60.011 -1.26398 1.75649 0
M  V30 610 C 60.606 1.91087 2.7977 0
M  V30 611 C 59.165 1.77885 3.31713 0
M  V30 612 C 58.312 1.87028 2.04733 0
M  V30 613 H 61.263 1.36802 0.804419 0
M  V30 614 H 61.284 1.43336 3.5247 0
M  V30 615 H 60.796 2.9544 2.51668 0
M  V30 616 H 58.897 0.762995 3.64704 0
M  V30 617 H 59.01 2.61047 4.01735 0
M  V30 618 H 57.374 1.30565 2.18689 0
M  V30 619 H 58.157 2.92929 1.79017 0
M  V30 620 N 60.6021 -1.18246 1.0419 0
M  V30 621 C 61.5121 -2.25574 0.644476 0
M  V30 622 C 62.5281 -1.70845 -0.329826 0
M  V30 623 O 63.7041 -2.00554 -0.184443 0
M  V30 624 C 60.7691 -3.46697 0.014877 0
M  V30 625 C 59.8301 -4.16554 1.03834 0
M  V30 626 C 59.0631 -5.31894 0.438692 0
M  V30 627 O 59.2861 -5.65385 -0.754752 0
M  V30 628 O 58.2201 -5.90459 1.168 0
M  V30 629 H 62.0461 -2.61836 1.53869 0
M  V30 630 H 59.6311 -1.25352 0.812854 0
M  V30 631 H 61.5131 -4.20062 -0.335538 0
M  V30 632 H 60.1881 -3.12255 -0.853138 0
M  V30 633 H 59.0951 -3.45251 1.44057 0
M  V30 634 H 60.4281 -4.54998 1.87716 0
M  V30 635 N 62.0802 -0.821533 -1.34494 0
M  V30 636 C 63.3102 -0.421272 -2.02259 0
M  V30 637 C 63.7182 0.977047 -1.6202 0
M  V30 638 O 63.0612 1.64348 -0.820703 0
M  V30 639 C 63.1232 -0.44231 -3.56769 0
M  V30 640 C 62.7872 -1.79372 -4.20327 0
M  V30 641 C 63.7842 -2.75435 -4.40944 0
M  V30 642 C 61.4692 -2.08182 -4.57127 0
M  V30 643 C 63.4632 -3.98482 -4.97484 0
M  V30 644 C 61.1502 -3.31489 -5.13379 0
M  V30 645 C 62.1482 -4.26457 -5.33501 0
M  V30 646 O 61.8362 -5.47585 -5.88562 0
M  V30 647 H 61.5682 -0.167473 -0.654927 0
M  V30 648 H 64.1222 -1.11073 -1.72777 0
M  V30 649 H 62.3522 0.303836 -3.85505 0
M  V30 650 H 64.0412 -0.0622925 -4.05852 0
M  V30 651 H 64.8072 -2.54473 -4.12878 0
M  V30 652 H 60.6862 -1.35066 -4.4077 0
M  V30 653 H 64.2302 -4.72618 -5.13106 0
M  V30 654 H 60.1272 -3.52316 -5.40873 0
M  V30 655 H 60.8952 -5.49086 -6.06998 0
M  V30 656 N 63.5583 1.46682 -0.576371 0
M  V30 657 C 64.8353 1.95599 0.00703437 0
M  V30 658 C 65.2153 1.51904 1.46589 0
M  V30 659 O 64.5633 0.766755 2.15251 0
M  V30 660 C 64.7733 3.4864 -0.158404 0
M  V30 661 C 66.1213 4.24594 -0.0229439 0
M  V30 662 O 67.1453 3.56094 -0.0869173 0
M  V30 663 O 66.0043 5.46373 0.118015 0
M  V30 664 H 63.0983 0.825275 0.053384 0
M  V30 665 H 65.6443 1.56996 -0.644244 0
M  V30 666 H 64.4163 3.7331 -1.17282 0
M  V30 667 H 64.0393 3.94057 0.5296 0
M  V30 668 N 65.0364 0.313813 1.54444 0
M  V30 669 C 66.2844 -0.291099 1.99993 0
M  V30 670 C 66.6054 -1.53418 1.20366 0
M  V30 671 O 65.8754 -1.93544 0.302927 0
M  V30 672 H 64.4554 -0.110552 0.738774 0
M  V30 673 H 67.1174 0.428106 1.9014 0
M  V30 674 H 66.2134 -0.554268 3.07139 0
M  V30 675 N 66.5145 -1.57545 0.0417849 0
M  V30 676 C 67.7605 -1.92601 -0.635021 0
M  V30 677 C 68.0935 -0.919627 -1.71045 0
M  V30 678 O 67.3685 0.0557892 -1.9442 0
M  V30 679 C 67.6515 -3.38085 -1.23979 0
M  V30 680 C 67.5045 -4.49467 -0.173057 0
M  V30 681 C 68.8235 -3.83776 -2.15416 0
M  V30 682 H 65.9425 -0.700397 -0.229374 0
M  V30 683 H 68.5845 -1.89728 0.101633 0
M  V30 684 H 66.7345 -3.40664 -1.86762 0
M  V30 685 H 68.4065 -4.59018 0.458312 0
M  V30 686 H 66.6495 -4.30909 0.499996 0
M  V30 687 H 67.3205 -5.48323 -0.636054 0
M  V30 688 H 69.7965 -3.83013 -1.62605 0
M  V30 689 H 68.6725 -4.8624 -2.54679 0
M  V30 690 H 68.9335 -3.19998 -3.05047 0
M  V30 691 N 67.9926 0.231505 -1.5589 0
M  V30 692 C 69.2696 0.981096 -1.69215 0
M  V30 693 C 69.6496 2.02799 -0.586164 0
M  V30 694 O 68.9976 2.24823 0.408253 0
M  V30 695 C 69.2076 1.60054 -3.10135 0
M  V30 696 C 70.5556 2.09658 -3.69227 0
M  V30 697 O 71.5796 1.69967 -3.13033 0
M  V30 698 O 70.4386 2.8258 -4.67772 0
M  V30 699 H 67.5326 0.457653 -0.688827 0
M  V30 700 H 70.0786 0.224073 -1.68214 0
M  V30 701 H 68.8506 0.844105 -3.82087 0
M  V30 702 H 68.4736 2.42336 -3.15212 0
M  V30 703 N 69.4707 1.49531 0.497807 0
M  V30 704 C 70.8867 1.36365 0.829266 0
M  V30 705 C 71.0867 0.399184 1.97506 0
M  V30 706 O 70.1427 -0.167977 2.51941 0
M  V30 707 C 71.4557 2.77153 1.16647 0
M  V30 708 C 73.0037 2.85877 1.27449 0
M  V30 709 C 73.4787 4.2744 1.64497 0
M  V30 710 N 74.9697 4.30265 1.7154 0
M  V30 711 C 75.7047 5.3677 2.01656 0
M  V30 712 N 75.2007 6.53516 2.29976 0
M  V30 713 N 76.9937 5.24189 2.02934 0
M  V30 714 H 69.1447 2.10831 -0.257703 0
M  V30 715 H 71.4077 0.946534 -0.0527091 0
M  V30 716 H 71.1137 3.49442 0.397872 0
M  V30 717 H 70.9877 3.12722 2.10915 0
M  V30 718 H 73.3747 2.13824 2.0338 0
M  V30 719 H 73.4557 2.53887 0.312244 0
M  V30 720 H 73.0997 5.00021 0.891151 0
M  V30 721 H 73.0297 4.56896 2.61827 0
M  V30 722 H 75.5207 3.4607 1.51802 0
M  V30 723 H 75.8337 7.30506 2.52153 0
M  V30 724 H 74.1787 6.56737 2.27425 0
M  V30 725 H 77.3697 4.31988 1.80289 0
M  V30 726 H 77.5427 6.07286 2.26071 0
M  V30 727 N 70.9488 -0.749086 1.3866 0
M  V30 728 C 72.1948 -1.51056 1.35314 0
M  V30 729 C 72.5278 -1.94121 -0.0553751 0
M  V30 730 O 71.8028 -1.65763 -1.01749 0
M  V30 731 C 72.0858 -2.76003 2.31288 0
M  V30 732 C 71.9388 -2.39047 3.8102 0
M  V30 733 C 73.2578 -3.78046 2.2532 0
M  V30 734 H 70.3768 -0.547972 0.492844 0
M  V30 735 H 73.0188 -0.857628 1.69543 0
M  V30 736 H 71.1688 -3.31716 2.02229 0
M  V30 737 H 72.8408 -1.89074 4.20771 0
M  V30 738 H 71.0838 -1.71449 3.98482 0
M  V30 739 H 71.7548 -3.28462 4.4364 0
M  V30 740 H 74.2308 -3.31884 2.50983 0
M  V30 741 H 73.1068 -4.63159 2.94576 0
M  V30 742 H 73.3678 -4.23957 1.25352 0
M  V30 743 N 72.4269 -1.23603 -0.977757 0
M  V30 744 C 73.6759 -1.06377 -1.71368 0
M  V30 745 C 73.9889 0.399062 -1.91486 0
M  V30 746 O 75.1949 0.691312 -2.62551 0
M  V30 747 C 73.6509 -1.85512 -3.08404 0
M  V30 748 C 73.2589 -3.36141 -2.96164 0
M  V30 749 C 75.0029 -1.76783 -3.85938 0
M  V30 750 C 72.9099 -4.07659 -4.28449 0
M  V30 751 H 71.8399 -0.394452 -0.642591 0
M  V30 752 H 74.4909 -1.47594 -1.09034 0
M  V30 753 H 72.8729 -1.37103 -3.71509 0
M  V30 754 H 74.0469 -3.92056 -2.42133 0
M  V30 755 H 72.3619 -3.45712 -2.32104 0
M  V30 756 H 74.9589 -2.27526 -4.83876 0
M  V30 757 H 75.3019 -0.731116 -4.0983 0
M  V30 758 H 75.8349 -2.22818 -3.2954 0
M  V30 759 H 72.5739 -5.11648 -4.09752 0
M  V30 760 H 72.0939 -3.5653 -4.82334 0
M  V30 761 H 73.7729 -4.141 -4.97122 0
M  V30 762 N 73.905 1.17692 -1.04816 0
M  V30 763 C 74.853 2.23632 -0.63966 0
M  V30 764 C 75.847 1.6601 0.337219 0
M  V30 765 O 77.053 1.78844 0.203693 0
M  V30 766 H 73.428 0.727949 -0.188665 0
M  V30 767 H 75.399 2.55387 -1.54337 0
M  V30 768 C 74.148 3.4769 -0.0264051 0
M  V30 769 H 73.471 3.92331 -0.769164 0
M  V30 770 H 74.911 4.23418 0.222098 0
M  V30 771 C 73.37 3.13807 1.22584 0
M  V30 772 O 73.9 3.28236 2.31569 0
M  V30 773 N 72.106 2.68065 1.12202 0
M  V30 774 H 71.653 2.56525 0.235133 0
M  V30 775 H 71.611 2.45767 1.96076 0
M  V30 776 N 75.3831 0.828654 1.34056 0
M  V30 777 C 76.6291 0.42008 1.98402 0
M  V30 778 C 76.9621 -1.01564 1.65525 0
M  V30 779 O 76.2371 -1.70834 0.929831 0
M  V30 780 C 76.5201 0.62927 3.54559 0
M  V30 781 C 76.3731 2.11152 3.97159 0
M  V30 782 C 77.6921 0.0688756 4.40046 0
M  V30 783 H 74.8111 0.154104 0.720709 0
M  V30 784 H 77.4531 1.04228 1.5886 0
M  V30 785 H 75.6031 0.0996418 3.88372 0
M  V30 786 H 77.2751 2.70522 3.73651 0
M  V30 787 H 75.5181 2.59985 3.47261 0
M  V30 788 H 76.1891 2.20868 5.05887 0
M  V30 789 H 78.6651 0.521458 4.1282 0
M  V30 790 H 77.5411 0.245006 5.48353 0
M  V30 791 H 77.8021 -1.0266 4.30015 0
M  V30 792 N 76.8612 -1.46375 0.584142 0
M  V30 793 C 77.8092 -2.32042 -0.161047 0
M  V30 794 C 78.8032 -1.44569 -0.882966 0
M  V30 795 O 80.0092 -1.61186 -0.801191 0
M  V30 796 H 76.3842 -0.748659 -0.0708033 0
M  V30 797 H 78.3552 -2.92704 0.580269 0
M  V30 798 C 77.1042 -3.27762 -1.1605 0
M  V30 799 H 76.4272 -3.95051 -0.614419 0
M  V30 800 H 77.8672 -3.90481 -1.65228 0
M  V30 801 C 76.3262 -2.53218 -2.22221 0
M  V30 802 O 76.8562 -2.29628 -3.29597 0
M  V30 803 N 75.0622 -2.13756 -1.96868 0
M  V30 804 H 74.6092 -2.33142 -1.09557 0
M  V30 805 H 74.5672 -1.642 -2.68115 0
M  V30 806 N 78.3393 -0.321999 -1.54275 0
M  V30 807 C 79.3023 0.531975 -2.22941 0
M  V30 808 C 80.3023 1.04478 -1.22234 0
M  V30 809 O 81.4923 0.937452 -1.46825 0
M  V30 810 C 78.6243 1.73874 -2.93224 0
M  V30 811 H 79.8173 -0.0682612 -2.99822 0
M  V30 812 H 77.3703 -0.0730644 -1.56129 0
M  V30 813 H 78.1053 2.37825 -2.20476 0
M  V30 814 H 77.8903 1.37847 -3.6707 0
M  V30 815 H 79.3803 2.34496 -3.45545 0
M  V30 816 N 79.8174 1.5752 -0.0501392 0
M  V30 817 C 80.7644 2.1147 0.924603 0
M  V30 818 C 81.7344 1.02182 1.30951 0
M  V30 819 O 82.9194 1.29723 1.39916 0
M  V30 820 C 80.0594 2.66337 2.19451 0
M  V30 821 C 79.1724 3.89708 1.86418 0
M  V30 822 C 78.3074 4.32893 3.07859 0
M  V30 823 C 77.3464 5.48967 2.70742 0
M  V30 824 N 76.4834 5.87211 3.84874 0
M  V30 825 H 81.3234 2.94465 0.457639 0
M  V30 826 H 78.8604 1.45531 0.214266 0
M  V30 827 H 80.8184 2.96247 2.93758 0
M  V30 828 H 79.4484 1.86141 2.63726 0
M  V30 829 H 78.5004 3.66396 1.02264 0
M  V30 830 H 79.8124 4.74074 1.55096 0
M  V30 831 H 78.9664 4.6435 3.90466 0
M  V30 832 H 77.7054 3.47336 3.42358 0
M  V30 833 H 76.7104 5.17183 1.86551 0
M  V30 834 H 77.9354 6.3624 2.37436 0
M  V30 835 H 75.8814 5.04607 4.19175 0
M  V30 836 H 75.7984 6.66266 3.57247 0
M  V30 837 H 77.0664 6.23282 4.68123 0
M  V30 838 N 81.2955 -0.223234 1.56011 0
M  V30 839 C 82.2435 -1.29627 1.93131 0
M  V30 840 C 83.2375 -1.48608 0.813146 0
M  V30 841 O 84.4435 -1.49802 0.997966 0
M  V30 842 H 80.8185 -0.434563 0.613726 0
M  V30 843 H 82.7895 -0.955995 2.82672 0
M  V30 844 C 81.5385 -2.63983 2.26292 0
M  V30 845 H 80.8615 -2.50185 3.11846 0
M  V30 846 H 82.3015 -3.3788 2.56151 0
M  V30 847 C 80.7605 -3.18866 1.08747 0
M  V30 848 O 81.2905 -4.00192 0.347727 0
M  V30 849 N 79.4965 -2.77217 0.871743 0
M  V30 850 H 79.0435 -2.1119 1.47501 0
M  V30 851 H 79.0015 -3.1428 0.0869905 0
M  V30 852 N 82.7736 -1.49793 -0.48987 0
M  V30 853 C 84.0036 -1.6333 -1.26518 0
M  V30 854 C 84.4116 -0.308392 -1.8667 0
M  V30 855 O 83.7546 0.717512 -1.69108 0
M  V30 856 C 83.8166 -2.6522 -2.4269 0
M  V30 857 C 83.4806 -4.09279 -2.03321 0
M  V30 858 C 84.4776 -4.95738 -1.56652 0
M  V30 859 C 82.1626 -4.55082 -2.12616 0
M  V30 860 C 84.1566 -6.26041 -1.19795 0
M  V30 861 C 81.8436 -5.85396 -1.75371 0
M  V30 862 C 82.8416 -6.707 -1.29036 0
M  V30 863 O 82.5296 -7.98584 -0.92299 0
M  V30 864 H 82.2616 -0.552502 -0.389509 0
M  V30 865 H 84.8156 -1.96642 -0.593381 0
M  V30 866 H 83.0456 -2.27112 -3.12981 0
M  V30 867 H 84.7346 -2.68171 -3.04695 0
M  V30 868 H 85.5006 -4.61575 -1.48908 0
M  V30 869 H 81.3796 -3.88844 -2.47631 0
M  V30 870 H 84.9236 -6.92578 -0.835582 0
M  V30 871 H 80.8206 -6.19085 -1.82768 0
M  V30 872 H 81.5886 -8.11692 -1.05349 0
M  V30 873 N 84.2517 0.741722 -1.39055 0
M  V30 874 C 85.1987 1.85566 -1.37237 0
M  V30 875 C 86.1687 1.64457 -0.233072 0
M  V30 876 O 87.3537 1.85957 -0.427147 0
M  V30 877 C 84.4937 3.23004 -1.215 0
M  V30 878 C 83.6067 3.55864 -2.44918 0
M  V30 879 C 82.7417 4.82669 -2.21821 0
M  V30 880 C 81.7807 5.08351 -3.40948 0
M  V30 881 N 80.9177 6.26356 -3.17211 0
M  V30 882 H 85.7577 1.86455 -2.32462 0
M  V30 883 H 83.2947 0.911176 -1.15482 0
M  V30 884 H 85.2527 4.02331 -1.10389 0
M  V30 885 H 83.8827 3.21411 -0.29908 0
M  V30 886 H 82.9347 2.7129 -2.66657 0
M  V30 887 H 84.2467 3.70765 -3.33668 0
M  V30 888 H 83.4007 5.69962 -2.07914 0
M  V30 889 H 82.1397 4.69929 -1.30454 0
M  V30 890 H 81.1447 4.19522 -3.55361 0
M  V30 891 H 82.3697 5.22981 -4.33207 0
M  V30 892 H 80.3157 6.14917 -2.28502 0
M  V30 893 H 80.2327 6.41813 -3.99515 0
M  V30 894 H 81.5007 7.16506 -3.06984 0
M  V30 895 N 85.7298 1.2412 0.971189 0
M  V30 896 C 86.6778 1.02812 2.08644 0
M  V30 897 C 87.6718 -0.0358403 1.69362 0
M  V30 898 O 88.8778 0.118429 1.7961 0
M  V30 899 H 85.2528 0.315428 0.682649 0
M  V30 900 H 87.2238 1.97397 2.23779 0
M  V30 901 C 85.9728 0.645874 3.41649 0
M  V30 902 H 85.2958 1.45632 3.72332 0
M  V30 903 H 86.7358 0.536366 4.20594 0
M  V30 904 C 85.1948 -0.646713 3.30635 0
M  V30 905 O 85.7248 -1.69338 3.64263 0
M  V30 906 N 83.9308 -0.626115 2.83775 0
M  V30 907 H 83.4778 0.225988 2.56607 0
M  V30 908 H 83.4358 -1.49117 2.76788 0
M  V30 909 N 87.2079 -1.17134 1.05439 0
M  V30 910 C 88.4539 -1.87733 0.767077 0
M  V30 911 C 88.7869 -1.8098 -0.704253 0
M  V30 912 O 88.0619 -1.21951 -1.5152 0
M  V30 913 C 88.3449 -3.37659 1.25133 0
M  V30 914 C 88.1979 -3.53149 2.78578 0
M  V30 915 C 89.5169 -4.31768 0.852324 0
M  V30 916 H 86.6359 -0.681687 0.280129 0
M  V30 917 H 89.2779 -1.37732 1.30881 0
M  V30 918 H 87.4279 -3.80373 0.790469 0
M  V30 919 H 89.0999 -3.19434 3.32806 0
M  V30 920 H 87.3429 -2.95345 3.17732 0
M  V30 921 H 88.0139 -4.58403 3.07523 0
M  V30 922 H 90.4899 -3.96909 1.24911 0
M  V30 923 H 89.3659 -5.35199 1.21873 0
M  V30 924 H 89.6269 -4.41429 -0.243485 0
M  V30 925 N 88.686 -0.835752 -1.33615 0
M  V30 926 C 89.933 -0.429959 -1.97883 0
M  V30 927 C 90.261 1.01006 -1.66217 0
M  V30 928 O 89.516 1.72047 -0.93265 0
M  V30 929 C 89.815 -0.593925 -3.52431 0
M  V30 930 C 89.481 -2.00158 -4.04039 0
M  V30 931 C 88.143 -2.38662 -4.17844 0
M  V30 932 C 90.495 -2.92117 -4.31644 0
M  V30 933 C 87.823 -3.68435 -4.56588 0
M  V30 934 C 90.175 -4.21368 -4.71838 0
M  V30 935 C 88.839 -4.59833 -4.83849 0
M  V30 936 H 88.109 -0.157333 -0.724104 0
M  V30 937 H 90.756 -1.06217 -1.59343 0
M  V30 938 H 89.061 0.121619 -3.91611 0
M  V30 939 H 90.758 -0.260282 -4.00154 0
M  V30 940 H 87.348 -1.69252 -3.93766 0
M  V30 941 H 91.532 -2.63608 -4.20505 0
M  V30 942 H 86.788 -3.98046 -4.64079 0
M  V30 943 H 90.962 -4.92703 -4.92155 0
M  V30 944 H 88.589 -5.60438 -5.13627 0
M  V30 945 N 90.1641 1.46063 -0.591896 0
M  V30 946 C 91.1111 2.30399 0.136069 0
M  V30 947 C 92.0811 1.41169 0.875238 0
M  V30 948 O 93.2661 1.70112 0.86409 0
M  V30 949 C 90.4061 3.25804 1.13781 0
M  V30 950 C 89.5191 4.30134 0.401137 0
M  V30 951 C 88.6541 5.12659 1.39121 0
M  V30 952 C 87.6931 6.0873 0.641462 0
M  V30 953 N 86.8301 6.8409 1.58004 0
M  V30 954 H 91.6701 2.92118 -0.589144 0
M  V30 955 H 89.2071 1.43959 -0.302342 0
M  V30 956 H 91.1651 3.79569 1.73156 0
M  V30 957 H 89.7951 2.65872 1.83062 0
M  V30 958 H 88.8471 3.79152 -0.307826 0
M  V30 959 H 90.1591 4.98458 -0.184565 0
M  V30 960 H 89.3131 5.70747 2.05749 0
M  V30 961 H 88.0521 4.44316 2.01084 0
M  V30 962 H 87.0571 5.49786 -0.0385419 0
M  V30 963 H 88.2821 6.79095 0.0270945 0
M  V30 964 H 86.2281 6.18449 2.18761 0
M  V30 965 H 86.1451 7.48709 1.04738 0
M  V30 966 H 87.4131 7.4673 2.23639 0
M  V30 967 N 91.6422 0.330177 1.54103 0
M  V30 968 C 92.5892 -0.532762 2.24567 0
M  V30 969 C 93.5592 -1.10635 1.23892 0
M  V30 970 O 94.7442 -1.14546 1.5259 0
M  V30 971 C 91.8842 -1.6845 3.01195 0
M  V30 972 C 90.9972 -1.13951 4.167 0
M  V30 973 C 90.1322 -2.25746 4.80845 0
M  V30 974 C 89.1712 -1.6853 5.88442 0
M  V30 975 N 88.3082 -2.74014 6.46421 0
M  V30 976 H 93.1482 0.0746905 2.97906 0
M  V30 977 H 90.6852 0.048632 1.4702 0
M  V30 978 H 92.6432 -2.36234 3.43874 0
M  V30 979 H 91.2732 -2.26314 2.30178 0
M  V30 980 H 90.3252 -0.35301 3.78758 0
M  V30 981 H 91.6372 -0.680892 4.94131 0
M  V30 982 H 90.7912 -3.01422 5.26526 0
M  V30 983 H 89.5302 -2.74947 4.0281 0
M  V30 984 H 88.5352 -0.913543 5.42157 0
M  V30 985 H 89.7602 -1.20198 6.68378 0
M  V30 986 H 87.7062 -3.22494 5.71256 0
M  V30 987 H 87.6232 -2.32735 7.19285 0
M  V30 988 H 88.8912 -3.49499 6.96757 0
M  V30 989 N 93.1203 -1.57491 0.0584922 0
M  V30 990 C 94.3503 -1.9701 -0.622134 0
M  V30 991 C 94.7583 -0.935034 -1.6448 0
M  V30 992 O 94.1013 0.0882904 -1.83488 0
M  V30 993 C 94.1633 -3.32794 -1.35972 0
M  V30 994 C 93.8273 -4.54343 -0.492043 0
M  V30 995 C 94.8243 -5.19323 0.244901 0
M  V30 996 C 92.5093 -5.00534 -0.420821 0
M  V30 997 C 94.5033 -6.28835 1.04143 0
M  V30 998 C 92.1903 -6.09921 0.379389 0
M  V30 999 C 93.1883 -6.73933 1.10919 0
M  V30 1000 O 92.8763 -7.81216 1.89623 0
M  V30 1001 H 92.6083 -0.653127 -0.174359 0
M  V30 1002 H 95.1623 -2.05029 0.123418 0
M  V30 1003 H 93.3923 -3.21351 -2.15105 0
M  V30 1004 H 95.0813 -3.5701 -1.93129 0
M  V30 1005 H 95.8473 -4.8459 0.19939 0
M  V30 1006 H 91.7263 -4.50496 -0.978474 0
M  V30 1007 H 95.2703 -6.7873 1.61157 0
M  V30 1008 H 91.1673 -6.44089 0.426512 0
M  V30 1009 H 91.9353 -7.98029 1.81913 0
M  V30 1010 N 94.5984 0.214957 -1.56127 0
M  V30 1011 C 95.5084 1.28727 -1.96129 0
M  V30 1012 C 96.5244 1.50916 -0.866044 0
M  V30 1013 O 97.7004 1.63918 -1.17016 0
M  V30 1014 C 94.7654 2.61569 -2.27558 0
M  V30 1015 C 93.8264 2.47625 -3.50685 0
M  V30 1016 C 93.0594 3.74132 -3.80606 0
M  V30 1017 O 93.2824 4.77438 -3.12104 0
M  V30 1018 O 92.2164 3.70849 -4.74083 0
M  V30 1019 H 96.0424 0.977855 -2.87527 0
M  V30 1020 H 93.6274 0.418358 -1.43423 0
M  V30 1021 H 95.5094 3.40012 -2.48938 0
M  V30 1022 H 94.1844 2.92178 -1.39332 0
M  V30 1023 H 93.0914 1.67361 -3.34576 0
M  V30 1024 H 94.4244 2.21954 -4.39315 0
M  V30 1025 N 96.0765 1.50051 0.48192 0
M  V30 1026 C 97.3225 1.60736 1.2366 0
M  V30 1027 C 97.6555 0.301786 1.91841 0
M  V30 1028 O 96.9305 -0.696025 1.8162 0
M  V30 1029 C 97.2135 2.78009 2.28874 0
M  V30 1030 C 97.0665 4.18416 1.65069 0
M  V30 1031 C 98.3855 2.90867 3.30279 0
M  V30 1032 H 95.5045 0.585031 0.448228 0
M  V30 1033 H 98.1465 1.82402 0.531946 0
M  V30 1034 H 96.2965 2.59667 2.88973 0
M  V30 1035 H 97.9685 4.48322 1.0865 0
M  V30 1036 H 96.2115 4.23177 0.954148 0
M  V30 1037 H 96.8825 4.96381 2.41474 0
M  V30 1038 H 99.3585 3.07623 2.80191 0
M  V30 1039 H 98.2345 3.74566 4.01238 0
M  V30 1040 H 98.4955 2.01021 3.93755 0
M  V30 1041 N 97.5546 -0.734337 1.39446 0
M  V30 1042 C 98.4846 -1.86155 1.40955 0
M  V30 1043 C 99.4656 -1.67898 0.272827 0
M  V30 1044 O 100.651 -1.88207 0.478743 0
M  V30 1045 C 97.7806 -3.23912 1.25294 0
M  V30 1046 C 96.7346 -3.56808 2.36373 0
M  V30 1047 C 96.0606 -4.93508 2.058 0
M  V30 1048 C 97.3606 -3.59713 3.78687 0
M  V30 1049 H 99.0546 -1.8515 2.35287 0
M  V30 1050 H 96.6006 -0.889367 1.13253 0
M  V30 1051 H 98.5536 -4.02443 1.2497 0
M  V30 1052 H 97.2776 -3.25446 0.274308 0
M  V30 1053 H 95.9366 -2.80606 2.35914 0
M  V30 1054 H 95.5846 -4.91623 1.06374 0
M  V30 1055 H 95.2846 -5.16486 2.80208 0
M  V30 1056 H 96.8086 -5.74396 2.07128 0
M  V30 1057 H 98.2226 -4.2832 3.81071 0
M  V30 1058 H 96.6196 -3.94209 4.52459 0
M  V30 1059 H 97.6896 -2.59504 4.09617 0
M  V30 1060 N 99.0327 -1.24633 -0.964593 0
M  V30 1061 C 99.9957 -1.0424 -2.04124 0
M  V30 1062 C 100.996 0.00137563 -1.608 0
M  V30 1063 O 102.186 -0.239883 -1.7254 0
M  V30 1064 C 99.3177 -0.580588 -3.3592 0
M  V30 1065 H 100.511 -1.99803 -2.23649 0
M  V30 1066 H 98.0637 -1.06899 -1.14027 0
M  V30 1067 H 98.7987 0.3781 -3.22088 0
M  V30 1068 H 98.5837 -1.33398 -3.6871 0
M  V30 1069 H 100.074 -0.459034 -4.15069 0
M  V30 1070 N 100.511 1.16574 -1.06058 0
M  V30 1071 C 101.441 2.23057 -0.690488 0
M  V30 1072 C 102.422 1.67141 0.315901 0
M  V30 1073 O 103.607 1.93253 0.191556 0
M  V30 1074 C 100.737 3.47222 -0.073625 0
M  V30 1075 C 99.6908 4.16016 -1.00573 0
M  V30 1076 C 99.0168 5.34104 -0.252289 0
M  V30 1077 C 100.317 4.67264 -2.33371 0
M  V30 1078 H 102.011 2.54271 -1.58072 0
M  V30 1079 H 99.5568 1.22218 -0.76149 0
M  V30 1080 H 101.51 4.20939 0.19714 0
M  V30 1081 H 100.234 3.15302 0.85161 0
M  V30 1082 H 98.8928 3.44223 -1.2612 0
M  V30 1083 H 98.5408 4.98437 0.675988 0
M  V30 1084 H 98.2408 5.81072 -0.873455 0
M  V30 1085 H 99.7648 6.10599 0.0109857 0
M  V30 1086 H 101.179 5.32573 -2.12223 0
M  V30 1087 H 99.5758 5.24843 -2.90963 0
M  V30 1088 H 100.646 3.83602 -2.96611 0
M  V30 1089 N 101.989 0.842826 1.3317 0
M  V30 1090 C 102.919 0.294028 2.31641 0
M  V30 1091 C 103.9 -0.600401 1.59151 0
M  V30 1092 O 105.085 -0.523124 1.87022 0
M  V30 1093 C 102.215 -0.528416 3.43257 0
M  V30 1094 C 101.169 0.27056 4.27144 0
M  V30 1095 C 100.495 -0.675881 5.30411 0
M  V30 1096 C 101.795 1.48981 5.00602 0
M  V30 1097 H 103.489 1.11681 2.77791 0
M  V30 1098 H 101.035 0.538478 1.33553 0
M  V30 1099 H 102.988 -0.922674 4.11175 0
M  V30 1100 H 101.712 -1.38445 2.95805 0
M  V30 1101 H 100.371 0.646427 3.60856 0
M  V30 1102 H 100.019 -1.52842 4.79216 0
M  V30 1103 H 99.7189 -0.145374 5.8742 0
M  V30 1104 H 101.243 -1.06757 6.01195 0
M  V30 1105 H 102.657 1.16849 5.61266 0
M  V30 1106 H 101.054 1.95739 5.6728 0
M  V30 1107 H 102.124 2.25746 4.29147 0
M  V30 1108 N 103.467 -1.45747 0.599634 0
M  V30 1109 C 104.697 -2.06369 0.0977132 0
M  V30 1110 C 105.105 -1.44624 -1.21985 0
M  V30 1111 O 104.448 -0.551831 -1.75216 0
M  V30 1112 C 104.51 -3.59284 -0.124673 0
M  V30 1113 C 104.174 -4.43318 1.10987 0
M  V30 1114 C 105.171 -4.78796 2.02609 0
M  V30 1115 C 102.856 -4.84194 1.33647 0
M  V30 1116 C 104.85 -5.53997 3.15224 0
M  V30 1117 C 102.537 -5.5915 2.46565 0
M  V30 1118 C 103.535 -5.93968 3.37182 0
M  V30 1119 O 103.223 -6.67405 4.48136 0
M  V30 1120 H 102.955 -0.673122 0.0623153 0
M  V30 1121 H 105.509 -1.88104 0.824981 0
M  V30 1122 H 103.739 -3.75919 -0.906745 0
M  V30 1123 H 105.428 -4.01775 -0.577201 0
M  V30 1124 H 106.194 -4.47781 1.86325 0
M  V30 1125 H 102.073 -4.56534 0.64016 0
M  V30 1126 H 105.617 -5.81091 3.85978 0
M  V30 1127 H 101.514 -5.89579 2.62805 0
M  V30 1128 H 102.282 -6.85847 4.46717 0
M  V30 1129 N 104.945 -0.338344 -1.53925 0
M  V30 1130 C 105.895 0.536712 -2.21593 0
M  V30 1131 C 106.879 1.07015 -1.20153 0
M  V30 1132 O 108.071 1.00471 -1.45721 0
M  V30 1133 C 105.2 1.68977 -2.98834 0
M  V30 1134 C 104.286 1.17052 -4.07627 0
M  V30 1135 N 104.677 0.372085 -5.0443 0
M  V30 1136 C 102.975 1.44789 -4.21844 0
M  V30 1137 C 103.676 0.0909171 -5.81629 0
M  V30 1138 N 102.652 0.681131 -5.39316 0
M  V30 1139 H 106.454 -0.0804298 -2.9379 0
M  V30 1140 H 103.968 -0.144943 -1.61752 0
M  V30 1141 H 105.965 2.32857 -3.45808 0
M  V30 1142 H 104.625 2.31024 -2.28162 0
M  V30 1143 H 105.636 0.0136217 -5.17898 0
M  V30 1144 H 102.313 2.07313 -3.62391 0
M  V30 1145 H 103.703 -0.552817 -6.69622 0
M  V30 1146 N 106.423 1.57458 -0.0668435 0
M  V30 1147 C 107.333 2.15937 0.916975 0
M  V30 1148 C 108.349 1.12123 1.33058 0
M  V30 1149 O 109.525 1.44366 1.40429 0
M  V30 1150 C 106.59 2.70547 2.16807 0
M  V30 1151 C 105.651 3.89215 1.81135 0
M  V30 1152 C 104.884 4.41211 3.0028 0
M  V30 1153 O 105.107 3.92225 4.14144 0
M  V30 1154 O 104.041 5.32605 2.80384 0
M  V30 1155 H 107.867 3.00354 0.449561 0
M  V30 1156 H 105.452 1.48584 0.155949 0
M  V30 1157 H 107.334 3.0557 2.90181 0
M  V30 1158 H 106.009 1.89192 2.62656 0
M  V30 1159 H 104.916 3.59054 1.05028 0
M  V30 1160 H 106.249 4.71848 1.40073 0
M  V30 1161 N 107.901 -0.206675 1.56239 0
M  V30 1162 C 109.312 -0.772383 1.69974 0
M  V30 1163 C 109.663 -1.84353 0.671436 0
M  V30 1164 O 108.788 -2.15695 -0.174491 0
M  V30 1165 C 109.383 -1.40779 3.08167 0
M  V30 1166 C 107.942 -1.92072 3.23706 0
M  V30 1167 C 107.089 -0.786347 2.65917 0
M  V30 1168 H 110.04 0.0182223 1.5869 0
M  V30 1169 H 110.061 -2.27696 3.04852 0
M  V30 1170 H 109.573 -0.627958 3.82986 0
M  V30 1171 H 107.674 -2.7281 2.53782 0
M  V30 1172 H 107.787 -2.09046 4.31087 0
M  V30 1173 H 106.151 -1.1976 2.24788 0
M  V30 1174 H 106.934 -0.0189416 3.43295 0
M  V30 1175 N 109.379 -1.50304 -0.473955 0
M  V30 1176 C 110.79 -1.54042 -1.0549 0
M  V30 1177 C 111.141 -0.342248 -1.93192 0
M  V30 1178 O 110.266 0.545157 -2.09421 0
M  V30 1179 C 110.861 -2.79152 -1.91989 0
M  V30 1180 C 109.42 -2.8558 -2.45196 0
M  V30 1181 C 108.567 -2.48295 -1.2347 0
M  V30 1182 H 111.518 -1.5661 -0.256693 0
M  V30 1183 H 111.539 -2.60845 -2.7702 0
M  V30 1184 H 111.051 -3.66339 -1.28131 0
M  V30 1185 H 109.152 -2.02738 -3.12615 0
M  V30 1186 H 109.265 -3.88403 -2.80499 0
M  V30 1187 H 107.629 -2.00669 -1.56856 0
M  V30 1188 H 108.412 -3.37787 -0.612789 0
M  V30 1189 N 110.857 0.726932 -1.39834 0
M  V30 1190 C 111.767 1.87131 -1.41489 0
M  V30 1191 C 112.783 1.71239 -0.308757 0
M  V30 1192 O 113.959 1.93701 -0.551529 0
M  V30 1193 C 111.024 3.22811 -1.26468 0
M  V30 1194 C 110.085 3.51039 -2.47124 0
M  V30 1195 C 109.318 4.80245 -2.3281 0
M  V30 1196 O 109.541 5.54537 -1.33585 0
M  V30 1197 O 108.475 5.08554 -3.21957 0
M  V30 1198 H 112.301 1.8869 -2.3797 0
M  V30 1199 H 109.886 0.875837 -1.21035 0
M  V30 1200 H 111.768 4.03877 -1.20255 0
M  V30 1201 H 110.443 3.22005 -0.330862 0
M  V30 1202 H 109.35 2.70027 -2.58914 0
M  V30 1203 H 110.683 3.56632 -3.39227 0
M  V30 1204 N 112.336 1.25143 0.95797 0
M  V30 1205 C 113.613 1.00472 1.67823 0
M  V30 1206 C 113.993 -0.470056 2.058 0
M  V30 1207 O 113.341 -1.44663 1.76875 0
M  V30 1208 C 113.551 1.9372 2.90299 0
M  V30 1209 C 114.899 2.21371 3.62326 0
M  V30 1210 O 115.923 1.91451 3.00375 0
M  V30 1211 O 114.782 2.72231 4.7387 0
M  V30 1212 H 111.876 0.380752 0.734137 0
M  V30 1213 H 114.422 1.36283 1.01119 0
M  V30 1214 H 113.194 2.93316 2.59001 0
M  V30 1215 H 112.817 1.58286 3.64735 0
M  V30 1216 N 113.814 -1.1601 1.06675 0
M  V30 1217 C 115.091 -1.82679 0.699114 0
M  V30 1218 C 115.471 -1.94559 -0.819137 0
M  V30 1219 O 114.819 -1.49169 -1.73092 0
M  V30 1220 C 115.029 -3.19445 1.40555 0
M  V30 1221 C 116.377 -3.95171 1.55323 0
M  V30 1222 O 117.401 -3.28976 1.36577 0
M  V30 1223 O 116.26 -5.13833 1.86112 0
M  V30 1224 H 113.354 -0.788954 0.247951 0
M  V30 1225 H 115.9 -1.23179 1.16726 0
M  V30 1226 H 114.672 -3.05856 2.44065 0
M  V30 1227 H 114.295 -3.86625 0.927733 0
M  V30 1228 N 115.292 -0.849877 -1.32721 0
M  V30 1229 C 116.239 -0.289033 -2.28983 0
M  V30 1230 C 117.209 0.601324 -1.54833 0
M  V30 1231 O 118.394 0.537253 -1.8308 0
M  V30 1232 C 115.534 0.520623 -3.4115 0
M  V30 1233 C 114.647 -0.394989 -4.3019 0
M  V30 1234 C 113.782 0.426834 -5.29482 0
M  V30 1235 C 112.821 -0.486476 -6.10164 0
M  V30 1236 N 111.958 0.297879 -7.01468 0
M  V30 1237 H 116.798 -1.11519 -2.76347 0
M  V30 1238 H 114.335 -0.56138 -1.35967 0
M  V30 1239 H 116.293 1.00563 -4.04899 0
M  V30 1240 H 114.923 1.31165 -2.9495 0
M  V30 1241 H 113.975 -0.99836 -3.67065 0
M  V30 1242 H 115.287 -1.09612 -4.86607 0
M  V30 1243 H 114.441 0.975205 -5.98811 0
M  V30 1244 H 113.18 1.16136 -4.73671 0
M  V30 1245 H 112.185 -1.04677 -5.39743 0
M  V30 1246 H 113.41 -1.21953 -6.6806 0
M  V30 1247 H 111.356 1.01558 -6.48091 0
M  V30 1248 H 111.273 -0.344318 -7.55216 0
M  V30 1249 H 112.541 0.828131 -7.75089 0
M  V30 1250 N 116.77 1.45427 -0.607355 0
M  V30 1251 C 117.733 2.28974 0.101693 0
M  V30 1252 C 118.733 1.39754 0.795329 0
M  V30 1253 O 119.923 1.61878 0.643527 0
M  V30 1254 C 117.055 3.20768 1.15414 0
M  V30 1255 H 118.248 2.93147 -0.632844 0
M  V30 1256 H 115.801 1.51945 -0.366391 0
M  V30 1257 H 116.536 2.61395 1.91945 0
M  V30 1258 H 116.321 3.86489 0.66098 0
M  V30 1259 H 117.811 3.83589 1.65073 0
M  V30 1260 N 118.248 0.346503 1.53744 0
M  V30 1261 C 119.473 -0.253074 2.0585 0
M  V30 1262 C 119.898 -1.43202 1.21962 0
M  V30 1263 O 119.256 -1.79783 0.234073 0
M  V30 1264 C 119.304 -0.643193 3.54817 0
M  V30 1265 O 118.408 -1.74286 3.73762 0
M  V30 1266 H 117.749 -0.0413583 0.662711 0
M  V30 1267 H 120.279 0.501574 1.98357 0
M  V30 1268 H 120.289 -0.919526 3.97503 0
M  V30 1269 H 118.964 0.218966 4.15323 0
M  V30 1270 H 117.541 -1.46356 3.42979 0
M  V30 1271 N 119.726 -1.57421 0.075193 0
M  V30 1272 C 120.658 -2.09904 -0.920483 0
M  V30 1273 C 121.671 -1.03191 -1.25918 0
M  V30 1274 O 122.86 -1.30695 -1.21577 0
M  V30 1275 C 119.96 -2.54726 -2.23534 0
M  V30 1276 C 119.133 -3.8505 -2.07498 0
M  V30 1277 C 118.192 -4.15929 -3.22319 0
M  V30 1278 O 117.218 -4.85474 -2.9716 0
M  V30 1279 N 118.42 -3.69745 -4.47514 0
M  V30 1280 H 121.185 -2.95954 -0.472359 0
M  V30 1281 H 118.746 -1.61523 -0.110444 0
M  V30 1282 H 120.738 -2.72443 -2.9926 0
M  V30 1283 H 119.308 -1.73795 -2.59835 0
M  V30 1284 H 118.528 -3.76679 -1.16219 0
M  V30 1285 H 119.816 -4.70348 -1.94038 0
M  V30 1286 H 119.214 -3.13569 -4.7084 0
M  V30 1287 H 117.771 -3.92655 -5.20255 0
M  V30 1288 N 121.204 0.198386 -1.56346 0
M  V30 1289 C 122.62 0.549085 -1.49857 0
M  V30 1290 C 122.82 1.86016 -0.774611 0
M  V30 1291 O 121.876 2.50416 -0.323776 0
M  V30 1292 C 123.189 0.606868 -2.94512 0
M  V30 1293 C 124.737 0.695925 -3.05165 0
M  V30 1294 C 125.212 0.784848 -4.51225 0
M  V30 1295 N 126.703 0.848463 -4.55363 0
M  V30 1296 C 127.438 0.937378 -5.65686 0
M  V30 1297 N 126.934 0.9888 -6.85707 0
M  V30 1298 N 128.727 0.974312 -5.53592 0
M  V30 1299 H 120.878 -0.661655 -2.01831 0
M  V30 1300 H 123.141 -0.235261 -0.918344 0
M  V30 1301 H 122.847 -0.28732 -3.50524 0
M  V30 1302 H 122.721 1.46268 -3.47686 0
M  V30 1303 H 125.108 1.58055 -2.49204 0
M  V30 1304 H 125.189 -0.186022 -2.55123 0
M  V30 1305 H 124.833 -0.0954072 -5.0781 0
M  V30 1306 H 124.763 1.68255 -4.98997 0
M  V30 1307 H 127.254 0.818103 -3.68938 0
M  V30 1308 H 127.567 1.05707 -7.65536 0
M  V30 1309 H 125.912 0.957534 -6.88372 0
M  V30 1310 H 129.103 0.930954 -4.58749 0
M  V30 1311 H 129.276 1.04015 -6.39597 0
M  V30 1312 N 122.682 1.50554 0.465978 0
M  V30 1313 C 123.614 1.65949 1.58093 0
M  V30 1314 C 124.627 0.540827 1.53554 0
M  V30 1315 O 125.816 0.814187 1.5885 0
M  V30 1316 C 122.916 1.63261 2.96983 0
M  V30 1317 C 122.089 2.91245 3.26336 0
M  V30 1318 C 121.148 2.8113 4.44806 0
M  V30 1319 O 120.174 3.55086 4.44862 0
M  V30 1320 N 121.376 1.95032 5.46756 0
M  V30 1321 H 124.141 2.62122 1.45301 0
M  V30 1322 H 121.702 1.48082 0.65448 0
M  V30 1323 H 123.694 1.54101 3.74212 0
M  V30 1324 H 122.264 0.748032 3.03518 0
M  V30 1325 H 121.484 3.14493 2.37672 0
M  V30 1326 H 122.772 3.76022 3.42761 0
M  V30 1327 H 122.17 1.3427 5.49534 0
M  V30 1328 H 120.727 1.91772 6.2295 0
M  V30 1329 N 124.16 -0.719506 1.40217 0
M  V30 1330 C 125.407 -1.47933 1.38283 0
M  V30 1331 C 125.735 -1.94493 -0.0161536 0
M  V30 1332 O 124.99 -1.68224 -0.999956 0
M  V30 1333 C 125.289 -2.72271 2.31524 0
M  V30 1334 C 124.955 -2.44496 3.78857 0
M  V30 1335 C 123.617 -2.36631 4.18998 0
M  V30 1336 C 125.969 -2.21104 4.71977 0
M  V30 1337 C 123.297 -2.03437 5.503 0
M  V30 1338 C 125.649 -1.89423 6.03574 0
M  V30 1339 C 124.313 -1.80038 6.42762 0
M  V30 1340 H 123.583 -0.541325 0.506012 0
M  V30 1341 H 126.23 -0.824502 1.72842 0
M  V30 1342 H 124.535 -3.42572 1.90137 0
M  V30 1343 H 126.232 -3.30348 2.27313 0
M  V30 1344 H 122.822 -2.51503 3.47051 0
M  V30 1345 H 127.006 -2.26139 4.41786 0
M  V30 1346 H 122.262 -1.94705 5.79569 0
M  V30 1347 H 126.436 -1.70336 6.75247 0
M  V30 1348 H 124.063 -1.54083 7.44421 0
M  V30 1349 N 125.638 -1.25649 -0.95132 0
M  V30 1350 C 126.548 -1.08073 -2.08224 0
M  V30 1351 C 127.564 -0.0169666 -1.73992 0
M  V30 1352 O 128.74 -0.218593 -2.0021 0
M  V30 1353 C 125.805 -0.704922 -3.39458 0
M  V30 1354 C 124.866 -1.84699 -3.87537 0
M  V30 1355 C 124.099 -1.48902 -5.12508 0
M  V30 1356 O 124.322 -0.386156 -5.69091 0
M  V30 1357 O 123.256 -2.32033 -5.55378 0
M  V30 1358 H 127.082 -2.02924 -2.25954 0
M  V30 1359 H 124.667 -1.04618 -1.06656 0
M  V30 1360 H 126.549 -0.507609 -4.18332 0
M  V30 1361 H 125.224 0.214291 -3.2299 0
M  V30 1362 H 124.131 -2.09919 -3.09653 0
M  V30 1363 H 125.464 -2.74557 -4.08509 0
M  V30 1364 N 127.117 1.15442 -1.07289 0
M  V30 1365 C 128.05 2.19135 -0.636798 0
M  V30 1366 C 129.028 1.58884 0.34562 0
M  V30 1367 O 130.212 1.86805 0.252195 0
M  V30 1368 C 127.339 3.38638 0.0650014 0
M  V30 1369 C 126.385 4.17412 -0.87576 0
M  V30 1370 S 127.218 4.79882 -2.37642 0
M  V30 1371 C 128.374 6.02753 -1.6864 0
M  V30 1372 H 128.607 2.55787 -1.51526 0
M  V30 1373 H 126.14 1.26394 -0.886793 0
M  V30 1374 H 128.098 4.07873 0.463664 0
M  V30 1375 H 126.759 3.00331 0.919801 0
M  V30 1376 H 125.952 5.02909 -0.33143 0
M  V30 1377 H 125.554 3.53722 -1.21478 0
M  V30 1378 H 127.846 6.70113 -0.997753 0
M  V30 1379 H 128.789 6.61754 -2.51967 0
M  V30 1380 H 129.197 5.52355 -1.16465 0
M  V30 1381 N 128.595 0.856903 1.32268 0
M  V30 1382 C 129.505 0.306131 2.32594 0
M  V30 1383 C 130.521 -0.577209 1.64147 0
M  V30 1384 O 131.697 -0.477043 1.95669 0
M  V30 1385 C 128.762 -0.494561 3.43154 0
M  V30 1386 C 127.823 0.415186 4.27288 0
M  V30 1387 C 127.056 -0.347387 5.32568 0
M  V30 1388 O 127.279 -1.57708 5.48165 0
M  V30 1389 O 126.213 0.287982 6.01211 0
M  V30 1390 H 130.039 1.13737 2.81598 0
M  V30 1391 H 127.624 0.619902 1.35932 0
M  V30 1392 H 129.506 -0.948944 4.10576 0
M  V30 1393 H 128.181 -1.30257 2.96336 0
M  V30 1394 H 127.088 0.917793 3.62667 0
M  V30 1395 H 128.421 1.18844 4.77637 0
M  V30 1396 N 130.073 -1.45103 0.615059 0
M  V30 1397 C 130.983 -2.34382 -0.101034 0
M  V30 1398 C 131.999 -1.51681 -0.852585 0
M  V30 1399 O 133.175 -1.8446 -0.808484 0
M  V30 1400 C 130.24 -3.29417 -1.08099 0
M  V30 1401 C 129.301 -4.28025 -0.330577 0
M  V30 1402 C 128.534 -5.1852 -1.26385 0
M  V30 1403 O 128.757 -5.12598 -2.50198 0
M  V30 1404 O 127.691 -5.97122 -0.756866 0
M  V30 1405 H 131.517 -2.97033 0.632855 0
M  V30 1406 H 129.102 -1.4461 0.375293 0
M  V30 1407 H 130.984 -3.87958 -1.6452 0
M  V30 1408 H 129.659 -2.69321 -1.79577 0
M  V30 1409 H 128.566 -3.73078 0.276283 0
M  V30 1410 H 129.899 -4.90997 0.343866 0
M  V30 1411 N 131.551 -0.354651 -1.53558 0
M  V30 1412 C 132.481 0.489091 -2.2832 0
M  V30 1413 C 133.462 1.09324 -1.30316 0
M  V30 1414 O 134.647 1.11255 -1.59173 0
M  V30 1415 C 131.777 1.63456 -3.0643 0
M  V30 1416 C 130.731 1.1582 -4.12031 0
M  V30 1417 C 130.057 2.39305 -4.7816 0
M  V30 1418 C 131.357 0.250731 -5.21698 0
M  V30 1419 H 133.051 -0.134614 -2.99097 0
M  V30 1420 H 130.597 -0.0661826 -1.43848 0
M  V30 1421 H 132.55 2.23136 -3.57475 0
M  V30 1422 H 131.274 2.28533 -2.33325 0
M  V30 1423 H 129.933 0.584146 -3.61916 0
M  V30 1424 H 129.581 3.02814 -4.01637 0
M  V30 1425 H 129.281 2.08109 -5.49513 0
M  V30 1426 H 130.805 2.99691 -5.31994 0
M  V30 1427 H 132.219 0.754695 -5.68311 0
M  V30 1428 H 130.616 0.0301468 -6.00092 0
M  V30 1429 H 131.686 -0.710125 -4.79672 0
M  V30 1430 N 133.029 1.57378 -0.0835403 0
M  V30 1431 C 134.278 1.93106 0.582498 0
M  V30 1432 C 134.591 0.96651 1.70053 0
M  V30 1433 O 135.797 1.21705 2.42693 0
M  V30 1434 C 134.253 3.43076 1.08751 0
M  V30 1435 C 133.861 4.48 -0.000146404 0
M  V30 1436 C 135.605 3.87785 1.72694 0
M  V30 1437 C 133.512 5.89113 0.519568 0
M  V30 1438 H 132.442 0.720775 0.221358 0
M  V30 1439 H 135.093 1.82821 -0.157675 0
M  V30 1440 H 133.475 3.48474 1.88101 0
M  V30 1441 H 134.649 4.54233 -0.775199 0
M  V30 1442 H 132.964 4.1283 -0.54406 0
M  V30 1443 H 135.561 4.90604 2.1263 0
M  V30 1444 H 135.904 3.25796 2.59158 0
M  V30 1445 H 136.437 3.8504 0.999457 0
M  V30 1446 H 133.176 6.54775 -0.308186 0
M  V30 1447 H 132.696 5.86376 1.26188 0
M  V30 1448 H 134.375 6.39346 0.992237 0
M  V30 1449 N 134.507 -0.190092 1.56449 0
M  V30 1450 C 135.437 -1.23816 1.97969 0
M  V30 1451 C 136.418 -1.47201 0.852395 0
M  V30 1452 O 137.603 -1.58854 1.1171 0
M  V30 1453 C 134.733 -2.5813 2.3235 0
M  V30 1454 C 133.687 -2.49348 3.47864 0
M  V30 1455 C 133.013 -3.8798 3.67934 0
M  V30 1456 C 134.313 -2.01424 4.81898 0
M  V30 1457 H 136.007 -0.89311 2.85769 0
M  V30 1458 H 133.553 -0.428177 1.37487 0
M  V30 1459 H 135.506 -3.31637 2.59991 0
M  V30 1460 H 134.23 -2.94386 1.41438 0
M  V30 1461 H 132.889 -1.78297 3.20321 0
M  V30 1462 H 132.537 -4.21597 2.74344 0
M  V30 1463 H 132.237 -3.82978 4.45648 0
M  V30 1464 H 133.761 -4.63101 3.97957 0
M  V30 1465 H 135.175 -2.64693 5.08538 0
M  V30 1466 H 133.572 -2.07413 5.63116 0
M  V30 1467 H 134.642 -0.967677 4.75146 0
M  V30 1468 N 135.985 -1.50799 -0.457987 0
M  V30 1469 C 136.895 -1.73426 -1.57989 0
M  V30 1470 C 137.911 -0.617745 -1.62665 0
M  V30 1471 O 139.087 -0.897614 -1.80291 0
M  V30 1472 C 136.152 -1.83557 -2.94122 0
M  V30 1473 C 135.213 -3.07345 -2.99729 0
M  V30 1474 C 134.446 -3.16983 -4.29368 0
M  V30 1475 O 134.669 -2.33077 -5.20607 0
M  V30 1476 O 133.603 -4.09812 -4.40837 0
M  V30 1477 H 137.429 -2.68555 -1.41817 0
M  V30 1478 H 135.014 -1.35052 -0.638859 0
M  V30 1479 H 136.896 -1.92326 -3.74952 0
M  V30 1480 H 135.571 -0.916137 -3.10465 0
M  V30 1481 H 134.478 -3.04068 -2.1793 0
M  V30 1482 H 135.811 -3.9891 -2.88326 0
M  V30 1483 N 137.463 0.71206 -1.40597 0
M  V30 1484 C 138.393 1.83889 -1.43899 0
M  V30 1485 C 139.374 1.67442 -0.299504 0
M  V30 1486 O 140.559 1.87421 -0.508624 0
M  V30 1487 C 137.689 3.21877 -1.30431 0
M  V30 1488 C 136.643 3.53002 -2.42019 0
M  V30 1489 C 135.969 4.90172 -2.13626 0
M  V30 1490 C 137.269 3.53643 -3.84362 0
M  V30 1491 H 138.963 1.81383 -2.38203 0
M  V30 1492 H 136.509 0.871237 -1.14654 0
M  V30 1493 H 138.462 4.00404 -1.31357 0
M  V30 1494 H 137.186 3.24968 -0.326049 0
M  V30 1495 H 135.845 2.76818 -2.40349 0
M  V30 1496 H 135.493 4.89869 -1.14182 0
M  V30 1497 H 135.193 5.11962 -2.88389 0
M  V30 1498 H 136.717 5.71028 -2.1624 0
M  V30 1499 H 138.131 4.22203 -3.87837 0
M  V30 1500 H 136.528 3.86961 -4.58673 0
M  V30 1501 H 137.598 2.52954 -4.13693 0
M  V30 1502 N 138.941 1.26152 0.944643 0
M  V30 1503 C 139.904 1.07474 2.0244 0
M  V30 1504 C 140.904 0.0242064 1.60782 0
M  V30 1505 O 142.094 0.267302 1.72137 0
M  V30 1506 C 139.226 0.633956 3.34953 0
M  V30 1507 H 140.419 2.03336 2.20442 0
M  V30 1508 H 137.972 1.087 1.12312 0
M  V30 1509 H 138.707 -0.326811 3.22649 0
M  V30 1510 H 138.492 1.39247 3.66542 0
M  V30 1511 H 139.982 0.52501 4.14287 0
M  V30 1512 N 140.419 -1.14872 1.07899 0
M  V30 1513 C 141.382 -2.17986 0.708161 0
M  V30 1514 C 142.382 -1.58775 -0.25442 0
M  V30 1515 O 143.572 -1.74166 -0.034645 0
M  V30 1516 C 140.704 -3.40871 0.0446929 0
M  V30 1517 H 141.897 -2.52306 1.62116 0
M  V30 1518 H 139.45 -1.2943 0.876218 0
M  V30 1519 H 140.185 -3.12124 -0.880281 0
M  V30 1520 H 139.97 -3.8511 0.737091 0
M  V30 1521 H 141.46 -4.17121 -0.19991 0
M  V30 1522 N 141.898 -0.863906 -1.31812 0
M  V30 1523 C 142.83 -0.272485 -2.27575 0
M  V30 1524 C 143.843 0.56104 -1.52827 0
M  V30 1525 O 145.032 0.384021 -1.7432 0
M  V30 1526 C 142.132 0.63283 -3.32939 0
M  V30 1527 C 141.305 -0.166902 -4.37081 0
M  V30 1528 C 140.364 0.665608 -5.21973 0
M  V30 1529 O 139.39 0.0958091 -5.69119 0
M  V30 1530 N 140.592 1.9787 -5.45736 0
M  V30 1531 H 143.357 -1.0954 -2.78964 0
M  V30 1532 H 140.918 -0.724791 -1.4477 0
M  V30 1533 H 142.91 1.19532 -3.86645 0
M  V30 1534 H 141.48 1.35642 -2.81638 0
M  V30 1535 H 140.7 -0.910838 -3.83533 0
M  V30 1536 H 141.988 -0.715874 -5.03739 0
M  V30 1537 H 141.386 2.46484 -5.09178 0
M  V30 1538 H 139.943 2.48911 -6.024 0
M  V30 1539 N 143.376 1.44774 -0.622745 0
M  V30 1540 C 144.622 2.0242 -0.124083 0
M  V30 1541 C 144.955 1.4881 1.24777 0
M  V30 1542 O 144.23 0.668799 1.8264 0
M  V30 1543 C 144.513 3.59957 -0.101619 0
M  V30 1544 C 144.366 4.23867 -1.50521 0
M  V30 1545 C 145.685 4.36284 0.578272 0
M  V30 1546 H 142.804 0.735528 -0.0465645 0
M  V30 1547 H 145.446 1.72447 -0.797617 0
M  V30 1548 H 143.596 3.85623 0.471934 0
M  V30 1549 H 145.268 4.09336 -2.12701 0
M  V30 1550 H 143.511 3.81684 -2.06154 0
M  V30 1551 H 144.182 5.32843 -1.4416 0
M  V30 1552 H 146.658 4.16001 0.0906057 0
M  V30 1553 H 145.534 5.46004 0.563149 0
M  V30 1554 H 145.795 4.10271 1.64713 0
M  V30 1555 N 144.854 0.36279 1.53368 0
M  V30 1556 C 145.784 -0.476976 2.28576 0
M  V30 1557 C 146.765 -1.08631 1.30894 0
M  V30 1558 O 147.95 -1.10409 1.59761 0
M  V30 1559 C 145.08 -1.61828 3.07293 0
M  V30 1560 C 144.034 -1.13633 4.1264 0
M  V30 1561 C 143.36 -2.36766 4.79423 0
M  V30 1562 C 144.66 -0.223061 5.21823 0
M  V30 1563 H 146.354 0.150474 2.99022 0
M  V30 1564 H 143.9 0.0738103 1.43811 0
M  V30 1565 H 145.853 -2.21237 3.58653 0
M  V30 1566 H 144.577 -2.27292 2.34533 0
M  V30 1567 H 143.236 -0.564945 3.62221 0
M  V30 1568 H 142.884 -3.0068 4.03238 0
M  V30 1569 H 142.584 -2.05192 5.50609 0
M  V30 1570 H 144.108 -2.96865 5.33576 0
M  V30 1571 H 145.522 -0.724545 5.68703 0
M  V30 1572 H 143.919 0.001678 6.001 0
M  V30 1573 H 144.989 0.735553 4.79289 0
M  V30 1574 N 146.332 -1.57332 0.0918853 0
M  V30 1575 C 147.242 -2.17368 -0.882505 0
M  V30 1576 C 148.258 -1.14226 -1.31257 0
M  V30 1577 O 149.434 -1.46582 -1.38115 0
M  V30 1578 C 146.499 -2.73962 -2.12476 0
M  V30 1579 C 145.56 -3.92048 -1.7492 0
M  V30 1580 C 144.793 -4.45933 -2.93223 0
M  V30 1581 O 145.016 -3.98764 -4.07852 0
M  V30 1582 O 143.95 -5.36999 -2.71875 0
M  V30 1583 H 147.776 -3.01031 -0.40172 0
M  V30 1584 H 145.361 -1.48813 -0.132291 0
M  V30 1585 H 147.243 -3.10147 -2.85283 0
M  V30 1586 H 145.918 -1.93347 -2.59613 0
M  V30 1587 H 144.825 -3.6068 -0.993025 0
M  V30 1588 H 146.158 -4.74017 -1.32548 0
M  V30 1589 N 147.81 0.181792 -1.56548 0
M  V30 1590 C 149.087 0.926765 -1.72251 0
M  V30 1591 C 149.467 2.00831 -0.650386 0
M  V30 1592 O 148.815 2.26008 0.336521 0
M  V30 1593 C 149.025 1.50106 -3.1507 0
M  V30 1594 C 150.373 1.97805 -3.75711 0
M  V30 1595 O 151.397 1.59922 -3.18282 0
M  V30 1596 O 150.256 2.67555 -4.76525 0
M  V30 1597 H 147.35 0.435506 -0.703039 0
M  V30 1598 H 149.896 0.170443 -1.68842 0
M  V30 1599 H 148.668 0.72212 -3.84579 0
M  V30 1600 H 148.291 2.32186 -3.22763 0
M  V30 1601 N 149.288 1.51039 0.449983 0
M  V30 1602 C 150.235 1.71439 1.54523 0
M  V30 1603 C 151.205 0.555871 1.56522 0
M  V30 1604 O 152.39 0.788871 1.73728 0
M  V30 1605 C 149.53 1.83384 2.92343 0
M  V30 1606 C 148.643 3.10873 2.9997 0
M  V30 1607 C 147.778 3.13488 4.28834 0
M  V30 1608 C 146.817 4.35343 4.30282 0
M  V30 1609 N 145.954 4.35579 5.5065 0
M  V30 1610 H 150.794 2.64934 1.36433 0
M  V30 1611 H 148.331 1.31312 0.662982 0
M  V30 1612 H 150.289 1.88291 3.72293 0
M  V30 1613 H 148.919 0.933086 3.0902 0
M  V30 1614 H 147.971 3.15336 2.12761 0
M  V30 1615 H 149.283 4.00814 2.96901 0
M  V30 1616 H 148.437 3.17241 5.17149 0
M  V30 1617 H 147.176 2.21414 4.34543 0
M  V30 1618 H 146.181 4.3178 3.40362 0
M  V30 1619 H 147.406 5.28668 4.26248 0
M  V30 1620 H 145.352 3.46369 5.57104 0
M  V30 1621 H 145.269 5.19313 5.49409 0
M  V30 1622 H 146.537 4.43507 6.41032 0
M  V30 1623 N 150.766 -0.704594 1.40972 0
M  V30 1624 C 152.014 -1.46169 1.39568 0
M  V30 1625 C 152.335 -1.95 0.00253745 0
M  V30 1626 O 151.605 -1.71095 -0.954114 0
M  V30 1627 H 150.185 -0.542326 0.513704 0
M  V30 1628 H 152.847 -0.834553 1.76128 0
M  V30 1629 H 151.943 -2.32922 2.07735 0
M  V30 1630 N 152.244 -1.26651 -0.937939 0
M  V30 1631 C 153.49 -1.12553 -1.687 0
M  V30 1632 C 153.823 0.329782 -1.91379 0
M  V30 1633 O 153.098 1.24202 -1.4968 0
M  V30 1634 C 153.381 -1.89862 -3.05981 0
M  V30 1635 C 153.234 -3.43318 -2.90607 0
M  V30 1636 C 154.553 -1.69499 -4.0615 0
M  V30 1637 H 151.672 -0.410257 -0.612257 0
M  V30 1638 H 154.314 -1.55685 -1.08913 0
M  V30 1639 H 152.464 -1.53204 -3.57017 0
M  V30 1640 H 154.136 -3.89747 -2.46769 0
M  V30 1641 H 152.379 -3.70179 -2.26164 0
M  V30 1642 H 153.05 -3.92642 -3.8799 0
M  V30 1643 H 155.526 -2.01442 -3.64088 0
M  V30 1644 H 154.402 -2.26002 -5.00214 0
M  V30 1645 H 154.663 -0.640365 -4.37438 0
M  V30 1646 N 153.722 1.14298 -1.08507 0
M  V30 1647 C 154.97 1.84993 -0.813763 0
M  V30 1648 C 155.291 1.83405 0.662393 0
M  V30 1649 O 154.561 1.28319 1.48024 0
M  V30 1650 H 153.141 0.684966 -0.298045 0
M  V30 1651 H 155.803 1.385 -1.37126 0
M  V30 1652 H 154.899 2.89788 -1.15884 0
M  V30 1653 N 155.201 0.870884 1.31352 0
M  V30 1654 C 156.448 0.482273 1.96673 0
M  V30 1655 C 156.776 -0.965638 1.68836 0
M  V30 1656 O 156.031 -1.69514 0.977937 0
M  V30 1657 C 156.33 0.687157 3.50732 0
M  V30 1658 C 155.996 2.108 3.9859 0
M  V30 1659 C 154.658 2.49656 4.1137 0
M  V30 1660 C 157.01 3.03459 4.23748 0
M  V30 1661 C 154.338 3.80412 4.46659 0
M  V30 1662 C 156.69 4.3373 4.60501 0
M  V30 1663 C 155.354 4.725 4.71487 0
M  V30 1664 H 154.624 0.176476 0.719679 0
M  V30 1665 H 157.271 1.10405 1.56471 0
M  V30 1666 H 155.576 -0.0177476 3.91796 0
M  V30 1667 H 157.273 0.366284 3.99324 0
M  V30 1668 H 153.863 1.79633 3.8914 0
M  V30 1669 H 158.047 2.74665 4.13368 0
M  V30 1670 H 153.303 4.1021 4.53362 0
M  V30 1671 H 157.477 5.05578 4.78919 0
M  V30 1672 H 155.104 5.73859 4.98588 0
M  V30 1673 N 156.679 -1.44442 0.630414 0
M  V30 1674 C 157.927 -2.01653 0.134351 0
M  V30 1675 C 158.248 -1.49836 -1.24796 0
M  V30 1676 O 157.518 -0.701684 -1.82902 0
M  V30 1677 H 156.098 -0.74554 0.0466769 0
M  V30 1678 H 158.76 -1.76952 0.816955 0
M  V30 1679 H 157.856 -3.11935 0.101498 0
M  V30 1680 N 158.157 -0.370918 -1.53173 0
M  V30 1681 C 159.087 0.464847 -2.28826 0
M  V30 1682 C 160.068 1.07936 -1.31468 0
M  V30 1683 O 161.253 1.0956 -1.60344 0
M  V30 1684 C 158.383 1.60196 -3.08147 0
M  V30 1685 C 157.337 1.11443 -4.13237 0
M  V30 1686 C 156.663 2.3422 -4.80672 0
M  V30 1687 C 157.963 0.195384 -5.21934 0
M  V30 1688 H 159.657 -0.166329 -2.98938 0
M  V30 1689 H 157.203 -0.0814359 -1.4377 0
M  V30 1690 H 159.156 2.19332 -3.59822 0
M  V30 1691 H 157.88 2.26045 -2.35735 0
M  V30 1692 H 156.539 0.545727 -3.62515 0
M  V30 1693 H 156.187 2.98537 -4.04827 0
M  V30 1694 H 155.887 2.02269 -5.51689 0
M  V30 1695 H 157.411 2.94032 -5.35143 0
M  V30 1696 H 158.825 0.694375 -5.69079 0
M  V30 1697 H 157.222 -0.0335027 -6.00091 0
M  V30 1698 H 158.292 -0.760961 -4.78892 0
M  V30 1699 N 159.635 1.57281 -0.100228 0
M  V30 1700 C 160.881 1.94826 0.563101 0
M  V30 1701 C 161.214 0.982475 1.67514 0
M  V30 1702 O 160.489 0.0164069 1.94493 0
M  V30 1703 C 160.772 3.42453 1.11346 0
M  V30 1704 C 160.625 4.498 0.00612081 0
M  V30 1705 C 161.944 3.91506 2.01024 0
M  V30 1706 H 159.063 0.708428 0.203221 0
M  V30 1707 H 161.705 1.8922 -0.171979 0
M  V30 1708 H 159.855 3.47361 1.7399 0
M  V30 1709 H 161.527 4.57 -0.628357 0
M  V30 1710 H 159.77 4.28756 -0.659581 0
M  V30 1711 H 160.441 5.50306 0.432109 0
M  V30 1712 H 162.917 3.88784 1.48278 0
M  V30 1713 H 161.793 4.95358 2.36457 0
M  V30 1714 H 162.054 3.31099 2.92961 0
M  V30 1715 N 161.113 -0.173488 1.56642 0
M  V30 1716 C 162.39 -0.917617 1.7274 0
M  V30 1717 C 162.77 -2.00484 0.661027 0
M  V30 1718 O 162.118 -2.26184 -0.32453 0
M  V30 1719 C 162.328 -1.48433 3.15862 0
M  V30 1720 C 163.676 -1.95809 3.76754 0
M  V30 1721 O 164.7 -1.58231 3.19126 0
M  V30 1722 O 163.559 -2.65024 4.77938 0
M  V30 1723 H 160.653 -0.431772 0.705338 0
M  V30 1724 H 163.199 -0.161487 1.6893 0
M  V30 1725 H 161.971 -0.701715 3.84957 0
M  V30 1726 H 161.594 -2.30471 3.23989 0
M  V30 1727 N 162.591 -1.51276 -0.441967 0
M  V30 1728 C 163.816 -1.67799 -1.21895 0
M  V30 1729 C 164.241 -0.372864 -1.84367 0
M  V30 1730 O 163.599 0.666501 -1.68604 0
M  V30 1731 C 163.647 -2.79199 -2.28211 0
M  V30 1732 O 162.751 -2.42479 -3.33583 0
M  V30 1733 H 162.092 -0.559649 -0.357336 0
M  V30 1734 H 164.622 -1.97815 -0.522522 0
M  V30 1735 H 164.632 -3.03146 -2.73069 0
M  V30 1736 H 163.307 -3.73906 -1.82118 0
M  V30 1737 H 161.884 -2.29087 -2.94234 0
M  V30 1738 N 164.069 0.697108 -1.41344 0
M  V30 1739 C 164.979 1.84088 -1.45427 0
M  V30 1740 C 165.995 1.70545 -0.34501 0
M  V30 1741 O 167.171 1.92488 -0.592492 0
M  V30 1742 C 164.236 3.20056 -1.33286 0
M  V30 1743 C 163.297 3.45718 -2.54514 0
M  V30 1744 C 162.53 4.75199 -2.42944 0
M  V30 1745 O 162.753 5.51579 -1.45318 0
M  V30 1746 O 161.687 5.0161 -3.32672 0
M  V30 1747 H 165.513 1.836 -2.41919 0
M  V30 1748 H 163.098 0.849966 -1.22866 0
M  V30 1749 H 164.98 4.01236 -1.28794 0
M  V30 1750 H 163.655 3.2123 -0.39909 0
M  V30 1751 H 162.562 2.64474 -2.64583 0
M  V30 1752 H 163.895 3.49356 -3.46715 0
M  V30 1753 N 165.547 1.27147 0.931209 0
M  V30 1754 C 166.494 1.09568 2.03134 0
M  V30 1755 C 167.464 -0.00222433 1.661 0
M  V30 1756 O 168.649 0.159439 1.90133 0
M  V30 1757 C 165.789 0.745231 3.36957 0
M  V30 1758 C 164.902 1.92041 3.86968 0
M  V30 1759 C 164.037 1.51216 5.09222 0
M  V30 1760 C 163.076 2.65504 5.5152 0
M  V30 1761 N 162.213 2.25291 6.64972 0
M  V30 1762 H 167.053 2.03708 2.17502 0
M  V30 1763 H 164.59 1.01411 1.06556 0
M  V30 1764 H 166.548 0.522878 4.1391 0
M  V30 1765 H 165.178 -0.159202 3.22407 0
M  V30 1766 H 164.23 2.25541 3.06326 0
M  V30 1767 H 165.542 2.77787 4.1429 0
M  V30 1768 H 164.696 1.25084 5.93666 0
M  V30 1769 H 163.435 0.625749 4.83669 0
M  V30 1770 H 162.44 2.92354 4.65628 0
M  V30 1771 H 163.665 3.54761 5.7907 0
M  V30 1772 H 161.611 1.39098 6.41083 0
M  V30 1773 H 161.528 3.04577 6.91931 0
M  V30 1774 H 162.796 2.02398 7.52765 0
M  V30 1775 N 167.025 -1.13721 1.09112 0
M  V30 1776 C 168.302 -1.81155 0.737706 0
M  V30 1777 C 168.682 -1.96253 -0.777683 0
M  V30 1778 O 168.03 -1.52807 -1.69889 0
M  V30 1779 C 168.24 -3.16392 1.47299 0
M  V30 1780 C 169.588 -3.91787 1.63671 0
M  V30 1781 O 170.612 -3.26005 1.43524 0
M  V30 1782 O 169.471 -5.0977 1.96969 0
M  V30 1783 H 166.565 -0.783518 0.26463 0
M  V30 1784 H 169.111 -1.20676 1.19312 0
M  V30 1785 H 167.883 -3.0061 2.50498 0
M  V30 1786 H 167.506 -3.8457 1.00953 0
M  V30 1787 N 168.503 -0.877838 -1.30888 0
M  V30 1788 C 169.466 -0.344265 -2.266 0
M  V30 1789 C 170.466 0.50922 -1.52524 0
M  V30 1790 O 171.656 0.317398 -1.71284 0
M  V30 1791 C 168.788 0.510198 -3.37061 0
M  V30 1792 H 169.981 -1.1893 -2.7531 0
M  V30 1793 H 167.534 -0.654088 -1.41956 0
M  V30 1794 H 168.269 1.37612 -2.93655 0
M  V30 1795 H 168.054 -0.101047 -3.9197 0
M  V30 1796 H 169.544 0.875537 -4.08319 0
M  V30 1797 N 169.982 1.44106 -0.638065 0
M  V30 1798 C 170.945 2.29138 0.0531013 0
M  V30 1799 C 171.945 1.41409 0.765506 0
M  V30 1800 O 173.135 1.63206 0.609046 0
M  V30 1801 C 170.267 3.23144 1.08584 0
M  V30 1802 H 171.46 2.91739 -0.694883 0
M  V30 1803 H 169.013 1.51134 -0.398538 0
M  V30 1804 H 169.748 2.65408 1.86357 0
M  V30 1805 H 169.533 3.87804 0.578852 0
M  V30 1806 H 171.023 3.87004 1.56899 0
M  V30 1807 N 171.46 0.379036 1.52974 0
M  V30 1808 C 172.706 -0.206727 2.01744 0
M  V30 1809 C 173.039 -1.47314 1.26539 0
M  V30 1810 O 172.314 -1.91084 0.362903 0
M  V30 1811 C 172.597 -0.485066 3.56818 0
M  V30 1812 C 172.45 0.795919 4.42702 0
M  V30 1813 C 173.769 -1.28003 4.21074 0
M  V30 1814 H 170.888 -0.0736607 0.73331 0
M  V30 1815 H 173.53 0.506581 1.83122 0
M  V30 1816 H 171.68 -1.09272 3.72816 0
M  V30 1817 H 173.352 1.43307 4.38476 0
M  V30 1818 H 171.595 1.41344 4.10127 0
M  V30 1819 H 172.266 0.555947 5.49193 0
M  V30 1820 H 174.742 -0.765867 4.08991 0
M  V30 1821 H 173.618 -1.44352 5.29579 0
M  V30 1822 H 173.879 -2.29236 3.78026 0
M  V30 1823 N 172.938 -1.57226 0.108567 0
M  V30 1824 C 173.901 -2.13602 -0.831082 0
M  V30 1825 C 174.901 -1.06841 -1.20173 0
M  V30 1826 O 176.091 -1.32666 -1.12895 0
M  V30 1827 C 173.223 -2.66769 -2.12243 0
M  V30 1828 H 174.416 -2.97951 -0.341317 0
M  V30 1829 H 171.969 -1.55667 -0.14057 0
M  V30 1830 H 172.704 -1.85977 -2.65675 0
M  V30 1831 H 172.489 -3.44839 -1.86625 0
M  V30 1832 H 173.979 -3.10332 -2.79435 0
M  V30 1833 N 174.416 0.165178 -1.56732 0
M  V30 1834 C 175.363 1.2044 -1.96883 0
M  V30 1835 C 176.333 1.43664 -0.833657 0
M  V30 1836 O 177.518 1.56302 -1.09427 0
M  V30 1837 C 174.658 2.53727 -2.33916 0
M  V30 1838 C 173.771 2.3783 -3.6064 0
M  V30 1839 C 172.906 3.64026 -3.86857 0
M  V30 1840 C 171.945 3.43088 -5.06909 0
M  V30 1841 N 171.082 4.61369 -5.29229 0
M  V30 1842 H 175.922 0.854996 -2.85471 0
M  V30 1843 H 173.459 0.41076 -1.41249 0
M  V30 1844 H 175.417 3.31419 -2.53411 0
M  V30 1845 H 174.047 2.8665 -1.48431 0
M  V30 1846 H 173.099 1.51282 -3.49024 0
M  V30 1847 H 174.411 2.18308 -4.4849 0
M  V30 1848 H 173.565 4.50152 -4.06753 0
M  V30 1849 H 172.304 3.86533 -2.97394 0
M  V30 1850 H 171.309 2.55349 -4.86906 0
M  V30 1851 H 172.534 3.21997 -5.97909 0
M  V30 1852 H 170.48 4.84084 -4.42718 0
M  V30 1853 H 170.397 4.44783 -6.11313 0
M  V30 1854 H 171.665 5.48761 -5.53608 0
M  V30 1855 N 175.894 1.51508 0.433938 0
M  V30 1856 C 176.841 1.73068 1.52696 0
M  V30 1857 C 177.811 0.572441 1.55924 0
M  V30 1858 O 178.996 0.807253 1.72882 0
M  V30 1859 C 176.136 1.86474 2.90381 0
M  V30 1860 C 175.249 3.14037 2.96656 0
M  V30 1861 C 174.384 3.18019 4.25485 0
M  V30 1862 C 173.423 4.39882 4.2564 0
M  V30 1863 N 172.56 4.41394 5.45999 0
M  V30 1864 H 177.4 2.66366 1.33615 0
M  V30 1865 H 174.937 1.32008 0.649018 0
M  V30 1866 H 176.895 1.92229 3.70275 0
M  V30 1867 H 175.525 0.965809 3.08013 0
M  V30 1868 H 174.577 3.17575 2.09404 0
M  V30 1869 H 175.889 4.0394 2.92633 0
M  V30 1870 H 175.043 3.22708 5.13755 0
M  V30 1871 H 173.782 2.2601 4.3217 0
M  V30 1872 H 172.787 4.35366 3.35763 0
M  V30 1873 H 174.012 5.33159 4.20617 0
M  V30 1874 H 171.958 3.52258 5.53399 0
M  V30 1875 H 171.875 5.25111 5.4387 0
M  V30 1876 H 173.143 4.50281 6.36292 0
M  V30 1877 N 177.372 -0.689602 1.41712 0
M  V30 1878 C 178.302 -1.81577 1.46806 0
M  V30 1879 C 179.283 -1.66945 0.326105 0
M  V30 1880 O 180.468 -1.86588 0.538377 0
M  V30 1881 C 177.598 -3.19762 1.35535 0
M  V30 1882 C 176.552 -3.49107 2.47605 0
M  V30 1883 C 175.878 -4.86711 2.21397 0
M  V30 1884 C 177.178 -3.47483 3.89939 0
M  V30 1885 H 178.872 -1.7757 2.41058 0
M  V30 1886 H 176.418 -0.852887 1.16025 0
M  V30 1887 H 178.371 -3.98263 1.3771 0
M  V30 1888 H 177.095 -3.24409 0.377708 0
M  V30 1889 H 175.754 -2.72959 2.44722 0
M  V30 1890 H 175.402 -4.8799 1.21961 0
M  V30 1891 H 175.102 -5.0731 2.96497 0
M  V30 1892 H 176.626 -5.67515 2.25297 0
M  V30 1893 H 178.04 -4.1598 3.94505 0
M  V30 1894 H 176.437 -3.79615 4.64771 0
M  V30 1895 H 177.507 -2.46341 4.17665 0
M  V30 1896 N 178.85 -1.27639 -0.924453 0
M  V30 1897 C 180.098 -1.13941 -1.66918 0
M  V30 1898 C 180.419 0.314589 -1.92446 0
M  V30 1899 O 179.689 1.21964 -1.53303 0
M  V30 1900 H 178.269 -0.418678 -0.618642 0
M  V30 1901 H 180.931 -1.60213 -1.10985 0
M  V30 1902 H 180.027 -1.67094 -2.63602 0
M  V30 1903 N 180.328 1.1314 -1.09713 0
M  V30 1904 C 181.258 2.20748 -0.761102 0
M  V30 1905 C 182.239 1.68061 0.262566 0
M  V30 1906 O 183.424 1.93765 0.129977 0
M  V30 1907 C 180.554 3.46812 -0.184054 0
M  V30 1908 C 179.508 4.12606 -1.13757 0
M  V30 1909 C 178.834 5.33031 -0.422083 0
M  V30 1910 C 180.134 4.59603 -2.48118 0
M  V30 1911 H 181.828 2.49113 -1.66082 0
M  V30 1912 H 179.374 1.19734 -0.799987 0
M  V30 1913 H 181.327 4.21353 0.0631215 0
M  V30 1914 H 180.051 3.17851 0.750868 0
M  V30 1915 H 178.71 3.40036 -1.37007 0
M  V30 1916 H 178.358 5.00335 0.517072 0
M  V30 1917 H 178.058 5.77999 -1.05788 0
M  V30 1918 H 179.582 6.10325 -0.183277 0
M  V30 1919 H 180.996 5.25552 -2.29059 0
M  V30 1920 H 179.393 5.15321 -3.07514 0
M  V30 1921 H 180.463 3.73971 -3.08665 0
M  V30 1922 N 181.806 0.884767 1.30421 0
M  V30 1923 C 183.034 0.518044 2.0031 0
M  V30 1924 C 183.449 -0.893408 1.66324 0
M  V30 1925 O 182.806 -1.5875 0.900262 0
M  V30 1926 C 182.857 0.682997 3.54989 0
M  V30 1927 O 182.578 2.03888 3.87764 0
M  V30 1928 C 184.079 0.31924 4.42149 0
M  V30 1929 H 181.299 0.200265 0.640418 0
M  V30 1930 H 183.843 1.19001 1.6631 0
M  V30 1931 H 181.998 0.0584052 3.87356 0
M  V30 1932 H 182.412 2.05735 4.82466 0
M  V30 1933 H 183.886 0.485555 5.4986 0
M  V30 1934 H 184.363 -0.742717 4.32875 0
M  V30 1935 H 184.969 0.920147 4.15227 0
M  V30 1936 N 183.284 -1.43765 0.645699 0
M  V30 1937 C 184.194 -2.34544 -0.0512957 0
M  V30 1938 C 185.21 -1.53455 -0.82022 0
M  V30 1939 O 186.386 -1.86133 -0.769176 0
M  V30 1940 C 183.451 -3.31636 -1.01087 0
M  V30 1941 C 182.512 -4.2863 -0.239712 0
M  V30 1942 C 181.745 -5.21084 -1.15358 0
M  V30 1943 O 181.968 -5.1779 -2.39269 0
M  V30 1944 O 180.902 -5.98593 -0.630038 0
M  V30 1945 H 184.728 -2.95624 0.695718 0
M  V30 1946 H 182.313 -1.43781 0.405882 0
M  V30 1947 H 184.195 -3.9136 -1.56254 0
M  V30 1948 H 182.87 -2.73069 -1.73824 0
M  V30 1949 H 181.777 -3.72408 0.355356 0
M  V30 1950 H 183.11 -4.90157 0.447936 0
M  V30 1951 N 184.763 -0.387143 -1.52771 0
M  V30 1952 C 186.009 0.196025 -2.0185 0
M  V30 1953 C 186.342 1.46641 -1.27319 0
M  V30 1954 O 185.617 1.90889 -0.373032 0
M  V30 1955 C 185.9 0.466136 -3.5707 0
M  V30 1956 C 185.753 -0.819385 -4.42274 0
M  V30 1957 C 187.072 1.25768 -4.21747 0
M  V30 1958 H 184.191 0.0697708 -0.73369 0
M  V30 1959 H 186.833 -0.516286 -1.82851 0
M  V30 1960 H 184.983 1.07293 -3.7339 0
M  V30 1961 H 186.655 -1.4563 -4.37709 0
M  V30 1962 H 184.898 -1.43517 -4.09372 0
M  V30 1963 H 185.569 -0.585065 -5.48891 0
M  V30 1964 H 188.045 0.744167 -4.09391 0
M  V30 1965 H 186.921 1.41541 -5.30337 0
M  V30 1966 H 187.182 2.27228 -3.79236 0
M  V30 1967 N 186.241 1.57166 -0.116904 0
M  V30 1968 C 187.518 1.86645 0.585049 0
M  V30 1969 C 187.898 1.0177 1.84949 0
M  V30 1970 O 187.246 0.0960379 2.28298 0
M  V30 1971 C 187.456 3.37736 0.879507 0
M  V30 1972 C 188.804 4.06289 1.23348 0
M  V30 1973 O 189.828 3.42743 0.969836 0
M  V30 1974 O 188.687 5.18455 1.7282 0
M  V30 1975 H 185.781 0.772593 0.295007 0
M  V30 1976 H 188.327 1.69025 -0.151249 0
M  V30 1977 H 187.099 3.91296 -0.0166136 0
M  V30 1978 H 186.722 3.6078 1.67103 0
M  V30 1979 N 187.719 -0.156864 1.56817 0
M  V30 1980 C 188.944 -0.890331 1.87318 0
M  V30 1981 C 189.369 -1.74394 0.704855 0
M  V30 1982 O 188.727 -1.77972 -0.345786 0
M  V30 1983 C 188.775 -1.73102 3.16336 0
M  V30 1984 O 187.879 -2.83422 2.99576 0
M  V30 1985 H 187.22 -0.24857 0.615718 0
M  V30 1986 H 189.75 -0.150649 2.04045 0
M  V30 1987 H 189.76 -2.12803 3.48107 0
M  V30 1988 H 188.435 -1.10412 4.00976 0
M  V30 1989 H 187.012 -2.47199 2.7919 0
M  V30 1990 N 189.197 -1.51736 -0.425897 0
M  V30 1991 C 190.13 -1.68574 -1.53812 0
M  V30 1992 C 191.108 -0.53328 -1.53606 0
M  V30 1993 O 192.292 -0.758555 -1.72564 0
M  V30 1994 C 189.419 -1.70977 -2.92377 0
M  V30 1995 C 188.465 -2.92324 -3.10563 0
M  V30 1996 S 189.298 -4.52952 -2.85648 0
M  V30 1997 C 190.454 -4.58117 -4.26474 0
M  V30 1998 H 190.687 -2.62647 -1.39298 0
M  V30 1999 H 188.22 -1.41564 -0.616361 0
M  V30 2000 H 190.178 -1.73047 -3.72243 0
M  V30 2001 H 188.839 -0.78061 -3.04245 0
M  V30 2002 H 188.032 -2.90439 -4.11899 0
M  V30 2003 H 187.634 -2.88055 -2.38538 0
M  V30 2004 H 189.926 -4.34462 -5.19855 0
M  V30 2005 H 190.869 -5.59983 -4.33388 0
M  V30 2006 H 191.277 -3.8732 -4.10662 0
M  V30 2007 N 190.675 0.682077 -1.42076 0
M  V30 2008 C 191.905 1.46844 -1.45329 0
M  V30 2009 C 192.313 1.89102 -0.0609328 0
M  V30 2010 O 191.656 1.58238 0.933082 0
M  V30 2011 C 191.718 2.75375 -2.31104 0
M  V30 2012 C 191.382 2.55238 -3.79081 0
M  V30 2013 C 192.379 2.20309 -4.70914 0
M  V30 2014 C 190.064 2.70459 -4.2327 0
M  V30 2015 C 192.058 2.00859 -6.04925 0
M  V30 2016 C 189.745 2.50624 -5.57343 0
M  V30 2017 C 190.743 2.15876 -6.47986 0
M  V30 2018 O 190.431 1.96227 -7.79583 0
M  V30 2019 H 190.163 0.4586 -0.496651 0
M  V30 2020 H 192.717 0.846131 -1.87162 0
M  V30 2021 H 190.947 3.40061 -1.84107 0
M  V30 2022 H 192.636 3.37231 -2.25898 0
M  V30 2023 H 193.402 2.08153 -4.38061 0
M  V30 2024 H 189.281 2.96485 -3.53012 0
M  V30 2025 H 192.825 1.7366 -6.75639 0
M  V30 2026 H 188.722 2.62375 -5.89771 0
M  V30 2027 H 189.49 2.10883 -7.90867 0
M  V30 2028 N 192.153 1.28127 0.917671 0
M  V30 2029 C 193.399 1.15223 1.66888 0
M  V30 2030 C 193.732 -0.299293 1.9188 0
M  V30 2031 O 193.007 -1.21805 1.51637 0
M  V30 2032 C 193.29 1.94706 3.02922 0
M  V30 2033 C 193.143 3.47898 2.85109 0
M  V30 2034 C 194.462 1.75939 4.03402 0
M  V30 2035 H 191.581 0.419946 0.605652 0
M  V30 2036 H 194.223 1.57398 1.06423 0
M  V30 2037 H 192.373 1.58864 3.54534 0
M  V30 2038 H 194.045 3.93624 2.40537 0
M  V30 2039 H 192.288 3.7373 2.20246 0
M  V30 2040 H 192.959 3.98765 3.81694 0
M  V30 2041 H 195.435 2.07209 3.60837 0
M  V30 2042 H 194.311 2.33931 4.96556 0
M  V30 2043 H 194.572 0.709877 4.36364 0
M  V30 2044 N 193.631 -1.12557 1.10312 0
M  V30 2045 C 194.878 -1.84038 0.844759 0
M  V30 2046 C 195.206 -1.84026 -0.629668 0
M  V30 2047 O 194.461 -1.28026 -1.48013 0
M  V30 2048 C 194.76 -3.31462 1.33669 0
M  V30 2049 C 194.426 -3.51647 2.82232 0
M  V30 2050 C 193.088 -3.56864 3.22802 0
M  V30 2051 C 195.44 -3.58867 3.77974 0
M  V30 2052 C 192.768 -3.66844 4.57867 0
M  V30 2053 C 195.12 -3.70375 5.1284 0
M  V30 2054 C 193.784 -3.73848 5.52986 0
M  V30 2055 H 193.054 -0.673444 0.309119 0
M  V30 2056 H 195.701 -1.32824 1.37949 0
M  V30 2057 H 194.006 -3.85091 0.721949 0
M  V30 2058 H 195.703 -3.85236 1.11329 0
M  V30 2059 H 192.293 -3.48249 2.49842 0
M  V30 2060 H 196.477 -3.54107 3.47738 0
M  V30 2061 H 191.733 -3.67804 4.88396 0
M  V30 2062 H 195.907 -3.74904 5.86873 0
M  V30 2063 H 193.534 -3.81333 6.57639 0
M  V30 2064 N 195.109 -0.891671 -1.2995 0
M  V30 2065 C 196.056 -0.361736 -2.27948 0
M  V30 2066 C 197.026 0.551761 -1.56668 0
M  V30 2067 O 198.211 0.478736 -1.84696 0
M  V30 2068 C 195.351 0.411825 -3.42634 0
M  V30 2069 C 194.464 -0.531651 -4.28716 0
M  V30 2070 C 193.599 0.258167 -5.30572 0
M  V30 2071 C 192.638 -0.680349 -6.08307 0
M  V30 2072 N 191.775 0.0745613 -7.0206 0
M  V30 2073 H 196.615 -1.20254 -2.72659 0
M  V30 2074 H 194.152 -0.604352 -1.34112 0
M  V30 2075 H 196.11 0.876304 -4.07893 0
M  V30 2076 H 194.74 1.21715 -2.98974 0
M  V30 2077 H 193.792 -1.11463 -3.63703 0
M  V30 2078 H 195.104 -1.25038 -4.82874 0
M  V30 2079 H 194.258 0.784204 -6.0161 0
M  V30 2080 H 192.997 1.01008 -4.77126 0
M  V30 2081 H 192.002 -1.21796 -5.3614 0
M  V30 2082 H 193.227 -1.43145 -6.63842 0
M  V30 2083 H 191.173 0.808883 -6.50994 0
M  V30 2084 H 191.09 -0.584409 -7.53738 0
M  V30 2085 H 192.358 0.581123 -7.77331 0
M  V30 2086 N 196.587 1.43421 -0.653314 0
M  V30 2087 C 197.835 2.01414 -0.166415 0
M  V30 2088 C 198.156 1.51803 1.22397 0
M  V30 2089 O 197.426 0.730693 1.81763 0
M  V30 2090 H 196.006 0.744703 -0.0585319 0
M  V30 2091 H 198.668 1.75629 -0.845003 0
M  V30 2092 H 197.764 3.11734 -0.151111 0
M  V30 2093 N 198.065 0.39524 1.52563 0
M  V30 2094 C 199.342 -0.242908 1.94086 0
M  V30 2095 C 199.722 -1.63841 1.33114 0
M  V30 2096 O 199.07 -2.22928 0.501529 0
M  V30 2097 C 199.28 -0.26327 3.48006 0
M  V30 2098 C 200.628 -0.489354 4.21771 0
M  V30 2099 O 201.652 -0.343226 3.54543 0
M  V30 2100 O 200.511 -0.776169 5.4096 0
M  V30 2101 H 197.605 -0.152536 0.812811 0
M  V30 2102 H 200.151 0.450178 1.6362 0
M  V30 2103 H 198.923 0.713985 3.84731 0
M  V30 2104 H 198.546 -1.00103 3.84792 0
M  V30 2105 N 199.544 -1.57102 0.125237 0
M  V30 2106 C 200.454 -2.19191 -0.8362 0
M  V30 2107 C 201.47 -1.16985 -1.28805 0
M  V30 2108 O 202.646 -1.49479 -1.34974 0
M  V30 2109 C 199.711 -2.78407 -2.06617 0
M  V30 2110 C 198.772 -3.9567 -1.66565 0
M  V30 2111 C 198.005 -4.52052 -2.83698 0
M  V30 2112 O 198.228 -4.07326 -3.99302 0
M  V30 2113 O 197.162 -5.42645 -2.60423 0
M  V30 2114 H 200.988 -3.01816 -0.337776 0
M  V30 2115 H 198.573 -1.4906 -0.100695 0
M  V30 2116 H 200.455 -3.16129 -2.7864 0
M  V30 2117 H 199.13 -1.9881 -2.55453 0
M  V30 2118 H 198.037 -3.62705 -0.916296 0
M  V30 2119 H 199.37 -4.76722 -1.22464 0
M  V30 2120 N 201.022 0.148545 -1.56898 0
M  V30 2121 C 202.268 0.862694 -1.83536 0
M  V30 2122 C 202.601 1.80889 -0.706604 0
M  V30 2123 O 201.876 1.92328 0.289885 0
M  V30 2124 C 202.159 1.63853 -3.20662 0
M  V30 2125 C 202.012 0.713925 -4.44098 0
M  V30 2126 C 203.331 2.60133 -3.54991 0
M  V30 2127 H 200.45 0.312179 -0.667618 0
M  V30 2128 H 203.092 0.127953 -1.89569 0
M  V30 2129 H 201.242 2.26489 -3.1565 0
M  V30 2130 H 202.914 0.098686 -4.61194 0
M  V30 2131 H 201.157 0.0234019 -4.33794 0
M  V30 2132 H 201.828 1.29278 -5.36648 0
M  V30 2133 H 204.304 2.07616 -3.60603 0
M  V30 2134 H 203.18 3.11468 -4.51972 0
M  V30 2135 H 203.441 3.41417 -2.80868 0
M  V30 2136 N 202.5 1.5196 0.417844 0
M  V30 2137 C 203.749 1.6482 1.16264 0
M  V30 2138 C 204.062 0.379886 1.91876 0
M  V30 2139 O 205.268 0.388154 2.68711 0
M  V30 2140 C 203.724 2.91161 2.1155 0
M  V30 2141 C 203.332 4.25068 1.41495 0
M  V30 2142 C 205.076 3.13383 2.86341 0
M  V30 2143 C 202.983 5.42541 2.35379 0
M  V30 2144 H 201.913 0.613954 0.437694 0
M  V30 2145 H 204.564 1.78442 0.427871 0
M  V30 2146 H 202.946 2.71218 2.88543 0
M  V30 2147 H 204.12 4.55463 0.699263 0
M  V30 2148 H 202.435 4.0888 0.787792 0
M  V30 2149 H 205.032 3.98324 3.5671 0
M  V30 2150 H 205.375 2.27256 3.48798 0
M  V30 2151 H 205.908 3.33757 2.1645 0
M  V30 2152 H 202.647 6.30987 1.77582 0
M  V30 2153 H 202.167 5.16497 3.04945 0
M  V30 2154 H 203.846 5.75272 2.96093 0
M  V30 2155 N 203.978 -0.674533 1.42435 0
M  V30 2156 C 204.888 -1.81751 1.48337 0
M  V30 2157 C 205.904 -1.69975 0.372099 0
M  V30 2158 O 207.08 -1.91521 0.62304 0
M  V30 2159 C 204.145 -3.17895 1.38361 0
M  V30 2160 C 203.206 -3.41625 2.59982 0
M  V30 2161 C 202.439 -4.71274 2.50473 0
M  V30 2162 O 202.662 -5.49197 1.54075 0
M  V30 2163 O 201.596 -4.96254 3.4061 0
M  V30 2164 H 205.422 -1.79728 2.44809 0
M  V30 2165 H 203.007 -0.830312 1.24202 0
M  V30 2166 H 204.889 -3.99136 1.35161 0
M  V30 2167 H 203.564 -3.20555 0.450144 0
M  V30 2168 H 202.471 -2.60231 2.68757 0
M  V30 2169 H 203.804 -3.43796 3.52229 0
M  V30 2170 N 205.456 -1.28612 -0.910864 0
M  V30 2171 C 206.686 -1.1862 -1.69153 0
M  V30 2172 C 207.094 0.257324 -1.87442 0
M  V30 2173 O 206.437 1.18543 -1.40332 0
M  V30 2174 C 206.499 -1.81606 -3.10257 0
M  V30 2175 C 206.163 -3.30864 -3.15243 0
M  V30 2176 C 207.16 -4.27256 -2.96223 0
M  V30 2177 C 204.845 -3.71871 -3.37664 0
M  V30 2178 C 206.839 -5.62631 -2.99541 0
M  V30 2179 C 204.526 -5.07371 -3.40614 0
M  V30 2180 C 205.524 -6.02561 -3.21573 0
M  V30 2181 O 205.212 -7.35589 -3.2429 0
M  V30 2182 H 204.944 -0.412633 -0.535453 0
M  V30 2183 H 207.498 -1.70306 -1.14827 0
M  V30 2184 H 205.728 -1.24418 -3.66138 0
M  V30 2185 H 207.417 -1.66092 -3.70362 0
M  V30 2186 H 208.183 -3.9691 -2.78725 0
M  V30 2187 H 204.062 -2.98241 -3.5153 0
M  V30 2188 H 207.606 -6.36907 -2.84597 0
M  V30 2189 H 203.503 -5.37366 -3.57642 0
M  V30 2190 H 204.271 -7.44252 -3.40633 0
M  V30 2191 N 206.934 1.1197 -1.10907 0
M  V30 2192 C 208.211 1.79959 -0.766432 0
M  V30 2193 C 208.591 1.97466 0.746363 0
M  V30 2194 O 207.939 1.55491 1.67436 0
M  V30 2195 C 208.149 3.14009 -1.52314 0
M  V30 2196 C 209.497 3.89134 -1.69883 0
M  V30 2197 O 210.521 3.2368 -1.48692 0
M  V30 2198 O 209.38 5.06572 -2.05054 0
M  V30 2199 H 206.474 0.779208 -0.277062 0
M  V30 2200 H 209.02 1.18762 -1.21217 0
M  V30 2201 H 207.792 2.96587 -2.55249 0
M  V30 2202 H 207.415 3.82915 -1.07059 0
M  V30 2203 N 208.412 0.89855 1.29475 0
M  V30 2204 C 209.66 0.522847 1.9522 0
M  V30 2205 C 209.981 -0.93371 1.71192 0
M  V30 2206 O 209.251 -1.65823 1.04305 0
M  V30 2207 H 207.831 0.190366 0.722336 0
M  V30 2208 H 210.493 1.14459 1.5775 0
M  V30 2209 H 209.589 0.704476 3.04045 0
M  V30 2210 N 209.89 -1.43072 0.660911 0
M  V30 2211 C 210.8 -2.34585 -0.0264163 0
M  V30 2212 C 211.816 -1.54316 -0.803898 0
M  V30 2213 O 212.992 -1.86939 -0.749391 0
M  V30 2214 C 210.057 -3.32689 -0.975639 0
M  V30 2215 C 209.118 -4.2886 -0.194236 0
M  V30 2216 C 208.351 -5.22278 -1.09825 0
M  V30 2217 O 208.574 -5.20299 -2.33763 0
M  V30 2218 O 207.508 -5.99228 -0.566513 0
M  V30 2219 H 211.334 -2.94869 0.727034 0
M  V30 2220 H 208.919 -1.43342 0.42111 0
M  V30 2221 H 210.801 -3.92995 -1.52094 0
M  V30 2222 H 209.476 -2.74898 -1.70918 0
M  V30 2223 H 208.383 -3.72011 0.394835 0
M  V30 2224 H 209.716 -4.89655 0.499899 0
M  V30 2225 N 211.368 -0.403325 -1.52352 0
M  V30 2226 C 212.615 0.174347 -2.01748 0
M  V30 2227 C 212.943 1.45636 -1.2892 0
M  V30 2228 O 212.198 1.9193 -0.382258 0
M  V30 2229 C 212.497 0.474665 -3.54234 0
M  V30 2230 C 212.163 -0.717458 -4.45155 0
M  V30 2231 C 210.825 -1.04447 -4.69728 0
M  V30 2232 C 213.177 -1.51432 -4.98716 0
M  V30 2233 C 210.505 -2.16963 -5.45109 0
M  V30 2234 C 212.857 -2.6302 -5.75329 0
M  V30 2235 C 211.521 -2.96213 -5.98175 0
M  V30 2236 H 210.791 0.0637981 -0.738248 0
M  V30 2237 H 213.438 -0.543553 -1.83624 0
M  V30 2238 H 211.743 1.27406 -3.70506 0
M  V30 2239 H 213.44 0.934496 -3.89959 0
M  V30 2240 H 210.03 -0.452596 -4.26204 0
M  V30 2241 H 214.214 -1.27491 -4.79645 0
M  V30 2242 H 209.47 -2.43034 -5.61021 0
M  V30 2243 H 213.644 -3.25158 -6.15829 0
M  V30 2244 H 211.271 -3.83516 -6.56368 0
M  V30 2245 N 212.846 1.57033 -0.133567 0
M  V30 2246 C 214.071 2.00475 0.531477 0
M  V30 2247 C 214.496 1.01291 1.58499 0
M  V30 2248 O 213.854 -0.0133279 1.81295 0
M  V30 2249 C 213.902 3.42729 1.12113 0
M  V30 2250 O 213.006 3.46498 2.23636 0
M  V30 2251 H 212.347 0.650876 0.131362 0
M  V30 2252 H 214.877 2.03344 -0.22634 0
M  V30 2253 H 214.887 3.81246 1.4531 0
M  V30 2254 H 213.562 4.14428 0.349557 0
M  V30 2255 H 212.139 3.19811 1.91769 0
M  V30 2256 N 214.325 -0.140222 1.56975 0
M  V30 2257 C 215.288 -1.15689 1.97861 0
M  V30 2258 C 216.288 -1.3549 0.865974 0
M  V30 2259 O 217.478 -1.32367 1.13246 0
M  V30 2260 C 214.61 -2.51582 2.30042 0
M  V30 2261 H 215.803 -0.805971 2.88867 0
M  V30 2262 H 213.356 -0.383801 1.51515 0
M  V30 2263 H 214.091 -2.91632 1.41849 0
M  V30 2264 H 213.876 -2.38569 3.11171 0
M  V30 2265 H 215.366 -3.24792 2.62488 0
M  V30 2266 N 215.803 -1.52179 -0.40978 0
M  V30 2267 C 217.08 -1.56769 -1.16974 0
M  V30 2268 C 217.46 -0.348322 -2.08206 0
M  V30 2269 O 216.808 0.664862 -2.18613 0
M  V30 2270 C 217.018 -2.89603 -1.9476 0
M  V30 2271 C 218.366 -3.42579 -2.50849 0
M  V30 2272 O 219.39 -2.91338 -2.04941 0
M  V30 2273 O 218.249 -4.32054 -3.34652 0
M  V30 2274 H 215.343 -0.631439 -0.534054 0
M  V30 2275 H 217.889 -1.64507 -0.416613 0
M  V30 2276 H 216.661 -3.698 -1.27921 0
M  V30 2277 H 216.284 -2.85155 -2.77079 0
M  V30 2278 N 217.281 0.66697 -1.42791 0
M  V30 2279 C 218.509 1.45505 -1.47091 0
M  V30 2280 C 218.924 1.8861 -0.0845873 0
M  V30 2281 O 218.281 1.58632 0.90234 0
M  V30 2282 C 218.332 2.69906 -2.40485 0
M  V30 2283 O 218.053 2.28608 -3.73725 0
M  V30 2284 C 219.554 3.63396 -2.53886 0
M  V30 2285 H 216.774 0.447459 -0.500022 0
M  V30 2286 H 219.318 0.818866 -1.8739 0
M  V30 2287 H 217.473 3.29696 -2.03419 0
M  V30 2288 H 217.887 3.08997 -4.23817 0
M  V30 2289 H 219.361 4.47387 -3.2334 0
M  V30 2290 H 219.838 4.09824 -1.57927 0
M  V30 2291 H 220.444 3.09495 -2.91706 0
M  V30 2292 N 218.759 1.29093 0.90403 0
M  V30 2293 C 220.008 1.16187 1.64874 0
M  V30 2294 C 220.321 -0.286742 1.93487 0
M  V30 2295 O 221.527 -0.537062 2.66135 0
M  V30 2296 C 219.983 2.03177 2.97064 0
M  V30 2297 C 219.591 3.52836 2.76062 0
M  V30 2298 C 221.335 1.98984 3.74974 0
M  V30 2299 C 219.242 4.31945 4.03952 0
M  V30 2300 H 218.172 0.431246 0.618501 0
M  V30 2301 H 220.823 1.53699 1.00243 0
M  V30 2302 H 219.205 1.5853 3.62883 0
M  V30 2303 H 220.379 4.05507 2.18863 0
M  V30 2304 H 218.694 3.58656 2.11553 0
M  V30 2305 H 221.291 2.55351 4.69787 0
M  V30 2306 H 221.634 0.968815 4.0487 0
M  V30 2307 H 222.167 2.41652 3.15989 0
M  V30 2308 H 218.906 5.34667 3.79225 0
M  V30 2309 H 218.426 3.84045 4.60727 0
M  V30 2310 H 220.105 4.42379 4.72133 0
M  V30 2311 N 220.237 -1.11381 1.11499 0
M  V30 2312 C 221.483 -1.83403 0.865512 0
M  V30 2313 C 221.816 -1.84459 -0.607329 0
M  V30 2314 O 221.091 -1.29811 -1.44842 0
M  V30 2315 C 221.374 -3.30552 1.42855 0
M  V30 2316 C 221.227 -3.37886 2.96906 0
M  V30 2317 C 222.546 -4.26643 1.08 0
M  V30 2318 H 219.665 -0.665879 0.31587 0
M  V30 2319 H 222.307 -1.30601 1.37998 0
M  V30 2320 H 220.457 -3.75648 0.990985 0
M  V30 2321 H 222.129 -3.01343 3.49271 0
M  V30 2322 H 220.372 -2.78088 3.32941 0
M  V30 2323 H 221.043 -4.41458 3.31389 0
M  V30 2324 H 223.519 -3.89729 1.45775 0
M  V30 2325 H 222.395 -5.27986 1.50072 0
M  V30 2326 H 222.656 -4.42099 -0.00915037 0
M  V30 2327 N 221.715 -0.905404 -1.28997 0
M  V30 2328 C 222.625 -0.392246 -2.31298 0
M  V30 2329 C 223.641 0.515889 -1.66176 0
M  V30 2330 O 224.817 0.404093 -1.97304 0
M  V30 2331 C 221.882 0.36686 -3.44754 0
M  V30 2332 C 220.943 -0.573485 -4.25452 0
M  V30 2333 C 220.176 0.149488 -5.33491 0
M  V30 2334 O 220.399 1.37255 -5.5364 0
M  V30 2335 O 219.333 -0.510919 -5.99728 0
M  V30 2336 H 223.159 -1.2411 -2.77183 0
M  V30 2337 H 220.744 -0.669926 -1.33538 0
M  V30 2338 H 222.626 0.795907 -4.13816 0
M  V30 2339 H 221.301 1.19169 -3.00966 0
M  V30 2340 H 220.208 -1.05176 -3.59011 0
M  V30 2341 H 221.541 -1.36489 -4.72897 0
M  V30 2342 N 223.193 1.4272 -0.668489 0
M  V30 2343 C 224.44 2.01624 -0.18814 0
M  V30 2344 C 224.768 1.5282 1.20317 0
M  V30 2345 O 224.023 0.718323 1.8204 0
M  V30 2346 C 224.322 3.57021 -0.164499 0
M  V30 2347 C 223.988 4.25232 -1.49962 0
M  V30 2348 C 222.65 4.4358 -1.8652 0
M  V30 2349 C 225.002 4.63727 -2.37921 0
M  V30 2350 C 222.33 4.97694 -3.10674 0
M  V30 2351 C 224.682 5.19218 -3.6138 0
M  V30 2352 C 223.346 5.3578 -3.98115 0
M  V30 2353 H 222.616 0.737795 -0.0688454 0
M  V30 2354 H 225.263 1.70991 -0.862225 0
M  V30 2355 H 223.568 3.87285 0.593079 0
M  V30 2356 H 225.265 4.00372 0.224271 0
M  V30 2357 H 221.855 4.11306 -1.20522 0
M  V30 2358 H 226.039 4.4923 -2.10964 0
M  V30 2359 H 221.295 5.08702 -3.39164 0
M  V30 2360 H 225.469 5.4799 -4.29743 0
M  V30 2361 H 223.096 5.77475 -4.94395 0
M  V30 2362 N 224.671 0.411399 1.52136 0
M  V30 2363 C 225.601 -0.404015 2.29978 0
M  V30 2364 C 226.582 -1.04412 1.34284 0
M  V30 2365 O 227.767 -1.0527 1.63192 0
M  V30 2366 C 224.897 -1.5197 3.12286 0
M  V30 2367 C 223.851 -1.00448 4.16046 0
M  V30 2368 C 223.177 -2.21393 4.86712 0
M  V30 2369 C 224.477 -0.0569336 5.22269 0
M  V30 2370 H 226.171 0.245529 2.98392 0
M  V30 2371 H 223.717 0.119525 1.43503 0
M  V30 2372 H 225.67 -2.09715 3.6551 0
M  V30 2373 H 224.394 -2.19716 2.41646 0
M  V30 2374 H 223.053 -0.449421 3.63835 0
M  V30 2375 H 222.701 -2.87699 4.12599 0
M  V30 2376 H 222.401 -1.87571 5.56858 0
M  V30 2377 H 223.925 -2.7974 5.4275 0
M  V30 2378 H 225.339 -0.54325 5.7072 0
M  V30 2379 H 223.736 0.192594 5.99791 0
M  V30 2380 H 224.806 0.887663 4.76706 0
M  V30 2381 N 226.149 -1.5696 0.141893 0
M  V30 2382 C 227.079 -2.19516 -0.795936 0
M  V30 2383 C 228.06 -1.14187 -1.26077 0
M  V30 2384 O 229.245 -1.42511 -1.31925 0
M  V30 2385 C 226.375 -2.81272 -2.03723 0
M  V30 2386 C 225.329 -3.92384 -1.70936 0
M  V30 2387 C 224.655 -4.41052 -3.02287 0
M  V30 2388 C 225.955 -5.13403 -0.959954 0
M  V30 2389 H 227.649 -2.98138 -0.274596 0
M  V30 2390 H 225.195 -1.43406 -0.130636 0
M  V30 2391 H 227.148 -3.237 -2.69808 0
M  V30 2392 H 225.872 -1.99973 -2.58221 0
M  V30 2393 H 224.531 -3.50566 -1.07232 0
M  V30 2394 H 224.179 -3.56582 -3.54765 0
M  V30 2395 H 223.879 -5.15993 -2.81114 0
M  V30 2396 H 225.403 -4.86146 -3.69451 0
M  V30 2397 H 226.817 -5.52706 -1.52279 0
M  V30 2398 H 225.214 -5.94073 -0.848357 0
M  V30 2399 H 226.284 -4.84875 0.0492434 0
M  V30 2400 N 227.627 0.131896 -1.57047 0
M  V30 2401 C 228.904 0.871495 -1.75112 0
M  V30 2402 C 229.284 1.9866 -0.713949 0
M  V30 2403 O 228.632 2.26965 0.264447 0
M  V30 2404 C 228.842 1.40007 -3.19686 0
M  V30 2405 C 230.19 1.85752 -3.81813 0
M  V30 2406 O 231.214 1.49715 -3.23209 0
M  V30 2407 O 230.073 2.5226 -4.84796 0
M  V30 2408 H 227.167 0.412919 -0.716538 0
M  V30 2409 H 229.713 0.116641 -1.69299 0
M  V30 2410 H 228.485 0.599404 -3.86682 0
M  V30 2411 H 228.108 2.218 -3.29986 0
M  V30 2412 N 229.106 1.52395 0.401703 0
M  V30 2413 C 230.352 1.67065 1.14966 0
M  V30 2414 C 230.685 0.403052 1.89971 0
M  V30 2415 O 229.96 -0.598774 1.85054 0
M  V30 2416 C 230.243 2.8975 2.13815 0
M  V30 2417 C 230.096 4.26578 1.42658 0
M  V30 2418 C 231.415 3.07965 3.14397 0
M  V30 2419 H 228.534 0.607968 0.416587 0
M  V30 2420 H 231.176 1.84965 0.434511 0
M  V30 2421 H 229.326 2.74619 2.74803 0
M  V30 2422 H 230.998 4.53451 0.847329 0
M  V30 2423 H 229.241 4.27639 0.72849 0
M  V30 2424 H 229.912 5.08483 2.14823 0
M  V30 2425 H 232.388 3.22043 2.63491 0
M  V30 2426 H 231.264 3.95308 3.80819 0
M  V30 2427 H 231.525 2.21611 3.82545 0
M  V30 2428 N 230.584 -0.659388 1.43143 0
M  V30 2429 C 231.514 -1.78422 1.50625 0
M  V30 2430 C 232.495 -1.66216 0.361443 0
M  V30 2431 O 233.68 -1.85404 0.577834 0
M  V30 2432 C 230.81 -3.16815 1.42287 0
M  V30 2433 C 229.764 -3.43777 2.54954 0
M  V30 2434 C 229.09 -4.81905 2.31671 0
M  V30 2435 C 230.39 -3.39134 3.97222 0
M  V30 2436 H 232.084 -1.72417 2.44771 0
M  V30 2437 H 229.63 -0.828084 1.17808 0
M  V30 2438 H 231.583 -3.95253 1.46127 0
M  V30 2439 H 230.307 -3.23534 0.446435 0
M  V30 2440 H 228.966 -2.67707 2.50457 0
M  V30 2441 H 228.614 -4.85294 1.32284 0
M  V30 2442 H 228.314 -5.00906 3.07192 0
M  V30 2443 H 229.838 -5.62609 2.37284 0
M  V30 2444 H 231.252 -4.07518 4.03239 0
M  V30 2445 H 229.649 -3.69671 4.72719 0
M  V30 2446 H 230.719 -2.37426 4.22797 0
M  V30 2447 N 232.062 -1.29571 -0.897171 0
M  V30 2448 C 232.972 -1.16808 -2.03453 0
M  V30 2449 C 233.988 -0.0907471 -1.73763 0
M  V30 2450 O 235.164 -0.303312 -1.99103 0
M  V30 2451 C 232.229 -0.848264 -3.36163 0
M  V30 2452 C 231.29 -2.0097 -3.79354 0
M  V30 2453 C 230.523 -1.70505 -5.05731 0
M  V30 2454 O 230.746 -0.62718 -5.66941 0
M  V30 2455 O 229.68 -2.5538 -5.45036 0
M  V30 2456 H 233.506 -2.12325 -2.17144 0
M  V30 2457 H 231.091 -1.09047 -1.02123 0
M  V30 2458 H 232.973 -0.684581 -4.15802 0
M  V30 2459 H 231.648 0.0771071 -3.23608 0
M  V30 2460 H 230.555 -2.22863 -3.00471 0
M  V30 2461 H 231.888 -2.91636 -3.96496 0
M  V30 2462 N 233.54 1.10788 -1.12088 0
M  V30 2463 C 234.817 1.79136 -0.785476 0
M  V30 2464 C 235.197 1.98246 0.725377 0
M  V30 2465 O 234.545 1.57258 1.65778 0
M  V30 2466 C 234.755 3.12375 -1.55636 0
M  V30 2467 C 236.103 3.8731 -1.74001 0
M  V30 2468 O 237.127 3.22085 -1.52117 0
M  V30 2469 O 235.986 5.04369 -2.10415 0
M  V30 2470 H 233.08 0.776226 -0.285311 0
M  V30 2471 H 235.626 1.1747 -1.2247 0
M  V30 2472 H 234.398 2.93863 -2.5838 0
M  V30 2473 H 234.021 3.81758 -1.11114 0
M  V30 2474 N 235.018 0.912232 1.28515 0
M  V30 2475 C 236.429 0.591352 1.77087 0
M  V30 2476 C 236.78 -0.8933 1.74684 0
M  V30 2477 O 235.905 -1.69876 1.34056 0
M  V30 2478 C 236.5 1.06668 3.2157 0
M  V30 2479 C 235.059 0.79675 3.67871 0
M  V30 2480 C 234.206 1.23427 2.48316 0
M  V30 2481 H 237.157 1.09365 1.15 0
M  V30 2482 H 237.178 0.407455 3.78312 0
M  V30 2483 H 236.69 2.14726 3.23287 0
M  V30 2484 H 234.791 -0.270679 3.71616 0
M  V30 2485 H 234.904 1.40343 4.58084 0
M  V30 2486 H 233.268 0.653036 2.46186 0
M  V30 2487 H 234.051 2.32316 2.52753 0
M  V30 2488 N 236.496 -1.42363 0.676048 0
M  V30 2489 C 237.742 -2.0182 0.199125 0
M  V30 2490 C 238.075 -1.53339 -1.19168 0
M  V30 2491 O 237.35 -0.736124 -1.80032 0
M  V30 2492 C 237.633 -3.59331 0.235144 0
M  V30 2493 C 237.486 -4.17989 1.66149 0
M  V30 2494 C 238.805 -4.3813 -0.41595 0
M  V30 2495 H 235.924 -0.733293 0.0738311 0
M  V30 2496 H 238.566 -1.69368 0.86107 0
M  V30 2497 H 236.716 -3.87109 -0.328487 0
M  V30 2498 H 238.388 -4.0116 2.27747 0
M  V30 2499 H 236.631 -3.7377 2.20178 0
M  V30 2500 H 237.302 -5.27126 1.63837 0
M  V30 2501 H 239.778 -4.16051 0.0638529 0
M  V30 2502 H 238.654 -5.47717 -0.360115 0
M  V30 2503 H 238.915 -4.16101 -1.49373 0
M  V30 2504 N 237.974 -0.419461 -1.51915 0
M  V30 2505 C 238.884 0.407528 -2.31033 0
M  V30 2506 C 239.9 1.04413 -1.3919 0
M  V30 2507 O 241.076 1.0434 -1.72265 0
M  V30 2508 C 238.141 1.50365 -3.12396 0
M  V30 2509 C 237.202 0.889029 -4.19994 0
M  V30 2510 C 236.435 1.93291 -4.97468 0
M  V30 2511 O 236.658 3.15259 -4.75361 0
M  V30 2512 O 235.592 1.53339 -5.8204 0
M  V30 2513 H 239.418 -0.237865 -3.02767 0
M  V30 2514 H 237.003 -0.182413 -1.48282 0
M  V30 2515 H 238.885 2.13975 -3.63032 0
M  V30 2516 H 237.56 2.13345 -2.43445 0
M  V30 2517 H 236.467 0.215353 -3.7348 0
M  V30 2518 H 237.8 0.302991 -4.91267 0
M  V30 2519 N 239.452 1.56882 -0.150215 0
M  V30 2520 C 240.382 2.19935 0.784284 0
M  V30 2521 C 241.363 1.14854 1.25469 0
M  V30 2522 O 242.548 1.43209 1.31168 0
M  V30 2523 C 239.678 2.82349 2.02229 0
M  V30 2524 C 238.632 3.93285 1.68853 0
M  V30 2525 C 237.958 4.42649 2.99944 0
M  V30 2526 C 239.258 5.13904 0.932714 0
M  V30 2527 H 240.952 2.9828 0.258781 0
M  V30 2528 H 238.498 1.43473 0.123029 0
M  V30 2529 H 240.451 3.25126 2.68088 0
M  V30 2530 H 239.175 2.0134 2.57157 0
M  V30 2531 H 237.834 3.5113 1.05371 0
M  V30 2532 H 237.482 3.58458 3.52869 0
M  V30 2533 H 237.182 5.17476 2.78374 0
M  V30 2534 H 238.706 4.88099 3.66868 0
M  V30 2535 H 240.12 5.53506 1.49345 0
M  V30 2536 H 238.517 5.94515 0.81684 0
M  V30 2537 H 239.587 4.84842 -0.0749568 0
M  V30 2538 N 240.93 -0.123565 1.57115 0
M  V30 2539 C 242.179 -0.830704 1.83799 0
M  V30 2540 C 242.492 -1.81259 0.735158 0
M  V30 2541 O 243.698 -2.56558 0.888278 0
M  V30 2542 C 242.154 -1.52802 3.25852 0
M  V30 2543 C 241.762 -0.587356 4.44133 0
M  V30 2544 C 243.506 -2.22056 3.61789 0
M  V30 2545 C 241.413 -1.28764 5.77212 0
M  V30 2546 H 240.343 -0.313967 0.685522 0
M  V30 2547 H 242.994 -0.0834359 1.8331 0
M  V30 2548 H 241.376 -2.32175 3.20797 0
M  V30 2549 H 242.55 0.172829 4.60476 0
M  V30 2550 H 240.865 -0.00201892 4.164 0
M  V30 2551 H 243.462 -2.75131 4.58483 0
M  V30 2552 H 243.805 -2.99644 2.88997 0
M  V30 2553 H 244.338 -1.49576 3.68608 0
M  V30 2554 H 241.077 -0.55314 6.53162 0
M  V30 2555 H 240.597 -2.01995 5.64764 0
M  V30 2556 H 242.276 -1.8221 6.20813 0
M  V30 2557 N 242.408 -1.52605 -0.393616 0
M  V30 2558 C 243.318 -1.79971 -1.50492 0
M  V30 2559 C 244.334 -0.686181 -1.59899 0
M  V30 2560 O 245.51 -0.973274 -1.76322 0
M  V30 2561 C 242.575 -1.95867 -2.86072 0
M  V30 2562 C 241.636 -3.19781 -2.86424 0
M  V30 2563 C 240.869 -3.34909 -4.15538 0
M  V30 2564 O 241.092 -2.54948 -5.10253 0
M  V30 2565 O 240.026 -4.28141 -4.23059 0
M  V30 2566 H 243.852 -2.74328 -1.30299 0
M  V30 2567 H 241.437 -1.3764 -0.581005 0
M  V30 2568 H 243.319 -2.08056 -3.66457 0
M  V30 2569 H 241.994 -1.04699 -3.063 0
M  V30 2570 H 240.901 -3.13038 -2.04837 0
M  V30 2571 H 242.234 -4.1078 -2.71147 0
M  V30 2572 N 243.887 0.651787 -1.4349 0
M  V30 2573 C 245.135 1.40888 -1.44897 0
M  V30 2574 C 245.456 1.94856 -0.0749086 0
M  V30 2575 O 244.726 1.74518 0.889956 0
M  V30 2576 H 243.306 0.522887 -0.533478 0
M  V30 2577 H 245.968 0.768609 -1.79104 0
M  V30 2578 H 245.064 2.25052 -2.16236 0
M  V30 2579 N 245.365 1.30045 0.890287 0
M  V30 2580 C 246.275 1.17885 2.02831 0
M  V30 2581 C 247.291 0.0999609 1.73713 0
M  V30 2582 O 248.467 0.313867 1.98939 0
M  V30 2583 C 245.532 0.866079 3.35708 0
M  V30 2584 C 244.593 2.02979 3.78283 0
M  V30 2585 C 243.826 1.73184 5.0482 0
M  V30 2586 O 244.049 0.657237 5.66601 0
M  V30 2587 O 242.983 2.58267 5.43674 0
M  V30 2588 H 246.809 2.13474 2.16015 0
M  V30 2589 H 244.394 1.09587 1.01543 0
M  V30 2590 H 246.276 0.706623 4.15433 0
M  V30 2591 H 244.951 -0.0599443 3.23644 0
M  V30 2592 H 243.858 2.24454 2.99285 0
M  V30 2593 H 245.191 2.93734 3.94944 0
M  V30 2594 N 246.843 -1.10192 1.12674 0
M  V30 2595 C 248.259 -1.34235 0.863317 0
M  V30 2596 C 248.459 -1.95062 -0.505277 0
M  V30 2597 O 247.515 -2.19192 -1.25345 0
M  V30 2598 C 248.828 -2.2616 1.98172 0
M  V30 2599 C 250.376 -2.3969 2.0129 0
M  V30 2600 C 250.851 -3.34946 3.1237 0
M  V30 2601 N 252.342 -3.42515 3.11829 0
M  V30 2602 C 253.077 -4.16199 3.94419 0
M  V30 2603 N 252.573 -4.92747 4.87004 0
M  V30 2604 N 254.366 -4.11843 3.82547 0
M  V30 2605 H 246.517 -0.690798 2.00853 0
M  V30 2606 H 248.78 -0.366774 0.874174 0
M  V30 2607 H 248.486 -1.8868 2.96804 0
M  V30 2608 H 248.36 -3.26488 1.88906 0
M  V30 2609 H 250.747 -2.76438 1.03276 0
M  V30 2610 H 250.828 -1.39169 2.14629 0
M  V30 2611 H 250.472 -2.98923 4.10619 0
M  V30 2612 H 250.402 -4.35353 2.96269 0
M  V30 2613 H 252.893 -2.87926 2.44759 0
M  V30 2614 H 253.206 -5.46376 5.46528 0
M  V30 2615 H 251.551 -4.91862 4.91016 0
M  V30 2616 H 254.742 -3.51136 3.0955 0
M  V30 2617 H 254.915 -4.69007 4.47142 0
M  V30 2618 N 248.321 -0.919034 -1.28029 0
M  V30 2619 C 249.231 -0.416756 -2.30869 0
M  V30 2620 C 250.247 0.498235 -1.66714 0
M  V30 2621 O 251.423 0.383144 -1.97722 0
M  V30 2622 C 248.488 0.330274 -3.45123 0
M  V30 2623 C 247.549 -0.618578 -4.2482 0
M  V30 2624 C 246.782 0.0928959 -5.33619 0
M  V30 2625 O 247.005 1.31375 -5.55065 0
M  V30 2626 O 245.939 -0.574499 -5.99152 0
M  V30 2627 H 249.765 -1.27043 -2.75851 0
M  V30 2628 H 247.35 -0.684052 -1.3282 0
M  V30 2629 H 249.232 0.751972 -4.14636 0
M  V30 2630 H 247.907 1.1597 -3.02213 0
M  V30 2631 H 246.814 -1.08978 -3.57875 0
M  V30 2632 H 248.147 -1.41497 -4.71423 0
M  V30 2633 N 249.799 1.42003 -0.683588 0
M  V30 2634 C 250.729 2.33487 -0.024866 0
M  V30 2635 C 251.71 1.51163 0.779975 0
M  V30 2636 O 252.895 1.79739 0.735362 0
M  V30 2637 C 250.025 3.3487 0.920836 0
M  V30 2638 C 248.979 4.27414 0.223958 0
M  V30 2639 C 248.305 5.19074 1.2832 0
M  V30 2640 C 249.605 5.14445 -0.90242 0
M  V30 2641 H 251.299 2.88819 -0.788921 0
M  V30 2642 H 248.845 1.38873 -0.38083 0
M  V30 2643 H 250.798 3.97787 1.39081 0
M  V30 2644 H 249.522 2.77861 1.71642 0
M  V30 2645 H 248.181 3.65904 -0.225864 0
M  V30 2646 H 247.829 4.58387 2.071 0
M  V30 2647 H 247.529 5.81822 0.821995 0
M  V30 2648 H 249.053 5.84867 1.75392 0
M  V30 2649 H 250.467 5.70998 -0.513272 0
M  V30 2650 H 248.864 5.86072 -1.28997 0
M  V30 2651 H 249.934 4.52322 -1.74737 0
M  V30 2652 N 251.277 0.427512 1.51691 0
M  V30 2653 C 252.209 -0.424521 2.25234 0
M  V30 2654 C 253.222 -0.994671 1.2888 0
M  V30 2655 O 254.411 -0.890483 1.54702 0
M  V30 2656 C 251.511 -1.60479 2.98496 0
M  V30 2657 C 250.684 -1.15527 4.21868 0
M  V30 2658 C 249.743 -2.20454 4.77793 0
M  V30 2659 O 248.769 -1.8029 5.39893 0
M  V30 2660 N 249.971 -3.52831 4.60967 0
M  V30 2661 H 252.736 0.205749 2.98993 0
M  V30 2662 H 250.297 0.255867 1.59865 0
M  V30 2663 H 252.289 -2.30276 3.32799 0
M  V30 2664 H 250.859 -2.14061 2.27809 0
M  V30 2665 H 250.079 -0.284736 3.9317 0
M  V30 2666 H 251.367 -0.832173 5.01949 0
M  V30 2667 H 250.765 -3.88201 4.11481 0
M  V30 2668 H 249.322 -4.18551 4.99658 0
M  V30 2669 N 252.755 -1.56801 0.158532 0
M  V30 2670 C 253.718 -2.16138 -0.762705 0
M  V30 2671 C 254.718 -1.1061 -1.16713 0
M  V30 2672 O 255.908 -1.36191 -1.08617 0
M  V30 2673 C 253.04 -2.73386 -2.03649 0
M  V30 2674 H 254.233 -2.98886 -0.246354 0
M  V30 2675 H 251.786 -1.56035 -0.0909744 0
M  V30 2676 H 252.521 -1.94335 -2.59623 0
M  V30 2677 H 252.306 -3.50601 -1.75559 0
M  V30 2678 H 253.796 -3.19065 -2.6942 0
M  V30 2679 N 254.233 0.115231 -1.57178 0
M  V30 2680 C 255.48 0.822351 -1.8505 0
M  V30 2681 C 255.808 1.79701 -0.744168 0
M  V30 2682 O 255.063 1.93909 0.26414 0
M  V30 2683 C 255.362 1.60324 -3.19423 0
M  V30 2684 C 255.028 0.772536 -4.44233 0
M  V30 2685 C 253.69 0.543468 -4.78121 0
M  V30 2686 C 256.042 0.193746 -5.2084 0
M  V30 2687 C 253.37 -0.274583 -5.86057 0
M  V30 2688 C 255.722 -0.611517 -6.29637 0
M  V30 2689 C 254.386 -0.850867 -6.62055 0
M  V30 2690 H 253.656 0.30092 -0.677147 0
M  V30 2691 H 256.303 0.0845802 -1.91313 0
M  V30 2692 H 254.608 2.41203 -3.08753 0
M  V30 2693 H 256.305 2.1544 -3.38211 0
M  V30 2694 H 252.895 0.96117 -4.17683 0
M  V30 2695 H 257.079 0.357926 -4.95008 0
M  V30 2696 H 252.335 -0.469206 -6.09597 0
M  V30 2697 H 256.509 -1.06697 -6.88178 0
M  V30 2698 H 254.136 -1.48657 -7.45523 0
M  V30 2699 N 255.711 1.52812 0.385517 0
M  V30 2700 C 256.621 1.80766 1.49535 0
M  V30 2701 C 257.637 0.694651 1.59532 0
M  V30 2702 O 258.813 0.982611 1.75803 0
M  V30 2703 C 255.878 1.97381 2.85029 0
M  V30 2704 C 254.939 3.21295 2.84724 0
M  V30 2705 C 254.172 3.37108 4.13756 0
M  V30 2706 O 254.395 2.5765 5.08893 0
M  V30 2707 O 253.329 4.30378 4.20783 0
M  V30 2708 H 257.155 2.75015 1.28842 0
M  V30 2709 H 254.74 1.37946 0.573697 0
M  V30 2710 H 256.622 2.09996 3.65349 0
M  V30 2711 H 255.297 1.06322 3.05741 0
M  V30 2712 H 254.204 3.1412 2.03174 0
M  V30 2713 H 255.537 4.12212 2.68965 0
M  V30 2714 N 257.189 -0.644168 1.43834 0
M  V30 2715 C 258.137 -1.77793 1.49974 0
M  V30 2716 C 259.131 -1.65253 0.372536 0
M  V30 2717 O 260.337 -1.7149 0.546924 0
M  V30 2718 H 256.712 -0.58675 0.47035 0
M  V30 2719 H 258.683 -1.69736 2.45423 0
M  V30 2720 C 257.432 -3.16087 1.4486 0
M  V30 2721 H 256.755 -3.26378 2.30905 0
M  V30 2722 H 258.195 -3.95349 1.53217 0
M  V30 2723 C 256.654 -3.36484 0.167463 0
M  V30 2724 O 257.184 -3.94298 -0.767609 0
M  V30 2725 N 255.39 -2.90504 0.0747556 0
M  V30 2726 H 254.937 -2.4364 0.836507 0
M  V30 2727 H 254.895 -3.04527 -0.781714 0
M  V30 2728 N 258.668 -1.30515 -0.883378 0
M  V30 2729 C 259.917 -1.18795 -1.63005 0
M  V30 2730 C 260.23 0.255923 -1.93919 0
M  V30 2731 O 261.436 0.494654 -2.66956 0
M  V30 2732 C 259.892 -2.07878 -2.93794 0
M  V30 2733 C 259.5 -3.57184 -2.70414 0
M  V30 2734 C 261.244 -2.04924 -3.71761 0
M  V30 2735 C 259.151 -4.38317 -3.97029 0
M  V30 2736 H 258.081 -0.441031 -0.611562 0
M  V30 2737 H 260.732 -1.55275 -0.977854 0
M  V30 2738 H 259.114 -1.64283 -3.60315 0
M  V30 2739 H 260.288 -4.08937 -2.12384 0
M  V30 2740 H 258.603 -3.61976 -2.0582 0
M  V30 2741 H 261.2 -2.62792 -4.65665 0
M  V30 2742 H 261.543 -1.0331 -4.03277 0
M  V30 2743 H 262.076 -2.46649 -3.12104 0
M  V30 2744 H 258.815 -5.40632 -3.70671 0
M  V30 2745 H 258.335 -3.91326 -4.54559 0
M  V30 2746 H 260.014 -4.49834 -4.65036 0
M  V30 2747 N 260.146 1.09593 -1.13257 0
M  V30 2748 C 261.056 2.19739 -0.821691 0
M  V30 2749 C 262.072 1.72926 0.19302 0
M  V30 2750 O 263.248 2.01385 0.0244895 0
M  V30 2751 C 260.313 3.45482 -0.290333 0
M  V30 2752 C 259.374 4.06985 -1.36607 0
M  V30 2753 C 258.607 5.26726 -0.859975 0
M  V30 2754 O 258.83 5.69594 0.303082 0
M  V30 2755 O 257.764 5.7931 -1.63351 0
M  V30 2756 H 261.59 2.48781 -1.74189 0
M  V30 2757 H 259.175 1.18496 -0.909894 0
M  V30 2758 H 261.057 4.214 0.000674022 0
M  V30 2759 H 259.732 3.18047 0.602306 0
M  V30 2760 H 258.639 3.32712 -1.71037 0
M  V30 2761 H 259.972 4.38643 -2.23279 0
M  V30 2762 N 261.624 0.925811 1.2754 0
M  V30 2763 C 262.901 0.483726 1.89524 0
M  V30 2764 C 263.281 -1.03809 1.83812 0
M  V30 2765 O 262.629 -1.89143 1.28207 0
M  V30 2766 C 262.839 1.02769 3.33526 0
M  V30 2767 C 264.187 1.08703 4.10449 0
M  V30 2768 O 265.211 0.977175 3.42534 0
M  V30 2769 O 264.07 1.25599 5.31871 0
M  V30 2770 H 261.164 0.15529 0.812289 0
M  V30 2771 H 263.71 1.01738 1.35822 0
M  V30 2772 H 262.482 2.07155 3.31967 0
M  V30 2773 H 262.105 0.475567 3.94746 0
M  V30 2774 N 263.102 -1.41638 0.69111 0
M  V30 2775 C 264.012 -2.34588 0.0233487 0
M  V30 2776 C 265.028 -1.55987 -0.770984 0
M  V30 2777 O 266.204 -1.88486 -0.709569 0
M  V30 2778 C 263.269 -3.34684 -0.904851 0
M  V30 2779 C 262.33 -4.29176 -0.103225 0
M  V30 2780 C 261.563 -5.2449 -0.987216 0
M  V30 2781 O 261.786 -5.2514 -2.22674 0
M  V30 2782 O 260.72 -6.00295 -0.439281 0
M  V30 2783 H 264.546 -2.93261 0.789416 0
M  V30 2784 H 262.131 -1.42417 0.45142 0
M  V30 2785 H 264.013 -3.96133 -1.43724 0
M  V30 2786 H 262.688 -2.78461 -1.65049 0
M  V30 2787 H 261.595 -3.71089 0.473655 0
M  V30 2788 H 262.928 -4.88484 0.60365 0
M  V30 2789 N 264.58 -0.43555 -1.51462 0
M  V30 2790 C 265.829 0.133007 -2.01261 0
M  V30 2791 C 266.142 1.43942 -1.32439 0
M  V30 2792 O 267.348 2.09081 -1.73198 0
M  V30 2793 C 265.804 0.287581 -3.58749 0
M  V30 2794 C 265.412 -1.00829 -4.36506 0
M  V30 2795 C 267.156 0.810004 -4.167 0
M  V30 2796 C 265.063 -0.819454 -5.85695 0
M  V30 2797 H 263.993 0.0534822 -0.752101 0
M  V30 2798 H 266.644 -0.565038 -1.74584 0
M  V30 2799 H 265.026 1.04859 -3.81865 0
M  V30 2800 H 266.2 -1.77749 -4.25138 0
M  V30 2801 H 264.515 -1.45911 -3.89999 0
M  V30 2802 H 267.112 0.967743 -5.2587 0
M  V30 2803 H 267.455 1.79196 -3.75758 0
M  V30 2804 H 267.988 0.107357 -3.97655 0
M  V30 2805 H 264.727 -1.77374 -6.31046 0
M  V30 2806 H 264.247 -0.0900208 -5.99732 0
M  V30 2807 H 265.926 -0.471949 -6.45276 0
M  V30 2808 N 266.058 1.56714 -0.166846 0
M  V30 2809 C 267.005 2.17746 0.765193 0
M  V30 2810 C 267.975 1.11614 1.23011 0
M  V30 2811 O 269.16 1.39745 1.29908 0
M  V30 2812 C 266.3 2.81882 1.9909 0
M  V30 2813 C 265.413 4.02462 1.56997 0
M  V30 2814 C 264.548 4.54537 2.749 0
M  V30 2815 C 263.587 5.67538 2.29275 0
M  V30 2816 N 262.724 6.14142 3.40255 0
M  V30 2817 H 267.564 2.97048 0.237952 0
M  V30 2818 H 265.101 1.4672 0.105725 0
M  V30 2819 H 267.059 3.17221 2.70974 0
M  V30 2820 H 265.689 2.05191 2.49192 0
M  V30 2821 H 264.741 3.72973 0.748037 0
M  V30 2822 H 266.053 4.84273 1.19503 0
M  V30 2823 H 265.207 4.92035 3.54946 0
M  V30 2824 H 263.946 3.71774 3.1565 0
M  V30 2825 H 262.951 5.29597 1.47674 0
M  V30 2826 H 264.176 6.52099 1.89588 0
M  V30 2827 H 262.122 5.3431 3.8059 0
M  V30 2828 H 262.039 6.9093 3.06841 0
M  V30 2829 H 263.307 6.56289 4.206 0
M  V30 2830 N 267.536 -0.106894 1.57237 0
M  V30 2831 C 268.466 -1.13148 2.04254 0
M  V30 2832 C 269.447 -1.42476 0.929224 0
M  V30 2833 O 270.632 -1.52709 1.19973 0
M  V30 2834 C 267.762 -2.4545 2.45706 0
M  V30 2835 C 266.716 -2.30558 3.60592 0
M  V30 2836 C 266.042 -3.67931 3.87983 0
M  V30 2837 C 267.342 -1.75597 4.91897 0
M  V30 2838 H 269.036 -0.740374 2.90101 0
M  V30 2839 H 266.582 -0.354696 1.39563 0
M  V30 2840 H 268.535 -3.17389 2.77205 0
M  V30 2841 H 267.259 -2.86475 1.56843 0
M  V30 2842 H 265.918 -1.61067 3.29322 0
M  V30 2843 H 265.566 -4.06462 2.96306 0
M  V30 2844 H 265.266 -3.58817 4.65322 0
M  V30 2845 H 266.79 -4.41356 4.21945 0
M  V30 2846 H 268.204 -2.37364 5.21854 0
M  V30 2847 H 266.601 -1.77272 5.73319 0
M  V30 2848 H 267.671 -0.714451 4.79608 0
M  V30 2849 N 269.014 -1.53014 -0.377408 0
M  V30 2850 C 270.263 -1.67845 -1.11853 0
M  V30 2851 C 270.576 -0.430625 -1.90801 0
M  V30 2852 O 271.782 -0.459261 -2.67587 0
M  V30 2853 C 270.238 -2.96668 -2.03756 0
M  V30 2854 C 269.846 -4.28671 -1.30175 0
M  V30 2855 C 271.59 -3.20865 -2.77932 0
M  V30 2856 C 269.497 -5.48591 -2.20911 0
M  V30 2857 H 268.427 -0.625343 -0.421263 0
M  V30 2858 H 271.078 -1.79514 -0.380409 0
M  V30 2859 H 269.46 -2.78773 -2.8125 0
M  V30 2860 H 270.634 -4.57157 -0.578259 0
M  V30 2861 H 268.949 -4.10825 -0.679108 0
M  V30 2862 H 271.546 -4.07642 -3.46024 0
M  V30 2863 H 271.889 -2.36424 -3.4265 0
M  V30 2864 H 272.422 -3.39379 -2.07525 0
M  V30 2865 H 269.161 -6.35474 -1.6079 0
M  V30 2866 H 268.681 -5.244 -2.91144 0
M  V30 2867 H 270.36 -5.8292 -2.80736 0
M  V30 2868 N 270.492 0.636531 -1.44174 0
M  V30 2869 C 271.74 1.39343 -1.46383 0
M  V30 2870 C 272.061 1.94766 -0.0955715 0
M  V30 2871 O 271.331 1.75452 0.871395 0
M  V30 2872 H 269.911 0.517199 -0.538994 0
M  V30 2873 H 272.573 0.74957 -1.7991 0
M  V30 2874 H 271.669 2.22746 -2.18611 0
M  V30 2875 N 271.97 1.30982 0.876444 0
M  V30 2876 C 273.2 1.23063 1.65949 0
M  V30 2877 C 273.608 -0.207537 1.88058 0
M  V30 2878 O 272.951 -1.14781 1.43426 0
M  V30 2879 C 273.013 1.89768 3.05333 0
M  V30 2880 C 272.677 3.39106 3.0636 0
M  V30 2881 C 273.674 4.3496 2.84791 0
M  V30 2882 C 271.359 3.80693 3.27686 0
M  V30 2883 C 273.353 5.70375 2.84519 0
M  V30 2884 C 271.04 5.16223 3.27043 0
M  V30 2885 C 272.038 6.10875 3.05485 0
M  V30 2886 O 271.726 7.43928 3.04674 0
M  V30 2887 H 271.458 0.426685 0.524324 0
M  V30 2888 H 274.012 1.7329 1.10271 0
M  V30 2889 H 272.242 1.34082 3.6271 0
M  V30 2890 H 273.931 1.75853 3.65829 0
M  V30 2891 H 274.697 4.0416 2.68103 0
M  V30 2892 H 270.576 3.07457 3.43499 0
M  V30 2893 H 274.12 6.44228 2.67611 0
M  V30 2894 H 270.017 5.4666 3.43269 0
M  V30 2895 H 270.785 7.53022 3.2078 0
M  V30 2896 N 273.449 -1.08991 1.13837 0
M  V30 2897 C 274.696 -1.81258 0.902882 0
M  V30 2898 C 275.024 -1.85936 -0.570803 0
M  V30 2899 O 274.279 -1.3267 -1.43865 0
M  V30 2900 C 274.578 -3.27042 1.44147 0
M  V30 2901 C 274.244 -3.4249 2.93276 0
M  V30 2902 C 272.906 -3.46414 3.33992 0
M  V30 2903 C 275.258 -3.4666 3.892 0
M  V30 2904 C 272.586 -3.52091 4.69307 0
M  V30 2905 C 274.938 -3.53872 5.24364 0
M  V30 2906 C 273.602 -3.56066 5.646 0
M  V30 2907 H 272.872 -0.663268 0.330388 0
M  V30 2908 H 275.519 -1.28368 1.42105 0
M  V30 2909 H 273.824 -3.82599 0.844097 0
M  V30 2910 H 275.521 -3.81499 1.23528 0
M  V30 2911 H 272.111 -3.40124 2.60794 0
M  V30 2912 H 276.295 -3.42865 3.58828 0
M  V30 2913 H 271.551 -3.52079 4.9985 0
M  V30 2914 H 275.725 -3.56043 5.98503 0
M  V30 2915 H 273.352 -3.60218 6.69438 0
M  V30 2916 N 274.927 -0.932562 -1.27047 0
M  V30 2917 C 275.874 -0.434072 -2.26681 0
M  V30 2918 C 276.844 0.501639 -1.58344 0
M  V30 2919 O 278.029 0.419734 -1.86126 0
M  V30 2920 C 275.169 0.30261 -3.43771 0
M  V30 2921 C 274.282 -0.667774 -4.26808 0
M  V30 2922 C 273.417 0.0892393 -5.31125 0
M  V30 2923 C 272.456 -0.873532 -6.05835 0
M  V30 2924 N 271.593 -0.148832 -7.01942 0
M  V30 2925 H 276.433 -1.28868 -2.68695 0
M  V30 2926 H 273.97 -0.646713 -1.32121 0
M  V30 2927 H 275.928 0.746092 -4.10474 0
M  V30 2928 H 274.558 1.12142 -3.02695 0
M  V30 2929 H 273.61 -1.22978 -3.59973 0
M  V30 2930 H 274.922 -1.40337 -4.78651 0
M  V30 2931 H 274.076 0.592409 -6.03801 0
M  V30 2932 H 272.815 0.85777 -4.80097 0
M  V30 2933 H 271.82 -1.38791 -5.31994 0
M  V30 2934 H 273.045 -1.64193 -6.58952 0
M  V30 2935 H 270.991 0.601365 -6.53238 0
M  V30 2936 H 270.908 -0.82391 -7.51497 0
M  V30 2937 H 272.176 0.333527 -7.78786 0
M  V30 2938 N 276.405 1.4127 -0.698611 0
M  V30 2939 C 277.63 2.06024 -0.238512 0
M  V30 2940 C 278.055 1.5224 1.10475 0
M  V30 2941 O 277.413 0.650623 1.69223 0
M  V30 2942 C 277.461 3.59988 -0.209952 0
M  V30 2943 O 276.565 4.04282 0.814235 0
M  V30 2944 H 275.906 0.653829 -0.115775 0
M  V30 2945 H 278.436 1.8098 -0.954326 0
M  V30 2946 H 278.446 4.07979 -0.0418436 0
M  V30 2947 H 277.121 3.98503 -1.1903 0
M  V30 2948 H 275.698 3.6779 0.615234 0
M  V30 2949 N 277.883 0.443576 1.51229 0
M  V30 2950 C 278.83 -0.364716 2.279 0
M  V30 2951 C 279.8 -1.0114 1.31757 0
M  V30 2952 O 280.985 -1.02912 1.60667 0
M  V30 2953 C 278.125 -1.45644 3.12861 0
M  V30 2954 C 277.238 -0.827269 4.24005 0
M  V30 2955 C 276.373 -1.89456 4.96266 0
M  V30 2956 C 275.412 -1.24416 5.99322 0
M  V30 2957 N 274.549 -2.25309 6.64966 0
M  V30 2958 H 279.389 0.295464 2.96532 0
M  V30 2959 H 276.926 0.157554 1.46254 0
M  V30 2960 H 278.884 -2.10076 3.6045 0
M  V30 2961 H 277.514 -2.08616 2.46331 0
M  V30 2962 H 276.566 -0.0710839 3.80334 0
M  V30 2963 H 277.878 -0.312481 4.9782 0
M  V30 2964 H 277.032 -2.61535 5.47434 0
M  V30 2965 H 275.771 -2.4431 4.22095 0
M  V30 2966 H 274.776 -0.508868 5.4744 0
M  V30 2967 H 276.001 -0.702882 6.75453 0
M  V30 2968 H 273.947 -2.79231 5.93604 0
M  V30 2969 H 273.864 -1.78739 7.34567 0
M  V30 2970 H 275.132 -2.96853 7.20763 0
M  V30 2971 N 279.361 -1.56624 0.175154 0
M  V30 2972 C 280.638 -1.88688 -0.515373 0
M  V30 2973 C 281.018 -1.08564 -1.81044 0
M  V30 2974 O 280.366 -0.180703 -2.27784 0
M  V30 2975 C 280.576 -3.40768 -0.753552 0
M  V30 2976 C 281.924 -4.10587 -1.08184 0
M  V30 2977 O 282.948 -3.46106 -0.841961 0
M  V30 2978 O 281.807 -5.24512 -1.53459 0
M  V30 2979 H 278.901 -0.78301 -0.26613 0
M  V30 2980 H 281.447 -1.68347 0.213877 0
M  V30 2981 H 280.219 -3.90965 0.161829 0
M  V30 2982 H 279.842 -3.66733 -1.53598 0
M  V30 2983 N 280.839 0.0985539 -1.57292 0
M  V30 2984 C 282.064 0.820196 -1.90493 0
M  V30 2985 C 282.489 1.71658 -0.769094 0
M  V30 2986 O 281.847 1.79133 0.279495 0
M  V30 2987 C 281.895 1.61242 -3.22542 0
M  V30 2988 O 280.999 2.72108 -3.09888 0
M  V30 2989 H 280.34 0.225547 -0.62452 0
M  V30 2990 H 282.87 0.0748159 -2.04463 0
M  V30 2991 H 282.88 1.99737 -3.55766 0
M  V30 2992 H 281.555 0.954535 -4.04798 0
M  V30 2993 H 280.132 2.36667 -2.88172 0
M  V30 2994 N 282.317 1.53212 0.369288 0
M  V30 2995 C 283.227 1.82342 1.47609 0
M  V30 2996 C 284.243 0.711532 1.58787 0
M  V30 2997 O 285.419 1.0012 1.74751 0
M  V30 2998 C 282.484 2.00393 2.8292 0
M  V30 2999 C 281.545 3.24297 2.81301 0
M  V30 3000 C 280.778 3.41478 4.10157 0
M  V30 3001 O 281.001 2.63033 5.06132 0
M  V30 3002 O 279.935 4.34817 4.16194 0
M  V30 3003 H 283.761 2.76366 1.25918 0
M  V30 3004 H 281.346 1.38547 0.559034 0
M  V30 3005 H 283.228 2.13859 3.63101 0
M  V30 3006 H 281.903 1.09559 3.04596 0
M  V30 3007 H 280.81 3.16257 1.99831 0
M  V30 3008 H 282.143 4.15041 2.64578 0
M  V30 3009 N 283.795 -0.628877 1.44509 0
M  V30 3010 C 284.745 -1.7345 1.47983 0
M  V30 3011 C 285.729 -1.5715 0.345373 0
M  V30 3012 O 286.921 -1.66848 0.590829 0
M  V30 3013 C 284.05 -3.12143 1.42904 0
M  V30 3014 C 283.136 -3.33906 2.61472 0
M  V30 3015 N 283.527 -3.26024 3.86706 0
M  V30 3016 C 281.825 -3.64709 2.56716 0
M  V30 3017 C 282.526 -3.48536 4.65722 0
M  V30 3018 N 281.502 -3.71517 3.96832 0
M  V30 3019 H 285.304 -1.65818 2.42655 0
M  V30 3020 H 282.818 -0.831419 1.39503 0
M  V30 3021 H 284.815 -3.91433 1.43476 0
M  V30 3022 H 283.475 -3.2094 0.492717 0
M  V30 3023 H 284.486 -3.04893 4.18641 0
M  V30 3024 H 281.163 -3.80473 1.71891 0
M  V30 3025 H 282.553 -3.48016 5.74747 0
M  V30 3026 N 285.273 -1.31445 -0.869486 0
M  V30 3027 C 286.503 -1.23942 -1.65294 0
M  V30 3028 C 286.911 0.197561 -1.88166 0
M  V30 3029 O 286.254 1.14019 -1.44033 0
M  V30 3030 C 286.316 -1.91385 -3.04322 0
M  V30 3031 C 285.98 -3.40726 -3.04557 0
M  V30 3032 C 286.977 -4.36464 -2.82481 0
M  V30 3033 C 284.662 -3.82425 -3.25663 0
M  V30 3034 C 286.656 -5.71876 -2.8149 0
M  V30 3035 C 284.343 -5.1795 -3.243 0
M  V30 3036 C 285.341 -6.12486 -3.02241 0
M  V30 3037 O 285.029 -7.45534 -3.00724 0
M  V30 3038 H 284.761 -0.429459 -0.522054 0
M  V30 3039 H 287.315 -1.73873 -1.0935 0
M  V30 3040 H 285.545 -1.36004 -3.61994 0
M  V30 3041 H 287.234 -1.77791 -3.64891 0
M  V30 3042 H 288 -4.05576 -2.65956 0
M  V30 3043 H 283.879 -3.09274 -3.41863 0
M  V30 3044 H 287.423 -6.45638 -2.64191 0
M  V30 3045 H 283.32 -5.48473 -3.40365 0
M  V30 3046 H 284.088 -7.54713 -3.16782 0
M  V30 3047 N 286.751 1.08385 -1.14413 0
M  V30 3048 C 287.698 2.15311 -0.831265 0
M  V30 3049 C 288.668 1.64751 0.211292 0
M  V30 3050 O 289.853 1.90627 0.0811674 0
M  V30 3051 C 286.993 3.43658 -0.315143 0
M  V30 3052 C 286.106 4.08064 -1.41802 0
M  V30 3053 C 285.241 5.24207 -0.859126 0
M  V30 3054 C 284.28 5.80554 -1.93967 0
M  V30 3055 N 283.417 6.88042 -1.39793 0
M  V30 3056 H 288.257 2.41415 -1.74708 0
M  V30 3057 H 285.794 1.18474 -0.871909 0
M  V30 3058 H 287.752 4.172 0.00230884 0
M  V30 3059 H 286.382 3.17839 0.56378 0
M  V30 3060 H 285.434 3.3228 -1.85187 0
M  V30 3061 H 286.746 4.45962 -2.23427 0
M  V30 3062 H 285.9 6.04689 -0.49359 0
M  V30 3063 H 284.639 4.87699 -0.011932 0
M  V30 3064 H 283.644 4.98725 -2.31415 0
M  V30 3065 H 284.869 6.19121 -2.79046 0
M  V30 3066 H 282.815 6.53493 -0.572919 0
M  V30 3067 H 282.732 7.24767 -2.15054 0
M  V30 3068 H 284 7.72255 -1.0603 0
M  V30 3069 N 288.23 0.939286 1.26551 0
M  V30 3070 C 289.193 0.451987 2.24699 0
M  V30 3071 C 290.193 -0.435869 1.5478 0
M  V30 3072 O 291.383 -0.235314 1.72603 0
M  V30 3073 C 288.515 -0.348801 3.39111 0
M  V30 3074 H 289.708 1.3193 2.69322 0
M  V30 3075 H 287.261 0.721072 1.38673 0
M  V30 3076 H 287.996 -1.23444 2.99887 0
M  V30 3077 H 287.781 0.287945 3.91041 0
M  V30 3078 H 289.271 -0.679726 4.12031 0
M  V30 3079 N 289.708 -1.40897 0.706093 0
M  V30 3080 C 290.955 -2.01054 0.241531 0
M  V30 3081 C 291.283 -1.55956 -1.16223 0
M  V30 3082 O 290.538 -0.766336 -1.80072 0
M  V30 3083 C 290.837 -3.5646 0.259099 0
M  V30 3084 C 290.503 -4.21106 1.61184 0
M  V30 3085 C 289.165 -4.38479 1.98216 0
M  V30 3086 C 291.517 -4.57256 2.50132 0
M  V30 3087 C 288.845 -4.89282 3.2376 0
M  V30 3088 C 291.197 -5.09454 3.7502 0
M  V30 3089 C 289.861 -5.25037 4.12181 0
M  V30 3090 H 289.131 -0.73571 0.0883825 0
M  V30 3091 H 291.778 -1.68645 0.907257 0
M  V30 3092 H 290.083 -3.88721 -0.490189 0
M  V30 3093 H 291.78 -4.00826 -0.11804 0
M  V30 3094 H 288.37 -4.07966 1.31384 0
M  V30 3095 H 292.554 -4.43479 2.228 0
M  V30 3096 H 287.81 -4.99531 3.52532 0
M  V30 3097 H 291.984 -5.36404 4.44121 0
M  V30 3098 H 289.611 -5.64164 5.09532 0
M  V30 3099 N 291.186 -0.45159 -1.50991 0
M  V30 3100 C 292.096 0.358431 -2.31846 0
M  V30 3101 C 293.112 1.01438 -1.41373 0
M  V30 3102 O 294.288 1.00663 -1.74439 0
M  V30 3103 C 291.353 1.43704 -3.15515 0
M  V30 3104 C 290.414 0.799742 -4.21785 0
M  V30 3105 C 289.647 1.82696 -5.01456 0
M  V30 3106 O 289.87 3.05105 -4.81941 0
M  V30 3107 O 288.804 1.40958 -5.85162 0
M  V30 3108 H 292.63 -0.302032 -3.02194 0
M  V30 3109 H 290.215 -0.213825 -1.47862 0
M  V30 3110 H 292.097 2.06227 -3.67489 0
M  V30 3111 H 290.772 2.08133 -2.47916 0
M  V30 3112 H 289.679 0.136084 -3.73852 0
M  V30 3113 H 291.012 0.198718 -4.91799 0
M  V30 3114 N 292.664 1.56529 -0.183458 0
M  V30 3115 C 293.941 1.88959 0.50536 0
M  V30 3116 C 294.321 1.09523 1.80466 0
M  V30 3117 O 293.669 0.19278 2.27685 0
M  V30 3118 C 293.879 3.41162 0.73547 0
M  V30 3119 C 295.227 4.11155 1.06005 0
M  V30 3120 O 296.251 3.46548 0.823594 0
M  V30 3121 O 295.11 5.25318 1.50675 0
M  V30 3122 H 292.204 0.78441 0.261973 0
M  V30 3123 H 294.75 1.68231 -0.222802 0
M  V30 3124 H 293.522 3.90874 -0.182561 0
M  V30 3125 H 293.145 3.67543 1.51651 0
M  V30 3126 N 294.142 -0.090211 1.57342 0
M  V30 3127 C 295.105 -1.09335 2.01441 0
M  V30 3128 C 296.105 -1.32666 0.908641 0
M  V30 3129 O 297.295 -1.28697 1.174 0
M  V30 3130 C 294.427 -2.44136 2.3793 0
M  V30 3131 H 295.62 -0.713662 2.91285 0
M  V30 3132 H 293.173 -0.335404 1.52659 0
M  V30 3133 H 293.908 -2.86972 1.51055 0
M  V30 3134 H 293.693 -2.28548 3.18603 0
M  V30 3135 H 295.183 -3.16277 2.72688 0
M  V30 3136 N 295.62 -1.53406 -0.361157 0
M  V30 3137 C 296.583 -1.79479 -1.42548 0
M  V30 3138 C 297.583 -0.665327 -1.4639 0
M  V30 3139 O 298.773 -0.933549 -1.47073 0
M  V30 3140 C 295.905 -1.92087 -2.8163 0
M  V30 3141 H 297.098 -2.74538 -1.20701 0
M  V30 3142 H 294.651 -1.4455 -0.594546 0
M  V30 3143 H 295.386 -0.991099 -3.08784 0
M  V30 3144 H 295.171 -2.74241 -2.80239 0
M  V30 3145 H 296.661 -2.13836 -3.58697 0
M  V30 3146 N 297.098 0.621204 -1.44841 0
M  V30 3147 C 298.008 1.7612 -1.5498 0
M  V30 3148 C 299.024 1.68477 -0.434927 0
M  V30 3149 O 300.2 1.89076 -0.693693 0
M  V30 3150 C 297.265 3.1254 -1.50065 0
M  V30 3151 C 296.326 3.31741 -2.72482 0
M  V30 3152 C 295.559 4.61653 -2.67792 0
M  V30 3153 O 295.782 5.431 -1.74352 0
M  V30 3154 O 294.716 4.83271 -3.58794 0
M  V30 3155 H 298.542 1.70518 -2.51311 0
M  V30 3156 H 296.127 0.783643 -1.27198 0
M  V30 3157 H 298.009 3.93844 -1.49882 0
M  V30 3158 H 296.684 3.18663 -0.568806 0
M  V30 3159 H 295.591 2.50077 -2.7823 0
M  V30 3160 H 296.924 3.30486 -3.64746 0
M  V30 3161 N 298.576 1.31904 0.862503 0
M  V30 3162 C 299.486 1.22161 2.00285 0
M  V30 3163 C 300.502 0.136785 1.73462 0
M  V30 3164 O 301.678 0.355994 1.98229 0
M  V30 3165 C 298.743 0.937093 3.33796 0
M  V30 3166 C 297.804 2.10957 3.73893 0
M  V30 3167 C 297.037 1.83853 5.01033 0
M  V30 3168 O 297.26 0.777274 5.65079 0
M  V30 3169 O 296.194 2.69741 5.38074 0
M  V30 3170 H 300.02 2.18008 2.11439 0
M  V30 3171 H 297.605 1.11716 0.991957 0
M  V30 3172 H 299.487 0.794583 4.13841 0
M  V30 3173 H 298.162 0.00871894 3.23699 0
M  V30 3174 H 297.069 2.30752 2.94456 0
M  V30 3175 H 298.402 3.02046 3.88625 0
M  V30 3176 N 300.054 -1.07777 1.14986 0
M  V30 3177 C 301.301 -1.8029 0.922056 0
M  V30 3178 C 301.629 -1.86531 -0.55105 0
M  V30 3179 O 300.884 -1.34189 -1.42449 0
M  V30 3180 C 301.183 -3.25495 1.47608 0
M  V30 3181 C 300.849 -3.39361 2.96893 0
M  V30 3182 C 299.511 -3.42852 3.37647 0
M  V30 3183 C 301.863 -3.42512 3.92854 0
M  V30 3184 C 299.191 -3.47094 4.73015 0
M  V30 3185 C 301.543 -3.4829 5.28088 0
M  V30 3186 C 300.207 -3.50058 5.68345 0
M  V30 3187 H 299.477 -0.659727 0.337404 0
M  V30 3188 H 302.124 -1.26854 1.43459 0
M  V30 3189 H 300.429 -3.81683 0.88463 0
M  V30 3190 H 302.126 -3.80168 1.27568 0
M  V30 3191 H 298.716 -3.37339 2.64387 0
M  V30 3192 H 302.9 -3.3904 3.62444 0
M  V30 3193 H 298.156 -3.46758 5.03556 0
M  V30 3194 H 302.33 -3.49675 6.02246 0
M  V30 3195 H 299.957 -3.53097 6.73221 0
M  V30 3196 N 301.532 -0.945985 -1.26051 0
M  V30 3197 C 302.482 -0.430164 -2.23905 0
M  V30 3198 C 303.466 0.47579 -1.53704 0
M  V30 3199 O 304.658 0.310252 -1.7426 0
M  V30 3200 C 301.787 0.298957 -3.41996 0
M  V30 3201 C 300.873 -0.624566 -4.19476 0
M  V30 3202 N 301.264 -1.75245 -4.74471 0
M  V30 3203 C 299.562 -0.431082 -4.43912 0
M  V30 3204 C 300.263 -2.32834 -5.3307 0
M  V30 3205 N 299.239 -1.61583 -5.1903 0
M  V30 3206 H 303.041 -1.29107 -2.64024 0
M  V30 3207 H 300.555 -0.802428 -1.41191 0
M  V30 3208 H 302.552 0.685565 -4.11225 0
M  V30 3209 H 301.212 1.15657 -3.03403 0
M  V30 3210 H 302.223 -2.13449 -4.71868 0
M  V30 3211 H 298.9 0.384364 -4.15727 0
M  V30 3212 H 300.29 -3.27893 -5.86461 0
M  V30 3213 N 303.011 1.40521 -0.713556 0
M  V30 3214 C 304.422 1.83853 -0.324807 0
M  V30 3215 C 304.773 1.59667 1.14021 0
M  V30 3216 O 303.898 1.07649 1.87725 0
M  V30 3217 C 304.493 3.33751 -0.582746 0
M  V30 3218 C 303.052 3.75584 -0.247727 0
M  V30 3219 C 302.199 2.63753 -0.856121 0
M  V30 3220 H 305.15 1.29817 -0.91286 0
M  V30 3221 H 305.171 3.80194 0.152682 0
M  V30 3222 H 304.683 3.51322 -1.64908 0
M  V30 3223 H 302.784 3.63608 0.813624 0
M  V30 3224 H 302.897 4.7373 -0.715307 0
M  V30 3225 H 301.261 2.53108 -0.28432 0
M  V30 3226 H 302.044 2.84137 -1.92668 0
M  V30 3227 N 304.489 0.459591 1.5075 0
M  V30 3228 C 305.719 -0.0972338 2.06371 0
M  V30 3229 C 306.127 -1.35074 1.32483 0
M  V30 3230 O 305.47 -1.79637 0.384226 0
M  V30 3231 C 305.532 -0.462759 3.56509 0
M  V30 3232 C 305.196 0.687084 4.51805 0
M  V30 3233 C 306.193 1.56578 4.95761 0
M  V30 3234 C 303.878 0.874144 4.94635 0
M  V30 3235 C 305.872 2.61604 5.81242 0
M  V30 3236 C 303.559 1.92765 5.79901 0
M  V30 3237 C 304.557 2.79697 6.23104 0
M  V30 3238 O 304.245 3.83235 7.06673 0
M  V30 3239 H 303.977 -0.00140687 0.675999 0
M  V30 3240 H 306.531 0.644011 1.95043 0
M  V30 3241 H 304.761 -1.25703 3.65699 0
M  V30 3242 H 306.45 -0.953323 3.94546 0
M  V30 3243 H 307.216 1.4329 4.6335 0
M  V30 3244 H 303.095 0.207006 4.60535 0
M  V30 3245 H 306.639 3.29489 6.14884 0
M  V30 3246 H 302.536 2.06064 6.11725 0
M  V30 3247 H 303.304 3.80084 7.24899 0
M  V30 3248 N 305.967 -1.56429 0.191757 0
M  V30 3249 C 307.216 -1.9666 -0.448088 0
M  V30 3250 C 307.529 -1.08136 -1.62991 0
M  V30 3251 O 308.735 -1.38135 -2.33733 0
M  V30 3252 C 307.191 -3.49753 -0.848585 0
M  V30 3253 C 306.799 -4.46935 0.308764 0
M  V30 3254 C 308.543 -3.9876 -1.4557 0
M  V30 3255 C 306.45 -5.91293 -0.112506 0
M  V30 3256 H 305.38 -0.734312 -0.171179 0
M  V30 3257 H 308.031 -1.81301 0.283242 0
M  V30 3258 H 306.413 -3.60604 -1.63649 0
M  V30 3259 H 307.587 -4.47813 1.08627 0
M  V30 3260 H 305.902 -4.08102 0.827158 0
M  V30 3261 H 308.499 -5.04086 -1.78328 0
M  V30 3262 H 308.842 -3.42875 -2.36099 0
M  V30 3263 H 309.375 -3.9101 -0.731836 0
M  V30 3264 H 306.114 -6.51097 0.758514 0
M  V30 3265 H 305.634 -5.93676 -0.854941 0
M  V30 3266 H 307.313 -6.44663 -0.549448 0
M  V30 3267 N 307.445 0.0818655 -1.57387 0
M  V30 3268 C 308.856 0.634871 -1.75574 0
M  V30 3269 C 309.207 1.78435 -0.815809 0
M  V30 3270 O 308.332 2.164 0.0025366 0
M  V30 3271 C 308.927 1.15845 -3.18379 0
M  V30 3272 C 307.486 1.65741 -3.37945 0
M  V30 3273 C 306.633 0.572549 -2.71325 0
M  V30 3274 H 309.584 -0.144268 -1.58043 0
M  V30 3275 H 309.605 2.02751 -3.21982 0
M  V30 3276 H 309.117 0.321631 -3.86765 0
M  V30 3277 H 307.218 2.51781 -2.74658 0
M  V30 3278 H 307.331 1.74129 -4.46336 0
M  V30 3279 H 305.695 1.01518 -2.33594 0
M  V30 3280 H 306.478 -0.253918 -3.4236 0
M  V30 3281 N 308.923 1.53595 0.353017 0
M  V30 3282 C 310.17 1.70385 1.09431 0
M  V30 3283 C 310.498 0.462113 1.88931 0
M  V30 3284 O 309.753 -0.556074 1.87633 0
M  V30 3285 C 310.052 2.91313 2.07054 0
M  V30 3286 C 309.718 4.27308 1.43939 0
M  V30 3287 C 308.38 4.64287 1.26454 0
M  V30 3288 C 310.732 5.11829 0.983883 0
M  V30 3289 C 308.06 5.83412 0.620226 0
M  V30 3290 C 310.412 6.31611 0.353516 0
M  V30 3291 C 309.076 6.67293 0.166272 0
M  V30 3292 H 308.346 0.623484 0.400436 0
M  V30 3293 H 310.993 1.87799 0.374655 0
M  V30 3294 H 309.298 2.68463 2.85368 0
M  V30 3295 H 310.995 3.01497 2.64387 0
M  V30 3296 H 307.585 3.98198 1.58543 0
M  V30 3297 H 311.769 4.838 1.10685 0
M  V30 3298 H 307.025 6.09639 0.463681 0
M  V30 3299 H 311.199 6.964 -0.00757555 0
M  V30 3300 H 308.826 7.59461 -0.335047 0
M  V30 3301 N 310.401 -0.613514 1.45168 0
M  V30 3302 C 311.648 -1.37268 1.48875 0
M  V30 3303 C 311.976 -1.94077 0.128161 0
M  V30 3304 O 311.231 -1.75178 -0.872416 0
M  V30 3305 C 311.53 -2.54347 2.51083 0
M  V30 3306 C 311.196 -2.1572 3.95949 0
M  V30 3307 C 309.858 -2.04899 4.35396 0
M  V30 3308 C 312.21 -1.85485 4.87078 0
M  V30 3309 C 309.538 -1.62057 5.63875 0
M  V30 3310 C 311.89 -1.4413 6.15962 0
M  V30 3311 C 310.554 -1.31863 6.54346 0
M  V30 3312 H 309.824 -0.502299 0.544773 0
M  V30 3313 H 312.471 -0.694021 1.78481 0
M  V30 3314 H 310.776 -3.27524 2.15024 0
M  V30 3315 H 312.473 -3.12577 2.51191 0
M  V30 3316 H 309.063 -2.25066 3.64751 0
M  V30 3317 H 313.247 -1.92745 4.57343 0
M  V30 3318 H 308.503 -1.51177 5.92415 0
M  V30 3319 H 312.677 -1.19778 6.86022 0
M  V30 3320 H 310.304 -0.984392 7.538 0
M  V30 3321 N 311.879 -1.3236 -0.855495 0
M  V30 3322 C 312.842 -1.21164 -1.94556 0
M  V30 3323 C 313.842 -0.134908 -1.60233 0
M  V30 3324 O 315.032 -0.385249 -1.69887 0
M  V30 3325 C 312.164 -0.863192 -3.29791 0
M  V30 3326 H 313.357 -2.18038 -2.05911 0
M  V30 3327 H 310.91 -1.16179 -1.04557 0
M  V30 3328 H 311.645 0.103769 -3.24134 0
M  V30 3329 H 311.43 -1.64166 -3.56078 0
M  V30 3330 H 312.92 -0.809156 -4.09686 0
M  V30 3331 N 313.357 1.07166 -1.15556 0
M  V30 3332 C 314.585 1.83514 -0.955519 0
M  V30 3333 C 315 1.82163 0.49621 0
M  V30 3334 O 314.357 1.23441 1.34419 0
M  V30 3335 C 314.408 3.30515 -1.46432 0
M  V30 3336 O 314.129 3.31937 -2.85918 0
M  V30 3337 C 315.63 4.23625 -1.30603 0
M  V30 3338 H 312.85 0.578926 -0.339244 0
M  V30 3339 H 315.394 1.35265 -1.53374 0
M  V30 3340 H 313.549 3.76106 -0.928584 0
M  V30 3341 H 313.963 4.23794 -3.09029 0
M  V30 3342 H 315.437 5.24831 -1.71047 0
M  V30 3343 H 315.914 4.38485 -0.250441 0
M  V30 3344 H 316.52 3.83871 -1.83094 0
M  V30 3345 N 314.835 0.952656 1.25548 0
M  V30 3346 C 316.082 0.606373 1.93208 0
M  V30 3347 C 316.41 -0.85631 1.74636 0
M  V30 3348 O 315.665 -1.62951 1.08376 0
M  V30 3349 C 315.964 0.908818 3.45652 0
M  V30 3350 C 315.63 2.35722 3.84378 0
M  V30 3351 C 314.292 2.75312 3.9466 0
M  V30 3352 C 316.644 3.29793 4.03591 0
M  V30 3353 C 313.972 4.08047 4.21562 0
M  V30 3354 C 316.324 4.62138 4.31985 0
M  V30 3355 C 314.988 5.01528 4.40484 0
M  V30 3356 H 314.258 0.221888 0.706998 0
M  V30 3357 H 316.905 1.20132 1.49133 0
M  V30 3358 H 315.21 0.231456 3.91116 0
M  V30 3359 H 316.907 0.619498 3.96186 0
M  V30 3360 H 313.497 2.04017 3.76928 0
M  V30 3361 H 317.681 3.00397 3.95064 0
M  V30 3362 H 312.937 4.38212 4.26357 0
M  V30 3363 H 317.111 5.35012 4.45797 0
M  V30 3364 H 314.738 6.04406 4.61083 0
M  V30 3365 N 316.313 -1.40141 0.720998 0
M  V30 3366 C 317.59 -1.94677 0.189757 0
M  V30 3367 C 317.97 -1.65879 -1.30566 0
M  V30 3368 O 317.318 -0.979391 -2.06447 0
M  V30 3369 C 317.528 -3.45279 0.508304 0
M  V30 3370 C 318.876 -4.22209 0.449934 0
M  V30 3371 O 319.9 -3.53413 0.444677 0
M  V30 3372 O 318.759 -5.44788 0.432189 0
M  V30 3373 H 315.853 -0.826459 0.0299026 0
M  V30 3374 H 318.399 -1.49719 0.7989 0
M  V30 3375 H 317.171 -3.59619 1.54239 0
M  V30 3376 H 316.794 -3.97386 -0.130525 0
M  V30 3377 N 317.792 -0.46758 -1.50504 0
M  V30 3378 C 319.017 0.0886943 -2.0721 0
M  V30 3379 C 319.442 1.33057 -1.32956 0
M  V30 3380 O 318.8 1.77354 -0.376197 0
M  V30 3381 C 318.848 0.359202 -3.58806 0
M  V30 3382 O 317.952 1.44034 -3.8643 0
M  V30 3383 H 317.293 -0.0114349 -0.663902 0
M  V30 3384 H 319.823 -0.657613 -1.93744 0
M  V30 3385 H 319.833 0.600742 -4.03553 0
M  V30 3386 H 318.508 -0.548311 -4.1227 0
M  V30 3387 H 317.085 1.18638 -3.53524 0
M  V30 3388 N 319.27 1.56325 -0.20005 0
M  V30 3389 C 320.217 2.1932 0.718833 0
M  V30 3390 C 321.187 1.14198 1.20615 0
M  V30 3391 O 322.372 1.42469 1.26914 0
M  V30 3392 C 319.512 2.86041 1.93066 0
M  V30 3393 C 318.625 4.05702 1.48425 0
M  V30 3394 C 317.76 4.60266 2.65196 0
M  V30 3395 C 316.799 5.72273 2.17185 0
M  V30 3396 N 315.936 6.21221 3.27152 0
M  V30 3397 H 320.776 2.97486 0.17489 0
M  V30 3398 H 318.313 1.46911 0.0745794 0
M  V30 3399 H 320.271 3.22897 2.64184 0
M  V30 3400 H 318.901 2.1043 2.44783 0
M  V30 3401 H 317.953 3.74475 0.668755 0
M  V30 3402 H 319.265 4.86699 1.09204 0
M  V30 3403 H 318.419 4.99453 3.4443 0
M  V30 3404 H 317.158 3.78386 3.07693 0
M  V30 3405 H 316.163 5.3261 1.36407 0
M  V30 3406 H 317.388 6.55974 1.75713 0
M  V30 3407 H 315.334 5.42263 3.69171 0
M  V30 3408 H 315.251 6.97284 2.92116 0
M  V30 3409 H 316.519 6.65063 4.06585 0
M  V30 3410 N 320.748 -0.0735177 1.57428 0
M  V30 3411 C 321.994 -0.774145 1.87443 0
M  V30 3412 C 322.327 -1.77311 0.792103 0
M  V30 3413 O 321.602 -1.93492 -0.197793 0
M  V30 3414 C 321.885 -1.48367 3.28115 0
M  V30 3415 C 321.738 -0.501227 4.46999 0
M  V30 3416 C 323.057 -2.429 3.66998 0
M  V30 3417 H 320.176 -0.279971 0.681752 0
M  V30 3418 H 322.818 -0.0373616 1.89963 0
M  V30 3419 H 320.968 -2.11171 3.26097 0
M  V30 3420 H 322.64 0.121468 4.6114 0
M  V30 3421 H 320.883 0.183593 4.33411 0
M  V30 3422 H 321.554 -1.03526 5.42205 0
M  V30 3423 H 324.03 -1.90175 3.70098 0
M  V30 3424 H 322.906 -2.89549 4.66318 0
M  V30 3425 H 323.167 -3.27628 2.96837 0
M  V30 3426 N 322.226 -1.5378 -0.344866 0
M  V30 3427 C 323.189 -1.80981 -1.40637 0
M  V30 3428 C 324.189 -0.680816 -1.45676 0
M  V30 3429 O 325.379 -0.949095 -1.46075 0
M  V30 3430 C 322.511 -1.95063 -2.79577 0
M  V30 3431 H 323.704 -2.75803 -1.17783 0
M  V30 3432 H 321.257 -1.45173 -0.579181 0
M  V30 3433 H 321.992 -1.02379 -3.07716 0
M  V30 3434 H 321.777 -2.77198 -2.77315 0
M  V30 3435 H 323.267 -2.17629 -3.56409 0
M  V30 3436 N 323.704 0.605807 -1.45491 0
M  V30 3437 C 324.651 1.7164 -1.54299 0
M  V30 3438 C 325.621 1.61486 -0.388761 0
M  V30 3439 O 326.806 1.81039 -0.602445 0
M  V30 3440 C 323.946 3.09953 -1.51734 0
M  V30 3441 C 323.059 3.309 -2.77721 0
M  V30 3442 C 322.194 4.59329 -2.66816 0
M  V30 3443 C 321.233 4.7354 -3.87848 0
M  V30 3444 N 320.37 5.9327 -3.75467 0
M  V30 3445 H 325.21 1.63449 -2.49176 0
M  V30 3446 H 322.747 0.796957 -1.23641 0
M  V30 3447 H 324.705 3.89977 -1.48235 0
M  V30 3448 H 323.335 3.17098 -0.604068 0
M  V30 3449 H 322.387 2.44639 -2.913 0
M  V30 3450 H 323.699 3.37274 -3.67488 0
M  V30 3451 H 322.853 5.4755 -2.61292 0
M  V30 3452 H 321.592 4.55355 -1.74651 0
M  V30 3453 H 320.597 3.83741 -3.93729 0
M  V30 3454 H 321.822 4.79309 -4.81082 0
M  V30 3455 H 319.768 5.90338 -2.86072 0
M  V30 3456 H 319.685 6.00811 -4.5887 0
M  V30 3457 H 320.953 6.83984 -3.73879 0
M  V30 3458 N 325.182 1.32811 0.848464 0
M  V30 3459 C 326.129 1.22265 1.95755 0
M  V30 3460 C 327.099 0.103413 1.65778 0
M  V30 3461 O 328.284 0.280033 1.88734 0
M  V30 3462 C 325.424 0.958014 3.31536 0
M  V30 3463 C 324.537 2.16262 3.73971 0
M  V30 3464 C 323.672 1.83295 4.98575 0
M  V30 3465 C 322.711 3.00041 5.33518 0
M  V30 3466 N 321.848 2.67125 6.49299 0
M  V30 3467 H 326.688 2.17128 2.04107 0
M  V30 3468 H 324.225 1.07982 0.998913 0
M  V30 3469 H 326.183 0.785052 4.09747 0
M  V30 3470 H 324.813 0.046159 3.22767 0
M  V30 3471 H 323.865 2.44565 2.91362 0
M  V30 3472 H 325.177 3.03572 3.95785 0
M  V30 3473 H 324.331 1.62586 5.84509 0
M  V30 3474 H 323.07 0.932078 4.7871 0
M  V30 3475 H 322.075 3.21374 4.46093 0
M  V30 3476 H 323.3 3.90869 5.55336 0
M  V30 3477 H 321.246 1.79586 6.3094 0
M  V30 3478 H 321.163 3.47965 6.71161 0
M  V30 3479 H 322.431 2.49861 7.3837 0
M  V30 3480 N 326.66 -1.06551 1.16123 0
M  V30 3481 C 327.59 -2.15935 0.88851 0
M  V30 3482 C 328.571 -1.69306 -0.164135 0
M  V30 3483 O 329.756 -1.94193 -0.0167857 0
M  V30 3484 C 326.886 -3.45149 0.385942 0
M  V30 3485 C 325.84 -4.05271 1.3762 0
M  V30 3486 C 325.166 -5.29664 0.732137 0
M  V30 3487 C 326.466 -4.44355 2.74493 0
M  V30 3488 H 328.16 -2.39006 1.80323 0
M  V30 3489 H 325.706 -1.14866 0.868435 0
M  V30 3490 H 327.659 -4.21004 0.182647 0
M  V30 3491 H 326.383 -3.21689 -0.564274 0
M  V30 3492 H 325.042 -3.3147 1.56599 0
M  V30 3493 H 324.69 -5.02499 -0.224483 0
M  V30 3494 H 324.39 -5.70848 1.39307 0
M  V30 3495 H 325.914 -6.08218 0.538802 0
M  V30 3496 H 327.328 -5.11303 2.59311 0
M  V30 3497 H 325.725 -4.96515 3.37035 0
M  V30 3498 H 326.795 -3.55339 3.29943 0
M  V30 3499 N 328.138 -0.959301 -1.25041 0
M  V30 3500 C 329.366 -0.633949 -1.96948 0
M  V30 3501 C 329.781 0.794916 -1.7125 0
M  V30 3502 O 329.138 1.53231 -0.991287 0
M  V30 3503 C 329.189 -0.888805 -3.50403 0
M  V30 3504 O 328.91 -2.26149 -3.75218 0
M  V30 3505 C 330.411 -0.576482 -4.39536 0
M  V30 3506 H 327.631 -0.237263 -0.627652 0
M  V30 3507 H 330.175 -1.28495 -1.59089 0
M  V30 3508 H 328.33 -0.284145 -3.86357 0
M  V30 3509 H 328.744 -2.33514 -4.6965 0
M  V30 3510 H 330.218 -0.805314 -5.46094 0
M  V30 3511 H 330.695 0.489075 -4.36468 0
M  V30 3512 H 331.301 -1.16067 -4.09156 0
M  V30 3513 N 329.616 1.39756 -0.72842 0
M  V30 3514 C 330.546 2.33289 -0.0991354 0
M  V30 3515 C 331.527 1.53568 0.731489 0
M  V30 3516 O 332.712 1.81987 0.677807 0
M  V30 3517 C 329.842 3.3763 0.813834 0
M  V30 3518 C 328.796 4.2791 0.0878663 0
M  V30 3519 C 328.122 5.22894 1.11741 0
M  V30 3520 C 329.422 5.11314 -1.06563 0
M  V30 3521 H 331.116 2.86163 -0.880408 0
M  V30 3522 H 328.662 1.37591 -0.424819 0
M  V30 3523 H 330.615 4.0201 1.26355 0
M  V30 3524 H 329.339 2.83181 1.62715 0
M  V30 3525 H 327.998 3.65 -0.342159 0
M  V30 3526 H 327.646 4.64744 1.92412 0
M  V30 3527 H 327.346 5.84143 0.636477 0
M  V30 3528 H 328.87 5.90151 1.56697 0
M  V30 3529 H 330.284 5.69076 -0.694671 0
M  V30 3530 H 328.681 5.81671 -1.47577 0
M  V30 3531 H 329.751 4.46534 -1.89038 0
M  V30 3532 N 331.094 0.475555 1.50254 0
M  V30 3533 C 332.041 -0.316293 2.28622 0
M  V30 3534 C 333.011 -0.983227 1.33873 0
M  V30 3535 O 334.196 -0.994805 1.62814 0
M  V30 3536 C 331.336 -1.38975 3.1588 0
M  V30 3537 C 330.449 -0.737146 4.25664 0
M  V30 3538 C 329.584 -1.78887 5.00173 0
M  V30 3539 C 328.623 -1.11676 6.01826 0
M  V30 3540 N 327.76 -2.11154 6.69596 0
M  V30 3541 H 332.6 0.358297 2.95838 0
M  V30 3542 H 330.137 0.188541 1.45887 0
M  V30 3543 H 332.095 -2.02383 3.64825 0
M  V30 3544 H 330.725 -2.03344 2.50701 0
M  V30 3545 H 329.777 0.0096065 3.80399 0
M  V30 3546 H 331.089 -0.206816 4.98371 0
M  V30 3547 H 330.243 -2.49865 5.52859 0
M  V30 3548 H 328.982 -2.35302 4.27182 0
M  V30 3549 H 327.987 -0.392633 5.48396 0
M  V30 3550 H 329.212 -0.55945 6.76792 0
M  V30 3551 H 327.158 -2.66577 5.99394 0
M  V30 3552 H 327.075 -1.63118 7.38193 0
M  V30 3553 H 328.343 -2.81497 7.26897 0
M  V30 3554 N 332.573 -1.56217 0.208337 0
M  V30 3555 C 333.503 -2.22694 -0.702116 0
M  V30 3556 C 334.484 -1.19432 -1.2112 0
M  V30 3557 O 335.669 -1.47978 -1.25762 0
M  V30 3558 C 332.799 -2.8966 -1.9161 0
M  V30 3559 C 331.753 -3.9928 -1.5414 0
M  V30 3560 C 331.079 -4.53476 -2.83308 0
M  V30 3561 C 332.379 -5.17012 -0.741339 0
M  V30 3562 H 334.073 -2.99034 -0.147898 0
M  V30 3563 H 331.619 -1.43831 -0.0696951 0
M  V30 3564 H 333.572 -3.34852 -2.55836 0
M  V30 3565 H 332.296 -2.10746 -2.49507 0
M  V30 3566 H 330.955 -3.54799 -0.922668 0
M  V30 3567 H 330.603 -3.71308 -3.39322 0
M  V30 3568 H 330.303 -5.27451 -2.58976 0
M  V30 3569 H 331.827 -5.01378 -3.485 0
M  V30 3570 H 333.241 -5.58667 -1.28699 0
M  V30 3571 H 331.638 -5.97137 -0.595627 0
M  V30 3572 H 332.708 -4.8423 0.254851 0
M  V30 3573 N 334.051 0.0651679 -1.57465 0
M  V30 3574 C 334.999 1.09542 -2.05191 0
M  V30 3575 C 335.993 1.39675 -0.958509 0
M  V30 3576 O 337.199 1.39003 -1.14359 0
M  V30 3577 H 333.574 0.370623 -0.654326 0
M  V30 3578 H 335.545 0.666802 -2.90854 0
M  V30 3579 C 334.294 2.39881 -2.51699 0
M  V30 3580 H 333.617 2.17547 -3.3543 0
M  V30 3581 H 335.057 3.104 -2.88839 0
M  V30 3582 C 333.516 3.0631 -1.40271 0
M  V30 3583 O 334.046 3.94664 -0.748523 0
M  V30 3584 N 332.252 2.67041 -1.14618 0
M  V30 3585 H 331.799 1.95281 -1.67997 0
M  V30 3586 H 331.757 3.1181 -0.402688 0
M  V30 3587 N 335.529 1.53961 0.336706 0
M  V30 3588 C 336.439 1.85432 1.43708 0
M  V30 3589 C 337.455 0.745053 1.57242 0
M  V30 3590 O 338.631 1.03804 1.72588 0
M  V30 3591 C 335.696 2.06349 2.78605 0
M  V30 3592 C 334.757 3.30191 2.74358 0
M  V30 3593 C 333.99 3.50101 4.02822 0
M  V30 3594 O 334.213 2.7371 5.00439 0
M  V30 3595 O 333.147 4.43547 4.06878 0
M  V30 3596 H 336.973 2.78975 1.20028 0
M  V30 3597 H 334.558 1.39701 0.52952 0
M  V30 3598 H 336.44 2.21513 3.58483 0
M  V30 3599 H 335.115 1.15995 3.02203 0
M  V30 3600 H 334.022 3.20425 1.93078 0
M  V30 3601 H 335.355 4.2056 2.55715 0
M  V30 3602 N 337.007 -0.598083 1.45811 0
M  V30 3603 C 338.256 -1.35295 1.49594 0
M  V30 3604 C 338.569 -1.95057 0.145679 0
M  V30 3605 O 339.775 -2.71431 0.0612099 0
M  V30 3606 C 338.231 -2.45124 2.63519 0
M  V30 3607 C 337.839 -1.91732 4.04899 0
M  V30 3608 C 339.583 -3.2205 2.76558 0
M  V30 3609 C 337.49 -2.991 5.1019 0
M  V30 3610 H 336.42 -0.508552 0.556679 0
M  V30 3611 H 339.071 -0.639977 1.71978 0
M  V30 3612 H 337.453 -3.19149 2.34435 0
M  V30 3613 H 338.627 -1.24352 4.43704 0
M  V30 3614 H 336.942 -1.27522 3.96393 0
M  V30 3615 H 339.539 -4.0215 3.52391 0
M  V30 3616 H 339.882 -3.73663 1.83526 0
M  V30 3617 H 340.415 -2.55127 3.05213 0
M  V30 3618 H 337.154 -2.52393 6.04961 0
M  V30 3619 H 336.674 -3.65017 4.75944 0
M  V30 3620 H 338.353 -3.63318 5.35359 0
M  V30 3621 N 338.485 -1.33259 -0.841409 0
M  V30 3622 C 339.762 -1.15174 -1.58096 0
M  V30 3623 C 340.142 0.282858 -2.09196 0
M  V30 3624 O 339.49 1.28151 -1.89181 0
M  V30 3625 C 339.7 -2.1907 -2.71679 0
M  V30 3626 C 341.048 -2.53093 -3.40924 0
M  V30 3627 O 342.072 -2.17717 -2.81918 0
M  V30 3628 O 340.931 -3.1379 -4.47435 0
M  V30 3629 H 338.025 -0.445303 -0.696875 0
M  V30 3630 H 340.571 -1.44833 -0.884385 0
M  V30 3631 H 339.343 -3.15443 -2.31541 0
M  V30 3632 H 338.966 -1.90481 -3.49002 0
M  V30 3633 N 339.963 1.05934 -1.16686 0
M  V30 3634 C 341.21 1.788 -0.950622 0
M  V30 3635 C 341.538 1.87384 0.521305 0
M  V30 3636 O 340.793 1.36438 1.40297 0
M  V30 3637 C 341.092 3.23105 -1.52767 0
M  V30 3638 C 340.758 3.34594 -3.02254 0
M  V30 3639 C 339.42 3.37437 -3.43059 0
M  V30 3640 C 341.772 3.36219 -3.98254 0
M  V30 3641 C 339.1 3.39525 -4.78477 0
M  V30 3642 C 341.452 3.39845 -5.33562 0
M  V30 3643 C 340.116 3.40971 -5.73842 0
M  V30 3644 H 339.386 0.654275 -0.347857 0
M  V30 3645 H 342.033 1.24555 -1.45459 0
M  V30 3646 H 340.338 3.80227 -0.94524 0
M  V30 3647 H 342.035 3.7809 -1.336 0
M  V30 3648 H 338.625 3.3309 -2.6972 0
M  V30 3649 H 342.809 3.33231 -3.67792 0
M  V30 3650 H 338.065 3.38703 -5.09009 0
M  V30 3651 H 342.239 3.4005 -6.07733 0
M  V30 3652 H 339.866 3.42342 -6.78753 0
M  V30 3653 N 341.441 0.965919 1.2453 0
M  V30 3654 C 342.671 0.643451 1.96324 0
M  V30 3655 C 343.079 -0.790927 1.71875 0
M  V30 3656 O 342.422 -1.54208 0.998273 0
M  V30 3657 C 342.484 0.836078 3.49643 0
M  V30 3658 C 342.148 2.24975 3.97788 0
M  V30 3659 C 343.145 3.22735 4.07601 0
M  V30 3660 C 340.83 2.57697 4.31158 0
M  V30 3661 C 342.824 4.51303 4.50116 0
M  V30 3662 C 340.511 3.86492 4.73357 0
M  V30 3663 C 341.509 4.83107 4.828 0
M  V30 3664 O 341.197 6.09605 5.24058 0
M  V30 3665 H 340.929 0.239223 0.632257 0
M  V30 3666 H 343.483 1.29587 1.59362 0
M  V30 3667 H 341.713 0.12649 3.86493 0
M  V30 3668 H 343.402 0.512965 4.02646 0
M  V30 3669 H 344.168 2.98783 3.82039 0
M  V30 3670 H 340.047 1.83216 4.23028 0
M  V30 3671 H 343.591 5.26716 4.57401 0
M  V30 3672 H 339.488 4.10245 4.98366 0
M  V30 3673 H 340.256 6.13146 5.42213 0
M  V30 3674 N 342.919 -1.39368 0.735821 0
M  V30 3675 C 343.829 -2.34395 0.0979693 0
M  V30 3676 C 344.845 -1.58361 -0.720968 0
M  V30 3677 O 346.021 -1.90648 -0.649245 0
M  V30 3678 C 343.086 -3.37393 -0.797916 0
M  V30 3679 C 342.147 -4.29287 0.0333662 0
M  V30 3680 C 341.38 -5.27365 -0.819854 0
M  V30 3681 O 341.603 -5.31959 -2.05855 0
M  V30 3682 O 340.537 -6.01389 -0.248079 0
M  V30 3683 H 344.363 -2.90601 0.882315 0
M  V30 3684 H 341.948 -1.40909 0.4965 0
M  V30 3685 H 343.83 -4.00505 -1.31048 0
M  V30 3686 H 342.505 -2.83571 -1.56106 0
M  V30 3687 H 341.412 -3.69395 0.591475 0
M  V30 3688 H 342.745 -4.86317 0.758752 0
M  V30 3689 N 344.397 -0.483516 -1.5 0
M  V30 3690 C 345.36 0.292965 -2.2732 0
M  V30 3691 C 346.36 0.909499 -1.32608 0
M  V30 3692 O 347.55 0.776745 -1.55924 0
M  V30 3693 C 344.682 1.41854 -3.09984 0
M  V30 3694 H 345.875 -0.385289 -2.97415 0
M  V30 3695 H 343.428 -0.237942 -1.54478 0
M  V30 3696 H 344.163 2.13148 -2.44414 0
M  V30 3697 H 343.948 0.982114 -3.79601 0
M  V30 3698 H 345.438 1.96597 -3.68429 0
M  V30 3699 N 345.875 1.56104 -0.216619 0
M  V30 3700 C 347.122 1.98172 0.416416 0
M  V30 3701 C 347.45 1.10413 1.60122 0
M  V30 3702 O 346.705 0.147967 1.9514 0
M  V30 3703 C 347.004 3.45923 0.898464 0
M  V30 3704 C 346.67 4.50559 -0.175288 0
M  V30 3705 C 345.332 4.78897 -0.470271 0
M  V30 3706 C 347.684 5.1334 -0.901728 0
M  V30 3707 C 345.012 5.67299 -1.4963 0
M  V30 3708 C 347.364 6.02853 -1.91705 0
M  V30 3709 C 346.028 6.29537 -2.21901 0
M  V30 3710 H 345.298 0.725164 0.152377 0
M  V30 3711 H 347.945 1.88839 -0.318103 0
M  V30 3712 H 346.25 3.52434 1.71165 0
M  V30 3713 H 347.947 3.75841 1.39803 0
M  V30 3714 H 344.537 4.28551 0.0647806 0
M  V30 3715 H 348.721 4.91521 -0.687072 0
M  V30 3716 H 343.977 5.86239 -1.73592 0
M  V30 3717 H 348.151 6.50552 -2.48505 0
M  V30 3718 H 345.778 6.97835 -3.01548 0
M  V30 3719 N 347.353 -0.0568162 1.57498 0
M  V30 3720 C 348.286 -1.09817 2.00039 0
M  V30 3721 C 349.264 -1.3674 0.879819 0
M  V30 3722 O 350.448 -1.49863 1.14338 0
M  V30 3723 C 347.575 -2.43924 2.34986 0
M  V30 3724 C 346.621 -2.33039 3.57204 0
M  V30 3725 S 347.454 -1.7102 5.07457 0
M  V30 3726 C 348.61 -3.06674 5.45621 0
M  V30 3727 H 348.843 -0.735701 2.88053 0
M  V30 3728 H 346.376 -0.265871 1.52094 0
M  V30 3729 H 348.334 -3.2106 2.55795 0
M  V30 3730 H 346.995 -2.77327 1.47474 0
M  V30 3731 H 346.188 -3.31973 3.79223 0
M  V30 3732 H 345.79 -1.64043 3.36104 0
M  V30 3733 H 348.082 -4.03 5.44608 0
M  V30 3734 H 349.025 -2.8942 6.46252 0
M  V30 3735 H 349.433 -3.07969 4.73091 0
M  V30 3736 N 348.832 -1.54138 -0.328536 0
M  V30 3737 C 349.742 -1.86192 -1.42723 0
M  V30 3738 C 350.758 -0.753382 -1.56844 0
M  V30 3739 O 351.934 -1.04718 -1.72035 0
M  V30 3740 C 348.999 -2.07824 -2.77507 0
M  V30 3741 C 348.06 -3.31641 -2.72603 0
M  V30 3742 C 347.293 -3.52232 -4.00959 0
M  V30 3743 O 347.516 -2.7636 -4.9898 0
M  V30 3744 O 346.45 -4.45699 -4.0452 0
M  V30 3745 H 350.276 -2.79608 -1.18547 0
M  V30 3746 H 347.861 -1.3998 -0.522104 0
M  V30 3747 H 349.743 -2.23411 -3.57303 0
M  V30 3748 H 348.418 -1.17596 -3.01584 0
M  V30 3749 H 347.325 -3.21444 -1.91376 0
M  V30 3750 H 348.658 -4.2191 -2.53481 0
M  V30 3751 N 350.31 0.590341 -1.46126 0
M  V30 3752 C 351.22 1.72793 -1.58681 0
M  V30 3753 C 352.236 1.67516 -0.470566 0
M  V30 3754 O 353.412 1.87562 -0.733642 0
M  V30 3755 C 350.477 3.09287 -1.5666 0
M  V30 3756 C 349.538 3.25886 -2.79458 0
M  V30 3757 C 348.771 4.55869 -2.77524 0
M  V30 3758 O 348.994 5.3928 -1.85832 0
M  V30 3759 O 347.928 4.75552 -3.68964 0
M  V30 3760 H 351.754 1.65149 -2.54872 0
M  V30 3761 H 349.339 0.756486 -1.28832 0
M  V30 3762 H 351.221 3.90577 -1.58202 0
M  V30 3763 H 349.896 3.17385 -0.636271 0
M  V30 3764 H 348.803 2.44119 -2.83472 0
M  V30 3765 H 350.136 3.22675 -3.71674 0
M  V30 3766 N 351.788 1.33704 0.83433 0
M  V30 3767 C 353.199 1.22813 1.4062 0
M  V30 3768 C 353.55 -0.151107 1.95617 0
M  V30 3769 O 352.675 -1.05092 1.89168 0
M  V30 3770 C 353.27 2.22355 2.55624 0
M  V30 3771 C 351.829 2.1529 3.08751 0
M  V30 3772 C 350.976 2.09589 1.8157 0
M  V30 3773 H 353.927 1.45236 0.639702 0
M  V30 3774 H 353.948 1.83391 3.33389 0
M  V30 3775 H 353.46 3.22728 2.15566 0
M  V30 3776 H 351.561 1.18235 3.53343 0
M  V30 3777 H 351.674 3.06038 3.68616 0
M  V30 3778 H 350.038 1.55134 2.02004 0
M  V30 3779 H 350.821 3.11777 1.43701 0
M  V30 3780 N 353.266 -1.05314 1.17247 0
M  V30 3781 C 354.512 -1.78557 0.961513 0
M  V30 3782 C 354.845 -1.87419 -0.508697 0
M  V30 3783 O 354.12 -1.37307 -1.37757 0
M  V30 3784 C 354.403 -3.22514 1.60176 0
M  V30 3785 C 354.256 -3.21673 3.14399 0
M  V30 3786 C 355.575 -4.20318 1.30463 0
M  V30 3787 H 352.694 -0.6482 0.350723 0
M  V30 3788 H 355.336 -1.23102 1.44727 0
M  V30 3789 H 353.486 -3.69867 1.18871 0
M  V30 3790 H 355.158 -2.82405 3.64753 0
M  V30 3791 H 353.401 -2.60048 3.47214 0
M  V30 3792 H 354.072 -4.23271 3.54324 0
M  V30 3793 H 356.548 -3.81454 1.66229 0
M  V30 3794 H 355.424 -5.19289 1.77848 0
M  V30 3795 H 355.685 -4.41526 0.22521 0
M  V30 3796 N 354.744 -0.972509 -1.24016 0
M  V30 3797 C 355.972 -0.654803 -1.96265 0
M  V30 3798 C 356.387 0.776708 -1.72083 0
M  V30 3799 O 355.744 1.52171 -1.00748 0
M  V30 3800 C 355.795 -0.92592 -3.49441 0
M  V30 3801 O 355.516 -2.30116 -3.72798 0
M  V30 3802 C 357.017 -0.623068 -4.38899 0
M  V30 3803 H 354.237 -0.243907 -0.6251 0
M  V30 3804 H 356.781 -1.30175 -1.57717 0
M  V30 3805 H 354.936 -0.325108 -3.86033 0
M  V30 3806 H 355.35 -2.38483 -4.67147 0
M  V30 3807 H 356.824 -0.863189 -5.45209 0
M  V30 3808 H 357.301 0.442754 -4.36963 0
M  V30 3809 H 357.907 -1.204 -4.07902 0
M  V30 3810 N 356.222 1.38976 -0.743202 0
M  V30 3811 C 357.471 1.99581 -0.291592 0
M  V30 3812 C 357.784 1.59656 1.13001 0
M  V30 3813 O 358.99 2.13157 1.68156 0
M  V30 3814 C 357.446 3.56813 -0.470391 0
M  V30 3815 C 357.054 4.05695 -1.90041 0
M  V30 3816 C 358.798 4.24423 -0.0809709 0
M  V30 3817 C 356.705 5.5553 -2.02832 0
M  V30 3818 H 355.635 0.746615 -0.105272 0
M  V30 3819 H 358.286 1.58872 -0.918258 0
M  V30 3820 H 356.668 3.95359 0.225299 0
M  V30 3821 H 357.842 3.78464 -2.62872 0
M  V30 3822 H 356.157 3.50775 -2.24379 0
M  V30 3823 H 358.754 5.34474 -0.155445 0
M  V30 3824 H 359.097 4.04962 0.96497 0
M  V30 3825 H 359.63 3.9108 -0.728124 0
M  V30 3826 H 356.369 5.79881 -3.05643 0
M  V30 3827 H 355.889 5.84537 -1.34448 0
M  V30 3828 H 357.568 6.21069 -1.81335 0
M  V30 3829 N 357.7 0.491464 1.49741 0
M  V30 3830 C 359.111 0.0413169 1.86654 0
M  V30 3831 C 359.462 -1.36985 1.40462 0
M  V30 3832 O 358.587 -2.01917 0.778354 0
M  V30 3833 C 359.182 0.0682023 3.38731 0
M  V30 3834 C 357.741 -0.32656 3.74981 0
M  V30 3835 C 356.888 0.444888 2.73708 0
M  V30 3836 H 359.839 0.704733 1.42194 0
M  V30 3837 H 359.86 -0.729322 3.73445 0
M  V30 3838 H 359.372 1.09539 3.72321 0
M  V30 3839 H 357.473 -1.35734 3.46997 0
M  V30 3840 H 357.586 -0.013741 4.79098 0
M  V30 3841 H 355.95 -0.104062 2.54487 0
M  V30 3842 H 356.733 1.47197 3.10142 0
M  V30 3843 N 359.178 -1.55987 0.224894 0
M  V30 3844 C 360.455 -1.90232 -0.455083 0
M  V30 3845 C 360.835 -1.14269 -1.77499 0
M  V30 3846 O 360.183 -0.253079 -2.27094 0
M  V30 3847 C 360.393 -3.42993 -0.644758 0
M  V30 3848 C 361.741 -4.13821 -0.950669 0
M  V30 3849 O 362.765 -3.4861 -0.731423 0
M  V30 3850 O 361.624 -5.29128 -1.36695 0
M  V30 3851 H 358.718 -0.79108 -0.241084 0
M  V30 3852 H 361.264 -1.67581 0.267327 0
M  V30 3853 H 360.036 -3.90252 0.28613 0
M  V30 3854 H 359.659 -3.71434 -1.41853 0
M  V30 3855 N 360.656 0.0484629 -1.57525 0
M  V30 3856 C 361.603 1.05504 -2.05275 0
M  V30 3857 C 362.573 1.37084 -0.937927 0
M  V30 3858 O 363.758 1.47754 -1.2072 0
M  V30 3859 C 360.898 2.35676 -2.52093 0
M  V30 3860 C 360.011 2.10423 -3.77288 0
M  V30 3861 C 359.146 3.34327 -4.12794 0
M  V30 3862 C 358.185 3.04542 -5.30962 0
M  V30 3863 N 357.322 4.20841 -5.61994 0
M  V30 3864 H 362.162 0.640885 -2.91027 0
M  V30 3865 H 359.699 0.304854 -1.43906 0
M  V30 3866 H 361.657 3.11709 -2.77297 0
M  V30 3867 H 360.287 2.7485 -1.69285 0
M  V30 3868 H 359.339 1.24976 -3.59284 0
M  V30 3869 H 360.651 1.84438 -4.63448 0
M  V30 3870 H 359.805 4.1874 -4.39024 0
M  V30 3871 H 358.544 3.63408 -3.25247 0
M  V30 3872 H 357.549 2.18528 -5.04505 0
M  V30 3873 H 358.774 2.76758 -6.20146 0
M  V30 3874 H 356.72 4.4991 -4.77406 0
M  V30 3875 H 356.637 3.98212 -6.42622 0
M  V30 3876 H 357.905 5.06184 -5.92789 0
M  V30 3877 N 362.134 1.5431 0.320358 0
M  V30 3878 C 363.545 1.63872 0.894594 0
M  V30 3879 C 363.896 0.534847 1.88769 0
M  V30 3880 O 363.021 -0.331732 2.13842 0
M  V30 3881 C 363.616 2.97049 1.62934 0
M  V30 3882 C 362.175 3.08796 2.15226 0
M  V30 3883 C 361.322 2.59456 0.978671 0
M  V30 3884 H 364.273 1.58398 0.0978544 0
M  V30 3885 H 364.294 2.87388 2.49376 0
M  V30 3886 H 363.806 3.7737 0.906302 0
M  V30 3887 H 361.907 2.33156 2.90636 0
M  V30 3888 H 362.02 4.14649 2.40006 0
M  V30 3889 H 360.384 2.1543 1.35875 0
M  V30 3890 H 361.167 3.42237 0.269895 0
M  V30 3891 N 363.613 -0.582584 1.46437 0
M  V30 3892 C 364.561 -1.71272 1.5738 0
M  V30 3893 C 365.555 -1.63524 0.44229 0
M  V30 3894 O 366.761 -1.69016 0.619166 0
M  V30 3895 H 363.136 -0.566273 0.494813 0
M  V30 3896 H 365.107 -1.59174 2.52401 0
M  V30 3897 C 363.856 -3.09658 1.58136 0
M  V30 3898 H 363.179 -3.16291 2.44541 0
M  V30 3899 H 364.619 -3.88494 1.69847 0
M  V30 3900 C 363.078 -3.3547 0.310026 0
M  V30 3901 O 363.608 -3.97199 -0.599683 0
M  V30 3902 N 361.814 -2.89925 0.197901 0
M  V30 3903 H 361.361 -2.39873 0.93909 0
M  V30 3904 H 361.319 -3.07568 -0.65185 0
M  V30 3905 N 365.091 -1.34144 -0.827227 0
M  V30 3906 C 366.316 -1.29476 -1.62021 0
M  V30 3907 C 366.741 0.129292 -1.87655 0
M  V30 3908 O 366.099 1.08967 -1.449 0
M  V30 3909 C 366.147 -2.08702 -2.94068 0
M  V30 3910 O 365.251 -1.45359 -3.85933 0
M  V30 3911 H 364.592 -0.444881 -0.492927 0
M  V30 3912 H 367.122 -1.76882 -1.02829 0
M  V30 3913 H 367.132 -2.19898 -3.43669 0
M  V30 3914 H 365.807 -3.12241 -2.74734 0
M  V30 3915 H 364.384 -1.42879 -3.44442 0
M  V30 3916 N 366.569 1.04691 -1.17803 0
M  V30 3917 C 367.479 2.16057 -0.914151 0
M  V30 3918 C 368.495 1.73589 0.119503 0
M  V30 3919 O 369.671 2.01308 -0.0609468 0
M  V30 3920 C 366.736 3.4394 -0.436603 0
M  V30 3921 C 365.797 4.00825 -1.53746 0
M  V30 3922 C 365.03 5.22604 -1.0826 0
M  V30 3923 O 365.253 5.70367 0.0612244 0
M  V30 3924 O 364.187 5.7186 -1.87775 0
M  V30 3925 H 368.013 2.41169 -1.84584 0
M  V30 3926 H 365.598 1.1453 -0.959334 0
M  V30 3927 H 367.48 4.21024 -0.178057 0
M  V30 3928 H 366.155 3.20316 0.466869 0
M  V30 3929 H 365.062 3.25158 -1.84995 0
M  V30 3930 H 366.395 4.28778 -2.41683 0
M  V30 3931 N 368.047 0.979072 1.23499 0
M  V30 3932 C 368.957 0.526431 2.28617 0
M  V30 3933 C 369.973 -0.418126 1.68901 0
M  V30 3934 O 371.149 -0.288372 1.99325 0
M  V30 3935 C 368.214 -0.165235 3.46306 0
M  V30 3936 C 367.275 0.82056 4.21385 0
M  V30 3937 C 366.508 0.161807 5.33455 0
M  V30 3938 O 366.731 -1.04742 5.60701 0
M  V30 3939 O 365.665 0.859708 5.95729 0
M  V30 3940 H 369.491 1.4006 2.69475 0
M  V30 3941 H 367.076 0.746643 1.29405 0
M  V30 3942 H 368.958 -0.553287 4.17752 0
M  V30 3943 H 367.633 -1.01419 3.07402 0
M  V30 3944 H 366.54 1.25929 3.52268 0
M  V30 3945 H 367.873 1.63828 4.64135 0
M  V30 3946 N 369.525 -1.3858 0.750561 0
M  V30 3947 C 370.435 -2.34278 0.122825 0
M  V30 3948 C 371.451 -1.59116 -0.704131 0
M  V30 3949 O 372.627 -1.91326 -0.628987 0
M  V30 3950 C 369.692 -3.38221 -0.762086 0
M  V30 3951 C 368.753 -4.29227 0.078896 0
M  V30 3952 C 367.986 -5.28205 -0.763874 0
M  V30 3953 O 368.209 -5.34112 -2.00201 0
M  V30 3954 O 367.143 -6.01618 -0.18428 0
M  V30 3955 H 370.969 -2.89649 0.913088 0
M  V30 3956 H 368.554 -1.40374 0.511417 0
M  V30 3957 H 370.436 -4.01872 -1.26793 0
M  V30 3958 H 369.111 -2.85211 -1.5309 0
M  V30 3959 H 368.018 -3.68747 0.630621 0
M  V30 3960 H 369.351 -4.85484 0.810289 0
M  V30 3961 N 371.003 -0.499398 -1.49478 0
M  V30 3962 C 372.252 0.0475259 -2.01644 0
M  V30 3963 C 372.565 1.38195 -1.38425 0
M  V30 3964 O 373.771 2.01547 -1.8191 0
M  V30 3965 C 372.227 0.135164 -3.59646 0
M  V30 3966 C 371.835 -1.19252 -4.31837 0
M  V30 3967 C 373.579 0.632538 -4.19761 0
M  V30 3968 C 371.486 -1.06713 -5.81693 0
M  V30 3969 H 370.416 0.0215349 -0.753692 0
M  V30 3970 H 373.067 -0.638577 -1.7203 0
M  V30 3971 H 371.449 0.885681 -3.85969 0
M  V30 3972 H 372.623 -1.9562 -4.17216 0
M  V30 3973 H 370.938 -1.62321 -3.83459 0
M  V30 3974 H 373.535 0.743833 -5.29501 0
M  V30 3975 H 373.878 1.63098 -3.83021 0
M  V30 3976 H 374.411 -0.0613987 -3.97753 0
M  V30 3977 H 371.15 -2.03979 -6.22955 0
M  V30 3978 H 370.67 -0.344307 -5.98811 0
M  V30 3979 H 372.349 -0.745208 -6.42694 0
M  V30 3980 N 372.481 1.55866 -0.233164 0
M  V30 3981 C 373.727 1.98897 0.395959 0
M  V30 3982 C 374.06 1.12091 1.58585 0
M  V30 3983 O 373.335 0.181182 1.93654 0
M  V30 3984 C 373.618 3.50658 0.819224 0
M  V30 3985 C 373.471 4.48233 -0.375109 0
M  V30 3986 C 374.79 4.07135 1.67121 0
M  V30 3987 H 371.909 0.723102 0.142451 0
M  V30 3988 H 374.551 1.87082 -0.331725 0
M  V30 3989 H 372.701 3.60857 1.43925 0
M  V30 3990 H 374.373 4.50031 -1.01341 0
M  V30 3991 H 372.616 4.21624 -1.02058 0
M  V30 3992 H 373.287 5.51988 -0.0358328 0
M  V30 3993 H 375.763 3.99952 1.14795 0
M  V30 3994 H 374.639 5.13615 1.93625 0
M  V30 3995 H 374.9 3.54736 2.63846 0
M  V30 3996 N 373.959 -0.0401083 1.57549 0
M  V30 3997 C 374.907 -1.06264 2.06908 0
M  V30 3998 C 375.901 -1.38132 0.980608 0
M  V30 3999 O 377.107 -1.37167 1.16556 0
M  V30 4000 H 373.482 -0.360166 0.660139 0
M  V30 4001 H 375.453 -0.620445 2.91878 0
M  V30 4002 C 374.202 -2.35846 2.55483 0
M  V30 4003 H 373.525 -2.12183 3.38849 0
M  V30 4004 H 374.965 -3.05765 2.93741 0
M  V30 4005 C 373.424 -3.0404 1.45126 0
M  V30 4006 O 373.954 -3.93424 0.811216 0
M  V30 4007 N 372.16 -2.65184 1.18852 0
M  V30 4008 H 371.707 -1.92584 1.71083 0
M  V30 4009 H 371.665 -3.1113 0.452244 0
M  V30 4010 N 375.437 -1.54477 -0.31217 0
M  V30 4011 C 376.684 -1.73227 -1.04875 0
M  V30 4012 C 377.012 -0.512042 -1.87639 0
M  V30 4013 O 376.267 0.506131 -1.89042 0
M  V30 4014 C 376.566 -2.967 -1.99258 0
M  V30 4015 C 376.232 -4.30974 -1.32559 0
M  V30 4016 C 374.894 -4.67477 -1.141 0
M  V30 4017 C 377.246 -5.14258 -0.847835 0
M  V30 4018 C 374.574 -5.84852 -0.465326 0
M  V30 4019 C 376.926 -6.32327 -0.185931 0
M  V30 4020 C 375.59 -6.67499 0.0107077 0
M  V30 4021 H 374.86 -0.633881 -0.383765 0
M  V30 4022 H 377.507 -1.88727 -0.324731 0
M  V30 4023 H 375.812 -2.75935 -2.7815 0
M  V30 4024 H 377.509 -3.08401 -2.563 0
M  V30 4025 H 374.099 -4.02262 -1.4793 0
M  V30 4026 H 378.283 -4.86565 -0.978192 0
M  V30 4027 H 373.539 -6.10654 -0.301883 0
M  V30 4028 H 377.713 -6.96135 0.192211 0
M  V30 4029 H 375.34 -7.58306 0.536287 0
M  V30 4030 N 376.915 0.57481 -1.46744 0
M  V30 4031 C 378.161 1.3347 -1.52688 0
M  V30 4032 C 378.494 1.93353 -0.181229 0
M  V30 4033 O 377.769 1.76912 0.808237 0
M  V30 4034 C 378.052 2.45811 -2.63152 0
M  V30 4035 C 377.905 1.90912 -4.07275 0
M  V30 4036 C 379.224 3.47822 -2.69644 0
M  V30 4037 H 376.343 0.483935 -0.555856 0
M  V30 4038 H 378.985 0.644968 -1.78718 0
M  V30 4039 H 377.135 3.04646 -2.41088 0
M  V30 4040 H 378.807 1.36473 -4.4065 0
M  V30 4041 H 377.05 1.21691 -4.16382 0
M  V30 4042 H 377.721 2.72042 -4.80309 0
M  V30 4043 H 380.197 2.9888 -2.895 0
M  V30 4044 H 379.073 4.23876 -3.48742 0
M  V30 4045 H 379.334 4.05555 -1.76005 0
M  V30 4046 N 378.394 1.34581 0.820102 0
M  V30 4047 C 379.304 1.28471 1.96297 0
M  V30 4048 C 380.32 0.191902 1.72939 0
M  V30 4049 O 381.496 0.418879 1.96996 0
M  V30 4050 C 378.561 1.04281 3.30645 0
M  V30 4051 C 377.622 2.22745 3.66992 0
M  V30 4052 C 376.855 1.997 4.9493 0
M  V30 4053 O 377.078 0.956656 5.6232 0
M  V30 4054 O 376.012 2.86723 5.2922 0
M  V30 4055 H 379.838 2.24624 2.04396 0
M  V30 4056 H 377.423 1.14816 0.955913 0
M  V30 4057 H 379.305 0.925841 4.11104 0
M  V30 4058 H 377.98 0.111697 3.23507 0
M  V30 4059 H 376.887 2.40003 2.86966 0
M  V30 4060 H 378.22 3.14257 3.78819 0
M  V30 4061 N 379.872 -1.04064 1.18357 0
M  V30 4062 C 380.782 -2.15569 0.925596 0
M  V30 4063 C 381.798 -1.7365 -0.110295 0
M  V30 4064 O 382.974 -2.01273 0.0716218 0
M  V30 4065 C 380.039 -3.43704 0.454836 0
M  V30 4066 C 379.1 -4.00004 1.55869 0
M  V30 4067 C 378.333 -5.22023 1.1103 0
M  V30 4068 O 378.556 -5.70392 -0.0309756 0
M  V30 4069 O 377.49 -5.70856 1.90805 0
M  V30 4070 H 381.316 -2.40187 1.8586 0
M  V30 4071 H 378.901 -1.1402 0.965394 0
M  V30 4072 H 380.783 -4.20923 0.200382 0
M  V30 4073 H 379.458 -3.20559 -0.449876 0
M  V30 4074 H 378.365 -3.24172 1.86716 0
M  V30 4075 H 379.698 -4.2749 2.43953 0
M  V30 4076 N 381.35 -0.985608 -1.22978 0
M  V30 4077 C 382.3 -0.50118 -2.22423 0
M  V30 4078 C 383.284 0.426649 -1.5514 0
M  V30 4079 O 384.476 0.254656 -1.75159 0
M  V30 4080 C 381.605 0.190003 -3.42774 0
M  V30 4081 C 380.691 -0.757703 -4.17276 0
M  V30 4082 N 381.082 -1.90251 -4.68656 0
M  V30 4083 C 379.38 -0.57209 -4.42316 0
M  V30 4084 C 380.081 -2.49676 -5.25392 0
M  V30 4085 N 379.057 -1.78013 -5.13627 0
M  V30 4086 H 382.859 -1.37441 -2.59783 0
M  V30 4087 H 380.373 -0.846941 -1.38567 0
M  V30 4088 H 382.37 0.55439 -4.13197 0
M  V30 4089 H 381.03 1.05946 -3.06929 0
M  V30 4090 H 382.041 -2.28354 -4.64839 0
M  V30 4091 H 378.718 0.251909 -4.16739 0
M  V30 4092 H 380.108 -3.46384 -5.75732 0
M  V30 4093 N 382.828 1.3818 -0.7579 0
M  V30 4094 C 384.244 1.5353 -0.435972 0
M  V30 4095 C 384.444 1.71961 1.05032 0
M  V30 4096 O 383.5 1.73307 1.83633 0
M  V30 4097 C 384.813 2.73989 -1.23898 0
M  V30 4098 C 386.361 2.87841 -1.22949 0
M  V30 4099 C 386.836 4.11266 -2.01554 0
M  V30 4100 N 388.327 4.18352 -1.98837 0
M  V30 4101 C 389.062 5.12856 -2.5645 0
M  V30 4102 N 388.558 6.13005 -3.22794 0
M  V30 4103 N 390.351 5.05238 -2.46356 0
M  V30 4104 H 382.502 1.24467 -1.7211 0
M  V30 4105 H 384.765 0.604982 -0.729864 0
M  V30 4106 H 384.471 2.66789 -2.29165 0
M  V30 4107 H 384.345 3.67294 -0.858764 0
M  V30 4108 H 386.732 2.9452 -0.184854 0
M  V30 4109 H 386.813 1.95534 -1.64924 0
M  V30 4110 H 386.457 4.05349 -3.06031 0
M  V30 4111 H 386.387 5.02661 -1.5697 0
M  V30 4112 H 388.878 3.46628 -1.50524 0
M  V30 4113 H 389.191 6.81619 -3.64165 0
M  V30 4114 H 387.536 6.13325 -3.2689 0
M  V30 4115 H 390.727 4.25938 -1.9415 0
M  V30 4116 H 390.9 5.78707 -2.91552 0
M  V30 4117 N 384.306 0.507319 1.49211 0
M  V30 4118 C 385.722 0.163682 1.58758 0
M  V30 4119 C 385.922 -1.33208 1.51188 0
M  V30 4120 O 384.978 -2.10855 1.38911 0
M  V30 4121 C 386.291 0.746095 2.91297 0
M  V30 4122 C 387.839 0.712773 3.04776 0
M  V30 4123 C 388.314 1.27336 4.39943 0
M  V30 4124 N 389.805 1.23433 4.46451 0
M  V30 4125 C 390.54 1.63821 5.495 0
M  V30 4126 N 390.036 2.11832 6.5962 0
M  V30 4127 N 391.829 1.55198 5.4025 0
M  V30 4128 H 383.98 1.47972 1.52375 0
M  V30 4129 H 386.243 0.614147 0.722168 0
M  V30 4130 H 385.949 1.79534 3.02424 0
M  V30 4131 H 385.823 0.210137 3.76614 0
M  V30 4132 H 388.21 -0.327656 2.93275 0
M  V30 4133 H 388.291 1.28595 2.21127 0
M  V30 4134 H 387.935 2.3126 4.52196 0
M  V30 4135 H 387.865 0.676066 5.22242 0
M  V30 4136 H 390.356 0.882627 3.67448 0
M  V30 4137 H 390.669 2.40703 7.34358 0
M  V30 4138 H 389.014 2.1581 6.60644 0
M  V30 4139 H 392.205 1.17505 4.53112 0
M  V30 4140 H 392.378 1.86997 6.20432 0
M  V30 4141 N 385.784 -1.5574 0.241426 0
M  V30 4142 C 387.009 -2.0366 -0.392111 0
M  V30 4143 C 387.434 -1.11969 -1.51144 0
M  V30 4144 O 386.792 -0.111594 -1.80956 0
M  V30 4145 C 386.84 -3.49638 -0.882371 0
M  V30 4146 O 385.944 -3.6108 -1.99235 0
M  V30 4147 H 385.285 -0.658379 -0.0862122 0
M  V30 4148 H 387.815 -2.01302 0.365881 0
M  V30 4149 H 387.825 -3.90351 -1.18702 0
M  V30 4150 H 386.5 -4.15852 -0.0632361 0
M  V30 4151 H 385.077 -3.32262 -1.69282 0
M  V30 4152 N 387.262 0.0317525 -1.57568 0
M  V30 4153 C 388.49 0.734949 -1.93407 0
M  V30 4154 C 388.905 1.69036 -0.84096 0
M  V30 4155 O 388.262 1.81582 0.182836 0
M  V30 4156 C 388.313 1.49432 -3.29169 0
M  V30 4157 O 388.034 0.577261 -4.3428 0
M  V30 4158 C 389.535 2.29492 -3.79273 0
M  V30 4159 H 386.755 0.206706 -0.638368 0
M  V30 4160 H 389.299 -0.00992046 -2.04498 0
M  V30 4161 H 387.454 2.1911 -3.19483 0
M  V30 4162 H 387.868 1.10952 -5.1263 0
M  V30 4163 H 389.342 2.78172 -4.76785 0
M  V30 4164 H 389.819 3.10794 -3.10328 0
M  V30 4165 H 390.425 1.64894 -3.92033 0
M  V30 4166 N 388.74 1.54641 0.303973 0
M  V30 4167 C 389.67 1.88386 1.3796 0
M  V30 4168 C 390.651 0.742485 1.5304 0
M  V30 4169 O 391.836 0.997959 1.66597 0
M  V30 4170 C 388.966 2.12854 2.74427 0
M  V30 4171 C 387.92 3.28702 2.74115 0
M  V30 4172 C 387.246 3.38582 4.13844 0
M  V30 4173 C 388.546 4.65881 2.3612 0
M  V30 4174 H 390.24 2.78474 1.09966 0
M  V30 4175 H 387.786 1.33988 0.527556 0
M  V30 4176 H 389.739 2.35047 3.49758 0
M  V30 4177 H 388.463 1.19535 3.03939 0
M  V30 4178 H 387.122 3.06428 2.0124 0
M  V30 4179 H 386.77 2.42784 4.40528 0
M  V30 4180 H 386.47 4.16453 4.14537 0
M  V30 4181 H 387.994 3.63031 4.90959 0
M  V30 4182 H 389.408 4.87823 3.01167 0
M  V30 4183 H 387.805 5.46444 2.48031 0
M  V30 4184 H 388.875 4.66799 1.3125 0
M  V30 4185 N 390.218 -0.567019 1.47046 0
M  V30 4186 C 391.634 -0.891975 1.32348 0
M  V30 4187 C 391.834 -1.99154 0.306616 0
M  V30 4188 O 390.89 -2.50883 -0.28532 0
M  V30 4189 C 392.203 -1.29449 2.7141 0
M  V30 4190 C 393.751 -1.40646 2.79621 0
M  V30 4191 C 394.226 -1.84257 4.19301 0
M  V30 4192 N 395.717 -1.91424 4.21795 0
M  V30 4193 C 396.452 -2.26476 5.26779 0
M  V30 4194 N 395.948 -2.60211 6.42077 0
M  V30 4195 N 397.741 -2.27166 5.14152 0
M  V30 4196 H 389.892 0.159074 2.11803 0
M  V30 4197 H 392.155 0.00849752 0.947962 0
M  V30 4198 H 391.861 -0.560448 3.47206 0
M  V30 4199 H 391.735 -2.25273 3.02542 0
M  V30 4200 H 394.122 -2.13133 2.04104 0
M  V30 4201 H 394.203 -0.430339 2.52154 0
M  V30 4202 H 393.847 -1.12343 4.95319 0
M  V30 4203 H 393.777 -2.82855 4.44185 0
M  V30 4204 H 396.268 -1.6778 3.38612 0
M  V30 4205 H 396.581 -2.85956 7.17948 0
M  V30 4206 H 394.926 -2.57813 6.45413 0
M  V30 4207 H 398.117 -2.00244 4.23107 0
M  V30 4208 H 398.29 -2.54154 5.96079 0
M  V30 4209 N 391.696 -1.35014 -0.812953 0
M  V30 4210 C 392.643 -1.27412 -1.92444 0
M  V30 4211 C 393.613 -0.14733 -1.65445 0
M  V30 4212 O 394.798 -0.329974 -1.87925 0
M  V30 4213 C 391.938 -1.04558 -3.28879 0
M  V30 4214 C 391.051 -2.26101 -3.68106 0
M  V30 4215 C 390.186 -1.96449 -4.9354 0
M  V30 4216 C 389.225 -3.14081 -5.25376 0
M  V30 4217 N 388.362 -2.84246 -6.41988 0
M  V30 4218 H 393.202 -2.22463 -1.98278 0
M  V30 4219 H 390.739 -1.10593 -0.969933 0
M  V30 4220 H 392.697 -0.893413 -4.07522 0
M  V30 4221 H 391.327 -0.131719 -3.22531 0
M  V30 4222 H 390.379 -2.52204 -2.84775 0
M  V30 4223 H 391.691 -3.13959 -3.87597 0
M  V30 4224 H 390.845 -1.78026 -5.79993 0
M  V30 4225 H 389.584 -1.05867 -4.76071 0
M  V30 4226 H 388.589 -3.33089 -4.37415 0
M  V30 4227 H 389.814 -4.05455 -5.44778 0
M  V30 4228 H 387.76 -1.96252 -6.25956 0
M  V30 4229 H 387.677 -3.65637 -6.61699 0
M  V30 4230 H 388.945 -2.6935 -7.31485 0
M  V30 4231 N 393.175 1.03435 -1.18907 0
M  V30 4232 C 394.105 2.13503 -0.945448 0
M  V30 4233 C 395.086 1.69682 0.119189 0
M  V30 4234 O 396.271 1.94169 -0.034707 0
M  V30 4235 C 393.401 3.44004 -0.477316 0
M  V30 4236 C 392.355 4.0148 -1.48316 0
M  V30 4237 C 391.681 5.27537 -0.872311 0
M  V30 4238 C 392.981 4.36921 -2.86177 0
M  V30 4239 H 394.675 2.34141 -1.86597 0
M  V30 4240 H 392.221 1.12523 -0.898584 0
M  V30 4241 H 394.174 4.20372 -0.294204 0
M  V30 4242 H 392.898 3.23072 0.478786 0
M  V30 4243 H 391.557 3.27201 -1.65332 0
M  V30 4244 H 391.205 5.02917 0.0911752 0
M  V30 4245 H 390.905 5.66954 -1.54393 0
M  V30 4246 H 392.429 6.06576 -0.699871 0
M  V30 4247 H 393.843 5.04248 -2.72776 0
M  V30 4248 H 392.24 4.87405 -3.50081 0
M  V30 4249 H 393.31 3.46466 -3.39248 0
M  V30 4250 N 394.653 0.992116 1.22453 0
M  V30 4251 C 395.6 0.541731 2.24352 0
M  V30 4252 C 396.57 -0.425519 1.60557 0
M  V30 4253 O 397.755 -0.330453 1.87917 0
M  V30 4254 C 394.895 -0.138248 3.44823 0
M  V30 4255 C 394.008 0.870649 4.23136 0
M  V30 4256 C 393.143 0.164269 5.30946 0
M  V30 4257 C 392.182 1.16159 6.00977 0
M  V30 4258 N 391.319 0.483568 7.00433 0
M  V30 4259 H 396.159 1.41541 2.62241 0
M  V30 4260 H 393.696 0.709013 1.28885 0
M  V30 4261 H 395.654 -0.5494 4.13567 0
M  V30 4262 H 394.284 -0.975721 3.077 0
M  V30 4263 H 393.336 1.40013 3.53696 0
M  V30 4264 H 394.648 1.63014 4.7141 0
M  V30 4265 H 393.802 -0.303653 6.0594 0
M  V30 4266 H 392.541 -0.627733 4.83643 0
M  V30 4267 H 391.546 1.64015 5.24766 0
M  V30 4268 H 392.771 1.95445 6.50368 0
M  V30 4269 H 390.717 -0.289012 6.55363 0
M  V30 4270 H 390.634 1.18152 7.4671 0
M  V30 4271 H 391.902 0.0384219 7.79491 0
M  V30 4272 N 396.131 -1.37776 0.765217 0
M  V30 4273 C 397.542 -1.82521 0.392819 0
M  V30 4274 C 397.893 -1.63789 -1.08017 0
M  V30 4275 O 397.018 -1.14542 -1.83601 0
M  V30 4276 C 397.613 -3.31358 0.706214 0
M  V30 4277 C 396.172 -3.74406 0.386952 0
M  V30 4278 C 395.319 -2.60394 0.953422 0
M  V30 4279 H 398.27 -1.2634 0.960412 0
M  V30 4280 H 398.291 -3.80498 -0.0114706 0
M  V30 4281 H 397.803 -3.44959 1.77833 0
M  V30 4282 H 395.904 -3.66377 -0.678112 0
M  V30 4283 H 396.017 -4.70749 0.890636 0
M  V30 4284 H 394.381 -2.51878 0.378064 0
M  V30 4285 H 395.164 -2.76791 2.03081 0
M  V30 4286 N 397.609 -0.515225 -1.4894 0
M  V30 4287 C 398.519 0.259774 -2.33157 0
M  V30 4288 C 399.535 0.953501 -1.45548 0
M  V30 4289 O 400.711 0.931735 -1.78552 0
M  V30 4290 C 397.776 1.30193 -3.21326 0
M  V30 4291 C 396.837 0.620129 -4.24797 0
M  V30 4292 C 396.07 1.61263 -5.08753 0
M  V30 4293 O 396.293 2.84389 -4.94448 0
M  V30 4294 O 395.227 1.16013 -5.90614 0
M  V30 4295 H 399.053 -0.429932 -3.00641 0
M  V30 4296 H 396.638 -0.276346 -1.46822 0
M  V30 4297 H 398.52 1.90455 -3.75905 0
M  V30 4298 H 397.195 1.97431 -2.56521 0
M  V30 4299 H 396.102 -0.0226019 -3.74093 0
M  V30 4300 H 397.435 -0.0100493 -4.92199 0
M  V30 4301 N 399.087 1.5561 -0.249682 0
M  V30 4302 C 400.312 2.03865 0.381305 0
M  V30 4303 C 400.737 1.12769 1.50548 0
M  V30 4304 O 400.095 0.121189 1.80895 0
M  V30 4305 C 400.143 3.50101 0.863816 0
M  V30 4306 O 399.247 3.62132 1.97318 0
M  V30 4307 H 398.588 0.658827 0.0827194 0
M  V30 4308 H 401.118 2.01105 -0.376552 0
M  V30 4309 H 401.128 3.90975 1.1663 0
M  V30 4310 H 399.803 4.1588 0.0411816 0
M  V30 4311 H 398.38 3.33155 1.67517 0
M  V30 4312 N 400.565 -0.0233959 1.57583 0
M  V30 4313 C 401.498 -1.05549 2.02323 0
M  V30 4314 C 402.476 -1.34843 0.908626 0
M  V30 4315 O 403.66 -1.47404 1.17491 0
M  V30 4316 C 400.787 -2.38885 2.40108 0
M  V30 4317 C 399.833 -2.2541 3.62067 0
M  V30 4318 S 400.666 -1.60217 5.1097 0
M  V30 4319 C 401.822 -2.95032 5.52003 0
M  V30 4320 H 402.055 -0.674435 2.89549 0
M  V30 4321 H 399.588 -0.23355 1.52623 0
M  V30 4322 H 401.546 -3.15562 2.62547 0
M  V30 4323 H 400.207 -2.74137 1.53323 0
M  V30 4324 H 399.4 -3.23854 3.86179 0
M  V30 4325 H 399.002 -1.56876 3.39508 0
M  V30 4326 H 401.294 -3.91357 5.53033 0
M  V30 4327 H 402.237 -2.75646 6.52246 0
M  V30 4328 H 402.645 -2.97865 4.79517 0
M  V30 4329 N 402.043 -1.548 -0.295768 0
M  V30 4330 C 403.273 -1.78069 -1.04762 0
M  V30 4331 C 403.681 -0.542847 -1.81245 0
M  V30 4332 O 403.024 0.497051 -1.76848 0
M  V30 4333 C 403.086 -2.93881 -2.07061 0
M  V30 4334 C 402.75 -4.31777 -1.49725 0
M  V30 4335 C 403.747 -5.11613 -0.924581 0
M  V30 4336 C 401.432 -4.78389 -1.5313 0
M  V30 4337 C 403.426 -6.36184 -0.393594 0
M  V30 4338 C 401.113 -6.02921 -0.996447 0
M  V30 4339 C 402.111 -6.81654 -0.428569 0
M  V30 4340 O 401.799 -8.0384 0.0981593 0
M  V30 4341 H 401.531 -0.597475 -0.316226 0
M  V30 4342 H 404.085 -2.02584 -0.338973 0
M  V30 4343 H 402.315 -2.65003 -2.81621 0
M  V30 4344 H 404.004 -3.04679 -2.6819 0
M  V30 4345 H 404.77 -4.76743 -0.891136 0
M  V30 4346 H 400.649 -4.17132 -1.9627 0
M  V30 4347 H 404.193 -6.97582 0.0503014 0
M  V30 4348 H 400.09 -6.37277 -1.02706 0
M  V30 4349 H 400.858 -8.18499 -0.0146455 0
M  V30 4350 N 403.521 0.559213 -1.47345 0
M  V30 4351 C 404.431 1.69388 -1.62311 0
M  V30 4352 C 405.447 1.6648 -0.505993 0
M  V30 4353 O 406.623 1.85964 -0.773262 0
M  V30 4354 C 403.688 3.05894 -1.63185 0
M  V30 4355 C 402.749 3.19885 -2.86307 0
M  V30 4356 C 401.982 4.49879 -2.87131 0
M  V30 4357 O 402.205 5.35217 -1.97229 0
M  V30 4358 O 401.139 4.67618 -3.78968 0
M  V30 4359 H 404.965 1.59706 -2.58317 0
M  V30 4360 H 402.55 0.728989 -1.30407 0
M  V30 4361 H 404.432 3.87133 -1.66451 0
M  V30 4362 H 403.107 3.15964 -0.70345 0
M  V30 4363 H 402.014 2.38052 -2.88587 0
M  V30 4364 H 403.347 3.14718 -3.78435 0
M  V30 4365 N 404.999 1.35443 0.805782 0
M  V30 4366 C 406.227 1.31878 1.59423 0
M  V30 4367 C 406.642 -0.103562 1.88516 0
M  V30 4368 O 405.999 -1.05575 1.48863 0
M  V30 4369 C 406.05 2.12426 2.92502 0
M  V30 4370 O 405.771 3.49115 2.6467 0
M  V30 4371 C 407.272 2.16455 3.86862 0
M  V30 4372 H 404.492 0.453002 0.495005 0
M  V30 4373 H 407.036 1.78309 1.00131 0
M  V30 4374 H 405.191 1.69593 3.48306 0
M  V30 4375 H 405.605 3.90957 3.49647 0
M  V30 4376 H 407.079 2.77204 4.77349 0
M  V30 4377 H 407.556 1.16352 4.23508 0
M  V30 4378 H 408.162 2.59453 3.36993 0
M  V30 4379 N 406.477 -1.02803 1.19454 0
M  V30 4380 C 407.723 -1.76598 1.0092 0
M  V30 4381 C 408.078 -1.86939 -0.455142 0
M  V30 4382 O 407.371 -1.37575 -1.33355 0
M  V30 4383 C 407.565 -3.18941 1.6128 0
M  V30 4384 C 407.394 -3.22476 3.13431 0
M  V30 4385 C 406.164 -3.30375 3.82336 0
M  V30 4386 C 408.362 -3.09451 4.10785 0
M  V30 4387 N 406.344 -3.23292 5.21877 0
M  V30 4388 C 407.715 -3.10012 5.36929 0
M  V30 4389 C 409.77 -2.93585 4.02135 0
M  V30 4390 C 408.473 -2.96334 6.55423 0
M  V30 4391 C 410.499 -2.81256 5.20239 0
M  V30 4392 C 409.861 -2.82472 6.45282 0
M  V30 4393 H 405.96 -0.657447 0.423424 0
M  V30 4394 H 408.544 -1.22369 1.5144 0
M  V30 4395 H 406.715 -3.71489 1.1336 0
M  V30 4396 H 408.447 -3.81102 1.36173 0
M  V30 4397 H 405.202 -3.3663 3.33132 0
M  V30 4398 H 405.626 -3.23156 5.94894 0
M  V30 4399 H 410.268 -2.91466 3.0628 0
M  V30 4400 H 407.986 -2.97203 7.51463 0
M  V30 4401 H 411.572 -2.70014 5.15348 0
M  V30 4402 H 410.452 -2.73036 7.35133 0
M  V30 4403 N 407.956 -0.998596 -1.21925 0
M  V30 4404 C 408.866 -0.562736 -2.27751 0
M  V30 4405 C 409.882 0.391203 -1.69545 0
M  V30 4406 O 411.058 0.256625 -1.99758 0
M  V30 4407 C 408.123 0.11012 -3.46525 0
M  V30 4408 C 407.184 -0.887495 -4.20026 0
M  V30 4409 C 406.417 -0.246654 -5.3313 0
M  V30 4410 O 406.64 0.958088 -5.62296 0
M  V30 4411 O 405.574 -0.954374 -5.94286 0
M  V30 4412 H 409.4 -1.44329 -2.67213 0
M  V30 4413 H 406.985 -0.767135 -1.28201 0
M  V30 4414 H 408.867 0.486756 -4.18579 0
M  V30 4415 H 407.542 0.965154 -3.08976 0
M  V30 4416 H 406.449 -1.31517 -3.5022 0
M  V30 4417 H 407.782 -1.71191 -4.6147 0
M  V30 4418 N 409.434 1.37368 -0.772513 0
M  V30 4419 C 410.711 1.93839 -0.26188 0
M  V30 4420 C 411.091 1.7061 1.24319 0
M  V30 4421 O 410.439 1.05534 2.02669 0
M  V30 4422 C 410.649 3.43154 -0.636102 0
M  V30 4423 C 411.997 4.20249 -0.606324 0
M  V30 4424 O 413.021 3.5152 -0.575538 0
M  V30 4425 O 411.88 5.42809 -0.634086 0
M  V30 4426 H 408.974 0.82478 -0.0605555 0
M  V30 4427 H 411.52 1.4665 -0.853917 0
M  V30 4428 H 410.292 3.53647 -1.6748 0
M  V30 4429 H 409.915 3.97596 -0.0170516 0
M  V30 4430 N 410.912 0.523116 1.48665 0
M  V30 4431 C 412.189 -0.0775449 1.95446 0
M  V30 4432 C 412.569 -1.5197 1.4652 0
M  V30 4433 O 411.917 -2.17876 0.688657 0
M  V30 4434 C 412.127 0.0326135 3.48985 0
M  V30 4435 C 413.475 -0.130141 4.24401 0
M  V30 4436 O 414.499 -0.0415142 3.56176 0
M  V30 4437 O 413.358 -0.31491 5.45592 0
M  V30 4438 H 410.452 -0.0831012 0.822814 0
M  V30 4439 H 412.998 0.587227 1.59216 0
M  V30 4440 H 411.77 1.03748 3.77296 0
M  V30 4441 H 411.393 -0.671317 3.91892 0
M  V30 4442 N 412.39 -1.55475 0.257931 0
M  V30 4443 C 413.323 -2.179 -0.677862 0
M  V30 4444 C 414.301 -1.13448 -1.16483 0
M  V30 4445 O 415.485 -1.41889 -1.24095 0
M  V30 4446 C 412.612 -2.78851 -1.92249 0
M  V30 4447 C 411.658 -3.96454 -1.57246 0
M  V30 4448 S 412.491 -5.31349 -0.665501 0
M  V30 4449 C 413.647 -5.9576 -1.91889 0
M  V30 4450 H 413.88 -2.96934 -0.147396 0
M  V30 4451 H 411.413 -1.54342 0.0423023 0
M  V30 4452 H 413.371 -3.14602 -2.63697 0
M  V30 4453 H 412.032 -1.99742 -2.42409 0
M  V30 4454 H 411.225 -4.37731 -2.49814 0
M  V30 4455 H 410.827 -3.62038 -0.938325 0
M  V30 4456 H 413.119 -6.13947 -2.86487 0
M  V30 4457 H 414.062 -6.9094 -1.54942 0
M  V30 4458 H 414.47 -5.2494 -2.076 0
M  V30 4459 N 413.868 0.0150385 -1.57593 0
M  V30 4460 C 415.145 0.7392 -1.81094 0
M  V30 4461 C 415.525 1.92817 -0.859344 0
M  V30 4462 O 414.873 2.28301 0.095362 0
M  V30 4463 C 415.083 1.15907 -3.29191 0
M  V30 4464 C 416.431 1.56918 -3.9454 0
M  V30 4465 O 417.455 1.25328 -3.33424 0
M  V30 4466 O 416.314 2.15604 -5.02173 0
M  V30 4467 H 413.408 0.358631 -0.745193 0
M  V30 4468 H 415.954 -0.00926156 -1.69697 0
M  V30 4469 H 414.726 0.310921 -3.90063 0
M  V30 4470 H 414.349 1.96711 -3.45529 0
M  V30 4471 N 415.346 1.54954 0.287554 0
M  V30 4472 C 416.594 1.74528 1.01904 0
M  V30 4473 C 416.915 0.541349 1.87335 0
M  V30 4474 O 416.185 -0.444108 1.908 0
M  V30 4475 H 414.765 0.643576 0.379235 0
M  V30 4476 H 417.427 1.92333 0.315294 0
M  V30 4477 H 416.523 2.64015 1.6644 0
M  V30 4478 N 416.824 -0.551391 1.4764 0
M  V30 4479 C 418.073 -1.30467 1.53822 0
M  V30 4480 C 418.386 -1.94495 0.207661 0
M  V30 4481 O 419.592 -2.71099 0.147533 0
M  V30 4482 C 418.048 -2.36616 2.71184 0
M  V30 4483 C 417.656 -1.78754 4.10793 0
M  V30 4484 C 419.4 -3.13088 2.86663 0
M  V30 4485 C 417.307 -2.82717 5.19447 0
M  V30 4486 H 416.237 -0.490584 0.572576 0
M  V30 4487 H 418.888 -0.58494 1.73927 0
M  V30 4488 H 417.27 -3.11529 2.4447 0
M  V30 4489 H 418.444 -1.10173 4.47435 0
M  V30 4490 H 416.759 -1.14846 4.00249 0
M  V30 4491 H 419.356 -3.90736 3.65007 0
M  V30 4492 H 419.699 -3.67635 1.95321 0
M  V30 4493 H 420.232 -2.45288 3.13175 0
M  V30 4494 H 416.971 -2.33018 6.12685 0
M  V30 4495 H 416.491 -3.4969 4.87316 0
M  V30 4496 H 418.17 -3.46102 5.46646 0
M  V30 4497 N 418.302 -1.35869 -0.798587 0
M  V30 4498 C 419.252 -1.25982 -1.90033 0
M  V30 4499 C 420.236 -0.153303 -1.60168 0
M  V30 4500 O 421.428 -0.38527 -1.72756 0
M  V30 4501 C 418.557 -1.04211 -3.27101 0
M  V30 4502 C 417.643 -2.19289 -3.63006 0
M  V30 4503 N 418.034 -3.44559 -3.70287 0
M  V30 4504 C 416.332 -2.10852 -3.93011 0
M  V30 4505 C 417.033 -4.20283 -4.02166 0
M  V30 4506 N 416.009 -3.49124 -4.16669 0
M  V30 4507 H 419.811 -2.20883 -1.93876 0
M  V30 4508 H 417.325 -1.28457 -0.993614 0
M  V30 4509 H 419.322 -0.952155 -4.05881 0
M  V30 4510 H 417.982 -0.102013 -3.2454 0
M  V30 4511 H 418.993 -3.7881 -3.53162 0
M  V30 4512 H 415.67 -1.24744 -3.98428 0
M  V30 4513 H 417.06 -5.28575 -4.14799 0
M  V30 4514 N 419.78 1.02168 -1.19998 0
M  V30 4515 C 421.029 1.75091 -1.0013 0
M  V30 4516 C 421.342 1.89923 0.467835 0
M  V30 4517 O 422.548 2.59888 0.785515 0
M  V30 4518 C 421.004 3.14892 -1.74273 0
M  V30 4519 C 420.612 3.0809 -3.25245 0
M  V30 4520 C 422.356 3.9206 -1.62755 0
M  V30 4521 C 420.263 4.42867 -3.91948 0
M  V30 4522 H 419.193 0.656394 -0.37103 0
M  V30 4523 H 421.844 1.14284 -1.43567 0
M  V30 4524 H 420.226 3.7621 -1.2362 0
M  V30 4525 H 421.4 2.5611 -3.83072 0
M  V30 4526 H 419.715 2.44416 -3.3712 0
M  V30 4527 H 422.312 4.91764 -2.09934 0
M  V30 4528 H 422.655 4.12199 -0.582894 0
M  V30 4529 H 423.188 3.37359 -2.10793 0
M  V30 4530 H 419.927 4.27931 -4.96543 0
M  V30 4531 H 419.447 4.94874 -3.3891 0
M  V30 4532 H 421.126 5.11728 -3.95909 0
M  V30 4533 N 421.258 1.00505 1.21394 0
M  V30 4534 C 422.504 0.688793 1.90745 0
M  V30 4535 C 422.837 -0.778486 1.77914 0
M  V30 4536 O 422.112 -1.56433 1.15581 0
M  V30 4537 C 422.395 1.11063 3.42545 0
M  V30 4538 C 422.248 2.63737 3.64367 0
M  V30 4539 C 423.567 0.673059 4.34923 0
M  V30 4540 H 420.686 0.251702 0.692687 0
M  V30 4541 H 423.328 1.25074 1.43026 0
M  V30 4542 H 421.478 0.632508 3.83317 0
M  V30 4543 H 423.15 3.19313 3.32922 0
M  V30 4544 H 421.393 3.05248 3.08231 0
M  V30 4545 H 422.064 2.88305 4.70727 0
M  V30 4546 H 424.54 1.08392 4.01734 0
M  V30 4547 H 423.416 0.996383 5.39781 0
M  V30 4548 H 423.677 -0.425808 4.40045 0
M  V30 4549 N 422.737 -1.36956 0.779787 0
M  V30 4550 C 423.7 -2.2851 0.177662 0
M  V30 4551 C 424.7 -1.48393 -0.619377 0
M  V30 4552 O 425.89 -1.68505 -0.441785 0
M  V30 4553 C 423.022 -3.32428 -0.755279 0
M  V30 4554 H 424.215 -2.83269 0.984823 0
M  V30 4555 H 421.768 -1.46358 0.548544 0
M  V30 4556 H 422.503 -2.82808 -1.58714 0
M  V30 4557 H 422.288 -3.91659 -0.185817 0
M  V30 4558 H 423.778 -4.00824 -1.17174 0
M  V30 4559 N 424.215 -0.530993 -1.48385 0
M  V30 4560 C 425.462 0.0027373 -2.025 0
M  V30 4561 C 425.79 1.34186 -1.40799 0
M  V30 4562 O 425.045 1.88 -0.543544 0
M  V30 4563 C 425.344 0.172742 -3.56982 0
M  V30 4564 C 425.01 -1.09215 -4.37473 0
M  V30 4565 C 423.672 -1.43881 -4.59186 0
M  V30 4566 C 426.024 -1.93153 -4.84088 0
M  V30 4567 C 423.352 -2.62381 -5.2476 0
M  V30 4568 C 425.704 -3.10833 -5.50968 0
M  V30 4569 C 424.368 -3.45843 -5.70919 0
M  V30 4570 H 423.638 0.00100165 -0.740999 0
M  V30 4571 H 426.285 -0.697219 -1.78357 0
M  V30 4572 H 424.59 0.955473 -3.79971 0
M  V30 4573 H 426.287 0.600642 -3.96476 0
M  V30 4574 H 422.877 -0.812177 -4.20834 0
M  V30 4575 H 427.061 -1.67683 -4.67115 0
M  V30 4576 H 422.317 -2.89707 -5.38405 0
M  V30 4577 H 426.491 -3.7618 -5.86056 0
M  V30 4578 H 424.118 -4.37764 -6.21503 0
M  V30 4579 N 425.693 1.55336 -0.266172 0
M  V30 4580 C 426.656 2.20878 0.612001 0
M  V30 4581 C 427.656 1.18388 1.08816 0
M  V30 4582 O 428.846 1.4335 0.989774 0
M  V30 4583 C 425.978 2.86765 1.84332 0
M  V30 4584 H 427.171 2.99873 0.0398718 0
M  V30 4585 H 424.724 1.56291 -0.0167309 0
M  V30 4586 H 425.459 2.11759 2.45619 0
M  V30 4587 H 425.244 3.61862 1.5099 0
M  V30 4588 H 426.734 3.36867 2.46801 0
M  V30 4589 N 427.171 -0.0066808 1.57599 0
M  V30 4590 C 428.081 -1.01671 2.11424 0
M  V30 4591 C 429.097 -1.38143 1.05795 0
M  V30 4592 O 430.273 -1.47011 1.37658 0
M  V30 4593 C 427.338 -2.29192 2.60139 0
M  V30 4594 C 426.399 -1.99094 3.80342 0
M  V30 4595 C 425.632 -3.20535 4.26724 0
M  V30 4596 O 425.855 -4.3199 3.72479 0
M  V30 4597 O 424.789 -3.04924 5.18946 0
M  V30 4598 H 428.615 -0.589181 2.9793 0
M  V30 4599 H 426.2 -0.225091 1.47695 0
M  V30 4600 H 428.082 -3.0412 2.917 0
M  V30 4601 H 426.757 -2.71195 1.76733 0
M  V30 4602 H 425.664 -1.21663 3.53764 0
M  V30 4603 H 426.997 -1.61931 4.648 0
M  V30 4604 N 428.649 -1.55105 -0.279332 0
M  V30 4605 C 429.559 -1.90638 -1.36727 0
M  V30 4606 C 430.575 -0.802899 -1.54368 0
M  V30 4607 O 431.751 -1.10138 -1.68616 0
M  V30 4608 C 428.816 -2.16547 -2.70755 0
M  V30 4609 C 427.877 -3.40146 -2.61915 0
M  V30 4610 C 427.11 -3.6481 -3.8955 0
M  V30 4611 O 427.333 -2.92095 -4.89935 0
M  V30 4612 O 426.267 -4.58343 -3.90135 0
M  V30 4613 H 430.093 -2.83237 -1.09591 0
M  V30 4614 H 427.678 -1.4157 -0.477306 0
M  V30 4615 H 429.56 -2.34665 -3.50014 0
M  V30 4616 H 428.235 -1.27131 -2.9769 0
M  V30 4617 H 427.142 -3.2737 -1.81052 0
M  V30 4618 H 428.475 -4.29761 -2.3993 0
M  V30 4619 N 430.127 0.543554 -1.4793 0
M  V30 4620 C 431.09 1.63156 -1.60975 0
M  V30 4621 C 432.09 1.53346 -0.483899 0
M  V30 4622 O 433.28 1.5726 -0.749339 0
M  V30 4623 C 430.412 3.02743 -1.56716 0
M  V30 4624 H 431.605 1.52934 -2.57975 0
M  V30 4625 H 429.158 0.764557 -1.36324 0
M  V30 4626 H 429.893 3.18484 -0.611418 0
M  V30 4627 H 429.678 3.11272 -2.38438 0
M  V30 4628 H 431.168 3.81871 -1.6901 0
M  V30 4629 N 431.605 1.3629 0.791371 0
M  V30 4630 C 432.882 1.20962 1.53712 0
M  V30 4631 C 433.262 -0.205021 2.10102 0
M  V30 4632 O 432.61 -1.21042 1.93807 0
M  V30 4633 C 432.82 2.29002 2.63361 0
M  V30 4634 C 434.168 2.65572 3.31295 0
M  V30 4635 O 435.192 2.2803 2.73643 0
M  V30 4636 O 434.051 3.3018 4.35481 0
M  V30 4637 H 431.145 0.47086 0.679867 0
M  V30 4638 H 433.691 1.48016 0.830021 0
M  V30 4639 H 432.463 3.2382 2.19674 0
M  V30 4640 H 432.086 2.03303 3.41692 0
M  V30 4641 N 433.083 -1.0153 1.20538 0
M  V30 4642 C 434.494 -1.56598 1.01657 0
M  V30 4643 C 434.845 -1.91505 -0.426668 0
M  V30 4644 O 433.97 -1.72375 -1.30827 0
M  V30 4645 C 434.565 -2.84542 1.83905 0
M  V30 4646 C 433.124 -3.36133 1.69386 0
M  V30 4647 C 432.271 -2.09427 1.81757 0
M  V30 4648 H 435.222 -0.838974 1.34711 0
M  V30 4649 H 435.243 -3.56004 1.34319 0
M  V30 4650 H 434.755 -2.59105 2.8894 0
M  V30 4651 H 432.856 -3.66528 0.669933 0
M  V30 4652 H 432.969 -4.08248 2.50739 0
M  V30 4653 H 431.333 -2.21941 1.24957 0
M  V30 4654 H 432.116 -1.86414 2.88279 0
M  V30 4655 N 434.561 -1.01147 -1.20859 0
M  V30 4656 C 435.838 -0.613136 -1.85742 0
M  V30 4657 C 436.218 0.909004 -1.90526 0
M  V30 4658 O 435.566 1.79862 -1.40932 0
M  V30 4659 C 435.776 -1.255 -3.25654 0
M  V30 4660 C 437.124 -1.3672 -4.01986 0
M  V30 4661 O 438.148 -1.21082 -3.34989 0
M  V30 4662 O 437.007 -1.6194 -5.21956 0
M  V30 4663 H 434.101 -0.210878 -0.799662 0
M  V30 4664 H 436.647 -1.10853 -1.2849 0
M  V30 4665 H 435.419 -2.29532 -3.16908 0
M  V30 4666 H 435.042 -0.746369 -3.90532 0
M  V30 4667 N 436.039 1.36541 -0.78704 0
M  V30 4668 C 437.287 1.98911 -0.357633 0
M  V30 4669 C 437.608 1.62778 1.07371 0
M  V30 4670 O 436.878 0.900612 1.73971 0
M  V30 4671 H 435.458 0.735734 -0.129246 0
M  V30 4672 H 438.12 1.66776 -1.00855 0
M  V30 4673 H 437.216 3.08874 -0.447549 0
M  V30 4674 N 437.518 0.538854 1.48102 0
M  V30 4675 C 438.765 0.0080018 2.02498 0
M  V30 4676 C 439.093 -1.33437 1.41509 0
M  V30 4677 O 438.348 -1.87709 0.553507 0
M  V30 4678 C 438.647 -0.153808 3.57069 0
M  V30 4679 C 438.313 1.11533 4.36888 0
M  V30 4680 C 436.975 1.46314 4.58417 0
M  V30 4681 C 439.327 1.95718 4.83057 0
M  V30 4682 C 436.655 2.6516 5.23361 0
M  V30 4683 C 439.007 3.13751 5.49312 0
M  V30 4684 C 437.671 3.48866 5.69077 0
M  V30 4685 H 436.941 0.00292807 0.740994 0
M  V30 4686 H 439.588 0.706668 1.77984 0
M  V30 4687 H 437.893 -0.935309 3.80472 0
M  V30 4688 H 439.59 -0.579607 3.96789 0
M  V30 4689 H 436.18 0.834484 4.20398 0
M  V30 4690 H 440.364 1.70158 4.66219 0
M  V30 4691 H 435.62 2.92558 5.36861 0
M  V30 4692 H 439.794 3.79282 5.84053 0
M  V30 4693 H 437.421 4.41054 6.19173 0
M  V30 4694 N 438.996 -1.55193 0.274407 0
M  V30 4695 C 439.906 -2.26164 -0.623473 0
M  V30 4696 C 440.922 -1.28729 -1.17068 0
M  V30 4697 O 442.098 -1.61663 -1.20112 0
M  V30 4698 C 439.163 -2.96833 -1.7914 0
M  V30 4699 C 438.224 -4.09745 -1.28093 0
M  V30 4700 C 437.457 -4.77034 -2.3932 0
M  V30 4701 O 437.68 -4.4353 -3.5866 0
M  V30 4702 O 436.614 -5.64996 -2.07516 0
M  V30 4703 H 440.44 -3.03661 -0.0485661 0
M  V30 4704 H 438.025 -1.49341 0.0418382 0
M  V30 4705 H 439.907 -3.41248 -2.4724 0
M  V30 4706 H 438.582 -2.22253 -2.35341 0
M  V30 4707 H 437.489 -3.69787 -0.566416 0
M  V30 4708 H 438.822 -4.86224 -0.764683 0
M  V30 4709 N 440.474 -0.00167713 -1.576 0
M  V30 4710 C 441.721 0.68282 -1.90641 0
M  V30 4711 C 442.049 1.73686 -0.875415 0
M  V30 4712 O 441.304 1.95334 0.119575 0
M  V30 4713 C 441.603 1.36189 -3.30435 0
M  V30 4714 C 441.269 0.440887 -4.48739 0
M  V30 4715 C 439.931 0.187312 -4.80835 0
M  V30 4716 C 442.283 -0.193134 -5.20842 0
M  V30 4717 C 439.611 -0.70855 -5.82406 0
M  V30 4718 C 441.963 -1.07688 -6.23367 0
M  V30 4719 C 440.627 -1.33962 -6.53919 0
M  V30 4720 H 439.897 0.249862 -0.697603 0
M  V30 4721 H 442.544 -0.0575642 -1.91413 0
M  V30 4722 H 440.849 2.17636 -3.25794 0
M  V30 4723 H 442.546 1.89759 -3.5326 0
M  V30 4724 H 439.136 0.648694 -4.23663 0
M  V30 4725 H 443.32 -0.0102445 -4.96299 0
M  V30 4726 H 438.576 -0.920097 -6.04437 0
M  V30 4727 H 442.75 -1.57451 -6.78367 0
M  V30 4728 H 440.377 -2.03549 -7.32442 0
M  V30 4729 N 441.952 1.55251 0.271103 0
M  V30 4730 C 442.882 1.9127 1.33933 0
M  V30 4731 C 443.863 0.77478 1.5143 0
M  V30 4732 O 445.048 1.03307 1.64442 0
M  V30 4733 C 442.178 2.18627 2.69851 0
M  V30 4734 C 441.132 3.34442 2.67081 0
M  V30 4735 C 440.458 3.47284 4.06569 0
M  V30 4736 C 441.758 4.70784 2.26185 0
M  V30 4737 H 443.452 2.80744 1.04035 0
M  V30 4738 H 440.998 1.35077 0.499017 0
M  V30 4739 H 442.951 2.42413 3.44694 0
M  V30 4740 H 441.675 1.25955 3.01335 0
M  V30 4741 H 440.334 3.10627 1.94695 0
M  V30 4742 H 439.982 2.52074 4.35279 0
M  V30 4743 H 439.682 4.25152 4.0561 0
M  V30 4744 H 441.206 3.73363 4.83148 0
M  V30 4745 H 442.62 4.94102 2.90751 0
M  V30 4746 H 441.017 5.51582 2.36384 0
M  V30 4747 H 442.087 4.69478 1.21319 0
M  V30 4748 N 443.43 -0.535701 1.48216 0
M  V30 4749 C 444.34 -1.66785 1.64985 0
M  V30 4750 C 445.356 -1.65654 0.532414 0
M  V30 4751 O 446.532 -1.8471 0.80275 0
M  V30 4752 C 443.597 -3.0326 1.68031 0
M  V30 4753 C 442.658 -3.1529 2.9136 0
M  V30 4754 C 441.891 -4.45255 2.94252 0
M  V30 4755 O 442.114 -5.32011 2.05719 0
M  V30 4756 O 441.048 -4.6153 3.86359 0
M  V30 4757 H 444.874 -1.55576 2.60825 0
M  V30 4758 H 442.459 -0.70815 1.31551 0
M  V30 4759 H 444.341 -3.84436 1.72589 0
M  V30 4760 H 443.016 -3.14805 0.753628 0
M  V30 4761 H 441.923 -2.3343 2.92337 0
M  V30 4762 H 443.256 -3.08658 3.83394 0
M  V30 4763 N 444.908 -1.36708 -0.784132 0
M  V30 4764 C 446.136 -1.34398 -1.57305 0
M  V30 4765 C 446.551 0.0735577 -1.88657 0
M  V30 4766 O 445.908 1.03193 -1.50524 0
M  V30 4767 C 445.959 -2.17053 -2.89085 0
M  V30 4768 O 445.68 -3.53281 -2.59083 0
M  V30 4769 C 447.181 -2.22583 -3.83369 0
M  V30 4770 H 444.401 -0.460819 -0.487736 0
M  V30 4771 H 446.945 -1.79879 -0.972819 0
M  V30 4772 H 445.1 -1.75113 -3.45564 0
M  V30 4773 H 445.514 -3.9647 -3.43383 0
M  V30 4774 H 446.988 -2.84763 -4.72878 0
M  V30 4775 H 447.465 -1.23075 -4.21603 0
M  V30 4776 H 448.071 -2.64781 -3.32823 0
M  V30 4777 N 446.386 1.0089 -1.21074 0
M  V30 4778 C 447.316 2.1145 -0.990523 0
M  V30 4779 C 448.297 1.69897 0.0831699 0
M  V30 4780 O 449.482 1.94052 -0.0758853 0
M  V30 4781 C 446.612 3.42914 -0.550177 0
M  V30 4782 C 445.566 3.98244 -1.56799 0
M  V30 4783 C 444.892 5.25568 -0.984013 0
M  V30 4784 C 446.192 4.30752 -2.95381 0
M  V30 4785 H 447.886 2.3013 -1.91521 0
M  V30 4786 H 445.432 1.10592 -0.92225 0
M  V30 4787 H 447.385 4.19653 -0.383305 0
M  V30 4788 H 446.109 3.24014 0.41015 0
M  V30 4789 H 444.768 3.23621 -1.72236 0
M  V30 4790 H 444.416 5.02998 -0.0155216 0
M  V30 4791 H 444.116 5.63551 -1.66384 0
M  V30 4792 H 445.64 6.04955 -0.828378 0
M  V30 4793 H 447.054 4.98349 -2.8341 0
M  V30 4794 H 445.451 4.79869 -3.60341 0
M  V30 4795 H 446.521 3.39192 -3.46521 0
M  V30 4796 N 447.864 1.01787 1.20321 0
M  V30 4797 C 448.811 0.589197 2.23153 0
M  V30 4798 C 449.781 -0.391367 1.61423 0
M  V30 4799 O 450.966 -0.290518 1.88575 0
M  V30 4800 C 448.106 -0.0650747 3.45039 0
M  V30 4801 C 447.219 0.960207 4.21194 0
M  V30 4802 C 446.354 0.276854 5.30478 0
M  V30 4803 C 445.393 1.2888 5.98378 0
M  V30 4804 N 444.53 0.632031 6.99249 0
M  V30 4805 H 449.37 1.47071 2.59179 0
M  V30 4806 H 446.907 0.736192 1.27352 0
M  V30 4807 H 448.865 -0.461552 4.14639 0
M  V30 4808 H 447.495 -0.910233 3.09701 0
M  V30 4809 H 446.547 1.47484 3.50646 0
M  V30 4810 H 447.859 1.72977 4.67847 0
M  V30 4811 H 447.013 -0.175056 6.06447 0
M  V30 4812 H 445.752 -0.525004 4.84866 0
M  V30 4813 H 444.757 1.75109 5.21169 0
M  V30 4814 H 445.982 2.09196 6.46076 0
M  V30 4815 H 443.928 -0.149935 6.55829 0
M  V30 4816 H 443.845 1.33964 7.44036 0
M  V30 4817 H 445.113 0.203755 7.79234 0
M  V30 4818 N 449.342 -1.36122 0.79427 0
M  V30 4819 C 450.305 -2.28309 0.201889 0
M  V30 4820 C 451.305 -1.49041 -0.603603 0
M  V30 4821 O 452.495 -1.68964 -0.423888 0
M  V30 4822 C 449.627 -3.3321 -0.719978 0
M  V30 4823 H 450.82 -2.82208 1.01481 0
M  V30 4824 H 448.373 -1.45768 0.564037 0
M  V30 4825 H 449.108 -2.84475 -1.55706 0
M  V30 4826 H 448.893 -3.91835 -0.144266 0
M  V30 4827 H 450.383 -4.02044 -1.12916 0
M  V30 4828 N 450.82 -0.546701 -1.47814 0
M  V30 4829 C 452.066 -0.0187684 -2.02791 0
M  V30 4830 C 452.399 1.32338 -1.42128 0
M  V30 4831 O 451.674 1.85867 -0.573023 0
M  V30 4832 C 451.957 0.0854985 -3.59998 0
M  V30 4833 C 451.81 -1.283 -4.31114 0
M  V30 4834 C 453.129 0.80412 -4.32691 0
M  V30 4835 H 450.248 -0.0082946 -0.736953 0
M  V30 4836 H 452.89 -0.706962 -1.76358 0
M  V30 4837 H 451.04 0.671609 -3.82651 0
M  V30 4838 H 452.712 -1.91151 -4.19832 0
M  V30 4839 H 450.955 -1.86049 -3.91878 0
M  V30 4840 H 451.626 -1.16287 -5.39612 0
M  V30 4841 H 454.102 0.306576 -4.14969 0
M  V30 4842 H 452.978 0.846011 -5.42341 0
M  V30 4843 H 453.239 1.85802 -4.01161 0
M  V30 4844 N 452.299 1.55045 -0.282633 0
M  V30 4845 C 453.262 2.21515 0.588539 0
M  V30 4846 C 454.262 1.19535 1.07554 0
M  V30 4847 O 455.452 1.44391 0.974514 0
M  V30 4848 C 452.584 2.88704 1.8128 0
M  V30 4849 H 453.777 2.99899 0.00806397 0
M  V30 4850 H 451.33 1.56265 -0.0333067 0
M  V30 4851 H 452.065 2.14352 2.43359 0
M  V30 4852 H 451.85 3.63443 1.47144 0
M  V30 4853 H 453.34 3.39465 2.43214 0
M  V30 4854 N 453.777 0.010035 1.57597 0
M  V30 4855 C 454.709 -1.00649 2.05918 0
M  V30 4856 C 455.722 -1.30077 0.978964 0
M  V30 4857 O 456.911 -1.26878 1.25556 0
M  V30 4858 C 454.011 -2.33876 2.45265 0
M  V30 4859 C 453.184 -2.23242 3.7614 0
M  V30 4860 C 452.243 -3.39242 4.02245 0
M  V30 4861 O 451.269 -3.1698 4.72771 0
M  V30 4862 N 452.471 -4.6242 3.50924 0
M  V30 4863 H 455.236 -0.594333 2.93748 0
M  V30 4864 H 452.797 -0.17714 1.60928 0
M  V30 4865 H 454.789 -3.1027 2.59836 0
M  V30 4866 H 453.359 -2.66799 1.62902 0
M  V30 4867 H 452.579 -1.31696 3.71551 0
M  V30 4868 H 453.867 -2.13321 4.61922 0
M  V30 4869 H 453.265 -4.83404 2.93832 0
M  V30 4870 H 451.822 -5.36046 3.70807 0
M  V30 4871 N 455.255 -1.55392 -0.262866 0
M  V30 4872 C 456.532 -1.67204 -1.01499 0
M  V30 4873 C 456.912 -0.545186 -2.03939 0
M  V30 4874 O 456.26 0.453467 -2.23955 0
M  V30 4875 C 456.47 -3.06847 -1.6627 0
M  V30 4876 C 457.818 -3.64928 -2.17054 0
M  V30 4877 O 458.842 -3.09545 -1.76239 0
M  V30 4878 O 457.701 -4.61984 -2.91947 0
M  V30 4879 H 454.795 -0.679467 -0.471438 0
M  V30 4880 H 457.341 -1.67729 -0.257918 0
M  V30 4881 H 456.113 -3.80309 -0.920915 0
M  V30 4882 H 455.736 -3.10266 -2.48638 0
M  V30 4883 N 456.733 0.527833 -1.48498 0
M  V30 4884 C 457.681 1.65313 -1.63628 0
M  V30 4885 C 458.675 1.6177 -0.502676 0
M  V30 4886 O 459.881 1.66601 -0.681469 0
M  V30 4887 H 456.256 0.547518 -0.515488 0
M  V30 4888 H 458.227 1.49696 -2.58135 0
M  V30 4889 C 456.976 3.03576 -1.6952 0
M  V30 4890 H 456.299 3.06997 -2.56111 0
M  V30 4891 H 457.739 3.81923 -1.84149 0
M  V30 4892 C 456.198 3.34089 -0.43432 0
M  V30 4893 O 456.728 3.99151 0.451852 0
M  V30 4894 N 454.934 2.88991 -0.305368 0
M  V30 4895 H 454.481 2.36222 -1.02747 0
M  V30 4896 H 454.439 3.09776 0.537249 0
M  V30 4897 N 458.211 1.37122 0.776871 0
M  V30 4898 C 459.439 1.3523 1.5659 0
M  V30 4899 C 459.854 -0.0635518 1.88693 0
M  V30 4900 O 459.211 -1.02394 1.51069 0
M  V30 4901 C 459.262 2.18583 2.8793 0
M  V30 4902 O 458.983 3.5465 2.57206 0
M  V30 4903 C 460.484 2.24612 3.82183 0
M  V30 4904 H 457.704 0.4634 0.485285 0
M  V30 4905 H 460.248 1.80392 0.963266 0
M  V30 4906 H 458.403 1.76943 3.4463 0
M  V30 4907 H 458.817 3.98286 3.41275 0
M  V30 4908 H 460.291 2.87267 4.71361 0
M  V30 4909 H 460.768 1.25309 4.20944 0
M  V30 4910 H 461.374 2.66543 3.31414 0
M  V30 4911 N 459.689 -1.00246 1.21608 0
M  V30 4912 C 460.599 -2.12515 0.993709 0
M  V30 4913 C 461.615 -1.73913 -0.0549939 0
M  V30 4914 O 462.791 -2.00943 0.135619 0
M  V30 4915 C 459.856 -3.42083 0.563953 0
M  V30 4916 C 458.917 -3.94843 1.68516 0
M  V30 4917 C 458.15 -5.18226 1.27582 0
M  V30 4918 O 458.373 -5.70201 0.150506 0
M  V30 4919 O 457.307 -5.64497 2.0887 0
M  V30 4920 H 461.133 -2.34152 1.93407 0
M  V30 4921 H 458.718 -1.10891 1.00118 0
M  V30 4922 H 460.6 -4.20073 0.334194 0
M  V30 4923 H 459.275 -3.21828 -0.347665 0
M  V30 4924 H 458.182 -3.18068 1.96935 0
M  V30 4925 H 459.515 -4.19512 2.5743 0
M  V30 4926 N 461.167 -1.02423 -1.1978 0
M  V30 4927 C 462.115 -0.594474 -2.24875 0
M  V30 4928 C 463.109 0.370598 -1.65296 0
M  V30 4929 O 464.315 0.239684 -1.78397 0
M  V30 4930 H 460.69 -0.173961 -0.731602 0
M  V30 4931 H 462.661 -1.4916 -2.58445 0
M  V30 4932 C 461.41 0.0436512 -3.47673 0
M  V30 4933 H 460.733 -0.689963 -3.93801 0
M  V30 4934 H 462.173 0.307362 -4.22884 0
M  V30 4935 C 460.632 1.28881 -3.11274 0
M  V30 4936 O 461.162 2.38135 -3.23503 0
M  V30 4937 N 459.368 1.1758 -2.6575 0
M  V30 4938 H 458.915 0.286769 -2.55999 0
M  V30 4939 H 458.873 2.00988 -2.41767 0
M  V30 4940 N 462.645 1.35699 -0.801477 0
M  V30 4941 C 464.056 1.81415 -0.441073 0
M  V30 4942 C 464.407 1.66595 1.03636 0
M  V30 4943 O 463.532 1.19369 1.80499 0
M  V30 4944 C 464.127 3.29369 -0.793819 0
M  V30 4945 C 462.686 3.73248 -0.486083 0
M  V30 4946 C 461.833 2.57775 -1.02213 0
M  V30 4947 H 464.784 1.23749 -0.993572 0
M  V30 4948 H 464.805 3.80395 -0.0894158 0
M  V30 4949 H 464.317 3.40123 -1.86917 0
M  V30 4950 H 462.418 3.68046 0.580735 0
M  V30 4951 H 462.531 4.68222 -1.01513 0
M  V30 4952 H 460.895 2.50788 -0.444712 0
M  V30 4953 H 461.678 2.71309 -2.10348 0
M  V30 4954 N 464.123 0.554532 1.47522 0
M  V30 4955 C 465.4 -0.0360704 1.95567 0
M  V30 4956 C 465.78 -1.48828 1.49711 0
M  V30 4957 O 465.128 -2.16366 0.734717 0
M  V30 4958 C 465.338 0.106631 3.48837 0
M  V30 4959 C 466.686 -0.0400899 4.24581 0
M  V30 4960 O 467.71 0.0340453 3.56184 0
M  V30 4961 O 466.569 -0.199111 5.46137 0
M  V30 4962 H 463.663 -0.0656294 0.824392 0
M  V30 4963 H 466.209 0.620867 1.57935 0
M  V30 4964 H 464.981 1.11727 3.7501 0
M  V30 4965 H 464.604 -0.58804 3.93227 0
M  V30 4966 N 465.601 -1.54893 0.290851 0
M  V30 4967 C 466.531 -2.26103 -0.583084 0
M  V30 4968 C 467.512 -1.25684 -1.14619 0
M  V30 4969 O 468.697 -1.54436 -1.17741 0
M  V30 4970 C 465.827 -2.99409 -1.75987 0
M  V30 4971 C 464.781 -4.0689 -1.32758 0
M  V30 4972 C 464.107 -4.67856 -2.58872 0
M  V30 4973 C 465.407 -5.20215 -0.46624 0
M  V30 4974 H 467.101 -2.99398 0.0108214 0
M  V30 4975 H 464.647 -1.43998 0.00664468 0
M  V30 4976 H 466.6 -3.47943 -2.37727 0
M  V30 4977 H 465.324 -2.23675 -2.37985 0
M  V30 4978 H 463.983 -3.59191 -0.733299 0
M  V30 4979 H 463.631 -3.88772 -3.19163 0
M  V30 4980 H 463.331 -5.40438 -2.30653 0
M  V30 4981 H 464.855 -5.19147 -3.21433 0
M  V30 4982 H 466.269 -5.64704 -0.989047 0
M  V30 4983 H 464.666 -5.99455 -0.27826 0
M  V30 4984 H 465.736 -4.82198 0.511173 0
M  V30 4985 N 467.08 -0.0183926 -1.57589 0
M  V30 4986 C 468.305 0.676634 -1.96052 0
M  V30 4987 C 468.73 1.6548 -0.894307 0
M  V30 4988 O 468.088 1.80712 0.145849 0
M  V30 4989 C 468.136 1.36872 -3.33614 0
M  V30 4990 O 467.24 2.48372 -3.29219 0
M  V30 4991 H 466.581 0.1786 -0.63953 0
M  V30 4992 H 469.111 -0.077056 -2.04455 0
M  V30 4993 H 469.121 1.72797 -3.69601 0
M  V30 4994 H 467.796 0.651636 -4.10763 0
M  V30 4995 H 466.373 2.14639 -3.04934 0
M  V30 4996 N 468.558 1.5553 0.254621 0
M  V30 4997 C 469.807 1.76202 0.981612 0
M  V30 4998 C 470.12 0.580883 1.86776 0
M  V30 4999 O 471.326 0.670448 2.63092 0
M  V30 5000 C 469.782 3.11921 1.79537 0
M  V30 5001 C 469.39 4.37659 0.956991 0
M  V30 5002 C 471.134 3.41936 2.51555 0
M  V30 5003 C 469.041 5.64411 1.76619 0
M  V30 5004 H 467.971 0.656841 0.370237 0
M  V30 5005 H 470.622 1.81969 0.236556 0
M  V30 5006 H 469.004 3.00241 2.58208 0
M  V30 5007 H 470.178 4.60307 0.21315 0
M  V30 5008 H 468.493 4.14922 0.350497 0
M  V30 5009 H 471.09 4.33849 3.12536 0
M  V30 5010 H 471.433 2.62905 3.22779 0
M  V30 5011 H 471.966 3.54797 1.799 0
M  V30 5012 H 468.705 6.46241 1.09783 0
M  V30 5013 H 468.225 5.45877 2.48551 0
M  V30 5014 H 469.904 6.03386 2.33527 0
M  V30 5015 N 470.036 -0.519951 1.48776 0
M  V30 5016 C 471.285 -1.27175 1.56555 0
M  V30 5017 C 471.598 -1.9401 0.248869 0
M  V30 5018 O 472.804 -2.70725 0.205004 0
M  V30 5019 C 471.26 -2.30811 2.76142 0
M  V30 5020 C 470.868 -1.7 4.14493 0
M  V30 5021 C 472.612 -3.06937 2.9324 0
M  V30 5022 C 470.519 -2.71635 5.25327 0
M  V30 5023 H 469.449 -0.478329 0.582853 0
M  V30 5024 H 472.1 -0.547916 1.75129 0
M  V30 5025 H 470.482 -3.06274 2.51023 0
M  V30 5026 H 471.656 -1.00658 4.49672 0
M  V30 5027 H 469.971 -1.06331 4.02595 0
M  V30 5028 H 472.568 -3.82905 3.73213 0
M  V30 5029 H 472.911 -3.63409 2.03075 0
M  V30 5030 H 473.444 -2.38589 3.18308 0
M  V30 5031 H 470.183 -2.1997 6.1749 0
M  V30 5032 H 469.703 -3.39275 4.94624 0
M  V30 5033 H 471.382 -3.34429 5.53865 0
M  V30 5034 N 471.514 -1.37532 -0.769588 0
M  V30 5035 C 472.76 -1.34063 -1.52966 0
M  V30 5036 C 473.115 0.0737942 -1.92258 0
M  V30 5037 O 472.408 1.03291 -1.61374 0
M  V30 5038 C 472.602 -2.21558 -2.8044 0
M  V30 5039 C 472.431 -3.71367 -2.53608 0
M  V30 5040 C 471.201 -4.40464 -2.47628 0
M  V30 5041 C 473.399 -4.64177 -2.21459 0
M  V30 5042 N 471.381 -5.758 -2.12902 0
M  V30 5043 C 472.752 -5.87907 -1.9689 0
M  V30 5044 C 474.807 -4.52541 -2.07633 0
M  V30 5045 C 473.51 -7.01304 -1.59892 0
M  V30 5046 C 475.536 -5.65825 -1.72034 0
M  V30 5047 C 474.898 -6.88606 -1.48327 0
M  V30 5048 H 470.997 -0.545856 -0.559969 0
M  V30 5049 H 473.581 -1.72773 -0.897634 0
M  V30 5050 H 471.752 -1.85061 -3.41478 0
M  V30 5051 H 473.484 -2.09332 -3.46356 0
M  V30 5052 H 470.239 -3.93491 -2.63556 0
M  V30 5053 H 470.663 -6.47328 -1.9823 0
M  V30 5054 H 475.305 -3.58183 -2.24643 0
M  V30 5055 H 473.023 -7.95594 -1.4162 0
M  V30 5056 H 476.609 -5.58793 -1.61991 0
M  V30 5057 H 475.489 -7.74779 -1.21189 0
M  V30 5058 N 472.992 0.995999 -1.22138 0
M  V30 5059 C 474.241 1.72928 -1.03821 0
M  V30 5060 C 474.554 1.90872 0.427444 0
M  V30 5061 O 475.76 2.61496 0.730212 0
M  V30 5062 C 474.216 3.11124 -1.80913 0
M  V30 5063 C 473.824 3.01122 -3.31707 0
M  V30 5064 C 475.568 3.8852 -1.71035 0
M  V30 5065 C 473.475 4.34453 -4.01253 0
M  V30 5066 H 472.405 0.648376 -0.384869 0
M  V30 5067 H 475.056 1.11213 -1.45959 0
M  V30 5068 H 473.438 3.73503 -1.31573 0
M  V30 5069 H 474.612 2.47926 -3.88419 0
M  V30 5070 H 472.927 2.3721 -3.42228 0
M  V30 5071 H 475.524 4.872 -2.20318 0
M  V30 5072 H 475.867 4.1087 -0.670196 0
M  V30 5073 H 476.4 3.32812 -2.17902 0
M  V30 5074 H 473.139 4.17303 -5.05508 0
M  V30 5075 H 472.659 4.87574 -3.49331 0
M  V30 5076 H 474.338 5.03215 -4.06674 0
M  V30 5077 N 474.47 1.03057 1.19235 0
M  V30 5078 C 475.747 0.642608 1.84743 0
M  V30 5079 C 476.127 -0.878577 1.91948 0
M  V30 5080 O 475.475 -1.77597 1.43776 0
M  V30 5081 C 475.685 1.30665 3.23616 0
M  V30 5082 C 477.033 1.43098 3.9976 0
M  V30 5083 O 478.057 1.26396 3.3302 0
M  V30 5084 O 476.916 1.70223 5.19313 0
M  V30 5085 H 474.01 0.223573 0.796206 0
M  V30 5086 H 476.556 1.12883 1.26711 0
M  V30 5087 H 475.328 2.34544 3.13217 0
M  V30 5088 H 474.951 0.808405 3.89295 0
M  V30 5089 N 475.948 -1.35272 0.808662 0
M  V30 5090 C 477.359 -1.81179 0.450688 0
M  V30 5091 C 477.71 -1.67143 -1.02751 0
M  V30 5092 O 476.835 -1.20325 -1.79864 0
M  V30 5093 C 477.43 -3.28943 0.811275 0
M  V30 5094 C 475.989 -3.72985 0.505871 0
M  V30 5095 C 475.136 -2.57229 1.03578 0
M  V30 5096 H 478.087 -1.2322 1.00012 0
M  V30 5097 H 478.108 -3.80342 0.109588 0
M  V30 5098 H 477.62 -3.39127 1.88718 0
M  V30 5099 H 475.721 -3.68349 -0.561209 0
M  V30 5100 H 475.834 -4.67677 1.03995 0
M  V30 5101 H 474.198 -2.50548 0.458005 0
M  V30 5102 H 474.981 -2.7019 2.11784 0
M  V30 5103 N 477.426 -0.562348 -1.47226 0
M  V30 5104 C 478.703 0.0256985 -1.95583 0
M  V30 5105 C 479.083 1.48032 -1.50498 0
M  V30 5106 O 478.431 2.15973 -0.746181 0
M  V30 5107 C 478.641 -0.125129 -3.48776 0
M  V30 5108 C 479.989 0.0175728 -4.24596 0
M  V30 5109 O 481.013 -0.0529341 -3.56161 0
M  V30 5110 O 479.872 0.170145 -5.46235 0
M  V30 5111 H 476.966 0.0612565 -0.824728 0
M  V30 5112 H 479.512 -0.629233 -1.57603 0
M  V30 5113 H 478.284 -1.13715 -3.74412 0
M  V30 5114 H 477.907 0.567178 -3.93534 0
M  V30 5115 N 478.904 1.54736 -0.299062 0
M  V30 5116 C 480.181 1.92187 0.363802 0
M  V30 5117 C 480.561 1.22607 1.71845 0
M  V30 5118 O 479.909 0.361141 2.25628 0
M  V30 5119 C 480.119 3.45678 0.480377 0
M  V30 5120 C 481.467 4.17885 0.752147 0
M  V30 5121 O 482.491 3.51702 0.564264 0
M  V30 5122 O 481.35 5.35048 1.11294 0
M  V30 5123 H 478.444 0.801681 0.203066 0
M  V30 5124 H 480.99 1.66115 -0.346978 0
M  V30 5125 H 479.762 3.88443 -0.471999 0
M  V30 5126 H 479.385 3.77779 1.2397 0
M  V30 5127 N 480.382 0.0267497 1.57577 0
M  V30 5128 C 481.629 -0.652404 1.91703 0
M  V30 5129 C 481.957 -1.72271 0.902936 0
M  V30 5130 O 481.212 -1.955 -0.0884843 0
M  V30 5131 C 481.511 -1.30914 3.3256 0
M  V30 5132 C 481.177 -0.369441 4.49384 0
M  V30 5133 C 479.839 -0.110791 4.81072 0
M  V30 5134 C 482.191 0.275971 5.20469 0
M  V30 5135 C 479.519 0.801116 5.81205 0
M  V30 5136 C 481.871 1.17592 6.21575 0
M  V30 5137 C 480.535 1.44348 6.51705 0
M  V30 5138 H 479.805 -0.238732 0.70149 0
M  V30 5139 H 482.452 0.0880091 1.91298 0
M  V30 5140 H 480.757 -2.12425 3.29216 0
M  V30 5141 H 482.454 -1.84115 3.56234 0
M  V30 5142 H 479.044 -0.581211 4.24641 0
M  V30 5143 H 483.228 0.0892 4.9622 0
M  V30 5144 H 478.484 1.01614 6.02897 0
M  V30 5145 H 482.658 1.68223 6.75777 0
M  V30 5146 H 480.285 2.15176 7.29111 0
M  V30 5147 N 481.861 -1.55662 -0.24637 0
M  V30 5148 C 483.272 -1.67953 -0.81539 0
M  V30 5149 C 483.623 -0.624302 -1.86002 0
M  V30 5150 O 482.748 0.229328 -2.15181 0
M  V30 5151 C 483.343 -3.04484 -1.48576 0
M  V30 5152 C 481.902 -3.18713 -2.00248 0
M  V30 5153 C 481.049 -2.6383 -0.853766 0
M  V30 5154 H 484 -1.58685 -0.0221692 0
M  V30 5155 H 484.021 -2.98959 -2.3538 0
M  V30 5156 H 483.533 -3.81264 -0.725222 0
M  V30 5157 H 481.634 -2.46757 -2.79181 0
M  V30 5158 H 481.747 -4.25628 -2.1995 0
M  V30 5159 H 480.111 -2.21667 -1.25442 0
M  V30 5160 H 480.894 -3.43135 -0.106302 0
M  V30 5161 N 483.339 0.512053 -1.4905 0
M  V30 5162 C 484.269 1.62365 -1.67809 0
M  V30 5163 C 485.25 1.61737 -0.526809 0
M  V30 5164 O 486.435 1.78651 -0.761404 0
M  V30 5165 C 483.565 3.00895 -1.73435 0
M  V30 5166 C 482.519 3.16387 -2.88242 0
M  V30 5167 C 481.845 4.56157 -2.78971 0
M  V30 5168 C 483.145 2.97457 -4.29321 0
M  V30 5169 H 484.839 1.46921 -2.60873 0
M  V30 5170 H 482.385 0.705379 -1.2554 0
M  V30 5171 H 484.338 3.78549 -1.85145 0
M  V30 5172 H 483.062 3.17403 -0.769619 0
M  V30 5173 H 481.721 2.41155 -2.76116 0
M  V30 5174 H 481.369 4.69525 -1.8043 0
M  V30 5175 H 481.069 4.67465 -3.5602 0
M  V30 5176 H 482.593 5.35886 -2.92675 0
M  V30 5177 H 484.007 3.64888 -4.42187 0
M  V30 5178 H 482.404 3.20245 -5.07507 0
M  V30 5179 H 483.474 1.93692 -4.44535 0
M  V30 5180 N 484.817 1.37938 0.762283 0
M  V30 5181 C 485.747 1.37176 1.88958 0
M  V30 5182 C 486.728 0.238945 1.68413 0
M  V30 5183 O 487.913 0.440726 1.89133 0
M  V30 5184 C 485.043 1.18742 3.2637 0
M  V30 5185 C 483.997 2.29136 3.61498 0
M  V30 5186 C 483.323 1.95816 4.97554 0
M  V30 5187 C 484.623 3.71363 3.6727 0
M  V30 5188 H 486.317 2.31509 1.89853 0
M  V30 5189 H 483.863 1.11438 0.912005 0
M  V30 5190 H 485.816 1.16837 4.04879 0
M  V30 5191 H 484.54 0.208683 3.25933 0
M  V30 5192 H 483.199 2.30213 2.85303 0
M  V30 5193 H 482.847 0.964475 4.93667 0
M  V30 5194 H 482.547 2.69745 5.22026 0
M  V30 5195 H 484.071 1.95513 5.78452 0
M  V30 5196 H 485.485 3.72364 4.35911 0
M  V30 5197 H 483.882 4.44425 4.03245 0
M  V30 5198 H 484.952 4.04305 2.67704 0
M  V30 5199 N 486.295 -0.989507 1.22664 0
M  V30 5200 C 487.541 -1.7321 1.05481 0
M  V30 5201 C 487.874 -1.89852 -0.408635 0
M  V30 5202 O 487.149 -1.44416 -1.30285 0
M  V30 5203 C 487.432 -3.1357 1.77047 0
M  V30 5204 C 487.285 -3.04555 3.31008 0
M  V30 5205 C 488.604 -4.12812 1.5256 0
M  V30 5206 H 485.723 -0.628697 0.384589 0
M  V30 5207 H 488.365 -1.15258 1.51049 0
M  V30 5208 H 486.515 -3.63046 1.3831 0
M  V30 5209 H 488.187 -2.62674 3.7921 0
M  V30 5210 H 486.43 -2.41278 3.6051 0
M  V30 5211 H 487.101 -4.03894 3.76263 0
M  V30 5212 H 489.577 -3.72106 1.86215 0
M  V30 5213 H 488.453 -5.09132 2.05124 0
M  V30 5214 H 488.714 -4.39711 0.458936 0
M  V30 5215 N 487.773 -1.03688 -1.18687 0
M  V30 5216 C 489.184 -0.766488 -1.70241 0
M  V30 5217 C 489.535 0.713052 -1.82784 0
M  V30 5218 O 488.66 1.55529 -1.50465 0
M  V30 5219 C 489.255 -1.38475 -3.09209 0
M  V30 5220 C 487.814 -1.16276 -3.5799 0
M  V30 5221 C 486.961 -1.4778 -2.34641 0
M  V30 5222 H 489.912 -1.20378 -1.03415 0
M  V30 5223 H 489.933 -0.785939 -3.72295 0
M  V30 5224 H 489.445 -2.46157 -3.00048 0
M  V30 5225 H 487.546 -0.104508 -3.72453 0
M  V30 5226 H 487.659 -1.8571 -4.41643 0
M  V30 5227 H 486.023 -0.897366 -2.38368 0
M  V30 5228 H 486.806 -2.56562 -2.28102 0
M  V30 5229 N 489.251 1.34841 -0.815825 0
M  V30 5230 C 490.481 2.02436 -0.412695 0
M  V30 5231 C 490.889 1.61604 0.983906 0
M  V30 5232 O 490.232 0.813729 1.64694 0
M  V30 5233 C 490.294 3.56953 -0.427182 0
M  V30 5234 C 489.958 4.21083 -1.77589 0
M  V30 5235 C 490.955 4.42107 -2.73564 0
M  V30 5236 C 488.64 4.58006 -2.06243 0
M  V30 5237 C 490.634 4.99169 -3.9637 0
M  V30 5238 C 488.321 5.1478 -3.2931 0
M  V30 5239 C 489.319 5.35304 -4.24191 0
M  V30 5240 O 489.007 5.90878 -5.45086 0
M  V30 5241 H 488.739 0.655631 -0.164695 0
M  V30 5242 H 491.293 1.73246 -1.1034 0
M  V30 5243 H 489.523 3.85372 0.320175 0
M  V30 5244 H 491.212 4.05875 -0.0450875 0
M  V30 5245 H 491.978 4.13953 -2.52721 0
M  V30 5246 H 487.857 4.41339 -1.33196 0
M  V30 5247 H 491.401 5.15105 -4.70439 0
M  V30 5248 H 487.298 5.42362 -3.5002 0
M  V30 5249 H 488.066 6.0932 -5.46508 0
M  V30 5250 N 490.729 0.570148 1.46925 0
M  V30 5251 C 491.975 0.0593124 2.03314 0
M  V30 5252 C 492.33 -1.28139 1.43521 0
M  V30 5253 O 491.623 -1.82411 0.586245 0
M  V30 5254 C 491.817 -0.0780336 3.57315 0
M  V30 5255 C 491.646 1.2478 4.32042 0
M  V30 5256 C 490.416 1.81859 4.7144 0
M  V30 5257 C 492.614 2.16808 4.66368 0
M  V30 5258 N 490.596 3.08313 5.30864 0
M  V30 5259 C 491.967 3.27845 5.2623 0
M  V30 5260 C 494.022 2.16643 4.48297 0
M  V30 5261 C 492.725 4.38832 5.69929 0
M  V30 5262 C 494.751 3.26652 4.93004 0
M  V30 5263 C 494.113 4.36408 5.52926 0
M  V30 5264 H 490.212 0.0641804 0.779362 0
M  V30 5265 H 492.796 0.760285 1.79242 0
M  V30 5266 H 490.967 -0.748151 3.81126 0
M  V30 5267 H 492.699 -0.59211 4.00345 0
M  V30 5268 H 489.454 1.35502 4.53802 0
M  V30 5269 H 489.878 3.72802 5.65108 0
M  V30 5270 H 494.52 1.33065 4.01315 0
M  V30 5271 H 492.238 5.23162 6.15896 0
M  V30 5272 H 495.824 3.27627 4.80782 0
M  V30 5273 H 494.704 5.20127 5.86888 0
M  V30 5274 N 492.207 -1.54576 0.307264 0
M  V30 5275 C 493.117 -2.27435 -0.57536 0
M  V30 5276 C 494.133 -1.31183 -1.14311 0
M  V30 5277 O 495.309 -1.64175 -1.16656 0
M  V30 5278 C 492.374 -3.00566 -1.72803 0
M  V30 5279 C 491.435 -4.12369 -1.19373 0
M  V30 5280 C 490.668 -4.82003 -2.29147 0
M  V30 5281 O 490.891 -4.51038 -3.49171 0
M  V30 5282 O 489.825 -5.69271 -1.95485 0
M  V30 5283 H 493.651 -3.03696 0.0158558 0
M  V30 5284 H 491.236 -1.49219 0.0735064 0
M  V30 5285 H 493.118 -3.46416 -2.39946 0
M  V30 5286 H 491.793 -2.27195 -2.30574 0
M  V30 5287 H 490.7 -3.70905 -0.487851 0
M  V30 5288 H 492.033 -4.87736 -0.661376 0
M  V30 5289 N 493.685 -0.035106 -1.57561 0
M  V30 5290 C 494.632 0.94474 -2.10578 0
M  V30 5291 C 495.602 1.3192 -1.00927 0
M  V30 5292 O 496.787 1.41147 -1.28382 0
M  V30 5293 C 493.927 2.21982 -2.64231 0
M  V30 5294 C 493.04 1.90128 -3.87911 0
M  V30 5295 C 492.175 3.11975 -4.29936 0
M  V30 5296 C 491.214 2.75968 -5.46359 0
M  V30 5297 N 490.351 3.90459 -5.83512 0
M  V30 5298 H 495.191 0.485717 -2.94015 0
M  V30 5299 H 492.728 0.228143 -1.4532 0
M  V30 5300 H 494.686 2.96572 -2.9343 0
M  V30 5301 H 493.316 2.6549 -1.83616 0
M  V30 5302 H 492.368 1.05755 -3.65404 0
M  V30 5303 H 493.68 1.59613 -4.72573 0
M  V30 5304 H 492.834 3.9488 -4.60603 0
M  V30 5305 H 491.573 3.45657 -3.44053 0
M  V30 5306 H 490.578 1.91478 -5.1538 0
M  V30 5307 H 491.803 2.43497 -6.33945 0
M  V30 5308 H 489.749 4.23971 -5.00584 0
M  V30 5309 H 489.666 3.63588 -6.62827 0
M  V30 5310 H 490.934 4.7405 -6.18787 0
M  V30 5311 N 495.163 1.55791 0.238111 0
M  V30 5312 C 496.391 1.82098 0.982233 0
M  V30 5313 C 496.806 0.612025 1.78605 0
M  V30 5314 O 496.163 -0.419381 1.77616 0
M  V30 5315 C 496.214 3.0673 1.91309 0
M  V30 5316 O 495.935 4.2296 1.14179 0
M  V30 5317 C 497.436 3.45903 2.77248 0
M  V30 5318 H 494.656 0.605748 0.288635 0
M  V30 5319 H 497.2 2.02862 0.258341 0
M  V30 5320 H 495.355 2.87991 2.59114 0
M  V30 5321 H 495.769 4.93653 1.7722 0
M  V30 5322 H 497.243 4.36189 3.38295 0
M  V30 5323 H 497.72 2.66891 3.48806 0
M  V30 5324 H 498.326 3.67024 2.14881 0
M  V30 5325 N 496.642 -0.504142 1.49319 0
M  V30 5326 C 497.889 -1.25846 1.58647 0
M  V30 5327 C 498.217 -1.92592 0.27177 0
M  V30 5328 O 497.472 -1.81167 -0.74007 0
M  V30 5329 C 497.771 -2.35021 2.69258 0
M  V30 5330 C 497.437 -1.85755 4.1086 0
M  V30 5331 C 496.099 -1.72038 4.49395 0
M  V30 5332 C 498.451 -1.48844 4.99495 0
M  V30 5333 C 495.779 -1.19783 5.74342 0
M  V30 5334 C 498.131 -0.980422 6.24956 0
M  V30 5335 C 496.795 -0.829622 6.62324 0
M  V30 5336 H 496.065 -0.460505 0.580531 0
M  V30 5337 H 498.712 -0.559716 1.83138 0
M  V30 5338 H 497.017 -3.10672 2.38726 0
M  V30 5339 H 498.714 -2.93083 2.73685 0
M  V30 5340 H 495.304 -1.9739 3.80441 0
M  V30 5341 H 499.488 -1.5829 4.70381 0
M  V30 5342 H 494.744 -1.06817 6.01997 0
M  V30 5343 H 498.918 -0.685608 6.93017 0
M  V30 5344 H 496.545 -0.42253 7.59025 0
M  V30 5345 N 498.12 -1.38341 -0.754957 0
M  V30 5346 C 499.397 -1.24995 -1.50451 0
M  V30 5347 C 499.777 0.149244 -2.10572 0
M  V30 5348 O 499.125 1.15861 -1.96948 0
M  V30 5349 C 499.335 -2.35904 -2.57197 0
M  V30 5350 C 500.683 -2.74262 -3.24138 0
M  V30 5351 O 501.707 -2.35205 -2.67501 0
M  V30 5352 O 500.566 -3.4161 -4.26574 0
M  V30 5353 H 497.66 -0.48872 -0.667144 0
M  V30 5354 H 500.206 -1.50165 -0.790486 0
M  V30 5355 H 498.978 -3.2953 -2.11011 0
M  V30 5356 H 498.601 -2.12291 -3.36182 0
M  V30 5357 N 499.598 0.982988 -1.23187 0
M  V30 5358 C 500.847 1.71817 -1.05649 0
M  V30 5359 C 501.16 1.91315 0.407176 0
M  V30 5360 O 502.366 2.62256 0.702436 0
M  V30 5361 C 500.822 3.09188 -1.84203 0
M  V30 5362 C 500.43 2.97586 -3.34882 0
M  V30 5363 C 502.174 3.86684 -1.75146 0
M  V30 5364 C 500.081 4.30173 -4.05839 0
M  V30 5365 H 499.011 0.644258 -0.391724 0
M  V30 5366 H 501.662 1.09659 -1.4713 0
M  V30 5367 H 500.044 3.72087 -1.35527 0
M  V30 5368 H 501.218 2.43793 -3.91026 0
M  V30 5369 H 499.533 2.33567 -3.44725 0
M  V30 5370 H 502.13 4.84836 -2.25473 0
M  V30 5371 H 502.473 4.10136 -0.713737 0
M  V30 5372 H 503.006 3.30482 -2.21419 0
M  V30 5373 H 499.745 4.11918 -5.09906 0
M  V30 5374 H 499.265 4.83841 -3.54482 0
M  V30 5375 H 500.944 4.98873 -4.11989 0
M  V30 5376 N 501.076 1.04316 1.18135 0
M  V30 5377 C 502.353 0.662166 1.84051 0
M  V30 5378 C 502.733 -0.858169 1.9287 0
M  V30 5379 O 502.081 -1.76062 1.45652 0
M  V30 5380 C 502.291 1.3409 3.22212 0
M  V30 5381 C 503.639 1.4733 3.9822 0
M  V30 5382 O 504.663 1.29921 3.31661 0
M  V30 5383 O 503.522 1.75722 5.17479 0
M  V30 5384 H 500.616 0.232005 0.79379 0
M  V30 5385 H 503.162 1.1422 1.25506 0
M  V30 5386 H 501.934 2.37853 3.10711 0
M  V30 5387 H 501.557 0.849649 3.88416 0
M  V30 5388 N 502.554 -1.34406 0.822964 0
M  V30 5389 C 503.484 -2.32052 0.259608 0
M  V30 5390 C 504.465 -1.58243 -0.623961 0
M  V30 5391 O 505.65 -1.86224 -0.55083 0
M  V30 5392 C 502.78 -3.42434 -0.579314 0
M  V30 5393 C 501.734 -4.27499 0.20712 0
M  V30 5394 C 501.06 -5.29349 -0.754547 0
M  V30 5395 C 502.36 -5.02758 1.41533 0
M  V30 5396 H 504.054 -2.79418 1.07545 0
M  V30 5397 H 501.6 -1.34338 0.518593 0
M  V30 5398 H 503.553 -4.0976 -0.983612 0
M  V30 5399 H 502.277 -2.93717 -1.4282 0
M  V30 5400 H 500.936 -3.61776 0.592787 0
M  V30 5401 H 500.584 -4.76895 -1.59939 0
M  V30 5402 H 500.284 -5.8714 -0.232561 0
M  V30 5403 H 501.808 -5.99544 -1.1567 0
M  V30 5404 H 503.222 -5.62938 1.08504 0
M  V30 5405 H 501.619 -5.70123 1.87296 0
M  V30 5406 H 502.689 -4.32451 2.1935 0
M  V30 5407 N 504.032 -0.577932 -1.46621 0
M  V30 5408 C 505.257 -0.0652536 -2.07297 0
M  V30 5409 C 505.682 1.22828 -1.4246 0
M  V30 5410 O 505.04 1.74075 -0.506718 0
M  V30 5411 C 505.088 0.0920589 -3.60482 0
M  V30 5412 O 504.192 1.14972 -3.96049 0
M  V30 5413 H 503.533 -0.06065 -0.661224 0
M  V30 5414 H 506.063 -0.799515 -1.88332 0
M  V30 5415 H 506.073 0.299741 -4.06897 0
M  V30 5416 H 504.748 -0.852612 -4.07067 0
M  V30 5417 H 503.325 0.920879 -3.61351 0
M  V30 5418 N 505.51 1.54411 -0.315457 0
M  V30 5419 C 506.473 2.22713 0.54142 0
M  V30 5420 C 507.473 1.2179 1.04995 0
M  V30 5421 O 508.663 1.46426 0.943667 0
M  V30 5422 C 505.795 2.92485 1.75116 0
M  V30 5423 H 506.988 2.99849 -0.0555508 0
M  V30 5424 H 504.541 1.56159 -0.0664453 0
M  V30 5425 H 505.276 2.19466 2.38758 0
M  V30 5426 H 505.061 3.66483 1.39401 0
M  V30 5427 H 506.551 3.44548 2.35959 0
M  V30 5428 N 506.988 0.0434614 1.5754 0
M  V30 5429 C 508.399 -0.493343 1.80064 0
M  V30 5430 C 508.75 -1.71388 0.955023 0
M  V30 5431 O 507.875 -2.15736 0.169434 0
M  V30 5432 C 508.47 -0.90179 3.26578 0
M  V30 5433 C 507.029 -1.38362 3.50047 0
M  V30 5434 C 506.176 -0.355129 2.75017 0
M  V30 5435 H 509.127 0.2694 1.56397 0
M  V30 5436 H 509.148 -1.76523 3.37075 0
M  V30 5437 H 508.66 -0.013271 3.88098 0
M  V30 5438 H 506.761 -2.29159 2.93798 0
M  V30 5439 H 506.874 -1.3811 4.58762 0
M  V30 5440 H 505.238 -0.826348 2.40922 0
M  V30 5441 H 506.021 0.525172 3.39259 0
M  V30 5442 N 508.466 -1.55915 -0.229846 0
M  V30 5443 C 509.398 -1.88209 -1.30805 0
M  V30 5444 C 510.411 -0.769672 -1.43457 0
M  V30 5445 O 511.6 -1.04792 -1.44502 0
M  V30 5446 C 508.7 -2.06829 -2.68468 0
M  V30 5447 C 507.873 -3.37798 -2.77869 0
M  V30 5448 C 506.932 -3.45952 -3.96489 0
M  V30 5449 O 505.958 -4.19043 -3.85216 0
M  V30 5450 N 507.16 -2.76488 -5.10426 0
M  V30 5451 H 509.925 -2.81286 -1.03431 0
M  V30 5452 H 507.486 -1.5636 -0.41991 0
M  V30 5453 H 509.478 -2.09608 -3.46189 0
M  V30 5454 H 508.048 -1.20416 -2.88477 0
M  V30 5455 H 507.268 -3.4719 -1.86689 0
M  V30 5456 H 508.556 -4.24091 -2.81113 0
M  V30 5457 H 507.954 -2.16868 -5.2248 0
M  V30 5458 H 506.511 -2.84938 -5.8622 0
M  V30 5459 N 509.944 0.496216 -1.49584 0
M  V30 5460 C 511.193 1.24668 -1.58558 0
M  V30 5461 C 511.506 1.9359 -0.279703 0
M  V30 5462 O 512.712 2.70365 -0.248048 0
M  V30 5463 C 511.168 2.26388 -2.79779 0
M  V30 5464 C 510.776 1.63384 -4.17145 0
M  V30 5465 C 512.52 3.02233 -2.98086 0
M  V30 5466 C 510.427 2.63243 -5.29582 0
M  V30 5467 H 509.357 0.468995 -0.590389 0
M  V30 5468 H 512.008 0.519985 -1.75978 0
M  V30 5469 H 510.39 3.02241 -2.55863 0
M  V30 5470 H 511.564 0.93491 -4.51216 0
M  V30 5471 H 509.879 0.999121 -4.04236 0
M  V30 5472 H 512.476 3.76919 -3.79257 0
M  V30 5473 H 512.819 3.60132 -2.08831 0
M  V30 5474 H 513.352 2.33495 -3.22063 0
M  V30 5475 H 510.091 2.10119 -6.20911 0
M  V30 5476 H 509.611 3.31363 -4.99959 0
M  V30 5477 H 511.29 3.25575 -5.59115 0
M  V30 5478 N 511.423 1.38739 0.74761 0
M  V30 5479 C 512.671 1.35007 1.50391 0
M  V30 5480 C 512.992 -0.0574274 1.94915 0
M  V30 5481 O 512.262 -1.00628 1.6808 0
M  V30 5482 H 510.842 0.496784 0.557866 0
M  V30 5483 H 513.504 1.73479 0.888319 0
M  V30 5484 H 512.6 2.00474 2.392 0
M  V30 5485 N 512.901 -0.976442 1.23707 0
M  V30 5486 C 514.147 -1.72081 1.07312 0
M  V30 5487 C 514.48 -1.90275 -0.388476 0
M  V30 5488 O 513.755 -1.4579 -1.28746 0
M  V30 5489 C 514.038 -3.11675 1.80363 0
M  V30 5490 C 513.891 -3.01027 3.3422 0
M  V30 5491 C 515.21 -4.1117 1.5693 0
M  V30 5492 H 512.329 -0.624583 0.391236 0
M  V30 5493 H 514.971 -1.13649 1.52263 0
M  V30 5494 H 513.121 -3.61559 1.42153 0
M  V30 5495 H 514.793 -2.58637 3.81975 0
M  V30 5496 H 513.036 -2.3744 3.63049 0
M  V30 5497 H 513.707 -3.9988 3.80525 0
M  V30 5498 H 516.183 -3.7011 1.90151 0
M  V30 5499 H 515.059 -5.06928 2.10513 0
M  V30 5500 H 515.32 -4.392 0.505548 0
M  V30 5501 N 514.379 -1.04941 -1.1758 0
M  V30 5502 C 515.625 -0.759112 -1.88057 0
M  V30 5503 C 515.958 0.711918 -1.8068 0
M  V30 5504 O 515.233 1.52035 -1.21308 0
M  V30 5505 C 515.516 -1.237 -3.38187 0
M  V30 5506 C 515.369 -2.77078 -3.54327 0
M  V30 5507 C 516.688 -0.834014 -4.32125 0
M  V30 5508 H 513.807 -0.277237 -0.682868 0
M  V30 5509 H 516.449 -1.30296 -1.38286 0
M  V30 5510 H 514.599 -0.774337 -3.80705 0
M  V30 5511 H 516.271 -3.31449 -3.20842 0
M  V30 5512 H 514.514 -3.16477 -2.96689 0
M  V30 5513 H 515.185 -3.05577 -4.59703 0
M  V30 5514 H 517.661 -1.23228 -3.97434 0
M  V30 5515 H 516.537 -1.19603 -5.35711 0
M  V30 5516 H 516.798 0.262195 -4.41322 0
M  V30 5517 N 515.857 1.33968 -0.830081 0
M  V30 5518 C 516.805 2.31301 -0.245435 0
M  V30 5519 C 517.799 1.57734 0.617762 0
M  V30 5520 O 519.005 1.72674 0.508303 0
M  V30 5521 H 515.38 0.749552 -0.0606316 0
M  V30 5522 H 517.351 2.78129 -1.08105 0
M  V30 5523 C 516.1 3.42961 0.572084 0
M  V30 5524 H 515.423 3.99714 -0.0828118 0
M  V30 5525 H 516.863 4.13286 0.94715 0
M  V30 5526 C 515.322 2.88043 1.74737 0
M  V30 5527 O 515.852 2.83508 2.8458 0
M  V30 5528 N 514.058 2.44768 1.56642 0
M  V30 5529 H 513.605 2.48656 0.672901 0
M  V30 5530 H 513.563 2.08375 2.3543 0
M  V30 5531 N 517.335 0.585699 1.46312 0
M  V30 5532 C 518.581 0.0725284 2.0267 0
M  V30 5533 C 518.914 -1.28523 1.45586 0
M  V30 5534 O 518.189 -1.84283 0.622101 0
M  V30 5535 C 518.472 0.0099788 3.60099 0
M  V30 5536 C 518.325 1.39685 4.27561 0
M  V30 5537 C 519.644 -0.689117 4.34671 0
M  V30 5538 H 516.763 0.0278307 0.736474 0
M  V30 5539 H 519.405 0.753472 1.74421 0
M  V30 5540 H 517.555 -0.56992 3.84297 0
M  V30 5541 H 519.227 2.02215 4.14617 0
M  V30 5542 H 517.47 1.96374 3.86807 0
M  V30 5543 H 518.141 1.30553 5.36339 0
M  V30 5544 H 520.617 -0.196446 4.15636 0
M  V30 5545 H 519.493 -0.701921 5.44393 0
M  V30 5546 H 519.754 -1.75101 4.05946 0
M  V30 5547 N 518.813 -1.54241 0.323641 0
M  V30 5548 C 520.041 -2.04985 -0.280871 0
M  V30 5549 C 520.456 -1.19978 -1.45777 0
M  V30 5550 O 519.813 -0.230471 -1.81039 0
M  V30 5551 C 519.864 -3.54353 -0.715258 0
M  V30 5552 O 519.585 -4.36132 0.414817 0
M  V30 5553 C 521.086 -4.21189 -1.38257 0
M  V30 5554 H 518.306 -0.66851 -0.0577502 0
M  V30 5555 H 520.85 -1.99029 0.469852 0
M  V30 5556 H 519.005 -3.60596 -1.41596 0
M  V30 5557 H 519.419 -5.2445 0.0725227 0
M  V30 5558 H 520.893 -5.27154 -1.63745 0
M  V30 5559 H 521.37 -3.72307 -2.32989 0
M  V30 5560 H 521.976 -4.19085 -0.724447 0
M  V30 5561 N 520.291 -0.0518155 -1.57515 0
M  V30 5562 C 521.568 0.661727 -1.84067 0
M  V30 5563 C 521.948 1.88999 -0.940351 0
M  V30 5564 O 521.296 2.285 -0.00155404 0
M  V30 5565 C 521.506 1.01841 -3.3381 0
M  V30 5566 C 522.854 1.40043 -4.00841 0
M  V30 5567 O 523.878 1.11073 -3.38439 0
M  V30 5568 O 522.737 1.94111 -5.10865 0
M  V30 5569 H 519.831 0.326702 -0.759733 0
M  V30 5570 H 522.377 -0.0812277 -1.69505 0
M  V30 5571 H 521.149 0.145202 -3.91031 0
M  V30 5572 H 520.772 1.81879 -3.53562 0
M  V30 5573 N 521.769 1.56035 0.221574 0
M  V30 5574 C 522.732 1.91584 1.2581 0
M  V30 5575 C 523.732 0.794425 1.39805 0
M  V30 5576 O 524.922 1.06217 1.38071 0
M  V30 5577 C 522.054 2.16663 2.63192 0
M  V30 5578 H 523.247 2.8429 0.954935 0
M  V30 5579 H 520.8 1.49316 0.461988 0
M  V30 5580 H 521.535 1.26508 2.98607 0
M  V30 5581 H 521.32 2.98358 2.5441 0
M  V30 5582 H 522.81 2.45262 3.37988 0
M  V30 5583 N 523.247 -0.488276 1.49845 0
M  V30 5584 C 524.524 -1.24959 1.50481 0
M  V30 5585 C 524.904 -2.09735 0.239698 0
M  V30 5586 O 524.252 -2.14865 -0.777524 0
M  V30 5587 C 524.462 -2.0954 2.79095 0
M  V30 5588 C 525.81 -2.68305 3.29086 0
M  V30 5589 O 526.834 -2.19797 2.80299 0
M  V30 5590 O 525.693 -3.56643 4.14087 0
M  V30 5591 H 522.787 -0.566133 0.602845 0
M  V30 5592 H 525.333 -0.501504 1.6212 0
M  V30 5593 H 524.105 -1.46958 3.62656 0
M  V30 5594 H 523.728 -2.91517 2.70377 0
M  V30 5595 N 524.725 -1.39134 -0.740242 0
M  V30 5596 C 525.95 -1.39518 -1.53459 0
M  V30 5597 C 526.375 0.00968883 -1.88098 0
M  V30 5598 O 525.733 0.995312 -1.51536 0
M  V30 5599 C 525.781 -2.26981 -2.802 0
M  V30 5600 O 524.885 -1.69609 -3.75908 0
M  V30 5601 H 524.226 -0.475328 -0.463637 0
M  V30 5602 H 526.756 -1.83064 -0.913717 0
M  V30 5603 H 526.766 -2.41309 -3.28989 0
M  V30 5604 H 525.441 -3.29081 -2.5432 0
M  V30 5605 H 524.018 -1.64495 -3.34658 0
M  V30 5606 N 526.204 0.969867 -1.24223 0
M  V30 5607 C 527.45 1.7151 -1.08223 0
M  V30 5608 C 527.783 1.90478 0.37838 0
M  V30 5609 O 527.058 1.4647 1.27971 0
M  V30 5610 C 527.341 3.10714 -1.82013 0
M  V30 5611 C 527.194 2.9925 -3.35811 0
M  V30 5612 C 528.513 4.10332 -1.59108 0
M  V30 5613 H 525.632 0.622499 -0.394543 0
M  V30 5614 H 528.274 1.1284 -1.52863 0
M  V30 5615 H 526.424 3.608 -1.44068 0
M  V30 5616 H 528.096 2.56608 -3.83341 0
M  V30 5617 H 526.339 2.35512 -3.64303 0
M  V30 5618 H 527.01 3.97857 -3.82641 0
M  V30 5619 H 529.486 3.69097 -1.92111 0
M  V30 5620 H 528.362 5.05804 -2.13198 0
M  V30 5621 H 528.623 4.38926 -0.528832 0
M  V30 5622 N 527.682 1.05563 1.17022 0
M  V30 5623 C 528.928 0.778872 1.87897 0
M  V30 5624 C 529.283 -0.686839 1.79723 0
M  V30 5625 O 528.576 -1.49612 1.19694 0
M  V30 5626 C 528.77 1.19849 3.36706 0
M  V30 5627 C 528.599 2.70345 3.59366 0
M  V30 5628 C 527.369 3.37707 3.75875 0
M  V30 5629 C 529.567 3.68564 3.58699 0
M  V30 5630 N 527.549 4.7703 3.86414 0
M  V30 5631 C 528.92 4.93634 3.75134 0
M  V30 5632 C 530.975 3.6198 3.4187 0
M  V30 5633 C 529.678 6.12907 3.76481 0
M  V30 5634 C 531.704 4.80697 3.44507 0
M  V30 5635 C 531.066 6.04592 3.61453 0
M  V30 5636 H 527.165 0.337297 0.705517 0
M  V30 5637 H 529.749 1.34832 1.40458 0
M  V30 5638 H 527.92 0.656958 3.82804 0
M  V30 5639 H 529.652 0.871172 3.95212 0
M  V30 5640 H 526.407 2.88108 3.75887 0
M  V30 5641 H 526.831 5.49483 3.95471 0
M  V30 5642 H 531.473 2.67154 3.27702 0
M  V30 5643 H 529.191 7.08073 3.89432 0
M  V30 5644 H 532.777 4.77259 3.32738 0
M  V30 5645 H 531.657 6.94916 3.63403 0
M  V30 5646 N 529.16 -1.33526 0.837174 0
M  V30 5647 C 530.093 -2.27192 0.214233 0
M  V30 5648 C 531.071 -1.49575 -0.637657 0
M  V30 5649 O 532.255 -1.78753 -0.598291 0
M  V30 5650 C 529.382 -3.31401 -0.699367 0
M  V30 5651 C 528.428 -4.26431 0.0768429 0
M  V30 5652 S 529.261 -5.15954 1.4336 0
M  V30 5653 C 530.417 -6.23692 0.525251 0
M  V30 5654 H 530.65 -2.79679 1.00831 0
M  V30 5655 H 528.183 -1.4079 0.633834 0
M  V30 5656 H 530.141 -3.91924 -1.22088 0
M  V30 5657 H 528.802 -2.77732 -1.46709 0
M  V30 5658 H 527.995 -5.00193 -0.618268 0
M  V30 5659 H 527.597 -3.70235 0.529364 0
M  V30 5660 H 529.889 -6.76931 -0.277575 0
M  V30 5661 H 530.832 -6.97283 1.23299 0
M  V30 5662 H 531.24 -5.64398 0.107351 0
M  V30 5663 N 530.638 -0.59345 -1.46 0
M  V30 5664 C 531.548 0.135817 -2.34207 0
M  V30 5665 C 532.564 0.875008 -1.50398 0
M  V30 5666 O 533.74 0.835778 -1.83239 0
M  V30 5667 C 530.805 1.12977 -3.27776 0
M  V30 5668 C 529.866 0.394081 -4.27487 0
M  V30 5669 C 529.099 1.34068 -5.16586 0
M  V30 5670 O 529.322 2.5778 -5.08828 0
M  V30 5671 O 528.256 0.845426 -5.95933 0
M  V30 5672 H 532.082 -0.588691 -2.9794 0
M  V30 5673 H 529.667 -0.353784 -1.45151 0
M  V30 5674 H 531.549 1.70261 -3.85473 0
M  V30 5675 H 530.224 1.83556 -2.66625 0
M  V30 5676 H 529.131 -0.220869 -3.73447 0
M  V30 5677 H 530.464 -0.270939 -4.91454 0
M  V30 5678 N 532.116 1.54067 -0.331816 0
M  V30 5679 C 533.049 2.20886 0.573127 0
M  V30 5680 C 534.027 1.18876 1.10938 0
M  V30 5681 O 535.211 1.47649 1.17184 0
M  V30 5682 C 532.338 2.87706 1.78726 0
M  V30 5683 C 531.384 4.03505 1.38152 0
M  V30 5684 S 532.217 5.33919 0.41123 0
M  V30 5685 C 533.373 6.04236 1.63246 0
M  V30 5686 H 533.606 2.97299 0.00555737 0
M  V30 5687 H 531.139 1.53964 -0.115893 0
M  V30 5688 H 533.097 3.26825 2.48386 0
M  V30 5689 H 531.758 2.1108 2.32603 0
M  V30 5690 H 530.951 4.49152 2.28645 0
M  V30 5691 H 530.553 3.66102 0.764524 0
M  V30 5692 H 532.845 6.26917 2.56869 0
M  V30 5693 H 533.788 6.97546 1.218 0
M  V30 5694 H 534.196 5.34247 1.82318 0
M  V30 5695 N 533.594 0.0601682 1.57485 0
M  V30 5696 C 534.871 -0.651956 1.84415 0
M  V30 5697 C 535.251 -1.88498 0.950361 0
M  V30 5698 O 534.599 -2.28496 0.0136719 0
M  V30 5699 C 534.809 -1.00069 3.34346 0
M  V30 5700 C 536.157 -1.37915 4.01578 0
M  V30 5701 O 537.181 -1.09277 3.39024 0
M  V30 5702 O 536.04 -1.91399 5.11887 0
M  V30 5703 H 533.134 -0.322668 0.761455 0
M  V30 5704 H 535.68 0.0902159 1.6946 0
M  V30 5705 H 534.452 -0.124463 3.91102 0
M  V30 5706 H 534.075 -1.80001 3.54521 0
M  V30 5707 N 535.072 -1.5615 -0.213296 0
M  V30 5708 C 536.349 -1.70349 -0.961281 0
M  V30 5709 C 536.729 -0.609791 -2.02101 0
M  V30 5710 O 536.077 0.381987 -2.25285 0
M  V30 5711 C 536.287 -3.11982 -1.56424 0
M  V30 5712 C 537.635 -3.71649 -2.05334 0
M  V30 5713 O 538.659 -3.14995 -1.66302 0
M  V30 5714 O 537.518 -4.71038 -2.77102 0
M  V30 5715 H 534.612 -0.694121 -0.449582 0
M  V30 5716 H 537.158 -1.68464 -0.204426 0
M  V30 5717 H 535.93 -3.83046 -0.799457 0
M  V30 5718 H 535.553 -3.18019 -2.38641 0
M  V30 5719 N 536.55 0.480323 -1.50102 0
M  V30 5720 C 537.46 1.60547 -1.71061 0
M  V30 5721 C 538.476 1.63564 -0.593529 0
M  V30 5722 O 539.652 1.81604 -0.870751 0
M  V30 5723 C 536.717 2.96814 -1.79171 0
M  V30 5724 C 535.778 3.04259 -3.02861 0
M  V30 5725 C 535.011 4.34027 -3.10574 0
M  V30 5726 O 535.234 5.24009 -2.25323 0
M  V30 5727 O 534.168 4.46873 -4.03223 0
M  V30 5728 H 537.994 1.45788 -2.6642 0
M  V30 5729 H 535.579 0.658838 -1.34088 0
M  V30 5730 H 537.461 3.77765 -1.86738 0
M  V30 5731 H 536.136 3.11791 -0.869947 0
M  V30 5732 H 535.043 2.22419 -3.008 0
M  V30 5733 H 536.376 2.94216 -3.94586 0
M  V30 5734 N 538.028 1.39524 0.732853 0
M  V30 5735 C 538.938 1.40695 1.87729 0
M  V30 5736 C 539.954 0.301496 1.71368 0
M  V30 5737 O 541.13 0.543313 1.93933 0
M  V30 5738 C 538.195 1.25098 3.23344 0
M  V30 5739 C 537.256 2.45634 3.52083 0
M  V30 5740 C 536.489 2.30772 4.81228 0
M  V30 5741 O 536.712 1.31233 5.55098 0
M  V30 5742 O 535.646 3.19799 5.09914 0
M  V30 5743 H 539.472 2.37168 1.89697 0
M  V30 5744 H 537.057 1.20663 0.880959 0
M  V30 5745 H 538.939 1.18541 4.04383 0
M  V30 5746 H 537.614 0.317209 3.22142 0
M  V30 5747 H 536.521 2.57767 2.71122 0
M  V30 5748 H 537.854 3.37712 3.58066 0
M  V30 5749 N 539.506 -0.963266 1.24736 0
M  V30 5750 C 540.783 -1.68248 0.9976 0
M  V30 5751 C 541.163 -2.05599 -0.478776 0
M  V30 5752 O 540.511 -1.7626 -1.45412 0
M  V30 5753 C 540.721 -2.91118 1.92487 0
M  V30 5754 C 542.069 -3.63261 2.19833 0
M  V30 5755 O 543.093 -3.01184 1.90176 0
M  V30 5756 O 541.952 -4.75019 2.7022 0
M  V30 5757 H 539.046 -0.735744 0.377637 0
M  V30 5758 H 541.592 -1.01696 1.35853 0
M  V30 5759 H 540.364 -2.60242 2.92215 0
M  V30 5760 H 539.987 -3.65402 1.56738 0
M  V30 5761 N 540.985 -1.06182 -1.16461 0
M  V30 5762 C 541.915 -0.692861 -2.22984 0
M  V30 5763 C 542.896 0.314122 -1.67174 0
M  V30 5764 O 544.081 0.189499 -1.93273 0
M  V30 5765 C 541.211 -0.07732 -3.47214 0
M  V30 5766 C 540.165 -1.01015 -4.15909 0
M  V30 5767 C 539.491 -0.257973 -5.34077 0
M  V30 5768 C 540.791 -2.33868 -4.67015 0
M  V30 5769 H 542.485 -1.58343 -2.54102 0
M  V30 5770 H 540.031 -0.76279 -1.22137 0
M  V30 5771 H 541.984 0.19266 -4.20959 0
M  V30 5772 H 540.708 0.848254 -3.15392 0
M  V30 5773 H 539.367 -1.26486 -3.44088 0
M  V30 5774 H 539.015 0.670684 -4.98509 0
M  V30 5775 H 538.715 -0.879638 -5.80979 0
M  V30 5776 H 540.239 0.00448788 -6.106 0
M  V30 5777 H 541.653 -2.1279 -5.32347 0
M  V30 5778 H 540.05 -2.91522 -5.24533 0
M  V30 5779 H 541.12 -2.97019 -3.83286 0
M  V30 5780 N 542.463 1.3308 -0.844243 0
M  V30 5781 C 543.874 1.7992 -0.498566 0
M  V30 5782 C 544.225 1.69808 0.982834 0
M  V30 5783 O 543.35 1.25051 1.7661 0
M  V30 5784 C 543.945 3.26677 -0.898204 0
M  V30 5785 C 542.504 3.71513 -0.604583 0
M  V30 5786 C 541.651 2.54393 -1.10362 0
M  V30 5787 H 544.602 1.20526 -1.03244 0
M  V30 5788 H 544.623 3.79918 -0.21039 0
M  V30 5789 H 544.135 3.34004 -1.97643 0
M  V30 5790 H 542.236 3.69708 0.46335 0
M  V30 5791 H 542.349 4.64755 -1.16358 0
M  V30 5792 H 540.713 2.49246 -0.524273 0
M  V30 5793 H 541.496 2.6448 -2.18873 0
M  V30 5794 N 543.941 0.601185 1.45683 0
M  V30 5795 C 545.166 0.0982245 2.07167 0
M  V30 5796 C 545.591 -1.20546 1.44396 0
M  V30 5797 O 544.949 -1.73247 0.534347 0
M  V30 5798 C 544.997 -0.0346976 3.60583 0
M  V30 5799 O 544.101 -1.08657 3.97828 0
M  V30 5800 H 543.442 0.0711618 0.660176 0
M  V30 5801 H 545.972 0.829376 1.87036 0
M  V30 5802 H 545.982 -0.234969 4.07323 0
M  V30 5803 H 544.657 0.917265 4.05659 0
M  V30 5804 H 543.234 -0.863275 3.6277 0
M  V30 5805 N 545.419 -1.53889 0.339982 0
M  V30 5806 C 546.382 -2.23547 -0.50592 0
M  V30 5807 C 547.382 -1.23445 -1.03044 0
M  V30 5808 O 548.572 -1.47909 -0.920253 0
M  V30 5809 C 545.704 -2.95234 -1.7044 0
M  V30 5810 H 546.897 -2.99722 0.103247 0
M  V30 5811 H 544.45 -1.56033 0.0912804 0
M  V30 5812 H 545.185 -2.23236 -2.35236 0
M  V30 5813 H 544.97 -3.68654 -1.33553 0
M  V30 5814 H 546.46 -3.48258 -2.30447 0
M  V30 5815 N 546.897 -0.0685191 -1.57451 0
M  V30 5816 C 547.807 0.914677 -2.16034 0
M  V30 5817 C 548.823 1.32938 -1.12265 0
M  V30 5818 O 549.999 1.40275 -1.44516 0
M  V30 5819 C 547.064 2.16519 -2.70777 0
M  V30 5820 C 546.125 1.80721 -3.89408 0
M  V30 5821 C 545.358 2.9981 -4.41531 0
M  V30 5822 O 545.581 4.13727 -3.92666 0
M  V30 5823 O 544.515 2.79817 -5.32903 0
M  V30 5824 H 548.341 0.446364 -3.00402 0
M  V30 5825 H 545.926 0.154367 -1.486 0
M  V30 5826 H 547.808 2.89856 -3.05878 0
M  V30 5827 H 546.483 2.62454 -1.89471 0
M  V30 5828 H 545.39 1.04646 -3.59166 0
M  V30 5829 H 546.723 1.39571 -4.71997 0
M  V30 5830 N 548.375 1.56261 0.205012 0
M  V30 5831 C 549.285 1.96944 1.27476 0
M  V30 5832 C 550.301 0.875636 1.50362 0
M  V30 5833 O 551.477 1.18058 1.6317 0
M  V30 5834 C 548.542 2.29219 2.60115 0
M  V30 5835 C 547.603 3.52255 2.45387 0
M  V30 5836 C 546.836 3.8298 3.71701 0
M  V30 5837 O 547.059 3.15138 4.75441 0
M  V30 5838 O 545.993 4.76435 3.67823 0
M  V30 5839 H 549.819 2.88144 0.959527 0
M  V30 5840 H 547.404 1.43686 0.409217 0
M  V30 5841 H 549.286 2.51098 3.3842 0
M  V30 5842 H 547.961 1.4119 2.91285 0
M  V30 5843 H 546.868 3.35635 1.65227 0
M  V30 5844 H 548.201 4.40719 2.19152 0
M  V30 5845 N 549.853 -0.472356 1.50355 0
M  V30 5846 C 550.783 -1.57859 1.72055 0
M  V30 5847 C 551.764 -1.60283 0.569505 0
M  V30 5848 O 552.949 -1.7657 0.808503 0
M  V30 5849 C 550.079 -2.96191 1.81351 0
M  V30 5850 C 549.033 -3.08633 2.96529 0
M  V30 5851 C 548.359 -4.486 2.90968 0
M  V30 5852 C 549.659 -2.85969 4.37057 0
M  V30 5853 H 551.353 -1.39953 2.64676 0
M  V30 5854 H 548.899 -0.671846 1.27367 0
M  V30 5855 H 550.852 -3.73507 1.95117 0
M  V30 5856 H 549.576 -3.15251 0.853502 0
M  V30 5857 H 548.235 -2.33749 2.82413 0
M  V30 5858 H 547.883 -4.64577 1.92815 0
M  V30 5859 H 547.583 -4.57861 3.68289 0
M  V30 5860 H 549.107 -5.27938 3.0678 0
M  V30 5861 H 550.521 -3.53036 4.51706 0
M  V30 5862 H 548.918 -3.06677 5.15819 0
M  V30 5863 H 549.988 -1.81838 4.49514 0
M  V30 5864 N 551.331 -1.39911 -0.725443 0
M  V30 5865 C 552.241 -1.41688 -1.8698 0
M  V30 5866 C 553.257 -0.310579 -1.71206 0
M  V30 5867 O 554.433 -0.55359 -1.93642 0
M  V30 5868 C 551.498 -1.26811 -3.22676 0
M  V30 5869 C 550.559 -2.47497 -3.50776 0
M  V30 5870 C 549.792 -2.3332 -4.79997 0
M  V30 5871 O 550.015 -1.34175 -5.54394 0
M  V30 5872 O 548.949 -3.22498 -5.08211 0
M  V30 5873 H 552.775 -2.38171 -1.88436 0
M  V30 5874 H 550.36 -1.21128 -0.874548 0
M  V30 5875 H 552.242 -1.20684 -4.03749 0
M  V30 5876 H 550.917 -0.334289 -3.21969 0
M  V30 5877 H 549.824 -2.59201 -2.69751 0
M  V30 5878 H 551.157 -3.39606 -3.5627 0
M  V30 5879 N 552.809 0.956637 -1.25245 0
M  V30 5880 C 554.086 1.67716 -1.00651 0
M  V30 5881 C 554.466 2.0585 0.467866 0
M  V30 5882 O 553.814 1.77029 1.44475 0
M  V30 5883 C 554.024 2.90093 -1.94028 0
M  V30 5884 C 555.372 3.6209 -2.21756 0
M  V30 5885 O 556.396 3.00171 -1.9177 0
M  V30 5886 O 555.255 4.7358 -2.72735 0
M  V30 5887 H 552.349 0.733731 -0.381533 0
M  V30 5888 H 554.895 1.00974 -1.3639 0
M  V30 5889 H 553.667 2.58689 -2.93591 0
M  V30 5890 H 553.29 3.64566 -1.58674 0
M  V30 5891 N 554.287 1.06798 1.15896 0
M  V30 5892 C 555.533 0.798757 1.8706 0
M  V30 5893 C 555.888 -0.667739 1.80441 0
M  V30 5894 O 555.181 -1.48334 1.21274 0
M  V30 5895 C 555.375 1.23414 3.35416 0
M  V30 5896 C 555.204 2.74142 3.56478 0
M  V30 5897 C 553.974 3.41675 3.72272 0
M  V30 5898 C 556.172 3.72348 3.5477 0
M  V30 5899 N 554.154 4.81101 3.81333 0
M  V30 5900 C 555.525 4.97585 3.69877 0
M  V30 5901 C 557.58 3.65585 3.38011 0
M  V30 5902 C 556.283 6.16866 3.69959 0
M  V30 5903 C 558.309 4.84323 3.39389 0
M  V30 5904 C 557.671 6.08391 3.5502 0
M  V30 5905 H 553.77 0.344761 0.7019 0
M  V30 5906 H 556.354 1.36314 1.3902 0
M  V30 5907 H 554.525 0.697522 3.82085 0
M  V30 5908 H 556.257 0.91304 3.94266 0
M  V30 5909 H 553.012 2.92078 3.7281 0
M  V30 5910 H 553.436 5.53647 3.8962 0
M  V30 5911 H 558.078 2.70615 3.2485 0
M  V30 5912 H 555.796 7.12164 3.819 0
M  V30 5913 H 559.382 4.80762 3.27658 0
M  V30 5914 H 558.262 6.98731 3.56012 0
M  V30 5915 N 555.766 -1.3263 0.851289 0
M  V30 5916 C 556.696 -2.31449 0.308771 0
M  V30 5917 C 557.677 -1.59531 -0.590255 0
M  V30 5918 O 558.862 -1.87351 -0.511205 0
M  V30 5919 C 555.992 -3.43586 -0.506548 0
M  V30 5920 C 554.946 -4.26963 0.297753 0
M  V30 5921 C 554.272 -5.30831 -0.642094 0
M  V30 5922 C 555.572 -4.99643 1.52166 0
M  V30 5923 H 557.266 -2.77074 1.13447 0
M  V30 5924 H 554.812 -1.33207 0.546971 0
M  V30 5925 H 556.765 -4.11754 -0.896474 0
M  V30 5926 H 555.489 -2.96681 -1.36558 0
M  V30 5927 H 554.148 -3.60437 0.669391 0
M  V30 5928 H 553.796 -4.8018 -1.49788 0
M  V30 5929 H 553.496 -5.87501 -0.107968 0
M  V30 5930 H 555.02 -6.01862 -1.02927 0
M  V30 5931 H 556.434 -5.6051 1.20421 0
M  V30 5932 H 554.831 -5.66022 1.99347 0
M  V30 5933 H 555.901 -4.27701 2.28474 0
M  V30 5934 N 557.244 -0.608902 -1.45362 0
M  V30 5935 C 558.154 0.110969 -2.34337 0
M  V30 5936 C 559.17 0.859007 -1.51318 0
M  V30 5937 O 560.346 0.816296 -1.84116 0
M  V30 5938 C 557.411 1.09494 -3.28956 0
M  V30 5939 C 556.472 0.348718 -4.27881 0
M  V30 5940 C 555.705 1.28582 -5.17979 0
M  V30 5941 O 555.928 2.52369 -5.11533 0
M  V30 5942 O 554.862 0.782172 -5.96796 0
M  V30 5943 H 558.688 -0.620258 -2.97299 0
M  V30 5944 H 556.273 -0.36916 -1.44767 0
M  V30 5945 H 558.155 1.66163 -3.87257 0
M  V30 5946 H 556.83 1.80717 -2.68557 0
M  V30 5947 H 555.737 -0.260465 -3.73192 0
M  V30 5948 H 557.07 -0.323049 -4.91139 0
M  V30 5949 N 558.722 1.53707 -0.348139 0
M  V30 5950 C 559.999 1.93247 0.302475 0
M  V30 5951 C 560.379 1.28012 1.67857 0
M  V30 5952 O 559.727 0.43274 2.24365 0
M  V30 5953 C 559.937 3.47031 0.370159 0
M  V30 5954 C 561.285 4.20066 0.61882 0
M  V30 5955 O 562.309 3.53319 0.452087 0
M  V30 5956 O 561.168 5.38318 0.94215 0
M  V30 5957 H 558.262 0.807736 0.177458 0
M  V30 5958 H 560.808 1.64927 -0.399651 0
M  V30 5959 H 559.58 3.86745 -0.59534 0
M  V30 5960 H 559.203 3.81532 1.11888 0
M  V30 5961 N 560.2 0.0768682 1.57412 0
M  V30 5962 C 561.446 -0.591961 1.93968 0
M  V30 5963 C 561.779 -1.68954 0.9575 0
M  V30 5964 O 561.054 -1.94496 -0.0124675 0
M  V30 5965 C 561.337 -1.16418 3.40762 0
M  V30 5966 C 561.19 -0.0728933 4.49741 0
M  V30 5967 C 562.509 -2.06814 3.88479 0
M  V30 5968 H 559.628 -0.213716 0.705333 0
M  V30 5969 H 562.27 0.14387 1.89455 0
M  V30 5970 H 560.42 -1.79128 3.4474 0
M  V30 5971 H 562.092 0.560446 4.57883 0
M  V30 5972 H 560.335 0.595859 4.29688 0
M  V30 5973 H 561.006 -0.513755 5.49604 0
M  V30 5974 H 563.482 -1.54033 3.8654 0
M  V30 5975 H 562.358 -2.43785 4.91793 0
M  V30 5976 H 562.619 -2.97844 3.26713 0
M  V30 5977 N 561.678 -1.56367 -0.196722 0
M  V30 5978 C 562.608 -1.97442 -1.24655 0
M  V30 5979 C 563.589 -0.846147 -1.47561 0
M  V30 5980 O 564.774 -1.11035 -1.59326 0
M  V30 5981 C 561.904 -2.31253 -2.59112 0
M  V30 5982 C 560.858 -3.46804 -2.50821 0
M  V30 5983 C 560.184 -3.66286 -3.89536 0
M  V30 5984 C 561.484 -4.8104 -2.03465 0
M  V30 5985 H 563.178 -2.85388 -0.905216 0
M  V30 5986 H 560.724 -1.37304 -0.434002 0
M  V30 5987 H 562.677 -2.58583 -3.32736 0
M  V30 5988 H 561.401 -1.40188 -2.94983 0
M  V30 5989 H 560.06 -3.19563 -1.79653 0
M  V30 5990 H 559.708 -2.72555 -4.22756 0
M  V30 5991 H 559.408 -4.4402 -3.84864 0
M  V30 5992 H 560.932 -3.9599 -4.64784 0
M  V30 5993 H 562.346 -5.07411 -2.66846 0
M  V30 5994 H 560.743 -5.62232 -2.09798 0
M  V30 5995 H 561.813 -4.74732 -0.98781 0
M  V30 5996 N 563.156 0.464375 -1.50603 0
M  V30 5997 C 564.066 1.58723 -1.72754 0
M  V30 5998 C 565.082 1.62925 -0.610844 0
M  V30 5999 O 566.258 1.8067 -0.889963 0
M  V30 6000 C 563.323 2.94897 -1.82309 0
M  V30 6001 C 562.384 3.0103 -3.06071 0
M  V30 6002 C 561.617 4.30708 -3.1516 0
M  V30 6003 O 561.84 5.2159 -2.30868 0
M  V30 6004 O 560.774 4.42571 -4.0794 0
M  V30 6005 H 564.6 1.42954 -2.67951 0
M  V30 6006 H 562.185 0.644579 -1.3478 0
M  V30 6007 H 564.067 3.75764 -1.90735 0
M  V30 6008 H 562.742 3.10851 -0.902967 0
M  V30 6009 H 561.649 2.19217 -3.03142 0
M  V30 6010 H 562.982 2.90014 -3.97684 0
M  V30 6011 N 564.634 1.40294 0.718013 0
M  V30 6012 C 565.882 1.38167 1.47494 0
M  V30 6013 C 566.203 -0.01607 1.94993 0
M  V30 6014 O 565.473 -0.970396 1.70177 0
M  V30 6015 H 564.053 0.508505 0.547203 0
M  V30 6016 H 566.715 1.75324 0.851322 0
M  V30 6017 H 565.811 2.05503 2.34894 0
M  V30 6018 N 566.112 -0.949982 1.2575 0
M  V30 6019 C 567.022 -2.08109 1.08295 0
M  V30 6020 C 568.038 -1.7399 0.0188181 0
M  V30 6021 O 569.214 -2.00187 0.220724 0
M  V30 6022 C 566.279 -3.39383 0.708534 0
M  V30 6023 C 565.34 -3.8734 1.85111 0
M  V30 6024 C 564.573 -5.12349 1.49447 0
M  V30 6025 O 564.796 -5.6905 0.392212 0
M  V30 6026 O 563.73 -5.5513 2.32624 0
M  V30 6027 H 567.556 -2.25738 2.03165 0
M  V30 6028 H 565.141 -1.06545 1.04731 0
M  V30 6029 H 567.023 -4.18277 0.512061 0
M  V30 6030 H 565.698 -3.23013 -0.210854 0
M  V30 6031 H 564.605 -3.09429 2.10248 0
M  V30 6032 H 565.938 -4.08216 2.74991 0
M  V30 6033 N 567.59 -1.07411 -1.15328 0
M  V30 6034 C 568.839 -0.792643 -1.85473 0
M  V30 6035 C 569.152 0.683789 -1.83259 0
M  V30 6036 O 570.358 1.08005 -2.49093 0
M  V30 6037 C 568.814 -1.36787 -3.32892 0
M  V30 6038 C 568.422 -2.87536 -3.43551 0
M  V30 6039 C 570.166 -1.16444 -4.08217 0
M  V30 6040 C 568.073 -3.38247 -4.85122 0
M  V30 6041 H 567.003 -0.292838 -0.694811 0
M  V30 6042 H 569.654 -1.29426 -1.30082 0
M  V30 6043 H 568.036 -0.793993 -3.87958 0
M  V30 6044 H 569.21 -3.50973 -2.98588 0
M  V30 6045 H 567.525 -3.06676 -2.81672 0
M  V30 6046 H 570.122 -1.51808 -5.12697 0
M  V30 6047 H 570.465 -0.10353 -4.16171 0
M  V30 6048 H 570.998 -1.70472 -3.59422 0
M  V30 6049 H 567.737 -4.43866 -4.82351 0
M  V30 6050 H 567.257 -2.79564 -5.30664 0
M  V30 6051 H 568.936 -3.34238 -5.5398 0
M  V30 6052 N 569.068 1.32177 -0.85831 0
M  V30 6053 C 570.016 2.30729 -0.294442 0
M  V30 6054 C 571.01 1.59009 0.584165 0
M  V30 6055 O 572.216 1.73713 0.471562 0
M  V30 6056 H 568.591 0.748097 -0.0765171 0
M  V30 6057 H 570.562 2.75774 -1.1398 0
M  V30 6058 C 569.311 3.44098 0.499208 0
M  V30 6059 H 568.634 3.99449 -0.167579 0
M  V30 6060 H 570.074 4.15202 0.859273 0
M  V30 6061 C 568.533 2.91684 1.68588 0
M  V30 6062 O 569.063 2.89481 2.78503 0
M  V30 6063 N 567.269 2.48036 1.51415 0
M  V30 6064 H 566.816 2.50027 0.620006 0
M  V30 6065 H 566.774 2.13322 2.30957 0
M  V30 6066 N 570.547 0.616602 1.45037 0
M  V30 6067 C 571.775 0.121968 2.0654 0
M  V30 6068 C 572.19 -1.19743 1.45969 0
M  V30 6069 O 571.547 -1.73133 0.577168 0
M  V30 6070 C 571.598 -0.0145171 3.61497 0
M  V30 6071 O 571.319 1.25269 4.19809 0
M  V30 6072 C 572.82 -0.539555 4.40004 0
M  V30 6073 H 570.04 0.0729837 0.667019 0
M  V30 6074 H 572.584 0.846891 1.8614 0
M  V30 6075 H 570.739 -0.689809 3.81209 0
M  V30 6076 H 571.153 1.08816 5.13088 0
M  V30 6077 H 572.627 -0.584112 5.48901 0
M  V30 6078 H 573.104 -1.56368 4.10421 0
M  V30 6079 H 573.71 0.101995 4.25178 0
M  V30 6080 N 572.025 -1.5352 0.356285 0
M  V30 6081 C 572.935 -2.29151 -0.502712 0
M  V30 6082 C 573.951 -1.34753 -1.1008 0
M  V30 6083 O 575.127 -1.67803 -1.11374 0
M  V30 6084 C 572.192 -3.05911 -1.63154 0
M  V30 6085 C 571.253 -4.15958 -1.06194 0
M  V30 6086 C 570.486 -4.8905 -2.13696 0
M  V30 6087 O 570.709 -4.61919 -3.34645 0
M  V30 6088 O 569.643 -5.75202 -1.77275 0
M  V30 6089 H 573.469 -3.03492 0.112466 0
M  V30 6090 H 571.054 -1.4891 0.120942 0
M  V30 6091 H 572.936 -3.53874 -2.28804 0
M  V30 6092 H 571.611 -2.34415 -2.23229 0
M  V30 6093 H 570.518 -3.7227 -0.369603 0
M  V30 6094 H 571.851 -4.89593 -0.505872 0
M  V30 6095 N 573.503 -0.0852151 -1.57369 0
M  V30 6096 C 574.78 0.622534 -1.85429 0
M  V30 6097 C 575.16 1.86962 -0.980229 0
M  V30 6098 O 574.508 2.28445 -0.0500219 0
M  V30 6099 C 574.718 0.947374 -3.35896 0
M  V30 6100 C 576.066 1.31509 -4.03721 0
M  V30 6101 O 577.09 1.03869 -3.40719 0
M  V30 6102 O 575.949 1.83231 -5.14868 0
M  V30 6103 H 573.043 0.310513 -0.766492 0
M  V30 6104 H 575.589 -0.117164 -1.69295 0
M  V30 6105 H 574.361 0.0622264 -3.91251 0
M  V30 6106 H 573.984 1.74338 -3.5734 0
M  V30 6107 N 574.981 1.5647 0.188427 0
M  V30 6108 C 576.258 1.71857 0.934058 0
M  V30 6109 C 576.638 0.641867 2.01105 0
M  V30 6110 O 575.986 -0.346098 2.25864 0
M  V30 6111 C 576.196 3.14431 1.5144 0
M  V30 6112 C 577.544 3.74869 1.99396 0
M  V30 6113 O 578.568 3.17601 1.61269 0
M  V30 6114 O 577.427 4.75387 2.69573 0
M  V30 6115 H 574.521 0.701186 0.438483 0
M  V30 6116 H 577.067 1.68768 0.177599 0
M  V30 6117 H 575.839 3.8427 0.738416 0
M  V30 6118 H 575.462 3.21775 2.33552 0
M  V30 6119 N 576.459 -0.456382 1.50847 0
M  V30 6120 C 577.736 -1.21739 1.53098 0
M  V30 6121 C 578.116 -2.09179 0.284132 0
M  V30 6122 O 577.464 -2.16466 -0.731773 0
M  V30 6123 C 577.674 -2.03573 2.83477 0
M  V30 6124 C 579.022 -2.61264 3.34703 0
M  V30 6125 O 580.046 -2.13802 2.84898 0
M  V30 6126 O 578.905 -3.47779 4.21559 0
M  V30 6127 H 575.999 -0.553219 0.614718 0
M  V30 6128 H 578.545 -0.467003 1.63148 0
M  V30 6129 H 577.317 -1.39232 3.65691 0
M  V30 6130 H 576.94 -2.85716 2.76499 0
M  V30 6131 N 577.937 -1.40673 -0.710563 0
M  V30 6132 C 579.214 -1.29718 -1.46398 0
M  V30 6133 C 579.594 0.082177 -2.1094 0
M  V30 6134 O 578.942 1.09536 -2.00534 0
M  V30 6135 C 579.152 -2.43967 -2.49562 0
M  V30 6136 C 580.5 -2.84436 -3.15248 0
M  V30 6137 O 581.524 -2.43597 -2.59883 0
M  V30 6138 O 580.383 -3.55008 -4.1549 0
M  V30 6139 H 577.477 -0.509697 -0.651258 0
M  V30 6140 H 580.023 -1.52603 -0.742312 0
M  V30 6141 H 578.795 -3.36076 -2.0042 0
M  V30 6142 H 578.418 -2.22879 -3.29258 0
M  V30 6143 N 579.415 0.9433 -1.26252 0
M  V30 6144 C 580.692 1.66639 -1.02424 0
M  V30 6145 C 581.072 2.06335 0.446006 0
M  V30 6146 O 580.42 1.78551 1.42589 0
M  V30 6147 C 580.63 2.88019 -1.97094 0
M  V30 6148 C 581.978 3.59718 -2.25584 0
M  V30 6149 O 583.002 2.9812 -1.94943 0
M  V30 6150 O 581.861 4.7066 -2.77743 0
M  V30 6151 H 578.955 0.729643 -0.389294 0
M  V30 6152 H 581.501 0.995218 -1.37454 0
M  V30 6153 H 580.273 2.5556 -2.96319 0
M  V30 6154 H 579.896 3.62863 -1.62532 0
M  V30 6155 N 580.893 1.08022 1.14757 0
M  V30 6156 C 582.17 0.720386 1.81851 0
M  V30 6157 C 582.55 -0.796375 1.95502 0
M  V30 6158 O 581.898 -1.71339 1.51179 0
M  V30 6159 C 582.108 1.44273 3.17783 0
M  V30 6160 C 583.456 1.59925 3.93331 0
M  V30 6161 O 584.48 1.40407 3.2736 0
M  V30 6162 O 583.339 1.92096 5.11626 0
M  V30 6163 H 580.433 0.257142 0.786007 0
M  V30 6164 H 582.979 1.18155 1.21809 0
M  V30 6165 H 581.751 2.47618 3.02987 0
M  V30 6166 H 581.374 0.97279 3.85516 0
M  V30 6167 N 582.371 -1.3172 0.865308 0
M  V30 6168 C 583.648 -1.91574 0.394789 0
M  V30 6169 C 584.028 -1.78769 -1.12271 0
M  V30 6170 O 583.376 -1.19245 -1.94918 0
M  V30 6171 C 583.586 -3.37957 0.870982 0
M  V30 6172 C 584.934 -4.15073 0.894384 0
M  V30 6173 O 585.958 -3.4672 0.816325 0
M  V30 6174 O 584.817 -5.37151 1.00651 0
M  V30 6175 H 581.911 -0.818649 0.117229 0
M  V30 6176 H 584.457 -1.4042 0.952913 0
M  V30 6177 H 583.229 -3.41269 1.91444 0
M  V30 6178 H 582.852 -3.96534 0.290907 0
M  V30 6179 N 583.85 -0.624285 -1.44708 0
M  V30 6180 C 585.127 -0.0572781 -1.95516 0
M  V30 6181 C 585.507 1.41516 -1.56641 0
M  V30 6182 O 584.855 2.12614 -0.837111 0
M  V30 6183 C 585.065 -0.272944 -3.47931 0
M  V30 6184 C 586.413 -0.162529 -4.24289 0
M  V30 6185 O 587.437 -0.203946 -3.55616 0
M  V30 6186 O 586.296 -0.0616847 -5.46465 0
M  V30 6187 H 583.389 0.0262219 -0.826584 0
M  V30 6188 H 585.936 -0.695512 -1.54793 0
M  V30 6189 H 584.707 -1.29492 -3.69253 0
M  V30 6190 H 584.331 0.399756 -3.95585 0
M  V30 6191 O 585.367 1.53348 -0.50662 0
M  V30 6192 H 586.058 1.93698 0.00952266 0
M  V30 END ATOM
M  V30 BEGIN BOND
M  V30 END BOND
M  V30 END CTAB
M  END
$$$$
