drugbank_target|P31572 L-carnitine CoA-transferase (DB01992; DB02516)
 OpenBabel12092119573D

  0  0  0     0  0            999 V3000
M  V30 BEGIN CTAB
M  V30 COUNTS 6281 6361 0 0 0
M  V30 BEGIN ATOM
M  V30 1 H -0.908 1.98254 -0.117106 0
M  V30 2 N 0 1.576 0 0
M  V30 3 C 0.933 2.03868 1.02534 0
M  V30 4 C 1.911 0.928543 1.3348 0
M  V30 5 O 3.095 1.19667 1.45644 0
M  V30 6 C 0.222 2.43627 2.35294 0
M  V30 7 C -0.732 3.65373 2.2001 0
M  V30 8 S 0.101 5.13292 1.52614 0
M  V30 9 C 1.257 5.56322 2.86805 0
M  V30 10 H 1.49 2.90518 0.631377 0
M  V30 11 H -0.977 1.52953 0.210867 0
M  V30 12 H 0.981 2.67203 3.11629 0
M  V30 13 H -0.358 1.57376 2.7183 0
M  V30 14 H -1.165 3.90944 3.18086 0
M  V30 15 H -1.563 3.418 1.51819 0
M  V30 16 H 0.729 5.58782 3.83104 0
M  V30 17 H 1.672 6.56266 2.65933 0
M  V30 18 H 2.08 4.83886 2.90714 0
M  V30 19 N 1.4781 -0.272755 1.55222 0
M  V30 20 C 2.7551 -1.02562 1.66555 0
M  V30 21 C 3.1351 -2.04282 0.532189 0
M  V30 22 O 2.4831 -2.23662 -0.467717 0
M  V30 23 C 2.6931 -1.6822 3.05782 0
M  V30 24 C 4.0411 -2.19373 3.63539 0
M  V30 25 O 5.0651 -1.78206 3.08417 0
M  V30 26 O 3.9241 -2.94883 4.60115 0
M  V30 27 H 1.0181 -0.475755 0.676451 0
M  V30 28 H 3.5641 -0.268593 1.67561 0
M  V30 29 H 2.3361 -0.945112 3.79715 0
M  V30 30 H 1.9591 -2.50609 3.08676 0
M  V30 31 N 2.9562 -1.48159 -0.537278 0
M  V30 32 C 3.9062 -1.5854 -1.63857 0
M  V30 33 C 4.8902 -0.442969 -1.54682 0
M  V30 34 O 6.0822 -0.69401 -1.62827 0
M  V30 35 C 3.2112 -1.62144 -3.02596 0
M  V30 36 C 2.2972 -2.81841 -3.16901 0
M  V30 37 N 2.6882 -4.06337 -3.01204 0
M  V30 38 C 0.9862 -2.79021 -3.47942 0
M  V30 39 C 1.6872 -4.86606 -3.18731 0
M  V30 40 N 0.6632 -4.19288 -3.45974 0
M  V30 41 H 4.4652 -2.5255 -1.50319 0
M  V30 42 H 1.9792 -1.4443 -0.742555 0
M  V30 43 H 3.9762 -1.67674 -3.81695 0
M  V30 44 H 2.6362 -0.69245 -3.17231 0
M  V30 45 H 3.6472 -4.36888 -2.78117 0
M  V30 46 H 0.3242 -1.95347 -3.6898 0
M  V30 47 H 1.7142 -5.95385 -3.11394 0
M  V30 48 N 4.4343 0.785586 -1.36625 0
M  V30 49 C 5.3643 1.91259 -1.33949 0
M  V30 50 C 6.3453 1.68795 -0.210325 0
M  V30 51 O 7.5303 1.89854 -0.408561 0
M  V30 52 C 4.6603 3.28339 -1.13186 0
M  V30 53 C 3.6143 3.65335 -2.22967 0
M  V30 54 C 2.9403 5.00806 -1.87342 0
M  V30 55 C 4.2403 3.7352 -3.65075 0
M  V30 56 H 5.9343 1.93755 -2.28253 0
M  V30 57 H 3.4803 0.930788 -1.09874 0
M  V30 58 H 5.4333 4.06804 -1.09948 0
M  V30 59 H 4.1573 3.2624 -0.153332 0
M  V30 60 H 2.8163 2.89169 -2.25337 0
M  V30 61 H 2.4643 4.95233 -0.880545 0
M  V30 62 H 2.1643 5.26529 -2.60846 0
M  V30 63 H 3.6883 5.81687 -1.85667 0
M  V30 64 H 5.1023 4.42168 -3.64911 0
M  V30 65 H 3.4993 4.10731 -4.37516 0
M  V30 66 H 4.5693 2.74527 -3.99703 0
M  V30 67 N 5.9124 1.20967 1.01018 0
M  V30 68 C 7.3234 1.02319 1.56165 0
M  V30 69 C 7.6744 -0.418546 1.91684 0
M  V30 70 O 6.7994 -1.30096 1.72928 0
M  V30 71 C 7.3944 1.85109 2.8376 0
M  V30 72 C 5.9534 1.70809 3.35412 0
M  V30 73 C 5.1004 1.82643 2.08655 0
M  V30 74 H 8.0514 1.35065 0.833255 0
M  V30 75 H 8.0724 1.35827 3.55431 0
M  V30 76 H 7.5844 2.90035 2.57878 0
M  V30 77 H 5.6854 0.685464 3.66241 0
M  V30 78 H 5.7984 2.52467 4.07182 0
M  V30 79 H 4.1624 1.25896 2.21409 0
M  V30 80 H 4.9454 2.89066 1.85191 0
M  V30 81 N 7.3905 -1.2043 1.01659 0
M  V30 82 C 8.3235 -2.21924 0.531521 0
M  V30 83 C 9.3015 -1.57054 -0.421032 0
M  V30 84 O 10.4855 -1.85389 -0.341035 0
M  V30 85 C 7.6125 -3.37942 -0.226496 0
M  V30 86 C 6.6585 -4.21115 0.67561 0
M  V30 87 S 7.4915 -4.90674 2.14475 0
M  V30 88 C 8.6475 -6.10113 1.3969 0
M  V30 89 H 8.8805 -2.62725 1.3915 0
M  V30 90 H 6.4135 -1.30481 0.825479 0
M  V30 91 H 8.3715 -4.05196 -0.657738 0
M  V30 92 H 7.0325 -2.956 -1.06205 0
M  V30 93 H 6.2255 -5.03918 0.091108 0
M  V30 94 H 5.8275 -3.59115 1.04463 0
M  V30 95 H 8.1195 -6.7411 0.676897 0
M  V30 96 H 9.0625 -6.73022 2.20107 0
M  V30 97 H 9.4705 -5.57283 0.899786 0
M  V30 98 N 8.8686 -0.792821 -1.36206 0
M  V30 99 C 10.2796 -0.429513 -1.81692 0
M  V30 100 C 10.6306 1.04695 -1.65932 0
M  V30 101 O 9.7556 1.81256 -1.18218 0
M  V30 102 C 10.3506 -0.772831 -3.29868 0
M  V30 103 C 8.9096 -0.462307 -3.7355 0
M  V30 104 C 8.0566 -1.00569 -2.5842 0
M  V30 105 H 11.0076 -0.985672 -1.24379 0
M  V30 106 H 11.0286 -0.0651928 -3.80444 0
M  V30 107 H 10.5406 -1.84747 -3.41307 0
M  V30 108 H 8.6416 0.604158 -3.67669 0
M  V30 109 H 8.7546 -0.985299 -4.68859 0
M  V30 110 H 7.1186 -0.428734 -2.51066 0
M  V30 111 H 7.9016 -2.08616 -2.72643 0
M  V30 112 N 10.3467 1.47872 -0.545128 0
M  V30 113 C 11.2937 2.29849 0.2093 0
M  V30 114 C 12.2637 1.38313 0.919707 0
M  V30 115 O 13.4487 1.67277 0.917772 0
M  V30 116 C 10.5887 3.22019 1.24088 0
M  V30 117 C 9.7017 4.2864 0.537778 0
M  V30 118 C 8.8367 5.07973 1.5536 0
M  V30 119 C 7.8757 6.06381 0.8348 0
M  V30 120 N 7.0127 6.78717 1.79688 0
M  V30 121 H 11.8527 2.93845 -0.49591 0
M  V30 122 H 9.3897 1.44848 -0.256389 0
M  V30 123 H 11.3477 3.73868 1.85144 0
M  V30 124 H 9.9777 2.59914 1.91428 0
M  V30 125 H 9.0297 3.7994 -0.187046 0
M  V30 126 H 10.3417 4.98793 -0.0258907 0
M  V30 127 H 9.4957 5.63912 2.23803 0
M  V30 128 H 8.2347 4.37693 2.15118 0
M  V30 129 H 7.2397 5.49631 0.136388 0
M  V30 130 H 8.4647 6.78665 0.24313 0
M  V30 131 H 6.4107 6.11177 2.38326 0
M  V30 132 H 6.3277 7.44998 1.28505 0
M  V30 133 H 7.5957 7.39237 2.47282 0
M  V30 134 N 11.8248 0.280983 1.55075 0
M  V30 135 C 13.0718 -0.334115 1.99725 0
M  V30 136 C 13.3998 -1.5542 1.1694 0
M  V30 137 O 12.6548 -1.94361 0.228531 0
M  V30 138 C 12.9538 -0.754656 3.49342 0
M  V30 139 C 12.6198 0.361445 4.49449 0
M  V30 140 C 11.2818 0.667893 4.76542 0
M  V30 141 C 13.6338 1.11322 5.09173 0
M  V30 142 C 10.9618 1.7296 5.60626 0
M  V30 143 C 13.3138 2.1647 5.9441 0
M  V30 144 C 11.9778 2.47742 6.19822 0
M  V30 145 H 11.2478 -0.122261 0.730844 0
M  V30 146 H 13.8948 0.395917 1.87363 0
M  V30 147 H 12.1998 -1.56446 3.5921 0
M  V30 148 H 13.8968 -1.24142 3.813 0
M  V30 149 H 10.4868 0.112481 4.28452 0
M  V30 150 H 14.6708 0.88973 4.8826 0
M  V30 151 H 9.9268 1.97684 5.78559 0
M  V30 152 H 14.1008 2.75193 6.3972 0
M  V30 153 H 11.7278 3.30145 6.84769 0
M  V30 154 N 13.3029 -1.57598 0.00835791 0
M  V30 155 C 14.5509 -1.90551 -0.6734 0
M  V30 156 C 14.8719 -0.883301 -1.73847 0
M  V30 157 O 14.1419 0.0781442 -1.95744 0
M  V30 158 H 12.7219 -0.703312 -0.251717 0
M  V30 159 H 15.3839 -1.94833 0.0512592 0
M  V30 160 H 14.4799 -2.9056 -1.13935 0
M  V30 161 N 14.781 0.264519 -1.55364 0
M  V30 162 C 16.192 0.834936 -1.6699 0
M  V30 163 C 16.543 1.86718 -0.602552 0
M  V30 164 O 15.668 2.14899 0.254425 0
M  V30 165 C 16.263 1.5212 -3.02729 0
M  V30 166 C 14.822 2.03954 -3.16354 0
M  V30 167 C 13.969 0.884498 -2.62815 0
M  V30 168 H 16.92 0.0406869 -1.58648 0
M  V30 169 H 16.941 2.38853 -2.96191 0
M  V30 170 H 16.453 0.769668 -3.80392 0
M  V30 171 H 14.554 2.82041 -2.43482 0
M  V30 172 H 14.667 2.24902 -4.23032 0
M  V30 173 H 13.031 1.2802 -2.20188 0
M  V30 174 H 13.814 0.14634 -3.42988 0
M  V30 175 N 16.2591 1.48442 0.529413 0
M  V30 176 C 17.1891 1.65902 1.64313 0
M  V30 177 C 18.1701 0.507897 1.6234 0
M  V30 178 O 19.3551 0.740503 1.79528 0
M  V30 179 C 16.4851 1.69911 3.02898 0
M  V30 180 C 15.4391 2.8453 3.19729 0
M  V30 181 C 14.7651 2.73629 4.59381 0
M  V30 182 C 16.0651 4.25821 3.02447 0
M  V30 183 H 17.7591 2.5914 1.49955 0
M  V30 184 H 15.3051 1.24709 0.719982 0
M  V30 185 H 17.2581 1.80715 3.80684 0
M  V30 186 H 15.9821 0.732524 3.18279 0
M  V30 187 H 14.6411 2.73283 2.44361 0
M  V30 188 H 14.2891 1.74938 4.71599 0
M  V30 189 H 13.9891 3.50541 4.71588 0
M  V30 190 H 15.5131 2.86401 5.39265 0
M  V30 191 H 16.9271 4.37898 3.70024 0
M  V30 192 H 15.3241 5.03735 3.26146 0
M  V30 193 H 16.3941 4.42244 1.98867 0
M  V30 194 N 17.7372 -0.778329 1.37039 0
M  V30 195 C 18.7002 -1.87301 1.32102 0
M  V30 196 C 19.7002 -1.59198 0.226405 0
M  V30 197 O 20.8902 -1.67403 0.481861 0
M  V30 198 C 18.0222 -3.24309 1.05055 0
M  V30 199 H 19.2152 -1.93093 2.29467 0
M  V30 200 H 16.7682 -0.977358 1.21973 0
M  V30 201 H 17.5032 -3.24196 0.0819373 0
M  V30 202 H 17.2882 -3.46098 1.84279 0
M  V30 203 H 18.7782 -4.04382 1.04234 0
M  V30 204 N 19.2153 -1.21501 -1.00376 0
M  V30 205 C 20.4633 -1.03095 -1.73827 0
M  V30 206 C 20.7843 0.436341 -1.90055 0
M  V30 207 O 20.0543 1.31466 -1.45236 0
M  V30 208 H 18.6343 -0.378487 -0.644016 0
M  V30 209 H 21.2963 -1.52831 -1.20949 0
M  V30 210 H 20.3923 -1.49991 -2.73695 0
M  V30 211 N 20.6934 1.19889 -1.02296 0
M  V30 212 C 21.6234 2.25141 -0.619174 0
M  V30 213 C 22.6044 1.66051 0.368915 0
M  V30 214 O 23.7894 1.92546 0.252941 0
M  V30 215 C 20.9194 3.4728 0.0368783 0
M  V30 216 C 19.8734 4.19005 -0.872865 0
M  V30 217 C 19.1994 5.34637 -0.0822402 0
M  V30 218 C 20.4994 4.74452 -2.18387 0
M  V30 219 H 22.1934 2.59171 -1.49903 0
M  V30 220 H 19.7394 1.24579 -0.722222 0
M  V30 221 H 21.6924 4.20098 0.330958 0
M  V30 222 H 20.4164 3.12433 0.95149 0
M  V30 223 H 19.0754 3.48061 -1.15105 0
M  V30 224 H 18.7234 4.96034 0.83422 0
M  V30 225 H 18.4234 5.83557 -0.688149 0
M  V30 226 H 19.9474 6.10255 0.205238 0
M  V30 227 H 21.3614 5.39055 -1.95172 0
M  V30 228 H 19.7584 5.33834 -2.74119 0
M  V30 229 H 20.8284 3.92844 -2.84257 0
M  V30 230 N 22.1715 0.800033 1.35784 0
M  V30 231 C 23.5875 0.482977 1.52117 0
M  V30 232 C 23.7875 -0.996948 1.75109 0
M  V30 233 O 22.8435 -1.78216 1.78872 0
M  V30 234 C 24.1565 1.32264 2.70049 0
M  V30 235 C 25.7045 1.31742 2.83924 0
M  V30 236 C 26.1795 2.14106 4.04874 0
M  V30 237 N 27.6705 2.11607 4.12039 0
M  V30 238 C 28.4055 2.72099 5.04727 0
M  V30 239 N 27.9015 3.41492 6.02789 0
M  V30 240 N 29.6945 2.61776 4.97423 0
M  V30 241 H 21.8455 1.75856 1.19115 0
M  V30 242 H 24.1085 0.748122 0.582252 0
M  V30 243 H 23.8145 2.37261 2.59616 0
M  V30 244 H 23.6885 0.971303 3.6448 0
M  V30 245 H 26.0755 0.275333 2.93813 0
M  V30 246 H 26.1565 1.70859 1.9037 0
M  V30 247 H 25.8005 3.18351 3.95746 0
M  V30 248 H 25.7305 1.72353 4.97596 0
M  V30 249 H 28.2215 1.61112 3.41835 0
M  V30 250 H 28.5345 3.84953 6.70098 0
M  V30 251 H 26.8795 3.45596 6.02983 0
M  V30 252 H 30.0705 2.07157 4.19766 0
M  V30 253 H 30.2435 3.0921 5.69468 0
M  V30 254 N 23.6496 -1.47581 0.552962 0
M  V30 255 C 24.8956 -2.02782 0.0273648 0
M  V30 256 C 25.2286 -1.42687 -1.31734 0
M  V30 257 O 24.5036 -0.580897 -1.85623 0
M  V30 258 C 24.7866 -3.60031 -0.0702371 0
M  V30 259 C 24.6396 -4.30566 1.30126 0
M  V30 260 C 25.9586 -4.33028 -0.785771 0
M  V30 261 H 23.0776 -0.736912 0.0114185 0
M  V30 262 H 25.7196 -1.76056 0.714432 0
M  V30 263 H 23.8696 -3.82932 -0.655382 0
M  V30 264 H 25.5416 -4.19018 1.92929 0
M  V30 265 H 23.7846 -3.91086 1.87709 0
M  V30 266 H 24.4556 -5.39114 1.18573 0
M  V30 267 H 26.9316 -4.15095 -0.288982 0
M  V30 268 H 25.8076 -5.42695 -0.823013 0
M  V30 269 H 26.0686 -4.01945 -1.841 0
M  V30 270 N 25.1277 -0.289203 -1.54924 0
M  V30 271 C 26.3737 0.323998 -2.00195 0
M  V30 272 C 26.7067 1.54441 -1.17735 0
M  V30 273 O 25.9817 1.92875 -0.250878 0
M  V30 274 C 26.2647 0.692276 -3.53383 0
M  V30 275 C 26.1177 -0.536457 -4.46589 0
M  V30 276 C 27.4367 1.52335 -4.12895 0
M  V30 277 H 24.5557 0.116289 -0.727768 0
M  V30 278 H 27.1977 -0.398954 -1.85764 0
M  V30 279 H 25.3477 1.30822 -3.65811 0
M  V30 280 H 27.0197 -1.17499 -4.46085 0
M  V30 281 H 25.2627 -1.17192 -4.1767 0
M  V30 282 H 25.9337 -0.234806 -5.515 0
M  V30 283 H 28.4097 1.00302 -4.0383 0
M  V30 284 H 27.2857 1.74982 -5.20262 0
M  V30 285 H 27.5467 2.50886 -3.64018 0
M  V30 286 N 26.6058 1.57591 -0.0167156 0
M  V30 287 C 27.8528 1.91283 0.664597 0
M  V30 288 C 28.1808 0.891949 1.72842 0
M  V30 289 O 27.4358 -0.100931 1.9544 0
M  V30 290 C 27.7348 3.3172 1.33029 0
M  V30 291 C 27.4008 4.4914 0.398047 0
M  V30 292 C 26.0628 4.80992 0.141421 0
M  V30 293 C 28.4148 5.20634 -0.242825 0
M  V30 294 C 25.7428 5.81703 -0.764092 0
M  V30 295 C 28.0948 6.22311 -1.13632 0
M  V30 296 C 26.7588 6.52611 -1.40196 0
M  V30 297 H 26.0288 0.699956 0.243193 0
M  V30 298 H 28.6758 1.9135 -0.0758267 0
M  V30 299 H 26.9808 3.27856 2.14517 0
M  V30 300 H 28.6778 3.55055 1.86379 0
M  V30 301 H 25.2678 4.24262 0.608238 0
M  V30 302 H 29.4518 4.96267 -0.0576019 0
M  V30 303 H 24.7078 6.03532 -0.977732 0
M  V30 304 H 28.8818 6.76834 -1.63917 0
M  V30 305 H 26.5088 7.30467 -2.10529 0
M  V30 306 N 28.0839 -0.256276 1.55502 0
M  V30 307 C 29.3089 -1.00766 1.81276 0
M  V30 308 C 29.7339 -1.78524 0.59252 0
M  V30 309 O 29.0919 -1.75413 -0.45827 0
M  V30 310 C 29.1399 -1.92869 3.04687 0
M  V30 311 O 28.2439 -3.019 2.80945 0
M  V30 312 H 27.5849 -0.287224 0.598664 0
M  V30 313 H 30.1149 -0.280109 2.02674 0
M  V30 314 H 30.1249 -2.34511 3.33869 0
M  V30 315 H 28.7999 -1.35689 3.93143 0
M  V30 316 H 27.3769 -2.64454 2.62904 0
M  V30 317 N 29.562 -1.4872 -0.521534 0
M  V30 318 C 30.81 -1.56857 -1.27437 0
M  V30 319 C 31.131 -0.247982 -1.93417 0
M  V30 320 O 30.401 0.731151 -1.81744 0
M  V30 321 H 28.981 -0.577885 -0.473347 0
M  V30 322 H 31.643 -1.85233 -0.606205 0
M  V30 323 H 30.739 -2.35402 -2.0492 0
M  V30 324 N 31.0401 0.771051 -1.3745 0
M  V30 325 C 32.2891 1.52491 -1.3202 0
M  V30 326 C 32.6021 1.9538 0.0927347 0
M  V30 327 O 33.8081 2.70159 0.269503 0
M  V30 328 C 32.2641 2.75366 -2.31736 0
M  V30 329 C 31.8721 2.39573 -3.78562 0
M  V30 330 C 33.6161 3.53307 -2.35318 0
M  V30 331 C 31.5231 3.58954 -4.70007 0
M  V30 332 H 30.4531 0.572506 -0.490666 0
M  V30 333 H 33.1041 0.844474 -1.62914 0
M  V30 334 H 31.4861 3.45303 -1.93861 0
M  V30 335 H 32.6601 1.77415 -4.25277 0
M  V30 336 H 30.9751 1.74805 -3.77932 0
M  V30 337 H 33.5721 4.42039 -3.00842 0
M  V30 338 H 33.9151 3.93217 -1.36698 0
M  V30 339 H 34.4481 2.90367 -2.71904 0
M  V30 340 H 31.1871 3.24125 -5.69757 0
M  V30 341 H 30.7071 4.20214 -4.27996 0
M  V30 342 H 32.3861 4.25758 -4.87175 0
M  V30 343 N 32.5182 1.22032 0.997298 0
M  V30 344 C 33.4282 1.00271 2.12092 0
M  V30 345 C 34.4442 -0.047621 1.73935 0
M  V30 346 O 35.6202 0.144136 2.00884 0
M  V30 347 C 32.6852 0.578449 3.4184 0
M  V30 348 C 31.7462 1.70189 3.94125 0
M  V30 349 C 30.9792 1.29778 5.17681 0
M  V30 350 O 31.2022 0.174676 5.70132 0
M  V30 351 O 30.1362 2.11261 5.63607 0
M  V30 352 H 33.9622 1.94398 2.3333 0
M  V30 353 H 31.5472 1.00587 1.10465 0
M  V30 354 H 33.4292 0.351998 4.19927 0
M  V30 355 H 32.1042 -0.334019 3.21972 0
M  V30 356 H 31.0112 1.98282 3.1723 0
M  V30 357 H 32.3442 2.59206 4.18417 0
M  V30 358 N 33.9963 -1.19345 1.0293 0
M  V30 359 C 35.2453 -1.88363 0.721256 0
M  V30 360 C 35.5583 -1.80514 -0.753254 0
M  V30 361 O 36.7643 -2.44788 -1.17436 0
M  V30 362 C 35.2203 -3.37872 1.23978 0
M  V30 363 C 34.8283 -3.54278 2.74211 0
M  V30 364 C 36.5723 -4.12365 1.00775 0
M  V30 365 C 34.4793 -4.97682 3.19479 0
M  V30 366 H 33.4093 -0.705484 0.266098 0
M  V30 367 H 36.0603 -1.34928 1.24365 0
M  V30 368 H 34.4423 -3.90707 0.6453 0
M  V30 369 H 35.6163 -3.11769 3.39318 0
M  V30 370 H 33.9313 -2.93174 2.95699 0
M  V30 371 H 36.5283 -5.18119 1.32123 0
M  V30 372 H 36.8713 -4.16263 -0.0554308 0
M  V30 373 H 37.4043 -3.65668 1.56625 0
M  V30 374 H 34.1433 -4.98945 4.25128 0
M  V30 375 H 33.6633 -5.4095 2.591 0
M  V30 376 H 35.3423 -5.66337 3.12845 0
M  V30 377 N 35.4744 -0.807222 -1.35358 0
M  V30 378 C 36.4374 -0.223665 -2.28106 0
M  V30 379 C 37.4374 0.589354 -1.4961 0
M  V30 380 O 38.6274 0.407745 -1.69361 0
M  V30 381 C 35.7594 0.688149 -3.33882 0
M  V30 382 H 36.9524 -1.04169 -2.81227 0
M  V30 383 H 34.5054 -0.577921 -1.45223 0
M  V30 384 H 35.2404 1.52984 -2.85948 0
M  V30 385 H 35.0254 0.10687 -3.91954 0
M  V30 386 H 36.5154 1.09075 -4.03104 0
M  V30 387 N 36.9525 1.47285 -0.560781 0
M  V30 388 C 38.2005 2.02064 -0.0379868 0
M  V30 389 C 38.5215 1.43711 1.31803 0
M  V30 390 O 37.7915 0.61362 1.86042 0
M  V30 391 H 36.3715 0.746918 -0.0110531 0
M  V30 392 H 39.0335 1.80648 -0.731598 0
M  V30 393 H 38.1295 3.12064 0.0474463 0
M  V30 394 N 38.4306 0.297415 1.54768 0
M  V30 395 C 39.8416 -0.195947 1.85669 0
M  V30 396 C 40.1926 -1.53707 1.21937 0
M  V30 397 O 39.3176 -2.10164 0.515754 0
M  V30 398 C 39.9126 -0.362318 3.36857 0
M  V30 399 C 38.4716 -0.799901 3.67802 0
M  V30 400 C 37.6186 0.0938578 2.77141 0
M  V30 401 H 40.5696 0.518538 1.4999 0
M  V30 402 H 40.5906 -1.19745 3.61167 0
M  V30 403 H 40.1026 0.613921 3.83214 0
M  V30 404 H 38.2036 -1.78682 3.26961 0
M  V30 405 H 38.3166 -0.621773 4.75048 0
M  V30 406 H 36.6806 -0.426254 2.51108 0
M  V30 407 H 37.4636 1.06639 3.26318 0
M  V30 408 N 39.9087 -1.5758 0.0250728 0
M  V30 409 C 41.1557 -1.91633 -0.654444 0
M  V30 410 C 41.4837 -0.901103 -1.72367 0
M  V30 411 O 40.7387 0.0905647 -1.9549 0
M  V30 412 C 41.0377 -3.32421 -1.31268 0
M  V30 413 C 40.7037 -4.49344 -0.374223 0
M  V30 414 C 39.3657 -4.8106 -0.115911 0
M  V30 415 C 41.7177 -5.20498 0.270432 0
M  V30 416 C 39.0457 -5.8129 0.79493 0
M  V30 417 C 41.3977 -6.21699 1.1693 0
M  V30 418 C 40.0617 -6.51859 1.43655 0
M  V30 419 H 39.3317 -0.701236 -0.239478 0
M  V30 420 H 41.9787 -1.91307 0.0859734 0
M  V30 421 H 40.2837 -3.28989 -2.12775 0
M  V30 422 H 41.9807 -3.56038 -1.84494 0
M  V30 423 H 38.5707 -4.24579 -0.58573 0
M  V30 424 H 42.7547 -4.96229 0.0839194 0
M  V30 425 H 38.0107 -6.03005 1.00973 0
M  V30 426 H 42.1847 -6.75955 1.67504 0
M  V30 427 H 39.8117 -7.2934 2.144 0
M  V30 428 N 41.3868 0.248026 -1.55636 0
M  V30 429 C 42.3498 1.29044 -1.89421 0
M  V30 430 C 43.3498 1.41134 -0.770581 0
M  V30 431 O 44.5398 1.39854 -1.03858 0
M  V30 432 C 41.6718 2.66831 -2.12165 0
M  V30 433 H 42.8648 1.00305 -2.82629 0
M  V30 434 H 40.4178 0.487265 -1.48511 0
M  V30 435 H 41.1528 3.00711 -1.21422 0
M  V30 436 H 40.9378 2.59438 -2.93997 0
M  V30 437 H 42.4278 3.42103 -2.3949 0
M  V30 438 N 42.8649 1.48995 0.513639 0
M  V30 439 C 44.1129 1.57531 1.26604 0
M  V30 440 C 44.4339 0.258236 1.93283 0
M  V30 441 O 43.7039 -0.721502 1.8213 0
M  V30 442 H 42.2839 0.580387 0.470276 0
M  V30 443 H 44.9459 1.85552 0.596373 0
M  V30 444 H 44.0419 2.36486 2.03669 0
M  V30 445 N 44.343 -0.763751 1.37857 0
M  V30 446 C 45.275 -1.88664 1.30148 0
M  V30 447 C 46.288 -1.61365 0.215685 0
M  V30 448 O 47.477 -1.72134 0.472459 0
M  V30 449 C 44.577 -3.24075 0.991396 0
M  V30 450 C 43.75 -3.78958 2.18426 0
M  V30 451 C 42.809 -4.92862 1.8432 0
M  V30 452 O 41.835 -5.08027 2.56704 0
M  V30 453 N 43.037 -5.75071 0.792081 0
M  V30 454 H 45.802 -1.95791 2.26905 0
M  V30 455 H 43.363 -0.943226 1.31586 0
M  V30 456 H 45.355 -3.97804 0.743935 0
M  V30 457 H 43.925 -3.12399 0.112122 0
M  V30 458 H 43.145 -2.96913 2.59299 0
M  V30 459 H 44.433 -4.12357 2.98058 0
M  V30 460 H 43.831 -5.65375 0.191595 0
M  V30 461 H 42.388 -6.48991 0.60449 0
M  V30 462 N 45.8211 -1.22559 -0.990812 0
M  V30 463 C 46.7541 -0.940773 -2.07905 0
M  V30 464 C 47.7321 0.117082 -1.62178 0
M  V30 465 O 48.9161 -0.0149506 -1.88494 0
M  V30 466 C 46.0431 -0.415321 -3.36144 0
M  V30 467 C 45.0891 -1.45818 -4.00799 0
M  V30 468 S 45.9221 -3.03219 -4.41382 0
M  V30 469 C 47.0781 -2.52317 -5.72789 0
M  V30 470 H 47.3111 -1.8623 -2.31745 0
M  V30 471 H 44.8441 -1.05688 -1.12558 0
M  V30 472 H 46.8021 -0.118747 -4.10328 0
M  V30 473 H 45.4631 0.485121 -3.10331 0
M  V30 474 H 44.6561 -1.04044 -4.93144 0
M  V30 475 H 44.2581 -1.70356 -3.32949 0
M  V30 476 H 46.5501 -1.93688 -6.49224 0
M  V30 477 H 47.4931 -3.43161 -6.19392 0
M  V30 478 H 47.9011 -1.93529 -5.30289 0
M  V30 479 N 47.2992 1.18797 -1.03562 0
M  V30 480 C 48.5462 1.8865 -0.736023 0
M  V30 481 C 48.8742 1.80041 0.735889 0
M  V30 482 O 48.1292 1.19179 1.55225 0
M  V30 483 C 48.4282 3.38692 -1.14117 0
M  V30 484 C 48.0942 3.67504 -2.6125 0
M  V30 485 C 46.7562 3.75078 -3.01447 0
M  V30 486 C 49.1082 3.80293 -3.56408 0
M  V30 487 C 46.4362 3.92915 -4.35701 0
M  V30 488 C 48.7882 3.99645 -4.90374 0
M  V30 489 C 47.4522 4.05453 -5.30249 0
M  V30 490 H 46.7222 0.690321 -0.26933 0
M  V30 491 H 49.3692 1.40641 -1.29971 0
M  V30 492 H 47.6742 3.88645 -0.496202 0
M  V30 493 H 49.3712 3.91072 -0.886789 0
M  V30 494 H 45.9612 3.62223 -2.29113 0
M  V30 495 H 50.1452 3.73779 -3.26501 0
M  V30 496 H 45.4012 3.95653 -4.66121 0
M  V30 497 H 49.5752 4.08482 -5.64017 0
M  V30 498 H 47.2022 4.19027 -6.34288 0
M  V30 499 N 48.7773 0.814389 1.34928 0
M  V30 500 C 49.7403 0.235759 2.27984 0
M  V30 501 C 50.7403 -0.581412 1.49921 0
M  V30 502 O 51.9303 -0.398758 1.69575 0
M  V30 503 C 49.0623 -0.670433 3.34242 0
M  V30 504 H 50.2553 1.05659 2.80671 0
M  V30 505 H 47.8083 0.585614 1.44915 0
M  V30 506 H 48.5433 -1.51466 2.86755 0
M  V30 507 H 48.3283 -0.0860822 3.92005 0
M  V30 508 H 49.8183 -1.06935 4.03676 0
M  V30 509 N 50.2554 -1.46986 0.568584 0
M  V30 510 C 51.1654 -2.33942 -0.17555 0
M  V30 511 C 52.1814 -1.48891 -0.90041 0
M  V30 512 O 53.3574 -1.81794 -0.86676 0
M  V30 513 C 50.4224 -3.25811 -1.18524 0
M  V30 514 C 49.4834 -4.26757 -0.466582 0
M  V30 515 C 48.7164 -5.14236 -1.42817 0
M  V30 516 O 48.9394 -5.04379 -2.66379 0
M  V30 517 O 47.8734 -5.94412 -0.946453 0
M  V30 518 H 51.6994 -2.98896 0.538036 0
M  V30 519 H 49.2844 -1.4573 0.329097 0
M  V30 520 H 51.1664 -3.82527 -1.76779 0
M  V30 521 H 49.8414 -2.63471 -1.88055 0
M  V30 522 H 48.7484 -3.73769 0.157451 0
M  V30 523 H 50.0814 -4.91843 0.187485 0
M  V30 524 N 51.7335 -0.305618 -1.54608 0
M  V30 525 C 52.9795 0.295595 -2.01241 0
M  V30 526 C 53.3345 1.51171 -1.19018 0
M  V30 527 O 52.6275 1.89832 -0.259684 0
M  V30 528 C 52.8215 0.698983 -3.50498 0
M  V30 529 C 52.6505 -0.476491 -4.47168 0
M  V30 530 C 51.4205 -0.969963 -4.95903 0
M  V30 531 C 53.6185 -1.32294 -4.96994 0
M  V30 532 N 51.6005 -2.11172 -5.76437 0
M  V30 533 C 52.9715 -2.31212 -5.75275 0
M  V30 534 C 55.0265 -1.35278 -4.7917 0
M  V30 535 C 53.7295 -3.32896 -6.37631 0
M  V30 536 C 55.7555 -2.35823 -5.42348 0
M  V30 537 C 55.1175 -3.33469 -6.20466 0
M  V30 538 H 51.2165 0.0724992 -0.778632 0
M  V30 539 H 53.8005 -0.436583 -1.89742 0
M  V30 540 H 51.9715 1.40032 -3.62278 0
M  V30 541 H 53.7035 1.28013 -3.8392 0
M  V30 542 H 50.4585 -0.544178 -4.70463 0
M  V30 543 H 50.8825 -2.68714 -6.21387 0
M  V30 544 H 55.5245 -0.61157 -4.18354 0
M  V30 545 H 53.2425 -4.07933 -6.97579 0
M  V30 546 H 56.8285 -2.38911 -5.30484 0
M  V30 547 H 55.7085 -4.09996 -6.68485 0
M  V30 548 N 53.2116 1.57565 -0.0334293 0
M  V30 549 C 54.4596 1.91598 0.642999 0
M  V30 550 C 54.7806 0.910847 1.7242 0
M  V30 551 O 54.0506 -0.0469931 1.95844 0
M  V30 552 H 52.6306 0.707228 0.240496 0
M  V30 553 H 55.2926 1.94726 -0.0822488 0
M  V30 554 H 54.3886 2.92336 1.09298 0
M  V30 555 N 54.6897 -0.239769 1.55765 0
M  V30 556 C 55.6527 -1.28038 1.90103 0
M  V30 557 C 56.6527 -1.40723 0.778055 0
M  V30 558 O 57.8427 -1.39301 1.04599 0
M  V30 559 C 54.9747 -2.65702 2.13577 0
M  V30 560 H 56.1677 -0.988048 2.83157 0
M  V30 561 H 53.7207 -0.479382 1.48767 0
M  V30 562 H 54.4557 -3.00063 1.23015 0
M  V30 563 H 54.2407 -2.57875 2.95369 0
M  V30 564 H 55.7307 -3.40828 2.41301 0
M  V30 565 N 56.1678 -1.49265 -0.50573 0
M  V30 566 C 57.0778 -1.68312 -1.63427 0
M  V30 567 C 58.0938 -0.565682 -1.64548 0
M  V30 568 O 59.2698 -0.839801 -1.83055 0
M  V30 569 C 56.3348 -1.74107 -2.99813 0
M  V30 570 C 55.3958 -2.97653 -3.09356 0
M  V30 571 C 54.6288 -3.03163 -4.39236 0
M  V30 572 O 54.8518 -2.16396 -5.27758 0
M  V30 573 O 53.7858 -3.9558 -4.53652 0
M  V30 574 H 57.6118 -2.63907 -1.50289 0
M  V30 575 H 55.1968 -1.32951 -0.681502 0
M  V30 576 H 57.0788 -1.803 -3.80881 0
M  V30 577 H 55.7538 -0.816901 -3.13223 0
M  V30 578 H 54.6608 -2.96981 -2.27493 0
M  V30 579 H 55.9938 -3.89535 -3.00871 0
M  V30 580 N 57.6459 0.756429 -1.3826 0
M  V30 581 C 58.8919 1.51772 -1.34511 0
M  V30 582 C 59.2249 1.94089 0.0656691 0
M  V30 583 O 58.4999 1.65221 1.02626 0
M  V30 584 C 58.7829 2.77226 -2.29821 0
M  V30 585 C 58.6359 2.41065 -3.79747 0
M  V30 586 C 59.9549 3.79236 -2.23312 0
M  V30 587 H 57.0739 0.550578 -0.489931 0
M  V30 588 H 59.7159 0.866607 -1.69086 0
M  V30 589 H 57.8659 3.32784 -2.00467 0
M  V30 590 H 59.5379 1.91303 -4.19763 0
M  V30 591 H 57.7809 1.7356 -3.97567 0
M  V30 592 H 58.4519 3.3081 -4.41892 0
M  V30 593 H 60.9279 3.3321 -2.49219 0
M  V30 594 H 59.8039 4.64714 -2.92116 0
M  V30 595 H 60.0649 4.24615 -1.23102 0
M  V30 596 N 59.124 1.23083 0.984299 0
M  V30 597 C 60.373 1.05466 1.71929 0
M  V30 598 C 60.686 -0.409211 1.91272 0
M  V30 599 O 61.892 -0.705226 2.62181 0
M  V30 600 C 60.348 1.83874 3.09384 0
M  V30 601 C 59.956 3.34566 2.97943 0
M  V30 602 C 61.7 1.74734 3.8687 0
M  V30 603 C 59.607 4.05381 4.30605 0
M  V30 604 H 58.537 0.391039 0.644674 0
M  V30 605 H 61.188 1.47013 1.09815 0
M  V30 606 H 59.57 1.35131 3.72231 0
M  V30 607 H 60.744 3.90767 2.44209 0
M  V30 608 H 59.059 3.44476 2.33934 0
M  V30 609 H 61.656 2.24957 4.85076 0
M  V30 610 H 61.999 0.709372 4.10212 0
M  V30 611 H 62.532 2.21067 3.30717 0
M  V30 612 H 59.271 5.09467 4.1246 0
M  V30 613 H 58.791 3.53967 4.84218 0
M  V30 614 H 60.47 4.11458 4.99311 0
M  V30 615 N 60.6021 -1.18246 1.0419 0
M  V30 616 C 61.8481 -1.88793 0.75689 0
M  V30 617 C 62.2031 -1.78909 -0.707767 0
M  V30 618 O 61.4961 -1.1794 -1.50999 0
M  V30 619 C 61.6901 -3.38082 1.15911 0
M  V30 620 C 61.5191 -3.62496 2.66133 0
M  V30 621 C 60.2891 -3.7979 3.33298 0
M  V30 622 C 62.4871 -3.62976 3.64353 0
M  V30 623 N 60.4691 -3.91955 4.72487 0
M  V30 624 C 61.8401 -3.80869 4.89222 0
M  V30 625 C 63.8951 -3.46071 3.57965 0
M  V30 626 C 62.5981 -3.83608 6.08471 0
M  V30 627 C 64.6241 -3.50093 4.76643 0
M  V30 628 C 63.9861 -3.68484 6.00332 0
M  V30 629 H 60.0851 -0.709406 0.32904 0
M  V30 630 H 62.6691 -1.42022 1.33183 0
M  V30 631 H 60.8401 -3.83544 0.612238 0
M  V30 632 H 62.5721 -3.96202 0.824989 0
M  V30 633 H 59.3271 -3.79224 2.83701 0
M  V30 634 H 59.7511 -4.01857 5.44831 0
M  V30 635 H 64.3931 -3.30797 2.63311 0
M  V30 636 H 62.1111 -3.97669 7.0348 0
M  V30 637 H 65.6971 -3.38285 4.73344 0
M  V30 638 H 64.5771 -3.71488 6.90627 0
M  V30 639 N 62.0802 -0.821533 -1.34494 0
M  V30 640 C 63.3292 -0.405355 -1.97585 0
M  V30 641 C 63.6422 1.03677 -1.65863 0
M  V30 642 O 64.8482 1.55679 -2.22433 0
M  V30 643 C 63.3042 -0.673861 -3.53535 0
M  V30 644 C 62.9122 -2.12951 -3.94152 0
M  V30 645 C 64.6562 -0.32378 -4.23263 0
M  V30 646 C 62.5632 -2.34298 -5.43009 0
M  V30 647 H 61.4932 -0.147836 -0.739365 0
M  V30 648 H 64.1442 -1.00769 -1.53355 0
M  V30 649 H 62.5262 -0.00137554 -3.96 0
M  V30 650 H 63.7002 -2.84104 -3.62797 0
M  V30 651 H 62.0152 -2.44089 -3.37356 0
M  V30 652 H 64.6122 -0.461126 -5.32708 0
M  V30 653 H 64.9552 0.731586 -4.09821 0
M  V30 654 H 65.4882 -0.950786 -3.8627 0
M  V30 655 H 62.2272 -3.38335 -5.61435 0
M  V30 656 H 61.7472 -1.67687 -5.75883 0
M  V30 657 H 63.4262 -2.16588 -6.09671 0
M  V30 658 N 63.5583 1.46682 -0.576371 0
M  V30 659 C 64.4683 2.34032 0.163141 0
M  V30 660 C 65.4843 1.49367 0.892501 0
M  V30 661 O 66.6603 1.82252 0.857106 0
M  V30 662 C 63.7253 3.26435 1.16795 0
M  V30 663 C 62.7863 4.26998 0.443944 0
M  V30 664 C 62.0193 5.14986 1.40088 0
M  V30 665 O 62.2423 5.05785 2.637 0
M  V30 666 O 61.1763 5.94906 0.914917 0
M  V30 667 H 65.0023 2.98607 -0.55388 0
M  V30 668 H 62.5873 1.45554 -0.336821 0
M  V30 669 H 64.4693 3.83459 1.74748 0
M  V30 670 H 63.1443 2.64465 1.86655 0
M  V30 671 H 62.0513 3.7368 -0.177271 0
M  V30 672 H 63.3843 4.91736 -0.213566 0
M  V30 673 N 65.0364 0.313813 1.54444 0
M  V30 674 C 65.9844 -0.572171 2.25453 0
M  V30 675 C 66.9784 -1.12657 1.2651 0
M  V30 676 O 68.1844 -1.07573 1.44319 0
M  V30 677 H 64.5594 -0.203146 0.724041 0
M  V30 678 H 66.5304 0.0491145 2.9836 0
M  V30 679 C 65.2794 -1.72626 3.0182 0
M  V30 680 H 64.6024 -1.30891 3.77767 0
M  V30 681 H 66.0424 -2.32199 3.54767 0
M  V30 682 C 64.5014 -2.63806 2.09542 0
M  V30 683 O 65.0314 -3.65256 1.67185 0
M  V30 684 N 63.2374 -2.31824 1.75232 0
M  V30 685 H 62.7844 -1.49368 2.09873 0
M  V30 686 H 62.7424 -2.93095 1.13767 0
M  V30 687 N 66.5145 -1.57545 0.0417849 0
M  V30 688 C 67.7605 -1.92601 -0.635021 0
M  V30 689 C 68.0935 -0.919627 -1.71045 0
M  V30 690 O 67.3685 0.0557892 -1.9442 0
M  V30 691 C 67.6515 -3.38085 -1.23979 0
M  V30 692 C 67.5045 -4.49467 -0.173057 0
M  V30 693 C 68.8235 -3.83776 -2.15416 0
M  V30 694 H 65.9425 -0.700397 -0.229374 0
M  V30 695 H 68.5845 -1.89728 0.101633 0
M  V30 696 H 66.7345 -3.40664 -1.86762 0
M  V30 697 H 68.4065 -4.59018 0.458312 0
M  V30 698 H 66.6495 -4.30909 0.499996 0
M  V30 699 H 67.3205 -5.48323 -0.636054 0
M  V30 700 H 69.7965 -3.83013 -1.62605 0
M  V30 701 H 68.6725 -4.8624 -2.54679 0
M  V30 702 H 68.9335 -3.19998 -3.05047 0
M  V30 703 N 67.9926 0.231505 -1.5589 0
M  V30 704 C 68.9556 1.27028 -1.90779 0
M  V30 705 C 69.9556 1.40308 -0.785507 0
M  V30 706 O 71.1456 1.38744 -1.05336 0
M  V30 707 C 68.2776 2.64566 -2.14983 0
M  V30 708 H 69.4706 0.973017 -2.83677 0
M  V30 709 H 67.0236 0.471486 -1.49019 0
M  V30 710 H 67.7586 2.99406 -1.24604 0
M  V30 711 H 67.5436 2.56305 -2.96732 0
M  V30 712 H 69.0336 3.39543 -2.43105 0
M  V30 713 N 69.4707 1.49531 0.497807 0
M  V30 714 C 70.7167 1.60388 1.25089 0
M  V30 715 C 71.0717 0.288328 1.90227 0
M  V30 716 O 70.3647 -0.711706 1.77891 0
M  V30 717 C 70.5587 2.70252 2.33878 0
M  V30 718 C 70.3877 4.12363 1.79408 0
M  V30 719 C 69.1577 4.7911 1.60566 0
M  V30 720 C 71.3557 4.97491 1.30412 0
M  V30 721 N 69.3377 6.05525 1.01059 0
M  V30 722 C 70.7087 6.14411 0.830595 0
M  V30 723 C 72.7637 4.83466 1.19015 0
M  V30 724 C 71.4667 7.1885 0.254371 0
M  V30 725 C 73.4927 5.88057 0.627892 0
M  V30 726 C 72.8547 7.04208 0.16461 0
M  V30 727 H 68.9537 0.641246 0.447579 0
M  V30 728 H 71.5377 1.86549 0.557441 0
M  V30 729 H 69.7087 2.45858 3.0068 0
M  V30 730 H 71.4407 2.70613 3.00917 0
M  V30 731 H 68.1957 4.35961 1.85026 0
M  V30 732 H 68.6197 6.73028 0.732236 0
M  V30 733 H 73.2617 3.93978 1.53431 0
M  V30 734 H 70.9797 8.08036 -0.102052 0
M  V30 735 H 74.5657 5.79266 0.542444 0
M  V30 736 H 73.4457 7.83757 -0.263669 0
M  V30 737 N 70.9488 -0.749086 1.3866 0
M  V30 738 C 71.9118 -1.84457 1.36045 0
M  V30 739 C 72.9118 -1.58682 0.260122 0
M  V30 740 O 74.1018 -1.66343 0.517261 0
M  V30 741 C 71.2338 -3.22008 1.11911 0
M  V30 742 H 72.4268 -1.88182 2.33512 0
M  V30 743 H 69.9798 -0.951266 1.24019 0
M  V30 744 H 70.7148 -3.2395 0.150686 0
M  V30 745 H 70.4998 -3.42111 1.91579 0
M  V30 746 H 71.9898 -4.0208 1.12788 0
M  V30 747 N 72.4269 -1.23603 -0.977757 0
M  V30 748 C 73.7039 -0.977897 -1.69401 0
M  V30 749 C 74.0839 0.502738 -2.05026 0
M  V30 750 O 73.4319 1.47459 -1.74551 0
M  V30 751 C 73.6419 -1.89077 -2.93345 0
M  V30 752 C 74.9899 -2.15579 -3.65802 0
M  V30 753 O 76.0139 -1.86648 -3.03383 0
M  V30 754 O 74.8729 -2.64658 -4.78141 0
M  V30 755 H 71.9669 -0.369025 -0.740101 0
M  V30 756 H 74.5129 -1.34657 -1.03274 0
M  V30 757 H 73.2849 -2.89158 -2.63634 0
M  V30 758 H 72.9079 -1.52463 -3.67207 0
M  V30 759 N 73.905 1.17692 -1.04816 0
M  V30 760 C 75.133 1.91786 -0.776254 0
M  V30 761 C 75.548 1.76604 0.667577 0
M  V30 762 O 74.905 1.10067 1.45573 0
M  V30 763 C 74.956 3.42967 -1.14263 0
M  V30 764 O 74.677 3.57678 -2.52978 0
M  V30 765 C 76.178 4.34144 -0.896311 0
M  V30 766 H 73.398 0.608624 -0.282519 0
M  V30 767 H 75.942 1.49268 -1.39783 0
M  V30 768 H 74.097 3.83245 -0.565874 0
M  V30 769 H 74.511 4.51319 -2.67229 0
M  V30 770 H 75.985 5.38744 -1.20244 0
M  V30 771 H 76.462 4.38876 0.168636 0
M  V30 772 H 77.068 3.99574 -1.45672 0
M  V30 773 N 75.3831 0.828654 1.34056 0
M  V30 774 C 76.6321 0.415828 1.97367 0
M  V30 775 C 76.9451 -1.02796 1.6641 0
M  V30 776 O 78.1511 -1.54497 2.23255 0
M  V30 777 C 76.6071 0.692601 3.53173 0
M  V30 778 C 76.2151 2.15038 3.93017 0
M  V30 779 C 77.9591 0.346222 4.23086 0
M  V30 780 C 75.8661 2.37174 5.41758 0
M  V30 781 H 74.7961 0.151755 0.738571 0
M  V30 782 H 77.4471 1.01581 1.52819 0
M  V30 783 H 75.8291 0.0223764 3.95994 0
M  V30 784 H 77.0031 2.86024 3.61285 0
M  V30 785 H 75.3181 2.45875 3.36057 0
M  V30 786 H 77.9151 0.48937 5.32456 0
M  V30 787 H 78.2581 -0.709842 4.10204 0
M  V30 788 H 78.7911 0.971258 3.85761 0
M  V30 789 H 75.5301 3.41308 5.59633 0
M  V30 790 H 75.0501 1.70738 5.74986 0
M  V30 791 H 76.7291 2.19818 6.08514 0
M  V30 792 N 76.8612 -1.46375 0.584142 0
M  V30 793 C 78.2772 -1.57694 0.245929 0
M  V30 794 C 78.4772 -1.57903 -1.25175 0
M  V30 795 O 77.5332 -1.49676 -2.03355 0
M  V30 796 C 78.8462 -2.87028 0.896402 0
M  V30 797 C 80.3942 -3.00662 0.870127 0
M  V30 798 C 80.8692 -4.32734 1.50017 0
M  V30 799 N 82.3602 -4.39436 1.46458 0
M  V30 800 C 83.0952 -5.40248 1.92144 0
M  V30 801 N 82.5912 -6.47726 2.4581 0
M  V30 802 N 84.3842 -5.31459 1.83052 0
M  V30 803 H 76.5352 -1.44483 1.55687 0
M  V30 804 H 78.7982 -0.689291 0.650831 0
M  V30 805 H 78.5042 -2.9269 1.95002 0
M  V30 806 H 78.3782 -3.75014 0.405486 0
M  V30 807 H 80.7652 -2.94581 -0.174871 0
M  V30 808 H 80.8462 -2.14148 1.39908 0
M  V30 809 H 80.4902 -4.39573 2.54437 0
M  V30 810 H 80.4202 -5.18025 0.946432 0
M  V30 811 H 82.9112 -3.62367 1.07231 0
M  V30 812 H 83.2242 -7.20863 2.78525 0
M  V30 813 H 81.5692 -6.48542 2.49836 0
M  V30 814 H 84.7602 -4.46396 1.40883 0
M  V30 815 H 84.9332 -6.09881 2.18973 0
M  V30 816 N 78.3393 -0.321999 -1.54275 0
M  V30 817 C 79.5853 0.281461 -2.00837 0
M  V30 818 C 79.9183 1.51909 -1.20985 0
M  V30 819 O 79.1933 1.923 -0.291733 0
M  V30 820 C 79.4763 0.617162 -3.54772 0
M  V30 821 C 79.3293 -0.631064 -4.45351 0
M  V30 822 C 80.6483 1.43542 -4.16033 0
M  V30 823 H 77.7673 0.100826 -0.730071 0
M  V30 824 H 80.4093 -0.438268 -1.84876 0
M  V30 825 H 78.5593 1.23034 -3.68504 0
M  V30 826 H 80.2313 -1.26934 -4.43492 0
M  V30 827 H 78.4743 -1.26025 -4.15091 0
M  V30 828 H 79.1453 -0.351735 -5.50878 0
M  V30 829 H 81.6213 0.917134 -4.05867 0
M  V30 830 H 80.4973 1.63907 -5.23856 0
M  V30 831 H 80.7583 2.43108 -3.69257 0
M  V30 832 N 79.8174 1.5752 -0.0501392 0
M  V30 833 C 80.7494 2.08413 0.95376 0
M  V30 834 C 81.7624 1.01175 1.27544 0
M  V30 835 O 82.9514 1.28744 1.23641 0
M  V30 836 C 80.0514 2.51138 2.27559 0
M  V30 837 C 79.2244 3.817 2.13598 0
M  V30 838 C 78.2834 4.10749 3.28895 0
M  V30 839 O 77.3094 4.80685 3.04845 0
M  V30 840 N 78.5114 3.62579 4.5334 0
M  V30 841 H 81.2764 2.95165 0.519383 0
M  V30 842 H 78.8374 1.61327 0.136127 0
M  V30 843 H 80.8294 2.67648 3.03557 0
M  V30 844 H 79.3994 1.6964 2.62567 0
M  V30 845 H 78.6194 3.74782 1.22197 0
M  V30 846 H 79.9074 4.67201 2.01496 0
M  V30 847 H 79.3054 3.06039 4.75769 0
M  V30 848 H 77.8624 3.84329 5.26436 0
M  V30 849 N 81.2955 -0.223234 1.56011 0
M  V30 850 C 82.7065 -0.790368 1.69145 0
M  V30 851 C 83.0575 -1.85055 0.651845 0
M  V30 852 O 82.1825 -2.15498 -0.197359 0
M  V30 853 C 82.7775 -1.4404 3.06656 0
M  V30 854 C 81.3365 -1.95494 3.2165 0
M  V30 855 C 80.4835 -0.814506 2.65068 0
M  V30 856 H 83.4345 0.00139011 1.587 0
M  V30 857 H 83.4555 -2.30916 3.0242 0
M  V30 858 H 82.9675 -0.668543 3.82298 0
M  V30 859 H 81.0685 -2.75487 2.50874 0
M  V30 860 H 81.1815 -2.13607 4.28846 0
M  V30 861 H 79.5455 -1.22137 2.23505 0
M  V30 862 H 80.3285 -0.0553515 3.43255 0
M  V30 863 N 82.7736 -1.49793 -0.48987 0
M  V30 864 C 83.7216 -1.67783 -1.61095 0
M  V30 865 C 84.7156 -0.543683 -1.60438 0
M  V30 866 O 85.9216 -0.723647 -1.64813 0
M  V30 867 H 82.2966 -0.529255 -0.534222 0
M  V30 868 H 84.2676 -2.61861 -1.43078 0
M  V30 869 C 83.0166 -1.77191 -2.99164 0
M  V30 870 H 82.3396 -2.63841 -3.0038 0
M  V30 871 H 83.7796 -1.93809 -3.77113 0
M  V30 872 C 82.2386 -0.519203 -3.32875 0
M  V30 873 O 82.7686 0.350124 -4.00171 0
M  V30 874 N 80.9746 -0.378816 -2.8812 0
M  V30 875 H 80.5216 -1.08725 -2.33531 0
M  V30 876 H 80.4796 0.458239 -3.11043 0
M  V30 877 N 84.2517 0.741722 -1.39055 0
M  V30 878 C 85.4817 1.52876 -1.3897 0
M  V30 879 C 85.8897 1.8919 0.0193266 0
M  V30 880 O 85.2327 1.54138 0.999356 0
M  V30 881 C 85.2947 2.84929 -2.19216 0
M  V30 882 C 84.9587 2.71086 -3.67915 0
M  V30 883 C 85.9557 2.40084 -4.61146 0
M  V30 884 C 83.6407 2.88168 -4.11418 0
M  V30 885 C 85.6347 2.26335 -5.95862 0
M  V30 886 C 83.3217 2.74037 -5.46211 0
M  V30 887 C 84.3197 2.43166 -6.38247 0
M  V30 888 O 84.0077 2.29115 -7.70559 0
M  V30 889 H 83.7397 0.479252 -0.476753 0
M  V30 890 H 86.2937 0.924751 -1.83405 0
M  V30 891 H 84.5237 3.47564 -1.69518 0
M  V30 892 H 86.2127 3.46509 -2.11392 0
M  V30 893 H 86.9787 2.26545 -4.28838 0
M  V30 894 H 82.8577 3.11191 -3.40119 0
M  V30 895 H 86.4017 2.0216 -6.67665 0
M  V30 896 H 82.2987 2.87153 -5.78112 0
M  V30 897 H 83.0667 2.44237 -7.81211 0
M  V30 898 N 85.7298 1.2412 0.971189 0
M  V30 899 C 87.1408 1.07236 1.52831 0
M  V30 900 C 87.4918 -0.357352 1.92918 0
M  V30 901 O 86.6168 -1.24528 1.76979 0
M  V30 902 C 87.2118 1.94043 2.77728 0
M  V30 903 C 85.7708 1.81394 3.29808 0
M  V30 904 C 84.9178 1.89189 2.02738 0
M  V30 905 H 87.8688 1.37648 0.789864 0
M  V30 906 H 87.8898 1.47066 3.5093 0
M  V30 907 H 87.4018 2.98093 2.4852 0
M  V30 908 H 85.5028 0.801634 3.63874 0
M  V30 909 H 85.6158 2.65294 3.98944 0
M  V30 910 H 83.9798 1.32877 2.17292 0
M  V30 911 H 84.7628 2.94812 1.759 0
M  V30 912 N 87.2079 -1.17134 1.05439 0
M  V30 913 C 88.1399 -2.2078 0.615539 0
M  V30 914 C 89.1529 -1.59584 -0.322001 0
M  V30 915 O 90.3419 -1.78133 -0.114344 0
M  V30 916 C 87.4419 -3.38691 -0.118938 0
M  V30 917 C 86.6149 -4.29454 0.829924 0
M  V30 918 C 85.6739 -5.26024 0.136258 0
M  V30 919 O 84.6999 -5.63952 0.77115 0
M  V30 920 N 85.9019 -5.69487 -1.1254 0
M  V30 921 H 88.6669 -2.59052 1.50705 0
M  V30 922 H 86.2279 -1.32058 0.936603 0
M  V30 923 H 88.2199 -4.00329 -0.593179 0
M  V30 924 H 86.7899 -2.98996 -0.91215 0
M  V30 925 H 86.0099 -3.65211 1.48373 0
M  V30 926 H 87.2979 -4.86984 1.47392 0
M  V30 927 H 86.6959 -5.4075 -1.6615 0
M  V30 928 H 85.2529 -6.33257 -1.54366 0
M  V30 929 N 88.686 -0.835752 -1.33615 0
M  V30 930 C 89.616 -0.281739 -2.31794 0
M  V30 931 C 90.597 0.608833 -1.58831 0
M  V30 932 O 91.782 0.533035 -1.86741 0
M  V30 933 C 88.912 0.546612 -3.42971 0
M  V30 934 C 87.866 -0.247904 -4.27281 0
M  V30 935 C 87.192 0.704001 -5.30045 0
M  V30 936 C 88.492 -1.46324 -5.01385 0
M  V30 937 H 90.186 -1.10206 -2.78379 0
M  V30 938 H 87.732 -0.531388 -1.33837 0
M  V30 939 H 89.685 0.944467 -4.1068 0
M  V30 940 H 88.409 1.40011 -2.95067 0
M  V30 941 H 87.068 -0.627281 -3.61194 0
M  V30 942 H 86.716 1.55381 -4.78399 0
M  V30 943 H 86.416 0.176524 -5.87335 0
M  V30 944 H 87.94 1.09944 -6.0062 0
M  V30 945 H 89.354 -1.13871 -5.61877 0
M  V30 946 H 87.751 -1.92728 -5.6831 0
M  V30 947 H 88.821 -2.23467 -4.30338 0
M  V30 948 N 90.1641 1.46063 -0.591896 0
M  V30 949 C 91.3891 2.07226 -0.0850314 0
M  V30 950 C 91.8141 1.43625 1.21463 0
M  V30 951 O 91.1721 0.523305 1.73583 0
M  V30 952 C 91.2201 3.60554 0.0576567 0
M  V30 953 O 90.3241 3.97128 1.11188 0
M  V30 954 H 89.6651 0.660615 -0.0669568 0
M  V30 955 H 92.1951 1.8756 -0.81745 0
M  V30 956 H 92.2051 4.07165 0.2609 0
M  V30 957 H 90.8801 4.06235 -0.891416 0
M  V30 958 H 89.4571 3.62213 0.886356 0
M  V30 959 N 91.6422 0.330177 1.54103 0
M  V30 960 C 93.0582 -0.0222371 1.59585 0
M  V30 961 C 93.2582 -1.49902 1.34654 0
M  V30 962 O 92.3142 -2.25592 1.13421 0
M  V30 963 C 93.6272 0.401932 2.98002 0
M  V30 964 C 95.1752 0.353145 3.11001 0
M  V30 965 C 95.6502 0.752576 4.51775 0
M  V30 966 N 97.1412 0.706239 4.57784 0
M  V30 967 C 97.8762 0.987417 5.64834 0
M  V30 968 N 97.3722 1.33607 6.79795 0
M  V30 969 N 99.1652 0.91254 5.54643 0
M  V30 970 H 91.3162 1.29228 1.68564 0
M  V30 971 H 93.5792 0.525906 0.78875 0
M  V30 972 H 93.2852 1.4311 3.21267 0
M  V30 973 H 93.1592 -0.229699 3.765 0
M  V30 974 H 95.5462 -0.666822 2.87467 0
M  V30 975 H 95.6272 1.0198 2.34593 0
M  V30 976 H 95.2712 1.77049 4.76042 0
M  V30 977 H 95.2012 0.0635409 5.26562 0
M  V30 978 H 97.6922 0.44889 3.75224 0
M  V30 979 H 98.0052 1.53582 7.57385 0
M  V30 980 H 96.3502 1.37439 6.81275 0
M  V30 981 H 99.5412 0.639601 4.6371 0
M  V30 982 H 99.7142 1.13503 6.37982 0
M  V30 983 N 93.1203 -1.57491 0.0584922 0
M  V30 984 C 94.5363 -1.56792 -0.298091 0
M  V30 985 C 94.7363 -1.06679 -1.70944 0
M  V30 986 O 93.7923 -0.726672 -2.41818 0
M  V30 987 C 95.1053 -3.00461 -0.119879 0
M  V30 988 C 96.6533 -3.1242 -0.190428 0
M  V30 989 C 97.1283 -4.57982 -0.0406567 0
M  V30 990 N 98.6193 -4.63099 -0.0966958 0
M  V30 991 C 99.3543 -5.734 -0.00502943 0
M  V30 992 N 98.8503 -6.9266 0.139402 0
M  V30 993 N 100.643 -5.62067 -0.0611391 0
M  V30 994 H 92.7943 -1.88386 0.98105 0
M  V30 995 H 95.0573 -0.867865 0.381463 0
M  V30 996 H 94.7633 -3.41187 0.85349 0
M  V30 997 H 94.6373 -3.66843 -0.877833 0
M  V30 998 H 97.0243 -2.71589 -1.15427 0
M  V30 999 H 97.1053 -2.48702 0.598405 0
M  V30 1000 H 96.7493 -4.995 0.919897 0
M  V30 1001 H 96.6793 -5.19715 -0.848727 0
M  V30 1002 H 99.1703 -3.77331 -0.207277 0
M  V30 1003 H 99.4833 -7.72536 0.201855 0
M  V30 1004 H 97.8283 -6.94781 0.174586 0
M  V30 1005 H 101.019 -4.67782 -0.172583 0
M  V30 1006 H 101.192 -6.47999 0.0137562 0
M  V30 1007 N 94.5984 0.214957 -1.56127 0
M  V30 1008 C 95.5464 1.28601 -1.93816 0
M  V30 1009 C 96.5404 1.48175 -0.821016 0
M  V30 1010 O 97.7464 1.49271 -1.0059 0
M  V30 1011 H 94.1214 0.431302 -0.616022 0
M  V30 1012 H 96.0924 0.940991 -2.83175 0
M  V30 1013 C 94.8414 2.62779 -2.27689 0
M  V30 1014 H 94.1644 2.48527 -3.13168 0
M  V30 1015 H 95.6044 3.36517 -2.57939 0
M  V30 1016 C 94.0634 3.18285 -1.10436 0
M  V30 1017 O 94.5934 4.00002 -0.368945 0
M  V30 1018 N 92.7994 2.7675 -0.886433 0
M  V30 1019 H 92.3464 2.10404 -1.48619 0
M  V30 1020 H 92.3044 3.14229 -0.103656 0
M  V30 1021 N 96.0765 1.50051 0.48192 0
M  V30 1022 C 97.0065 1.71046 1.58951 0
M  V30 1023 C 97.9875 0.559288 1.60642 0
M  V30 1024 O 99.1725 0.797243 1.77081 0
M  V30 1025 C 96.3025 1.79462 2.97339 0
M  V30 1026 C 95.2565 2.94558 3.10515 0
M  V30 1027 C 94.5825 2.88105 4.50444 0
M  V30 1028 C 95.8825 4.35227 2.88747 0
M  V30 1029 H 97.5765 2.6378 1.41635 0
M  V30 1030 H 95.1225 1.26936 0.679942 0
M  V30 1031 H 97.0755 1.92734 3.74742 0
M  V30 1032 H 95.7995 0.833412 3.15788 0
M  V30 1033 H 94.4585 2.80918 2.35543 0
M  V30 1034 H 94.1065 1.89853 4.65795 0
M  V30 1035 H 93.8065 3.65366 4.60197 0
M  V30 1036 H 95.3305 3.03412 5.29881 0
M  V30 1037 H 96.7445 4.49449 3.55905 0
M  V30 1038 H 95.1415 5.13856 3.09955 0
M  V30 1039 H 96.2115 4.48347 1.84696 0
M  V30 1040 N 97.5546 -0.734337 1.39446 0
M  V30 1041 C 98.5046 -1.83949 1.34709 0
M  V30 1042 C 99.4886 -1.59279 0.227851 0
M  V30 1043 O 100.681 -1.70771 0.465438 0
M  V30 1044 C 97.8096 -3.21884 1.19356 0
M  V30 1045 C 96.8956 -3.52381 2.35984 0
M  V30 1046 N 97.2866 -3.53811 3.61457 0
M  V30 1047 C 95.5846 -3.82747 2.28956 0
M  V30 1048 C 96.2856 -3.82122 4.38586 0
M  V30 1049 N 95.2616 -3.9993 3.68181 0
M  V30 1050 H 99.0636 -1.83361 2.29687 0
M  V30 1051 H 96.5776 -0.932609 1.32952 0
M  V30 1052 H 98.5746 -4.00998 1.14046 0
M  V30 1053 H 97.2346 -3.23711 0.253295 0
M  V30 1054 H 98.2456 -3.35107 3.94872 0
M  V30 1055 H 94.9226 -3.92175 1.43194 0
M  V30 1056 H 96.3126 -3.89691 5.47349 0
M  V30 1057 N 99.0327 -1.24633 -0.964593 0
M  V30 1058 C 99.9957 -1.0424 -2.04124 0
M  V30 1059 C 100.996 0.00137563 -1.608 0
M  V30 1060 O 102.186 -0.239883 -1.7254 0
M  V30 1061 C 99.3177 -0.580588 -3.3592 0
M  V30 1062 H 100.511 -1.99803 -2.23649 0
M  V30 1063 H 98.0637 -1.06899 -1.14027 0
M  V30 1064 H 98.7987 0.3781 -3.22088 0
M  V30 1065 H 98.5837 -1.33398 -3.6871 0
M  V30 1066 H 100.074 -0.459034 -4.15069 0
M  V30 1067 N 100.511 1.16574 -1.06058 0
M  V30 1068 C 101.441 2.23057 -0.690488 0
M  V30 1069 C 102.422 1.67141 0.315901 0
M  V30 1070 O 103.607 1.93253 0.191556 0
M  V30 1071 C 100.737 3.47222 -0.073625 0
M  V30 1072 C 99.6908 4.16016 -1.00573 0
M  V30 1073 C 99.0168 5.34104 -0.252289 0
M  V30 1074 C 100.317 4.67264 -2.33371 0
M  V30 1075 H 102.011 2.54271 -1.58072 0
M  V30 1076 H 99.5568 1.22218 -0.76149 0
M  V30 1077 H 101.51 4.20939 0.19714 0
M  V30 1078 H 100.234 3.15302 0.85161 0
M  V30 1079 H 98.8928 3.44223 -1.2612 0
M  V30 1080 H 98.5408 4.98437 0.675988 0
M  V30 1081 H 98.2408 5.81072 -0.873455 0
M  V30 1082 H 99.7648 6.10599 0.0109857 0
M  V30 1083 H 101.179 5.32573 -2.12223 0
M  V30 1084 H 99.5758 5.24843 -2.90963 0
M  V30 1085 H 100.646 3.83602 -2.96611 0
M  V30 1086 N 101.989 0.842826 1.3317 0
M  V30 1087 C 103.214 0.453129 2.02389 0
M  V30 1088 C 103.639 -0.939105 1.6298 0
M  V30 1089 O 102.997 -1.61472 0.8244 0
M  V30 1090 C 103.045 0.586094 3.55805 0
M  V30 1091 O 102.149 -0.386029 4.10589 0
M  V30 1092 H 101.49 0.183664 0.638094 0
M  V30 1093 H 104.02 1.13875 1.69981 0
M  V30 1094 H 104.03 0.469209 4.05293 0
M  V30 1095 H 102.705 1.6014 3.83833 0
M  V30 1096 H 101.282 -0.226371 3.72212 0
M  V30 1097 N 103.467 -1.45747 0.599634 0
M  V30 1098 C 104.397 -2.33235 -0.111306 0
M  V30 1099 C 105.378 -1.46359 -0.866781 0
M  V30 1100 O 106.563 -1.75146 -0.838904 0
M  V30 1101 C 103.693 -3.28932 -1.11451 0
M  V30 1102 C 102.647 -4.25381 -0.472772 0
M  V30 1103 C 101.973 -5.1071 -1.58365 0
M  V30 1104 C 103.273 -5.18831 0.600948 0
M  V30 1105 H 104.967 -2.92927 0.61919 0
M  V30 1106 H 102.513 -1.40857 0.299215 0
M  V30 1107 H 104.466 -3.89002 -1.62036 0
M  V30 1108 H 103.19 -2.67381 -1.8755 0
M  V30 1109 H 101.849 -3.66598 0.0121472 0
M  V30 1110 H 101.497 -4.45533 -2.33473 0
M  V30 1111 H 101.197 -5.7604 -1.15982 0
M  V30 1112 H 102.721 -5.73647 -2.09194 0
M  V30 1113 H 104.135 -5.73019 0.179491 0
M  V30 1114 H 102.532 -5.92595 0.946076 0
M  V30 1115 H 103.602 -4.6174 1.48068 0
M  V30 1116 N 104.945 -0.338344 -1.53925 0
M  V30 1117 C 105.893 0.536231 -2.26335 0
M  V30 1118 C 106.887 1.1063 -1.28286 0
M  V30 1119 O 108.093 1.05264 -1.46012 0
M  V30 1120 H 104.468 0.191602 -0.727181 0
M  V30 1121 H 106.439 -0.0965747 -2.98244 0
M  V30 1122 C 105.188 1.67803 -3.04528 0
M  V30 1123 H 104.511 1.24864 -3.79801 0
M  V30 1124 H 105.951 2.26526 -3.58416 0
M  V30 1125 C 104.41 2.60439 -2.13712 0
M  V30 1126 O 104.94 3.6255 -1.72975 0
M  V30 1127 N 103.146 2.29006 -1.78898 0
M  V30 1128 H 102.693 1.46011 -2.12223 0
M  V30 1129 H 102.651 2.91248 -1.18416 0
M  V30 1130 N 106.423 1.57458 -0.0668435 0
M  V30 1131 C 107.672 1.92477 0.602947 0
M  V30 1132 C 107.985 0.948419 1.71068 0
M  V30 1133 O 109.191 1.19124 2.43971 0
M  V30 1134 C 107.647 3.41903 1.12383 0
M  V30 1135 C 107.255 4.47975 0.04737 0
M  V30 1136 C 108.999 3.85931 1.76797 0
M  V30 1137 C 106.906 5.88529 0.582022 0
M  V30 1138 H 105.836 0.718387 0.22899 0
M  V30 1139 H 108.487 1.82978 -0.138276 0
M  V30 1140 H 106.869 3.46459 1.91787 0
M  V30 1141 H 108.043 4.55029 -0.726978 0
M  V30 1142 H 106.358 4.13384 -0.500243 0
M  V30 1143 H 108.955 4.88322 2.17821 0
M  V30 1144 H 109.298 3.23029 2.62599 0
M  V30 1145 H 109.831 3.83958 1.04024 0
M  V30 1146 H 106.57 6.55065 -0.238721 0
M  V30 1147 H 106.09 5.85004 1.324 0
M  V30 1148 H 107.769 6.38258 1.05999 0
M  V30 1149 N 107.901 -0.206675 1.56239 0
M  V30 1150 C 109.148 -0.928842 1.79941 0
M  V30 1151 C 109.476 -1.83734 0.638131 0
M  V30 1152 O 108.731 -1.92039 -0.376746 0
M  V30 1153 C 109.03 -1.78675 3.09532 0
M  V30 1154 C 108.696 -1.03022 4.38973 0
M  V30 1155 C 107.358 -0.821302 4.74139 0
M  V30 1156 C 109.71 -0.497081 5.18824 0
M  V30 1157 C 107.038 -0.0675719 5.86661 0
M  V30 1158 C 109.39 0.24338 6.32132 0
M  V30 1159 C 108.054 0.463422 6.65889 0
M  V30 1160 H 107.324 -0.339887 0.658451 0
M  V30 1161 H 109.971 -0.195977 1.90495 0
M  V30 1162 H 108.276 -2.58794 2.94165 0
M  V30 1163 H 109.973 -2.34792 3.25075 0
M  V30 1164 H 106.563 -1.20306 4.11369 0
M  V30 1165 H 110.747 -0.645921 4.92079 0
M  V30 1166 H 106.003 0.112995 6.11296 0
M  V30 1167 H 110.177 0.66393 6.93228 0
M  V30 1168 H 107.804 1.04938 7.52922 0
M  V30 1169 N 109.379 -1.50304 -0.473955 0
M  V30 1170 C 110.326 -1.68959 -1.57231 0
M  V30 1171 C 111.296 -0.530899 -1.57387 0
M  V30 1172 O 112.481 -0.761133 -1.74961 0
M  V30 1173 C 109.621 -1.7871 -2.95223 0
M  V30 1174 C 108.734 -3.06061 -3.04878 0
M  V30 1175 C 107.869 -3.06626 -4.33767 0
M  V30 1176 C 106.908 -4.28443 -4.37154 0
M  V30 1177 N 106.045 -4.26763 -5.5751 0
M  V30 1178 H 110.885 -2.6273 -1.40631 0
M  V30 1179 H 108.422 -1.30241 -0.683789 0
M  V30 1180 H 110.38 -1.82344 -3.75242 0
M  V30 1181 H 109.01 -0.883806 -3.10465 0
M  V30 1182 H 108.062 -3.11911 -2.17751 0
M  V30 1183 H 109.374 -3.96039 -3.0324 0
M  V30 1184 H 108.528 -3.08973 -5.22131 0
M  V30 1185 H 107.267 -2.14473 -4.3801 0
M  V30 1186 H 106.272 -4.2631 -3.47188 0
M  V30 1187 H 107.497 -5.2182 -4.34605 0
M  V30 1188 H 105.443 -3.37462 -5.62544 0
M  V30 1189 H 105.36 -5.10507 -5.57601 0
M  V30 1190 H 106.628 -4.33253 -6.48006 0
M  V30 1191 N 110.857 0.726932 -1.39834 0
M  V30 1192 C 112.134 1.47902 -1.28001 0
M  V30 1193 C 112.514 2.1083 0.106789 0
M  V30 1194 O 111.862 1.99242 1.11869 0
M  V30 1195 C 112.072 2.52392 -2.41038 0
M  V30 1196 C 113.42 3.18546 -2.80737 0
M  V30 1197 O 114.444 2.62708 -2.40547 0
M  V30 1198 O 113.303 4.19604 -3.50135 0
M  V30 1199 H 110.397 0.657163 -0.502062 0
M  V30 1200 H 112.943 0.760071 -1.51727 0
M  V30 1201 H 111.715 2.04329 -3.33715 0
M  V30 1202 H 111.338 3.31837 -2.19021 0
M  V30 1203 N 112.336 1.25143 0.95797 0
M  V30 1204 C 113.246 1.06968 2.08794 0
M  V30 1205 C 114.262 0.00773911 1.73998 0
M  V30 1206 O 115.438 0.207972 2.00323 0
M  V30 1207 C 112.503 0.68691 3.39827 0
M  V30 1208 C 111.564 1.82641 3.88511 0
M  V30 1209 C 110.797 1.46181 5.1329 0
M  V30 1210 O 111.02 0.355971 5.69288 0
M  V30 1211 O 109.954 2.29085 5.566 0
M  V30 1212 H 113.78 2.01723 2.27027 0
M  V30 1213 H 111.365 1.04051 1.07209 0
M  V30 1214 H 113.247 0.485417 4.18595 0
M  V30 1215 H 111.922 -0.231417 3.22872 0
M  V30 1216 H 110.829 2.08274 3.10762 0
M  V30 1217 H 112.162 2.72386 4.09959 0
M  V30 1218 N 113.814 -1.1601 1.06675 0
M  V30 1219 C 115.062 -1.86264 0.784229 0
M  V30 1220 C 115.383 -1.82328 -0.691488 0
M  V30 1221 O 114.653 -1.25947 -1.50047 0
M  V30 1222 H 113.233 -0.689621 0.28711 0
M  V30 1223 H 115.895 -1.40664 1.34906 0
M  V30 1224 H 114.991 -2.91595 1.11259 0
M  V30 1225 N 115.292 -0.849877 -1.32721 0
M  V30 1226 C 116.708 -0.539102 -1.50219 0
M  V30 1227 C 116.908 0.931271 -1.78689 0
M  V30 1228 O 115.964 1.71455 -1.85363 0
M  V30 1229 C 117.277 -1.42196 -2.64954 0
M  V30 1230 C 118.825 -1.42189 -2.78839 0
M  V30 1231 C 119.3 -2.28985 -3.96648 0
M  V30 1232 N 120.791 -2.26754 -4.03902 0
M  V30 1233 C 121.526 -2.90644 -4.94281 0
M  V30 1234 N 121.022 -3.63629 -5.897 0
M  V30 1235 N 122.815 -2.80057 -4.87365 0
M  V30 1236 H 114.966 -1.80156 -1.12506 0
M  V30 1237 H 117.229 -0.769217 -0.554085 0
M  V30 1238 H 116.935 -2.46733 -2.50631 0
M  V30 1239 H 116.809 -1.10591 -3.60624 0
M  V30 1240 H 119.196 -0.38419 -2.92588 0
M  V30 1241 H 119.277 -1.77807 -1.83898 0
M  V30 1242 H 118.921 -3.32819 -3.83658 0
M  V30 1243 H 118.851 -1.90702 -4.90857 0
M  V30 1244 H 121.342 -1.73688 -3.3562 0
M  V30 1245 H 121.655 -4.09558 -6.55349 0
M  V30 1246 H 120 -3.67737 -5.89741 0
M  V30 1247 H 123.191 -2.22593 -4.11789 0
M  V30 1248 H 123.364 -3.30132 -5.57599 0
M  V30 1249 N 116.77 1.45427 -0.607355 0
M  V30 1250 C 117.68 2.34325 0.113463 0
M  V30 1251 C 118.696 1.51226 0.860617 0
M  V30 1252 O 119.872 1.84029 0.818255 0
M  V30 1253 C 116.937 3.28839 1.09844 0
M  V30 1254 C 115.998 4.27844 0.353271 0
M  V30 1255 C 115.231 5.17842 1.29133 0
M  V30 1256 O 115.454 5.11264 2.52913 0
M  V30 1257 O 114.388 5.96713 0.788523 0
M  V30 1258 H 118.214 2.97364 -0.617094 0
M  V30 1259 H 115.799 1.44807 -0.367619 0
M  V30 1260 H 117.681 3.8708 1.66575 0
M  V30 1261 H 116.356 2.68365 1.81003 0
M  V30 1262 H 115.263 3.7322 -0.256494 0
M  V30 1263 H 116.596 4.91173 -0.317822 0
M  V30 1264 N 118.248 0.346503 1.53744 0
M  V30 1265 C 119.211 -0.496439 2.23759 0
M  V30 1266 C 120.211 -1.0252 1.2388 0
M  V30 1267 O 121.401 -0.913974 1.48297 0
M  V30 1268 C 118.533 -1.69187 2.95954 0
M  V30 1269 H 119.726 0.115952 2.99676 0
M  V30 1270 H 117.279 0.0978939 1.55993 0
M  V30 1271 H 118.014 -2.34288 2.24231 0
M  V30 1272 H 117.799 -1.31989 3.69217 0
M  V30 1273 H 119.289 -2.28969 3.49232 0
M  V30 1274 N 119.726 -1.57421 0.075193 0
M  V30 1275 C 120.973 -1.93618 -0.593146 0
M  V30 1276 C 121.301 -0.955484 -1.69413 0
M  V30 1277 O 120.556 0.0283251 -1.9568 0
M  V30 1278 C 120.855 -3.36428 -1.20626 0
M  V30 1279 C 120.521 -4.50307 -0.231078 0
M  V30 1280 C 119.183 -4.81186 0.0371936 0
M  V30 1281 C 121.535 -5.19374 0.435888 0
M  V30 1282 C 118.863 -5.78466 0.979461 0
M  V30 1283 C 121.215 -6.17665 1.3665 0
M  V30 1284 C 119.879 -6.46958 1.6432 0
M  V30 1285 H 119.149 -0.708499 -0.217047 0
M  V30 1286 H 121.796 -1.90937 0.146793 0
M  V30 1287 H 120.101 -3.35592 -2.02201 0
M  V30 1288 H 121.798 -3.61727 -1.73073 0
M  V30 1289 H 118.388 -4.26227 -0.450357 0
M  V30 1290 H 122.572 -4.95711 0.241748 0
M  V30 1291 H 117.828 -5.99487 1.20106 0
M  V30 1292 H 122.002 -6.70284 1.88924 0
M  V30 1293 H 119.629 -7.2215 2.37494 0
M  V30 1294 N 121.204 0.198386 -1.56346 0
M  V30 1295 C 122.134 1.24865 -1.9731 0
M  V30 1296 C 123.115 1.47651 -0.844576 0
M  V30 1297 O 124.3 1.59444 -1.10866 0
M  V30 1298 C 121.43 2.59358 -2.30977 0
M  V30 1299 C 120.384 2.5119 -3.46537 0
M  V30 1300 C 119.71 3.89926 -3.65871 0
M  V30 1301 C 121.01 2.03977 -4.80823 0
M  V30 1302 H 122.704 0.908252 -2.85291 0
M  V30 1303 H 120.25 0.435462 -1.37258 0
M  V30 1304 H 122.203 3.33011 -2.58228 0
M  V30 1305 H 120.927 2.95132 -1.39874 0
M  V30 1306 H 119.586 1.79993 -3.19371 0
M  V30 1307 H 119.234 4.23046 -2.72105 0
M  V30 1308 H 118.934 3.85336 -4.4361 0
M  V30 1309 H 120.458 4.65205 -3.95495 0
M  V30 1310 H 121.872 2.67386 -5.07127 0
M  V30 1311 H 120.269 2.10397 -5.62008 0
M  V30 1312 H 121.339 0.992861 -4.74626 0
M  V30 1313 N 122.682 1.50554 0.465978 0
M  V30 1314 C 123.629 1.6979 1.56333 0
M  V30 1315 C 124.599 0.539239 1.57103 0
M  V30 1316 O 125.784 0.770401 1.74555 0
M  V30 1317 C 122.924 1.80273 2.94271 0
M  V30 1318 C 122.037 3.07674 3.0325 0
M  V30 1319 C 121.172 3.08922 4.32135 0
M  V30 1320 C 120.211 4.30755 4.34875 0
M  V30 1321 N 119.348 4.29714 5.55239 0
M  V30 1322 H 124.188 2.63472 1.39235 0
M  V30 1323 H 121.725 1.30602 0.676873 0
M  V30 1324 H 123.683 1.84332 3.74269 0
M  V30 1325 H 122.313 0.900258 3.09992 0
M  V30 1326 H 121.365 3.13062 2.16094 0
M  V30 1327 H 122.677 3.97642 3.01135 0
M  V30 1328 H 121.831 3.11738 5.20485 0
M  V30 1329 H 120.57 2.16792 4.36866 0
M  V30 1330 H 119.575 4.28146 3.44922 0
M  V30 1331 H 120.8 5.24117 4.31831 0
M  V30 1332 H 118.746 3.4044 5.60746 0
M  V30 1333 H 118.663 5.13456 5.54886 0
M  V30 1334 H 119.931 4.36683 6.457 0
M  V30 1335 N 124.16 -0.719506 1.40217 0
M  V30 1336 C 125.09 -1.8465 1.42922 0
M  V30 1337 C 126.071 -1.67599 0.29062 0
M  V30 1338 O 127.256 -1.87688 0.498677 0
M  V30 1339 C 124.386 -3.22565 1.28722 0
M  V30 1340 C 123.34 -3.54281 2.40144 0
M  V30 1341 C 122.666 -4.91298 2.11023 0
M  V30 1342 C 123.966 -3.55676 3.82481 0
M  V30 1343 H 125.66 -1.82644 2.37237 0
M  V30 1344 H 123.206 -0.877305 1.1419 0
M  V30 1345 H 125.159 -4.01095 1.29232 0
M  V30 1346 H 123.883 -3.25137 0.308811 0
M  V30 1347 H 122.542 -2.78088 2.38877 0
M  V30 1348 H 122.19 -4.90468 1.11582 0
M  V30 1349 H 121.89 -5.13485 2.8567 0
M  V30 1350 H 123.414 -5.72166 2.13209 0
M  V30 1351 H 124.828 -4.24254 3.85592 0
M  V30 1352 H 123.225 -3.89388 4.56614 0
M  V30 1353 H 124.295 -2.55144 4.12346 0
M  V30 1354 N 125.638 -1.25649 -0.95132 0
M  V30 1355 C 126.571 -1.00644 -2.04807 0
M  V30 1356 C 127.549 0.0654271 -1.62468 0
M  V30 1357 O 128.733 -0.074911 -1.88351 0
M  V30 1358 C 125.86 -0.522052 -3.34653 0
M  V30 1359 C 124.906 -1.58495 -3.95957 0
M  V30 1360 S 125.739 -3.17108 -4.31512 0
M  V30 1361 C 126.895 -2.70412 -5.64471 0
M  V30 1362 H 127.128 -1.93508 -2.25703 0
M  V30 1363 H 124.661 -1.09216 -1.09139 0
M  V30 1364 H 126.619 -0.24923 -4.09743 0
M  V30 1365 H 125.28 0.386146 -3.11717 0
M  V30 1366 H 124.473 -1.1968 -4.89584 0
M  V30 1367 H 124.075 -1.80862 -3.2736 0
M  V30 1368 H 126.367 -2.14245 -6.42733 0
M  V30 1369 H 127.31 -3.62693 -6.08161 0
M  V30 1370 H 127.718 -2.10302 -5.23864 0
M  V30 1371 N 127.117 1.15442 -1.07289 0
M  V30 1372 C 128.027 2.23786 -0.704057 0
M  V30 1373 C 129.043 1.7166 0.284413 0
M  V30 1374 O 130.219 2.00972 0.131205 0
M  V30 1375 C 127.284 3.46535 -0.106792 0
M  V30 1376 C 126.345 4.13654 -1.14842 0
M  V30 1377 C 125.578 5.30544 -0.57956 0
M  V30 1378 O 125.801 5.67187 0.604585 0
M  V30 1379 O 124.735 5.87154 -1.32414 0
M  V30 1380 H 128.561 2.57664 -1.60757 0
M  V30 1381 H 126.146 1.23152 -0.845803 0
M  V30 1382 H 128.028 4.20804 0.224048 0
M  V30 1383 H 126.703 3.14407 0.770049 0
M  V30 1384 H 125.61 3.4131 -1.5316 0
M  V30 1385 H 126.943 4.49861 -1.99714 0
M  V30 1386 N 128.595 0.856903 1.32268 0
M  V30 1387 C 129.823 0.475439 2.01363 0
M  V30 1388 C 130.238 -0.928486 1.64392 0
M  V30 1389 O 129.595 -1.60624 0.866387 0
M  V30 1390 C 129.646 0.607545 3.56358 0
M  V30 1391 O 129.367 1.95617 3.92002 0
M  V30 1392 C 130.868 0.225382 4.42727 0
M  V30 1393 H 128.088 0.186636 0.644521 0
M  V30 1394 H 130.632 1.15446 1.68797 0
M  V30 1395 H 128.787 -0.0237719 3.87393 0
M  V30 1396 H 129.201 1.95455 4.86721 0
M  V30 1397 H 130.675 0.368813 5.50767 0
M  V30 1398 H 131.152 -0.834369 4.31202 0
M  V30 1399 H 131.758 0.831864 4.17085 0
M  V30 1400 N 130.073 -1.45103 0.615059 0
M  V30 1401 C 131.301 -2.06553 0.11977 0
M  V30 1402 C 131.716 -1.45842 -1.19898 0
M  V30 1403 O 131.073 -0.575325 -1.73194 0
M  V30 1404 C 131.124 -3.61495 -0.018364 0
M  V30 1405 O 130.845 -4.19942 1.24822 0
M  V30 1406 C 132.346 -4.39947 -0.544237 0
M  V30 1407 H 129.566 -0.667096 0.0722739 0
M  V30 1408 H 132.11 -1.8623 0.84491 0
M  V30 1409 H 130.265 -3.81135 -0.693865 0
M  V30 1410 H 130.679 -5.13204 1.0827 0
M  V30 1411 H 132.153 -5.48838 -0.589953 0
M  V30 1412 H 132.63 -4.10255 -1.56805 0
M  V30 1413 H 133.236 -4.25188 0.0974703 0
M  V30 1414 N 131.551 -0.354651 -1.53558 0
M  V30 1415 C 132.828 0.294281 -1.93374 0
M  V30 1416 C 133.208 1.67313 -1.28723 0
M  V30 1417 O 132.556 2.24179 -0.442247 0
M  V30 1418 C 132.766 0.355445 -3.47185 0
M  V30 1419 C 134.114 0.601007 -4.20325 0
M  V30 1420 O 135.138 0.437106 -3.53508 0
M  V30 1421 O 133.997 0.919322 -5.38712 0
M  V30 1422 H 131.091 0.174033 -0.808481 0
M  V30 1423 H 133.637 -0.406638 -1.64756 0
M  V30 1424 H 132.409 -0.611729 -3.86489 0
M  V30 1425 H 132.032 1.1027 -3.82003 0
M  V30 1426 N 133.029 1.57378 -0.0835403 0
M  V30 1427 C 134.278 1.93106 0.582498 0
M  V30 1428 C 134.591 0.96651 1.70053 0
M  V30 1429 O 135.797 1.21705 2.42693 0
M  V30 1430 C 134.253 3.43076 1.08751 0
M  V30 1431 C 133.861 4.48 -0.000146404 0
M  V30 1432 C 135.605 3.87785 1.72694 0
M  V30 1433 C 133.512 5.89113 0.519568 0
M  V30 1434 H 132.442 0.720775 0.221358 0
M  V30 1435 H 135.093 1.82821 -0.157675 0
M  V30 1436 H 133.475 3.48474 1.88101 0
M  V30 1437 H 134.649 4.54233 -0.775199 0
M  V30 1438 H 132.964 4.1283 -0.54406 0
M  V30 1439 H 135.561 4.90604 2.1263 0
M  V30 1440 H 135.904 3.25796 2.59158 0
M  V30 1441 H 136.437 3.8504 0.999457 0
M  V30 1442 H 133.176 6.54775 -0.308186 0
M  V30 1443 H 132.696 5.86376 1.26188 0
M  V30 1444 H 134.375 6.39346 0.992237 0
M  V30 1445 N 134.507 -0.190092 1.56449 0
M  V30 1446 C 135.754 -0.909705 1.80916 0
M  V30 1447 C 136.082 -1.83047 0.657583 0
M  V30 1448 O 135.337 -1.92428 -0.356356 0
M  V30 1449 C 135.636 -1.75382 3.1141 0
M  V30 1450 C 135.302 -0.983606 4.40041 0
M  V30 1451 C 133.964 -0.770967 4.74984 0
M  V30 1452 C 136.316 -0.442024 5.19322 0
M  V30 1453 C 133.644 -0.0053448 5.867 0
M  V30 1454 C 135.996 0.310412 6.31838 0
M  V30 1455 C 134.66 0.534023 6.6536 0
M  V30 1456 H 133.93 -0.332885 0.662019 0
M  V30 1457 H 136.577 -0.175762 1.90692 0
M  V30 1458 H 134.882 -2.55659 2.96893 0
M  V30 1459 H 136.579 -2.31331 3.27547 0
M  V30 1460 H 133.169 -1.15936 4.12622 0
M  V30 1461 H 137.353 -0.593693 4.92736 0
M  V30 1462 H 132.609 0.177825 6.11141 0
M  V30 1463 H 136.783 0.737419 6.92485 0
M  V30 1464 H 134.41 1.12918 7.51767 0
M  V30 1465 N 135.985 -1.50799 -0.457987 0
M  V30 1466 C 137.234 -1.6168 -1.20593 0
M  V30 1467 C 137.547 -0.32888 -1.92815 0
M  V30 1468 O 138.753 -0.316773 -2.69646 0
M  V30 1469 C 137.209 -2.8545 -2.19195 0
M  V30 1470 C 136.817 -4.21168 -1.52715 0
M  V30 1471 C 138.561 -3.05681 -2.94549 0
M  V30 1472 C 136.468 -5.3611 -2.4968 0
M  V30 1473 H 135.398 -0.602134 -0.453818 0
M  V30 1474 H 138.049 -1.77245 -0.475031 0
M  V30 1475 H 136.431 -2.63472 -2.95632 0
M  V30 1476 H 137.605 -4.53449 -0.819775 0
M  V30 1477 H 135.92 -4.06648 -0.895922 0
M  V30 1478 H 138.517 -3.88727 -3.67145 0
M  V30 1479 H 138.86 -2.17929 -3.54701 0
M  V30 1480 H 139.393 -3.27901 -2.25223 0
M  V30 1481 H 136.132 -6.26057 -1.94249 0
M  V30 1482 H 135.652 -5.0823 -3.18532 0
M  V30 1483 H 137.331 -5.6722 -3.11241 0
M  V30 1484 N 137.463 0.71206 -1.40597 0
M  V30 1485 C 138.373 1.8562 -1.43466 0
M  V30 1486 C 139.389 1.70902 -0.326902 0
M  V30 1487 O 140.565 1.93105 -0.572043 0
M  V30 1488 C 137.63 3.21451 -1.29884 0
M  V30 1489 C 136.691 3.48398 -2.50833 0
M  V30 1490 C 135.924 4.77749 -2.3789 0
M  V30 1491 O 136.147 5.53089 -1.39459 0
M  V30 1492 O 135.081 5.05111 -3.27333 0
M  V30 1493 H 138.907 1.86155 -2.39958 0
M  V30 1494 H 136.492 0.86295 -1.21957 0
M  V30 1495 H 138.374 4.02579 -1.24531 0
M  V30 1496 H 137.049 3.21636 -0.364997 0
M  V30 1497 H 135.956 2.67265 -2.61763 0
M  V30 1498 H 137.289 3.53014 -3.4299 0
M  V30 1499 N 138.941 1.26152 0.944643 0
M  V30 1500 C 139.904 1.07474 2.0244 0
M  V30 1501 C 140.904 0.0242064 1.60782 0
M  V30 1502 O 142.094 0.267302 1.72137 0
M  V30 1503 C 139.226 0.633956 3.34953 0
M  V30 1504 H 140.419 2.03336 2.20442 0
M  V30 1505 H 137.972 1.087 1.12312 0
M  V30 1506 H 138.707 -0.326811 3.22649 0
M  V30 1507 H 138.492 1.39247 3.66542 0
M  V30 1508 H 139.982 0.52501 4.14287 0
M  V30 1509 N 140.419 -1.14872 1.07899 0
M  V30 1510 C 141.644 -1.90202 0.826926 0
M  V30 1511 C 142.069 -1.77774 -0.614664 0
M  V30 1512 O 141.427 -1.11431 -1.43013 0
M  V30 1513 C 141.475 -3.38352 1.24702 0
M  V30 1514 O 140.579 -4.10497 0.39575 0
M  V30 1515 H 139.92 -0.591968 0.300782 0
M  V30 1516 H 142.45 -1.45437 1.43907 0
M  V30 1517 H 142.46 -3.89156 1.22563 0
M  V30 1518 H 141.135 -3.46715 2.29698 0
M  V30 1519 H 139.712 -3.69796 0.480117 0
M  V30 1520 N 141.898 -0.863906 -1.31812 0
M  V30 1521 C 142.845 -0.313303 -2.28664 0
M  V30 1522 C 143.815 0.584868 -1.55462 0
M  V30 1523 O 145 0.517805 -1.83639 0
M  V30 1524 C 142.14 0.48441 -3.41683 0
M  V30 1525 C 141.253 -0.440594 -4.29747 0
M  V30 1526 C 140.388 0.370652 -5.29905 0
M  V30 1527 C 139.427 -0.551164 -6.09613 0
M  V30 1528 N 138.564 0.223462 -7.01744 0
M  V30 1529 H 143.404 -1.14444 -2.75148 0
M  V30 1530 H 140.941 -0.575769 -1.35364 0
M  V30 1531 H 142.899 0.962627 -4.05943 0
M  V30 1532 H 141.529 1.28029 -2.96325 0
M  V30 1533 H 140.581 -1.03724 -3.65986 0
M  V30 1534 H 141.893 -1.14767 -4.85417 0
M  V30 1535 H 141.047 0.911638 -5.99812 0
M  V30 1536 H 139.786 1.11105 -4.74876 0
M  V30 1537 H 138.791 -1.10396 -5.38603 0
M  V30 1538 H 140.016 -1.29032 -6.66729 0
M  V30 1539 H 137.962 0.946787 -6.49132 0
M  V30 1540 H 137.879 -0.424399 -7.54808 0
M  V30 1541 H 139.147 0.745876 -7.75923 0
M  V30 1542 N 143.376 1.44774 -0.622745 0
M  V30 1543 C 144.624 2.01721 -0.123655 0
M  V30 1544 C 144.945 1.49172 1.25589 0
M  V30 1545 O 144.215 0.691974 1.83272 0
M  V30 1546 H 142.795 0.745777 -0.0427225 0
M  V30 1547 H 145.457 1.77382 -0.807559 0
M  V30 1548 H 144.553 3.11984 -0.0849534 0
M  V30 1549 N 144.854 0.36279 1.53368 0
M  V30 1550 C 146.265 -0.117022 1.86333 0
M  V30 1551 C 146.616 -1.48397 1.28347 0
M  V30 1552 O 145.741 -2.07787 0.604428 0
M  V30 1553 C 146.336 -0.21912 3.38091 0
M  V30 1554 C 144.895 -0.643184 3.70864 0
M  V30 1555 C 144.042 0.211318 2.76494 0
M  V30 1556 H 146.993 0.581687 1.47655 0
M  V30 1557 H 147.014 -1.04319 3.6592 0
M  V30 1558 H 146.526 0.775902 3.80265 0
M  V30 1559 H 144.627 -1.64654 3.34245 0
M  V30 1560 H 144.74 -0.41973 4.77258 0
M  V30 1561 H 143.104 -0.319367 2.5269 0
M  V30 1562 H 143.887 1.20383 3.21501 0
M  V30 1563 N 146.332 -1.57332 0.0918853 0
M  V30 1564 C 147.295 -2.12708 -0.85369 0
M  V30 1565 C 148.295 -1.05561 -1.213 0
M  V30 1566 O 149.485 -1.31461 -1.14296 0
M  V30 1567 C 146.617 -2.64503 -2.15061 0
M  V30 1568 H 147.81 -2.97573 -0.3729 0
M  V30 1569 H 145.363 -1.55509 -0.157072 0
M  V30 1570 H 146.098 -1.83149 -2.67632 0
M  V30 1571 H 145.883 -3.4284 -1.90272 0
M  V30 1572 H 147.373 -3.07351 -2.82711 0
M  V30 1573 N 147.81 0.181792 -1.56548 0
M  V30 1574 C 149.057 0.900097 -1.81396 0
M  V30 1575 C 149.385 1.82695 -0.667281 0
M  V30 1576 O 148.64 1.92614 0.346146 0
M  V30 1577 C 148.939 1.73728 -3.12335 0
M  V30 1578 C 148.605 0.960255 -4.40556 0
M  V30 1579 C 147.267 0.745766 -4.75386 0
M  V30 1580 C 149.619 0.414477 -5.19549 0
M  V30 1581 C 146.947 -0.0257694 -5.86694 0
M  V30 1582 C 149.299 -0.343916 -6.31664 0
M  V30 1583 C 147.963 -0.569301 -6.65068 0
M  V30 1584 H 147.233 0.329369 -0.663775 0
M  V30 1585 H 149.88 0.165647 -1.90782 0
M  V30 1586 H 148.185 2.54081 -2.98245 0
M  V30 1587 H 149.882 2.29591 -3.28769 0
M  V30 1588 H 146.472 1.13746 -4.13231 0
M  V30 1589 H 150.656 0.567554 -4.93044 0
M  V30 1590 H 145.912 -0.210233 -6.11038 0
M  V30 1591 H 150.086 -0.774133 -6.92084 0
M  V30 1592 H 147.713 -1.16903 -7.51158 0
M  V30 1593 N 149.288 1.51039 0.449983 0
M  V30 1594 C 150.251 1.70863 1.5277 0
M  V30 1595 C 151.251 0.578846 1.5002 0
M  V30 1596 O 152.441 0.846213 1.52266 0
M  V30 1597 C 149.573 1.75341 2.9235 0
M  V30 1598 H 150.766 2.67034 1.36502 0
M  V30 1599 H 148.319 1.40838 0.677812 0
M  V30 1600 H 149.054 0.809383 3.14037 0
M  V30 1601 H 148.839 2.57436 2.95752 0
M  V30 1602 H 150.329 1.92559 3.70555 0
M  V30 1603 N 150.766 -0.704594 1.40972 0
M  V30 1604 C 152.182 -1.01406 1.23244 0
M  V30 1605 C 152.382 -2.01169 0.115399 0
M  V30 1606 O 151.438 -2.47021 -0.523147 0
M  V30 1607 C 152.751 -1.54728 2.57836 0
M  V30 1608 C 154.299 -1.66658 2.64942 0
M  V30 1609 C 154.774 -2.23383 3.9983 0
M  V30 1610 N 156.265 -2.30756 4.01629 0
M  V30 1611 C 157 -2.75655 5.02794 0
M  V30 1612 N 156.496 -3.20225 6.14352 0
M  V30 1613 N 158.289 -2.75138 4.90159 0
M  V30 1614 H 150.44 -0.0435285 2.12355 0
M  V30 1615 H 152.703 -0.0818951 0.944456 0
M  V30 1616 H 152.409 -0.888832 3.40283 0
M  V30 1617 H 152.283 -2.53084 2.79693 0
M  V30 1618 H 154.67 -2.31617 1.8286 0
M  V30 1619 H 154.751 -0.668717 2.46904 0
M  V30 1620 H 154.395 -1.59043 4.82357 0
M  V30 1621 H 154.325 -3.23904 4.15203 0
M  V30 1622 H 156.816 -1.99291 3.21079 0
M  V30 1623 H 157.129 -3.53084 6.87424 0
M  V30 1624 H 155.474 -3.18156 6.17901 0
M  V30 1625 H 158.665 -2.39661 4.02095 0
M  V30 1626 H 158.838 -3.09812 5.6914 0
M  V30 1627 N 152.244 -1.26651 -0.937939 0
M  V30 1628 C 153.66 -1.03834 -1.21205 0
M  V30 1629 C 153.86 0.234502 -2.00131 0
M  V30 1630 O 152.916 0.942767 -2.3424 0
M  V30 1631 C 154.229 -2.27167 -1.97017 0
M  V30 1632 C 155.777 -2.32101 -2.09996 0
M  V30 1633 C 156.252 -3.55136 -2.8921 0
M  V30 1634 N 157.743 -3.55632 -2.96783 0
M  V30 1635 C 158.478 -4.475 -3.58512 0
M  V30 1636 N 157.974 -5.4966 -4.21717 0
M  V30 1637 N 159.767 -4.35145 -3.55816 0
M  V30 1638 H 151.918 -2.08398 -0.410391 0
M  V30 1639 H 154.181 -0.916031 -0.244114 0
M  V30 1640 H 153.887 -3.19765 -1.46434 0
M  V30 1641 H 153.761 -2.31672 -2.97671 0
M  V30 1642 H 156.148 -1.40015 -2.59769 0
M  V30 1643 H 156.229 -2.31605 -1.08594 0
M  V30 1644 H 155.873 -4.47553 -2.40123 0
M  V30 1645 H 155.803 -3.5288 -3.90875 0
M  V30 1646 H 158.294 -2.81743 -2.51852 0
M  V30 1647 H 158.607 -6.15943 -4.66727 0
M  V30 1648 H 156.952 -5.53514 -4.20294 0
M  V30 1649 H 160.143 -3.5455 -3.05634 0
M  V30 1650 H 160.316 -5.06934 -4.03636 0
M  V30 1651 N 153.722 1.14298 -1.08507 0
M  V30 1652 C 154.97 1.84993 -0.813763 0
M  V30 1653 C 155.291 1.83405 0.662393 0
M  V30 1654 O 154.561 1.28319 1.48024 0
M  V30 1655 H 153.141 0.684966 -0.298045 0
M  V30 1656 H 155.803 1.385 -1.37126 0
M  V30 1657 H 154.899 2.89788 -1.15884 0
M  V30 1658 N 155.201 0.870884 1.31352 0
M  V30 1659 C 156.45 0.478408 1.95944 0
M  V30 1660 C 156.763 -0.974493 1.69597 0
M  V30 1661 O 157.969 -1.47316 2.28058 0
M  V30 1662 C 156.425 0.804609 3.50791 0
M  V30 1663 C 156.033 2.27433 3.85977 0
M  V30 1664 C 157.777 0.480648 4.2177 0
M  V30 1665 C 155.684 2.5429 5.33939 0
M  V30 1666 H 154.614 0.175175 0.733369 0
M  V30 1667 H 157.265 1.06391 1.4951 0
M  V30 1668 H 155.647 0.148347 3.95722 0
M  V30 1669 H 156.821 2.97373 3.52002 0
M  V30 1670 H 155.136 2.56442 3.28065 0
M  V30 1671 H 157.733 0.658519 5.30629 0
M  V30 1672 H 158.076 -0.578979 4.12254 0
M  V30 1673 H 158.609 1.09349 3.82476 0
M  V30 1674 H 155.348 3.58939 5.48491 0
M  V30 1675 H 154.868 1.88945 5.69263 0
M  V30 1676 H 156.547 2.39066 6.01212 0
M  V30 1677 N 156.679 -1.44442 0.630414 0
M  V30 1678 C 157.907 -2.06414 0.141671 0
M  V30 1679 C 158.322 -1.47105 -1.18345 0
M  V30 1680 O 157.679 -0.593662 -1.72574 0
M  V30 1681 C 157.73 -3.61494 0.0199784 0
M  V30 1682 O 157.451 -4.18594 1.29269 0
M  V30 1683 C 158.952 -4.40499 -0.497544 0
M  V30 1684 H 156.172 -0.666292 0.0793452 0
M  V30 1685 H 158.716 -1.85323 0.864614 0
M  V30 1686 H 156.871 -3.8185 -0.653402 0
M  V30 1687 H 157.285 -5.12026 1.13707 0
M  V30 1688 H 158.759 -5.49433 -0.531708 0
M  V30 1689 H 159.236 -4.11895 -1.52445 0
M  V30 1690 H 159.842 -4.25061 0.142562 0
M  V30 1691 N 158.157 -0.370918 -1.53173 0
M  V30 1692 C 159.434 0.273754 -1.93675 0
M  V30 1693 C 159.814 1.65938 -1.3049 0
M  V30 1694 O 159.162 2.23698 -0.465999 0
M  V30 1695 C 159.372 0.318602 -3.47543 0
M  V30 1696 C 160.72 0.556392 -4.20939 0
M  V30 1697 O 161.744 0.399587 -3.53952 0
M  V30 1698 O 160.603 0.862133 -5.39657 0
M  V30 1699 H 157.697 0.165448 -0.810281 0
M  V30 1700 H 160.243 -0.42409 -1.64315 0
M  V30 1701 H 159.015 -0.652687 -3.85818 0
M  V30 1702 H 158.638 1.06212 -3.83151 0
M  V30 1703 N 159.635 1.57281 -0.100228 0
M  V30 1704 C 160.545 2.17833 0.870965 0
M  V30 1705 C 161.561 1.14921 1.30649 0
M  V30 1706 O 162.737 1.47313 1.37335 0
M  V30 1707 C 159.802 2.75085 2.1102 0
M  V30 1708 C 158.863 3.9297 1.72838 0
M  V30 1709 C 158.096 4.47482 2.90854 0
M  V30 1710 O 158.319 4.00922 4.05731 0
M  V30 1711 O 157.253 5.38433 2.69023 0
M  V30 1712 H 161.079 3.0124 0.38575 0
M  V30 1713 H 158.664 1.48881 0.124397 0
M  V30 1714 H 160.546 3.11656 2.83634 0
M  V30 1715 H 159.221 1.94721 2.58584 0
M  V30 1716 H 158.128 3.61201 0.973883 0
M  V30 1717 H 159.461 4.74713 1.30033 0
M  V30 1718 N 161.113 -0.173488 1.56642 0
M  V30 1719 C 162.359 -0.891784 1.8214 0
M  V30 1720 C 162.692 -1.8199 0.677736 0
M  V30 1721 O 161.967 -1.91842 -0.320446 0
M  V30 1722 C 162.25 -1.68933 3.18015 0
M  V30 1723 C 162.103 -0.784487 4.42906 0
M  V30 1724 C 163.422 -2.65748 3.50808 0
M  V30 1725 H 160.541 -0.322761 0.662567 0
M  V30 1726 H 163.183 -0.158095 1.89341 0
M  V30 1727 H 161.333 -2.31482 3.12007 0
M  V30 1728 H 163.005 -0.172046 4.60979 0
M  V30 1729 H 161.248 -0.0924117 4.33702 0
M  V30 1730 H 161.919 -1.37799 5.34524 0
M  V30 1731 H 164.395 -2.13327 3.57255 0
M  V30 1732 H 163.271 -3.18619 4.4696 0
M  V30 1733 H 163.532 -3.45842 2.75401 0
M  V30 1734 N 162.591 -1.51276 -0.441967 0
M  V30 1735 C 163.521 -1.752 -1.54361 0
M  V30 1736 C 164.502 -0.601682 -1.59103 0
M  V30 1737 O 165.687 -0.843913 -1.74905 0
M  V30 1738 C 162.817 -1.87282 -2.92477 0
M  V30 1739 C 161.771 -3.02687 -3.02596 0
M  V30 1740 C 161.097 -2.99947 -4.42647 0
M  V30 1741 C 162.397 -4.4273 -2.77106 0
M  V30 1742 H 164.091 -2.67442 -1.34592 0
M  V30 1743 H 161.637 -1.28694 -0.646048 0
M  V30 1744 H 163.59 -2.02602 -3.695 0
M  V30 1745 H 162.314 -0.916844 -3.13467 0
M  V30 1746 H 160.973 -2.87065 -2.28012 0
M  V30 1747 H 160.621 -2.02136 -4.60597 0
M  V30 1748 H 160.321 -3.77439 -4.50348 0
M  V30 1749 H 161.845 -3.17354 -5.2165 0
M  V30 1750 H 163.259 -4.58727 -3.43864 0
M  V30 1751 H 161.656 -5.21893 -2.96222 0
M  V30 1752 H 162.726 -4.53087 -1.72744 0
M  V30 1753 N 164.069 0.697108 -1.41344 0
M  V30 1754 C 165.315 1.45796 -1.41828 0
M  V30 1755 C 165.67 1.92382 -0.0261743 0
M  V30 1756 O 164.963 1.66522 0.947688 0
M  V30 1757 C 165.157 2.68553 -2.35826 0
M  V30 1758 C 164.986 2.33975 -3.84039 0
M  V30 1759 C 163.756 2.24414 -4.52732 0
M  V30 1760 C 165.954 1.97048 -4.75054 0
M  V30 1761 N 163.936 1.82705 -5.86082 0
M  V30 1762 C 165.307 1.66086 -5.9734 0
M  V30 1763 C 167.362 1.83845 -4.62715 0
M  V30 1764 C 166.065 1.23246 -7.08663 0
M  V30 1765 C 168.091 1.4241 -5.73998 0
M  V30 1766 C 167.453 1.12357 -6.95381 0
M  V30 1767 H 163.552 0.530859 -0.574206 0
M  V30 1768 H 166.136 0.806674 -1.77203 0
M  V30 1769 H 164.307 3.31404 -2.02549 0
M  V30 1770 H 166.039 3.35015 -2.2704 0
M  V30 1771 H 162.794 2.4276 -4.0665 0
M  V30 1772 H 163.218 1.64337 -6.56751 0
M  V30 1773 H 167.86 2.05734 -3.69369 0
M  V30 1774 H 165.578 1.00102 -8.01876 0
M  V30 1775 H 169.164 1.32746 -5.66454 0
M  V30 1776 H 168.044 0.807795 -7.80028 0
M  V30 1777 N 165.547 1.27147 0.931209 0
M  V30 1778 C 166.479 1.05364 2.03546 0
M  V30 1779 C 167.492 0.0108438 1.62796 0
M  V30 1780 O 168.681 0.25202 1.76712 0
M  V30 1781 C 165.781 0.575566 3.33977 0
M  V30 1782 C 164.954 1.68985 4.03439 0
M  V30 1783 C 164.013 1.20813 5.12143 0
M  V30 1784 O 163.039 1.90712 5.363 0
M  V30 1785 N 164.241 0.0618851 5.80467 0
M  V30 1786 H 167.006 2.00454 2.22796 0
M  V30 1787 H 164.567 1.18666 1.10136 0
M  V30 1788 H 166.559 0.237264 4.04004 0
M  V30 1789 H 165.129 -0.282016 3.11325 0
M  V30 1790 H 164.349 2.19861 3.27192 0
M  V30 1791 H 165.637 2.4378 4.46597 0
M  V30 1792 H 165.035 -0.521621 5.6329 0
M  V30 1793 H 163.592 -0.217264 6.51438 0
M  V30 1794 N 167.025 -1.13721 1.09112 0
M  V30 1795 C 167.975 -2.17082 0.697091 0
M  V30 1796 C 168.959 -1.58321 -0.286923 0
M  V30 1797 O 170.151 -1.7673 -0.0978008 0
M  V30 1798 C 167.28 -3.43105 0.115729 0
M  V30 1799 C 166.366 -4.0888 1.12596 0
M  V30 1800 N 166.757 -4.4987 2.31195 0
M  V30 1801 C 165.055 -4.35471 0.963366 0
M  V30 1802 C 165.756 -5.01094 2.95431 0
M  V30 1803 N 164.732 -4.95751 2.23006 0
M  V30 1804 H 168.534 -2.46524 1.6001 0
M  V30 1805 H 166.048 -1.30481 0.966869 0
M  V30 1806 H 168.045 -4.16491 -0.184555 0
M  V30 1807 H 166.705 -3.15138 -0.78217 0
M  V30 1808 H 167.716 -4.42678 2.68806 0
M  V30 1809 H 164.393 -4.17328 0.119878 0
M  V30 1810 H 165.783 -5.4263 3.96236 0
M  V30 1811 N 168.503 -0.877838 -1.30888 0
M  V30 1812 C 169.451 -0.328662 -2.30266 0
M  V30 1813 C 170.445 0.560496 -1.59859 0
M  V30 1814 O 171.651 0.445722 -1.74394 0
M  V30 1815 H 168.026 -0.0876142 -0.746879 0
M  V30 1816 H 169.997 -1.18061 -2.74051 0
M  V30 1817 C 168.746 0.448071 -3.44801 0
M  V30 1818 H 168.069 -0.226859 -3.99156 0
M  V30 1819 H 169.509 0.797541 -4.16432 0
M  V30 1820 C 167.968 1.64239 -2.94155 0
M  V30 1821 O 168.498 2.74175 -2.93583 0
M  V30 1822 N 166.704 1.47716 -2.50256 0
M  V30 1823 H 166.251 0.582821 -2.5092 0
M  V30 1824 H 166.209 2.27765 -2.16727 0
M  V30 1825 N 169.982 1.44106 -0.638065 0
M  V30 1826 C 171.393 1.85316 -0.226894 0
M  V30 1827 C 171.744 1.53399 1.22324 0
M  V30 1828 O 170.869 0.975463 1.93167 0
M  V30 1829 C 171.464 3.3637 -0.405013 0
M  V30 1830 C 170.023 3.76369 -0.0482902 0
M  V30 1831 C 169.17 2.67921 -0.715108 0
M  V30 1832 H 172.121 1.34474 -0.842764 0
M  V30 1833 H 172.142 3.7885 0.354 0
M  V30 1834 H 171.654 3.59569 -1.46053 0
M  V30 1835 H 169.755 3.58784 1.00522 0
M  V30 1836 H 169.868 4.76856 -0.463187 0
M  V30 1837 H 168.232 2.54259 -0.149753 0
M  V30 1838 H 169.015 2.93951 -1.77335 0
M  V30 1839 N 171.46 0.379036 1.52974 0
M  V30 1840 C 172.407 -0.461048 2.26148 0
M  V30 1841 C 173.377 -1.06637 1.27349 0
M  V30 1842 O 174.562 -1.09633 1.56157 0
M  V30 1843 C 171.702 -1.58782 3.06402 0
M  V30 1844 C 170.815 -1.00636 4.20115 0
M  V30 1845 C 169.95 -2.10334 4.87784 0
M  V30 1846 C 168.989 -1.49724 5.93506 0
M  V30 1847 N 168.126 -2.5331 6.54812 0
M  V30 1848 H 172.966 0.169429 2.97518 0
M  V30 1849 H 170.503 0.0953806 1.4679 0
M  V30 1850 H 172.461 -2.25174 3.51215 0
M  V30 1851 H 171.091 -2.18876 2.37261 0
M  V30 1852 H 170.143 -0.232332 3.7969 0
M  V30 1853 H 171.455 -0.523343 4.96047 0
M  V30 1854 H 170.609 -2.84519 5.35849 0
M  V30 1855 H 169.348 -2.61992 4.11353 0
M  V30 1856 H 168.353 -0.740598 5.44789 0
M  V30 1857 H 169.578 -0.988732 6.71864 0
M  V30 1858 H 167.524 -3.04156 5.81227 0
M  V30 1859 H 167.441 -2.09734 7.26325 0
M  V30 1860 H 168.709 -3.27155 7.07524 0
M  V30 1861 N 172.938 -1.57226 0.108567 0
M  V30 1862 C 173.868 -2.17778 -0.84232 0
M  V30 1863 C 174.849 -1.11487 -1.2847 0
M  V30 1864 O 176.034 -1.39681 -1.34918 0
M  V30 1865 C 173.164 -2.76888 -2.09644 0
M  V30 1866 C 172.118 -3.88669 -1.79221 0
M  V30 1867 C 171.444 -4.34541 -3.11574 0
M  V30 1868 C 172.744 -5.11251 -1.06864 0
M  V30 1869 H 174.438 -2.97489 -0.337774 0
M  V30 1870 H 171.984 -1.43097 -0.161025 0
M  V30 1871 H 173.937 -3.17904 -2.76614 0
M  V30 1872 H 172.661 -1.94451 -2.62405 0
M  V30 1873 H 171.32 -3.48213 -1.14644 0
M  V30 1874 H 170.968 -3.48977 -3.62249 0
M  V30 1875 H 170.668 -5.09914 -2.91996 0
M  V30 1876 H 172.192 -4.782 -3.7968 0
M  V30 1877 H 173.606 -5.49352 -1.63968 0
M  V30 1878 H 172.003 -5.9214 -0.974178 0
M  V30 1879 H 173.073 -4.8487 -0.0536168 0
M  V30 1880 N 174.416 0.165178 -1.56732 0
M  V30 1881 C 175.662 0.882112 -1.82611 0
M  V30 1882 C 175.995 1.81628 -0.687378 0
M  V30 1883 O 175.27 1.92009 0.310267 0
M  V30 1884 C 175.553 1.67245 -3.18906 0
M  V30 1885 C 175.406 0.760987 -4.43316 0
M  V30 1886 C 176.725 2.63884 -3.52212 0
M  V30 1887 H 173.844 0.319242 -0.664269 0
M  V30 1888 H 176.486 0.148052 -1.89422 0
M  V30 1889 H 174.636 2.29824 -3.1323 0
M  V30 1890 H 176.308 0.147596 -4.61064 0
M  V30 1891 H 174.551 0.0694102 -4.33744 0
M  V30 1892 H 175.222 1.34962 -5.35247 0
M  V30 1893 H 177.698 2.11429 -3.58381 0
M  V30 1894 H 176.574 3.16245 -4.48643 0
M  V30 1895 H 176.835 3.44377 -2.77231 0
M  V30 1896 N 175.894 1.51508 0.433938 0
M  V30 1897 C 177.143 1.63578 1.18005 0
M  V30 1898 C 177.456 0.359514 1.92268 0
M  V30 1899 O 178.662 0.359632 2.69108 0
M  V30 1900 C 177.118 2.88901 2.14626 0
M  V30 1901 C 176.726 4.23544 1.45995 0
M  V30 1902 C 178.47 3.10328 2.89649 0
M  V30 1903 C 176.377 5.40014 2.4112 0
M  V30 1904 H 175.307 0.609277 0.444182 0
M  V30 1905 H 177.958 1.77978 0.446773 0
M  V30 1906 H 176.34 2.68142 2.91403 0
M  V30 1907 H 177.514 4.54696 0.747532 0
M  V30 1908 H 175.829 4.08021 0.831115 0
M  V30 1909 H 178.426 3.94518 3.60915 0
M  V30 1910 H 178.769 2.23544 3.51189 0
M  V30 1911 H 179.302 3.31443 2.19978 0
M  V30 1912 H 176.041 6.29068 1.84264 0
M  V30 1913 H 175.561 5.13233 3.10406 0
M  V30 1914 H 177.24 5.72099 3.02177 0
M  V30 1915 N 177.372 -0.689602 1.41712 0
M  V30 1916 C 178.335 -1.78521 1.43746 0
M  V30 1917 C 179.335 -1.57436 0.327191 0
M  V30 1918 O 180.525 -1.64 0.587348 0
M  V30 1919 C 177.657 -3.16971 1.25467 0
M  V30 1920 H 178.85 -1.78108 2.41283 0
M  V30 1921 H 176.403 -0.89781 1.27942 0
M  V30 1922 H 177.138 -3.23019 0.287948 0
M  V30 1923 H 176.923 -3.33678 2.05917 0
M  V30 1924 H 178.413 -3.96935 1.2974 0
M  V30 1925 N 178.85 -1.27639 -0.924453 0
M  V30 1926 C 179.8 -1.07295 -2.01176 0
M  V30 1927 C 180.784 5.77352e-05 -1.609 0
M  V30 1928 O 181.976 -0.218855 -1.75642 0
M  V30 1929 C 179.105 -0.725592 -3.35544 0
M  V30 1930 C 178.191 -1.83691 -3.82254 0
M  V30 1931 N 178.582 -3.07697 -4.01443 0
M  V30 1932 C 176.88 -1.72433 -4.11319 0
M  V30 1933 C 177.581 -3.80037 -4.40394 0
M  V30 1934 N 176.557 -3.0782 -4.48049 0
M  V30 1935 H 180.359 -2.01399 -2.14046 0
M  V30 1936 H 177.873 -1.18401 -1.11153 0
M  V30 1937 H 179.87 -0.560959 -4.13109 0
M  V30 1938 H 178.53 0.207782 -3.24034 0
M  V30 1939 H 179.541 -3.43424 -3.8766 0
M  V30 1940 H 176.218 -0.862005 -4.08504 0
M  V30 1941 H 177.608 -4.86632 -4.63291 0
M  V30 1942 N 180.328 1.1314 -1.09713 0
M  V30 1943 C 181.258 2.20748 -0.761102 0
M  V30 1944 C 182.239 1.68061 0.262566 0
M  V30 1945 O 183.424 1.93765 0.129977 0
M  V30 1946 C 180.554 3.46812 -0.184054 0
M  V30 1947 C 179.508 4.12606 -1.13757 0
M  V30 1948 C 178.834 5.33031 -0.422083 0
M  V30 1949 C 180.134 4.59603 -2.48118 0
M  V30 1950 H 181.828 2.49113 -1.66082 0
M  V30 1951 H 179.374 1.19734 -0.799987 0
M  V30 1952 H 181.327 4.21353 0.0631215 0
M  V30 1953 H 180.051 3.17851 0.750868 0
M  V30 1954 H 178.71 3.40036 -1.37007 0
M  V30 1955 H 178.358 5.00335 0.517072 0
M  V30 1956 H 178.058 5.77999 -1.05788 0
M  V30 1957 H 179.582 6.10325 -0.183277 0
M  V30 1958 H 180.996 5.25552 -2.29059 0
M  V30 1959 H 179.393 5.15321 -3.07514 0
M  V30 1960 H 180.463 3.73971 -3.08665 0
M  V30 1961 N 181.806 0.884767 1.30421 0
M  V30 1962 C 183.031 0.517288 2.00845 0
M  V30 1963 C 183.456 -0.886779 1.65885 0
M  V30 1964 O 182.814 -1.58768 0.875354 0
M  V30 1965 C 182.862 0.698994 3.5376 0
M  V30 1966 O 181.966 -0.255208 4.1161 0
M  V30 1967 H 181.307 0.203872 0.631927 0
M  V30 1968 H 183.837 1.19225 1.66272 0
M  V30 1969 H 183.847 0.597912 4.03595 0
M  V30 1970 H 182.522 1.72271 3.78544 0
M  V30 1971 H 181.099 -0.10784 3.72744 0
M  V30 1972 N 183.284 -1.43765 0.645699 0
M  V30 1973 C 184.532 -2.01499 0.155731 0
M  V30 1974 C 184.853 -1.51151 -1.232 0
M  V30 1975 O 184.123 -0.721044 -1.82148 0
M  V30 1976 H 182.703 -0.745003 0.0545817 0
M  V30 1977 H 185.365 -1.76075 0.835677 0
M  V30 1978 H 184.461 -3.1181 0.134577 0
M  V30 1979 N 184.763 -0.387143 -1.52771 0
M  V30 1980 C 186.01 0.195735 -2.01552 0
M  V30 1981 C 186.338 1.46995 -1.27369 0
M  V30 1982 O 185.593 1.92325 -0.361879 0
M  V30 1983 C 185.892 0.512209 -3.53711 0
M  V30 1984 C 185.558 -0.670202 -4.45891 0
M  V30 1985 C 184.22 -0.994586 -4.70809 0
M  V30 1986 C 186.572 -1.46134 -5.00294 0
M  V30 1987 C 183.9 -2.11169 -5.4738 0
M  V30 1988 C 186.252 -2.56903 -5.78086 0
M  V30 1989 C 184.916 -2.89852 -6.01284 0
M  V30 1990 H 184.186 0.0716246 -0.73753 0
M  V30 1991 H 186.833 -0.524046 -1.8419 0
M  V30 1992 H 185.138 1.31329 -3.69134 0
M  V30 1993 H 186.835 0.975804 -3.88946 0
M  V30 1994 H 183.425 -0.407366 -4.2666 0
M  V30 1995 H 187.609 -1.22397 -4.80971 0
M  V30 1996 H 182.865 -2.3707 -5.63567 0
M  V30 1997 H 187.039 -3.18608 -6.19243 0
M  V30 1998 H 184.666 -3.76533 -6.60399 0
M  V30 1999 N 186.241 1.57166 -0.116904 0
M  V30 2000 C 187.489 1.94737 0.540533 0
M  V30 2001 C 187.81 1.00096 1.67349 0
M  V30 2002 O 187.08 0.0568854 1.95817 0
M  V30 2003 H 185.66 0.718981 0.202669 0
M  V30 2004 H 188.322 1.94017 -0.185353 0
M  V30 2005 H 187.418 2.97719 0.936483 0
M  V30 2006 N 187.719 -0.156864 1.56817 0
M  V30 2007 C 188.651 -1.21883 1.94106 0
M  V30 2008 C 189.664 -1.3971 0.835754 0
M  V30 2009 O 190.853 -1.39457 1.11418 0
M  V30 2010 C 187.953 -2.58527 2.19127 0
M  V30 2011 C 187.126 -2.61809 3.50393 0
M  V30 2012 C 186.185 -3.7992 3.64071 0
M  V30 2013 O 185.211 -3.65249 4.36557 0
M  V30 2014 N 186.413 -4.96973 2.99997 0
M  V30 2015 H 189.178 -0.901974 2.85805 0
M  V30 2016 H 186.739 -0.346513 1.58148 0
M  V30 2017 H 188.731 -3.36034 2.25529 0
M  V30 2018 H 187.301 -2.82545 1.33742 0
M  V30 2019 H 186.521 -1.7029 3.5552 0
M  V30 2020 H 187.809 -2.61024 4.36742 0
M  V30 2021 H 187.207 -5.11794 2.41004 0
M  V30 2022 H 185.764 -5.7229 3.11974 0
M  V30 2023 N 189.197 -1.51736 -0.425897 0
M  V30 2024 C 190.427 -1.68549 -1.19476 0
M  V30 2025 C 190.835 -0.387288 -1.85194 0
M  V30 2026 O 190.178 0.645142 -1.71999 0
M  V30 2027 C 190.24 -2.75275 -2.31223 0
M  V30 2028 C 189.904 -4.17534 -1.8578 0
M  V30 2029 C 190.901 -5.01936 -1.35485 0
M  V30 2030 C 188.586 -4.6369 -1.93123 0
M  V30 2031 C 190.58 -6.30559 -0.931347 0
M  V30 2032 C 188.267 -5.92307 -1.50384 0
M  V30 2033 C 189.265 -6.75569 -1.00473 0
M  V30 2034 O 188.953 -8.0178 -0.583452 0
M  V30 2035 H 188.685 -0.568525 -0.365725 0
M  V30 2036 H 191.239 -1.98982 -0.509444 0
M  V30 2037 H 189.469 -2.40182 -3.03067 0
M  V30 2038 H 191.158 -2.80853 -2.93047 0
M  V30 2039 H 191.924 -4.67475 -1.29197 0
M  V30 2040 H 187.803 -3.98997 -2.30916 0
M  V30 2041 H 191.347 -6.95498 -0.541084 0
M  V30 2042 H 187.244 -6.2628 -1.56346 0
M  V30 2043 H 188.012 -8.1543 -0.708275 0
M  V30 2044 N 190.675 0.682077 -1.42076 0
M  V30 2045 C 191.923 1.4393 -1.41876 0
M  V30 2046 C 192.244 1.94971 -0.0335599 0
M  V30 2047 O 191.514 1.72591 0.926773 0
M  V30 2048 H 190.094 0.534085 -0.522267 0
M  V30 2049 H 192.756 0.806427 -1.77434 0
M  V30 2050 H 191.852 2.29588 -2.11414 0
M  V30 2051 N 192.153 1.28127 0.917671 0
M  V30 2052 C 193.381 1.17892 1.70026 0
M  V30 2053 C 193.796 -0.262958 1.8696 0
M  V30 2054 O 193.153 -1.17811 1.3938 0
M  V30 2055 C 193.204 1.86872 3.09453 0
M  V30 2056 O 192.925 3.25428 2.93306 0
M  V30 2057 C 194.426 1.8289 4.03815 0
M  V30 2058 H 191.646 0.40942 0.531617 0
M  V30 2059 H 194.19 1.69181 1.14883 0
M  V30 2060 H 192.345 1.39464 3.61426 0
M  V30 2061 H 192.759 3.59918 3.81523 0
M  V30 2062 H 194.233 2.35751 4.99125 0
M  V30 2063 H 194.71 0.800412 4.31845 0
M  V30 2064 H 195.316 2.29959 3.57769 0
M  V30 2065 N 193.631 -1.12557 1.10312 0
M  V30 2066 C 194.541 -2.21841 0.763142 0
M  V30 2067 C 195.557 -1.72354 -0.238801 0
M  V30 2068 O 196.733 -2.01249 -0.0778746 0
M  V30 2069 C 193.798 -3.46131 0.198632 0
M  V30 2070 C 192.859 -4.10464 1.25769 0
M  V30 2071 C 192.092 -5.28821 0.72002 0
M  V30 2072 O 192.315 -5.6859 -0.453993 0
M  V30 2073 O 191.249 -5.83437 1.47935 0
M  V30 2074 H 195.075 -2.53312 1.67532 0
M  V30 2075 H 192.66 -1.20867 0.878157 0
M  V30 2076 H 194.542 -4.2125 -0.112401 0
M  V30 2077 H 193.217 -3.16338 -0.686419 0
M  V30 2078 H 192.124 -3.3713 1.62156 0
M  V30 2079 H 193.457 -4.44408 2.11571 0
M  V30 2080 N 195.109 -0.891671 -1.2995 0
M  V30 2081 C 196.019 -0.367691 -2.31701 0
M  V30 2082 C 197.035 0.533486 -1.6562 0
M  V30 2083 O 198.211 0.424997 -1.96865 0
M  V30 2084 C 195.276 0.403406 -3.44345 0
M  V30 2085 C 194.337 -0.528328 -4.26037 0
M  V30 2086 C 193.57 0.206063 -5.33302 0
M  V30 2087 O 193.793 1.43119 -5.52153 0
M  V30 2088 O 192.727 -0.447281 -6.00236 0
M  V30 2089 H 196.553 -1.21163 -2.78484 0
M  V30 2090 H 194.138 -0.655725 -1.34241 0
M  V30 2091 H 196.02 0.839753 -4.12948 0
M  V30 2092 H 194.695 1.22354 -2.99685 0
M  V30 2093 H 193.602 -1.01362 -3.60106 0
M  V30 2094 H 194.935 -1.31465 -4.74318 0
M  V30 2095 N 196.587 1.43421 -0.653314 0
M  V30 2096 C 197.817 2.05864 -0.174238 0
M  V30 2097 C 198.225 1.49052 1.16534 0
M  V30 2098 O 197.568 0.616481 1.73047 0
M  V30 2099 C 197.63 3.59499 -0.00875873 0
M  V30 2100 C 197.294 4.38893 -1.27364 0
M  V30 2101 C 198.291 4.70947 -2.20239 0
M  V30 2102 C 195.976 4.789 -1.51525 0
M  V30 2103 C 197.97 5.41916 -3.35568 0
M  V30 2104 C 195.657 5.49614 -2.67147 0
M  V30 2105 C 196.655 5.81044 -3.58994 0
M  V30 2106 O 196.343 6.50313 -4.72597 0
M  V30 2107 H 196.075 0.670345 -0.0872549 0
M  V30 2108 H 198.629 1.84913 -0.894226 0
M  V30 2109 H 196.859 3.79025 0.7666 0
M  V30 2110 H 198.548 4.0364 0.427687 0
M  V30 2111 H 199.314 4.40558 -2.02815 0
M  V30 2112 H 195.193 4.53843 -0.809158 0
M  V30 2113 H 198.737 5.66365 -4.07279 0
M  V30 2114 H 194.634 5.79419 -2.84505 0
M  V30 2115 H 195.402 6.68795 -4.71864 0
M  V30 2116 N 198.065 0.39524 1.52563 0
M  V30 2117 C 199.293 -0.184943 2.06072 0
M  V30 2118 C 199.708 -1.40021 1.26647 0
M  V30 2119 O 199.065 -1.79767 0.314672 0
M  V30 2120 C 199.116 -0.549179 3.57304 0
M  V30 2121 O 198.837 0.617813 4.33722 0
M  V30 2122 C 200.338 -1.18459 4.2718 0
M  V30 2123 H 197.558 -0.0265025 0.670476 0
M  V30 2124 H 200.102 0.562184 1.96621 0
M  V30 2125 H 198.257 -1.2462 3.66809 0
M  V30 2126 H 198.671 0.317091 5.23541 0
M  V30 2127 H 200.145 -1.38976 5.34219 0
M  V30 2128 H 200.622 -2.15368 3.82771 0
M  V30 2129 H 201.228 -0.528163 4.22008 0
M  V30 2130 N 199.544 -1.57102 0.125237 0
M  V30 2131 C 200.492 -2.16905 -0.839927 0
M  V30 2132 C 201.486 -1.11998 -1.27094 0
M  V30 2133 O 202.692 -1.3029 -1.24195 0
M  V30 2134 H 199.067 -0.694252 -0.288995 0
M  V30 2135 H 201.038 -2.96774 -0.311115 0
M  V30 2136 C 199.787 -2.78795 -2.07771 0
M  V30 2137 H 199.11 -3.59221 -1.755 0
M  V30 2138 H 200.55 -3.2417 -2.73295 0
M  V30 2139 C 199.009 -1.76193 -2.87155 0
M  V30 2140 O 199.539 -1.21909 -3.82755 0
M  V30 2141 N 197.745 -1.45991 -2.51267 0
M  V30 2142 H 197.292 -1.90325 -1.73592 0
M  V30 2143 H 197.25 -0.775844 -3.04677 0
M  V30 2144 N 201.022 0.148545 -1.56898 0
M  V30 2145 C 201.952 1.18524 -2.01182 0
M  V30 2146 C 202.933 1.4489 -0.891123 0
M  V30 2147 O 204.118 1.55836 -1.15882 0
M  V30 2148 C 201.248 2.51879 -2.39112 0
M  V30 2149 C 200.202 2.40038 -3.54353 0
M  V30 2150 C 199.528 3.78089 -3.78091 0
M  V30 2151 C 200.828 1.88577 -4.87069 0
M  V30 2152 H 202.522 0.817029 -2.88036 0
M  V30 2153 H 200.068 0.391575 -1.38574 0
M  V30 2154 H 202.021 3.24627 -2.68692 0
M  V30 2155 H 200.745 2.90532 -1.49193 0
M  V30 2156 H 199.404 1.69742 -3.24936 0
M  V30 2157 H 199.052 4.14175 -2.85426 0
M  V30 2158 H 198.752 3.71028 -4.55645 0
M  V30 2159 H 200.276 4.52387 -4.10095 0
M  V30 2160 H 201.69 2.51117 -5.15377 0
M  V30 2161 H 200.087 1.9241 -5.68417 0
M  V30 2162 H 201.157 0.84136 -4.77545 0
M  V30 2163 N 202.5 1.5196 0.417844 0
M  V30 2164 C 203.911 1.57851 0.997 0
M  V30 2165 C 204.262 0.413714 1.91789 0
M  V30 2166 O 203.387 -0.467057 2.113 0
M  V30 2167 C 203.982 2.86085 1.81496 0
M  V30 2168 C 202.541 2.94483 2.34428 0
M  V30 2169 C 201.688 2.52707 1.14169 0
M  V30 2170 H 204.639 1.57455 0.198392 0
M  V30 2171 H 204.66 2.70947 2.67148 0
M  V30 2172 H 204.172 3.70842 1.14446 0
M  V30 2173 H 202.273 2.142 3.04875 0
M  V30 2174 H 202.386 3.98546 2.65891 0
M  V30 2175 H 200.75 2.06353 1.49301 0
M  V30 2176 H 201.533 3.39828 0.486999 0
M  V30 2177 N 203.978 -0.674533 1.42435 0
M  V30 2178 C 204.941 -1.76986 1.45632 0
M  V30 2179 C 205.941 -1.5708 0.343871 0
M  V30 2180 O 207.131 -1.63367 0.604709 0
M  V30 2181 C 204.263 -3.15623 1.28822 0
M  V30 2182 H 205.456 -1.75539 2.43158 0
M  V30 2183 H 203.009 -0.884189 1.28887 0
M  V30 2184 H 203.744 -3.22696 0.322193 0
M  V30 2185 H 203.529 -3.31475 2.09444 0
M  V30 2186 H 205.019 -3.95537 1.33942 0
M  V30 2187 N 205.456 -1.28612 -0.910864 0
M  V30 2188 C 206.686 -1.1862 -1.69153 0
M  V30 2189 C 207.094 0.257324 -1.87442 0
M  V30 2190 O 206.437 1.18543 -1.40332 0
M  V30 2191 C 206.499 -1.81606 -3.10257 0
M  V30 2192 C 206.163 -3.30864 -3.15243 0
M  V30 2193 C 207.16 -4.27256 -2.96223 0
M  V30 2194 C 204.845 -3.71871 -3.37664 0
M  V30 2195 C 206.839 -5.62631 -2.99541 0
M  V30 2196 C 204.526 -5.07371 -3.40614 0
M  V30 2197 C 205.524 -6.02561 -3.21573 0
M  V30 2198 O 205.212 -7.35589 -3.2429 0
M  V30 2199 H 204.944 -0.412633 -0.535453 0
M  V30 2200 H 207.498 -1.70306 -1.14827 0
M  V30 2201 H 205.728 -1.24418 -3.66138 0
M  V30 2202 H 207.417 -1.66092 -3.70362 0
M  V30 2203 H 208.183 -3.9691 -2.78725 0
M  V30 2204 H 204.062 -2.98241 -3.5153 0
M  V30 2205 H 207.606 -6.36907 -2.84597 0
M  V30 2206 H 203.503 -5.37366 -3.57642 0
M  V30 2207 H 204.271 -7.44252 -3.40633 0
M  V30 2208 N 206.934 1.1197 -1.10907 0
M  V30 2209 C 207.882 2.19927 -0.757303 0
M  V30 2210 C 208.876 1.67564 0.248747 0
M  V30 2211 O 210.082 1.79672 0.108605 0
M  V30 2212 H 206.457 0.716925 -0.226987 0
M  V30 2213 H 208.428 2.46847 -1.67658 0
M  V30 2214 C 207.177 3.47061 -0.210671 0
M  V30 2215 H 206.5 3.87703 -0.976049 0
M  V30 2216 H 207.94 4.24 -0.0026584 0
M  V30 2217 C 206.399 3.19864 1.05777 0
M  V30 2218 O 206.929 3.40049 2.13845 0
M  V30 2219 N 205.135 2.73636 0.978349 0
M  V30 2220 H 204.682 2.5741 0.0988246 0
M  V30 2221 H 204.64 2.55815 1.82773 0
M  V30 2222 N 208.412 0.89855 1.29475 0
M  V30 2223 C 209.64 0.539261 1.99749 0
M  V30 2224 C 210.055 -0.875716 1.67262 0
M  V30 2225 O 209.412 -1.57786 0.917049 0
M  V30 2226 C 209.463 0.72061 3.54245 0
M  V30 2227 O 209.184 2.07989 3.8558 0
M  V30 2228 C 210.685 0.366118 4.41786 0
M  V30 2229 H 207.905 0.207047 0.638258 0
M  V30 2230 H 210.449 1.20758 1.65039 0
M  V30 2231 H 208.604 0.0994862 3.87272 0
M  V30 2232 H 209.018 2.10841 4.80257 0
M  V30 2233 H 210.492 0.543848 5.49314 0
M  V30 2234 H 210.969 -0.696763 4.33638 0
M  V30 2235 H 211.575 0.964135 4.14228 0
M  V30 2236 N 209.89 -1.43072 0.660911 0
M  V30 2237 C 211.139 -2.00942 0.174735 0
M  V30 2238 C 211.452 -1.52797 -1.22117 0
M  V30 2239 O 212.658 -2.02991 -1.80297 0
M  V30 2240 C 211.114 -3.58948 0.261559 0
M  V30 2241 C 210.722 -4.16085 1.66064 0
M  V30 2242 C 212.466 -4.24173 -0.166617 0
M  V30 2243 C 210.373 -5.6641 1.70098 0
M  V30 2244 H 209.303 -0.751483 0.0615631 0
M  V30 2245 H 211.954 -1.63955 0.824069 0
M  V30 2246 H 210.336 -3.93372 -0.455421 0
M  V30 2247 H 211.51 -3.93147 2.40359 0
M  V30 2248 H 209.825 -3.6326 2.03546 0
M  V30 2249 H 212.422 -5.34471 -0.156433 0
M  V30 2250 H 212.765 -3.98647 -1.19943 0
M  V30 2251 H 213.298 -3.94659 0.498875 0
M  V30 2252 H 210.037 -5.96715 2.71315 0
M  V30 2253 H 209.557 -5.91382 1.00139 0
M  V30 2254 H 211.236 -6.30585 1.44816 0
M  V30 2255 N 211.368 -0.403325 -1.52352 0
M  V30 2256 C 212.331 0.413051 -2.25447 0
M  V30 2257 C 213.331 0.978513 -1.276 0
M  V30 2258 O 214.521 0.858305 -1.51587 0
M  V30 2259 C 211.653 1.58087 -3.02029 0
M  V30 2260 H 212.846 -0.227094 -2.99039 0
M  V30 2261 H 210.399 -0.155722 -1.55522 0
M  V30 2262 H 211.134 2.25804 -2.32772 0
M  V30 2263 H 210.919 1.18195 -3.73861 0
M  V30 2264 H 212.409 2.1585 -3.57489 0
M  V30 2265 N 212.846 1.57033 -0.133567 0
M  V30 2266 C 213.778 2.13176 0.841944 0
M  V30 2267 C 214.791 1.07794 1.22001 0
M  V30 2268 O 215.98 1.35117 1.16643 0
M  V30 2269 C 213.08 2.62847 2.13926 0
M  V30 2270 C 212.253 3.92486 1.93064 0
M  V30 2271 C 211.312 4.27605 3.0666 0
M  V30 2272 O 210.338 4.96168 2.78937 0
M  V30 2273 N 211.54 3.861 4.33483 0
M  V30 2274 H 214.305 2.97503 0.362192 0
M  V30 2275 H 211.866 1.61821 0.05042 0
M  V30 2276 H 213.858 2.83363 2.88942 0
M  V30 2277 H 212.428 1.83319 2.53205 0
M  V30 2278 H 211.648 3.80732 1.02159 0
M  V30 2279 H 212.936 4.77225 1.76447 0
M  V30 2280 H 212.334 3.30828 4.58878 0
M  V30 2281 H 210.891 4.11694 5.05323 0
M  V30 2282 N 214.325 -0.140222 1.56975 0
M  V30 2283 C 215.288 -1.15689 1.97861 0
M  V30 2284 C 216.288 -1.3549 0.865974 0
M  V30 2285 O 217.478 -1.32367 1.13246 0
M  V30 2286 C 214.61 -2.51582 2.30042 0
M  V30 2287 H 215.803 -0.805971 2.88867 0
M  V30 2288 H 213.356 -0.383801 1.51515 0
M  V30 2289 H 214.091 -2.91632 1.41849 0
M  V30 2290 H 213.876 -2.38569 3.11171 0
M  V30 2291 H 215.366 -3.24792 2.62488 0
M  V30 2292 N 215.803 -1.52179 -0.40978 0
M  V30 2293 C 217.05 -1.66206 -1.15679 0
M  V30 2294 C 217.378 -0.391674 -1.90516 0
M  V30 2295 O 216.633 0.62533 -1.8544 0
M  V30 2296 C 216.932 -2.83428 -2.17723 0
M  V30 2297 C 216.598 -4.21672 -1.59699 0
M  V30 2298 C 215.26 -4.59274 -1.43599 0
M  V30 2299 C 217.612 -5.07825 -1.17317 0
M  V30 2300 C 214.94 -5.80709 -0.836328 0
M  V30 2301 C 217.292 -6.29864 -0.587691 0
M  V30 2302 C 215.956 -6.66216 -0.413818 0
M  V30 2303 H 215.226 -0.608192 -0.423301 0
M  V30 2304 H 217.873 -1.86279 -0.444097 0
M  V30 2305 H 216.178 -2.57687 -2.95135 0
M  V30 2306 H 217.875 -2.91477 -2.75394 0
M  V30 2307 H 214.465 -3.9204 -1.73213 0
M  V30 2308 H 218.649 -4.79359 -1.28565 0
M  V30 2309 H 213.905 -6.07498 -0.689626 0
M  V30 2310 H 218.079 -6.95948 -0.250894 0
M  V30 2311 H 215.706 -7.60182 0.0529471 0
M  V30 2312 N 217.281 0.66697 -1.42791 0
M  V30 2313 C 218.506 1.46004 -1.47301 0
M  V30 2314 C 218.931 1.87894 -0.0880317 0
M  V30 2315 O 218.289 1.56502 0.915253 0
M  V30 2316 C 218.337 2.68031 -2.41229 0
M  V30 2317 O 217.441 3.6659 -1.88906 0
M  V30 2318 H 216.782 0.43832 -0.49877 0
M  V30 2319 H 219.312 0.817391 -1.87563 0
M  V30 2320 H 219.322 3.1601 -2.58073 0
M  V30 2321 H 217.997 2.36883 -3.41847 0
M  V30 2322 H 216.574 3.25661 -1.81656 0
M  V30 2323 N 218.759 1.29093 0.90403 0
M  V30 2324 C 220.007 1.16583 1.65085 0
M  V30 2325 C 220.328 -0.283933 1.92922 0
M  V30 2326 O 219.598 -1.19509 1.55224 0
M  V30 2327 H 218.178 0.428467 0.611903 0
M  V30 2328 H 220.84 1.61959 1.08422 0
M  V30 2329 H 219.936 1.71266 2.6091 0
M  V30 2330 N 220.237 -1.11381 1.11499 0
M  V30 2331 C 221.467 -1.86663 0.885464 0
M  V30 2332 C 221.875 -1.80464 -0.568281 0
M  V30 2333 O 221.218 -1.18445 -1.40415 0
M  V30 2334 C 221.28 -3.36337 1.26956 0
M  V30 2335 C 220.944 -3.66304 2.73259 0
M  V30 2336 C 221.941 -3.63733 3.71476 0
M  V30 2337 C 219.626 -3.9529 3.09921 0
M  V30 2338 C 221.62 -3.89725 5.04374 0
M  V30 2339 C 219.307 -4.20941 4.43004 0
M  V30 2340 C 220.305 -4.18147 5.40039 0
M  V30 2341 O 219.993 -4.43153 6.70724 0
M  V30 2342 H 219.725 -0.597114 0.316908 0
M  V30 2343 H 222.279 -1.41782 1.48617 0
M  V30 2344 H 220.509 -3.81826 0.611999 0
M  V30 2345 H 222.198 -3.92986 1.01573 0
M  V30 2346 H 222.964 -3.41389 3.44498 0
M  V30 2347 H 218.843 -3.966 2.35009 0
M  V30 2348 H 222.387 -3.8746 5.80104 0
M  V30 2349 H 218.284 -4.42761 4.69716 0
M  V30 2350 H 219.052 -4.60717 6.76522 0
M  V30 2351 N 221.715 -0.905404 -1.28997 0
M  V30 2352 C 222.645 -0.404212 -2.29975 0
M  V30 2353 C 223.626 0.523784 -1.61835 0
M  V30 2354 O 224.811 0.433298 -1.89304 0
M  V30 2355 C 221.941 0.364042 -3.45387 0
M  V30 2356 C 220.895 -0.474048 -4.25367 0
M  V30 2357 C 220.221 0.422045 -5.33032 0
M  V30 2358 C 221.521 -1.72696 -4.92923 0
M  V30 2359 H 223.215 -1.24807 -2.72146 0
M  V30 2360 H 220.761 -0.601585 -1.30832 0
M  V30 2361 H 222.714 0.725447 -4.15109 0
M  V30 2362 H 221.438 1.24174 -3.02074 0
M  V30 2363 H 220.097 -0.81786 -3.57361 0
M  V30 2364 H 219.745 1.29804 -4.85963 0
M  V30 2365 H 219.445 -0.135057 -5.87445 0
M  V30 2366 H 220.969 0.779517 -6.05604 0
M  V30 2367 H 222.383 -1.43495 -5.55051 0
M  V30 2368 H 220.78 -2.22582 -5.57295 0
M  V30 2369 H 221.85 -2.45964 -4.17887 0
M  V30 2370 N 223.193 1.4272 -0.668489 0
M  V30 2371 C 224.442 2.00846 -0.185389 0
M  V30 2372 C 224.755 1.53442 1.21305 0
M  V30 2373 O 225.961 2.03944 1.79218 0
M  V30 2374 C 224.417 3.58805 -0.280591 0
M  V30 2375 C 224.025 4.15198 -1.68268 0
M  V30 2376 C 225.769 4.24255 0.14412 0
M  V30 2377 C 223.676 5.655 -1.73099 0
M  V30 2378 H 222.606 0.751145 -0.0655475 0
M  V30 2379 H 225.257 1.63516 -0.832752 0
M  V30 2380 H 223.639 3.93608 0.434553 0
M  V30 2381 H 224.813 3.91866 -2.42441 0
M  V30 2382 H 223.128 3.62176 -2.05469 0
M  V30 2383 H 225.725 5.34547 0.128086 0
M  V30 2384 H 226.068 3.99277 1.17827 0
M  V30 2385 H 226.601 3.94389 -0.519798 0
M  V30 2386 H 223.34 5.95268 -2.74475 0
M  V30 2387 H 222.86 5.90842 -1.03274 0
M  V30 2388 H 224.539 6.29808 -1.48158 0
M  V30 2389 N 224.671 0.411399 1.52136 0
M  V30 2390 C 225.603 -0.448386 2.24771 0
M  V30 2391 C 226.616 -1.00828 1.27818 0
M  V30 2392 O 227.805 -0.906841 1.53749 0
M  V30 2393 C 224.905 -1.63636 2.96777 0
M  V30 2394 C 224.078 -1.19995 4.20618 0
M  V30 2395 C 223.137 -2.25509 4.75428 0
M  V30 2396 O 222.163 -1.86007 5.3795 0
M  V30 2397 N 223.365 -3.577 4.57199 0
M  V30 2398 H 226.13 0.174025 2.99194 0
M  V30 2399 H 223.691 0.238897 1.60128 0
M  V30 2400 H 225.683 -2.33793 3.30338 0
M  V30 2401 H 224.253 -2.16465 2.25526 0
M  V30 2402 H 223.473 -0.326421 3.92846 0
M  V30 2403 H 224.761 -0.885365 5.01038 0
M  V30 2404 H 224.159 -3.92543 4.07341 0
M  V30 2405 H 222.716 -4.23827 4.95191 0
M  V30 2406 N 226.149 -1.5696 0.141893 0
M  V30 2407 C 227.097 -2.17784 -0.816874 0
M  V30 2408 C 228.091 -1.1334 -1.25899 0
M  V30 2409 O 229.297 -1.316 -1.22806 0
M  V30 2410 H 225.672 -0.697278 -0.281615 0
M  V30 2411 H 227.643 -2.97087 -0.279621 0
M  V30 2412 C 226.392 -2.80983 -2.04802 0
M  V30 2413 H 225.715 -3.61062 -1.7168 0
M  V30 2414 H 227.155 -3.2705 -2.69841 0
M  V30 2415 C 225.614 -1.79228 -2.8527 0
M  V30 2416 O 226.144 -1.25962 -3.8144 0
M  V30 2417 N 224.35 -1.48647 -2.49704 0
M  V30 2418 H 223.897 -1.92155 -1.71564 0
M  V30 2419 H 223.855 -0.808115 -3.03837 0
M  V30 2420 N 227.627 0.131896 -1.57047 0
M  V30 2421 C 228.875 0.840269 -1.83804 0
M  V30 2422 C 229.196 1.81017 -0.72512 0
M  V30 2423 O 228.466 1.94272 0.251995 0
M  V30 2424 H 227.046 0.313294 -0.678127 0
M  V30 2425 H 229.708 0.122294 -1.94516 0
M  V30 2426 H 228.804 1.39335 -2.79271 0
M  V30 2427 N 229.106 1.52395 0.401703 0
M  V30 2428 C 230.383 1.57387 1.16141 0
M  V30 2429 C 230.763 0.359359 2.08019 0
M  V30 2430 O 230.111 -0.65326 2.18963 0
M  V30 2431 C 230.321 2.90631 1.93221 0
M  V30 2432 C 231.669 3.43904 2.49028 0
M  V30 2433 O 232.693 2.92421 2.03393 0
M  V30 2434 O 231.552 4.33823 3.32356 0
M  V30 2435 H 228.646 0.634262 0.530698 0
M  V30 2436 H 231.192 1.64725 0.407883 0
M  V30 2437 H 229.964 3.70473 1.25958 0
M  V30 2438 H 229.587 2.8662 2.75563 0
M  V30 2439 N 230.584 -0.659388 1.43143 0
M  V30 2440 C 231.83 -1.42145 1.44647 0
M  V30 2441 C 232.163 -1.9408 0.0681907 0
M  V30 2442 O 231.438 -1.71899 -0.910007 0
M  V30 2443 C 231.721 -2.60735 2.48373 0
M  V30 2444 C 231.574 -2.14332 3.95451 0
M  V30 2445 C 232.893 -3.62951 2.48906 0
M  V30 2446 H 230.012 -0.51552 0.526696 0
M  V30 2447 H 232.654 -0.748069 1.74654 0
M  V30 2448 H 230.804 -3.18184 2.22916 0
M  V30 2449 H 232.476 -1.61932 4.31944 0
M  V30 2450 H 230.719 -1.4576 4.08578 0
M  V30 2451 H 231.39 -2.99583 4.63631 0
M  V30 2452 H 233.866 -3.1525 2.71582 0
M  V30 2453 H 232.742 -4.43487 3.23435 0
M  V30 2454 H 233.003 -4.15126 1.52061 0
M  V30 2455 N 232.062 -1.29571 -0.897171 0
M  V30 2456 C 233.339 -1.08365 -1.62839 0
M  V30 2457 C 233.719 0.371331 -2.07808 0
M  V30 2458 O 233.067 1.3606 -1.83576 0
M  V30 2459 C 233.277 -2.0735 -2.80726 0
M  V30 2460 C 234.625 -2.38406 -3.51351 0
M  V30 2461 O 235.649 -2.05564 -2.90898 0
M  V30 2462 O 234.508 -2.9453 -4.60341 0
M  V30 2463 H 231.602 -0.415345 -0.715134 0
M  V30 2464 H 234.148 -1.40952 -0.945018 0
M  V30 2465 H 232.92 -3.05339 -2.44711 0
M  V30 2466 H 232.543 -1.75507 -3.56767 0
M  V30 2467 N 233.54 1.10788 -1.12088 0
M  V30 2468 C 234.472 2.16816 -0.743213 0
M  V30 2469 C 235.485 1.6119 0.228412 0
M  V30 2470 O 236.674 1.78497 0.0102931 0
M  V30 2471 C 233.774 3.38809 -0.0787313 0
M  V30 2472 C 232.947 4.23885 -1.0789 0
M  V30 2473 C 232.006 5.24334 -0.442713 0
M  V30 2474 O 231.032 5.58497 -1.09864 0
M  V30 2475 N 232.234 5.75079 0.791457 0
M  V30 2476 H 234.999 2.49825 -1.65552 0
M  V30 2477 H 232.56 1.26373 -1.012 0
M  V30 2478 H 234.552 4.03107 0.358766 0
M  V30 2479 H 233.122 3.03805 0.736275 0
M  V30 2480 H 232.342 3.55939 -1.69414 0
M  V30 2481 H 233.63 4.77562 -1.75533 0
M  V30 2482 H 233.028 5.49517 1.3434 0
M  V30 2483 H 231.585 6.4118 1.17183 0
M  V30 2484 N 235.018 0.912232 1.28515 0
M  V30 2485 C 236.429 0.591352 1.77087 0
M  V30 2486 C 236.78 -0.8933 1.74684 0
M  V30 2487 O 235.905 -1.69876 1.34056 0
M  V30 2488 C 236.5 1.06668 3.2157 0
M  V30 2489 C 235.059 0.79675 3.67871 0
M  V30 2490 C 234.206 1.23427 2.48316 0
M  V30 2491 H 237.157 1.09365 1.15 0
M  V30 2492 H 237.178 0.407455 3.78312 0
M  V30 2493 H 236.69 2.14726 3.23287 0
M  V30 2494 H 234.791 -0.270679 3.71616 0
M  V30 2495 H 234.904 1.40343 4.58084 0
M  V30 2496 H 233.268 0.653036 2.46186 0
M  V30 2497 H 234.051 2.32316 2.52753 0
M  V30 2498 N 236.496 -1.42363 0.676048 0
M  V30 2499 C 237.429 -2.28141 -0.0516916 0
M  V30 2500 C 238.407 -1.41135 -0.807439 0
M  V30 2501 O 239.591 -1.70573 -0.802305 0
M  V30 2502 C 236.718 -3.21007 -1.08039 0
M  V30 2503 C 235.764 -4.24426 -0.420076 0
M  V30 2504 S 236.597 -5.29134 0.823246 0
M  V30 2505 C 237.753 -6.25566 -0.204344 0
M  V30 2506 H 237.986 -2.89515 0.675884 0
M  V30 2507 H 235.519 -1.47211 0.465635 0
M  V30 2508 H 237.477 -3.75048 -1.66881 0
M  V30 2509 H 236.138 -2.58766 -1.78042 0
M  V30 2510 H 235.331 -4.89596 -1.19633 0
M  V30 2511 H 234.933 -3.7388 0.0947845 0
M  V30 2512 H 237.225 -6.69098 -1.06369 0
M  V30 2513 H 238.168 -7.06895 0.412915 0
M  V30 2514 H 238.576 -5.61811 -0.55038 0
M  V30 2515 N 237.974 -0.419461 -1.51915 0
M  V30 2516 C 239.385 0.0477853 -1.86639 0
M  V30 2517 C 239.736 1.43531 -1.33766 0
M  V30 2518 O 238.861 2.05401 -0.68113 0
M  V30 2519 C 239.456 0.0934885 -3.38671 0
M  V30 2520 C 238.015 0.505097 -3.72996 0
M  V30 2521 C 237.162 -0.313792 -2.75519 0
M  V30 2522 H 240.113 -0.636088 -1.45395 0
M  V30 2523 H 240.134 0.906667 -3.6954 0
M  V30 2524 H 239.646 -0.916501 -3.77123 0
M  V30 2525 H 237.747 1.52135 -3.40126 0
M  V30 2526 H 237.86 0.242309 -4.78487 0
M  V30 2527 H 236.224 0.225363 -2.53701 0
M  V30 2528 H 237.007 -1.32232 -3.16812 0
M  V30 2529 N 239.452 1.56882 -0.150215 0
M  V30 2530 C 240.415 2.1573 0.774157 0
M  V30 2531 C 241.415 1.0999 1.17298 0
M  V30 2532 O 242.605 1.35613 1.09338 0
M  V30 2533 C 239.737 2.72302 2.05096 0
M  V30 2534 H 240.93 2.98752 0.262201 0
M  V30 2535 H 238.483 1.55985 0.099248 0
M  V30 2536 H 239.218 1.92956 2.6065 0
M  V30 2537 H 239.003 3.49665 1.77416 0
M  V30 2538 H 240.493 3.17632 2.71109 0
M  V30 2539 N 240.93 -0.123565 1.57115 0
M  V30 2540 C 242.177 -0.832153 1.84612 0
M  V30 2541 C 242.505 -1.80093 0.734627 0
M  V30 2542 O 241.76 -1.93766 -0.27442 0
M  V30 2543 C 242.059 -1.62016 3.18568 0
M  V30 2544 C 241.725 -0.796084 4.43817 0
M  V30 2545 C 240.387 -0.568816 4.77826 0
M  V30 2546 C 242.739 -0.221364 5.2073 0
M  V30 2547 C 240.067 0.243499 5.86194 0
M  V30 2548 C 242.419 0.578117 6.29953 0
M  V30 2549 C 241.083 0.815744 6.62497 0
M  V30 2550 H 240.353 -0.304507 0.675542 0
M  V30 2551 H 243 -0.0947248 1.91266 0
M  V30 2552 H 241.305 -2.42837 3.0747 0
M  V30 2553 H 243.002 -2.17231 3.37064 0
M  V30 2554 H 239.592 -0.983307 4.17168 0
M  V30 2555 H 243.776 -0.384173 4.94811 0
M  V30 2556 H 239.032 0.436871 6.09837 0
M  V30 2557 H 243.206 1.03046 6.88734 0
M  V30 2558 H 240.833 1.44701 7.46301 0
M  V30 2559 N 242.408 -1.52605 -0.393616 0
M  V30 2560 C 243.819 -1.59417 -0.971761 0
M  V30 2561 C 244.17 -0.444173 -1.91106 0
M  V30 2562 O 243.295 0.433382 -2.12016 0
M  V30 2563 C 243.89 -2.88936 -1.76921 0
M  V30 2564 C 242.449 -2.98175 -2.29714 0
M  V30 2565 C 241.596 -2.54491 -1.10135 0
M  V30 2566 H 244.547 -1.57751 -0.173317 0
M  V30 2567 H 244.568 -2.75163 -2.62804 0
M  V30 2568 H 244.08 -3.72616 -1.08532 0
M  V30 2569 H 242.181 -2.19024 -3.01429 0
M  V30 2570 H 242.294 -4.02726 -2.59517 0
M  V30 2571 H 240.658 -2.08702 -1.45999 0
M  V30 2572 H 241.441 -3.4056 -0.432874 0
M  V30 2573 N 243.887 0.651787 -1.4349 0
M  V30 2574 C 245.117 1.43728 -1.48411 0
M  V30 2575 C 245.525 1.8893 -0.10103 0
M  V30 2576 O 244.868 1.60182 0.899307 0
M  V30 2577 C 244.93 2.70411 -2.36893 0
M  V30 2578 C 244.594 2.4714 -3.8441 0
M  V30 2579 C 245.591 2.10271 -4.75481 0
M  V30 2580 C 243.276 2.6142 -4.28912 0
M  V30 2581 C 245.27 1.87982 -6.0905 0
M  V30 2582 C 242.957 2.38746 -5.62533 0
M  V30 2583 C 243.955 2.02083 -6.5242 0
M  V30 2584 O 243.643 1.79647 -7.8357 0
M  V30 2585 H 243.375 0.447962 -0.506267 0
M  V30 2586 H 245.929 0.80624 -1.88915 0
M  V30 2587 H 244.159 3.36079 -1.91278 0
M  V30 2588 H 245.848 3.32364 -2.33 0
M  V30 2589 H 246.614 1.98814 -4.42378 0
M  V30 2590 H 242.493 2.88931 -3.59222 0
M  V30 2591 H 246.037 1.5929 -6.7917 0
M  V30 2592 H 241.934 2.49806 -5.95203 0
M  V30 2593 H 242.702 1.9406 -7.95162 0
M  V30 2594 N 245.365 1.30045 0.890287 0
M  V30 2595 C 246.593 1.21472 1.67487 0
M  V30 2596 C 247.008 -0.223241 1.87476 0
M  V30 2597 O 246.365 -1.14828 1.41847 0
M  V30 2598 C 246.416 1.93394 3.05419 0
M  V30 2599 O 246.137 3.31576 2.86337 0
M  V30 2600 C 247.638 1.91414 3.99844 0
M  V30 2601 H 244.858 0.420604 0.522813 0
M  V30 2602 H 247.402 1.7158 1.11268 0
M  V30 2603 H 245.557 1.47099 3.58386 0
M  V30 2604 H 245.971 3.67929 3.73802 0
M  V30 2605 H 247.445 2.46285 4.94012 0
M  V30 2606 H 247.922 0.891833 4.3005 0
M  V30 2607 H 248.528 2.37496 3.52811 0
M  V30 2608 N 246.843 -1.10192 1.12674 0
M  V30 2609 C 247.806 -2.14786 0.799979 0
M  V30 2610 C 248.806 -1.59711 -0.18685 0
M  V30 2611 O 249.996 -1.74156 0.0392558 0
M  V30 2612 C 247.128 -3.40374 0.189228 0
M  V30 2613 H 248.321 -2.45203 1.72671 0
M  V30 2614 H 245.874 -1.25597 0.930326 0
M  V30 2615 H 246.609 -3.15577 -0.747107 0
M  V30 2616 H 246.394 -3.81637 0.899766 0
M  V30 2617 H 247.884 -4.17594 -0.0228143 0
M  V30 2618 N 248.321 -0.919034 -1.28029 0
M  V30 2619 C 249.598 -0.473668 -1.89778 0
M  V30 2620 C 249.978 1.04783 -1.83259 0
M  V30 2621 O 249.326 1.8982 -1.27202 0
M  V30 2622 C 249.536 -1.00998 -3.34066 0
M  V30 2623 C 250.884 -1.06525 -4.1102 0
M  V30 2624 O 251.908 -0.958996 -3.43048 0
M  V30 2625 O 250.767 -1.22776 -5.3253 0
M  V30 2626 H 247.861 -0.15098 -0.813101 0
M  V30 2627 H 250.407 -1.01016 -1.36359 0
M  V30 2628 H 249.179 -2.05392 -3.33061 0
M  V30 2629 H 248.802 -0.454626 -3.94992 0
M  V30 2630 N 249.799 1.42003 -0.683588 0
M  V30 2631 C 251.029 2.05448 -0.217866 0
M  V30 2632 C 251.437 1.51491 1.13346 0
M  V30 2633 O 250.78 0.653048 1.717 0
M  V30 2634 C 250.842 3.59399 -0.0850118 0
M  V30 2635 C 250.506 4.36093 -1.36645 0
M  V30 2636 C 251.503 4.66169 -2.30179 0
M  V30 2637 C 249.188 4.75578 -1.61649 0
M  V30 2638 C 251.182 5.34676 -3.46988 0
M  V30 2639 C 248.869 5.43824 -2.78745 0
M  V30 2640 C 249.867 5.73299 -3.71238 0
M  V30 2641 O 249.555 6.40142 -4.86285 0
M  V30 2642 H 249.287 0.668344 -0.101454 0
M  V30 2643 H 251.841 1.82974 -0.933248 0
M  V30 2644 H 250.071 3.80566 0.686031 0
M  V30 2645 H 251.76 4.04457 0.341973 0
M  V30 2646 H 252.526 4.36156 -2.12115 0
M  V30 2647 H 248.405 4.52025 -0.905243 0
M  V30 2648 H 251.949 5.57599 -4.19201 0
M  V30 2649 H 247.846 5.73254 -2.96732 0
M  V30 2650 H 248.614 6.58636 -4.85944 0
M  V30 2651 N 251.277 0.427512 1.51691 0
M  V30 2652 C 252.524 -0.142229 2.02 0
M  V30 2653 C 252.852 -1.43566 1.31221 0
M  V30 2654 O 252.107 -1.91298 0.412744 0
M  V30 2655 C 252.406 -0.418249 3.54944 0
M  V30 2656 C 252.072 0.788187 4.43958 0
M  V30 2657 C 250.734 1.11906 4.68007 0
M  V30 2658 C 253.086 1.59347 4.96244 0
M  V30 2659 C 250.414 2.25608 5.41588 0
M  V30 2660 C 252.766 2.7214 5.71072 0
M  V30 2661 C 251.43 3.05692 5.93387 0
M  V30 2662 H 250.7 -0.0520451 0.73917 0
M  V30 2663 H 253.347 0.572697 1.82736 0
M  V30 2664 H 251.652 -1.21496 3.72486 0
M  V30 2665 H 253.349 -0.872339 3.91397 0
M  V30 2666 H 249.939 0.520344 4.2543 0
M  V30 2667 H 254.123 1.35106 4.77556 0
M  V30 2668 H 249.379 2.51929 5.57083 0
M  V30 2669 H 253.553 3.34914 6.10578 0
M  V30 2670 H 251.18 3.9391 6.50184 0
M  V30 2671 N 252.755 -1.56801 0.158532 0
M  V30 2672 C 253.98 -2.01295 -0.499516 0
M  V30 2673 C 254.405 -1.03799 -1.56867 0
M  V30 2674 O 253.763 -0.0155162 -1.81293 0
M  V30 2675 C 253.811 -3.44469 -1.06647 0
M  V30 2676 O 252.915 -3.50012 -2.18095 0
M  V30 2677 H 252.256 -0.652884 -0.12099 0
M  V30 2678 H 254.786 -2.02958 0.258661 0
M  V30 2679 H 254.796 -3.8351 -1.39227 0
M  V30 2680 H 253.471 -4.14932 -0.283581 0
M  V30 2681 H 252.048 -3.22822 -1.86656 0
M  V30 2682 N 254.233 0.115231 -1.57178 0
M  V30 2683 C 255.481 0.820727 -1.84685 0
M  V30 2684 C 255.802 1.80237 -0.744279 0
M  V30 2685 O 255.072 1.94529 0.231375 0
M  V30 2686 H 253.652 0.306084 -0.681411 0
M  V30 2687 H 256.314 0.101656 -1.94635 0
M  V30 2688 H 255.41 1.36366 -2.80733 0
M  V30 2689 N 255.711 1.52812 0.385517 0
M  V30 2690 C 256.641 1.80808 1.47752 0
M  V30 2691 C 257.622 0.660318 1.5676 0
M  V30 2692 O 258.807 0.908246 1.71652 0
M  V30 2693 C 255.937 1.98008 2.85324 0
M  V30 2694 C 254.891 3.13709 2.91154 0
M  V30 2695 C 254.217 3.16169 4.31209 0
M  V30 2696 C 255.517 4.52709 2.60483 0
M  V30 2697 H 257.211 2.72253 1.24573 0
M  V30 2698 H 254.757 1.31003 0.597839 0
M  V30 2699 H 256.71 2.16176 3.61726 0
M  V30 2700 H 255.434 1.03255 3.09848 0
M  V30 2701 H 254.093 2.95329 2.17201 0
M  V30 2702 H 253.741 2.19092 4.52778 0
M  V30 2703 H 253.441 3.93894 4.36029 0
M  V30 2704 H 254.965 3.36496 5.09512 0
M  V30 2705 H 256.379 4.71173 3.26602 0
M  V30 2706 H 254.776 5.32528 2.76648 0
M  V30 2707 H 255.846 4.59186 1.55809 0
M  V30 2708 N 257.189 -0.644168 1.43834 0
M  V30 2709 C 258.417 -1.43147 1.49387 0
M  V30 2710 C 258.832 -1.88452 0.114583 0
M  V30 2711 O 258.189 -1.60047 -0.876989 0
M  V30 2712 C 258.24 -2.66046 2.44748 0
M  V30 2713 O 257.961 -2.22633 3.77314 0
M  V30 2714 C 259.462 -3.59311 2.59635 0
M  V30 2715 H 256.682 -0.439447 0.507077 0
M  V30 2716 H 259.226 -0.78895 1.88669 0
M  V30 2717 H 257.381 -3.26418 2.08638 0
M  V30 2718 H 257.795 -3.02216 4.28679 0
M  V30 2719 H 259.269 -4.42187 3.30416 0
M  V30 2720 H 259.746 -4.07259 1.64427 0
M  V30 2721 H 260.352 -3.04816 2.96593 0
M  V30 2722 N 258.668 -1.30515 -0.883378 0
M  V30 2723 C 259.631 -1.1701 -1.97082 0
M  V30 2724 C 260.631 -0.10089 -1.60483 0
M  V30 2725 O 261.821 -0.349127 -1.70666 0
M  V30 2726 C 258.953 -0.793045 -3.31547 0
M  V30 2727 H 260.146 -2.13622 -2.10489 0
M  V30 2728 H 257.699 -1.13935 -1.06998 0
M  V30 2729 H 258.434 0.172499 -3.23841 0
M  V30 2730 H 258.219 -1.56576 -3.5948 0
M  V30 2731 H 259.709 -0.722073 -4.1131 0
M  V30 2732 N 260.146 1.09593 -1.13257 0
M  V30 2733 C 261.374 1.855 -0.916378 0
M  V30 2734 C 261.789 1.81069 0.534738 0
M  V30 2735 O 261.146 1.20562 1.37007 0
M  V30 2736 C 261.197 3.33546 -1.39388 0
M  V30 2737 O 260.918 3.37927 -2.78813 0
M  V30 2738 C 262.419 4.26299 -1.21588 0
M  V30 2739 H 259.639 0.585991 -0.326887 0
M  V30 2740 H 262.183 1.38488 -1.5047 0
M  V30 2741 H 260.338 3.77992 -0.848597 0
M  V30 2742 H 260.752 4.30254 -2.9997 0
M  V30 2743 H 262.226 5.28341 -1.59876 0
M  V30 2744 H 262.703 4.38918 -0.157376 0
M  V30 2745 H 263.309 3.87668 -1.7491 0
M  V30 2746 N 261.624 0.925811 1.2754 0
M  V30 2747 C 262.852 0.581509 1.9856 0
M  V30 2748 C 263.267 -0.840041 1.69082 0
M  V30 2749 O 262.624 -1.55805 0.950312 0
M  V30 2750 C 262.675 0.795589 3.52637 0
M  V30 2751 O 262.396 2.16121 3.81082 0
M  V30 2752 C 263.897 0.459744 4.4091 0
M  V30 2753 H 261.117 0.220538 0.633722 0
M  V30 2754 H 263.661 1.24232 1.6244 0
M  V30 2755 H 261.816 0.18161 3.86974 0
M  V30 2756 H 262.23 2.2098 4.75676 0
M  V30 2757 H 263.704 0.660244 5.48037 0
M  V30 2758 H 264.181 -0.604625 4.35018 0
M  V30 2759 H 264.787 1.05178 4.12089 0
M  V30 2760 N 263.102 -1.41638 0.69111 0
M  V30 2761 C 264.065 -2.29178 0.0319786 0
M  V30 2762 C 265.065 -1.44153 -0.712496 0
M  V30 2763 O 266.255 -1.65354 -0.548053 0
M  V30 2764 C 263.387 -3.26952 -0.965161 0
M  V30 2765 H 264.58 -2.88959 0.802681 0
M  V30 2766 H 262.133 -1.4955 0.454356 0
M  V30 2767 H 262.868 -2.72142 -1.76378 0
M  V30 2768 H 262.653 -3.89685 -0.434522 0
M  V30 2769 H 264.143 -3.92561 -1.42428 0
M  V30 2770 N 264.58 -0.43555 -1.51462 0
M  V30 2771 C 265.543 0.365137 -2.26273 0
M  V30 2772 C 266.543 0.951227 -1.29647 0
M  V30 2773 O 267.733 0.825958 -1.53374 0
M  V30 2774 C 264.865 1.51645 -3.05314 0
M  V30 2775 H 266.058 -0.290474 -2.9849 0
M  V30 2776 H 263.611 -0.188676 -1.55157 0
M  V30 2777 H 264.346 2.20816 -2.3751 0
M  V30 2778 H 264.131 1.10238 -3.76284 0
M  V30 2779 H 265.621 2.08218 -3.61987 0
M  V30 2780 N 266.058 1.56714 -0.166846 0
M  V30 2781 C 266.988 2.20754 0.760913 0
M  V30 2782 C 267.969 1.16178 1.24244 0
M  V30 2783 O 269.154 1.44592 1.29641 0
M  V30 2784 C 266.284 2.84478 1.99223 0
M  V30 2785 C 265.238 3.95053 1.64672 0
M  V30 2786 C 264.564 4.45805 2.95232 0
M  V30 2787 C 265.864 5.14865 0.878155 0
M  V30 2788 H 267.558 2.98537 0.22713 0
M  V30 2789 H 265.104 1.43596 0.107805 0
M  V30 2790 H 267.057 3.27951 2.64624 0
M  V30 2791 H 265.781 2.04056 2.55007 0
M  V30 2792 H 264.44 3.52228 1.01641 0
M  V30 2793 H 264.088 3.62181 3.49047 0
M  V30 2794 H 263.788 5.204 2.7287 0
M  V30 2795 H 265.312 4.91962 3.6167 0
M  V30 2796 H 266.726 5.55059 1.43466 0
M  V30 2797 H 265.123 5.95348 0.753738 0
M  V30 2798 H 266.193 4.84735 -0.126377 0
M  V30 2799 N 267.536 -0.106894 1.57237 0
M  V30 2800 C 268.499 -1.11466 2.0027 0
M  V30 2801 C 269.499 -1.33623 0.894519 0
M  V30 2802 O 270.689 -1.29935 1.16028 0
M  V30 2803 C 267.821 -2.46646 2.35327 0
M  V30 2804 H 269.014 -0.744516 2.90512 0
M  V30 2805 H 266.567 -0.351576 1.52295 0
M  V30 2806 H 267.302 -2.88558 1.48003 0
M  V30 2807 H 267.087 -2.31915 3.16161 0
M  V30 2808 H 268.577 -3.19151 2.69318 0
M  V30 2809 N 269.014 -1.53014 -0.377408 0
M  V30 2810 C 269.977 -1.77957 -1.44444 0
M  V30 2811 C 270.977 -0.649763 -1.47087 0
M  V30 2812 O 272.167 -0.917897 -1.48055 0
M  V30 2813 C 269.299 -1.89089 -2.83651 0
M  V30 2814 H 270.492 -2.73243 -1.23606 0
M  V30 2815 H 268.045 -1.43912 -0.609844 0
M  V30 2816 H 268.78 -0.958293 -3.09818 0
M  V30 2817 H 268.565 -2.71254 -2.83132 0
M  V30 2818 H 270.055 -2.1002 -3.60945 0
M  V30 2819 N 270.492 0.636531 -1.44174 0
M  V30 2820 C 271.422 1.76003 -1.53444 0
M  V30 2821 C 272.403 1.65619 -0.387841 0
M  V30 2822 O 273.588 1.84461 -0.607257 0
M  V30 2823 C 270.718 3.14511 -1.4731 0
M  V30 2824 C 269.672 3.39677 -2.60391 0
M  V30 2825 C 268.998 4.78159 -2.39308 0
M  V30 2826 C 270.298 3.32772 -4.02567 0
M  V30 2827 H 271.992 1.68501 -2.47483 0
M  V30 2828 H 269.538 0.809237 -1.19111 0
M  V30 2829 H 271.491 3.92878 -1.52397 0
M  V30 2830 H 270.215 3.22783 -0.49785 0
M  V30 2831 H 268.874 2.63688 -2.54684 0
M  V30 2832 H 268.522 4.83128 -1.39988 0
M  V30 2833 H 268.222 4.95956 -3.15122 0
M  V30 2834 H 269.746 5.58762 -2.46205 0
M  V30 2835 H 271.16 4.01051 -4.09672 0
M  V30 2836 H 269.557 3.62104 -4.7854 0
M  V30 2837 H 270.627 2.30669 -4.2652 0
M  V30 2838 N 271.97 1.30982 0.876444 0
M  V30 2839 C 272.92 1.14688 1.97055 0
M  V30 2840 C 273.904 0.0596593 1.60789 0
M  V30 2841 O 275.096 0.283892 1.74708 0
M  V30 2842 C 272.225 0.849627 3.3262 0
M  V30 2843 C 271.311 1.97752 3.75173 0
M  V30 2844 N 271.702 3.22384 3.89746 0
M  V30 2845 C 270 1.8758 4.04635 0
M  V30 2846 C 270.701 3.96121 4.25985 0
M  V30 2847 N 269.677 3.24237 4.36315 0
M  V30 2848 H 273.479 2.09204 2.06424 0
M  V30 2849 H 270.993 1.22445 1.06682 0
M  V30 2850 H 272.99 0.713895 4.10742 0
M  V30 2851 H 271.65 -0.087376 3.24582 0
M  V30 2852 H 272.661 3.57575 3.74647 0
M  V30 2853 H 269.338 1.01303 4.05024 0
M  V30 2854 H 270.728 5.03491 4.44911 0
M  V30 2855 N 273.449 -1.08991 1.13837 0
M  V30 2856 C 274.396 -2.15748 0.819835 0
M  V30 2857 C 275.366 -1.64636 -0.220026 0
M  V30 2858 O 276.551 -1.90582 -0.0912757 0
M  V30 2859 C 273.691 -3.4382 0.296913 0
M  V30 2860 C 272.804 -4.0881 1.39636 0
M  V30 2861 C 271.939 -5.24655 0.831314 0
M  V30 2862 C 270.978 -5.81575 1.90886 0
M  V30 2863 N 270.115 -6.88774 1.36142 0
M  V30 2864 H 274.955 -2.42338 1.73426 0
M  V30 2865 H 272.492 -1.18935 0.865613 0
M  V30 2866 H 274.45 -4.17193 -0.0244339 0
M  V30 2867 H 273.08 -3.17535 -0.580628 0
M  V30 2868 H 272.132 -3.33258 1.83422 0
M  V30 2869 H 273.444 -4.47141 2.21058 0
M  V30 2870 H 272.598 -6.04942 0.461515 0
M  V30 2871 H 271.337 -4.87698 -0.013932 0
M  V30 2872 H 270.342 -4.99946 2.28767 0
M  V30 2873 H 271.567 -6.20592 2.75758 0
M  V30 2874 H 269.513 -6.53788 0.538254 0
M  V30 2875 H 269.43 -7.25898 2.11208 0
M  V30 2876 H 270.698 -7.72806 1.01933 0
M  V30 2877 N 274.927 -0.932562 -1.27047 0
M  V30 2878 C 276.173 -0.576412 -1.94436 0
M  V30 2879 C 276.506 0.880891 -1.73072 0
M  V30 2880 O 275.781 1.62905 -1.06264 0
M  V30 2881 C 276.064 -0.909031 -3.48437 0
M  V30 2882 C 275.917 -2.42044 -3.79123 0
M  V30 2883 C 277.236 -0.418341 -4.38107 0
M  V30 2884 H 274.355 -0.210888 -0.706184 0
M  V30 2885 H 276.997 -1.16522 -1.50075 0
M  V30 2886 H 275.147 -0.407947 -3.86352 0
M  V30 2887 H 276.819 -2.99359 -3.50973 0
M  V30 2888 H 275.062 -2.86758 -3.25503 0
M  V30 2889 H 275.733 -2.6037 -4.86736 0
M  V30 2890 H 278.209 -0.847856 -4.0737 0
M  V30 2891 H 277.085 -0.679981 -5.44672 0
M  V30 2892 H 277.346 0.681642 -4.36814 0
M  V30 2893 N 276.405 1.4127 -0.698611 0
M  V30 2894 C 277.821 1.55241 -0.370462 0
M  V30 2895 C 278.021 1.67351 1.12231 0
M  V30 2896 O 277.077 1.65363 1.90818 0
M  V30 2897 C 278.39 2.78997 -1.12165 0
M  V30 2898 C 279.938 2.92797 -1.1063 0
M  V30 2899 C 280.413 4.19445 -1.8393 0
M  V30 2900 N 281.904 4.26409 -1.80914 0
M  V30 2901 C 282.639 5.23271 -2.34467 0
M  V30 2902 N 282.135 6.26145 -2.96504 0
M  V30 2903 N 283.928 5.15232 -2.24706 0
M  V30 2904 H 276.079 1.31654 -1.66676 0
M  V30 2905 H 278.342 0.635393 -0.703548 0
M  V30 2906 H 278.048 2.76268 -2.17644 0
M  V30 2907 H 277.922 3.70606 -0.702209 0
M  V30 2908 H 280.309 2.95039 -0.0597713 0
M  V30 2909 H 280.39 2.02353 -1.56483 0
M  V30 2910 H 280.034 4.17964 -2.88563 0
M  V30 2911 H 279.964 5.08866 -1.35509 0
M  V30 2912 H 282.455 3.527 -1.35687 0
M  V30 2913 H 282.768 6.96451 -3.34927 0
M  V30 2914 H 281.113 6.26638 -3.00583 0
M  V30 2915 H 284.304 4.33789 -1.7591 0
M  V30 2916 H 284.477 5.90552 -2.66745 0
M  V30 2917 N 277.883 0.443576 1.51229 0
M  V30 2918 C 278.793 -0.370721 2.31652 0
M  V30 2919 C 279.809 -1.02186 1.40833 0
M  V30 2920 O 280.985 -1.01586 1.73903 0
M  V30 2921 C 278.05 -1.45376 3.14749 0
M  V30 2922 C 277.111 -0.822099 4.21355 0
M  V30 2923 C 276.344 -1.85353 5.0048 0
M  V30 2924 O 276.567 -3.07656 4.80316 0
M  V30 2925 O 275.501 -1.4406 5.84406 0
M  V30 2926 H 279.327 0.286002 3.0235 0
M  V30 2927 H 276.912 0.20598 1.47973 0
M  V30 2928 H 278.794 -2.08173 3.66391 0
M  V30 2929 H 277.469 -2.09445 2.46809 0
M  V30 2930 H 276.376 -0.155909 3.73775 0
M  V30 2931 H 277.709 -0.224797 4.91686 0
M  V30 2932 N 279.361 -1.56624 0.175154 0
M  V30 2933 C 280.589 -2.01374 -0.474971 0
M  V30 2934 C 281.004 -1.05537 -1.56548 0
M  V30 2935 O 280.361 -0.0568668 -1.82411 0
M  V30 2936 C 280.412 -3.45923 -1.04975 0
M  V30 2937 O 280.133 -4.381 -0.00276605 0
M  V30 2938 C 281.634 -4.06093 -1.77773 0
M  V30 2939 H 278.854 -0.659962 -0.121206 0
M  V30 2940 H 281.398 -2.02601 0.27801 0
M  V30 2941 H 279.553 -3.45458 -1.75321 0
M  V30 2942 H 279.967 -5.22753 -0.427681 0
M  V30 2943 H 281.441 -5.09147 -2.13245 0
M  V30 2944 H 281.918 -3.48405 -2.67414 0
M  V30 2945 H 282.524 -4.10272 -1.12059 0
M  V30 2946 N 280.839 0.0985539 -1.57292 0
M  V30 2947 C 282.087 0.801092 -1.85545 0
M  V30 2948 C 282.408 1.79438 -0.763353 0
M  V30 2949 O 281.678 1.94763 0.21073 0
M  V30 2950 H 280.258 0.29884 -0.684619 0
M  V30 2951 H 282.92 0.0810064 -1.94732 0
M  V30 2952 H 282.016 1.3338 -2.82163 0
M  V30 2953 N 282.317 1.53212 0.369288 0
M  V30 2954 C 283.264 1.79388 1.45219 0
M  V30 2955 C 284.234 0.638059 1.53356 0
M  V30 2956 O 285.419 0.879852 1.69302 0
M  V30 2957 C 282.559 1.98623 2.82211 0
M  V30 2958 C 281.672 3.26337 2.8307 0
M  V30 2959 C 280.807 3.35779 4.11614 0
M  V30 2960 C 279.846 4.5754 4.06601 0
M  V30 2961 N 278.983 4.64155 5.26787 0
M  V30 2962 H 283.823 2.71794 1.22198 0
M  V30 2963 H 281.36 1.34642 0.592444 0
M  V30 2964 H 283.318 2.07761 3.61789 0
M  V30 2965 H 281.948 1.09558 3.03639 0
M  V30 2966 H 281 3.26171 1.95747 0
M  V30 2967 H 282.312 4.15988 2.75237 0
M  V30 2968 H 281.466 3.44208 4.99606 0
M  V30 2969 H 280.205 2.44137 4.22195 0
M  V30 2970 H 279.21 4.49215 3.16996 0
M  V30 2971 H 280.435 5.50519 3.97625 0
M  V30 2972 H 278.381 3.75413 5.3796 0
M  V30 2973 H 278.298 5.47706 5.21109 0
M  V30 2974 H 279.566 4.76863 6.16621 0
M  V30 2975 N 283.795 -0.628877 1.44509 0
M  V30 2976 C 285.043 -1.38565 1.4712 0
M  V30 2977 C 285.364 -1.94712 0.105899 0
M  V30 2978 O 284.634 -1.75912 -0.862079 0
M  V30 2979 H 283.214 -0.514333 0.541729 0
M  V30 2980 H 285.876 -0.740018 1.80305 0
M  V30 2981 H 284.972 -2.21583 2.19789 0
M  V30 2982 N 285.273 -1.31445 -0.869486 0
M  V30 2983 C 286.183 -1.21097 -2.0093 0
M  V30 2984 C 287.199 -0.127584 -1.73532 0
M  V30 2985 O 288.375 -0.345477 -1.98415 0
M  V30 2986 C 285.44 -0.919378 -3.34288 0
M  V30 2987 C 284.501 -2.08971 -3.75006 0
M  V30 2988 C 283.734 -1.81194 -5.02001 0
M  V30 2989 O 283.957 -0.747296 -5.65484 0
M  V30 2990 O 282.891 -2.66883 -5.39497 0
M  V30 2991 H 286.717 -2.16883 -2.12592 0
M  V30 2992 H 284.302 -1.11189 -0.997868 0
M  V30 2993 H 286.184 -0.772625 -4.14257 0
M  V30 2994 H 284.859 0.00844772 -3.23699 0
M  V30 2995 H 283.766 -2.29187 -2.95676 0
M  V30 2996 H 285.099 -2.9998 -3.90221 0
M  V30 2997 N 286.751 1.08385 -1.14413 0
M  V30 2998 C 287.976 1.85057 -0.936413 0
M  V30 2999 C 288.401 1.81055 0.509971 0
M  V30 3000 O 287.759 1.1958 1.36273 0
M  V30 3001 C 287.807 3.30505 -1.44217 0
M  V30 3002 O 286.911 4.07491 -0.634409 0
M  V30 3003 H 286.252 0.573425 -0.334784 0
M  V30 3004 H 288.782 1.36799 -1.52142 0
M  V30 3005 H 288.792 3.81348 -1.45043 0
M  V30 3006 H 287.467 3.32734 -2.49522 0
M  V30 3007 H 286.044 3.66368 -0.694902 0
M  V30 3008 N 288.23 0.939286 1.26551 0
M  V30 3009 C 289.479 0.581601 1.93133 0
M  V30 3010 C 289.792 -0.883224 1.74524 0
M  V30 3011 O 290.998 -1.3502 2.35546 0
M  V30 3012 C 289.454 0.989425 3.46032 0
M  V30 3013 C 289.062 2.47573 3.73379 0
M  V30 3014 C 290.806 0.703544 4.18629 0
M  V30 3015 C 288.713 2.82235 5.19709 0
M  V30 3016 H 287.643 0.213803 0.723052 0
M  V30 3017 H 290.294 1.14167 1.4366 0
M  V30 3018 H 288.676 0.357902 3.94379 0
M  V30 3019 H 289.85 3.15614 3.35744 0
M  V30 3020 H 288.165 2.73471 3.1401 0
M  V30 3021 H 290.762 0.938869 5.26393 0
M  V30 3022 H 291.105 -0.359639 4.14744 0
M  V30 3023 H 291.638 1.2947 3.76141 0
M  V30 3024 H 288.377 3.87509 5.28694 0
M  V30 3025 H 287.897 2.18854 5.58447 0
M  V30 3026 H 289.576 2.70599 5.87695 0
M  V30 3027 N 289.708 -1.40897 0.706093 0
M  V30 3028 C 290.985 -1.94868 0.169099 0
M  V30 3029 C 291.365 -1.64485 -1.32318 0
M  V30 3030 O 290.713 -0.95744 -2.07474 0
M  V30 3031 C 290.923 -3.45798 0.471654 0
M  V30 3032 C 292.271 -4.22663 0.405127 0
M  V30 3033 O 293.295 -3.53865 0.407168 0
M  V30 3034 O 292.154 -5.45216 0.374383 0
M  V30 3035 H 289.248 -0.82673 0.0211352 0
M  V30 3036 H 291.794 -1.50558 0.782976 0
M  V30 3037 H 290.566 -3.61235 1.50416 0
M  V30 3038 H 290.189 -3.97225 -0.172666 0
M  V30 3039 N 291.186 -0.45159 -1.50991 0
M  V30 3040 C 292.435 0.111653 -2.01391 0
M  V30 3041 C 292.748 1.42529 -1.33959 0
M  V30 3042 O 293.954 2.07232 -1.75405 0
M  V30 3043 C 292.41 0.249514 -3.59034 0
M  V30 3044 C 292.018 -1.05453 -4.35412 0
M  V30 3045 C 293.762 0.765762 -4.17536 0
M  V30 3046 C 291.669 -0.881529 -5.84793 0
M  V30 3047 H 290.599 0.0455022 -0.752626 0
M  V30 3048 H 293.25 -0.583524 -1.73975 0
M  V30 3049 H 291.632 1.00803 -3.82955 0
M  V30 3050 H 292.806 -1.82248 -4.23229 0
M  V30 3051 H 291.121 -1.50039 -3.88429 0
M  V30 3052 H 293.718 0.911913 -5.26866 0
M  V30 3053 H 294.061 1.75201 -3.77638 0
M  V30 3054 H 294.594 0.0651744 -3.97747 0
M  V30 3055 H 291.333 -1.84057 -6.29129 0
M  V30 3056 H 290.853 -0.153625 -5.99603 0
M  V30 3057 H 292.532 -0.540363 -6.4474 0
M  V30 3058 N 292.664 1.56529 -0.183458 0
M  V30 3059 C 293.627 2.17324 0.728223 0
M  V30 3060 C 294.627 1.12453 1.14939 0
M  V30 3061 O 295.817 1.37902 1.06437 0
M  V30 3062 C 292.949 2.76591 1.99274 0
M  V30 3063 H 294.142 2.99241 0.198772 0
M  V30 3064 H 291.695 1.5616 0.0661391 0
M  V30 3065 H 292.43 1.98441 2.56499 0
M  V30 3066 H 292.215 3.5335 1.69959 0
M  V30 3067 H 293.705 3.23311 2.6431 0
M  V30 3068 N 294.142 -0.090211 1.57342 0
M  V30 3069 C 295.075 -1.14035 1.97664 0
M  V30 3070 C 296.053 -1.38576 0.850616 0
M  V30 3071 O 297.237 -1.52255 1.11134 0
M  V30 3072 C 294.364 -2.48854 2.2976 0
M  V30 3073 C 293.41 -2.40564 3.52181 0
M  V30 3074 S 294.243 -1.81745 5.03715 0
M  V30 3075 C 295.399 -3.18178 5.38993 0
M  V30 3076 H 295.632 -0.796636 2.86428 0
M  V30 3077 H 293.165 -0.298072 1.51496 0
M  V30 3078 H 295.123 -3.26413 2.48927 0
M  V30 3079 H 293.784 -2.80393 1.41558 0
M  V30 3080 H 292.977 -3.39942 3.72096 0
M  V30 3081 H 292.579 -1.71135 3.32549 0
M  V30 3082 H 294.871 -4.14461 5.35937 0
M  V30 3083 H 295.814 -3.03062 6.39968 0
M  V30 3084 H 296.222 -3.17935 4.66452 0
M  V30 3085 N 295.62 -1.53406 -0.361157 0
M  V30 3086 C 296.85 -1.73465 -1.1222 0
M  V30 3087 C 297.258 -0.465486 -1.83384 0
M  V30 3088 O 296.601 0.571611 -1.7458 0
M  V30 3089 C 296.663 -2.84834 -2.19339 0
M  V30 3090 C 296.327 -4.25038 -1.67903 0
M  V30 3091 C 297.324 -5.07231 -1.14074 0
M  V30 3092 C 295.009 -4.71464 -1.73282 0
M  V30 3093 C 297.003 -6.33942 -0.663068 0
M  V30 3094 C 294.69 -5.98153 -1.25127 0
M  V30 3095 C 295.688 -6.79223 -0.717296 0
M  V30 3096 O 295.376 -8.03533 -0.242865 0
M  V30 3097 H 295.108 -0.583526 -0.341283 0
M  V30 3098 H 297.662 -2.00964 -0.424591 0
M  V30 3099 H 295.892 -2.5282 -2.92607 0
M  V30 3100 H 297.581 -2.9303 -2.80871 0
M  V30 3101 H 298.347 -4.72534 -1.09254 0
M  V30 3102 H 294.226 -4.08432 -2.13786 0
M  V30 3103 H 297.77 -6.97167 -0.245612 0
M  V30 3104 H 293.667 -6.32347 -1.29642 0
M  V30 3105 H 294.435 -8.177 -0.361786 0
M  V30 3106 N 297.098 0.621204 -1.44841 0
M  V30 3107 C 298.008 1.7612 -1.5498 0
M  V30 3108 C 299.024 1.68477 -0.434927 0
M  V30 3109 O 300.2 1.89076 -0.693693 0
M  V30 3110 C 297.265 3.1254 -1.50065 0
M  V30 3111 C 296.326 3.31741 -2.72482 0
M  V30 3112 C 295.559 4.61653 -2.67792 0
M  V30 3113 O 295.782 5.431 -1.74352 0
M  V30 3114 O 294.716 4.83271 -3.58794 0
M  V30 3115 H 298.542 1.70518 -2.51311 0
M  V30 3116 H 296.127 0.783643 -1.27198 0
M  V30 3117 H 298.009 3.93844 -1.49882 0
M  V30 3118 H 296.684 3.18663 -0.568806 0
M  V30 3119 H 295.591 2.50077 -2.7823 0
M  V30 3120 H 296.924 3.30486 -3.64746 0
M  V30 3121 N 298.576 1.31904 0.862503 0
M  V30 3122 C 299.822 1.22197 1.61851 0
M  V30 3123 C 300.155 -0.217641 1.92977 0
M  V30 3124 O 299.43 -1.15264 1.56666 0
M  V30 3125 C 299.713 2.07378 2.94391 0
M  V30 3126 C 299.566 3.59678 2.70096 0
M  V30 3127 C 300.885 1.92891 3.95577 0
M  V30 3128 H 298.004 0.445255 0.587296 0
M  V30 3129 H 300.646 1.6177 0.99651 0
M  V30 3130 H 298.796 1.73758 3.47477 0
M  V30 3131 H 300.468 4.03472 2.23625 0
M  V30 3132 H 298.711 3.82735 2.04197 0
M  V30 3133 H 299.382 4.14595 3.64438 0
M  V30 3134 H 301.858 2.22327 3.51724 0
M  V30 3135 H 300.734 2.54781 4.86187 0
M  V30 3136 H 300.995 0.894315 4.3296 0
M  V30 3137 N 300.054 -1.07777 1.14986 0
M  V30 3138 C 300.987 -2.14228 0.786243 0
M  V30 3139 C 301.965 -1.60888 -0.235347 0
M  V30 3140 O 303.149 -1.88099 -0.122909 0
M  V30 3141 C 300.276 -3.38281 0.168433 0
M  V30 3142 C 299.322 -4.10387 1.16123 0
M  V30 3143 S 300.155 -4.62371 2.70135 0
M  V30 3144 C 301.311 -5.89704 2.09762 0
M  V30 3145 H 301.544 -2.44741 1.68787 0
M  V30 3146 H 299.077 -1.19984 0.971756 0
M  V30 3147 H 301.035 -4.10098 -0.181588 0
M  V30 3148 H 299.696 -3.05953 -0.710725 0
M  V30 3149 H 298.889 -4.99431 0.677086 0
M  V30 3150 H 298.491 -3.44513 1.45556 0
M  V30 3151 H 300.783 -6.61648 1.45701 0
M  V30 3152 H 301.726 -6.42824 2.96955 0
M  V30 3153 H 302.134 -5.4302 1.54239 0
M  V30 3154 N 301.532 -0.945985 -1.26051 0
M  V30 3155 C 302.462 -0.477172 -2.28572 0
M  V30 3156 C 303.443 0.472032 -1.63419 0
M  V30 3157 O 304.628 0.372853 -1.90587 0
M  V30 3158 C 301.758 0.253975 -3.4637 0
M  V30 3159 C 300.712 -0.609135 -4.23643 0
M  V30 3160 C 300.038 0.252252 -5.34105 0
M  V30 3161 C 301.338 -1.8829 -4.8718 0
M  V30 3162 H 303.032 -1.33402 -2.68038 0
M  V30 3163 H 300.578 -0.642904 -1.28852 0
M  V30 3164 H 302.531 0.593016 -4.17207 0
M  V30 3165 H 301.255 1.145 -3.05871 0
M  V30 3166 H 299.914 -0.931138 -3.54578 0
M  V30 3167 H 299.562 1.14278 -4.89846 0
M  V30 3168 H 299.262 -0.32188 -5.86718 0
M  V30 3169 H 300.786 0.586454 -6.07777 0
M  V30 3170 H 302.2 -1.61081 -5.50205 0
M  V30 3171 H 300.597 -2.40199 -5.49931 0
M  V30 3172 H 301.667 -2.59134 -4.09851 0
M  V30 3173 N 303.011 1.40521 -0.713556 0
M  V30 3174 C 304.427 1.54839 -0.386907 0
M  V30 3175 C 304.627 1.68532 1.1045 0
M  V30 3176 O 303.683 1.67377 1.89053 0
M  V30 3177 C 304.996 2.77792 -1.15118 0
M  V30 3178 C 306.544 2.91607 -1.13729 0
M  V30 3179 C 307.019 4.1747 -1.88368 0
M  V30 3180 N 308.51 4.24466 -1.85427 0
M  V30 3181 C 309.245 5.20755 -2.40004 0
M  V30 3182 N 308.741 6.22965 -3.03129 0
M  V30 3183 N 310.534 5.1282 -2.30158 0
M  V30 3184 H 302.685 1.29879 -1.68063 0
M  V30 3185 H 304.948 0.627896 -0.710247 0
M  V30 3186 H 304.654 2.73944 -2.20561 0
M  V30 3187 H 304.528 3.6984 -0.741477 0
M  V30 3188 H 306.915 2.94959 -0.0910608 0
M  V30 3189 H 306.996 2.00682 -1.5862 0
M  V30 3190 H 306.64 4.1488 -2.9298 0
M  V30 3191 H 306.57 5.074 -1.40898 0
M  V30 3192 H 309.061 3.51241 -1.3942 0
M  V30 3193 H 309.374 6.92859 -3.42295 0
M  V30 3194 H 307.719 6.23415 -3.07212 0
M  V30 3195 H 310.91 4.31899 -1.80501 0
M  V30 3196 H 311.083 5.87689 -2.72993 0
M  V30 3197 N 304.489 0.459591 1.5075 0
M  V30 3198 C 305.422 -0.386257 2.24907 0
M  V30 3199 C 306.4 -1.006 1.27744 0
M  V30 3200 O 307.584 -1.04416 1.56938 0
M  V30 3201 C 304.711 -1.54021 3.01654 0
M  V30 3202 C 303.757 -1.03898 4.13651 0
M  V30 3203 S 304.59 0.0370501 5.35487 0
M  V30 3204 C 305.746 -1.12105 6.15779 0
M  V30 3205 H 305.979 0.243272 2.96303 0
M  V30 3206 H 303.512 0.244339 1.52454 0
M  V30 3207 H 305.47 -2.20163 3.46466 0
M  V30 3208 H 304.131 -2.14121 2.29806 0
M  V30 3209 H 303.324 -1.90254 4.66711 0
M  V30 3210 H 302.926 -0.45545 3.71216 0
M  V30 3211 H 305.218 -2.03501 6.46215 0
M  V30 3212 H 306.161 -0.62995 7.05292 0
M  V30 3213 H 306.569 -1.36967 5.47631 0
M  V30 3214 N 305.967 -1.56429 0.191757 0
M  V30 3215 C 307.215 -1.97095 -0.447006 0
M  V30 3216 C 307.536 -1.07967 -1.62383 0
M  V30 3217 O 306.806 -0.150248 -1.95323 0
M  V30 3218 H 305.386 -0.727832 -0.168135 0
M  V30 3219 H 308.048 -1.92911 0.27771 0
M  V30 3220 H 307.144 -3.01848 -0.793371 0
M  V30 3221 N 307.445 0.0818655 -1.57387 0
M  V30 3222 C 308.377 1.12484 -1.997 0
M  V30 3223 C 309.39 1.35564 -0.90146 0
M  V30 3224 O 310.579 1.33982 -1.17945 0
M  V30 3225 C 307.679 2.47778 -2.31213 0
M  V30 3226 C 306.852 2.44793 -3.62485 0
M  V30 3227 C 305.911 3.62117 -3.81782 0
M  V30 3228 O 304.937 3.44005 -4.53486 0
M  V30 3229 N 306.139 4.82094 -3.23367 0
M  V30 3230 H 308.904 0.764585 -2.89783 0
M  V30 3231 H 306.465 0.270664 -1.59621 0
M  V30 3232 H 308.457 3.24891 -2.41304 0
M  V30 3233 H 307.027 2.75843 -1.4707 0
M  V30 3234 H 306.247 1.53134 -3.6324 0
M  V30 3235 H 307.535 2.39889 -4.48699 0
M  V30 3236 H 306.933 4.99713 -2.65148 0
M  V30 3237 H 305.49 5.56753 -3.38923 0
M  V30 3238 N 308.923 1.53595 0.353017 0
M  V30 3239 C 310.153 1.74058 1.11299 0
M  V30 3240 C 310.561 0.475205 1.83135 0
M  V30 3241 O 309.904 -0.562344 1.74881 0
M  V30 3242 C 309.966 2.85994 2.17825 0
M  V30 3243 C 309.63 4.25923 1.65647 0
M  V30 3244 C 310.627 5.07829 1.11383 0
M  V30 3245 C 308.312 4.72377 1.7078 0
M  V30 3246 C 310.306 6.34285 0.629439 0
M  V30 3247 C 307.993 5.98808 1.21953 0
M  V30 3248 C 308.991 6.79594 0.681265 0
M  V30 3249 O 308.679 8.03651 0.200248 0
M  V30 3250 H 308.411 0.585327 0.338183 0
M  V30 3251 H 310.965 2.01186 0.413927 0
M  V30 3252 H 309.195 2.54368 2.91262 0
M  V30 3253 H 310.884 2.94515 2.79313 0
M  V30 3254 H 311.65 4.73107 1.06746 0
M  V30 3255 H 307.529 4.0956 2.11617 0
M  V30 3256 H 311.073 6.97288 0.208636 0
M  V30 3257 H 306.97 6.33026 1.26287 0
M  V30 3258 H 307.738 8.1788 0.318416 0
M  V30 3259 N 310.401 -0.613514 1.45168 0
M  V30 3260 C 311.648 -1.37268 1.48875 0
M  V30 3261 C 311.976 -1.94077 0.128161 0
M  V30 3262 O 311.231 -1.75178 -0.872416 0
M  V30 3263 C 311.53 -2.54347 2.51083 0
M  V30 3264 C 311.196 -2.1572 3.95949 0
M  V30 3265 C 309.858 -2.04899 4.35396 0
M  V30 3266 C 312.21 -1.85485 4.87078 0
M  V30 3267 C 309.538 -1.62057 5.63875 0
M  V30 3268 C 311.89 -1.4413 6.15962 0
M  V30 3269 C 310.554 -1.31863 6.54346 0
M  V30 3270 H 309.824 -0.502299 0.544773 0
M  V30 3271 H 312.471 -0.694021 1.78481 0
M  V30 3272 H 310.776 -3.27524 2.15024 0
M  V30 3273 H 312.473 -3.12577 2.51191 0
M  V30 3274 H 309.063 -2.25066 3.64751 0
M  V30 3275 H 313.247 -1.92745 4.57343 0
M  V30 3276 H 308.503 -1.51177 5.92415 0
M  V30 3277 H 312.677 -1.19778 6.86022 0
M  V30 3278 H 310.304 -0.984392 7.538 0
M  V30 3279 N 311.879 -1.3236 -0.855495 0
M  V30 3280 C 312.812 -1.15559 -1.96777 0
M  V30 3281 C 313.79 -0.0552681 -1.62506 0
M  V30 3282 O 314.974 -0.214419 -1.87277 0
M  V30 3283 C 312.101 -0.768851 -3.29858 0
M  V30 3284 C 311.147 -1.87429 -3.83109 0
M  V30 3285 S 311.98 -3.48243 -4.06801 0
M  V30 3286 C 313.136 -3.11539 -5.42858 0
M  V30 3287 H 313.369 -2.09717 -2.10727 0
M  V30 3288 H 310.902 -1.17011 -1.00737 0
M  V30 3289 H 312.86 -0.55248 -4.06765 0
M  V30 3290 H 311.521 0.153857 -3.13723 0
M  V30 3291 H 310.714 -1.55667 -4.79358 0
M  V30 3292 H 310.316 -2.04647 -3.13042 0
M  V30 3293 H 312.608 -2.61331 -6.2507 0
M  V30 3294 H 313.551 -4.06806 -5.79582 0
M  V30 3295 H 313.959 -2.48582 -5.06821 0
M  V30 3296 N 313.357 1.07166 -1.15556 0
M  V30 3297 C 314.29 2.13808 -0.797593 0
M  V30 3298 C 315.268 1.6101 0.226812 0
M  V30 3299 O 316.452 1.88161 0.112932 0
M  V30 3300 C 313.579 3.38187 -0.186371 0
M  V30 3301 C 312.625 4.09766 -1.18297 0
M  V30 3302 S 313.458 4.60932 -2.72584 0
M  V30 3303 C 314.614 5.88583 -2.12886 0
M  V30 3304 H 314.847 2.43843 -1.70083 0
M  V30 3305 H 312.38 1.19467 -0.978106 0
M  V30 3306 H 314.338 4.10189 0.159837 0
M  V30 3307 H 312.999 3.06326 0.694489 0
M  V30 3308 H 312.192 4.99065 -0.703562 0
M  V30 3309 H 311.794 3.43736 -1.47381 0
M  V30 3310 H 314.086 6.60866 -1.49208 0
M  V30 3311 H 315.029 6.41241 -3.0036 0
M  V30 3312 H 315.437 5.42194 -1.57116 0
M  V30 3313 N 314.835 0.952656 1.25548 0
M  V30 3314 C 316.112 0.523818 1.88456 0
M  V30 3315 C 316.492 -0.998871 1.85973 0
M  V30 3316 O 315.84 -1.86381 1.3219 0
M  V30 3317 C 316.05 1.0982 3.31271 0
M  V30 3318 C 317.398 1.17385 4.08051 0
M  V30 3319 O 318.422 1.04961 3.40384 0
M  V30 3320 O 317.281 1.36852 5.29088 0
M  V30 3321 H 314.375 0.172485 0.808813 0
M  V30 3322 H 316.921 1.04596 1.33633 0
M  V30 3323 H 315.693 2.1415 3.27499 0
M  V30 3324 H 315.316 0.559191 3.93648 0
M  V30 3325 N 316.313 -1.40141 0.720998 0
M  V30 3326 C 317.543 -2.04798 0.27226 0
M  V30 3327 C 317.951 -1.54442 -1.09289 0
M  V30 3328 O 317.294 -0.698342 -1.69908 0
M  V30 3329 C 317.356 -3.59048 0.18027 0
M  V30 3330 C 317.02 -4.32317 1.48159 0
M  V30 3331 C 318.017 -4.59902 2.42458 0
M  V30 3332 C 315.702 -4.71125 1.74202 0
M  V30 3333 C 317.696 -5.25288 3.61042 0
M  V30 3334 C 315.383 -5.36242 2.93066 0
M  V30 3335 C 316.381 -5.63254 3.86308 0
M  V30 3336 O 316.069 -6.27024 5.03086 0
M  V30 3337 H 315.801 -0.665419 0.119139 0
M  V30 3338 H 318.355 -1.80436 0.981432 0
M  V30 3339 H 316.585 -3.82251 -0.58489 0
M  V30 3340 H 318.274 -4.05221 -0.234618 0
M  V30 3341 H 319.04 -4.30379 2.23604 0
M  V30 3342 H 314.919 -4.49466 1.02477 0
M  V30 3343 H 318.463 -5.46289 4.33837 0
M  V30 3344 H 314.36 -5.65185 3.11826 0
M  V30 3345 H 315.128 -6.4552 5.03235 0
M  V30 3346 N 317.792 -0.46758 -1.50504 0
M  V30 3347 C 319.039 0.0886219 -2.02306 0
M  V30 3348 C 319.367 1.40037 -1.34981 0
M  V30 3349 O 318.622 1.90136 -0.463318 0
M  V30 3350 C 318.921 0.323995 -3.55928 0
M  V30 3351 C 318.587 -0.905618 -4.41712 0
M  V30 3352 C 317.249 -1.24275 -4.64875 0
M  V30 3353 C 319.601 -1.72448 -4.91845 0
M  V30 3354 C 316.929 -2.39888 -5.35417 0
M  V30 3355 C 319.281 -2.87185 -5.63656 0
M  V30 3356 C 317.945 -3.21317 -5.85074 0
M  V30 3357 H 317.215 0.0324291 -0.74029 0
M  V30 3358 H 319.862 -0.620945 -1.81153 0
M  V30 3359 H 318.167 1.11577 -3.75577 0
M  V30 3360 H 319.864 0.76826 -3.93572 0
M  V30 3361 H 316.454 -0.632956 -4.239 0
M  V30 3362 H 320.638 -1.4772 -4.73806 0
M  V30 3363 H 315.894 -2.66611 -5.50208 0
M  V30 3364 H 320.068 -3.50985 -6.01484 0
M  V30 3365 H 317.695 -4.1101 -6.39511 0
M  V30 3366 N 319.27 1.56325 -0.20005 0
M  V30 3367 C 320.218 2.20666 0.735482 0
M  V30 3368 C 321.212 1.17934 1.21605 0
M  V30 3369 O 322.418 1.36068 1.17837 0
M  V30 3370 H 318.793 0.70725 0.255542 0
M  V30 3371 H 320.764 2.9792 0.169166 0
M  V30 3372 C 319.513 2.88391 1.94232 0
M  V30 3373 H 318.836 3.67185 1.58161 0
M  V30 3374 H 320.276 3.3684 2.57517 0
M  V30 3375 C 318.735 1.89692 2.78421 0
M  V30 3376 O 319.265 1.40032 3.76502 0
M  V30 3377 N 317.471 1.57813 2.44015 0
M  V30 3378 H 317.018 1.9839 1.64314 0
M  V30 3379 H 316.976 0.920325 3.00628 0
M  V30 3380 N 320.748 -0.0735177 1.57428 0
M  V30 3381 C 321.996 -0.771472 1.86796 0
M  V30 3382 C 322.317 -1.78201 0.791804 0
M  V30 3383 O 321.587 -1.95074 -0.179718 0
M  V30 3384 H 320.167 -0.28791 0.689287 0
M  V30 3385 H 322.829 -0.0500161 1.94836 0
M  V30 3386 H 321.925 -1.28874 2.8425 0
M  V30 3387 N 322.226 -1.5378 -0.344866 0
M  V30 3388 C 323.474 -1.70625 -1.08311 0
M  V30 3389 C 323.795 -0.471447 -1.89215 0
M  V30 3390 O 323.065 0.514616 -1.8902 0
M  V30 3391 H 321.645 -0.629058 -0.402859 0
M  V30 3392 H 324.307 -1.9103 -0.386459 0
M  V30 3393 H 323.403 -2.57656 -1.76124 0
M  V30 3394 N 323.704 0.605807 -1.45491 0
M  V30 3395 C 324.614 1.74466 -1.56839 0
M  V30 3396 C 325.63 1.68006 -0.452772 0
M  V30 3397 O 326.806 1.8833 -0.713708 0
M  V30 3398 C 323.871 3.10931 -1.53371 0
M  V30 3399 C 322.932 3.28832 -2.75986 0
M  V30 3400 C 322.165 4.58787 -2.72673 0
M  V30 3401 O 322.388 5.4122 -1.80102 0
M  V30 3402 O 321.322 4.79438 -3.63899 0
M  V30 3403 H 325.148 1.67843 -2.53106 0
M  V30 3404 H 322.733 0.770108 -1.28022 0
M  V30 3405 H 324.615 3.92233 -1.54051 0
M  V30 3406 H 323.29 3.18042 -0.602572 0
M  V30 3407 H 322.197 2.47112 -2.80867 0
M  V30 3408 H 323.53 3.26599 -3.68231 0
M  V30 3409 N 325.182 1.32811 0.848464 0
M  V30 3410 C 326.115 1.16601 1.96162 0
M  V30 3411 C 327.093 0.0638855 1.62474 0
M  V30 3412 O 328.277 0.224348 1.8716 0
M  V30 3413 C 325.404 0.786333 3.29446 0
M  V30 3414 C 324.45 1.89459 3.8211 0
M  V30 3415 S 325.283 3.50395 4.04949 0
M  V30 3416 C 326.439 3.14413 5.41198 0
M  V30 3417 H 326.672 2.10832 2.09612 0
M  V30 3418 H 324.205 1.17543 1.00115 0
M  V30 3419 H 326.163 0.574044 4.06466 0
M  V30 3420 H 324.824 -0.137218 3.138 0
M  V30 3421 H 324.017 1.58207 4.78526 0
M  V30 3422 H 323.619 2.06304 3.11953 0
M  V30 3423 H 325.911 2.64642 6.23675 0
M  V30 3424 H 326.854 4.09874 5.77416 0
M  V30 3425 H 327.262 2.51266 5.05495 0
M  V30 3426 N 326.66 -1.06551 1.16123 0
M  V30 3427 C 327.9 -1.80889 0.951766 0
M  V30 3428 C 328.264 -1.85062 -0.511465 0
M  V30 3429 O 329.465 -2.55353 -0.83954 0
M  V30 3430 C 327.736 -3.21609 1.55893 0
M  V30 3431 S 329.295 -4.12593 1.49373 0
M  V30 3432 H 326.113 -0.623156 0.342341 0
M  V30 3433 H 328.715 -1.27943 1.47821 0
M  V30 3434 H 327.419 -3.16165 2.61664 0
M  V30 3435 H 326.95 -3.79631 1.0317 0
M  V30 3436 H 328.965 -4.93753 0.492196 0
M  V30 3437 N 328.138 -0.959301 -1.25041 0
M  V30 3438 C 329.549 -0.65667 -1.74771 0
M  V30 3439 C 329.9 0.827852 -1.77879 0
M  V30 3440 O 329.025 1.64783 -1.40269 0
M  V30 3441 C 329.62 -1.1853 -3.1739 0
M  V30 3442 C 328.179 -0.932734 -3.6466 0
M  V30 3443 C 327.326 -1.32558 -2.43564 0
M  V30 3444 H 330.277 -1.13558 -1.10862 0
M  V30 3445 H 330.298 -0.547582 -3.76539 0
M  V30 3446 H 329.81 -2.26576 -3.15095 0
M  V30 3447 H 327.911 0.13257 -3.72364 0
M  V30 3448 H 328.024 -1.57248 -4.52559 0
M  V30 3449 H 326.388 -0.743956 -2.43593 0
M  V30 3450 H 327.171 -2.41537 -2.43957 0
M  V30 3451 N 329.616 1.39756 -0.72842 0
M  V30 3452 C 331.032 1.5442 -0.403308 0
M  V30 3453 C 331.232 1.69694 1.08656 0
M  V30 3454 O 330.288 1.69373 1.87267 0
M  V30 3455 C 331.601 2.76555 -1.18058 0
M  V30 3456 C 333.149 2.90384 -1.16815 0
M  V30 3457 C 333.624 4.15449 -1.92785 0
M  V30 3458 N 335.115 4.22475 -1.89918 0
M  V30 3459 C 335.85 5.1818 -2.45514 0
M  V30 3460 N 335.346 6.19714 -3.09719 0
M  V30 3461 N 337.139 5.1035 -2.35584 0
M  V30 3462 H 329.29 1.28089 -1.69431 0
M  V30 3463 H 331.553 0.620327 -0.716867 0
M  V30 3464 H 331.259 2.7159 -2.23455 0
M  V30 3465 H 331.133 3.69033 -0.780662 0
M  V30 3466 H 333.52 2.94846 -0.12234 0
M  V30 3467 H 333.601 1.98988 -1.6074 0
M  V30 3468 H 333.245 4.11749 -2.97364 0
M  V30 3469 H 333.175 5.05877 -1.46272 0
M  V30 3470 H 335.666 3.49743 -1.43138 0
M  V30 3471 H 335.979 6.8919 -3.49625 0
M  V30 3472 H 334.324 6.20121 -3.13807 0
M  V30 3473 H 337.515 4.2996 -1.85072 0
M  V30 3474 H 337.688 5.84761 -2.79211 0
M  V30 3475 N 331.094 0.475555 1.50254 0
M  V30 3476 C 332.027 -0.362381 2.25304 0
M  V30 3477 C 333.005 -0.992393 1.28803 0
M  V30 3478 O 334.189 -1.02746 1.58036 0
M  V30 3479 C 331.316 -1.50813 3.03271 0
M  V30 3480 C 330.362 -0.995044 4.1473 0
M  V30 3481 S 331.195 0.0938436 5.35418 0
M  V30 3482 C 332.351 -1.05567 6.16933 0
M  V30 3483 H 332.584 0.274686 2.96028 0
M  V30 3484 H 330.117 0.260495 1.52187 0
M  V30 3485 H 332.075 -2.16476 3.48781 0
M  V30 3486 H 330.736 -2.11672 2.32064 0
M  V30 3487 H 329.929 -1.85293 4.68703 0
M  V30 3488 H 329.531 -0.416052 3.71679 0
M  V30 3489 H 331.823 -1.96636 6.48337 0
M  V30 3490 H 332.766 -0.555109 7.05921 0
M  V30 3491 H 333.174 -1.31151 5.49053 0
M  V30 3492 N 332.573 -1.56217 0.208337 0
M  V30 3493 C 333.798 -2.02782 -0.435222 0
M  V30 3494 C 334.223 -1.08738 -1.53485 0
M  V30 3495 O 333.581 -0.0731855 -1.81152 0
M  V30 3496 C 333.629 -3.47687 -0.956335 0
M  V30 3497 O 332.733 -3.56773 -2.06849 0
M  V30 3498 H 332.074 -0.656403 -0.100158 0
M  V30 3499 H 334.604 -2.02033 0.3231 0
M  V30 3500 H 334.614 -3.87745 -1.26955 0
M  V30 3501 H 333.289 -4.15624 -0.15143 0
M  V30 3502 H 331.866 -3.28597 -1.76292 0
M  V30 3503 N 334.051 0.0651679 -1.57465 0
M  V30 3504 C 334.998 1.07675 -2.04144 0
M  V30 3505 C 335.968 1.38071 -0.923335 0
M  V30 3506 O 337.153 1.49026 -1.19146 0
M  V30 3507 C 334.293 2.38337 -2.49579 0
M  V30 3508 C 333.406 2.14413 -3.75035 0
M  V30 3509 C 332.541 3.38686 -4.09225 0
M  V30 3510 C 331.58 3.10156 -5.27702 0
M  V30 3511 N 330.717 4.26778 -5.57499 0
M  V30 3512 H 335.557 0.671716 -2.90331 0
M  V30 3513 H 333.094 0.3201 -1.43575 0
M  V30 3514 H 335.052 3.14632 -2.73975 0
M  V30 3515 H 333.682 2.7663 -1.6636 0
M  V30 3516 H 332.734 1.2878 -3.57939 0
M  V30 3517 H 334.046 1.89344 -4.61466 0
M  V30 3518 H 333.2 4.23373 -4.34558 0
M  V30 3519 H 331.939 3.66837 -3.21374 0
M  V30 3520 H 330.944 2.23866 -5.02159 0
M  V30 3521 H 332.169 2.8332 -6.17176 0
M  V30 3522 H 330.115 4.54948 -4.72608 0
M  V30 3523 H 330.032 4.05005 -6.38362 0
M  V30 3524 H 331.3 5.12443 -5.87386 0
M  V30 3525 N 335.529 1.53961 0.336706 0
M  V30 3526 C 336.777 1.71197 1.07405 0
M  V30 3527 C 337.098 0.481475 1.88962 0
M  V30 3528 O 336.368 -0.504585 1.8929 0
M  V30 3529 H 334.948 0.631185 0.399517 0
M  V30 3530 H 337.61 1.91232 0.376323 0
M  V30 3531 H 336.706 2.58587 1.74755 0
M  V30 3532 N 337.007 -0.598083 1.45811 0
M  V30 3533 C 337.954 -1.7082 1.55207 0
M  V30 3534 C 338.924 -1.61278 0.39732 0
M  V30 3535 O 340.109 -1.80717 0.612038 0
M  V30 3536 C 337.249 -3.09144 1.53376 0
M  V30 3537 C 336.362 -3.29423 2.79472 0
M  V30 3538 C 335.497 -4.57907 2.69248 0
M  V30 3539 C 334.536 -4.71476 3.90354 0
M  V30 3540 N 333.673 -5.9127 3.78608 0
M  V30 3541 H 338.513 -1.62125 2.50039 0
M  V30 3542 H 336.05 -0.790389 1.24062 0
M  V30 3543 H 338.008 -3.89186 1.50301 0
M  V30 3544 H 336.638 -3.16773 0.620876 0
M  V30 3545 H 335.69 -2.43091 2.92594 0
M  V30 3546 H 337.002 -3.3532 3.69272 0
M  V30 3547 H 336.156 -5.46157 2.64192 0
M  V30 3548 H 334.895 -4.54423 1.77063 0
M  V30 3549 H 333.9 -3.81648 3.95759 0
M  V30 3550 H 335.125 -4.76751 4.83617 0
M  V30 3551 H 333.071 -5.88813 2.89199 0
M  V30 3552 H 332.988 -5.98369 4.6205 0
M  V30 3553 H 334.256 -6.81992 3.77501 0
M  V30 3554 N 338.485 -1.33259 -0.841409 0
M  V30 3555 C 339.762 -1.15174 -1.58096 0
M  V30 3556 C 340.142 0.282858 -2.09196 0
M  V30 3557 O 339.49 1.28151 -1.89181 0
M  V30 3558 C 339.7 -2.1907 -2.71679 0
M  V30 3559 C 341.048 -2.53093 -3.40924 0
M  V30 3560 O 342.072 -2.17717 -2.81918 0
M  V30 3561 O 340.931 -3.1379 -4.47435 0
M  V30 3562 H 338.025 -0.445303 -0.696875 0
M  V30 3563 H 340.571 -1.44833 -0.884385 0
M  V30 3564 H 339.343 -3.15443 -2.31541 0
M  V30 3565 H 338.966 -1.90481 -3.49002 0
M  V30 3566 N 339.963 1.05934 -1.16686 0
M  V30 3567 C 341.374 1.60263 -0.957745 0
M  V30 3568 C 341.725 1.89789 0.49745 0
M  V30 3569 O 340.85 1.67401 1.37135 0
M  V30 3570 C 341.445 2.91172 -1.73218 0
M  V30 3571 C 340.004 3.42188 -1.56794 0
M  V30 3572 C 339.151 2.16028 -1.73859 0
M  V30 3573 H 342.102 0.888392 -1.31504 0
M  V30 3574 H 342.123 3.60744 -1.21014 0
M  V30 3575 H 341.635 2.6965 -2.79124 0
M  V30 3576 H 339.736 3.68762 -0.533437 0
M  V30 3577 H 339.849 4.17273 -2.35414 0
M  V30 3578 H 338.213 2.26426 -1.16633 0
M  V30 3579 H 338.996 1.96985 -2.81161 0
M  V30 3580 N 341.441 0.965919 1.2453 0
M  V30 3581 C 342.671 0.643451 1.96324 0
M  V30 3582 C 343.079 -0.790927 1.71875 0
M  V30 3583 O 342.422 -1.54208 0.998273 0
M  V30 3584 C 342.484 0.836078 3.49643 0
M  V30 3585 C 342.148 2.24975 3.97788 0
M  V30 3586 C 343.145 3.22735 4.07601 0
M  V30 3587 C 340.83 2.57697 4.31158 0
M  V30 3588 C 342.824 4.51303 4.50116 0
M  V30 3589 C 340.511 3.86492 4.73357 0
M  V30 3590 C 341.509 4.83107 4.828 0
M  V30 3591 O 341.197 6.09605 5.24058 0
M  V30 3592 H 340.929 0.239223 0.632257 0
M  V30 3593 H 343.483 1.29587 1.59362 0
M  V30 3594 H 341.713 0.12649 3.86493 0
M  V30 3595 H 343.402 0.512965 4.02646 0
M  V30 3596 H 344.168 2.98783 3.82039 0
M  V30 3597 H 340.047 1.83216 4.23028 0
M  V30 3598 H 343.591 5.26716 4.57401 0
M  V30 3599 H 339.488 4.10245 4.98366 0
M  V30 3600 H 340.256 6.13146 5.42213 0
M  V30 3601 N 342.919 -1.39368 0.735821 0
M  V30 3602 C 344.149 -2.04498 0.293967 0
M  V30 3603 C 344.557 -1.55593 -1.07645 0
M  V30 3604 O 343.9 -0.716324 -1.69158 0
M  V30 3605 C 343.962 -3.58836 0.218342 0
M  V30 3606 C 343.626 -4.30721 1.52736 0
M  V30 3607 C 344.623 -4.57305 2.47322 0
M  V30 3608 C 342.308 -4.69251 1.79189 0
M  V30 3609 C 344.302 -5.21429 3.66593 0
M  V30 3610 C 341.989 -5.33104 2.98737 0
M  V30 3611 C 342.987 -5.59125 3.9226 0
M  V30 3612 O 342.675 -6.21653 5.09708 0
M  V30 3613 H 342.407 -0.664118 0.126189 0
M  V30 3614 H 344.961 -1.79385 1.00051 0
M  V30 3615 H 343.191 -3.8285 -0.544314 0
M  V30 3616 H 344.88 -4.05447 -0.191626 0
M  V30 3617 H 345.646 -4.27983 2.28156 0
M  V30 3618 H 341.525 -4.48354 1.07239 0
M  V30 3619 H 345.069 -5.41656 4.39607 0
M  V30 3620 H 340.966 -5.61846 3.17803 0
M  V30 3621 H 341.734 -6.40146 5.10054 0
M  V30 3622 N 344.397 -0.483516 -1.5 0
M  V30 3623 C 345.36 0.292965 -2.2732 0
M  V30 3624 C 346.36 0.909499 -1.32608 0
M  V30 3625 O 347.55 0.776745 -1.55924 0
M  V30 3626 C 344.682 1.41854 -3.09984 0
M  V30 3627 H 345.875 -0.385289 -2.97415 0
M  V30 3628 H 343.428 -0.237942 -1.54478 0
M  V30 3629 H 344.163 2.13148 -2.44414 0
M  V30 3630 H 343.948 0.982114 -3.79601 0
M  V30 3631 H 345.438 1.96597 -3.68429 0
M  V30 3632 N 345.875 1.56104 -0.216619 0
M  V30 3633 C 347.123 1.97781 0.415593 0
M  V30 3634 C 347.444 1.10536 1.60645 0
M  V30 3635 O 346.714 0.181303 1.95059 0
M  V30 3636 H 345.294 0.730415 0.156534 0
M  V30 3637 H 347.956 1.92445 -0.308366 0
M  V30 3638 H 347.052 3.03072 0.74525 0
M  V30 3639 N 347.353 -0.0568162 1.57498 0
M  V30 3640 C 348.593 -0.758273 1.89815 0
M  V30 3641 C 348.957 -1.73978 0.812132 0
M  V30 3642 O 350.158 -2.48744 1.01881 0
M  V30 3643 C 348.429 -1.43465 3.27342 0
M  V30 3644 S 349.988 -2.1691 3.81439 0
M  V30 3645 H 346.806 -0.251836 0.664906 0
M  V30 3646 H 349.408 -0.0137997 1.95495 0
M  V30 3647 H 348.112 -0.706693 4.0427 0
M  V30 3648 H 347.643 -2.21825 3.24896 0
M  V30 3649 H 349.658 -3.43658 3.5793 0
M  V30 3650 N 348.832 -1.54138 -0.328536 0
M  V30 3651 C 350.08 -1.71765 -1.06496 0
M  V30 3652 C 350.401 -0.49149 -1.88704 0
M  V30 3653 O 349.671 0.494539 -1.89555 0
M  V30 3654 H 348.251 -0.633295 -0.396164 0
M  V30 3655 H 350.913 -1.91429 -0.366176 0
M  V30 3656 H 350.009 -2.5951 -1.73381 0
M  V30 3657 N 350.31 0.590341 -1.46126 0
M  V30 3658 C 351.24 1.71032 -1.58966 0
M  V30 3659 C 352.221 1.64302 -0.440335 0
M  V30 3660 O 353.406 1.82436 -0.665634 0
M  V30 3661 C 350.536 3.09665 -1.57241 0
M  V30 3662 C 349.49 3.31221 -2.71066 0
M  V30 3663 C 348.816 4.70303 -2.54399 0
M  V30 3664 C 350.116 3.19796 -4.1295 0
M  V30 3665 H 351.81 1.60543 -2.52718 0
M  V30 3666 H 349.356 0.770933 -1.21625 0
M  V30 3667 H 351.309 3.87831 -1.64819 0
M  V30 3668 H 350.033 3.21036 -0.600289 0
M  V30 3669 H 348.692 2.55452 -2.62944 0
M  V30 3670 H 348.34 4.78429 -1.55288 0
M  V30 3671 H 348.04 4.85679 -3.30741 0
M  V30 3672 H 349.564 5.50647 -2.63857 0
M  V30 3673 H 350.978 3.87815 -4.22223 0
M  V30 3674 H 349.375 3.46696 -4.89818 0
M  V30 3675 H 350.445 2.16983 -4.33643 0
M  V30 3676 N 351.788 1.33704 0.83433 0
M  V30 3677 C 353.018 1.28281 1.6195 0
M  V30 3678 C 353.426 -0.147603 1.88623 0
M  V30 3679 O 352.769 -1.1016 1.47005 0
M  V30 3680 C 352.831 1.99386 2.99141 0
M  V30 3681 C 352.495 3.48681 2.95416 0
M  V30 3682 C 353.492 4.438 2.70809 0
M  V30 3683 C 351.177 3.90925 3.15409 0
M  V30 3684 C 353.171 5.79138 2.66229 0
M  V30 3685 C 350.858 5.26366 3.10454 0
M  V30 3686 C 351.856 6.20284 2.85895 0
M  V30 3687 O 351.544 7.53245 2.80852 0
M  V30 3688 H 351.276 0.44315 0.510484 0
M  V30 3689 H 353.83 1.76711 1.04702 0
M  V30 3690 H 352.06 1.45554 3.58261 0
M  V30 3691 H 353.749 1.87403 3.60049 0
M  V30 3692 H 354.515 4.12485 2.5511 0
M  V30 3693 H 350.394 3.18229 3.33543 0
M  V30 3694 H 353.938 6.52416 2.4698 0
M  V30 3695 H 349.835 5.57304 3.25703 0
M  V30 3696 H 350.603 7.62846 2.96661 0
M  V30 3697 N 353.266 -1.05314 1.17247 0
M  V30 3698 C 354.213 -2.13031 0.888058 0
M  V30 3699 C 355.183 -1.65253 -0.167537 0
M  V30 3700 O 356.368 -1.90775 -0.0305974 0
M  V30 3701 C 353.508 -3.42702 0.406147 0
M  V30 3702 C 352.621 -4.04161 1.52572 0
M  V30 3703 C 351.756 -5.21744 0.997808 0
M  V30 3704 C 350.795 -5.75207 2.09291 0
M  V30 3705 N 349.932 -6.84094 1.57986 0
M  V30 3706 H 354.772 -2.36698 1.81048 0
M  V30 3707 H 352.309 -1.16121 0.903013 0
M  V30 3708 H 354.267 -4.17059 0.108305 0
M  V30 3709 H 352.897 -3.19222 -0.479313 0
M  V30 3710 H 351.949 -3.27253 1.93931 0
M  V30 3711 H 353.261 -4.39881 2.35172 0
M  V30 3712 H 352.415 -6.03168 0.653739 0
M  V30 3713 H 351.154 -4.87495 0.141232 0
M  V30 3714 H 350.159 -4.92414 2.44557 0
M  V30 3715 H 351.384 -6.11505 2.95362 0
M  V30 3716 H 349.33 -6.51745 0.74598 0
M  V30 3717 H 349.247 -7.18811 2.34195 0
M  V30 3718 H 350.515 -7.69172 1.26468 0
M  V30 3719 N 354.744 -0.972509 -1.24016 0
M  V30 3720 C 355.984 -0.644951 -1.93958 0
M  V30 3721 C 356.348 0.80559 -1.74282 0
M  V30 3722 O 357.549 1.2436 -2.38302 0
M  V30 3723 C 355.82 -1.01521 -3.42678 0
M  V30 3724 S 357.379 -0.802927 -4.31391 0
M  V30 3725 H 354.197 -0.236452 -0.670531 0
M  V30 3726 H 356.799 -1.25048 -1.50277 0
M  V30 3727 H 355.503 -2.06769 -3.54506 0
M  V30 3728 H 355.034 -0.400648 -3.91355 0
M  V30 3729 H 357.049 0.317256 -4.95185 0
M  V30 3730 N 356.222 1.38976 -0.743202 0
M  V30 3731 C 357.185 2.28901 -0.117014 0
M  V30 3732 C 358.185 1.46698 0.658503 0
M  V30 3733 O 359.375 1.67274 0.486305 0
M  V30 3734 C 356.507 3.30309 0.84315 0
M  V30 3735 H 357.7 2.8578 -0.909373 0
M  V30 3736 H 355.253 1.47761 -0.509547 0
M  V30 3737 H 355.988 2.785 1.66157 0
M  V30 3738 H 355.773 3.91029 0.289594 0
M  V30 3739 H 357.263 3.97577 1.2776 0
M  V30 3740 N 357.7 0.491464 1.49741 0
M  V30 3741 C 358.977 -0.118984 1.95238 0
M  V30 3742 C 359.357 -1.55044 1.43264 0
M  V30 3743 O 358.705 -2.19287 0.642287 0
M  V30 3744 C 358.915 -0.0414187 3.48975 0
M  V30 3745 C 360.263 -0.220133 4.24029 0
M  V30 3746 O 361.287 -0.117055 3.56008 0
M  V30 3747 O 360.146 -0.430567 5.44801 0
M  V30 3748 H 357.24 -0.100536 0.820866 0
M  V30 3749 H 359.786 0.553322 1.60426 0
M  V30 3750 H 358.558 0.957214 3.79412 0
M  V30 3751 H 358.181 -0.754292 3.9038 0
M  V30 3752 N 359.178 -1.55987 0.224894 0
M  V30 3753 C 360.426 -1.97998 -0.405099 0
M  V30 3754 C 360.747 -1.11387 -1.60056 0
M  V30 3755 O 360.017 -0.191645 -1.9496 0
M  V30 3756 H 358.597 -0.731235 -0.152658 0
M  V30 3757 H 361.259 -1.92279 0.318567 0
M  V30 3758 H 360.355 -3.03463 -0.729167 0
M  V30 3759 N 360.656 0.0484629 -1.57525 0
M  V30 3760 C 361.886 0.754326 -1.92337 0
M  V30 3761 C 362.294 1.70443 -0.82132 0
M  V30 3762 O 361.637 1.82466 0.21254 0
M  V30 3763 C 361.699 1.58231 -3.22805 0
M  V30 3764 C 361.363 0.799074 -4.4996 0
M  V30 3765 C 362.36 0.1079 -5.19788 0
M  V30 3766 C 360.045 0.759345 -4.96527 0
M  V30 3767 C 362.039 -0.612516 -6.3445 0
M  V30 3768 C 359.726 0.0351713 -6.1109 0
M  V30 3769 C 360.724 -0.649537 -6.79904 0
M  V30 3770 O 360.412 -1.36199 -7.92278 0
M  V30 3771 H 360.144 0.218257 -0.639797 0
M  V30 3772 H 362.698 0.0159295 -2.05394 0
M  V30 3773 H 360.928 2.36406 -3.06021 0
M  V30 3774 H 362.617 2.16898 -3.43089 0
M  V30 3775 H 363.383 0.129748 -4.84826 0
M  V30 3776 H 359.262 1.28177 -4.42822 0
M  V30 3777 H 362.806 -1.14751 -6.88097 0
M  V30 3778 H 358.703 0.0113314 -6.45499 0
M  V30 3779 H 359.471 -1.27366 -8.0853 0
M  V30 3780 N 362.134 1.5431 0.320358 0
M  V30 3781 C 363.383 1.7188 1.05546 0
M  V30 3782 C 363.696 0.501143 1.89071 0
M  V30 3783 O 364.902 0.558258 2.65699 0
M  V30 3784 C 363.358 3.04025 1.92605 0
M  V30 3785 C 362.966 4.33207 1.14176 0
M  V30 3786 C 364.71 3.30959 2.65832 0
M  V30 3787 C 362.617 5.56412 2.00399 0
M  V30 3788 H 361.547 0.640547 0.397763 0
M  V30 3789 H 364.198 1.80802 0.313522 0
M  V30 3790 H 362.58 2.89019 2.7071 0
M  V30 3791 H 363.754 4.58989 0.40819 0
M  V30 3792 H 362.069 4.13062 0.526165 0
M  V30 3793 H 364.666 4.20203 3.30656 0
M  V30 3794 H 365.009 2.48979 3.33639 0
M  V30 3795 H 365.542 3.46847 1.94787 0
M  V30 3796 H 362.281 6.41004 1.37094 0
M  V30 3797 H 361.801 5.34844 2.7148 0
M  V30 3798 H 363.48 5.92938 2.58908 0
M  V30 3799 N 363.613 -0.582584 1.46437 0
M  V30 3800 C 364.859 -1.34278 1.51978 0
M  V30 3801 C 365.192 -1.93446 0.170973 0
M  V30 3802 O 364.467 -1.76481 -0.817608 0
M  V30 3803 C 364.75 -2.47203 2.61845 0
M  V30 3804 C 364.603 -1.93069 4.06257 0
M  V30 3805 C 365.922 -3.49247 2.67795 0
M  V30 3806 H 363.041 -0.486876 0.553282 0
M  V30 3807 H 365.683 -0.654437 1.78374 0
M  V30 3808 H 363.833 -3.0592 2.39469 0
M  V30 3809 H 365.505 -1.38808 4.3992 0
M  V30 3810 H 363.748 -1.23898 4.1573 0
M  V30 3811 H 364.419 -2.74586 4.7886 0
M  V30 3812 H 366.895 -3.00411 2.8791 0
M  V30 3813 H 365.771 -4.25719 3.46489 0
M  V30 3814 H 366.032 -4.06482 1.73852 0
M  V30 3815 N 365.091 -1.34144 -0.827227 0
M  V30 3816 C 366.024 -1.19707 -1.94282 0
M  V30 3817 C 367.002 -0.0897256 -1.62352 0
M  V30 3818 O 368.186 -0.254095 -1.8678 0
M  V30 3819 C 365.313 -0.838646 -3.28153 0
M  V30 3820 C 364.359 -1.95514 -3.79047 0
M  V30 3821 S 365.192 -3.56793 -3.99323 0
M  V30 3822 C 366.348 -3.22983 -5.36127 0
M  V30 3823 H 366.581 -2.1414 -2.06231 0
M  V30 3824 H 364.114 -1.19121 -0.982321 0
M  V30 3825 H 366.072 -0.638637 -4.05502 0
M  V30 3826 H 364.733 0.0872776 -3.13979 0
M  V30 3827 H 363.926 -1.658 -4.75948 0
M  V30 3828 H 363.528 -2.11241 -3.08631 0
M  V30 3829 H 365.82 -2.74531 -6.19386 0
M  V30 3830 H 366.763 -4.19008 -5.70822 0
M  V30 3831 H 367.171 -2.59276 -5.01434 0
M  V30 3832 N 366.569 1.04691 -1.17803 0
M  V30 3833 C 367.479 2.16057 -0.914151 0
M  V30 3834 C 368.495 1.73589 0.119503 0
M  V30 3835 O 369.671 2.01308 -0.0609468 0
M  V30 3836 C 366.736 3.4394 -0.436603 0
M  V30 3837 C 365.797 4.00825 -1.53746 0
M  V30 3838 C 365.03 5.22604 -1.0826 0
M  V30 3839 O 365.253 5.70367 0.0612244 0
M  V30 3840 O 364.187 5.7186 -1.87775 0
M  V30 3841 H 368.013 2.41169 -1.84584 0
M  V30 3842 H 365.598 1.1453 -0.959334 0
M  V30 3843 H 367.48 4.21024 -0.178057 0
M  V30 3844 H 366.155 3.20316 0.466869 0
M  V30 3845 H 365.062 3.25158 -1.84995 0
M  V30 3846 H 366.395 4.28778 -2.41683 0
M  V30 3847 N 368.047 0.979072 1.23499 0
M  V30 3848 C 368.977 0.537606 2.27227 0
M  V30 3849 C 369.958 -0.428539 1.64613 0
M  V30 3850 O 371.143 -0.322191 1.91509 0
M  V30 3851 C 368.273 -0.162052 3.46922 0
M  V30 3852 C 367.227 0.721242 4.21879 0
M  V30 3853 C 366.553 -0.110555 5.34586 0
M  V30 3854 C 367.853 2.01141 4.82016 0
M  V30 3855 H 369.547 1.40462 2.64406 0
M  V30 3856 H 367.093 0.67684 1.27102 0
M  V30 3857 H 369.046 -0.482192 4.18632 0
M  V30 3858 H 367.77 -1.06351 3.08799 0
M  V30 3859 H 366.429 1.02482 3.51984 0
M  V30 3860 H 366.077 -1.0125 4.92704 0
M  V30 3861 H 365.777 0.477325 5.85658 0
M  V30 3862 H 367.301 -0.425107 6.09118 0
M  V30 3863 H 368.715 1.75612 5.45741 0
M  V30 3864 H 367.112 2.54695 5.43369 0
M  V30 3865 H 368.182 2.69909 4.02836 0
M  V30 3866 N 369.525 -1.3858 0.750561 0
M  V30 3867 C 370.771 -2.00481 0.305825 0
M  V30 3868 C 371.104 -1.5944 -1.10872 0
M  V30 3869 O 370.379 -0.83052 -1.75877 0
M  V30 3870 C 370.662 -3.5758 0.425287 0
M  V30 3871 C 370.515 -4.08594 1.88072 0
M  V30 3872 C 371.834 -4.39719 -0.183122 0
M  V30 3873 H 368.953 -0.728348 0.112598 0
M  V30 3874 H 371.595 -1.64566 0.949638 0
M  V30 3875 H 369.745 -3.88306 -0.122828 0
M  V30 3876 H 371.417 -3.88523 2.48691 0
M  V30 3877 H 369.66 -3.61574 2.39681 0
M  V30 3878 H 370.331 -5.177 1.91548 0
M  V30 3879 H 372.807 -4.15128 0.284303 0
M  V30 3880 H 371.683 -5.48856 -0.0692757 0
M  V30 3881 H 371.944 -4.23434 -1.27106 0
M  V30 3882 N 371.003 -0.499398 -1.49478 0
M  V30 3883 C 372.251 0.0455996 -2.02049 0
M  V30 3884 C 372.572 1.37633 -1.38138 0
M  V30 3885 O 371.842 1.8842 -0.536166 0
M  V30 3886 H 370.422 0.0198416 -0.746736 0
M  V30 3887 H 373.084 -0.656274 -1.83519 0
M  V30 3888 H 372.18 0.176445 -3.11601 0
M  V30 3889 N 372.481 1.55866 -0.233164 0
M  V30 3890 C 373.73 1.97779 0.39579 0
M  V30 3891 C 374.043 1.12419 1.60066 0
M  V30 3892 O 375.249 1.44283 2.29988 0
M  V30 3893 C 373.705 3.5188 0.755556 0
M  V30 3894 C 373.313 4.45959 -0.427152 0
M  V30 3895 C 375.057 4.02479 1.34946 0
M  V30 3896 C 372.964 5.91383 -0.0443043 0
M  V30 3897 H 371.894 0.738592 0.15165 0
M  V30 3898 H 374.545 1.80486 -0.331212 0
M  V30 3899 H 372.927 3.64816 1.5403 0
M  V30 3900 H 374.101 4.44776 -1.20462 0
M  V30 3901 H 372.416 4.05765 -0.935068 0
M  V30 3902 H 375.013 5.08637 1.649 0
M  V30 3903 H 375.356 3.49014 2.26925 0
M  V30 3904 H 375.889 3.92813 0.62791 0
M  V30 3905 H 372.628 6.48857 -0.930874 0
M  V30 3906 H 372.148 5.95734 0.697238 0
M  V30 3907 H 373.827 6.45893 0.378334 0
M  V30 3908 N 373.959 -0.0401083 1.57549 0
M  V30 3909 C 375.187 -0.745196 1.93014 0
M  V30 3910 C 375.602 -1.6948 0.831984 0
M  V30 3911 O 374.959 -1.81482 -0.192463 0
M  V30 3912 C 375.01 -1.51176 3.28372 0
M  V30 3913 O 374.731 -0.600284 4.33968 0
M  V30 3914 C 376.232 -2.315 3.78051 0
M  V30 3915 H 373.452 -0.210088 0.637263 0
M  V30 3916 H 375.996 -0.000924689 2.045 0
M  V30 3917 H 374.151 -2.20801 3.18317 0
M  V30 3918 H 374.565 -1.13669 5.12035 0
M  V30 3919 H 376.039 -2.80697 4.75303 0
M  V30 3920 H 376.516 -3.12436 3.08675 0
M  V30 3921 H 377.122 -1.66971 3.91153 0
M  V30 3922 N 375.437 -1.54477 -0.31217 0
M  V30 3923 C 376.369 -1.81011 -1.40598 0
M  V30 3924 C 377.382 -0.692546 -1.47335 0
M  V30 3925 O 378.571 -0.969847 -1.49854 0
M  V30 3926 C 375.671 -1.92307 -2.79054 0
M  V30 3927 C 374.844 -3.22594 -2.95384 0
M  V30 3928 C 373.903 -3.24448 -4.1427 0
M  V30 3929 O 372.929 -3.98035 -4.06887 0
M  V30 3930 N 374.131 -2.49042 -5.24365 0
M  V30 3931 H 376.896 -2.75408 -1.18196 0
M  V30 3932 H 374.457 -1.53914 -0.502202 0
M  V30 3933 H 376.449 -1.90962 -3.56813 0
M  V30 3934 H 375.019 -1.04955 -2.94454 0
M  V30 3935 H 374.239 -3.36806 -2.04831 0
M  V30 3936 H 375.527 -4.08593 -3.03198 0
M  V30 3937 H 374.925 -1.88867 -5.33241 0
M  V30 3938 H 373.482 -2.53463 -6.005 0
M  V30 3939 N 376.915 0.57481 -1.46744 0
M  V30 3940 C 378.164 1.32898 -1.51727 0
M  V30 3941 C 378.477 1.948 -0.176692 0
M  V30 3942 O 379.683 2.71299 -0.104385 0
M  V30 3943 C 378.139 2.40901 -2.67385 0
M  V30 3944 C 377.747 1.85266 -4.07898 0
M  V30 3945 C 379.491 3.17609 -2.81646 0
M  V30 3946 C 377.398 2.90945 -5.14883 0
M  V30 3947 H 376.328 0.499631 -0.564699 0
M  V30 3948 H 378.979 0.612536 -1.72975 0
M  V30 3949 H 377.361 3.15379 -2.39483 0
M  V30 3950 H 378.535 1.17278 -4.45626 0
M  V30 3951 H 376.85 1.21199 -3.98371 0
M  V30 3952 H 379.447 3.96493 -3.58744 0
M  V30 3953 H 379.79 3.70696 -1.89448 0
M  V30 3954 H 380.323 2.50239 -3.09233 0
M  V30 3955 H 377.062 2.42736 -6.089 0
M  V30 3956 H 376.582 3.57398 -4.81691 0
M  V30 3957 H 378.261 3.54755 -5.41071 0
M  V30 3958 N 378.394 1.34581 0.820102 0
M  V30 3959 C 379.304 1.28471 1.96297 0
M  V30 3960 C 380.32 0.191902 1.72939 0
M  V30 3961 O 381.496 0.418879 1.96996 0
M  V30 3962 C 378.561 1.04281 3.30645 0
M  V30 3963 C 377.622 2.22745 3.66992 0
M  V30 3964 C 376.855 1.997 4.9493 0
M  V30 3965 O 377.078 0.956656 5.6232 0
M  V30 3966 O 376.012 2.86723 5.2922 0
M  V30 3967 H 379.838 2.24624 2.04396 0
M  V30 3968 H 377.423 1.14816 0.955913 0
M  V30 3969 H 379.305 0.925841 4.11104 0
M  V30 3970 H 377.98 0.111697 3.23507 0
M  V30 3971 H 376.887 2.40003 2.86966 0
M  V30 3972 H 378.22 3.14257 3.78819 0
M  V30 3973 N 379.872 -1.04064 1.18357 0
M  V30 3974 C 380.782 -2.15569 0.925596 0
M  V30 3975 C 381.798 -1.7365 -0.110295 0
M  V30 3976 O 382.974 -2.01273 0.0716218 0
M  V30 3977 C 380.039 -3.43704 0.454836 0
M  V30 3978 C 379.1 -4.00004 1.55869 0
M  V30 3979 C 378.333 -5.22023 1.1103 0
M  V30 3980 O 378.556 -5.70392 -0.0309756 0
M  V30 3981 O 377.49 -5.70856 1.90805 0
M  V30 3982 H 381.316 -2.40187 1.8586 0
M  V30 3983 H 378.901 -1.1402 0.965394 0
M  V30 3984 H 380.783 -4.20923 0.200382 0
M  V30 3985 H 379.458 -3.20559 -0.449876 0
M  V30 3986 H 378.365 -3.24172 1.86716 0
M  V30 3987 H 379.698 -4.2749 2.43953 0
M  V30 3988 N 381.35 -0.985608 -1.22978 0
M  V30 3989 C 382.59 -0.665487 -1.93263 0
M  V30 3990 C 382.954 0.78706 -1.75127 0
M  V30 3991 O 384.155 1.21826 -2.39608 0
M  V30 3992 C 382.426 -1.0515 -3.41582 0
M  V30 3993 S 383.985 -0.848637 -4.30516 0
M  V30 3994 H 380.803 -0.24355 -0.667985 0
M  V30 3995 H 383.405 -1.26635 -1.48942 0
M  V30 3996 H 382.109 -2.10517 -3.52293 0
M  V30 3997 H 381.64 -0.442134 -3.90908 0
M  V30 3998 H 383.655 0.264717 -4.95493 0
M  V30 3999 N 382.828 1.3818 -0.7579 0
M  V30 4000 C 384.075 2.00019 -0.315985 0
M  V30 4001 C 384.403 1.60163 1.10355 0
M  V30 4002 O 383.658 0.83264 1.77103 0
M  V30 4003 C 383.957 3.55252 -0.391218 0
M  V30 4004 C 383.623 4.14834 -1.76702 0
M  V30 4005 C 382.285 4.30821 -2.14353 0
M  V30 4006 C 384.637 4.47658 -2.66931 0
M  V30 4007 C 381.965 4.76928 -3.41696 0
M  V30 4008 C 384.317 4.95184 -3.93669 0
M  V30 4009 C 382.981 5.09377 -4.31383 0
M  V30 4010 H 382.251 0.731923 -0.115627 0
M  V30 4011 H 384.898 1.65161 -0.969223 0
M  V30 4012 H 383.203 3.90273 0.34558 0
M  V30 4013 H 384.9 4.00988 -0.030805 0
M  V30 4014 H 381.49 4.02808 -1.46435 0
M  V30 4015 H 385.674 4.34904 -2.39106 0
M  V30 4016 H 380.93 4.86103 -3.70829 0
M  V30 4017 H 385.104 5.19551 -4.63724 0
M  V30 4018 H 382.731 5.44865 -5.30119 0
M  V30 4019 N 384.306 0.507319 1.49211 0
M  V30 4020 C 385.253 -0.267728 2.29242 0
M  V30 4021 C 386.223 -0.954609 1.35928 0
M  V30 4022 O 387.408 -0.960046 1.64887 0
M  V30 4023 C 384.548 -1.32243 3.18756 0
M  V30 4024 C 383.661 -0.64669 4.27132 0
M  V30 4025 C 382.796 -1.68238 5.03855 0
M  V30 4026 C 381.835 -0.98885 6.0406 0
M  V30 4027 N 380.972 -1.96903 6.73924 0
M  V30 4028 H 385.812 0.420968 2.95012 0
M  V30 4029 H 383.349 0.219443 1.45454 0
M  V30 4030 H 385.307 -1.94599 3.69036 0
M  V30 4031 H 383.937 -1.97981 2.54958 0
M  V30 4032 H 382.989 0.0902926 3.80293 0
M  V30 4033 H 384.301 -0.101058 4.98698 0
M  V30 4034 H 383.455 -2.38081 5.58034 0
M  V30 4035 H 382.194 -2.26187 4.32077 0
M  V30 4036 H 381.199 -0.276222 5.49106 0
M  V30 4037 H 382.424 -0.415767 6.77826 0
M  V30 4038 H 380.37 -2.53803 6.04913 0
M  V30 4039 H 380.287 -1.47423 7.41487 0
M  V30 4040 H 381.555 -2.66015 7.32705 0
M  V30 4041 N 385.784 -1.5574 0.241426 0
M  V30 4042 C 387.061 -1.90704 -0.434881 0
M  V30 4043 C 387.441 -1.16145 -1.76277 0
M  V30 4044 O 386.789 -0.277152 -2.26813 0
M  V30 4045 C 386.999 -3.43657 -0.608343 0
M  V30 4046 C 388.347 -4.14806 -0.906725 0
M  V30 4047 O 389.371 -3.49366 -0.694408 0
M  V30 4048 O 388.23 -5.30548 -1.31075 0
M  V30 4049 H 385.324 -0.793592 -0.23268 0
M  V30 4050 H 387.87 -1.67288 0.285086 0
M  V30 4051 H 386.642 -3.89927 0.327505 0
M  V30 4052 H 386.265 -3.72918 -1.37906 0
M  V30 4053 N 387.262 0.0317525 -1.57568 0
M  V30 4054 C 388.511 0.722131 -1.8833 0
M  V30 4055 C 388.824 1.76664 -0.839587 0
M  V30 4056 O 390.03 2.50942 -1.03635 0
M  V30 4057 C 388.486 1.33544 -3.34207 0
M  V30 4058 C 388.094 0.327415 -4.46802 0
M  V30 4059 C 389.838 2.00585 -3.7412 0
M  V30 4060 C 387.745 0.948915 -5.83738 0
M  V30 4061 H 386.675 0.273466 -0.702661 0
M  V30 4062 H 389.326 -0.0235811 -1.83485 0
M  V30 4063 H 387.708 2.13077 -3.33788 0
M  V30 4064 H 388.882 -0.441006 -4.58685 0
M  V30 4065 H 387.197 -0.240758 -4.15703 0
M  V30 4066 H 389.794 2.47932 -4.73744 0
M  V30 4067 H 390.137 2.82285 -3.05975 0
M  V30 4068 H 390.67 1.27831 -3.76702 0
M  V30 4069 H 387.409 0.171387 -6.55276 0
M  V30 4070 H 386.929 1.68724 -5.7558 0
M  V30 4071 H 388.608 1.45705 -6.3038 0
M  V30 4072 N 388.74 1.54641 0.303973 0
M  V30 4073 C 389.988 1.73437 1.0375 0
M  V30 4074 C 390.309 0.521449 1.87899 0
M  V30 4075 O 389.579 -0.46432 1.90318 0
M  V30 4076 H 388.159 0.639518 0.386039 0
M  V30 4077 H 390.821 1.91988 0.335675 0
M  V30 4078 H 389.917 2.62235 1.69231 0
M  V30 4079 N 390.218 -0.567019 1.47046 0
M  V30 4080 C 391.148 -1.68482 1.61667 0
M  V30 4081 C 392.129 -1.6358 0.466418 0
M  V30 4082 O 393.314 -1.81354 0.694574 0
M  V30 4083 C 390.444 -3.07124 1.62148 0
M  V30 4084 C 389.398 -3.26867 2.76301 0
M  V30 4085 C 388.724 -4.66196 2.61849 0
M  V30 4086 C 390.024 -3.13186 4.17986 0
M  V30 4087 H 391.718 -1.56502 2.5524 0
M  V30 4088 H 389.264 -0.751486 1.22836 0
M  V30 4089 H 391.217 -3.8516 1.70968 0
M  V30 4090 H 389.941 -3.2004 0.651287 0
M  V30 4091 H 388.6 -2.51237 2.66975 0
M  V30 4092 H 388.248 -4.75898 1.62879 0
M  V30 4093 H 387.948 -4.80356 3.38425 0
M  V30 4094 H 389.472 -5.46379 2.72584 0
M  V30 4095 H 390.886 -3.81049 4.2834 0
M  V30 4096 H 389.283 -3.3886 4.95272 0
M  V30 4097 H 390.353 -2.10057 4.3704 0
M  V30 4098 N 391.696 -1.35014 -0.812953 0
M  V30 4099 C 392.659 -1.27292 -1.90602 0
M  V30 4100 C 393.659 -0.185817 -1.59723 0
M  V30 4101 O 394.849 -0.439102 -1.68575 0
M  V30 4102 C 391.981 -0.967676 -3.26877 0
M  V30 4103 H 393.174 -2.24479 -1.9887 0
M  V30 4104 H 390.727 -1.19446 -1.00808 0
M  V30 4105 H 391.462 0.0005954 -3.243 0
M  V30 4106 H 391.247 -1.75412 -3.50675 0
M  V30 4107 H 392.737 -0.939085 -4.06904 0
M  V30 4108 N 393.175 1.03435 -1.18907 0
M  V30 4109 C 394.125 2.09924 -0.889706 0
M  V30 4110 C 395.109 1.60261 0.143216 0
M  V30 4111 O 396.301 1.76892 -0.0617122 0
M  V30 4112 C 393.43 3.40669 -0.424168 0
M  V30 4113 C 392.516 3.97082 -1.48952 0
M  V30 4114 N 392.907 4.27227 -2.70759 0
M  V30 4115 C 391.205 4.25029 -1.35152 0
M  V30 4116 C 391.906 4.7246 -3.39347 0
M  V30 4117 N 390.882 4.7366 -2.66735 0
M  V30 4118 H 394.684 2.31116 -1.81555 0
M  V30 4119 H 392.198 1.21246 -1.08042 0
M  V30 4120 H 394.195 4.16461 -0.191176 0
M  V30 4121 H 392.855 3.20901 0.495263 0
M  V30 4122 H 393.866 4.16678 -3.0757 0
M  V30 4123 H 390.543 4.14554 -0.495126 0
M  V30 4124 H 391.933 5.04751 -4.43481 0
M  V30 4125 N 394.653 0.992116 1.22453 0
M  V30 4126 C 395.583 0.561677 2.26644 0
M  V30 4127 C 396.564 -0.411055 1.65059 0
M  V30 4128 O 397.749 -0.301861 1.9184 0
M  V30 4129 C 394.879 -0.125247 3.47074 0
M  V30 4130 C 393.833 0.765948 4.21091 0
M  V30 4131 C 393.159 -0.0538484 5.34673 0
M  V30 4132 C 394.459 2.06242 4.79856 0
M  V30 4133 H 396.153 1.43259 2.62902 0
M  V30 4134 H 393.699 0.690283 1.26377 0
M  V30 4135 H 395.652 -0.437764 4.1912 0
M  V30 4136 H 394.376 -1.03069 3.0991 0
M  V30 4137 H 393.035 1.0621 3.50878 0
M  V30 4138 H 392.683 -0.960188 4.9375 0
M  V30 4139 H 392.383 0.539415 5.85119 0
M  V30 4140 H 393.907 -0.360477 6.09535 0
M  V30 4141 H 395.321 1.8139 5.43848 0
M  V30 4142 H 393.718 2.60444 5.40638 0
M  V30 4143 H 394.788 2.74167 3.99951 0
M  V30 4144 N 396.131 -1.37776 0.765217 0
M  V30 4145 C 397.061 -2.32945 0.160953 0
M  V30 4146 C 398.042 -1.55454 -0.690516 0
M  V30 4147 O 399.227 -1.83721 -0.629318 0
M  V30 4148 C 396.357 -3.39669 -0.724031 0
M  V30 4149 C 395.311 -4.27992 0.0256173 0
M  V30 4150 C 394.637 -5.25673 -0.978383 0
M  V30 4151 C 395.937 -5.08309 1.20082 0
M  V30 4152 H 397.631 -2.83728 0.955969 0
M  V30 4153 H 395.177 -1.36416 0.461149 0
M  V30 4154 H 397.13 -4.05219 -1.15652 0
M  V30 4155 H 395.854 -2.87396 -1.5515 0
M  V30 4156 H 394.513 -3.63964 0.438812 0
M  V30 4157 H 394.161 -4.69682 -1.80022 0
M  V30 4158 H 393.861 -5.85625 -0.481378 0
M  V30 4159 H 395.385 -5.94098 -1.40995 0
M  V30 4160 H 396.799 -5.67034 0.845307 0
M  V30 4161 H 395.196 -5.77554 1.62947 0
M  V30 4162 H 396.266 -4.41365 2.00811 0
M  V30 4163 N 397.609 -0.515225 -1.4894 0
M  V30 4164 C 398.857 0.0241671 -2.02086 0
M  V30 4165 C 399.178 1.3616 -1.3959 0
M  V30 4166 O 398.448 1.87841 -0.556121 0
M  V30 4167 H 397.028 0.0119203 -0.746905 0
M  V30 4168 H 399.69 -0.675702 -1.82812 0
M  V30 4169 H 398.786 0.143385 -3.1177 0
M  V30 4170 N 399.087 1.5561 -0.249682 0
M  V30 4171 C 400.315 2.03411 0.378352 0
M  V30 4172 C 400.73 1.12886 1.51335 0
M  V30 4173 O 400.087 0.143833 1.81932 0
M  V30 4174 C 400.138 3.50537 0.88351 0
M  V30 4175 O 399.859 4.37614 -0.20626 0
M  V30 4176 C 401.36 4.14113 1.58195 0
M  V30 4177 H 398.58 0.664994 0.08958 0
M  V30 4178 H 401.124 2.01044 -0.374357 0
M  V30 4179 H 399.279 3.5343 1.58639 0
M  V30 4180 H 399.693 5.24199 0.177782 0
M  V30 4181 H 401.167 5.18741 1.8871 0
M  V30 4182 H 401.644 3.60767 2.50487 0
M  V30 4183 H 402.25 4.15151 0.923573 0
M  V30 4184 N 400.565 -0.0233959 1.57583 0
M  V30 4185 C 401.976 -0.56927 1.77809 0
M  V30 4186 C 402.327 -1.75284 0.881472 0
M  V30 4187 O 401.452 -2.1626 0.0777805 0
M  V30 4188 C 402.047 -1.03949 3.22459 0
M  V30 4189 C 400.606 -1.53084 3.43864 0
M  V30 4190 C 399.753 -0.471454 2.73263 0
M  V30 4191 H 402.704 0.202825 1.57399 0
M  V30 4192 H 402.725 -1.90661 3.29285 0
M  V30 4193 H 402.237 -0.177865 3.87692 0
M  V30 4194 H 400.338 -2.41414 2.83814 0
M  V30 4195 H 400.451 -1.57443 4.52491 0
M  V30 4196 H 398.815 -0.927788 2.37201 0
M  V30 4197 H 399.598 0.380808 3.41181 0
M  V30 4198 N 402.043 -1.548 -0.295768 0
M  V30 4199 C 402.953 -1.89177 -1.38742 0
M  V30 4200 C 403.969 -0.786481 -1.55211 0
M  V30 4201 O 405.145 -1.08344 -1.69775 0
M  V30 4202 C 402.21 -2.13663 -2.73036 0
M  V30 4203 C 401.271 -3.37349 -2.65508 0
M  V30 4204 C 400.504 -3.60658 -3.93398 0
M  V30 4205 O 400.727 -2.86882 -4.93006 0
M  V30 4206 O 399.661 -4.54179 -3.94975 0
M  V30 4207 H 403.487 -2.82059 -1.12589 0
M  V30 4208 H 401.072 -1.41056 -0.492295 0
M  V30 4209 H 402.954 -2.3094 -3.52484 0
M  V30 4210 H 401.629 -1.23967 -2.99022 0
M  V30 4211 H 400.536 -3.25431 -1.84514 0
M  V30 4212 H 401.869 -4.27192 -2.44474 0
M  V30 4213 N 403.521 0.559213 -1.47345 0
M  V30 4214 C 404.77 1.31281 -1.53128 0
M  V30 4215 C 405.083 1.94602 -0.197344 0
M  V30 4216 O 406.289 2.71173 -0.133154 0
M  V30 4217 C 404.745 2.38051 -2.69925 0
M  V30 4218 C 404.353 1.8093 -4.0984 0
M  V30 4219 C 406.097 3.14604 -2.84999 0
M  V30 4220 C 404.004 2.85468 -5.1794 0
M  V30 4221 H 402.934 0.493614 -0.569966 0
M  V30 4222 H 405.585 0.594155 -1.73615 0
M  V30 4223 H 403.967 3.12822 -2.42814 0
M  V30 4224 H 405.141 1.12544 -4.46845 0
M  V30 4225 H 403.456 1.16967 -3.99634 0
M  V30 4226 H 406.053 3.92666 -3.62929 0
M  V30 4227 H 406.396 3.68665 -1.93369 0
M  V30 4228 H 406.929 2.46945 -3.1187 0
M  V30 4229 H 403.668 2.36264 -6.1144 0
M  V30 4230 H 403.188 3.52269 -4.85455 0
M  V30 4231 H 404.867 3.48996 -5.44803 0
M  V30 4232 N 404.999 1.35443 0.805782 0
M  V30 4233 C 406.41 1.25768 1.37983 0
M  V30 4234 C 406.761 -0.10958 1.95894 0
M  V30 4235 O 405.886 -1.01056 1.91355 0
M  V30 4236 C 406.481 2.27727 2.5085 0
M  V30 4237 C 405.04 2.2179 3.04115 0
M  V30 4238 C 404.187 2.13393 1.77084 0
M  V30 4239 H 407.138 1.4656 0.608752 0
M  V30 4240 H 407.159 1.90422 3.29424 0
M  V30 4241 H 406.671 3.27227 2.08671 0
M  V30 4242 H 404.772 1.25703 3.50756 0
M  V30 4243 H 404.885 3.13788 3.62042 0
M  V30 4244 H 403.249 1.59384 1.98668 0
M  V30 4245 H 404.032 3.14755 1.37056 0
M  V30 4246 N 406.477 -1.02803 1.19454 0
M  V30 4247 C 407.387 -2.14575 0.948408 0
M  V30 4248 C 408.403 -1.73757 -0.091871 0
M  V30 4249 O 409.579 -2.01185 0.0929654 0
M  V30 4250 C 406.644 -3.43202 0.491265 0
M  V30 4251 C 405.705 -3.98328 1.60103 0
M  V30 4252 C 404.938 -5.20816 1.16561 0
M  V30 4253 O 405.161 -5.70392 0.0295238 0
M  V30 4254 O 404.095 -5.68801 1.96849 0
M  V30 4255 H 407.921 -2.38202 1.88397 0
M  V30 4256 H 405.506 -1.12989 0.977433 0
M  V30 4257 H 407.388 -4.20687 0.245015 0
M  V30 4258 H 406.063 -3.21018 -0.415851 0
M  V30 4259 H 404.97 -3.22174 1.90144 0
M  V30 4260 H 406.303 -4.24879 2.48473 0
M  V30 4261 N 407.956 -0.998596 -1.21925 0
M  V30 4262 C 409.204 -0.676325 -1.90448 0
M  V30 4263 C 409.525 0.794719 -1.78071 0
M  V30 4264 O 408.795 1.5701 -1.17152 0
M  V30 4265 H 407.375 -0.247165 -0.704925 0
M  V30 4266 H 410.037 -1.26633 -1.48156 0
M  V30 4267 H 409.133 -0.943858 -2.97486 0
M  V30 4268 N 409.434 1.37368 -0.772513 0
M  V30 4269 C 410.662 2.03942 -0.348588 0
M  V30 4270 C 411.077 1.58264 1.02947 0
M  V30 4271 O 410.434 0.764246 1.65727 0
M  V30 4272 C 410.485 3.5946 -0.38351 0
M  V30 4273 O 410.206 4.03468 -1.70721 0
M  V30 4274 C 411.707 4.4327 0.0519152 0
M  V30 4275 H 408.927 0.654931 -0.145966 0
M  V30 4276 H 411.471 1.75686 -1.04665 0
M  V30 4277 H 409.626 3.86486 0.265978 0
M  V30 4278 H 410.04 4.97991 -1.64636 0
M  V30 4279 H 411.514 5.51995 -0.0236733 0
M  V30 4280 H 411.991 4.2514 1.10238 0
M  V30 4281 H 412.597 4.21471 -0.569415 0
M  V30 4282 N 410.912 0.523116 1.48665 0
M  V30 4283 C 411.844 -0.280421 2.27478 0
M  V30 4284 C 412.857 -0.910694 1.34945 0
M  V30 4285 O 414.046 -0.790295 1.60052 0
M  V30 4286 C 411.146 -1.41171 3.08097 0
M  V30 4287 C 410.319 -0.884642 4.28361 0
M  V30 4288 C 409.378 -1.89622 4.90846 0
M  V30 4289 O 408.404 -1.4559 5.50265 0
M  V30 4290 N 409.606 -3.22801 4.82472 0
M  V30 4291 H 412.371 0.395481 2.97079 0
M  V30 4292 H 409.932 0.357018 1.57915 0
M  V30 4293 H 411.924 -2.08645 3.4677 0
M  V30 4294 H 410.494 -1.99139 2.40961 0
M  V30 4295 H 409.714 -0.0341177 3.94185 0
M  V30 4296 H 411.002 -0.511268 5.06225 0
M  V30 4297 H 410.4 -3.61246 4.35336 0
M  V30 4298 H 408.957 -3.85927 5.25265 0
M  V30 4299 N 412.39 -1.55475 0.257931 0
M  V30 4300 C 413.32 -2.24815 -0.630912 0
M  V30 4301 C 414.301 -1.23224 -1.17259 0
M  V30 4302 O 415.486 -1.51904 -1.20991 0
M  V30 4303 C 412.616 -2.95609 -1.82298 0
M  V30 4304 C 411.57 -4.03982 -1.41359 0
M  V30 4305 C 410.896 -4.6226 -2.68738 0
M  V30 4306 C 412.196 -5.19109 -0.57648 0
M  V30 4307 H 413.89 -2.99354 -0.0526878 0
M  V30 4308 H 411.436 -1.4398 -0.023901 0
M  V30 4309 H 413.389 -3.42822 -2.45054 0
M  V30 4310 H 412.113 -2.18577 -2.42676 0
M  V30 4311 H 410.772 -3.57555 -0.809324 0
M  V30 4312 H 410.42 -3.81915 -3.27338 0
M  V30 4313 H 410.12 -5.35424 -2.42065 0
M  V30 4314 H 411.644 -5.12212 -3.32372 0
M  V30 4315 H 413.058 -5.62479 -1.10861 0
M  V30 4316 H 411.455 -5.98729 -0.405351 0
M  V30 4317 H 412.525 -4.83174 0.408776 0
M  V30 4318 N 413.868 0.0150385 -1.57593 0
M  V30 4319 C 415.117 0.702115 -1.89085 0
M  V30 4320 C 415.43 1.75764 -0.858277 0
M  V30 4321 O 416.636 2.49829 -1.0629 0
M  V30 4322 C 415.092 1.29992 -3.35604 0
M  V30 4323 C 414.7 0.280007 -4.47124 0
M  V30 4324 C 416.444 1.96606 -3.76227 0
M  V30 4325 C 414.351 0.886949 -5.84711 0
M  V30 4326 H 413.281 0.265997 -0.705522 0
M  V30 4327 H 415.932 -0.0430408 -1.8345 0
M  V30 4328 H 414.314 2.09525 -3.36029 0
M  V30 4329 H 415.488 -0.489631 -4.58191 0
M  V30 4330 H 413.803 -0.284835 -4.15425 0
M  V30 4331 H 416.4 2.42893 -4.76347 0
M  V30 4332 H 416.743 2.79024 -3.08952 0
M  V30 4333 H 417.276 1.23828 -3.78036 0
M  V30 4334 H 414.015 0.101876 -6.55421 0
M  V30 4335 H 413.535 1.6261 -5.77337 0
M  V30 4336 H 415.214 1.39011 -6.3189 0
M  V30 4337 N 415.346 1.54954 0.287554 0
M  V30 4338 C 416.296 1.8322 1.357 0
M  V30 4339 C 417.28 0.690152 1.45347 0
M  V30 4340 O 418.472 0.951137 1.49273 0
M  V30 4341 C 415.601 2.09481 2.71979 0
M  V30 4342 C 414.687 3.29906 2.66502 0
M  V30 4343 N 415.078 4.50154 2.30641 0
M  V30 4344 C 413.376 3.32203 2.97585 0
M  V30 4345 C 414.077 5.32209 2.34794 0
M  V30 4346 N 413.053 4.70258 2.72688 0
M  V30 4347 H 416.855 2.73746 1.0696 0
M  V30 4348 H 414.369 1.54635 0.496167 0
M  V30 4349 H 416.366 2.27882 3.49107 0
M  V30 4350 H 415.026 1.2023 3.0162 0
M  V30 4351 H 416.037 4.76515 2.02865 0
M  V30 4352 H 412.714 2.53101 3.32034 0
M  V30 4353 H 414.104 6.38321 2.09753 0
M  V30 4354 N 416.824 -0.551391 1.4764 0
M  V30 4355 C 418.24 -0.877887 1.33287 0
M  V30 4356 C 418.44 -1.98817 0.327721 0
M  V30 4357 O 417.496 -2.51171 -0.258695 0
M  V30 4358 C 418.809 -1.26563 2.72768 0
M  V30 4359 C 420.357 -1.37673 2.81097 0
M  V30 4360 C 420.832 -1.79799 4.21232 0
M  V30 4361 N 422.323 -1.8694 4.23802 0
M  V30 4362 C 423.058 -2.20876 5.29151 0
M  V30 4363 N 422.554 -2.53386 6.448 0
M  V30 4364 N 424.347 -2.217 5.16532 0
M  V30 4365 H 416.498 0.18153 2.11623 0
M  V30 4366 H 418.761 0.0185514 0.947818 0
M  V30 4367 H 418.467 -0.523591 3.47781 0
M  V30 4368 H 418.341 -2.22052 3.04915 0
M  V30 4369 H 420.728 -2.10956 2.06353 0
M  V30 4370 H 420.809 -0.40357 2.52596 0
M  V30 4371 H 420.453 -1.07083 4.96483 0
M  V30 4372 H 420.383 -2.78128 4.4716 0
M  V30 4373 H 422.874 -1.64179 3.40373 0
M  V30 4374 H 423.187 -2.78325 7.20941 0
M  V30 4375 H 421.532 -2.50953 6.48111 0
M  V30 4376 H 424.723 -1.95745 4.25207 0
M  V30 4377 H 424.896 -2.47818 5.98741 0
M  V30 4378 N 418.302 -1.35869 -0.798587 0
M  V30 4379 C 419.551 -1.28921 -1.5512 0
M  V30 4380 C 419.864 0.13208 -1.95154 0
M  V30 4381 O 421.07 0.323879 -2.69561 0
M  V30 4382 C 419.526 -2.26141 -2.79979 0
M  V30 4383 C 419.134 -3.73658 -2.47151 0
M  V30 4384 C 420.878 -2.28152 -3.57976 0
M  V30 4385 C 418.785 -4.62679 -3.6835 0
M  V30 4386 H 417.715 -0.479031 -0.582276 0
M  V30 4387 H 420.366 -1.61179 -0.877125 0
M  V30 4388 H 418.748 -1.86865 -3.49138 0
M  V30 4389 H 419.922 -4.21616 -1.85947 0
M  V30 4390 H 418.237 -3.74333 -1.82383 0
M  V30 4391 H 420.834 -2.91875 -4.4801 0
M  V30 4392 H 421.177 -1.28748 -3.95891 0
M  V30 4393 H 421.71 -2.65998 -2.95787 0
M  V30 4394 H 418.449 -5.63111 -3.35538 0
M  V30 4395 H 417.969 -4.19442 -4.28752 0
M  V30 4396 H 419.648 -4.78498 -4.35487 0
M  V30 4397 N 419.78 1.02168 -1.19998 0
M  V30 4398 C 420.69 2.14069 -0.959774 0
M  V30 4399 C 421.706 1.73804 0.082655 0
M  V30 4400 O 422.882 2.01133 -0.103633 0
M  V30 4401 C 419.947 3.42936 -0.509459 0
M  V30 4402 C 419.008 3.97474 -1.62213 0
M  V30 4403 C 418.241 5.2019 -1.19321 0
M  V30 4404 O 418.464 5.70369 -0.0597726 0
M  V30 4405 O 417.398 5.67749 -1.99863 0
M  V30 4406 H 421.224 2.37199 -1.89658 0
M  V30 4407 H 418.809 1.12469 -0.983411 0
M  V30 4408 H 420.691 4.20551 -0.267322 0
M  V30 4409 H 419.366 3.21234 0.398821 0
M  V30 4410 H 418.273 3.21161 -1.9185 0
M  V30 4411 H 419.606 4.23555 -2.50723 0
M  V30 4412 N 421.258 1.00505 1.21394 0
M  V30 4413 C 422.498 0.696149 1.9218 0
M  V30 4414 C 422.862 -0.759099 1.76357 0
M  V30 4415 O 424.063 -1.17998 2.41516 0
M  V30 4416 C 422.334 1.10571 3.39866 0
M  V30 4417 S 423.893 0.91702 4.29111 0
M  V30 4418 H 420.711 0.254147 0.664026 0
M  V30 4419 H 423.313 1.28988 1.46909 0
M  V30 4420 H 422.017 2.16096 3.489 0
M  V30 4421 H 421.548 0.504268 3.90155 0
M  V30 4422 H 423.563 -0.185855 4.95852 0
M  V30 4423 N 422.737 -1.36956 0.779787 0
M  V30 4424 C 424.148 -1.82094 0.412156 0
M  V30 4425 C 424.499 -1.64926 -1.06273 0
M  V30 4426 O 423.624 -1.16483 -1.82375 0
M  V30 4427 C 424.219 -3.3059 0.741319 0
M  V30 4428 C 422.778 -3.73974 0.426641 0
M  V30 4429 C 421.925 -2.59368 0.980987 0
M  V30 4430 H 424.876 -1.25314 0.973758 0
M  V30 4431 H 424.897 -3.80489 0.028887 0
M  V30 4432 H 424.409 -3.43054 1.81482 0
M  V30 4433 H 422.51 -3.67076 -0.639215 0
M  V30 4434 H 422.623 -4.69778 0.940515 0
M  V30 4435 H 420.987 -2.51463 0.404757 0
M  V30 4436 H 421.77 -2.74621 2.06005 0
M  V30 4437 N 424.215 -0.530993 -1.48385 0
M  V30 4438 C 425.445 -0.00133928 -2.066 0
M  V30 4439 C 425.853 1.28599 -1.38777 0
M  V30 4440 O 425.196 1.77599 -0.469495 0
M  V30 4441 C 425.258 0.292137 -3.58311 0
M  V30 4442 C 424.922 -0.901864 -4.48013 0
M  V30 4443 C 425.919 -1.80053 -4.87726 0
M  V30 4444 C 423.604 -1.10915 -4.89901 0
M  V30 4445 C 425.598 -2.89038 -5.68098 0
M  V30 4446 C 423.285 -2.20213 -5.70043 0
M  V30 4447 C 424.283 -3.09107 -6.0905 0
M  V30 4448 O 423.971 -4.16514 -6.87583 0
M  V30 4449 H 423.703 -0.0308475 -0.675296 0
M  V30 4450 H 426.257 -0.736335 -1.91748 0
M  V30 4451 H 424.487 1.08112 -3.7128 0
M  V30 4452 H 426.176 0.763994 -3.98645 0
M  V30 4453 H 426.942 -1.65234 -4.55986 0
M  V30 4454 H 422.821 -0.426498 -4.59023 0
M  V30 4455 H 426.365 -3.58451 -5.98464 0
M  V30 4456 H 422.262 -2.35016 -6.01197 0
M  V30 4457 H 423.03 -4.14237 -7.05939 0
M  V30 4458 N 425.693 1.55336 -0.266172 0
M  V30 4459 C 426.941 1.99003 0.35246 0
M  V30 4460 C 427.262 1.15591 1.57047 0
M  V30 4461 O 426.532 0.243268 1.94384 0
M  V30 4462 H 425.112 0.735025 0.133217 0
M  V30 4463 H 427.774 1.91367 -0.369434 0
M  V30 4464 H 426.87 3.05289 0.648453 0
M  V30 4465 N 427.171 -0.0066808 1.57599 0
M  V30 4466 C 428.582 -0.550379 1.78403 0
M  V30 4467 C 428.933 -1.74339 0.900014 0
M  V30 4468 O 428.058 -2.16166 0.100713 0
M  V30 4469 C 428.653 -1.00523 3.23544 0
M  V30 4470 C 427.212 -1.49428 3.45468 0
M  V30 4471 C 426.359 -0.442444 2.73748 0
M  V30 4472 H 429.31 0.219508 1.57175 0
M  V30 4473 H 429.331 -1.87157 3.31289 0
M  V30 4474 H 428.843 -0.136735 3.87859 0
M  V30 4475 H 426.944 -2.3839 2.86358 0
M  V30 4476 H 427.057 -1.52635 4.54136 0
M  V30 4477 H 425.421 -0.902578 2.38171 0
M  V30 4478 H 426.204 0.416973 3.40758 0
M  V30 4479 N 428.649 -1.55105 -0.279332 0
M  V30 4480 C 429.579 -1.90557 -1.34945 0
M  V30 4481 C 430.56 -0.766738 -1.51839 0
M  V30 4482 O 431.745 -1.02434 -1.64988 0
M  V30 4483 C 428.875 -2.17193 -2.71006 0
M  V30 4484 C 427.829 -3.33021 -2.68851 0
M  V30 4485 C 427.155 -3.45123 -4.08405 0
M  V30 4486 C 428.455 -4.69578 -2.28678 0
M  V30 4487 H 430.149 -2.80188 -1.05522 0
M  V30 4488 H 427.695 -1.34811 -0.506173 0
M  V30 4489 H 429.648 -2.40581 -3.45975 0
M  V30 4490 H 428.372 -1.24355 -3.01999 0
M  V30 4491 H 427.031 -3.0959 -1.9634 0
M  V30 4492 H 426.679 -2.49762 -4.3661 0
M  V30 4493 H 426.379 -4.22995 -4.07859 0
M  V30 4494 H 427.903 -3.70796 -4.85121 0
M  V30 4495 H 429.317 -4.92553 -2.93368 0
M  V30 4496 H 427.714 -5.5032 -2.39306 0
M  V30 4497 H 428.784 -4.68828 -1.23807 0
M  V30 4498 N 430.127 0.543554 -1.4793 0
M  V30 4499 C 431.373 1.30201 -1.55485 0
M  V30 4500 C 431.706 1.92925 -0.222201 0
M  V30 4501 O 430.981 1.78586 0.77053 0
M  V30 4502 C 431.264 2.40174 -2.68307 0
M  V30 4503 C 431.117 1.8223 -4.11233 0
M  V30 4504 C 432.436 3.42024 -2.76961 0
M  V30 4505 H 429.555 0.472036 -0.565996 0
M  V30 4506 H 432.197 0.606914 -1.80046 0
M  V30 4507 H 430.347 2.99463 -2.47495 0
M  V30 4508 H 432.019 1.27096 -4.43446 0
M  V30 4509 H 430.262 1.12832 -4.18869 0
M  V30 4510 H 430.933 2.61793 -4.85972 0
M  V30 4511 H 433.409 2.92672 -2.95774 0
M  V30 4512 H 432.285 4.16383 -3.57654 0
M  V30 4513 H 432.546 4.0173 -1.84568 0
M  V30 4514 N 431.605 1.3629 0.791371 0
M  V30 4515 C 432.515 1.32606 1.93527 0
M  V30 4516 C 433.531 0.228541 1.72493 0
M  V30 4517 O 434.707 0.460571 1.96063 0
M  V30 4518 C 431.772 1.11271 3.28359 0
M  V30 4519 C 430.833 2.3048 3.62185 0
M  V30 4520 C 430.066 2.10154 4.90583 0
M  V30 4521 O 430.289 1.07572 5.60165 0
M  V30 4522 O 429.223 2.97884 5.23019 0
M  V30 4523 H 433.049 2.28909 1.99585 0
M  V30 4524 H 430.634 1.16818 0.931344 0
M  V30 4525 H 432.516 1.01283 4.09047 0
M  V30 4526 H 431.191 0.180292 3.23198 0
M  V30 4527 H 430.098 2.46036 2.81811 0
M  V30 4528 H 431.431 3.22221 3.72068 0
M  V30 4529 N 433.083 -1.0153 1.20538 0
M  V30 4530 C 433.993 -2.13557 0.971113 0
M  V30 4531 C 435.009 -1.73845 -0.0734366 0
M  V30 4532 O 436.185 -2.01075 0.114299 0
M  V30 4533 C 433.25 -3.42661 0.527639 0
M  V30 4534 C 432.311 -3.96608 1.64319 0
M  V30 4535 C 431.544 -5.1955 1.22078 0
M  V30 4536 O 431.767 -5.70329 0.0900198 0
M  V30 4537 O 430.701 -5.66681 2.02871 0
M  V30 4538 H 434.527 -2.3619 1.90913 0
M  V30 4539 H 432.112 -1.11946 0.989362 0
M  V30 4540 H 433.994 -4.20404 0.289621 0
M  V30 4541 H 432.669 -3.21441 -0.381779 0
M  V30 4542 H 431.576 -3.20139 1.93551 0
M  V30 4543 H 432.909 -4.22219 2.52966 0
M  V30 4544 N 434.561 -1.01147 -1.20859 0
M  V30 4545 C 435.508 -0.577354 -2.23462 0
M  V30 4546 C 436.478 0.399922 -1.61214 0
M  V30 4547 O 437.663 0.300515 -1.88419 0
M  V30 4548 C 434.803 0.083372 -3.44999 0
M  V30 4549 C 433.916 -0.937856 -4.21697 0
M  V30 4550 C 433.051 -0.248717 -5.30617 0
M  V30 4551 C 432.09 -1.25705 -5.99053 0
M  V30 4552 N 431.227 -0.594939 -6.99575 0
M  V30 4553 H 436.067 -1.45695 -2.59956 0
M  V30 4554 H 433.604 -0.729428 -1.27741 0
M  V30 4555 H 435.562 0.483535 -4.14388 0
M  V30 4556 H 434.192 0.926645 -3.09214 0
M  V30 4557 H 433.244 -1.45622 -3.51423 0
M  V30 4558 H 434.556 -1.70493 -4.68757 0
M  V30 4559 H 433.71 0.207215 -6.06346 0
M  V30 4560 H 432.449 0.55071 -4.84581 0
M  V30 4561 H 431.454 -1.72343 -5.2209 0
M  V30 4562 H 432.679 -2.05767 -6.47176 0
M  V30 4563 H 430.625 0.184713 -6.5574 0
M  V30 4564 H 430.542 -1.30017 -7.44736 0
M  V30 4565 H 431.81 -0.162427 -7.79331 0
M  V30 4566 N 436.039 1.36541 -0.78704 0
M  V30 4567 C 436.969 2.32659 -0.197992 0
M  V30 4568 C 437.95 1.56533 0.665697 0
M  V30 4569 O 439.135 1.84698 0.60001 0
M  V30 4570 C 436.265 3.40778 0.669901 0
M  V30 4571 C 435.219 4.27897 -0.0937039 0
M  V30 4572 C 434.545 5.27163 0.894629 0
M  V30 4573 C 435.845 5.06334 -1.28154 0
M  V30 4574 H 437.539 2.82171 -1.00099 0
M  V30 4575 H 435.085 1.35665 -0.482793 0
M  V30 4576 H 437.038 4.07008 1.09191 0
M  V30 4577 H 435.762 2.89827 1.50558 0
M  V30 4578 H 434.421 3.6322 -0.49666 0
M  V30 4579 H 434.069 4.72486 1.72527 0
M  V30 4580 H 433.769 5.86317 0.388149 0
M  V30 4581 H 435.293 5.96266 1.31525 0
M  V30 4582 H 436.707 5.65617 -0.93541 0
M  V30 4583 H 435.104 5.74888 -1.72115 0
M  V30 4584 H 436.174 4.38114 -2.07807 0
M  V30 4585 N 437.518 0.538854 1.48102 0
M  V30 4586 C 438.795 -0.0568108 1.95517 0
M  V30 4587 C 439.175 -1.50408 1.48124 0
M  V30 4588 O 438.523 -2.17133 0.711727 0
M  V30 4589 C 438.733 0.0696262 3.48931 0
M  V30 4590 C 440.081 -0.0851202 4.24515 0
M  V30 4591 O 441.105 -0.0037347 3.562 0
M  V30 4592 O 439.964 -0.257025 5.45895 0
M  V30 4593 H 437.058 -0.0743695 0.823649 0
M  V30 4594 H 439.604 0.604081 1.58584 0
M  V30 4595 H 438.376 1.07744 3.76174 0
M  V30 4596 H 437.999 -0.629714 3.92582 0
M  V30 4597 N 438.996 -1.55193 0.274407 0
M  V30 4598 C 439.959 -2.212 -0.600279 0
M  V30 4599 C 440.959 -1.18963 -1.08187 0
M  V30 4600 O 442.149 -1.43873 -0.982158 0
M  V30 4601 C 439.281 -2.87739 -1.82809 0
M  V30 4602 H 440.474 -2.9989 -0.0239682 0
M  V30 4603 H 438.027 -1.5628 0.0250192 0
M  V30 4604 H 438.762 -2.13058 -2.44493 0
M  V30 4605 H 438.547 -3.62658 -1.49069 0
M  V30 4606 H 440.037 -3.38171 -2.45011 0
M  V30 4607 N 440.474 -0.00167713 -1.576 0
M  V30 4608 C 441.72 0.67819 -1.91761 0
M  V30 4609 C 442.075 1.71288 -0.876256 0
M  V30 4610 O 441.368 1.91276 0.111333 0
M  V30 4611 C 441.562 1.36189 -3.30435 0
M  V30 4612 C 441.391 0.394938 -4.47962 0
M  V30 4613 C 440.161 0.00472875 -5.053 0
M  V30 4614 C 442.359 -0.339521 -5.13178 0
M  V30 4615 N 440.341 -0.960257 -6.06343 0
M  V30 4616 C 441.712 -1.15914 -6.09068 0
M  V30 4617 C 443.767 -0.403177 -4.96265 0
M  V30 4618 C 442.47 -2.03661 -6.89866 0
M  V30 4619 C 444.496 -1.26788 -5.77649 0
M  V30 4620 C 443.858 -2.07535 -6.73134 0
M  V30 4621 H 439.957 0.221317 -0.750028 0
M  V30 4622 H 442.541 -0.0624182 -1.946 0
M  V30 4623 H 440.712 2.07278 -3.28467 0
M  V30 4624 H 442.444 1.99658 -3.52021 0
M  V30 4625 H 439.199 0.373452 -4.72125 0
M  V30 4626 H 439.623 -1.43817 -6.61548 0
M  V30 4627 H 444.265 0.206818 -4.22294 0
M  V30 4628 H 441.983 -2.65727 -7.63161 0
M  V30 4629 H 445.569 -1.32107 -5.66603 0
M  V30 4630 H 444.449 -2.73363 -7.35012 0
M  V30 4631 N 441.952 1.55251 0.271103 0
M  V30 4632 C 442.882 1.9127 1.33933 0
M  V30 4633 C 443.863 0.77478 1.5143 0
M  V30 4634 O 445.048 1.03307 1.64442 0
M  V30 4635 C 442.178 2.18627 2.69851 0
M  V30 4636 C 441.132 3.34442 2.67081 0
M  V30 4637 C 440.458 3.47284 4.06569 0
M  V30 4638 C 441.758 4.70784 2.26185 0
M  V30 4639 H 443.452 2.80744 1.04035 0
M  V30 4640 H 440.998 1.35077 0.499017 0
M  V30 4641 H 442.951 2.42413 3.44694 0
M  V30 4642 H 441.675 1.25955 3.01335 0
M  V30 4643 H 440.334 3.10627 1.94695 0
M  V30 4644 H 439.982 2.52074 4.35279 0
M  V30 4645 H 439.682 4.25152 4.0561 0
M  V30 4646 H 441.206 3.73363 4.83148 0
M  V30 4647 H 442.62 4.94102 2.90751 0
M  V30 4648 H 441.017 5.51582 2.36384 0
M  V30 4649 H 442.087 4.69478 1.21319 0
M  V30 4650 N 443.43 -0.535701 1.48216 0
M  V30 4651 C 444.393 -1.623 1.61838 0
M  V30 4652 C 445.393 -1.53087 0.492024 0
M  V30 4653 O 446.583 -1.5686 0.757668 0
M  V30 4654 C 443.715 -3.01907 1.58319 0
M  V30 4655 H 444.908 -1.51564 2.58783 0
M  V30 4656 H 442.461 -0.757317 1.36727 0
M  V30 4657 H 443.196 -3.18155 0.628299 0
M  V30 4658 H 442.981 -3.10003 2.40085 0
M  V30 4659 H 444.471 -3.80969 1.71033 0
M  V30 4660 N 444.908 -1.36708 -0.784132 0
M  V30 4661 C 446.136 -1.34398 -1.57305 0
M  V30 4662 C 446.551 0.0735577 -1.88657 0
M  V30 4663 O 445.908 1.03193 -1.50524 0
M  V30 4664 C 445.959 -2.17053 -2.89085 0
M  V30 4665 O 445.68 -3.53281 -2.59083 0
M  V30 4666 C 447.181 -2.22583 -3.83369 0
M  V30 4667 H 444.401 -0.460819 -0.487736 0
M  V30 4668 H 446.945 -1.79879 -0.972819 0
M  V30 4669 H 445.1 -1.75113 -3.45564 0
M  V30 4670 H 445.514 -3.9647 -3.43383 0
M  V30 4671 H 446.988 -2.84763 -4.72878 0
M  V30 4672 H 447.465 -1.23075 -4.21603 0
M  V30 4673 H 448.071 -2.64781 -3.32823 0
M  V30 4674 N 446.386 1.0089 -1.21074 0
M  V30 4675 C 447.336 2.0799 -0.934034 0
M  V30 4676 C 448.32 1.60529 0.10919 0
M  V30 4677 O 449.512 1.76722 -0.0992198 0
M  V30 4678 C 446.641 3.39693 -0.496334 0
M  V30 4679 C 445.727 3.93833 -1.57341 0
M  V30 4680 N 446.118 4.21388 -2.7976 0
M  V30 4681 C 444.416 4.22067 -1.44137 0
M  V30 4682 C 445.117 4.65156 -3.49292 0
M  V30 4683 N 444.093 4.67895 -2.76722 0
M  V30 4684 H 447.895 2.27213 -1.86417 0
M  V30 4685 H 445.409 1.18927 -1.10589 0
M  V30 4686 H 447.406 4.15962 -0.279471 0
M  V30 4687 H 446.066 3.21879 0.427084 0
M  V30 4688 H 447.077 4.10061 -3.1634 0
M  V30 4689 H 443.754 4.1341 -0.582947 0
M  V30 4690 H 445.144 4.95231 -4.54088 0
M  V30 4691 N 447.864 1.01787 1.20321 0
M  V30 4692 C 449.092 0.727194 1.937 0
M  V30 4693 C 449.507 -0.712305 1.74848 0
M  V30 4694 O 448.864 -1.48327 1.06327 0
M  V30 4695 C 448.915 1.05497 3.45764 0
M  V30 4696 O 448.636 2.43794 3.64 0
M  V30 4697 C 450.137 0.785534 4.36285 0
M  V30 4698 H 447.357 0.266939 0.615617 0
M  V30 4699 H 449.901 1.35939 1.52777 0
M  V30 4700 H 448.056 0.468158 3.84561 0
M  V30 4701 H 448.47 2.55656 4.57974 0
M  V30 4702 H 449.944 1.06495 5.4163 0
M  V30 4703 H 450.421 -0.280273 4.38305 0
M  V30 4704 H 451.027 1.35456 4.03152 0
M  V30 4705 N 449.342 -1.36122 0.79427 0
M  V30 4706 C 450.591 -1.98361 0.365464 0
M  V30 4707 C 450.904 -1.6374 -1.06997 0
M  V30 4708 O 452.11 -2.19251 -1.60129 0
M  V30 4709 C 450.566 -3.54821 0.602496 0
M  V30 4710 C 450.174 -3.98362 2.04967 0
M  V30 4711 C 451.918 -4.2383 0.238437 0
M  V30 4712 C 449.825 -5.47619 2.2331 0
M  V30 4713 H 448.755 -0.742193 0.13291 0
M  V30 4714 H 451.406 -1.55354 0.976589 0
M  V30 4715 H 449.788 -3.95922 -0.078409 0
M  V30 4716 H 450.962 -3.68447 2.76737 0
M  V30 4717 H 449.277 -3.42206 2.37243 0
M  V30 4718 H 451.874 -5.33529 0.353705 0
M  V30 4719 H 452.217 -4.08264 -0.814006 0
M  V30 4720 H 452.75 -3.88108 0.872769 0
M  V30 4721 H 449.489 -5.68138 3.26955 0
M  V30 4722 H 449.009 -5.79145 1.5605 0
M  V30 4723 H 450.688 -6.13911 2.0426 0
M  V30 4724 N 450.82 -0.546701 -1.47814 0
M  V30 4725 C 451.783 0.196287 -2.28358 0
M  V30 4726 C 452.783 0.852437 -1.36346 0
M  V30 4727 O 453.973 0.709913 -1.59078 0
M  V30 4728 C 451.105 1.28579 -3.15722 0
M  V30 4729 H 452.298 -0.511086 -2.95513 0
M  V30 4730 H 449.851 -0.303248 -1.5333 0
M  V30 4731 H 450.586 2.0259 -2.53235 0
M  V30 4732 H 450.371 0.820229 -3.83425 0
M  V30 4733 H 451.861 1.80793 -3.76435 0
M  V30 4734 N 452.299 1.55045 -0.282633 0
M  V30 4735 C 453.209 2.26491 0.61147 0
M  V30 4736 C 454.225 1.29348 1.16384 0
M  V30 4737 O 455.401 1.62298 1.19253 0
M  V30 4738 C 452.466 2.97779 1.77563 0
M  V30 4739 C 451.527 4.10418 1.25919 0
M  V30 4740 C 450.76 4.78297 2.36786 0
M  V30 4741 O 450.983 4.45426 3.56303 0
M  V30 4742 O 449.917 5.66089 2.04517 0
M  V30 4743 H 453.743 3.03683 0.0324615 0
M  V30 4744 H 451.328 1.49317 -0.0497576 0
M  V30 4745 H 453.21 3.42554 2.45427 0
M  V30 4746 H 451.885 2.23498 2.34159 0
M  V30 4747 H 450.792 3.70082 0.546797 0
M  V30 4748 H 452.125 4.86622 0.738887 0
M  V30 4749 N 453.777 0.010035 1.57597 0
M  V30 4750 C 455.023 -0.673697 1.91283 0
M  V30 4751 C 455.356 -1.72863 0.884979 0
M  V30 4752 O 454.631 -1.94268 -0.0949487 0
M  V30 4753 C 454.914 -1.30766 3.35518 0
M  V30 4754 C 454.767 -0.263578 4.49027 0
M  V30 4755 C 456.086 -2.23105 3.79358 0
M  V30 4756 H 453.205 -0.243439 0.695634 0
M  V30 4757 H 455.847 0.0633864 1.89894 0
M  V30 4758 H 453.997 -1.93588 3.36832 0
M  V30 4759 H 455.669 0.365738 4.59848 0
M  V30 4760 H 453.912 0.413077 4.31829 0
M  V30 4761 H 454.583 -0.746398 5.4693 0
M  V30 4762 H 457.059 -1.70289 3.79659 0
M  V30 4763 H 455.935 -2.64424 4.81011 0
M  V30 4764 H 456.196 -3.11433 3.13787 0
M  V30 4765 N 455.255 -1.55392 -0.262866 0
M  V30 4766 C 456.202 -1.88966 -1.32516 0
M  V30 4767 C 457.172 -0.742187 -1.48596 0
M  V30 4768 O 458.357 -0.99439 -1.62839 0
M  V30 4769 C 455.497 -2.17592 -2.67858 0
M  V30 4770 C 454.61 -3.45061 -2.59917 0
M  V30 4771 C 453.745 -3.63336 -3.87505 0
M  V30 4772 C 452.784 -4.84462 -3.74116 0
M  V30 4773 N 451.921 -4.99342 -4.93561 0
M  V30 4774 H 456.761 -2.79566 -1.03184 0
M  V30 4775 H 454.298 -1.38404 -0.498285 0
M  V30 4776 H 456.256 -2.3219 -3.46617 0
M  V30 4777 H 454.886 -1.30215 -2.95371 0
M  V30 4778 H 453.938 -3.38881 -1.72812 0
M  V30 4779 H 455.25 -4.3396 -2.45926 0
M  V30 4780 H 454.404 -3.77807 -4.74707 0
M  V30 4781 H 453.143 -2.72641 -4.04374 0
M  V30 4782 H 452.148 -4.69985 -2.85297 0
M  V30 4783 H 453.373 -5.76603 -3.58757 0
M  V30 4784 H 451.319 -4.1158 -5.10821 0
M  V30 4785 H 451.236 -5.82303 -4.82141 0
M  V30 4786 H 452.504 -5.18208 -5.82306 0
M  V30 4787 N 456.733 0.527833 -1.48498 0
M  V30 4788 C 457.643 1.65907 -1.65867 0
M  V30 4789 C 458.659 1.6537 -0.541192 0
M  V30 4790 O 459.835 1.84282 -0.812534 0
M  V30 4791 C 456.9 3.02364 -1.69637 0
M  V30 4792 C 455.961 3.1374 -2.93028 0
M  V30 4793 C 455.194 4.43688 -2.96609 0
M  V30 4794 O 455.417 5.30913 -2.08538 0
M  V30 4795 O 454.351 4.59475 -3.88802 0
M  V30 4796 H 458.177 1.5419 -2.61647 0
M  V30 4797 H 455.762 0.701163 -1.31924 0
M  V30 4798 H 457.644 3.83515 -1.74625 0
M  V30 4799 H 456.319 3.14401 -0.770312 0
M  V30 4800 H 455.226 2.31877 -2.93571 0
M  V30 4801 H 456.559 3.06621 -3.85026 0
M  V30 4802 N 458.211 1.37122 0.776871 0
M  V30 4803 C 459.627 1.1781 1.07671 0
M  V30 4804 C 459.827 0.0107454 2.01497 0
M  V30 4805 O 458.883 -0.650756 2.4397 0
M  V30 4806 C 460.196 2.49451 1.67913 0
M  V30 4807 C 461.744 2.55927 1.80195 0
M  V30 4808 C 462.219 3.87686 2.43851 0
M  V30 4809 N 463.71 3.891 2.51307 0
M  V30 4810 C 464.445 4.87797 3.014 0
M  V30 4811 N 463.941 5.96888 3.51705 0
M  V30 4812 N 465.734 4.75205 3.00227 0
M  V30 4813 H 457.885 2.11843 0.153778 0
M  V30 4814 H 460.148 0.938927 0.130844 0
M  V30 4815 H 459.854 3.35207 1.06439 0
M  V30 4816 H 459.728 2.66169 2.67271 0
M  V30 4817 H 462.115 1.70582 2.40803 0
M  V30 4818 H 462.196 2.43097 0.796069 0
M  V30 4819 H 461.84 4.73444 1.83884 0
M  V30 4820 H 461.77 3.97817 3.45035 0
M  V30 4821 H 464.261 3.10293 2.157 0
M  V30 4822 H 464.574 6.68155 3.88316 0
M  V30 4823 H 462.919 6.0054 3.49824 0
M  V30 4824 H 466.11 3.89103 2.60224 0
M  V30 4825 H 466.283 5.52279 3.38957 0
M  V30 4826 N 459.689 -1.00246 1.21608 0
M  V30 4827 C 460.936 -1.74061 1.03485 0
M  V30 4828 C 461.264 -1.89658 -0.431308 0
M  V30 4829 O 460.519 -1.42976 -1.33627 0
M  V30 4830 C 460.818 -3.15448 1.68009 0
M  V30 4831 C 460.484 -3.19792 3.17874 0
M  V30 4832 C 459.146 -3.20685 3.58768 0
M  V30 4833 C 461.498 -3.16835 4.13842 0
M  V30 4834 C 458.826 -3.16309 4.94131 0
M  V30 4835 C 461.178 -3.14001 5.49169 0
M  V30 4836 C 459.842 -3.13204 5.89457 0
M  V30 4837 H 459.112 -0.636934 0.378677 0
M  V30 4838 H 461.759 -1.17473 1.51236 0
M  V30 4839 H 460.064 -3.75284 1.12557 0
M  V30 4840 H 461.761 -3.71285 1.51487 0
M  V30 4841 H 458.351 -3.19842 2.85305 0
M  V30 4842 H 462.535 -3.15303 3.83272 0
M  V30 4843 H 457.791 -3.14032 5.24589 0
M  V30 4844 H 461.965 -3.10667 6.23265 0
M  V30 4845 H 459.592 -3.09568 6.94314 0
M  V30 4846 N 461.167 -1.02423 -1.1978 0
M  V30 4847 C 462.13 -0.605703 -2.21052 0
M  V30 4848 C 463.13 0.328209 -1.57415 0
M  V30 4849 O 464.32 0.115853 -1.73814 0
M  V30 4850 C 461.452 0.114366 -3.40708 0
M  V30 4851 H 462.645 -1.5017 -2.59594 0
M  V30 4852 H 460.198 -0.814888 -1.33376 0
M  V30 4853 H 460.933 1.02492 -3.07678 0
M  V30 4854 H 460.718 -0.556641 -3.88129 0
M  V30 4855 H 462.208 0.394272 -4.15735 0
M  V30 4856 N 462.645 1.35699 -0.801477 0
M  V30 4857 C 463.555 2.33661 -0.209691 0
M  V30 4858 C 464.571 1.6162 0.644591 0
M  V30 4859 O 465.747 1.93529 0.557545 0
M  V30 4860 C 462.812 3.40816 0.636033 0
M  V30 4861 C 461.873 4.28639 -0.238147 0
M  V30 4862 C 461.106 5.30676 0.567307 0
M  V30 4863 O 461.329 5.41174 1.8024 0
M  V30 4864 O 460.263 6.01887 -0.0391336 0
M  V30 4865 H 464.089 2.8606 -1.01996 0
M  V30 4866 H 461.674 1.38379 -0.563164 0
M  V30 4867 H 463.556 4.06301 1.11791 0
M  V30 4868 H 462.231 2.90696 1.42399 0
M  V30 4869 H 461.138 3.66152 -0.767044 0
M  V30 4870 H 462.471 4.82143 -0.989915 0
M  V30 4871 N 464.123 0.554532 1.47522 0
M  V30 4872 C 465.053 -0.182974 2.32782 0
M  V30 4873 C 466.034 -0.911377 1.43624 0
M  V30 4874 O 467.219 -0.892366 1.72483 0
M  V30 4875 C 464.349 -1.21513 3.25349 0
M  V30 4876 C 463.303 -0.603355 4.23726 0
M  V30 4877 C 462.629 -1.73995 5.05598 0
M  V30 4878 C 463.929 0.441121 5.20434 0
M  V30 4879 H 465.623 0.52882 2.94693 0
M  V30 4880 H 463.169 0.255759 1.41711 0
M  V30 4881 H 465.122 -1.73922 3.83835 0
M  V30 4882 H 463.846 -1.95683 2.61487 0
M  V30 4883 H 462.505 -0.10059 3.66462 0
M  V30 4884 H 462.153 -2.47063 4.38143 0
M  V30 4885 H 461.853 -1.3364 5.72201 0
M  V30 4886 H 463.377 -2.26735 5.66942 0
M  V30 4887 H 464.791 0.00319931 5.733 0
M  V30 4888 H 463.188 0.763402 5.95224 0
M  V30 4889 H 464.258 1.33799 4.66075 0
M  V30 4890 N 465.601 -1.54893 0.290851 0
M  V30 4891 C 466.549 -2.24579 -0.605576 0
M  V30 4892 C 467.543 -1.24824 -1.14522 0
M  V30 4893 O 468.749 -1.42706 -1.09704 0
M  V30 4894 H 465.124 -0.720946 -0.213872 0
M  V30 4895 H 467.095 -2.984 0.0048173 0
M  V30 4896 C 465.844 -2.99224 -1.77088 0
M  V30 4897 H 465.167 -3.75782 -1.36484 0
M  V30 4898 H 466.607 -3.51281 -2.3744 0
M  V30 4899 C 465.066 -2.05602 -2.66888 0
M  V30 4900 O 465.596 -1.61745 -3.67698 0
M  V30 4901 N 463.802 -1.71771 -2.34399 0
M  V30 4902 H 463.349 -2.07633 -1.52468 0
M  V30 4903 H 463.307 -1.09403 -2.94751 0
M  V30 4904 N 467.08 -0.0183926 -1.57589 0
M  V30 4905 C 468.329 0.66185 -1.90532 0
M  V30 4906 C 468.642 1.73904 -0.895366 0
M  V30 4907 O 469.848 2.47518 -1.11566 0
M  V30 4908 C 468.304 1.22844 -3.38286 0
M  V30 4909 C 467.912 0.185103 -4.47617 0
M  V30 4910 C 469.656 1.88581 -3.80312 0
M  V30 4911 C 467.563 0.762723 -5.86461 0
M  V30 4912 H 466.493 0.250972 -0.711006 0
M  V30 4913 H 469.144 -0.0819435 -1.83317 0
M  V30 4914 H 467.526 2.0235 -3.40398 0
M  V30 4915 H 468.7 -0.58671 -4.5705 0
M  V30 4916 H 467.015 -0.372889 -4.14727 0
M  V30 4917 H 469.612 2.32735 -4.81392 0
M  V30 4918 H 469.955 2.72408 -3.14801 0
M  V30 4919 H 470.488 1.15782 -3.80578 0
M  V30 4920 H 467.227 -0.0371713 -6.55489 0
M  V30 4921 H 466.747 1.50327 -5.80656 0
M  V30 4922 H 468.426 1.25576 -6.34697 0
M  V30 4923 N 468.558 1.5553 0.254621 0
M  V30 4924 C 469.521 1.88872 1.29846 0
M  V30 4925 C 470.521 0.764591 1.41459 0
M  V30 4926 O 471.711 1.03265 1.40293 0
M  V30 4927 C 468.843 2.11032 2.67728 0
M  V30 4928 H 470.036 2.82201 1.01502 0
M  V30 4929 H 467.589 1.48303 0.493556 0
M  V30 4930 H 468.324 1.20146 3.01223 0
M  V30 4931 H 468.109 2.92895 2.60682 0
M  V30 4932 H 469.599 2.38038 3.43115 0
M  V30 4933 N 470.036 -0.519951 1.48776 0
M  V30 4934 C 471.276 -1.2856 1.58908 0
M  V30 4935 C 471.64 -1.90212 0.261418 0
M  V30 4936 O 472.841 -2.67746 0.237791 0
M  V30 4937 C 471.112 -2.33836 2.70288 0
M  V30 4938 S 472.671 -3.19992 3.0025 0
M  V30 4939 H 469.489 -0.43717 0.560717 0
M  V30 4940 H 472.091 -0.591205 1.86346 0
M  V30 4941 H 470.795 -1.87041 3.653 0
M  V30 4942 H 470.326 -3.07969 2.44783 0
M  V30 4943 H 472.341 -4.34122 2.40317 0
M  V30 4944 N 471.514 -1.37532 -0.769588 0
M  V30 4945 C 472.477 -1.33292 -1.86456 0
M  V30 4946 C 473.477 -0.236537 -1.59051 0
M  V30 4947 O 474.667 -0.492511 -1.67093 0
M  V30 4948 C 471.799 -1.07118 -3.23633 0
M  V30 4949 H 472.992 -2.30692 -1.91628 0
M  V30 4950 H 470.545 -1.22593 -0.969572 0
M  V30 4951 H 471.28 -0.102578 -3.24138 0
M  V30 4952 H 471.065 -1.86479 -3.44917 0
M  V30 4953 H 472.555 -1.06806 -4.03711 0
M  V30 4954 N 472.992 0.995999 -1.22138 0
M  V30 4955 C 473.939 2.08551 -0.988687 0
M  V30 4956 C 474.909 1.65864 0.0885021 0
M  V30 4957 O 476.094 1.90704 -0.0604589 0
M  V30 4958 C 473.234 3.40374 -0.569191 0
M  V30 4959 C 472.347 3.96421 -1.71681 0
M  V30 4960 C 471.482 5.1639 -1.2456 0
M  V30 4961 C 470.521 5.64567 -2.36497 0
M  V30 4962 N 469.658 6.75777 -1.90445 0
M  V30 4963 H 474.498 2.2779 -1.92135 0
M  V30 4964 H 472.035 1.1168 -0.957388 0
M  V30 4965 H 473.993 4.16068 -0.307166 0
M  V30 4966 H 472.623 3.21145 0.326462 0
M  V30 4967 H 471.675 3.17628 -2.09324 0
M  V30 4968 H 472.987 4.2816 -2.55891 0
M  V30 4969 H 472.141 5.99362 -0.940774 0
M  V30 4970 H 470.88 4.86266 -0.373662 0
M  V30 4971 H 469.885 4.80185 -2.67772 0
M  V30 4972 H 471.11 5.96716 -3.24202 0
M  V30 4973 H 469.056 6.47443 -1.05609 0
M  V30 4974 H 468.973 7.06818 -2.68223 0
M  V30 4975 H 470.241 7.62262 -1.63022 0
M  V30 4976 N 474.47 1.03057 1.19235 0
M  V30 4977 C 475.716 0.729098 1.89241 0
M  V30 4978 C 476.049 -0.740573 1.79525 0
M  V30 4979 O 475.324 -1.53946 1.18874 0
M  V30 4980 C 475.607 1.18304 3.40112 0
M  V30 4981 C 475.46 2.71406 3.5869 0
M  V30 4982 C 476.779 0.765161 4.33397 0
M  V30 4983 H 473.898 0.266338 0.687192 0
M  V30 4984 H 476.54 1.28079 1.40341 0
M  V30 4985 H 474.69 0.713672 3.81889 0
M  V30 4986 H 476.362 3.26303 3.26074 0
M  V30 4987 H 474.605 3.11717 3.01687 0
M  V30 4988 H 475.276 2.98225 4.64506 0
M  V30 4989 H 477.752 1.16889 3.99345 0
M  V30 4990 H 476.628 1.11065 5.37546 0
M  V30 4991 H 476.889 -0.332372 4.40849 0
M  V30 4992 N 475.948 -1.35272 0.808662 0
M  V30 4993 C 476.878 -2.32315 0.234981 0
M  V30 4994 C 477.859 -1.57572 -0.64071 0
M  V30 4995 O 479.044 -1.8563 -0.570551 0
M  V30 4996 C 476.174 -3.41801 -0.615601 0
M  V30 4997 C 475.128 -4.27694 0.161767 0
M  V30 4998 C 474.454 -5.28519 -0.810649 0
M  V30 4999 C 475.754 -5.04231 1.36193 0
M  V30 5000 H 477.448 -2.80543 1.04575 0
M  V30 5001 H 474.994 -1.3488 0.504315 0
M  V30 5002 H 476.947 -4.08693 -1.02702 0
M  V30 5003 H 475.671 -2.92186 -1.45928 0
M  V30 5004 H 474.33 -3.62384 0.554382 0
M  V30 5005 H 473.978 -4.75171 -1.64988 0
M  V30 5006 H 473.678 -5.8686 -0.294822 0
M  V30 5007 H 475.202 -5.98283 -1.22023 0
M  V30 5008 H 476.616 -5.64058 1.02528 0
M  V30 5009 H 475.013 -5.72077 1.81239 0
M  V30 5010 H 476.083 -4.34753 2.14751 0
M  V30 5011 N 477.426 -0.562348 -1.47226 0
M  V30 5012 C 478.654 -0.0452275 -2.06851 0
M  V30 5013 C 479.069 1.25078 -1.41424 0
M  V30 5014 O 478.426 1.75156 -0.512513 0
M  V30 5015 C 478.477 0.148674 -3.61194 0
M  V30 5016 O 478.198 -1.09602 -4.24169 0
M  V30 5017 C 479.699 0.702488 -4.37699 0
M  V30 5018 H 476.919 -0.0481775 -0.669268 0
M  V30 5019 H 479.463 -0.777223 -1.89155 0
M  V30 5020 H 477.618 0.830817 -3.78386 0
M  V30 5021 H 478.032 -0.896982 -5.16773 0
M  V30 5022 H 479.506 0.78743 -5.46355 0
M  V30 5023 H 479.983 1.71493 -4.04335 0
M  V30 5024 H 480.589 0.0558772 -4.25263 0
M  V30 5025 N 478.904 1.54736 -0.299062 0
M  V30 5026 C 480.15 2.00397 0.311244 0
M  V30 5027 C 480.483 1.18716 1.53688 0
M  V30 5028 O 479.758 0.263154 1.92712 0
M  V30 5029 C 480.041 3.53817 0.669761 0
M  V30 5030 C 479.894 4.46239 -0.564882 0
M  V30 5031 C 481.213 4.13856 1.49702 0
M  V30 5032 H 478.332 0.728493 0.111653 0
M  V30 5033 H 480.974 1.85506 -0.410774 0
M  V30 5034 H 479.124 3.66637 1.28491 0
M  V30 5035 H 480.796 4.45328 -1.20337 0
M  V30 5036 H 479.039 4.16916 -1.19849 0
M  V30 5037 H 479.71 5.5134 -0.269918 0
M  V30 5038 H 482.186 4.04461 0.977284 0
M  V30 5039 H 481.062 5.21365 1.71666 0
M  V30 5040 H 481.323 3.65608 2.48563 0
M  V30 5041 N 480.382 0.0267497 1.57577 0
M  V30 5042 C 481.793 -0.512413 1.79531 0
M  V30 5043 C 482.144 -1.72391 0.936791 0
M  V30 5044 O 481.269 -2.15903 0.146543 0
M  V30 5045 C 481.864 -0.936378 3.25603 0
M  V30 5046 C 480.423 -1.42067 3.4856 0
M  V30 5047 C 479.57 -0.384278 2.74624 0
M  V30 5048 H 482.521 0.252797 1.56674 0
M  V30 5049 H 482.542 -1.80088 3.35184 0
M  V30 5050 H 482.054 -0.0544332 3.88062 0
M  V30 5051 H 480.155 -2.32262 2.9135 0
M  V30 5052 H 480.268 -1.42968 4.57271 0
M  V30 5053 H 478.632 -0.851855 2.40032 0
M  V30 5054 H 479.415 0.489159 3.39797 0
M  V30 5055 N 481.861 -1.55662 -0.24637 0
M  V30 5056 C 482.771 -1.93495 -1.32653 0
M  V30 5057 C 483.787 -0.835462 -1.5263 0
M  V30 5058 O 484.963 -1.1369 -1.66242 0
M  V30 5059 C 482.028 -2.22242 -2.66101 0
M  V30 5060 C 481.089 -3.45625 -2.54641 0
M  V30 5061 C 480.322 -3.72991 -3.81724 0
M  V30 5062 O 480.545 -3.02421 -4.8363 0
M  V30 5063 O 479.479 -4.66515 -3.80325 0
M  V30 5064 H 483.305 -2.85498 -1.03559 0
M  V30 5065 H 480.89 -1.42551 -0.44717 0
M  V30 5066 H 482.772 -2.42037 -3.44958 0
M  V30 5067 H 481.447 -1.33417 -2.94926 0
M  V30 5068 H 480.354 -3.31136 -1.74067 0
M  V30 5069 H 481.687 -4.34754 -2.3076 0
M  V30 5070 N 483.339 0.512053 -1.4905 0
M  V30 5071 C 484.269 1.62365 -1.67809 0
M  V30 5072 C 485.25 1.61737 -0.526809 0
M  V30 5073 O 486.435 1.78651 -0.761404 0
M  V30 5074 C 483.565 3.00895 -1.73435 0
M  V30 5075 C 482.519 3.16387 -2.88242 0
M  V30 5076 C 481.845 4.56157 -2.78971 0
M  V30 5077 C 483.145 2.97457 -4.29321 0
M  V30 5078 H 484.839 1.46921 -2.60873 0
M  V30 5079 H 482.385 0.705379 -1.2554 0
M  V30 5080 H 484.338 3.78549 -1.85145 0
M  V30 5081 H 483.062 3.17403 -0.769619 0
M  V30 5082 H 481.721 2.41155 -2.76116 0
M  V30 5083 H 481.369 4.69525 -1.8043 0
M  V30 5084 H 481.069 4.67465 -3.5602 0
M  V30 5085 H 482.593 5.35886 -2.92675 0
M  V30 5086 H 484.007 3.64888 -4.42187 0
M  V30 5087 H 482.404 3.20245 -5.07507 0
M  V30 5088 H 483.474 1.93692 -4.44535 0
M  V30 5089 N 484.817 1.37938 0.762283 0
M  V30 5090 C 485.727 1.36681 1.90671 0
M  V30 5091 C 486.743 0.265078 1.71969 0
M  V30 5092 O 487.919 0.502055 1.95042 0
M  V30 5093 C 484.984 1.18211 3.25925 0
M  V30 5094 C 484.045 2.3811 3.57214 0
M  V30 5095 C 483.278 2.20512 4.86014 0
M  V30 5096 O 483.501 1.19429 5.57757 0
M  V30 5097 O 482.435 3.08911 5.16583 0
M  V30 5098 H 486.261 2.33091 1.94685 0
M  V30 5099 H 483.846 1.18767 0.906356 0
M  V30 5100 H 485.728 1.09937 4.06807 0
M  V30 5101 H 484.403 0.248807 3.22742 0
M  V30 5102 H 483.31 2.51958 2.76529 0
M  V30 5103 H 484.643 3.30041 3.65149 0
M  V30 5104 N 486.295 -0.989507 1.22664 0
M  V30 5105 C 487.52 -1.77031 1.08051 0
M  V30 5106 C 487.945 -1.84535 -0.364483 0
M  V30 5107 O 487.303 -1.3003 -1.2634 0
M  V30 5108 C 487.351 -3.18 1.70024 0
M  V30 5109 O 486.455 -4.01161 0.956216 0
M  V30 5110 H 485.796 -0.545008 0.379292 0
M  V30 5111 H 488.326 -1.24277 1.62531 0
M  V30 5112 H 488.336 -3.68616 1.74888 0
M  V30 5113 H 487.011 -3.11853 2.75174 0
M  V30 5114 H 485.588 -3.59687 0.98384 0
M  V30 5115 N 487.773 -1.03688 -1.18687 0
M  V30 5116 C 488.721 -0.618292 -2.24232 0
M  V30 5117 C 489.715 0.353045 -1.6568 0
M  V30 5118 O 490.921 0.220749 -1.78641 0
M  V30 5119 H 487.296 -0.181711 -0.729716 0
M  V30 5120 H 489.267 -1.51893 -2.56848 0
M  V30 5121 C 488.016 0.00677342 -3.47699 0
M  V30 5122 H 487.339 -0.731692 -3.93047 0
M  V30 5123 H 488.779 0.262492 -4.23187 0
M  V30 5124 C 487.238 1.25572 -3.12623 0
M  V30 5125 O 487.768 2.34691 -3.26011 0
M  V30 5126 N 485.974 1.14755 -2.66982 0
M  V30 5127 H 485.521 0.259601 -2.56289 0
M  V30 5128 H 485.479 1.98412 -2.43885 0
M  V30 5129 N 489.251 1.34841 -0.815825 0
M  V30 5130 C 490.662 1.80937 -0.46029 0
M  V30 5131 C 491.013 1.67685 1.01863 0
M  V30 5132 O 490.138 1.21277 1.79223 0
M  V30 5133 C 490.733 3.28509 -0.828708 0
M  V30 5134 C 489.292 3.72712 -0.525644 0
M  V30 5135 C 488.439 2.56676 -1.04941 0
M  V30 5136 H 491.39 1.22688 -1.00664 0
M  V30 5137 H 491.411 3.80279 -0.129757 0
M  V30 5138 H 490.923 3.38122 -1.90513 0
M  V30 5139 H 489.024 3.68642 0.541666 0
M  V30 5140 H 489.137 4.67119 -1.06474 0
M  V30 5141 H 487.501 2.50302 -0.471286 0
M  V30 5142 H 488.284 2.69063 -2.13214 0
M  V30 5143 N 490.729 0.570148 1.46925 0
M  V30 5144 C 491.661 -0.207909 2.28255 0
M  V30 5145 C 492.674 -0.867301 1.37774 0
M  V30 5146 O 493.863 -0.738976 1.62485 0
M  V30 5147 C 490.963 -1.31298 3.12433 0
M  V30 5148 C 490.136 -0.747915 4.30958 0
M  V30 5149 C 489.195 -1.7391 4.9663 0
M  V30 5150 O 488.221 -1.2801 5.54619 0
M  V30 5151 N 489.423 -3.07288 4.92498 0
M  V30 5152 H 492.188 0.489794 2.95671 0
M  V30 5153 H 489.749 0.407076 1.56699 0
M  V30 5154 H 491.741 -1.97507 3.53232 0
M  V30 5155 H 490.311 -1.91373 2.47175 0
M  V30 5156 H 489.531 0.0913066 3.94094 0
M  V30 5157 H 490.819 -0.349958 5.07595 0
M  V30 5158 H 490.217 -3.47213 4.46609 0
M  V30 5159 H 488.774 -3.69021 5.37277 0
M  V30 5160 N 492.207 -1.54576 0.307264 0
M  V30 5161 C 493.437 -2.04378 -0.302158 0
M  V30 5162 C 493.845 -1.18381 -1.47589 0
M  V30 5163 O 493.188 -0.20352 -1.82569 0
M  V30 5164 C 493.25 -3.50133 -0.815305 0
M  V30 5165 C 492.914 -4.56401 0.233977 0
M  V30 5166 C 493.911 -5.08884 1.06456 0
M  V30 5167 C 491.596 -5.0088 0.377478 0
M  V30 5168 C 493.59 -6.04394 2.02452 0
M  V30 5169 C 491.277 -5.96208 1.34088 0
M  V30 5170 C 492.275 -6.47849 2.16288 0
M  V30 5171 O 491.963 -7.41308 3.10994 0
M  V30 5172 H 491.695 -0.672502 -0.0686839 0
M  V30 5173 H 494.249 -2.00484 0.446682 0
M  V30 5174 H 492.479 -3.51371 -1.61478 0
M  V30 5175 H 494.168 -3.83098 -1.34129 0
M  V30 5176 H 494.934 -4.75311 0.964596 0
M  V30 5177 H 490.813 -4.60309 -0.252405 0
M  V30 5178 H 494.357 -6.44626 2.66652 0
M  V30 5179 H 490.254 -6.29198 1.44154 0
M  V30 5180 H 491.022 -7.5913 3.06045 0
M  V30 5181 N 493.685 -0.035106 -1.57561 0
M  V30 5182 C 494.931 0.64318 -1.92331 0
M  V30 5183 C 495.264 1.71434 -0.912368 0
M  V30 5184 O 494.539 1.94395 0.0640303 0
M  V30 5185 C 494.822 1.25411 -3.37556 0
M  V30 5186 C 494.675 0.192109 -4.4939 0
M  V30 5187 C 495.994 2.17041 -3.82859 0
M  V30 5188 H 493.113 0.232341 -0.699419 0
M  V30 5189 H 495.755 -0.0935889 -1.89769 0
M  V30 5190 H 493.905 1.88205 -3.39869 0
M  V30 5191 H 495.577 -0.438849 -4.59208 0
M  V30 5192 H 493.82 -0.481725 -4.31117 0
M  V30 5193 H 494.491 0.659292 -5.48049 0
M  V30 5194 H 496.967 1.64228 -3.8232 0
M  V30 5195 H 495.843 2.56738 -4.85157 0
M  V30 5196 H 496.104 3.06401 -3.18702 0
M  V30 5197 N 495.163 1.55791 0.238111 0
M  V30 5198 C 496.126 1.90239 1.27835 0
M  V30 5199 C 497.126 0.779552 1.4064 0
M  V30 5200 O 498.316 1.04747 1.3919 0
M  V30 5201 C 495.448 2.13859 2.65475 0
M  V30 5202 H 496.641 2.83262 0.985034 0
M  V30 5203 H 494.194 1.48818 0.477799 0
M  V30 5204 H 494.929 1.23334 2.99932 0
M  V30 5205 H 494.714 2.95643 2.57561 0
M  V30 5206 H 496.204 2.41664 3.40571 0
M  V30 5207 N 496.642 -0.504142 1.49319 0
M  V30 5208 C 498.058 -0.835039 1.36012 0
M  V30 5209 C 498.258 -1.97674 0.390808 0
M  V30 5210 O 497.314 -2.51867 -0.178655 0
M  V30 5211 C 498.627 -1.17821 2.76656 0
M  V30 5212 C 500.175 -1.2866 2.85334 0
M  V30 5213 C 500.65 -1.66307 4.26739 0
M  V30 5214 N 502.141 -1.73362 4.29534 0
M  V30 5215 C 502.876 -2.0393 5.35911 0
M  V30 5216 N 502.372 -2.32744 6.52535 0
M  V30 5217 N 504.165 -2.05155 5.23324 0
M  V30 5218 H 496.316 0.248764 2.10938 0
M  V30 5219 H 498.579 0.0486962 0.946748 0
M  V30 5220 H 498.285 -0.412682 3.4927 0
M  V30 5221 H 498.159 -2.12239 3.11825 0
M  V30 5222 H 500.546 -2.04285 2.1296 0
M  V30 5223 H 500.627 -0.323004 2.53752 0
M  V30 5224 H 500.271 -0.91234 4.99639 0
M  V30 5225 H 500.201 -2.63761 4.55782 0
M  V30 5226 H 502.692 -1.53268 3.45424 0
M  V30 5227 H 503.005 -2.55248 7.2943 0
M  V30 5228 H 501.35 -2.30207 6.55767 0
M  V30 5229 H 504.541 -1.82119 4.3122 0
M  V30 5230 H 504.714 -2.28644 6.06322 0
M  V30 5231 N 498.12 -1.38341 -0.754957 0
M  V30 5232 C 499.03 -1.3769 -1.89944 0
M  V30 5233 C 500.046 -0.274194 -1.71826 0
M  V30 5234 O 501.222 -0.512391 -1.94773 0
M  V30 5235 C 498.287 -1.19938 -3.25293 0
M  V30 5236 C 497.348 -2.40001 -3.55946 0
M  V30 5237 C 496.581 -2.23087 -4.84838 0
M  V30 5238 O 496.804 -1.22386 -5.57116 0
M  V30 5239 O 495.738 -3.11646 -5.14937 0
M  V30 5240 H 499.564 -2.3412 -1.93446 0
M  V30 5241 H 497.149 -1.19246 -0.900044 0
M  V30 5242 H 499.031 -1.12093 -4.06218 0
M  V30 5243 H 497.706 -0.265919 -3.22606 0
M  V30 5244 H 496.613 -2.53421 -2.75188 0
M  V30 5245 H 497.946 -3.31973 -3.63394 0
M  V30 5246 N 499.598 0.982988 -1.23187 0
M  V30 5247 C 500.823 1.76455 -1.08988 0
M  V30 5248 C 501.248 1.84726 0.354691 0
M  V30 5249 O 500.606 1.30699 1.25649 0
M  V30 5250 C 500.654 3.17094 -1.71708 0
M  V30 5251 O 499.758 4.00648 -0.977477 0
M  V30 5252 H 499.099 0.542988 -0.382177 0
M  V30 5253 H 501.629 1.23413 -1.63188 0
M  V30 5254 H 501.639 3.67684 -1.76841 0
M  V30 5255 H 500.314 3.10389 -2.76823 0
M  V30 5256 H 498.891 3.59161 -1.0029 0
M  V30 5257 N 501.076 1.04316 1.18135 0
M  V30 5258 C 502.325 0.74319 1.87509 0
M  V30 5259 C 502.638 -0.732136 1.81381 0
M  V30 5260 O 503.844 -1.14572 2.46141 0
M  V30 5261 C 502.3 1.27913 3.36402 0
M  V30 5262 C 501.908 2.78326 3.51053 0
M  V30 5263 C 503.652 1.0558 4.11161 0
M  V30 5264 C 501.559 3.25266 4.93919 0
M  V30 5265 H 500.489 0.274313 0.702331 0
M  V30 5266 H 503.14 1.25931 1.33467 0
M  V30 5267 H 501.522 0.690853 3.89927 0
M  V30 5268 H 502.696 3.42933 3.07788 0
M  V30 5269 H 501.011 2.991 2.89704 0
M  V30 5270 H 503.608 1.38161 5.16542 0
M  V30 5271 H 503.951 -0.00684729 4.16299 0
M  V30 5272 H 504.484 1.60882 3.63816 0
M  V30 5273 H 501.223 4.30922 4.9395 0
M  V30 5274 H 500.743 2.65396 5.3789 0
M  V30 5275 H 502.422 3.19433 5.62647 0
M  V30 5276 N 502.554 -1.34406 0.822964 0
M  V30 5277 C 503.782 -2.02508 0.424039 0
M  V30 5278 C 504.197 -1.61975 -0.970022 0
M  V30 5279 O 503.554 -0.825228 -1.62777 0
M  V30 5280 C 503.605 -3.57789 0.516657 0
M  V30 5281 O 503.326 -3.96853 1.85577 0
M  V30 5282 C 504.827 -4.43157 0.112637 0
M  V30 5283 H 502.047 -0.649063 0.170173 0
M  V30 5284 H 504.591 -1.7168 1.11113 0
M  V30 5285 H 502.746 -3.87207 -0.122353 0
M  V30 5286 H 503.16 -4.91538 1.83005 0
M  V30 5287 H 504.634 -5.51527 0.228526 0
M  V30 5288 H 505.111 -4.28939 -0.943837 0
M  V30 5289 H 505.717 -4.19067 0.725449 0
M  V30 5290 N 504.032 -0.577932 -1.46621 0
M  V30 5291 C 504.964 0.195801 -2.28362 0
M  V30 5292 C 505.977 0.859983 -1.38232 0
M  V30 5293 O 507.166 0.730349 -1.62875 0
M  V30 5294 C 504.266 1.29639 -3.13124 0
M  V30 5295 C 503.439 0.725049 -4.31349 0
M  V30 5296 C 502.498 1.71274 -4.97546 0
M  V30 5297 O 501.524 1.25067 -5.5529 0
M  V30 5298 N 502.726 3.04672 -4.94121 0
M  V30 5299 H 505.491 -0.505468 -2.95407 0
M  V30 5300 H 503.052 -0.415381 -1.56481 0
M  V30 5301 H 505.044 1.95631 -3.54275 0
M  V30 5302 H 503.614 1.90059 -2.48186 0
M  V30 5303 H 502.834 -0.112205 -3.9404 0
M  V30 5304 H 504.122 0.323034 -5.07774 0
M  V30 5305 H 503.52 3.4484 -4.48444 0
M  V30 5306 H 502.077 3.66166 -5.39227 0
M  V30 5307 N 505.51 1.54411 -0.315457 0
M  V30 5308 C 506.756 2.01425 0.282775 0
M  V30 5309 C 507.111 1.19978 1.5041 0
M  V30 5310 O 506.404 0.271766 1.89663 0
M  V30 5311 C 506.598 3.50936 0.676652 0
M  V30 5312 C 506.427 4.46856 -0.504954 0
M  V30 5313 C 505.197 4.95275 -1.00152 0
M  V30 5314 C 507.395 4.96141 -1.35456 0
M  V30 5315 N 505.377 5.75081 -2.14838 0
M  V30 5316 C 506.748 5.73791 -2.3487 0
M  V30 5317 C 508.803 4.78299 -1.38327 0
M  V30 5318 C 507.506 6.35498 -3.36949 0
M  V30 5319 C 509.532 5.40836 -2.39271 0
M  V30 5320 C 508.894 6.1833 -3.37413 0
M  V30 5321 H 504.993 0.779078 0.0675398 0
M  V30 5322 H 507.577 1.8946 -0.448656 0
M  V30 5323 H 505.748 3.63162 1.37723 0
M  V30 5324 H 507.48 3.84728 1.25566 0
M  V30 5325 H 504.235 4.70107 -0.574123 0
M  V30 5326 H 504.659 6.19664 -2.72665 0
M  V30 5327 H 509.301 4.17956 -0.638196 0
M  V30 5328 H 507.019 6.94967 -4.12367 0
M  V30 5329 H 510.605 5.28952 -2.42284 0
M  V30 5330 H 509.485 6.65861 -4.14244 0
M  V30 5331 N 506.988 0.0434614 1.5754 0
M  V30 5332 C 507.92 -0.962586 2.08007 0
M  V30 5333 C 508.933 -1.27972 1.00634 0
M  V30 5334 O 510.122 -1.24186 1.28219 0
M  V30 5335 C 507.222 -2.28621 2.50171 0
M  V30 5336 C 506.395 -2.15214 3.80791 0
M  V30 5337 C 505.454 -3.30633 4.09351 0
M  V30 5338 O 504.48 -3.0688 4.79388 0
M  V30 5339 N 505.682 -4.54873 3.60654 0
M  V30 5340 H 508.447 -0.531891 2.94942 0
M  V30 5341 H 506.008 -0.142965 1.61268 0
M  V30 5342 H 508 -3.04689 2.66359 0
M  V30 5343 H 506.57 -2.63283 1.68525 0
M  V30 5344 H 505.79 -1.23785 3.74261 0
M  V30 5345 H 507.078 -2.03475 4.66343 0
M  V30 5346 H 506.476 -4.77063 3.04019 0
M  V30 5347 H 505.033 -5.2806 3.82094 0
M  V30 5348 N 508.466 -1.55915 -0.229846 0
M  V30 5349 C 509.694 -1.82617 -0.972562 0
M  V30 5350 C 510.109 -0.621488 -1.78278 0
M  V30 5351 O 509.466 0.409956 -1.77836 0
M  V30 5352 C 509.517 -3.0774 -1.89679 0
M  V30 5353 O 509.238 -4.23559 -1.11934 0
M  V30 5354 C 510.739 -3.47368 -2.75409 0
M  V30 5355 H 507.959 -0.60727 -0.285419 0
M  V30 5356 H 510.503 -2.02996 -0.247579 0
M  V30 5357 H 508.658 -2.89361 -2.57583 0
M  V30 5358 H 509.072 -4.94586 -1.74599 0
M  V30 5359 H 510.546 -4.37977 -3.35977 0
M  V30 5360 H 511.023 -2.68737 -3.47386 0
M  V30 5361 H 511.629 -3.68158 -2.12931 0
M  V30 5362 N 509.944 0.496216 -1.49584 0
M  V30 5363 C 510.877 1.61508 -1.61215 0
M  V30 5364 C 511.855 1.55927 -0.461045 0
M  V30 5365 O 513.039 1.75914 -0.677231 0
M  V30 5366 C 510.166 3.00035 -1.57152 0
M  V30 5367 C 509.212 3.23861 -2.77518 0
M  V30 5368 S 510.045 3.06466 -4.39134 0
M  V30 5369 C 511.201 4.4738 -4.37724 0
M  V30 5370 H 511.434 1.51398 -2.55863 0
M  V30 5371 H 508.967 0.681727 -1.38535 0
M  V30 5372 H 510.925 3.7991 -1.55494 0
M  V30 5373 H 509.586 3.07556 -0.637834 0
M  V30 5374 H 508.779 4.25 -2.70908 0
M  V30 5375 H 508.381 2.51716 -2.76614 0
M  V30 5376 H 510.673 5.39556 -4.09738 0
M  V30 5377 H 511.616 4.59038 -5.39156 0
M  V30 5378 H 512.024 4.28283 -3.67742 0
M  V30 5379 N 511.423 1.38739 0.74761 0
M  V30 5380 C 512.7 1.25791 1.49786 0
M  V30 5381 C 513.08 -0.138075 2.10648 0
M  V30 5382 O 512.428 -1.14815 1.9756 0
M  V30 5383 C 512.638 2.37265 2.55942 0
M  V30 5384 C 513.986 2.75978 3.22679 0
M  V30 5385 O 515.01 2.36621 2.6625 0
M  V30 5386 O 513.869 3.43867 4.24756 0
M  V30 5387 H 510.963 0.492251 0.664543 0
M  V30 5388 H 513.509 1.50582 0.782511 0
M  V30 5389 H 512.281 3.30644 2.0926 0
M  V30 5390 H 511.904 2.14071 3.35051 0
M  V30 5391 N 512.901 -0.976442 1.23707 0
M  V30 5392 C 514.149 -1.71487 1.06942 0
M  V30 5393 C 514.47 -1.9098 -0.393897 0
M  V30 5394 O 513.74 -1.48128 -1.28198 0
M  V30 5395 H 512.32 -0.635425 0.392739 0
M  V30 5396 H 514.982 -1.17515 1.55487 0
M  V30 5397 H 514.078 -2.70286 1.56051 0
M  V30 5398 N 514.379 -1.04941 -1.1758 0
M  V30 5399 C 515.795 -0.770282 -1.39781 0
M  V30 5400 C 515.995 0.636417 -1.91186 0
M  V30 5401 O 515.051 1.39923 -2.10185 0
M  V30 5402 C 516.364 -1.82376 -2.3908 0
M  V30 5403 C 517.912 -1.84569 -2.52791 0
M  V30 5404 C 518.387 -2.88933 -3.55361 0
M  V30 5405 N 519.878 -2.8788 -3.62877 0
M  V30 5406 C 520.613 -3.65282 -4.41992 0
M  V30 5407 N 520.109 -4.52461 -5.24643 0
M  V30 5408 N 521.902 -3.53732 -4.36841 0
M  V30 5409 H 514.053 -1.95705 -0.825438 0
M  V30 5410 H 516.316 -0.847284 -0.425222 0
M  V30 5411 H 516.022 -2.83323 -2.08376 0
M  V30 5412 H 515.896 -1.66327 -3.38549 0
M  V30 5413 H 518.283 -0.842879 -2.82807 0
M  V30 5414 H 518.364 -2.04696 -1.53406 0
M  V30 5415 H 518.008 -3.89398 -3.26085 0
M  V30 5416 H 517.938 -2.66059 -4.54445 0
M  V30 5417 H 520.429 -2.24666 -3.03864 0
M  V30 5418 H 520.742 -5.08211 -5.82187 0
M  V30 5419 H 519.087 -4.56524 -5.24033 0
M  V30 5420 H 522.278 -2.85021 -3.71323 0
M  V30 5421 H 522.451 -4.14302 -4.98255 0
M  V30 5422 N 515.857 1.33968 -0.830081 0
M  V30 5423 C 517.085 2.0228 -0.434773 0
M  V30 5424 C 517.5 1.62487 0.961419 0
M  V30 5425 O 516.857 0.833849 1.62337 0
M  V30 5426 C 516.908 3.5751 -0.535625 0
M  V30 5427 O 516.629 3.95864 -1.87679 0
M  V30 5428 C 518.13 4.43091 -0.136137 0
M  V30 5429 H 515.35 0.648151 -0.173613 0
M  V30 5430 H 517.894 1.71089 -1.12022 0
M  V30 5431 H 516.049 3.87266 0.101817 0
M  V30 5432 H 516.463 4.9056 -1.85609 0
M  V30 5433 H 517.937 5.51398 -0.257772 0
M  V30 5434 H 518.414 4.29433 0.921076 0
M  V30 5435 H 519.02 4.18677 -0.747662 0
M  V30 5436 N 517.335 0.585699 1.46312 0
M  V30 5437 C 518.575 0.0751432 2.04262 0
M  V30 5438 C 518.939 -1.26201 1.44697 0
M  V30 5439 O 520.14 -1.86198 1.93865 0
M  V30 5440 C 518.411 0.013478 3.57397 0
M  V30 5441 S 519.97 -0.439068 4.36598 0
M  V30 5442 H 516.788 0.0389228 0.709934 0
M  V30 5443 H 519.39 0.778871 1.79315 0
M  V30 5444 H 518.094 0.990558 3.98266 0
M  V30 5445 H 517.625 -0.712927 3.86886 0
M  V30 5446 H 519.64 -1.6932 4.66417 0
M  V30 5447 N 518.813 -1.54241 0.323641 0
M  V30 5448 C 519.76 -2.24339 -0.542277 0
M  V30 5449 C 520.73 -1.23421 -1.11159 0
M  V30 5450 O 521.915 -1.52104 -1.15192 0
M  V30 5451 C 519.055 -3.00479 -1.69725 0
M  V30 5452 C 518.168 -4.16214 -1.15716 0
M  V30 5453 C 517.303 -4.79884 -2.27783 0
M  V30 5454 C 516.342 -5.87722 -1.71023 0
M  V30 5455 N 515.479 -6.45254 -2.76752 0
M  V30 5456 H 520.319 -2.97935 0.0620613 0
M  V30 5457 H 517.856 -1.47039 0.0423993 0
M  V30 5458 H 519.814 -3.42869 -2.3769 0
M  V30 5459 H 518.444 -2.29217 -2.27288 0
M  V30 5460 H 517.496 -3.78605 -0.369063 0
M  V30 5461 H 518.808 -4.93838 -0.701832 0
M  V30 5462 H 517.962 -5.25243 -3.03651 0
M  V30 5463 H 516.701 -4.01641 -2.76652 0
M  V30 5464 H 515.706 -5.41765 -0.936518 0
M  V30 5465 H 516.931 -6.67863 -1.2303 0
M  V30 5466 H 514.877 -5.69884 -3.24912 0
M  V30 5467 H 514.794 -7.18292 -2.35782 0
M  V30 5468 H 516.062 -6.95269 -3.5245 0
M  V30 5469 N 520.291 -0.0518155 -1.57515 0
M  V30 5470 C 521.539 0.620595 -1.92336 0
M  V30 5471 C 521.86 1.71345 -0.930907 0
M  V30 5472 O 521.13 1.95885 0.0241341 0
M  V30 5473 H 519.71 0.232226 -0.709986 0
M  V30 5474 H 522.372 -0.104969 -1.94617 0
M  V30 5475 H 521.468 1.05879 -2.93592 0
M  V30 5476 N 521.769 1.56035 0.221574 0
M  V30 5477 C 523.18 1.69229 0.788567 0
M  V30 5478 C 523.531 0.653814 1.84986 0
M  V30 5479 O 522.656 -0.195065 2.15519 0
M  V30 5480 C 523.251 3.06809 1.43713 0
M  V30 5481 C 521.81 3.21858 1.95152 0
M  V30 5482 C 520.957 2.65155 0.811685 0
M  V30 5483 H 523.908 1.587 -0.00307894 0
M  V30 5484 H 523.929 3.02666 2.30594 0
M  V30 5485 H 523.441 3.82369 0.664475 0
M  V30 5486 H 521.542 2.51167 2.7522 0
M  V30 5487 H 521.655 4.29073 2.1315 0
M  V30 5488 H 520.019 2.23635 1.21899 0
M  V30 5489 H 520.802 3.43261 0.0516987 0
M  V30 5490 N 523.247 -0.488276 1.49845 0
M  V30 5491 C 524.195 -1.60917 1.67954 0
M  V30 5492 C 525.189 -1.6038 0.54539 0
M  V30 5493 O 526.395 -1.64736 0.7254 0
M  V30 5494 H 522.77 -0.533658 0.529824 0
M  V30 5495 H 524.741 -1.428 2.62013 0
M  V30 5496 C 523.49 -2.98975 1.77509 0
M  V30 5497 H 522.813 -3.00099 2.6416 0
M  V30 5498 H 524.253 -3.76906 1.9421 0
M  V30 5499 C 522.712 -3.3282 0.522745 0
M  V30 5500 O 523.242 -4.00208 -0.345866 0
M  V30 5501 N 521.448 -2.8808 0.381882 0
M  V30 5502 H 520.995 -2.33415 1.08974 0
M  V30 5503 H 520.953 -3.11091 -0.454929 0
M  V30 5504 N 524.725 -1.39134 -0.740242 0
M  V30 5505 C 525.974 -1.35384 -1.49512 0
M  V30 5506 C 526.287 0.04919 -1.95538 0
M  V30 5507 O 527.493 0.209257 -2.70692 0
M  V30 5508 C 525.949 -2.37812 -2.70136 0
M  V30 5509 C 525.557 -3.83804 -2.31081 0
M  V30 5510 C 527.301 -2.4313 -3.47977 0
M  V30 5511 C 525.208 -4.77886 -3.48395 0
M  V30 5512 H 524.138 -0.503297 -0.561434 0
M  V30 5513 H 526.789 -1.64754 -0.807974 0
M  V30 5514 H 525.171 -2.01505 -3.40899 0
M  V30 5515 H 526.345 -4.29123 -1.67898 0
M  V30 5516 H 524.66 -3.81732 -1.66343 0
M  V30 5517 H 527.257 -3.10614 -4.35228 0
M  V30 5518 H 527.6 -1.45423 -3.90074 0
M  V30 5519 H 528.133 -2.78304 -2.84239 0
M  V30 5520 H 524.872 -5.76836 -3.11353 0
M  V30 5521 H 524.392 -4.3725 -4.10576 0
M  V30 5522 H 526.071 -4.96538 -4.148 0
M  V30 5523 N 526.204 0.969867 -1.24223 0
M  V30 5524 C 527.137 2.06279 -0.975926 0
M  V30 5525 C 528.115 1.62353 0.0895385 0
M  V30 5526 O 529.299 1.88442 -0.0469418 0
M  V30 5527 C 526.426 3.35391 -0.472315 0
M  V30 5528 C 525.472 3.98266 -1.526 0
M  V30 5529 S 526.305 4.36172 -3.10667 0
M  V30 5530 C 527.461 5.68423 -2.62003 0
M  V30 5531 H 527.694 2.28551 -1.90137 0
M  V30 5532 H 525.227 1.10748 -1.07584 0
M  V30 5533 H 527.185 4.10068 -0.188376 0
M  V30 5534 H 525.846 3.1111 0.432378 0
M  V30 5535 H 525.039 4.91307 -1.12399 0
M  V30 5536 H 524.641 3.30009 -1.75983 0
M  V30 5537 H 526.933 6.45842 -2.0468 0
M  V30 5538 H 527.876 6.13478 -3.53625 0
M  V30 5539 H 528.284 5.26928 -2.02502 0
M  V30 5540 N 527.682 1.05563 1.17022 0
M  V30 5541 C 529.093 0.793475 1.69 0
M  V30 5542 C 529.444 -0.683882 1.83895 0
M  V30 5543 O 528.569 -1.53116 1.5292 0
M  V30 5544 C 529.164 1.43376 3.06967 0
M  V30 5545 C 527.723 1.21956 3.56095 0
M  V30 5546 C 526.87 1.51494 2.3226 0
M  V30 5547 H 529.821 1.22008 1.01487 0
M  V30 5548 H 529.842 0.845068 3.70997 0
M  V30 5549 H 529.354 2.50899 2.96093 0
M  V30 5550 H 527.455 0.163749 3.7224 0
M  V30 5551 H 527.568 1.92713 4.38633 0
M  V30 5552 H 525.932 0.935175 2.3691 0
M  V30 5553 H 526.715 2.60159 2.23992 0
M  V30 5554 N 529.16 -1.33526 0.837174 0
M  V30 5555 C 530.107 -2.29248 0.267169 0
M  V30 5556 C 531.077 -1.54252 -0.616071 0
M  V30 5557 O 532.262 -1.82559 -0.554699 0
M  V30 5558 C 529.402 -3.40638 -0.553152 0
M  V30 5559 C 528.515 -4.30548 0.353921 0
M  V30 5560 C 527.65 -5.29051 -0.477339 0
M  V30 5561 C 526.689 -6.106 0.42823 0
M  V30 5562 N 525.826 -7.01152 -0.364801 0
M  V30 5563 H 530.666 -2.77398 1.08877 0
M  V30 5564 H 528.203 -1.36496 0.54838 0
M  V30 5565 H 530.161 -4.03921 -1.04422 0
M  V30 5566 H 528.791 -2.93685 -1.33973 0
M  V30 5567 H 527.843 -3.68001 0.963289 0
M  V30 5568 H 529.155 -4.87631 1.04964 0
M  V30 5569 H 528.309 -5.97853 -1.0323 0
M  V30 5570 H 527.048 -4.72541 -1.2065 0
M  V30 5571 H 526.053 -5.40718 0.995219 0
M  V30 5572 H 527.278 -6.69193 1.15573 0
M  V30 5573 H 525.224 -6.47092 -1.07738 0
M  V30 5574 H 525.141 -7.5551 0.272238 0
M  V30 5575 H 526.409 -7.74263 -0.902054 0
M  V30 5576 N 530.638 -0.59345 -1.46 0
M  V30 5577 C 531.885 -0.0831523 -2.02329 0
M  V30 5578 C 532.213 1.28093 -1.46364 0
M  V30 5579 O 531.468 1.85526 -0.622793 0
M  V30 5580 C 531.767 0.021178 -3.57394 0
M  V30 5581 C 531.433 -1.27671 -4.32448 0
M  V30 5582 C 530.095 -1.63227 -4.5267 0
M  V30 5583 C 532.447 -2.13511 -4.7546 0
M  V30 5584 C 529.775 -2.84401 -5.1316 0
M  V30 5585 C 532.127 -3.33922 -5.37289 0
M  V30 5586 C 530.791 -3.69747 -5.55737 0
M  V30 5587 H 530.061 -0.0304276 -0.740375 0
M  V30 5588 H 532.708 -0.772239 -1.75239 0
M  V30 5589 H 531.013 0.793454 -3.83682 0
M  V30 5590 H 532.71 0.431942 -3.98667 0
M  V30 5591 H 529.3 -0.989937 -4.17011 0
M  V30 5592 H 533.484 -1.87344 -4.59582 0
M  V30 5593 H 528.74 -3.12282 -5.25633 0
M  V30 5594 H 532.914 -4.00698 -5.69574 0
M  V30 5595 H 530.541 -4.6373 -6.02377 0
M  V30 5596 N 532.116 1.54067 -0.331816 0
M  V30 5597 C 533.063 2.24623 0.530372 0
M  V30 5598 C 534.033 1.24009 1.10503 0
M  V30 5599 O 535.218 1.52712 1.14384 0
M  V30 5600 C 532.358 3.01374 1.68129 0
M  V30 5601 C 531.471 4.16821 1.13507 0
M  V30 5602 C 530.606 4.81085 2.25234 0
M  V30 5603 C 529.645 5.88621 1.67903 0
M  V30 5604 N 528.782 6.46713 2.73326 0
M  V30 5605 H 533.622 2.97898 -0.0778607 0
M  V30 5606 H 531.159 1.47014 -0.0501965 0
M  V30 5607 H 533.117 3.44125 2.35868 0
M  V30 5608 H 531.747 2.30419 2.26069 0
M  V30 5609 H 530.799 3.78796 0.348979 0
M  V30 5610 H 532.111 4.94203 0.675633 0
M  V30 5611 H 531.265 5.26846 3.00862 0
M  V30 5612 H 530.004 4.03102 2.74518 0
M  V30 5613 H 529.009 5.42254 0.907773 0
M  V30 5614 H 530.234 6.68506 1.19487 0
M  V30 5615 H 528.18 5.71599 3.21886 0
M  V30 5616 H 528.097 7.19532 2.3197 0
M  V30 5617 H 529.365 6.97129 3.48758 0
M  V30 5618 N 533.594 0.0601682 1.57485 0
M  V30 5619 C 534.542 -0.928899 2.13247 0
M  V30 5620 C 535.536 -1.31616 1.06647 0
M  V30 5621 O 536.742 -1.29476 1.25043 0
M  V30 5622 H 533.117 -0.317455 0.681708 0
M  V30 5623 H 535.088 -0.433566 2.95233 0
M  V30 5624 C 533.837 -2.19121 2.69965 0
M  V30 5625 H 533.16 -1.90204 3.51657 0
M  V30 5626 H 534.6 -2.86465 3.12592 0
M  V30 5627 C 533.059 -2.94195 1.64168 0
M  V30 5628 O 533.589 -3.87468 1.05978 0
M  V30 5629 N 531.795 -2.57089 1.35476 0
M  V30 5630 H 531.342 -1.81314 1.82984 0
M  V30 5631 H 531.3 -3.07624 0.649196 0
M  V30 5632 N 535.072 -1.5615 -0.213296 0
M  V30 5633 C 536.02 -1.93953 -1.28394 0
M  V30 5634 C 537.014 -0.822592 -1.48087 0
M  V30 5635 O 538.22 -1.00748 -1.49164 0
M  V30 5636 H 534.595 -0.61648 -0.430646 0
M  V30 5637 H 536.566 -2.83275 -0.937977 0
M  V30 5638 C 535.315 -2.27969 -2.62537 0
M  V30 5639 H 534.638 -3.13432 -2.48194 0
M  V30 5640 H 536.078 -2.58297 -3.36242 0
M  V30 5641 C 534.537 -1.10775 -3.18167 0
M  V30 5642 O 535.067 -0.373201 -3.99963 0
M  V30 5643 N 533.273 -0.889377 -2.76656 0
M  V30 5644 H 532.82 -1.48843 -2.10246 0
M  V30 5645 H 532.778 -0.107 -3.14218 0
M  V30 5646 N 536.55 0.480323 -1.50102 0
M  V30 5647 C 537.961 1.06142 -1.53593 0
M  V30 5648 C 538.312 1.93335 -0.334055 0
M  V30 5649 O 537.437 2.09188 0.55403 0
M  V30 5650 C 538.032 1.9317 -2.78336 0
M  V30 5651 C 536.591 2.46405 -2.84538 0
M  V30 5652 C 535.738 1.24521 -2.4777 0
M  V30 5653 H 538.689 0.26333 -1.565 0
M  V30 5654 H 538.71 2.78123 -2.59669 0
M  V30 5655 H 538.222 1.29683 -3.65792 0
M  V30 5656 H 536.323 3.13472 -2.01411 0
M  V30 5657 H 536.436 2.82143 -3.87211 0
M  V30 5658 H 534.8 1.57706 -2.00003 0
M  V30 5659 H 535.583 0.627102 -3.37524 0
M  V30 5660 N 538.028 1.39524 0.732853 0
M  V30 5661 C 539.276 1.36594 1.48951 0
M  V30 5662 C 539.597 -0.0367507 1.94965 0
M  V30 5663 O 538.867 -0.988391 1.69138 0
M  V30 5664 H 537.447 0.502673 0.552566 0
M  V30 5665 H 540.109 1.74411 0.869869 0
M  V30 5666 H 539.205 2.03 2.3706 0
M  V30 5667 N 539.506 -0.963266 1.24736 0
M  V30 5668 C 540.438 -2.06162 1.0015 0
M  V30 5669 C 541.451 -1.62771 -0.0305905 0
M  V30 5670 O 542.64 -1.77296 0.206966 0
M  V30 5671 C 539.74 -3.35333 0.490385 0
M  V30 5672 C 538.913 -4.07609 1.58663 0
M  V30 5673 C 537.972 -5.15052 1.0774 0
M  V30 5674 O 536.998 -5.4098 1.77002 0
M  V30 5675 N 538.2 -5.80436 -0.0858605 0
M  V30 5676 H 540.965 -2.27825 1.94719 0
M  V30 5677 H 538.526 -1.13121 1.15825 0
M  V30 5678 H 540.518 -4.04477 0.134371 0
M  V30 5679 H 539.088 -3.10507 -0.361155 0
M  V30 5680 H 538.308 -3.32681 2.11463 0
M  V30 5681 H 539.596 -4.52656 2.32336 0
M  V30 5682 H 538.994 -5.6178 -0.664806 0
M  V30 5683 H 537.551 -6.50674 -0.382981 0
M  V30 5684 N 540.985 -1.06182 -1.16461 0
M  V30 5685 C 542.234 -0.772927 -1.86303 0
M  V30 5686 C 542.547 0.703187 -1.82523 0
M  V30 5687 O 543.753 1.10641 -2.47933 0
M  V30 5688 C 542.209 -1.33249 -3.34324 0
M  V30 5689 C 541.817 -2.83876 -3.46581 0
M  V30 5690 C 543.561 -1.12108 -4.09429 0
M  V30 5691 C 541.468 -3.33082 -4.88682 0
M  V30 5692 H 540.398 -0.285452 -0.697878 0
M  V30 5693 H 543.049 -1.28039 -1.31447 0
M  V30 5694 H 541.431 -0.7528 -3.88779 0
M  V30 5695 H 542.605 -3.47786 -3.02293 0
M  V30 5696 H 540.92 -3.03671 -2.84909 0
M  V30 5697 H 543.517 -1.46361 -5.14279 0
M  V30 5698 H 543.86 -0.0593832 -4.16258 0
M  V30 5699 H 544.393 -1.6665 -3.6121 0
M  V30 5700 H 541.132 -4.38726 -4.87032 0
M  V30 5701 H 540.652 -2.73919 -5.33599 0
M  V30 5702 H 542.331 -3.28344 -5.57494 0
M  V30 5703 N 542.463 1.3308 -0.844243 0
M  V30 5704 C 543.709 1.98304 -0.452453 0
M  V30 5705 C 544.064 1.65645 0.978746 0
M  V30 5706 O 543.357 0.928849 1.6758 0
M  V30 5707 C 543.551 3.52045 -0.616354 0
M  V30 5708 C 543.38 3.99643 -2.06193 0
M  V30 5709 C 542.15 4.27224 -2.69829 0
M  V30 5710 C 544.348 4.15471 -3.03131 0
M  V30 5711 N 542.33 4.60998 -4.05406 0
M  V30 5712 C 543.701 4.52665 -4.23668 0
M  V30 5713 C 545.756 3.97776 -2.99465 0
M  V30 5714 C 544.459 4.74011 -5.41023 0
M  V30 5715 C 546.485 4.20301 -4.16055 0
M  V30 5716 C 545.847 4.57801 -5.35348 0
M  V30 5717 H 541.946 0.752122 -0.214096 0
M  V30 5718 H 544.53 1.61096 -1.09344 0
M  V30 5719 H 542.701 3.884 -0.00513205 0
M  V30 5720 H 544.433 4.04228 -0.19548 0
M  V30 5721 H 541.188 4.18911 -2.20931 0
M  V30 5722 H 541.612 4.82087 -4.75312 0
M  V30 5723 H 546.254 3.67893 -2.08362 0
M  V30 5724 H 543.972 5.02753 -6.32665 0
M  V30 5725 H 547.558 4.08122 -4.14641 0
M  V30 5726 H 546.438 4.74884 -6.24063 0
M  V30 5727 N 543.941 0.601185 1.45683 0
M  V30 5728 C 545.357 0.264315 1.57396 0
M  V30 5729 C 545.557 -1.23324 1.59353 0
M  V30 5730 O 544.613 -2.01594 1.52039 0
M  V30 5731 C 545.926 0.929839 2.85962 0
M  V30 5732 C 547.474 0.905156 2.99626 0
M  V30 5733 C 547.949 1.55057 4.30954 0
M  V30 5734 N 549.44 1.51576 4.37697 0
M  V30 5735 C 550.175 1.98436 5.37969 0
M  V30 5736 N 549.671 2.53352 6.44813 0
M  V30 5737 N 551.464 1.89242 5.29286 0
M  V30 5738 H 543.615 1.57363 1.42656 0
M  V30 5739 H 545.878 0.658831 0.681649 0
M  V30 5740 H 545.584 1.98404 2.90394 0
M  V30 5741 H 545.458 0.449224 3.74515 0
M  V30 5742 H 547.845 -0.14048 2.94765 0
M  V30 5743 H 547.926 1.42397 2.12501 0
M  V30 5744 H 547.57 2.5955 4.36573 0
M  V30 5745 H 547.5 1.00682 5.16886 0
M  V30 5746 H 549.991 1.11452 3.61091 0
M  V30 5747 H 550.304 2.86918 7.17564 0
M  V30 5748 H 548.649 2.57388 6.45582 0
M  V30 5749 H 551.84 1.46083 4.44722 0
M  V30 5750 H 552.013 2.26075 6.07284 0
M  V30 5751 N 545.419 -1.53889 0.339982 0
M  V30 5752 C 546.667 -2.00458 -0.257112 0
M  V30 5753 C 546.988 -1.22953 -1.51353 0
M  V30 5754 O 546.258 -0.335734 -1.93002 0
M  V30 5755 H 544.838 -0.740544 -0.0979965 0
M  V30 5756 H 547.5 -1.89386 0.460317 0
M  V30 5757 H 546.596 -3.08035 -0.502057 0
M  V30 5758 N 546.897 -0.0685191 -1.57451 0
M  V30 5759 C 547.83 0.935736 -2.08133 0
M  V30 5760 C 548.808 1.29317 -0.985698 0
M  V30 5761 O 549.992 1.40304 -1.25886 0
M  V30 5762 C 547.119 2.2448 -2.53627 0
M  V30 5763 C 546.165 2.03917 -3.74593 0
M  V30 5764 S 546.998 1.30154 -5.19442 0
M  V30 5765 C 548.154 2.62346 -5.68265 0
M  V30 5766 H 548.387 0.504473 -2.92989 0
M  V30 5767 H 545.92 0.144169 -1.53725 0
M  V30 5768 H 547.878 2.99718 -2.80499 0
M  V30 5769 H 546.539 2.64731 -1.69045 0
M  V30 5770 H 545.732 3.00788 -4.04404 0
M  V30 5771 H 545.334 1.36815 -3.48077 0
M  V30 5772 H 547.626 3.58448 -5.7491 0
M  V30 5773 H 548.569 2.3715 -6.67207 0
M  V30 5774 H 548.977 2.69401 -4.96068 0
M  V30 5775 N 548.375 1.56261 0.205012 0
M  V30 5776 C 549.786 1.70056 0.770574 0
M  V30 5777 C 550.137 0.673398 1.84282 0
M  V30 5778 O 549.262 -0.172196 2.15714 0
M  V30 5779 C 549.857 3.08316 1.40451 0
M  V30 5780 C 548.416 3.2391 1.91727 0
M  V30 5781 C 547.563 2.66001 0.783516 0
M  V30 5782 H 550.514 1.58688 -0.019911 0
M  V30 5783 H 550.535 3.05094 2.27371 0
M  V30 5784 H 550.047 3.83053 0.623882 0
M  V30 5785 H 548.148 2.54072 2.7254 0
M  V30 5786 H 548.261 4.3131 2.08588 0
M  V30 5787 H 546.625 2.24915 1.19521 0
M  V30 5788 H 547.408 3.43297 0.0152883 0
M  V30 5789 N 549.853 -0.472356 1.50355 0
M  V30 5790 C 551.078 -1.25251 1.65309 0
M  V30 5791 C 551.503 -1.85081 0.335643 0
M  V30 5792 O 550.861 -1.67227 -0.700335 0
M  V30 5793 C 550.909 -2.3379 2.74544 0
M  V30 5794 O 550.013 -3.38401 2.35709 0
M  V30 5795 H 549.354 -0.368539 0.552336 0
M  V30 5796 H 551.884 -0.562271 1.96722 0
M  V30 5797 H 551.894 -2.79121 2.97583 0
M  V30 5798 H 550.569 -1.89614 3.70161 0
M  V30 5799 H 549.146 -2.9879 2.23112 0
M  V30 5800 N 551.331 -1.39911 -0.725443 0
M  V30 5801 C 552.281 -1.35878 -1.83088 0
M  V30 5802 C 553.265 -0.237989 -1.5913 0
M  V30 5803 O 554.457 -0.476302 -1.70471 0
M  V30 5804 C 551.586 -1.21403 -3.21117 0
M  V30 5805 C 550.672 -2.38223 -3.50871 0
M  V30 5806 N 551.063 -3.63703 -3.51502 0
M  V30 5807 C 549.361 -2.31388 -3.81281 0
M  V30 5808 C 550.062 -4.4101 -3.79322 0
M  V30 5809 N 549.038 -3.7072 -3.97577 0
M  V30 5810 H 552.84 -2.3085 -1.81895 0
M  V30 5811 H 550.354 -1.33543 -0.924125 0
M  V30 5812 H 552.351 -1.16597 -4.00263 0
M  V30 5813 H 551.011 -0.273902 -3.23543 0
M  V30 5814 H 552.022 -3.96998 -3.32586 0
M  V30 5815 H 548.699 -1.45689 -3.91256 0
M  V30 5816 H 550.089 -5.49819 -3.86198 0
M  V30 5817 N 552.809 0.956637 -1.25245 0
M  V30 5818 C 554.057 1.69764 -1.09657 0
M  V30 5819 C 554.378 1.91583 0.363464 0
M  V30 5820 O 553.648 1.50149 1.25825 0
M  V30 5821 H 552.228 0.629097 -0.402798 0
M  V30 5822 H 554.89 1.15026 -1.57337 0
M  V30 5823 H 553.986 2.67769 -1.60331 0
M  V30 5824 N 554.287 1.06798 1.15896 0
M  V30 5825 C 555.22 0.627503 2.19403 0
M  V30 5826 C 556.198 -0.352352 1.58736 0
M  V30 5827 O 557.382 -0.260111 1.86697 0
M  V30 5828 C 554.509 -0.079356 3.38607 0
M  V30 5829 C 553.555 0.858057 4.17779 0
M  V30 5830 S 554.388 2.35605 4.80885 0
M  V30 5831 C 555.544 1.66083 6.03463 0
M  V30 5832 H 555.777 1.50441 2.56427 0
M  V30 5833 H 553.31 0.881427 1.26768 0
M  V30 5834 H 555.268 -0.48095 4.07673 0
M  V30 5835 H 553.929 -0.932524 2.99938 0
M  V30 5836 H 553.122 0.310108 5.03045 0
M  V30 5837 H 552.724 1.19977 3.54234 0
M  V30 5838 H 555.016 0.969337 6.7053 0
M  V30 5839 H 555.959 2.49159 6.62816 0
M  V30 5840 H 556.367 1.14122 5.52844 0
M  V30 5841 N 555.766 -1.3263 0.851289 0
M  V30 5842 C 557.043 -1.91982 0.374448 0
M  V30 5843 C 557.423 -1.77568 -1.14161 0
M  V30 5844 O 556.771 -1.1717 -1.96172 0
M  V30 5845 C 556.981 -3.38862 0.835088 0
M  V30 5846 C 558.329 -4.15999 0.850309 0
M  V30 5847 O 559.353 -3.47566 0.779505 0
M  V30 5848 O 558.212 -5.38189 0.949481 0
M  V30 5849 H 555.306 -0.819846 0.10854 0
M  V30 5850 H 557.852 -1.41422 0.937966 0
M  V30 5851 H 556.624 -3.43281 1.87814 0
M  V30 5852 H 556.247 -3.96821 0.248833 0
M  V30 5853 N 557.244 -0.608902 -1.45362 0
M  V30 5854 C 558.472 -0.111013 -2.06602 0
M  V30 5855 C 558.887 1.20516 -1.45332 0
M  V30 5856 O 558.244 1.73437 -0.567978 0
M  V30 5857 C 558.295 0.033688 -3.61484 0
M  V30 5858 O 558.016 -1.23041 -4.20467 0
M  V30 5859 C 559.517 0.562882 -4.39712 0
M  V30 5860 H 556.737 -0.0694453 -0.667397 0
M  V30 5861 H 559.281 -0.837008 -1.86586 0
M  V30 5862 H 557.436 0.710016 -3.80838 0
M  V30 5863 H 557.85 -1.06094 -5.13658 0
M  V30 5864 H 559.324 0.613213 -5.48583 0
M  V30 5865 H 559.801 1.58543 -4.09586 0
M  V30 5866 H 560.407 -0.0794454 -4.25226 0
M  V30 5867 N 558.722 1.53707 -0.348139 0
M  V30 5868 C 559.685 2.23812 0.494058 0
M  V30 5869 C 560.685 1.23989 1.02388 0
M  V30 5870 O 561.875 1.48395 0.912396 0
M  V30 5871 C 559.007 2.96133 1.68872 0
M  V30 5872 H 560.2 2.99663 -0.119141 0
M  V30 5873 H 557.753 1.55983 -0.0995539 0
M  V30 5874 H 558.488 2.24481 2.34049 0
M  V30 5875 H 558.273 3.69357 1.31596 0
M  V30 5876 H 559.763 3.49475 2.28597 0
M  V30 5877 N 560.2 0.0768682 1.57412 0
M  V30 5878 C 561.163 -0.873949 2.11884 0
M  V30 5879 C 562.163 -1.22301 1.04398 0
M  V30 5880 O 563.353 -1.15545 1.30365 0
M  V30 5881 C 560.485 -2.17575 2.62438 0
M  V30 5882 H 561.678 -0.401278 2.97203 0
M  V30 5883 H 559.231 -0.171904 1.55352 0
M  V30 5884 H 559.966 -2.69368 1.80587 0
M  V30 5885 H 559.751 -1.93534 3.41009 0
M  V30 5886 H 561.241 -2.85631 3.04639 0
M  V30 5887 N 561.678 -1.56367 -0.196722 0
M  V30 5888 C 562.927 -1.79724 -0.915539 0
M  V30 5889 C 563.24 -0.649804 -1.84491 0
M  V30 5890 O 564.446 -0.767631 -2.60422 0
M  V30 5891 C 562.902 -3.18369 -1.67836 0
M  V30 5892 C 562.51 -4.4091 -0.793897 0
M  V30 5893 C 564.254 -3.51037 -2.38691 0
M  V30 5894 C 562.161 -5.70577 -1.55549 0
M  V30 5895 H 561.091 -0.67013 -0.345604 0
M  V30 5896 H 563.742 -1.82721 -0.168856 0
M  V30 5897 H 562.124 -3.09617 -2.46887 0
M  V30 5898 H 563.298 -4.60781 -0.042163 0
M  V30 5899 H 561.613 -4.15937 -0.19626 0
M  V30 5900 H 564.21 -4.4515 -2.96219 0
M  V30 5901 H 564.553 -2.74704 -3.12799 0
M  V30 5902 H 565.086 -3.61229 -1.66608 0
M  V30 5903 H 561.825 -6.49871 -0.857226 0
M  V30 5904 H 561.345 -5.54726 -2.2812 0
M  V30 5905 H 563.024 -6.11637 -2.10971 0
M  V30 5906 N 563.156 0.464375 -1.50603 0
M  V30 5907 C 564.086 1.56944 -1.72889 0
M  V30 5908 C 565.067 1.59979 -0.577997 0
M  V30 5909 O 566.252 1.76138 -0.817855 0
M  V30 5910 C 563.382 2.95225 -1.8292 0
M  V30 5911 C 562.336 3.07056 -2.98162 0
M  V30 5912 C 561.662 4.47051 -2.93343 0
M  V30 5913 C 562.962 2.83648 -4.38567 0
M  V30 5914 H 564.656 1.38547 -2.65415 0
M  V30 5915 H 562.202 0.665082 -1.27721 0
M  V30 5916 H 564.155 3.72467 -1.97095 0
M  V30 5917 H 562.879 3.14793 -0.870209 0
M  V30 5918 H 561.538 2.32248 -2.83648 0
M  V30 5919 H 561.186 4.63547 -1.95276 0
M  V30 5920 H 560.886 4.55902 -3.70712 0
M  V30 5921 H 562.41 5.26304 -3.09575 0
M  V30 5922 H 563.824 3.50636 -4.53572 0
M  V30 5923 H 562.221 3.03937 -5.17438 0
M  V30 5924 H 563.291 1.79451 -4.50472 0
M  V30 5925 N 564.634 1.40294 0.718013 0
M  V30 5926 C 565.581 1.40367 1.8321 0
M  V30 5927 C 566.551 0.260952 1.64037 0
M  V30 5928 O 567.736 0.458648 1.85205 0
M  V30 5929 C 564.876 1.26965 3.20895 0
M  V30 5930 C 563.989 2.50922 3.51656 0
M  V30 5931 C 563.124 2.29981 4.78834 0
M  V30 5932 C 562.163 3.49527 5.02491 0
M  V30 5933 N 561.3 3.27796 6.20882 0
M  V30 5934 H 566.14 2.35593 1.82482 0
M  V30 5935 H 563.677 1.17012 0.891444 0
M  V30 5936 H 565.635 1.17202 4.00399 0
M  V30 5937 H 564.265 0.353591 3.20858 0
M  V30 5938 H 563.317 2.71223 2.66725 0
M  V30 5939 H 564.629 3.39913 3.65048 0
M  V30 5940 H 563.783 2.17558 5.66351 0
M  V30 5941 H 562.522 1.38411 4.67647 0
M  V30 5942 H 561.527 3.6243 4.1343 0
M  V30 5943 H 562.752 4.42021 5.15553 0
M  V30 5944 H 560.698 2.38906 6.1095 0
M  V30 5945 H 560.615 4.10351 6.34939 0
M  V30 5946 H 561.883 3.19101 7.11193 0
M  V30 5947 N 566.112 -0.949982 1.2575 0
M  V30 5948 C 567.06 -2.06869 1.06339 0
M  V30 5949 C 568.054 -1.69399 -0.00708901 0
M  V30 5950 O 569.26 -1.79383 0.148897 0
M  V30 5951 H 565.635 -0.677197 0.326969 0
M  V30 5952 H 567.606 -2.20396 2.01167 0
M  V30 5953 C 566.355 -3.40503 0.703769 0
M  V30 5954 H 565.678 -3.69807 1.51931 0
M  V30 5955 H 567.118 -4.19623 0.607677 0
M  V30 5956 C 565.577 -3.31685 -0.5905 0
M  V30 5957 O 566.107 -3.67085 -1.63131 0
M  V30 5958 N 564.313 -2.84797 -0.577859 0
M  V30 5959 H 563.86 -2.56186 0.26951 0
M  V30 5960 H 563.818 -2.79279 -1.44398 0
M  V30 5961 N 567.59 -1.07411 -1.15328 0
M  V30 5962 C 568.839 -0.792643 -1.85473 0
M  V30 5963 C 569.152 0.683789 -1.83259 0
M  V30 5964 O 570.358 1.08005 -2.49093 0
M  V30 5965 C 568.814 -1.36787 -3.32892 0
M  V30 5966 C 568.422 -2.87536 -3.43551 0
M  V30 5967 C 570.166 -1.16444 -4.08217 0
M  V30 5968 C 568.073 -3.38247 -4.85122 0
M  V30 5969 H 567.003 -0.292838 -0.694811 0
M  V30 5970 H 569.654 -1.29426 -1.30082 0
M  V30 5971 H 568.036 -0.793993 -3.87958 0
M  V30 5972 H 569.21 -3.50973 -2.98588 0
M  V30 5973 H 567.525 -3.06676 -2.81672 0
M  V30 5974 H 570.122 -1.51808 -5.12697 0
M  V30 5975 H 570.465 -0.10353 -4.16171 0
M  V30 5976 H 570.998 -1.70472 -3.59422 0
M  V30 5977 H 567.737 -4.43866 -4.82351 0
M  V30 5978 H 567.257 -2.79564 -5.30664 0
M  V30 5979 H 568.936 -3.34238 -5.5398 0
M  V30 5980 N 569.068 1.32177 -0.85831 0
M  V30 5981 C 570.316 1.96735 -0.462568 0
M  V30 5982 C 570.637 1.6824 0.985911 0
M  V30 5983 O 569.907 0.991564 1.68952 0
M  V30 5984 H 568.487 0.727849 -0.168064 0
M  V30 5985 H 571.149 1.61195 -1.09554 0
M  V30 5986 H 570.245 3.06068 -0.610647 0
M  V30 5987 N 570.547 0.616602 1.45037 0
M  V30 5988 C 571.777 0.121791 2.06241 0
M  V30 5989 C 572.185 -1.20289 1.46038 0
M  V30 5990 O 571.528 -1.7456 0.572242 0
M  V30 5991 C 571.59 -0.0827345 3.59405 0
M  V30 5992 C 571.254 1.16153 4.41993 0
M  V30 5993 C 572.251 2.08183 4.76399 0
M  V30 5994 C 569.936 1.39288 4.82601 0
M  V30 5995 C 571.93 3.21668 5.5028 0
M  V30 5996 C 569.617 2.53073 5.56235 0
M  V30 5997 C 570.615 3.44091 5.89992 0
M  V30 5998 O 570.303 4.55894 6.6213 0
M  V30 5999 H 570.035 0.0701667 0.672349 0
M  V30 6000 H 572.589 0.846877 1.87129 0
M  V30 6001 H 570.819 -0.862812 3.76952 0
M  V30 6002 H 572.508 -0.530273 4.02421 0
M  V30 6003 H 573.274 1.91538 4.45576 0
M  V30 6004 H 569.153 0.693396 4.55755 0
M  V30 6005 H 572.697 3.92733 5.76547 0
M  V30 6006 H 568.594 2.69667 5.86472 0
M  V30 6007 H 569.362 4.5469 6.80587 0
M  V30 6008 N 572.025 -1.5352 0.356285 0
M  V30 6009 C 573.25 -2.06007 -0.239961 0
M  V30 6010 C 573.675 -1.22872 -1.42422 0
M  V30 6011 O 573.033 -0.245516 -1.7963 0
M  V30 6012 C 573.081 -3.5522 -0.620587 0
M  V30 6013 O 572.185 -3.74864 -1.71902 0
M  V30 6014 H 571.526 -0.662961 -0.0371377 0
M  V30 6015 H 574.056 -1.98033 0.514194 0
M  V30 6016 H 574.066 -3.98081 -0.894197 0
M  V30 6017 H 572.741 -4.15175 0.245407 0
M  V30 6018 H 571.318 -3.43904 -1.44169 0
M  V30 6019 N 573.503 -0.0852151 -1.57369 0
M  V30 6020 C 574.413 0.891712 -2.16992 0
M  V30 6021 C 575.429 1.3174 -1.13669 0
M  V30 6022 O 576.605 1.38735 -1.45995 0
M  V30 6023 C 573.67 2.13635 -2.73059 0
M  V30 6024 C 572.731 1.7658 -3.91303 0
M  V30 6025 C 571.964 2.95111 -4.44686 0
M  V30 6026 O 572.187 4.09539 -3.97032 0
M  V30 6027 O 571.121 2.74149 -5.35841 0
M  V30 6028 H 574.947 0.414477 -3.00858 0
M  V30 6029 H 572.532 0.138598 -1.48756 0
M  V30 6030 H 574.414 2.86595 -3.08935 0
M  V30 6031 H 573.089 2.6043 -1.92244 0
M  V30 6032 H 571.996 1.00831 -3.60255 0
M  V30 6033 H 573.329 1.34557 -4.7345 0
M  V30 6034 N 574.981 1.5647 0.188427 0
M  V30 6035 C 575.929 1.95971 1.25293 0
M  V30 6036 C 576.923 0.846047 1.4676 0
M  V30 6037 O 578.129 1.03109 1.47542 0
M  V30 6038 H 574.504 0.623253 0.420784 0
M  V30 6039 H 576.475 2.84731 0.892792 0
M  V30 6040 C 575.224 2.32116 2.58877 0
M  V30 6041 H 574.547 3.17341 2.43176 0
M  V30 6042 H 575.987 2.63613 3.3209 0
M  V30 6043 C 574.446 1.15823 3.16365 0
M  V30 6044 O 574.976 0.436785 3.99318 0
M  V30 6045 N 573.182 0.933278 2.75206 0
M  V30 6046 H 572.729 1.52169 2.07852 0
M  V30 6047 H 572.687 0.156976 3.14008 0
M  V30 6048 N 576.459 -0.456382 1.50847 0
M  V30 6049 C 577.736 -1.21739 1.53098 0
M  V30 6050 C 578.116 -2.09179 0.284132 0
M  V30 6051 O 577.464 -2.16466 -0.731773 0
M  V30 6052 C 577.674 -2.03573 2.83477 0
M  V30 6053 C 579.022 -2.61264 3.34703 0
M  V30 6054 O 580.046 -2.13802 2.84898 0
M  V30 6055 O 578.905 -3.47779 4.21559 0
M  V30 6056 H 575.999 -0.553219 0.614718 0
M  V30 6057 H 578.545 -0.467003 1.63148 0
M  V30 6058 H 577.317 -1.39232 3.65691 0
M  V30 6059 H 576.94 -2.85716 2.76499 0
M  V30 6060 N 577.937 -1.40673 -0.710563 0
M  V30 6061 C 579.186 -1.38525 -1.46607 0
M  V30 6062 C 579.499 0.0077024 -1.95598 0
M  V30 6063 O 580.705 0.151792 -2.71075 0
M  V30 6064 C 579.161 -2.43489 -2.6503 0
M  V30 6065 C 578.769 -3.88619 -2.22888 0
M  V30 6066 C 580.513 -2.50456 -3.42742 0
M  V30 6067 C 578.42 -4.85168 -3.3818 0
M  V30 6068 H 577.35 -0.515092 -0.550632 0
M  V30 6069 H 580.001 -1.66431 -0.772846 0
M  V30 6070 H 578.383 -2.0869 -3.36548 0
M  V30 6071 H 579.557 -4.32588 -1.58758 0
M  V30 6072 H 577.872 -3.85174 -1.58208 0
M  V30 6073 H 580.469 -3.19776 -4.28541 0
M  V30 6074 H 580.812 -1.53665 -3.86902 0
M  V30 6075 H 581.345 -2.84271 -2.78271 0
M  V30 6076 H 578.084 -5.8331 -2.99047 0
M  V30 6077 H 577.604 -4.4586 -4.01209 0
M  V30 6078 H 579.283 -5.05225 -4.04174 0
M  V30 6079 N 579.415 0.9433 -1.26252 0
M  V30 6080 C 580.347 2.04542 -1.03417 0
M  V30 6081 C 581.36 1.62799 0.0046911 0
M  V30 6082 O 582.549 1.76944 -0.235146 0
M  V30 6083 C 579.649 3.34511 -0.543671 0
M  V30 6084 C 578.822 4.05033 -1.65128 0
M  V30 6085 C 577.881 5.13273 -1.1592 0
M  V30 6086 O 576.907 5.38095 -1.85586 0
M  V30 6087 N 578.109 5.805 -0.00649279 0
M  V30 6088 H 580.874 2.24699 -1.98319 0
M  V30 6089 H 578.435 1.11264 -1.1761 0
M  V30 6090 H 580.427 4.04212 -0.198703 0
M  V30 6091 H 578.997 3.11042 0.311711 0
M  V30 6092 H 578.217 3.29275 -2.16729 0
M  V30 6093 H 579.505 4.48903 -2.39508 0
M  V30 6094 H 578.903 5.62767 0.575347 0
M  V30 6095 H 577.46 6.51201 0.279416 0
M  V30 6096 N 580.893 1.08022 1.14757 0
M  V30 6097 C 581.803 0.718292 2.23333 0
M  V30 6098 C 582.819 -0.273477 1.71837 0
M  V30 6099 O 583.995 -0.118406 2.01052 0
M  V30 6100 C 581.06 0.128855 3.4646 0
M  V30 6101 C 580.121 1.17473 4.12915 0
M  V30 6102 C 579.354 0.61333 5.30164 0
M  V30 6103 O 579.577 -0.568458 5.6756 0
M  V30 6104 O 578.511 1.3615 5.86299 0
M  V30 6105 H 582.337 1.62394 2.56636 0
M  V30 6106 H 579.922 0.853628 1.22611 0
M  V30 6107 H 581.804 -0.197249 4.20938 0
M  V30 6108 H 580.479 -0.750014 3.14891 0
M  V30 6109 H 579.386 1.5533 3.40328 0
M  V30 6110 H 580.719 2.02574 4.48581 0
M  V30 6111 N 582.371 -1.3172 0.865308 0
M  V30 6112 C 583.301 -2.31109 0.333302 0
M  V30 6113 C 584.282 -1.60148 -0.573301 0
M  V30 6114 O 585.467 -1.87882 -0.491305 0
M  V30 6115 C 582.597 -3.44104 -0.470078 0
M  V30 6116 C 581.551 -4.26623 0.343021 0
M  V30 6117 C 580.877 -5.31482 -0.585756 0
M  V30 6118 C 582.177 -4.98001 1.57456 0
M  V30 6119 H 583.871 -2.75855 1.1638 0
M  V30 6120 H 581.417 -1.3262 0.561069 0
M  V30 6121 H 583.37 -4.12682 -0.852752 0
M  V30 6122 H 582.094 -2.98112 -1.33404 0
M  V30 6123 H 580.753 -3.59707 0.707583 0
M  V30 6124 H 580.401 -4.81741 -1.44686 0
M  V30 6125 H 580.101 -5.87582 -0.0456494 0
M  V30 6126 H 581.625 -6.0292 -0.965375 0
M  V30 6127 H 583.039 -5.59201 1.26359 0
M  V30 6128 H 581.436 -5.63876 2.05339 0
M  V30 6129 H 582.506 -4.25253 2.32997 0
M  V30 6130 N 583.85 -0.624285 -1.44708 0
M  V30 6131 C 585.096 -0.126237 -2.02407 0
M  V30 6132 C 585.428 1.24618 -1.48943 0
M  V30 6133 O 584.704 1.82569 -0.670742 0
M  V30 6134 C 584.986 -0.105449 -3.59946 0
M  V30 6135 C 584.84 -1.50972 -4.23707 0
M  V30 6136 C 586.159 0.573629 -4.36346 0
M  V30 6137 H 583.278 -0.0473472 -0.735478 0
M  V30 6138 H 585.92 -0.799452 -1.72362 0
M  V30 6139 H 584.07 0.46783 -3.85673 0
M  V30 6140 H 585.742 -2.13136 -4.0911 0
M  V30 6141 H 583.985 -2.0656 -3.81465 0
M  V30 6142 H 584.656 -1.44727 -5.32689 0
M  V30 6143 H 587.132 0.0861787 -4.16011 0
M  V30 6144 H 586.008 0.557338 -5.46063 0
M  V30 6145 H 586.269 1.64276 -4.10446 0
M  V30 6146 N 585.328 1.53329 -0.364422 0
M  V30 6147 C 586.553 2.06132 0.229033 0
M  V30 6148 C 586.978 1.23625 1.41769 0
M  V30 6149 O 586.336 0.255038 1.79497 0
M  V30 6150 C 586.384 3.55544 0.60174 0
M  V30 6151 O 585.488 3.75771 1.69912 0
M  V30 6152 H 584.829 0.663148 0.0336213 0
M  V30 6153 H 587.359 1.97758 -0.524689 0
M  V30 6154 H 587.369 3.98549 0.873073 0
M  V30 6155 H 586.044 4.15039 -0.267421 0
M  V30 6156 H 584.621 3.44663 1.42343 0
M  V30 6157 N 586.806 0.0935595 1.57322 0
M  V30 6158 C 587.753 -0.865935 2.1394 0
M  V30 6159 C 588.723 -1.28083 1.05754 0
M  V30 6160 O 589.908 -1.36285 1.33533 0
M  V30 6161 C 587.048 -2.12023 2.72287 0
M  V30 6162 C 586.161 -1.756 3.94701 0
M  V30 6163 C 585.296 -2.95804 4.41218 0
M  V30 6164 C 584.335 -2.555 5.56225 0
M  V30 6165 N 583.472 -3.68534 5.97601 0
M  V30 6166 H 588.312 -0.376261 2.95615 0
M  V30 6167 H 585.849 -0.174052 1.46067 0
M  V30 6168 H 587.807 -2.85477 3.04235 0
M  V30 6169 H 586.437 -2.58492 1.93343 0
M  V30 6170 H 585.489 -0.921208 3.69077 0
M  V30 6171 H 586.801 -1.41964 4.78171 0
M  V30 6172 H 585.955 -3.77513 4.74941 0
M  V30 6173 H 584.694 -3.32649 3.56645 0
M  V30 6174 H 583.699 -1.72218 5.22131 0
M  V30 6175 H 584.924 -2.19801 6.42545 0
M  V30 6176 H 582.87 -4.051 5.15974 0
M  V30 6177 H 582.787 -3.38737 6.75865 0
M  V30 6178 H 584.055 -4.50757 6.35955 0
M  V30 6179 N 588.284 -1.56567 -0.180126 0
M  V30 6180 C 589.532 -1.81133 -0.896392 0
M  V30 6181 C 589.853 -0.669114 -1.83161 0
M  V30 6182 O 589.123 0.311616 -1.93406 0
M  V30 6183 H 587.703 -0.668172 -0.333999 0
M  V30 6184 H 590.365 -1.94048 -0.182051 0
M  V30 6185 H 589.461 -2.74854 -1.47857 0
M  V30 6186 N 589.762 0.448376 -1.51087 0
M  V30 6187 C 590.692 1.55102 -1.74544 0
M  V30 6188 C 591.673 1.59357 -0.594932 0
M  V30 6189 O 592.858 1.75261 -0.836491 0
M  V30 6190 C 589.988 2.93268 -1.86041 0
M  V30 6191 C 588.942 3.03877 -3.01402 0
M  V30 6192 C 588.268 4.43914 -2.98068 0
M  V30 6193 C 589.568 2.7898 -4.41551 0
M  V30 6194 H 591.262 1.35724 -2.66869 0
M  V30 6195 H 588.808 0.651498 -1.28419 0
M  V30 6196 H 590.761 3.70356 -2.01034 0
M  V30 6197 H 589.485 3.13853 -0.903548 0
M  V30 6198 H 588.144 2.29227 -2.86096 0
M  V30 6199 H 587.792 4.6145 -2.00182 0
M  V30 6200 H 587.492 4.51944 -3.75527 0
M  V30 6201 H 589.016 5.22991 -3.1514 0
M  V30 6202 H 590.43 3.45805 -4.57265 0
M  V30 6203 H 588.827 2.98431 -5.20633 0
M  V30 6204 H 589.897 1.74663 -4.5235 0
M  V30 6205 N 591.24 1.41047 0.703093 0
M  V30 6206 C 592.203 1.42036 1.79884 0
M  V30 6207 C 593.203 0.312153 1.57741 0
M  V30 6208 O 594.393 0.571672 1.64553 0
M  V30 6209 C 591.525 1.22437 3.18154 0
M  V30 6210 H 592.718 2.39572 1.80403 0
M  V30 6211 H 590.271 1.27079 0.909977 0
M  V30 6212 H 591.006 0.257112 3.23279 0
M  V30 6213 H 590.791 2.02723 3.35627 0
M  V30 6214 H 592.281 1.25946 3.98155 0
M  V30 6215 N 592.718 -0.936591 1.26751 0
M  V30 6216 C 593.665 -2.03597 1.08706 0
M  V30 6217 C 594.635 -1.66097 -0.00926542 0
M  V30 6218 O 595.82 -1.90199 0.151377 0
M  V30 6219 C 592.96 -3.3727 0.73094 0
M  V30 6220 C 592.073 -3.87778 1.90399 0
M  V30 6221 C 591.208 -5.09859 1.49056 0
M  V30 6222 C 590.247 -5.5264 2.63164 0
M  V30 6223 N 589.384 -6.65921 2.22471 0
M  V30 6224 H 594.224 -2.18364 2.02784 0
M  V30 6225 H 591.761 -1.06985 1.00958 0
M  V30 6226 H 593.719 -4.14128 0.505328 0
M  V30 6227 H 592.349 -3.22337 -0.172868 0
M  V30 6228 H 591.401 -3.07279 2.2424 0
M  V30 6229 H 592.713 -4.15464 2.76028 0
M  V30 6230 H 591.867 -5.9419 1.22567 0
M  V30 6231 H 590.606 -4.8393 0.60524 0
M  V30 6232 H 589.611 -4.66863 2.90377 0
M  V30 6233 H 590.836 -5.80568 3.52303 0
M  V30 6234 H 588.782 -6.41667 1.36379 0
M  V30 6235 H 588.699 -6.93216 3.01641 0
M  V30 6236 H 589.967 -7.53616 1.99205 0
M  V30 6237 N 594.196 -1.08629 -1.14182 0
M  V30 6238 C 595.442 -0.818556 -1.85546 0
M  V30 6239 C 595.775 0.654076 -1.82854 0
M  V30 6240 O 595.05 1.48099 -1.26083 0
M  V30 6241 C 595.333 -1.34397 -3.3408 0
M  V30 6242 C 595.186 -2.8821 -3.45333 0
M  V30 6243 C 596.505 -0.971069 -4.29253 0
M  V30 6244 H 593.624 -0.298821 -0.673702 0
M  V30 6245 H 596.266 -1.34629 -1.34071 0
M  V30 6246 H 594.416 -0.895064 -3.78049 0
M  V30 6247 H 596.088 -3.41488 -3.10134 0
M  V30 6248 H 594.331 -3.25756 -2.86471 0
M  V30 6249 H 595.002 -3.20047 -4.49749 0
M  V30 6250 H 597.478 -1.35809 -3.93313 0
M  V30 6251 H 596.354 -1.36586 -5.31635 0
M  V30 6252 H 596.615 0.121659 -4.41933 0
M  V30 6253 N 595.674 1.31259 -0.872281 0
M  V30 6254 C 596.584 2.32221 -0.333255 0
M  V30 6255 C 597.6 1.6481 0.558013 0
M  V30 6256 O 598.776 1.96212 0.454175 0
M  V30 6257 C 595.841 3.43708 0.454479 0
M  V30 6258 C 594.902 4.26774 -0.465024 0
M  V30 6259 C 594.135 5.32937 0.28521 0
M  V30 6260 O 594.358 5.49968 1.513 0
M  V30 6261 O 593.292 6.00834 -0.358126 0
M  V30 6262 H 597.118 2.80252 -1.17016 0
M  V30 6263 H 594.703 1.352 -0.635724 0
M  V30 6264 H 596.585 4.11656 0.900963 0
M  V30 6265 H 595.26 2.97836 1.26789 0
M  V30 6266 H 594.167 3.61571 -0.960055 0
M  V30 6267 H 595.5 4.76217 -1.2441 0
M  V30 6268 N 597.152 0.631951 1.44375 0
M  V30 6269 C 598.429 0.067646 1.95483 0
M  V30 6270 C 598.809 -1.40683 1.57389 0
M  V30 6271 O 598.157 -2.12167 0.848375 0
M  V30 6272 C 598.367 0.291392 3.47781 0
M  V30 6273 C 599.715 0.185028 4.24197 0
M  V30 6274 O 600.739 0.222803 3.55503 0
M  V30 6275 O 599.598 0.0906642 5.46425 0
M  V30 6276 H 596.692 -0.0218379 0.826712 0
M  V30 6277 H 599.238 0.703711 1.54421 0
M  V30 6278 H 598.01 1.31449 3.68561 0
M  V30 6279 H 597.633 -0.378772 3.95792 0
M  V30 6280 O 598.669 -1.53077 0.514746 0
M  V30 6281 H 599.36 -1.937 0.000749731 0
M  V30 END ATOM
M  V30 BEGIN BOND
M  V30 END BOND
M  V30 END CTAB
M  END
$$$$
