drugbank_target|P31639 Sodium/glucose cotransporter 2 (DB06292; DB08907; DB09038; DB11827)
 OpenBabel12092120583D

  0  0  0     0  0            999 V3000
M  V30 BEGIN CTAB
M  V30 COUNTS 10319 10453 0 0 0
M  V30 BEGIN ATOM
M  V30 1 H -0.908 1.98254 -0.117106 0
M  V30 2 N 0 1.576 0 0
M  V30 3 C 0.933 2.03868 1.02534 0
M  V30 4 C 1.911 0.928543 1.3348 0
M  V30 5 O 3.095 1.19667 1.45644 0
M  V30 6 C 0.222 2.43627 2.35294 0
M  V30 7 C -0.732 3.65373 2.2001 0
M  V30 8 S 0.101 5.13292 1.52614 0
M  V30 9 C 1.257 5.56322 2.86805 0
M  V30 10 H 1.49 2.90518 0.631377 0
M  V30 11 H -0.977 1.52953 0.210867 0
M  V30 12 H 0.981 2.67203 3.11629 0
M  V30 13 H -0.358 1.57376 2.7183 0
M  V30 14 H -1.165 3.90944 3.18086 0
M  V30 15 H -1.563 3.418 1.51819 0
M  V30 16 H 0.729 5.58782 3.83104 0
M  V30 17 H 1.672 6.56266 2.65933 0
M  V30 18 H 2.08 4.83886 2.90714 0
M  V30 19 N 1.4781 -0.272755 1.55222 0
M  V30 20 C 2.3881 -1.35918 1.91216 0
M  V30 21 C 3.4041 -1.54026 0.809436 0
M  V30 22 O 4.5801 -1.68148 1.10852 0
M  V30 23 C 1.6451 -2.69834 2.17693 0
M  V30 24 C 0.7061 -2.6047 3.41253 0
M  V30 25 C -0.0609 -3.88 3.66458 0
M  V30 26 O 0.1621 -4.88693 2.94169 0
M  V30 27 O -0.9039 -3.88189 4.59992 0
M  V30 28 H 2.9221 -1.0839 2.83699 0
M  V30 29 H 0.5071 -0.471301 1.41771 0
M  V30 30 H 2.3891 -3.49017 2.36147 0
M  V30 31 H 1.0641 -2.97148 1.28392 0
M  V30 32 H -0.0289 -1.79663 3.28134 0
M  V30 33 H 1.3041 -2.38106 4.30774 0
M  V30 34 N 2.9562 -1.48159 -0.537278 0
M  V30 35 C 3.8662 -1.64807 -1.6696 0
M  V30 36 C 4.8822 -0.530651 -1.65711 0
M  V30 37 O 6.0582 -0.800784 -1.84796 0
M  V30 38 C 3.1232 -1.67708 -3.03438 0
M  V30 39 C 2.1842 -2.91025 -3.156 0
M  V30 40 C 1.4172 -2.93778 -4.45567 0
M  V30 41 O 1.6402 -2.05153 -5.3223 0
M  V30 42 O 0.5742 -3.85868 -4.61941 0
M  V30 43 H 4.4002 -2.6066 -1.55853 0
M  V30 44 H 1.9852 -1.31475 -0.709549 0
M  V30 45 H 3.8672 -1.7218 -3.84619 0
M  V30 46 H 2.5422 -0.750278 -3.14885 0
M  V30 47 H 1.4492 -2.92089 -2.33741 0
M  V30 48 H 2.7822 -3.83065 -3.09066 0
M  V30 49 N 4.4343 0.785586 -1.36625 0
M  V30 50 C 5.3843 1.88822 -1.27789 0
M  V30 51 C 6.3683 1.60014 -0.168579 0
M  V30 52 O 7.5603 1.72381 -0.401737 0
M  V30 53 C 4.6893 3.26092 -1.07327 0
M  V30 54 C 3.7753 3.60897 -2.22743 0
M  V30 55 N 4.1663 3.66982 -3.48077 0
M  V30 56 C 2.4643 3.90981 -2.14593 0
M  V30 57 C 3.1653 3.98137 -4.24101 0
M  V30 58 N 2.1413 4.13319 -3.53084 0
M  V30 59 H 5.9433 1.91759 -2.22723 0
M  V30 60 H 3.4573 0.981311 -1.29399 0
M  V30 61 H 5.4543 4.04954 -0.990842 0
M  V30 62 H 4.1143 3.24428 -0.132977 0
M  V30 63 H 5.1253 3.49531 -3.82163 0
M  V30 64 H 1.8023 3.9722 -1.2854 0
M  V30 65 H 3.1923 4.09737 -5.32509 0
M  V30 66 N 5.9124 1.20967 1.01018 0
M  V30 67 C 7.1404 1.04956 1.78303 0
M  V30 68 C 7.5554 -0.400915 1.84494 0
M  V30 69 O 6.9124 -1.27826 1.30257 0
M  V30 70 C 6.9634 1.63403 3.22462 0
M  V30 71 O 6.6844 3.02775 3.16637 0
M  V30 72 C 8.1854 1.52432 4.16268 0
M  V30 73 H 5.4054 0.368858 0.560522 0
M  V30 74 H 7.9494 1.60193 1.27116 0
M  V30 75 H 6.1044 1.1227 3.70775 0
M  V30 76 H 6.5184 3.30626 4.07169 0
M  V30 77 H 7.9924 1.98078 5.15237 0
M  V30 78 H 8.4694 0.477875 4.36592 0
M  V30 79 H 9.0754 2.02787 3.73841 0
M  V30 80 N 7.3905 -1.2043 1.01659 0
M  V30 81 C 8.3005 -2.2689 0.596484 0
M  V30 82 C 9.3165 -1.70107 -0.36599 0
M  V30 83 O 10.4925 -2.00117 -0.226942 0
M  V30 84 C 7.5575 -3.4665 -0.0586659 0
M  V30 85 C 6.6185 -4.18662 0.949751 0
M  V30 86 C 5.8515 -5.32705 0.32577 0
M  V30 87 O 6.0745 -5.63656 -0.874509 0
M  V30 88 O 5.0085 -5.92803 1.04249 0
M  V30 89 H 8.8345 -2.65041 1.4828 0
M  V30 90 H 6.4195 -1.27048 0.786082 0
M  V30 91 H 8.3015 -4.19256 -0.424564 0
M  V30 92 H 6.9765 -3.10375 -0.91918 0
M  V30 93 H 5.8835 -3.48229 1.36702 0
M  V30 94 H 7.2165 -4.58878 1.78023 0
M  V30 95 N 8.8686 -0.792821 -1.36206 0
M  V30 96 C 9.8316 -0.199459 -2.2833 0
M  V30 97 C 10.8316 0.605189 -1.48977 0
M  V30 98 O 12.0216 0.425685 -1.68919 0
M  V30 99 C 9.1536 0.723523 -3.33134 0
M  V30 100 H 10.3466 -1.01181 -2.82316 0
M  V30 101 H 7.8996 -0.562485 -1.45828 0
M  V30 102 H 8.6346 1.56008 -2.84309 0
M  V30 103 H 8.4196 0.148436 -3.91819 0
M  V30 104 H 9.9096 1.13344 -4.01924 0
M  V30 105 N 10.3467 1.47872 -0.545128 0
M  V30 106 C 11.5947 2.02093 -0.016553 0
M  V30 107 C 11.9157 1.42305 1.3332 0
M  V30 108 O 11.1857 0.593853 1.86682 0
M  V30 109 H 9.7657 0.746993 -0.00313038 0
M  V30 110 H 12.4277 1.81414 -0.712397 0
M  V30 111 H 11.5237 3.11996 0.0805422 0
M  V30 112 N 11.8248 0.280983 1.55075 0
M  V30 113 C 13.0498 -0.340154 2.04592 0
M  V30 114 C 13.4748 -1.48246 1.15779 0
M  V30 115 O 12.8328 -1.80614 0.15761 0
M  V30 116 C 12.8808 -0.793104 3.5177 0
M  V30 117 O 11.9848 -1.89981 3.66034 0
M  V30 118 H 11.3258 -0.0694289 0.66036 0
M  V30 119 H 13.8558 0.416993 2.00306 0
M  V30 120 H 13.8658 -1.08729 3.93245 0
M  V30 121 H 12.5408 0.0426163 4.15878 0
M  V30 122 H 11.1178 -1.60771 3.36463 0
M  V30 123 N 13.3029 -1.57598 0.00835791 0
M  V30 124 C 14.2659 -2.07884 -0.965242 0
M  V30 125 C 15.2659 -0.989825 -1.26725 0
M  V30 126 O 16.4559 -1.25218 -1.21104 0
M  V30 127 C 13.5879 -2.52731 -2.28779 0
M  V30 128 H 14.7809 -2.95178 -0.530112 0
M  V30 129 H 12.3339 -1.54458 -0.239283 0
M  V30 130 H 13.0689 -1.68705 -2.76964 0
M  V30 131 H 12.8539 -3.32272 -2.08177 0
M  V30 132 H 14.3439 -2.91933 -2.98605 0
M  V30 133 N 14.781 0.264519 -1.55364 0
M  V30 134 C 16.192 0.834936 -1.6699 0
M  V30 135 C 16.543 1.86718 -0.602552 0
M  V30 136 O 15.668 2.14899 0.254425 0
M  V30 137 C 16.263 1.5212 -3.02729 0
M  V30 138 C 14.822 2.03954 -3.16354 0
M  V30 139 C 13.969 0.884498 -2.62815 0
M  V30 140 H 16.92 0.0406869 -1.58648 0
M  V30 141 H 16.941 2.38853 -2.96191 0
M  V30 142 H 16.453 0.769668 -3.80392 0
M  V30 143 H 14.554 2.82041 -2.43482 0
M  V30 144 H 14.667 2.24902 -4.23032 0
M  V30 145 H 13.031 1.2802 -2.20188 0
M  V30 146 H 13.814 0.14634 -3.42988 0
M  V30 147 N 16.2591 1.48442 0.529413 0
M  V30 148 C 17.1691 1.6569 1.66084 0
M  V30 149 C 18.1851 0.539432 1.65427 0
M  V30 150 O 19.3611 0.810572 1.84368 0
M  V30 151 C 16.4261 1.69315 3.02545 0
M  V30 152 C 15.4871 2.92694 3.14052 0
M  V30 153 C 14.7201 2.96137 4.44003 0
M  V30 154 O 14.9431 2.07973 5.31134 0
M  V30 155 O 13.8771 3.88312 4.59888 0
M  V30 156 H 17.7031 2.61483 1.54469 0
M  V30 157 H 15.2881 1.3185 0.702567 0
M  V30 158 H 17.1701 1.74217 3.83701 0
M  V30 159 H 15.8451 0.766966 3.14483 0
M  V30 160 H 14.7521 2.93324 2.32189 0
M  V30 161 H 16.0851 3.84699 3.0703 0
M  V30 162 N 17.7372 -0.778329 1.37039 0
M  V30 163 C 18.6702 -1.8984 1.26633 0
M  V30 164 C 19.6482 -1.61923 0.148197 0
M  V30 165 O 20.8322 -1.85742 0.321265 0
M  V30 166 C 17.9592 -3.24916 0.956403 0
M  V30 167 C 17.0052 -3.71752 2.09051 0
M  V30 168 S 17.8382 -3.86201 3.70957 0
M  V30 169 C 18.9942 -5.24135 3.42101 0
M  V30 170 H 19.2272 -1.98377 2.21436 0
M  V30 171 H 16.7602 -0.938738 1.22585 0
M  V30 172 H 18.7182 -4.02936 0.784409 0
M  V30 173 H 17.3792 -3.14089 0.0259713 0
M  V30 174 H 16.5722 -4.69661 1.8285 0
M  V30 175 H 16.1742 -3.00815 2.2223 0
M  V30 176 H 18.4662 -6.09086 2.96682 0
M  V30 177 H 19.4092 -5.55346 4.39314 0
M  V30 178 H 19.8172 -4.91761 2.77185 0
M  V30 179 N 19.2153 -1.21501 -1.00376 0
M  V30 180 C 20.4633 -1.03095 -1.73827 0
M  V30 181 C 20.7843 0.436341 -1.90055 0
M  V30 182 O 20.0543 1.31466 -1.45236 0
M  V30 183 H 18.6343 -0.378487 -0.644016 0
M  V30 184 H 21.2963 -1.52831 -1.20949 0
M  V30 185 H 20.3923 -1.49991 -2.73695 0
M  V30 186 N 20.6934 1.19889 -1.02296 0
M  V30 187 C 21.6564 2.21116 -0.603351 0
M  V30 188 C 22.6564 1.5738 0.329884 0
M  V30 189 O 23.8464 1.73802 0.117702 0
M  V30 190 C 20.9784 3.40696 0.117992 0
M  V30 191 H 22.1714 2.59754 -1.49893 0
M  V30 192 H 19.7244 1.33463 -0.813468 0
M  V30 193 H 20.4594 3.07569 1.0282 0
M  V30 194 H 20.2444 3.88188 -0.552511 0
M  V30 195 H 21.7344 4.15692 0.398696 0
M  V30 196 N 22.1715 0.800033 1.35784 0
M  V30 197 C 23.1035 0.163596 2.28615 0
M  V30 198 C 24.1165 -0.633317 1.49976 0
M  V30 199 O 25.3055 -0.466754 1.72289 0
M  V30 200 C 22.4055 -0.790958 3.29541 0
M  V30 201 C 21.5785 -0.0418255 4.3738 0
M  V30 202 C 20.6375 -0.91389 5.18203 0
M  V30 203 O 19.6635 -0.367234 5.68014 0
M  V30 204 N 20.8655 -2.23682 5.35674 0
M  V30 205 H 23.6305 0.96105 2.83873 0
M  V30 206 H 21.1915 0.654894 1.48063 0
M  V30 207 H 23.1835 -1.37844 3.80501 0
M  V30 208 H 21.7535 -1.48925 2.74846 0
M  V30 209 H 20.9735 0.726813 3.87442 0
M  V30 210 H 22.2615 0.474719 5.06581 0
M  V30 211 H 21.6595 -2.70497 4.96838 0
M  V30 212 H 20.2165 -2.77369 5.89839 0
M  V30 213 N 23.6496 -1.47581 0.552962 0
M  V30 214 C 24.5966 -2.29957 -0.197108 0
M  V30 215 C 25.5666 -1.38799 -0.912359 0
M  V30 216 O 26.7516 -1.67761 -0.908888 0
M  V30 217 C 23.8916 -3.22672 -1.22379 0
M  V30 218 C 23.0046 -4.28919 -0.515038 0
M  V30 219 C 22.1396 -5.0879 -1.52664 0
M  V30 220 C 21.1786 -6.06815 -0.802631 0
M  V30 221 N 20.3156 -6.7966 -1.76086 0
M  V30 222 H 25.1556 -2.93578 0.511486 0
M  V30 223 H 22.6926 -1.4471 0.264067 0
M  V30 224 H 24.6506 -3.74845 -1.83159 0
M  V30 225 H 23.2806 -2.60925 -1.90047 0
M  V30 226 H 22.3326 -3.79835 0.207192 0
M  V30 227 H 23.6446 -4.98773 0.0523425 0
M  V30 228 H 22.7986 -5.65091 -2.20809 0
M  V30 229 H 21.5376 -4.38828 -2.12794 0
M  V30 230 H 20.5426 -5.49695 -0.107238 0
M  V30 231 H 21.7676 -6.78784 -0.207135 0
M  V30 232 H 19.7136 -6.12432 -2.35081 0
M  V30 233 H 19.6306 -7.45669 -1.24552 0
M  V30 234 H 20.8986 -7.40538 -2.43359 0
M  V30 235 N 25.1277 -0.289203 -1.54924 0
M  V30 236 C 26.0907 0.579144 -2.21762 0
M  V30 237 C 27.0907 1.07047 -1.1999 0
M  V30 238 O 28.2807 0.968384 -1.44803 0
M  V30 239 C 25.4127 1.80055 -2.8947 0
M  V30 240 H 26.6057 -0.00464908 -2.999 0
M  V30 241 H 24.1587 -0.0399306 -1.56249 0
M  V30 242 H 24.8937 2.42449 -2.15381 0
M  V30 243 H 24.6787 1.45602 -3.64064 0
M  V30 244 H 26.1687 2.41773 -3.40493 0
M  V30 245 N 26.6058 1.57591 -0.0167156 0
M  V30 246 C 27.5358 2.12496 0.967858 0
M  V30 247 C 28.5168 1.03807 1.34752 0
M  V30 248 O 29.7018 1.31577 1.42833 0
M  V30 249 C 26.8318 2.64194 2.25431 0
M  V30 250 C 25.7858 3.77559 2.01576 0
M  V30 251 C 25.1118 4.15636 3.36379 0
M  V30 252 C 26.4118 5.04151 1.36489 0
M  V30 253 H 28.1058 2.95013 0.510643 0
M  V30 254 H 25.6518 1.41915 0.244181 0
M  V30 255 H 27.6048 3.01236 2.94678 0
M  V30 256 H 26.3288 1.78821 2.73296 0
M  V30 257 H 24.9878 3.40937 1.34751 0
M  V30 258 H 24.6358 3.27263 3.81979 0
M  V30 259 H 24.3358 4.92022 3.21229 0
M  V30 260 H 25.8598 4.5525 4.06915 0
M  V30 261 H 27.2738 5.38857 1.95718 0
M  V30 262 H 25.6708 5.85453 1.31776 0
M  V30 263 H 26.7408 4.83733 0.336219 0
M  V30 264 N 28.0839 -0.256276 1.55502 0
M  V30 265 C 29.3329 -0.983486 1.76098 0
M  V30 266 C 29.6459 -1.86837 0.578896 0
M  V30 267 O 30.8519 -2.63163 0.667648 0
M  V30 268 C 29.3079 -1.79868 3.1173 0
M  V30 269 C 28.9159 -0.961648 4.37557 0
M  V30 270 C 30.6599 -2.51919 3.41668 0
M  V30 271 C 28.5669 -1.77219 5.64223 0
M  V30 272 H 27.4969 -0.370936 0.656447 0
M  V30 273 H 30.1479 -0.238492 1.81944 0
M  V30 274 H 28.5299 -2.58527 2.99966 0
M  V30 275 H 29.7039 -0.218048 4.60284 0
M  V30 276 H 28.0189 -0.354913 4.14885 0
M  V30 277 H 30.6159 -3.12998 4.33516 0
M  V30 278 H 30.9589 -3.23059 2.62562 0
M  V30 279 H 31.4919 -1.80278 3.54605 0
M  V30 280 H 28.2309 -1.10471 6.46124 0
M  V30 281 H 27.7509 -2.49132 5.45613 0
M  V30 282 H 29.4299 -2.34169 6.03137 0
M  V30 283 N 29.562 -1.4872 -0.521534 0
M  V30 284 C 30.839 -1.4766 -1.2828 0
M  V30 285 C 31.219 -0.19292 -2.10217 0
M  V30 286 O 30.567 0.825193 -2.13079 0
M  V30 287 C 30.777 -2.74358 -2.15705 0
M  V30 288 C 32.125 -3.23028 -2.75569 0
M  V30 289 O 33.149 -2.75333 -2.25987 0
M  V30 290 O 32.008 -4.0604 -3.65778 0
M  V30 291 H 29.102 -0.590085 -0.579421 0
M  V30 292 H 31.648 -1.60963 -0.537492 0
M  V30 293 H 30.42 -3.59292 -1.54999 0
M  V30 294 H 30.043 -2.63816 -2.97467 0
M  V30 295 N 31.0401 0.771051 -1.3745 0
M  V30 296 C 31.9881 1.90574 -1.33358 0
M  V30 297 C 32.9821 1.67936 -0.22224 0
M  V30 298 O 34.1881 1.75717 -0.390304 0
M  V30 299 H 30.5631 0.626714 -0.415612 0
M  V30 300 H 32.5341 1.91142 -2.29144 0
M  V30 301 C 31.2831 3.27845 -1.15813 0
M  V30 302 H 30.6061 3.45842 -2.00583 0
M  V30 303 H 32.0461 4.07538 -1.17 0
M  V30 304 C 30.5051 3.36625 0.136165 0
M  V30 305 O 31.0351 3.85785 1.11949 0
M  V30 306 N 29.2411 2.89997 0.187099 0
M  V30 307 H 28.7881 2.50182 -0.613753 0
M  V30 308 H 28.7461 2.96252 1.05272 0
M  V30 309 N 32.5182 1.22032 0.997298 0
M  V30 310 C 33.9292 1.0397 1.55071 0
M  V30 311 C 34.2802 -0.398192 1.92117 0
M  V30 312 O 33.4052 -1.28254 1.74298 0
M  V30 313 C 34.0002 1.88109 2.81781 0
M  V30 314 C 32.5592 1.74357 3.33581 0
M  V30 315 C 31.7062 1.84846 2.06706 0
M  V30 316 H 34.6572 1.35941 0.818883 0
M  V30 317 H 34.6782 1.39589 3.53971 0
M  V30 318 H 34.1902 2.92754 2.54787 0
M  V30 319 H 32.2912 0.72427 3.65493 0
M  V30 320 H 32.4042 2.56772 4.04481 0
M  V30 321 H 30.7682 1.28238 2.20062 0
M  V30 322 H 31.5512 2.91014 1.82114 0
M  V30 323 N 33.9963 -1.19345 1.0293 0
M  V30 324 C 34.9593 -2.20793 0.615069 0
M  V30 325 C 35.9593 -1.57553 -0.321533 0
M  V30 326 O 37.1493 -1.73862 -0.108483 0
M  V30 327 C 34.2813 -3.40754 -0.0999222 0
M  V30 328 H 35.4743 -2.58955 1.51269 0
M  V30 329 H 33.0273 -1.3303 0.820534 0
M  V30 330 H 33.7623 -3.0811 -1.01187 0
M  V30 331 H 33.5473 -3.87889 0.57309 0
M  V30 332 H 35.0373 -4.15898 -0.376645 0
M  V30 333 N 35.4744 -0.807222 -1.35358 0
M  V30 334 C 36.7514 -0.311126 -1.9311 0
M  V30 335 C 37.1314 1.19937 -1.73719 0
M  V30 336 O 36.4794 1.99918 -1.10657 0
M  V30 337 C 36.6894 -0.723226 -3.41424 0
M  V30 338 C 38.0374 -0.713078 -4.18569 0
M  V30 339 O 39.0614 -0.664811 -3.49941 0
M  V30 340 O 37.9204 -0.772022 -5.41019 0
M  V30 341 H 35.0144 -0.081526 -0.822972 0
M  V30 342 H 37.5604 -0.890962 -1.4443 0
M  V30 343 H 36.3324 -1.76426 -3.4927 0
M  V30 344 H 35.9554 -0.118232 -3.97424 0
M  V30 345 N 36.9525 1.47285 -0.560781 0
M  V30 346 C 38.2015 2.01668 -0.035895 0
M  V30 347 C 38.5145 1.44021 1.32353 0
M  V30 348 O 39.7205 1.90088 1.93853 0
M  V30 349 C 38.1765 3.59897 -0.0136659 0
M  V30 350 C 37.7845 4.26536 -1.37006 0
M  V30 351 C 39.5285 4.22017 0.458425 0
M  V30 352 C 37.4355 5.76782 -1.30675 0
M  V30 353 H 36.3655 0.753938 -0.00964879 0
M  V30 354 H 39.0165 1.69243 -0.709166 0
M  V30 355 H 37.3985 3.89301 0.725325 0
M  V30 356 H 38.5725 4.0877 -2.12705 0
M  V30 357 H 36.8875 3.76419 -1.78038 0
M  V30 358 H 39.4845 5.32124 0.524247 0
M  V30 359 H 39.8275 3.89437 1.4712 0
M  V30 360 H 40.3605 3.97159 -0.225818 0
M  V30 361 H 37.0995 6.13988 -2.29564 0
M  V30 362 H 36.6195 5.96875 -0.591622 0
M  V30 363 H 38.2985 6.39063 -1.01033 0
M  V30 364 N 38.4306 0.297415 1.54768 0
M  V30 365 C 39.3606 -0.573494 2.26348 0
M  V30 366 C 40.3416 -1.14085 1.26169 0
M  V30 367 O 41.5266 -1.17086 1.54934 0
M  V30 368 C 38.6566 -1.74716 3.00153 0
M  V30 369 C 37.6106 -1.31032 4.07449 0
M  V30 370 C 36.9366 -2.56887 4.68949 0
M  V30 371 C 38.2366 -0.444183 5.20408 0
M  V30 372 H 39.9306 0.0235131 2.99391 0
M  V30 373 H 37.4766 0.0127488 1.43994 0
M  V30 374 H 39.4296 -2.3625 3.48947 0
M  V30 375 H 38.1536 -2.37035 2.24682 0
M  V30 376 H 36.8126 -0.718066 3.59499 0
M  V30 377 H 36.4606 -3.17512 3.90122 0
M  V30 378 H 36.1606 -2.2836 5.41411 0
M  V30 379 H 37.6846 -3.19229 5.20505 0
M  V30 380 H 39.0986 -0.9651 5.65118 0
M  V30 381 H 37.4956 -0.252846 5.99567 0
M  V30 382 H 38.5656 0.531609 4.81977 0
M  V30 383 N 39.9087 -1.5758 0.0250728 0
M  V30 384 C 41.1547 -1.91917 -0.655413 0
M  V30 385 C 41.4877 -0.901433 -1.72011 0
M  V30 386 O 40.7627 0.0764069 -1.9435 0
M  V30 387 C 41.0457 -3.36751 -1.27558 0
M  V30 388 C 40.8987 -4.49258 -0.220719 0
M  V30 389 C 42.2177 -3.81469 -2.19475 0
M  V30 390 H 39.3367 -0.697925 -0.23679 0
M  V30 391 H 41.9787 -1.89825 0.0815036 0
M  V30 392 H 40.1287 -3.38664 -1.90365 0
M  V30 393 H 41.8007 -4.59478 0.409601 0
M  V30 394 H 40.0437 -4.31415 0.454264 0
M  V30 395 H 40.7147 -5.47618 -0.694175 0
M  V30 396 H 43.1907 -3.81266 -1.66659 0
M  V30 397 H 42.0667 -4.83512 -2.59822 0
M  V30 398 H 42.3277 -3.16744 -3.08424 0
M  V30 399 N 41.3868 0.248026 -1.55636 0
M  V30 400 C 42.6358 0.974134 -1.76617 0
M  V30 401 C 42.9488 1.86528 -0.588796 0
M  V30 402 O 44.1548 2.62805 -0.681594 0
M  V30 403 C 42.6108 1.78213 -3.12679 0
M  V30 404 C 42.2188 0.93843 -4.38061 0
M  V30 405 C 43.9628 2.50104 -3.42999 0
M  V30 406 C 41.8698 1.74225 -5.65155 0
M  V30 407 H 40.7998 0.36745 -0.658405 0
M  V30 408 H 43.4508 0.22884 -1.82067 0
M  V30 409 H 41.8328 2.56933 -3.01333 0
M  V30 410 H 43.0068 0.193635 -4.60393 0
M  V30 411 H 41.3218 0.332905 -4.15067 0
M  V30 412 H 43.9188 3.10694 -4.3517 0
M  V30 413 H 44.2618 3.21662 -2.64271 0
M  V30 414 H 44.7948 1.78395 -3.55556 0
M  V30 415 H 41.5338 1.07043 -6.46701 0
M  V30 416 H 41.0538 2.46235 -5.46926 0
M  V30 417 H 42.7328 2.30967 -6.0437 0
M  V30 418 N 42.8649 1.48995 0.513639 0
M  V30 419 C 43.8279 1.64229 1.59879 0
M  V30 420 C 44.8279 0.514696 1.5234 0
M  V30 421 O 46.0179 0.78087 1.55718 0
M  V30 422 C 43.1499 1.62783 2.99524 0
M  V30 423 H 44.3429 2.61004 1.47705 0
M  V30 424 H 41.8959 1.37837 0.736936 0
M  V30 425 H 42.6309 0.675461 3.17188 0
M  V30 426 H 42.4159 2.4466 3.06404 0
M  V30 427 H 43.9059 1.76669 3.78388 0
M  V30 428 N 44.343 -0.763751 1.37857 0
M  V30 429 C 45.306 -1.85889 1.34081 0
M  V30 430 C 46.306 -1.58949 0.243277 0
M  V30 431 O 47.496 -1.66882 0.499589 0
M  V30 432 C 44.628 -3.23176 1.08489 0
M  V30 433 H 45.821 -1.90648 2.31502 0
M  V30 434 H 43.374 -0.964367 1.23003 0
M  V30 435 H 44.109 -3.24091 0.116318 0
M  V30 436 H 43.894 -3.44124 1.8794 0
M  V30 437 H 45.384 -4.03254 1.08517 0
M  V30 438 N 45.8211 -1.22559 -0.990812 0
M  V30 439 C 47.0511 -1.07623 -1.76355 0
M  V30 440 C 47.4591 0.37601 -1.85426 0
M  V30 441 O 46.8021 1.27228 -1.32509 0
M  V30 442 C 46.8641 -1.61507 -3.21179 0
M  V30 443 C 46.5281 -3.10146 -3.35646 0
M  V30 444 C 47.5251 -4.07553 -3.22796 0
M  V30 445 C 45.2101 -3.49644 -3.60631 0
M  V30 446 C 47.2041 -5.42442 -3.34716 0
M  V30 447 C 44.8911 -4.84682 -3.72192 0
M  V30 448 C 45.8891 -5.8089 -3.59243 0
M  V30 449 O 45.5771 -7.13476 -3.70415 0
M  V30 450 H 45.3091 -0.377745 -0.560611 0
M  V30 451 H 47.8631 -1.62658 -1.25425 0
M  V30 452 H 46.0931 -1.00881 -3.73309 0
M  V30 453 H 47.7821 -1.42202 -3.80175 0
M  V30 454 H 48.5481 -3.78381 -3.03403 0
M  V30 455 H 44.4271 -2.75282 -3.69785 0
M  V30 456 H 47.9711 -6.17518 -3.24526 0
M  V30 457 H 43.8681 -5.13534 -3.91092 0
M  V30 458 H 44.6361 -7.21083 -3.87275 0
M  V30 459 N 47.2992 1.18797 -1.03562 0
M  V30 460 C 48.5462 1.8865 -0.736023 0
M  V30 461 C 48.8742 1.80041 0.735889 0
M  V30 462 O 48.1292 1.19179 1.55225 0
M  V30 463 C 48.4282 3.38692 -1.14117 0
M  V30 464 C 48.0942 3.67504 -2.6125 0
M  V30 465 C 46.7562 3.75078 -3.01447 0
M  V30 466 C 49.1082 3.80293 -3.56408 0
M  V30 467 C 46.4362 3.92915 -4.35701 0
M  V30 468 C 48.7882 3.99645 -4.90374 0
M  V30 469 C 47.4522 4.05453 -5.30249 0
M  V30 470 H 46.7222 0.690321 -0.26933 0
M  V30 471 H 49.3692 1.40641 -1.29971 0
M  V30 472 H 47.6742 3.88645 -0.496202 0
M  V30 473 H 49.3712 3.91072 -0.886789 0
M  V30 474 H 45.9612 3.62223 -2.29113 0
M  V30 475 H 50.1452 3.73779 -3.26501 0
M  V30 476 H 45.4012 3.95653 -4.66121 0
M  V30 477 H 49.5752 4.08482 -5.64017 0
M  V30 478 H 47.2022 4.19027 -6.34288 0
M  V30 479 N 48.7773 0.814389 1.34928 0
M  V30 480 C 49.7073 0.244827 2.32213 0
M  V30 481 C 50.6883 -0.634024 1.57842 0
M  V30 482 O 51.8733 -0.562676 1.8587 0
M  V30 483 C 49.0033 -0.601106 3.42058 0
M  V30 484 C 47.9573 0.179896 4.27622 0
M  V30 485 C 47.2833 -0.788237 5.28858 0
M  V30 486 C 48.5833 1.38329 5.03649 0
M  V30 487 H 50.2773 1.05763 2.80097 0
M  V30 488 H 47.8233 0.510029 1.34665 0
M  V30 489 H 49.7763 -1.00968 4.09125 0
M  V30 490 H 48.5003 -1.44688 2.92802 0
M  V30 491 H 47.1593 0.569739 3.62146 0
M  V30 492 H 46.8073 -1.62973 4.75866 0
M  V30 493 H 46.5073 -0.269942 5.8698 0
M  V30 494 H 48.0313 -1.19485 5.98795 0
M  V30 495 H 49.4453 1.04918 5.63618 0
M  V30 496 H 47.8423 1.83662 5.71304 0
M  V30 497 H 48.9123 2.16592 4.33839 0
M  V30 498 N 50.2554 -1.46986 0.568584 0
M  V30 499 C 51.1854 -2.32946 -0.160753 0
M  V30 500 C 52.1664 -1.44487 -0.897631 0
M  V30 501 O 53.3514 -1.73327 -0.875867 0
M  V30 502 C 50.4814 -3.26494 -1.18403 0
M  V30 503 C 49.4354 -4.24282 -0.562895 0
M  V30 504 C 48.7614 -5.07236 -1.69163 0
M  V30 505 C 50.0614 -5.19989 0.490761 0
M  V30 506 H 51.7554 -2.94175 0.556916 0
M  V30 507 H 49.3014 -1.4146 0.26927 0
M  V30 508 H 51.2544 -3.85477 -1.70251 0
M  V30 509 H 49.9784 -2.63343 -1.93179 0
M  V30 510 H 48.6374 -3.66541 -0.0656164 0
M  V30 511 H 48.2854 -4.4048 -2.42871 0
M  V30 512 H 47.9854 -5.7345 -1.28174 0
M  V30 513 H 49.5094 -5.6908 -2.21314 0
M  V30 514 H 50.9234 -5.73271 0.0579047 0
M  V30 515 H 49.3204 -5.94469 0.820165 0
M  V30 516 H 50.3904 -4.64777 1.3824 0
M  V30 517 N 51.7335 -0.305618 -1.54608 0
M  V30 518 C 52.9795 0.302746 -2.00528 0
M  V30 519 C 53.3125 1.53184 -1.19367 0
M  V30 520 O 52.5875 1.92598 -0.271321 0
M  V30 521 C 52.8705 0.654756 -3.54097 0
M  V30 522 C 52.7235 -0.583793 -4.45995 0
M  V30 523 C 54.0425 1.47947 -4.14487 0
M  V30 524 H 51.1615 0.108564 -0.72896 0
M  V30 525 H 53.8035 -0.418634 -1.85331 0
M  V30 526 H 51.9535 1.26935 -3.67178 0
M  V30 527 H 53.6255 -1.22224 -4.44814 0
M  V30 528 H 51.8685 -1.21615 -4.16404 0
M  V30 529 H 52.5395 -0.293287 -5.5122 0
M  V30 530 H 55.0155 0.96013 -4.04871 0
M  V30 531 H 53.8915 1.69454 -5.22088 0
M  V30 532 H 54.1525 2.47011 -3.66658 0
M  V30 533 N 53.2116 1.57565 -0.0334293 0
M  V30 534 C 54.4606 1.91155 0.643639 0
M  V30 535 C 54.7736 0.91192 1.73042 0
M  V30 536 O 55.9796 1.13923 2.46442 0
M  V30 537 C 54.4356 3.39443 1.1961 0
M  V30 538 C 54.0436 4.47774 0.142381 0
M  V30 539 C 55.7876 3.82094 1.84944 0
M  V30 540 C 53.6946 5.87162 0.706727 0
M  V30 541 H 52.6246 0.713368 0.244176 0
M  V30 542 H 55.2756 1.8323 -0.0994323 0
M  V30 543 H 53.6576 3.42313 1.99092 0
M  V30 544 H 54.8316 4.56469 -0.630296 0
M  V30 545 H 53.1466 4.14352 -0.412446 0
M  V30 546 H 55.7436 4.83591 2.2813 0
M  V30 547 H 56.0866 3.17386 2.69392 0
M  V30 548 H 56.6196 3.81665 1.12145 0
M  V30 549 H 53.3586 6.55424 -0.0997178 0
M  V30 550 H 52.8786 5.82064 1.44779 0
M  V30 551 H 54.5576 6.35866 1.19514 0
M  V30 552 N 54.6897 -0.239769 1.55765 0
M  V30 553 C 55.9377 -0.964892 1.77579 0
M  V30 554 C 56.2587 -1.85582 0.598699 0
M  V30 555 O 55.5287 -1.92075 -0.385226 0
M  V30 556 H 54.1087 -0.359265 0.654933 0
M  V30 557 H 56.7707 -0.256001 1.93211 0
M  V30 558 H 55.8667 -1.58243 2.69009 0
M  V30 559 N 56.1678 -1.49265 -0.50573 0
M  V30 560 C 57.4138 -1.58748 -1.26202 0
M  V30 561 C 57.7468 -0.271227 -1.92297 0
M  V30 562 O 57.0218 0.724831 -1.80489 0
M  V30 563 C 57.3048 -2.74332 -2.33268 0
M  V30 564 C 57.1578 -4.15737 -1.71705 0
M  V30 565 C 58.4768 -2.85576 -3.34865 0
M  V30 566 H 55.5958 -0.577826 -0.457478 0
M  V30 567 H 58.2378 -1.81532 -0.560897 0
M  V30 568 H 56.3878 -2.55036 -2.93068 0
M  V30 569 H 58.0598 -4.46537 -1.15769 0
M  V30 570 H 56.3028 -4.21605 -1.02135 0
M  V30 571 H 56.9738 -4.92477 -2.49341 0
M  V30 572 H 59.4498 -3.03127 -2.8505 0
M  V30 573 H 58.3258 -3.68135 -4.07146 0
M  V30 574 H 58.5868 -1.94732 -3.96903 0
M  V30 575 N 57.6459 0.756429 -1.3826 0
M  V30 576 C 58.8939 1.51248 -1.34047 0
M  V30 577 C 59.2149 1.94875 0.0698372 0
M  V30 578 O 58.4849 1.67436 1.01696 0
M  V30 579 H 57.0649 0.561018 -0.493222 0
M  V30 580 H 59.7269 0.899347 -1.7291 0
M  V30 581 H 58.8229 2.40472 -1.98947 0
M  V30 582 N 59.124 1.23083 0.984299 0
M  V30 583 C 60.054 1.03292 2.09411 0
M  V30 584 C 61.035 -0.048923 1.7003 0
M  V30 585 O 62.22 0.114967 1.93859 0
M  V30 586 C 59.35 0.619155 3.41736 0
M  V30 587 C 58.304 1.64791 3.95004 0
M  V30 588 C 57.63 1.0897 5.23478 0
M  V30 589 C 58.93 3.03999 4.24714 0
M  V30 590 H 60.624 1.96119 2.26225 0
M  V30 591 H 58.17 0.944344 1.08711 0
M  V30 592 H 60.123 0.467777 4.18796 0
M  V30 593 H 58.847 -0.344786 3.24775 0
M  V30 594 H 57.506 1.78721 3.20085 0
M  V30 595 H 57.154 0.11686 5.02864 0
M  V30 596 H 56.854 1.77704 5.60085 0
M  V30 597 H 58.378 0.950093 6.03163 0
M  V30 598 H 59.792 2.93393 4.92538 0
M  V30 599 H 58.189 3.69936 4.72512 0
M  V30 600 H 59.259 3.53285 3.32142 0
M  V30 601 N 60.6021 -1.18246 1.0419 0
M  V30 602 C 61.8481 -1.88793 0.75689 0
M  V30 603 C 62.2031 -1.78909 -0.707767 0
M  V30 604 O 61.4961 -1.1794 -1.50999 0
M  V30 605 C 61.6901 -3.38082 1.15911 0
M  V30 606 C 61.5191 -3.62496 2.66133 0
M  V30 607 C 60.2891 -3.7979 3.33298 0
M  V30 608 C 62.4871 -3.62976 3.64353 0
M  V30 609 N 60.4691 -3.91955 4.72487 0
M  V30 610 C 61.8401 -3.80869 4.89222 0
M  V30 611 C 63.8951 -3.46071 3.57965 0
M  V30 612 C 62.5981 -3.83608 6.08471 0
M  V30 613 C 64.6241 -3.50093 4.76643 0
M  V30 614 C 63.9861 -3.68484 6.00332 0
M  V30 615 H 60.0851 -0.709406 0.32904 0
M  V30 616 H 62.6691 -1.42022 1.33183 0
M  V30 617 H 60.8401 -3.83544 0.612238 0
M  V30 618 H 62.5721 -3.96202 0.824989 0
M  V30 619 H 59.3271 -3.79224 2.83701 0
M  V30 620 H 59.7511 -4.01857 5.44831 0
M  V30 621 H 64.3931 -3.30797 2.63311 0
M  V30 622 H 62.1111 -3.97669 7.0348 0
M  V30 623 H 65.6971 -3.38285 4.73344 0
M  V30 624 H 64.5771 -3.71488 6.90627 0
M  V30 625 N 62.0802 -0.821533 -1.34494 0
M  V30 626 C 63.3052 -0.420873 -2.03085 0
M  V30 627 C 63.7302 0.964915 -1.61465 0
M  V30 628 O 63.0882 1.62763 -0.798607 0
M  V30 629 C 63.1362 -0.529414 -3.56693 0
M  V30 630 O 62.2402 0.451302 -4.09923 0
M  V30 631 H 61.5812 -0.173489 -0.640935 0
M  V30 632 H 64.1112 -1.11157 -1.71771 0
M  V30 633 H 64.1212 -0.404671 -4.05988 0
M  V30 634 H 62.7962 -1.54014 -3.86332 0
M  V30 635 H 61.3732 0.285558 -3.71805 0
M  V30 636 N 63.5583 1.46682 -0.576371 0
M  V30 637 C 64.4913 2.27243 0.208731 0
M  V30 638 C 65.4693 1.35238 0.902746 0
M  V30 639 O 66.6533 1.64641 0.917904 0
M  V30 640 C 63.7803 3.12802 1.29896 0
M  V30 641 C 62.8263 4.20524 0.711457 0
M  V30 642 S 63.6593 5.33548 -0.456781 0
M  V30 643 C 64.8153 6.22673 0.634798 0
M  V30 644 H 65.0483 2.93484 -0.474838 0
M  V30 645 H 62.5813 1.50069 -0.363118 0
M  V30 646 H 64.5393 3.62661 1.92321 0
M  V30 647 H 63.2003 2.45887 1.95444 0
M  V30 648 H 62.3933 4.80191 1.53076 0
M  V30 649 H 61.9953 3.73645 0.162999 0
M  V30 650 H 64.2873 6.60181 1.52209 0
M  V30 651 H 65.2303 7.0806 0.0750311 0
M  V30 652 H 65.6383 5.56684 0.936092 0
M  V30 653 N 65.0364 0.313813 1.54444 0
M  V30 654 C 66.2764 -0.292389 2.02298 0
M  V30 655 C 66.6404 -1.50105 1.19719 0
M  V30 656 O 67.8414 -2.17947 1.5733 0
M  V30 657 C 66.1124 -0.627682 3.51845 0
M  V30 658 S 67.6714 -1.21493 4.21646 0
M  V30 659 H 64.4894 -0.0890247 0.705405 0
M  V30 660 H 67.0914 0.444668 1.90376 0
M  V30 661 H 65.7954 0.260265 4.09574 0
M  V30 662 H 65.3264 -1.39519 3.67829 0
M  V30 663 H 67.3414 -2.5022 4.28491 0
M  V30 664 N 66.5145 -1.57545 0.0417849 0
M  V30 665 C 67.9305 -1.56467 -0.314704 0
M  V30 666 C 68.1305 -1.04859 -1.72066 0
M  V30 667 O 67.1865 -0.700983 -2.42575 0
M  V30 668 C 68.4995 -3.00317 -0.15174 0
M  V30 669 C 70.0475 -3.12201 -0.223553 0
M  V30 670 C 70.5225 -4.57913 -0.0892295 0
M  V30 671 N 72.0135 -4.6297 -0.145808 0
M  V30 672 C 72.7485 -5.73362 -0.0658459 0
M  V30 673 N 72.2445 -6.92769 0.0659282 0
M  V30 674 N 74.0375 -5.6197 -0.12075 0
M  V30 675 H 66.1885 -1.89416 0.961014 0
M  V30 676 H 68.4515 -0.871862 0.372237 0
M  V30 677 H 68.1575 -3.42073 0.817254 0
M  V30 678 H 68.0315 -3.65892 -0.916692 0
M  V30 679 H 70.4185 -2.70349 -1.18301 0
M  V30 680 H 70.4995 -2.49323 0.571994 0
M  V30 681 H 70.1435 -5.00448 0.866867 0
M  V30 682 H 70.0735 -5.18786 -0.903802 0
M  V30 683 H 72.5645 -3.7709 -0.247286 0
M  V30 684 H 72.8775 -7.72707 0.119905 0
M  V30 685 H 71.2225 -6.94927 0.100885 0
M  V30 686 H 74.4135 -4.67572 -0.222187 0
M  V30 687 H 74.5865 -6.47977 -0.0549735 0
M  V30 688 N 67.9926 0.231505 -1.5589 0
M  V30 689 C 69.2206 0.974505 -1.82513 0
M  V30 690 C 69.6356 1.78344 -0.619591 0
M  V30 691 O 68.9926 1.77792 0.411848 0
M  V30 692 C 69.0436 1.90007 -3.07538 0
M  V30 693 O 68.7646 1.12385 -4.2344 0
M  V30 694 C 70.2656 2.75779 -3.47075 0
M  V30 695 H 67.4856 0.286065 -0.606966 0
M  V30 696 H 70.0296 0.249739 -2.02969 0
M  V30 697 H 68.1846 2.57891 -2.89086 0
M  V30 698 H 68.5986 1.75125 -4.944 0
M  V30 699 H 70.0726 3.36443 -4.37619 0
M  V30 700 H 70.5496 3.47672 -2.68367 0
M  V30 701 H 71.1556 2.13323 -3.67931 0
M  V30 702 N 69.4707 1.49531 0.497807 0
M  V30 703 C 70.4187 1.66926 1.61983 0
M  V30 704 C 71.4127 0.535167 1.60724 0
M  V30 705 O 72.6187 0.714896 1.65195 0
M  V30 706 H 68.9937 0.526415 0.537021 0
M  V30 707 H 70.9647 2.61098 1.44465 0
M  V30 708 C 69.7137 1.75602 3.00099 0
M  V30 709 H 69.0367 2.62244 3.01775 0
M  V30 710 H 70.4767 1.91807 3.78135 0
M  V30 711 C 68.9357 0.501543 3.33146 0
M  V30 712 O 69.4657 -0.371342 3.9998 0
M  V30 713 N 67.6717 0.363531 2.88317 0
M  V30 714 H 67.2187 1.07485 2.34104 0
M  V30 715 H 67.1767 -0.474728 3.10795 0
M  V30 716 N 70.9488 -0.749086 1.3866 0
M  V30 717 C 72.3648 -1.05276 1.19955 0
M  V30 718 C 72.5648 -2.01435 0.05134 0
M  V30 719 O 71.6208 -2.45232 -0.60147 0
M  V30 720 C 72.9338 -1.62853 2.52783 0
M  V30 721 C 74.4818 -1.75002 2.59506 0
M  V30 722 C 74.9568 -2.35991 3.92521 0
M  V30 723 N 76.4478 -2.43416 3.94085 0
M  V30 724 C 77.1828 -2.91511 4.9377 0
M  V30 725 N 76.6788 -3.39608 6.03853 0
M  V30 726 N 78.4718 -2.90592 4.81157 0
M  V30 727 H 70.6228 -0.111066 2.12109 0
M  V30 728 H 72.8858 -0.111901 0.941373 0
M  V30 729 H 72.5918 -0.99664 3.37283 0
M  V30 730 H 72.4658 -2.61854 2.715 0
M  V30 731 H 74.8528 -2.37317 1.75398 0
M  V30 732 H 74.9338 -0.74693 2.44652 0
M  V30 733 H 74.5778 -1.74308 4.77053 0
M  V30 734 H 74.5078 -3.3695 4.04688 0
M  V30 735 H 76.9988 -2.09405 3.14576 0
M  V30 736 H 77.3118 -3.74775 6.75843 0
M  V30 737 H 75.6568 -3.37653 6.07466 0
M  V30 738 H 78.8478 -2.52332 3.94267 0
M  V30 739 H 79.0208 -3.27762 5.58996 0
M  V30 740 N 72.4269 -1.23603 -0.977757 0
M  V30 741 C 73.6749 -1.06759 -1.71601 0
M  V30 742 C 73.9959 0.395929 -1.90938 0
M  V30 743 O 73.2659 1.28356 -1.47992 0
M  V30 744 H 71.8459 -0.392062 -0.635843 0
M  V30 745 H 74.5079 -1.55362 -1.1768 0
M  V30 746 H 73.6039 -1.55763 -2.70452 0
M  V30 747 N 73.905 1.17692 -1.04816 0
M  V30 748 C 75.133 1.91786 -0.776254 0
M  V30 749 C 75.548 1.76604 0.667577 0
M  V30 750 O 74.905 1.10067 1.45573 0
M  V30 751 C 74.956 3.42967 -1.14263 0
M  V30 752 O 74.677 3.57678 -2.52978 0
M  V30 753 C 76.178 4.34144 -0.896311 0
M  V30 754 H 73.398 0.608624 -0.282519 0
M  V30 755 H 75.942 1.49268 -1.39783 0
M  V30 756 H 74.097 3.83245 -0.565874 0
M  V30 757 H 74.511 4.51319 -2.67229 0
M  V30 758 H 75.985 5.38744 -1.20244 0
M  V30 759 H 76.462 4.38876 0.168636 0
M  V30 760 H 77.068 3.99574 -1.45672 0
M  V30 761 N 75.3831 0.828654 1.34056 0
M  V30 762 C 76.6291 0.42008 1.98402 0
M  V30 763 C 76.9621 -1.01564 1.65525 0
M  V30 764 O 76.2371 -1.70834 0.929831 0
M  V30 765 C 76.5201 0.62927 3.54559 0
M  V30 766 C 76.3731 2.11152 3.97159 0
M  V30 767 C 77.6921 0.0688756 4.40046 0
M  V30 768 H 74.8111 0.154104 0.720709 0
M  V30 769 H 77.4531 1.04228 1.5886 0
M  V30 770 H 75.6031 0.0996418 3.88372 0
M  V30 771 H 77.2751 2.70522 3.73651 0
M  V30 772 H 75.5181 2.59985 3.47261 0
M  V30 773 H 76.1891 2.20868 5.05887 0
M  V30 774 H 78.6651 0.521458 4.1282 0
M  V30 775 H 77.5411 0.245006 5.48353 0
M  V30 776 H 77.8021 -1.0266 4.30015 0
M  V30 777 N 76.8612 -1.46375 0.584142 0
M  V30 778 C 78.1092 -2.01978 0.0701287 0
M  V30 779 C 78.4302 -1.4579 -1.295 0
M  V30 780 O 77.7002 -0.64314 -1.85042 0
M  V30 781 H 76.2802 -0.746648 0.0229345 0
M  V30 782 H 78.9422 -1.79461 0.760245 0
M  V30 783 H 78.0382 -3.121 0.0022064 0
M  V30 784 N 78.3393 -0.321999 -1.54275 0
M  V30 785 C 79.5873 0.280489 -2.00144 0
M  V30 786 C 79.9083 1.52777 -1.21178 0
M  V30 787 O 79.1783 1.9338 -0.313187 0
M  V30 788 H 77.7583 0.106632 -0.73935 0
M  V30 789 H 80.4203 -0.438184 -1.8991 0
M  V30 790 H 79.5163 0.537972 -3.07428 0
M  V30 791 N 79.8174 1.5752 -0.0501392 0
M  V30 792 C 81.0474 1.96678 0.632573 0
M  V30 793 C 81.4554 0.926298 1.64974 0
M  V30 794 O 80.7984 -0.09802 1.83438 0
M  V30 795 C 80.8604 3.32068 1.37735 0
M  V30 796 C 80.5244 4.54076 0.516131 0
M  V30 797 C 81.5214 5.19445 -0.217357 0
M  V30 798 C 79.2064 5.00304 0.44736 0
M  V30 799 C 81.2004 6.29378 -1.00807 0
M  V30 800 C 78.8874 6.10114 -0.347038 0
M  V30 801 C 79.8854 6.74512 -1.07344 0
M  V30 802 O 79.5734 7.82211 -1.85477 0
M  V30 803 H 79.3054 0.652193 0.177821 0
M  V30 804 H 81.8594 2.05091 -0.112543 0
M  V30 805 H 80.0894 3.20206 2.16807 0
M  V30 806 H 81.7784 3.55981 1.95019 0
M  V30 807 H 82.5444 4.84689 -0.173688 0
M  V30 808 H 78.4234 4.49971 1.00235 0
M  V30 809 H 81.9674 6.79575 -1.57556 0
M  V30 810 H 77.8644 6.44307 -0.392349 0
M  V30 811 H 78.6324 7.98982 -1.77678 0
M  V30 812 N 81.2955 -0.223234 1.56011 0
M  V30 813 C 82.5425 -0.947875 1.78946 0
M  V30 814 C 82.8705 -1.844 0.618608 0
M  V30 815 O 82.1255 -1.91629 -0.397093 0
M  V30 816 C 82.4245 -1.81948 3.0762 0
M  V30 817 C 82.0905 -1.07672 4.37856 0
M  V30 818 C 80.7525 -0.871544 4.73242 0
M  V30 819 C 83.1045 -0.552081 5.18268 0
M  V30 820 C 80.4325 -0.129791 5.86556 0
M  V30 821 C 82.7845 0.17632 6.32354 0
M  V30 822 C 81.4485 0.39277 6.66343 0
M  V30 823 H 80.7185 -0.346852 0.654809 0
M  V30 824 H 83.3655 -0.216171 1.90276 0
M  V30 825 H 81.6705 -2.61899 2.91404 0
M  V30 826 H 83.3675 -2.38227 3.22566 0
M  V30 827 H 79.9575 -1.24662 4.1007 0
M  V30 828 H 84.1415 -0.698076 4.91366 0
M  V30 829 H 79.3975 0.048153 6.11381 0
M  V30 830 H 83.5715 0.590367 6.93893 0
M  V30 831 H 81.1985 0.969466 7.53993 0
M  V30 832 N 82.7736 -1.49793 -0.48987 0
M  V30 833 C 83.7036 -1.70201 -1.59856 0
M  V30 834 C 84.6846 -0.55076 -1.60937 0
M  V30 835 O 85.8696 -0.787841 -1.77501 0
M  V30 836 C 82.9996 -1.77882 -2.98287 0
M  V30 837 C 81.9536 -2.92907 -3.12073 0
M  V30 838 C 81.2796 -2.85712 -4.51965 0
M  V30 839 C 82.5796 -4.3369 -2.91051 0
M  V30 840 H 84.2736 -2.63025 -1.43032 0
M  V30 841 H 81.8196 -1.26574 -0.686664 0
M  V30 842 H 83.7726 -1.90744 -3.75759 0
M  V30 843 H 82.4966 -0.816653 -3.16225 0
M  V30 844 H 81.1556 -2.79665 -2.37029 0
M  V30 845 H 80.8036 -1.8738 -4.66795 0
M  V30 846 H 80.5036 -3.62921 -4.62128 0
M  V30 847 H 82.0276 -3.00598 -5.31482 0
M  V30 848 H 83.4416 -4.47555 -3.58284 0
M  V30 849 H 81.8386 -5.12205 -3.12675 0
M  V30 850 H 82.9086 -4.47362 -1.87071 0
M  V30 851 N 84.2517 0.741722 -1.39055 0
M  V30 852 C 85.2147 1.83733 -1.37021 0
M  V30 853 C 86.2147 1.58542 -0.268534 0
M  V30 854 O 87.4047 1.66067 -0.526076 0
M  V30 855 C 84.5367 3.2141 -1.13617 0
M  V30 856 H 85.7297 1.86941 -2.34506 0
M  V30 857 H 83.2827 0.944676 -1.24521 0
M  V30 858 H 84.0177 3.23865 -0.167863 0
M  V30 859 H 83.8027 3.4109 -1.93391 0
M  V30 860 H 85.2927 4.01477 -1.14918 0
M  V30 861 N 85.7298 1.2412 0.971189 0
M  V30 862 C 86.9778 1.07668 1.71032 0
M  V30 863 C 87.2988 -0.385797 1.91146 0
M  V30 864 O 86.5688 -1.27569 1.4867 0
M  V30 865 H 85.1488 0.395429 0.633755 0
M  V30 866 H 87.8108 1.55984 1.16855 0
M  V30 867 H 86.9068 1.57195 2.69622 0
M  V30 868 N 87.2079 -1.17134 1.05439 0
M  V30 869 C 88.6239 -1.39454 0.776201 0
M  V30 870 C 88.8239 -1.91454 -0.628307 0
M  V30 871 O 87.8799 -2.10777 -1.39031 0
M  V30 872 C 89.1929 -2.38305 1.83388 0
M  V30 873 C 90.7409 -2.52006 1.85639 0
M  V30 874 C 91.2159 -3.54133 2.90437 0
M  V30 875 N 92.7069 -3.61653 2.89415 0
M  V30 876 C 93.4419 -4.4044 3.67152 0
M  V30 877 N 92.9379 -5.22721 4.54681 0
M  V30 878 N 94.7309 -4.35337 3.55581 0
M  V30 879 H 86.8819 -0.817134 1.96053 0
M  V30 880 H 89.1449 -0.421626 0.849079 0
M  V30 881 H 88.8509 -2.07173 2.84204 0
M  V30 882 H 88.7249 -3.37841 1.67761 0
M  V30 883 H 91.1119 -2.82447 0.85486 0
M  V30 884 H 91.1929 -1.52537 2.05344 0
M  V30 885 H 90.8369 -3.24431 3.90777 0
M  V30 886 H 90.7669 -4.53313 2.67983 0
M  V30 887 H 93.2579 -3.02909 2.25952 0
M  V30 888 H 93.5709 -5.80027 5.10674 0
M  V30 889 H 91.9159 -5.22093 4.58741 0
M  V30 890 H 95.1069 -3.70112 2.86592 0
M  V30 891 H 95.2799 -4.96494 4.1641 0
M  V30 892 N 88.686 -0.835752 -1.33615 0
M  V30 893 C 89.911 -0.442389 -2.02627 0
M  V30 894 C 90.336 0.947735 -1.62479 0
M  V30 895 O 89.694 1.61907 -0.815826 0
M  V30 896 C 89.742 -0.567216 -3.56111 0
M  V30 897 O 88.846 0.407799 -4.10379 0
M  V30 898 H 88.187 -0.180278 -0.639059 0
M  V30 899 H 90.717 -1.12972 -1.70583 0
M  V30 900 H 90.727 -0.447708 -4.05536 0
M  V30 901 H 89.402 -1.58103 -3.84677 0
M  V30 902 H 87.979 0.246107 -3.72087 0
M  V30 903 N 90.1641 1.46063 -0.591896 0
M  V30 904 C 91.0971 2.27452 0.184617 0
M  V30 905 C 92.0751 1.36188 0.888351 0
M  V30 906 O 93.2591 1.65606 0.90039 0
M  V30 907 C 90.3861 3.14162 1.26571 0
M  V30 908 C 89.4321 4.21255 0.666814 0
M  V30 909 S 90.2651 5.33034 -0.513345 0
M  V30 910 C 91.4211 6.23311 0.56872 0
M  V30 911 H 91.6541 2.92963 -0.505939 0
M  V30 912 H 89.1871 1.49676 -0.379014 0
M  V30 913 H 91.1451 3.6468 1.88463 0
M  V30 914 H 89.8061 2.47946 1.92826 0
M  V30 915 H 88.9991 4.81788 1.47974 0
M  V30 916 H 88.6011 3.73797 0.123359 0
M  V30 917 H 90.8931 6.61758 1.45198 0
M  V30 918 H 91.8361 7.081 -7.23824e-05 0
M  V30 919 H 92.2441 5.57646 0.876996 0
M  V30 920 N 91.6422 0.330177 1.54103 0
M  V30 921 C 92.8882 -0.270806 2.00984 0
M  V30 922 C 93.2212 -1.51265 1.21789 0
M  V30 923 O 92.4962 -1.92142 0.301927 0
M  V30 924 C 92.7792 -0.598339 3.55094 0
M  V30 925 C 92.6322 0.654674 4.4501 0
M  V30 926 C 93.9512 -1.41334 4.16789 0
M  V30 927 H 91.0702 -0.0969531 0.730595 0
M  V30 928 H 93.7122 0.448066 1.84641 0
M  V30 929 H 91.8622 -1.21078 3.69151 0
M  V30 930 H 93.5342 1.29285 4.42813 0
M  V30 931 H 91.7772 1.28224 4.14416 0
M  V30 932 H 92.4482 0.380944 5.50684 0
M  V30 933 H 94.9242 -0.895597 4.06347 0
M  V30 934 H 93.8002 -1.61127 5.24718 0
M  V30 935 H 94.0612 -2.41146 3.70541 0
M  V30 936 N 93.1203 -1.57491 0.0584922 0
M  V30 937 C 94.3663 -1.94081 -0.608617 0
M  V30 938 C 94.7213 -0.937438 -1.68017 0
M  V30 939 O 94.0143 0.0423034 -1.91553 0
M  V30 940 C 94.2083 -3.3513 -1.24188 0
M  V30 941 C 94.0373 -4.49095 -0.233187 0
M  V30 942 C 92.8073 -5.04988 0.177439 0
M  V30 943 C 95.0053 -5.1162 0.524306 0
M  V30 944 N 92.9873 -6.02487 1.17823 0
M  V30 945 C 94.3583 -6.04493 1.37796 0
M  V30 946 C 96.4133 -4.94489 0.581822 0
M  V30 947 C 95.1163 -6.82075 2.28399 0
M  V30 948 C 97.1423 -5.72703 1.47531 0
M  V30 949 C 96.5043 -6.65214 2.31667 0
M  V30 950 H 92.6033 -0.75752 -0.194134 0
M  V30 951 H 95.1873 -1.94248 0.132533 0
M  V30 952 H 93.3583 -3.35726 -1.95302 0
M  V30 953 H 95.0903 -3.5899 -1.86838 0
M  V30 954 H 91.8453 -4.73165 -0.203004 0
M  V30 955 H 92.2693 -6.55933 1.67573 0
M  V30 956 H 96.9113 -4.22765 -0.054443 0
M  V30 957 H 94.6293 -7.53085 2.93067 0
M  V30 958 H 98.2153 -5.61472 1.52448 0
M  V30 959 H 97.0953 -7.24679 2.99683 0
M  V30 960 N 94.5984 0.214957 -1.56127 0
M  V30 961 C 95.8444 0.935325 -1.80619 0
M  V30 962 C 96.1994 1.81706 -0.632507 0
M  V30 963 O 95.4924 1.87931 0.373182 0
M  V30 964 C 95.6864 1.80314 -3.0858 0
M  V30 965 C 95.5154 1.00691 -4.38282 0
M  V30 966 C 94.2854 0.699211 -5.00439 0
M  V30 967 C 96.4834 0.369057 -5.12974 0
M  V30 968 N 94.4654 -0.117734 -6.13787 0
M  V30 969 C 95.8364 -0.310981 -6.1922 0
M  V30 970 C 97.8914 0.282759 -4.97096 0
M  V30 971 C 96.5944 -1.06907 -7.11311 0
M  V30 972 C 98.6204 -0.461881 -5.89594 0
M  V30 973 C 97.9824 -1.13044 -6.9527 0
M  V30 974 H 94.0814 0.322307 -0.71249 0
M  V30 975 H 96.6654 0.205649 -1.93611 0
M  V30 976 H 94.8364 2.50458 -2.96859 0
M  V30 977 H 96.5684 2.46148 -3.21237 0
M  V30 978 H 93.3234 1.01884 -4.62511 0
M  V30 979 H 93.7474 -0.515235 -6.75037 0
M  V30 980 H 98.3894 0.785292 -4.15443 0
M  V30 981 H 96.1074 -1.5831 -7.92442 0
M  V30 982 H 99.6934 -0.529746 -5.79383 0
M  V30 983 H 98.5734 -1.69742 -7.65609 0
M  V30 984 N 96.0765 1.50051 0.48192 0
M  V30 985 C 97.4875 1.5348 1.06305 0
M  V30 986 C 97.8385 0.331997 1.93371 0
M  V30 987 O 96.9635 -0.556256 2.09129 0
M  V30 988 C 97.5585 2.7813 1.93466 0
M  V30 989 C 96.1175 2.84275 2.46707 0
M  V30 990 C 95.2645 2.47637 1.24785 0
M  V30 991 H 98.2155 1.56472 0.264995 0
M  V30 992 H 98.2365 2.59372 2.78399 0
M  V30 993 H 97.7485 3.65654 1.30072 0
M  V30 994 H 95.8495 2.01077 3.13686 0
M  V30 995 H 95.9625 3.8691 2.82555 0
M  V30 996 H 94.3265 1.99835 1.57918 0
M  V30 997 H 95.1095 3.37457 0.630694 0
M  V30 998 N 97.5546 -0.734337 1.39446 0
M  V30 999 C 98.8006 -1.49613 1.36908 0
M  V30 1000 C 99.1336 -1.94169 -0.0347829 0
M  V30 1001 O 98.4086 -1.66833 -0.999847 0
M  V30 1002 C 98.6916 -2.73534 2.34203 0
M  V30 1003 C 98.5446 -2.34993 3.83534 0
M  V30 1004 C 99.8636 -3.75635 2.29317 0
M  V30 1005 H 96.9826 -0.542714 0.498629 0
M  V30 1006 H 99.6246 -0.839597 1.70443 0
M  V30 1007 H 97.7746 -3.29553 2.05736 0
M  V30 1008 H 99.4466 -1.84601 4.22753 0
M  V30 1009 H 97.6896 -1.67213 4.00278 0
M  V30 1010 H 98.3606 -3.23738 4.47099 0
M  V30 1011 H 100.837 -3.29203 2.54489 0
M  V30 1012 H 99.7126 -4.60008 2.99472 0
M  V30 1013 H 99.9736 -4.22603 1.29842 0
M  V30 1014 N 99.0327 -1.24633 -0.964593 0
M  V30 1015 C 100.281 -1.08573 -1.70459 0
M  V30 1016 C 100.602 0.375655 -1.91347 0
M  V30 1017 O 99.8717 1.26779 -1.49345 0
M  V30 1018 H 98.4517 -0.398784 -0.631649 0
M  V30 1019 H 101.114 -1.56601 -1.16026 0
M  V30 1020 H 100.21 -1.58623 -2.68785 0
M  V30 1021 N 100.511 1.16574 -1.06058 0
M  V30 1022 C 101.474 2.19085 -0.673392 0
M  V30 1023 C 102.474 1.5835 0.279648 0
M  V30 1024 O 103.664 1.74088 0.0623488 0
M  V30 1025 C 100.796 3.40899 0.00954234 0
M  V30 1026 H 101.989 2.54853 -1.58081 0
M  V30 1027 H 99.5418 1.30808 -0.855516 0
M  V30 1028 H 100.277 3.10684 0.929826 0
M  V30 1029 H 100.062 3.86233 -0.67573 0
M  V30 1030 H 101.552 4.1675 0.266245 0
M  V30 1031 N 101.989 0.842826 1.3317 0
M  V30 1032 C 103.214 0.453129 2.02389 0
M  V30 1033 C 103.639 -0.939105 1.6298 0
M  V30 1034 O 102.997 -1.61472 0.8244 0
M  V30 1035 C 103.045 0.586094 3.55805 0
M  V30 1036 O 102.149 -0.386029 4.10589 0
M  V30 1037 H 101.49 0.183664 0.638094 0
M  V30 1038 H 104.02 1.13875 1.69981 0
M  V30 1039 H 104.03 0.469209 4.05293 0
M  V30 1040 H 102.705 1.6014 3.83833 0
M  V30 1041 H 101.282 -0.226371 3.72212 0
M  V30 1042 N 103.467 -1.45747 0.599634 0
M  V30 1043 C 104.397 -2.33235 -0.111306 0
M  V30 1044 C 105.378 -1.46359 -0.866781 0
M  V30 1045 O 106.563 -1.75146 -0.838904 0
M  V30 1046 C 103.693 -3.28932 -1.11451 0
M  V30 1047 C 102.647 -4.25381 -0.472772 0
M  V30 1048 C 101.973 -5.1071 -1.58365 0
M  V30 1049 C 103.273 -5.18831 0.600948 0
M  V30 1050 H 104.967 -2.92927 0.61919 0
M  V30 1051 H 102.513 -1.40857 0.299215 0
M  V30 1052 H 104.466 -3.89002 -1.62036 0
M  V30 1053 H 103.19 -2.67381 -1.8755 0
M  V30 1054 H 101.849 -3.66598 0.0121472 0
M  V30 1055 H 101.497 -4.45533 -2.33473 0
M  V30 1056 H 101.197 -5.7604 -1.15982 0
M  V30 1057 H 102.721 -5.73647 -2.09194 0
M  V30 1058 H 104.135 -5.73019 0.179491 0
M  V30 1059 H 102.532 -5.92595 0.946076 0
M  V30 1060 H 103.602 -4.6174 1.48068 0
M  V30 1061 N 104.945 -0.338344 -1.53925 0
M  V30 1062 C 106.192 0.259758 -2.00827 0
M  V30 1063 C 106.52 1.50973 -1.22628 0
M  V30 1064 O 105.775 1.93379 -0.300509 0
M  V30 1065 C 106.074 0.62448 -3.51902 0
M  V30 1066 C 105.74 -0.528006 -4.47798 0
M  V30 1067 C 104.402 -0.844298 -4.73735 0
M  V30 1068 C 106.754 -1.30143 -5.0469 0
M  V30 1069 C 104.082 -1.93648 -5.53821 0
M  V30 1070 C 106.434 -2.38382 -5.85967 0
M  V30 1071 C 105.098 -2.70576 -6.10201 0
M  V30 1072 H 104.368 0.0950523 -0.734878 0
M  V30 1073 H 107.015 -0.465182 -1.85764 0
M  V30 1074 H 105.32 1.43006 -3.64769 0
M  V30 1075 H 107.017 1.09905 -3.85645 0
M  V30 1076 H 103.607 -0.271421 -4.2774 0
M  V30 1077 H 107.791 -1.07033 -4.84621 0
M  V30 1078 H 103.047 -2.19021 -5.70824 0
M  V30 1079 H 107.221 -2.98746 -6.29066 0
M  V30 1080 H 104.848 -3.55333 -6.72044 0
M  V30 1081 N 106.423 1.57458 -0.0668435 0
M  V30 1082 C 107.386 2.11323 0.887422 0
M  V30 1083 C 108.386 1.03618 1.22964 0
M  V30 1084 O 109.576 1.29626 1.16373 0
M  V30 1085 C 106.708 2.61048 2.19242 0
M  V30 1086 H 107.901 2.96942 0.420194 0
M  V30 1087 H 105.454 1.55239 0.181793 0
M  V30 1088 H 106.189 1.78868 2.70512 0
M  V30 1089 H 105.974 3.39769 1.95702 0
M  V30 1090 H 107.464 3.02814 2.87565 0
M  V30 1091 N 107.901 -0.206675 1.56239 0
M  V30 1092 C 109.126 -0.949474 1.8439 0
M  V30 1093 C 109.551 -1.76549 0.649016 0
M  V30 1094 O 108.909 -1.76782 -0.402231 0
M  V30 1095 C 108.957 -1.83078 3.10668 0
M  V30 1096 O 108.061 -2.9281 2.90407 0
M  V30 1097 H 107.402 -0.268033 0.607499 0
M  V30 1098 H 109.932 -0.215488 2.03462 0
M  V30 1099 H 109.942 -2.2377 3.41161 0
M  V30 1100 H 108.617 -1.23112 3.97261 0
M  V30 1101 H 107.194 -2.55956 2.71184 0
M  V30 1102 N 109.379 -1.50304 -0.473955 0
M  V30 1103 C 110.327 -1.69482 -1.59307 0
M  V30 1104 C 111.321 -0.560669 -1.59853 0
M  V30 1105 O 112.527 -0.741087 -1.64036 0
M  V30 1106 H 108.902 -0.534892 -0.528578 0
M  V30 1107 H 110.873 -2.63364 -1.40293 0
M  V30 1108 C 109.622 -1.80354 -2.97267 0
M  V30 1109 H 108.945 -2.67012 -2.97564 0
M  V30 1110 H 110.385 -1.97798 -3.75036 0
M  V30 1111 C 108.844 -0.55448 -3.32306 0
M  V30 1112 O 109.374 0.307661 -4.0052 0
M  V30 1113 N 107.58 -0.409354 -2.87702 0
M  V30 1114 H 107.127 -1.11196 -2.32364 0
M  V30 1115 H 107.085 0.425223 -3.11511 0
M  V30 1116 N 110.857 0.726932 -1.39834 0
M  V30 1117 C 112.106 1.48214 -1.36805 0
M  V30 1118 C 112.419 1.95576 0.0305291 0
M  V30 1119 O 113.625 2.7088 0.183417 0
M  V30 1120 C 112.081 2.67854 -2.40379 0
M  V30 1121 C 111.689 2.27408 -3.85992 0
M  V30 1122 C 113.433 3.45641 -2.46439 0
M  V30 1123 C 111.34 3.43819 -4.81189 0
M  V30 1124 H 110.27 0.556606 -0.508631 0
M  V30 1125 H 112.921 0.792216 -1.65518 0
M  V30 1126 H 111.303 3.3896 -2.04749 0
M  V30 1127 H 112.477 1.63795 -4.30706 0
M  V30 1128 H 110.792 1.62692 -3.83302 0
M  V30 1129 H 113.389 4.32244 -3.14753 0
M  V30 1130 H 113.732 3.88669 -1.49139 0
M  V30 1131 H 114.265 2.8157 -2.81004 0
M  V30 1132 H 111.004 3.05834 -5.79781 0
M  V30 1133 H 110.524 4.06385 -4.41148 0
M  V30 1134 H 112.203 4.10043 -5.00474 0
M  V30 1135 N 112.336 1.25143 0.95797 0
M  V30 1136 C 113.584 1.09476 1.69881 0
M  V30 1137 C 113.905 -0.365502 1.91544 0
M  V30 1138 O 113.175 -1.25985 1.50015 0
M  V30 1139 H 111.755 0.402128 0.629525 0
M  V30 1140 H 114.417 1.57214 1.15194 0
M  V30 1141 H 113.513 1.60046 2.6794 0
M  V30 1142 N 113.814 -1.1601 1.06675 0
M  V30 1143 C 115.039 -1.91068 0.806706 0
M  V30 1144 C 115.464 -1.77112 -0.633485 0
M  V30 1145 O 114.822 -1.09908 -1.44187 0
M  V30 1146 C 114.87 -3.39655 1.21106 0
M  V30 1147 O 113.974 -4.10893 0.352189 0
M  V30 1148 H 113.315 -0.595125 0.294486 0
M  V30 1149 H 115.845 -1.46955 1.42356 0
M  V30 1150 H 115.855 -3.90434 1.18428 0
M  V30 1151 H 114.53 -3.49132 2.26008 0
M  V30 1152 H 113.107 -3.70285 0.440868 0
M  V30 1153 N 115.292 -0.849877 -1.32721 0
M  V30 1154 C 116.54 -0.450032 -1.97026 0
M  V30 1155 C 116.861 0.996604 -1.67609 0
M  V30 1156 O 116.131 1.6958 -0.980786 0
M  V30 1157 H 114.711 -0.163426 -0.728904 0
M  V30 1158 H 117.373 -1.08526 -1.6189 0
M  V30 1159 H 116.469 -0.591146 -3.0645 0
M  V30 1160 N 116.77 1.45427 -0.607355 0
M  V30 1161 C 117.72 2.27612 0.133038 0
M  V30 1162 C 118.704 1.37307 0.838785 0
M  V30 1163 O 119.896 1.61299 0.728813 0
M  V30 1164 C 117.025 3.24173 1.12991 0
M  V30 1165 C 116.111 4.21965 0.425011 0
M  V30 1166 N 116.502 5.02982 -0.533217 0
M  V30 1167 C 114.8 4.40899 0.672593 0
M  V30 1168 C 115.501 5.73931 -0.947518 0
M  V30 1169 N 114.477 5.42819 -0.291321 0
M  V30 1170 H 118.279 2.87649 -0.602935 0
M  V30 1171 H 115.793 1.56576 -0.431006 0
M  V30 1172 H 117.79 3.81783 1.67473 0
M  V30 1173 H 116.45 2.65696 1.86644 0
M  V30 1174 H 117.461 5.09843 -0.90995 0
M  V30 1175 H 114.138 3.93547 1.39382 0
M  V30 1176 H 115.528 6.49037 -1.73782 0
M  V30 1177 N 118.248 0.346503 1.53744 0
M  V30 1178 C 119.495 -0.249104 2.00962 0
M  V30 1179 C 119.823 -1.5032 1.23426 0
M  V30 1180 O 119.078 -1.93217 0.310761 0
M  V30 1181 C 119.377 -0.605809 3.52228 0
M  V30 1182 C 119.043 0.551747 4.47512 0
M  V30 1183 C 117.705 0.86941 4.73281 0
M  V30 1184 C 120.057 1.32818 5.03993 0
M  V30 1185 C 117.385 1.96582 5.52786 0
M  V30 1186 C 119.737 2.41486 5.84694 0
M  V30 1187 C 118.401 2.73808 6.08757 0
M  V30 1188 H 117.671 -0.0911538 0.735372 0
M  V30 1189 H 120.318 0.475027 1.85515 0
M  V30 1190 H 118.623 -1.4107 3.65522 0
M  V30 1191 H 120.32 -1.07858 3.86222 0
M  V30 1192 H 116.91 0.294102 4.2759 0
M  V30 1193 H 121.094 1.09602 4.84047 0
M  V30 1194 H 116.35 2.22045 5.69654 0
M  V30 1195 H 120.524 3.02078 6.27473 0
M  V30 1196 H 118.151 3.58892 6.7015 0
M  V30 1197 N 119.726 -1.57421 0.075193 0
M  V30 1198 C 120.972 -1.93905 -0.594025 0
M  V30 1199 C 121.305 -0.955701 -1.69056 0
M  V30 1200 O 120.58 0.0145373 -1.94495 0
M  V30 1201 C 120.863 -3.40638 -1.1678 0
M  V30 1202 C 120.716 -4.49733 -0.0776792 0
M  V30 1203 C 122.035 -3.88259 -2.07228 0
M  V30 1204 H 119.154 -0.705105 -0.214466 0
M  V30 1205 H 121.796 -1.8947 0.141854 0
M  V30 1206 H 119.946 -3.44549 -1.79494 0
M  V30 1207 H 121.618 -4.57942 0.555573 0
M  V30 1208 H 119.861 -4.29751 0.591286 0
M  V30 1209 H 120.532 -5.49549 -0.519603 0
M  V30 1210 H 123.008 -3.86376 -1.54445 0
M  V30 1211 H 121.884 -4.91533 -2.44308 0
M  V30 1212 H 122.145 -3.26396 -2.98191 0
M  V30 1213 N 121.204 0.198386 -1.56346 0
M  V30 1214 C 122.452 0.91747 -1.80075 0
M  V30 1215 C 122.773 1.83929 -0.647692 0
M  V30 1216 O 122.043 1.93029 0.334166 0
M  V30 1217 H 120.623 0.341774 -0.664228 0
M  V30 1218 H 123.285 0.204684 -1.93822 0
M  V30 1219 H 122.381 1.51055 -2.7311 0
M  V30 1220 N 122.682 1.50554 0.465978 0
M  V30 1221 C 123.612 1.72722 1.57128 0
M  V30 1222 C 124.593 0.576294 1.6004 0
M  V30 1223 O 125.778 0.81598 1.76225 0
M  V30 1224 C 122.908 1.82605 2.95419 0
M  V30 1225 C 121.862 2.97835 3.07373 0
M  V30 1226 C 121.188 2.92867 4.47363 0
M  V30 1227 C 122.488 4.38265 2.84114 0
M  V30 1228 H 124.182 2.65267 1.38829 0
M  V30 1229 H 121.728 1.2765 0.666441 0
M  V30 1230 H 123.681 1.96698 3.72677 0
M  V30 1231 H 122.405 0.866858 3.14886 0
M  V30 1232 H 121.064 2.83401 2.3255 0
M  V30 1233 H 120.712 1.94783 4.63755 0
M  V30 1234 H 120.412 3.70227 4.56296 0
M  V30 1235 H 121.936 3.09015 5.26633 0
M  V30 1236 H 123.35 4.53198 3.51118 0
M  V30 1237 H 121.747 5.17115 3.04487 0
M  V30 1238 H 122.817 4.50281 1.7993 0
M  V30 1239 N 124.16 -0.719506 1.40217 0
M  V30 1240 C 125.123 -1.8153 1.39927 0
M  V30 1241 C 126.123 -1.58095 0.293723 0
M  V30 1242 O 127.313 -1.65209 0.552429 0
M  V30 1243 C 124.445 -3.19561 1.18716 0
M  V30 1244 H 125.638 -1.83186 2.37451 0
M  V30 1245 H 123.191 -0.924746 1.26008 0
M  V30 1246 H 123.926 -3.23557 0.219366 0
M  V30 1247 H 123.711 -3.3797 1.98793 0
M  V30 1248 H 125.201 -3.99598 1.21291 0
M  V30 1249 N 125.638 -1.25649 -0.95132 0
M  V30 1250 C 126.886 -1.10375 -1.69298 0
M  V30 1251 C 127.207 0.355339 -1.91735 0
M  V30 1252 O 126.477 1.25188 -1.50681 0
M  V30 1253 H 125.057 -0.405461 -0.627384 0
M  V30 1254 H 127.719 -1.57823 -1.14358 0
M  V30 1255 H 126.815 -1.61465 -2.67087 0
M  V30 1256 N 127.117 1.15442 -1.07289 0
M  V30 1257 C 128.345 1.90096 -0.81676 0
M  V30 1258 C 128.76 1.7798 0.629966 0
M  V30 1259 O 128.117 1.1313 1.43206 0
M  V30 1260 C 128.168 3.40466 -1.21512 0
M  V30 1261 O 127.889 3.52232 -2.60508 0
M  V30 1262 C 129.39 4.32145 -0.988198 0
M  V30 1263 H 126.61 0.602495 -0.295366 0
M  V30 1264 H 129.154 1.4627 -1.42918 0
M  V30 1265 H 127.309 3.81958 -0.647039 0
M  V30 1266 H 127.723 4.45549 -2.76742 0
M  V30 1267 H 129.197 5.36072 -1.31645 0
M  V30 1268 H 129.674 4.39135 0.0755063 0
M  V30 1269 H 130.28 3.96395 -1.54115 0
M  V30 1270 N 128.595 0.856903 1.32268 0
M  V30 1271 C 129.843 0.460474 1.96784 0
M  V30 1272 C 130.164 -0.987701 1.68135 0
M  V30 1273 O 129.434 -1.69058 0.989765 0
M  V30 1274 H 128.014 0.167289 0.728027 0
M  V30 1275 H 130.676 1.09383 1.61312 0
M  V30 1276 H 129.772 0.60739 3.06133 0
M  V30 1277 N 130.073 -1.45103 0.615059 0
M  V30 1278 C 131.036 -2.29025 -0.0895485 0
M  V30 1279 C 132.036 -1.40174 -0.787906 0
M  V30 1280 O 133.226 -1.62217 -0.634933 0
M  V30 1281 C 130.358 -3.21376 -1.13711 0
M  V30 1282 H 131.551 -2.92807 0.648382 0
M  V30 1283 H 129.104 -1.51749 0.374444 0
M  V30 1284 H 129.839 -2.6241 -1.90556 0
M  V30 1285 H 129.624 -3.86834 -0.640475 0
M  V30 1286 H 131.114 -3.84459 -1.63036 0
M  V30 1287 N 131.551 -0.354651 -1.53558 0
M  V30 1288 C 132.514 0.484566 -2.24019 0
M  V30 1289 C 133.514 1.01861 -1.24422 0
M  V30 1290 O 134.704 0.906097 -1.4878 0
M  V30 1291 C 131.836 1.67615 -2.96847 0
M  V30 1292 H 133.029 -0.131843 -2.9961 0
M  V30 1293 H 130.582 -0.106165 -1.55939 0
M  V30 1294 H 131.317 2.33095 -2.25471 0
M  V30 1295 H 131.102 1.30029 -3.69912 0
M  V30 1296 H 132.592 2.27114 -3.50441 0
M  V30 1297 N 133.029 1.57378 -0.0835403 0
M  V30 1298 C 134.254 1.98682 0.594987 0
M  V30 1299 C 134.679 0.961969 1.61641 0
M  V30 1300 O 134.037 -0.0709989 1.81161 0
M  V30 1301 C 134.085 3.38988 1.2296 0
M  V30 1302 O 133.189 3.39208 2.34546 0
M  V30 1303 H 132.53 0.646368 0.152002 0
M  V30 1304 H 135.06 2.03961 -0.161533 0
M  V30 1305 H 135.07 3.76431 1.57366 0
M  V30 1306 H 133.745 4.13107 0.481228 0
M  V30 1307 H 132.322 3.13548 2.01846 0
M  V30 1308 N 134.507 -0.190092 1.56449 0
M  V30 1309 C 135.755 -0.907908 1.80559 0
M  V30 1310 C 136.076 -1.83583 0.657438 0
M  V30 1311 O 135.346 -1.93203 -0.323924 0
M  V30 1312 H 133.926 -0.338247 0.666032 0
M  V30 1313 H 136.588 -0.194403 1.93928 0
M  V30 1314 H 135.684 -1.49604 2.73907 0
M  V30 1315 N 135.985 -1.50799 -0.457987 0
M  V30 1316 C 136.915 -1.73553 -1.5621 0
M  V30 1317 C 137.896 -0.584774 -1.59732 0
M  V30 1318 O 139.081 -0.825314 -1.7579 0
M  V30 1319 C 136.211 -1.84169 -2.94447 0
M  V30 1320 C 135.165 -2.99461 -3.0579 0
M  V30 1321 C 134.491 -2.95235 -4.45803 0
M  V30 1322 C 135.791 -4.39766 -2.81786 0
M  V30 1323 H 137.485 -2.66 -1.37421 0
M  V30 1324 H 135.031 -1.28002 -0.659662 0
M  V30 1325 H 136.984 -1.98672 -3.71628 0
M  V30 1326 H 135.708 -0.883545 -3.14422 0
M  V30 1327 H 134.367 -2.8463 -2.31044 0
M  V30 1328 H 134.015 -1.97239 -4.62715 0
M  V30 1329 H 133.715 -3.72642 -4.54326 0
M  V30 1330 H 135.239 -3.11803 -5.24987 0
M  V30 1331 H 136.653 -4.55054 -3.4871 0
M  V30 1332 H 135.05 -5.18722 -3.0174 0
M  V30 1333 H 136.12 -4.51229 -1.7754 0
M  V30 1334 N 137.463 0.71206 -1.40597 0
M  V30 1335 C 138.426 1.80785 -1.40888 0
M  V30 1336 C 139.426 1.57937 -0.302103 0
M  V30 1337 O 140.616 1.64913 -0.561182 0
M  V30 1338 C 137.748 3.18927 -1.20409 0
M  V30 1339 H 138.941 1.81924 -2.38419 0
M  V30 1340 H 136.494 0.91805 -1.26497 0
M  V30 1341 H 137.229 3.23436 -0.236522 0
M  V30 1342 H 137.014 3.36911 -2.00582 0
M  V30 1343 H 138.504 3.98949 -1.23408 0
M  V30 1344 N 138.941 1.26152 0.944643 0
M  V30 1345 C 140.187 1.11657 1.69294 0
M  V30 1346 C 140.52 -0.339926 1.91202 0
M  V30 1347 O 139.795 -1.24994 1.49019 0
M  V30 1348 C 140.078 1.88236 3.06984 0
M  V30 1349 C 139.931 3.41772 2.92424 0
M  V30 1350 C 141.25 1.67343 4.07043 0
M  V30 1351 H 138.369 0.407004 0.614424 0
M  V30 1352 H 141.011 1.55106 1.09737 0
M  V30 1353 H 139.161 1.51308 3.57824 0
M  V30 1354 H 140.833 3.88433 2.48832 0
M  V30 1355 H 139.076 3.68974 2.28124 0
M  V30 1356 H 139.747 3.90579 3.90067 0
M  V30 1357 H 142.223 1.99509 3.65151 0
M  V30 1358 H 141.099 2.23346 5.01406 0
M  V30 1359 H 141.36 0.617158 4.37771 0
M  V30 1360 N 140.419 -1.14872 1.07899 0
M  V30 1361 C 141.382 -2.17986 0.708161 0
M  V30 1362 C 142.382 -1.58775 -0.25442 0
M  V30 1363 O 143.572 -1.74166 -0.034645 0
M  V30 1364 C 140.704 -3.40871 0.0446929 0
M  V30 1365 H 141.897 -2.52306 1.62116 0
M  V30 1366 H 139.45 -1.2943 0.876218 0
M  V30 1367 H 140.185 -3.12124 -0.880281 0
M  V30 1368 H 139.97 -3.8511 0.737091 0
M  V30 1369 H 141.46 -4.17121 -0.19991 0
M  V30 1370 N 141.898 -0.863906 -1.31812 0
M  V30 1371 C 143.146 -0.470904 -1.96537 0
M  V30 1372 C 143.467 0.978771 -1.68657 0
M  V30 1373 O 142.737 1.6853 -0.998717 0
M  V30 1374 H 141.317 -0.171148 -0.72713 0
M  V30 1375 H 143.979 -1.10236 -1.60729 0
M  V30 1376 H 143.075 -0.623616 -3.05806 0
M  V30 1377 N 143.376 1.44774 -0.622745 0
M  V30 1378 C 144.623 2.02121 -0.1239 0
M  V30 1379 C 144.951 1.48915 1.25118 0
M  V30 1380 O 144.206 0.660045 1.84233 0
M  V30 1381 C 144.505 3.57364 -0.0508323 0
M  V30 1382 C 144.171 4.29787 -1.36358 0
M  V30 1383 C 142.833 4.4929 -1.72314 0
M  V30 1384 C 145.185 4.71062 -2.23048 0
M  V30 1385 C 142.513 5.07325 -2.94682 0
M  V30 1386 C 144.865 5.30452 -3.44679 0
M  V30 1387 C 143.529 5.48175 -3.80868 0
M  V30 1388 H 142.799 0.739612 -0.0453381 0
M  V30 1389 H 145.446 1.73648 -0.807389 0
M  V30 1390 H 143.751 3.85202 0.715991 0
M  V30 1391 H 145.448 3.99456 0.351533 0
M  V30 1392 H 142.038 4.14932 -1.07375 0
M  V30 1393 H 146.222 4.55715 -1.96565 0
M  V30 1394 H 141.478 5.19235 -3.22809 0
M  V30 1395 H 145.652 5.61385 -4.12092 0
M  V30 1396 H 143.279 5.92912 -4.75773 0
M  V30 1397 N 144.854 0.36279 1.53368 0
M  V30 1398 C 145.764 -0.492994 2.29362 0
M  V30 1399 C 146.78 -1.09507 1.35219 0
M  V30 1400 O 147.956 -1.10662 1.68273 0
M  V30 1401 C 145.021 -1.61855 3.066 0
M  V30 1402 C 144.082 -1.04429 4.16405 0
M  V30 1403 C 143.315 -2.11621 4.89951 0
M  V30 1404 O 143.538 -3.32684 4.63333 0
M  V30 1405 O 142.472 -1.74835 5.75948 0
M  V30 1406 H 146.298 0.125331 3.03441 0
M  V30 1407 H 143.883 0.127253 1.48857 0
M  V30 1408 H 145.765 -2.27302 3.54841 0
M  V30 1409 H 144.44 -2.22233 2.3536 0
M  V30 1410 H 143.347 -0.353819 3.72423 0
M  V30 1411 H 144.68 -0.485113 4.89804 0
M  V30 1412 N 146.332 -1.57332 0.0918853 0
M  V30 1413 C 147.578 -1.95328 -0.567313 0
M  V30 1414 C 147.933 -0.972866 -1.65991 0
M  V30 1415 O 147.226 0.00166256 -1.916 0
M  V30 1416 C 147.42 -3.37689 -1.17051 0
M  V30 1417 C 147.249 -4.49489 -0.137875 0
M  V30 1418 C 146.019 -5.04498 0.284515 0
M  V30 1419 C 148.217 -5.10393 0.63271 0
M  V30 1420 N 146.199 -5.99853 1.30576 0
M  V30 1421 C 147.57 -6.01435 1.50587 0
M  V30 1422 C 149.625 -4.93143 0.68658 0
M  V30 1423 C 148.328 -6.77077 2.42815 0
M  V30 1424 C 150.354 -5.69445 1.59645 0
M  V30 1425 C 149.716 -6.60151 2.45725 0
M  V30 1426 H 145.815 -0.761467 -0.178023 0
M  V30 1427 H 148.399 -1.93924 0.173706 0
M  V30 1428 H 146.57 -3.39793 -1.88136 0
M  V30 1429 H 148.302 -3.62872 -1.79181 0
M  V30 1430 H 145.057 -4.73489 -0.102593 0
M  V30 1431 H 145.481 -6.52231 1.81449 0
M  V30 1432 H 150.123 -4.22785 0.035244 0
M  V30 1433 H 147.841 -7.46699 3.08975 0
M  V30 1434 H 151.427 -5.58112 1.64323 0
M  V30 1435 H 150.307 -7.18159 3.14987 0
M  V30 1436 N 147.81 0.181792 -1.56548 0
M  V30 1437 C 148.758 1.24461 -1.965 0
M  V30 1438 C 149.752 1.464 -0.852261 0
M  V30 1439 O 150.958 1.47103 -1.03733 0
M  V30 1440 H 147.333 0.418138 -0.625031 0
M  V30 1441 H 149.304 0.880714 -2.85107 0
M  V30 1442 C 148.053 2.57891 -2.33212 0
M  V30 1443 H 147.376 2.41829 -3.18369 0
M  V30 1444 H 148.816 3.3097 -2.65019 0
M  V30 1445 C 147.275 3.15871 -1.17163 0
M  V30 1446 O 147.805 3.9913 -0.453708 0
M  V30 1447 N 146.011 2.74808 -0.944936 0
M  V30 1448 H 145.558 2.07205 -1.53049 0
M  V30 1449 H 145.516 3.13939 -0.170286 0
M  V30 1450 N 149.288 1.51039 0.449983 0
M  V30 1451 C 150.251 1.70863 1.5277 0
M  V30 1452 C 151.251 0.578846 1.5002 0
M  V30 1453 O 152.441 0.846213 1.52266 0
M  V30 1454 C 149.573 1.75341 2.9235 0
M  V30 1455 H 150.766 2.67034 1.36502 0
M  V30 1456 H 148.319 1.40838 0.677812 0
M  V30 1457 H 149.054 0.809383 3.14037 0
M  V30 1458 H 148.839 2.57436 2.95752 0
M  V30 1459 H 150.329 1.92559 3.70555 0
M  V30 1460 N 150.766 -0.704594 1.40972 0
M  V30 1461 C 151.696 -1.83124 1.44872 0
M  V30 1462 C 152.677 -1.67281 0.30838 0
M  V30 1463 O 153.862 -1.87149 0.518556 0
M  V30 1464 C 150.992 -3.21181 1.32136 0
M  V30 1465 C 149.946 -3.51714 2.43888 0
M  V30 1466 C 149.272 -4.89032 2.16222 0
M  V30 1467 C 150.572 -3.516 3.86232 0
M  V30 1468 H 152.266 -1.80117 2.39161 0
M  V30 1469 H 149.812 -0.865145 1.15114 0
M  V30 1470 H 151.765 -3.99702 1.33479 0
M  V30 1471 H 150.489 -3.24791 0.343279 0
M  V30 1472 H 149.148 -2.75539 2.41813 0
M  V30 1473 H 148.796 -4.89256 1.16778 0
M  V30 1474 H 148.496 -5.10426 2.911 0
M  V30 1475 H 150.02 -5.69873 2.19265 0
M  V30 1476 H 151.434 -4.2014 3.9007 0
M  V30 1477 H 149.831 -3.84523 4.60719 0
M  V30 1478 H 150.901 -2.50757 4.15029 0
M  V30 1479 N 152.244 -1.26651 -0.937939 0
M  V30 1480 C 153.491 -1.12387 -1.6845 0
M  V30 1481 C 153.819 0.332208 -1.91642 0
M  V30 1482 O 153.074 1.2602 -1.49725 0
M  V30 1483 C 153.373 -1.84168 -3.06295 0
M  V30 1484 C 153.039 -3.34056 -3.02849 0
M  V30 1485 C 151.701 -3.74942 -3.01616 0
M  V30 1486 C 154.053 -4.29741 -2.9491 0
M  V30 1487 C 151.381 -5.09894 -2.90215 0
M  V30 1488 C 153.733 -5.64738 -2.8505 0
M  V30 1489 C 152.397 -6.0493 -2.82162 0
M  V30 1490 H 151.667 -0.411252 -0.616403 0
M  V30 1491 H 154.314 -1.57134 -1.09459 0
M  V30 1492 H 152.619 -1.319 -3.6893 0
M  V30 1493 H 154.316 -1.70569 -3.62915 0
M  V30 1494 H 150.906 -3.01534 -3.0459 0
M  V30 1495 H 155.09 -3.99133 -2.94969 0
M  V30 1496 H 150.346 -5.40194 -2.86358 0
M  V30 1497 H 154.52 -6.38561 -2.77872 0
M  V30 1498 H 152.147 -7.09457 -2.73084 0
M  V30 1499 N 153.722 1.14298 -1.08507 0
M  V30 1500 C 154.968 1.85633 -0.816581 0
M  V30 1501 C 155.301 1.82784 0.656021 0
M  V30 1502 O 154.576 1.25926 1.48233 0
M  V30 1503 C 154.859 3.34223 -1.34041 0
M  V30 1504 C 154.712 3.45639 -2.87843 0
M  V30 1505 C 156.031 4.29356 -0.9665 0
M  V30 1506 H 153.15 0.67402 -0.298104 0
M  V30 1507 H 155.792 1.34214 -1.34487 0
M  V30 1508 H 153.942 3.78144 -0.89104 0
M  V30 1509 H 155.614 3.10498 -3.41158 0
M  V30 1510 H 153.857 2.86817 -3.25451 0
M  V30 1511 H 154.528 4.50089 -3.19569 0
M  V30 1512 H 157.004 3.93457 -1.35391 0
M  V30 1513 H 155.88 5.3178 -1.3602 0
M  V30 1514 H 156.141 4.41919 0.126362 0
M  V30 1515 N 155.201 0.870884 1.31352 0
M  V30 1516 C 156.447 0.482987 1.96965 0
M  V30 1517 C 156.78 -0.962462 1.68672 0
M  V30 1518 O 156.055 -1.6779 0.98371 0
M  V30 1519 C 156.338 0.741752 3.52378 0
M  V30 1520 C 156.191 2.2368 3.9024 0
M  V30 1521 C 157.51 0.208838 4.39604 0
M  V30 1522 H 154.629 0.176955 0.715441 0
M  V30 1523 H 157.271 1.09229 1.55464 0
M  V30 1524 H 155.421 0.223149 3.87859 0
M  V30 1525 H 157.093 2.82273 3.64856 0
M  V30 1526 H 155.336 2.70901 3.38814 0
M  V30 1527 H 156.007 2.3685 4.98604 0
M  V30 1528 H 158.483 0.652529 4.10952 0
M  V30 1529 H 157.359 0.419336 5.47296 0
M  V30 1530 H 157.62 -0.889275 4.33064 0
M  V30 1531 N 156.679 -1.44442 0.630414 0
M  V30 1532 C 157.609 -2.33418 -0.0618083 0
M  V30 1533 C 158.59 -1.48165 -0.835541 0
M  V30 1534 O 159.775 -1.76886 -0.801564 0
M  V30 1535 C 156.905 -3.31222 -1.04449 0
M  V30 1536 C 155.859 -4.26288 -0.382436 0
M  V30 1537 C 155.185 -5.13954 -1.47497 0
M  V30 1538 C 156.485 -5.1744 0.710865 0
M  V30 1539 H 158.179 -2.91548 0.681184 0
M  V30 1540 H 155.725 -1.40191 0.329026 0
M  V30 1541 H 157.678 -3.92351 -1.53748 0
M  V30 1542 H 156.402 -2.71299 -1.81836 0
M  V30 1543 H 155.061 -3.6649 0.0899054 0
M  V30 1544 H 154.709 -4.50385 -2.2397 0
M  V30 1545 H 154.409 -5.7837 -1.03737 0
M  V30 1546 H 155.933 -5.77955 -1.96979 0
M  V30 1547 H 157.347 -5.72509 0.300996 0
M  V30 1548 H 155.744 -5.90455 1.07156 0
M  V30 1549 H 156.814 -4.58496 1.57829 0
M  V30 1550 N 158.157 -0.370918 -1.53173 0
M  V30 1551 C 159.087 0.464847 -2.28826 0
M  V30 1552 C 160.068 1.07936 -1.31468 0
M  V30 1553 O 161.253 1.0956 -1.60344 0
M  V30 1554 C 158.383 1.60196 -3.08147 0
M  V30 1555 C 157.337 1.11443 -4.13237 0
M  V30 1556 C 156.663 2.3422 -4.80672 0
M  V30 1557 C 157.963 0.195384 -5.21934 0
M  V30 1558 H 159.657 -0.166329 -2.98938 0
M  V30 1559 H 157.203 -0.0814359 -1.4377 0
M  V30 1560 H 159.156 2.19332 -3.59822 0
M  V30 1561 H 157.88 2.26045 -2.35735 0
M  V30 1562 H 156.539 0.545727 -3.62515 0
M  V30 1563 H 156.187 2.98537 -4.04827 0
M  V30 1564 H 155.887 2.02269 -5.51689 0
M  V30 1565 H 157.411 2.94032 -5.35143 0
M  V30 1566 H 158.825 0.694375 -5.69079 0
M  V30 1567 H 157.222 -0.0335027 -6.00091 0
M  V30 1568 H 158.292 -0.760961 -4.78892 0
M  V30 1569 N 159.635 1.57281 -0.100228 0
M  V30 1570 C 160.565 2.17328 0.853857 0
M  V30 1571 C 161.546 1.10804 1.2906 0
M  V30 1572 O 162.731 1.38963 1.35657 0
M  V30 1573 C 159.861 2.75772 2.11109 0
M  V30 1574 C 158.815 3.87713 1.81279 0
M  V30 1575 C 158.141 4.32882 3.13874 0
M  V30 1576 C 159.441 5.10677 1.09574 0
M  V30 1577 H 161.135 2.97305 0.353545 0
M  V30 1578 H 158.681 1.43009 0.168612 0
M  V30 1579 H 160.634 3.16433 2.78296 0
M  V30 1580 H 159.358 1.93057 2.63432 0
M  V30 1581 H 158.017 3.476 1.16489 0
M  V30 1582 H 157.665 3.47051 3.64095 0
M  V30 1583 H 157.365 5.08358 2.94696 0
M  V30 1584 H 158.889 4.7618 3.82211 0
M  V30 1585 H 160.303 5.48474 1.66879 0
M  V30 1586 H 158.7 5.91615 1.00557 0
M  V30 1587 H 159.77 4.84835 0.0793299 0
M  V30 1588 N 161.113 -0.173488 1.56642 0
M  V30 1589 C 162.361 -0.888706 1.81512 0
M  V30 1590 C 162.682 -1.82875 0.676872 0
M  V30 1591 O 161.952 -1.93536 -0.303414 0
M  V30 1592 H 160.532 -0.331164 0.669582 0
M  V30 1593 H 163.194 -0.173823 1.94123 0
M  V30 1594 H 162.29 -1.46691 2.75478 0
M  V30 1595 N 162.591 -1.51276 -0.441967 0
M  V30 1596 C 163.837 -1.6492 -1.1905 0
M  V30 1597 C 164.192 -0.358731 -1.89026 0
M  V30 1598 O 163.485 0.645193 -1.8041 0
M  V30 1599 C 163.679 -2.78746 -2.23686 0
M  V30 1600 C 163.508 -4.18737 -1.63979 0
M  V30 1601 C 162.278 -4.84739 -1.42674 0
M  V30 1602 C 164.476 -5.01988 -1.11858 0
M  V30 1603 N 162.458 -6.08858 -0.785159 0
M  V30 1604 C 163.829 -6.17071 -0.601989 0
M  V30 1605 C 165.884 -4.87551 -1.0099 0
M  V30 1606 C 164.587 -7.19299 0.0126012 0
M  V30 1607 C 166.613 -5.89983 -0.409206 0
M  V30 1608 C 165.975 -7.04333 0.0968651 0
M  V30 1609 H 162.074 -0.657416 -0.423471 0
M  V30 1610 H 164.658 -1.8849 -0.48782 0
M  V30 1611 H 162.829 -2.56848 -2.91348 0
M  V30 1612 H 164.561 -2.81595 -2.90666 0
M  V30 1613 H 161.316 -4.42528 -1.68719 0
M  V30 1614 H 161.74 -6.75282 -0.481942 0
M  V30 1615 H 166.382 -3.99401 -1.38703 0
M  V30 1616 H 164.1 -8.071 0.401879 0
M  V30 1617 H 167.686 -5.8088 -0.327079 0
M  V30 1618 H 166.566 -7.82238 0.554373 0
M  V30 1619 N 164.069 0.697108 -1.41344 0
M  V30 1620 C 164.999 1.82353 -1.45841 0
M  V30 1621 C 165.98 1.67115 -0.317247 0
M  V30 1622 O 167.165 1.86871 -0.528474 0
M  V30 1623 C 164.295 3.20476 -1.33838 0
M  V30 1624 C 163.249 3.50415 -2.4575 0
M  V30 1625 C 162.575 4.87878 -2.18813 0
M  V30 1626 C 163.875 3.49546 -3.88091 0
M  V30 1627 H 165.569 1.78846 -2.40113 0
M  V30 1628 H 163.115 0.859028 -1.15571 0
M  V30 1629 H 165.068 3.98988 -1.35596 0
M  V30 1630 H 163.792 3.24604 -0.360498 0
M  V30 1631 H 162.451 2.74253 -2.43271 0
M  V30 1632 H 162.099 4.8863 -1.19371 0
M  V30 1633 H 161.799 5.08875 -2.93803 0
M  V30 1634 H 163.323 5.68702 -2.22284 0
M  V30 1635 H 164.737 4.18066 -3.92293 0
M  V30 1636 H 163.134 3.82075 -4.62751 0
M  V30 1637 H 164.204 2.48552 -4.16353 0
M  V30 1638 N 165.547 1.27147 0.931209 0
M  V30 1639 C 166.794 1.13278 1.67852 0
M  V30 1640 C 167.122 -0.32204 1.91815 0
M  V30 1641 O 166.377 -1.25224 1.50391 0
M  V30 1642 C 166.676 1.8579 3.05314 0
M  V30 1643 C 166.342 3.35657 3.01073 0
M  V30 1644 C 165.004 3.76536 2.99623 0
M  V30 1645 C 167.356 4.31299 2.92627 0
M  V30 1646 C 164.684 5.11426 2.87506 0
M  V30 1647 C 167.036 5.66242 2.82051 0
M  V30 1648 C 165.7 6.06418 2.7895 0
M  V30 1649 H 164.97 0.414515 0.614214 0
M  V30 1650 H 167.617 1.57712 1.08624 0
M  V30 1651 H 165.922 1.33854 3.68226 0
M  V30 1652 H 167.619 1.72491 3.62005 0
M  V30 1653 H 164.209 3.03146 3.02986 0
M  V30 1654 H 168.393 4.00692 2.92848 0
M  V30 1655 H 163.649 5.41705 2.83489 0
M  V30 1656 H 167.823 6.40026 2.74481 0
M  V30 1657 H 165.45 7.10895 2.69318 0
M  V30 1658 N 167.025 -1.13721 1.09112 0
M  V30 1659 C 167.988 -2.17222 0.731241 0
M  V30 1660 C 168.988 -1.59035 -0.237566 0
M  V30 1661 O 170.178 -1.74192 -0.0161704 0
M  V30 1662 C 167.31 -3.40804 0.0808443 0
M  V30 1663 H 168.503 -2.50573 1.64783 0
M  V30 1664 H 166.056 -1.28493 0.889897 0
M  V30 1665 H 166.791 -3.1304 -0.847127 0
M  V30 1666 H 166.576 -3.84306 0.777896 0
M  V30 1667 H 168.066 -4.1731 -0.155657 0
M  V30 1668 N 168.503 -0.877838 -1.30888 0
M  V30 1669 C 169.914 -0.544193 -1.78593 0
M  V30 1670 C 170.265 0.939301 -1.72254 0
M  V30 1671 O 169.39 1.7337 -1.29505 0
M  V30 1672 C 169.985 -0.98105 -3.24285 0
M  V30 1673 C 168.544 -0.698935 -3.69854 0
M  V30 1674 C 167.691 -1.168 -2.51502 0
M  V30 1675 H 170.642 -1.06278 -1.17859 0
M  V30 1676 H 170.663 -0.307009 -3.79259 0
M  V30 1677 H 170.175 -2.06079 -3.28866 0
M  V30 1678 H 168.276 0.369112 -3.70767 0
M  V30 1679 H 168.389 -1.28148 -4.61644 0
M  V30 1680 H 166.753 -0.587535 -2.47831 0
M  V30 1681 H 167.536 -2.25533 -2.58824 0
M  V30 1682 N 169.982 1.44106 -0.638065 0
M  V30 1683 C 171.228 2.02277 -0.145546 0
M  V30 1684 C 171.561 1.50125 1.23191 0
M  V30 1685 O 170.836 0.688133 1.8192 0
M  V30 1686 C 171.119 3.59829 -0.139791 0
M  V30 1687 C 170.972 4.22247 -1.55008 0
M  V30 1688 C 172.291 4.36873 0.531966 0
M  V30 1689 H 169.41 0.734992 -0.0543632 0
M  V30 1690 H 172.052 1.71592 -0.815863 0
M  V30 1691 H 170.202 3.86102 0.431007 0
M  V30 1692 H 171.874 4.07057 -2.1703 0
M  V30 1693 H 170.117 3.79476 -2.10191 0
M  V30 1694 H 170.788 5.31284 -1.49804 0
M  V30 1695 H 173.264 4.16074 0.0464781 0
M  V30 1696 H 172.14 5.4657 0.505206 0
M  V30 1697 H 172.401 4.11995 1.60352 0
M  V30 1698 N 171.46 0.379036 1.52974 0
M  V30 1699 C 172.69 -0.20649 2.05566 0
M  V30 1700 C 173.098 -1.41906 1.25137 0
M  V30 1701 O 172.441 -1.81421 0.288464 0
M  V30 1702 C 172.503 -0.651086 3.53555 0
M  V30 1703 C 172.167 0.446626 4.54812 0
M  V30 1704 C 173.164 1.30079 5.03364 0
M  V30 1705 C 170.849 0.610719 4.98573 0
M  V30 1706 C 172.843 2.30426 5.94292 0
M  V30 1707 C 170.53 1.61754 5.89304 0
M  V30 1708 C 171.528 2.46274 6.37054 0
M  V30 1709 O 171.216 3.45237 7.25994 0
M  V30 1710 H 170.948 -0.0372381 0.674974 0
M  V30 1711 H 173.502 0.539718 1.98182 0
M  V30 1712 H 171.732 -1.44911 3.58522 0
M  V30 1713 H 173.421 -1.16112 3.88938 0
M  V30 1714 H 174.187 1.18527 4.70294 0
M  V30 1715 H 170.066 -0.0374044 4.60985 0
M  V30 1716 H 173.61 2.96432 6.31485 0
M  V30 1717 H 169.507 1.73348 6.21788 0
M  V30 1718 H 170.275 3.41124 7.44027 0
M  V30 1719 N 172.938 -1.57226 0.108567 0
M  V30 1720 C 173.868 -2.17778 -0.84232 0
M  V30 1721 C 174.849 -1.11487 -1.2847 0
M  V30 1722 O 176.034 -1.39681 -1.34918 0
M  V30 1723 C 173.164 -2.76888 -2.09644 0
M  V30 1724 C 172.118 -3.88669 -1.79221 0
M  V30 1725 C 171.444 -4.34541 -3.11574 0
M  V30 1726 C 172.744 -5.11251 -1.06864 0
M  V30 1727 H 174.438 -2.97489 -0.337774 0
M  V30 1728 H 171.984 -1.43097 -0.161025 0
M  V30 1729 H 173.937 -3.17904 -2.76614 0
M  V30 1730 H 172.661 -1.94451 -2.62405 0
M  V30 1731 H 171.32 -3.48213 -1.14644 0
M  V30 1732 H 170.968 -3.48977 -3.62249 0
M  V30 1733 H 170.668 -5.09914 -2.91996 0
M  V30 1734 H 172.192 -4.782 -3.7968 0
M  V30 1735 H 173.606 -5.49352 -1.63968 0
M  V30 1736 H 172.003 -5.9214 -0.974178 0
M  V30 1737 H 173.073 -4.8487 -0.0536168 0
M  V30 1738 N 174.416 0.165178 -1.56732 0
M  V30 1739 C 175.644 0.896218 -1.86482 0
M  V30 1740 C 176.059 1.75555 -0.694675 0
M  V30 1741 O 175.416 1.79379 0.33607 0
M  V30 1742 C 175.467 1.76792 -3.1532 0
M  V30 1743 O 175.188 0.943239 -4.27825 0
M  V30 1744 C 176.689 2.6081 -3.58459 0
M  V30 1745 H 173.909 0.260064 -0.618553 0
M  V30 1746 H 176.453 0.163428 -2.03846 0
M  V30 1747 H 174.608 2.45398 -2.99764 0
M  V30 1748 H 175.022 1.53998 -5.01383 0
M  V30 1749 H 176.496 3.17579 -4.51495 0
M  V30 1750 H 176.973 3.35977 -2.82872 0
M  V30 1751 H 177.579 1.97526 -3.76648 0
M  V30 1752 N 175.894 1.51508 0.433938 0
M  V30 1753 C 176.857 1.72473 1.50949 0
M  V30 1754 C 177.857 0.594725 1.49398 0
M  V30 1755 O 179.047 0.862315 1.5136 0
M  V30 1756 C 176.179 1.78431 2.90474 0
M  V30 1757 H 177.372 2.68467 1.33662 0
M  V30 1758 H 174.925 1.41549 0.662836 0
M  V30 1759 H 175.66 0.842645 3.13161 0
M  V30 1760 H 175.445 2.60558 2.93005 0
M  V30 1761 H 176.935 1.96479 3.68491 0
M  V30 1762 N 177.372 -0.689602 1.41712 0
M  V30 1763 C 178.62 -1.4468 1.4111 0
M  V30 1764 C 178.941 -1.94986 0.0232196 0
M  V30 1765 O 178.211 -1.72097 -0.935913 0
M  V30 1766 H 176.791 -0.536847 0.519427 0
M  V30 1767 H 179.453 -0.815825 1.77004 0
M  V30 1768 H 178.549 -2.30706 2.10193 0
M  V30 1769 N 178.85 -1.27639 -0.924453 0
M  V30 1770 C 180.096 -1.14336 -1.67497 0
M  V30 1771 C 180.429 0.309465 -1.91718 0
M  V30 1772 O 179.704 1.22608 -1.50989 0
M  V30 1773 C 179.987 -1.93096 -3.0395 0
M  V30 1774 C 179.84 -3.46381 -2.8695 0
M  V30 1775 C 181.159 -1.73798 -4.0433 0
M  V30 1776 H 178.278 -0.416728 -0.607871 0
M  V30 1777 H 180.92 -1.56832 -1.07256 0
M  V30 1778 H 179.07 -1.56982 -3.55372 0
M  V30 1779 H 180.742 -3.92343 -2.42621 0
M  V30 1780 H 178.985 -3.72557 -2.22225 0
M  V30 1781 H 179.656 -3.96735 -3.83804 0
M  V30 1782 H 182.132 -2.05293 -3.61931 0
M  V30 1783 H 181.008 -2.31294 -4.97789 0
M  V30 1784 H 181.269 -0.686725 -4.36734 0
M  V30 1785 N 180.328 1.1314 -1.09713 0
M  V30 1786 C 181.577 1.83838 -0.829851 0
M  V30 1787 C 181.89 1.84599 0.646728 0
M  V30 1788 O 183.096 2.51218 1.02965 0
M  V30 1789 C 181.552 3.30069 -1.43466 0
M  V30 1790 C 181.16 3.37688 -2.94399 0
M  V30 1791 C 182.904 4.05788 -1.24645 0
M  V30 1792 C 180.811 4.78209 -3.47952 0
M  V30 1793 H 179.741 0.68877 -0.306777 0
M  V30 1794 H 182.392 1.27448 -1.3202 0
M  V30 1795 H 180.774 3.8628 -0.871996 0
M  V30 1796 H 181.948 2.91456 -3.56918 0
M  V30 1797 H 180.263 2.75436 -3.12289 0
M  V30 1798 H 182.86 5.09535 -1.62107 0
M  V30 1799 H 183.203 4.15878 -0.187357 0
M  V30 1800 H 183.736 3.55915 -1.77678 0
M  V30 1801 H 180.475 4.73311 -4.53495 0
M  V30 1802 H 179.995 5.24924 -2.90198 0
M  V30 1803 H 181.674 5.47133 -3.45332 0
M  V30 1804 N 181.806 0.884767 1.30421 0
M  V30 1805 C 183.034 0.518044 2.0031 0
M  V30 1806 C 183.449 -0.893408 1.66324 0
M  V30 1807 O 182.806 -1.5875 0.900262 0
M  V30 1808 C 182.857 0.682997 3.54989 0
M  V30 1809 O 182.578 2.03888 3.87764 0
M  V30 1810 C 184.079 0.31924 4.42149 0
M  V30 1811 H 181.299 0.200265 0.640418 0
M  V30 1812 H 183.843 1.19001 1.6631 0
M  V30 1813 H 181.998 0.0584052 3.87356 0
M  V30 1814 H 182.412 2.05735 4.82466 0
M  V30 1815 H 183.886 0.485555 5.4986 0
M  V30 1816 H 184.363 -0.742717 4.32875 0
M  V30 1817 H 184.969 0.920147 4.15227 0
M  V30 1818 N 183.284 -1.43765 0.645699 0
M  V30 1819 C 184.217 -2.2798 -0.100072 0
M  V30 1820 C 185.195 -1.39391 -0.837194 0
M  V30 1821 O 186.379 -1.68833 -0.838306 0
M  V30 1822 C 183.506 -3.18643 -1.14823 0
M  V30 1823 C 182.552 -4.2344 -0.510009 0
M  V30 1824 S 183.385 -5.30761 0.710824 0
M  V30 1825 C 184.541 -6.24992 -0.33699 0
M  V30 1826 H 184.774 -2.90884 0.614322 0
M  V30 1827 H 182.307 -1.48166 0.434304 0
M  V30 1828 H 184.265 -3.71424 -1.74799 0
M  V30 1829 H 182.926 -2.54932 -1.8349 0
M  V30 1830 H 182.119 -4.86948 -1.29991 0
M  V30 1831 H 181.721 -3.73997 0.0154577 0
M  V30 1832 H 184.013 -6.66691 -1.20537 0
M  V30 1833 H 184.956 -7.07612 0.262879 0
M  V30 1834 H 185.364 -5.60517 -0.669425 0
M  V30 1835 N 184.763 -0.387143 -1.52771 0
M  V30 1836 C 186.174 0.0873634 -1.86495 0
M  V30 1837 C 186.525 1.46336 -1.30691 0
M  V30 1838 O 185.65 2.068 -0.637409 0
M  V30 1839 C 186.245 0.165305 -3.38396 0
M  V30 1840 C 184.804 0.584101 -3.7184 0
M  V30 1841 C 183.951 -0.255279 -2.76122 0
M  V30 1842 H 186.902 -0.605104 -1.46711 0
M  V30 1843 H 186.923 0.984848 -3.67534 0
M  V30 1844 H 186.435 -0.836301 -3.78982 0
M  V30 1845 H 184.536 1.59315 -3.36823 0
M  V30 1846 H 184.649 0.343749 -4.77865 0
M  V30 1847 H 183.013 0.279126 -2.53166 0
M  V30 1848 H 183.796 -1.25482 -3.19545 0
M  V30 1849 N 186.241 1.57166 -0.116904 0
M  V30 1850 C 187.173 2.12271 0.864507 0
M  V30 1851 C 188.186 1.06494 1.23138 0
M  V30 1852 O 189.375 1.33873 1.18069 0
M  V30 1853 C 186.475 2.60564 2.16702 0
M  V30 1854 C 185.648 3.90416 1.97216 0
M  V30 1855 C 184.707 4.24329 3.11178 0
M  V30 1856 O 183.733 4.93182 2.84184 0
M  V30 1857 N 184.935 3.8148 4.37554 0
M  V30 1858 H 187.7 2.97102 0.393726 0
M  V30 1859 H 185.261 1.61759 0.0675805 0
M  V30 1860 H 187.253 2.80282 2.91932 0
M  V30 1861 H 185.823 1.80623 2.55135 0
M  V30 1862 H 185.043 3.79627 1.06192 0
M  V30 1863 H 186.331 4.75327 1.81499 0
M  V30 1864 H 185.729 3.25943 4.62361 0
M  V30 1865 H 184.286 4.06311 5.09661 0
M  V30 1866 N 187.719 -0.156864 1.56817 0
M  V30 1867 C 188.949 -0.885031 1.86684 0
M  V30 1868 C 189.357 -1.75696 0.701954 0
M  V30 1869 O 188.7 -1.80569 -0.337732 0
M  V30 1870 C 188.762 -1.80092 3.11138 0
M  V30 1871 C 188.426 -1.10714 4.43386 0
M  V30 1872 C 189.423 -0.465714 5.1781 0
M  V30 1873 C 187.108 -1.09959 4.90117 0
M  V30 1874 C 189.102 0.174002 6.37162 0
M  V30 1875 C 186.789 -0.456055 6.09396 0
M  V30 1876 C 187.787 0.179622 6.82764 0
M  V30 1877 O 187.475 0.812975 7.99779 0
M  V30 1878 H 187.207 -0.261813 0.623242 0
M  V30 1879 H 189.761 -0.157383 2.04796 0
M  V30 1880 H 187.991 -2.56926 2.89009 0
M  V30 1881 H 189.68 -2.40018 3.27332 0
M  V30 1882 H 190.446 -0.463427 4.82781 0
M  V30 1883 H 186.325 -1.58378 4.3294 0
M  V30 1884 H 189.869 0.670765 6.94368 0
M  V30 1885 H 185.766 -0.455975 6.43888 0
M  V30 1886 H 186.534 0.71366 8.15383 0
M  V30 1887 N 189.197 -1.51736 -0.425897 0
M  V30 1888 C 190.127 -1.76827 -1.52494 0
M  V30 1889 C 191.108 -0.618524 -1.58456 0
M  V30 1890 O 192.293 -0.862416 -1.74 0
M  V30 1891 C 189.423 -1.90374 -2.90474 0
M  V30 1892 C 188.377 -3.0588 -2.99369 0
M  V30 1893 C 187.703 -3.04625 -4.3944 0
M  V30 1894 C 189.003 -4.45644 -2.72394 0
M  V30 1895 H 190.697 -2.68855 -1.31748 0
M  V30 1896 H 188.243 -1.29372 -0.632362 0
M  V30 1897 H 190.196 -2.0651 -3.6733 0
M  V30 1898 H 188.92 -0.95004 -3.12477 0
M  V30 1899 H 187.579 -2.89467 -2.24954 0
M  V30 1900 H 187.227 -2.0701 -4.58428 0
M  V30 1901 H 186.927 -3.82195 -4.46319 0
M  V30 1902 H 188.451 -3.22869 -5.18255 0
M  V30 1903 H 189.865 -4.62348 -3.38979 0
M  V30 1904 H 188.262 -5.25006 -2.9067 0
M  V30 1905 H 189.332 -4.54893 -1.67929 0
M  V30 1906 N 190.675 0.682077 -1.42076 0
M  V30 1907 C 192.091 0.994324 -1.24841 0
M  V30 1908 C 192.291 2.0096 -0.147389 0
M  V30 1909 O 191.347 2.47822 0.483782 0
M  V30 1910 C 192.66 1.50607 -2.60265 0
M  V30 1911 C 194.208 1.62421 -2.6756 0
M  V30 1912 C 194.683 2.16994 -4.03333 0
M  V30 1913 N 196.174 2.24337 -4.0525 0
M  V30 1914 C 196.909 2.67621 -5.07116 0
M  V30 1915 N 196.405 3.1041 -6.19368 0
M  V30 1916 N 198.198 2.67305 -4.94474 0
M  V30 1917 H 190.349 0.00973908 -2.12398 0
M  V30 1918 H 192.612 0.0668593 -0.945639 0
M  V30 1919 H 192.318 0.834583 -3.41654 0
M  V30 1920 H 192.192 2.48602 -2.83684 0
M  V30 1921 H 194.579 2.28678 -1.86521 0
M  V30 1922 H 194.66 0.629352 -2.47937 0
M  V30 1923 H 194.304 1.51349 -4.84826 0
M  V30 1924 H 194.234 3.17258 -4.20304 0
M  V30 1925 H 196.725 1.94158 -3.24209 0
M  V30 1926 H 197.038 3.42103 -6.92954 0
M  V30 1927 H 195.383 3.08286 -6.22884 0
M  V30 1928 H 198.574 2.33233 -4.05857 0
M  V30 1929 H 198.747 3.00718 -5.73997 0
M  V30 1930 N 192.153 1.28127 0.917671 0
M  V30 1931 C 193.1 1.11717 2.0196 0
M  V30 1932 C 194.07 0.0153929 1.66093 0
M  V30 1933 O 195.255 0.179596 1.89953 0
M  V30 1934 C 192.395 0.780927 3.36148 0
M  V30 1935 C 191.508 1.96135 3.84909 0
M  V30 1936 C 190.643 1.56609 5.0759 0
M  V30 1937 C 189.682 2.71339 5.48673 0
M  V30 1938 N 188.819 2.32332 6.62545 0
M  V30 1939 H 193.659 2.06003 2.15329 0
M  V30 1940 H 191.196 1.02535 1.05475 0
M  V30 1941 H 193.154 0.56675 4.13333 0
M  V30 1942 H 191.784 -0.124998 3.22558 0
M  V30 1943 H 190.836 2.28777 3.03916 0
M  V30 1944 H 192.148 2.82165 4.1132 0
M  V30 1945 H 191.302 1.31374 5.92305 0
M  V30 1946 H 190.041 0.677014 4.82978 0
M  V30 1947 H 189.046 2.97276 4.62501 0
M  V30 1948 H 190.271 3.60882 5.75274 0
M  V30 1949 H 188.217 1.45889 6.39572 0
M  V30 1950 H 188.134 3.11899 6.88662 0
M  V30 1951 H 189.402 2.10371 7.50576 0
M  V30 1952 N 193.631 -1.12557 1.10312 0
M  V30 1953 C 195.047 -1.36036 0.834649 0
M  V30 1954 C 195.247 -1.93946 -0.546539 0
M  V30 1955 O 194.303 -2.16484 -1.29966 0
M  V30 1956 C 195.616 -2.30312 1.9333 0
M  V30 1957 C 197.164 -2.43906 1.9616 0
M  V30 1958 C 197.639 -3.41496 3.05195 0
M  V30 1959 N 199.13 -3.49053 3.04494 0
M  V30 1960 C 199.865 -4.24471 3.85502 0
M  V30 1961 N 199.361 -5.02966 4.76442 0
M  V30 1962 N 201.154 -4.19864 3.73725 0
M  V30 1963 H 193.305 -0.733246 1.99342 0
M  V30 1964 H 195.568 -0.385234 0.866198 0
M  V30 1965 H 195.274 -1.94933 2.92735 0
M  V30 1966 H 195.148 -3.30421 1.81939 0
M  V30 1967 H 197.535 -2.78567 0.973886 0
M  V30 1968 H 197.616 -1.4369 2.11629 0
M  V30 1969 H 197.26 -3.07565 4.04186 0
M  V30 1970 H 197.19 -4.41539 2.86968 0
M  V30 1971 H 199.681 -2.93053 2.38596 0
M  V30 1972 H 199.994 -5.57846 5.34815 0
M  V30 1973 H 198.339 -5.02167 4.80472 0
M  V30 1974 H 201.53 -3.57623 3.02032 0
M  V30 1975 H 201.703 -4.78386 4.37093 0
M  V30 1976 N 195.109 -0.891671 -1.2995 0
M  V30 1977 C 196.356 -0.513501 -1.95881 0
M  V30 1978 C 196.684 0.938655 -1.70351 0
M  V30 1979 O 195.939 1.67936 -1.00478 0
M  V30 1980 C 196.238 -0.742868 -3.49594 0
M  V30 1981 C 195.904 -2.17114 -3.95186 0
M  V30 1982 C 194.566 -2.56169 -4.07346 0
M  V30 1983 C 196.918 -3.10162 -4.18866 0
M  V30 1984 C 194.246 -3.87469 -4.4055 0
M  V30 1985 C 196.598 -4.41001 -4.53542 0
M  V30 1986 C 195.262 -4.79941 -4.63911 0
M  V30 1987 H 194.532 -0.187903 -0.71678 0
M  V30 1988 H 197.179 -1.1288 -1.54694 0
M  V30 1989 H 195.484 -0.044586 -3.91775 0
M  V30 1990 H 197.181 -0.429767 -3.9869 0
M  V30 1991 H 193.771 -1.85801 -3.86233 0
M  V30 1992 H 197.955 -2.81206 -4.08946 0
M  V30 1993 H 193.211 -4.17371 -4.46779 0
M  V30 1994 H 197.385 -5.13133 -4.70815 0
M  V30 1995 H 195.012 -5.81719 -4.89395 0
M  V30 1996 N 196.587 1.43421 -0.653314 0
M  V30 1997 C 197.835 2.01414 -0.166415 0
M  V30 1998 C 198.156 1.51803 1.22397 0
M  V30 1999 O 197.426 0.730693 1.81763 0
M  V30 2000 H 196.006 0.744703 -0.0585319 0
M  V30 2001 H 198.668 1.75629 -0.845003 0
M  V30 2002 H 197.764 3.11734 -0.151111 0
M  V30 2003 N 198.065 0.39524 1.52563 0
M  V30 2004 C 199.313 -0.184678 2.01254 0
M  V30 2005 C 199.634 -1.46822 1.28329 0
M  V30 2006 O 198.904 -1.91666 0.405094 0
M  V30 2007 H 197.484 -0.0712355 0.743596 0
M  V30 2008 H 200.146 0.528293 1.87603 0
M  V30 2009 H 199.242 -0.390681 3.09645 0
M  V30 2010 N 199.544 -1.57102 0.125237 0
M  V30 2011 C 200.96 -1.57915 -0.231322 0
M  V30 2012 C 201.16 -1.13833 -1.66266 0
M  V30 2013 O 200.216 -0.828581 -2.38518 0
M  V30 2014 C 201.529 -3.00699 0.00766489 0
M  V30 2015 C 203.077 -3.12947 -0.0577483 0
M  V30 2016 C 203.552 -4.57742 0.153626 0
M  V30 2017 N 205.043 -4.63092 0.0998073 0
M  V30 2018 C 205.778 -5.72905 0.238174 0
M  V30 2019 N 205.274 -6.91445 0.433057 0
M  V30 2020 N 207.067 -5.6182 0.177308 0
M  V30 2021 H 199.218 -1.84055 1.06007 0
M  V30 2022 H 201.481 -0.850905 0.417929 0
M  V30 2023 H 201.187 -3.3726 0.997431 0
M  V30 2024 H 201.061 -3.70236 -0.721452 0
M  V30 2025 H 203.448 -2.7624 -1.03804 0
M  V30 2026 H 203.529 -2.4594 0.70335 0
M  V30 2027 H 203.173 -4.95149 1.13092 0
M  V30 2028 H 203.103 -5.22848 -0.627534 0
M  V30 2029 H 205.594 -3.77871 -0.047051 0
M  V30 2030 H 205.907 -7.70985 0.529332 0
M  V30 2031 H 204.252 -6.93415 0.469109 0
M  V30 2032 H 207.443 -4.68093 0.0259748 0
M  V30 2033 H 207.616 -6.47357 0.288582 0
M  V30 2034 N 201.022 0.148545 -1.56898 0
M  V30 2035 C 202.438 0.501131 -1.51528 0
M  V30 2036 C 202.638 1.83458 -0.833399 0
M  V30 2037 O 201.694 2.49259 -0.40328 0
M  V30 2038 C 203.007 0.512864 -2.96294 0
M  V30 2039 C 204.555 0.598487 -3.07225 0
M  V30 2040 C 205.03 0.640897 -4.53494 0
M  V30 2041 N 206.521 0.703163 -4.57832 0
M  V30 2042 C 207.256 0.756935 -5.68382 0
M  V30 2043 N 206.752 0.770147 -6.88506 0
M  V30 2044 N 208.545 0.797698 -5.56411 0
M  V30 2045 H 200.696 -0.725532 -1.99624 0
M  V30 2046 H 202.959 -0.264358 -0.910395 0
M  V30 2047 H 202.665 -0.398691 -3.49433 0
M  V30 2048 H 202.539 1.35133 -3.52163 0
M  V30 2049 H 204.926 1.50046 -2.54106 0
M  V30 2050 H 205.007 -0.267093 -2.54402 0
M  V30 2051 H 204.651 -0.256915 -5.0725 0
M  V30 2052 H 204.581 1.52295 -5.04097 0
M  V30 2053 H 207.072 0.700314 -3.71354 0
M  V30 2054 H 207.385 0.812983 -7.68512 0
M  V30 2055 H 205.73 0.738049 -6.9107 0
M  V30 2056 H 208.921 0.784535 -4.61479 0
M  V30 2057 H 209.094 0.83614 -6.42583 0
M  V30 2058 N 202.5 1.5196 0.417844 0
M  V30 2059 C 203.749 1.6482 1.16264 0
M  V30 2060 C 204.062 0.379886 1.91876 0
M  V30 2061 O 205.268 0.388154 2.68711 0
M  V30 2062 C 203.724 2.91161 2.1155 0
M  V30 2063 C 203.332 4.25068 1.41495 0
M  V30 2064 C 205.076 3.13383 2.86341 0
M  V30 2065 C 202.983 5.42541 2.35379 0
M  V30 2066 H 201.913 0.613954 0.437694 0
M  V30 2067 H 204.564 1.78442 0.427871 0
M  V30 2068 H 202.946 2.71218 2.88543 0
M  V30 2069 H 204.12 4.55463 0.699263 0
M  V30 2070 H 202.435 4.0888 0.787792 0
M  V30 2071 H 205.032 3.98324 3.5671 0
M  V30 2072 H 205.375 2.27256 3.48798 0
M  V30 2073 H 205.908 3.33757 2.1645 0
M  V30 2074 H 202.647 6.30987 1.77582 0
M  V30 2075 H 202.167 5.16497 3.04945 0
M  V30 2076 H 203.846 5.75272 2.96093 0
M  V30 2077 N 203.978 -0.674533 1.42435 0
M  V30 2078 C 205.394 -0.98769 1.25367 0
M  V30 2079 C 205.594 -2.00879 0.158044 0
M  V30 2080 O 204.65 -2.48075 -0.470633 0
M  V30 2081 C 205.963 -1.49224 2.6106 0
M  V30 2082 C 207.511 -1.61 2.68417 0
M  V30 2083 C 207.986 -2.14852 4.04478 0
M  V30 2084 N 209.477 -2.22185 4.06434 0
M  V30 2085 C 210.212 -2.64928 5.08528 0
M  V30 2086 N 209.708 -3.07121 6.21006 0
M  V30 2087 N 211.501 -2.64679 4.95885 0
M  V30 2088 H 203.652 0.00152503 2.124 0
M  V30 2089 H 205.915 -0.0618434 0.945981 0
M  V30 2090 H 205.621 -0.816453 3.42092 0
M  V30 2091 H 205.495 -2.47094 2.84999 0
M  V30 2092 H 207.882 -2.27686 1.87732 0
M  V30 2093 H 207.963 -0.616195 2.48267 0
M  V30 2094 H 207.607 -1.48775 4.85622 0
M  V30 2095 H 207.537 -3.15024 4.2198 0
M  V30 2096 H 210.028 -1.92435 3.25234 0
M  V30 2097 H 210.341 -3.38423 6.94759 0
M  V30 2098 H 208.686 -3.04978 6.24511 0
M  V30 2099 H 211.877 -2.31078 4.07088 0
M  V30 2100 H 212.05 -2.9767 5.75584 0
M  V30 2101 N 205.456 -1.28612 -0.910864 0
M  V30 2102 C 206.386 -1.15326 -2.03032 0
M  V30 2103 C 207.367 -0.0502924 -1.70026 0
M  V30 2104 O 208.552 -0.227797 -1.92859 0
M  V30 2105 C 205.682 -0.817343 -3.37545 0
M  V30 2106 C 204.636 -1.8754 -3.84724 0
M  V30 2107 C 203.962 -1.39305 -5.16235 0
M  V30 2108 C 205.262 -3.28244 -4.06267 0
M  V30 2109 H 206.956 -2.08975 -2.14406 0
M  V30 2110 H 204.502 -1.00612 -1.03021 0
M  V30 2111 H 206.455 -0.711151 -4.15356 0
M  V30 2112 H 205.179 0.154846 -3.26233 0
M  V30 2113 H 203.838 -1.97079 -3.09121 0
M  V30 2114 H 203.486 -0.409846 -5.01328 0
M  V30 2115 H 203.186 -2.10057 -5.48771 0
M  V30 2116 H 204.71 -1.30014 -5.96598 0
M  V30 2117 H 206.124 -3.21611 -4.74594 0
M  V30 2118 H 204.521 -3.96855 -4.5014 0
M  V30 2119 H 205.591 -3.72048 -3.10979 0
M  V30 2120 N 206.934 1.1197 -1.10907 0
M  V30 2121 C 208.164 1.8713 -0.875553 0
M  V30 2122 C 208.572 1.8016 0.577843 0
M  V30 2123 O 207.915 1.17699 1.41042 0
M  V30 2124 C 207.977 3.37005 -1.2517 0
M  V30 2125 C 207.641 3.67748 -2.71313 0
M  V30 2126 C 208.638 3.65698 -3.69542 0
M  V30 2127 C 206.323 3.96928 -3.07821 0
M  V30 2128 C 208.317 3.92395 -5.023 0
M  V30 2129 C 206.004 4.23284 -4.40765 0
M  V30 2130 C 207.002 4.21005 -5.37814 0
M  V30 2131 O 206.69 4.46704 -6.68364 0
M  V30 2132 H 206.422 0.598786 -0.313737 0
M  V30 2133 H 208.976 1.42568 -1.47863 0
M  V30 2134 H 207.206 3.82146 -0.591741 0
M  V30 2135 H 208.895 3.93519 -0.994877 0
M  V30 2136 H 209.661 3.43211 -3.42682 0
M  V30 2137 H 205.54 3.97841 -2.32902 0
M  V30 2138 H 209.084 3.90531 -5.78041 0
M  V30 2139 H 204.981 4.45246 -4.67361 0
M  V30 2140 H 205.749 4.64299 -6.74069 0
M  V30 2141 N 208.412 0.89855 1.29475 0
M  V30 2142 C 209.342 0.39201 2.30186 0
M  V30 2143 C 210.323 -0.532359 1.61555 0
M  V30 2144 O 211.508 -0.443331 1.89072 0
M  V30 2145 C 208.638 -0.382353 3.45189 0
M  V30 2146 C 207.592 0.451483 4.25612 0
M  V30 2147 C 206.918 -0.450307 5.328 0
M  V30 2148 C 208.218 1.70079 4.93832 0
M  V30 2149 H 209.912 1.23362 2.72804 0
M  V30 2150 H 207.458 0.594638 1.31149 0
M  V30 2151 H 209.411 -0.747451 4.14718 0
M  V30 2152 H 208.135 -1.25774 3.01411 0
M  V30 2153 H 206.794 0.798897 3.57789 0
M  V30 2154 H 206.442 -1.32379 4.85268 0
M  V30 2155 H 206.142 0.103902 5.87508 0
M  V30 2156 H 207.666 -0.811623 6.05182 0
M  V30 2157 H 209.08 1.40549 5.55805 0
M  V30 2158 H 207.477 2.19623 5.58467 0
M  V30 2159 H 208.547 2.43744 4.19186 0
M  V30 2160 N 209.89 -1.43072 0.660911 0
M  V30 2161 C 211.115 -2.06584 0.183805 0
M  V30 2162 C 211.54 -1.49257 -1.14472 0
M  V30 2163 O 210.898 -0.605528 -1.70889 0
M  V30 2164 C 210.946 -3.60418 0.114434 0
M  V30 2165 O 210.05 -4.01981 -0.921137 0
M  V30 2166 H 209.391 -0.656669 0.0983994 0
M  V30 2167 H 211.921 -1.83447 0.906006 0
M  V30 2168 H 211.931 -4.07946 -0.0663394 0
M  V30 2169 H 210.606 -4.01519 1.08422 0
M  V30 2170 H 209.183 -3.66029 -0.71253 0
M  V30 2171 N 211.368 -0.403325 -1.52352 0
M  V30 2172 C 212.614 0.174605 -2.02047 0
M  V30 2173 C 212.947 1.45282 -1.28867 0
M  V30 2174 O 212.222 1.90483 -0.393257 0
M  V30 2175 C 212.505 0.428238 -3.57545 0
M  V30 2176 C 212.358 -0.866248 -4.4138 0
M  V30 2177 C 213.677 1.21287 -4.23057 0
M  V30 2178 H 210.796 0.0619851 -0.734389 0
M  V30 2179 H 213.438 -0.53565 -1.82293 0
M  V30 2180 H 211.588 1.03327 -3.74507 0
M  V30 2181 H 213.26 -1.50265 -4.3614 0
M  V30 2182 H 211.503 -1.47851 -4.07827 0
M  V30 2183 H 212.174 -0.643249 -5.48239 0
M  V30 2184 H 214.65 0.700703 -4.10158 0
M  V30 2185 H 213.526 1.35909 -5.31808 0
M  V30 2186 H 213.787 2.23193 -3.81625 0
M  V30 2187 N 212.846 1.57033 -0.133567 0
M  V30 2188 C 213.776 2.1909 0.807567 0
M  V30 2189 C 214.757 1.13517 1.26681 0
M  V30 2190 O 215.942 1.41809 1.32679 0
M  V30 2191 C 213.072 2.80188 2.05212 0
M  V30 2192 C 212.026 3.91471 1.73015 0
M  V30 2193 C 211.352 4.39443 3.04622 0
M  V30 2194 C 212.652 5.12886 0.987168 0
M  V30 2195 H 214.346 2.97988 0.290403 0
M  V30 2196 H 211.892 1.43335 0.138239 0
M  V30 2197 H 213.845 3.22264 2.71521 0
M  V30 2198 H 212.569 1.98601 2.59278 0
M  V30 2199 H 211.228 3.49993 1.0909 0
M  V30 2200 H 210.876 3.54695 3.56651 0
M  V30 2201 H 210.576 5.14495 2.83847 0
M  V30 2202 H 212.1 4.8418 3.72024 0
M  V30 2203 H 213.514 5.51891 1.55208 0
M  V30 2204 H 211.911 5.93615 0.87985 0
M  V30 2205 H 212.981 4.84894 -0.0235286 0
M  V30 2206 N 214.325 -0.140222 1.56975 0
M  V30 2207 C 215.55 -0.870414 1.88251 0
M  V30 2208 C 215.975 -1.73637 0.723312 0
M  V30 2209 O 215.333 -1.78329 -0.32689 0
M  V30 2210 C 215.381 -1.69737 3.18154 0
M  V30 2211 O 214.485 -2.80229 3.02565 0
M  V30 2212 H 213.826 -0.242025 0.61832 0
M  V30 2213 H 216.356 -0.128999 2.04193 0
M  V30 2214 H 216.366 -2.09099 3.50345 0
M  V30 2215 H 215.041 -1.06152 4.02125 0
M  V30 2216 H 213.618 -2.44224 2.81796 0
M  V30 2217 N 215.803 -1.52179 -0.40978 0
M  V30 2218 C 216.733 -1.78435 -1.5061 0
M  V30 2219 C 217.714 -0.635295 -1.57791 0
M  V30 2220 O 218.899 -0.880823 -1.73076 0
M  V30 2221 C 216.029 -1.93444 -2.88439 0
M  V30 2222 C 214.983 -3.09038 -2.96108 0
M  V30 2223 C 214.309 -3.09268 -4.36185 0
M  V30 2224 C 215.609 -4.48508 -2.67652 0
M  V30 2225 H 217.303 -2.70237 -1.28889 0
M  V30 2226 H 214.849 -1.30036 -0.618605 0
M  V30 2227 H 216.802 -2.10394 -3.65119 0
M  V30 2228 H 215.526 -0.983129 -3.11452 0
M  V30 2229 H 214.185 -2.91837 -2.21872 0
M  V30 2230 H 213.833 -2.11861 -4.56206 0
M  V30 2231 H 213.533 -3.86907 -4.42241 0
M  V30 2232 H 215.057 -3.28348 -5.14801 0
M  V30 2233 H 216.471 -4.65918 -3.34056 0
M  V30 2234 H 214.868 -5.28059 -2.85085 0
M  V30 2235 H 215.938 -4.56649 -1.63095 0
M  V30 2236 N 217.281 0.66697 -1.42791 0
M  V30 2237 C 218.528 1.42699 -1.43678 0
M  V30 2238 C 218.856 1.94419 -0.0560425 0
M  V30 2239 O 218.111 1.7182 0.936831 0
M  V30 2240 C 218.41 2.6349 -2.4147 0
M  V30 2241 C 218.076 2.30267 -3.8767 0
M  V30 2242 C 216.738 2.20918 -4.27491 0
M  V30 2243 C 219.09 2.03435 -4.79858 0
M  V30 2244 C 216.418 1.82873 -5.57471 0
M  V30 2245 C 218.77 1.66892 -6.10188 0
M  V30 2246 C 217.434 1.56058 -6.49001 0
M  V30 2247 H 216.704 0.522171 -0.525755 0
M  V30 2248 H 219.351 0.759785 -1.75783 0
M  V30 2249 H 217.656 3.35279 -2.0272 0
M  V30 2250 H 219.353 3.21684 -2.39417 0
M  V30 2251 H 215.943 2.38449 -3.56146 0
M  V30 2252 H 220.127 2.09586 -4.49875 0
M  V30 2253 H 215.383 1.7306 -5.86396 0
M  V30 2254 H 219.557 1.45157 -6.81104 0
M  V30 2255 H 217.184 1.26348 -7.49627 0
M  V30 2256 N 218.759 1.29093 0.90403 0
M  V30 2257 C 219.689 1.16401 2.02418 0
M  V30 2258 C 220.67 0.0593085 1.69997 0
M  V30 2259 O 221.855 0.238021 1.92736 0
M  V30 2260 C 218.985 0.835233 3.37107 0
M  V30 2261 C 217.939 1.89578 3.83724 0
M  V30 2262 C 217.265 1.42041 5.15489 0
M  V30 2263 C 218.565 3.30394 4.04521 0
M  V30 2264 H 220.259 2.10109 2.13295 0
M  V30 2265 H 217.805 1.01157 1.02486 0
M  V30 2266 H 219.758 0.733169 4.14973 0
M  V30 2267 H 218.482 -0.137543 3.2631 0
M  V30 2268 H 217.141 1.98715 3.08071 0
M  V30 2269 H 216.789 0.436426 5.01103 0
M  V30 2270 H 216.489 2.12964 5.4765 0
M  V30 2271 H 218.013 1.33176 5.959 0
M  V30 2272 H 219.427 3.24123 4.72882 0
M  V30 2273 H 217.824 3.99237 4.48029 0
M  V30 2274 H 218.894 3.73692 3.09002 0
M  V30 2275 N 220.237 -1.11381 1.11499 0
M  V30 2276 C 221.467 -1.86663 0.885464 0
M  V30 2277 C 221.875 -1.80464 -0.568281 0
M  V30 2278 O 221.218 -1.18445 -1.40415 0
M  V30 2279 C 221.28 -3.36337 1.26956 0
M  V30 2280 C 220.944 -3.66304 2.73259 0
M  V30 2281 C 221.941 -3.63733 3.71476 0
M  V30 2282 C 219.626 -3.9529 3.09921 0
M  V30 2283 C 221.62 -3.89725 5.04374 0
M  V30 2284 C 219.307 -4.20941 4.43004 0
M  V30 2285 C 220.305 -4.18147 5.40039 0
M  V30 2286 O 219.993 -4.43153 6.70724 0
M  V30 2287 H 219.725 -0.597114 0.316908 0
M  V30 2288 H 222.279 -1.41782 1.48617 0
M  V30 2289 H 220.509 -3.81826 0.611999 0
M  V30 2290 H 222.198 -3.92986 1.01573 0
M  V30 2291 H 222.964 -3.41389 3.44498 0
M  V30 2292 H 218.843 -3.966 2.35009 0
M  V30 2293 H 222.387 -3.8746 5.80104 0
M  V30 2294 H 218.284 -4.42761 4.69716 0
M  V30 2295 H 219.052 -4.60717 6.76522 0
M  V30 2296 N 221.715 -0.905404 -1.28997 0
M  V30 2297 C 222.964 -0.530191 -1.94607 0
M  V30 2298 C 223.277 0.929185 -1.72121 0
M  V30 2299 O 224.483 1.41218 -2.31883 0
M  V30 2300 C 222.939 -0.897333 -3.48534 0
M  V30 2301 C 222.547 -2.37587 -3.79811 0
M  V30 2302 C 224.291 -0.592304 -4.20347 0
M  V30 2303 C 222.198 -2.68357 -5.27009 0
M  V30 2304 H 221.128 -0.194558 -0.728466 0
M  V30 2305 H 223.779 -1.10318 -1.46636 0
M  V30 2306 H 222.161 -0.253214 -3.9519 0
M  V30 2307 H 223.335 -3.06602 -3.43994 0
M  V30 2308 H 221.65 -2.6505 -3.2115 0
M  V30 2309 H 224.247 -0.798975 -5.28697 0
M  V30 2310 H 224.59 0.469474 -4.13644 0
M  V30 2311 H 225.123 -1.19452 -3.79442 0
M  V30 2312 H 221.862 -3.73355 -5.38782 0
M  V30 2313 H 221.382 -2.03971 -5.64053 0
M  V30 2314 H 223.061 -2.54922 -5.94663 0
M  V30 2315 N 223.193 1.4272 -0.668489 0
M  V30 2316 C 224.44 2.01624 -0.18814 0
M  V30 2317 C 224.768 1.5282 1.20317 0
M  V30 2318 O 224.023 0.718323 1.8204 0
M  V30 2319 C 224.322 3.57021 -0.164499 0
M  V30 2320 C 223.988 4.25232 -1.49962 0
M  V30 2321 C 222.65 4.4358 -1.8652 0
M  V30 2322 C 225.002 4.63727 -2.37921 0
M  V30 2323 C 222.33 4.97694 -3.10674 0
M  V30 2324 C 224.682 5.19218 -3.6138 0
M  V30 2325 C 223.346 5.3578 -3.98115 0
M  V30 2326 H 222.616 0.737795 -0.0688454 0
M  V30 2327 H 225.263 1.70991 -0.862225 0
M  V30 2328 H 223.568 3.87285 0.593079 0
M  V30 2329 H 225.265 4.00372 0.224271 0
M  V30 2330 H 221.855 4.11306 -1.20522 0
M  V30 2331 H 226.039 4.4923 -2.10964 0
M  V30 2332 H 221.295 5.08702 -3.39164 0
M  V30 2333 H 225.469 5.4799 -4.29743 0
M  V30 2334 H 223.096 5.77475 -4.94395 0
M  V30 2335 N 224.671 0.411399 1.52136 0
M  V30 2336 C 225.899 -0.163076 2.06256 0
M  V30 2337 C 226.314 -1.3867 1.28125 0
M  V30 2338 O 225.671 -1.79423 0.333721 0
M  V30 2339 C 225.722 -0.511252 3.57867 0
M  V30 2340 O 225.443 0.66378 4.33042 0
M  V30 2341 C 226.944 -1.13921 4.28412 0
M  V30 2342 H 224.164 -0.0193897 0.67072 0
M  V30 2343 H 226.708 0.583007 1.96013 0
M  V30 2344 H 224.863 -1.20723 3.6811 0
M  V30 2345 H 225.277 0.372601 5.23175 0
M  V30 2346 H 226.751 -1.33302 5.35663 0
M  V30 2347 H 227.228 -2.11296 3.85033 0
M  V30 2348 H 227.834 -0.483373 4.22544 0
M  V30 2349 N 226.149 -1.5696 0.141893 0
M  V30 2350 C 227.096 -2.16501 -0.799737 0
M  V30 2351 C 228.066 -1.09643 -1.24771 0
M  V30 2352 O 229.251 -1.3766 -1.32115 0
M  V30 2353 C 226.391 -2.78679 -2.03549 0
M  V30 2354 C 225.504 -3.99914 -1.6338 0
M  V30 2355 C 224.639 -4.50106 -2.82096 0
M  V30 2356 C 223.678 -5.63819 -2.38275 0
M  V30 2357 N 222.815 -6.08651 -3.49983 0
M  V30 2358 H 227.655 -2.96632 -0.285179 0
M  V30 2359 H 225.192 -1.46533 -0.129053 0
M  V30 2360 H 227.15 -3.1287 -2.75986 0
M  V30 2361 H 225.78 -2.012 -2.52425 0
M  V30 2362 H 224.832 -3.71735 -0.807279 0
M  V30 2363 H 226.144 -4.82311 -1.27192 0
M  V30 2364 H 225.298 -4.86325 -3.62729 0
M  V30 2365 H 224.037 -3.66706 -3.21525 0
M  V30 2366 H 223.042 -5.2718 -1.56081 0
M  V30 2367 H 224.267 -6.49 -1.99938 0
M  V30 2368 H 222.213 -5.28188 -3.89042 0
M  V30 2369 H 222.13 -6.85961 -3.17794 0
M  V30 2370 H 223.398 -6.49515 -4.30988 0
M  V30 2371 N 227.627 0.131896 -1.57047 0
M  V30 2372 C 228.876 0.84044 -1.83356 0
M  V30 2373 C 229.189 1.81646 -0.725535 0
M  V30 2374 O 230.395 2.57025 -0.874659 0
M  V30 2375 C 228.851 1.54528 -3.25037 0
M  V30 2376 C 228.459 0.610902 -4.43815 0
M  V30 2377 C 230.203 2.23972 -3.60606 0
M  V30 2378 C 228.11 1.31823 -5.76521 0
M  V30 2379 H 227.04 0.317599 -0.683847 0
M  V30 2380 H 229.691 0.0931561 -1.83263 0
M  V30 2381 H 228.073 2.33873 -3.19561 0
M  V30 2382 H 229.247 -0.148407 -4.60561 0
M  V30 2383 H 227.562 0.0241016 -4.16393 0
M  V30 2384 H 230.159 2.77558 -4.57018 0
M  V30 2385 H 230.502 3.01173 -2.87403 0
M  V30 2386 H 231.035 1.51529 -3.6781 0
M  V30 2387 H 227.774 0.587771 -6.52859 0
M  V30 2388 H 227.294 2.04987 -5.63685 0
M  V30 2389 H 228.973 1.855 -6.19838 0
M  V30 2390 N 229.106 1.52395 0.401703 0
M  V30 2391 C 230.331 1.70972 1.17403 0
M  V30 2392 C 230.756 0.421615 1.83314 0
M  V30 2393 O 230.114 -0.621564 1.70312 0
M  V30 2394 C 230.162 2.85151 2.20728 0
M  V30 2395 O 229.266 2.51238 3.27037 0
M  V30 2396 H 228.607 0.568927 0.342372 0
M  V30 2397 H 231.137 1.99131 0.469891 0
M  V30 2398 H 231.147 3.10279 2.64936 0
M  V30 2399 H 229.822 3.78603 1.7214 0
M  V30 2400 H 228.399 2.36808 2.88057 0
M  V30 2401 N 230.584 -0.659388 1.43143 0
M  V30 2402 C 231.83 -1.42145 1.44647 0
M  V30 2403 C 232.163 -1.9408 0.0681907 0
M  V30 2404 O 231.438 -1.71899 -0.910007 0
M  V30 2405 C 231.721 -2.60735 2.48373 0
M  V30 2406 C 231.574 -2.14332 3.95451 0
M  V30 2407 C 232.893 -3.62951 2.48906 0
M  V30 2408 H 230.012 -0.51552 0.526696 0
M  V30 2409 H 232.654 -0.748069 1.74654 0
M  V30 2410 H 230.804 -3.18184 2.22916 0
M  V30 2411 H 232.476 -1.61932 4.31944 0
M  V30 2412 H 230.719 -1.4576 4.08578 0
M  V30 2413 H 231.39 -2.99583 4.63631 0
M  V30 2414 H 233.866 -3.1525 2.71582 0
M  V30 2415 H 232.742 -4.43487 3.23435 0
M  V30 2416 H 233.003 -4.15126 1.52061 0
M  V30 2417 N 232.062 -1.29571 -0.897171 0
M  V30 2418 C 233.339 -1.08365 -1.62839 0
M  V30 2419 C 233.719 0.371331 -2.07808 0
M  V30 2420 O 233.067 1.3606 -1.83576 0
M  V30 2421 C 233.277 -2.0735 -2.80726 0
M  V30 2422 C 234.625 -2.38406 -3.51351 0
M  V30 2423 O 235.649 -2.05564 -2.90898 0
M  V30 2424 O 234.508 -2.9453 -4.60341 0
M  V30 2425 H 231.602 -0.415345 -0.715134 0
M  V30 2426 H 234.148 -1.40952 -0.945018 0
M  V30 2427 H 232.92 -3.05339 -2.44711 0
M  V30 2428 H 232.543 -1.75507 -3.56767 0
M  V30 2429 N 233.54 1.10788 -1.12088 0
M  V30 2430 C 234.473 2.16237 -0.729168 0
M  V30 2431 C 235.451 1.60207 0.277921 0
M  V30 2432 O 236.635 1.87707 0.172737 0
M  V30 2433 C 233.762 3.38609 -0.0786848 0
M  V30 2434 C 232.808 4.13322 -1.05201 0
M  V30 2435 S 233.641 4.69371 -2.57781 0
M  V30 2436 C 234.797 5.95058 -1.94053 0
M  V30 2437 H 235.03 2.4913 -1.62239 0
M  V30 2438 H 232.563 1.22519 -0.939603 0
M  V30 2439 H 234.521 4.09473 0.290254 0
M  V30 2440 H 233.182 3.03962 0.791593 0
M  V30 2441 H 232.375 5.01051 -0.544433 0
M  V30 2442 H 231.977 3.48251 -1.36371 0
M  V30 2443 H 234.269 6.65278 -1.28107 0
M  V30 2444 H 235.212 6.50472 -2.79807 0
M  V30 2445 H 235.62 5.46918 -1.39787 0
M  V30 2446 N 235.018 0.912232 1.28515 0
M  V30 2447 C 236.265 0.544599 1.95039 0
M  V30 2448 C 236.593 -0.911435 1.71823 0
M  V30 2449 O 235.848 -1.66317 1.03137 0
M  V30 2450 C 236.147 0.798392 3.48368 0
M  V30 2451 C 235.813 2.23374 3.91682 0
M  V30 2452 C 234.475 2.62617 4.03219 0
M  V30 2453 C 236.827 3.16786 4.13879 0
M  V30 2454 C 234.155 3.94429 4.3433 0
M  V30 2455 C 236.507 4.48161 4.46469 0
M  V30 2456 C 235.171 4.8726 4.56217 0
M  V30 2457 H 234.441 0.199283 0.7137 0
M  V30 2458 H 237.088 1.15327 1.52879 0
M  V30 2459 H 235.393 0.106908 3.91654 0
M  V30 2460 H 237.09 0.493141 3.97956 0
M  V30 2461 H 233.68 1.91922 3.83228 0
M  V30 2462 H 237.864 2.87677 4.0442 0
M  V30 2463 H 233.12 4.24426 4.40082 0
M  V30 2464 H 237.294 5.20559 4.62592 0
M  V30 2465 H 234.921 5.89431 4.80078 0
M  V30 2466 N 236.496 -1.42363 0.676048 0
M  V30 2467 C 237.721 -2.06377 0.205705 0
M  V30 2468 C 238.146 -1.50463 -1.12883 0
M  V30 2469 O 237.504 -0.623619 -1.70237 0
M  V30 2470 C 237.552 -3.60277 0.152655 0
M  V30 2471 O 236.656 -4.02935 -0.87845 0
M  V30 2472 H 235.997 -0.655588 0.105359 0
M  V30 2473 H 238.527 -1.82475 0.925412 0
M  V30 2474 H 238.537 -4.07993 -0.0230675 0
M  V30 2475 H 237.212 -4.00346 1.12675 0
M  V30 2476 H 235.789 -3.66764 -0.673668 0
M  V30 2477 N 237.974 -0.419461 -1.51915 0
M  V30 2478 C 239.222 0.152637 -2.01523 0
M  V30 2479 C 239.543 1.44762 -1.30649 0
M  V30 2480 O 238.813 1.90997 -0.435535 0
M  V30 2481 H 237.393 0.0593966 -0.744635 0
M  V30 2482 H 240.055 -0.558073 -1.86739 0
M  V30 2483 H 239.151 0.341369 -3.10227 0
M  V30 2484 N 239.452 1.56882 -0.150215 0
M  V30 2485 C 240.415 2.1573 0.774157 0
M  V30 2486 C 241.415 1.0999 1.17298 0
M  V30 2487 O 242.605 1.35613 1.09338 0
M  V30 2488 C 239.737 2.72302 2.05096 0
M  V30 2489 H 240.93 2.98752 0.262201 0
M  V30 2490 H 238.483 1.55985 0.099248 0
M  V30 2491 H 239.218 1.92956 2.6065 0
M  V30 2492 H 239.003 3.49665 1.77416 0
M  V30 2493 H 240.493 3.17632 2.71109 0
M  V30 2494 N 240.93 -0.123565 1.57115 0
M  V30 2495 C 242.176 -0.833386 1.84885 0
M  V30 2496 C 242.509 -1.79742 0.735292 0
M  V30 2497 O 241.784 -1.92764 -0.25925 0
M  V30 2498 C 242.067 -1.5873 3.23228 0
M  V30 2499 C 241.92 -0.643183 4.45178 0
M  V30 2500 C 243.239 -2.54453 3.59085 0
M  V30 2501 H 240.358 -0.301518 0.6725 0
M  V30 2502 H 243 -0.097778 1.89748 0
M  V30 2503 H 241.15 -2.21438 3.19214 0
M  V30 2504 H 242.822 -0.0253015 4.61293 0
M  V30 2505 H 241.065 0.0456139 4.33776 0
M  V30 2506 H 241.736 -1.20724 5.38637 0
M  V30 2507 H 244.212 -2.01853 3.63861 0
M  V30 2508 H 243.088 -3.04238 4.5687 0
M  V30 2509 H 243.349 -3.36906 2.86264 0
M  V30 2510 N 242.408 -1.52605 -0.393616 0
M  V30 2511 C 243.655 -1.67424 -1.1391 0
M  V30 2512 C 243.983 -0.411859 -1.90089 0
M  V30 2513 O 243.238 0.605626 -1.86093 0
M  V30 2514 C 243.537 -2.85721 -2.14705 0
M  V30 2515 C 243.203 -4.23342 -1.55218 0
M  V30 2516 C 241.865 -4.60771 -1.3872 0
M  V30 2517 C 244.217 -5.09041 -1.11924 0
M  V30 2518 C 241.545 -5.81563 -0.774689 0
M  V30 2519 C 243.897 -6.30452 -0.520853 0
M  V30 2520 C 242.561 -6.66617 -0.343134 0
M  V30 2521 H 241.831 -0.612648 -0.416826 0
M  V30 2522 H 244.478 -1.8674 -0.424315 0
M  V30 2523 H 242.783 -2.60803 -2.92385 0
M  V30 2524 H 244.48 -2.94382 -2.72288 0
M  V30 2525 H 241.07 -3.93855 -1.69045 0
M  V30 2526 H 245.254 -4.80695 -1.23473 0
M  V30 2527 H 240.51 -6.08196 -0.625154 0
M  V30 2528 H 244.684 -6.96175 -0.177065 0
M  V30 2529 H 242.311 -7.60083 0.133571 0
M  V30 2530 N 243.887 0.651787 -1.4349 0
M  V30 2531 C 245.136 1.40754 -1.44469 0
M  V30 2532 C 245.449 1.95463 -0.0731845 0
M  V30 2533 O 246.655 2.71471 0.0395721 0
M  V30 2534 C 245.111 2.54735 -2.5424 0
M  V30 2535 C 244.719 2.06628 -3.97504 0
M  V30 2536 C 246.463 3.32092 -2.64414 0
M  V30 2537 C 244.37 3.17829 -4.98737 0
M  V30 2538 H 243.3 0.528862 -0.53742 0
M  V30 2539 H 245.951 0.703365 -1.69485 0
M  V30 2540 H 244.333 3.2763 -2.22428 0
M  V30 2541 H 245.507 1.40734 -4.38783 0
M  V30 2542 H 243.822 1.42146 -3.91387 0
M  V30 2543 H 246.419 4.14952 -3.37223 0
M  V30 2544 H 246.762 3.80217 -1.69532 0
M  V30 2545 H 247.295 2.66279 -2.95534 0
M  V30 2546 H 244.034 2.74671 -5.95177 0
M  V30 2547 H 243.554 3.82429 -4.62069 0
M  V30 2548 H 245.233 3.82937 -5.21505 0
M  V30 2549 N 245.365 1.30045 0.890287 0
M  V30 2550 C 246.297 1.11786 2.00091 0
M  V30 2551 C 247.31 0.0626307 1.62679 0
M  V30 2552 O 248.499 0.308112 1.75821 0
M  V30 2553 C 245.599 0.681527 3.31977 0
M  V30 2554 C 244.772 1.81735 3.97858 0
M  V30 2555 C 243.831 1.37045 5.08041 0
M  V30 2556 O 242.857 2.07677 5.29961 0
M  V30 2557 N 244.059 0.246525 5.79976 0
M  V30 2558 H 246.824 2.07441 2.16306 0
M  V30 2559 H 244.385 1.2211 1.06305 0
M  V30 2560 H 246.377 0.365675 4.03045 0
M  V30 2561 H 244.947 -0.182828 3.12065 0
M  V30 2562 H 244.167 2.30159 3.20032 0
M  V30 2563 H 245.455 2.57865 4.38615 0
M  V30 2564 H 244.853 -0.34215 5.64664 0
M  V30 2565 H 243.41 -0.00990438 6.51799 0
M  V30 2566 N 246.843 -1.10192 1.12674 0
M  V30 2567 C 247.775 -2.16418 0.754701 0
M  V30 2568 C 248.788 -1.61309 -0.21986 0
M  V30 2569 O 249.977 -1.785 -0.000826841 0
M  V30 2570 C 247.077 -3.38762 0.096698 0
M  V30 2571 C 246.25 -4.23307 1.10136 0
M  V30 2572 C 245.309 -5.24092 0.470513 0
M  V30 2573 O 244.335 -5.57906 1.12824 0
M  V30 2574 N 245.537 -5.75491 -0.760948 0
M  V30 2575 H 248.302 -2.48943 1.66875 0
M  V30 2576 H 245.863 -1.25834 1.01869 0
M  V30 2577 H 247.855 -4.03291 -0.337384 0
M  V30 2578 H 246.425 -3.04192 -0.720153 0
M  V30 2579 H 245.645 -3.55036 1.71299 0
M  V30 2580 H 246.933 -4.76624 1.78064 0
M  V30 2581 H 246.331 -5.50222 -1.31424 0
M  V30 2582 H 244.888 -6.41792 -1.13781 0
M  V30 2583 N 248.321 -0.919034 -1.28029 0
M  V30 2584 C 249.284 -0.416182 -2.2539 0
M  V30 2585 C 250.284 0.460438 -1.54067 0
M  V30 2586 O 251.474 0.262744 -1.72207 0
M  V30 2587 C 248.606 0.402707 -3.38513 0
M  V30 2588 H 249.799 -1.27629 -2.71387 0
M  V30 2589 H 247.352 -0.698919 -1.39803 0
M  V30 2590 H 248.087 1.282 -2.97885 0
M  V30 2591 H 247.872 -0.225698 -3.9145 0
M  V30 2592 H 249.362 0.745191 -4.10897 0
M  V30 2593 N 249.799 1.42003 -0.683588 0
M  V30 2594 C 250.729 2.33487 -0.024866 0
M  V30 2595 C 251.71 1.51163 0.779975 0
M  V30 2596 O 252.895 1.79739 0.735362 0
M  V30 2597 C 250.025 3.3487 0.920836 0
M  V30 2598 C 248.979 4.27414 0.223958 0
M  V30 2599 C 248.305 5.19074 1.2832 0
M  V30 2600 C 249.605 5.14445 -0.90242 0
M  V30 2601 H 251.299 2.88819 -0.788921 0
M  V30 2602 H 248.845 1.38873 -0.38083 0
M  V30 2603 H 250.798 3.97787 1.39081 0
M  V30 2604 H 249.522 2.77861 1.71642 0
M  V30 2605 H 248.181 3.65904 -0.225864 0
M  V30 2606 H 247.829 4.58387 2.071 0
M  V30 2607 H 247.529 5.81822 0.821995 0
M  V30 2608 H 249.053 5.84867 1.75392 0
M  V30 2609 H 250.467 5.70998 -0.513272 0
M  V30 2610 H 248.864 5.86072 -1.28997 0
M  V30 2611 H 249.934 4.52322 -1.74737 0
M  V30 2612 N 251.277 0.427512 1.51691 0
M  V30 2613 C 252.525 -0.141948 2.01601 0
M  V30 2614 C 252.846 -1.44067 1.31414 0
M  V30 2615 O 252.116 -1.90763 0.445658 0
M  V30 2616 H 250.696 -0.0554468 0.744939 0
M  V30 2617 H 253.358 0.567968 1.86441 0
M  V30 2618 H 252.454 -0.324913 3.10404 0
M  V30 2619 N 252.755 -1.56801 0.158532 0
M  V30 2620 C 254.001 -1.97559 -0.483957 0
M  V30 2621 C 254.356 -1.04239 -1.61716 0
M  V30 2622 O 253.649 -0.079603 -1.91435 0
M  V30 2623 C 253.843 -3.4235 -1.02623 0
M  V30 2624 C 253.672 -4.49669 0.0528929 0
M  V30 2625 C 252.442 -5.02838 0.498234 0
M  V30 2626 C 254.64 -5.0725 0.848616 0
M  V30 2627 N 252.622 -5.93775 1.559 0
M  V30 2628 C 253.993 -5.94506 1.7596 0
M  V30 2629 C 256.048 -4.89788 0.895121 0
M  V30 2630 C 254.751 -6.66169 2.71314 0
M  V30 2631 C 256.777 -5.62161 1.83654 0
M  V30 2632 C 256.139 -6.49134 2.73503 0
M  V30 2633 H 252.238 -0.768332 -0.145566 0
M  V30 2634 H 254.822 -1.93012 0.255799 0
M  V30 2635 H 252.993 -3.47467 -1.73555 0
M  V30 2636 H 254.725 -3.70145 -1.63629 0
M  V30 2637 H 251.48 -4.73498 0.0983222 0
M  V30 2638 H 251.904 -6.43948 2.08949 0
M  V30 2639 H 256.546 -4.22255 0.21453 0
M  V30 2640 H 254.264 -7.32923 3.40367 0
M  V30 2641 H 257.85 -5.5064 1.87847 0
M  V30 2642 H 256.73 -7.04153 3.45163 0
M  V30 2643 N 254.233 0.115231 -1.57178 0
M  V30 2644 C 255.181 1.16014 -2.01602 0
M  V30 2645 C 256.175 1.42653 -0.913587 0
M  V30 2646 O 257.381 1.42571 -1.09879 0
M  V30 2647 H 253.756 0.391252 -0.642204 0
M  V30 2648 H 255.727 0.758998 -2.88586 0
M  V30 2649 C 254.476 2.47767 -2.4394 0
M  V30 2650 H 253.799 2.28108 -3.28339 0
M  V30 2651 H 255.239 3.19432 -2.78818 0
M  V30 2652 C 253.698 3.10617 -1.30455 0
M  V30 2653 O 254.228 3.96846 -0.622585 0
M  V30 2654 N 252.434 2.70553 -1.06064 0
M  V30 2655 H 251.981 2.00527 -1.61699 0
M  V30 2656 H 251.939 3.12934 -0.303284 0
M  V30 2657 N 255.711 1.52812 0.385517 0
M  V30 2658 C 256.96 1.67249 1.12741 0
M  V30 2659 C 257.273 0.4205 1.91027 0
M  V30 2660 O 258.479 0.445064 2.67827 0
M  V30 2661 C 256.935 2.95583 2.05326 0
M  V30 2662 C 256.543 4.27974 1.32447 0
M  V30 2663 C 258.287 3.19386 2.7963 0
M  V30 2664 C 256.194 5.47412 2.23818 0
M  V30 2665 H 255.124 0.6231 0.424573 0
M  V30 2666 H 257.775 1.79309 0.389924 0
M  V30 2667 H 256.157 2.77277 2.82725 0
M  V30 2668 H 257.331 4.56844 0.602495 0
M  V30 2669 H 255.646 4.10459 0.700885 0
M  V30 2670 H 258.243 4.05801 3.48181 0
M  V30 2671 H 258.586 2.34604 3.43899 0
M  V30 2672 H 259.119 3.38274 2.09322 0
M  V30 2673 H 255.858 6.34612 1.64157 0
M  V30 2674 H 255.378 5.22849 2.93921 0
M  V30 2675 H 257.057 5.81423 2.83824 0
M  V30 2676 N 257.189 -0.644168 1.43834 0
M  V30 2677 C 258.419 -1.42939 1.49171 0
M  V30 2678 C 258.827 -1.88874 0.111048 0
M  V30 2679 O 258.17 -1.60656 -0.8908 0
M  V30 2680 C 258.232 -2.69151 2.38324 0
M  V30 2681 C 257.896 -2.45097 3.85715 0
M  V30 2682 C 258.893 -2.07747 4.76589 0
M  V30 2683 C 256.578 -2.59141 4.30292 0
M  V30 2684 C 258.572 -1.8475 6.10038 0
M  V30 2685 C 256.259 -2.35759 5.63792 0
M  V30 2686 C 257.257 -1.9862 6.53482 0
M  V30 2687 O 256.945 -1.75489 7.84512 0
M  V30 2688 H 256.677 -0.445271 0.508635 0
M  V30 2689 H 259.231 -0.79621 1.8934 0
M  V30 2690 H 257.461 -3.3506 1.93058 0
M  V30 2691 H 259.15 -3.31123 2.3476 0
M  V30 2692 H 259.916 -1.96465 4.43426 0
M  V30 2693 H 255.795 -2.87022 3.60749 0
M  V30 2694 H 259.339 -1.55686 6.80006 0
M  V30 2695 H 255.236 -2.46646 5.9652 0
M  V30 2696 H 256.004 -1.89841 7.9618 0
M  V30 2697 N 258.668 -1.30515 -0.883378 0
M  V30 2698 C 259.631 -1.1701 -1.97082 0
M  V30 2699 C 260.631 -0.10089 -1.60483 0
M  V30 2700 O 261.821 -0.349127 -1.70666 0
M  V30 2701 C 258.953 -0.793045 -3.31547 0
M  V30 2702 H 260.146 -2.13622 -2.10489 0
M  V30 2703 H 257.699 -1.13935 -1.06998 0
M  V30 2704 H 258.434 0.172499 -3.23841 0
M  V30 2705 H 258.219 -1.56576 -3.5948 0
M  V30 2706 H 259.709 -0.722073 -4.1131 0
M  V30 2707 N 260.146 1.09593 -1.13257 0
M  V30 2708 C 261.371 1.8604 -0.916732 0
M  V30 2709 C 261.796 1.80504 0.529146 0
M  V30 2710 O 261.154 1.18127 1.37534 0
M  V30 2711 C 261.202 3.32017 -1.40703 0
M  V30 2712 O 260.306 4.08141 -0.591153 0
M  V30 2713 H 259.647 0.576943 -0.328683 0
M  V30 2714 H 262.177 1.38405 -1.50682 0
M  V30 2715 H 262.187 3.82865 -1.4099 0
M  V30 2716 H 260.862 3.35361 -2.45979 0
M  V30 2717 H 259.439 3.67084 -0.656005 0
M  V30 2718 N 261.624 0.925811 1.2754 0
M  V30 2719 C 262.87 0.566092 1.94739 0
M  V30 2720 C 263.203 -0.890057 1.72603 0
M  V30 2721 O 262.478 -1.63467 1.05399 0
M  V30 2722 C 262.761 0.89054 3.48915 0
M  V30 2723 C 262.614 2.4003 3.80402 0
M  V30 2724 C 263.933 0.395101 4.38323 0
M  V30 2725 H 261.052 0.20714 0.707292 0
M  V30 2726 H 263.694 1.15725 1.50691 0
M  V30 2727 H 261.844 0.387452 3.86563 0
M  V30 2728 H 263.516 2.97494 3.52555 0
M  V30 2729 H 261.759 2.85028 3.2702 0
M  V30 2730 H 262.43 2.57785 4.8811 0
M  V30 2731 H 264.906 0.826241 4.07814 0
M  V30 2732 H 263.782 0.651086 5.45025 0
M  V30 2733 H 264.043 -0.704798 4.36446 0
M  V30 2734 N 263.102 -1.41638 0.69111 0
M  V30 2735 C 264.351 -2.00526 0.217318 0
M  V30 2736 C 264.664 -1.55353 -1.18848 0
M  V30 2737 O 265.87 -2.06769 -1.75951 0
M  V30 2738 C 264.326 -3.58313 0.337639 0
M  V30 2739 C 263.934 -4.12469 1.74852 0
M  V30 2740 C 265.678 -4.24431 -0.0766066 0
M  V30 2741 C 263.585 -5.62675 1.82074 0
M  V30 2742 H 262.515 -0.750008 0.0774893 0
M  V30 2743 H 265.166 -1.6217 0.858661 0
M  V30 2744 H 263.548 -3.9425 -0.371879 0
M  V30 2745 H 264.722 -3.8796 2.48644 0
M  V30 2746 H 263.037 -3.58861 2.11205 0
M  V30 2747 H 265.634 -5.34683 -0.0430284 0
M  V30 2748 H 265.977 -4.01101 -1.1146 0
M  V30 2749 H 266.51 -3.93512 0.582476 0
M  V30 2750 H 263.249 -5.90826 2.83911 0
M  V30 2751 H 262.769 -5.89124 1.12661 0
M  V30 2752 H 264.448 -6.27371 1.58159 0
M  V30 2753 N 264.58 -0.43555 -1.51462 0
M  V30 2754 C 265.543 0.365137 -2.26273 0
M  V30 2755 C 266.543 0.951227 -1.29647 0
M  V30 2756 O 267.733 0.825958 -1.53374 0
M  V30 2757 C 264.865 1.51645 -3.05314 0
M  V30 2758 H 266.058 -0.290474 -2.9849 0
M  V30 2759 H 263.611 -0.188676 -1.55157 0
M  V30 2760 H 264.346 2.20816 -2.3751 0
M  V30 2761 H 264.131 1.10238 -3.76284 0
M  V30 2762 H 265.621 2.08218 -3.61987 0
M  V30 2763 N 266.058 1.56714 -0.166846 0
M  V30 2764 C 266.988 2.20754 0.760913 0
M  V30 2765 C 267.969 1.16178 1.24244 0
M  V30 2766 O 269.154 1.44592 1.29641 0
M  V30 2767 C 266.284 2.84478 1.99223 0
M  V30 2768 C 265.238 3.95053 1.64672 0
M  V30 2769 C 264.564 4.45805 2.95232 0
M  V30 2770 C 265.864 5.14865 0.878155 0
M  V30 2771 H 267.558 2.98537 0.22713 0
M  V30 2772 H 265.104 1.43596 0.107805 0
M  V30 2773 H 267.057 3.27951 2.64624 0
M  V30 2774 H 265.781 2.04056 2.55007 0
M  V30 2775 H 264.44 3.52228 1.01641 0
M  V30 2776 H 264.088 3.62181 3.49047 0
M  V30 2777 H 263.788 5.204 2.7287 0
M  V30 2778 H 265.312 4.91962 3.6167 0
M  V30 2779 H 266.726 5.55059 1.43466 0
M  V30 2780 H 265.123 5.95348 0.753738 0
M  V30 2781 H 266.193 4.84735 -0.126377 0
M  V30 2782 N 267.536 -0.106894 1.57237 0
M  V30 2783 C 268.466 -1.13148 2.04254 0
M  V30 2784 C 269.447 -1.42476 0.929224 0
M  V30 2785 O 270.632 -1.52709 1.19973 0
M  V30 2786 C 267.762 -2.4545 2.45706 0
M  V30 2787 C 266.716 -2.30558 3.60592 0
M  V30 2788 C 266.042 -3.67931 3.87983 0
M  V30 2789 C 267.342 -1.75597 4.91897 0
M  V30 2790 H 269.036 -0.740374 2.90101 0
M  V30 2791 H 266.582 -0.354696 1.39563 0
M  V30 2792 H 268.535 -3.17389 2.77205 0
M  V30 2793 H 267.259 -2.86475 1.56843 0
M  V30 2794 H 265.918 -1.61067 3.29322 0
M  V30 2795 H 265.566 -4.06462 2.96306 0
M  V30 2796 H 265.266 -3.58817 4.65322 0
M  V30 2797 H 266.79 -4.41356 4.21945 0
M  V30 2798 H 268.204 -2.37364 5.21854 0
M  V30 2799 H 266.601 -1.77272 5.73319 0
M  V30 2800 H 267.671 -0.714451 4.79608 0
M  V30 2801 N 269.014 -1.53014 -0.377408 0
M  V30 2802 C 270.262 -1.6829 -1.11906 0
M  V30 2803 C 270.583 -0.431206 -1.90173 0
M  V30 2804 O 269.853 0.554595 -1.87886 0
M  V30 2805 H 268.433 -0.620371 -0.416112 0
M  V30 2806 H 271.095 -1.90167 -0.426893 0
M  V30 2807 H 270.191 -2.53862 -1.8155 0
M  V30 2808 N 270.492 0.636531 -1.44174 0
M  V30 2809 C 271.741 1.39213 -1.45954 0
M  V30 2810 C 272.054 1.95374 -0.0939119 0
M  V30 2811 O 273.26 2.71498 0.0107767 0
M  V30 2812 C 271.716 2.52025 -2.56927 0
M  V30 2813 C 271.324 2.024 -3.99673 0
M  V30 2814 C 273.068 3.29269 -2.67922 0
M  V30 2815 C 270.975 3.12521 -5.0208 0
M  V30 2816 H 269.905 0.523132 -0.542999 0
M  V30 2817 H 272.556 0.685349 -1.70221 0
M  V30 2818 H 270.938 3.25253 -2.25891 0
M  V30 2819 H 272.112 1.36073 -4.40251 0
M  V30 2820 H 270.427 1.37987 -3.92872 0
M  V30 2821 H 273.024 4.11352 -3.41605 0
M  V30 2822 H 273.367 3.78397 -1.73555 0
M  V30 2823 H 273.9 2.63129 -2.98342 0
M  V30 2824 H 270.639 2.68343 -5.98057 0
M  V30 2825 H 270.159 3.77507 -4.66099 0
M  V30 2826 H 271.838 3.77385 -5.25538 0
M  V30 2827 N 271.97 1.30982 0.876444 0
M  V30 2828 C 273.198 1.23242 1.6619 0
M  V30 2829 C 273.613 -0.203345 1.87702 0
M  V30 2830 O 272.97 -1.13317 1.43057 0
M  V30 2831 C 273.021 1.96623 3.03351 0
M  V30 2832 O 272.742 3.34594 2.82804 0
M  V30 2833 C 274.243 1.95644 3.97792 0
M  V30 2834 H 271.463 0.426126 0.518322 0
M  V30 2835 H 274.007 1.7275 1.09442 0
M  V30 2836 H 272.162 1.50892 3.56806 0
M  V30 2837 H 272.576 3.71873 3.69879 0
M  V30 2838 H 274.05 2.51511 4.91372 0
M  V30 2839 H 274.527 0.937395 4.2908 0
M  V30 2840 H 275.133 2.41225 3.50272 0
M  V30 2841 N 273.449 -1.08991 1.13837 0
M  V30 2842 C 274.382 -2.15049 0.763477 0
M  V30 2843 C 275.36 -1.60629 -0.252398 0
M  V30 2844 O 276.544 -1.87958 -0.142853 0
M  V30 2845 C 273.671 -3.38441 0.132545 0
M  V30 2846 C 272.717 -4.11596 1.11763 0
M  V30 2847 S 273.55 -4.6521 2.65216 0
M  V30 2848 C 274.706 -5.91896 2.03495 0
M  V30 2849 H 274.939 -2.46518 1.66182 0
M  V30 2850 H 272.472 -1.21008 0.958976 0
M  V30 2851 H 274.43 -4.09883 -0.225074 0
M  V30 2852 H 273.091 -3.05182 -0.743135 0
M  V30 2853 H 272.284 -5.00121 0.624076 0
M  V30 2854 H 271.886 -3.46038 1.41894 0
M  V30 2855 H 274.178 -6.63156 1.38675 0
M  V30 2856 H 275.121 -6.45938 2.9012 0
M  V30 2857 H 275.529 -5.44625 1.48471 0
M  V30 2858 N 274.927 -0.932562 -1.27047 0
M  V30 2859 C 276.176 -0.571351 -1.93439 0
M  V30 2860 C 276.489 0.892467 -1.74053 0
M  V30 2861 O 277.695 1.36267 -2.34826 0
M  V30 2862 C 276.151 -0.97106 -3.46552 0
M  V30 2863 C 275.759 -2.4559 -3.74686 0
M  V30 2864 C 277.503 -0.681333 -4.18997 0
M  V30 2865 C 275.41 -2.79475 -5.21198 0
M  V30 2866 H 274.34 -0.209966 -0.724176 0
M  V30 2867 H 276.991 -1.13403 -1.44263 0
M  V30 2868 H 275.373 -0.336983 -3.94564 0
M  V30 2869 H 276.547 -3.13829 -3.37414 0
M  V30 2870 H 274.862 -2.71802 -3.15456 0
M  V30 2871 H 277.459 -0.910939 -5.26883 0
M  V30 2872 H 277.802 0.381628 -4.14547 0
M  V30 2873 H 278.335 -1.27473 -3.76823 0
M  V30 2874 H 275.074 -3.847 -5.30741 0
M  V30 2875 H 274.594 -2.1589 -5.596 0
M  V30 2876 H 276.273 -2.67478 -5.89122 0
M  V30 2877 N 276.405 1.4127 -0.698611 0
M  V30 2878 C 277.635 2.05205 -0.239644 0
M  V30 2879 C 278.043 1.52684 1.11733 0
M  V30 2880 O 277.386 0.671222 1.70998 0
M  V30 2881 C 277.448 3.59289 -0.123126 0
M  V30 2882 C 277.112 4.34619 -1.41263 0
M  V30 2883 C 278.109 4.63701 -2.35111 0
M  V30 2884 C 275.794 4.73837 -1.66684 0
M  V30 2885 C 277.788 5.30966 -3.52639 0
M  V30 2886 C 275.475 5.40837 -2.84498 0
M  V30 2887 C 276.473 5.69329 -3.77298 0
M  V30 2888 O 276.161 6.34949 -4.93047 0
M  V30 2889 H 275.893 0.66723 -0.108537 0
M  V30 2890 H 278.447 1.81974 -0.952602 0
M  V30 2891 H 276.677 3.81272 0.645628 0
M  V30 2892 H 278.366 4.04797 0.299056 0
M  V30 2893 H 279.132 4.33882 -2.16729 0
M  V30 2894 H 275.011 4.51039 -0.953135 0
M  V30 2895 H 278.555 5.53121 -4.25091 0
M  V30 2896 H 274.452 5.70075 -3.02795 0
M  V30 2897 H 275.22 6.53445 -4.92902 0
M  V30 2898 N 277.883 0.443576 1.51229 0
M  V30 2899 C 279.111 -0.11929 2.06556 0
M  V30 2900 C 279.526 -1.35921 1.31038 0
M  V30 2901 O 278.883 -1.78675 0.371704 0
M  V30 2902 C 278.934 -0.435228 3.5887 0
M  V30 2903 O 278.655 0.755486 4.31537 0
M  V30 2904 C 280.156 -1.04808 4.30732 0
M  V30 2905 H 277.376 -0.0051584 0.67098 0
M  V30 2906 H 279.92 0.624453 1.94733 0
M  V30 2907 H 278.075 -1.12887 3.70588 0
M  V30 2908 H 278.489 0.483491 5.22267 0
M  V30 2909 H 279.963 -1.2191 5.3837 0
M  V30 2910 H 280.44 -2.03081 3.89429 0
M  V30 2911 H 281.046 -0.393637 4.23474 0
M  V30 2912 N 279.361 -1.56624 0.175154 0
M  V30 2913 C 280.607 -1.9729 -0.469506 0
M  V30 2914 C 280.94 -1.06128 -1.62636 0
M  V30 2915 O 280.215 -0.109183 -1.94193 0
M  V30 2916 C 280.498 -3.47375 -0.948804 0
M  V30 2917 C 280.351 -4.49317 0.208491 0
M  V30 2918 C 281.67 -4.00652 -1.82116 0
M  V30 2919 H 278.789 -0.717317 -0.16919 0
M  V30 2920 H 281.431 -1.88184 0.262062 0
M  V30 2921 H 279.581 -3.55267 -1.57219 0
M  V30 2922 H 281.253 -4.53482 0.845682 0
M  V30 2923 H 279.496 -4.25121 0.863395 0
M  V30 2924 H 280.167 -5.51741 -0.169059 0
M  V30 2925 H 282.643 -3.95416 -1.2956 0
M  V30 2926 H 281.519 -5.06075 -2.12554 0
M  V30 2927 H 281.78 -3.44699 -2.7683 0
M  V30 2928 N 280.839 0.0985539 -1.57292 0
M  V30 2929 C 282.067 0.816318 -1.90115 0
M  V30 2930 C 282.482 1.72451 -0.768509 0
M  V30 2931 O 281.839 1.80643 0.259687 0
M  V30 2932 C 281.89 1.63259 -3.22535 0
M  V30 2933 O 281.611 0.760934 -4.31441 0
M  V30 2934 C 283.112 2.45372 -3.69199 0
M  V30 2935 H 280.332 0.233595 -0.629027 0
M  V30 2936 H 282.876 0.0768229 -2.04356 0
M  V30 2937 H 281.031 2.32463 -3.09903 0
M  V30 2938 H 281.445 1.32595 -5.07463 0
M  V30 2939 H 282.919 2.98144 -4.64558 0
M  V30 2940 H 283.396 3.23677 -2.96867 0
M  V30 2941 H 284.002 1.81373 -3.84687 0
M  V30 2942 N 282.317 1.53212 0.369288 0
M  V30 2943 C 283.565 1.68881 1.11012 0
M  V30 2944 C 283.886 0.441285 1.89941 0
M  V30 2945 O 283.156 -0.544623 1.88177 0
M  V30 2946 H 281.736 0.622569 0.412816 0
M  V30 2947 H 284.398 1.90391 0.416802 0
M  V30 2948 H 283.494 2.54822 1.80201 0
M  V30 2949 N 283.795 -0.628877 1.44509 0
M  V30 2950 C 285.043 -1.38565 1.4712 0
M  V30 2951 C 285.364 -1.94712 0.105899 0
M  V30 2952 O 284.634 -1.75912 -0.862079 0
M  V30 2953 H 283.214 -0.514333 0.541729 0
M  V30 2954 H 285.876 -0.740018 1.80305 0
M  V30 2955 H 284.972 -2.21583 2.19789 0
M  V30 2956 N 285.273 -1.31445 -0.869486 0
M  V30 2957 C 286.203 -1.21727 -1.99261 0
M  V30 2958 C 287.184 -0.104359 -1.6978 0
M  V30 2959 O 288.369 -0.289038 -1.92037 0
M  V30 2960 C 285.499 -0.924317 -3.34774 0
M  V30 2961 C 284.453 -1.99685 -3.78563 0
M  V30 2962 C 283.779 -1.55658 -5.11541 0
M  V30 2963 C 285.079 -3.41003 -3.95619 0
M  V30 2964 H 286.773 -2.1569 -2.07649 0
M  V30 2965 H 284.319 -1.03839 -0.997675 0
M  V30 2966 H 286.272 -0.842934 -4.12883 0
M  V30 2967 H 284.996 0.0509793 -3.2656 0
M  V30 2968 H 283.655 -2.06813 -3.02694 0
M  V30 2969 H 283.303 -0.569132 -4.9977 0
M  V30 2970 H 283.003 -2.27409 -5.41811 0
M  V30 2971 H 284.527 -1.48928 -5.92159 0
M  V30 2972 H 285.941 -3.36547 -4.64122 0
M  V30 2973 H 284.338 -4.10975 -4.37286 0
M  V30 2974 H 285.408 -3.81754 -2.98985 0
M  V30 2975 N 286.751 1.08385 -1.14413 0
M  V30 2976 C 287.714 2.13486 -0.834048 0
M  V30 2977 C 288.714 1.59988 0.161418 0
M  V30 2978 O 289.904 1.74071 -0.0669575 0
M  V30 2979 C 287.036 3.4003 -0.243354 0
M  V30 2980 H 288.229 2.42425 -1.7655 0
M  V30 2981 H 285.782 1.24101 -0.950189 0
M  V30 2982 H 286.517 3.16726 0.696807 0
M  V30 2983 H 286.302 3.80157 -0.960367 0
M  V30 2984 H 287.792 4.17577 -0.0436242 0
M  V30 2985 N 288.23 0.939286 1.26551 0
M  V30 2986 C 289.193 0.451987 2.24699 0
M  V30 2987 C 290.193 -0.435869 1.5478 0
M  V30 2988 O 291.383 -0.235314 1.72603 0
M  V30 2989 C 288.515 -0.348801 3.39111 0
M  V30 2990 H 289.708 1.3193 2.69322 0
M  V30 2991 H 287.261 0.721072 1.38673 0
M  V30 2992 H 287.996 -1.23444 2.99887 0
M  V30 2993 H 287.781 0.287945 3.91041 0
M  V30 2994 H 289.271 -0.679726 4.12031 0
M  V30 2995 N 289.708 -1.40897 0.706093 0
M  V30 2996 C 290.638 -2.33418 0.0620085 0
M  V30 2997 C 291.619 -1.52385 -0.755827 0
M  V30 2998 O 292.804 -1.80886 -0.706674 0
M  V30 2999 C 289.934 -3.36293 -0.867445 0
M  V30 3000 C 288.888 -4.27716 -0.155932 0
M  V30 3001 C 288.214 -5.2105 -1.20046 0
M  V30 3002 C 289.514 -5.12944 0.984149 0
M  V30 3003 H 291.208 -2.87527 0.83477 0
M  V30 3004 H 288.754 -1.38249 0.402875 0
M  V30 3005 H 290.707 -3.99949 -1.32735 0
M  V30 3006 H 289.431 -2.80556 -1.67199 0
M  V30 3007 H 288.09 -3.65498 0.284047 0
M  V30 3008 H 287.738 -4.61624 -1.99781 0
M  V30 3009 H 287.438 -5.83056 -0.729328 0
M  V30 3010 H 288.962 -5.87584 -1.66066 0
M  V30 3011 H 290.376 -5.70109 0.604048 0
M  V30 3012 H 288.773 -5.83945 1.38304 0
M  V30 3013 H 289.843 -4.49485 1.81911 0
M  V30 3014 N 291.186 -0.45159 -1.50991 0
M  V30 3015 C 292.119 0.398179 -2.24699 0
M  V30 3016 C 293.097 1.01276 -1.27208 0
M  V30 3017 O 294.281 1.05247 -1.56382 0
M  V30 3018 C 291.408 1.55618 -3.00833 0
M  V30 3019 C 290.454 1.0609 -4.13095 0
M  V30 3020 S 291.287 -0.00865136 -5.35499 0
M  V30 3021 C 292.443 1.15369 -6.15175 0
M  V30 3022 H 292.676 -0.227555 -2.96428 0
M  V30 3023 H 290.209 -0.236251 -1.52582 0
M  V30 3024 H 292.167 2.21997 -3.45293 0
M  V30 3025 H 290.828 2.15337 -2.28667 0
M  V30 3026 H 290.021 1.92726 -4.65696 0
M  V30 3027 H 289.623 0.47513 -3.7097 0
M  V30 3028 H 291.915 2.06925 -6.45126 0
M  V30 3029 H 292.858 0.667344 -7.04948 0
M  V30 3030 H 293.266 1.3987 -5.46897 0
M  V30 3031 N 292.664 1.56529 -0.183458 0
M  V30 3032 C 293.894 2.01331 0.463612 0
M  V30 3033 C 294.302 1.06278 1.5653 0
M  V30 3034 O 293.645 0.0577976 1.83609 0
M  V30 3035 C 293.707 3.42547 1.09096 0
M  V30 3036 C 293.371 4.56817 0.129442 0
M  V30 3037 C 294.368 5.15734 -0.656807 0
M  V30 3038 C 292.053 5.02295 0.02174 0
M  V30 3039 C 294.047 6.1857 -1.53784 0
M  V30 3040 C 291.734 6.04978 -0.862864 0
M  V30 3041 C 292.732 6.62988 -1.64123 0
M  V30 3042 O 292.42 7.63677 -2.51103 0
M  V30 3043 H 292.152 0.664917 0.121907 0
M  V30 3044 H 294.706 2.034 -0.285954 0
M  V30 3045 H 292.936 3.37428 1.88889 0
M  V30 3046 H 294.625 3.71228 1.64148 0
M  V30 3047 H 295.391 4.81473 -0.583839 0
M  V30 3048 H 291.27 4.56847 0.617392 0
M  V30 3049 H 294.814 6.63777 -2.14583 0
M  V30 3050 H 290.711 6.38663 -0.93699 0
M  V30 3051 H 291.479 7.81049 -2.44753 0
M  V30 3052 N 294.142 -0.090211 1.57342 0
M  V30 3053 C 295.37 -0.806224 1.90546 0
M  V30 3054 C 295.785 -1.72041 0.777644 0
M  V30 3055 O 295.142 -1.80778 -0.250103 0
M  V30 3056 C 295.193 -1.61546 3.23396 0
M  V30 3057 O 294.914 -0.738043 4.31839 0
M  V30 3058 C 296.415 -2.4341 3.70495 0
M  V30 3059 H 293.635 -0.230256 0.630257 0
M  V30 3060 H 296.179 -0.0659843 2.04394 0
M  V30 3061 H 294.334 -2.30816 3.11131 0
M  V30 3062 H 294.748 -1.29901 5.08159 0
M  V30 3063 H 296.222 -2.95676 4.66133 0
M  V30 3064 H 296.699 -3.22098 2.98579 0
M  V30 3065 H 297.305 -1.79331 3.85643 0
M  V30 3066 N 295.62 -1.53406 -0.361157 0
M  V30 3067 C 296.897 -1.60411 -1.11927 0
M  V30 3068 C 297.277 -0.414385 -2.06993 0
M  V30 3069 O 296.625 0.594976 -2.20618 0
M  V30 3070 C 296.835 -2.95652 -1.85448 0
M  V30 3071 C 298.183 -3.50386 -2.39823 0
M  V30 3072 O 299.207 -2.97711 -1.95568 0
M  V30 3073 O 298.066 -4.42482 -3.20737 0
M  V30 3074 H 295.16 -0.64811 -0.513695 0
M  V30 3075 H 297.706 -1.65749 -0.364065 0
M  V30 3076 H 296.478 -3.73682 -1.16091 0
M  V30 3077 H 296.101 -2.93825 -2.67866 0
M  V30 3078 N 297.098 0.621204 -1.44841 0
M  V30 3079 C 298.326 1.40752 -1.51646 0
M  V30 3080 C 298.741 1.88246 -0.144549 0
M  V30 3081 O 298.098 1.61422 0.851416 0
M  V30 3082 C 298.149 2.62119 -2.4895 0
M  V30 3083 O 297.87 2.16602 -3.80808 0
M  V30 3084 C 299.371 3.55135 -2.65319 0
M  V30 3085 H 296.591 0.431325 -0.514004 0
M  V30 3086 H 299.135 0.758835 -1.899 0
M  V30 3087 H 297.29 3.23058 -2.13805 0
M  V30 3088 H 297.704 2.95358 -4.33433 0
M  V30 3089 H 299.178 4.36874 -3.37409 0
M  V30 3090 H 299.655 4.04592 -1.70886 0
M  V30 3091 H 300.261 3.00058 -3.01405 0
M  V30 3092 N 298.576 1.31904 0.862503 0
M  V30 3093 C 299.822 1.22197 1.61851 0
M  V30 3094 C 300.155 -0.217641 1.92977 0
M  V30 3095 O 299.43 -1.15264 1.56666 0
M  V30 3096 C 299.713 2.07378 2.94391 0
M  V30 3097 C 299.566 3.59678 2.70096 0
M  V30 3098 C 300.885 1.92891 3.95577 0
M  V30 3099 H 298.004 0.445255 0.587296 0
M  V30 3100 H 300.646 1.6177 0.99651 0
M  V30 3101 H 298.796 1.73758 3.47477 0
M  V30 3102 H 300.468 4.03472 2.23625 0
M  V30 3103 H 298.711 3.82735 2.04197 0
M  V30 3104 H 299.382 4.14595 3.64438 0
M  V30 3105 H 301.858 2.22327 3.51724 0
M  V30 3106 H 300.734 2.54781 4.86187 0
M  V30 3107 H 300.995 0.894315 4.3296 0
M  V30 3108 N 300.054 -1.07777 1.14986 0
M  V30 3109 C 300.986 -2.14769 0.800436 0
M  V30 3110 C 301.999 -1.61739 -0.185595 0
M  V30 3111 O 303.188 -1.78462 0.0370358 0
M  V30 3112 C 300.288 -3.38481 0.168533 0
M  V30 3113 C 299.461 -4.20876 1.1909 0
M  V30 3114 C 298.52 -5.22976 0.581575 0
M  V30 3115 O 297.546 -5.55388 1.24633 0
M  V30 3116 N 298.748 -5.76976 -0.638706 0
M  V30 3117 H 301.513 -2.45348 1.72118 0
M  V30 3118 H 299.074 -1.23645 1.04515 0
M  V30 3119 H 301.066 -4.03916 -0.251764 0
M  V30 3120 H 299.636 -3.05651 -0.655467 0
M  V30 3121 H 298.856 -3.51322 1.78791 0
M  V30 3122 H 300.144 -4.7274 1.88133 0
M  V30 3123 H 299.542 -5.52886 -1.19723 0
M  V30 3124 H 298.099 -6.44061 -1.00142 0
M  V30 3125 N 301.532 -0.945985 -1.26051 0
M  V30 3126 C 302.76 -0.613025 -1.9761 0
M  V30 3127 C 303.175 0.813035 -1.70397 0
M  V30 3128 O 302.532 1.54274 -0.974979 0
M  V30 3129 C 302.583 -0.85159 -3.51326 0
M  V30 3130 O 302.304 -2.22157 -3.77595 0
M  V30 3131 C 303.805 -0.529831 -4.40122 0
M  V30 3132 H 301.025 -0.230593 -0.630133 0
M  V30 3133 H 303.569 -1.268 -1.60443 0
M  V30 3134 H 301.724 -0.243151 -3.86636 0
M  V30 3135 H 302.138 -2.2852 -4.721 0
M  V30 3136 H 303.612 -0.747348 -5.46917 0
M  V30 3137 H 304.089 0.535341 -4.35925 0
M  V30 3138 H 304.695 -1.11721 -4.10364 0
M  V30 3139 N 303.011 1.40521 -0.713556 0
M  V30 3140 C 304.258 2.00923 -0.25219 0
M  V30 3141 C 304.586 1.56571 1.15395 0
M  V30 3142 O 303.841 0.775874 1.79663 0
M  V30 3143 C 304.14 3.56317 -0.278 0
M  V30 3144 C 303.806 4.20246 -1.63415 0
M  V30 3145 C 302.468 4.37422 -2.00538 0
M  V30 3146 C 304.82 4.55923 -2.52554 0
M  V30 3147 C 302.148 4.87558 -3.2635 0
M  V30 3148 C 304.5 5.07458 -3.77716 0
M  V30 3149 C 303.164 5.22843 -4.14959 0
M  V30 3150 H 302.434 0.735231 -0.0922829 0
M  V30 3151 H 305.081 1.68161 -0.916188 0
M  V30 3152 H 303.386 3.88976 0.469567 0
M  V30 3153 H 305.083 4.00883 0.0967819 0
M  V30 3154 H 301.673 4.07263 -1.33546 0
M  V30 3155 H 305.857 4.42291 -2.25149 0
M  V30 3156 H 301.113 4.97654 -3.55176 0
M  V30 3157 H 305.287 5.34041 -4.4696 0
M  V30 3158 H 302.914 5.61454 -5.12516 0
M  V30 3159 N 304.489 0.459591 1.5075 0
M  V30 3160 C 305.735 -0.0994966 2.02556 0
M  V30 3161 C 306.068 -1.40399 1.3417 0
M  V30 3162 O 305.343 -1.88892 0.463683 0
M  V30 3163 C 305.626 -0.295242 3.58888 0
M  V30 3164 C 305.479 1.02947 4.37861 0
M  V30 3165 C 306.798 -1.05502 4.27267 0
M  V30 3166 H 303.917 -0.034686 0.736183 0
M  V30 3167 H 306.559 0.602938 1.8018 0
M  V30 3168 H 304.709 -0.893563 3.78084 0
M  V30 3169 H 306.381 1.66348 4.30263 0
M  V30 3170 H 304.624 1.62885 4.02058 0
M  V30 3171 H 305.295 0.846281 5.45474 0
M  V30 3172 H 307.771 -0.547993 4.12476 0
M  V30 3173 H 306.647 -1.16077 5.36486 0
M  V30 3174 H 306.908 -2.08875 3.89645 0
M  V30 3175 N 305.967 -1.56429 0.191757 0
M  V30 3176 C 307.216 -1.9666 -0.448088 0
M  V30 3177 C 307.529 -1.08136 -1.62991 0
M  V30 3178 O 308.735 -1.38135 -2.33733 0
M  V30 3179 C 307.191 -3.49753 -0.848585 0
M  V30 3180 C 306.799 -4.46935 0.308764 0
M  V30 3181 C 308.543 -3.9876 -1.4557 0
M  V30 3182 C 306.45 -5.91293 -0.112506 0
M  V30 3183 H 305.38 -0.734312 -0.171179 0
M  V30 3184 H 308.031 -1.81301 0.283242 0
M  V30 3185 H 306.413 -3.60604 -1.63649 0
M  V30 3186 H 307.587 -4.47813 1.08627 0
M  V30 3187 H 305.902 -4.08102 0.827158 0
M  V30 3188 H 308.499 -5.04086 -1.78328 0
M  V30 3189 H 308.842 -3.42875 -2.36099 0
M  V30 3190 H 309.375 -3.9101 -0.731836 0
M  V30 3191 H 306.114 -6.51097 0.758514 0
M  V30 3192 H 305.634 -5.93676 -0.854941 0
M  V30 3193 H 307.313 -6.44663 -0.549448 0
M  V30 3194 N 307.445 0.0818655 -1.57387 0
M  V30 3195 C 308.375 1.09885 -2.06028 0
M  V30 3196 C 309.356 1.4098 -0.951774 0
M  V30 3197 O 310.541 1.50781 -1.22387 0
M  V30 3198 C 307.671 2.4151 -2.4958 0
M  V30 3199 C 306.625 2.24792 -3.64215 0
M  V30 3200 C 305.951 3.61712 -3.93787 0
M  V30 3201 C 307.251 1.67749 -4.94629 0
M  V30 3202 H 308.945 0.694128 -2.91243 0
M  V30 3203 H 306.491 0.332448 -1.4011 0
M  V30 3204 H 308.444 3.12939 -2.82219 0
M  V30 3205 H 307.168 2.83943 -1.61381 0
M  V30 3206 H 305.827 1.55807 -3.31843 0
M  V30 3207 H 305.475 4.01697 -3.02735 0
M  V30 3208 H 305.175 3.51368 -4.70971 0
M  V30 3209 H 306.699 4.34587 -4.28913 0
M  V30 3210 H 308.113 2.29032 -5.25564 0
M  V30 3211 H 306.51 1.68128 -5.76067 0
M  V30 3212 H 307.58 0.638059 -4.80684 0
M  V30 3213 N 308.923 1.53595 0.353017 0
M  V30 3214 C 310.171 1.70049 1.09215 0
M  V30 3215 C 310.492 0.461406 1.89463 0
M  V30 3216 O 309.762 -0.524633 1.88744 0
M  V30 3217 H 308.342 0.626912 0.40619 0
M  V30 3218 H 311.004 1.90822 0.396585 0
M  V30 3219 H 310.1 2.56718 1.77488 0
M  V30 3220 N 310.401 -0.613514 1.45168 0
M  V30 3221 C 311.649 -1.36997 1.48581 0
M  V30 3222 C 311.97 -1.94589 0.126545 0
M  V30 3223 O 311.24 -1.76816 -0.843372 0
M  V30 3224 H 309.82 -0.508558 0.547154 0
M  V30 3225 H 312.482 -0.720853 1.81079 0
M  V30 3226 H 311.578 -2.1924 2.22127 0
M  V30 3227 N 311.879 -1.3236 -0.855495 0
M  V30 3228 C 312.842 -1.21164 -1.94556 0
M  V30 3229 C 313.842 -0.134908 -1.60233 0
M  V30 3230 O 315.032 -0.385249 -1.69887 0
M  V30 3231 C 312.164 -0.863192 -3.29791 0
M  V30 3232 H 313.357 -2.18038 -2.05911 0
M  V30 3233 H 310.91 -1.16179 -1.04557 0
M  V30 3234 H 311.645 0.103769 -3.24134 0
M  V30 3235 H 311.43 -1.64166 -3.56078 0
M  V30 3236 H 312.92 -0.809156 -4.09686 0
M  V30 3237 N 313.357 1.07166 -1.15556 0
M  V30 3238 C 314.597 1.81391 -0.94216 0
M  V30 3239 C 314.961 1.84788 0.521272 0
M  V30 3240 O 316.162 2.54904 0.85307 0
M  V30 3241 C 314.433 3.22431 -1.54185 0
M  V30 3242 S 315.992 4.13379 -1.47183 0
M  V30 3243 H 312.81 0.624963 -0.339031 0
M  V30 3244 H 315.412 1.28725 -1.4714 0
M  V30 3245 H 314.116 3.17548 -2.59984 0
M  V30 3246 H 313.647 3.80172 -1.01156 0
M  V30 3247 H 315.662 4.94007 -0.466004 0
M  V30 3248 N 314.835 0.952656 1.25548 0
M  V30 3249 C 316.084 0.602053 1.92505 0
M  V30 3250 C 316.397 -0.864663 1.75451 0
M  V30 3251 O 317.603 -1.32514 2.36965 0
M  V30 3252 C 316.059 1.02607 3.44963 0
M  V30 3253 C 315.667 2.51519 3.70732 0
M  V30 3254 C 317.411 0.747905 4.1786 0
M  V30 3255 C 315.318 2.87732 5.16686 0
M  V30 3256 H 314.248 0.22146 0.720744 0
M  V30 3257 H 316.899 1.15684 1.42441 0
M  V30 3258 H 315.281 0.399712 3.93978 0
M  V30 3259 H 316.455 3.19157 3.32378 0
M  V30 3260 H 314.77 2.76786 3.11092 0
M  V30 3261 H 317.367 0.994647 5.25367 0
M  V30 3262 H 317.71 -0.315629 4.15102 0
M  V30 3263 H 318.243 1.33452 3.74747 0
M  V30 3264 H 314.982 3.93095 5.24554 0
M  V30 3265 H 314.502 2.24765 5.56094 0
M  V30 3266 H 316.181 2.76817 5.84792 0
M  V30 3267 N 316.313 -1.40141 0.720998 0
M  V30 3268 C 317.243 -2.33339 0.0867621 0
M  V30 3269 C 318.224 -1.53178 -0.739622 0
M  V30 3270 O 319.409 -1.81625 -0.687449 0
M  V30 3271 C 316.539 -3.37194 -0.831728 0
M  V30 3272 C 315.493 -4.27857 -0.110558 0
M  V30 3273 C 314.819 -5.22294 -1.14513 0
M  V30 3274 C 316.119 -5.11872 1.0385 0
M  V30 3275 H 317.813 -2.86626 0.865219 0
M  V30 3276 H 315.359 -1.37814 0.417516 0
M  V30 3277 H 317.312 -4.01335 -1.28485 0
M  V30 3278 H 316.036 -2.82314 -1.64214 0
M  V30 3279 H 314.695 -3.65176 0.322797 0
M  V30 3280 H 314.343 -4.63717 -1.94874 0
M  V30 3281 H 314.043 -5.83797 -0.667446 0
M  V30 3282 H 315.567 -5.89312 -1.59824 0
M  V30 3283 H 316.981 -5.69436 0.664482 0
M  V30 3284 H 315.378 -5.82445 1.4449 0
M  V30 3285 H 316.448 -4.4753 1.86668 0
M  V30 3286 N 317.792 -0.46758 -1.50504 0
M  V30 3287 C 318.725 0.374324 -2.25109 0
M  V30 3288 C 319.703 0.99921 -1.28275 0
M  V30 3289 O 320.887 1.03583 -1.57489 0
M  V30 3290 C 318.014 1.52419 -3.02467 0
M  V30 3291 C 317.06 1.01702 -4.14197 0
M  V30 3292 S 317.893 -0.0654477 -5.3546 0
M  V30 3293 C 319.049 1.08837 -6.16365 0
M  V30 3294 H 319.282 -0.258983 -2.9617 0
M  V30 3295 H 316.815 -0.252421 -1.52323 0
M  V30 3296 H 318.773 2.18322 -3.47628 0
M  V30 3297 H 317.434 2.129 -2.30938 0
M  V30 3298 H 316.627 1.87776 -4.67714 0
M  V30 3299 H 316.229 0.435757 -3.71453 0
M  V30 3300 H 318.521 2.00071 -6.47285 0
M  V30 3301 H 319.464 0.592538 -7.05616 0
M  V30 3302 H 319.872 1.34061 -5.4835 0
M  V30 3303 N 319.27 1.56325 -0.20005 0
M  V30 3304 C 320.518 1.97329 0.436547 0
M  V30 3305 C 320.839 1.08826 1.61808 0
M  V30 3306 O 320.109 0.160604 1.95241 0
M  V30 3307 H 318.689 0.728714 0.164272 0
M  V30 3308 H 321.351 1.92761 -0.287937 0
M  V30 3309 H 320.447 3.02264 0.777353 0
M  V30 3310 N 320.748 -0.0735177 1.57428 0
M  V30 3311 C 321.978 -0.78483 1.91112 0
M  V30 3312 C 322.386 -1.71729 0.7941 0
M  V30 3313 O 321.729 -1.82105 -0.241542 0
M  V30 3314 C 321.791 -1.63346 3.20247 0
M  V30 3315 C 321.455 -0.870557 4.48632 0
M  V30 3316 C 322.452 -0.19058 5.19551 0
M  V30 3317 C 320.137 -0.838242 4.95256 0
M  V30 3318 C 322.131 0.511503 6.35344 0
M  V30 3319 C 319.818 -0.132386 6.10957 0
M  V30 3320 C 320.816 0.541288 6.80852 0
M  V30 3321 O 320.504 1.23578 7.94345 0
M  V30 3322 H 320.236 -0.228408 0.636244 0
M  V30 3323 H 322.79 -0.0486039 2.05342 0
M  V30 3324 H 321.02 -2.41245 3.02222 0
M  V30 3325 H 322.709 -2.22329 3.39595 0
M  V30 3326 H 323.475 -0.206864 4.84559 0
M  V30 3327 H 319.354 -1.35206 4.40727 0
M  V30 3328 H 322.898 1.03789 6.89836 0
M  V30 3329 H 318.795 -0.114023 6.45399 0
M  V30 3330 H 319.563 1.14487 8.10454 0
M  V30 3331 N 322.226 -1.5378 -0.344866 0
M  V30 3332 C 323.189 -1.80981 -1.40637 0
M  V30 3333 C 324.189 -0.680816 -1.45676 0
M  V30 3334 O 325.379 -0.949095 -1.46075 0
M  V30 3335 C 322.511 -1.95063 -2.79577 0
M  V30 3336 H 323.704 -2.75803 -1.17783 0
M  V30 3337 H 321.257 -1.45173 -0.579181 0
M  V30 3338 H 321.992 -1.02379 -3.07716 0
M  V30 3339 H 321.777 -2.77198 -2.77315 0
M  V30 3340 H 323.267 -2.17629 -3.56409 0
M  V30 3341 N 323.704 0.605807 -1.45491 0
M  V30 3342 C 324.951 1.36476 -1.49601 0
M  V30 3343 C 325.279 1.94007 -0.138452 0
M  V30 3344 O 324.534 1.75638 0.863114 0
M  V30 3345 C 324.833 2.53012 -2.52428 0
M  V30 3346 C 324.499 2.13617 -3.97087 0
M  V30 3347 C 323.161 2.02587 -4.36477 0
M  V30 3348 C 325.513 1.82899 -4.88055 0
M  V30 3349 C 322.841 1.59064 -5.64726 0
M  V30 3350 C 325.193 1.40861 -6.16718 0
M  V30 3351 C 323.857 1.28391 -6.55036 0
M  V30 3352 H 323.127 0.499402 -0.547429 0
M  V30 3353 H 325.774 0.684546 -1.78847 0
M  V30 3354 H 324.079 3.26379 -2.16758 0
M  V30 3355 H 325.776 3.1124 -2.52845 0
M  V30 3356 H 322.366 2.23129 -3.65939 0
M  V30 3357 H 326.55 1.90317 -4.58359 0
M  V30 3358 H 321.806 1.48034 -5.93208 0
M  V30 3359 H 325.98 1.16138 -6.86648 0
M  V30 3360 H 323.607 0.944403 -7.54311 0
M  V30 3361 N 325.182 1.32811 0.848464 0
M  V30 3362 C 326.132 1.18842 1.94578 0
M  V30 3363 C 327.116 0.0937517 1.60627 0
M  V30 3364 O 328.308 0.320887 1.74067 0
M  V30 3365 C 325.437 0.91999 3.30743 0
M  V30 3366 C 324.523 2.05665 3.70894 0
M  V30 3367 N 324.914 3.30579 3.8282 0
M  V30 3368 C 323.212 1.9612 4.00566 0
M  V30 3369 C 323.913 4.05067 4.17487 0
M  V30 3370 N 322.889 3.33419 4.2934 0
M  V30 3371 H 326.691 2.13536 2.0194 0
M  V30 3372 H 324.205 1.2468 1.0406 0
M  V30 3373 H 326.202 0.800859 4.09136 0
M  V30 3374 H 324.862 -0.0185076 3.24695 0
M  V30 3375 H 325.873 3.65441 3.66978 0
M  V30 3376 H 322.55 1.09871 4.02784 0
M  V30 3377 H 323.94 5.12815 4.34131 0
M  V30 3378 N 326.66 -1.06551 1.16123 0
M  V30 3379 C 327.57 -2.17484 0.879662 0
M  V30 3380 C 328.586 -1.73377 -0.147104 0
M  V30 3381 O 329.762 -2.01379 0.0289128 0
M  V30 3382 C 326.827 -3.44591 0.381829 0
M  V30 3383 C 325.888 -4.0322 1.4735 0
M  V30 3384 C 325.121 -5.24261 0.999324 0
M  V30 3385 O 325.344 -5.70198 -0.151957 0
M  V30 3386 O 324.278 -5.74775 1.78653 0
M  V30 3387 H 328.104 -2.44075 1.80724 0
M  V30 3388 H 325.689 -1.16042 0.940992 0
M  V30 3389 H 327.571 -4.21254 0.111053 0
M  V30 3390 H 326.246 -3.19532 -0.51777 0
M  V30 3391 H 325.153 -3.2806 1.79798 0
M  V30 3392 H 326.486 -4.32568 2.34831 0
M  V30 3393 N 328.138 -0.959301 -1.25041 0
M  V30 3394 C 329.384 -0.617525 -1.9317 0
M  V30 3395 C 329.717 0.843981 -1.74902 0
M  V30 3396 O 328.992 1.60615 -1.09696 0
M  V30 3397 C 329.275 -0.982736 -3.46431 0
M  V30 3398 C 329.128 -2.50032 -3.73904 0
M  V30 3399 C 330.447 -0.511176 -4.37121 0
M  V30 3400 H 327.566 -0.22582 -0.701552 0
M  V30 3401 H 330.208 -1.19679 -1.4757 0
M  V30 3402 H 328.358 -0.489806 -3.854 0
M  V30 3403 H 330.03 -3.06737 -3.44544 0
M  V30 3404 H 328.273 -2.93598 -3.19348 0
M  V30 3405 H 328.944 -2.70635 -4.81103 0
M  V30 3406 H 331.42 -0.934075 -4.0548 0
M  V30 3407 H 330.296 -0.795361 -5.43107 0
M  V30 3408 H 330.557 0.588834 -4.38161 0
M  V30 3409 N 329.616 1.39756 -0.72842 0
M  V30 3410 C 330.864 2.00248 -0.272946 0
M  V30 3411 C 331.185 1.58077 1.14178 0
M  V30 3412 O 330.455 0.826014 1.77634 0
M  V30 3413 H 329.035 0.740554 -0.0979247 0
M  V30 3414 H 331.697 1.70903 -0.936912 0
M  V30 3415 H 330.793 3.10495 -0.316142 0
M  V30 3416 N 331.094 0.475555 1.50254 0
M  V30 3417 C 332.342 -0.077738 2.0195 0
M  V30 3418 C 332.663 -1.39813 1.35931 0
M  V30 3419 O 331.933 -1.89249 0.506123 0
M  V30 3420 H 330.513 -0.031719 0.746326 0
M  V30 3421 H 333.175 0.626995 1.84539 0
M  V30 3422 H 332.271 -0.225995 3.11281 0
M  V30 3423 N 332.573 -1.56217 0.208337 0
M  V30 3424 C 333.803 -2.02043 -0.431523 0
M  V30 3425 C 334.211 -1.08755 -1.54819 0
M  V30 3426 O 333.554 -0.0870009 -1.83494 0
M  V30 3427 C 333.616 -3.44239 -1.03633 0
M  V30 3428 C 333.28 -4.56965 -0.0567502 0
M  V30 3429 C 334.277 -5.14624 0.738773 0
M  V30 3430 C 331.962 -5.02266 0.0581736 0
M  V30 3431 C 333.956 -6.16045 1.63605 0
M  V30 3432 C 331.643 -6.03528 0.959001 0
M  V30 3433 C 332.641 -6.60293 1.7465 0
M  V30 3434 O 332.329 -7.59586 2.6322 0
M  V30 3435 H 332.061 -0.666772 -0.111313 0
M  V30 3436 H 334.615 -2.02919 0.318277 0
M  V30 3437 H 332.845 -3.40391 -1.83497 0
M  V30 3438 H 334.534 -3.73793 -1.58221 0
M  V30 3439 H 335.3 -4.80483 0.660364 0
M  V30 3440 H 331.179 -4.57771 -0.544633 0
M  V30 3441 H 334.723 -6.60279 2.25116 0
M  V30 3442 H 330.62 -6.37092 1.03848 0
M  V30 3443 H 331.388 -7.77057 2.57148 0
M  V30 3444 N 334.051 0.0651679 -1.57465 0
M  V30 3445 C 335.276 0.779605 -1.9219 0
M  V30 3446 C 335.701 1.69988 -0.805333 0
M  V30 3447 O 335.059 1.79685 0.241435 0
M  V30 3448 C 335.107 1.54364 -3.2589 0
M  V30 3449 O 334.211 2.65474 -3.1559 0
M  V30 3450 H 333.552 0.212249 -0.629163 0
M  V30 3451 H 336.082 0.0314294 -2.04576 0
M  V30 3452 H 336.092 1.92146 -3.59922 0
M  V30 3453 H 334.767 0.868457 -4.06732 0
M  V30 3454 H 333.344 2.30501 -2.93128 0
M  V30 3455 N 335.529 1.53961 0.336706 0
M  V30 3456 C 336.777 1.71197 1.07405 0
M  V30 3457 C 337.098 0.481475 1.88962 0
M  V30 3458 O 336.368 -0.504585 1.8929 0
M  V30 3459 H 334.948 0.631185 0.399517 0
M  V30 3460 H 337.61 1.91232 0.376323 0
M  V30 3461 H 336.706 2.58587 1.74755 0
M  V30 3462 N 337.007 -0.598083 1.45811 0
M  V30 3463 C 337.937 -1.71873 1.58057 0
M  V30 3464 C 338.918 -1.64533 0.431615 0
M  V30 3465 O 340.103 -1.82787 0.65595 0
M  V30 3466 C 337.233 -3.10495 1.55597 0
M  V30 3467 C 336.187 -3.32654 2.69305 0
M  V30 3468 C 335.513 -4.71646 2.51902 0
M  V30 3469 C 336.813 -3.21981 4.11248 0
M  V30 3470 H 338.507 -1.61881 2.51863 0
M  V30 3471 H 336.053 -0.777372 1.21214 0
M  V30 3472 H 338.006 -3.88699 1.6276 0
M  V30 3473 H 336.73 -3.2135 0.583255 0
M  V30 3474 H 335.389 -2.56843 2.61586 0
M  V30 3475 H 335.037 -4.79246 1.52748 0
M  V30 3476 H 334.737 -4.87426 3.2816 0
M  V30 3477 H 336.261 -5.52038 2.60933 0
M  V30 3478 H 337.675 -3.90049 4.20161 0
M  V30 3479 H 336.072 -3.49289 4.87972 0
M  V30 3480 H 337.142 -2.1928 4.32486 0
M  V30 3481 N 338.485 -1.33259 -0.841409 0
M  V30 3482 C 339.732 -1.24572 -1.5965 0
M  V30 3483 C 340.06 0.189137 -1.93578 0
M  V30 3484 O 339.315 1.14566 -1.5866 0
M  V30 3485 C 339.614 -2.06381 -2.9179 0
M  V30 3486 C 339.28 -3.556 -2.77235 0
M  V30 3487 C 337.942 -3.96282 -2.72973 0
M  V30 3488 C 340.294 -4.50433 -2.62221 0
M  V30 3489 C 337.622 -5.30017 -2.51592 0
M  V30 3490 C 339.974 -5.84327 -2.42374 0
M  V30 3491 C 338.638 -6.24194 -2.36512 0
M  V30 3492 H 337.908 -0.455842 -0.5842 0
M  V30 3493 H 340.555 -1.6482 -0.975016 0
M  V30 3494 H 338.86 -1.58903 -3.5813 0
M  V30 3495 H 340.557 -1.97019 -3.49263 0
M  V30 3496 H 337.147 -3.23298 -2.81384 0
M  V30 3497 H 341.331 -4.19914 -2.64549 0
M  V30 3498 H 336.587 -5.59947 -2.45499 0
M  V30 3499 H 340.761 -6.57414 -2.29739 0
M  V30 3500 H 338.388 -7.27759 -2.19706 0
M  V30 3501 N 339.963 1.05934 -1.16686 0
M  V30 3502 C 341.24 1.75643 -0.860747 0
M  V30 3503 C 341.62 2.01144 0.640641 0
M  V30 3504 O 340.968 1.64147 1.58959 0
M  V30 3505 C 341.178 3.05493 -1.68745 0
M  V30 3506 C 342.526 3.79581 -1.90271 0
M  V30 3507 O 343.55 3.15344 -1.65641 0
M  V30 3508 O 342.409 4.9499 -2.31618 0
M  V30 3509 H 339.503 0.763426 -0.317977 0
M  V30 3510 H 342.049 1.1217 -1.27342 0
M  V30 3511 H 340.821 2.8264 -2.70611 0
M  V30 3512 H 340.444 3.76702 -1.27206 0
M  V30 3513 N 341.441 0.965919 1.2453 0
M  V30 3514 C 342.388 0.49402 2.25451 0
M  V30 3515 C 343.358 -0.45948 1.59618 0
M  V30 3516 O 344.543 -0.370238 1.87173 0
M  V30 3517 C 341.683 -0.211359 3.44452 0
M  V30 3518 C 340.796 0.7807 4.24887 0
M  V30 3519 C 339.931 0.0516105 5.31175 0
M  V30 3520 C 338.97 1.03385 6.03306 0
M  V30 3521 N 338.107 0.334887 7.01301 0
M  V30 3522 H 342.947 1.35946 2.65184 0
M  V30 3523 H 340.484 0.681515 1.3036 0
M  V30 3524 H 342.442 -0.637 4.12308 0
M  V30 3525 H 341.072 -1.04077 3.05562 0
M  V30 3526 H 340.124 1.32479 3.56586 0
M  V30 3527 H 341.436 1.52978 4.74762 0
M  V30 3528 H 340.59 -0.432114 6.05159 0
M  V30 3529 H 339.329 -0.730179 4.82203 0
M  V30 3530 H 338.334 1.52847 5.28127 0
M  V30 3531 H 339.559 1.81606 6.54367 0
M  V30 3532 H 337.505 -0.427959 6.54603 0
M  V30 3533 H 337.422 1.02287 7.49048 0
M  V30 3534 H 338.69 -0.126928 7.79397 0
M  V30 3535 N 342.919 -1.39368 0.735821 0
M  V30 3536 C 344.149 -2.04498 0.293967 0
M  V30 3537 C 344.557 -1.55593 -1.07645 0
M  V30 3538 O 343.9 -0.716324 -1.69158 0
M  V30 3539 C 343.962 -3.58836 0.218342 0
M  V30 3540 C 343.626 -4.30721 1.52736 0
M  V30 3541 C 344.623 -4.57305 2.47322 0
M  V30 3542 C 342.308 -4.69251 1.79189 0
M  V30 3543 C 344.302 -5.21429 3.66593 0
M  V30 3544 C 341.989 -5.33104 2.98737 0
M  V30 3545 C 342.987 -5.59125 3.9226 0
M  V30 3546 O 342.675 -6.21653 5.09708 0
M  V30 3547 H 342.407 -0.664118 0.126189 0
M  V30 3548 H 344.961 -1.79385 1.00051 0
M  V30 3549 H 343.191 -3.8285 -0.544314 0
M  V30 3550 H 344.88 -4.05447 -0.191626 0
M  V30 3551 H 345.646 -4.27983 2.28156 0
M  V30 3552 H 341.525 -4.48354 1.07239 0
M  V30 3553 H 345.069 -5.41656 4.39607 0
M  V30 3554 H 340.966 -5.61846 3.17803 0
M  V30 3555 H 341.734 -6.40146 5.10054 0
M  V30 3556 N 344.397 -0.483516 -1.5 0
M  V30 3557 C 345.327 0.293829 -2.31644 0
M  V30 3558 C 346.308 0.978864 -1.39112 0
M  V30 3559 O 347.493 0.973644 -1.68029 0
M  V30 3560 C 344.623 1.36897 -3.19181 0
M  V30 3561 C 343.577 0.804833 -4.20365 0
M  V30 3562 C 342.903 1.9792 -4.96721 0
M  V30 3563 C 344.203 -0.192313 -5.21946 0
M  V30 3564 H 345.897 -0.387616 -2.9688 0
M  V30 3565 H 343.443 -0.187856 -1.42769 0
M  V30 3566 H 345.396 1.92037 -3.751 0
M  V30 3567 H 344.12 2.07936 -2.51853 0
M  V30 3568 H 342.779 0.275319 -3.65565 0
M  V30 3569 H 342.427 2.67686 -4.25856 0
M  V30 3570 H 342.127 1.60789 -5.65173 0
M  V30 3571 H 343.651 2.53526 -5.55479 0
M  V30 3572 H 345.065 0.270333 -5.72662 0
M  V30 3573 H 343.462 -0.478543 -5.98189 0
M  V30 3574 H 344.532 -1.11409 -4.71928 0
M  V30 3575 N 345.875 1.56104 -0.216619 0
M  V30 3576 C 347.123 1.97781 0.415593 0
M  V30 3577 C 347.444 1.10536 1.60645 0
M  V30 3578 O 346.714 0.181303 1.95059 0
M  V30 3579 H 345.294 0.730415 0.156534 0
M  V30 3580 H 347.956 1.92445 -0.308366 0
M  V30 3581 H 347.052 3.03072 0.74525 0
M  V30 3582 N 347.353 -0.0568162 1.57498 0
M  V30 3583 C 348.316 -1.05038 2.03715 0
M  V30 3584 C 349.316 -1.30709 0.936577 0
M  V30 3585 O 350.506 -1.26178 1.20103 0
M  V30 3586 C 347.638 -2.39034 2.43055 0
M  V30 3587 H 348.831 -0.651715 2.92733 0
M  V30 3588 H 346.384 -0.302947 1.53336 0
M  V30 3589 H 347.119 -2.83703 1.57108 0
M  V30 3590 H 346.904 -2.21739 3.2338 0
M  V30 3591 H 348.394 -3.10421 2.79336 0
M  V30 3592 N 348.832 -1.54138 -0.328536 0
M  V30 3593 C 349.795 -1.82462 -1.38709 0
M  V30 3594 C 350.795 -0.696229 -1.44946 0
M  V30 3595 O 351.985 -0.964535 -1.4506 0
M  V30 3596 C 349.117 -1.98018 -2.77492 0
M  V30 3597 H 350.31 -2.77037 -1.14851 0
M  V30 3598 H 347.863 -1.45779 -0.563751 0
M  V30 3599 H 348.598 -1.05637 -3.06613 0
M  V30 3600 H 348.383 -2.80124 -2.74359 0
M  V30 3601 H 349.873 -2.21396 -3.54081 0
M  V30 3602 N 350.31 0.590341 -1.46126 0
M  V30 3603 C 351.538 1.37504 -1.54597 0
M  V30 3604 C 351.953 1.87897 -0.184447 0
M  V30 3605 O 351.31 1.63192 0.816984 0
M  V30 3606 C 351.361 2.56779 -2.54454 0
M  V30 3607 O 351.082 2.08476 -3.85317 0
M  V30 3608 C 352.583 3.49427 -2.72792 0
M  V30 3609 H 349.803 0.420325 -0.523037 0
M  V30 3610 H 352.347 0.718383 -1.91467 0
M  V30 3611 H 350.502 3.1845 -2.20609 0
M  V30 3612 H 350.916 2.86097 -4.396 0
M  V30 3613 H 352.39 4.29619 -3.466 0
M  V30 3614 H 352.867 4.00876 -1.79429 0
M  V30 3615 H 353.473 2.93598 -3.07702 0
M  V30 3616 N 351.788 1.33704 0.83433 0
M  V30 3617 C 353.013 1.28615 1.62705 0
M  V30 3618 C 353.438 -0.139242 1.87584 0
M  V30 3619 O 352.796 -1.09734 1.4432 0
M  V30 3620 C 352.844 2.07139 2.95171 0
M  V30 3621 O 351.948 1.4331 3.86699 0
M  V30 3622 H 351.289 0.44226 0.49528 0
M  V30 3623 H 353.819 1.76335 1.03766 0
M  V30 3624 H 353.829 2.18073 3.44831 0
M  V30 3625 H 352.504 3.10779 2.76386 0
M  V30 3626 H 351.081 1.4105 3.45195 0
M  V30 3627 N 353.266 -1.05314 1.17247 0
M  V30 3628 C 354.196 -2.1498 0.911362 0
M  V30 3629 C 355.177 -1.69471 -0.146169 0
M  V30 3630 O 356.362 -1.942 0.003812 0
M  V30 3631 C 353.492 -3.4472 0.422528 0
M  V30 3632 C 352.446 -4.03789 1.4191 0
M  V30 3633 C 351.772 -5.28858 0.788274 0
M  V30 3634 C 353.072 -4.41418 2.7919 0
M  V30 3635 H 354.766 -2.3708 1.82848 0
M  V30 3636 H 352.312 -1.13938 0.880569 0
M  V30 3637 H 354.265 -4.20787 0.227289 0
M  V30 3638 H 352.989 -3.22269 -0.530123 0
M  V30 3639 H 351.648 -3.2979 1.60106 0
M  V30 3640 H 351.296 -5.02709 -0.171173 0
M  V30 3641 H 350.996 -5.69338 1.45353 0
M  V30 3642 H 352.52 -6.07612 0.603282 0
M  V30 3643 H 353.934 -5.08524 2.64719 0
M  V30 3644 H 352.331 -4.92913 3.42282 0
M  V30 3645 H 353.401 -3.51819 3.33693 0
M  V30 3646 N 354.744 -0.972509 -1.24016 0
M  V30 3647 C 355.972 -0.654803 -1.96265 0
M  V30 3648 C 356.387 0.776708 -1.72083 0
M  V30 3649 O 355.744 1.52171 -1.00748 0
M  V30 3650 C 355.795 -0.92592 -3.49441 0
M  V30 3651 O 355.516 -2.30116 -3.72798 0
M  V30 3652 C 357.017 -0.623068 -4.38899 0
M  V30 3653 H 354.237 -0.243907 -0.6251 0
M  V30 3654 H 356.781 -1.30175 -1.57717 0
M  V30 3655 H 354.936 -0.325108 -3.86033 0
M  V30 3656 H 355.35 -2.38483 -4.67147 0
M  V30 3657 H 356.824 -0.863189 -5.45209 0
M  V30 3658 H 357.301 0.442754 -4.36963 0
M  V30 3659 H 357.907 -1.204 -4.07902 0
M  V30 3660 N 356.222 1.38976 -0.743202 0
M  V30 3661 C 357.468 2.0064 -0.295189 0
M  V30 3662 C 357.801 1.5885 1.11716 0
M  V30 3663 O 357.076 0.821181 1.76315 0
M  V30 3664 C 357.359 3.578 -0.406318 0
M  V30 3665 C 357.212 4.09586 -1.85903 0
M  V30 3666 C 358.531 4.39616 0.206439 0
M  V30 3667 H 355.65 0.728935 -0.108733 0
M  V30 3668 H 358.292 1.65067 -0.940897 0
M  V30 3669 H 356.442 3.88235 0.143419 0
M  V30 3670 H 358.114 3.89837 -2.46627 0
M  V30 3671 H 356.357 3.6284 -2.3776 0
M  V30 3672 H 357.028 5.18708 -1.888 0
M  V30 3673 H 359.504 4.15273 -0.262283 0
M  V30 3674 H 358.38 5.48812 0.0983819 0
M  V30 3675 H 358.641 4.22754 1.2935 0
M  V30 3676 N 357.7 0.491464 1.49741 0
M  V30 3677 C 358.925 -0.0557177 2.07325 0
M  V30 3678 C 359.35 -1.30925 1.35056 0
M  V30 3679 O 358.708 -1.76733 0.404365 0
M  V30 3680 C 358.756 -0.302074 3.59333 0
M  V30 3681 O 357.86 -1.37868 3.88672 0
M  V30 3682 H 357.201 0.0219956 0.663636 0
M  V30 3683 H 359.731 0.688352 1.92673 0
M  V30 3684 H 359.741 -0.536464 4.04458 0
M  V30 3685 H 358.416 0.61383 4.11345 0
M  V30 3686 H 356.993 -1.12999 3.55367 0
M  V30 3687 N 359.178 -1.55987 0.224894 0
M  V30 3688 C 360.088 -2.24066 -0.69511 0
M  V30 3689 C 361.104 -1.24939 -1.21104 0
M  V30 3690 O 362.28 -1.5776 -1.25195 0
M  V30 3691 C 359.345 -2.90983 -1.88493 0
M  V30 3692 C 358.406 -4.05462 -1.41064 0
M  V30 3693 C 357.639 -4.69179 -2.54375 0
M  V30 3694 O 357.862 -4.31895 -3.72589 0
M  V30 3695 O 356.796 -5.58108 -2.25386 0
M  V30 3696 H 360.622 -3.03353 -0.145149 0
M  V30 3697 H 358.207 -1.49399 -0.00569476 0
M  V30 3698 H 360.089 -3.33209 -2.57972 0
M  V30 3699 H 358.764 -2.14653 -2.42293 0
M  V30 3700 H 357.671 -3.67798 -0.683774 0
M  V30 3701 H 359.004 -4.83545 -0.918985 0
M  V30 3702 N 360.656 0.0484629 -1.57525 0
M  V30 3703 C 361.933 0.777447 -1.79486 0
M  V30 3704 C 362.313 1.94597 -0.818251 0
M  V30 3705 O 361.661 2.28047 0.143767 0
M  V30 3706 C 361.871 1.22864 -3.26658 0
M  V30 3707 C 363.219 1.65251 -3.91123 0
M  V30 3708 O 364.243 1.32372 -3.3069 0
M  V30 3709 O 363.102 2.26207 -4.97486 0
M  V30 3710 H 360.196 0.374357 -0.737419 0
M  V30 3711 H 362.742 0.0267359 -1.69679 0
M  V30 3712 H 361.514 0.393589 -3.89316 0
M  V30 3713 H 361.137 2.03996 -3.41279 0
M  V30 3714 N 362.134 1.5431 0.320358 0
M  V30 3715 C 363.545 1.63872 0.894594 0
M  V30 3716 C 363.896 0.534847 1.88769 0
M  V30 3717 O 363.021 -0.331732 2.13842 0
M  V30 3718 C 363.616 2.97049 1.62934 0
M  V30 3719 C 362.175 3.08796 2.15226 0
M  V30 3720 C 361.322 2.59456 0.978671 0
M  V30 3721 H 364.273 1.58398 0.0978544 0
M  V30 3722 H 364.294 2.87388 2.49376 0
M  V30 3723 H 363.806 3.7737 0.906302 0
M  V30 3724 H 361.907 2.33156 2.90636 0
M  V30 3725 H 362.02 4.14649 2.40006 0
M  V30 3726 H 360.384 2.1543 1.35875 0
M  V30 3727 H 361.167 3.42237 0.269895 0
M  V30 3728 N 363.613 -0.582584 1.46437 0
M  V30 3729 C 364.576 -1.67366 1.56592 0
M  V30 3730 C 365.576 -1.54575 0.443072 0
M  V30 3731 O 366.766 -1.59191 0.707381 0
M  V30 3732 C 363.898 -3.06791 1.48634 0
M  V30 3733 H 365.091 -1.5972 2.5383 0
M  V30 3734 H 362.644 -0.800432 1.34249 0
M  V30 3735 H 363.379 -3.19993 0.526763 0
M  V30 3736 H 363.164 -3.17484 2.30101 0
M  V30 3737 H 364.654 -3.86218 1.58826 0
M  V30 3738 N 365.091 -1.34144 -0.827227 0
M  V30 3739 C 366.337 -1.26446 -1.58554 0
M  V30 3740 C 366.67 0.1664 -1.93486 0
M  V30 3741 O 365.945 1.1107 -1.59667 0
M  V30 3742 C 366.228 -2.15111 -2.8879 0
M  V30 3743 C 366.081 -3.66712 -2.60465 0
M  V30 3744 C 367.4 -2.03311 -3.90324 0
M  V30 3745 H 364.519 -0.46067 -0.575284 0
M  V30 3746 H 367.161 -1.64356 -0.953269 0
M  V30 3747 H 365.311 -1.8291 -3.42748 0
M  V30 3748 H 366.983 -4.09259 -2.1285 0
M  V30 3749 H 365.226 -3.88014 -1.93978 0
M  V30 3750 H 365.897 -4.24112 -3.53317 0
M  V30 3751 H 368.373 -2.31574 -3.45706 0
M  V30 3752 H 367.249 -2.67582 -4.79261 0
M  V30 3753 H 367.51 -1.00879 -4.30437 0
M  V30 3754 N 366.569 1.04691 -1.17803 0
M  V30 3755 C 367.817 1.7743 -0.967617 0
M  V30 3756 C 368.138 1.88359 0.504574 0
M  V30 3757 O 367.408 1.40402 1.36617 0
M  V30 3758 H 365.988 0.657242 -0.355024 0
M  V30 3759 H 368.65 1.2638 -1.48371 0
M  V30 3760 H 367.746 2.78924 -1.40027 0
M  V30 3761 N 368.047 0.979072 1.23499 0
M  V30 3762 C 368.995 0.510604 2.26926 0
M  V30 3763 C 369.989 -0.431691 1.63807 0
M  V30 3764 O 371.195 -0.30573 1.77385 0
M  V30 3765 H 367.57 0.146688 0.737554 0
M  V30 3766 H 369.541 1.39466 2.63803 0
M  V30 3767 C 368.29 -0.172658 3.47271 0
M  V30 3768 H 367.613 0.543331 3.96091 0
M  V30 3769 H 369.053 -0.464101 4.21452 0
M  V30 3770 C 367.512 -1.40345 3.06276 0
M  V30 3771 O 368.042 -2.49978 3.14442 0
M  V30 3772 N 366.248 -1.27362 2.61203 0
M  V30 3773 H 365.795 -0.381584 2.54758 0
M  V30 3774 H 365.753 -2.09822 2.34141 0
M  V30 3775 N 369.525 -1.3858 0.750561 0
M  V30 3776 C 370.774 -1.99424 0.302172 0
M  V30 3777 C 371.087 -1.60254 -1.12152 0
M  V30 3778 O 372.293 -2.14046 -1.67023 0
M  V30 3779 C 370.749 -3.56558 0.489307 0
M  V30 3780 C 370.357 -4.04682 1.92189 0
M  V30 3781 C 372.101 -4.24374 0.103478 0
M  V30 3782 C 370.008 -5.54446 2.05775 0
M  V30 3783 H 368.938 -0.746046 0.10923 0
M  V30 3784 H 371.589 -1.58383 0.92667 0
M  V30 3785 H 369.971 -3.95472 -0.204329 0
M  V30 3786 H 371.145 -3.77065 2.64875 0
M  V30 3787 H 369.46 -3.4958 2.26236 0
M  V30 3788 H 372.057 -5.34384 0.183787 0
M  V30 3789 H 372.4 -4.05468 -0.943481 0
M  V30 3790 H 372.933 -3.90688 0.748854 0
M  V30 3791 H 369.672 -5.78252 3.08714 0
M  V30 3792 H 369.192 -5.83816 1.37546 0
M  V30 3793 H 370.871 -6.20099 1.84626 0
M  V30 3794 N 371.003 -0.499398 -1.49478 0
M  V30 3795 C 372.228 0.044722 -2.07352 0
M  V30 3796 C 372.653 1.30207 -1.35749 0
M  V30 3797 O 372.011 1.76516 -0.413732 0
M  V30 3798 C 372.059 0.283013 -3.59488 0
M  V30 3799 O 371.163 1.35804 -3.89398 0
M  V30 3800 H 370.504 -0.0255147 -0.66351 0
M  V30 3801 H 373.034 -0.698561 -1.92305 0
M  V30 3802 H 373.044 0.515007 -4.04737 0
M  V30 3803 H 371.719 -0.635636 -4.11014 0
M  V30 3804 H 370.296 1.11113 -3.55961 0
M  V30 3805 N 372.481 1.55866 -0.233164 0
M  V30 3806 C 373.706 2.03449 0.402906 0
M  V30 3807 C 374.131 1.11166 1.51736 0
M  V30 3808 O 373.489 0.101996 1.81013 0
M  V30 3809 C 373.537 3.49165 0.9009 0
M  V30 3810 O 372.641 3.60019 2.01147 0
M  V30 3811 H 371.982 0.657913 0.0897025 0
M  V30 3812 H 374.512 2.01493 -0.355201 0
M  V30 3813 H 374.522 3.89716 1.2077 0
M  V30 3814 H 373.197 4.15813 0.0852889 0
M  V30 3815 H 371.774 3.3136 1.71042 0
M  V30 3816 N 373.959 -0.0401083 1.57549 0
M  V30 3817 C 375.206 -0.733125 1.88763 0
M  V30 3818 C 375.534 -1.75946 0.829058 0
M  V30 3819 O 374.789 -1.94949 -0.171323 0
M  V30 3820 C 375.088 -1.44902 3.26708 0
M  V30 3821 C 374.754 -0.559707 4.47413 0
M  V30 3822 C 373.416 -0.314731 4.8017 0
M  V30 3823 C 375.768 0.0549743 5.21171 0
M  V30 3824 C 373.096 0.553886 5.8408 0
M  V30 3825 C 375.448 0.911229 6.26003 0
M  V30 3826 C 374.112 1.16577 6.57241 0
M  V30 3827 H 373.382 -0.268269 0.690733 0
M  V30 3828 H 376.029 0.00679408 1.91499 0
M  V30 3829 H 374.334 -2.26197 3.1991 0
M  V30 3830 H 376.031 -1.99058 3.48105 0
M  V30 3831 H 372.621 -0.760793 4.21794 0
M  V30 3832 H 376.805 -0.121344 4.96152 0
M  V30 3833 H 372.061 0.759518 6.06664 0
M  V30 3834 H 376.235 1.3941 6.82303 0
M  V30 3835 H 373.862 1.84058 7.37582 0
M  V30 3836 N 375.437 -1.54477 -0.31217 0
M  V30 3837 C 376.677 -1.74958 -1.05684 0
M  V30 3838 C 377.041 -0.518414 -1.84869 0
M  V30 3839 O 378.242 -0.600759 -2.62001 0
M  V30 3840 C 376.513 -2.99656 -1.94785 0
M  V30 3841 S 378.072 -3.4109 -2.76049 0
M  V30 3842 H 374.89 -0.615104 -0.356606 0
M  V30 3843 H 377.492 -1.92669 -0.331514 0
M  V30 3844 H 376.196 -3.87397 -1.35468 0
M  V30 3845 H 375.727 -2.845 -2.71704 0
M  V30 3846 H 377.742 -2.97283 -3.97287 0
M  V30 3847 N 376.915 0.57481 -1.46744 0
M  V30 3848 C 378.145 1.35659 -1.55821 0
M  V30 3849 C 378.553 1.88129 -0.201036 0
M  V30 3850 O 377.896 1.64723 0.813134 0
M  V30 3851 C 377.958 2.57473 -2.50894 0
M  V30 3852 C 377.622 2.26415 -3.9697 0
M  V30 3853 C 378.619 1.84771 -4.85958 0
M  V30 3854 C 376.304 2.38316 -4.42166 0
M  V30 3855 C 378.298 1.55434 -6.18158 0
M  V30 3856 C 375.985 2.08591 -5.74398 0
M  V30 3857 C 376.983 1.67216 -6.62214 0
M  V30 3858 O 376.671 1.37859 -7.91991 0
M  V30 3859 H 376.403 0.420496 -0.529301 0
M  V30 3860 H 378.957 0.704967 -1.92923 0
M  V30 3861 H 377.187 3.25468 -2.08824 0
M  V30 3862 H 378.876 3.19546 -2.50291 0
M  V30 3863 H 379.642 1.75085 -4.52295 0
M  V30 3864 H 375.521 2.69483 -3.74032 0
M  V30 3865 H 379.065 1.23065 -6.86659 0
M  V30 3866 H 374.962 2.17905 -6.07608 0
M  V30 3867 H 375.73 1.51638 -8.04331 0
M  V30 3868 N 378.394 1.34581 0.820102 0
M  V30 3869 C 379.81 1.14325 1.11364 0
M  V30 3870 C 380.01 -0.0533648 2.01429 0
M  V30 3871 O 379.066 -0.728044 2.41776 0
M  V30 3872 C 380.379 2.43983 1.75764 0
M  V30 3873 C 381.927 2.50065 1.88246 0
M  V30 3874 C 382.402 3.79732 2.56061 0
M  V30 3875 N 383.893 3.80908 2.63558 0
M  V30 3876 C 384.628 4.77961 3.16766 0
M  V30 3877 N 384.124 5.85397 3.70517 0
M  V30 3878 N 385.917 4.65413 3.15194 0
M  V30 3879 H 378.068 2.11246 0.221096 0
M  V30 3880 H 380.331 0.934289 0.160649 0
M  V30 3881 H 380.037 3.31651 1.1705 0
M  V30 3882 H 379.911 2.57531 2.75604 0
M  V30 3883 H 382.298 1.62834 2.46108 0
M  V30 3884 H 382.379 2.40442 0.873006 0
M  V30 3885 H 382.023 4.67354 1.98853 0
M  V30 3886 H 381.953 3.86639 3.57516 0
M  V30 3887 H 384.444 3.03274 2.25463 0
M  V30 3888 H 384.757 6.55463 4.09376 0
M  V30 3889 H 383.102 5.89107 3.68752 0
M  V30 3890 H 386.293 3.80627 2.72471 0
M  V30 3891 H 386.466 5.41216 3.56356 0
M  V30 3892 N 379.872 -1.04064 1.18357 0
M  V30 3893 C 381.283 -1.58719 0.98312 0
M  V30 3894 C 381.634 -1.90556 -0.467193 0
M  V30 3895 O 380.759 -1.69561 -1.34454 0
M  V30 3896 C 381.354 -2.88379 1.77828 0
M  V30 3897 C 379.913 -3.3965 1.62218 0
M  V30 3898 C 379.06 -2.13235 1.77274 0
M  V30 3899 H 382.011 -0.867359 1.32901 0
M  V30 3900 H 382.032 -3.58773 1.26737 0
M  V30 3901 H 381.544 -2.65176 2.83379 0
M  V30 3902 H 379.645 -3.67866 0.592036 0
M  V30 3903 H 379.758 -4.13475 2.42023 0
M  V30 3904 H 378.122 -2.24542 1.20221 0
M  V30 3905 H 378.905 -1.92487 2.8426 0
M  V30 3906 N 381.35 -0.985608 -1.22978 0
M  V30 3907 C 382.766 -0.695104 -1.43668 0
M  V30 3908 C 382.966 0.736866 -1.87543 0
M  V30 3909 O 382.022 1.50868 -2.02473 0
M  V30 3910 C 383.335 -1.69447 -2.48412 0
M  V30 3911 C 384.883 -1.70909 -2.62219 0
M  V30 3912 C 385.358 -2.6969 -3.70178 0
M  V30 3913 N 386.849 -2.6824 -3.77626 0
M  V30 3914 C 387.584 -3.41339 -4.60733 0
M  V30 3915 N 387.08 -4.24015 -5.4789 0
M  V30 3916 N 388.873 -3.30079 -4.54977 0
M  V30 3917 H 381.024 -1.91054 -0.928016 0
M  V30 3918 H 383.287 -0.823553 -0.469536 0
M  V30 3919 H 382.993 -2.7188 -2.23102 0
M  V30 3920 H 382.867 -1.48147 -3.46889 0
M  V30 3921 H 385.254 -0.691785 -2.86877 0
M  V30 3922 H 385.335 -1.96276 -1.6404 0
M  V30 3923 H 384.979 -3.71566 -3.46268 0
M  V30 3924 H 384.909 -2.41595 -4.67909 0
M  V30 3925 H 387.4 -2.08243 -3.15346 0
M  V30 3926 H 387.713 -4.76636 -6.08308 0
M  V30 3927 H 386.058 -4.28104 -5.47496 0
M  V30 3928 H 389.249 -2.64937 -3.85909 0
M  V30 3929 H 389.422 -3.87308 -5.19516 0
M  V30 3930 N 382.828 1.3818 -0.7579 0
M  V30 3931 C 384.239 1.82726 -0.383134 0
M  V30 3932 C 384.59 1.63214 1.08884 0
M  V30 3933 O 383.715 1.13566 1.84205 0
M  V30 3934 C 384.31 3.31728 -0.688631 0
M  V30 3935 C 382.869 3.74606 -0.367091 0
M  V30 3936 C 382.016 2.60896 -0.939599 0
M  V30 3937 H 384.967 1.26847 -0.953699 0
M  V30 3938 H 384.988 3.80487 0.0316492 0
M  V30 3939 H 384.5 3.45898 -1.76001 0
M  V30 3940 H 382.601 3.66013 0.697532 0
M  V30 3941 H 382.714 4.71215 -0.865658 0
M  V30 3942 H 381.078 2.52075 -0.3647 0
M  V30 3943 H 381.861 2.77864 -2.0161 0
M  V30 3944 N 384.306 0.507319 1.49211 0
M  V30 3945 C 385.583 -0.0982702 1.95353 0
M  V30 3946 C 385.963 -1.53516 1.449 0
M  V30 3947 O 385.311 -2.18594 0.66551 0
M  V30 3948 C 385.521 -0.00440283 3.49 0
M  V30 3949 C 386.869 -0.175147 4.24239 0
M  V30 3950 O 387.893 -0.0792891 3.56112 0
M  V30 3951 O 386.752 -0.37276 5.45227 0
M  V30 3952 H 383.846 -0.0918236 0.821887 0
M  V30 3953 H 386.392 0.570307 1.5983 0
M  V30 3954 H 385.164 0.997402 3.78375 0
M  V30 3955 H 384.787 -0.712845 3.91158 0
M  V30 3956 N 385.784 -1.5574 0.241426 0
M  V30 3957 C 387.009 -2.0366 -0.392111 0
M  V30 3958 C 387.434 -1.11969 -1.51144 0
M  V30 3959 O 386.792 -0.111594 -1.80956 0
M  V30 3960 C 386.84 -3.49638 -0.882371 0
M  V30 3961 O 385.944 -3.6108 -1.99235 0
M  V30 3962 H 385.285 -0.658379 -0.0862122 0
M  V30 3963 H 387.815 -2.01302 0.365881 0
M  V30 3964 H 387.825 -3.90351 -1.18702 0
M  V30 3965 H 386.5 -4.15852 -0.0632361 0
M  V30 3966 H 385.077 -3.32262 -1.69282 0
M  V30 3967 N 387.262 0.0317525 -1.57568 0
M  V30 3968 C 388.492 0.733884 -1.93126 0
M  V30 3969 C 388.9 1.69563 -0.839352 0
M  V30 3970 O 388.243 1.82681 0.193175 0
M  V30 3971 C 388.305 1.54798 -3.24465 0
M  V30 3972 C 387.969 0.751304 -4.50782 0
M  V30 3973 C 388.966 0.0527632 -5.19873 0
M  V30 3974 C 386.651 0.706639 -4.97305 0
M  V30 3975 C 388.645 -0.679774 -6.33765 0
M  V30 3976 C 386.332 -0.0296449 -6.11093 0
M  V30 3977 C 387.33 -0.721614 -6.79177 0
M  V30 3978 O 387.018 -1.44595 -7.90789 0
M  V30 3979 H 386.75 0.211459 -0.642076 0
M  V30 3980 H 389.304 -0.00585615 -2.05399 0
M  V30 3981 H 387.534 2.33147 -3.08512 0
M  V30 3982 H 389.223 2.13247 -3.4537 0
M  V30 3983 H 389.989 0.0783188 -4.84937 0
M  V30 3984 H 385.868 1.23474 -4.44157 0
M  V30 3985 H 389.412 -1.22042 -6.86842 0
M  V30 3986 H 385.309 -0.0571331 -6.45475 0
M  V30 3987 H 386.077 -1.35935 -8.07133 0
M  V30 3988 N 388.74 1.54641 0.303973 0
M  V30 3989 C 389.69 1.8177 1.37636 0
M  V30 3990 C 390.674 0.674697 1.46071 0
M  V30 3991 O 391.866 0.935251 1.50273 0
M  V30 3992 C 388.995 2.06584 2.74186 0
M  V30 3993 C 388.081 3.2706 2.69986 0
M  V30 3994 N 388.472 4.47682 2.35402 0
M  V30 3995 C 386.77 3.29028 3.01092 0
M  V30 3996 C 387.471 5.29689 2.40426 0
M  V30 3997 N 386.447 4.67339 2.7766 0
M  V30 3998 H 390.249 2.72596 1.09857 0
M  V30 3999 H 387.763 1.541 0.51254 0
M  V30 4000 H 389.76 2.24166 3.51504 0
M  V30 4001 H 388.42 1.17024 3.02879 0
M  V30 4002 H 389.431 4.74336 2.07908 0
M  V30 4003 H 386.108 2.49565 3.34699 0
M  V30 4004 H 387.498 6.3606 2.16512 0
M  V30 4005 N 390.218 -0.567019 1.47046 0
M  V30 4006 C 391.148 -1.68482 1.61667 0
M  V30 4007 C 392.129 -1.6358 0.466418 0
M  V30 4008 O 393.314 -1.81354 0.694574 0
M  V30 4009 C 390.444 -3.07124 1.62148 0
M  V30 4010 C 389.398 -3.26867 2.76301 0
M  V30 4011 C 388.724 -4.66196 2.61849 0
M  V30 4012 C 390.024 -3.13186 4.17986 0
M  V30 4013 H 391.718 -1.56502 2.5524 0
M  V30 4014 H 389.264 -0.751486 1.22836 0
M  V30 4015 H 391.217 -3.8516 1.70968 0
M  V30 4016 H 389.941 -3.2004 0.651287 0
M  V30 4017 H 388.6 -2.51237 2.66975 0
M  V30 4018 H 388.248 -4.75898 1.62879 0
M  V30 4019 H 387.948 -4.80356 3.38425 0
M  V30 4020 H 389.472 -5.46379 2.72584 0
M  V30 4021 H 390.886 -3.81049 4.2834 0
M  V30 4022 H 389.283 -3.3886 4.95272 0
M  V30 4023 H 390.353 -2.10057 4.3704 0
M  V30 4024 N 391.696 -1.35014 -0.812953 0
M  V30 4025 C 392.626 -1.30069 -1.93919 0
M  V30 4026 C 393.607 -0.176275 -1.69184 0
M  V30 4027 O 394.792 -0.370227 -1.90638 0
M  V30 4028 C 391.922 -1.06547 -3.30552 0
M  V30 4029 C 390.876 -2.15561 -3.69753 0
M  V30 4030 C 390.202 -1.77214 -5.04479 0
M  V30 4031 C 391.502 -3.57476 -3.808 0
M  V30 4032 H 393.196 -2.24303 -1.98314 0
M  V30 4033 H 390.742 -1.07977 -0.952736 0
M  V30 4034 H 392.695 -1.01729 -4.08937 0
M  V30 4035 H 391.419 -0.0875719 -3.26483 0
M  V30 4036 H 390.078 -2.19466 -2.9365 0
M  V30 4037 H 389.726 -0.780589 -4.96906 0
M  V30 4038 H 389.426 -2.50184 -5.31678 0
M  V30 4039 H 390.95 -1.7391 -5.8531 0
M  V30 4040 H 392.364 -3.55929 -4.4943 0
M  V30 4041 H 390.761 -4.29152 -4.19462 0
M  V30 4042 H 391.831 -3.94091 -2.82525 0
M  V30 4043 N 393.175 1.03435 -1.18907 0
M  V30 4044 C 394.591 1.28973 -0.940111 0
M  V30 4045 C 394.791 1.97676 0.390691 0
M  V30 4046 O 393.847 2.26127 1.12352 0
M  V30 4047 C 395.16 2.14221 -2.11021 0
M  V30 4048 C 396.708 2.27547 -2.14922 0
M  V30 4049 C 397.183 3.16164 -3.31367 0
M  V30 4050 N 398.674 3.23752 -3.31269 0
M  V30 4051 C 399.409 3.92495 -4.18014 0
M  V30 4052 N 398.905 4.63515 -5.14904 0
M  V30 4053 N 400.698 3.88838 -4.05908 0
M  V30 4054 H 392.849 0.57252 -2.04538 0
M  V30 4055 H 395.112 0.315184 -0.894071 0
M  V30 4056 H 394.818 1.71054 -3.073 0
M  V30 4057 H 394.692 3.14919 -2.0762 0
M  V30 4058 H 397.079 2.69947 -1.19217 0
M  V30 4059 H 397.16 1.26418 -2.22378 0
M  V30 4060 H 396.804 2.74474 -4.27348 0
M  V30 4061 H 396.734 4.17339 -3.21148 0
M  V30 4062 H 399.225 2.73167 -2.61129 0
M  V30 4063 H 399.538 5.13583 -5.77453 0
M  V30 4064 H 397.883 4.62398 -5.18857 0
M  V30 4065 H 401.074 3.32491 -3.29495 0
M  V30 4066 H 401.247 4.4214 -4.73726 0
M  V30 4067 N 394.653 0.992116 1.22453 0
M  V30 4068 C 395.603 0.512969 2.22155 0
M  V30 4069 C 396.587 -0.418416 1.55364 0
M  V30 4070 O 397.779 -0.245363 1.75291 0
M  V30 4071 C 394.908 -0.171822 3.4287 0
M  V30 4072 C 393.994 0.779822 4.16869 0
M  V30 4073 N 394.385 1.92734 4.6764 0
M  V30 4074 C 392.683 0.59554 4.42006 0
M  V30 4075 C 393.384 2.52458 5.24061 0
M  V30 4076 N 392.36 1.80735 5.12675 0
M  V30 4077 H 396.162 1.38817 2.5905 0
M  V30 4078 H 393.676 0.854277 1.38115 0
M  V30 4079 H 395.673 -0.532469 4.13486 0
M  V30 4080 H 394.333 -1.04317 3.07487 0
M  V30 4081 H 395.344 2.30816 4.63621 0
M  V30 4082 H 392.021 -0.229805 4.16867 0
M  V30 4083 H 393.411 3.49433 5.73887 0
M  V30 4084 N 396.131 -1.37776 0.765217 0
M  V30 4085 C 397.542 -1.82521 0.392819 0
M  V30 4086 C 397.893 -1.63789 -1.08017 0
M  V30 4087 O 397.018 -1.14542 -1.83601 0
M  V30 4088 C 397.613 -3.31358 0.706214 0
M  V30 4089 C 396.172 -3.74406 0.386952 0
M  V30 4090 C 395.319 -2.60394 0.953422 0
M  V30 4091 H 398.27 -1.2634 0.960412 0
M  V30 4092 H 398.291 -3.80498 -0.0114706 0
M  V30 4093 H 397.803 -3.44959 1.77833 0
M  V30 4094 H 395.904 -3.66377 -0.678112 0
M  V30 4095 H 396.017 -4.70749 0.890636 0
M  V30 4096 H 394.381 -2.51878 0.378064 0
M  V30 4097 H 395.164 -2.76791 2.03081 0
M  V30 4098 N 397.609 -0.515225 -1.4894 0
M  V30 4099 C 398.855 0.0242508 -2.02785 0
M  V30 4100 C 399.188 1.35323 -1.39289 0
M  V30 4101 O 398.463 1.87041 -0.533469 0
M  V30 4102 C 398.746 0.16184 -3.59736 0
M  V30 4103 C 398.599 -1.19127 -4.33738 0
M  V30 4104 C 399.918 0.895719 -4.30888 0
M  V30 4105 H 397.037 0.00733914 -0.736963 0
M  V30 4106 H 399.679 -0.669395 -1.77818 0
M  V30 4107 H 397.829 0.752624 -3.8114 0
M  V30 4108 H 399.501 -1.82202 -4.23792 0
M  V30 4109 H 397.744 -1.77695 -3.95736 0
M  V30 4110 H 398.415 -1.04815 -5.41957 0
M  V30 4111 H 400.891 0.394528 -4.14225 0
M  V30 4112 H 399.767 0.960859 -5.40425 0
M  V30 4113 H 400.028 1.9427 -3.97129 0
M  V30 4114 N 399.087 1.5561 -0.249682 0
M  V30 4115 C 400.315 2.03411 0.378352 0
M  V30 4116 C 400.73 1.12886 1.51335 0
M  V30 4117 O 400.087 0.143833 1.81932 0
M  V30 4118 C 400.138 3.50537 0.88351 0
M  V30 4119 O 399.859 4.37614 -0.20626 0
M  V30 4120 C 401.36 4.14113 1.58195 0
M  V30 4121 H 398.58 0.664994 0.08958 0
M  V30 4122 H 401.124 2.01044 -0.374357 0
M  V30 4123 H 399.279 3.5343 1.58639 0
M  V30 4124 H 399.693 5.24199 0.177782 0
M  V30 4125 H 401.167 5.18741 1.8871 0
M  V30 4126 H 401.644 3.60767 2.50487 0
M  V30 4127 H 402.25 4.15151 0.923573 0
M  V30 4128 N 400.565 -0.0233959 1.57583 0
M  V30 4129 C 401.813 -0.711654 1.89156 0
M  V30 4130 C 402.134 -1.75591 0.848096 0
M  V30 4131 O 401.404 -1.95547 -0.117566 0
M  V30 4132 H 399.984 -0.265835 0.698098 0
M  V30 4133 H 402.646 0.0119948 1.94896 0
M  V30 4134 H 401.742 -1.19766 2.88206 0
M  V30 4135 N 402.043 -1.548 -0.295768 0
M  V30 4136 C 403.32 -1.65014 -1.05023 0
M  V30 4137 C 403.7 -0.501805 -2.05049 0
M  V30 4138 O 403.048 0.500869 -2.22943 0
M  V30 4139 C 403.258 -3.03252 -1.72741 0
M  V30 4140 C 404.606 -3.60242 -2.24746 0
M  V30 4141 O 405.63 -3.05737 -1.82765 0
M  V30 4142 O 404.489 -4.55687 -3.01681 0
M  V30 4143 H 401.583 -0.669314 -0.485744 0
M  V30 4144 H 404.129 -1.67144 -0.293438 0
M  V30 4145 H 402.901 -3.7827 -1.00138 0
M  V30 4146 H 402.524 -3.04922 -2.55163 0
M  V30 4147 N 403.521 0.559213 -1.47345 0
M  V30 4148 C 404.451 1.67622 -1.62558 0
M  V30 4149 C 405.432 1.63331 -0.475087 0
M  V30 4150 O 406.617 1.80983 -0.704182 0
M  V30 4151 C 403.747 3.0626 -1.63774 0
M  V30 4152 C 402.701 3.25397 -2.7803 0
M  V30 4153 C 402.027 4.64801 -2.64318 0
M  V30 4154 C 403.327 3.10965 -4.19641 0
M  V30 4155 H 405.021 1.55146 -2.56067 0
M  V30 4156 H 402.567 0.744961 -1.23233 0
M  V30 4157 H 404.52 3.84247 -1.73008 0
M  V30 4158 H 403.244 3.1969 -0.66825 0
M  V30 4159 H 401.903 2.49817 -2.68304 0
M  V30 4160 H 401.551 4.75028 -1.65401 0
M  V30 4161 H 401.251 4.78555 -3.40968 0
M  V30 4162 H 402.775 5.44926 -2.75478 0
M  V30 4163 H 404.189 3.78772 -4.30354 0
M  V30 4164 H 402.586 3.36229 -4.97062 0
M  V30 4165 H 403.656 2.07736 -4.38148 0
M  V30 4166 N 404.999 1.35443 0.805782 0
M  V30 4167 C 406.41 1.25768 1.37983 0
M  V30 4168 C 406.761 -0.10958 1.95894 0
M  V30 4169 O 405.886 -1.01056 1.91355 0
M  V30 4170 C 406.481 2.27727 2.5085 0
M  V30 4171 C 405.04 2.2179 3.04115 0
M  V30 4172 C 404.187 2.13393 1.77084 0
M  V30 4173 H 407.138 1.4656 0.608752 0
M  V30 4174 H 407.159 1.90422 3.29424 0
M  V30 4175 H 406.671 3.27227 2.08671 0
M  V30 4176 H 404.772 1.25703 3.50756 0
M  V30 4177 H 404.885 3.13788 3.62042 0
M  V30 4178 H 403.249 1.59384 1.98668 0
M  V30 4179 H 404.032 3.14755 1.37056 0
M  V30 4180 N 406.477 -1.02803 1.19454 0
M  V30 4181 C 407.723 -1.76598 1.0092 0
M  V30 4182 C 408.078 -1.86939 -0.455142 0
M  V30 4183 O 407.371 -1.37575 -1.33355 0
M  V30 4184 C 407.565 -3.18941 1.6128 0
M  V30 4185 C 407.394 -3.22476 3.13431 0
M  V30 4186 C 406.164 -3.30375 3.82336 0
M  V30 4187 C 408.362 -3.09451 4.10785 0
M  V30 4188 N 406.344 -3.23292 5.21877 0
M  V30 4189 C 407.715 -3.10012 5.36929 0
M  V30 4190 C 409.77 -2.93585 4.02135 0
M  V30 4191 C 408.473 -2.96334 6.55423 0
M  V30 4192 C 410.499 -2.81256 5.20239 0
M  V30 4193 C 409.861 -2.82472 6.45282 0
M  V30 4194 H 405.96 -0.657447 0.423424 0
M  V30 4195 H 408.544 -1.22369 1.5144 0
M  V30 4196 H 406.715 -3.71489 1.1336 0
M  V30 4197 H 408.447 -3.81102 1.36173 0
M  V30 4198 H 405.202 -3.3663 3.33132 0
M  V30 4199 H 405.626 -3.23156 5.94894 0
M  V30 4200 H 410.268 -2.91466 3.0628 0
M  V30 4201 H 407.986 -2.97203 7.51463 0
M  V30 4202 H 411.572 -2.70014 5.15348 0
M  V30 4203 H 410.452 -2.73036 7.35133 0
M  V30 4204 N 407.956 -0.998596 -1.21925 0
M  V30 4205 C 409.367 -0.711939 -1.72593 0
M  V30 4206 C 409.718 0.770842 -1.80423 0
M  V30 4207 O 408.843 1.60237 -1.4544 0
M  V30 4208 C 409.438 -1.28567 -3.13458 0
M  V30 4209 C 407.997 -1.04828 -3.61508 0
M  V30 4210 C 407.144 -1.4024 -2.39224 0
M  V30 4211 H 410.095 -1.17027 -1.07193 0
M  V30 4212 H 410.116 -0.667098 -3.74607 0
M  V30 4213 H 409.628 -2.36486 -3.07727 0
M  V30 4214 H 407.729 0.0140383 -3.72597 0
M  V30 4215 H 407.842 -1.71566 -4.47328 0
M  V30 4216 H 406.206 -0.821077 -2.41103 0
M  V30 4217 H 406.989 -2.49176 -2.36149 0
M  V30 4218 N 409.434 1.37368 -0.772513 0
M  V30 4219 C 410.397 2.28601 -0.165541 0
M  V30 4220 C 411.397 1.48062 0.627238 0
M  V30 4221 O 412.587 1.68268 0.450715 0
M  V30 4222 C 409.719 3.32023 0.772897 0
M  V30 4223 H 410.912 2.83787 -0.969787 0
M  V30 4224 H 408.465 1.46647 -0.540775 0
M  V30 4225 H 409.2 2.81962 1.60212 0
M  V30 4226 H 408.985 3.91555 0.206585 0
M  V30 4227 H 410.475 4.00197 1.19298 0
M  V30 4228 N 410.912 0.523116 1.48665 0
M  V30 4229 C 411.842 -0.23231 2.32342 0
M  V30 4230 C 412.823 -0.941637 1.41659 0
M  V30 4231 O 414.008 -0.928751 1.70552 0
M  V30 4232 C 411.138 -1.28387 3.22698 0
M  V30 4233 C 410.092 -0.693098 4.22351 0
M  V30 4234 C 409.418 -1.8468 5.01794 0
M  V30 4235 C 410.718 0.33063 5.21252 0
M  V30 4236 H 412.412 0.466192 2.95748 0
M  V30 4237 H 409.958 0.225643 1.42221 0
M  V30 4238 H 411.911 -1.82024 3.80059 0
M  V30 4239 H 410.635 -2.01186 2.57278 0
M  V30 4240 H 409.294 -0.178299 3.66166 0
M  V30 4241 H 408.942 -2.56301 4.32804 0
M  V30 4242 H 408.642 -1.45747 5.69238 0
M  V30 4243 H 410.166 -2.38709 5.62006 0
M  V30 4244 H 411.58 -0.118407 5.73178 0
M  V30 4245 H 409.977 0.636974 5.9671 0
M  V30 4246 H 411.047 1.23883 4.68808 0
M  V30 4247 N 412.39 -1.55475 0.257931 0
M  V30 4248 C 413.32 -2.24815 -0.630912 0
M  V30 4249 C 414.301 -1.23224 -1.17259 0
M  V30 4250 O 415.486 -1.51904 -1.20991 0
M  V30 4251 C 412.616 -2.95609 -1.82298 0
M  V30 4252 C 411.57 -4.03982 -1.41359 0
M  V30 4253 C 410.896 -4.6226 -2.68738 0
M  V30 4254 C 412.196 -5.19109 -0.57648 0
M  V30 4255 H 413.89 -2.99354 -0.0526878 0
M  V30 4256 H 411.436 -1.4398 -0.023901 0
M  V30 4257 H 413.389 -3.42822 -2.45054 0
M  V30 4258 H 412.113 -2.18577 -2.42676 0
M  V30 4259 H 410.772 -3.57555 -0.809324 0
M  V30 4260 H 410.42 -3.81915 -3.27338 0
M  V30 4261 H 410.12 -5.35424 -2.42065 0
M  V30 4262 H 411.644 -5.12212 -3.32372 0
M  V30 4263 H 413.058 -5.62479 -1.10861 0
M  V30 4264 H 411.455 -5.98729 -0.405351 0
M  V30 4265 H 412.525 -4.83174 0.408776 0
M  V30 4266 N 413.868 0.0150385 -1.57593 0
M  V30 4267 C 414.798 1.01047 -2.10503 0
M  V30 4268 C 415.779 1.36816 -1.01071 0
M  V30 4269 O 416.964 1.45455 -1.28672 0
M  V30 4270 C 414.094 2.30708 -2.59598 0
M  V30 4271 C 413.048 2.09142 -3.73421 0
M  V30 4272 C 412.374 3.44685 -4.08774 0
M  V30 4273 C 413.674 1.46619 -5.01298 0
M  V30 4274 H 415.368 0.569978 -2.93925 0
M  V30 4275 H 412.914 0.272724 -1.41394 0
M  V30 4276 H 414.867 3.00687 -2.95238 0
M  V30 4277 H 413.591 2.76843 -1.73279 0
M  V30 4278 H 412.25 1.41592 -3.38153 0
M  V30 4279 H 411.898 3.88495 -3.195 0
M  V30 4280 H 411.598 3.31077 -4.8545 0
M  V30 4281 H 413.122 4.16004 -4.4696 0
M  V30 4282 H 414.536 2.06535 -5.34805 0
M  V30 4283 H 412.933 1.43544 -5.82679 0
M  V30 4284 H 414.003 0.433611 -4.82957 0
M  V30 4285 N 415.346 1.54954 0.287554 0
M  V30 4286 C 416.594 1.74528 1.01904 0
M  V30 4287 C 416.915 0.541349 1.87335 0
M  V30 4288 O 416.185 -0.444108 1.908 0
M  V30 4289 H 414.765 0.643576 0.379235 0
M  V30 4290 H 417.427 1.92333 0.315294 0
M  V30 4291 H 416.523 2.64015 1.6644 0
M  V30 4292 N 416.824 -0.551391 1.4764 0
M  V30 4293 C 417.754 -1.66757 1.63445 0
M  V30 4294 C 418.735 -1.63077 0.483742 0
M  V30 4295 O 419.92 -1.80607 0.71377 0
M  V30 4296 C 417.05 -3.05387 1.65396 0
M  V30 4297 C 416.004 -3.23918 2.79752 0
M  V30 4298 C 415.33 -4.63393 2.66779 0
M  V30 4299 C 416.63 -3.08735 4.21284 0
M  V30 4300 H 418.324 -1.53786 2.56886 0
M  V30 4301 H 415.87 -0.738415 1.23626 0
M  V30 4302 H 417.823 -3.83325 1.75043 0
M  V30 4303 H 416.547 -3.19332 0.685195 0
M  V30 4304 H 415.206 -2.48391 2.69625 0
M  V30 4305 H 414.854 -4.74144 1.67918 0
M  V30 4306 H 414.554 -4.7674 3.43501 0
M  V30 4307 H 416.078 -5.43458 2.78364 0
M  V30 4308 H 417.492 -3.76484 4.32357 0
M  V30 4309 H 415.889 -3.33588 4.98838 0
M  V30 4310 H 416.959 -2.0541 4.39243 0
M  V30 4311 N 418.302 -1.35869 -0.798587 0
M  V30 4312 C 419.53 -1.32722 -1.58722 0
M  V30 4313 C 419.945 0.0935631 -1.88568 0
M  V30 4314 O 419.302 1.04784 -1.49421 0
M  V30 4315 C 419.353 -2.13974 -2.91371 0
M  V30 4316 O 419.074 -3.50514 -2.62815 0
M  V30 4317 C 420.575 -2.18504 -3.85708 0
M  V30 4318 H 417.795 -0.45562 -0.492596 0
M  V30 4319 H 420.339 -1.78837 -0.991843 0
M  V30 4320 H 418.494 -1.71438 -3.47402 0
M  V30 4321 H 418.908 -3.92806 -3.47568 0
M  V30 4322 H 420.382 -2.79732 -4.75872 0
M  V30 4323 H 420.859 -1.18597 -4.22885 0
M  V30 4324 H 421.465 -2.61236 -3.35612 0
M  V30 4325 N 419.78 1.02168 -1.19998 0
M  V30 4326 C 421.029 1.75091 -1.0013 0
M  V30 4327 C 421.342 1.89923 0.467835 0
M  V30 4328 O 422.548 2.59888 0.785515 0
M  V30 4329 C 421.004 3.14892 -1.74273 0
M  V30 4330 C 420.612 3.0809 -3.25245 0
M  V30 4331 C 422.356 3.9206 -1.62755 0
M  V30 4332 C 420.263 4.42867 -3.91948 0
M  V30 4333 H 419.193 0.656394 -0.37103 0
M  V30 4334 H 421.844 1.14284 -1.43567 0
M  V30 4335 H 420.226 3.7621 -1.2362 0
M  V30 4336 H 421.4 2.5611 -3.83072 0
M  V30 4337 H 419.715 2.44416 -3.3712 0
M  V30 4338 H 422.312 4.91764 -2.09934 0
M  V30 4339 H 422.655 4.12199 -0.582894 0
M  V30 4340 H 423.188 3.37359 -2.10793 0
M  V30 4341 H 419.927 4.27931 -4.96543 0
M  V30 4342 H 419.447 4.94874 -3.3891 0
M  V30 4343 H 421.126 5.11728 -3.95909 0
M  V30 4344 N 421.258 1.00505 1.21394 0
M  V30 4345 C 422.504 0.688793 1.90745 0
M  V30 4346 C 422.837 -0.778486 1.77914 0
M  V30 4347 O 422.112 -1.56433 1.15581 0
M  V30 4348 C 422.395 1.11063 3.42545 0
M  V30 4349 C 422.248 2.63737 3.64367 0
M  V30 4350 C 423.567 0.673059 4.34923 0
M  V30 4351 H 420.686 0.251702 0.692687 0
M  V30 4352 H 423.328 1.25074 1.43026 0
M  V30 4353 H 421.478 0.632508 3.83317 0
M  V30 4354 H 423.15 3.19313 3.32922 0
M  V30 4355 H 421.393 3.05248 3.08231 0
M  V30 4356 H 422.064 2.88305 4.70727 0
M  V30 4357 H 424.54 1.08392 4.01734 0
M  V30 4358 H 423.416 0.996383 5.39781 0
M  V30 4359 H 423.677 -0.425808 4.40045 0
M  V30 4360 N 422.737 -1.36956 0.779787 0
M  V30 4361 C 423.962 -2.04283 0.358224 0
M  V30 4362 C 424.387 -1.58422 -1.01411 0
M  V30 4363 O 423.745 -0.748179 -1.65142 0
M  V30 4364 C 423.793 -3.58152 0.419479 0
M  V30 4365 O 422.897 -4.08342 -0.577142 0
M  V30 4366 H 422.238 -0.645967 0.153698 0
M  V30 4367 H 424.768 -1.75108 1.05822 0
M  V30 4368 H 424.778 -4.07041 0.279636 0
M  V30 4369 H 423.453 -3.90886 1.42061 0
M  V30 4370 H 422.03 -3.70751 -0.399755 0
M  V30 4371 N 424.215 -0.530993 -1.48385 0
M  V30 4372 C 425.463 0.00273189 -2.021 0
M  V30 4373 C 425.784 1.34672 -1.41027 0
M  V30 4374 O 425.054 1.8724 -0.576012 0
M  V30 4375 H 423.634 0.00399774 -0.746989 0
M  V30 4376 H 426.296 -0.695054 -1.82085 0
M  V30 4377 H 425.392 0.11031 -3.11905 0
M  V30 4378 N 425.693 1.55336 -0.266172 0
M  V30 4379 C 426.939 2.00423 0.346714 0
M  V30 4380 C 427.294 1.15132 1.54151 0
M  V30 4381 O 426.587 0.211289 1.90431 0
M  V30 4382 C 426.781 3.48606 0.787957 0
M  V30 4383 C 426.61 4.48236 -0.362535 0
M  V30 4384 C 425.38 4.98211 -0.843445 0
M  V30 4385 C 427.578 5.00199 -1.19603 0
M  V30 4386 N 425.56 5.81625 -1.96434 0
M  V30 4387 C 426.931 5.80973 -2.16497 0
M  V30 4388 C 428.986 4.82458 -1.2304 0
M  V30 4389 C 427.689 6.45896 -3.1656 0
M  V30 4390 C 429.715 5.48174 -2.21944 0
M  V30 4391 C 429.077 6.28751 -3.17571 0
M  V30 4392 H 425.176 0.776535 0.0922914 0
M  V30 4393 H 427.76 1.90792 -0.388154 0
M  V30 4394 H 425.931 3.58597 1.49207 0
M  V30 4395 H 427.663 3.80538 1.37742 0
M  V30 4396 H 424.418 4.71696 -0.424271 0
M  V30 4397 H 424.842 6.28025 -2.52813 0
M  V30 4398 H 429.484 4.19774 -0.504903 0
M  V30 4399 H 427.202 7.07734 -3.90048 0
M  V30 4400 H 430.788 5.36392 -2.25333 0
M  V30 4401 H 429.668 6.78703 -3.92851 0
M  V30 4402 N 427.171 -0.0066808 1.57599 0
M  V30 4403 C 428.401 -0.703066 1.94269 0
M  V30 4404 C 428.809 -1.68206 0.866222 0
M  V30 4405 O 428.152 -1.82966 -0.164087 0
M  V30 4406 C 428.214 -1.49616 3.26887 0
M  V30 4407 C 427.878 -0.679494 4.5192 0
M  V30 4408 C 428.875 0.0299508 5.19891 0
M  V30 4409 C 426.56 -0.627433 4.98366 0
M  V30 4410 C 428.554 0.780514 6.32603 0
M  V30 4411 C 426.241 0.126861 6.10968 0
M  V30 4412 C 427.239 0.829574 6.77943 0
M  V30 4413 O 426.927 1.57157 7.88389 0
M  V30 4414 H 426.659 -0.201217 0.645359 0
M  V30 4415 H 429.213 0.0385326 2.05364 0
M  V30 4416 H 427.443 -2.28209 3.12182 0
M  V30 4417 H 429.132 -2.07726 3.48719 0
M  V30 4418 H 429.898 -0.00115963 4.85 0
M  V30 4419 H 425.777 -1.16392 4.46065 0
M  V30 4420 H 429.321 1.32954 6.84813 0
M  V30 4421 H 425.218 0.159815 6.45302 0
M  V30 4422 H 425.986 1.48758 8.04868 0
M  V30 4423 N 428.649 -1.55105 -0.279332 0
M  V30 4424 C 429.895 -1.76597 -1.00921 0
M  V30 4425 C 430.25 -0.556831 -1.84166 0
M  V30 4426 O 429.543 0.450573 -1.86227 0
M  V30 4427 C 429.737 -3.0086 -1.92919 0
M  V30 4428 C 429.566 -4.33744 -1.18728 0
M  V30 4429 C 428.336 -4.9712 -0.905545 0
M  V30 4430 C 430.534 -5.11009 -0.580857 0
M  V30 4431 N 428.516 -6.13749 -0.136169 0
M  V30 4432 C 429.887 -6.19976 0.0546661 0
M  V30 4433 C 431.942 -4.95502 -0.488067 0
M  V30 4434 C 430.645 -7.15123 0.774028 0
M  V30 4435 C 432.671 -5.90999 0.217688 0
M  V30 4436 C 432.033 -6.9935 0.841975 0
M  V30 4437 H 428.132 -0.698553 -0.351493 0
M  V30 4438 H 430.716 -1.92595 -0.285531 0
M  V30 4439 H 428.887 -2.86249 -2.62519 0
M  V30 4440 H 430.619 -3.10784 -2.59221 0
M  V30 4441 H 427.374 -4.57903 -1.20921 0
M  V30 4442 H 427.798 -6.7659 0.235665 0
M  V30 4443 H 432.44 -4.11841 -0.956406 0
M  V30 4444 H 430.158 -7.9831 1.25407 0
M  V30 4445 H 433.744 -5.81078 0.289717 0
M  V30 4446 H 432.624 -7.71973 1.37939 0
M  V30 4447 N 430.127 0.543554 -1.4793 0
M  V30 4448 C 431.367 1.31072 -1.56843 0
M  V30 4449 C 431.731 1.90604 -0.231124 0
M  V30 4450 O 432.932 2.68091 -0.195165 0
M  V30 4451 C 431.203 2.38106 -2.66533 0
M  V30 4452 S 432.762 3.24729 -2.95122 0
M  V30 4453 H 429.58 0.446035 -0.553691 0
M  V30 4454 H 432.182 0.620777 -1.85382 0
M  V30 4455 H 430.886 1.92828 -3.62278 0
M  V30 4456 H 430.417 3.11824 -2.39852 0
M  V30 4457 H 432.432 4.37891 -2.3338 0
M  V30 4458 N 431.605 1.3629 0.791371 0
M  V30 4459 C 432.83 1.33726 1.58531 0
M  V30 4460 C 433.255 -0.0794933 1.87932 0
M  V30 4461 O 432.613 -1.05087 1.47738 0
M  V30 4462 C 432.661 2.16425 2.88431 0
M  V30 4463 O 431.765 1.5554 3.81944 0
M  V30 4464 H 431.106 0.457793 0.480959 0
M  V30 4465 H 433.636 1.79547 0.981031 0
M  V30 4466 H 433.646 2.28933 3.37718 0
M  V30 4467 H 432.321 3.19415 2.66359 0
M  V30 4468 H 430.898 1.51961 3.40532 0
M  V30 4469 N 433.083 -1.0153 1.20538 0
M  V30 4470 C 434.36 -1.72327 0.925343 0
M  V30 4471 C 434.74 -2.03383 -0.565547 0
M  V30 4472 O 434.088 -1.69934 -1.52757 0
M  V30 4473 C 434.298 -2.9902 1.79967 0
M  V30 4474 C 435.646 -3.72258 2.04228 0
M  V30 4475 O 436.67 -3.08979 1.77231 0
M  V30 4476 O 435.529 -4.86053 2.4983 0
M  V30 4477 H 432.623 -0.751099 0.346092 0
M  V30 4478 H 435.169 -1.07366 1.31417 0
M  V30 4479 H 433.941 -2.72402 2.80915 0
M  V30 4480 H 433.564 -3.71721 1.41099 0
M  V30 4481 N 434.561 -1.01147 -1.20859 0
M  V30 4482 C 435.493 -0.535546 -2.22855 0
M  V30 4483 C 436.506 0.379323 -1.58319 0
M  V30 4484 O 437.695 0.178489 -1.77605 0
M  V30 4485 C 434.795 0.240962 -3.38042 0
M  V30 4486 C 433.968 -0.674562 -4.32167 0
M  V30 4487 C 433.027 0.053467 -5.26173 0
M  V30 4488 O 432.053 -0.567339 -5.66366 0
M  V30 4489 N 433.255 1.32997 -5.65059 0
M  V30 4490 H 436.02 -1.41268 -2.64317 0
M  V30 4491 H 433.581 -0.888386 -1.35349 0
M  V30 4492 H 435.573 0.737115 -3.97931 0
M  V30 4493 H 434.143 1.01935 -2.95513 0
M  V30 4494 H 433.363 -1.35111 -3.70322 0
M  V30 4495 H 434.651 -1.2974 -4.91981 0
M  V30 4496 H 434.049 1.85536 -5.34409 0
M  V30 4497 H 432.606 1.77095 -6.2728 0
M  V30 4498 N 436.039 1.36541 -0.78704 0
M  V30 4499 C 437.285 1.99599 -0.358872 0
M  V30 4500 C 437.618 1.62323 1.06606 0
M  V30 4501 O 436.893 0.876858 1.73613 0
M  V30 4502 C 437.176 3.56327 -0.519944 0
M  V30 4503 C 437.029 4.03464 -1.98839 0
M  V30 4504 C 438.348 4.4005 0.0664737 0
M  V30 4505 H 435.467 0.725107 -0.131869 0
M  V30 4506 H 438.109 1.6199 -0.992936 0
M  V30 4507 H 436.259 3.88495 0.0198321 0
M  V30 4508 H 437.931 3.81793 -2.58905 0
M  V30 4509 H 436.174 3.55092 -2.49183 0
M  V30 4510 H 436.845 5.12439 -2.05207 0
M  V30 4511 H 439.321 4.14228 -0.394267 0
M  V30 4512 H 438.197 5.48847 -0.0762682 0
M  V30 4513 H 438.458 4.26655 1.15835 0
M  V30 4514 N 437.518 0.538854 1.48102 0
M  V30 4515 C 438.767 0.0059532 2.01699 0
M  V30 4516 C 439.08 -1.34476 1.42041 0
M  V30 4517 O 440.286 -1.96653 1.87189 0
M  V30 4518 C 438.742 -0.0397627 3.59878 0
M  V30 4519 C 438.35 1.30659 4.28523 0
M  V30 4520 C 440.094 -0.521024 4.2129 0
M  V30 4521 C 438.001 1.22098 5.78659 0
M  V30 4522 H 436.931 -0.00154456 0.753998 0
M  V30 4523 H 439.582 0.683963 1.70277 0
M  V30 4524 H 437.964 -0.783037 3.88181 0
M  V30 4525 H 439.138 2.06613 4.11883 0
M  V30 4526 H 437.453 1.7243 3.79021 0
M  V30 4527 H 440.05 -0.603184 5.31287 0
M  V30 4528 H 440.393 -1.52885 3.8721 0
M  V30 4529 H 440.926 0.166834 3.9745 0
M  V30 4530 H 437.665 2.20424 6.17328 0
M  V30 4531 H 437.185 0.50295 5.97688 0
M  V30 4532 H 438.864 0.915345 6.40492 0
M  V30 4533 N 438.996 -1.55193 0.274407 0
M  V30 4534 C 440.242 -1.99877 -0.343086 0
M  V30 4535 C 440.575 -1.16256 -1.55558 0
M  V30 4536 O 439.85 -0.232462 -1.93106 0
M  V30 4537 C 440.133 -3.52706 -0.725965 0
M  V30 4538 C 439.986 -4.47081 0.493818 0
M  V30 4539 C 441.305 -4.11422 -1.56268 0
M  V30 4540 H 438.424 -0.726625 -0.123229 0
M  V30 4541 H 441.066 -1.86136 0.38121 0
M  V30 4542 H 439.216 -3.64546 -1.34307 0
M  V30 4543 H 440.888 -4.47186 1.13237 0
M  V30 4544 H 439.131 -4.1877 1.13201 0
M  V30 4545 H 439.802 -5.51699 0.18217 0
M  V30 4546 H 442.278 -4.02855 -1.04151 0
M  V30 4547 H 441.154 -5.18568 -1.79939 0
M  V30 4548 H 441.415 -3.61607 -2.54348 0
M  V30 4549 N 440.474 -0.00167713 -1.576 0
M  V30 4550 C 441.406 1.0174 -2.05382 0
M  V30 4551 C 442.419 1.30595 -0.972052 0
M  V30 4552 O 443.608 1.27542 -1.24882 0
M  V30 4553 C 440.708 2.35174 -2.44022 0
M  V30 4554 C 439.881 2.25234 -3.74951 0
M  V30 4555 C 438.94 3.4137 -4.00441 0
M  V30 4556 O 437.966 3.19483 -4.71083 0
M  V30 4557 N 439.168 4.64275 -3.48467 0
M  V30 4558 H 441.933 0.609902 -2.93428 0
M  V30 4559 H 439.494 0.185672 -1.60832 0
M  V30 4560 H 441.486 3.11643 -2.58187 0
M  V30 4561 H 440.056 2.67659 -1.61485 0
M  V30 4562 H 439.276 1.33664 -3.70847 0
M  V30 4563 H 440.564 2.15767 -4.60784 0
M  V30 4564 H 439.962 4.84955 -2.91264 0
M  V30 4565 H 438.519 5.38005 -3.67959 0
M  V30 4566 N 441.952 1.55251 0.271103 0
M  V30 4567 C 443.368 1.47133 0.618393 0
M  V30 4568 C 443.568 0.686994 1.89427 0
M  V30 4569 O 442.624 0.206609 2.51653 0
M  V30 4570 C 443.937 2.91361 0.743593 0
M  V30 4571 C 445.485 3.01587 0.837522 0
M  V30 4572 C 445.96 4.47073 0.994483 0
M  V30 4573 N 447.451 4.50909 1.05996 0
M  V30 4574 C 448.186 5.60698 1.20024 0
M  V30 4575 N 447.682 6.80348 1.30759 0
M  V30 4576 N 449.475 5.48444 1.23149 0
M  V30 4577 H 441.626 2.04698 -0.566784 0
M  V30 4578 H 443.889 0.928319 -0.192165 0
M  V30 4579 H 443.595 3.51483 -0.123493 0
M  V30 4580 H 443.469 3.40484 1.62328 0
M  V30 4581 H 445.856 2.4156 1.69507 0
M  V30 4582 H 445.937 2.55713 -0.0668086 0
M  V30 4583 H 445.581 5.07703 0.141582 0
M  V30 4584 H 445.511 4.90605 1.91349 0
M  V30 4585 H 448.002 3.6472 0.989316 0
M  V30 4586 H 448.315 7.59772 1.41303 0
M  V30 4587 H 446.66 6.83156 1.27761 0
M  V30 4588 H 449.851 4.53907 1.14394 0
M  V30 4589 H 450.024 6.34049 1.33738 0
M  V30 4590 N 443.43 -0.535701 1.48216 0
M  V30 4591 C 444.67 -1.30238 1.57536 0
M  V30 4592 C 445.034 -1.90479 0.241229 0
M  V30 4593 O 446.235 -2.67983 0.20938 0
M  V30 4594 C 444.506 -2.3669 2.67792 0
M  V30 4595 S 446.065 -3.23159 2.9684 0
M  V30 4596 H 442.883 -0.443093 0.556048 0
M  V30 4597 H 445.485 -0.610937 1.85709 0
M  V30 4598 H 444.189 -1.90905 3.63296 0
M  V30 4599 H 443.72 -3.10548 2.41502 0
M  V30 4600 H 445.735 -4.36647 2.35699 0
M  V30 4601 N 444.908 -1.36708 -0.784132 0
M  V30 4602 C 445.838 -1.34153 -1.91116 0
M  V30 4603 C 446.819 -0.212121 -1.68772 0
M  V30 4604 O 448.004 -0.410581 -1.8981 0
M  V30 4605 C 445.134 -1.13535 -3.28218 0
M  V30 4606 C 444.088 -2.23356 -3.65097 0
M  V30 4607 C 443.414 -1.87875 -5.00607 0
M  V30 4608 C 444.714 -3.65473 -3.73131 0
M  V30 4609 H 446.408 -2.28459 -1.93512 0
M  V30 4610 H 443.954 -1.09973 -0.929618 0
M  V30 4611 H 445.907 -1.10381 -4.06687 0
M  V30 4612 H 444.631 -0.156804 -3.26223 0
M  V30 4613 H 443.29 -2.25645 -2.88929 0
M  V30 4614 H 442.938 -0.885814 -4.95139 0
M  V30 4615 H 442.638 -2.61406 -5.26252 0
M  V30 4616 H 444.162 -1.86286 -5.81489 0
M  V30 4617 H 445.576 -3.65382 -4.41779 0
M  V30 4618 H 443.973 -4.37953 -4.10265 0
M  V30 4619 H 445.043 -3.99995 -2.74102 0
M  V30 4620 N 446.386 1.0089 -1.21074 0
M  V30 4621 C 447.349 2.0775 -0.968129 0
M  V30 4622 C 448.349 1.6069 0.0593445 0
M  V30 4623 O 449.539 1.73293 -0.177525 0
M  V30 4624 C 446.671 3.37794 -0.459108 0
M  V30 4625 H 447.864 2.30707 -1.9161 0
M  V30 4626 H 445.417 1.17807 -1.02719 0
M  V30 4627 H 446.152 3.20516 0.49397 0
M  V30 4628 H 445.937 3.7328 -1.20019 0
M  V30 4629 H 447.427 4.16454 -0.309099 0
M  V30 4630 N 447.864 1.01787 1.20321 0
M  V30 4631 C 449.112 0.706538 1.89347 0
M  V30 4632 C 449.433 -0.766289 1.79313 0
M  V30 4633 O 448.703 -1.55126 1.19635 0
M  V30 4634 H 447.283 0.258348 0.700903 0
M  V30 4635 H 449.945 1.28974 1.46122 0
M  V30 4636 H 449.041 0.991066 2.95946 0
M  V30 4637 N 449.342 -1.36122 0.79427 0
M  V30 4638 C 450.289 -2.29982 0.194101 0
M  V30 4639 C 451.259 -1.52214 -0.664833 0
M  V30 4640 O 452.444 -1.80702 -0.612498 0
M  V30 4641 C 449.584 -3.38706 -0.661244 0
M  V30 4642 C 448.697 -4.31456 0.216766 0
M  V30 4643 C 447.832 -5.27265 -0.645411 0
M  V30 4644 C 446.871 -6.11653 0.233756 0
M  V30 4645 N 446.008 -6.99636 -0.587682 0
M  V30 4646 H 450.848 -2.80722 0.999965 0
M  V30 4647 H 448.385 -1.38172 0.504677 0
M  V30 4648 H 450.343 -4.00394 -1.17219 0
M  V30 4649 H 448.973 -2.89274 -1.43249 0
M  V30 4650 H 448.025 -3.7088 0.845724 0
M  V30 4651 H 449.337 -4.90724 0.893973 0
M  V30 4652 H 448.491 -5.94266 -1.22198 0
M  V30 4653 H 447.23 -4.68463 -1.35623 0
M  V30 4654 H 446.235 -5.4361 0.82269 0
M  V30 4655 H 447.46 -6.72531 0.942247 0
M  V30 4656 H 445.406 -6.43337 -1.2827 0
M  V30 4657 H 445.323 -7.55993 0.0317402 0
M  V30 4658 H 446.591 -7.71001 -1.14792 0
M  V30 4659 N 450.82 -0.546701 -1.47814 0
M  V30 4660 C 452.045 -0.021268 -2.07389 0
M  V30 4661 C 452.47 1.25822 -1.39822 0
M  V30 4662 O 451.828 1.75111 -0.46968 0
M  V30 4663 C 451.876 0.168502 -3.60206 0
M  V30 4664 O 450.98 1.23347 -3.93522 0
M  V30 4665 H 450.321 -0.0466108 -0.662362 0
M  V30 4666 H 452.851 -0.759387 -1.89985 0
M  V30 4667 H 452.861 0.385982 -4.0617 0
M  V30 4668 H 451.536 -0.766075 -4.08784 0
M  V30 4669 H 450.113 0.997319 -3.59316 0
M  V30 4670 N 452.299 1.55045 -0.282633 0
M  V30 4671 C 453.229 2.2579 0.595066 0
M  V30 4672 C 454.21 1.25074 1.15284 0
M  V30 4673 O 455.395 1.5381 1.18559 0
M  V30 4674 C 452.525 2.98472 1.77572 0
M  V30 4675 C 451.479 4.0618 1.34914 0
M  V30 4676 C 450.805 4.66477 2.6135 0
M  V30 4677 C 452.105 5.1996 0.493821 0
M  V30 4678 H 453.799 2.994 0.00505653 0
M  V30 4679 H 451.345 1.44 0.000992001 0
M  V30 4680 H 453.298 3.46677 2.39568 0
M  V30 4681 H 452.022 2.2241 2.39168 0
M  V30 4682 H 450.681 3.58797 0.752338 0
M  V30 4683 H 450.329 3.87074 3.2122 0
M  V30 4684 H 450.029 5.39207 2.33516 0
M  V30 4685 H 451.553 5.17435 3.24181 0
M  V30 4686 H 452.967 5.64172 1.01898 0
M  V30 4687 H 451.364 5.99299 0.310047 0
M  V30 4688 H 452.434 4.82462 -0.485593 0
M  V30 4689 N 453.777 0.010035 1.57597 0
M  V30 4690 C 455.005 -0.683413 1.95287 0
M  V30 4691 C 455.42 -1.66747 0.885481 0
M  V30 4692 O 454.777 -1.82003 -0.134629 0
M  V30 4693 C 454.828 -1.40652 3.33015 0
M  V30 4694 O 454.549 -0.461916 4.35658 0
M  V30 4695 C 456.05 -2.19356 3.85225 0
M  V30 4696 H 453.27 -0.189708 0.643624 0
M  V30 4697 H 455.814 0.0641359 2.04399 0
M  V30 4698 H 453.969 -2.10562 3.2518 0
M  V30 4699 H 454.383 -0.973215 5.15392 0
M  V30 4700 H 455.857 -2.65433 4.83993 0
M  V30 4701 H 456.334 -3.02457 3.18459 0
M  V30 4702 H 456.94 -1.54442 3.96267 0
M  V30 4703 N 455.255 -1.55392 -0.262866 0
M  V30 4704 C 456.205 -1.85355 -1.32768 0
M  V30 4705 C 457.189 -0.713188 -1.44231 0
M  V30 4706 O 458.381 -0.974765 -1.47741 0
M  V30 4707 C 455.51 -2.13781 -2.68612 0
M  V30 4708 C 454.596 -3.34104 -2.61219 0
M  V30 4709 N 454.987 -4.53766 -2.2345 0
M  V30 4710 C 453.285 -3.36895 -2.92263 0
M  V30 4711 C 453.986 -5.35877 -2.26298 0
M  V30 4712 N 452.962 -4.74536 -2.65172 0
M  V30 4713 H 456.764 -2.75413 -1.02591 0
M  V30 4714 H 454.278 -1.55405 -0.471503 0
M  V30 4715 H 456.275 -2.33407 -3.45437 0
M  V30 4716 H 454.935 -1.25013 -2.99669 0
M  V30 4717 H 455.946 -4.79682 -1.95258 0
M  V30 4718 H 452.623 -2.58351 -3.27965 0
M  V30 4719 H 454.013 -6.41577 -1.99572 0
M  V30 4720 N 456.733 0.527833 -1.48498 0
M  V30 4721 C 457.982 1.28003 -1.55878 0
M  V30 4722 C 458.295 1.9414 -0.238577 0
M  V30 4723 O 459.501 2.7083 -0.190643 0
M  V30 4724 C 457.957 2.32272 -2.74914 0
M  V30 4725 C 457.565 1.72196 -4.13585 0
M  V30 4726 C 459.309 3.08488 -2.91608 0
M  V30 4727 C 457.216 2.74417 -5.23879 0
M  V30 4728 H 456.146 0.481413 -0.580308 0
M  V30 4729 H 458.797 0.557195 -1.74836 0
M  V30 4730 H 457.179 3.07601 -2.49395 0
M  V30 4731 H 458.353 1.03041 -4.49132 0
M  V30 4732 H 456.668 1.08464 -4.02025 0
M  V30 4733 H 459.265 3.84879 -3.71177 0
M  V30 4734 H 459.608 3.64481 -2.01145 0
M  V30 4735 H 460.141 2.40274 -3.17038 0
M  V30 4736 H 456.88 2.23242 -6.16314 0
M  V30 4737 H 456.4 3.41893 -4.92818 0
M  V30 4738 H 458.079 3.37362 -5.52083 0
M  V30 4739 N 458.211 1.37122 0.776871 0
M  V30 4740 C 459.158 1.3247 1.88998 0
M  V30 4741 C 460.128 0.191143 1.64997 0
M  V30 4742 O 461.313 0.379683 1.86984 0
M  V30 4743 C 458.453 1.13241 3.25992 0
M  V30 4744 C 457.566 2.35782 3.61982 0
M  V30 4745 C 456.701 2.09465 4.88158 0
M  V30 4746 C 455.74 3.279 5.16864 0
M  V30 4747 N 454.877 3.01167 6.34226 0
M  V30 4748 H 459.717 2.27642 1.9231 0
M  V30 4749 H 457.254 1.13125 0.94027 0
M  V30 4750 H 459.212 1.00115 4.0501 0
M  V30 4751 H 457.842 0.217186 3.22069 0
M  V30 4752 H 456.894 2.59666 2.77989 0
M  V30 4753 H 458.206 3.24125 3.79137 0
M  V30 4754 H 457.36 1.93341 5.75069 0
M  V30 4755 H 456.099 1.18452 4.73097 0
M  V30 4756 H 455.104 3.44569 4.2843 0
M  V30 4757 H 456.329 4.19757 5.33836 0
M  V30 4758 H 454.275 2.12779 6.20533 0
M  V30 4759 H 454.192 3.83052 6.51772 0
M  V30 4760 H 455.46 2.88649 7.24087 0
M  V30 4761 N 459.689 -1.00246 1.21608 0
M  V30 4762 C 460.652 -2.07233 0.979133 0
M  V30 4763 C 461.652 -1.6072 -0.0508219 0
M  V30 4764 O 462.842 -1.73196 0.186712 0
M  V30 4765 C 459.974 -3.37546 0.477016 0
M  V30 4766 H 461.167 -2.29687 1.92831 0
M  V30 4767 H 458.72 -1.17261 1.03342 0
M  V30 4768 H 459.455 -3.20773 -0.476966 0
M  V30 4769 H 459.24 -3.72638 1.21997 0
M  V30 4770 H 460.73 -4.16285 0.331181 0
M  V30 4771 N 461.167 -1.02423 -1.1978 0
M  V30 4772 C 462.415 -0.716569 -1.8897 0
M  V30 4773 C 462.736 0.756769 -1.79716 0
M  V30 4774 O 462.006 1.5449 -1.20456 0
M  V30 4775 H 460.586 -0.262062 -0.699523 0
M  V30 4776 H 463.248 -1.29747 -1.45436 0
M  V30 4777 H 462.344 -1.00675 -2.95417 0
M  V30 4778 N 462.645 1.35699 -0.801477 0
M  V30 4779 C 463.885 2.00741 -0.385027 0
M  V30 4780 C 464.249 1.62213 1.02718 0
M  V30 4781 O 465.45 2.19936 1.54537 0
M  V30 4782 C 463.721 3.53032 -0.557057 0
M  V30 4783 S 465.28 4.38195 -0.230272 0
M  V30 4784 H 462.098 0.695748 -0.146477 0
M  V30 4785 H 464.7 1.65378 -1.04261 0
M  V30 4786 H 463.404 3.7856 -1.58494 0
M  V30 4787 H 462.935 3.93229 0.116029 0
M  V30 4788 H 464.95 4.86748 0.963895 0
M  V30 4789 N 464.123 0.554532 1.47522 0
M  V30 4790 C 465.372 0.0273458 2.01681 0
M  V30 4791 C 465.685 -1.32962 1.43459 0
M  V30 4792 O 466.891 -1.94657 1.89265 0
M  V30 4793 C 465.347 -0.00159057 3.599 0
M  V30 4794 C 464.955 1.35197 4.27113 0
M  V30 4795 C 466.699 -0.476311 4.21819 0
M  V30 4796 C 464.606 1.28229 5.77331 0
M  V30 4797 H 463.536 0.00645269 0.753972 0
M  V30 4798 H 466.187 0.701985 1.69542 0
M  V30 4799 H 464.569 -0.741821 3.8899 0
M  V30 4800 H 465.743 2.1097 4.09668 0
M  V30 4801 H 464.058 1.76441 3.77171 0
M  V30 4802 H 466.655 -0.5468 5.31897 0
M  V30 4803 H 466.998 -1.4877 3.8881 0
M  V30 4804 H 467.531 0.20898 3.97251 0
M  V30 4805 H 464.27 2.26959 6.14955 0
M  V30 4806 H 463.79 0.566314 5.97121 0
M  V30 4807 H 465.469 0.983226 6.39485 0
M  V30 4808 N 465.601 -1.54893 0.290851 0
M  V30 4809 C 466.531 -2.26103 -0.583084 0
M  V30 4810 C 467.512 -1.25684 -1.14619 0
M  V30 4811 O 468.697 -1.54436 -1.17741 0
M  V30 4812 C 465.827 -2.99409 -1.75987 0
M  V30 4813 C 464.781 -4.0689 -1.32758 0
M  V30 4814 C 464.107 -4.67856 -2.58872 0
M  V30 4815 C 465.407 -5.20215 -0.46624 0
M  V30 4816 H 467.101 -2.99398 0.0108214 0
M  V30 4817 H 464.647 -1.43998 0.00664468 0
M  V30 4818 H 466.6 -3.47943 -2.37727 0
M  V30 4819 H 465.324 -2.23675 -2.37985 0
M  V30 4820 H 463.983 -3.59191 -0.733299 0
M  V30 4821 H 463.631 -3.88772 -3.19163 0
M  V30 4822 H 463.331 -5.40438 -2.30653 0
M  V30 4823 H 464.855 -5.19147 -3.21433 0
M  V30 4824 H 466.269 -5.64704 -0.989047 0
M  V30 4825 H 464.666 -5.99455 -0.27826 0
M  V30 4826 H 465.736 -4.82198 0.511173 0
M  V30 4827 N 467.08 -0.0183926 -1.57589 0
M  V30 4828 C 468.32 0.666846 -1.93216 0
M  V30 4829 C 468.684 1.69905 -0.894215 0
M  V30 4830 O 469.885 2.436 -1.13633 0
M  V30 4831 C 468.156 1.27684 -3.33814 0
M  V30 4832 S 469.715 1.98464 -3.91353 0
M  V30 4833 H 466.533 0.219826 -0.676164 0
M  V30 4834 H 469.135 -0.0794893 -1.95338 0
M  V30 4835 H 467.839 0.513006 -4.07181 0
M  V30 4836 H 467.37 2.06071 -3.3511 0
M  V30 4837 H 469.385 3.26189 -3.73918 0
M  V30 4838 N 468.558 1.5553 0.254621 0
M  V30 4839 C 469.806 1.7665 0.981793 0
M  V30 4840 C 470.127 0.580963 1.86145 0
M  V30 4841 O 469.397 -0.403537 1.91699 0
M  V30 4842 H 467.977 0.651475 0.365498 0
M  V30 4843 H 470.639 1.92958 0.274426 0
M  V30 4844 H 469.735 2.67486 1.60802 0
M  V30 4845 N 470.036 -0.519951 1.48776 0
M  V30 4846 C 471.266 -1.29783 1.60748 0
M  V30 4847 C 471.674 -1.87253 0.27072 0
M  V30 4848 O 471.017 -1.67628 -0.751438 0
M  V30 4849 C 471.079 -2.47984 2.60277 0
M  V30 4850 C 470.743 -2.11526 4.051 0
M  V30 4851 C 471.74 -1.66608 4.92481 0
M  V30 4852 C 469.425 -2.21742 4.50706 0
M  V30 4853 C 471.419 -1.32384 6.23501 0
M  V30 4854 C 469.106 -1.87129 5.81744 0
M  V30 4855 C 470.104 -1.42523 6.67964 0
M  V30 4856 O 469.792 -1.0837 7.96562 0
M  V30 4857 H 469.524 -0.400562 0.544542 0
M  V30 4858 H 472.078 -0.632879 1.95407 0
M  V30 4859 H 470.308 -3.17493 2.2076 0
M  V30 4860 H 471.997 -3.10036 2.61978 0
M  V30 4861 H 472.763 -1.58178 4.58481 0
M  V30 4862 H 468.642 -2.55415 3.83776 0
M  V30 4863 H 472.186 -0.974949 6.90754 0
M  V30 4864 H 468.083 -1.95204 6.15277 0
M  V30 4865 H 468.851 -1.21681 8.09405 0
M  V30 4866 N 471.514 -1.37532 -0.769588 0
M  V30 4867 C 472.444 -1.36172 -1.89682 0
M  V30 4868 C 473.425 -0.23001 -1.68538 0
M  V30 4869 O 474.61 -0.43069 -1.89364 0
M  V30 4870 C 471.74 -1.1701 -3.26995 0
M  V30 4871 C 470.694 -2.27216 -3.62708 0
M  V30 4872 C 470.02 -1.93174 -4.98586 0
M  V30 4873 C 471.32 -3.6941 -3.69234 0
M  V30 4874 H 473.014 -2.30499 -1.91078 0
M  V30 4875 H 470.56 -1.10953 -0.917902 0
M  V30 4876 H 472.513 -1.14688 -4.05493 0
M  V30 4877 H 471.237 -0.191395 -3.26039 0
M  V30 4878 H 469.896 -2.28697 -2.86519 0
M  V30 4879 H 469.544 -0.938281 -4.94171 0
M  V30 4880 H 469.244 -2.66973 -5.23449 0
M  V30 4881 H 470.768 -1.92443 -5.79481 0
M  V30 4882 H 472.182 -3.70047 -4.37879 0
M  V30 4883 H 470.579 -4.4228 -4.05597 0
M  V30 4884 H 471.649 -4.0288 -2.69844 0
M  V30 4885 N 472.992 0.995999 -1.22138 0
M  V30 4886 C 473.939 2.08551 -0.988687 0
M  V30 4887 C 474.909 1.65864 0.0885021 0
M  V30 4888 O 476.094 1.90704 -0.0604589 0
M  V30 4889 C 473.234 3.40374 -0.569191 0
M  V30 4890 C 472.347 3.96421 -1.71681 0
M  V30 4891 C 471.482 5.1639 -1.2456 0
M  V30 4892 C 470.521 5.64567 -2.36497 0
M  V30 4893 N 469.658 6.75777 -1.90445 0
M  V30 4894 H 474.498 2.2779 -1.92135 0
M  V30 4895 H 472.035 1.1168 -0.957388 0
M  V30 4896 H 473.993 4.16068 -0.307166 0
M  V30 4897 H 472.623 3.21145 0.326462 0
M  V30 4898 H 471.675 3.17628 -2.09324 0
M  V30 4899 H 472.987 4.2816 -2.55891 0
M  V30 4900 H 472.141 5.99362 -0.940774 0
M  V30 4901 H 470.88 4.86266 -0.373662 0
M  V30 4902 H 469.885 4.80185 -2.67772 0
M  V30 4903 H 471.11 5.96716 -3.24202 0
M  V30 4904 H 469.056 6.47443 -1.05609 0
M  V30 4905 H 468.973 7.06818 -2.68223 0
M  V30 4906 H 470.241 7.62262 -1.63022 0
M  V30 4907 N 474.47 1.03057 1.19235 0
M  V30 4908 C 475.4 0.633497 2.24742 0
M  V30 4909 C 476.381 -0.358335 1.66283 0
M  V30 4910 O 477.566 -0.240676 1.92703 0
M  V30 4911 C 474.696 -0.0147648 3.47297 0
M  V30 4912 C 473.65 0.899527 4.18441 0
M  V30 4913 C 472.976 0.116281 5.34574 0
M  V30 4914 C 474.276 2.21404 4.73051 0
M  V30 4915 H 475.97 1.5155 2.58211 0
M  V30 4916 H 473.516 0.73014 1.24117 0
M  V30 4917 H 475.469 -0.304202 4.20301 0
M  V30 4918 H 474.193 -0.931577 3.13032 0
M  V30 4919 H 472.852 1.17319 3.47321 0
M  V30 4920 H 472.5 -0.802619 4.96555 0
M  V30 4921 H 472.2 0.725293 5.83107 0
M  V30 4922 H 473.724 -0.166376 6.10373 0
M  V30 4923 H 475.138 1.98601 5.37802 0
M  V30 4924 H 473.535 2.77512 5.32078 0
M  V30 4925 H 474.605 2.86752 3.91026 0
M  V30 4926 N 475.948 -1.35272 0.808662 0
M  V30 4927 C 477.176 -2.02946 0.402537 0
M  V30 4928 C 477.591 -1.60937 -0.987147 0
M  V30 4929 O 476.948 -0.807917 -1.63643 0
M  V30 4930 C 476.999 -3.58317 0.47868 0
M  V30 4931 O 476.72 -3.98799 1.81358 0
M  V30 4932 C 478.221 -4.43251 0.0656281 0
M  V30 4933 H 475.441 -0.650831 0.163279 0
M  V30 4934 H 477.985 -1.72849 1.09286 0
M  V30 4935 H 476.14 -3.87055 -0.163415 0
M  V30 4936 H 476.554 -4.93451 1.77781 0
M  V30 4937 H 478.028 -5.51738 0.170017 0
M  V30 4938 H 478.505 -4.27913 -0.989278 0
M  V30 4939 H 479.111 -4.19813 0.68096 0
M  V30 4940 N 477.426 -0.562348 -1.47226 0
M  V30 4941 C 478.837 -0.130325 -1.86245 0
M  V30 4942 C 479.188 1.30128 -1.46838 0
M  V30 4943 O 478.313 1.97974 -0.873805 0
M  V30 4944 C 478.908 -0.229738 -3.3802 0
M  V30 4945 C 477.467 0.14728 -3.76112 0
M  V30 4946 C 476.614 -0.574971 -2.71274 0
M  V30 4947 H 479.565 -0.771773 -1.3867 0
M  V30 4948 H 479.586 0.550316 -3.76499 0
M  V30 4949 H 479.098 -1.27178 -3.66671 0
M  V30 4950 H 477.199 1.19023 -3.53078 0
M  V30 4951 H 477.312 -0.214858 -4.78618 0
M  V30 4952 H 475.676 -0.0174756 -2.54694 0
M  V30 4953 H 476.459 -1.61827 -3.02766 0
M  V30 4954 N 478.904 1.54736 -0.299062 0
M  V30 4955 C 479.837 2.1962 0.619851 0
M  V30 4956 C 480.815 1.16496 1.13434 0
M  V30 4957 O 481.999 1.4513 1.2029 0
M  V30 4958 C 479.126 2.8385 1.84788 0
M  V30 4959 C 478.172 4.00484 1.46679 0
M  V30 4960 S 479.005 5.32926 0.524389 0
M  V30 4961 C 480.161 6.00638 1.76026 0
M  V30 4962 H 480.394 2.97221 0.0686177 0
M  V30 4963 H 477.927 1.54176 -0.0832085 0
M  V30 4964 H 479.885 3.21483 2.55263 0
M  V30 4965 H 478.546 2.06099 2.37028 0
M  V30 4966 H 477.739 4.44201 2.38121 0
M  V30 4967 H 477.341 3.64398 0.842008 0
M  V30 4968 H 479.633 6.21327 2.70109 0
M  V30 4969 H 480.576 6.94805 1.36569 0
M  V30 4970 H 480.984 5.3026 1.93609 0
M  V30 4971 N 480.382 0.0267497 1.57577 0
M  V30 4972 C 481.629 -0.652404 1.91703 0
M  V30 4973 C 481.957 -1.72271 0.902936 0
M  V30 4974 O 481.212 -1.955 -0.0884843 0
M  V30 4975 C 481.511 -1.30914 3.3256 0
M  V30 4976 C 481.177 -0.369441 4.49384 0
M  V30 4977 C 479.839 -0.110791 4.81072 0
M  V30 4978 C 482.191 0.275971 5.20469 0
M  V30 4979 C 479.519 0.801116 5.81205 0
M  V30 4980 C 481.871 1.17592 6.21575 0
M  V30 4981 C 480.535 1.44348 6.51705 0
M  V30 4982 H 479.805 -0.238732 0.70149 0
M  V30 4983 H 482.452 0.0880091 1.91298 0
M  V30 4984 H 480.757 -2.12425 3.29216 0
M  V30 4985 H 482.454 -1.84115 3.56234 0
M  V30 4986 H 479.044 -0.581211 4.24641 0
M  V30 4987 H 483.228 0.0892 4.9622 0
M  V30 4988 H 478.484 1.01614 6.02897 0
M  V30 4989 H 482.658 1.68223 6.75777 0
M  V30 4990 H 480.285 2.15176 7.29111 0
M  V30 4991 N 481.861 -1.55662 -0.24637 0
M  V30 4992 C 482.791 -1.93377 -1.30873 0
M  V30 4993 C 483.772 -0.798773 -1.50179 0
M  V30 4994 O 484.957 -1.0591 -1.62778 0
M  V30 4995 C 482.087 -2.22893 -2.66338 0
M  V30 4996 C 481.041 -3.38649 -2.61727 0
M  V30 4997 C 480.367 -3.53708 -4.00992 0
M  V30 4998 C 481.667 -4.74323 -2.18666 0
M  V30 4999 H 483.361 -2.82363 -0.995552 0
M  V30 5000 H 480.907 -1.35854 -0.477464 0
M  V30 5001 H 482.86 -2.47866 -3.40794 0
M  V30 5002 H 481.584 -1.30733 -2.99293 0
M  V30 5003 H 480.243 -3.13685 -1.89729 0
M  V30 5004 H 479.891 -2.58967 -4.31214 0
M  V30 5005 H 479.591 -4.31551 -3.98795 0
M  V30 5006 H 481.115 -3.81003 -4.77147 0
M  V30 5007 H 482.529 -4.98665 -2.82854 0
M  V30 5008 H 480.926 -5.55273 -2.27579 0
M  V30 5009 H 481.996 -4.71349 -1.13834 0
M  V30 5010 N 483.339 0.512053 -1.4905 0
M  V30 5011 C 484.272 1.63209 -1.59493 0
M  V30 5012 C 485.25 1.56407 -0.444481 0
M  V30 5013 O 486.434 1.76623 -0.658535 0
M  V30 5014 C 483.561 3.01685 -1.53961 0
M  V30 5015 C 482.607 3.26786 -2.74068 0
M  V30 5016 S 483.44 3.11107 -4.35859 0
M  V30 5017 C 484.596 4.51997 -4.32954 0
M  V30 5018 H 484.829 1.54104 -2.54243 0
M  V30 5019 H 482.362 0.696382 -1.37804 0
M  V30 5020 H 484.32 3.81538 -1.51455 0
M  V30 5021 H 482.981 3.08215 -0.605178 0
M  V30 5022 H 482.174 4.27849 -2.66386 0
M  V30 5023 H 481.776 2.54635 -2.73928 0
M  V30 5024 H 484.068 5.43871 -4.03993 0
M  V30 5025 H 485.011 4.64731 -5.34257 0
M  V30 5026 H 485.419 4.32159 -3.63178 0
M  V30 5027 N 484.817 1.37938 0.762283 0
M  V30 5028 C 486.063 1.33866 1.52341 0
M  V30 5029 C 486.396 -0.0738961 1.94059 0
M  V30 5030 O 485.671 -1.03326 1.64785 0
M  V30 5031 C 485.954 2.28644 2.78197 0
M  V30 5032 C 485.807 3.78722 2.42672 0
M  V30 5033 C 487.126 2.21702 3.80179 0
M  V30 5034 H 484.245 0.487593 0.55265 0
M  V30 5035 H 486.887 1.68717 0.873767 0
M  V30 5036 H 485.037 1.99055 3.33631 0
M  V30 5037 H 486.709 4.18948 1.93081 0
M  V30 5038 H 484.952 3.96827 1.75244 0
M  V30 5039 H 485.623 4.40486 3.3268 0
M  V30 5040 H 488.099 2.47805 3.34263 0
M  V30 5041 H 486.975 2.90143 4.65949 0
M  V30 5042 H 487.236 1.21301 4.25133 0
M  V30 5043 N 486.295 -0.989507 1.22664 0
M  V30 5044 C 487.228 -2.07805 0.942985 0
M  V30 5045 C 488.206 -1.6219 -0.115356 0
M  V30 5046 O 489.39 -1.88492 0.0169565 0
M  V30 5047 C 486.517 -3.361 0.418898 0
M  V30 5048 C 485.563 -4.00643 1.46244 0
M  V30 5049 S 486.396 -4.41059 3.03689 0
M  V30 5050 C 487.552 -5.7252 2.52927 0
M  V30 5051 H 487.785 -2.31547 1.86476 0
M  V30 5052 H 485.318 -1.12446 1.05808 0
M  V30 5053 H 487.276 -4.10315 0.123114 0
M  V30 5054 H 485.937 -3.10383 -0.481818 0
M  V30 5055 H 485.13 -4.93033 1.04569 0
M  V30 5056 H 484.732 -3.32767 1.7071 0
M  V30 5057 H 487.024 -6.49017 1.94379 0
M  V30 5058 H 487.967 -6.19026 3.4382 0
M  V30 5059 H 488.375 -5.30083 1.94094 0
M  V30 5060 N 487.773 -1.03688 -1.18687 0
M  V30 5061 C 489.184 -0.766488 -1.70241 0
M  V30 5062 C 489.535 0.713052 -1.82784 0
M  V30 5063 O 488.66 1.55529 -1.50465 0
M  V30 5064 C 489.255 -1.38475 -3.09209 0
M  V30 5065 C 487.814 -1.16276 -3.5799 0
M  V30 5066 C 486.961 -1.4778 -2.34641 0
M  V30 5067 H 489.912 -1.20378 -1.03415 0
M  V30 5068 H 489.933 -0.785939 -3.72295 0
M  V30 5069 H 489.445 -2.46157 -3.00048 0
M  V30 5070 H 487.546 -0.104508 -3.72453 0
M  V30 5071 H 487.659 -1.8571 -4.41643 0
M  V30 5072 H 486.023 -0.897366 -2.38368 0
M  V30 5073 H 486.806 -2.56562 -2.28102 0
M  V30 5074 N 489.251 1.34841 -0.815825 0
M  V30 5075 C 490.499 1.98107 -0.399744 0
M  V30 5076 C 490.82 1.65019 1.03894 0
M  V30 5077 O 490.09 0.937311 1.72021 0
M  V30 5078 H 488.67 0.732827 -0.144823 0
M  V30 5079 H 491.332 1.64599 -1.0437 0
M  V30 5080 H 490.428 3.07856 -0.512965 0
M  V30 5081 N 490.729 0.570148 1.46925 0
M  V30 5082 C 491.662 -0.218362 2.27153 0
M  V30 5083 C 492.64 -0.90847 1.34854 0
M  V30 5084 O 493.824 -0.924875 1.64251 0
M  V30 5085 C 490.951 -1.3122 3.12248 0
M  V30 5086 C 489.997 -0.729277 4.20219 0
M  V30 5087 S 490.83 0.434159 5.33737 0
M  V30 5088 C 491.986 -0.661188 6.22398 0
M  V30 5089 H 492.219 0.462393 2.93682 0
M  V30 5090 H 489.752 0.356753 1.50222 0
M  V30 5091 H 491.71 -1.93856 3.61842 0
M  V30 5092 H 490.371 -1.96485 2.45056 0
M  V30 5093 H 489.564 -1.5511 4.79538 0
M  V30 5094 H 489.166 -0.178836 3.73572 0
M  V30 5095 H 491.458 -1.55006 6.5953 0
M  V30 5096 H 492.401 -0.105046 7.08022 0
M  V30 5097 H 492.809 -0.959682 5.56283 0
M  V30 5098 N 492.207 -1.54576 0.307264 0
M  V30 5099 C 493.456 -1.99442 -0.300976 0
M  V30 5100 C 493.769 -1.19928 -1.5452 0
M  V30 5101 O 494.975 -1.55092 -2.22842 0
M  V30 5102 C 493.431 -3.55084 -0.586809 0
M  V30 5103 C 493.039 -4.43413 0.639438 0
M  V30 5104 C 494.783 -4.0846 -1.1559 0
M  V30 5105 C 492.69 -5.90499 0.326411 0
M  V30 5106 H 491.62 -0.744986 -0.116238 0
M  V30 5107 H 494.271 -1.787 0.416947 0
M  V30 5108 H 492.653 -3.71749 -1.36449 0
M  V30 5109 H 493.827 -4.38522 1.41545 0
M  V30 5110 H 492.142 -4.00842 1.1276 0
M  V30 5111 H 494.739 -5.15926 -1.40445 0
M  V30 5112 H 495.082 -3.59443 -2.10015 0
M  V30 5113 H 495.615 -3.95362 -0.439778 0
M  V30 5114 H 492.354 -6.43676 1.23939 0
M  V30 5115 H 491.874 -5.98382 -0.412212 0
M  V30 5116 H 493.553 -6.46962 -0.0697393 0
M  V30 5117 N 493.685 -0.035106 -1.57561 0
M  V30 5118 C 494.91 0.655802 -1.96759 0
M  V30 5119 C 495.335 1.64523 -0.911809 0
M  V30 5120 O 494.693 1.80857 0.126673 0
M  V30 5121 C 494.741 1.33326 -3.35047 0
M  V30 5122 O 493.845 2.44866 -3.31835 0
M  V30 5123 H 493.186 0.171807 -0.641388 0
M  V30 5124 H 495.716 -0.0987369 -2.04362 0
M  V30 5125 H 495.726 1.68867 -3.71413 0
M  V30 5126 H 494.401 0.608033 -4.11431 0
M  V30 5127 H 492.978 2.11392 -3.07193 0
M  V30 5128 N 495.163 1.55791 0.238111 0
M  V30 5129 C 496.579 1.48411 0.587045 0
M  V30 5130 C 496.779 0.72702 1.87927 0
M  V30 5131 O 495.835 0.259942 2.51158 0
M  V30 5132 C 497.148 2.92873 0.681623 0
M  V30 5133 C 498.696 3.03295 0.773363 0
M  V30 5134 C 499.171 4.49082 0.899428 0
M  V30 5135 N 500.662 4.53056 0.964075 0
M  V30 5136 C 501.397 5.63117 1.08104 0
M  V30 5137 N 500.893 6.82969 1.16299 0
M  V30 5138 N 502.686 5.50933 1.11488 0
M  V30 5139 H 494.837 2.0345 -0.610076 0
M  V30 5140 H 497.1 0.924034 -0.211813 0
M  V30 5141 H 496.806 3.51142 -0.19802 0
M  V30 5142 H 496.68 3.43851 1.55069 0
M  V30 5143 H 499.067 2.45101 1.64346 0
M  V30 5144 H 499.148 2.55513 -0.121034 0
M  V30 5145 H 498.792 5.07889 0.0338586 0
M  V30 5146 H 498.722 4.94553 1.809 0
M  V30 5147 H 501.213 3.66737 0.91173 0
M  V30 5148 H 501.526 7.62598 1.25155 0
M  V30 5149 H 499.871 6.85712 1.13241 0
M  V30 5150 H 503.062 4.56231 1.0474 0
M  V30 5151 H 503.235 6.36743 1.20259 0
M  V30 5152 N 496.642 -0.504142 1.49319 0
M  V30 5153 C 497.891 -1.25507 1.57895 0
M  V30 5154 C 498.204 -1.93735 0.269433 0
M  V30 5155 O 499.41 -2.70492 0.233706 0
M  V30 5156 C 497.866 -2.27869 2.78574 0
M  V30 5157 C 497.474 -1.65594 4.16272 0
M  V30 5158 C 499.218 -3.0381 2.96479 0
M  V30 5159 C 497.125 -2.66048 5.28178 0
M  V30 5160 H 496.055 -0.47212 0.587894 0
M  V30 5161 H 498.706 -0.52931 1.757 0
M  V30 5162 H 497.088 -3.03594 2.54257 0
M  V30 5163 H 498.262 -0.958826 4.50714 0
M  V30 5164 H 496.577 -1.02055 4.037 0
M  V30 5165 H 499.174 -3.78925 3.77253 0
M  V30 5166 H 499.517 -3.61235 2.06918 0
M  V30 5167 H 500.05 -2.352 3.20821 0
M  V30 5168 H 496.789 -2.13408 6.19788 0
M  V30 5169 H 496.309 -3.34009 4.98195 0
M  V30 5170 H 497.988 -3.28536 5.57381 0
M  V30 5171 N 498.12 -1.38341 -0.754957 0
M  V30 5172 C 499.05 -1.38176 -1.88227 0
M  V30 5173 C 500.031 -0.247873 -1.68284 0
M  V30 5174 O 501.216 -0.45075 -1.88896 0
M  V30 5175 C 498.346 -1.20471 -3.25736 0
M  V30 5176 C 497.3 -2.3105 -3.60278 0
M  V30 5177 C 496.626 -1.98452 -4.96509 0
M  V30 5178 C 497.926 -3.73305 -3.65295 0
M  V30 5179 H 499.62 -2.32512 -1.88622 0
M  V30 5180 H 497.166 -1.1192 -0.906082 0
M  V30 5181 H 499.119 -1.18982 -4.04254 0
M  V30 5182 H 497.843 -0.225965 -3.25817 0
M  V30 5183 H 496.502 -2.31723 -2.84078 0
M  V30 5184 H 496.15 -0.990641 -4.93148 0
M  V30 5185 H 495.85 -2.7251 -5.20588 0
M  V30 5186 H 497.374 -1.98578 -5.77407 0
M  V30 5187 H 498.788 -3.7467 -4.3393 0
M  V30 5188 H 497.185 -4.46557 -4.00883 0
M  V30 5189 H 498.255 -4.05719 -2.65556 0
M  V30 5190 N 499.598 0.982988 -1.23187 0
M  V30 5191 C 500.828 1.75666 -1.08743 0
M  V30 5192 C 501.236 1.85662 0.364195 0
M  V30 5193 O 500.579 1.33317 1.26382 0
M  V30 5194 C 500.641 3.20144 -1.63549 0
M  V30 5195 C 500.305 3.33665 -3.12277 0
M  V30 5196 C 501.302 3.20194 -4.096 0
M  V30 5197 C 498.987 3.58397 -3.51933 0
M  V30 5198 C 500.981 3.31256 -5.44563 0
M  V30 5199 C 498.668 3.69098 -4.87042 0
M  V30 5200 C 499.666 3.55537 -5.83166 0
M  V30 5201 O 499.354 3.65864 -7.1582 0
M  V30 5202 H 499.086 0.558194 -0.381307 0
M  V30 5203 H 501.64 1.24387 -1.63454 0
M  V30 5204 H 499.87 3.72659 -1.03256 0
M  V30 5205 H 501.559 3.79262 -1.4462 0
M  V30 5206 H 502.325 3.00987 -3.80305 0
M  V30 5207 H 498.204 3.68025 -2.77631 0
M  V30 5208 H 501.748 3.20588 -6.19572 0
M  V30 5209 H 497.645 3.87814 -5.16014 0
M  V30 5210 H 498.413 3.82675 -7.23534 0
M  V30 5211 N 501.076 1.04316 1.18135 0
M  V30 5212 C 502.487 0.775505 1.69832 0
M  V30 5213 C 502.838 -0.703348 1.8316 0
M  V30 5214 O 501.963 -1.54729 1.51287 0
M  V30 5215 C 502.558 1.40112 3.0847 0
M  V30 5216 C 501.117 1.18172 3.57368 0
M  V30 5217 C 500.264 1.49022 2.33854 0
M  V30 5218 H 503.215 1.20925 1.02775 0
M  V30 5219 H 503.236 0.805672 3.71873 0
M  V30 5220 H 502.748 2.47744 2.98738 0
M  V30 5221 H 500.849 0.124258 3.72393 0
M  V30 5222 H 500.962 1.8805 4.40652 0
M  V30 5223 H 499.326 0.909995 2.37889 0
M  V30 5224 H 500.109 2.57768 2.26738 0
M  V30 5225 N 502.554 -1.34406 0.822964 0
M  V30 5226 C 503.831 -1.92733 0.333641 0
M  V30 5227 C 504.211 -1.75107 -1.17901 0
M  V30 5228 O 503.559 -1.12983 -1.98613 0
M  V30 5229 C 503.769 -3.40557 0.763023 0
M  V30 5230 C 505.117 -4.17709 0.761879 0
M  V30 5231 O 506.141 -3.49141 0.705606 0
M  V30 5232 O 505 -5.40082 0.835109 0
M  V30 5233 H 502.094 -0.821964 0.0911249 0
M  V30 5234 H 504.64 -1.4338 0.907757 0
M  V30 5235 H 503.412 -3.47187 1.8049 0
M  V30 5236 H 503.035 -3.97259 0.164605 0
M  V30 5237 N 504.032 -0.577932 -1.46621 0
M  V30 5238 C 504.942 0.160651 -2.34049 0
M  V30 5239 C 505.958 0.890911 -1.49462 0
M  V30 5240 O 507.134 0.855166 -1.82343 0
M  V30 5241 C 504.199 1.16447 -3.26559 0
M  V30 5242 C 503.26 0.4394 -4.27045 0
M  V30 5243 C 502.493 1.3954 -5.15135 0
M  V30 5244 O 502.716 2.63162 -5.06065 0
M  V30 5245 O 501.65 0.908585 -5.95003 0
M  V30 5246 H 505.476 -0.557057 -2.98547 0
M  V30 5247 H 503.061 -0.338369 -1.45518 0
M  V30 5248 H 504.943 1.7434 -3.83645 0
M  V30 5249 H 503.618 1.86373 -2.64663 0
M  V30 5250 H 502.525 -0.181247 -3.73661 0
M  V30 5251 H 503.858 -0.218799 -4.91713 0
M  V30 5252 N 505.51 1.54411 -0.315457 0
M  V30 5253 C 506.756 2.00716 0.289972 0
M  V30 5254 C 507.089 1.2034 1.5242 0
M  V30 5255 O 506.364 0.283579 1.92422 0
M  V30 5256 C 506.647 3.54507 0.632196 0
M  V30 5257 C 506.5 4.45615 -0.61218 0
M  V30 5258 C 507.819 4.15421 1.45305 0
M  V30 5259 H 504.938 0.729637 0.10392 0
M  V30 5260 H 507.58 1.8506 -0.430427 0
M  V30 5261 H 505.73 3.67979 1.24595 0
M  V30 5262 H 507.402 4.44026 -1.25053 0
M  V30 5263 H 505.645 4.15621 -1.24264 0
M  V30 5264 H 506.316 5.51022 -0.328379 0
M  V30 5265 H 508.792 4.05474 0.934331 0
M  V30 5266 H 507.668 5.23157 1.66127 0
M  V30 5267 H 507.929 3.68223 2.44671 0
M  V30 5268 N 506.988 0.0434614 1.5754 0
M  V30 5269 C 507.951 -0.918696 2.09982 0
M  V30 5270 C 508.951 -1.24488 1.01781 0
M  V30 5271 O 510.141 -1.18284 1.27885 0
M  V30 5272 C 507.273 -2.23093 2.57764 0
M  V30 5273 H 508.466 -0.464229 2.96285 0
M  V30 5274 H 506.019 -0.204818 1.54952 0
M  V30 5275 H 506.754 -2.73137 1.74832 0
M  V30 5276 H 506.539 -2.00724 3.36827 0
M  V30 5277 H 508.029 -2.92028 2.98512 0
M  V30 5278 N 508.466 -1.55915 -0.229846 0
M  V30 5279 C 509.706 -1.80314 -0.962614 0
M  V30 5280 C 510.07 -0.61568 -1.81861 0
M  V30 5281 O 511.271 -0.738795 -2.58448 0
M  V30 5282 C 509.542 -3.0956 -1.78627 0
M  V30 5283 S 511.101 -3.55243 -2.57581 0
M  V30 5284 H 507.919 -0.633142 -0.323499 0
M  V30 5285 H 510.521 -1.94155 -0.228919 0
M  V30 5286 H 509.225 -3.94033 -1.14742 0
M  V30 5287 H 508.756 -2.98503 -2.56241 0
M  V30 5288 H 510.771 -3.17924 -3.80971 0
M  V30 5289 N 509.944 0.496216 -1.49584 0
M  V30 5290 C 511.19 1.25189 -1.59548 0
M  V30 5291 C 511.523 1.9212 -0.283466 0
M  V30 5292 O 510.798 1.80947 0.713324 0
M  V30 5293 C 511.081 2.31516 -2.75812 0
M  V30 5294 C 510.934 1.69054 -4.16822 0
M  V30 5295 C 512.253 3.3304 -2.87702 0
M  V30 5296 H 509.372 0.45379 -0.580727 0
M  V30 5297 H 512.014 0.549327 -1.81886 0
M  V30 5298 H 510.164 2.91438 -2.56897 0
M  V30 5299 H 511.836 1.12923 -4.47265 0
M  V30 5300 H 510.079 0.994485 -4.22247 0
M  V30 5301 H 510.75 2.462 -4.94054 0
M  V30 5302 H 513.226 2.83114 -3.04936 0
M  V30 5303 H 512.102 4.04794 -3.7072 0
M  V30 5304 H 512.363 3.95655 -1.97255 0
M  V30 5305 N 511.423 1.38739 0.74761 0
M  V30 5306 C 512.669 1.35475 1.50912 0
M  V30 5307 C 513.002 -0.0533093 1.94127 0
M  V30 5308 O 512.277 -1.01572 1.65871 0
M  V30 5309 C 512.56 2.31582 2.75757 0
M  V30 5310 C 512.413 3.81274 2.38642 0
M  V30 5311 C 513.732 2.25722 3.77806 0
M  V30 5312 H 510.851 0.493427 0.547447 0
M  V30 5313 H 513.493 1.69634 0.855823 0
M  V30 5314 H 511.643 2.02582 3.31501 0
M  V30 5315 H 513.315 4.20972 1.88626 0
M  V30 5316 H 511.558 3.98664 1.71025 0
M  V30 5317 H 512.229 4.4399 3.27989 0
M  V30 5318 H 514.705 2.51336 3.31616 0
M  V30 5319 H 513.581 2.95069 4.62845 0
M  V30 5320 H 513.842 1.25803 4.23823 0
M  V30 5321 N 512.901 -0.976442 1.23707 0
M  V30 5322 C 514.312 -1.53284 1.06587 0
M  V30 5323 C 514.663 -1.92765 -0.365526 0
M  V30 5324 O 513.788 -1.7645 -1.25277 0
M  V30 5325 C 514.383 -2.78548 1.92864 0
M  V30 5326 C 512.942 -3.30574 1.79994 0
M  V30 5327 C 512.089 -2.03538 1.88328 0
M  V30 5328 H 515.04 -0.795692 1.37311 0
M  V30 5329 H 515.061 -3.5155 1.45577 0
M  V30 5330 H 514.573 -2.49782 2.97037 0
M  V30 5331 H 512.674 -3.64211 0.786202 0
M  V30 5332 H 512.787 -4.00065 2.636 0
M  V30 5333 H 511.151 -2.17853 1.31954 0
M  V30 5334 H 511.934 -1.77149 2.94063 0
M  V30 5335 N 514.379 -1.04941 -1.1758 0
M  V30 5336 C 515.289 -0.658826 -2.25159 0
M  V30 5337 C 516.305 0.318941 -1.71052 0
M  V30 5338 O 517.481 0.171669 -2.00667 0
M  V30 5339 C 514.546 -0.0369522 -3.4668 0
M  V30 5340 C 513.607 -1.06484 -4.15884 0
M  V30 5341 C 512.84 -0.472551 -5.31604 0
M  V30 5342 O 513.063 0.718736 -5.65854 0
M  V30 5343 O 511.997 -1.20557 -5.89703 0
M  V30 5344 H 515.823 -1.55533 -2.60851 0
M  V30 5345 H 513.408 -0.820819 -1.24832 0
M  V30 5346 H 515.29 0.308784 -4.20267 0
M  V30 5347 H 513.965 0.833238 -3.12792 0
M  V30 5348 H 512.872 -1.46253 -3.44327 0
M  V30 5349 H 514.205 -1.9061 -4.53794 0
M  V30 5350 N 515.857 1.33968 -0.830081 0
M  V30 5351 C 517.103 1.98357 -0.422191 0
M  V30 5352 C 517.436 1.65633 1.01387 0
M  V30 5353 O 516.711 0.931648 1.70735 0
M  V30 5354 C 516.994 3.54492 -0.633043 0
M  V30 5355 C 516.847 3.96934 -2.11574 0
M  V30 5356 C 518.166 4.40039 -0.0735584 0
M  V30 5357 H 515.285 0.720544 -0.154871 0
M  V30 5358 H 517.927 1.58749 -1.04397 0
M  V30 5359 H 516.077 3.88361 -0.103775 0
M  V30 5360 H 517.749 3.73363 -2.7092 0
M  V30 5361 H 515.992 3.46984 -2.60354 0
M  V30 5362 H 516.663 5.05651 -2.21406 0
M  V30 5363 H 519.139 4.12764 -0.52585 0
M  V30 5364 H 518.015 5.48327 -0.250841 0
M  V30 5365 H 518.276 4.30124 1.02202 0
M  V30 5366 N 517.335 0.585699 1.46312 0
M  V30 5367 C 518.575 0.0751432 2.04262 0
M  V30 5368 C 518.939 -1.26201 1.44697 0
M  V30 5369 O 520.14 -1.86198 1.93865 0
M  V30 5370 C 518.411 0.013478 3.57397 0
M  V30 5371 S 519.97 -0.439068 4.36598 0
M  V30 5372 H 516.788 0.0389228 0.709934 0
M  V30 5373 H 519.39 0.778871 1.79315 0
M  V30 5374 H 518.094 0.990558 3.98266 0
M  V30 5375 H 517.625 -0.712927 3.86886 0
M  V30 5376 H 519.64 -1.6932 4.66417 0
M  V30 5377 N 518.813 -1.54241 0.323641 0
M  V30 5378 C 520.229 -1.59574 -0.0290018 0
M  V30 5379 C 520.429 -1.34017 -1.50472 0
M  V30 5380 O 519.485 -1.12464 -2.26071 0
M  V30 5381 C 520.798 -2.98169 0.389295 0
M  V30 5382 C 522.346 -3.11148 0.339958 0
M  V30 5383 C 522.821 -4.5209 0.733418 0
M  V30 5384 N 524.312 -4.5808 0.686827 0
M  V30 5385 C 525.047 -5.65248 0.963464 0
M  V30 5386 N 524.543 -6.80355 1.30724 0
M  V30 5387 N 526.336 -5.55025 0.88902 0
M  V30 5388 H 518.487 -1.6911 1.28512 0
M  V30 5389 H 520.75 -0.790972 0.522558 0
M  V30 5390 H 520.456 -3.21871 1.41746 0
M  V30 5391 H 520.33 -3.76399 -0.245657 0
M  V30 5392 H 522.717 -2.87182 -0.679002 0
M  V30 5393 H 522.798 -2.35023 1.00985 0
M  V30 5394 H 522.442 -4.76788 1.75029 0
M  V30 5395 H 522.372 -5.26584 0.0412189 0
M  V30 5396 H 524.863 -3.75411 0.43298 0
M  V30 5397 H 525.176 -7.58029 1.5037 0
M  V30 5398 H 523.521 -6.81851 1.3455 0
M  V30 5399 H 526.712 -4.63977 0.619939 0
M  V30 5400 H 526.885 -6.38458 1.10797 0
M  V30 5401 N 520.291 -0.0518155 -1.57515 0
M  V30 5402 C 521.707 0.304735 -1.56664 0
M  V30 5403 C 521.907 1.71395 -1.05953 0
M  V30 5404 O 520.963 2.42123 -0.716414 0
M  V30 5405 C 522.276 0.132614 -3.00407 0
M  V30 5406 C 523.824 0.20367 -3.12337 0
M  V30 5407 C 524.299 0.0600706 -4.57961 0
M  V30 5408 N 525.79 0.116326 -4.63054 0
M  V30 5409 C 526.525 0.0293363 -5.73392 0
M  V30 5410 N 526.021 -0.110038 -6.92713 0
M  V30 5411 N 527.814 0.0849651 -5.62036 0
M  V30 5412 H 519.965 -0.973056 -1.888 0
M  V30 5413 H 522.228 -0.377781 -0.869474 0
M  V30 5414 H 521.934 -0.839019 -3.41546 0
M  V30 5415 H 521.808 0.893376 -3.66468 0
M  V30 5416 H 524.195 1.16578 -2.71097 0
M  V30 5417 H 524.276 -0.587857 -2.48954 0
M  V30 5418 H 523.92 -0.898715 -4.99886 0
M  V30 5419 H 523.85 0.87075 -5.19351 0
M  V30 5420 H 526.341 0.22327 -3.7724 0
M  V30 5421 H 526.654 -0.169104 -7.72615 0
M  V30 5422 H 524.999 -0.145132 -6.94848 0
M  V30 5423 H 528.19 0.192411 -4.67704 0
M  V30 5424 H 528.363 0.0137131 -6.47999 0
M  V30 5425 N 521.769 1.56035 0.221574 0
M  V30 5426 C 523.015 1.79312 0.947372 0
M  V30 5427 C 523.348 0.621453 1.83988 0
M  V30 5428 O 522.623 -0.379287 1.90766 0
M  V30 5429 C 522.906 3.1267 1.78633 0
M  V30 5430 C 522.759 4.40284 0.920312 0
M  V30 5431 C 524.078 3.4247 2.7641 0
M  V30 5432 H 521.197 0.652328 0.342982 0
M  V30 5433 H 523.839 1.88765 0.216244 0
M  V30 5434 H 521.989 3.04741 2.40967 0
M  V30 5435 H 523.661 4.60232 0.313718 0
M  V30 5436 H 521.904 4.33212 0.225734 0
M  V30 5437 H 522.575 5.30033 1.54171 0
M  V30 5438 H 525.051 3.50526 2.24211 0
M  V30 5439 H 523.927 4.3695 3.32213 0
M  V30 5440 H 524.188 2.64635 3.54148 0
M  V30 5441 N 523.247 -0.488276 1.49845 0
M  V30 5442 C 524.487 -1.2516 1.61599 0
M  V30 5443 C 524.851 -1.89615 0.301706 0
M  V30 5444 O 526.052 -2.67182 0.29453 0
M  V30 5445 C 524.323 -2.2805 2.75187 0
M  V30 5446 S 525.882 -3.13552 3.0697 0
M  V30 5447 H 522.7 -0.425178 0.569864 0
M  V30 5448 H 525.302 -0.551545 1.87559 0
M  V30 5449 H 524.006 -1.7925 3.69185 0
M  V30 5450 H 523.537 -3.02708 2.5126 0
M  V30 5451 H 525.552 -4.28927 2.49471 0
M  V30 5452 N 524.725 -1.39134 -0.740242 0
M  V30 5453 C 525.973 -1.35803 -1.49673 0
M  V30 5454 C 526.294 0.0470897 -1.94943 0
M  V30 5455 O 525.564 0.997347 -1.68611 0
M  V30 5456 H 524.144 -0.499736 -0.555224 0
M  V30 5457 H 526.806 -1.73947 -0.879107 0
M  V30 5458 H 525.902 -2.0174 -2.38133 0
M  V30 5459 N 526.204 0.969867 -1.24223 0
M  V30 5460 C 527.432 1.74756 -1.10761 0
M  V30 5461 C 527.847 1.85713 0.340041 0
M  V30 5462 O 527.204 1.34389 1.23474 0
M  V30 5463 C 527.255 3.16915 -1.73917 0
M  V30 5464 O 526.976 3.06511 -3.13021 0
M  V30 5465 C 528.477 4.11032 -1.66036 0
M  V30 5466 H 525.697 0.548092 -0.387087 0
M  V30 5467 H 528.241 1.2178 -1.64286 0
M  V30 5468 H 526.396 3.66884 -1.244 0
M  V30 5469 H 526.81 3.96079 -3.43834 0
M  V30 5470 H 528.284 5.08446 -2.14911 0
M  V30 5471 H 528.761 4.34785 -0.621159 0
M  V30 5472 H 529.367 3.66972 -2.14969 0
M  V30 5473 N 527.682 1.05563 1.17022 0
M  V30 5474 C 528.592 0.670758 2.24807 0
M  V30 5475 C 529.608 -0.309865 1.71219 0
M  V30 5476 O 530.784 -0.161025 2.00755 0
M  V30 5477 C 527.849 0.055337 3.46656 0
M  V30 5478 C 526.91 1.08688 4.15314 0
M  V30 5479 C 526.143 0.500736 5.31346 0
M  V30 5480 O 526.366 -0.688718 5.66227 0
M  V30 5481 O 525.3 1.23683 5.89055 0
M  V30 5482 H 529.126 1.56914 2.60023 0
M  V30 5483 H 526.711 0.827428 1.24395 0
M  V30 5484 H 528.593 -0.286492 4.20425 0
M  V30 5485 H 527.268 -0.816638 3.13229 0
M  V30 5486 H 526.175 1.48077 3.43546 0
M  V30 5487 H 527.508 1.93014 4.52777 0
M  V30 5488 N 529.16 -1.33526 0.837174 0
M  V30 5489 C 530.406 -1.9813 0.432704 0
M  V30 5490 C 530.739 -1.66168 -1.00508 0
M  V30 5491 O 530.014 -0.94069 -1.70239 0
M  V30 5492 C 530.297 -3.54151 0.651834 0
M  V30 5493 C 530.15 -3.95806 2.13676 0
M  V30 5494 C 531.469 -4.39993 0.0968937 0
M  V30 5495 H 528.588 -0.719713 0.15869 0
M  V30 5496 H 531.23 -1.58193 1.05237 0
M  V30 5497 H 529.38 -3.88301 0.124369 0
M  V30 5498 H 531.052 -3.71921 2.72896 0
M  V30 5499 H 529.295 -3.45599 2.62191 0
M  V30 5500 H 529.966 -5.0447 2.24084 0
M  V30 5501 H 532.442 -4.12479 0.547733 0
M  V30 5502 H 531.318 -5.48186 0.279917 0
M  V30 5503 H 531.579 -4.3066 -0.9992 0
M  V30 5504 N 530.638 -0.59345 -1.46 0
M  V30 5505 C 531.886 -0.082988 -2.0193 0
M  V30 5506 C 532.207 1.28569 -1.46612 0
M  V30 5507 O 531.477 1.84629 -0.654909 0
M  V30 5508 H 530.057 -0.0276882 -0.746487 0
M  V30 5509 H 532.719 -0.771657 -1.78973 0
M  V30 5510 H 531.815 -0.022079 -3.12092 0
M  V30 5511 N 532.116 1.54067 -0.331816 0
M  V30 5512 C 533.356 2.02625 0.26876 0
M  V30 5513 C 533.72 1.21462 1.48697 0
M  V30 5514 O 534.921 1.59863 2.16096 0
M  V30 5515 C 533.192 3.52554 0.586577 0
M  V30 5516 S 534.751 4.23035 1.16563 0
M  V30 5517 H 531.569 0.706395 0.0807862 0
M  V30 5518 H 534.171 1.89844 -0.466856 0
M  V30 5519 H 532.875 4.09242 -0.308046 0
M  V30 5520 H 532.406 3.69432 1.35217 0
M  V30 5521 H 534.421 4.31382 2.45203 0
M  V30 5522 N 533.594 0.0601682 1.57485 0
M  V30 5523 C 534.819 -0.624416 1.97777 0
M  V30 5524 C 535.244 -1.63051 0.937867 0
M  V30 5525 O 534.602 -1.81036 -0.0978845 0
M  V30 5526 C 534.65 -1.27979 3.37126 0
M  V30 5527 O 533.754 -2.39556 3.35688 0
M  V30 5528 H 533.095 -0.161581 0.64404 0
M  V30 5529 H 535.625 0.131237 2.04179 0
M  V30 5530 H 535.635 -1.62937 3.74053 0
M  V30 5531 H 534.31 -0.542501 4.12347 0
M  V30 5532 H 532.887 -2.06478 3.10517 0
M  V30 5533 N 535.072 -1.5615 -0.213296 0
M  V30 5534 C 536.02 -1.93953 -1.28394 0
M  V30 5535 C 537.014 -0.822592 -1.48087 0
M  V30 5536 O 538.22 -1.00748 -1.49164 0
M  V30 5537 H 534.595 -0.61648 -0.430646 0
M  V30 5538 H 536.566 -2.83275 -0.937977 0
M  V30 5539 C 535.315 -2.27969 -2.62537 0
M  V30 5540 H 534.638 -3.13432 -2.48194 0
M  V30 5541 H 536.078 -2.58297 -3.36242 0
M  V30 5542 C 534.537 -1.10775 -3.18167 0
M  V30 5543 O 535.067 -0.373201 -3.99963 0
M  V30 5544 N 533.273 -0.889377 -2.76656 0
M  V30 5545 H 532.82 -1.48843 -2.10246 0
M  V30 5546 H 532.778 -0.107 -3.14218 0
M  V30 5547 N 536.55 0.480323 -1.50102 0
M  V30 5548 C 537.799 1.22979 -1.59872 0
M  V30 5549 C 538.112 1.93282 -0.30022 0
M  V30 5550 O 539.318 2.70086 -0.276709 0
M  V30 5551 C 537.774 2.23408 -2.82164 0
M  V30 5552 C 537.382 1.5895 -4.18854 0
M  V30 5553 C 539.126 2.99055 -3.01275 0
M  V30 5554 C 537.033 2.57611 -5.32344 0
M  V30 5555 H 535.963 0.462707 -0.59533 0
M  V30 5556 H 538.614 0.501291 -1.7652 0
M  V30 5557 H 536.996 2.99511 -2.59055 0
M  V30 5558 H 538.17 0.887 -4.52182 0
M  V30 5559 H 536.485 0.956191 -4.05273 0
M  V30 5560 H 539.082 3.72876 -3.83233 0
M  V30 5561 H 539.425 3.57897 -2.12639 0
M  V30 5562 H 539.958 2.30066 -3.24522 0
M  V30 5563 H 536.697 2.03521 -6.23105 0
M  V30 5564 H 536.217 3.26041 -5.03445 0
M  V30 5565 H 537.896 3.19627 -5.62537 0
M  V30 5566 N 538.028 1.39524 0.732853 0
M  V30 5567 C 538.991 1.38189 1.82857 0
M  V30 5568 C 539.991 0.278624 1.58368 0
M  V30 5569 O 541.181 0.536639 1.65728 0
M  V30 5570 C 538.313 1.15661 3.2068 0
M  V30 5571 H 539.506 2.35692 1.85444 0
M  V30 5572 H 537.059 1.2512 0.936728 0
M  V30 5573 H 537.794 0.188482 3.23752 0
M  V30 5574 H 537.579 1.95559 3.39852 0
M  V30 5575 H 539.069 1.17472 4.00737 0
M  V30 5576 N 539.506 -0.963266 1.24736 0
M  V30 5577 C 540.736 -1.73913 1.11524 0
M  V30 5578 C 541.144 -1.86218 -0.334612 0
M  V30 5579 O 540.487 -1.3531 -1.24245 0
M  V30 5580 C 540.549 -3.17501 1.68622 0
M  V30 5581 C 540.213 -3.28655 3.17546 0
M  V30 5582 C 541.21 -3.13637 4.14642 0
M  V30 5583 C 538.895 -3.52753 3.5759 0
M  V30 5584 C 540.889 -3.2255 5.49764 0
M  V30 5585 C 538.576 -3.61303 4.92852 0
M  V30 5586 C 539.574 -3.46214 5.88748 0
M  V30 5587 O 539.262 -3.5443 7.2155 0
M  V30 5588 H 538.994 -0.552057 0.390139 0
M  V30 5589 H 541.548 -1.2177 1.65412 0
M  V30 5590 H 539.778 -3.70969 1.09172 0
M  V30 5591 H 541.467 -3.76914 1.50635 0
M  V30 5592 H 542.233 -2.94899 3.85045 0
M  V30 5593 H 538.112 -3.63561 2.83451 0
M  V30 5594 H 541.656 -3.1069 6.24594 0
M  V30 5595 H 537.553 -3.79556 5.22118 0
M  V30 5596 H 538.321 -3.71116 7.29531 0
M  V30 5597 N 540.985 -1.06182 -1.16461 0
M  V30 5598 C 542.396 -0.802426 -1.68576 0
M  V30 5599 C 542.747 0.67412 -1.84255 0
M  V30 5600 O 541.872 1.52303 -1.5373 0
M  V30 5601 C 542.467 -1.45002 -3.06202 0
M  V30 5602 C 541.026 -1.23843 -3.55443 0
M  V30 5603 C 540.173 -1.52724 -2.31454 0
M  V30 5604 H 543.124 -1.22545 -1.00839 0
M  V30 5605 H 543.145 -0.864731 -3.70544 0
M  V30 5606 H 542.657 -2.52466 -2.94759 0
M  V30 5607 H 540.758 -0.183487 -3.72148 0
M  V30 5608 H 540.871 -1.95036 -4.37604 0
M  V30 5609 H 539.235 -0.947726 -2.36411 0
M  V30 5610 H 540.018 -2.61343 -2.22609 0
M  V30 5611 N 542.463 1.3308 -0.844243 0
M  V30 5612 C 543.879 1.50447 -0.532729 0
M  V30 5613 C 544.079 1.78292 0.938837 0
M  V30 5614 O 543.135 1.84635 1.72239 0
M  V30 5615 C 544.448 2.65555 -1.41072 0
M  V30 5616 C 545.996 2.7944 -1.41005 0
M  V30 5617 C 546.471 3.97616 -2.27301 0
M  V30 5618 N 547.962 4.0486 -2.2504 0
M  V30 5619 C 548.697 4.95508 -2.88547 0
M  V30 5620 N 548.193 5.91236 -3.61126 0
M  V30 5621 N 549.986 4.88548 -2.77989 0
M  V30 5622 H 542.137 1.13269 -1.79677 0
M  V30 5623 H 544.4 0.55734 -0.766861 0
M  V30 5624 H 544.106 2.51675 -2.45668 0
M  V30 5625 H 543.98 3.61089 -1.09061 0
M  V30 5626 H 546.367 2.92749 -0.371784 0
M  V30 5627 H 546.448 1.8465 -1.77026 0
M  V30 5628 H 546.092 3.85066 -3.3119 0
M  V30 5629 H 546.022 4.91661 -1.88619 0
M  V30 5630 H 548.513 3.36353 -1.72264 0
M  V30 5631 H 548.826 6.57079 -4.06776 0
M  V30 5632 H 547.171 5.91295 -3.65234 0
M  V30 5633 H 550.362 4.12729 -2.20846 0
M  V30 5634 H 550.535 5.58994 -3.27765 0
M  V30 5635 N 543.941 0.601185 1.45683 0
M  V30 5636 C 544.871 -0.108824 2.33246 0
M  V30 5637 C 545.852 -0.865223 1.46451 0
M  V30 5638 O 547.037 -0.83704 1.75235 0
M  V30 5639 C 544.167 -1.11101 3.2905 0
M  V30 5640 C 543.121 -0.468244 4.25431 0
M  V30 5641 C 542.447 -1.57822 5.10878 0
M  V30 5642 C 543.747 0.606469 5.18767 0
M  V30 5643 H 545.441 0.622306 2.92861 0
M  V30 5644 H 542.987 0.300714 1.40825 0
M  V30 5645 H 544.94 -1.61622 3.89174 0
M  V30 5646 H 543.664 -1.87265 2.67581 0
M  V30 5647 H 542.323 0.0160484 3.66596 0
M  V30 5648 H 541.971 -2.32998 4.45781 0
M  V30 5649 H 541.671 -1.15369 5.76163 0
M  V30 5650 H 543.195 -2.08583 5.73869 0
M  V30 5651 H 544.609 0.185589 5.73 0
M  V30 5652 H 543.006 0.952381 5.92494 0
M  V30 5653 H 544.076 1.48559 4.61582 0
M  V30 5654 N 545.419 -1.53889 0.339982 0
M  V30 5655 C 546.665 -2.01152 -0.258003 0
M  V30 5656 C 546.998 -1.22749 -1.50487 0
M  V30 5657 O 546.273 -0.314156 -1.91946 0
M  V30 5658 C 546.556 -3.55468 -0.575717 0
M  V30 5659 C 546.409 -4.44584 0.682996 0
M  V30 5660 C 547.728 -4.1768 -1.38677 0
M  V30 5661 H 544.847 -0.731198 -0.0922992 0
M  V30 5662 H 547.489 -1.84352 0.459814 0
M  V30 5663 H 545.639 -3.69914 -1.18725 0
M  V30 5664 H 547.311 -4.41981 1.32102 0
M  V30 5665 H 545.554 -4.13592 1.3086 0
M  V30 5666 H 546.225 -5.5043 0.416001 0
M  V30 5667 H 548.701 -4.0691 -0.869705 0
M  V30 5668 H 547.577 -5.25734 -1.57783 0
M  V30 5669 H 547.838 -3.72069 -2.38782 0
M  V30 5670 N 546.897 -0.0685191 -1.57451 0
M  V30 5671 C 548.143 0.602239 -1.93652 0
M  V30 5672 C 548.476 1.6946 -0.948526 0
M  V30 5673 O 547.751 1.94487 0.022782 0
M  V30 5674 C 548.034 1.18223 -3.4014 0
M  V30 5675 C 547.887 0.0967431 -4.49696 0
M  V30 5676 C 549.206 2.08872 -3.87377 0
M  V30 5677 H 546.325 0.217453 -0.70419 0
M  V30 5678 H 548.967 -0.133821 -1.89528 0
M  V30 5679 H 547.117 1.80953 -3.43785 0
M  V30 5680 H 548.789 -0.536155 -4.58174 0
M  V30 5681 H 547.032 -0.573063 -4.29998 0
M  V30 5682 H 547.703 0.542894 -5.49324 0
M  V30 5683 H 550.179 1.56081 -3.85717 0
M  V30 5684 H 549.055 2.46389 -4.90493 0
M  V30 5685 H 549.316 2.99572 -3.25129 0
M  V30 5686 N 548.375 1.56261 0.205012 0
M  V30 5687 C 549.322 1.93754 1.25411 0
M  V30 5688 C 550.292 0.796826 1.45739 0
M  V30 5689 O 551.477 1.05414 1.59036 0
M  V30 5690 C 548.617 2.27383 2.59598 0
M  V30 5691 C 547.73 3.5447 2.46931 0
M  V30 5692 C 546.865 3.77468 3.73753 0
M  V30 5693 C 545.904 4.98014 3.55877 0
M  V30 5694 N 545.041 5.17316 4.74688 0
M  V30 5695 H 549.881 2.83203 0.92737 0
M  V30 5696 H 547.418 1.40158 0.446574 0
M  V30 5697 H 549.376 2.44895 3.37761 0
M  V30 5698 H 548.006 1.41088 2.90335 0
M  V30 5699 H 547.058 3.45061 1.60116 0
M  V30 5700 H 548.37 4.42789 2.29651 0
M  V30 5701 H 547.524 3.95165 4.60358 0
M  V30 5702 H 546.263 2.87461 3.93976 0
M  V30 5703 H 545.268 4.80249 2.67657 0
M  V30 5704 H 546.493 5.8952 3.37109 0
M  V30 5705 H 544.439 4.30255 4.95194 0
M  V30 5706 H 544.356 5.99796 4.60197 0
M  V30 5707 H 545.624 5.39463 5.62672 0
M  V30 5708 N 549.853 -0.472356 1.50355 0
M  V30 5709 C 550.783 -1.57859 1.72055 0
M  V30 5710 C 551.764 -1.60283 0.569505 0
M  V30 5711 O 552.949 -1.7657 0.808503 0
M  V30 5712 C 550.079 -2.96191 1.81351 0
M  V30 5713 C 549.033 -3.08633 2.96529 0
M  V30 5714 C 548.359 -4.486 2.90968 0
M  V30 5715 C 549.659 -2.85969 4.37057 0
M  V30 5716 H 551.353 -1.39953 2.64676 0
M  V30 5717 H 548.899 -0.671846 1.27367 0
M  V30 5718 H 550.852 -3.73507 1.95117 0
M  V30 5719 H 549.576 -3.15251 0.853502 0
M  V30 5720 H 548.235 -2.33749 2.82413 0
M  V30 5721 H 547.883 -4.64577 1.92815 0
M  V30 5722 H 547.583 -4.57861 3.68289 0
M  V30 5723 H 549.107 -5.27938 3.0678 0
M  V30 5724 H 550.521 -3.53036 4.51706 0
M  V30 5725 H 548.918 -3.06677 5.15819 0
M  V30 5726 H 549.988 -1.81838 4.49514 0
M  V30 5727 N 551.331 -1.39911 -0.725443 0
M  V30 5728 C 552.264 -1.33788 -1.84867 0
M  V30 5729 C 553.242 -0.209907 -1.61239 0
M  V30 5730 O 554.426 -0.391943 -1.8438 0
M  V30 5731 C 551.553 -1.07975 -3.21028 0
M  V30 5732 C 550.599 -2.23092 -3.635 0
M  V30 5733 S 551.432 -3.85431 -3.71757 0
M  V30 5734 C 552.588 -3.61862 -5.10692 0
M  V30 5735 H 552.821 -2.28848 -1.89779 0
M  V30 5736 H 550.354 -1.26079 -0.891254 0
M  V30 5737 H 552.312 -0.937669 -3.99647 0
M  V30 5738 H 550.973 -0.145865 -3.13761 0
M  V30 5739 H 550.166 -2.00647 -4.62338 0
M  V30 5740 H 549.768 -2.33553 -2.92112 0
M  V30 5741 H 552.06 -3.19719 -5.97316 0
M  V30 5742 H 553.003 -4.60196 -5.38169 0
M  V30 5743 H 553.411 -2.95757 -4.8082 0
M  V30 5744 N 552.809 0.956637 -1.25245 0
M  V30 5745 C 554.22 1.51569 -1.09012 0
M  V30 5746 C 554.571 1.93322 0.334813 0
M  V30 5747 O 553.696 1.78421 1.22454 0
M  V30 5748 C 554.291 2.75444 -1.97271 0
M  V30 5749 C 552.85 3.27669 -1.8523 0
M  V30 5750 C 551.997 2.00517 -1.91542 0
M  V30 5751 H 554.948 0.773746 -1.3856 0
M  V30 5752 H 554.969 3.4919 -1.51151 0
M  V30 5753 H 554.481 2.45024 -3.00973 0
M  V30 5754 H 552.582 3.62914 -0.844045 0
M  V30 5755 H 552.695 3.9582 -2.69932 0
M  V30 5756 H 551.059 2.15727 -1.35404 0
M  V30 5757 H 551.842 1.72448 -2.96844 0
M  V30 5758 N 554.287 1.06798 1.15896 0
M  V30 5759 C 555.235 0.677525 2.22514 0
M  V30 5760 C 556.229 -0.308994 1.66558 0
M  V30 5761 O 557.435 -0.173308 1.79164 0
M  V30 5762 H 553.81 0.200994 0.724642 0
M  V30 5763 H 555.781 1.5865 2.52731 0
M  V30 5764 C 554.53 0.0854153 3.47595 0
M  V30 5765 H 553.853 0.835645 3.90969 0
M  V30 5766 H 555.293 -0.150199 4.23734 0
M  V30 5767 C 553.752 -1.1724 3.15843 0
M  V30 5768 O 554.282 -2.25965 3.32119 0
M  V30 5769 N 552.488 -1.07636 2.69931 0
M  V30 5770 H 552.035 -0.191559 2.56887 0
M  V30 5771 H 551.993 -1.91876 2.4906 0
M  V30 5772 N 555.766 -1.3263 0.851289 0
M  V30 5773 C 557.014 -1.96978 0.452128 0
M  V30 5774 C 557.335 -1.67715 -0.99482 0
M  V30 5775 O 556.605 -0.98259 -1.69476 0
M  V30 5776 H 555.185 -0.72873 0.164202 0
M  V30 5777 H 557.847 -1.61774 1.08698 0
M  V30 5778 H 556.943 -3.06387 0.594407 0
M  V30 5779 N 557.244 -0.608902 -1.45362 0
M  V30 5780 C 558.174 0.0964526 -2.33301 0
M  V30 5781 C 559.155 0.857444 -1.46908 0
M  V30 5782 O 560.34 0.827735 -1.75676 0
M  V30 5783 C 557.47 1.09354 -3.29635 0
M  V30 5784 C 556.424 0.445676 -4.25673 0
M  V30 5785 C 555.75 1.5511 -5.11708 0
M  V30 5786 C 557.05 -0.633972 -5.18438 0
M  V30 5787 H 558.744 -0.637829 -2.92527 0
M  V30 5788 H 556.29 -0.308178 -1.40664 0
M  V30 5789 H 558.243 1.59556 -3.90025 0
M  V30 5790 H 556.967 1.85843 -2.6857 0
M  V30 5791 H 555.626 -0.0354897 -3.66583 0
M  V30 5792 H 555.274 2.30631 -4.4701 0
M  V30 5793 H 554.974 1.12311 -5.76767 0
M  V30 5794 H 556.498 2.05537 -5.74967 0
M  V30 5795 H 557.912 -0.215974 -5.72893 0
M  V30 5796 H 556.309 -0.983789 -5.91981 0
M  V30 5797 H 557.379 -1.51005 -4.60788 0
M  V30 5798 N 558.722 1.53707 -0.348139 0
M  V30 5799 C 560.138 1.596 0.00361134 0
M  V30 5800 C 560.338 1.36394 1.4832 0
M  V30 5801 O 559.394 1.16046 2.24253 0
M  V30 5802 C 560.707 2.97512 -0.436682 0
M  V30 5803 C 562.255 3.10568 -0.389416 0
M  V30 5804 C 562.73 4.50866 -0.805249 0
M  V30 5805 N 564.221 4.56929 -0.759616 0
M  V30 5806 C 564.956 5.63643 -1.05327 0
M  V30 5807 N 564.452 6.78189 -1.41531 0
M  V30 5808 N 566.245 5.5354 -0.977207 0
M  V30 5809 H 558.396 1.67044 -1.31187 0
M  V30 5810 H 560.659 0.782559 -0.535075 0
M  V30 5811 H 560.365 3.19575 -1.46849 0
M  V30 5812 H 560.239 3.76742 0.185744 0
M  V30 5813 H 562.626 2.88226 0.633228 0
M  V30 5814 H 562.707 2.33387 -1.04711 0
M  V30 5815 H 562.351 4.73943 -1.82593 0
M  V30 5816 H 562.281 5.26452 -0.124989 0
M  V30 5817 H 564.772 3.74675 -0.49265 0
M  V30 5818 H 565.085 7.55541 -1.62411 0
M  V30 5819 H 563.43 6.79624 -1.45381 0
M  V30 5820 H 566.621 4.62932 -0.693675 0
M  V30 5821 H 566.794 6.36614 -1.2094 0
M  V30 5822 N 560.2 0.0768682 1.57412 0
M  V30 5823 C 561.448 -0.589918 1.93299 0
M  V30 5824 C 561.769 -1.69842 0.958049 0
M  V30 5825 O 561.039 -1.95899 0.00703261 0
M  V30 5826 H 559.619 -0.220901 0.713591 0
M  V30 5827 H 562.281 0.135917 1.94425 0
M  V30 5828 H 561.377 -1.01195 2.95239 0
M  V30 5829 N 561.678 -1.56367 -0.196722 0
M  V30 5830 C 562.608 -1.97442 -1.24655 0
M  V30 5831 C 563.589 -0.846147 -1.47561 0
M  V30 5832 O 564.774 -1.11035 -1.59326 0
M  V30 5833 C 561.904 -2.31253 -2.59112 0
M  V30 5834 C 560.858 -3.46804 -2.50821 0
M  V30 5835 C 560.184 -3.66286 -3.89536 0
M  V30 5836 C 561.484 -4.8104 -2.03465 0
M  V30 5837 H 563.178 -2.85388 -0.905216 0
M  V30 5838 H 560.724 -1.37304 -0.434002 0
M  V30 5839 H 562.677 -2.58583 -3.32736 0
M  V30 5840 H 561.401 -1.40188 -2.94983 0
M  V30 5841 H 560.06 -3.19563 -1.79653 0
M  V30 5842 H 559.708 -2.72555 -4.22756 0
M  V30 5843 H 559.408 -4.4402 -3.84864 0
M  V30 5844 H 560.932 -3.9599 -4.64784 0
M  V30 5845 H 562.346 -5.07411 -2.66846 0
M  V30 5846 H 560.743 -5.62232 -2.09798 0
M  V30 5847 H 561.813 -4.74732 -0.98781 0
M  V30 5848 N 563.156 0.464375 -1.50603 0
M  V30 5849 C 564.089 1.58052 -1.64605 0
M  V30 5850 C 565.067 1.54914 -0.494016 0
M  V30 5851 O 566.251 1.74438 -0.714393 0
M  V30 5852 C 563.378 2.96634 -1.63481 0
M  V30 5853 C 562.424 3.17901 -2.84325 0
M  V30 5854 S 563.257 2.97083 -4.45536 0
M  V30 5855 C 564.413 4.37994 -4.47115 0
M  V30 5856 H 564.646 1.45937 -2.59017 0
M  V30 5857 H 562.179 0.652189 -1.39949 0
M  V30 5858 H 564.137 3.76527 -1.63517 0
M  V30 5859 H 562.798 3.06134 -0.702928 0
M  V30 5860 H 561.991 4.19158 -2.79862 0
M  V30 5861 H 561.593 2.45792 -2.81891 0
M  V30 5862 H 563.885 5.30743 -4.21091 0
M  V30 5863 H 564.828 4.47499 -5.48772 0
M  V30 5864 H 565.236 4.20386 -3.76743 0
M  V30 5865 N 564.634 1.40294 0.718013 0
M  V30 5866 C 565.564 1.43118 1.84498 0
M  V30 5867 C 566.545 0.292403 1.67568 0
M  V30 5868 O 567.73 0.500675 1.87635 0
M  V30 5869 C 564.86 1.29065 3.22427 0
M  V30 5870 C 563.814 2.40521 3.54025 0
M  V30 5871 C 563.14 2.11546 4.91073 0
M  V30 5872 C 564.44 3.82859 3.55269 0
M  V30 5873 H 566.134 2.37432 1.82391 0
M  V30 5874 H 563.68 1.14283 0.87609 0
M  V30 5875 H 565.633 1.29658 4.00957 0
M  V30 5876 H 564.357 0.312271 3.25104 0
M  V30 5877 H 563.016 2.39173 2.77834 0
M  V30 5878 H 562.664 1.12104 4.90348 0
M  V30 5879 H 562.364 2.86216 5.1318 0
M  V30 5880 H 563.888 2.13817 5.71939 0
M  V30 5881 H 565.302 3.86044 4.23843 0
M  V30 5882 H 563.699 4.57029 3.88902 0
M  V30 5883 H 564.769 4.12617 2.54706 0
M  V30 5884 N 566.112 -0.949982 1.2575 0
M  V30 5885 C 567.075 -2.02894 1.06615 0
M  V30 5886 C 568.075 -1.60791 0.0173905 0
M  V30 5887 O 569.265 -1.72249 0.260003 0
M  V30 5888 C 566.397 -3.35219 0.619751 0
M  V30 5889 H 567.59 -2.21302 2.02399 0
M  V30 5890 H 565.143 -1.12772 1.08223 0
M  V30 5891 H 565.878 -3.22508 -0.340486 0
M  V30 5892 H 565.663 -3.67129 1.37692 0
M  V30 5893 H 567.153 -4.14505 0.507443 0
M  V30 5894 N 567.59 -1.07411 -1.15328 0
M  V30 5895 C 568.836 -0.798831 -1.86404 0
M  V30 5896 C 569.169 0.673433 -1.8215 0
M  V30 5897 O 568.444 1.49428 -1.24505 0
M  V30 5898 C 568.727 -1.30846 -3.35487 0
M  V30 5899 C 568.58 -2.84532 -3.4837 0
M  V30 5900 C 569.899 -0.925486 -4.30259 0
M  V30 5901 H 567.018 -0.291659 -0.676834 0
M  V30 5902 H 569.66 -1.332 -1.35491 0
M  V30 5903 H 567.81 -0.854916 -3.78977 0
M  V30 5904 H 569.482 -3.3818 -3.13739 0
M  V30 5905 H 567.725 -3.22699 -2.8991 0
M  V30 5906 H 568.396 -3.15259 -4.53118 0
M  V30 5907 H 570.872 -1.3163 -3.94731 0
M  V30 5908 H 569.748 -1.3094 -5.33053 0
M  V30 5909 H 570.009 0.168525 -4.41779 0
M  V30 5910 N 569.068 1.32177 -0.85831 0
M  V30 5911 C 570.001 2.26823 -0.25035 0
M  V30 5912 C 570.979 1.50571 0.61378 0
M  V30 5913 O 572.163 1.79682 0.569777 0
M  V30 5914 C 569.29 3.32472 0.646556 0
M  V30 5915 C 568.336 4.26255 -0.144675 0
M  V30 5916 S 569.169 5.13608 -1.5155 0
M  V30 5917 C 570.325 6.22778 -0.624408 0
M  V30 5918 H 570.558 2.7804 -1.05267 0
M  V30 5919 H 568.091 1.39764 -0.656152 0
M  V30 5920 H 570.049 3.93817 1.15837 0
M  V30 5921 H 568.71 2.80031 1.42272 0
M  V30 5922 H 567.903 5.01114 0.538613 0
M  V30 5923 H 567.505 3.69346 -0.588198 0
M  V30 5924 H 569.797 6.77287 0.169846 0
M  V30 5925 H 570.74 6.95233 -1.34376 0
M  V30 5926 H 571.148 5.64156 -0.197128 0
M  V30 5927 N 570.547 0.616602 1.45037 0
M  V30 5928 C 571.477 -0.0840787 2.33349 0
M  V30 5929 C 572.458 -0.849641 1.4736 0
M  V30 5930 O 573.643 -0.818407 1.76113 0
M  V30 5931 C 570.773 -1.07604 3.3021 0
M  V30 5932 C 569.727 -0.423096 4.25904 0
M  V30 5933 C 569.053 -1.52394 5.12523 0
M  V30 5934 C 570.353 0.661457 5.18095 0
M  V30 5935 H 572.047 0.653333 2.92185 0
M  V30 5936 H 569.593 0.315634 1.40498 0
M  V30 5937 H 571.546 -1.57485 3.90866 0
M  V30 5938 H 570.27 -1.84416 2.69552 0
M  V30 5939 H 568.929 0.05493 3.66559 0
M  V30 5940 H 568.577 -2.28257 4.48227 0
M  V30 5941 H 568.277 -1.09251 5.77354 0
M  V30 5942 H 569.801 -2.02485 5.76049 0
M  V30 5943 H 571.215 0.246353 5.7277 0
M  V30 5944 H 569.612 1.01517 5.91451 0
M  V30 5945 H 570.682 1.53446 4.59981 0
M  V30 5946 N 572.025 -1.5352 0.356285 0
M  V30 5947 C 572.988 -2.24071 -0.482182 0
M  V30 5948 C 573.988 -1.24531 -1.01729 0
M  V30 5949 O 575.178 -1.48876 -0.904513 0
M  V30 5950 C 572.31 -2.97025 -1.67299 0
M  V30 5951 H 573.503 -2.99596 0.135031 0
M  V30 5952 H 571.056 -1.55928 0.107825 0
M  V30 5953 H 571.791 -2.25719 -2.32855 0
M  V30 5954 H 571.576 -3.7005 -1.29636 0
M  V30 5955 H 573.066 -3.50683 -2.26741 0
M  V30 5956 N 573.503 -0.0852151 -1.57369 0
M  V30 5957 C 574.466 0.8627 -2.12344 0
M  V30 5958 C 575.466 1.21746 -1.05046 0
M  V30 5959 O 576.656 1.14852 -1.30976 0
M  V30 5960 C 573.788 2.1618 -2.63589 0
M  V30 5961 H 574.981 0.385511 -2.97412 0
M  V30 5962 H 572.534 0.163663 -1.55441 0
M  V30 5963 H 573.269 2.68406 -1.82013 0
M  V30 5964 H 573.054 1.91723 -3.4203 0
M  V30 5965 H 574.544 2.84011 -3.06149 0
M  V30 5966 N 574.981 1.5647 0.188427 0
M  V30 5967 C 575.911 1.98101 1.23606 0
M  V30 5968 C 576.892 0.853961 1.47111 0
M  V30 5969 O 578.077 1.11879 1.58735 0
M  V30 5970 C 575.207 2.32624 2.57882 0
M  V30 5971 C 574.161 3.48129 2.48978 0
M  V30 5972 C 573.487 3.68347 3.87588 0
M  V30 5973 C 574.787 4.82112 2.00911 0
M  V30 5974 H 576.481 2.85864 0.890068 0
M  V30 5975 H 574.027 1.37532 0.426714 0
M  V30 5976 H 575.98 2.60343 3.3136 0
M  V30 5977 H 574.704 1.41751 2.94235 0
M  V30 5978 H 573.363 3.20511 1.77956 0
M  V30 5979 H 573.011 2.74793 4.21305 0
M  V30 5980 H 572.711 4.46055 3.82503 0
M  V30 5981 H 574.235 3.98449 4.62678 0
M  V30 5982 H 575.649 5.08819 2.64151 0
M  V30 5983 H 574.046 5.63337 2.06814 0
M  V30 5984 H 575.116 4.75249 0.96262 0
M  V30 5985 N 576.459 -0.456382 1.50847 0
M  V30 5986 C 577.392 -1.57177 1.65441 0
M  V30 5987 C 578.37 -1.54649 0.502224 0
M  V30 5988 O 579.554 -1.74057 0.723633 0
M  V30 5989 C 576.681 -2.95763 1.65052 0
M  V30 5990 C 575.727 -3.16389 2.86007 0
M  V30 5991 S 576.56 -2.94716 4.47105 0
M  V30 5992 C 577.716 -4.35617 4.49432 0
M  V30 5993 H 577.949 -1.44561 2.59787 0
M  V30 5994 H 575.482 -0.644758 1.40293 0
M  V30 5995 H 577.44 -3.75654 1.65512 0
M  V30 5996 H 576.101 -3.05756 0.719153 0
M  V30 5997 H 575.294 -4.17667 2.82081 0
M  V30 5998 H 574.896 -2.44293 2.8319 0
M  V30 5999 H 577.188 -5.28503 4.239 0
M  V30 6000 H 578.131 -4.44582 5.51137 0
M  V30 6001 H 578.539 -4.18382 3.78967 0
M  V30 6002 N 577.937 -1.40673 -0.710563 0
M  V30 6003 C 579.162 -1.42741 -1.50465 0
M  V30 6004 C 579.587 -0.0302116 -1.88076 0
M  V30 6005 O 578.945 0.962945 -1.53613 0
M  V30 6006 C 578.993 -2.32873 -2.75322 0
M  V30 6007 O 578.097 -1.77544 -3.72226 0
M  V30 6008 H 577.438 -0.485056 -0.45345 0
M  V30 6009 H 579.968 -1.84961 -0.874681 0
M  V30 6010 H 579.978 -2.48233 -3.23797 0
M  V30 6011 H 578.653 -3.34401 -2.47283 0
M  V30 6012 H 577.23 -1.71556 -3.31093 0
M  V30 6013 N 579.415 0.9433 -1.26252 0
M  V30 6014 C 580.64 1.72898 -1.14547 0
M  V30 6015 C 581.065 1.85761 0.295743 0
M  V30 6016 O 580.423 1.3463 1.21427 0
M  V30 6017 C 580.471 3.11471 -1.8171 0
M  V30 6018 O 579.575 3.97336 -1.10445 0
M  V30 6019 H 578.916 0.530555 -0.399259 0
M  V30 6020 H 581.446 1.18159 -1.67032 0
M  V30 6021 H 581.456 3.61872 -1.88449 0
M  V30 6022 H 580.131 3.01425 -2.86558 0
M  V30 6023 H 578.708 3.55788 -1.11666 0
M  V30 6024 N 580.893 1.08022 1.14757 0
M  V30 6025 C 581.823 0.728248 2.21853 0
M  V30 6026 C 582.804 -0.287486 1.67653 0
M  V30 6027 O 583.989 -0.158727 1.9355 0
M  V30 6028 C 581.119 0.132549 3.47047 0
M  V30 6029 C 580.073 1.07619 4.14249 0
M  V30 6030 C 579.399 0.342907 5.33599 0
M  V30 6031 C 580.699 2.41268 4.63235 0
M  V30 6032 H 582.393 1.62365 2.51551 0
M  V30 6033 H 579.939 0.782125 1.20908 0
M  V30 6034 H 581.892 -0.125665 4.21213 0
M  V30 6035 H 580.616 -0.797971 3.16702 0
M  V30 6036 H 579.275 1.31944 3.42033 0
M  V30 6037 H 578.923 -0.59129 4.99513 0
M  V30 6038 H 578.623 0.971955 5.79506 0
M  V30 6039 H 580.147 0.0926538 6.1053 0
M  V30 6040 H 581.561 2.21232 5.28894 0
M  V30 6041 H 579.958 2.9983 5.19829 0
M  V30 6042 H 581.028 3.03079 3.78512 0
M  V30 6043 N 582.371 -1.3172 0.865308 0
M  V30 6044 C 583.334 -2.26918 0.322627 0
M  V30 6045 C 584.334 -1.52031 -0.523751 0
M  V30 6046 O 585.524 -1.70973 -0.333727 0
M  V30 6047 C 582.656 -3.36558 -0.542338 0
M  V30 6048 H 583.849 -2.76432 1.16298 0
M  V30 6049 H 581.402 -1.42573 0.640512 0
M  V30 6050 H 582.137 -2.92329 -1.40407 0
M  V30 6051 H 581.922 -3.92048 0.0636395 0
M  V30 6052 H 583.412 -4.07465 -0.91446 0
M  V30 6053 N 583.85 -0.624285 -1.44708 0
M  V30 6054 C 585.075 -0.131171 -2.06985 0
M  V30 6055 C 585.5 1.18234 -1.46295 0
M  V30 6056 O 584.858 1.72375 -0.561842 0
M  V30 6057 C 584.906 -0.0226724 -3.60593 0
M  V30 6058 O 584.01 1.02314 -3.99507 0
M  V30 6059 H 583.351 -0.0816556 -0.65896 0
M  V30 6060 H 585.88 -0.859027 -1.85693 0
M  V30 6061 H 585.891 0.170138 -4.07645 0
M  V30 6062 H 584.566 -0.981685 -4.04148 0
M  V30 6063 H 583.143 0.805452 -3.64097 0
M  V30 6064 N 585.328 1.53329 -0.364422 0
M  V30 6065 C 586.577 2.00421 0.226747 0
M  V30 6066 C 586.89 1.25581 1.49963 0
M  V30 6067 O 588.096 1.63256 2.16933 0
M  V30 6068 C 586.552 3.57017 0.454618 0
M  V30 6069 C 586.16 4.40734 -0.803568 0
M  V30 6070 C 587.904 4.12468 1.00351 0
M  V30 6071 C 585.811 5.8888 -0.545345 0
M  V30 6072 H 584.741 0.748787 0.0885082 0
M  V30 6073 H 587.392 1.7703 -0.482983 0
M  V30 6074 H 585.774 3.76558 1.22558 0
M  V30 6075 H 586.948 4.32967 -1.57723 0
M  V30 6076 H 585.263 3.96381 -1.27559 0
M  V30 6077 H 587.86 5.20783 1.212 0
M  V30 6078 H 588.203 3.6699 1.9653 0
M  V30 6079 H 588.736 3.96721 0.29274 0
M  V30 6080 H 585.475 6.38633 -1.47743 0
M  V30 6081 H 584.995 5.99499 0.189842 0
M  V30 6082 H 586.674 6.46776 -0.170425 0
M  V30 6083 N 586.806 0.0935595 1.57322 0
M  V30 6084 C 588.053 -0.570509 1.94297 0
M  V30 6085 C 588.381 -1.68286 0.97519 0
M  V30 6086 O 587.636 -1.95699 -0.00548655 0
M  V30 6087 C 587.935 -1.16692 3.37813 0
M  V30 6088 C 587.601 -0.178509 4.50547 0
M  V30 6089 C 586.263 0.0933475 4.81109 0
M  V30 6090 C 588.615 0.496472 5.1883 0
M  V30 6091 C 585.943 1.0469 5.77284 0
M  V30 6092 C 588.295 1.43849 6.16028 0
M  V30 6093 C 586.959 1.71859 6.44997 0
M  V30 6094 H 586.229 -0.208764 0.710984 0
M  V30 6095 H 588.876 0.169066 1.90752 0
M  V30 6096 H 587.181 -1.98271 3.37929 0
M  V30 6097 H 588.878 -1.6884 3.63722 0
M  V30 6098 H 585.468 -0.400584 4.26724 0
M  V30 6099 H 589.652 0.299584 4.95395 0
M  V30 6100 H 584.908 1.27094 5.98044 0
M  V30 6101 H 589.082 1.96734 6.68034 0
M  V30 6102 H 586.709 2.45906 7.19329 0
M  V30 6103 N 588.284 -1.56567 -0.180126 0
M  V30 6104 C 589.232 -1.96632 -1.24251 0
M  V30 6105 C 590.226 -0.853818 -1.46309 0
M  V30 6106 O 591.432 -1.0389 -1.46993 0
M  V30 6107 H 587.807 -0.625476 -0.417473 0
M  V30 6108 H 589.778 -2.85201 -0.877679 0
M  V30 6109 C 588.527 -2.33486 -2.57642 0
M  V30 6110 H 587.85 -3.18626 -2.4149 0
M  V30 6111 H 589.29 -2.65371 -3.30688 0
M  V30 6112 C 587.749 -1.17499 -3.15746 0
M  V30 6113 O 588.279 -0.457956 -3.99081 0
M  V30 6114 N 586.485 -0.94786 -2.74707 0
M  V30 6115 H 586.032 -1.53269 -2.07042 0
M  V30 6116 H 585.99 -0.173626 -3.1392 0
M  V30 6117 N 589.762 0.448376 -1.51087 0
M  V30 6118 C 590.987 1.22605 -1.6728 0
M  V30 6119 C 591.412 1.84524 -0.365045 0
M  V30 6120 O 590.77 1.6832 0.673642 0
M  V30 6121 C 590.818 2.29393 -2.78229 0
M  V30 6122 O 589.922 3.34608 -2.41063 0
M  V30 6123 H 589.263 0.359705 -0.558129 0
M  V30 6124 H 591.793 0.530903 -1.97592 0
M  V30 6125 H 591.803 2.74352 -3.01986 0
M  V30 6126 H 590.478 1.83701 -3.73131 0
M  V30 6127 H 589.055 2.95202 -2.27838 0
M  V30 6128 N 591.24 1.41047 0.703093 0
M  V30 6129 C 592.465 1.43537 1.49706 0
M  V30 6130 C 592.89 0.0401853 1.88057 0
M  V30 6131 O 592.248 -0.954785 1.54122 0
M  V30 6132 C 592.296 2.3433 2.74084 0
M  V30 6133 O 591.4 1.79515 3.71279 0
M  V30 6134 H 590.741 0.487454 0.450871 0
M  V30 6135 H 593.271 1.85422 0.86486 0
M  V30 6136 H 593.281 2.49947 3.22476 0
M  V30 6137 H 591.956 3.35708 2.45506 0
M  V30 6138 H 590.533 1.7331 3.30179 0
M  V30 6139 N 592.718 -0.936591 1.26751 0
M  V30 6140 C 593.943 -1.72288 1.15462 0
M  V30 6141 C 594.368 -1.85915 -0.285887 0
M  V30 6142 O 593.726 -1.35272 -1.20711 0
M  V30 6143 C 593.774 -3.10503 1.83359 0
M  V30 6144 O 592.878 -3.96745 1.1255 0
M  V30 6145 H 592.219 -0.52843 0.402067 0
M  V30 6146 H 594.749 -1.17271 1.67656 0
M  V30 6147 H 594.759 -3.60867 1.90365 0
M  V30 6148 H 593.434 -2.99901 2.88153 0
M  V30 6149 H 592.011 -3.55191 1.13551 0
M  V30 6150 N 594.196 -1.08629 -1.14182 0
M  V30 6151 C 595.424 -0.838889 -1.8913 0
M  V30 6152 C 595.839 0.609153 -1.78703 0
M  V30 6153 O 595.196 1.41876 -1.14794 0
M  V30 6154 C 595.247 -1.25477 -3.39025 0
M  V30 6155 O 594.968 -2.64601 -3.49167 0
M  V30 6156 C 596.469 -1.03856 -4.30963 0
M  V30 6157 H 593.689 -0.302377 -0.599007 0
M  V30 6158 H 596.233 -1.44615 -1.44592 0
M  V30 6159 H 594.388 -0.691571 -3.81177 0
M  V30 6160 H 594.802 -2.81922 -4.42289 0
M  V30 6161 H 596.276 -1.37892 -5.345 0
M  V30 6162 H 596.753 0.0242522 -4.39193 0
M  V30 6163 H 597.359 -1.58731 -3.94569 0
M  V30 6164 N 595.674 1.31259 -0.872281 0
M  V30 6165 C 596.604 2.30929 -0.345554 0
M  V30 6166 C 597.585 1.60449 0.5648 0
M  V30 6167 O 598.77 1.8814 0.481335 0
M  V30 6168 C 595.9 3.44348 0.451823 0
M  V30 6169 C 594.854 4.26435 -0.365641 0
M  V30 6170 C 594.18 5.31785 0.557562 0
M  V30 6171 C 595.48 4.97159 -1.60095 0
M  V30 6172 H 597.174 2.75234 -1.17841 0
M  V30 6173 H 594.72 1.3232 -0.568094 0
M  V30 6174 H 596.673 4.13128 0.830854 0
M  V30 6175 H 595.397 2.98816 1.31821 0
M  V30 6176 H 594.056 3.59326 -0.726649 0
M  V30 6177 H 593.704 4.82502 1.4213 0
M  V30 6178 H 593.404 5.87598 0.0144878 0
M  V30 6179 H 594.928 6.03424 0.933387 0
M  V30 6180 H 596.342 5.58523 -1.29323 0
M  V30 6181 H 594.739 5.62779 -2.08327 0
M  V30 6182 H 595.809 4.24012 -2.35249 0
M  V30 6183 N 597.152 0.631951 1.44375 0
M  V30 6184 C 598.399 0.136767 2.02038 0
M  V30 6185 C 598.727 -1.24168 1.49709 0
M  V30 6186 O 597.982 -1.83809 0.671763 0
M  V30 6187 C 598.281 0.0735861 3.57324 0
M  V30 6188 C 597.947 1.39092 4.28911 0
M  V30 6189 C 596.609 1.75171 4.48184 0
M  V30 6190 C 598.961 2.26042 4.69632 0
M  V30 6191 C 596.289 2.97907 5.05439 0
M  V30 6192 C 598.641 3.4805 5.28246 0
M  V30 6193 C 597.305 3.84351 5.45738 0
M  V30 6194 H 596.575 0.0500466 0.739308 0
M  V30 6195 H 599.222 0.818429 1.7313 0
M  V30 6196 H 597.527 -0.691449 3.8565 0
M  V30 6197 H 599.224 -0.326091 3.99672 0
M  V30 6198 H 595.814 1.10015 4.1424 0
M  V30 6199 H 599.998 1.99463 4.54454 0
M  V30 6200 H 595.254 3.26108 5.17169 0
M  V30 6201 H 599.428 4.15658 5.5875 0
M  V30 6202 H 597.055 4.79538 5.8987 0
M  V30 6203 N 598.631 -1.53133 0.372548 0
M  V30 6204 C 599.859 -2.05774 -0.215515 0
M  V30 6205 C 600.274 -1.24555 -1.41886 0
M  V30 6206 O 599.631 -0.287951 -1.80214 0
M  V30 6207 C 599.682 -3.5645 -0.602161 0
M  V30 6208 O 599.403 -4.34591 0.553359 0
M  V30 6209 C 600.904 -4.25374 -1.24787 0
M  V30 6210 H 598.124 -0.670009 -0.0364529 0
M  V30 6211 H 600.668 -1.97434 0.532934 0
M  V30 6212 H 598.823 -3.64918 -1.30052 0
M  V30 6213 H 599.237 -5.23954 0.239336 0
M  V30 6214 H 600.711 -5.32097 -1.46891 0
M  V30 6215 H 601.188 -3.79531 -2.21026 0
M  V30 6216 H 601.794 -4.21177 -0.590752 0
M  V30 6217 N 600.109 -0.101901 -1.5727 0
M  V30 6218 C 601.042 0.891377 -2.10071 0
M  V30 6219 C 602.02 1.27197 -1.01291 0
M  V30 6220 O 603.204 1.37602 -1.28833 0
M  V30 6221 C 600.331 2.19049 -2.58331 0
M  V30 6222 C 599.377 1.95925 -3.78834 0
M  V30 6223 S 600.21 1.19106 -5.22086 0
M  V30 6224 C 601.366 2.50234 -5.73702 0
M  V30 6225 H 601.599 0.442212 -2.93993 0
M  V30 6226 H 599.132 0.111529 -1.53997 0
M  V30 6227 H 601.09 2.937 -2.86793 0
M  V30 6228 H 599.751 2.61086 -1.74622 0
M  V30 6229 H 598.944 2.92143 -4.10693 0
M  V30 6230 H 598.546 1.29401 -3.50901 0
M  V30 6231 H 600.838 3.46173 -5.82384 0
M  V30 6232 H 601.781 2.22944 -6.72088 0
M  V30 6233 H 602.189 2.58818 -5.01671 0
M  V30 6234 N 601.587 1.56661 0.17182 0
M  V30 6235 C 602.864 1.72838 0.915778 0
M  V30 6236 C 603.244 0.66316 2.00413 0
M  V30 6237 O 602.592 -0.322123 2.26218 0
M  V30 6238 C 602.802 3.16019 1.48097 0
M  V30 6239 C 604.15 3.76962 1.95408 0
M  V30 6240 O 605.174 3.19294 1.57892 0
M  V30 6241 O 604.033 4.78219 2.64516 0
M  V30 6242 H 601.127 0.705797 0.431021 0
M  V30 6243 H 603.673 1.68947 0.159689 0
M  V30 6244 H 602.445 3.85031 0.697618 0
M  V30 6245 H 602.068 3.24234 2.30126 0
M  V30 6246 N 603.065 -0.440357 1.51323 0
M  V30 6247 C 604.314 -1.18697 1.63076 0
M  V30 6248 C 604.627 -1.92418 0.35136 0
M  V30 6249 O 605.833 -2.69258 0.348221 0
M  V30 6250 C 604.289 -2.15849 2.87988 0
M  V30 6251 C 603.897 -1.47789 4.22921 0
M  V30 6252 C 605.641 -2.90962 3.09098 0
M  V30 6253 C 603.548 -2.43407 5.38987 0
M  V30 6254 H 602.478 -0.44676 0.607389 0
M  V30 6255 H 605.129 -0.454313 1.77787 0
M  V30 6256 H 603.511 -2.92537 2.66905 0
M  V30 6257 H 604.685 -0.7668 4.54375 0
M  V30 6258 H 603 -0.848404 4.07665 0
M  V30 6259 H 605.597 -3.62584 3.92985 0
M  V30 6260 H 605.94 -3.52133 2.22053 0
M  V30 6261 H 606.473 -2.21381 3.30507 0
M  V30 6262 H 603.212 -1.86929 6.28282 0
M  V30 6263 H 602.732 -3.12579 5.11913 0
M  V30 6264 H 604.411 -3.046 5.70813 0
M  V30 6265 N 604.543 -1.41418 -0.695603 0
M  V30 6266 C 605.773 -1.43921 -1.48224 0
M  V30 6267 C 606.181 -0.0428855 -1.89151 0
M  V30 6268 O 605.524 0.948138 -1.5734 0
M  V30 6269 C 605.586 -2.28466 -2.77567 0
M  V30 6270 C 605.25 -3.76629 -2.58844 0
M  V30 6271 C 606.247 -4.6879 -2.24793 0
M  V30 6272 C 603.932 -4.2067 -2.74485 0
M  V30 6273 C 605.926 -6.02981 -2.06622 0
M  V30 6274 C 603.613 -5.54926 -2.55931 0
M  V30 6275 C 604.611 -6.45897 -2.2205 0
M  V30 6276 O 604.299 -7.77675 -2.03657 0
M  V30 6277 H 604.031 -0.492252 -0.463318 0
M  V30 6278 H 606.585 -1.86347 -0.863952 0
M  V30 6279 H 604.815 -1.80853 -3.41802 0
M  V30 6280 H 606.504 -2.2267 -3.39371 0
M  V30 6281 H 607.27 -4.36055 -2.12323 0
M  V30 6282 H 603.149 -3.50167 -2.9984 0
M  V30 6283 H 606.693 -6.73951 -1.80099 0
M  V30 6284 H 602.59 -5.8724 -2.67991 0
M  V30 6285 H 603.358 -7.88819 -2.1842 0
M  V30 6286 N 606.021 0.929856 -1.27246 0
M  V30 6287 C 607.249 1.71144 -1.16265 0
M  V30 6288 C 607.664 1.867 0.280786 0
M  V30 6289 O 607.021 1.38249 1.19136 0
M  V30 6290 C 607.072 3.11222 -1.83911 0
M  V30 6291 O 606.793 2.96398 -3.22614 0
M  V30 6292 C 608.294 4.05541 -1.79028 0
M  V30 6293 H 605.514 0.535499 -0.404328 0
M  V30 6294 H 608.058 1.16492 -1.68077 0
M  V30 6295 H 606.213 3.6274 -1.36009 0
M  V30 6296 H 606.627 3.8494 -3.56261 0
M  V30 6297 H 608.101 5.01351 -2.30978 0
M  V30 6298 H 608.578 4.32589 -0.759168 0
M  V30 6299 H 609.184 3.59947 -2.26535 0
M  V30 6300 N 607.499 1.09233 1.13605 0
M  V30 6301 C 608.915 0.82163 1.36826 0
M  V30 6302 C 609.115 -0.565021 1.93416 0
M  V30 6303 O 608.171 -1.32026 2.15234 0
M  V30 6304 C 609.484 1.91124 2.32147 0
M  V30 6305 C 611.032 1.93824 2.45767 0
M  V30 6306 C 611.507 3.01923 3.44393 0
M  V30 6307 N 612.998 3.01149 3.51942 0
M  V30 6308 C 613.733 3.81434 4.2813 0
M  V30 6309 N 613.229 4.71621 5.07489 0
M  V30 6310 N 615.022 3.69702 4.23411 0
M  V30 6311 H 607.173 1.98633 0.752234 0
M  V30 6312 H 609.436 0.862482 0.393482 0
M  V30 6313 H 609.142 2.90862 1.97717 0
M  V30 6314 H 609.016 1.78777 3.32142 0
M  V30 6315 H 611.403 0.94726 2.79483 0
M  V30 6316 H 611.484 2.10248 1.45703 0
M  V30 6317 H 611.128 4.01232 3.11408 0
M  V30 6318 H 611.058 2.82742 4.44257 0
M  V30 6319 H 613.549 2.35789 2.95317 0
M  V30 6320 H 613.862 5.29468 5.62924 0
M  V30 6321 H 612.207 4.75658 5.06729 0
M  V30 6322 H 615.398 2.98606 3.60489 0
M  V30 6323 H 615.571 4.32509 4.82535 0
M  V30 6324 N 608.977 -1.30795 0.87923 0
M  V30 6325 C 609.907 -2.30742 0.357796 0
M  V30 6326 C 610.888 -1.60747 -0.556283 0
M  V30 6327 O 612.073 -1.88393 -0.47135 0
M  V30 6328 C 609.203 -3.44583 -0.433555 0
M  V30 6329 C 608.157 -4.26235 0.388251 0
M  V30 6330 C 607.483 -5.32073 -0.529352 0
M  V30 6331 C 608.783 -4.96303 1.62729 0
M  V30 6332 H 610.477 -2.74605 1.19299 0
M  V30 6333 H 608.023 -1.32017 0.575104 0
M  V30 6334 H 609.976 -4.13563 -0.808934 0
M  V30 6335 H 608.7 -2.99511 -1.30234 0
M  V30 6336 H 607.359 -3.58936 0.745695 0
M  V30 6337 H 607.007 -4.83249 -1.39569 0
M  V30 6338 H 606.707 -5.87598 0.0166741 0
M  V30 6339 H 608.231 -6.0391 -0.901373 0
M  V30 6340 H 609.645 -5.5783 1.32283 0
M  V30 6341 H 608.042 -5.61666 2.11309 0
M  V30 6342 H 609.112 -4.22758 2.37494 0
M  V30 6343 N 610.455 -0.639598 -1.44038 0
M  V30 6344 C 611.871 -0.305953 -1.5664 0
M  V30 6345 C 612.071 1.19055 -1.62567 0
M  V30 6346 O 611.127 1.97492 -1.57331 0
M  V30 6347 C 612.44 -1.00533 -2.83397 0
M  V30 6348 C 613.988 -0.984278 -2.97121 0
M  V30 6349 C 614.463 -1.66428 -4.26691 0
M  V30 6350 N 615.954 -1.63127 -4.33525 0
M  V30 6351 C 616.689 -2.12629 -5.32519 0
M  V30 6352 N 616.185 -2.70359 -6.3787 0
M  V30 6353 N 617.978 -2.03208 -5.24083 0
M  V30 6354 H 610.129 -1.6109 -1.38434 0
M  V30 6355 H 612.392 -0.676672 -0.663942 0
M  V30 6356 H 612.098 -2.06034 -2.85032 0
M  V30 6357 H 611.972 -0.548362 -3.73193 0
M  V30 6358 H 614.359 0.0622792 -2.95034 0
M  V30 6359 H 614.44 -1.47981 -2.08651 0
M  V30 6360 H 614.084 -2.71034 -4.29538 0
M  V30 6361 H 614.014 -1.14351 -5.14034 0
M  V30 6362 H 616.505 -1.20987 -3.58009 0
M  V30 6363 H 616.818 -3.05842 -7.09704 0
M  V30 6364 H 615.163 -2.74414 -6.38531 0
M  V30 6365 H 618.354 -1.57823 -4.40692 0
M  V30 6366 H 618.527 -2.42097 -6.01077 0
M  V30 6367 N 611.933 1.52934 -0.380664 0
M  V30 6368 C 613.344 1.86457 0.0952684 0
M  V30 6369 C 613.695 1.3007 1.46889 0
M  V30 6370 O 612.82 0.628636 2.07068 0
M  V30 6371 C 613.415 3.38323 0.179648 0
M  V30 6372 C 611.974 3.71589 0.599858 0
M  V30 6373 C 611.121 2.76228 -0.243572 0
M  V30 6374 H 614.072 1.46966 -0.59888 0
M  V30 6375 H 614.093 3.67113 1.00042 0
M  V30 6376 H 613.605 3.79333 -0.820228 0
M  V30 6377 H 611.706 3.36144 1.60742 0
M  V30 6378 H 611.819 4.77715 0.364003 0
M  V30 6379 H 610.183 2.53045 0.289855 0
M  V30 6380 H 610.966 3.20074 -1.24127 0
M  V30 6381 N 613.412 0.11024 1.57214 0
M  V30 6382 C 614.828 -0.24638 1.57687 0
M  V30 6383 C 615.028 -1.67344 1.12241 0
M  V30 6384 O 614.084 -2.39298 0.805783 0
M  V30 6385 C 615.397 -0.0210288 3.00693 0
M  V30 6386 C 616.945 -0.0876077 3.12877 0
M  V30 6387 C 617.42 0.10994 4.57868 0
M  V30 6388 N 618.911 0.0556135 4.63167 0
M  V30 6389 C 619.646 0.183495 5.73106 0
M  V30 6390 N 619.142 0.367058 6.91827 0
M  V30 6391 N 620.935 0.123689 5.61964 0
M  V30 6392 H 613.086 1.04246 1.85058 0
M  V30 6393 H 615.349 0.40979 0.854854 0
M  V30 6394 H 615.055 0.965203 3.38196 0
M  V30 6395 H 614.929 -0.756748 3.69531 0
M  V30 6396 H 617.316 -1.06436 2.75237 0
M  V30 6397 H 617.397 0.67985 2.466 0
M  V30 6398 H 617.041 1.08362 4.96206 0
M  V30 6399 H 616.971 -0.677397 5.22225 0
M  V30 6400 H 619.462 -0.0831062 3.77809 0
M  V30 6401 H 619.775 0.455739 7.71455 0
M  V30 6402 H 618.12 0.40292 6.93831 0
M  V30 6403 H 621.311 -0.0186928 4.68096 0
M  V30 6404 H 621.484 0.226797 6.47603 0
M  V30 6405 N 614.89 -1.56749 -0.16351 0
M  V30 6406 C 615.853 -1.96121 -1.18613 0
M  V30 6407 C 616.853 -0.845765 -1.36761 0
M  V30 6408 O 618.043 -1.11268 -1.34033 0
M  V30 6409 C 615.175 -2.26282 -2.54969 0
M  V30 6410 H 616.368 -2.87639 -0.848764 0
M  V30 6411 H 613.921 -1.50928 -0.406251 0
M  V30 6412 H 614.656 -1.37504 -2.93706 0
M  V30 6413 H 614.441 -3.07595 -2.43162 0
M  V30 6414 H 615.931 -2.57638 -3.28653 0
M  V30 6415 N 616.368 0.432326 -1.51554 0
M  V30 6416 C 617.616 1.17901 -1.64146 0
M  V30 6417 C 617.937 1.91604 -0.362367 0
M  V30 6418 O 617.207 1.85764 0.621968 0
M  V30 6419 H 615.787 0.438206 -0.604966 0
M  V30 6420 H 618.449 0.495172 -1.88505 0
M  V30 6421 H 617.545 1.90584 -2.47152 0
M  V30 6422 N 617.846 1.41785 0.688094 0
M  V30 6423 C 619.123 1.32031 1.44316 0
M  V30 6424 C 619.503 -0.0486079 2.11044 0
M  V30 6425 O 618.851 -1.06332 2.02252 0
M  V30 6426 C 619.061 2.47906 2.45649 0
M  V30 6427 C 620.409 2.89415 3.10683 0
M  V30 6428 O 621.433 2.477 2.55975 0
M  V30 6429 O 620.292 3.61573 4.09789 0
M  V30 6430 H 617.386 0.519994 0.643067 0
M  V30 6431 H 619.932 1.53765 0.71794 0
M  V30 6432 H 618.704 3.39222 1.95048 0
M  V30 6433 H 618.327 2.28089 3.25671 0
M  V30 6434 N 619.324 -0.923095 1.27737 0
M  V30 6435 C 620.74 -1.19985 1.05241 0
M  V30 6436 C 620.94 -2.00391 -0.21113 0
M  V30 6437 O 619.996 -2.35324 -0.915366 0
M  V30 6438 C 621.309 -1.94352 2.29451 0
M  V30 6439 C 622.857 -2.07273 2.34536 0
M  V30 6440 C 623.332 -2.85046 3.58487 0
M  V30 6441 N 624.823 -2.92612 3.59072 0
M  V30 6442 C 625.558 -3.53266 4.51654 0
M  V30 6443 N 625.054 -4.15274 5.54545 0
M  V30 6444 N 626.847 -3.50714 4.39268 0
M  V30 6445 H 618.998 -0.386042 2.08862 0
M  V30 6446 H 621.261 -0.233407 0.918817 0
M  V30 6447 H 620.967 -1.42692 3.21453 0
M  V30 6448 H 620.841 -2.94947 2.3513 0
M  V30 6449 H 623.228 -2.58117 1.43037 0
M  V30 6450 H 623.309 -1.05884 2.32857 0
M  V30 6451 H 622.953 -2.34884 4.50324 0
M  V30 6452 H 622.883 -3.8673 3.57418 0
M  V30 6453 H 625.374 -2.48547 2.84663 0
M  V30 6454 H 625.687 -4.59507 6.21348 0
M  V30 6455 H 624.032 -4.13806 5.58382 0
M  V30 6456 H 627.223 -3.01475 3.58093 0
M  V30 6457 H 627.396 -3.97693 5.1161 0
M  V30 6458 N 620.802 -1.09834 -1.13024 0
M  V30 6459 C 621.712 -0.753731 -2.22162 0
M  V30 6460 C 622.728 0.246105 -1.72251 0
M  V30 6461 O 623.904 0.0864051 -2.01215 0
M  V30 6462 C 620.969 -0.183958 -3.46212 0
M  V30 6463 C 620.03 -1.24028 -4.10993 0
M  V30 6464 C 619.263 -0.697597 -5.29121 0
M  V30 6465 O 619.486 0.478092 -5.68393 0
M  V30 6466 O 618.42 -1.4546 -5.84059 0
M  V30 6467 H 622.246 -1.66456 -2.5402 0
M  V30 6468 H 619.831 -0.873026 -1.21238 0
M  V30 6469 H 621.713 0.130257 -4.21199 0
M  V30 6470 H 620.388 0.699823 -3.16045 0
M  V30 6471 H 619.295 -1.60725 -3.37814 0
M  V30 6472 H 620.628 -2.09685 -4.45301 0
M  V30 6473 N 622.28 1.30327 -0.886154 0
M  V30 6474 C 623.21 2.30549 -0.370028 0
M  V30 6475 C 624.191 1.61039 0.547751 0
M  V30 6476 O 625.376 1.8864 0.461353 0
M  V30 6477 C 622.506 3.44808 0.415275 0
M  V30 6478 C 621.46 4.26024 -0.41085 0
M  V30 6479 C 620.786 5.32347 0.501128 0
M  V30 6480 C 622.086 4.95433 -1.65359 0
M  V30 6481 H 623.78 2.73969 -1.20754 0
M  V30 6482 H 621.326 1.3171 -0.582097 0
M  V30 6483 H 623.279 4.13986 0.78699 0
M  V30 6484 H 622.003 3.00197 1.28644 0
M  V30 6485 H 620.662 3.58535 -0.764719 0
M  V30 6486 H 620.31 4.83982 1.37004 0
M  V30 6487 H 620.01 5.87581 -0.0478356 0
M  V30 6488 H 621.534 6.0438 0.869333 0
M  V30 6489 H 622.948 5.5712 -1.35239 0
M  V30 6490 H 621.345 5.60537 -2.14284 0
M  V30 6491 H 622.415 4.21493 -2.39733 0
M  V30 6492 N 623.758 0.647228 1.43697 0
M  V30 6493 C 624.688 -0.0345631 2.33474 0
M  V30 6494 C 625.669 -0.818193 1.4913 0
M  V30 6495 O 626.854 -0.780867 1.77809 0
M  V30 6496 C 623.984 -1.00576 3.32418 0
M  V30 6497 C 622.938 -0.33266 4.26705 0
M  V30 6498 C 622.264 -1.41489 5.1564 0
M  V30 6499 C 623.564 0.771204 5.16575 0
M  V30 6500 H 625.258 0.715163 2.90733 0
M  V30 6501 H 622.804 0.345364 1.39797 0
M  V30 6502 H 624.757 -1.49159 3.94119 0
M  V30 6503 H 623.481 -1.78657 2.73403 0
M  V30 6504 H 622.14 0.13267 3.6636 0
M  V30 6505 H 621.788 -2.18698 4.52968 0
M  V30 6506 H 621.488 -0.969799 5.79542 0
M  V30 6507 H 623.012 -1.9022 5.80214 0
M  V30 6508 H 624.426 0.36779 5.72119 0
M  V30 6509 H 622.823 1.1404 5.89165 0
M  V30 6510 H 623.893 1.63169 4.56622 0
M  V30 6511 N 625.236 -1.5273 0.388769 0
M  V30 6512 C 626.166 -2.29353 -0.438111 0
M  V30 6513 C 627.147 -1.32719 -1.06394 0
M  V30 6514 O 628.332 -1.61612 -1.07681 0
M  V30 6515 C 625.462 -3.09995 -1.56589 0
M  V30 6516 C 624.416 -4.14509 -1.06613 0
M  V30 6517 C 623.742 -4.83372 -2.28594 0
M  V30 6518 C 625.042 -5.22127 -0.134459 0
M  V30 6519 H 626.736 -2.98723 0.201206 0
M  V30 6520 H 624.282 -1.43665 0.0982089 0
M  V30 6521 H 626.235 -3.62357 -2.15118 0
M  V30 6522 H 624.959 -2.38357 -2.23279 0
M  V30 6523 H 623.618 -3.63128 -0.503383 0
M  V30 6524 H 623.266 -4.08283 -2.93792 0
M  V30 6525 H 622.966 -5.54012 -1.95817 0
M  V30 6526 H 624.49 -5.38538 -2.87766 0
M  V30 6527 H 625.904 -5.69851 -0.627914 0
M  V30 6528 H 624.301 -6.00011 0.103534 0
M  V30 6529 H 625.371 -4.77971 0.816798 0
M  V30 6530 N 626.714 -0.118576 -1.57153 0
M  V30 6531 C 627.96 0.540326 -1.95469 0
M  V30 6532 C 628.293 1.66356 -1.00196 0
M  V30 6533 O 627.568 1.94461 -0.039104 0
M  V30 6534 C 627.851 1.07342 -3.43729 0
M  V30 6535 C 627.704 -0.0463732 -4.49776 0
M  V30 6536 C 629.023 1.96442 -3.93826 0
M  V30 6537 H 626.142 0.19494 -0.710751 0
M  V30 6538 H 628.784 -0.19405 -1.89006 0
M  V30 6539 H 626.934 1.69925 -3.49368 0
M  V30 6540 H 628.606 -0.681648 -4.56236 0
M  V30 6541 H 626.849 -0.709574 -4.27957 0
M  V30 6542 H 627.52 0.367856 -5.50773 0
M  V30 6543 H 629.996 1.43731 -3.90488 0
M  V30 6544 H 628.872 2.3066 -4.98084 0
M  V30 6545 H 629.133 2.89077 -3.34495 0
M  V30 6546 N 628.193 1.56834 0.155195 0
M  V30 6547 C 629.441 1.82536 0.867462 0
M  V30 6548 C 629.762 0.698168 1.82073 0
M  V30 6549 O 629.032 -0.280807 1.93877 0
M  V30 6550 H 627.612 0.673401 0.323327 0
M  V30 6551 H 630.274 1.94313 0.151156 0
M  V30 6552 H 629.37 2.77171 1.43466 0
M  V30 6553 N 629.671 -0.424282 1.51781 0
M  V30 6554 C 631.087 -0.761768 1.40247 0
M  V30 6555 C 631.287 -1.95324 0.495041 0
M  V30 6556 O 630.343 -2.5246 -0.0448949 0
M  V30 6557 C 631.656 -1.0299 2.82513 0
M  V30 6558 C 633.204 -1.13354 2.91753 0
M  V30 6559 C 633.679 -1.43453 4.34954 0
M  V30 6560 N 635.17 -1.5035 4.3812 0
M  V30 6561 C 635.905 -1.75236 5.45967 0
M  V30 6562 N 635.401 -1.97827 6.63955 0
M  V30 6563 N 637.194 -1.77126 5.33463 0
M  V30 6564 H 629.345 0.360228 2.09323 0
M  V30 6565 H 631.608 0.0988128 0.942836 0
M  V30 6566 H 631.314 -0.226961 3.50967 0
M  V30 6567 H 631.188 -1.95411 3.22637 0
M  V30 6568 H 633.575 -1.92709 2.23489 0
M  V30 6569 H 633.656 -0.188041 2.55108 0
M  V30 6570 H 633.3 -0.646209 5.03772 0
M  V30 6571 H 633.23 -2.3923 4.69123 0
M  V30 6572 H 635.721 -1.34742 3.53062 0
M  V30 6573 H 636.034 -2.16223 7.41935 0
M  V30 6574 H 634.379 -1.95123 6.67047 0
M  V30 6575 H 637.57 -1.59005 4.40267 0
M  V30 6576 H 637.743 -1.96182 6.17589 0
M  V30 6577 N 631.149 -1.42148 -0.680565 0
M  V30 6578 C 632.079 -1.4796 -1.80638 0
M  V30 6579 C 633.06 -0.336728 -1.66734 0
M  V30 6580 O 634.245 -0.550247 -1.86242 0
M  V30 6581 C 631.375 -1.37569 -3.18892 0
M  V30 6582 C 630.329 -2.49823 -3.47524 0
M  V30 6583 C 629.655 -2.24491 -4.85291 0
M  V30 6584 C 630.955 -3.92144 -3.44994 0
M  V30 6585 H 632.649 -2.42184 -1.76032 0
M  V30 6586 H 630.195 -1.16566 -0.845481 0
M  V30 6587 H 632.148 -1.40243 -3.97379 0
M  V30 6588 H 630.872 -0.398357 -3.24162 0
M  V30 6589 H 629.531 -2.46455 -2.71395 0
M  V30 6590 H 629.179 -1.25066 -4.87204 0
M  V30 6591 H 628.879 -2.99722 -5.05411 0
M  V30 6592 H 630.403 -2.28906 -5.66069 0
M  V30 6593 H 631.817 -3.97145 -4.13459 0
M  V30 6594 H 630.214 -4.67179 -3.76648 0
M  V30 6595 H 631.284 -4.19225 -2.43676 0
M  V30 6596 N 632.627 0.916307 -1.28225 0
M  V30 6597 C 633.873 1.66794 -1.1641 0
M  V30 6598 C 634.228 1.90278 0.284986 0
M  V30 6599 O 633.521 1.49023 1.20427 0
M  V30 6600 C 633.715 3.03125 -1.8934 0
M  V30 6601 C 633.544 2.92947 -3.41192 0
M  V30 6602 C 632.314 2.9461 -4.10528 0
M  V30 6603 C 634.512 2.7121 -4.36978 0
M  V30 6604 N 632.494 2.74993 -5.48864 0
M  V30 6605 C 633.865 2.60411 -5.6266 0
M  V30 6606 C 635.92 2.56187 -4.26934 0
M  V30 6607 C 634.623 2.3612 -6.79441 0
M  V30 6608 C 636.649 2.33275 -5.43449 0
M  V30 6609 C 636.011 2.23228 -6.68093 0
M  V30 6610 H 632.11 0.616654 -0.480896 0
M  V30 6611 H 634.694 1.08237 -1.61842 0
M  V30 6612 H 632.865 3.59774 -1.46346 0
M  V30 6613 H 634.597 3.67294 -1.69932 0
M  V30 6614 H 631.352 3.0527 -3.62087 0
M  V30 6615 H 631.776 2.68284 -6.21573 0
M  V30 6616 H 636.418 2.62707 -3.31278 0
M  V30 6617 H 634.136 2.28339 -7.75169 0
M  V30 6618 H 637.722 2.22519 -5.37565 0
M  V30 6619 H 636.602 2.05741 -7.5673 0
M  V30 6620 N 634.105 1.10431 1.1244 0
M  V30 6621 C 635.351 0.847972 1.84221 0
M  V30 6622 C 635.684 -0.624903 1.83871 0
M  V30 6623 O 634.959 -1.46074 1.28423 0
M  V30 6624 C 635.242 1.39695 3.319 0
M  V30 6625 C 635.095 2.93668 3.40704 0
M  V30 6626 C 636.414 1.03924 4.27654 0
M  V30 6627 H 633.533 0.309502 0.668863 0
M  V30 6628 H 636.175 1.36745 1.31912 0
M  V30 6629 H 634.325 0.955095 3.76577 0
M  V30 6630 H 635.997 3.46379 3.04662 0
M  V30 6631 H 634.24 3.30272 2.81252 0
M  V30 6632 H 634.911 3.27162 4.446 0
M  V30 6633 H 637.387 1.42049 3.91102 0
M  V30 6634 H 636.263 1.45027 5.29394 0
M  V30 6635 H 636.524 -0.051336 4.4207 0
M  V30 6636 N 635.583 -1.29855 0.893053 0
M  V30 6637 C 636.829 -1.96116 0.516349 0
M  V30 6638 C 637.162 -1.70281 -0.933695 0
M  V30 6639 O 636.437 -1.01205 -1.66096 0
M  V30 6640 C 636.72 -3.51068 0.801455 0
M  V30 6641 C 636.573 -3.86387 2.30272 0
M  V30 6642 C 637.892 -4.39186 0.283423 0
M  V30 6643 H 635.011 -0.712335 0.189072 0
M  V30 6644 H 637.653 -1.53587 1.11852 0
M  V30 6645 H 635.803 -3.87424 0.288949 0
M  V30 6646 H 637.475 -3.60012 2.88425 0
M  V30 6647 H 635.718 -3.34167 2.76613 0
M  V30 6648 H 636.389 -4.94512 2.45279 0
M  V30 6649 H 638.865 -4.09785 0.722187 0
M  V30 6650 H 637.741 -5.46505 0.512169 0
M  V30 6651 H 638.002 -4.34511 -0.815643 0
M  V30 6652 N 637.061 -0.65484 -1.43351 0
M  V30 6653 C 638.308 -0.168892 -2.01794 0
M  V30 6654 C 638.636 1.2177 -1.51665 0
M  V30 6655 O 637.891 1.82717 -0.70092 0
M  V30 6656 C 638.19 -0.130424 -3.57162 0
M  V30 6657 C 637.856 -1.45898 -4.26643 0
M  V30 6658 C 636.518 -1.82279 -4.4534 0
M  V30 6659 C 638.87 -2.33485 -4.65976 0
M  V30 6660 C 636.198 -3.0591 -5.00635 0
M  V30 6661 C 638.55 -3.5641 -5.22642 0
M  V30 6662 C 637.214 -3.92985 -5.39555 0
M  V30 6663 H 636.484 -0.061802 -0.738418 0
M  V30 6664 H 639.131 -0.845869 -1.71806 0
M  V30 6665 H 637.436 0.630008 -3.86702 0
M  V30 6666 H 639.133 0.262465 -4.0014 0
M  V30 6667 H 635.723 -1.16591 -4.12437 0
M  V30 6668 H 639.907 -2.06668 -4.51223 0
M  V30 6669 H 635.163 -3.34295 -5.11915 0
M  V30 6670 H 639.337 -4.24495 -5.52066 0
M  V30 6671 H 636.964 -4.88862 -5.82167 0
M  V30 6672 N 638.539 1.52521 -0.396863 0
M  V30 6673 C 639.788 2.00857 0.184184 0
M  V30 6674 C 640.101 1.28733 1.47265 0
M  V30 6675 O 641.307 1.67821 2.13421 0
M  V30 6676 C 639.763 3.57901 0.378787 0
M  V30 6677 C 639.371 4.38931 -0.896873 0
M  V30 6678 C 641.115 4.14504 0.915789 0
M  V30 6679 C 639.022 5.87591 -0.670133 0
M  V30 6680 H 637.952 0.750496 0.0726055 0
M  V30 6681 H 640.603 1.75965 -0.520425 0
M  V30 6682 H 638.985 3.79072 1.14543 0
M  V30 6683 H 640.159 4.29524 -1.66872 0
M  V30 6684 H 638.474 3.93586 -1.35938 0
M  V30 6685 H 641.071 5.23236 1.10126 0
M  V30 6686 H 641.414 3.71076 1.88701 0
M  V30 6687 H 641.947 3.97253 0.208523 0
M  V30 6688 H 638.686 6.35355 -1.61257 0
M  V30 6689 H 638.206 5.99767 0.0626368 0
M  V30 6690 H 639.885 6.46268 -0.307577 0
M  V30 6691 N 640.017 0.126909 1.57088 0
M  V30 6692 C 641.263 -0.529952 1.95753 0
M  V30 6693 C 641.596 -1.65823 1.01077 0
M  V30 6694 O 640.871 -1.94437 0.0494162 0
M  V30 6695 C 641.154 -1.05517 3.44294 0
M  V30 6696 C 641.007 0.0702253 4.49745 0
M  V30 6697 C 642.326 -1.9435 3.94862 0
M  V30 6698 H 639.445 -0.191168 0.711775 0
M  V30 6699 H 642.087 0.204071 1.88901 0
M  V30 6700 H 640.237 -1.68069 3.50264 0
M  V30 6701 H 641.909 0.705834 4.55868 0
M  V30 6702 H 640.152 0.732259 4.27575 0
M  V30 6703 H 640.823 -0.338642 5.5096 0
M  V30 6704 H 643.299 -1.41658 3.91244 0
M  V30 6705 H 642.175 -2.28015 4.993 0
M  V30 6706 H 642.436 -2.87299 3.36024 0
M  V30 6707 N 641.495 -1.56914 -0.146875 0
M  V30 6708 C 642.741 -1.83628 -0.860741 0
M  V30 6709 C 643.074 -0.708528 -1.80813 0
M  V30 6710 O 642.349 0.287838 -1.92358 0
M  V30 6711 C 642.632 -3.20836 -1.63511 0
M  V30 6712 C 642.485 -4.44174 -0.709199 0
M  V30 6713 C 643.804 -3.55268 -2.59756 0
M  V30 6714 H 640.923 -0.667949 -0.311468 0
M  V30 6715 H 643.565 -1.89582 -0.125936 0
M  V30 6716 H 641.715 -3.15891 -2.26153 0
M  V30 6717 H 643.387 -4.61205 -0.0937781 0
M  V30 6718 H 641.63 -4.33796 -0.0187856 0
M  V30 6719 H 642.301 -5.36785 -1.28707 0
M  V30 6720 H 644.777 -3.60824 -2.07232 0
M  V30 6721 H 643.653 -4.52303 -3.10987 0
M  V30 6722 H 643.914 -2.81231 -3.41118 0
M  V30 6723 N 642.974 0.416227 -1.52004 0
M  V30 6724 C 644.22 1.16555 -1.6596 0
M  V30 6725 C 644.553 1.90347 -0.384906 0
M  V30 6726 O 643.828 1.84474 0.616405 0
M  V30 6727 C 644.111 2.1657 -2.87696 0
M  V30 6728 C 643.964 1.46722 -4.25197 0
M  V30 6729 C 645.283 3.17321 -3.04951 0
M  V30 6730 H 642.402 0.422369 -0.603965 0
M  V30 6731 H 645.044 0.452141 -1.84542 0
M  V30 6732 H 643.194 2.77411 -2.71985 0
M  V30 6733 H 644.866 0.89056 -4.52622 0
M  V30 6734 H 643.109 0.769263 -4.26925 0
M  V30 6735 H 643.78 2.19665 -5.0641 0
M  V30 6736 H 646.256 2.66552 -3.19514 0
M  V30 6737 H 645.132 3.84573 -3.91656 0
M  V30 6738 H 645.393 3.84643 -2.17951 0
M  V30 6739 N 644.452 1.42507 0.673017 0
M  V30 6740 C 645.677 1.4668 1.46627 0
M  V30 6741 C 646.102 0.080066 1.8793 0
M  V30 6742 O 645.46 -0.921879 1.56112 0
M  V30 6743 C 645.508 2.40091 2.69051 0
M  V30 6744 O 644.612 1.8735 3.67387 0
M  V30 6745 H 643.953 0.496908 0.44043 0
M  V30 6746 H 646.483 1.87215 0.825334 0
M  V30 6747 H 646.493 2.56731 3.17101 0
M  V30 6748 H 645.168 3.4084 2.3833 0
M  V30 6749 H 643.745 1.80274 3.26429 0
M  V30 6750 N 645.93 -0.909495 1.28709 0
M  V30 6751 C 647.176 -1.66151 1.16283 0
M  V30 6752 C 647.509 -1.92067 -0.287069 0
M  V30 6753 O 646.784 -1.52409 -1.20837 0
M  V30 6754 C 647.067 -3.01676 1.9663 0
M  V30 6755 C 646.92 -2.82888 3.49707 0
M  V30 6756 C 648.239 -4.02274 1.78504 0
M  V30 6757 H 645.358 -0.602966 0.423793 0
M  V30 6758 H 648 -1.05418 1.58073 0
M  V30 6759 H 646.15 -3.53515 1.61119 0
M  V30 6760 H 647.822 -2.38026 3.95147 0
M  V30 6761 H 646.065 -2.17862 3.75125 0
M  V30 6762 H 646.736 -3.79147 4.01187 0
M  V30 6763 H 649.212 -3.59511 2.09503 0
M  V30 6764 H 648.088 -4.95056 2.37088 0
M  V30 6765 H 648.349 -4.35903 0.737647 0
M  V30 6766 N 647.408 -1.11026 -1.11852 0
M  V30 6767 C 648.371 -0.768006 -2.1595 0
M  V30 6768 C 649.371 0.210538 -1.59416 0
M  V30 6769 O 650.561 -0.0133978 -1.74195 0
M  V30 6770 C 647.693 -0.138678 -3.40618 0
M  V30 6771 H 648.886 -1.69012 -2.4774 0
M  V30 6772 H 646.439 -0.911578 -1.26964 0
M  V30 6773 H 647.174 0.793872 -3.14433 0
M  V30 6774 H 646.959 -0.843012 -3.8293 0
M  V30 6775 H 648.449 0.0848039 -4.17514 0
M  V30 6776 N 648.886 1.2938 -0.899927 0
M  V30 6777 C 650.132 1.96206 -0.536153 0
M  V30 6778 C 650.487 1.69647 0.90761 0
M  V30 6779 O 649.78 0.999089 1.63489 0
M  V30 6780 C 649.974 3.49114 -0.765113 0
M  V30 6781 C 649.803 3.90538 -2.22958 0
M  V30 6782 C 648.573 4.15395 -2.87706 0
M  V30 6783 C 650.771 4.0224 -3.20479 0
M  V30 6784 N 648.753 4.43389 -4.24593 0
M  V30 6785 C 650.124 4.34288 -4.42486 0
M  V30 6786 C 652.179 3.84716 -3.16066 0
M  V30 6787 C 650.882 4.50638 -5.6064 0
M  V30 6788 C 652.908 4.02276 -4.33507 0
M  V30 6789 C 652.27 4.34684 -5.54283 0
M  V30 6790 H 648.369 0.742364 -0.245804 0
M  V30 6791 H 650.953 1.56314 -1.16078 0
M  V30 6792 H 649.124 3.88028 -0.169861 0
M  V30 6793 H 650.856 4.03035 -0.366751 0
M  V30 6794 H 647.611 4.09164 -2.385 0
M  V30 6795 H 648.035 4.61494 -4.95331 0
M  V30 6796 H 652.677 3.58724 -2.23778 0
M  V30 6797 H 650.395 4.75467 -6.5342 0
M  V30 6798 H 653.981 3.90169 -4.31578 0
M  V30 6799 H 652.861 4.47988 -6.43643 0
M  V30 6800 N 650.364 0.662433 1.43002 0
M  V30 6801 C 651.294 -0.00979809 2.33498 0
M  V30 6802 C 652.275 -0.802329 1.49989 0
M  V30 6803 O 653.46 -0.761964 1.78627 0
M  V30 6804 C 650.59 -0.970446 3.33466 0
M  V30 6805 C 649.544 -0.287383 4.27034 0
M  V30 6806 C 648.87 -1.36012 5.17112 0
M  V30 6807 C 650.17 0.82595 5.15728 0
M  V30 6808 H 651.864 0.745959 2.89958 0
M  V30 6809 H 649.41 0.360172 1.39423 0
M  V30 6810 H 651.363 -1.44971 3.95679 0
M  V30 6811 H 650.087 -1.75748 2.75282 0
M  V30 6812 H 648.746 0.17152 3.66199 0
M  V30 6813 H 648.394 -2.13882 4.55262 0
M  V30 6814 H 648.094 -0.908276 5.80538 0
M  V30 6815 H 649.618 -1.84056 5.82199 0
M  V30 6816 H 651.032 0.42845 5.71697 0
M  V30 6817 H 649.429 1.20282 5.87922 0
M  V30 6818 H 650.499 1.68003 4.54866 0
M  V30 6819 N 651.842 -1.52309 0.404946 0
M  V30 6820 C 653.253 -1.86585 -0.0655926 0
M  V30 6821 C 653.604 -1.3239 -1.44801 0
M  V30 6822 O 652.729 -0.6615 -2.06042 0
M  V30 6823 C 653.324 -3.38566 -0.125801 0
M  V30 6824 C 651.883 -3.72497 -0.540666 0
M  V30 6825 C 651.03 -2.75806 0.287487 0
M  V30 6826 H 653.981 -1.45995 0.622185 0
M  V30 6827 H 654.002 -3.68658 -0.941888 0
M  V30 6828 H 653.514 -3.77981 0.880473 0
M  V30 6829 H 651.615 -3.38659 -1.55373 0
M  V30 6830 H 651.728 -4.78234 -0.287956 0
M  V30 6831 H 650.092 -2.53474 -0.249561 0
M  V30 6832 H 650.875 -3.18059 1.29203 0
M  V30 6833 N 653.32 -0.135238 -1.57019 0
M  V30 6834 C 654.566 0.519563 -1.96032 0
M  V30 6835 C 654.899 1.65284 -1.01955 0
M  V30 6836 O 654.174 1.94408 -0.059727 0
M  V30 6837 C 654.457 1.0369 -3.44848 0
M  V30 6838 C 654.31 -0.0940754 -4.49702 0
M  V30 6839 C 655.629 1.92254 -3.95887 0
M  V30 6840 H 652.748 0.18739 -0.712779 0
M  V30 6841 H 655.39 -0.214086 -1.8879 0
M  V30 6842 H 653.54 1.66209 -3.5115 0
M  V30 6843 H 655.212 -0.73 -4.55487 0
M  V30 6844 H 653.455 -0.754924 -4.27181 0
M  V30 6845 H 654.126 0.309419 -5.51132 0
M  V30 6846 H 656.602 1.39581 -3.9199 0
M  V30 6847 H 655.478 2.25364 -5.00502 0
M  V30 6848 H 655.739 2.85513 -3.37543 0
M  V30 6849 N 654.798 1.5699 0.138552 0
M  V30 6850 C 656.044 1.84081 0.85099 0
M  V30 6851 C 656.377 0.718107 1.80435 0
M  V30 6852 O 655.652 -0.277633 1.92508 0
M  V30 6853 C 655.935 3.21699 1.61808 0
M  V30 6854 C 655.788 4.44544 0.685633 0
M  V30 6855 C 657.107 3.5664 2.57868 0
M  V30 6856 H 654.226 0.669592 0.307922 0
M  V30 6857 H 656.868 1.89646 0.11588 0
M  V30 6858 H 655.018 3.17086 2.24474 0
M  V30 6859 H 656.69 4.61248 0.0693179 0
M  V30 6860 H 654.933 4.338 -0.00421993 0
M  V30 6861 H 655.604 5.3746 1.25858 0
M  V30 6862 H 658.08 3.61918 2.05316 0
M  V30 6863 H 656.956 4.53946 3.08584 0
M  V30 6864 H 657.217 2.83036 3.39622 0
M  V30 6865 N 656.276 -0.40816 1.52223 0
M  V30 6866 C 657.208 -1.51642 1.71864 0
M  V30 6867 C 658.221 -1.51378 0.599056 0
M  V30 6868 O 659.41 -1.55626 0.874239 0
M  V30 6869 C 656.51 -2.90534 1.74481 0
M  V30 6870 C 655.683 -3.14979 3.03491 0
M  V30 6871 C 654.742 -4.33749 2.97907 0
M  V30 6872 O 653.768 -4.30982 3.71811 0
M  V30 6873 N 654.97 -5.38912 2.15764 0
M  V30 6874 H 657.735 -1.35188 2.67478 0
M  V30 6875 H 655.296 -0.597468 1.50472 0
M  V30 6876 H 657.288 -3.68056 1.68275 0
M  V30 6877 H 655.858 -3.00441 0.863363 0
M  V30 6878 H 655.078 -2.25492 3.23337 0
M  V30 6879 H 656.366 -3.28156 3.88833 0
M  V30 6880 H 655.764 -5.44008 1.55152 0
M  V30 6881 H 654.321 -6.15174 2.15415 0
M  V30 6882 N 657.755 -1.42862 -0.66545 0
M  V30 6883 C 658.718 -1.46756 -1.76055 0
M  V30 6884 C 659.718 -0.353866 -1.56858 0
M  V30 6885 O 660.908 -0.615099 -1.62979 0
M  V30 6886 C 658.04 -1.30829 -3.14796 0
M  V30 6887 H 659.233 -2.44271 -1.73987 0
M  V30 6888 H 656.786 -1.29447 -0.875965 0
M  V30 6889 H 657.521 -0.342733 -3.22484 0
M  V30 6890 H 657.306 -2.11551 -3.30134 0
M  V30 6891 H 658.796 -1.36458 -3.94676 0
M  V30 6892 N 659.233 0.902656 -1.29189 0
M  V30 6893 C 660.196 1.98797 -1.14071 0
M  V30 6894 C 661.196 1.60615 -0.0770549 0
M  V30 6895 O 662.386 1.71165 -0.323753 0
M  V30 6896 C 659.518 3.32688 -0.743739 0
M  V30 6897 H 660.711 2.13637 -2.10473 0
M  V30 6898 H 658.264 1.08678 -1.12334 0
M  V30 6899 H 658.999 3.23549 0.220554 0
M  V30 6900 H 658.784 3.61765 -1.51223 0
M  V30 6901 H 660.274 4.12337 -0.660935 0
M  V30 6902 N 660.711 1.11618 1.11262 0
M  V30 6903 C 661.643 0.734015 2.17129 0
M  V30 6904 C 662.656 -0.235243 1.61091 0
M  V30 6905 O 663.845 -0.0178597 1.78491 0
M  V30 6906 C 660.945 0.0643682 3.38839 0
M  V30 6907 C 660.118 1.06092 4.24339 0
M  V30 6908 C 659.177 0.420482 5.24517 0
M  V30 6909 O 658.203 1.07495 5.58957 0
M  V30 6910 N 659.405 -0.815828 5.74739 0
M  V30 6911 H 662.17 1.64492 2.50524 0
M  V30 6912 H 659.731 1.00664 1.26801 0
M  V30 6913 H 661.723 -0.375851 4.02951 0
M  V30 6914 H 660.293 -0.749147 3.03491 0
M  V30 6915 H 659.513 1.67903 3.56654 0
M  V30 6916 H 660.801 1.73507 4.78302 0
M  V30 6917 H 660.199 -1.36668 5.48943 0
M  V30 6918 H 658.756 -1.199 6.40677 0
M  V30 6919 N 662.189 -1.289 0.906776 0
M  V30 6920 C 663.437 -1.94883 0.535266 0
M  V30 6921 C 663.758 -1.71784 -0.922791 0
M  V30 6922 O 663.028 -1.05359 -1.65156 0
M  V30 6923 H 661.608 -0.721109 0.194962 0
M  V30 6924 H 664.27 -1.57018 1.15461 0
M  V30 6925 H 663.366 -3.03591 0.723821 0
M  V30 6926 N 663.667 -0.670007 -1.42649 0
M  V30 6927 C 664.915 -0.18991 -2.01206 0
M  V30 6928 C 665.236 1.20617 -1.53221 0
M  V30 6929 O 664.506 1.80898 -0.751856 0
M  V30 6930 H 663.086 -0.0672189 -0.743969 0
M  V30 6931 H 665.748 -0.865442 -1.74631 0
M  V30 6932 H 664.844 -0.187481 -3.11536 0
M  V30 6933 N 665.145 1.52092 -0.413018 0
M  V30 6934 C 666.077 2.24819 0.445994 0
M  V30 6935 C 667.09 1.27925 1.00692 0
M  V30 6936 O 668.279 1.53845 0.905204 0
M  V30 6937 C 665.379 2.96951 1.6332 0
M  V30 6938 C 664.552 4.20746 1.19548 0
M  V30 6939 C 663.611 4.75668 2.25003 0
M  V30 6940 O 662.637 5.38148 1.85434 0
M  V30 6941 N 663.839 4.57579 3.57214 0
M  V30 6942 H 666.604 2.99176 -0.177209 0
M  V30 6943 H 664.165 1.60102 -0.240601 0
M  V30 6944 H 666.157 3.30586 2.33441 0
M  V30 6945 H 664.727 2.25756 2.16225 0
M  V30 6946 H 663.947 3.92881 0.32224 0
M  V30 6947 H 665.235 5.01132 0.880033 0
M  V30 6948 H 664.633 4.07758 3.92109 0
M  V30 6949 H 663.19 4.95642 4.23299 0
M  V30 6950 N 666.623 0.143563 1.56945 0
M  V30 6951 C 667.553 -0.7936 2.196 0
M  V30 6952 C 668.534 -1.25955 1.14321 0
M  V30 6953 O 669.719 -1.31773 1.42651 0
M  V30 6954 C 666.849 -2.03424 2.81489 0
M  V30 6955 C 665.803 -1.70519 3.92565 0
M  V30 6956 C 665.129 -3.01817 4.41373 0
M  V30 6957 C 666.429 -0.95449 5.13504 0
M  V30 6958 H 668.123 -0.271423 2.98167 0
M  V30 6959 H 665.669 -0.12911 1.4342 0
M  V30 6960 H 667.622 -2.69463 3.23987 0
M  V30 6961 H 666.346 -2.58008 2.00248 0
M  V30 6962 H 665.005 -1.06859 3.5068 0
M  V30 6963 H 664.653 -3.54386 3.56959 0
M  V30 6964 H 664.353 -2.80565 5.16292 0
M  V30 6965 H 665.877 -3.68934 4.86539 0
M  V30 6966 H 667.291 -1.5169 5.52868 0
M  V30 6967 H 665.688 -0.842035 5.94163 0
M  V30 6968 H 666.758 0.0544033 4.84869 0
M  V30 6969 N 668.101 -1.57061 -0.130224 0
M  V30 6970 C 669.348 -1.84257 -0.839972 0
M  V30 6971 C 669.676 -0.726986 -1.80403 0
M  V30 6972 O 668.931 0.282632 -1.93648 0
M  V30 6973 C 669.23 -3.17878 -1.63365 0
M  V30 6974 C 668.896 -4.43475 -0.814891 0
M  V30 6975 C 667.558 -4.77581 -0.589066 0
M  V30 6976 C 669.91 -5.20631 -0.243437 0
M  V30 6977 C 667.238 -5.86292 0.218648 0
M  V30 6978 C 669.59 -6.30192 0.551408 0
M  V30 6979 C 668.254 -6.62837 0.787653 0
M  V30 6980 H 667.524 -0.674245 -0.307367 0
M  V30 6981 H 670.171 -1.91224 -0.102832 0
M  V30 6982 H 668.476 -3.06437 -2.44138 0
M  V30 6983 H 670.173 -3.3614 -2.18658 0
M  V30 6984 H 666.763 -4.16747 -1.00098 0
M  V30 6985 H 670.947 -4.94644 -0.405145 0
M  V30 6986 H 666.203 -6.10017 0.411016 0
M  V30 6987 H 670.377 -6.89165 1.00126 0
M  V30 6988 H 668.004 -7.46908 1.41537 0
M  V30 6989 N 669.579 0.400081 -1.52437 0
M  V30 6990 C 670.856 1.15973 -1.57511 0
M  V30 6991 C 671.236 2.0798 -0.361572 0
M  V30 6992 O 670.584 2.19032 0.650929 0
M  V30 6993 C 670.794 1.92912 -2.90837 0
M  V30 6994 C 672.142 2.48662 -3.44169 0
M  V30 6995 O 673.166 2.03081 -2.92637 0
M  V30 6996 O 672.025 3.31894 -4.34176 0
M  V30 6997 H 669.119 0.530023 -0.634827 0
M  V30 6998 H 671.665 0.40613 -1.64769 0
M  V30 6999 H 670.437 1.25564 -3.70607 0
M  V30 7000 H 670.06 2.75257 -2.86913 0
M  V30 7001 N 671.057 1.43213 0.657864 0
M  V30 7002 C 672.287 1.478 1.44356 0
M  V30 7003 C 672.695 0.0930206 1.88971 0
M  V30 7004 O 672.038 -0.906089 1.59799 0
M  V30 7005 C 672.1 2.35745 2.71412 0
M  V30 7006 C 671.764 3.83359 2.48767 0
M  V30 7007 C 672.761 4.74585 2.12285 0
M  V30 7008 C 670.446 4.27799 2.63235 0
M  V30 7009 C 672.44 6.08247 1.90562 0
M  V30 7010 C 670.127 5.61516 2.41128 0
M  V30 7011 C 671.125 6.51557 2.04847 0
M  V30 7012 O 670.813 7.82802 1.82967 0
M  V30 7013 H 670.545 0.504363 0.450104 0
M  V30 7014 H 673.099 1.88572 0.814241 0
M  V30 7015 H 671.329 1.89852 3.36887 0
M  V30 7016 H 673.018 2.31589 3.33348 0
M  V30 7017 H 673.784 4.41531 2.00687 0
M  V30 7018 H 669.663 3.57993 2.90451 0
M  V30 7019 H 673.207 6.78489 1.62168 0
M  V30 7020 H 669.104 5.94139 2.52327 0
M  V30 7021 H 669.872 7.94332 1.97429 0
M  V30 7022 N 672.536 -0.895792 1.29666 0
M  V30 7023 C 673.785 -1.64131 1.17234 0
M  V30 7024 C 674.098 -1.93665 -0.274416 0
M  V30 7025 O 675.304 -2.66472 -0.520105 0
M  V30 7026 C 673.76 -2.95764 2.05065 0
M  V30 7027 C 673.368 -2.7381 3.54587 0
M  V30 7028 C 675.112 -3.737 2.01367 0
M  V30 7029 C 673.019 -4.01194 4.34508 0
M  V30 7030 H 671.949 -0.615742 0.435175 0
M  V30 7031 H 674.6 -0.992626 1.54335 0
M  V30 7032 H 672.982 -3.61867 1.60837 0
M  V30 7033 H 674.156 -2.16277 4.06892 0
M  V30 7034 H 672.471 -2.09265 3.59996 0
M  V30 7035 H 675.068 -4.68152 2.58337 0
M  V30 7036 H 675.411 -4.04245 0.994575 0
M  V30 7037 H 675.944 -3.14444 2.43659 0
M  V30 7038 H 672.683 -3.75813 5.37071 0
M  V30 7039 H 672.203 -4.58272 3.86971 0
M  V30 7040 H 673.882 -4.69307 4.45376 0
M  V30 7041 N 674.014 -1.12206 -1.10668 0
M  V30 7042 C 674.946 -0.74552 -2.16736 0
M  V30 7043 C 675.959 0.226696 -1.61214 0
M  V30 7044 O 677.148 0.0083936 -1.78498 0
M  V30 7045 C 674.248 -0.0823368 -3.388 0
M  V30 7046 C 673.421 -1.08341 -4.2377 0
M  V30 7047 C 672.48 -0.448292 -5.24287 0
M  V30 7048 O 671.506 -1.10458 -5.58379 0
M  V30 7049 N 672.708 0.785336 -5.75163 0
M  V30 7050 H 675.473 -1.65818 -2.49649 0
M  V30 7051 H 673.034 -1.01335 -1.26265 0
M  V30 7052 H 675.026 0.354476 -4.03145 0
M  V30 7053 H 673.596 0.733041 -3.03884 0
M  V30 7054 H 672.816 -1.69792 -3.55759 0
M  V30 7055 H 674.104 -1.76042 -4.77375 0
M  V30 7056 H 673.502 1.33755 -5.4966 0
M  V30 7057 H 672.059 1.16501 -6.41304 0
M  V30 7058 N 675.492 1.28418 -0.913599 0
M  V30 7059 C 676.455 2.25564 -0.406624 0
M  V30 7060 C 677.455 1.5387 0.466965 0
M  V30 7061 O 678.645 1.72094 0.270042 0
M  V30 7062 C 675.777 3.38339 0.417053 0
M  V30 7063 H 676.97 2.71926 -1.26477 0
M  V30 7064 H 674.523 1.40098 -0.692986 0
M  V30 7065 H 675.258 2.97339 1.29461 0
M  V30 7066 H 675.043 3.91542 -0.209102 0
M  V30 7067 H 676.533 4.10578 0.762602 0
M  V30 7068 N 676.97 0.677563 1.42291 0
M  V30 7069 C 678.216 0.201272 2.01799 0
M  V30 7070 C 678.549 -1.19004 1.53465 0
M  V30 7071 O 677.824 -1.79953 0.738039 0
M  V30 7072 C 678.107 0.238968 3.59306 0
M  V30 7073 C 677.96 1.66594 4.17812 0
M  V30 7074 C 679.279 -0.411287 4.38174 0
M  V30 7075 H 676.398 0.0746114 0.733214 0
M  V30 7076 H 679.04 0.862872 1.69276 0
M  V30 7077 H 677.19 -0.324368 3.87144 0
M  V30 7078 H 678.862 2.28173 4.00917 0
M  V30 7079 H 677.105 2.20576 3.73536 0
M  V30 7080 H 677.776 1.64398 5.26951 0
M  V30 7081 H 680.252 0.0682804 4.16044 0
M  V30 7082 H 679.128 -0.354286 5.47755 0
M  V30 7083 H 679.389 -1.4893 4.1626 0
M  V30 7084 N 678.448 -1.51871 0.421078 0
M  V30 7085 C 679.673 -2.0684 -0.152371 0
M  V30 7086 C 680.098 -1.28802 -1.37083 0
M  V30 7087 O 679.456 -0.321482 -1.78427 0
M  V30 7088 C 679.504 -3.57532 -0.469368 0
M  V30 7089 O 678.608 -3.81818 -1.55848 0
M  V30 7090 H 677.949 -0.663939 -0.00898586 0
M  V30 7091 H 680.479 -1.95674 0.597724 0
M  V30 7092 H 680.489 -4.01515 -0.724553 0
M  V30 7093 H 679.164 -4.13761 0.421276 0
M  V30 7094 H 677.741 -3.49709 -1.29453 0
M  V30 7095 N 679.926 -0.151884 -1.56866 0
M  V30 7096 C 681.151 0.508044 -2.01081 0
M  V30 7097 C 681.576 1.57306 -1.03134 0
M  V30 7098 O 680.934 1.81298 -0.0078309 0
M  V30 7099 C 680.982 1.08106 -3.44014 0
M  V30 7100 O 680.086 2.19577 -3.49084 0
M  V30 7101 H 679.427 0.123757 -0.652365 0
M  V30 7102 H 681.957 -0.250055 -2.03066 0
M  V30 7103 H 681.967 1.40851 -3.82916 0
M  V30 7104 H 680.642 0.301168 -4.14808 0
M  V30 7105 H 679.219 1.88023 -3.22027 0
M  V30 7106 N 681.404 1.57128 0.121893 0
M  V30 7107 C 682.634 1.88609 0.843227 0
M  V30 7108 C 683.042 0.740917 1.74089 0
M  V30 7109 O 682.385 -0.297426 1.81276 0
M  V30 7110 C 682.447 3.15073 1.73117 0
M  V30 7111 C 682.111 4.45742 1.0081 0
M  V30 7112 C 683.108 5.18719 0.350255 0
M  V30 7113 C 680.793 4.92444 0.99014 0
M  V30 7114 C 682.787 6.36617 -0.315889 0
M  V30 7115 C 680.474 6.10261 0.320196 0
M  V30 7116 C 681.472 6.82194 -0.331666 0
M  V30 7117 O 681.16 7.97769 -0.990927 0
M  V30 7118 H 680.892 0.628919 0.247865 0
M  V30 7119 H 683.446 2.05096 0.111725 0
M  V30 7120 H 681.676 2.9466 2.50424 0
M  V30 7121 H 683.365 3.32597 2.32667 0
M  V30 7122 H 684.131 4.83693 0.35577 0
M  V30 7123 H 680.01 4.36361 1.48695 0
M  V30 7124 H 683.554 6.92701 -0.825272 0
M  V30 7125 H 679.451 6.44743 0.312433 0
M  V30 7126 H 680.219 8.13591 -0.895113 0
M  V30 7127 N 682.882 -0.391992 1.52647 0
M  V30 7128 C 683.812 -1.48517 1.8018 0
M  V30 7129 C 684.793 -1.57039 0.653667 0
M  V30 7130 O 685.978 -1.72036 0.900962 0
M  V30 7131 C 683.108 -2.86161 1.96797 0
M  V30 7132 C 682.062 -2.92481 3.12472 0
M  V30 7133 C 681.388 -4.32546 3.14338 0
M  V30 7134 C 682.688 -2.624 4.51601 0
M  V30 7135 H 684.382 -1.25726 2.71723 0
M  V30 7136 H 681.928 -0.603387 1.30749 0
M  V30 7137 H 683.881 -3.62639 2.14641 0
M  V30 7138 H 682.605 -3.10283 1.01941 0
M  V30 7139 H 681.264 -2.18451 2.94406 0
M  V30 7140 H 680.912 -4.53703 2.1717 0
M  V30 7141 H 680.612 -4.37695 3.92042 0
M  V30 7142 H 682.136 -5.10934 3.34333 0
M  V30 7143 H 683.55 -3.28596 4.69785 0
M  V30 7144 H 681.947 -2.78903 5.3135 0
M  V30 7145 H 683.017 -1.57754 4.58521 0
M  V30 7146 N 684.36 -1.4356 -0.65026 0
M  V30 7147 C 685.323 -1.48615 -1.74489 0
M  V30 7148 C 686.323 -0.370483 -1.56474 0
M  V30 7149 O 687.513 -0.632351 -1.62317 0
M  V30 7150 C 684.645 -1.34161 -3.13391 0
M  V30 7151 H 685.838 -2.46103 -1.71387 0
M  V30 7152 H 683.391 -1.30369 -0.862186 0
M  V30 7153 H 684.126 -0.376918 -3.22102 0
M  V30 7154 H 683.911 -2.1504 -3.27872 0
M  V30 7155 H 685.401 -1.40637 -3.93206 0
M  V30 7156 N 685.838 0.888903 -1.30139 0
M  V30 7157 C 687.249 1.45578 -1.16893 0
M  V30 7158 C 687.6 1.94825 0.231866 0
M  V30 7159 O 686.725 1.84661 1.12824 0
M  V30 7160 C 687.32 2.646 -2.11595 0
M  V30 7161 C 685.879 3.17389 -2.02339 0
M  V30 7162 C 685.026 1.90081 -2.01902 0
M  V30 7163 H 687.977 0.69921 -1.42467 0
M  V30 7164 H 687.998 3.40687 -1.69449 0
M  V30 7165 H 687.51 2.28726 -3.13538 0
M  V30 7166 H 685.611 3.5793 -1.03523 0
M  V30 7167 H 685.724 3.80955 -2.90534 0
M  V30 7168 H 684.088 2.08246 -1.46648 0
M  V30 7169 H 684.871 1.5647 -3.05568 0
M  V30 7170 N 687.317 1.12792 1.10072 0
M  V30 7171 C 688.728 0.899346 1.63611 0
M  V30 7172 C 689.079 -0.565547 1.87872 0
M  V30 7173 O 688.204 -1.43081 1.62348 0
M  V30 7174 C 688.799 1.62608 2.97227 0
M  V30 7175 C 687.358 1.44356 3.47618 0
M  V30 7176 C 686.505 1.65958 2.22156 0
M  V30 7177 H 689.456 1.28216 0.935223 0
M  V30 7178 H 689.477 1.0793 3.64872 0
M  V30 7179 H 688.989 2.69221 2.79538 0
M  V30 7180 H 687.09 0.400148 3.70445 0
M  V30 7181 H 687.203 2.20218 4.25489 0
M  V30 7182 H 685.567 1.08395 2.30484 0
M  V30 7183 H 686.35 2.73877 2.06993 0
M  V30 7184 N 688.795 -1.27931 0.920396 0
M  V30 7185 C 690.041 -1.94977 0.557832 0
M  V30 7186 C 690.374 -1.72224 -0.897365 0
M  V30 7187 O 689.649 -1.04705 -1.63912 0
M  V30 7188 C 689.932 -3.49289 0.875741 0
M  V30 7189 C 689.785 -3.81416 2.38416 0
M  V30 7190 C 691.104 -4.38486 0.376517 0
M  V30 7191 H 688.223 -0.708164 0.20414 0
M  V30 7192 H 690.865 -1.5118 1.15085 0
M  V30 7193 H 689.015 -3.86724 0.371062 0
M  V30 7194 H 690.687 -3.53813 2.95997 0
M  V30 7195 H 688.93 -3.28225 2.83639 0
M  V30 7196 H 689.601 -4.89198 2.55713 0
M  V30 7197 H 692.077 -4.08161 0.808945 0
M  V30 7198 H 690.953 -5.45296 0.627976 0
M  V30 7199 H 691.214 -4.36143 -0.723293 0
M  V30 7200 N 690.273 -0.685099 -1.4193 0
M  V30 7201 C 691.498 -0.218842 -2.06242 0
M  V30 7202 C 691.923 1.11923 -1.51178 0
M  V30 7203 O 691.281 1.69837 -0.634446 0
M  V30 7204 C 691.329 -0.175592 -3.60172 0
M  V30 7205 O 690.433 0.852776 -4.03487 0
M  V30 7206 H 689.774 -0.109531 -0.654904 0
M  V30 7207 H 692.304 -0.937013 -1.81882 0
M  V30 7208 H 692.314 -0.00291151 -4.08 0
M  V30 7209 H 690.989 -1.15222 -3.99621 0
M  V30 7210 H 689.566 0.650301 -3.67186 0
M  V30 7211 N 691.751 1.51645 -0.429126 0
M  V30 7212 C 692.714 2.26116 0.374726 0
M  V30 7213 C 693.714 1.29242 0.956714 0
M  V30 7214 O 694.904 1.53022 0.832452 0
M  V30 7215 C 692.036 3.04669 1.52937 0
M  V30 7216 H 693.229 2.9861 -0.277818 0
M  V30 7217 H 690.782 1.55236 -0.182097 0
M  V30 7218 H 691.517 2.36571 2.21821 0
M  V30 7219 H 691.302 3.75814 1.11833 0
M  V30 7220 H 692.792 3.61102 2.09751 0
M  V30 7221 N 693.229 0.160201 1.56784 0
M  V30 7222 C 694.475 -0.48831 1.96833 0
M  V30 7223 C 694.808 -1.63641 1.04571 0
M  V30 7224 O 694.083 -1.94289 0.0906481 0
M  V30 7225 C 694.366 -0.981908 3.46454 0
M  V30 7226 C 694.219 0.165607 4.49495 0
M  V30 7227 C 695.538 -1.85931 3.98896 0
M  V30 7228 H 692.657 -0.176027 0.71567 0
M  V30 7229 H 695.299 0.244093 1.88426 0
M  V30 7230 H 693.449 -1.60602 3.5375 0
M  V30 7231 H 695.121 0.802372 4.54268 0
M  V30 7232 H 693.364 0.822789 4.25926 0
M  V30 7233 H 694.035 -0.221699 5.51555 0
M  V30 7234 H 696.511 -1.33327 3.94161 0
M  V30 7235 H 695.387 -2.17373 5.04024 0
M  V30 7236 H 695.648 -2.80106 3.42042 0
M  V30 7237 N 694.707 -1.5719 -0.113559 0
M  V30 7238 C 695.954 -1.85138 -0.820382 0
M  V30 7239 C 696.282 -0.74608 -1.79622 0
M  V30 7240 O 695.537 0.262077 -1.93937 0
M  V30 7241 C 695.836 -3.19593 -1.59984 0
M  V30 7242 C 695.502 -4.44315 -0.767809 0
M  V30 7243 C 694.164 -4.78179 -0.538379 0
M  V30 7244 C 696.516 -5.2086 -0.188203 0
M  V30 7245 C 693.844 -5.86028 0.28082 0
M  V30 7246 C 696.196 -6.29572 0.618217 0
M  V30 7247 C 694.86 -6.61964 0.857912 0
M  V30 7248 H 694.13 -0.677467 -0.300199 0
M  V30 7249 H 696.777 -1.91322 -0.0825443 0
M  V30 7250 H 695.082 -3.0901 -2.40874 0
M  V30 7251 H 696.779 -3.3844 -2.1508 0
M  V30 7252 H 693.369 -4.17786 -0.956724 0
M  V30 7253 H 697.553 -4.95045 -0.352658 0
M  V30 7254 H 692.809 -6.09547 0.475693 0
M  V30 7255 H 696.983 -6.88064 1.0743 0
M  V30 7256 H 694.61 -7.45365 1.49451 0
M  V30 7257 N 696.185 0.383891 -1.52853 0
M  V30 7258 C 697.431 1.13009 -1.68395 0
M  V30 7259 C 697.764 1.89488 -0.425195 0
M  V30 7260 O 697.039 1.8574 0.577136 0
M  V30 7261 C 697.322 2.10419 -2.92226 0
M  V30 7262 C 697.175 1.3767 -4.28214 0
M  V30 7263 C 698.494 3.10781 -3.11614 0
M  V30 7264 H 695.613 0.409463 -0.612788 0
M  V30 7265 H 698.255 0.412895 -1.85459 0
M  V30 7266 H 696.405 2.71579 -2.77808 0
M  V30 7267 H 698.077 0.794352 -4.54409 0
M  V30 7268 H 696.32 0.678533 -4.2846 0
M  V30 7269 H 696.991 2.08874 -5.10956 0
M  V30 7270 H 699.467 2.59715 -3.25096 0
M  V30 7271 H 698.343 3.76179 -3.99725 0
M  V30 7272 H 698.604 3.79933 -2.2606 0
M  V30 7273 N 697.663 1.43903 0.642637 0
M  V30 7274 C 698.593 1.52697 1.76652 0
M  V30 7275 C 699.574 0.380816 1.65782 0
M  V30 7276 O 700.759 0.599432 1.84717 0
M  V30 7277 C 697.889 1.45975 3.15133 0
M  V30 7278 C 696.843 2.58949 3.40778 0
M  V30 7279 C 696.169 2.37279 4.79169 0
M  V30 7280 C 697.469 4.01153 3.34475 0
M  V30 7281 H 699.163 2.46766 1.69549 0
M  V30 7282 H 696.709 1.18767 0.814279 0
M  V30 7283 H 698.662 1.5073 3.93521 0
M  V30 7284 H 697.386 0.484162 3.22991 0
M  V30 7285 H 696.045 2.53564 2.64765 0
M  V30 7286 H 695.693 1.37939 4.83717 0
M  V30 7287 H 695.393 3.13016 4.97287 0
M  V30 7288 H 696.917 2.43834 5.59801 0
M  V30 7289 H 698.331 4.07968 4.02784 0
M  V30 7290 H 696.728 4.77001 3.64129 0
M  V30 7291 H 697.798 4.25539 2.32475 0
M  V30 7292 N 699.141 -0.881989 1.30609 0
M  V30 7293 C 700.104 -1.96957 1.1722 0
M  V30 7294 C 701.104 -1.60472 0.102598 0
M  V30 7295 O 702.294 -1.70628 0.350943 0
M  V30 7296 C 699.426 -3.31463 0.796572 0
M  V30 7297 H 700.619 -2.10262 2.13846 0
M  V30 7298 H 698.172 -1.06877 1.14048 0
M  V30 7299 H 698.907 -3.23859 -0.169053 0
M  V30 7300 H 698.692 -3.59314 1.56959 0
M  V30 7301 H 700.182 -4.11233 0.72645 0
M  V30 7302 N 700.619 -1.13374 -1.09472 0
M  V30 7303 C 701.549 -0.833268 -2.18126 0
M  V30 7304 C 702.53 0.207169 -1.68834 0
M  V30 7305 O 703.715 0.0662012 -1.94087 0
M  V30 7306 C 700.845 -0.297979 -3.46019 0
M  V30 7307 C 699.799 -1.27261 -4.08642 0
M  V30 7308 C 699.125 -0.597104 -5.31356 0
M  V30 7309 C 700.425 -2.63095 -4.51197 0
M  V30 7310 H 702.119 -1.74182 -2.43518 0
M  V30 7311 H 699.665 -0.838921 -1.17039 0
M  V30 7312 H 701.618 -0.0754444 -4.21332 0
M  V30 7313 H 700.342 0.645959 -3.20148 0
M  V30 7314 H 699.001 -1.48113 -3.35348 0
M  V30 7315 H 698.649 0.352293 -5.01765 0
M  V30 7316 H 698.349 -1.24734 -5.74208 0
M  V30 7317 H 699.873 -0.38384 -6.09392 0
M  V30 7318 H 701.287 -2.46214 -5.17737 0
M  V30 7319 H 699.684 -3.2429 -5.04932 0
M  V30 7320 H 700.754 -3.20793 -3.6362 0
M  V30 7321 N 702.098 1.27442 -0.927168 0
M  V30 7322 C 703.345 1.94391 -0.567324 0
M  V30 7323 C 703.673 1.72875 0.891321 0
M  V30 7324 O 702.928 1.05071 1.65102 0
M  V30 7325 C 703.227 3.47413 -0.838994 0
M  V30 7326 C 702.893 3.89049 -2.2793 0
M  V30 7327 C 701.555 4.00127 -2.67305 0
M  V30 7328 C 703.907 4.10154 -3.21595 0
M  V30 7329 C 701.235 4.29697 -3.99471 0
M  V30 7330 C 703.587 4.41208 -4.53341 0
M  V30 7331 C 702.251 4.50499 -4.92551 0
M  V30 7332 H 701.521 0.711325 -0.207598 0
M  V30 7333 H 704.168 1.51523 -1.17103 0
M  V30 7334 H 702.473 3.91503 -0.152609 0
M  V30 7335 H 704.17 3.97354 -0.53955 0
M  V30 7336 H 700.76 3.80962 -1.96381 0
M  V30 7337 H 704.944 4.01036 -2.92377 0
M  V30 7338 H 700.2 4.35099 -4.29533 0
M  V30 7339 H 704.374 4.56486 -5.25922 0
M  V30 7340 H 702.001 4.73167 -5.94994 0
M  V30 7341 N 703.576 0.692616 1.41565 0
M  V30 7342 C 704.822 0.222664 2.01574 0
M  V30 7343 C 705.155 -1.1737 1.54719 0
M  V30 7344 O 704.43 -1.79161 0.757084 0
M  V30 7345 C 704.713 0.277064 3.59033 0
M  V30 7346 C 704.566 1.71016 4.16021 0
M  V30 7347 C 705.885 -0.36479 4.38586 0
M  V30 7348 H 703.004 0.0823839 0.732381 0
M  V30 7349 H 705.646 0.880778 1.68352 0
M  V30 7350 H 703.796 -0.283288 3.87466 0
M  V30 7351 H 705.468 2.32413 3.98475 0
M  V30 7352 H 703.711 2.24525 3.71175 0
M  V30 7353 H 704.382 1.69978 5.25178 0
M  V30 7354 H 706.858 0.112404 4.15948 0
M  V30 7355 H 705.734 -0.296169 5.481 0
M  V30 7356 H 705.995 -1.44506 4.17816 0
M  V30 7357 N 705.054 -1.51416 0.437162 0
M  V30 7358 C 706.465 -1.86682 -0.0260005 0
M  V30 7359 C 706.816 -1.35432 -1.4196 0
M  V30 7360 O 705.941 -0.705055 -2.04592 0
M  V30 7361 C 706.536 -3.38757 -0.0539577 0
M  V30 7362 C 705.095 -3.7356 -0.461532 0
M  V30 7363 C 704.242 -2.75134 0.345924 0
M  V30 7364 H 707.193 -1.44642 0.653013 0
M  V30 7365 H 707.214 -3.70573 -0.863478 0
M  V30 7366 H 706.726 -3.76028 0.96045 0
M  V30 7367 H 704.827 -3.41878 -1.48155 0
M  V30 7368 H 704.94 -4.78737 -0.186451 0
M  V30 7369 H 703.304 -2.53947 -0.195739 0
M  V30 7370 H 704.087 -3.15247 1.35921 0
M  V30 7371 N 706.532 -0.168513 -1.56696 0
M  V30 7372 C 707.948 0.187686 -1.58493 0
M  V30 7373 C 708.148 1.63063 -1.18375 0
M  V30 7374 O 707.204 2.36142 -0.894042 0
M  V30 7375 C 708.517 -0.0905858 -3.00564 0
M  V30 7376 C 710.065 -0.028575 -3.12987 0
M  V30 7377 C 710.54 -0.279799 -4.57145 0
M  V30 7378 N 712.031 -0.227476 -4.62641 0
M  V30 7379 C 712.766 -0.396073 -5.7203 0
M  V30 7380 N 712.262 -0.623572 -6.89988 0
M  V30 7381 N 714.055 -0.332173 -5.61118 0
M  V30 7382 H 706.206 -1.11042 -1.81062 0
M  V30 7383 H 708.469 -0.441235 -0.839056 0
M  V30 7384 H 708.175 -1.09006 -3.34381 0
M  V30 7385 H 708.049 0.619078 -3.72085 0
M  V30 7386 H 710.436 0.961471 -2.78998 0
M  V30 7387 H 710.517 -0.770905 -2.43907 0
M  V30 7388 H 710.161 -1.26704 -4.91842 0
M  V30 7389 H 710.091 0.48311 -5.24379 0
M  V30 7390 H 712.582 -0.0571723 -3.77857 0
M  V30 7391 H 712.895 -0.741745 -7.69232 0
M  V30 7392 H 711.24 -0.660153 -6.91858 0
M  V30 7393 H 714.431 -0.155051 -4.67843 0
M  V30 7394 H 714.604 -0.466994 -6.46315 0
M  V30 7395 N 708.01 1.57248 0.105221 0
M  V30 7396 C 709.256 1.85845 0.811753 0
M  V30 7397 C 709.589 0.756219 1.78871 0
M  V30 7398 O 708.864 -0.236736 1.93054 0
M  V30 7399 C 709.147 3.25059 1.54947 0
M  V30 7400 C 709 4.45898 0.591185 0
M  V30 7401 C 710.319 3.6203 2.50245 0
M  V30 7402 H 707.438 0.675973 0.293649 0
M  V30 7403 H 710.08 1.89849 0.0756269 0
M  V30 7404 H 708.23 3.21776 2.17698 0
M  V30 7405 H 709.902 4.61291 -0.0285352 0
M  V30 7406 H 708.145 4.33693 -0.0962343 0
M  V30 7407 H 708.816 5.40009 1.1443 0
M  V30 7408 H 711.292 3.66192 1.97593 0
M  V30 7409 H 710.168 4.60389 2.98886 0
M  V30 7410 H 710.429 2.90176 3.33542 0
M  V30 7411 N 709.488 -0.375779 1.53054 0
M  V30 7412 C 710.436 -1.48015 1.79428 0
M  V30 7413 C 711.43 -1.55893 0.662854 0
M  V30 7414 O 712.636 -1.58901 0.845599 0
M  V30 7415 H 709.011 -0.492887 0.56795 0
M  V30 7416 H 710.982 -1.22971 2.71884 0
M  V30 7417 C 709.731 -2.84984 1.99197 0
M  V30 7418 H 709.054 -2.79677 2.85693 0
M  V30 7419 H 710.494 -3.61462 2.21633 0
M  V30 7420 C 708.953 -3.28025 0.768183 0
M  V30 7421 O 709.483 -4.01671 -0.0480482 0
M  V30 7422 N 707.689 -2.84454 0.594521 0
M  V30 7423 H 707.236 -2.24688 1.25988 0
M  V30 7424 H 707.194 -3.13609 -0.222916 0
M  V30 7425 N 710.966 -1.44241 -0.634997 0
M  V30 7426 C 711.876 -1.53293 -1.77591 0
M  V30 7427 C 712.892 -0.418831 -1.68884 0
M  V30 7428 O 714.068 -0.675619 -1.8973 0
M  V30 7429 C 711.133 -1.47075 -3.13958 0
M  V30 7430 C 710.194 -2.69304 -3.34326 0
M  V30 7431 C 709.427 -2.63374 -4.64187 0
M  V30 7432 O 709.65 -1.69161 -5.44739 0
M  V30 7433 O 708.584 -3.54166 -4.86673 0
M  V30 7434 H 712.41 -2.49673 -1.72908 0
M  V30 7435 H 709.995 -1.26445 -0.795745 0
M  V30 7436 H 711.877 -1.46117 -3.95257 0
M  V30 7437 H 710.552 -0.538373 -3.19192 0
M  V30 7438 H 709.459 -2.75831 -2.52721 0
M  V30 7439 H 710.792 -3.61576 -3.33951 0
M  V30 7440 N 712.444 0.87505 -1.31075 0
M  V30 7441 C 713.376 1.98773 -1.14114 0
M  V30 7442 C 714.389 1.62595 -0.0816119 0
M  V30 7443 O 715.578 1.75449 -0.32861 0
M  V30 7444 C 712.678 3.31159 -0.720224 0
M  V30 7445 C 711.851 3.9571 -1.86366 0
M  V30 7446 C 710.91 5.06407 -1.42965 0
M  V30 7447 O 709.936 5.27501 -2.13848 0
M  V30 7448 N 711.138 5.79649 -0.314194 0
M  V30 7449 H 713.903 2.1387 -2.09951 0
M  V30 7450 H 711.464 1.04873 -1.23342 0
M  V30 7451 H 713.456 4.0259 -0.412687 0
M  V30 7452 H 712.026 3.12257 0.146396 0
M  V30 7453 H 711.246 3.17324 -2.33879 0
M  V30 7454 H 712.534 4.35576 -2.62966 0
M  V30 7455 H 711.932 5.65025 0.276228 0
M  V30 7456 H 710.489 6.51766 -0.0661641 0
M  V30 7457 N 713.922 1.13953 1.08869 0
M  V30 7458 C 715.17 0.903023 1.80803 0
M  V30 7459 C 715.491 -0.572151 1.86417 0
M  V30 7460 O 714.761 -1.41589 1.35386 0
M  V30 7461 H 713.341 0.331099 0.669614 0
M  V30 7462 H 716.003 1.43719 1.31647 0
M  V30 7463 H 715.099 1.29881 2.83791 0
M  V30 7464 N 715.4 -1.26948 0.933913 0
M  V30 7465 C 716.363 -2.24889 0.442457 0
M  V30 7466 C 717.363 -1.54594 -0.442426 0
M  V30 7467 O 718.553 -1.72502 -0.242629 0
M  V30 7468 C 715.685 -3.3896 -0.363173 0
M  V30 7469 H 716.878 -2.69879 1.30787 0
M  V30 7470 H 714.431 -1.38978 0.715187 0
M  V30 7471 H 715.166 -2.99361 -1.24714 0
M  V30 7472 H 714.951 -3.9116 0.271366 0
M  V30 7473 H 716.441 -4.11739 -0.697186 0
M  V30 7474 N 716.879 -0.700114 -1.41195 0
M  V30 7475 C 718.126 -0.233006 -2.01155 0
M  V30 7476 C 718.454 1.16883 -1.55462 0
M  V30 7477 O 717.709 1.80395 -0.758695 0
M  V30 7478 C 718.008 -0.243986 -3.56566 0
M  V30 7479 C 717.674 -1.59397 -4.21786 0
M  V30 7480 C 716.336 -1.96355 -4.39316 0
M  V30 7481 C 718.688 -2.48192 -4.58312 0
M  V30 7482 C 716.016 -3.21683 -4.9065 0
M  V30 7483 C 718.368 -3.72857 -5.11039 0
M  V30 7484 C 717.032 -4.09951 -5.26779 0
M  V30 7485 H 716.302 -0.085263 -0.736078 0
M  V30 7486 H 718.949 -0.9001 -1.69028 0
M  V30 7487 H 717.254 0.506663 -3.8851 0
M  V30 7488 H 718.951 0.135031 -4.00773 0
M  V30 7489 H 715.541 -1.29654 -4.08519 0
M  V30 7490 H 719.725 -2.20918 -4.4442 0
M  V30 7491 H 714.981 -3.50412 -5.01021 0
M  V30 7492 H 719.155 -4.41844 -5.38282 0
M  V30 7493 H 716.782 -5.07136 -5.66319 0
M  V30 7494 N 718.357 1.51182 -0.445186 0
M  V30 7495 C 719.603 2.03097 0.111049 0
M  V30 7496 C 719.958 1.32293 1.397 0
M  V30 7497 O 719.251 0.431529 1.86677 0
M  V30 7498 C 719.445 3.55408 0.376797 0
M  V30 7499 C 719.274 4.40969 -0.88185 0
M  V30 7500 C 718.044 4.85006 -1.41766 0
M  V30 7501 C 720.242 4.82876 -1.77017 0
M  V30 7502 N 718.224 5.54804 -2.62803 0
M  V30 7503 C 719.595 5.51821 -2.82654 0
M  V30 7504 C 721.65 4.64855 -1.78365 0
M  V30 7505 C 720.353 6.04655 -3.89595 0
M  V30 7506 C 722.379 5.18612 -2.84246 0
M  V30 7507 C 721.741 5.87509 -3.88603 0
M  V30 7508 H 717.84 0.781999 0.0012696 0
M  V30 7509 H 720.424 1.84976 -0.60761 0
M  V30 7510 H 718.595 3.73528 1.06449 0
M  V30 7511 H 720.327 3.93985 0.925082 0
M  V30 7512 H 717.082 4.6355 -0.970476 0
M  V30 7513 H 717.506 5.94326 -3.24201 0
M  V30 7514 H 722.148 4.11043 -0.990119 0
M  V30 7515 H 719.866 6.57518 -4.69782 0
M  V30 7516 H 723.452 5.06515 -2.86241 0
M  V30 7517 H 722.332 6.28358 -4.69186 0
M  V30 7518 N 719.835 0.176821 1.56605 0
M  V30 7519 C 721.083 -0.465793 1.96659 0
M  V30 7520 C 721.404 -1.63406 1.06412 0
M  V30 7521 O 720.674 -1.95457 0.131603 0
M  V30 7522 H 719.254 -0.175072 0.726195 0
M  V30 7523 H 721.916 0.25929 1.93168 0
M  V30 7524 H 721.012 -0.822138 3.01077 0
M  V30 7525 N 721.313 -1.57302 -0.09688 0
M  V30 7526 C 722.243 -2.0497 -1.11846 0
M  V30 7527 C 723.224 -0.938278 -1.41882 0
M  V30 7528 O 724.409 -1.20943 -1.51942 0
M  V30 7529 C 721.539 -2.47264 -2.43881 0
M  V30 7530 C 720.493 -3.62053 -2.28257 0
M  V30 7531 C 719.819 -3.90318 -3.65453 0
M  V30 7532 C 721.119 -4.93005 -1.72461 0
M  V30 7533 H 722.813 -2.90567 -0.721888 0
M  V30 7534 H 720.359 -1.39786 -0.345803 0
M  V30 7535 H 722.312 -2.7922 -3.15617 0
M  V30 7536 H 721.036 -1.58664 -2.8547 0
M  V30 7537 H 719.695 -3.30341 -1.58967 0
M  V30 7538 H 719.343 -2.98889 -4.04567 0
M  V30 7539 H 719.043 -4.67597 -3.55846 0
M  V30 7540 H 720.567 -4.24747 -4.3866 0
M  V30 7541 H 721.981 -5.23354 -2.34036 0
M  V30 7542 H 720.378 -5.74436 -1.73618 0
M  V30 7543 H 721.448 -4.80053 -0.683898 0
M  V30 7544 N 722.791 0.367657 -1.53252 0
M  V30 7545 C 724.04 1.10782 -1.68554 0
M  V30 7546 C 724.353 1.90523 -0.442765 0
M  V30 7547 O 725.559 2.6729 -0.47629 0
M  V30 7548 C 724.015 2.01863 -2.97959 0
M  V30 7549 C 723.623 1.27443 -4.29491 0
M  V30 7550 C 725.367 2.75883 -3.22628 0
M  V30 7551 C 723.274 2.17414 -5.49987 0
M  V30 7552 H 722.204 0.417272 -0.628013 0
M  V30 7553 H 724.855 0.368971 -1.79752 0
M  V30 7554 H 723.237 2.7947 -2.80558 0
M  V30 7555 H 724.411 0.549138 -4.57516 0
M  V30 7556 H 722.726 0.652935 -4.11249 0
M  V30 7557 H 725.323 3.43421 -4.09837 0
M  V30 7558 H 725.666 3.41138 -2.38601 0
M  V30 7559 H 726.199 2.0536 -3.40693 0
M  V30 7560 H 722.938 1.5674 -6.36485 0
M  V30 7561 H 722.458 2.87799 -5.26243 0
M  V30 7562 H 724.137 2.77019 -5.84696 0
M  V30 7563 N 724.269 1.44576 0.627338 0
M  V30 7564 C 725.517 1.47267 1.38408 0
M  V30 7565 C 725.838 0.107971 1.94701 0
M  V30 7566 O 725.108 -0.860206 1.76004 0
M  V30 7567 H 723.688 0.542276 0.513756 0
M  V30 7568 H 726.35 1.80383 0.738099 0
M  V30 7569 H 725.446 2.20025 2.21349 0
M  V30 7570 N 725.747 -0.868086 1.31537 0
M  V30 7571 C 726.995 -1.61807 1.21091 0
M  V30 7572 C 727.316 -1.93631 -0.230623 0
M  V30 7573 O 726.586 -1.5846 -1.15183 0
M  V30 7574 H 725.166 -0.599854 0.445178 0
M  V30 7575 H 727.828 -1.03915 1.64887 0
M  V30 7576 H 726.924 -2.56088 1.78396 0
M  V30 7577 N 727.225 -1.14528 -1.08264 0
M  V30 7578 C 728.155 -0.856356 -2.1723 0
M  V30 7579 C 729.136 0.189251 -1.69044 0
M  V30 7580 O 730.321 0.0456119 -1.94146 0
M  V30 7581 C 727.451 -0.334662 -3.45684 0
M  V30 7582 C 726.405 -1.31588 -4.0727 0
M  V30 7583 C 725.731 -0.653428 -5.30692 0
M  V30 7584 C 727.031 -2.67866 -4.48381 0
M  V30 7585 H 728.725 -1.76755 -2.41657 0
M  V30 7586 H 726.271 -0.851287 -1.16143 0
M  V30 7587 H 728.224 -0.120128 -4.21229 0
M  V30 7588 H 726.948 0.611967 -3.20815 0
M  V30 7589 H 725.607 -1.51661 -3.33758 0
M  V30 7590 H 725.255 0.299054 -5.0211 0
M  V30 7591 H 724.955 -1.30817 -5.72853 0
M  V30 7592 H 726.479 -0.448453 -6.08951 0
M  V30 7593 H 727.893 -2.51692 -5.15096 0
M  V30 7594 H 726.29 -3.29627 -5.01464 0
M  V30 7595 H 727.36 -3.24632 -3.60198 0
M  V30 7596 N 728.703 1.26451 -0.940633 0
M  V30 7597 C 729.633 2.28773 -0.467479 0
M  V30 7598 C 730.614 1.63218 0.478955 0
M  V30 7599 O 731.799 1.90427 0.380929 0
M  V30 7600 C 728.929 3.46259 0.268656 0
M  V30 7601 C 727.883 4.23898 -0.591171 0
M  V30 7602 C 727.209 5.33993 0.274891 0
M  V30 7603 C 728.509 4.87974 -1.86223 0
M  V30 7604 H 730.203 2.68601 -1.32265 0
M  V30 7605 H 727.749 1.29123 -0.637436 0
M  V30 7606 H 729.702 4.16951 0.610696 0
M  V30 7607 H 728.426 3.05383 1.15796 0
M  V30 7608 H 727.085 3.54969 -0.916098 0
M  V30 7609 H 726.733 4.89358 1.16353 0
M  V30 7610 H 726.433 5.86849 -0.297006 0
M  V30 7611 H 727.957 6.07523 0.612213 0
M  V30 7612 H 729.371 5.50883 -1.58747 0
M  V30 7613 H 727.768 5.50945 -2.37866 0
M  V30 7614 H 728.838 4.10945 -2.57394 0
M  V30 7615 N 730.181 0.707592 1.40822 0
M  V30 7616 C 731.114 -0.000859377 2.282 0
M  V30 7617 C 732.092 -0.7758 1.42899 0
M  V30 7618 O 733.276 -0.76411 1.72318 0
M  V30 7619 C 730.403 -1.00861 3.23334 0
M  V30 7620 C 729.449 -0.32543 4.25257 0
M  V30 7621 S 730.282 0.940908 5.27169 0
M  V30 7622 C 731.438 -0.0649459 6.25866 0
M  V30 7623 H 731.671 0.740207 2.87938 0
M  V30 7624 H 729.204 0.498311 1.46138 0
M  V30 7625 H 731.162 -1.58485 3.78672 0
M  V30 7626 H 729.823 -1.72233 2.62668 0
M  V30 7627 H 729.016 -1.08697 4.92139 0
M  V30 7628 H 728.618 0.178044 3.73576 0
M  V30 7629 H 730.91 -0.914377 6.71301 0
M  V30 7630 H 731.853 0.570276 7.058 0
M  V30 7631 H 732.261 -0.425098 5.62897 0
M  V30 7632 N 731.66 -1.50943 0.453197 0
M  V30 7633 C 732.908 -2.01813 -0.107709 0
M  V30 7634 C 733.229 -1.33841 -1.41816 0
M  V30 7635 O 732.499 -0.477973 -1.8998 0
M  V30 7636 H 731.079 -0.745773 -0.0427948 0
M  V30 7637 H 733.741 -1.8545 0.599531 0
M  V30 7638 H 732.837 -3.10911 -0.27218 0
M  V30 7639 N 733.138 -0.185124 -1.56509 0
M  V30 7640 C 734.068 0.735098 -2.21627 0
M  V30 7641 C 735.049 1.2288 -1.1762 0
M  V30 7642 O 736.234 1.27945 -1.46095 0
M  V30 7643 C 733.364 1.95889 -2.86783 0
M  V30 7644 C 732.318 1.6005 -3.96948 0
M  V30 7645 C 731.644 2.90009 -4.4922 0
M  V30 7646 C 732.944 0.818008 -5.15855 0
M  V30 7647 H 734.638 0.192274 -2.98782 0
M  V30 7648 H 732.184 0.0910393 -1.43712 0
M  V30 7649 H 734.137 2.60779 -3.31017 0
M  V30 7650 H 732.861 2.52608 -2.07018 0
M  V30 7651 H 731.52 0.975237 -3.5339 0
M  V30 7652 H 731.168 3.44797 -3.6623 0
M  V30 7653 H 730.868 2.66778 -5.23549 0
M  V30 7654 H 732.392 3.55904 -4.9615 0
M  V30 7655 H 733.806 1.36979 -5.56695 0
M  V30 7656 H 732.203 0.684207 -5.96187 0
M  V30 7657 H 733.273 -0.182939 -4.84555 0
M  V30 7658 N 734.616 1.57351 0.0885366 0
M  V30 7659 C 735.579 2.01557 1.09121 0
M  V30 7660 C 736.579 0.910052 1.3257 0
M  V30 7661 O 737.769 1.17537 1.28572 0
M  V30 7662 C 734.901 2.38189 2.43883 0
M  V30 7663 H 736.094 2.91361 0.710562 0
M  V30 7664 H 733.647 1.52694 0.333779 0
M  V30 7665 H 734.382 1.5136 2.86811 0
M  V30 7666 H 734.167 3.18846 2.28209 0
M  V30 7667 H 735.657 2.73025 3.15986 0
M  V30 7668 N 736.094 -0.359525 1.53444 0
M  V30 7669 C 737.51 -0.701599 1.43352 0
M  V30 7670 C 737.71 -1.93049 0.577439 0
M  V30 7671 O 736.766 -2.52423 0.0622224 0
M  V30 7672 C 738.079 -0.90915 2.86627 0
M  V30 7673 C 739.627 -1.00878 2.96298 0
M  V30 7674 C 740.102 -1.24876 4.40647 0
M  V30 7675 N 741.593 -1.31632 4.44103 0
M  V30 7676 C 742.328 -1.51922 5.52908 0
M  V30 7677 N 741.824 -1.69489 6.71748 0
M  V30 7678 N 743.617 -1.54341 5.40496 0
M  V30 7679 H 735.768 0.448685 2.07607 0
M  V30 7680 H 738.031 0.138713 0.937797 0
M  V30 7681 H 737.737 -0.0778997 3.51614 0
M  V30 7682 H 737.611 -1.81551 3.30634 0
M  V30 7683 H 739.998 -1.83057 2.31461 0
M  V30 7684 H 740.079 -0.0796721 2.55676 0
M  V30 7685 H 739.723 -0.431961 5.0606 0
M  V30 7686 H 739.653 -2.19118 4.78848 0
M  V30 7687 H 742.144 -1.19646 3.5846 0
M  V30 7688 H 742.457 -1.84561 7.50438 0
M  V30 7689 H 740.802 -1.66655 6.74723 0
M  V30 7690 H 743.993 -1.40188 4.46615 0
M  V30 7691 H 744.166 -1.69812 6.25354 0
M  V30 7692 N 737.572 -1.44907 -0.619662 0
M  V30 7693 C 738.502 -1.55488 -1.742 0
M  V30 7694 C 739.483 -0.407143 -1.65156 0
M  V30 7695 O 740.668 -0.628743 -1.8374 0
M  V30 7696 C 737.798 -1.5097 -3.1277 0
M  V30 7697 C 736.752 -2.64337 -3.36615 0
M  V30 7698 C 736.078 -2.44872 -4.75333 0
M  V30 7699 C 737.378 -4.06423 -3.28051 0
M  V30 7700 H 739.072 -2.49432 -1.65602 0
M  V30 7701 H 736.618 -1.20047 -0.795281 0
M  V30 7702 H 738.571 -1.56971 -3.91073 0
M  V30 7703 H 737.295 -0.535486 -3.2218 0
M  V30 7704 H 735.954 -2.57744 -2.60698 0
M  V30 7705 H 735.602 -1.45617 -4.81461 0
M  V30 7706 H 735.302 -3.20888 -4.92244 0
M  V30 7707 H 736.826 -2.52709 -5.55851 0
M  V30 7708 H 738.24 -4.14324 -3.96243 0
M  V30 7709 H 736.637 -4.82733 -3.56495 0
M  V30 7710 H 737.707 -4.29183 -2.25676 0
M  V30 7711 N 739.05 0.861098 -1.31996 0
M  V30 7712 C 740.299 1.60965 -1.21545 0
M  V30 7713 C 740.612 1.94325 0.222972 0
M  V30 7714 O 741.818 2.67757 0.449272 0
M  V30 7715 C 740.274 2.90223 -2.12834 0
M  V30 7716 C 739.882 2.64313 -3.61722 0
M  V30 7717 C 741.626 3.68229 -2.11205 0
M  V30 7718 C 739.533 3.89532 -4.44993 0
M  V30 7719 H 738.463 0.603988 -0.451348 0
M  V30 7720 H 741.114 0.951358 -1.56912 0
M  V30 7721 H 739.496 3.57475 -1.70375 0
M  V30 7722 H 740.67 2.05413 -4.12483 0
M  V30 7723 H 738.985 1.99647 -3.65418 0
M  V30 7724 H 741.582 4.61138 -2.70658 0
M  V30 7725 H 741.925 4.01466 -1.1014 0
M  V30 7726 H 742.458 3.07873 -2.51911 0
M  V30 7727 H 739.197 3.61441 -5.46846 0
M  V30 7728 H 738.717 4.47851 -3.98985 0
M  V30 7729 H 740.396 4.57334 -4.57663 0
M  V30 7730 N 740.528 1.15101 1.07655 0
M  V30 7731 C 741.939 0.933848 1.61667 0
M  V30 7732 C 742.29 -0.525569 1.8903 0
M  V30 7733 O 741.415 -1.39605 1.65346 0
M  V30 7734 C 742.01 1.68876 2.93711 0
M  V30 7735 C 740.569 1.51697 3.44478 0
M  V30 7736 C 739.716 1.70633 2.18586 0
M  V30 7737 H 742.667 1.30171 0.907816 0
M  V30 7738 H 742.688 1.15645 3.625 0
M  V30 7739 H 742.2 2.7509 2.73764 0
M  V30 7740 H 740.301 0.478635 3.69513 0
M  V30 7741 H 740.414 2.29194 4.20722 0
M  V30 7742 H 738.778 1.13259 2.28132 0
M  V30 7743 H 739.561 2.78206 2.01137 0
M  V30 7744 N 742.006 -1.2595 0.947325 0
M  V30 7745 C 742.916 -2.29883 0.468079 0
M  V30 7746 C 743.932 -1.67783 -0.460975 0
M  V30 7747 O 745.108 -1.98526 -0.339006 0
M  V30 7748 C 742.173 -3.45773 -0.253315 0
M  V30 7749 C 741.234 -4.23337 0.713054 0
M  V30 7750 C 740.467 -5.33694 0.025993 0
M  V30 7751 O 740.69 -5.57853 -1.18978 0
M  V30 7752 O 739.624 -5.97724 0.70782 0
M  V30 7753 H 743.45 -2.72952 1.33156 0
M  V30 7754 H 741.035 -1.31263 0.713468 0
M  V30 7755 H 742.917 -4.16209 -0.659423 0
M  V30 7756 H 741.592 -3.04721 -1.09209 0
M  V30 7757 H 740.499 -3.55359 1.16923 0
M  V30 7758 H 741.832 -4.68154 1.51963 0
M  V30 7759 N 743.484 -0.715051 -1.40445 0
M  V30 7760 C 744.731 -0.254328 -2.00897 0
M  V30 7761 C 745.059 1.15228 -1.56693 0
M  V30 7762 O 744.314 1.7958 -0.777786 0
M  V30 7763 C 744.613 -0.281791 -3.56287 0
M  V30 7764 C 744.279 -1.63862 -4.20071 0
M  V30 7765 C 742.941 -2.01003 -4.37208 0
M  V30 7766 C 745.293 -2.53039 -4.55654 0
M  V30 7767 C 742.621 -3.26869 -4.8721 0
M  V30 7768 C 744.973 -3.78256 -5.07055 0
M  V30 7769 C 743.637 -4.15515 -5.22401 0
M  V30 7770 H 742.907 -0.0930652 -0.735133 0
M  V30 7771 H 745.554 -0.917977 -1.68064 0
M  V30 7772 H 743.859 0.465428 -3.89026 0
M  V30 7773 H 745.556 0.0925158 -4.00893 0
M  V30 7774 H 742.146 -1.33979 -4.07121 0
M  V30 7775 H 746.33 -2.2562 -4.42051 0
M  V30 7776 H 741.586 -3.55706 -4.97276 0
M  V30 7777 H 745.76 -4.47528 -5.33565 0
M  V30 7778 H 743.387 -5.13114 -5.60909 0
M  V30 7779 N 744.962 1.50701 -0.461195 0
M  V30 7780 C 746.187 2.07171 0.0974773 0
M  V30 7781 C 746.612 1.32391 1.3362 0
M  V30 7782 O 745.97 0.368676 1.77512 0
M  V30 7783 C 746.018 3.58651 0.374409 0
M  V30 7784 O 745.122 3.85816 1.4567 0
M  V30 7785 H 744.463 0.663944 -0.00862047 0
M  V30 7786 H 746.993 1.94021 -0.649394 0
M  V30 7787 H 747.003 4.03295 0.617843 0
M  V30 7788 H 745.678 4.12498 -0.530829 0
M  V30 7789 H 744.255 3.53018 1.20136 0
M  V30 7790 N 746.441 0.193421 1.56409 0
M  V30 7791 C 747.688 -0.445789 1.97532 0
M  V30 7792 C 748.016 -1.61744 1.08024 0
M  V30 7793 O 747.271 -1.95338 0.118982 0
M  V30 7794 C 747.57 -0.949718 3.44551 0
M  V30 7795 C 747.236 0.108383 4.5077 0
M  V30 7796 C 745.898 0.399126 4.79542 0
M  V30 7797 C 748.25 0.825423 5.14622 0
M  V30 7798 C 745.578 1.41192 5.69457 0
M  V30 7799 C 747.93 1.82735 6.05632 0
M  V30 7800 C 746.594 2.12531 6.32761 0
M  V30 7801 H 745.864 -0.163126 0.722822 0
M  V30 7802 H 748.511 0.290035 1.89291 0
M  V30 7803 H 746.816 -1.76378 3.49854 0
M  V30 7804 H 748.513 -1.45367 3.73724 0
M  V30 7805 H 745.103 -0.128392 4.28408 0
M  V30 7806 H 749.287 0.61403 4.92487 0
M  V30 7807 H 744.543 1.6487 5.88751 0
M  V30 7808 H 748.717 2.3882 6.5417 0
M  V30 7809 H 746.344 2.91155 7.02234 0
M  V30 7810 N 747.919 -1.57396 -0.0801906 0
M  V30 7811 C 749.167 -1.86467 -0.779384 0
M  V30 7812 C 749.488 -0.784243 -1.78535 0
M  V30 7813 O 748.758 0.187986 -1.94996 0
M  V30 7814 H 747.338 -0.68806 -0.29083 0
M  V30 7815 H 750 -1.94813 -0.0582749 0
M  V30 7816 H 749.096 -2.83701 -1.30078 0
M  V30 7817 N 749.397 0.351382 -1.53633 0
M  V30 7818 C 750.622 1.11718 -1.74739 0
M  V30 7819 C 751.047 1.81829 -0.481657 0
M  V30 7820 O 750.405 1.72264 0.565233 0
M  V30 7821 C 750.453 2.11234 -2.92254 0
M  V30 7822 O 749.557 3.186 -2.61855 0
M  V30 7823 H 748.898 0.323482 -0.579875 0
M  V30 7824 H 751.428 0.404167 -2.00568 0
M  V30 7825 H 751.438 2.54591 -3.18822 0
M  V30 7826 H 750.113 1.59599 -3.84058 0
M  V30 7827 H 748.69 2.80115 -2.4615 0
M  V30 7828 N 750.875 1.45233 0.611969 0
M  V30 7829 C 752.123 1.48727 1.36838 0
M  V30 7830 C 752.444 0.128616 1.94575 0
M  V30 7831 O 751.714 -0.84149 1.76906 0
M  V30 7832 H 750.294 0.547695 0.507976 0
M  V30 7833 H 752.956 1.81156 0.718925 0
M  V30 7834 H 752.052 2.2236 2.19003 0
M  V30 7835 N 752.353 -0.854086 1.3245 0
M  V30 7836 C 753.578 -1.64597 1.26185 0
M  V30 7837 C 754.003 -1.87357 -0.167074 0
M  V30 7838 O 753.361 -1.42675 -1.11864 0
M  V30 7839 C 753.409 -2.98213 2.02734 0
M  V30 7840 O 752.513 -3.88784 1.37554 0
M  V30 7841 H 751.854 -0.50179 0.434859 0
M  V30 7842 H 754.384 -1.06372 1.74775 0
M  V30 7843 H 754.394 -3.4803 2.1293 0
M  V30 7844 H 753.069 -2.80969 3.06642 0
M  V30 7845 H 751.646 -3.4725 1.3591 0
M  V30 7846 N 753.831 -1.1567 -1.07043 0
M  V30 7847 C 755.071 -0.944089 -1.81291 0
M  V30 7848 C 755.435 0.519305 -1.84844 0
M  V30 7849 O 756.636 0.850357 -2.54995 0
M  V30 7850 C 754.907 -1.54528 -3.22267 0
M  V30 7851 S 756.466 -1.47623 -4.13223 0
M  V30 7852 H 753.284 -0.339696 -0.624602 0
M  V30 7853 H 755.886 -1.47277 -1.28568 0
M  V30 7854 H 754.59 -2.60321 -3.17271 0
M  V30 7855 H 754.121 -1.0156 -3.80065 0
M  V30 7856 H 756.136 -0.471261 -4.93957 0
M  V30 7857 N 755.309 1.25446 -0.953992 0
M  V30 7858 C 756.555 1.9343 -0.60933 0
M  V30 7859 C 756.888 1.74542 0.851388 0
M  V30 7860 O 756.163 1.09014 1.61078 0
M  V30 7861 C 756.446 3.46844 -0.968041 0
M  V30 7862 C 756.299 3.74961 -2.48444 0
M  V30 7863 C 757.618 4.37334 -0.492641 0
M  V30 7864 H 754.737 0.702502 -0.222844 0
M  V30 7865 H 757.379 1.48076 -1.19053 0
M  V30 7866 H 755.529 3.85604 -0.473465 0
M  V30 7867 H 757.201 3.45841 -3.05273 0
M  V30 7868 H 755.444 3.20589 -2.92241 0
M  V30 7869 H 756.115 4.82246 -2.68594 0
M  V30 7870 H 758.591 4.05873 -0.916878 0
M  V30 7871 H 757.467 5.43439 -0.772331 0
M  V30 7872 H 757.728 4.37908 0.607403 0
M  V30 7873 N 756.787 0.722489 1.40064 0
M  V30 7874 C 757.719 0.0349057 2.29173 0
M  V30 7875 C 758.732 -0.716571 1.46182 0
M  V30 7876 O 759.921 -0.562806 1.69395 0
M  V30 7877 C 757.021 -0.974839 3.24577 0
M  V30 7878 C 756.194 -0.287471 4.36454 0
M  V30 7879 C 755.253 -1.20356 5.12251 0
M  V30 7880 O 754.279 -0.685753 5.65054 0
M  V30 7881 N 755.481 -2.53422 5.22262 0
M  V30 7882 H 758.246 0.800058 2.88824 0
M  V30 7883 H 755.807 0.57068 1.51509 0
M  V30 7884 H 757.799 -1.59002 3.72157 0
M  V30 7885 H 756.369 -1.6413 2.66046 0
M  V30 7886 H 755.589 0.508008 3.90913 0
M  V30 7887 H 756.877 0.189382 5.08447 0
M  V30 7888 H 756.275 -2.97981 4.80857 0
M  V30 7889 H 754.832 -3.10067 5.73325 0
M  V30 7890 N 758.265 -1.50454 0.469181 0
M  V30 7891 C 759.676 -1.86695 0.0136034 0
M  V30 7892 C 760.027 -1.38413 -1.39055 0
M  V30 7893 O 759.152 -0.748294 -2.03051 0
M  V30 7894 C 759.747 -3.38795 0.0179098 0
M  V30 7895 C 758.306 -3.74455 -0.382191 0
M  V30 7896 C 757.453 -2.74338 0.404207 0
M  V30 7897 H 760.404 -1.43225 0.683547 0
M  V30 7898 H 760.425 -3.72321 -0.78468 0
M  V30 7899 H 759.937 -3.73906 1.04 0
M  V30 7900 H 758.038 -3.44944 -1.4087 0
M  V30 7901 H 758.151 -4.79025 -0.084862 0
M  V30 7902 H 756.515 -2.54305 -0.141829 0
M  V30 7903 H 757.298 -3.12293 1.42577 0
M  V30 7904 N 759.743 -0.201713 -1.56304 0
M  V30 7905 C 760.968 0.443815 -2.02596 0
M  V30 7906 C 761.393 1.53945 -1.08086 0
M  V30 7907 O 760.751 1.81182 -0.0655056 0
M  V30 7908 C 760.799 0.971066 -3.47279 0
M  V30 7909 O 759.903 2.0836 -3.55893 0
M  V30 7910 H 759.244 0.10294 -0.655972 0
M  V30 7911 H 761.774 -0.314533 -2.02168 0
M  V30 7912 H 761.784 1.28598 -3.87204 0
M  V30 7913 H 760.459 0.169048 -4.15556 0
M  V30 7914 H 759.036 1.77683 -3.27846 0
M  V30 7915 N 761.222 1.57436 0.0718424 0
M  V30 7916 C 762.185 2.02703 1.06977 0
M  V30 7917 C 763.185 0.924062 1.31597 0
M  V30 7918 O 764.375 1.18894 1.27318 0
M  V30 7919 C 761.507 2.40763 2.41342 0
M  V30 7920 H 762.7 2.92098 0.679619 0
M  V30 7921 H 760.253 1.5304 0.317565 0
M  V30 7922 H 760.988 1.54394 2.8519 0
M  V30 7923 H 760.773 3.21249 2.24814 0
M  V30 7924 H 762.263 2.76361 3.13073 0
M  V30 7925 N 762.7 -0.34323 1.53817 0
M  V30 7926 C 763.94 -1.09188 1.72793 0
M  V30 7927 C 764.304 -1.85876 0.481062 0
M  V30 7928 O 765.505 -2.63158 0.547851 0
M  V30 7929 C 763.776 -2.00783 2.9567 0
M  V30 7930 S 765.335 -2.82866 3.35459 0
M  V30 7931 H 762.153 -0.368926 0.607795 0
M  V30 7932 H 764.755 -0.370265 1.91962 0
M  V30 7933 H 763.459 -1.43245 3.84589 0
M  V30 7934 H 762.99 -2.77381 2.78968 0
M  V30 7935 H 765.005 -4.03196 2.89218 0
M  V30 7936 N 764.178 -1.45556 -0.604258 0
M  V30 7937 C 765.589 -1.44171 -1.18624 0
M  V30 7938 C 765.94 -0.171081 -1.95453 0
M  V30 7939 O 765.065 0.727156 -2.03817 0
M  V30 7940 C 765.66 -2.61193 -2.15786 0
M  V30 7941 C 764.219 -2.62918 -2.69353 0
M  V30 7942 C 763.366 -2.36479 -1.4482 0
M  V30 7943 H 766.317 -1.53747 -0.393381 0
M  V30 7944 H 766.338 -2.35481 -2.98879 0
M  V30 7945 H 765.85 -3.53656 -1.59841 0
M  V30 7946 H 763.951 -1.7447 -3.29228 0
M  V30 7947 H 764.064 -3.6224 -3.13559 0
M  V30 7948 H 762.428 -1.86103 -1.73891 0
M  V30 7949 H 763.211 -3.31091 -0.907376 0
M  V30 7950 N 765.656 0.84705 -1.32902 0
M  V30 7951 C 766.619 1.9378 -1.224 0
M  V30 7952 C 767.619 1.60144 -0.145108 0
M  V30 7953 O 768.809 1.69638 -0.396058 0
M  V30 7954 C 765.941 3.29234 -0.884174 0
M  V30 7955 H 767.134 2.04518 -2.19345 0
M  V30 7956 H 764.687 1.03816 -1.16842 0
M  V30 7957 H 765.422 3.24193 0.0831277 0
M  V30 7958 H 765.207 3.55026 -1.6643 0
M  V30 7959 H 766.697 4.09162 -0.835226 0
M  V30 7960 N 767.134 1.16236 1.06428 0
M  V30 7961 C 768.381 0.943034 1.79201 0
M  V30 7962 C 768.709 -0.529243 1.87161 0
M  V30 7963 O 767.964 -1.40874 1.35842 0
M  V30 7964 C 768.263 1.51396 3.2375 0
M  V30 7965 C 767.929 3.00833 3.35873 0
M  V30 7966 C 766.591 3.41626 3.38888 0
M  V30 7967 C 768.943 3.96825 3.37904 0
M  V30 7968 C 766.271 4.77033 3.4155 0
M  V30 7969 C 768.623 5.32116 3.42104 0
M  V30 7970 C 767.287 5.72392 3.43401 0
M  V30 7971 H 766.557 0.34508 0.655744 0
M  V30 7972 H 769.204 1.44929 1.25171 0
M  V30 7973 H 767.509 0.929114 3.80624 0
M  V30 7974 H 769.206 1.31996 3.78653 0
M  V30 7975 H 765.796 2.68306 3.3423 0
M  V30 7976 H 769.98 3.66376 3.34787 0
M  V30 7977 H 765.236 5.07569 3.40858 0
M  V30 7978 H 769.41 6.06286 3.42623 0
M  V30 7979 H 767.037 6.77296 3.45216 0
M  V30 7980 N 768.612 -1.24939 0.960631 0
M  V30 7981 C 769.542 -2.28 0.503815 0
M  V30 7982 C 770.523 -1.63959 -0.452928 0
M  V30 7983 O 771.708 -1.91009 -0.350585 0
M  V30 7984 C 768.838 -3.46643 -0.213535 0
M  V30 7985 C 767.792 -4.22903 0.658535 0
M  V30 7986 C 767.118 -5.34363 -0.189902 0
M  V30 7987 C 768.418 -4.84949 1.93963 0
M  V30 7988 H 770.112 -2.66462 1.36521 0
M  V30 7989 H 767.658 -1.28093 0.657897 0
M  V30 7990 H 769.611 -4.1787 -0.544286 0
M  V30 7991 H 768.335 -3.07187 -1.10923 0
M  V30 7992 H 766.994 -3.53467 0.972455 0
M  V30 7993 H 766.642 -4.91147 -1.08553 0
M  V30 7994 H 766.342 -5.86302 0.390331 0
M  V30 7995 H 767.866 -6.0842 -0.515484 0
M  V30 7996 H 769.28 -5.48288 1.67491 0
M  V30 7997 H 767.677 -5.47091 2.46601 0
M  V30 7998 H 768.747 -4.06799 2.639 0
M  V30 7999 N 770.09 -0.729906 -1.39679 0
M  V30 8000 C 771.33 -0.280232 -2.0247 0
M  V30 8001 C 771.694 1.11006 -1.56658 0
M  V30 8002 O 772.895 1.65753 -2.11612 0
M  V30 8003 C 771.166 -0.372922 -3.55449 0
M  V30 8004 S 772.725 -0.00233974 -4.388 0
M  V30 8005 H 769.543 -0.110139 -0.702418 0
M  V30 8006 H 772.145 -0.955296 -1.70571 0
M  V30 8007 H 770.849 -1.38616 -3.86282 0
M  V30 8008 H 770.38 0.320136 -3.92095 0
M  V30 8009 H 772.395 1.21544 -4.81084 0
M  V30 8010 N 771.568 1.50203 -0.477153 0
M  V30 8011 C 772.816 2.01959 0.0755889 0
M  V30 8012 C 773.137 1.3608 1.39668 0
M  V30 8013 O 772.407 0.508136 1.89195 0
M  V30 8014 H 770.987 0.74636 0.0309248 0
M  V30 8015 H 773.649 1.84473 -0.628959 0
M  V30 8016 H 772.745 3.11305 0.222683 0
M  V30 8017 N 773.046 0.209999 1.56195 0
M  V30 8018 C 774.292 -0.425442 1.98287 0
M  V30 8019 C 774.625 -1.60232 1.09724 0
M  V30 8020 O 773.9 -1.93902 0.152414 0
M  V30 8021 C 774.183 -0.871189 3.49403 0
M  V30 8022 C 774.036 0.308527 4.48741 0
M  V30 8023 C 775.355 -1.73146 4.04609 0
M  V30 8024 H 772.474 -0.153169 0.720908 0
M  V30 8025 H 775.116 0.303916 1.87554 0
M  V30 8026 H 773.266 -1.49266 3.58681 0
M  V30 8027 H 774.938 0.946487 4.51486 0
M  V30 8028 H 773.181 0.957878 4.23092 0
M  V30 8029 H 773.852 -0.0461143 5.51981 0
M  V30 8030 H 776.328 -1.2072 3.98203 0
M  V30 8031 H 775.204 -2.01228 5.10684 0
M  V30 8032 H 775.465 -2.69083 3.5078 0
M  V30 8033 N 774.524 -1.57472 -0.0634922 0
M  V30 8034 C 775.474 -2.00709 -1.08166 0
M  V30 8035 C 776.458 -0.890498 -1.34011 0
M  V30 8036 O 777.65 -1.15441 -1.34173 0
M  V30 8037 C 774.779 -2.46148 -2.39303 0
M  V30 8038 C 773.865 -3.64559 -2.16697 0
M  V30 8039 N 774.256 -4.78459 -1.64043 0
M  V30 8040 C 772.554 -3.71269 -2.47135 0
M  V30 8041 C 773.255 -5.60268 -1.56445 0
M  V30 8042 N 772.231 -5.04357 -2.02792 0
M  V30 8043 H 776.033 -2.86208 -0.668016 0
M  V30 8044 H 773.547 -1.60133 -0.270426 0
M  V30 8045 H 775.544 -2.75367 -3.13016 0
M  V30 8046 H 774.204 -1.62041 -2.81377 0
M  V30 8047 H 775.215 -5.00587 -1.32791 0
M  V30 8048 H 771.892 -2.97891 -2.92518 0
M  V30 8049 H 773.282 -6.6172 -1.16519 0
M  V30 8050 N 776.003 0.335068 -1.53997 0
M  V30 8051 C 777.233 1.0926 -1.75345 0
M  V30 8052 C 777.641 1.82568 -0.496545 0
M  V30 8053 O 776.984 1.75525 0.541897 0
M  V30 8054 C 777.046 2.14473 -2.88516 0
M  V30 8055 C 776.71 1.60665 -4.27827 0
M  V30 8056 C 777.707 1.05448 -5.09094 0
M  V30 8057 C 775.392 1.65255 -4.74337 0
M  V30 8058 C 777.386 0.555372 -6.34976 0
M  V30 8059 C 775.073 1.14956 -6.0019 0
M  V30 8060 C 776.071 0.601907 -6.80343 0
M  V30 8061 O 775.759 0.106445 -8.0383 0
M  V30 8062 H 775.491 0.331329 -0.589234 0
M  V30 8063 H 778.045 0.39042 -2.01655 0
M  V30 8064 H 776.275 2.88274 -2.5775 0
M  V30 8065 H 777.964 2.75857 -2.97755 0
M  V30 8066 H 778.73 1.01218 -4.74321 0
M  V30 8067 H 774.609 2.06822 -4.12002 0
M  V30 8068 H 778.153 0.127245 -6.97484 0
M  V30 8069 H 774.05 1.18891 -6.34457 0
M  V30 8070 H 774.818 0.222944 -8.18196 0
M  V30 8071 N 777.481 1.45874 0.596531 0
M  V30 8072 C 778.411 1.5824 1.71705 0
M  V30 8073 C 779.392 0.433366 1.64487 0
M  V30 8074 O 780.577 0.657895 1.82717 0
M  V30 8075 C 777.707 1.55927 3.10329 0
M  V30 8076 C 776.661 2.69659 3.32367 0
M  V30 8077 C 775.987 2.52403 4.71377 0
M  V30 8078 C 777.287 4.11591 3.21544 0
M  V30 8079 H 778.981 2.52035 1.61613 0
M  V30 8080 H 776.527 1.21297 0.776082 0
M  V30 8081 H 778.48 1.63173 3.88526 0
M  V30 8082 H 777.204 0.586674 3.21288 0
M  V30 8083 H 775.863 2.61859 2.56564 0
M  V30 8084 H 775.511 1.53258 4.79083 0
M  V30 8085 H 775.211 3.28679 4.87077 0
M  V30 8086 H 776.735 2.6152 5.5176 0
M  V30 8087 H 778.149 4.20576 3.89601 0
M  V30 8088 H 776.546 4.88344 3.4877 0
M  V30 8089 H 777.616 4.32719 2.1882 0
M  V30 8090 N 778.959 -0.83999 1.33349 0
M  V30 8091 C 780.189 -1.62492 1.27593 0
M  V30 8092 C 780.597 -1.88559 -0.155597 0
M  V30 8093 O 779.94 -1.46537 -1.10782 0
M  V30 8094 C 780.002 -2.99984 1.98116 0
M  V30 8095 C 779.666 -2.96892 3.47425 0
M  V30 8096 C 780.663 -2.72688 4.42648 0
M  V30 8097 C 778.348 -3.17063 3.89585 0
M  V30 8098 C 780.342 -2.68681 5.78004 0
M  V30 8099 C 778.029 -3.12682 5.25046 0
M  V30 8100 C 779.027 -2.88522 6.19067 0
M  V30 8101 O 778.715 -2.84042 7.52047 0
M  V30 8102 H 778.447 -0.512358 0.440982 0
M  V30 8103 H 781.001 -1.0545 1.76265 0
M  V30 8104 H 779.231 -3.58875 1.44034 0
M  V30 8105 H 780.92 -3.6084 1.85875 0
M  V30 8106 H 781.686 -2.56856 4.114 0
M  V30 8107 H 777.565 -3.34889 3.16813 0
M  V30 8108 H 781.109 -2.49743 6.51363 0
M  V30 8109 H 777.006 -3.28063 5.55918 0
M  V30 8110 H 777.774 -2.99892 7.61582 0
M  V30 8111 N 780.437 -1.16799 -1.0581 0
M  V30 8112 C 781.684 -0.952524 -1.78699 0
M  V30 8113 C 782.012 0.51931 -1.87439 0
M  V30 8114 O 781.267 1.40151 -1.36587 0
M  V30 8115 C 781.566 -1.53111 -3.22942 0
M  V30 8116 C 781.232 -3.0261 -3.34273 0
M  V30 8117 C 779.894 -3.43418 -3.37072 0
M  V30 8118 C 782.246 -3.98611 -3.35795 0
M  V30 8119 C 779.574 -4.78838 -3.39015 0
M  V30 8120 C 781.926 -5.33923 -3.39277 0
M  V30 8121 C 780.59 -5.74205 -3.40361 0
M  V30 8122 H 779.86 -0.348553 -0.653905 0
M  V30 8123 H 782.507 -1.45591 -1.244 0
M  V30 8124 H 780.812 -0.949286 -3.80126 0
M  V30 8125 H 782.509 -1.34002 -3.77948 0
M  V30 8126 H 779.099 -2.70075 -3.32803 0
M  V30 8127 H 783.283 -3.68146 -3.32839 0
M  V30 8128 H 778.539 -5.09369 -3.38161 0
M  V30 8129 H 782.713 -6.08094 -3.39403 0
M  V30 8130 H 780.34 -6.79117 -3.4162 0
M  V30 8131 N 781.915 1.24427 -0.967243 0
M  V30 8132 C 782.878 2.23637 -0.501927 0
M  V30 8133 C 783.878 1.55712 0.401283 0
M  V30 8134 O 785.068 1.73085 0.196808 0
M  V30 8135 C 782.2 3.39804 0.273176 0
M  V30 8136 H 783.393 2.66317 -1.37897 0
M  V30 8137 H 780.946 1.37033 -0.751783 0
M  V30 8138 H 781.681 3.02562 1.16733 0
M  V30 8139 H 781.466 3.90303 -0.37498 0
M  V30 8140 H 782.956 4.13443 0.587776 0
M  V30 8141 N 783.393 0.737304 1.3929 0
M  V30 8142 C 784.642 0.283129 1.99703 0
M  V30 8143 C 784.955 -1.13677 1.59176 0
M  V30 8144 O 786.161 -1.69058 2.12442 0
M  V30 8145 C 784.617 0.455262 3.57009 0
M  V30 8146 C 784.225 1.88319 4.06497 0
M  V30 8147 C 785.969 0.0629786 4.24453 0
M  V30 8148 C 783.876 2.00475 5.56385 0
M  V30 8149 H 782.806 0.102106 0.747054 0
M  V30 8150 H 785.457 0.911515 1.5926 0
M  V30 8151 H 783.839 -0.242057 3.9526 0
M  V30 8152 H 785.013 2.61265 3.79575 0
M  V30 8153 H 783.328 2.2289 3.51723 0
M  V30 8154 H 785.925 0.132787 5.34535 0
M  V30 8155 H 786.268 -0.982128 4.04549 0
M  V30 8156 H 786.801 0.71154 3.91385 0
M  V30 8157 H 783.54 3.03182 5.81172 0
M  V30 8158 H 783.06 1.31969 5.85102 0
M  V30 8159 H 784.739 1.787 6.21832 0
M  V30 8160 N 784.871 -1.49948 0.485112 0
M  V30 8161 C 786.117 -2.02695 -0.0651022 0
M  V30 8162 C 786.45 -1.36534 -1.38102 0
M  V30 8163 O 785.725 -0.495677 -1.88078 0
M  V30 8164 C 786.008 -3.59337 -0.234285 0
M  V30 8165 C 785.861 -4.3605 1.10364 0
M  V30 8166 C 787.18 -4.28996 -0.982351 0
M  V30 8167 H 784.299 -0.736666 -0.0221856 0
M  V30 8168 H 786.941 -1.7913 0.633433 0
M  V30 8169 H 785.091 -3.79546 -0.829262 0
M  V30 8170 H 786.763 -4.27377 1.73627 0
M  V30 8171 H 785.006 -3.99236 1.69686 0
M  V30 8172 H 785.677 -5.43959 0.938743 0
M  V30 8173 H 788.153 -4.13346 -0.477904 0
M  V30 8174 H 787.029 -5.38379 -1.06955 0
M  V30 8175 H 787.29 -3.93135 -2.02231 0
M  V30 8176 N 786.349 -0.21828 -1.56081 0
M  V30 8177 C 787.279 0.687922 -2.23136 0
M  V30 8178 C 788.26 1.20357 -1.202 0
M  V30 8179 O 789.445 1.24817 -1.48776 0
M  V30 8180 C 786.575 1.89762 -2.90874 0
M  V30 8181 C 785.529 1.51595 -4.00254 0
M  V30 8182 C 784.855 2.80415 -4.55271 0
M  V30 8183 C 786.155 0.708404 -5.17474 0
M  V30 8184 H 787.849 0.128854 -2.99123 0
M  V30 8185 H 785.395 0.0605354 -1.43873 0
M  V30 8186 H 787.348 2.53699 -3.36474 0
M  V30 8187 H 786.072 2.4816 -2.1233 0
M  V30 8188 H 784.731 0.900058 -3.55379 0
M  V30 8189 H 784.379 3.36951 -3.73461 0
M  V30 8190 H 784.079 2.55613 -5.2909 0
M  V30 8191 H 785.603 3.453 -5.03587 0
M  V30 8192 H 787.017 1.2514 -5.59476 0
M  V30 8193 H 785.414 0.557593 -5.97504 0
M  V30 8194 H 786.484 -0.285679 -4.84058 0
M  V30 8195 N 787.827 1.57504 0.0551401 0
M  V30 8196 C 789.074 1.88055 0.751104 0
M  V30 8197 C 789.402 0.812231 1.76729 0
M  V30 8198 O 788.657 -0.189918 1.94776 0
M  V30 8199 C 788.956 3.25311 1.48013 0
M  V30 8200 C 788.622 4.46858 0.602375 0
M  V30 8201 C 787.284 4.79847 0.360536 0
M  V30 8202 C 789.636 5.212 -0.00524047 0
M  V30 8203 C 786.964 5.84582 -0.498127 0
M  V30 8204 C 789.316 6.26844 -0.851453 0
M  V30 8205 C 787.98 6.58324 -1.103 0
M  V30 8206 H 787.25 0.688142 0.274848 0
M  V30 8207 H 789.897 1.91497 0.0114795 0
M  V30 8208 H 788.202 3.17737 2.29239 0
M  V30 8209 H 789.899 3.46189 2.02371 0
M  V30 8210 H 786.489 4.21049 0.801007 0
M  V30 8211 H 790.673 4.96013 0.168682 0
M  V30 8212 H 785.929 6.07361 -0.701594 0
M  V30 8213 H 790.103 6.83603 -1.32893 0
M  V30 8214 H 787.73 7.39304 -1.77011 0
M  V30 8215 N 789.305 -0.326896 1.54172 0
M  V30 8216 C 790.552 -1.06523 1.72218 0
M  V30 8217 C 790.88 -1.88119 0.494114 0
M  V30 8218 O 790.135 -1.8855 -0.524147 0
M  V30 8219 C 790.434 -2.0208 2.94785 0
M  V30 8220 C 790.1 -1.36665 4.2969 0
M  V30 8221 C 788.762 -1.18556 4.66367 0
M  V30 8222 C 791.114 -0.896868 5.13425 0
M  V30 8223 C 788.442 -0.521113 5.84381 0
M  V30 8224 C 790.794 -0.246261 6.3212 0
M  V30 8225 C 789.458 -0.052987 6.67479 0
M  V30 8226 H 788.728 -0.389796 0.63019 0
M  V30 8227 H 791.375 -0.342725 1.88408 0
M  V30 8228 H 789.68 -2.8077 2.73268 0
M  V30 8229 H 791.377 -2.59231 3.05941 0
M  V30 8230 H 787.967 -1.51762 4.00832 0
M  V30 8231 H 792.151 -1.02458 4.85609 0
M  V30 8232 H 787.407 -0.36014 6.10338 0
M  V30 8233 H 791.581 0.125775 6.96286 0
M  V30 8234 H 789.208 0.463903 7.58783 0
M  V30 8235 N 790.784 -1.46188 -0.588786 0
M  V30 8236 C 792.024 -1.52738 -1.35833 0
M  V30 8237 C 792.388 -0.172403 -1.91224 0
M  V30 8238 O 793.589 -0.112633 -2.68564 0
M  V30 8239 C 791.86 -2.59085 -2.4619 0
M  V30 8240 S 793.419 -2.84997 -3.3365 0
M  V30 8241 H 790.237 -0.539713 -0.462851 0
M  V30 8242 H 792.839 -1.83386 -0.677489 0
M  V30 8243 H 791.543 -3.56177 -2.03878 0
M  V30 8244 H 791.074 -2.3015 -3.19053 0
M  V30 8245 H 793.089 -2.19804 -4.4486 0
M  V30 8246 N 792.262 0.832906 -1.33792 0
M  V30 8247 C 793.487 1.62568 -1.28788 0
M  V30 8248 C 793.912 1.87599 0.137246 0
M  V30 8249 O 793.27 1.44436 1.0958 0
M  V30 8250 C 793.318 2.9495 -2.07453 0
M  V30 8251 O 792.422 3.86546 -1.43722 0
M  V30 8252 H 791.763 0.494809 -0.442787 0
M  V30 8253 H 794.293 1.03578 -1.76445 0
M  V30 8254 H 794.303 3.44599 -2.1844 0
M  V30 8255 H 792.978 2.76055 -3.11073 0
M  V30 8256 H 791.555 3.45044 -1.41417 0
M  V30 8257 N 793.74 1.17359 1.05189 0
M  V30 8258 C 794.988 0.960087 1.77839 0
M  V30 8259 C 795.309 -0.512554 1.88143 0
M  V30 8260 O 794.579 -1.3721 1.39822 0
M  V30 8261 H 793.159 0.352234 0.658741 0
M  V30 8262 H 795.821 1.47834 1.27008 0
M  V30 8263 H 794.917 1.38843 2.79516 0
M  V30 8264 N 795.218 -1.23913 0.973828 0
M  V30 8265 C 796.148 -2.27453 0.527969 0
M  V30 8266 C 797.129 -1.6443 -0.435513 0
M  V30 8267 O 798.314 -1.9137 -0.330306 0
M  V30 8268 C 795.444 -3.4685 -0.176757 0
M  V30 8269 C 794.398 -4.22181 0.703352 0
M  V30 8270 C 793.724 -5.34534 -0.133215 0
M  V30 8271 C 795.024 -4.82865 1.99096 0
M  V30 8272 H 796.718 -2.65 1.3934 0
M  V30 8273 H 794.264 -1.27388 0.671446 0
M  V30 8274 H 796.217 -4.18424 -0.499934 0
M  V30 8275 H 794.941 -3.08346 -1.07659 0
M  V30 8276 H 793.6 -3.52416 1.00989 0
M  V30 8277 H 793.248 -4.92271 -1.03338 0
M  V30 8278 H 792.948 -5.85855 0.452494 0
M  V30 8279 H 794.472 -6.08933 -0.450924 0
M  V30 8280 H 795.886 -5.46481 1.73297 0
M  V30 8281 H 794.283 -5.44444 2.52389 0
M  V30 8282 H 795.353 -4.03977 2.68199 0
M  V30 8283 N 796.696 -0.74468 -1.38897 0
M  V30 8284 C 797.626 -0.126355 -2.33158 0
M  V30 8285 C 798.607 0.713517 -1.54412 0
M  V30 8286 O 799.792 0.656523 -1.82766 0
M  V30 8287 C 796.922 0.774375 -3.38557 0
M  V30 8288 C 795.876 0.0379214 -4.27983 0
M  V30 8289 C 795.202 1.05631 -5.24162 0
M  V30 8290 C 796.502 -1.12523 -5.10035 0
M  V30 8291 H 798.196 -0.913744 -2.85116 0
M  V30 8292 H 795.742 -0.440847 -1.37086 0
M  V30 8293 H 797.695 1.21655 -4.03458 0
M  V30 8294 H 796.419 1.59399 -2.85061 0
M  V30 8295 H 795.078 -0.384733 -3.64576 0
M  V30 8296 H 794.726 1.86975 -4.66958 0
M  V30 8297 H 794.426 0.568261 -5.84846 0
M  V30 8298 H 795.95 1.49799 -5.9194 0
M  V30 8299 H 797.364 -0.761037 -5.68226 0
M  V30 8300 H 795.761 -1.54355 -5.79909 0
M  V30 8301 H 796.831 -1.94237 -4.44297 0
M  V30 8302 N 798.174 1.49689 -0.493057 0
M  V30 8303 C 799.402 2.06836 0.0513141 0
M  V30 8304 C 799.817 1.35436 1.31539 0
M  V30 8305 O 799.174 0.430248 1.77356 0
M  V30 8306 C 799.225 3.60107 0.317003 0
M  V30 8307 O 798.946 4.2882 -0.896957 0
M  V30 8308 C 800.447 4.33945 0.905902 0
M  V30 8309 H 797.667 0.670787 -0.0169048 0
M  V30 8310 H 800.211 1.92574 -0.688139 0
M  V30 8311 H 798.366 3.74099 1.00642 0
M  V30 8312 H 798.78 5.20395 -0.654939 0
M  V30 8313 H 800.254 5.42087 1.04144 0
M  V30 8314 H 800.731 3.95895 1.90168 0
M  V30 8315 H 801.337 4.2454 0.254195 0
M  V30 8316 N 799.652 0.226554 1.55963 0
M  V30 8317 C 800.582 -0.676079 2.23498 0
M  V30 8318 C 801.563 -1.19718 1.20837 0
M  V30 8319 O 802.748 -1.24027 1.49436 0
M  V30 8320 C 799.878 -1.88217 2.91876 0
M  V30 8321 C 798.832 -1.4947 4.01052 0
M  V30 8322 C 798.158 -2.77997 4.56751 0
M  V30 8323 C 799.458 -0.680951 5.17842 0
M  V30 8324 H 801.152 -0.112989 2.99187 0
M  V30 8325 H 798.698 -0.0529046 1.43903 0
M  V30 8326 H 800.651 -2.51911 3.37815 0
M  V30 8327 H 799.375 -2.47031 2.13643 0
M  V30 8328 H 798.034 -0.881199 3.55852 0
M  V30 8329 H 797.682 -3.34966 3.75243 0
M  V30 8330 H 797.382 -2.52803 5.30438 0
M  V30 8331 H 798.906 -3.42625 5.05411 0
M  V30 8332 H 800.32 -1.22171 5.60131 0
M  V30 8333 H 798.717 -0.525898 5.97791 0
M  V30 8334 H 799.787 0.311346 4.83899 0
M  V30 8335 N 801.13 -1.57531 -0.0467866 0
M  V30 8336 C 802.358 -1.92696 -0.753371 0
M  V30 8337 C 802.773 -0.824792 -1.69831 0
M  V30 8338 O 802.13 0.200155 -1.81399 0
M  V30 8339 C 802.181 -3.27728 -1.52566 0
M  V30 8340 O 801.902 -4.3371 -0.618674 0
M  V30 8341 C 803.403 -3.77066 -2.33101 0
M  V30 8342 H 800.623 -0.636367 -0.212788 0
M  V30 8343 H 803.167 -2.04498 -0.00959361 0
M  V30 8344 H 801.322 -3.17378 -2.22148 0
M  V30 8345 H 801.736 -5.11548 -1.15839 0
M  V30 8346 H 803.21 -4.74109 -2.82709 0
M  V30 8347 H 803.687 -3.07348 -3.13741 0
M  V30 8348 H 804.293 -3.90442 -1.68628 0
M  V30 8349 N 802.608 0.318715 -1.54344 0
M  V30 8350 C 803.854 1.05765 -1.73037 0
M  V30 8351 C 804.187 1.87514 -0.505181 0
M  V30 8352 O 803.462 1.88021 0.497838 0
M  V30 8353 C 803.745 1.97836 -3.00887 0
M  V30 8354 C 803.598 1.19384 -4.33668 0
M  V30 8355 C 804.917 2.97285 -3.24514 0
M  V30 8356 H 802.036 0.383104 -0.629603 0
M  V30 8357 H 804.678 0.333864 -1.87044 0
M  V30 8358 H 802.828 2.59552 -2.89076 0
M  V30 8359 H 804.5 0.600906 -4.57369 0
M  V30 8360 H 802.743 0.496198 -4.30953 0
M  V30 8361 H 803.414 1.87014 -5.19355 0
M  V30 8362 H 805.89 2.45693 -3.35819 0
M  V30 8363 H 804.766 3.58887 -4.15321 0
M  V30 8364 H 805.027 3.70003 -2.41971 0
M  V30 8365 N 804.086 1.46499 0.581025 0
M  V30 8366 C 805.311 1.55708 1.37002 0
M  V30 8367 C 805.736 0.19942 1.8704 0
M  V30 8368 O 805.094 -0.820731 1.61659 0
M  V30 8369 C 805.142 2.56716 2.53238 0
M  V30 8370 O 804.246 2.10336 3.54729 0
M  V30 8371 H 803.587 0.523912 0.407937 0
M  V30 8372 H 806.117 1.92085 0.704602 0
M  V30 8373 H 806.127 2.76378 3.00132 0
M  V30 8374 H 804.802 3.55307 2.16171 0
M  V30 8375 H 803.379 2.00669 3.14303 0
M  V30 8376 N 805.565 -0.825799 1.34232 0
M  V30 8377 C 806.495 -1.95151 1.28212 0
M  V30 8378 C 807.476 -1.69345 0.160123 0
M  V30 8379 O 808.661 -1.90983 0.352019 0
M  V30 8380 C 805.791 -3.31554 1.03388 0
M  V30 8381 C 804.745 -3.71793 2.12023 0
M  V30 8382 C 804.071 -5.06147 1.72392 0
M  V30 8383 C 805.371 -3.84193 3.53826 0
M  V30 8384 H 807.065 -2.00445 2.22401 0
M  V30 8385 H 804.611 -0.962996 1.07063 0
M  V30 8386 H 806.564 -4.09889 0.978225 0
M  V30 8387 H 805.288 -3.26551 0.0564142 0
M  V30 8388 H 803.947 -2.95731 2.16654 0
M  V30 8389 H 803.595 -4.97628 0.733137 0
M  V30 8390 H 803.295 -5.34041 2.451 0
M  V30 8391 H 804.819 -5.86943 1.68317 0
M  V30 8392 H 806.233 -4.52806 3.51624 0
M  V30 8393 H 804.63 -4.23538 4.2513 0
M  V30 8394 H 805.7 -2.86272 3.91377 0
M  V30 8395 N 807.043 -1.17915 -1.04565 0
M  V30 8396 C 808.283 -0.982331 -1.79247 0
M  V30 8397 C 808.647 0.47998 -1.85904 0
M  V30 8398 O 809.848 0.796078 -2.56741 0
M  V30 8399 C 808.119 -1.61329 -3.18916 0
M  V30 8400 S 809.678 -1.56355 -4.09998 0
M  V30 8401 H 806.496 -0.352869 -0.617256 0
M  V30 8402 H 809.098 -1.49971 -1.25415 0
M  V30 8403 H 807.802 -2.66993 -3.11678 0
M  V30 8404 H 807.333 -1.09599 -3.77825 0
M  V30 8405 H 809.348 -0.57593 -4.92846 0
M  V30 8406 N 808.521 1.23394 -0.980386 0
M  V30 8407 C 809.749 1.95844 -0.667286 0
M  V30 8408 C 810.164 1.72574 0.765735 0
M  V30 8409 O 809.521 1.01715 1.51526 0
M  V30 8410 C 809.572 3.48844 -0.948151 0
M  V30 8411 O 809.293 3.71325 -2.32485 0
M  V30 8412 C 810.794 4.38494 -0.651002 0
M  V30 8413 H 808.014 0.623535 -0.247882 0
M  V30 8414 H 810.558 1.56885 -1.31176 0
M  V30 8415 H 808.713 3.85819 -0.349681 0
M  V30 8416 H 809.127 4.65619 -2.41452 0
M  V30 8417 H 810.601 5.44648 -0.897887 0
M  V30 8418 H 811.078 4.37236 0.414922 0
M  V30 8419 H 811.684 4.07127 -1.22995 0
M  V30 8420 N 809.999 0.752036 1.385 0
M  V30 8421 C 810.962 0.131587 2.28822 0
M  V30 8422 C 811.962 -0.649149 1.47115 0
M  V30 8423 O 813.152 -0.475645 1.67581 0
M  V30 8424 C 810.284 -0.822101 3.30839 0
M  V30 8425 H 811.477 0.927551 2.85196 0
M  V30 8426 H 809.03 0.518945 1.47434 0
M  V30 8427 H 809.765 -1.6438 2.79553 0
M  V30 8428 H 809.55 -0.264689 3.91206 0
M  V30 8429 H 811.04 -1.25226 3.98382 0
M  V30 8430 N 811.477 -1.49425 0.500989 0
M  V30 8431 C 812.888 -1.86624 0.0532011 0
M  V30 8432 C 813.239 -1.41331 -1.36088 0
M  V30 8433 O 812.364 -0.791195 -2.01418 0
M  V30 8434 C 812.959 -3.38681 0.0897693 0
M  V30 8435 C 811.518 -3.75181 -0.302677 0
M  V30 8436 C 810.665 -2.73419 0.462307 0
M  V30 8437 H 813.616 -1.41743 0.713773 0
M  V30 8438 H 813.637 -3.73902 -0.705528 0
M  V30 8439 H 813.149 -3.71616 1.11907 0
M  V30 8440 H 811.25 -3.47855 -1.33521 0
M  V30 8441 H 811.363 -4.79097 0.0167653 0
M  V30 8442 H 809.727 -2.54548 -0.0878557 0
M  V30 8443 H 810.51 -3.09198 1.49169 0
M  V30 8444 N 812.955 -0.234822 -1.55841 0
M  V30 8445 C 814.204 0.393685 -1.97821 0
M  V30 8446 C 814.517 1.59947 -1.1259 0
M  V30 8447 O 815.723 2.29835 -1.44528 0
M  V30 8448 C 814.179 0.751811 -3.5196 0
M  V30 8449 C 813.787 -0.431898 -4.45913 0
M  V30 8450 C 815.531 1.34518 -4.02623 0
M  V30 8451 C 813.438 -0.0505976 -5.91378 0
M  V30 8452 H 812.368 0.150864 -0.738753 0
M  V30 8453 H 815.019 -0.333132 -1.80451 0
M  V30 8454 H 813.401 1.53642 -3.6498 0
M  V30 8455 H 814.575 -1.20935 -4.44647 0
M  V30 8456 H 812.89 -0.939385 -4.05666 0
M  V30 8457 H 815.487 1.64359 -5.08813 0
M  V30 8458 H 815.83 2.26554 -3.49255 0
M  V30 8459 H 816.363 0.623729 -3.9288 0
M  V30 8460 H 813.102 -0.937779 -6.48757 0
M  V30 8461 H 812.622 0.690898 -5.95808 0
M  V30 8462 H 814.301 0.37146 -6.45933 0
M  V30 8463 N 814.433 1.57553 0.0384317 0
M  V30 8464 C 815.844 1.77258 0.586211 0
M  V30 8465 C 816.195 0.864706 1.76117 0
M  V30 8466 O 815.32 0.057141 2.16325 0
M  V30 8467 C 815.915 3.21453 1.07021 0
M  V30 8468 C 814.474 3.42387 1.56358 0
M  V30 8469 C 813.621 2.72801 0.497508 0
M  V30 8470 H 816.572 1.57585 -0.187796 0
M  V30 8471 H 816.593 3.27451 1.93794 0
M  V30 8472 H 816.105 3.87505 0.214851 0
M  V30 8473 H 814.206 2.81497 2.44111 0
M  V30 8474 H 814.319 4.50968 1.61754 0
M  V30 8475 H 812.683 2.36305 0.95038 0
M  V30 8476 H 813.466 3.41529 -0.348234 0
M  V30 8477 N 815.911 -0.310526 1.54511 0
M  V30 8478 C 817.327 -0.655637 1.45511 0
M  V30 8479 C 817.527 -1.91114 0.638564 0
M  V30 8480 O 816.583 -2.52098 0.142497 0
M  V30 8481 C 817.896 -0.817501 2.89374 0
M  V30 8482 C 819.444 -0.914003 2.99358 0
M  V30 8483 C 819.919 -1.10794 4.44397 0
M  V30 8484 N 821.41 -1.17437 4.48066 0
M  V30 8485 C 822.145 -1.34255 5.57461 0
M  V30 8486 N 821.641 -1.48032 6.768 0
M  V30 8487 N 823.434 -1.37067 5.45132 0
M  V30 8488 H 815.585 0.514506 2.06074 0
M  V30 8489 H 817.848 0.168478 0.932909 0
M  V30 8490 H 817.554 0.034003 3.51684 0
M  V30 8491 H 817.428 -1.7094 3.36243 0
M  V30 8492 H 819.815 -1.756 2.37168 0
M  V30 8493 H 819.896 0.00170958 2.558 0
M  V30 8494 H 819.54 -0.270743 5.07178 0
M  V30 8495 H 819.47 -2.03773 4.85576 0
M  V30 8496 H 821.961 -1.08181 3.62084 0
M  V30 8497 H 822.274 -1.60593 7.5593 0
M  V30 8498 H 820.619 -1.45105 6.79683 0
M  V30 8499 H 823.81 -1.25909 4.50849 0
M  V30 8500 H 823.983 -1.49831 6.3044 0
M  V30 8501 N 817.389 -1.46805 -0.573248 0
M  V30 8502 C 818.336 -1.58084 -1.68161 0
M  V30 8503 C 819.306 -0.424636 -1.6058 0
M  V30 8504 O 820.491 -0.642623 -1.79652 0
M  V30 8505 C 817.631 -1.58601 -3.06496 0
M  V30 8506 C 816.744 -2.85023 -3.24632 0
M  V30 8507 C 815.879 -2.76981 -4.53271 0
M  V30 8508 C 814.918 -3.983 -4.64783 0
M  V30 8509 N 814.055 -3.88589 -5.84759 0
M  V30 8510 H 818.895 -2.52755 -1.57858 0
M  V30 8511 H 816.432 -1.25385 -0.769218 0
M  V30 8512 H 818.39 -1.56885 -3.86579 0
M  V30 8513 H 817.02 -0.674553 -3.15673 0
M  V30 8514 H 816.072 -2.96678 -2.38089 0
M  V30 8515 H 817.384 -3.7491 -3.29004 0
M  V30 8516 H 816.538 -2.73424 -5.41594 0
M  V30 8517 H 815.277 -1.84751 -4.51352 0
M  V30 8518 H 814.282 -4.02179 -3.74876 0
M  V30 8519 H 815.507 -4.91639 -4.68474 0
M  V30 8520 H 813.453 -2.99151 -5.83819 0
M  V30 8521 H 813.37 -4.7214 -5.90441 0
M  V30 8522 H 814.638 -3.89022 -6.75486 0
M  V30 8523 N 818.867 0.818669 -1.34668 0
M  V30 8524 C 819.817 1.91882 -1.23147 0
M  V30 8525 C 820.801 1.60378 -0.129509 0
M  V30 8526 O 821.993 1.73309 -0.359581 0
M  V30 8527 C 819.122 3.28612 -0.993436 0
M  V30 8528 C 818.208 3.66221 -2.13876 0
M  V30 8529 N 818.599 3.75361 -3.39024 0
M  V30 8530 C 816.897 3.96098 -2.04994 0
M  V30 8531 C 817.598 4.0836 -4.14266 0
M  V30 8532 N 816.574 4.21806 -3.429 0
M  V30 8533 H 820.376 1.97133 -2.17981 0
M  V30 8534 H 817.89 1.01257 -1.26967 0
M  V30 8535 H 819.887 4.0725 -0.891797 0
M  V30 8536 H 818.547 3.24655 -0.053824 0
M  V30 8537 H 819.558 3.58747 -3.73525 0
M  V30 8538 H 816.235 4.00236 -1.18816 0
M  V30 8539 H 817.625 4.226 -5.22359 0
M  V30 8540 N 820.346 1.18468 1.03938 0
M  V30 8541 C 821.276 0.936389 2.13902 0
M  V30 8542 C 822.257 -0.126381 1.6963 0
M  V30 8543 O 823.442 0.0264757 1.94182 0
M  V30 8544 C 820.572 0.462729 3.44204 0
M  V30 8545 C 819.526 1.46613 4.02105 0
M  V30 8546 C 818.852 0.84994 5.27902 0
M  V30 8547 C 820.152 2.84323 4.3813 0
M  V30 8548 H 821.846 1.85602 2.3493 0
M  V30 8549 H 819.392 0.893806 1.12903 0
M  V30 8550 H 821.345 0.276382 4.20493 0
M  V30 8551 H 820.069 -0.492477 3.22866 0
M  V30 8552 H 818.728 1.63944 3.27899 0
M  V30 8553 H 818.376 -0.112493 5.02874 0
M  V30 8554 H 818.076 1.51988 5.67603 0
M  V30 8555 H 819.6 0.674152 6.06867 0
M  V30 8556 H 821.014 2.70636 5.054 0
M  V30 8557 H 819.411 3.48012 4.88884 0
M  V30 8558 H 820.481 3.37776 3.47901 0
M  V30 8559 N 821.824 -1.22873 0.986916 0
M  V30 8560 C 822.774 -2.2237 0.503547 0
M  V30 8561 C 823.758 -1.55186 -0.424998 0
M  V30 8562 O 824.95 -1.75186 -0.252791 0
M  V30 8563 C 822.079 -3.42794 -0.186355 0
M  V30 8564 C 821.165 -4.17196 0.762143 0
M  V30 8565 N 821.556 -4.68453 1.9075 0
M  V30 8566 C 819.854 -4.42255 0.576797 0
M  V30 8567 C 820.555 -5.25126 2.50235 0
M  V30 8568 N 819.531 -5.13437 1.7856 0
M  V30 8569 H 823.333 -2.59636 1.37718 0
M  V30 8570 H 820.847 -1.38476 0.848415 0
M  V30 8571 H 822.844 -4.13256 -0.549993 0
M  V30 8572 H 821.504 -3.07042 -1.05619 0
M  V30 8573 H 822.515 -4.64595 2.28848 0
M  V30 8574 H 819.192 -4.16766 -0.247474 0
M  V30 8575 H 820.582 -5.75363 3.46997 0
M  V30 8576 N 823.302 -0.75937 -1.38099 0
M  V30 8577 C 824.718 -0.437606 -1.53483 0
M  V30 8578 C 824.918 1.04849 -1.72072 0
M  V30 8579 O 823.974 1.83448 -1.73502 0
M  V30 8580 C 825.287 -1.24189 -2.73857 0
M  V30 8581 C 826.835 -1.23255 -2.8771 0
M  V30 8582 C 827.31 -2.01992 -4.11051 0
M  V30 8583 N 828.801 -1.99282 -4.1814 0
M  V30 8584 C 829.536 -2.56996 -5.12583 0
M  V30 8585 N 829.032 -3.23446 -6.12662 0
M  V30 8586 N 830.825 -2.46894 -5.04975 0
M  V30 8587 H 822.976 -1.72242 -1.24283 0
M  V30 8588 H 825.239 -0.730507 -0.604205 0
M  V30 8589 H 824.945 -2.29449 -2.66545 0
M  V30 8590 H 824.819 -0.862672 -3.67203 0
M  V30 8591 H 827.206 -0.187988 -2.94501 0
M  V30 8592 H 827.287 -1.65132 -1.95359 0
M  V30 8593 H 826.931 -3.06462 -4.05023 0
M  V30 8594 H 826.861 -1.57505 -5.02494 0
M  V30 8595 H 829.352 -1.50893 -3.46467 0
M  V30 8596 H 829.665 -3.6489 -6.81231 0
M  V30 8597 H 828.01 -3.27543 -6.12977 0
M  V30 8598 H 831.201 -1.94604 -4.25731 0
M  V30 8599 H 831.374 -2.92168 -5.78396 0
M  V30 8600 N 824.78 1.49157 -0.508906 0
M  V30 8601 C 825.71 2.32109 0.254469 0
M  V30 8602 C 826.691 1.40754 0.955111 0
M  V30 8603 O 827.876 1.69658 0.944983 0
M  V30 8604 C 825.006 3.21458 1.3146 0
M  V30 8605 C 823.96 4.2167 0.733368 0
M  V30 8606 C 823.286 5.00009 1.8946 0
M  V30 8607 C 824.586 5.21544 -0.280875 0
M  V30 8608 H 826.28 2.9618 -0.43795 0
M  V30 8609 H 823.826 1.4243 -0.212062 0
M  V30 8610 H 825.779 3.78305 1.85643 0
M  V30 8611 H 824.503 2.55346 2.03632 0
M  V30 8612 H 823.162 3.65979 0.213231 0
M  V30 8613 H 822.81 4.30338 2.60419 0
M  V30 8614 H 822.51 5.67821 1.51173 0
M  V30 8615 H 824.034 5.59702 2.44061 0
M  V30 8616 H 825.448 5.73039 0.173095 0
M  V30 8617 H 823.845 5.97291 -0.580006 0
M  V30 8618 H 824.915 4.69969 -1.19404 0
M  V30 8619 N 826.258 0.243083 1.55714 0
M  V30 8620 C 827.504 -0.383287 1.99145 0
M  V30 8621 C 827.837 -1.57868 1.13098 0
M  V30 8622 O 827.112 -1.93535 0.193509 0
M  V30 8623 C 827.395 -0.796879 3.51172 0
M  V30 8624 C 827.248 0.403642 4.47985 0
M  V30 8625 C 828.567 -1.64525 4.08191 0
M  V30 8626 H 825.686 -0.137843 0.723995 0
M  V30 8627 H 828.328 0.343631 1.86867 0
M  V30 8628 H 826.478 -1.41625 3.61766 0
M  V30 8629 H 828.15 1.04204 4.49376 0
M  V30 8630 H 826.393 1.04741 4.20965 0
M  V30 8631 H 827.064 0.0709794 5.51954 0
M  V30 8632 H 829.54 -1.12246 4.00674 0
M  V30 8633 H 828.416 -1.9035 5.14838 0
M  V30 8634 H 828.677 -2.61582 3.56409 0
M  V30 8635 N 827.736 -1.57571 -0.0300757 0
M  V30 8636 C 828.983 -1.89226 -0.721091 0
M  V30 8637 C 829.311 -0.840244 -1.75414 0
M  V30 8638 O 828.566 0.158906 -1.95054 0
M  V30 8639 C 828.865 -3.27624 -1.42818 0
M  V30 8640 C 828.531 -4.4776 -0.531208 0
M  V30 8641 C 827.193 -4.8036 -0.28415 0
M  V30 8642 C 829.545 -5.21125 0.0881582 0
M  V30 8643 C 826.873 -5.83715 0.591065 0
M  V30 8644 C 829.225 -6.2541 0.95107 0
M  V30 8645 C 827.889 -6.56486 1.2076 0
M  V30 8646 H 827.159 -0.692428 -0.263866 0
M  V30 8647 H 829.806 -1.91491 0.0189874 0
M  V30 8648 H 828.111 -3.21343 -2.24155 0
M  V30 8649 H 829.808 -3.49365 -1.96838 0
M  V30 8650 H 826.398 -4.2227 -0.73392 0
M  V30 8651 H 830.582 -4.96219 -0.0897496 0
M  V30 8652 H 825.838 -6.06168 0.798132 0
M  V30 8653 H 830.012 -6.81402 1.43751 0
M  V30 8654 H 827.639 -7.36395 1.88751 0
M  V30 8655 N 829.214 0.302327 -1.54673 0
M  V30 8656 C 830.439 1.06103 -1.78205 0
M  V30 8657 C 830.864 1.80204 -0.53926 0
M  V30 8658 O 830.222 1.73975 0.510142 0
M  V30 8659 C 830.27 2.01829 -2.98827 0
M  V30 8660 O 829.374 3.10108 -2.71858 0
M  V30 8661 H 828.715 0.30487 -0.589873 0
M  V30 8662 H 831.245 0.340153 -2.01753 0
M  V30 8663 H 831.255 2.44319 -3.2676 0
M  V30 8664 H 829.93 1.473 -3.88942 0
M  V30 8665 H 828.507 2.72142 -2.54937 0
M  V30 8666 N 830.692 1.47107 0.565454 0
M  V30 8667 C 831.622 1.61846 1.68309 0
M  V30 8668 C 832.603 0.468159 1.63531 0
M  V30 8669 O 833.788 0.696504 1.8128 0
M  V30 8670 C 830.918 1.62474 3.06952 0
M  V30 8671 C 829.872 2.76649 3.26572 0
M  V30 8672 C 829.198 2.62345 4.65917 0
M  V30 8673 C 830.498 4.18319 3.12741 0
M  V30 8674 H 832.192 2.55407 1.5623 0
M  V30 8675 H 829.738 1.22916 0.750179 0
M  V30 8676 H 831.691 1.71378 3.84977 0
M  V30 8677 H 830.415 0.654692 3.19971 0
M  V30 8678 H 829.074 2.67242 2.50952 0
M  V30 8679 H 828.722 1.63386 4.75725 0
M  V30 8680 H 828.422 3.38936 4.79996 0
M  V30 8681 H 829.946 2.73165 5.46089 0
M  V30 8682 H 831.36 4.28745 3.80593 0
M  V30 8683 H 829.757 4.95632 3.38333 0
M  V30 8684 H 830.827 4.37263 2.09592 0
M  V30 8685 N 832.17 -0.811516 1.35101 0
M  V30 8686 C 833.586 -1.10634 1.15031 0
M  V30 8687 C 833.786 -2.01459 -0.0405379 0
M  V30 8688 O 832.842 -2.42235 -0.712635 0
M  V30 8689 C 834.155 -1.74207 2.45097 0
M  V30 8690 C 835.703 -1.8665 2.51258 0
M  V30 8691 C 836.178 -2.53638 3.81355 0
M  V30 8692 N 837.669 -2.61128 3.82579 0
M  V30 8693 C 838.404 -3.13717 4.79968 0
M  V30 8694 N 837.9 -3.66782 5.87744 0
M  V30 8695 N 839.693 -3.12224 4.67411 0
M  V30 8696 H 831.844 -0.207641 2.11383 0
M  V30 8697 H 834.107 -0.154697 0.935293 0
M  V30 8698 H 833.813 -1.14936 3.32389 0
M  V30 8699 H 833.687 -2.73958 2.59281 0
M  V30 8700 H 836.074 -2.45066 1.64398 0
M  V30 8701 H 836.155 -0.857678 2.40993 0
M  V30 8702 H 835.799 -1.95873 4.68611 0
M  V30 8703 H 835.729 -3.55047 3.88907 0
M  V30 8704 H 838.22 -2.23527 3.04703 0
M  V30 8705 H 838.533 -4.05194 6.58056 0
M  V30 8706 H 836.878 -3.64994 5.91443 0
M  V30 8707 H 840.069 -2.70042 3.82354 0
M  V30 8708 H 840.242 -3.52903 5.43474 0
M  V30 8709 N 833.648 -1.19017 -1.03309 0
M  V30 8710 C 834.598 -0.89194 -2.0983 0
M  V30 8711 C 835.582 0.14151 -1.60277 0
M  V30 8712 O 836.774 -0.0635946 -1.76886 0
M  V30 8713 C 833.903 -0.427793 -3.40624 0
M  V30 8714 C 832.989 -1.49374 -3.96923 0
M  V30 8715 N 833.38 -2.71213 -4.26939 0
M  V30 8716 C 831.678 -1.35605 -4.24885 0
M  V30 8717 C 832.379 -3.39849 -4.72099 0
M  V30 8718 N 831.355 -2.67239 -4.73375 0
M  V30 8719 H 835.157 -1.81801 -2.30923 0
M  V30 8720 H 832.671 -1.08171 -1.21131 0
M  V30 8721 H 834.668 -0.195608 -4.16441 0
M  V30 8722 H 833.328 0.491848 -3.20953 0
M  V30 8723 H 834.339 -3.08014 -4.16351 0
M  V30 8724 H 831.016 -0.499537 -4.14501 0
M  V30 8725 H 832.406 -4.44018 -5.04279 0
M  V30 8726 N 835.127 1.22348 -0.993418 0
M  V30 8727 C 836.352 1.95666 -0.687727 0
M  V30 8728 C 836.777 1.72883 0.741161 0
M  V30 8729 O 836.135 1.00837 1.50671 0
M  V30 8730 C 836.183 3.46457 -0.99998 0
M  V30 8731 O 835.287 4.12281 -0.0989386 0
M  V30 8732 H 834.628 0.612102 -0.257346 0
M  V30 8733 H 837.158 1.55428 -1.33054 0
M  V30 8734 H 837.168 3.96976 -0.942035 0
M  V30 8735 H 835.843 3.62365 -2.04118 0
M  V30 8736 H 834.42 3.72295 -0.212413 0
M  V30 8737 N 836.605 0.766683 1.37694 0
M  V30 8738 C 837.552 0.147725 2.30327 0
M  V30 8739 C 838.522 -0.695366 1.50844 0
M  V30 8740 O 839.707 -0.64878 1.79431 0
M  V30 8741 C 836.847 -0.72935 3.37305 0
M  V30 8742 C 835.96 0.129795 4.31805 0
M  V30 8743 C 835.095 -0.751511 5.25857 0
M  V30 8744 C 834.134 0.110475 6.12 0
M  V30 8745 N 833.271 -0.728522 6.9831 0
M  V30 8746 H 838.111 0.943204 2.82679 0
M  V30 8747 H 835.648 0.476736 1.3916 0
M  V30 8748 H 837.606 -1.25263 3.97951 0
M  V30 8749 H 836.236 -1.49048 2.86329 0
M  V30 8750 H 835.288 0.770829 3.72508 0
M  V30 8751 H 836.6 0.794923 4.92425 0
M  V30 8752 H 835.754 -1.34146 5.91684 0
M  V30 8753 H 834.493 -1.45034 4.65636 0
M  V30 8754 H 833.498 0.712999 5.45157 0
M  V30 8755 H 834.723 0.806557 6.74293 0
M  V30 8756 H 832.669 -1.41206 6.40622 0
M  V30 8757 H 832.586 -0.12058 7.55904 0
M  V30 8758 H 833.854 -1.30303 7.68532 0
M  V30 8759 N 838.083 -1.48885 0.516809 0
M  V30 8760 C 838.993 -2.33185 -0.257293 0
M  V30 8761 C 840.009 -1.4565 -0.951952 0
M  V30 8762 O 841.185 -1.78651 -0.929834 0
M  V30 8763 C 838.25 -3.21465 -1.29851 0
M  V30 8764 C 837.311 -4.24863 -0.615608 0
M  V30 8765 C 836.544 -5.08925 -1.60722 0
M  V30 8766 O 836.767 -4.9475 -2.83863 0
M  V30 8767 O 835.701 -5.90737 -1.15384 0
M  V30 8768 H 839.527 -3.00596 0.433131 0
M  V30 8769 H 837.112 -1.46792 0.277908 0
M  V30 8770 H 838.994 -3.76108 -1.90055 0
M  V30 8771 H 837.669 -2.5673 -1.97158 0
M  V30 8772 H 836.576 -3.74091 0.0265829 0
M  V30 8773 H 837.909 -4.92198 0.0152871 0
M  V30 8774 N 839.561 -0.251338 -1.55583 0
M  V30 8775 C 840.471 0.656978 -2.25213 0
M  V30 8776 C 841.487 1.18966 -1.26977 0
M  V30 8777 O 842.663 1.22499 -1.59862 0
M  V30 8778 C 839.728 1.83527 -2.94141 0
M  V30 8779 C 838.789 1.34162 -4.07798 0
M  V30 8780 C 838.022 2.46375 -4.73429 0
M  V30 8781 O 838.245 3.65205 -4.38157 0
M  V30 8782 O 837.179 2.15881 -5.61853 0
M  V30 8783 H 841.005 0.0936395 -3.03556 0
M  V30 8784 H 838.59 -0.0196638 -1.49387 0
M  V30 8785 H 840.472 2.52279 -3.3754 0
M  V30 8786 H 839.147 2.38614 -2.18735 0
M  V30 8787 H 838.054 0.621249 -3.68906 0
M  V30 8788 H 839.387 0.836779 -4.85035 0
M  V30 8789 N 841.039 1.57585 0.0217189 0
M  V30 8790 C 842.455 1.55072 0.377484 0
M  V30 8791 C 842.655 0.978423 1.76151 0
M  V30 8792 O 841.711 0.602688 2.45202 0
M  V30 8793 C 843.024 2.99462 0.272605 0
M  V30 8794 C 844.572 3.11047 0.349148 0
M  V30 8795 C 845.047 4.57182 0.273636 0
M  V30 8796 N 846.538 4.62007 0.332206 0
M  V30 8797 C 847.273 5.72631 0.296782 0
M  V30 8798 N 846.769 6.92472 0.21322 0
M  V30 8799 N 848.562 5.61028 0.347053 0
M  V30 8800 H 840.713 1.93133 -0.883925 0
M  V30 8801 H 842.976 0.886151 -0.33681 0
M  V30 8802 H 842.682 3.45088 -0.67878 0
M  V30 8803 H 842.556 3.61901 1.06335 0
M  V30 8804 H 844.943 2.65364 1.29097 0
M  V30 8805 H 845.024 2.51425 -0.471085 0
M  V30 8806 H 844.668 5.03534 -0.664548 0
M  V30 8807 H 844.598 5.14724 1.11207 0
M  V30 8808 H 847.089 3.75788 0.399003 0
M  V30 8809 H 847.402 7.72563 0.191492 0
M  V30 8810 H 845.747 6.94769 0.179161 0
M  V30 8811 H 848.938 4.66298 0.410378 0
M  V30 8812 H 849.111 6.47229 0.315979 0
M  V30 8813 N 842.517 -0.29412 1.54831 0
M  V30 8814 C 843.427 -1.3854 1.89325 0
M  V30 8815 C 844.443 -1.55127 0.788133 0
M  V30 8816 O 845.619 -1.6966 1.08524 0
M  V30 8817 C 842.684 -2.72809 2.13954 0
M  V30 8818 C 841.745 -2.65148 3.37631 0
M  V30 8819 C 840.978 -3.93014 3.61076 0
M  V30 8820 O 841.201 -4.927 2.87406 0
M  V30 8821 O 840.135 -3.94491 4.54599 0
M  V30 8822 H 843.961 -1.12289 2.82179 0
M  V30 8823 H 841.546 -0.490793 1.41108 0
M  V30 8824 H 843.428 -3.52238 2.31315 0
M  V30 8825 H 842.103 -2.9889 1.24285 0
M  V30 8826 H 841.01 -1.84168 3.25627 0
M  V30 8827 H 842.343 -2.4402 4.27452 0
M  V30 8828 N 843.995 -1.47404 -0.557645 0
M  V30 8829 C 845.272 -1.44488 -1.31843 0
M  V30 8830 C 845.652 -0.1416 -2.10625 0
M  V30 8831 O 845 0.876908 -2.11004 0
M  V30 8832 C 845.21 -2.69016 -2.22331 0
M  V30 8833 C 846.558 -3.16212 -2.83364 0
M  V30 8834 O 847.582 -2.69741 -2.32634 0
M  V30 8835 O 846.441 -3.96999 -3.75571 0
M  V30 8836 H 843.535 -0.57578 -0.593639 0
M  V30 8837 H 846.081 -1.59605 -0.576584 0
M  V30 8838 H 844.853 -3.55406 -1.63715 0
M  V30 8839 H 844.476 -2.56484 -3.03812 0
M  V30 8840 N 845.473 0.80434 -1.35529 0
M  V30 8841 C 846.403 1.93086 -1.31301 0
M  V30 8842 C 847.384 1.69068 -0.187044 0
M  V30 8843 O 848.569 1.90399 -0.382359 0
M  V30 8844 C 845.699 3.29867 -1.0865 0
M  V30 8845 C 844.653 3.68373 -2.17911 0
M  V30 8846 C 843.979 5.0334 -1.80423 0
M  V30 8847 C 845.279 3.78516 -3.59893 0
M  V30 8848 H 846.973 1.96882 -2.25561 0
M  V30 8849 H 844.519 0.945841 -1.08581 0
M  V30 8850 H 846.472 4.08281 -1.04331 0
M  V30 8851 H 845.196 3.2642 -0.108359 0
M  V30 8852 H 843.855 2.92247 -2.21331 0
M  V30 8853 H 843.503 4.96399 -0.812213 0
M  V30 8854 H 843.203 5.30074 -2.53565 0
M  V30 8855 H 844.727 5.84191 -1.77633 0
M  V30 8856 H 846.141 4.47155 -3.58783 0
M  V30 8857 H 844.538 4.16721 -4.31814 0
M  V30 8858 H 845.608 2.8001 -3.95882 0
M  V30 8859 N 846.951 1.19563 1.02676 0
M  V30 8860 C 848.228 0.908857 1.73203 0
M  V30 8861 C 848.608 -0.584928 2.02834 0
M  V30 8862 O 847.956 -1.54372 1.68469 0
M  V30 8863 C 848.166 1.77105 3.00724 0
M  V30 8864 C 849.514 2.00667 3.7419 0
M  V30 8865 O 850.538 1.74274 3.10656 0
M  V30 8866 O 849.397 2.4518 4.88415 0
M  V30 8867 H 846.491 0.338909 0.754367 0
M  V30 8868 H 849.037 1.30387 1.08616 0
M  V30 8869 H 847.809 2.78303 2.7507 0
M  V30 8870 H 847.432 1.37546 3.73051 0
M  V30 8871 N 848.429 -1.21819 0.999893 0
M  V30 8872 C 849.392 -2.22227 0.561044 0
M  V30 8873 C 850.392 -1.56722 -0.359858 0
M  V30 8874 O 851.582 -1.73546 -0.150848 0
M  V30 8875 C 848.714 -3.40409 -0.182987 0
M  V30 8876 H 849.907 -2.62567 1.44909 0
M  V30 8877 H 847.46 -1.34991 0.78785 0
M  V30 8878 H 848.195 -3.05551 -1.08671 0
M  V30 8879 H 847.98 -3.89171 0.47833 0
M  V30 8880 H 849.47 -4.14856 -0.477952 0
M  V30 8881 N 849.908 -0.773975 -1.37286 0
M  V30 8882 C 851.185 -0.263942 -1.93811 0
M  V30 8883 C 851.565 1.24138 -1.70743 0
M  V30 8884 O 850.913 2.02557 -1.05749 0
M  V30 8885 C 851.123 -0.639753 -3.43086 0
M  V30 8886 C 852.471 -0.610796 -4.20184 0
M  V30 8887 O 853.495 -0.579278 -3.51458 0
M  V30 8888 O 852.354 -0.639862 -5.42741 0
M  V30 8889 H 849.448 -0.0614331 -0.824715 0
M  V30 8890 H 851.994 -0.855477 -1.46559 0
M  V30 8891 H 850.766 -1.67856 -3.53469 0
M  V30 8892 H 850.389 -0.0212827 -3.97594 0
M  V30 8893 N 851.386 1.48609 -0.524698 0
M  V30 8894 C 852.296 2.33318 0.244923 0
M  V30 8895 C 853.312 1.46153 0.944214 0
M  V30 8896 O 854.488 1.79141 0.920347 0
M  V30 8897 C 851.553 3.22149 1.28144 0
M  V30 8898 C 850.614 4.25184 0.593068 0
M  V30 8899 C 849.847 5.0977 1.5802 0
M  V30 8900 O 850.07 4.96249 2.81235 0
M  V30 8901 O 849.004 5.9134 1.1225 0
M  V30 8902 H 852.83 3.00362 -0.449066 0
M  V30 8903 H 850.415 1.46643 -0.285689 0
M  V30 8904 H 852.297 3.77111 1.88057 0
M  V30 8905 H 850.972 2.57772 1.95793 0
M  V30 8906 H 849.879 3.74071 -0.0464214 0
M  V30 8907 H 851.212 4.92183 -0.0413893 0
M  V30 8908 N 852.864 0.259585 1.55447 0
M  V30 8909 C 853.796 -0.667548 2.19263 0
M  V30 8910 C 854.809 -1.12925 1.17268 0
M  V30 8911 O 855.998 -1.05384 1.44071 0
M  V30 8912 C 853.098 -1.92066 2.7922 0
M  V30 8913 C 852.271 -1.60832 4.06758 0
M  V30 8914 C 851.33 -2.71231 4.50911 0
M  V30 8915 O 850.356 -2.38077 5.17019 0
M  V30 8916 N 851.558 -4.00984 4.19752 0
M  V30 8917 H 854.323 -0.121449 2.99454 0
M  V30 8918 H 851.884 0.0800519 1.61702 0
M  V30 8919 H 853.876 -2.65186 3.0571 0
M  V30 8920 H 852.446 -2.37621 2.03113 0
M  V30 8921 H 851.666 -0.711685 3.87722 0
M  V30 8922 H 852.954 -1.37445 4.89884 0
M  V30 8923 H 852.352 -4.30748 3.66706 0
M  V30 8924 H 850.909 -4.7053 4.51048 0
M  V30 8925 N 854.342 -1.57594 -0.0133615 0
M  V30 8926 C 855.274 -2.04402 -1.03695 0
M  V30 8927 C 856.287 -0.959546 -1.31516 0
M  V30 8928 O 857.476 -1.23659 -1.28727 0
M  V30 8929 C 854.576 -2.41766 -2.37491 0
M  V30 8930 C 853.749 -3.72785 -2.28802 0
M  V30 8931 C 852.808 -3.97165 -3.45176 0
M  V30 8932 O 851.834 -4.68013 -3.23963 0
M  V30 8933 N 853.036 -3.44021 -4.67579 0
M  V30 8934 H 855.801 -2.92833 -0.637874 0
M  V30 8935 H 853.362 -1.60647 -0.20101 0
M  V30 8936 H 855.354 -2.55201 -3.14093 0
M  V30 8937 H 853.924 -1.58924 -2.69188 0
M  V30 8938 H 853.144 -3.69555 -1.37197 0
M  V30 8939 H 854.432 -4.58704 -2.20154 0
M  V30 8940 H 853.83 -2.86623 -4.87713 0
M  V30 8941 H 852.387 -3.62808 -5.41492 0
M  V30 8942 N 855.82 0.285905 -1.54985 0
M  V30 8943 C 857.068 1.01718 -1.74636 0
M  V30 8944 C 857.389 1.87277 -0.543342 0
M  V30 8945 O 856.659 1.90847 0.442078 0
M  V30 8946 H 855.239 0.378549 -0.643979 0
M  V30 8947 H 857.901 0.313247 -1.92366 0
M  V30 8948 H 856.997 1.66159 -2.64192 0
M  V30 8949 N 857.298 1.47698 0.54982 0
M  V30 8950 C 858.523 1.58579 1.33669 0
M  V30 8951 C 858.948 0.239049 1.86575 0
M  V30 8952 O 858.306 -0.786256 1.63364 0
M  V30 8953 C 858.354 2.62029 2.47736 0
M  V30 8954 O 857.458 2.17813 3.50188 0
M  V30 8955 H 856.799 0.532447 0.396732 0
M  V30 8956 H 859.329 1.93536 0.6637 0
M  V30 8957 H 859.339 2.82682 2.94202 0
M  V30 8958 H 858.014 3.59812 2.08586 0
M  V30 8959 H 856.591 2.07291 3.09976 0
M  V30 8960 N 858.776 -0.797141 1.35954 0
M  V30 8961 C 860.001 -1.59097 1.33053 0
M  V30 8962 C 860.426 -1.87897 -0.0874592 0
M  V30 8963 O 859.784 -1.47291 -1.05712 0
M  V30 8964 C 859.832 -2.89346 2.152 0
M  V30 8965 O 858.936 -3.826 1.5392 0
M  V30 8966 H 858.277 -0.482895 0.45575 0
M  V30 8967 H 860.807 -0.988633 1.79129 0
M  V30 8968 H 860.817 -3.38686 2.27499 0
M  V30 8969 H 859.492 -2.6771 3.18283 0
M  V30 8970 H 858.069 -3.41174 1.50516 0
M  V30 8971 N 860.254 -1.20106 -1.0204 0
M  V30 8972 C 861.184 -0.970301 -2.12385 0
M  V30 8973 C 862.165 0.099378 -1.69809 0
M  V30 8974 O 863.35 -0.057365 -1.94115 0
M  V30 8975 C 860.48 -0.517431 -3.43424 0
M  V30 8976 C 859.434 -1.52992 -3.99722 0
M  V30 8977 C 858.76 -0.933817 -5.26483 0
M  V30 8978 C 860.06 -2.91257 -4.33551 0
M  V30 8979 H 861.754 -1.89316 -2.31948 0
M  V30 8980 H 859.3 -0.911655 -1.11467 0
M  V30 8981 H 861.253 -0.343243 -4.2 0
M  V30 8982 H 859.977 0.441049 -3.23608 0
M  V30 8983 H 858.636 -1.6914 -3.2525 0
M  V30 8984 H 858.284 0.0324763 -5.0299 0
M  V30 8985 H 857.984 -1.60999 -5.65113 0
M  V30 8986 H 859.508 -0.770614 -6.05718 0
M  V30 8987 H 860.922 -2.78642 -5.0103 0
M  V30 8988 H 859.319 -3.55745 -4.83286 0
M  V30 8989 H 860.389 -3.43269 -3.42483 0
M  V30 8990 N 861.732 1.21287 -1.00634 0
M  V30 8991 C 863.143 1.72136 -0.722914 0
M  V30 8992 C 863.494 1.8091 0.759338 0
M  V30 8993 O 862.619 1.46458 1.59308 0
M  V30 8994 C 863.214 3.12633 -1.30561 0
M  V30 8995 C 861.773 3.60833 -1.07127 0
M  V30 8996 C 860.92 2.38326 -1.4176 0
M  V30 8997 H 863.871 1.06445 -1.17708 0
M  V30 8998 H 863.892 3.74174 -0.690937 0
M  V30 8999 H 863.404 3.06215 -2.38441 0
M  V30 9000 H 861.505 3.72599 -0.00968671 0
M  V30 9001 H 861.618 4.46226 -1.74411 0
M  V30 9002 H 859.982 2.40575 -0.836412 0
M  V30 9003 H 860.765 2.34558 -2.50674 0
M  V30 9004 N 863.21 0.781244 1.36873 0
M  V30 9005 C 864.456 0.350407 1.9975 0
M  V30 9006 C 864.789 -1.07293 1.6187 0
M  V30 9007 O 864.064 -1.73983 0.869491 0
M  V30 9008 C 864.347 0.504834 3.56544 0
M  V30 9009 C 864.2 1.97127 4.04303 0
M  V30 9010 C 865.519 -0.0851272 4.40018 0
M  V30 9011 H 862.638 0.128794 0.725659 0
M  V30 9012 H 865.28 0.98606 1.6241 0
M  V30 9013 H 863.43 -0.0363006 3.88483 0
M  V30 9014 H 865.102 2.57284 3.82887 0
M  V30 9015 H 863.345 2.47676 3.56145 0
M  V30 9016 H 864.016 2.03033 5.13305 0
M  V30 9017 H 866.492 0.376704 4.14391 0
M  V30 9018 H 865.368 0.0530015 5.48874 0
M  V30 9019 H 865.629 -1.17642 4.2616 0
M  V30 9020 N 864.689 -1.48329 0.532571 0
M  V30 9021 C 865.621 -2.27652 -0.265931 0
M  V30 9022 C 866.634 -1.35522 -0.902083 0
M  V30 9023 O 867.823 -1.60552 -0.780088 0
M  V30 9024 C 864.923 -3.0899 -1.39207 0
M  V30 9025 C 864.096 -4.28915 -0.857349 0
M  V30 9026 C 863.155 -4.92044 -1.86493 0
M  V30 9027 O 862.181 -5.51181 -1.42084 0
M  V30 9028 N 863.383 -4.84518 -3.19723 0
M  V30 9029 H 866.148 -2.96821 0.414389 0
M  V30 9030 H 863.709 -1.57684 0.367066 0
M  V30 9031 H 865.701 -3.48091 -2.06433 0
M  V30 9032 H 864.271 -2.42224 -1.97601 0
M  V30 9033 H 863.491 -3.94199 -0.00901765 0
M  V30 9034 H 864.779 -5.0654 -0.479025 0
M  V30 9035 H 864.177 -4.37628 -3.58467 0
M  V30 9036 H 862.734 -5.27712 -3.82575 0
M  V30 9037 N 866.167 -0.267825 -1.55308 0
M  V30 9038 C 867.115 0.638848 -2.23655 0
M  V30 9039 C 868.109 1.16363 -1.2311 0
M  V30 9040 O 869.315 1.1181 -1.41062 0
M  V30 9041 H 865.69 0.224551 -0.717691 0
M  V30 9042 H 867.661 0.0394809 -2.98374 0
M  V30 9043 C 866.41 1.8151 -2.96562 0
M  V30 9044 H 865.733 1.42048 -3.73715 0
M  V30 9045 H 867.173 2.42629 -3.47717 0
M  V30 9046 C 865.632 2.69911 -2.01618 0
M  V30 9047 O 866.162 3.70058 -1.56268 0
M  V30 9048 N 864.368 2.36924 -1.68272 0
M  V30 9049 H 863.915 1.55533 -2.05347 0
M  V30 9050 H 863.873 2.96343 -1.05016 0
M  V30 9051 N 867.645 1.57599 0.00500368 0
M  V30 9052 C 868.893 1.89973 0.68953 0
M  V30 9053 C 869.214 0.868531 1.7459 0
M  V30 9054 O 868.484 -0.0947367 1.95671 0
M  V30 9055 H 867.064 0.701153 0.25767 0
M  V30 9056 H 869.726 1.94869 -0.0347392 0
M  V30 9057 H 868.822 2.89584 1.16394 0
M  V30 9058 N 869.123 -0.277682 1.55134 0
M  V30 9059 C 870.363 -1.01761 1.77269 0
M  V30 9060 C 870.727 -1.83668 0.559465 0
M  V30 9061 O 871.928 -2.60597 0.658972 0
M  V30 9062 C 870.199 -1.88062 3.0392 0
M  V30 9063 S 871.758 -2.68383 3.47154 0
M  V30 9064 H 868.576 -0.342816 0.622895 0
M  V30 9065 H 871.178 -0.288514 1.93359 0
M  V30 9066 H 869.882 -1.26805 3.90319 0
M  V30 9067 H 869.413 -2.65299 2.90482 0
M  V30 9068 H 871.428 -3.90567 3.06059 0
M  V30 9069 N 870.601 -1.47988 -0.541979 0
M  V30 9070 C 872.012 -1.49073 -1.12402 0
M  V30 9071 C 872.363 -0.253825 -1.94551 0
M  V30 9072 O 871.488 0.640056 -2.06718 0
M  V30 9073 C 872.083 -2.7011 -2.04514 0
M  V30 9074 C 870.642 -2.74105 -2.5796 0
M  V30 9075 C 869.789 -2.42409 -1.3466 0
M  V30 9076 H 872.74 -1.55277 -0.327818 0
M  V30 9077 H 872.761 -2.47946 -2.88623 0
M  V30 9078 H 872.273 -3.60117 -1.44697 0
M  V30 9079 H 870.374 -1.88276 -3.21532 0
M  V30 9080 H 870.487 -3.75213 -2.97913 0
M  V30 9081 H 868.851 -1.9331 -1.65841 0
M  V30 9082 H 869.634 -3.34642 -0.766133 0
M  V30 9083 N 872.079 0.78992 -1.36375 0
M  V30 9084 C 872.989 1.93386 -1.32812 0
M  V30 9085 C 874.005 1.72468 -0.230377 0
M  V30 9086 O 875.181 1.96014 -0.462657 0
M  V30 9087 C 872.246 3.2824 -1.11621 0
M  V30 9088 C 871.307 3.61939 -2.30865 0
M  V30 9089 C 870.54 4.90359 -2.10675 0
M  V30 9090 O 870.763 5.6005 -1.08168 0
M  V30 9091 O 869.697 5.22702 -2.9844 0
M  V30 9092 H 873.523 1.99342 -2.29121 0
M  V30 9093 H 871.108 0.9301 -1.16917 0
M  V30 9094 H 872.99 4.08939 -1.01719 0
M  V30 9095 H 871.665 3.23178 -0.183732 0
M  V30 9096 H 870.572 2.81549 -2.46335 0
M  V30 9097 H 871.905 3.71725 -3.22617 0
M  V30 9098 N 873.557 1.20646 1.01402 0
M  V30 9099 C 874.782 1.04462 1.79172 0
M  V30 9100 C 875.207 -0.401588 1.83763 0
M  V30 9101 O 874.565 -1.28934 1.27459 0
M  V30 9102 C 874.613 1.63583 3.21361 0
M  V30 9103 O 873.717 0.875198 4.03006 0
M  V30 9104 H 873.058 0.368235 0.552539 0
M  V30 9105 H 875.588 1.59994 1.27526 0
M  V30 9106 H 875.598 1.67426 3.72065 0
M  V30 9107 H 874.273 2.68835 3.17334 0
M  V30 9108 H 872.85 0.911172 3.61597 0
M  V30 9109 N 875.035 -1.20752 1.01276 0
M  V30 9110 C 875.998 -2.2162 0.584583 0
M  V30 9111 C 876.998 -1.57094 -0.343215 0
M  V30 9112 O 878.188 -1.73696 -0.132433 0
M  V30 9113 C 875.32 -3.40583 -0.146872 0
M  V30 9114 H 876.513 -2.61015 1.47686 0
M  V30 9115 H 874.066 -1.34148 0.802123 0
M  V30 9116 H 874.801 -3.06686 -1.05424 0
M  V30 9117 H 874.586 -3.88642 0.51958 0
M  V30 9118 H 876.076 -4.15339 -0.433924 0
M  V30 9119 N 876.513 -0.788492 -1.36457 0
M  V30 9120 C 877.446 -0.132189 -2.27817 0
M  V30 9121 C 878.424 0.691166 -1.47179 0
M  V30 9122 O 879.608 0.662344 -1.7648 0
M  V30 9123 C 876.735 0.818386 -3.28664 0
M  V30 9124 C 875.781 0.0769392 -4.26431 0
M  V30 9125 S 876.614 -1.24666 -5.20786 0
M  V30 9126 C 877.77 -0.300063 -6.2518 0
M  V30 9127 H 878.003 -0.906824 -2.83132 0
M  V30 9128 H 875.536 -0.582666 -1.42984 0
M  V30 9129 H 877.494 1.36138 -3.87268 0
M  V30 9130 H 876.155 1.56626 -2.72263 0
M  V30 9131 H 875.348 0.79819 -4.97639 0
M  V30 9132 H 874.95 -0.395547 -3.71902 0
M  V30 9133 H 877.242 0.521434 -6.7549 0
M  V30 9134 H 878.185 -0.980808 -7.01274 0
M  V30 9135 H 878.593 0.0961898 -5.64418 0
M  V30 9136 N 877.991 1.48044 -0.54043 0
M  V30 9137 C 878.901 2.33565 0.220163 0
M  V30 9138 C 879.917 1.47146 0.928659 0
M  V30 9139 O 881.093 1.80107 0.901295 0
M  V30 9140 C 878.158 3.2349 1.2472 0
M  V30 9141 C 877.219 4.25789 0.547938 0
M  V30 9142 C 876.452 5.11417 1.52605 0
M  V30 9143 O 876.675 4.99204 2.75956 0
M  V30 9144 O 875.609 5.92498 1.05972 0
M  V30 9145 H 879.435 2.99868 -0.480898 0
M  V30 9146 H 877.02 1.46332 -0.301226 0
M  V30 9147 H 878.902 3.79084 1.84047 0
M  V30 9148 H 877.577 2.59835 1.93048 0
M  V30 9149 H 876.484 3.74001 -0.0860941 0
M  V30 9150 H 877.817 4.92111 -0.0935896 0
M  V30 9151 N 879.47 0.276058 1.55163 0
M  V30 9152 C 880.403 -0.652386 2.18676 0
M  V30 9153 C 881.381 -1.15151 1.148 0
M  V30 9154 O 882.565 -1.22431 1.43328 0
M  V30 9155 C 879.692 -1.88982 2.81076 0
M  V30 9156 C 878.738 -1.52609 3.98262 0
M  V30 9157 S 879.571 -0.603445 5.32089 0
M  V30 9158 C 880.727 -1.84923 5.97958 0
M  V30 9159 H 880.96 -0.112733 2.97086 0
M  V30 9160 H 878.493 0.0603118 1.54282 0
M  V30 9161 H 880.451 -2.60007 3.17658 0
M  V30 9162 H 879.112 -2.40061 2.02557 0
M  V30 9163 H 878.305 -2.44689 4.40617 0
M  V30 9164 H 877.907 -0.89601 3.63108 0
M  V30 9165 H 880.199 -2.79303 6.17249 0
M  V30 9166 H 881.142 -1.46868 6.92702 0
M  V30 9167 H 881.55 -2.0146 5.27327 0
M  V30 9168 N 880.948 -1.576 0.00335426 0
M  V30 9169 C 881.896 -2.09759 -1.00517 0
M  V30 9170 C 882.89 -1.01833 -1.35375 0
M  V30 9171 O 884.096 -1.20294 -1.339 0
M  V30 9172 H 880.471 -0.669821 -0.341825 0
M  V30 9173 H 882.442 -2.93478 -0.539718 0
M  V30 9174 C 881.191 -2.6189 -2.28711 0
M  V30 9175 H 880.514 -3.44571 -2.02758 0
M  V30 9176 H 881.954 -3.02061 -2.97548 0
M  V30 9177 C 880.413 -1.53455 -2.99922 0
M  V30 9178 O 880.943 -0.919402 -3.91037 0
M  V30 9179 N 879.149 -1.2612 -2.61806 0
M  V30 9180 H 878.696 -1.76329 -1.87792 0
M  V30 9181 H 878.654 -0.537872 -3.09765 0
M  V30 9182 N 882.426 0.269451 -1.5528 0
M  V30 9183 C 883.336 1.35511 -1.91505 0
M  V30 9184 C 884.352 1.53854 -0.812712 0
M  V30 9185 O 885.528 1.67912 -1.1121 0
M  V30 9186 C 882.593 2.6937 -2.18267 0
M  V30 9187 C 881.654 2.59743 -3.41807 0
M  V30 9188 C 880.887 3.87219 -3.67283 0
M  V30 9189 O 881.11 4.88066 -2.95208 0
M  V30 9190 O 880.044 3.87209 -4.60818 0
M  V30 9191 H 883.87 1.07785 -2.8393 0
M  V30 9192 H 881.455 0.468282 -1.41871 0
M  V30 9193 H 883.337 3.48513 -2.36889 0
M  V30 9194 H 882.012 2.96874 -1.29024 0
M  V30 9195 H 880.919 1.78964 -3.28516 0
M  V30 9196 H 882.252 2.37188 -4.3128 0
M  V30 9197 N 883.904 1.48273 0.534124 0
M  V30 9198 C 885.315 1.49667 1.1161 0
M  V30 9199 C 885.666 0.264139 1.94414 0
M  V30 9200 O 884.791 -0.629084 2.07054 0
M  V30 9201 C 885.386 2.71191 2.03079 0
M  V30 9202 C 883.945 2.7547 2.56502 0
M  V30 9203 C 883.092 2.43119 1.33373 0
M  V30 9204 H 886.043 1.55449 0.319578 0
M  V30 9205 H 886.064 2.49473 2.87304 0
M  V30 9206 H 885.576 3.60879 1.42785 0
M  V30 9207 H 883.677 1.89979 3.20529 0
M  V30 9208 H 883.79 3.76787 2.95919 0
M  V30 9209 H 882.154 1.94187 1.64813 0
M  V30 9210 H 882.937 3.35044 0.748375 0
M  V30 9211 N 885.382 -0.782676 1.36792 0
M  V30 9212 C 886.314 -1.9044 1.27536 0
M  V30 9213 C 887.327 -1.61647 0.193426 0
M  V30 9214 O 888.516 -1.72769 0.448692 0
M  V30 9215 C 885.616 -3.2541 0.946641 0
M  V30 9216 C 884.789 -3.81932 2.13183 0
M  V30 9217 C 883.848 -4.95355 1.7751 0
M  V30 9218 O 882.874 -5.11517 2.49678 0
M  V30 9219 N 884.076 -5.76108 0.712755 0
M  V30 9220 H 886.841 -1.98899 2.24186 0
M  V30 9221 H 884.402 -0.96127 1.30274 0
M  V30 9222 H 886.394 -3.98791 0.689043 0
M  V30 9223 H 884.964 -3.12524 0.0690591 0
M  V30 9224 H 884.184 -3.00459 2.55183 0
M  V30 9225 H 885.472 -4.16426 2.92347 0
M  V30 9226 H 884.87 -5.65586 0.113662 0
M  V30 9227 H 883.427 -6.49762 0.514995 0
M  V30 9228 N 886.86 -1.21182 -1.00761 0
M  V30 9229 C 887.823 -0.970339 -2.07646 0
M  V30 9230 C 888.823 0.0576345 -1.60697 0
M  V30 9231 O 890.013 -0.179369 -1.73274 0
M  V30 9232 C 887.145 -0.462703 -3.37745 0
M  V30 9233 H 888.338 -1.91856 -2.30502 0
M  V30 9234 H 885.891 -1.02844 -1.17698 0
M  V30 9235 H 886.626 0.490559 -3.20568 0
M  V30 9236 H 886.411 -1.20416 -3.73152 0
M  V30 9237 H 887.901 -0.313531 -4.16421 0
M  V30 9238 N 888.338 1.20213 -1.01915 0
M  V30 9239 C 889.749 1.7136 -0.741131 0
M  V30 9240 C 890.1 1.81705 0.740107 0
M  V30 9241 O 889.225 1.48139 1.57746 0
M  V30 9242 C 889.82 3.11231 -1.33869 0
M  V30 9243 C 888.379 3.59677 -1.10948 0
M  V30 9244 C 887.526 2.36809 -1.4428 0
M  V30 9245 H 890.477 1.05191 -1.1883 0
M  V30 9246 H 890.498 3.7342 -0.730585 0
M  V30 9247 H 890.01 3.03669 -2.41675 0
M  V30 9248 H 888.111 3.72568 -0.0492052 0
M  V30 9249 H 888.224 4.44351 -1.79134 0
M  V30 9250 H 886.588 2.39674 -0.861881 0
M  V30 9251 H 887.371 2.31886 -2.53148 0
M  V30 9252 N 889.816 0.795718 1.36037 0
M  V30 9253 C 890.779 0.204318 2.28287 0
M  V30 9254 C 891.779 -0.602017 1.49105 0
M  V30 9255 O 892.969 -0.422089 1.69009 0
M  V30 9256 C 890.101 -0.716431 3.33287 0
M  V30 9257 H 891.294 1.01781 2.821 0
M  V30 9258 H 888.847 0.565588 1.45708 0
M  V30 9259 H 889.582 -1.55403 2.84641 0
M  V30 9260 H 889.367 -0.140096 3.9185 0
M  V30 9261 H 890.857 -1.12488 4.02164 0
M  V30 9262 N 891.294 -1.47756 0.548274 0
M  V30 9263 C 892.705 -1.8636 0.112547 0
M  V30 9264 C 893.056 -1.45589 -1.31523 0
M  V30 9265 O 892.181 -0.854874 -1.98799 0
M  V30 9266 C 892.776 -3.38224 0.197473 0
M  V30 9267 C 891.335 -3.75954 -0.183163 0
M  V30 9268 C 890.482 -2.7181 0.549059 0
M  V30 9269 H 893.433 -1.394 0.758506 0
M  V30 9270 H 893.454 -3.75957 -0.586217 0
M  V30 9271 H 892.966 -3.67868 1.23673 0
M  V30 9272 H 891.067 -3.51926 -1.22387 0
M  V30 9273 H 891.18 -4.78801 0.169178 0
M  V30 9274 H 889.544 -2.54699 -0.00682862 0
M  V30 9275 H 890.327 -3.04296 1.5893 0
M  V30 9276 N 892.772 -0.284283 -1.55015 0
M  V30 9277 C 893.997 0.335799 -2.04664 0
M  V30 9278 C 894.422 1.47999 -1.16094 0
M  V30 9279 O 893.78 1.8058 -0.161454 0
M  V30 9280 C 893.828 0.785615 -3.51938 0
M  V30 9281 O 892.932 1.89202 -3.66437 0
M  V30 9282 H 892.273 0.0680233 -0.660506 0
M  V30 9283 H 894.803 -0.421255 -2.00216 0
M  V30 9284 H 894.813 1.07892 -3.93476 0
M  V30 9285 H 893.488 -0.0514675 -4.15868 0
M  V30 9286 H 892.065 1.60055 -3.36804 0
M  V30 9287 N 894.251 1.57596 -0.0117121 0
M  V30 9288 C 895.181 2.12188 0.9746 0
M  V30 9289 C 896.162 1.03379 1.35081 0
M  V30 9290 O 897.347 1.31123 1.4325 0
M  V30 9291 C 894.477 2.63477 2.26268 0
M  V30 9292 C 893.431 3.76917 2.02774 0
M  V30 9293 C 892.757 4.14566 3.37697 0
M  V30 9294 C 894.057 5.03715 1.38089 0
M  V30 9295 H 895.751 2.9485 0.520007 0
M  V30 9296 H 893.297 1.41836 0.248685 0
M  V30 9297 H 895.25 3.00299 2.95633 0
M  V30 9298 H 893.974 1.77953 2.73862 0
M  V30 9299 H 892.633 3.40507 1.35832 0
M  V30 9300 H 892.281 3.26048 3.83016 0
M  V30 9301 H 891.981 4.91 3.22789 0
M  V30 9302 H 893.505 4.53956 4.08358 0
M  V30 9303 H 894.919 5.38233 1.97428 0
M  V30 9304 H 893.316 5.85032 1.33634 0
M  V30 9305 H 894.386 4.83624 0.351575 0
M  V30 9306 N 895.729 -0.261212 1.5542 0
M  V30 9307 C 896.976 -0.99123 1.76581 0
M  V30 9308 C 897.304 -1.85854 0.573457 0
M  V30 9309 O 896.559 -1.90604 -0.443705 0
M  V30 9310 C 896.858 -1.89395 3.03091 0
M  V30 9311 C 896.524 -1.18318 4.351 0
M  V30 9312 C 895.186 -0.986688 4.70975 0
M  V30 9313 C 897.538 -0.678299 5.16767 0
M  V30 9314 C 894.866 -0.272788 5.86065 0
M  V30 9315 C 897.218 0.0220646 6.32596 0
M  V30 9316 C 895.882 0.230161 6.67103 0
M  V30 9317 H 895.152 -0.362717 0.646156 0
M  V30 9318 H 897.799 -0.262506 1.89692 0
M  V30 9319 H 896.104 -2.68927 2.8493 0
M  V30 9320 H 897.801 -2.46022 3.16661 0
M  V30 9321 H 894.391 -1.34625 4.06908 0
M  V30 9322 H 898.575 -0.817691 4.89518 0
M  V30 9323 H 893.831 -0.10095 6.11317 0
M  V30 9324 H 898.005 0.420981 6.95126 0
M  V30 9325 H 895.632 0.785312 7.56133 0
M  V30 9326 N 897.207 -1.48554 -0.526253 0
M  V30 9327 C 898.623 -1.34757 -0.855138 0
M  V30 9328 C 898.823 -0.36142 -1.98232 0
M  V30 9329 O 897.879 0.216026 -2.51574 0
M  V30 9330 C 899.192 -2.74877 -1.21915 0
M  V30 9331 C 900.74 -2.83393 -1.32882 0
M  V30 9332 C 901.215 -4.24223 -1.72624 0
M  V30 9333 N 902.706 -4.26913 -1.7972 0
M  V30 9334 C 903.441 -5.32824 -2.11863 0
M  V30 9335 N 902.937 -6.49008 -2.42405 0
M  V30 9336 N 904.73 -5.20221 -2.12901 0
M  V30 9337 H 896.881 -2.11284 0.217422 0
M  V30 9338 H 899.144 -0.947367 0.0346362 0
M  V30 9339 H 898.85 -3.48619 -0.464486 0
M  V30 9340 H 898.724 -3.0864 -2.16844 0
M  V30 9341 H 901.111 -2.09904 -2.07424 0
M  V30 9342 H 901.192 -2.53245 -0.360638 0
M  V30 9343 H 900.836 -4.98229 -0.986411 0
M  V30 9344 H 900.766 -4.51817 -2.70498 0
M  V30 9345 H 903.257 -3.4311 -1.58379 0
M  V30 9346 H 903.57 -7.25561 -2.66048 0
M  V30 9347 H 901.915 -6.52277 -2.39917 0
M  V30 9348 H 905.106 -4.28469 -1.885 0
M  V30 9349 H 905.279 -6.02861 -2.37619 0
M  V30 9350 N 898.685 0.775411 -1.37205 0
M  V30 9351 C 899.617 1.89761 -1.28544 0
M  V30 9352 C 900.63 1.61542 -0.201996 0
M  V30 9353 O 901.819 1.72528 -0.457848 0
M  V30 9354 C 898.919 3.24904 -0.963885 0
M  V30 9355 C 898.092 3.80796 -2.15205 0
M  V30 9356 C 897.151 4.94407 -1.80135 0
M  V30 9357 O 896.177 5.10185 -2.52388 0
M  V30 9358 N 897.379 5.75722 -0.743298 0
M  V30 9359 H 900.144 1.97708 -2.25237 0
M  V30 9360 H 897.705 0.954348 -1.30782 0
M  V30 9361 H 899.697 3.9842 -0.710182 0
M  V30 9362 H 898.267 3.12483 -0.085632 0
M  V30 9363 H 897.487 2.99101 -2.56773 0
M  V30 9364 H 898.775 4.1487 -2.94552 0
M  V30 9365 H 898.173 5.65518 -0.143655 0
M  V30 9366 H 896.73 6.4948 -0.549446 0
M  V30 9367 N 900.163 1.21714 1.00117 0
M  V30 9368 C 901.403 1.04818 1.75478 0
M  V30 9369 C 901.767 -0.410653 1.87557 0
M  V30 9370 O 902.968 -0.700241 2.59519 0
M  V30 9371 C 901.239 1.73055 3.12709 0
M  V30 9372 S 902.798 1.71464 4.03913 0
M  V30 9373 H 899.616 0.375534 0.603734 0
M  V30 9374 H 902.218 1.54522 1.19763 0
M  V30 9375 H 900.922 2.78376 3.01554 0
M  V30 9376 H 900.453 1.23546 3.73497 0
M  V30 9377 H 902.468 0.75845 4.90369 0
M  V30 9378 N 901.641 -1.19671 1.02551 0
M  V30 9379 C 902.571 -2.25009 0.623965 0
M  V30 9380 C 903.552 -1.66129 -0.36538 0
M  V30 9381 O 904.737 -1.92599 -0.248842 0
M  V30 9382 C 901.867 -3.47287 -0.0294869 0
M  V30 9383 C 900.821 -4.18818 0.881781 0
M  V30 9384 C 900.147 -5.34618 0.0936189 0
M  V30 9385 C 901.447 -4.73986 2.19396 0
M  V30 9386 H 903.141 -2.58851 1.50454 0
M  V30 9387 H 900.687 -1.24425 0.724872 0
M  V30 9388 H 902.64 -4.20168 -0.322016 0
M  V30 9389 H 901.364 -3.12635 -0.944838 0
M  V30 9390 H 900.023 -3.47815 1.15845 0
M  V30 9391 H 899.671 -4.9621 -0.823661 0
M  V30 9392 H 899.371 -5.83409 0.700568 0
M  V30 9393 H 900.895 -6.10297 -0.192249 0
M  V30 9394 H 902.309 -5.38639 1.96319 0
M  V30 9395 H 900.706 -5.3325 2.75254 0
M  V30 9396 H 901.776 -3.92238 2.85092 0
M  V30 9397 N 903.119 -0.802921 -1.35613 0
M  V30 9398 C 904.049 -0.225131 -2.32412 0
M  V30 9399 C 905.03 0.647383 -1.57299 0
M  V30 9400 O 906.215 0.578414 -1.85386 0
M  V30 9401 C 903.345 0.630085 -3.41537 0
M  V30 9402 C 902.299 -0.143635 -4.27759 0
M  V30 9403 C 901.625 0.833046 -5.28171 0
M  V30 9404 C 902.925 -1.34054 -5.04804 0
M  V30 9405 H 904.619 -1.03385 -2.80984 0
M  V30 9406 H 902.165 -0.498593 -1.35093 0
M  V30 9407 H 904.118 1.04433 -4.08254 0
M  V30 9408 H 902.842 1.47165 -2.91565 0
M  V30 9409 H 901.501 -0.539015 -3.62616 0
M  V30 9410 H 901.149 1.67001 -4.74468 0
M  V30 9411 H 900.849 0.319697 -5.8673 0
M  V30 9412 H 902.373 1.24558 -5.97761 0
M  V30 9413 H 903.787 -1.00136 -5.64487 0
M  V30 9414 H 902.184 -1.78812 -5.72841 0
M  V30 9415 H 903.254 -2.12906 -4.35659 0
M  V30 9416 N 904.597 1.47463 -0.556102 0
M  V30 9417 C 905.843 2.03361 -0.039909 0
M  V30 9418 C 906.198 1.42292 1.29502 0
M  V30 9419 O 905.491 0.568813 1.82962 0
M  V30 9420 C 905.685 3.57224 0.112126 0
M  V30 9421 C 905.514 4.33213 -1.20652 0
M  V30 9422 C 904.284 4.73153 -1.77352 0
M  V30 9423 C 906.482 4.68415 -2.12348 0
M  V30 9424 N 904.464 5.33781 -3.03233 0
M  V30 9425 C 905.835 5.29334 -3.22808 0
M  V30 9426 C 907.89 4.50344 -2.12356 0
M  V30 9427 C 906.593 5.7409 -4.33374 0
M  V30 9428 C 908.619 4.96098 -3.21933 0
M  V30 9429 C 907.981 5.57065 -4.31112 0
M  V30 9430 H 904.08 0.779939 -0.0567407 0
M  V30 9431 H 906.664 1.79959 -0.743147 0
M  V30 9432 H 904.835 3.80395 0.784485 0
M  V30 9433 H 906.567 3.99762 0.630285 0
M  V30 9434 H 903.322 4.55074 -1.31165 0
M  V30 9435 H 903.746 5.6864 -3.67393 0
M  V30 9436 H 908.388 4.02566 -1.29229 0
M  V30 9437 H 906.106 6.2086 -5.17261 0
M  V30 9438 H 909.692 4.83887 -3.23024 0
M  V30 9439 H 908.572 5.91824 -5.14504 0
M  V30 9440 N 906.075 0.2925 1.54862 0
M  V30 9441 C 907.322 -0.319263 1.99967 0
M  V30 9442 C 907.65 -1.54547 1.18092 0
M  V30 9443 O 906.905 -1.94186 0.242969 0
M  V30 9444 C 907.204 -0.728674 3.49893 0
M  V30 9445 C 906.87 0.394836 4.49168 0
M  V30 9446 C 905.532 0.703289 4.76033 0
M  V30 9447 C 907.884 1.15103 5.08331 0
M  V30 9448 C 905.212 1.77121 5.59325 0
M  V30 9449 C 907.564 2.20881 5.92785 0
M  V30 9450 C 906.228 2.52342 6.17964 0
M  V30 9451 H 905.498 -0.116827 0.731733 0
M  V30 9452 H 908.145 0.40983 1.87063 0
M  V30 9453 H 906.45 -1.53772 3.60363 0
M  V30 9454 H 908.147 -1.21305 3.82212 0
M  V30 9455 H 904.737 0.144319 4.28357 0
M  V30 9456 H 908.921 0.92599 4.87585 0
M  V30 9457 H 904.177 2.01978 5.77074 0
M  V30 9458 H 908.351 2.79939 6.37657 0
M  V30 9459 H 905.978 3.35225 6.82296 0
M  V30 9460 N 907.553 -1.57587 0.0200696 0
M  V30 9461 C 908.793 -1.93287 -0.66479 0
M  V30 9462 C 909.157 -0.896022 -1.6981 0
M  V30 9463 O 910.358 -1.13892 -2.43479 0
M  V30 9464 C 908.629 -3.33949 -1.27328 0
M  V30 9465 S 910.188 -3.91564 -1.98047 0
M  V30 9466 H 907.006 -0.676397 -0.219106 0
M  V30 9467 H 909.608 -1.9533 0.081568 0
M  V30 9468 H 908.312 -4.07235 -0.508673 0
M  V30 9469 H 907.843 -3.35329 -2.05714 0
M  V30 9470 H 909.858 -3.74265 -3.25791 0
M  V30 9471 N 909.032 0.252966 -1.55557 0
M  V30 9472 C 910.28 0.979912 -1.76754 0
M  V30 9473 C 910.601 1.86083 -0.582944 0
M  V30 9474 O 909.871 1.91742 0.401497 0
M  V30 9475 H 908.451 0.364805 -0.651864 0
M  V30 9476 H 911.113 0.272372 -1.92987 0
M  V30 9477 H 910.209 1.60518 -2.67657 0
M  V30 9478 N 910.51 1.48831 0.518367 0
M  V30 9479 C 911.443 1.588 1.63884 0
M  V30 9480 C 912.421 0.437847 1.56594 0
M  V30 9481 O 913.605 0.651042 1.769 0
M  V30 9482 C 910.732 1.52681 3.02335 0
M  V30 9483 C 909.778 2.7268 3.27945 0
M  V30 9484 S 910.611 4.34536 3.12951 0
M  V30 9485 C 911.767 4.31034 4.53828 0
M  V30 9486 H 912 2.53587 1.5518 0
M  V30 9487 H 909.533 1.37507 0.702218 0
M  V30 9488 H 911.491 1.49837 3.82177 0
M  V30 9489 H 910.152 0.592107 3.08469 0
M  V30 9490 H 909.345 2.64569 4.28974 0
M  V30 9491 H 908.947 2.72847 2.55794 0
M  V30 9492 H 911.239 4.01683 5.45579 0
M  V30 9493 H 912.182 5.32282 4.66991 0
M  V30 9494 H 912.59 3.61343 4.33695 0
M  V30 9495 N 911.988 -0.768124 1.37614 0
M  V30 9496 C 913.213 -1.56239 1.36397 0
M  V30 9497 C 913.638 -1.8804 -0.0475839 0
M  V30 9498 O 912.996 -1.495 -1.02564 0
M  V30 9499 C 913.044 -2.84716 2.21289 0
M  V30 9500 O 912.148 -3.79249 1.62001 0
M  V30 9501 H 911.489 -0.473119 0.465891 0
M  V30 9502 H 914.019 -0.950415 1.81186 0
M  V30 9503 H 914.029 -3.33784 2.34632 0
M  V30 9504 H 912.704 -2.60899 3.2389 0
M  V30 9505 H 911.281 -3.37904 1.57719 0
M  V30 9506 N 913.466 -1.22244 -0.994698 0
M  V30 9507 C 914.882 -0.982006 -1.25813 0
M  V30 9508 C 915.082 0.325488 -1.98854 0
M  V30 9509 O 914.138 1.04857 -2.29698 0
M  V30 9510 C 915.451 -2.1795 -2.07167 0
M  V30 9511 C 916.999 -2.22287 -2.20358 0
M  V30 9512 C 917.474 -3.41583 -3.05098 0
M  V30 9513 N 918.965 -3.41734 -3.12686 0
M  V30 9514 C 919.7 -4.30692 -3.78539 0
M  V30 9515 N 919.196 -5.29865 -4.46335 0
M  V30 9516 N 920.989 -4.18473 -3.75283 0
M  V30 9517 H 913.14 -2.0631 -0.504963 0
M  V30 9518 H 915.403 -0.90395 -0.285618 0
M  V30 9519 H 915.109 -3.12758 -1.60858 0
M  V30 9520 H 914.983 -2.17862 -3.07922 0
M  V30 9521 H 917.37 -1.28028 -2.65881 0
M  V30 9522 H 917.451 -2.26414 -1.19039 0
M  V30 9523 H 917.095 -4.36141 -2.60275 0
M  V30 9524 H 917.025 -3.34695 -4.06555 0
M  V30 9525 H 919.516 -2.69969 -2.64433 0
M  V30 9526 H 919.829 -5.94027 -4.9432 0
M  V30 9527 H 918.174 -5.3378 -4.45089 0
M  V30 9528 H 921.365 -3.40249 -3.21478 0
M  V30 9529 H 921.538 -4.88007 -4.26326 0
M  V30 9530 N 914.944 1.19125 -1.03184 0
M  V30 9531 C 916.192 1.8851 -0.728587 0
M  V30 9532 C 916.513 1.80195 0.74531 0
M  V30 9533 O 915.783 1.21437 1.5372 0
M  V30 9534 H 914.363 0.69784 -0.266511 0
M  V30 9535 H 917.025 1.44607 -1.3067 0
M  V30 9536 H 916.121 2.9477 -1.02554 0
M  V30 9537 N 916.422 0.810101 1.35185 0
M  V30 9538 C 917.67 0.391343 1.98275 0
M  V30 9539 C 917.991 -1.04592 1.64577 0
M  V30 9540 O 917.261 -1.72417 0.93001 0
M  V30 9541 H 915.841 0.141715 0.733434 0
M  V30 9542 H 918.503 1.03672 1.6504 0
M  V30 9543 H 917.599 0.49991 3.0807 0
M  V30 9544 N 917.9 -1.47166 0.563914 0
M  V30 9545 C 919.146 -2.02756 0.0424338 0
M  V30 9546 C 919.479 -1.43662 -1.3067 0
M  V30 9547 O 918.754 -0.594676 -1.85186 0
M  V30 9548 C 919.037 -3.60074 -0.0434793 0
M  V30 9549 C 918.89 -4.29587 1.33323 0
M  V30 9550 C 920.209 -4.336 -0.753568 0
M  V30 9551 H 917.328 -0.736806 0.0168946 0
M  V30 9552 H 919.97 -1.75521 0.727496 0
M  V30 9553 H 918.12 -3.83409 -0.626906 0
M  V30 9554 H 919.792 -4.17573 1.96037 0
M  V30 9555 H 918.035 -3.8968 1.9061 0
M  V30 9556 H 918.706 -5.38218 1.22576 0
M  V30 9557 H 921.182 -4.15299 -0.258126 0
M  V30 9558 H 920.058 -5.43291 -0.782659 0
M  V30 9559 H 920.319 -4.03302 -1.81108 0
M  V30 9560 N 919.378 -0.300708 -1.54705 0
M  V30 9561 C 920.626 0.308044 -1.99739 0
M  V30 9562 C 920.947 1.54433 -1.19061 0
M  V30 9563 O 920.217 1.93794 -0.286507 0
M  V30 9564 H 918.797 0.116811 -0.73781 0
M  V30 9565 H 921.459 -0.41197 -1.90496 0
M  V30 9566 H 920.555 0.580287 -3.06658 0
M  V30 9567 N 920.856 1.57574 -0.0284266 0
M  V30 9568 C 922.081 1.96479 0.664137 0
M  V30 9569 C 922.506 0.904826 1.64908 0
M  V30 9570 O 921.864 -0.134339 1.80802 0
M  V30 9571 C 921.912 3.34479 1.34745 0
M  V30 9572 O 921.016 3.30794 2.46271 0
M  V30 9573 H 920.357 0.640654 0.174524 0
M  V30 9574 H 922.887 2.04402 -0.0900729 0
M  V30 9575 H 922.897 3.70694 1.7044 0
M  V30 9576 H 921.572 4.1117 0.625468 0
M  V30 9577 H 920.149 3.06294 2.12693 0
M  V30 9578 N 922.334 -0.244713 1.55689 0
M  V30 9579 C 923.745 -0.813603 1.6804 0
M  V30 9580 C 924.096 -1.85936 0.626281 0
M  V30 9581 O 923.221 -2.15206 -0.227038 0
M  V30 9582 C 923.816 -1.48252 3.04642 0
M  V30 9583 C 922.375 -1.99908 3.18926 0
M  V30 9584 C 921.522 -0.850958 2.6392 0
M  V30 9585 H 924.473 -0.0204805 1.58687 0
M  V30 9586 H 924.494 -2.35062 2.99209 0
M  V30 9587 H 924.006 -0.721164 3.81341 0
M  V30 9588 H 922.107 -2.78918 2.47054 0
M  V30 9589 H 922.22 -2.19497 4.25862 0
M  V30 9590 H 920.584 -1.25206 2.21801 0
M  V30 9591 H 921.367 -0.10265 3.43146 0
M  V30 9592 N 923.813 -1.49104 -0.510467 0
M  V30 9593 C 925.224 -1.51423 -1.09215 0
M  V30 9594 C 925.575 -0.295035 -1.93969 0
M  V30 9595 O 924.7 0.596064 -2.08029 0
M  V30 9596 C 925.295 -2.74387 -1.98739 0
M  V30 9597 C 923.854 -2.79515 -2.52088 0
M  V30 9598 C 923.001 -2.4521 -1.29488 0
M  V30 9599 H 925.952 -1.55938 -0.294807 0
M  V30 9600 H 925.973 -2.54012 -2.83298 0
M  V30 9601 H 925.485 -3.63105 -1.37026 0
M  V30 9602 H 923.586 -1.95054 -3.17466 0
M  V30 9603 H 923.699 -3.81447 -2.89887 0
M  V30 9604 H 922.063 -1.96785 -1.61703 0
M  V30 9605 H 922.846 -3.36192 -0.694978 0
M  V30 9606 N 925.291 0.760815 -1.38019 0
M  V30 9607 C 926.702 1.33773 -1.30237 0
M  V30 9608 C 927.053 1.96148 0.0451153 0
M  V30 9609 O 926.178 1.94574 0.9471 0
M  V30 9610 C 926.773 2.43227 -2.35851 0
M  V30 9611 C 925.332 2.96659 -2.31669 0
M  V30 9612 C 924.479 1.69972 -2.191 0
M  V30 9613 H 927.43 0.560237 -1.48482 0
M  V30 9614 H 927.451 3.22985 -2.01149 0
M  V30 9615 H 926.963 1.978 -3.33911 0
M  V30 9616 H 925.064 3.46433 -1.37167 0
M  V30 9617 H 925.177 3.51529 -3.25521 0
M  V30 9618 H 923.541 1.9332 -1.65829 0
M  V30 9619 H 924.324 1.26633 -3.19091 0
M  V30 9620 N 926.769 1.22769 0.988202 0
M  V30 9621 C 927.699 1.02627 2.09738 0
M  V30 9622 C 928.68 -0.0543211 1.70013 0
M  V30 9623 O 929.865 0.108811 1.93895 0
M  V30 9624 C 926.995 0.608302 3.41931 0
M  V30 9625 C 925.949 1.63536 3.95525 0
M  V30 9626 C 925.275 1.07308 5.23822 0
M  V30 9627 C 926.575 3.02649 4.25677 0
M  V30 9628 H 928.269 1.954 2.26847 0
M  V30 9629 H 925.815 0.940888 1.09011 0
M  V30 9630 H 927.768 0.454478 4.18942 0
M  V30 9631 H 926.492 -0.355095 3.24664 0
M  V30 9632 H 925.151 1.77704 3.20651 0
M  V30 9633 H 924.799 0.100894 5.02899 0
M  V30 9634 H 924.499 1.75925 5.60646 0
M  V30 9635 H 926.023 0.930938 6.03462 0
M  V30 9636 H 927.437 2.91828 4.93467 0
M  V30 9637 H 925.834 3.68434 4.73684 0
M  V30 9638 H 926.904 3.52228 3.33262 0
M  V30 9639 N 928.247 -1.18576 1.03814 0
M  V30 9640 C 929.475 -1.92437 0.759966 0
M  V30 9641 C 929.89 -1.76031 -0.682526 0
M  V30 9642 O 929.247 -1.08829 -1.46501 0
M  V30 9643 C 929.298 -3.43923 1.11351 0
M  V30 9644 O 929.019 -3.5981 2.49937 0
M  V30 9645 C 930.52 -4.34888 0.859472 0
M  V30 9646 H 927.74 -0.610998 0.277349 0
M  V30 9647 H 930.284 -1.50448 1.38512 0
M  V30 9648 H 928.439 -3.83711 0.533362 0
M  V30 9649 H 928.853 -4.53569 2.63393 0
M  V30 9650 H 930.327 -5.39744 1.15672 0
M  V30 9651 H 930.804 -4.38717 -0.205839 0
M  V30 9652 H 931.41 -4.00795 1.42279 0
M  V30 9653 N 929.725 -0.817259 -1.34754 0
M  V30 9654 C 930.657 -0.192695 -2.28389 0
M  V30 9655 C 931.67 0.614167 -1.50771 0
M  V30 9656 O 932.859 0.444776 -1.7287 0
M  V30 9657 C 929.959 0.748929 -3.30521 0
M  V30 9658 C 929.132 -0.0138762 -4.37398 0
M  V30 9659 C 928.191 0.847825 -5.19325 0
M  V30 9660 O 927.217 0.29487 -5.68436 0
M  V30 9661 N 928.419 2.16843 -5.38479 0
M  V30 9662 H 931.184 -0.997122 -2.82626 0
M  V30 9663 H 928.745 -0.673696 -1.47217 0
M  V30 9664 H 930.737 1.32987 -3.82226 0
M  V30 9665 H 929.307 1.45412 -2.7672 0
M  V30 9666 H 928.527 -0.776093 -3.86485 0
M  V30 9667 H 929.815 -0.539191 -5.05935 0
M  V30 9668 H 929.213 2.64148 -5.00242 0
M  V30 9669 H 927.77 2.69835 -5.93323 0
M  V30 9670 N 931.203 1.46865 -0.571711 0
M  V30 9671 C 932.113 2.33979 0.170571 0
M  V30 9672 C 933.129 1.49083 0.897239 0
M  V30 9673 O 934.305 1.81979 0.862888 0
M  V30 9674 C 931.37 3.26063 1.17831 0
M  V30 9675 C 930.431 4.26855 0.457499 0
M  V30 9676 C 929.664 5.14539 1.41722 0
M  V30 9677 O 929.887 5.04945 2.65305 0
M  V30 9678 O 928.821 5.94612 0.9338 0
M  V30 9679 H 932.647 2.98781 -0.544396 0
M  V30 9680 H 930.232 1.4566 -0.332198 0
M  V30 9681 H 932.114 3.82903 1.75965 0
M  V30 9682 H 930.789 2.63871 1.87493 0
M  V30 9683 H 929.696 3.73734 -0.165406 0
M  V30 9684 H 931.029 4.91802 -0.197953 0
M  V30 9685 N 932.681 0.308908 1.54543 0
M  V30 9686 C 933.591 -0.572939 2.27496 0
M  V30 9687 C 934.607 -1.14171 1.31305 0
M  V30 9688 O 935.783 -1.16481 1.64299 0
M  V30 9689 C 932.848 -1.72483 3.0075 0
M  V30 9690 C 931.909 -1.18934 4.12496 0
M  V30 9691 C 931.142 -2.28634 4.82247 0
M  V30 9692 O 931.365 -3.48691 4.5141 0
M  V30 9693 O 930.299 -1.94879 5.69478 0
M  V30 9694 H 934.125 0.0190877 3.03694 0
M  V30 9695 H 931.71 0.0750943 1.49211 0
M  V30 9696 H 933.592 -2.39578 3.46671 0
M  V30 9697 H 932.267 -2.30332 2.2744 0
M  V30 9698 H 931.174 -0.483904 3.70957 0
M  V30 9699 H 932.507 -0.656185 4.87806 0
M  V30 9700 N 934.159 -1.57557 0.0367827 0
M  V30 9701 C 935.122 -2.09591 -0.927589 0
M  V30 9702 C 936.122 -1.01252 -1.24919 0
M  V30 9703 O 937.312 -1.27382 -1.18825 0
M  V30 9704 C 934.444 -2.56816 -2.24184 0
M  V30 9705 H 935.637 -2.96086 -0.476784 0
M  V30 9706 H 933.19 -1.54864 -0.211385 0
M  V30 9707 H 933.925 -1.73673 -2.73876 0
M  V30 9708 H 933.71 -3.35973 -2.0215 0
M  V30 9709 H 935.2 -2.97271 -2.93291 0
M  V30 9710 N 935.637 0.236453 -1.55816 0
M  V30 9711 C 936.6 1.27633 -1.90375 0
M  V30 9712 C 937.6 1.40557 -0.781048 0
M  V30 9713 O 938.79 1.39078 -1.04895 0
M  V30 9714 C 935.922 2.65247 -2.14142 0
M  V30 9715 H 937.115 0.982019 -2.83366 0
M  V30 9716 H 934.668 0.476215 -1.48869 0
M  V30 9717 H 935.403 2.99801 -1.23653 0
M  V30 9718 H 935.188 2.57246 -2.95917 0
M  V30 9719 H 936.678 3.40313 -2.42026 0
M  V30 9720 N 937.115 1.49373 0.502552 0
M  V30 9721 C 938.078 1.65413 1.58654 0
M  V30 9722 C 939.078 0.526003 1.51953 0
M  V30 9723 O 940.268 0.792421 1.55133 0
M  V30 9724 C 937.4 1.65005 2.98306 0
M  V30 9725 H 938.593 2.62095 1.45762 0
M  V30 9726 H 936.146 1.38381 0.726672 0
M  V30 9727 H 936.881 0.699014 3.16677 0
M  V30 9728 H 936.666 2.46931 3.04578 0
M  V30 9729 H 938.156 1.79477 3.77065 0
M  V30 9730 N 938.594 -0.753485 1.38421 0
M  V30 9731 C 939.557 -1.84888 1.35459 0
M  V30 9732 C 940.557 -1.58764 0.255083 0
M  V30 9733 O 941.747 -1.66507 0.511978 0
M  V30 9734 C 938.879 -3.22361 1.10888 0
M  V30 9735 H 940.072 -1.88922 2.32913 0
M  V30 9736 H 937.625 -0.955199 1.23716 0
M  V30 9737 H 938.36 -3.23996 0.1404 0
M  V30 9738 H 938.145 -3.42717 1.90492 0
M  V30 9739 H 939.635 -4.02437 1.1151 0
M  V30 9740 N 940.072 -1.23292 -0.981677 0
M  V30 9741 C 941.035 -1.01417 -2.05542 0
M  V30 9742 C 942.035 0.0235354 -1.60783 0
M  V30 9743 O 943.225 -0.216082 -1.72855 0
M  V30 9744 C 940.357 -0.534239 -3.36688 0
M  V30 9745 H 941.55 -1.96702 -2.26381 0
M  V30 9746 H 939.103 -1.05318 -1.1549 0
M  V30 9747 H 939.838 0.422452 -3.21537 0
M  V30 9748 H 939.623 -1.28304 -3.70514 0
M  V30 9749 H 941.113 -0.40179 -4.15663 0
M  V30 9750 N 941.55 1.18024 -1.04442 0
M  V30 9751 C 942.966 1.40107 -0.76435 0
M  V30 9752 C 943.166 1.90914 0.644516 0
M  V30 9753 O 942.222 2.0959 1.40813 0
M  V30 9754 C 943.535 2.39851 -1.81361 0
M  V30 9755 C 945.083 2.53571 -1.83496 0
M  V30 9756 C 945.558 3.56583 -2.87424 0
M  V30 9757 N 947.049 3.64094 -2.86339 0
M  V30 9758 C 947.784 4.43537 -3.63405 0
M  V30 9759 N 947.28 5.26557 -4.50233 0
M  V30 9760 N 949.073 4.38336 -3.51877 0
M  V30 9761 H 941.224 0.833726 -1.95353 0
M  V30 9762 H 943.487 0.42881 -0.845474 0
M  V30 9763 H 943.193 2.09576 -2.82438 0
M  V30 9764 H 943.067 3.39251 -1.6489 0
M  V30 9765 H 945.454 2.83161 -0.830883 0
M  V30 9766 H 945.535 1.54272 -2.04044 0
M  V30 9767 H 945.179 3.27733 -3.88012 0
M  V30 9768 H 945.109 4.55569 -2.6413 0
M  V30 9769 H 947.6 3.04814 -2.23376 0
M  V30 9770 H 947.913 5.84336 -5.05738 0
M  V30 9771 H 946.258 5.25964 -4.54298 0
M  V30 9772 H 949.449 3.72528 -2.83444 0
M  V30 9773 H 949.622 5.00007 -4.12186 0
M  V30 9774 N 943.028 0.824394 1.34319 0
M  V30 9775 C 944.444 0.510336 1.51221 0
M  V30 9776 C 944.644 -0.965201 1.76879 0
M  V30 9777 O 943.7 -1.74961 1.82057 0
M  V30 9778 C 945.013 1.37114 2.6762 0
M  V30 9779 C 946.561 1.36842 2.81502 0
M  V30 9780 C 947.036 2.21374 4.00946 0
M  V30 9781 N 948.527 2.19005 4.08156 0
M  V30 9782 C 949.262 2.81159 4.99737 0
M  V30 9783 N 948.758 3.52309 5.96532 0
M  V30 9784 N 950.551 2.70706 4.9262 0
M  V30 9785 H 942.702 1.77976 1.15924 0
M  V30 9786 H 944.965 0.758503 0.568663 0
M  V30 9787 H 944.671 2.41905 2.55294 0
M  V30 9788 H 944.545 1.03689 3.62669 0
M  V30 9789 H 946.932 0.328284 2.93268 0
M  V30 9790 H 947.013 1.74265 1.87257 0
M  V30 9791 H 946.657 3.25437 3.8994 0
M  V30 9792 H 946.587 1.813 4.94407 0
M  V30 9793 H 949.078 1.67252 3.38874 0
M  V30 9794 H 949.391 3.96977 6.63045 0
M  V30 9795 H 947.736 3.56415 5.96652 0
M  V30 9796 H 950.927 2.14694 4.15962 0
M  V30 9797 H 951.1 3.19431 5.63798 0
M  V30 9798 N 944.506 -1.46559 0.579492 0
M  V30 9799 C 945.436 -2.33059 -0.143437 0
M  V30 9800 C 946.417 -1.4515 -0.886868 0
M  V30 9801 O 947.602 -1.73973 -0.862961 0
M  V30 9802 C 944.732 -3.27364 -1.15973 0
M  V30 9803 C 943.686 -4.24689 -0.531348 0
M  V30 9804 C 943.012 -5.08479 -1.65388 0
M  V30 9805 C 944.312 -5.1961 0.529391 0
M  V30 9806 H 946.006 -2.93753 0.578762 0
M  V30 9807 H 943.552 -1.41256 0.279775 0
M  V30 9808 H 945.505 -3.86732 -1.67382 0
M  V30 9809 H 944.229 -2.64771 -1.91217 0
M  V30 9810 H 942.888 -3.6658 -0.0383749 0
M  V30 9811 H 942.536 -4.42273 -2.3959 0
M  V30 9812 H 942.236 -5.74387 -1.23909 0
M  V30 9813 H 943.76 -5.70709 -2.17079 0
M  V30 9814 H 945.174 -5.73212 0.100506 0
M  V30 9815 H 943.571 -5.93843 0.86432 0
M  V30 9816 H 944.641 -4.63737 1.4169 0
M  V30 9817 N 945.984 -0.3171 -1.54377 0
M  V30 9818 C 946.894 0.560867 -2.27797 0
M  V30 9819 C 947.91 1.13473 -1.31908 0
M  V30 9820 O 949.086 1.15608 -1.64914 0
M  V30 9821 C 946.151 1.70886 -3.0166 0
M  V30 9822 C 945.212 1.16745 -4.13121 0
M  V30 9823 C 944.445 2.26073 -4.83453 0
M  V30 9824 O 944.668 3.46292 -4.53252 0
M  V30 9825 O 943.602 1.91856 -5.70504 0
M  V30 9826 H 947.428 -0.035193 -3.0368 0
M  V30 9827 H 945.013 -0.0830062 -1.49169 0
M  V30 9828 H 946.895 2.37736 -3.47936 0
M  V30 9829 H 945.57 2.29122 -2.28658 0
M  V30 9830 H 944.477 0.464224 -3.71209 0
M  V30 9831 H 945.81 0.630307 -4.88147 0
M  V30 9832 N 947.462 1.57535 -0.0451378 0
M  V30 9833 C 948.739 1.83785 0.669523 0
M  V30 9834 C 949.119 0.932331 1.89396 0
M  V30 9835 O 948.467 -0.00813229 2.28499 0
M  V30 9836 C 948.677 3.33376 1.03255 0
M  V30 9837 C 950.025 4.00243 1.41741 0
M  V30 9838 O 951.049 3.37965 1.12507 0
M  V30 9839 O 949.908 5.10038 1.96275 0
M  V30 9840 H 947.002 0.758342 0.329919 0
M  V30 9841 H 949.548 1.69538 -0.0740415 0
M  V30 9842 H 948.32 3.90965 0.161777 0
M  V30 9843 H 947.943 3.52787 1.83376 0
M  V30 9844 N 948.94 -0.228186 1.55939 0
M  V30 9845 C 950.189 -0.951563 1.77843 0
M  V30 9846 C 950.502 -1.85763 0.612501 0
M  V30 9847 O 951.708 -2.61916 0.715006 0
M  V30 9848 C 950.164 -1.74216 3.14923 0
M  V30 9849 C 949.772 -0.882569 4.39221 0
M  V30 9850 C 951.516 -2.45715 3.46156 0
M  V30 9851 C 949.423 -1.67014 5.67327 0
M  V30 9852 H 948.353 -0.359035 0.663031 0
M  V30 9853 H 951.004 -0.205636 1.82344 0
M  V30 9854 H 949.386 -2.53075 3.0458 0
M  V30 9855 H 950.56 -0.13499 4.60602 0
M  V30 9856 H 948.875 -0.280022 4.15457 0
M  V30 9857 H 951.472 -3.05127 4.39092 0
M  V30 9858 H 951.815 -3.1827 2.68346 0
M  V30 9859 H 952.348 -1.73852 3.57799 0
M  V30 9860 H 949.087 -0.987985 6.48012 0
M  V30 9861 H 948.607 -2.3925 5.50018 0
M  V30 9862 H 950.286 -2.23252 6.07262 0
M  V30 9863 N 950.418 -1.49637 -0.494624 0
M  V30 9864 C 951.643 -1.63431 -1.27691 0
M  V30 9865 C 952.068 -0.30813 -1.85559 0
M  V30 9866 O 951.426 0.725083 -1.66169 0
M  V30 9867 C 951.474 -2.71043 -2.3784 0
M  V30 9868 O 950.578 -2.3066 -3.41862 0
M  V30 9869 H 949.919 -0.546804 -0.376698 0
M  V30 9870 H 952.449 -1.95866 -0.591413 0
M  V30 9871 H 952.459 -2.93406 -2.83508 0
M  V30 9872 H 951.134 -3.67306 -1.95088 0
M  V30 9873 H 949.711 -2.18652 -3.02069 0
M  V30 9874 N 951.896 0.746133 -1.38819 0
M  V30 9875 C 952.806 1.89063 -1.38897 0
M  V30 9876 C 953.822 1.71648 -0.28513 0
M  V30 9877 O 954.998 1.94443 -0.524783 0
M  V30 9878 C 952.063 3.24523 -1.22007 0
M  V30 9879 C 951.124 3.54411 -2.42263 0
M  V30 9880 C 950.357 4.83408 -2.26169 0
M  V30 9881 O 950.58 5.56325 -1.25931 0
M  V30 9882 O 949.514 5.12943 -3.14918 0
M  V30 9883 H 953.34 1.91951 -2.35347 0
M  V30 9884 H 950.925 0.892433 -1.19816 0
M  V30 9885 H 952.807 4.05496 -1.14677 0
M  V30 9886 H 951.482 3.2243 -0.286455 0
M  V30 9887 H 950.389 2.73569 -2.55168 0
M  V30 9888 H 951.722 3.61273 -3.3428 0
M  V30 9889 N 953.375 1.23811 0.975125 0
M  V30 9890 C 954.652 0.9815 1.69192 0
M  V30 9891 C 955.032 -0.498373 2.05133 0
M  V30 9892 O 954.38 -1.47087 1.74864 0
M  V30 9893 C 954.59 1.89701 2.92941 0
M  V30 9894 C 955.938 2.16357 3.65342 0
M  V30 9895 O 956.962 1.87293 3.02985 0
M  V30 9896 O 955.821 2.65675 4.77576 0
M  V30 9897 H 952.915 0.370599 0.739314 0
M  V30 9898 H 955.461 1.34876 1.02988 0
M  V30 9899 H 954.233 2.89719 2.63018 0
M  V30 9900 H 953.856 1.53244 3.66881 0
M  V30 9901 N 954.853 -1.17469 1.05066 0
M  V30 9902 C 956.264 -1.69334 0.786304 0
M  V30 9903 C 956.615 -1.83604 -0.691671 0
M  V30 9904 O 955.74 -1.52269 -1.53763 0
M  V30 9905 C 956.335 -3.07572 1.42074 0
M  V30 9906 C 954.894 -3.56609 1.20446 0
M  V30 9907 C 954.041 -2.329 1.50508 0
M  V30 9908 H 956.992 -1.02003 1.21577 0
M  V30 9909 H 957.013 -3.71352 0.829334 0
M  V30 9910 H 956.525 -2.97154 2.49642 0
M  V30 9911 H 954.626 -3.72306 0.147968 0
M  V30 9912 H 954.739 -4.39446 1.90852 0
M  V30 9913 H 953.103 -2.37305 0.925124 0
M  V30 9914 H 953.886 -2.25093 2.59207 0
M  V30 9915 N 956.331 -0.831506 -1.3388 0
M  V30 9916 C 957.556 -0.435954 -2.02766 0
M  V30 9917 C 957.981 0.952889 -1.62178 0
M  V30 9918 O 957.339 1.62166 -0.810681 0
M  V30 9919 C 957.387 -0.555907 -3.56289 0
M  V30 9920 O 956.491 0.420826 -4.10247 0
M  V30 9921 H 955.832 -0.178248 -0.639628 0
M  V30 9922 H 958.362 -1.1243 -1.70941 0
M  V30 9923 H 958.372 -0.434831 -4.05676 0
M  V30 9924 H 957.047 -1.56881 -3.85177 0
M  V30 9925 H 955.624 0.257919 -3.72007 0
M  V30 9926 N 957.809 1.4625 -0.587256 0
M  V30 9927 C 959.055 2.0323 -0.0830359 0
M  V30 9928 C 959.41 1.45007 1.26455 0
M  V30 9929 O 958.703 0.607494 1.81714 0
M  V30 9930 C 958.897 3.57382 0.036328 0
M  V30 9931 C 958.726 4.30556 -1.29814 0
M  V30 9932 C 957.496 4.69285 -1.87349 0
M  V30 9933 C 959.694 4.63806 -2.22236 0
M  V30 9934 N 957.676 5.27229 -3.14488 0
M  V30 9935 C 959.047 5.22368 -3.33964 0
M  V30 9936 C 961.102 4.45738 -2.2186 0
M  V30 9937 C 959.805 5.64769 -4.45454 0
M  V30 9938 C 961.831 4.89158 -3.32383 0
M  V30 9939 C 961.193 5.47795 -4.42832 0
M  V30 9940 H 957.292 0.77856 -0.0732716 0
M  V30 9941 H 959.876 1.78343 -0.781152 0
M  V30 9942 H 958.047 3.81973 0.703621 0
M  V30 9943 H 959.779 4.01009 0.545347 0
M  V30 9944 H 956.534 4.5219 -1.40789 0
M  V30 9945 H 956.958 5.60719 -3.79372 0
M  V30 9946 H 961.6 3.99735 -1.37739 0
M  V30 9947 H 959.318 6.09748 -5.30314 0
M  V30 9948 H 962.904 4.76926 -3.33216 0
M  V30 9949 H 961.784 5.80778 -5.26941 0
M  V30 9950 N 959.287 0.325282 1.54207 0
M  V30 9951 C 960.25 -0.527228 2.23054 0
M  V30 9952 C 961.25 -1.04217 1.22456 0
M  V30 9953 O 962.44 -0.934325 1.47024 0
M  V30 9954 C 959.572 -1.7325 2.93594 0
M  V30 9955 H 960.765 0.0746423 2.99807 0
M  V30 9956 H 958.318 0.0763872 1.56113 0
M  V30 9957 H 959.053 -2.37356 2.20981 0
M  V30 9958 H 958.838 -1.37065 3.67363 0
M  V30 9959 H 960.328 -2.3376 3.46043 0
M  V30 9960 N 960.765 -1.57509 0.0534917 0
M  V30 9961 C 962.181 -1.56696 -0.303067 0
M  V30 9962 C 962.381 -1.06135 -1.71282 0
M  V30 9963 O 961.437 -0.71899 -2.42047 0
M  V30 9964 C 962.75 -3.00421 -0.129418 0
M  V30 9965 C 964.298 -3.12358 -0.200346 0
M  V30 9966 C 964.773 -4.57967 -0.0551971 0
M  V30 9967 N 966.264 -4.63066 -0.111398 0
M  V30 9968 C 966.999 -5.73395 -0.0232344 0
M  V30 9969 N 966.495 -6.92701 0.11741 0
M  V30 9970 N 968.288 -5.62045 -0.078984 0
M  V30 9971 H 960.439 -1.88696 0.975064 0
M  V30 9972 H 962.702 -0.869072 0.378706 0
M  V30 9973 H 962.408 -3.41456 0.842653 0
M  V30 9974 H 962.282 -3.66563 -0.889476 0
M  V30 9975 H 964.669 -2.71221 -1.16289 0
M  V30 9976 H 964.75 -2.48891 0.590506 0
M  V30 9977 H 964.394 -4.9979 0.904034 0
M  V30 9978 H 964.324 -5.19443 -0.865223 0
M  V30 9979 H 966.815 -3.77263 -0.219256 0
M  V30 9980 H 967.128 -7.72597 0.177326 0
M  V30 9981 H 965.473 -6.94833 0.152526 0
M  V30 9982 H 968.664 -4.67725 -0.187434 0
M  V30 9983 H 968.837 -6.48 -0.00681731 0
M  V30 9984 N 962.243 0.219913 -1.56058 0
M  V30 9985 C 963.489 0.945463 -1.79412 0
M  V30 9986 C 963.822 1.83922 -0.62341 0
M  V30 9987 O 963.097 1.90806 0.377256 0
M  V30 9988 C 963.38 1.783 -3.1286 0
M  V30 9989 C 963.233 0.915626 -4.40382 0
M  V30 9990 C 964.552 2.76045 -3.42764 0
M  V30 9991 H 961.671 0.342288 -0.652693 0
M  V30 9992 H 964.313 0.214235 -1.88788 0
M  V30 9993 H 962.463 2.40642 -3.04998 0
M  V30 9994 H 964.135 0.30882 -4.60265 0
M  V30 9995 H 962.378 0.221124 -4.33236 0
M  V30 9996 H 963.049 1.53607 -5.30197 0
M  V30 9997 H 965.525 2.23838 -3.50764 0
M  V30 9998 H 964.401 3.31748 -4.37304 0
M  V30 9999 H 964.662 3.53866 -2.65012 0
M  V30 10000 N 963.721 1.49897 0.486681 0
M  V30 10001 C 964.967 1.60342 1.2417 0
M  V30 10002 C 965.3 0.295694 1.91936 0
M  V30 10003 O 964.575 -0.701788 1.81398 0
M  V30 10004 C 964.858 2.77281 2.29755 0
M  V30 10005 C 964.711 4.1789 1.66397 0
M  V30 10006 C 966.03 2.89817 3.31201 0
M  V30 10007 H 963.149 0.583605 0.450083 0
M  V30 10008 H 965.791 1.82232 0.537734 0
M  V30 10009 H 963.941 2.58748 2.89796 0
M  V30 10010 H 965.613 4.47975 1.10073 0
M  V30 10011 H 963.856 4.22872 0.967579 0
M  V30 10012 H 964.527 4.95612 2.43049 0
M  V30 10013 H 967.003 3.06732 2.81167 0
M  V30 10014 H 965.879 3.7329 4.02425 0
M  V30 10015 H 966.14 1.9977 3.94391 0
M  V30 10016 N 965.199 -0.738761 1.39212 0
M  V30 10017 C 966.147 -1.8741 1.3777 0
M  V30 10018 C 967.141 -1.67371 0.261375 0
M  V30 10019 O 968.347 -1.74759 0.431209 0
M  V30 10020 H 964.722 -0.616843 0.430126 0
M  V30 10021 H 966.693 -1.85742 2.33543 0
M  V30 10022 C 965.442 -3.25053 1.23433 0
M  V30 10023 H 964.765 -3.41066 2.086 0
M  V30 10024 H 966.205 -4.04696 1.2648 0
M  V30 10025 C 964.664 -3.36851 -0.0575624 0
M  V30 10026 O 965.194 -3.88293 -1.02915 0
M  V30 10027 N 963.4 -2.90355 -0.119364 0
M  V30 10028 H 962.947 -2.48681 0.671976 0
M  V30 10029 H 962.905 -2.98628 -0.983286 0
M  V30 10030 N 966.677 -1.24326 -0.968545 0
M  V30 10031 C 967.607 -1.05951 -2.08079 0
M  V30 10032 C 968.588 0.0272666 -1.70078 0
M  V30 10033 O 969.773 -0.139644 -1.93697 0
M  V30 10034 C 966.903 -0.662623 -3.4092 0
M  V30 10035 C 965.857 -1.69807 -3.92873 0
M  V30 10036 C 965.183 -1.15628 -5.22048 0
M  V30 10037 C 966.483 -3.09383 -4.20808 0
M  V30 10038 H 968.177 -1.98984 -2.23709 0
M  V30 10039 H 965.723 -0.958112 -1.075 0
M  V30 10040 H 967.676 -0.521071 -4.18166 0
M  V30 10041 H 966.4 0.303399 -3.25188 0
M  V30 10042 H 965.059 -1.82783 -3.17783 0
M  V30 10043 H 964.707 -0.180888 -5.02675 0
M  V30 10044 H 964.407 -1.84822 -5.57776 0
M  V30 10045 H 965.931 -1.02683 -6.01904 0
M  V30 10046 H 967.345 -2.99642 -4.88761 0
M  V30 10047 H 965.742 -3.75923 -4.67763 0
M  V30 10048 H 966.812 -3.57486 -3.27616 0
M  V30 10049 N 968.156 1.1691 -1.05688 0
M  V30 10050 C 969.104 2.2315 -0.656262 0
M  V30 10051 C 970.098 1.66256 0.324873 0
M  V30 10052 O 971.304 1.7899 0.190397 0
M  V30 10053 H 967.679 0.726527 -0.19407 0
M  V30 10054 H 969.65 2.54233 -1.56231 0
M  V30 10055 C 968.399 3.47661 -0.0522431 0
M  V30 10056 H 967.722 3.91749 -0.798299 0
M  V30 10057 H 969.162 4.23571 0.190626 0
M  V30 10058 C 967.621 3.14709 1.20248 0
M  V30 10059 O 968.151 3.29947 2.29124 0
M  V30 10060 N 966.357 2.68892 1.10207 0
M  V30 10061 H 965.904 2.56692 0.216063 0
M  V30 10062 H 965.862 2.47218 1.94244 0
M  V30 10063 N 969.634 0.838594 1.33437 0
M  V30 10064 C 970.597 0.276843 2.27522 0
M  V30 10065 C 971.597 -0.554275 1.50945 0
M  V30 10066 O 972.787 -0.368107 1.70266 0
M  V30 10067 C 969.919 -0.610036 3.35397 0
M  V30 10068 H 971.112 1.10705 2.78719 0
M  V30 10069 H 968.665 0.611657 1.43835 0
M  V30 10070 H 969.4 -1.46269 2.89441 0
M  V30 10071 H 969.185 -0.0153615 3.92097 0
M  V30 10072 H 970.675 -0.996368 4.05539 0
M  V30 10073 N 971.112 -1.45937 0.595003 0
M  V30 10074 C 972.042 -2.33198 -0.11871 0
M  V30 10075 C 973.023 -1.46083 -0.871423 0
M  V30 10076 O 974.208 -1.74879 -0.844461 0
M  V30 10077 C 971.338 -3.28576 -1.12495 0
M  V30 10078 C 970.292 -4.25229 -0.486275 0
M  V30 10079 C 969.618 -5.10204 -1.59986 0
M  V30 10080 C 970.918 -5.19019 0.584473 0
M  V30 10081 H 972.612 -2.93122 0.609886 0
M  V30 10082 H 970.158 -1.40951 0.294742 0
M  V30 10083 H 972.111 -3.88485 -1.6327 0
M  V30 10084 H 970.835 -2.66784 -1.88398 0
M  V30 10085 H 969.494 -3.666 0.000507962 0
M  V30 10086 H 969.142 -4.44789 -2.34886 0
M  V30 10087 H 968.842 -5.75669 -1.1781 0
M  V30 10088 H 970.366 -5.7298 -2.11014 0
M  V30 10089 H 971.78 -5.73073 0.161297 0
M  V30 10090 H 970.177 -5.92893 0.927256 0
M  V30 10091 H 971.247 -4.62208 1.46601 0
M  V30 10092 N 972.59 -0.333456 -1.54032 0
M  V30 10093 C 973.52 0.52051 -2.27625 0
M  V30 10094 C 974.501 1.1111 -1.28797 0
M  V30 10095 O 975.686 1.13438 -1.57625 0
M  V30 10096 C 972.816 1.67663 -3.04149 0
M  V30 10097 C 971.77 1.21487 -4.10396 0
M  V30 10098 C 971.096 2.45872 -4.74817 0
M  V30 10099 C 972.396 0.322603 -5.21303 0
M  V30 10100 H 974.09 -0.0933823 -2.99254 0
M  V30 10101 H 971.636 -0.0463526 -1.43925 0
M  V30 10102 H 973.589 2.28041 -3.54366 0
M  V30 10103 H 972.313 2.31727 -2.30153 0
M  V30 10104 H 970.972 0.633966 -3.61077 0
M  V30 10105 H 970.62 3.0832 -3.97426 0
M  V30 10106 H 970.32 2.15662 -5.46593 0
M  V30 10107 H 971.844 3.06994 -5.27814 0
M  V30 10108 H 973.258 0.832942 -5.67217 0
M  V30 10109 H 971.655 0.112843 -5.99994 0
M  V30 10110 H 972.725 -0.643954 -4.80605 0
M  V30 10111 N 974.068 1.57479 -0.061844 0
M  V30 10112 C 975.001 2.07734 0.94455 0
M  V30 10113 C 975.979 0.980207 1.29733 0
M  V30 10114 O 977.163 1.2529 1.40836 0
M  V30 10115 C 974.29 2.52673 2.25553 0
M  V30 10116 C 973.336 3.73725 2.05503 0
M  V30 10117 S 974.169 5.18886 1.32354 0
M  V30 10118 C 975.325 5.67148 2.64753 0
M  V30 10119 H 975.558 2.92772 0.516888 0
M  V30 10120 H 973.091 1.53663 0.150684 0
M  V30 10121 H 975.049 2.79226 3.00904 0
M  V30 10122 H 973.71 1.67921 2.65445 0
M  V30 10123 H 972.903 4.03125 3.025 0
M  V30 10124 H 972.505 3.47494 1.3829 0
M  V30 10125 H 974.797 5.73385 3.60882 0
M  V30 10126 H 975.74 6.66196 2.39976 0
M  V30 10127 H 976.148 4.94921 2.71502 0
M  V30 10128 N 975.546 -0.211634 1.56173 0
M  V30 10129 C 976.479 -1.28982 1.88252 0
M  V30 10130 C 977.457 -1.4474 0.740889 0
M  V30 10131 O 978.641 -1.60394 0.990249 0
M  V30 10132 C 975.768 -2.65879 2.09824 0
M  V30 10133 C 974.814 -2.67082 3.3252 0
M  V30 10134 S 975.647 -2.2016 4.8815 0
M  V30 10135 C 976.803 -3.58913 5.12769 0
M  V30 10136 H 977.036 -1.01578 2.79409 0
M  V30 10137 H 974.569 -0.414351 1.48736 0
M  V30 10138 H 976.527 -3.44688 2.22935 0
M  V30 10139 H 975.188 -2.90502 1.19447 0
M  V30 10140 H 974.381 -3.67703 3.44689 0
M  V30 10141 H 973.983 -1.96343 3.18317 0
M  V30 10142 H 976.275 -4.54671 5.02276 0
M  V30 10143 H 977.218 -3.51652 6.14611 0
M  V30 10144 H 977.626 -3.5306 4.40465 0
M  V30 10145 N 977.024 -1.50153 -0.478725 0
M  V30 10146 C 977.987 -1.67916 -1.56003 0
M  V30 10147 C 978.987 -0.550111 -1.51097 0
M  V30 10148 O 980.177 -0.817001 -1.53853 0
M  V30 10149 C 977.309 -1.6973 -2.95643 0
M  V30 10150 H 978.502 -2.6438 -1.41573 0
M  V30 10151 H 976.055 -1.39519 -0.704565 0
M  V30 10152 H 976.79 -0.749306 -3.15525 0
M  V30 10153 H 976.575 -2.51745 -3.00611 0
M  V30 10154 H 978.065 -1.85453 -3.74162 0
M  V30 10155 N 978.502 0.731368 -1.39602 0
M  V30 10156 C 979.748 1.49321 -1.37227 0
M  V30 10157 C 980.081 1.94176 0.0306502 0
M  V30 10158 O 979.356 1.67046 0.996294 0
M  V30 10159 C 979.639 2.73035 -2.34784 0
M  V30 10160 C 979.492 2.34176 -3.84033 0
M  V30 10161 C 980.811 3.75146 -2.30116 0
M  V30 10162 H 977.93 0.541652 -0.499783 0
M  V30 10163 H 980.572 0.835968 -1.70621 0
M  V30 10164 H 978.722 3.29114 -2.06437 0
M  V30 10165 H 980.394 1.83701 -4.23145 0
M  V30 10166 H 978.637 1.66361 -4.00633 0
M  V30 10167 H 979.308 3.22786 -4.47787 0
M  V30 10168 H 981.784 3.28661 -2.55189 0
M  V30 10169 H 980.66 4.5937 -3.00451 0
M  V30 10170 H 980.921 4.22326 -1.30741 0
M  V30 10171 N 979.98 1.24838 0.961938 0
M  V30 10172 C 980.943 1.04674 2.03902 0
M  V30 10173 C 981.943 0.00204674 1.608 0
M  V30 10174 O 983.133 0.243555 1.72489 0
M  V30 10175 C 980.265 0.587736 3.35795 0
M  V30 10176 H 981.458 2.00278 2.23223 0
M  V30 10177 H 979.011 1.07142 1.138 0
M  V30 10178 H 979.746 -0.371244 3.22168 0
M  V30 10179 H 979.531 1.34182 3.68426 0
M  V30 10180 H 981.021 0.467867 4.14971 0
M  V30 10181 N 981.458 -1.16348 1.06306 0
M  V30 10182 C 982.704 -1.87158 0.781007 0
M  V30 10183 C 983.037 -1.81499 -0.690784 0
M  V30 10184 O 982.312 -1.23074 -1.50609 0
M  V30 10185 C 982.595 -3.3672 1.27639 0
M  V30 10186 C 982.448 -3.51069 2.81194 0
M  V30 10187 C 983.767 -4.31122 0.884388 0
M  V30 10188 H 980.886 -0.679586 0.285187 0
M  V30 10189 H 983.528 -1.36756 1.31901 0
M  V30 10190 H 981.678 -3.79775 0.818715 0
M  V30 10191 H 983.35 -3.16952 3.35171 0
M  V30 10192 H 981.593 -2.92976 3.19918 0
M  V30 10193 H 982.264 -4.56105 3.10921 0
M  V30 10194 H 984.74 -3.95969 1.27858 0
M  V30 10195 H 983.616 -5.34279 1.25847 0
M  V30 10196 H 983.877 -4.41598 -0.210673 0
M  V30 10197 N 982.937 -0.845659 -1.3299 0
M  V30 10198 C 984.184 -0.444653 -1.97558 0
M  V30 10199 C 984.512 0.997682 -1.66963 0
M  V30 10200 O 983.767 1.71349 -0.94541 0
M  V30 10201 C 984.066 -0.6201 -3.51979 0
M  V30 10202 C 983.732 -2.03155 -4.02541 0
M  V30 10203 C 982.394 -2.4176 -4.16059 0
M  V30 10204 C 984.746 -2.95317 -4.29462 0
M  V30 10205 C 982.074 -3.71818 -4.53837 0
M  V30 10206 C 984.426 -4.24863 -4.68694 0
M  V30 10207 C 983.09 -4.63416 -4.80419 0
M  V30 10208 H 982.36 -0.16271 -0.722915 0
M  V30 10209 H 985.007 -1.07399 -1.58549 0
M  V30 10210 H 983.312 0.092513 -3.91691 0
M  V30 10211 H 985.009 -0.290012 -3.9995 0
M  V30 10212 H 981.599 -1.72174 -3.92497 0
M  V30 10213 H 985.783 -2.66726 -4.18534 0
M  V30 10214 H 981.039 -4.01484 -4.61108 0
M  V30 10215 H 985.213 -4.96347 -4.8848 0
M  V30 10216 H 982.84 -5.6424 -5.09448 0
M  V30 10217 N 984.415 1.45619 -0.602734 0
M  V30 10218 C 985.345 2.33258 0.106342 0
M  V30 10219 C 986.326 1.46543 0.863664 0
M  V30 10220 O 987.511 1.75324 0.835175 0
M  V30 10221 C 984.641 3.29168 1.10751 0
M  V30 10222 C 983.595 4.25481 0.463717 0
M  V30 10223 C 982.921 5.11046 1.57278 0
M  V30 10224 C 984.221 5.18702 -0.61199 0
M  V30 10225 H 985.915 2.92795 -0.625423 0
M  V30 10226 H 983.461 1.40793 -0.302213 0
M  V30 10227 H 985.414 3.89346 1.61208 0
M  V30 10228 H 984.138 2.6778 1.8698 0
M  V30 10229 H 982.797 3.66595 -0.0199496 0
M  V30 10230 H 982.445 4.46029 2.32524 0
M  V30 10231 H 982.145 5.76286 1.14755 0
M  V30 10232 H 983.669 5.74091 2.07972 0
M  V30 10233 H 985.083 5.72979 -0.191686 0
M  V30 10234 H 983.48 5.92393 -0.958686 0
M  V30 10235 H 984.55 4.61424 -1.4905 0
M  V30 10236 N 985.893 0.34162 1.53853 0
M  V30 10237 C 987.139 -0.248546 2.01876 0
M  V30 10238 C 987.494 -1.48352 1.22513 0
M  V30 10239 O 986.787 -1.89174 0.303919 0
M  V30 10240 C 986.981 -0.616989 3.52034 0
M  V30 10241 C 986.81 0.580727 4.45935 0
M  V30 10242 C 985.58 1.08544 4.93504 0
M  V30 10243 C 987.778 1.43858 4.93771 0
M  V30 10244 N 985.76 2.24568 5.71351 0
M  V30 10245 C 987.131 2.44575 5.69722 0
M  V30 10246 C 989.186 1.46425 4.75882 0
M  V30 10247 C 987.889 3.47687 6.29688 0
M  V30 10248 C 989.915 2.48416 5.36697 0
M  V30 10249 C 989.277 3.4786 6.12514 0
M  V30 10250 H 985.376 -0.0543067 0.780112 0
M  V30 10251 H 987.96 0.480749 1.88671 0
M  V30 10252 H 986.131 -1.31539 3.65448 0
M  V30 10253 H 987.863 -1.19018 3.86803 0
M  V30 10254 H 984.618 0.653832 4.69065 0
M  V30 10255 H 985.042 2.83143 6.14946 0
M  V30 10256 H 989.684 0.709044 4.16812 0
M  V30 10257 H 987.402 4.24103 6.87868 0
M  V30 10258 H 990.988 2.51227 5.24763 0
M  V30 10259 H 989.868 4.25486 6.58734 0
M  V30 10260 N 987.371 -1.57444 0.0701946 0
M  V30 10261 C 988.619 -1.93047 -0.598106 0
M  V30 10262 C 988.94 -0.950841 -1.70247 0
M  V30 10263 O 988.21 0.00127177 -1.959 0
M  V30 10264 H 986.79 -0.712648 -0.223924 0
M  V30 10265 H 989.452 -1.94481 0.127674 0
M  V30 10266 H 988.548 -2.94807 -1.02445 0
M  V30 10267 N 988.849 0.203349 -1.56283 0
M  V30 10268 C 990.096 0.92501 -1.80138 0
M  V30 10269 C 990.424 1.83598 -0.64204 0
M  V30 10270 O 989.679 1.92119 0.372658 0
M  V30 10271 C 989.978 1.78016 -3.09912 0
M  V30 10272 C 989.644 1.02088 -4.39191 0
M  V30 10273 C 988.306 0.811208 -4.74313 0
M  V30 10274 C 990.658 0.486037 -5.18929 0
M  V30 10275 C 987.986 0.0550856 -5.86674 0
M  V30 10276 C 990.338 -0.256833 -6.32078 0
M  V30 10277 C 989.002 -0.477594 -6.65789 0
M  V30 10278 H 988.272 0.338485 -0.659173 0
M  V30 10279 H 990.919 0.191923 -1.90536 0
M  V30 10280 H 989.224 2.58167 -2.94715 0
M  V30 10281 H 990.921 2.341 -3.25574 0
M  V30 10282 H 987.511 1.1943 -4.11624 0
M  V30 10283 H 991.695 0.635446 -4.92215 0
M  V30 10284 H 986.951 -0.126006 -6.1127 0
M  V30 10285 H 991.125 -0.678683 -6.93085 0
M  V30 10286 H 988.752 -1.0654 -7.52697 0
M  V30 10287 N 990.327 1.50405 0.470755 0
M  V30 10288 C 991.557 1.64928 1.24428 0
M  V30 10289 C 991.965 0.332139 1.86262 0
M  V30 10290 O 991.308 -0.695919 1.70008 0
M  V30 10291 C 991.37 2.6829 2.39293 0
M  V30 10292 C 991.034 4.11835 1.98093 0
M  V30 10293 C 992.031 4.97693 1.50326 0
M  V30 10294 C 989.716 4.57753 2.06803 0
M  V30 10295 C 991.71 6.27516 1.11813 0
M  V30 10296 C 989.397 5.87582 1.67902 0
M  V30 10297 C 990.395 6.72289 1.20485 0
M  V30 10298 O 990.083 7.99694 0.821219 0
M  V30 10299 H 989.815 0.557418 0.382442 0
M  V30 10300 H 992.369 1.97382 0.568292 0
M  V30 10301 H 990.599 2.31079 3.10063 0
M  V30 10302 H 992.288 2.7203 3.01255 0
M  V30 10303 H 993.054 4.63434 1.43018 0
M  V30 10304 H 988.933 3.91966 2.42659 0
M  V30 10305 H 992.477 6.93586 0.747317 0
M  V30 10306 H 988.374 6.21362 1.74869 0
M  V30 10307 H 989.142 8.12968 0.950038 0
M  V30 10308 N 991.805 -0.723954 1.39988 0
M  V30 10309 C 992.768 -1.81973 1.3935 0
M  V30 10310 C 993.768 -1.58187 0.288702 0
M  V30 10311 O 994.958 -1.65383 0.547181 0
M  V30 10312 C 992.09 -3.19937 1.177 0
M  V30 10313 H 993.283 -1.83939 2.36868 0
M  V30 10314 H 990.836 -0.928742 1.25714 0
M  V30 10315 H 991.571 -3.23625 0.209093 0
M  V30 10316 H 991.356 -3.386 1.97719 0
M  V30 10317 H 992.846 -3.99981 1.20022 0
M  V30 10318 O 993.322 -1.3636 -0.865351 0
M  V30 10319 H 994.013 -1.21995 -1.50455 0
M  V30 END ATOM
M  V30 BEGIN BOND
M  V30 END BOND
M  V30 END CTAB
M  END
$$$$
