drugbank_target|P31723 Mannosyl-oligosaccharide alpha-1,2-mannosidase (DB02742; DB03206)
 OpenBabel12092119593D

  0  0  0     0  0            999 V3000
M  V30 BEGIN CTAB
M  V30 COUNTS 7817 7919 0 0 0
M  V30 BEGIN ATOM
M  V30 1 H -0.908 1.98254 -0.117106 0
M  V30 2 N 0 1.576 0 0
M  V30 3 C 0.933 2.03868 1.02534 0
M  V30 4 C 1.911 0.928543 1.3348 0
M  V30 5 O 3.095 1.19667 1.45644 0
M  V30 6 C 0.222 2.43627 2.35294 0
M  V30 7 C -0.732 3.65373 2.2001 0
M  V30 8 S 0.101 5.13292 1.52614 0
M  V30 9 C 1.257 5.56322 2.86805 0
M  V30 10 H 1.49 2.90518 0.631377 0
M  V30 11 H -0.977 1.52953 0.210867 0
M  V30 12 H 0.981 2.67203 3.11629 0
M  V30 13 H -0.358 1.57376 2.7183 0
M  V30 14 H -1.165 3.90944 3.18086 0
M  V30 15 H -1.563 3.418 1.51819 0
M  V30 16 H 0.729 5.58782 3.83104 0
M  V30 17 H 1.672 6.56266 2.65933 0
M  V30 18 H 2.08 4.83886 2.90714 0
M  V30 19 N 1.4781 -0.272755 1.55222 0
M  V30 20 C 2.8941 -0.619959 1.47067 0
M  V30 21 C 3.0941 -1.895 0.684978 0
M  V30 22 O 2.1501 -2.51675 0.203931 0
M  V30 23 C 3.4631 -0.746693 2.91282 0
M  V30 24 C 5.0111 -0.840731 3.01497 0
M  V30 25 C 5.4861 -0.99924 4.46967 0
M  V30 26 N 6.9771 -1.06476 4.50796 0
M  V30 27 C 7.7121 -1.20621 5.6057 0
M  V30 28 N 7.2081 -1.31483 6.80209 0
M  V30 29 N 9.0011 -1.23733 5.48312 0
M  V30 30 H 1.1521 0.564606 2.04758 0
M  V30 31 H 3.4151 0.191177 0.928523 0
M  V30 32 H 3.1211 0.119753 3.51496 0
M  V30 33 H 2.9951 -1.6269 3.40311 0
M  V30 34 H 5.3821 -1.69764 2.41379 0
M  V30 35 H 5.4631 0.0640874 2.5572 0
M  V30 36 H 5.1071 -0.146984 5.07687 0
M  V30 37 H 5.0371 -1.91871 4.90401 0
M  V30 38 H 7.5281 -0.993196 3.64615 0
M  V30 39 H 7.8411 -1.42111 7.59621 0
M  V30 40 H 6.1861 -1.28487 6.8302 0
M  V30 41 H 9.3771 -1.14877 4.53785 0
M  V30 42 H 9.5501 -1.34412 6.33906 0
M  V30 43 N 2.9562 -1.48159 -0.537278 0
M  V30 44 C 3.8862 -1.65029 -1.6519 0
M  V30 45 C 4.8672 -0.499281 -1.62607 0
M  V30 46 O 6.0522 -0.730972 -1.79918 0
M  V30 47 C 3.1822 -1.68303 -3.03795 0
M  V30 48 C 2.1362 -2.8283 -3.21234 0
M  V30 49 C 1.4622 -2.71189 -4.60826 0
M  V30 50 C 2.7622 -4.24211 -3.04701 0
M  V30 51 H 4.4562 -2.58341 -1.51328 0
M  V30 52 H 2.0022 -1.24325 -0.726585 0
M  V30 53 H 3.9552 -1.78693 -3.81637 0
M  V30 54 H 2.6792 -0.715635 -3.18663 0
M  V30 55 H 1.3382 -2.71983 -2.45807 0
M  V30 56 H 0.9862 -1.72435 -4.7252 0
M  V30 57 H 0.6862 -3.48035 -4.7344 0
M  V30 58 H 2.2102 -2.83537 -5.40777 0
M  V30 59 H 3.6242 -4.3593 -3.72341 0
M  V30 60 H 2.0212 -5.01998 -3.28813 0
M  V30 61 H 3.0912 -4.41184 -2.01209 0
M  V30 62 N 4.4343 0.785586 -1.36625 0
M  V30 63 C 5.8453 1.36101 -1.27803 0
M  V30 64 C 6.1963 1.96035 0.0804875 0
M  V30 65 O 5.3213 1.92834 0.982042 0
M  V30 66 C 5.9163 2.47442 -2.31426 0
M  V30 67 C 4.4753 3.00789 -2.26281 0
M  V30 68 C 3.6223 1.73896 -2.15999 0
M  V30 69 H 6.5733 0.586928 -1.47448 0
M  V30 70 H 6.5943 3.2656 -1.95291 0
M  V30 71 H 6.1063 2.03791 -3.30289 0
M  V30 72 H 4.2073 3.48851 -1.30896 0
M  V30 73 H 4.3203 3.57343 -3.19128 0
M  V30 74 H 2.6843 1.9628 -1.62316 0
M  V30 75 H 3.4673 1.32368 -3.16755 0
M  V30 76 N 5.9124 1.20967 1.01018 0
M  V30 77 C 7.1584 1.02526 1.74975 0
M  V30 78 C 7.4914 -0.4408 1.89131 0
M  V30 79 O 6.7664 -1.32718 1.42184 0
M  V30 80 C 7.0494 1.71699 3.1653 0
M  V30 81 C 6.9024 3.25791 3.10129 0
M  V30 82 C 8.2214 1.45531 4.15342 0
M  V30 83 H 5.3404 0.373863 0.635134 0
M  V30 84 H 7.9824 1.49071 1.17805 0
M  V30 85 H 6.1324 1.32128 3.65341 0
M  V30 86 H 7.8044 3.74697 2.69072 0
M  V30 87 H 6.0474 3.56363 2.47362 0
M  V30 88 H 6.7184 3.69353 4.10222 0
M  V30 89 H 9.1944 1.79872 3.75213 0
M  V30 90 H 8.0704 1.96453 5.1254 0
M  V30 91 H 8.3314 0.384237 4.40427 0
M  V30 92 N 7.3905 -1.2043 1.01659 0
M  V30 93 C 8.6155 -1.94318 0.724942 0
M  V30 94 C 9.0405 -1.74266 -0.708034 0
M  V30 95 O 8.3985 -1.03694 -1.48719 0
M  V30 96 C 8.4465 -3.44486 1.06591 0
M  V30 97 O 7.5505 -4.12017 0.177599 0
M  V30 98 H 6.8915 -0.60708 0.26898 0
M  V30 99 H 9.4215 -1.52861 1.35995 0
M  V30 100 H 9.4315 -3.95106 1.01762 0
M  V30 101 H 8.1065 -3.58404 2.10997 0
M  V30 102 H 6.6835 -3.71821 0.283421 0
M  V30 103 N 8.8686 -0.792821 -1.36206 0
M  V30 104 C 10.1156 -0.366786 -1.99151 0
M  V30 105 C 10.4436 1.06243 -1.62919 0
M  V30 106 O 9.6986 1.74927 -0.877442 0
M  V30 107 C 9.9976 -0.481501 -3.54142 0
M  V30 108 C 9.6636 -1.87202 -4.10203 0
M  V30 109 C 8.3256 -2.25248 -4.25226 0
M  V30 110 C 10.6776 -2.78237 -4.40719 0
M  V30 111 C 8.0056 -3.53723 -4.68078 0
M  V30 112 C 10.3576 -4.06144 -4.85005 0
M  V30 113 C 9.0216 -4.44207 -4.98234 0
M  V30 114 H 8.2916 -0.134217 -0.728743 0
M  V30 115 H 10.9386 -1.01094 -1.62641 0
M  V30 116 H 9.2436 0.246146 -3.91026 0
M  V30 117 H 10.9406 -0.132844 -4.0078 0
M  V30 118 H 7.5306 -1.56639 -3.98951 0
M  V30 119 H 11.7146 -2.50097 -4.28679 0
M  V30 120 H 6.9706 -3.8308 -4.76508 0
M  V30 121 H 11.1446 -4.76796 -5.07581 0
M  V30 122 H 8.7716 -5.43814 -5.31197 0
M  V30 123 N 10.3467 1.47872 -0.545128 0
M  V30 124 C 11.7577 1.86384 -0.108581 0
M  V30 125 C 12.1087 1.45309 1.31832 0
M  V30 126 O 11.2337 0.850641 1.9898 0
M  V30 127 C 11.8287 3.38265 -0.190274 0
M  V30 128 C 10.3877 3.75914 0.191164 0
M  V30 129 C 9.5347 2.71926 -0.543273 0
M  V30 130 H 12.4857 1.39561 -0.755537 0
M  V30 131 H 12.5067 3.75831 0.594217 0
M  V30 132 H 12.0187 3.6813 -1.2289 0
M  V30 133 H 10.1197 3.51665 1.23136 0
M  V30 134 H 10.2327 4.78836 -0.158987 0
M  V30 135 H 8.5967 2.54697 0.0122495 0
M  V30 136 H 9.3797 3.04634 -1.58282 0
M  V30 137 N 11.8248 0.280983 1.55075 0
M  V30 138 C 12.7548 -0.597469 2.25727 0
M  V30 139 C 13.7358 -1.15417 1.24952 0
M  V30 140 O 14.9208 -1.18722 1.53684 0
M  V30 141 C 12.0508 -1.7789 2.98283 0
M  V30 142 C 11.0048 -1.35347 4.06036 0
M  V30 143 C 10.3308 -2.61846 4.66198 0
M  V30 144 C 11.6308 -0.499354 5.19907 0
M  V30 145 H 13.3248 -0.00824265 2.99399 0
M  V30 146 H 10.8708 -0.0025244 1.44 0
M  V30 147 H 12.8238 -2.39937 3.46422 0
M  V30 148 H 11.5478 -2.39405 2.22155 0
M  V30 149 H 10.2068 -0.756156 3.58717 0
M  V30 150 H 9.8548 -3.21632 3.86732 0
M  V30 151 H 9.5548 -2.3409 5.38958 0
M  V30 152 H 11.0788 -3.24732 5.1709 0
M  V30 153 H 12.4928 -1.02498 5.64063 0
M  V30 154 H 10.8898 -0.316424 5.99265 0
M  V30 155 H 11.9598 0.480459 4.82514 0
M  V30 156 N 13.3029 -1.57598 0.00835791 0
M  V30 157 C 14.5309 -1.95214 -0.68549 0
M  V30 158 C 14.9459 -0.883706 -1.66841 0
M  V30 159 O 14.3029 0.136565 -1.81988 0
M  V30 160 C 14.3539 -3.32865 -1.41007 0
M  V30 161 O 14.0749 -4.35609 -0.466552 0
M  V30 162 C 15.5759 -3.84991 -2.19765 0
M  V30 163 H 12.7959 -0.643422 -0.190392 0
M  V30 164 H 15.3399 -2.04406 0.0619607 0
M  V30 165 H 13.4949 -3.24956 -2.10908 0
M  V30 166 H 13.9089 -5.15288 -0.978699 0
M  V30 167 H 15.3829 -4.8371 -2.65948 0
M  V30 168 H 15.8599 -3.18137 -3.02796 0
M  V30 169 H 16.4659 -3.96103 -1.54864 0
M  V30 170 N 14.781 0.264519 -1.55364 0
M  V30 171 C 16.027 0.99646 -1.76631 0
M  V30 172 C 16.36 1.85632 -0.570478 0
M  V30 173 O 15.635 1.89647 0.43175 0
M  V30 174 C 15.918 1.87187 -3.07625 0
M  V30 175 C 15.771 1.04138 -4.37579 0
M  V30 176 C 17.09 2.85749 -3.34717 0
M  V30 177 H 14.209 0.360841 -0.642622 0
M  V30 178 H 16.851 0.268218 -1.88097 0
M  V30 179 H 15.001 2.49279 -2.9798 0
M  V30 180 H 16.673 0.440517 -4.59192 0
M  V30 181 H 14.916 0.345115 -4.32425 0
M  V30 182 H 15.587 1.68729 -5.2558 0
M  V30 183 H 18.063 2.33793 -3.4421 0
M  V30 184 H 16.939 3.44136 -4.27623 0
M  V30 185 H 17.2 3.61311 -2.54768 0
M  V30 186 N 16.2591 1.48442 0.529413 0
M  V30 187 C 17.1891 1.65902 1.64313 0
M  V30 188 C 18.1701 0.507897 1.6234 0
M  V30 189 O 19.3551 0.740503 1.79528 0
M  V30 190 C 16.4851 1.69911 3.02898 0
M  V30 191 C 15.4391 2.8453 3.19729 0
M  V30 192 C 14.7651 2.73629 4.59381 0
M  V30 193 C 16.0651 4.25821 3.02447 0
M  V30 194 H 17.7591 2.5914 1.49955 0
M  V30 195 H 15.3051 1.24709 0.719982 0
M  V30 196 H 17.2581 1.80715 3.80684 0
M  V30 197 H 15.9821 0.732524 3.18279 0
M  V30 198 H 14.6411 2.73283 2.44361 0
M  V30 199 H 14.2891 1.74938 4.71599 0
M  V30 200 H 13.9891 3.50541 4.71588 0
M  V30 201 H 15.5131 2.86401 5.39265 0
M  V30 202 H 16.9271 4.37898 3.70024 0
M  V30 203 H 15.3241 5.03735 3.26146 0
M  V30 204 H 16.3941 4.42244 1.98867 0
M  V30 205 N 17.7372 -0.778329 1.37039 0
M  V30 206 C 18.9622 -1.57248 1.35233 0
M  V30 207 C 19.3872 -1.87999 -0.0615568 0
M  V30 208 O 18.7452 -1.48734 -1.03672 0
M  V30 209 C 18.7932 -2.86353 2.19167 0
M  V30 210 O 17.8972 -3.80442 1.59178 0
M  V30 211 H 17.2382 -0.476569 0.462362 0
M  V30 212 H 19.7682 -0.963853 1.80474 0
M  V30 213 H 19.7782 -3.35519 2.32145 0
M  V30 214 H 18.4532 -2.63299 3.21942 0
M  V30 215 H 17.0302 -3.39067 1.55203 0
M  V30 216 N 19.2153 -1.21501 -1.00376 0
M  V30 217 C 20.1453 -0.999478 -2.11028 0
M  V30 218 C 21.1263 0.0759671 -1.6993 0
M  V30 219 O 22.3113 -0.0841106 -1.94018 0
M  V30 220 C 19.4413 -0.564709 -3.42678 0
M  V30 221 C 18.3953 -1.58486 -3.97576 0
M  V30 222 C 17.7213 -1.00628 -5.25146 0
M  V30 223 C 19.0213 -2.97204 -4.29496 0
M  V30 224 H 20.7153 -1.92495 -2.29317 0
M  V30 225 H 18.2613 -0.92693 -1.102 0
M  V30 226 H 20.2143 -0.401091 -4.19487 0
M  V30 227 H 18.9383 0.396411 -3.24185 0
M  V30 228 H 17.5973 -1.73606 -3.22888 0
M  V30 229 H 17.2453 -0.0368439 -5.02987 0
M  V30 230 H 16.9453 -1.68771 -5.62841 0
M  V30 231 H 18.4693 -0.854015 -6.04598 0
M  V30 232 H 19.8833 -2.8552 -4.97143 0
M  V30 233 H 18.2803 -3.62372 -4.78338 0
M  V30 234 H 19.3503 -3.47956 -3.3772 0
M  V30 235 N 20.6934 1.19889 -1.02296 0
M  V30 236 C 21.6234 2.25141 -0.619174 0
M  V30 237 C 22.6044 1.66051 0.368915 0
M  V30 238 O 23.7894 1.92546 0.252941 0
M  V30 239 C 20.9194 3.4728 0.0368783 0
M  V30 240 C 19.8734 4.19005 -0.872865 0
M  V30 241 C 19.1994 5.34637 -0.0822402 0
M  V30 242 C 20.4994 4.74452 -2.18387 0
M  V30 243 H 22.1934 2.59171 -1.49903 0
M  V30 244 H 19.7394 1.24579 -0.722222 0
M  V30 245 H 21.6924 4.20098 0.330958 0
M  V30 246 H 20.4164 3.12433 0.95149 0
M  V30 247 H 19.0754 3.48061 -1.15105 0
M  V30 248 H 18.7234 4.96034 0.83422 0
M  V30 249 H 18.4234 5.83557 -0.688149 0
M  V30 250 H 19.9474 6.10255 0.205238 0
M  V30 251 H 21.3614 5.39055 -1.95172 0
M  V30 252 H 19.7584 5.33834 -2.74119 0
M  V30 253 H 20.8284 3.92844 -2.84257 0
M  V30 254 N 22.1715 0.800033 1.35784 0
M  V30 255 C 23.4195 0.376597 1.9856 0
M  V30 256 C 23.7405 -1.05812 1.63795 0
M  V30 257 O 23.0105 -1.73103 0.917171 0
M  V30 258 H 21.5905 0.136261 0.734467 0
M  V30 259 H 24.2525 1.02442 1.65806 0
M  V30 260 H 23.3485 0.477002 3.08433 0
M  V30 261 N 23.6496 -1.47581 0.552962 0
M  V30 262 C 24.8746 -2.07378 0.0300593 0
M  V30 263 C 25.2996 -1.40355 -1.25229 0
M  V30 264 O 24.6576 -0.477099 -1.7491 0
M  V30 265 C 24.7056 -3.60274 -0.153231 0
M  V30 266 O 23.8096 -3.94041 -1.21678 0
M  V30 267 H 23.1506 -0.662158 0.0494182 0
M  V30 268 H 25.6806 -1.89662 0.767434 0
M  V30 269 H 25.6906 -4.0633 -0.368761 0
M  V30 270 H 24.3656 -4.08455 0.783397 0
M  V30 271 H 22.9426 -3.59735 -0.982079 0
M  V30 272 N 25.1277 -0.289203 -1.54924 0
M  V30 273 C 26.3557 0.326463 -2.04308 0
M  V30 274 C 26.7707 1.48413 -1.16701 0
M  V30 275 O 26.1277 1.81507 -0.190087 0
M  V30 276 C 26.1787 0.794014 -3.52672 0
M  V30 277 O 25.8997 -0.317564 -4.36948 0
M  V30 278 C 27.4007 1.47605 -4.18004 0
M  V30 279 H 24.6207 0.0726272 -0.667058 0
M  V30 280 H 27.1647 -0.425401 -2.00026 0
M  V30 281 H 25.3197 1.49593 -3.57352 0
M  V30 282 H 25.7337 0.0443186 -5.24481 0
M  V30 283 H 27.2077 1.75447 -5.23376 0
M  V30 284 H 27.6847 2.41224 -3.67025 0
M  V30 285 H 28.2907 0.81762 -4.17367 0
M  V30 286 N 26.6058 1.57591 -0.0167156 0
M  V30 287 C 27.8548 1.90461 0.663877 0
M  V30 288 C 28.1678 0.893515 1.73999 0
M  V30 289 O 29.3738 1.11302 2.47637 0
M  V30 290 C 27.8298 3.38155 1.23204 0
M  V30 291 C 27.4378 4.47597 0.189866 0
M  V30 292 C 29.1818 3.80111 1.88986 0
M  V30 293 C 27.0888 5.86379 0.768964 0
M  V30 294 H 26.0188 0.710738 0.251729 0
M  V30 295 H 28.6698 1.83326 -0.0799926 0
M  V30 296 H 27.0518 3.40182 2.02712 0
M  V30 297 H 28.2258 4.57112 -0.581846 0
M  V30 298 H 26.5408 4.14766 -0.368475 0
M  V30 299 H 29.1378 4.81145 2.33247 0
M  V30 300 H 29.4808 3.14511 2.72743 0
M  V30 301 H 30.0138 3.80454 1.16187 0
M  V30 302 H 26.7528 6.55493 -0.0301957 0
M  V30 303 H 26.2728 5.80496 1.50945 0
M  V30 304 H 27.9518 6.34563 1.26251 0
M  V30 305 N 28.0839 -0.256276 1.55502 0
M  V30 306 C 29.0469 -1.30047 1.88734 0
M  V30 307 C 30.0469 -1.4154 0.763086 0
M  V30 308 O 31.2369 -1.40403 1.03115 0
M  V30 309 C 28.3689 -2.67953 2.10747 0
M  V30 310 H 29.5619 -1.01802 2.82093 0
M  V30 311 H 27.1149 -0.495134 1.4825 0
M  V30 312 H 27.8499 -3.01351 1.19825 0
M  V30 313 H 27.6349 -2.60993 2.92617 0
M  V30 314 H 29.1249 -3.43368 2.37673 0
M  V30 315 N 29.562 -1.4872 -0.521534 0
M  V30 316 C 30.512 -1.60269 -1.62166 0
M  V30 317 C 31.496 -0.45935 -1.54204 0
M  V30 318 O 32.688 -0.711241 -1.62081 0
M  V30 319 C 29.817 -1.65344 -3.00859 0
M  V30 320 C 28.903 -2.85187 -3.13894 0
M  V30 321 N 29.294 -4.09509 -2.96877 0
M  V30 322 C 27.592 -2.82695 -3.44963 0
M  V30 323 C 28.293 -4.89959 -3.13552 0
M  V30 324 N 27.269 -4.22934 -3.41508 0
M  V30 325 H 31.071 -2.5413 -1.47632 0
M  V30 326 H 28.585 -1.45209 -0.727194 0
M  V30 327 H 30.582 -1.71713 -3.79895 0
M  V30 328 H 29.242 -0.726058 -3.16478 0
M  V30 329 H 30.253 -4.39814 -2.73467 0
M  V30 330 H 26.93 -1.99249 -3.66887 0
M  V30 331 H 28.32 -5.98654 -3.05061 0
M  V30 332 N 31.0401 0.771051 -1.3745 0
M  V30 333 C 32.4511 1.34737 -1.29239 0
M  V30 334 C 32.8021 1.96109 0.0596908 0
M  V30 335 O 31.9271 1.93865 0.961534 0
M  V30 336 C 32.5221 2.44973 -2.34037 0
M  V30 337 C 31.0811 2.98372 -2.29458 0
M  V30 338 C 30.2281 1.71595 -2.17831 0
M  V30 339 H 33.1791 0.571256 -1.48062 0
M  V30 340 H 33.2001 3.24471 -1.98744 0
M  V30 341 H 32.7121 2.00276 -3.32432 0
M  V30 342 H 30.8131 3.47443 -1.34589 0
M  V30 343 H 30.9261 3.53939 -3.229 0
M  V30 344 H 29.2901 1.94547 -1.64388 0
M  V30 345 H 30.0731 1.29001 -3.18141 0
M  V30 346 N 32.5182 1.22032 0.997298 0
M  V30 347 C 33.7482 1.06686 1.76923 0
M  V30 348 C 34.1562 -0.385838 1.85224 0
M  V30 349 O 33.4992 -1.27929 1.31833 0
M  V30 350 C 33.5612 1.59802 3.22031 0
M  V30 351 C 33.2252 3.08362 3.37286 0
M  V30 352 C 34.2222 4.05835 3.24952 0
M  V30 353 C 31.9072 3.47727 3.6248 0
M  V30 354 C 33.9012 5.4066 3.37588 0
M  V30 355 C 31.5882 4.82701 3.74757 0
M  V30 356 C 32.5862 5.78977 3.62319 0
M  V30 357 O 32.2742 7.11502 3.74193 0
M  V30 358 H 32.0062 0.374767 0.562606 0
M  V30 359 H 34.5602 1.61991 1.26286 0
M  V30 360 H 32.7902 0.989003 3.73839 0
M  V30 361 H 34.4792 1.40184 3.80924 0
M  V30 362 H 35.2452 3.76766 3.05405 0
M  V30 363 H 31.1242 2.73317 3.7124 0
M  V30 364 H 34.6682 6.15788 3.27796 0
M  V30 365 H 30.5652 5.11453 3.9381 0
M  V30 366 H 31.3332 7.19019 3.91093 0
M  V30 367 N 33.9963 -1.19345 1.0293 0
M  V30 368 C 35.2443 -1.88665 0.724574 0
M  V30 369 C 35.5653 -1.80036 -0.749144 0
M  V30 370 O 34.8353 -1.2111 -1.53978 0
M  V30 371 H 33.4153 -0.698406 0.265025 0
M  V30 372 H 36.0773 -1.44885 1.30362 0
M  V30 373 H 35.1733 -2.94987 1.01926 0
M  V30 374 N 35.4744 -0.807222 -1.35358 0
M  V30 375 C 36.3844 -0.219594 -2.3357 0
M  V30 376 C 37.4004 0.637734 -1.61892 0
M  V30 377 O 38.5764 0.549336 -1.93763 0
M  V30 378 C 35.6414 0.62158 -3.41083 0
M  V30 379 C 34.7024 -0.256315 -4.28534 0
M  V30 380 C 33.9354 0.544807 -5.30912 0
M  V30 381 O 34.1584 1.77944 -5.41934 0
M  V30 382 O 33.0924 -0.0646478 -6.01865 0
M  V30 383 H 36.9184 -1.03208 -2.85625 0
M  V30 384 H 34.5034 -0.569025 -1.38139 0
M  V30 385 H 36.3854 1.10067 -4.06772 0
M  V30 386 H 35.0604 1.41165 -2.91297 0
M  V30 387 H 33.9674 -0.782559 -3.65823 0
M  V30 388 H 35.3004 -1.01034 -4.81719 0
M  V30 389 N 36.9525 1.47285 -0.560781 0
M  V30 390 C 38.1805 2.06855 -0.0430262 0
M  V30 391 C 38.5955 1.41291 1.25229 0
M  V30 392 O 37.9525 0.510648 1.7521 0
M  V30 393 C 38.0035 3.61178 0.152518 0
M  V30 394 O 37.7245 4.24285 -1.0915 0
M  V30 395 C 39.2255 4.37624 0.707145 0
M  V30 396 H 36.4455 0.669319 -0.0474652 0
M  V30 397 H 38.9895 1.89237 -0.77521 0
M  V30 398 H 37.1445 3.78298 0.834843 0
M  V30 399 H 37.5585 5.16868 -0.891482 0
M  V30 400 H 39.0325 5.46271 0.793244 0
M  V30 401 H 39.5095 4.04152 1.71923 0
M  V30 402 H 40.1155 4.25257 0.0604027 0
M  V30 403 N 38.4306 0.297415 1.54768 0
M  V30 404 C 39.3406 -0.58983 2.27064 0
M  V30 405 C 40.3566 -1.15144 1.30453 0
M  V30 406 O 41.5326 -1.17699 1.63428 0
M  V30 407 C 38.5976 -1.74714 2.9946 0
M  V30 408 C 37.6586 -1.21997 4.11601 0
M  V30 409 C 36.8916 -2.32212 4.80535 0
M  V30 410 O 37.1146 -3.52036 4.48806 0
M  V30 411 O 36.0486 -1.99106 5.68014 0
M  V30 412 H 39.8746 -0.00348199 3.037 0
M  V30 413 H 37.4596 0.0640035 1.49263 0
M  V30 414 H 39.3416 -2.42147 3.44881 0
M  V30 415 H 38.0166 -2.32016 2.25722 0
M  V30 416 H 36.9236 -0.511458 3.70587 0
M  V30 417 H 38.2566 -0.692419 4.87305 0
M  V30 418 N 39.9087 -1.5758 0.0250728 0
M  V30 419 C 40.8717 -2.08896 -0.943139 0
M  V30 420 C 41.8717 -1.00321 -1.25668 0
M  V30 421 O 43.0617 -1.26495 -1.19769 0
M  V30 422 C 40.1937 -2.55143 -2.26086 0
M  V30 423 H 41.3867 -2.95723 -0.498775 0
M  V30 424 H 38.9397 -1.54703 -0.222888 0
M  V30 425 H 39.6747 -1.71633 -2.75159 0
M  V30 426 H 39.4597 -3.34461 -2.04641 0
M  V30 427 H 40.9497 -2.95083 -2.95492 0
M  V30 428 N 41.3868 0.248026 -1.55636 0
M  V30 429 C 42.6328 0.97767 -1.77678 0
M  V30 430 C 42.9658 1.85016 -0.590135 0
M  V30 431 O 42.2408 1.90095 0.411611 0
M  V30 432 C 42.5238 1.83914 -3.09593 0
M  V30 433 C 42.3768 0.99491 -4.38659 0
M  V30 434 C 43.6958 2.82183 -3.37729 0
M  V30 435 H 40.8148 0.354005 -0.646413 0
M  V30 436 H 43.4568 0.248253 -1.88371 0
M  V30 437 H 41.6068 2.46104 -3.00608 0
M  V30 438 H 43.2788 0.391789 -4.59633 0
M  V30 439 H 41.5218 0.299231 -4.32767 0
M  V30 440 H 42.1928 1.63145 -5.2734 0
M  V30 441 H 44.6688 2.30129 -3.4667 0
M  V30 442 H 43.5448 3.39582 -4.31249 0
M  V30 443 H 43.8058 3.58588 -2.58586 0
M  V30 444 N 42.8649 1.48995 0.513639 0
M  V30 445 C 43.7949 1.67636 1.62544 0
M  V30 446 C 44.7759 0.525087 1.61793 0
M  V30 447 O 45.9609 0.759502 1.78732 0
M  V30 448 C 43.0909 1.73114 3.01079 0
M  V30 449 C 42.0449 2.87905 3.16693 0
M  V30 450 C 41.3709 2.78486 4.56453 0
M  V30 451 C 42.6709 4.29005 2.97913 0
M  V30 452 H 44.3649 2.60716 1.47198 0
M  V30 453 H 41.9109 1.25465 0.706714 0
M  V30 454 H 43.8639 1.84742 3.78746 0
M  V30 455 H 42.5879 0.766241 3.17484 0
M  V30 456 H 41.2469 2.75859 2.41448 0
M  V30 457 H 40.8949 1.7993 4.69717 0
M  V30 458 H 40.5949 3.55523 4.67843 0
M  V30 459 H 42.1189 2.92104 5.36197 0
M  V30 460 H 43.5329 4.41798 3.65359 0
M  V30 461 H 41.9299 5.07166 3.20785 0
M  V30 462 H 42.9999 4.44329 1.94165 0
M  V30 463 N 44.343 -0.763751 1.37857 0
M  V30 464 C 45.759 -1.06542 1.18832 0
M  V30 465 C 45.959 -2.01478 0.0299722 0
M  V30 466 O 45.015 -2.4458 -0.627447 0
M  V30 467 C 46.328 -1.65525 2.51042 0
M  V30 468 C 47.876 -1.77745 2.57635 0
M  V30 469 C 48.351 -2.4014 3.89996 0
M  V30 470 N 49.842 -2.47582 3.91481 0
M  V30 471 C 50.577 -2.96732 4.9065 0
M  V30 472 N 50.073 -3.45993 6.00217 0
M  V30 473 N 51.866 -2.95679 4.78048 0
M  V30 474 H 44.017 -0.133556 2.1198 0
M  V30 475 H 46.28 -0.121879 0.940133 0
M  V30 476 H 45.986 -1.03236 3.36207 0
M  V30 477 H 45.86 -2.64719 2.68707 0
M  V30 478 H 48.247 -2.39164 1.72872 0
M  V30 479 H 48.328 -0.772836 2.43846 0
M  V30 480 H 47.972 -1.79358 4.75177 0
M  V30 481 H 47.902 -3.41223 4.01092 0
M  V30 482 H 50.393 -2.1273 3.12337 0
M  V30 483 H 50.706 -3.81922 6.7183 0
M  V30 484 H 49.051 -3.44077 6.03851 0
M  V30 485 H 52.242 -2.56499 3.91568 0
M  V30 486 H 52.415 -3.33672 5.55488 0
M  V30 487 N 45.8211 -1.22559 -0.990812 0
M  V30 488 C 47.0461 -1.07862 -1.77145 0
M  V30 489 C 47.4711 0.366447 -1.84496 0
M  V30 490 O 46.8291 1.26478 -1.29896 0
M  V30 491 C 46.8771 -1.69686 -3.18181 0
M  V30 492 O 45.9811 -0.951946 -4.01263 0
M  V30 493 H 45.3221 -0.378712 -0.545411 0
M  V30 494 H 47.8521 -1.62399 -1.2445 0
M  V30 495 H 47.8621 -1.74496 -3.68802 0
M  V30 496 H 46.5371 -2.74841 -3.12146 0
M  V30 497 H 45.1141 -0.980011 -3.59792 0
M  V30 498 N 47.2992 1.18797 -1.03562 0
M  V30 499 C 48.2092 2.25913 -0.632505 0
M  V30 500 C 49.2252 1.70668 0.338882 0
M  V30 501 O 50.4012 2.00453 0.195076 0
M  V30 502 C 47.4662 3.467 0.00350942 0
M  V30 503 C 46.5272 4.17098 -1.01624 0
M  V30 504 C 45.7602 5.32119 -0.410478 0
M  V30 505 O 45.9832 5.64976 0.784725 0
M  V30 506 O 44.9172 5.9107 -1.13667 0
M  V30 507 H 48.7432 2.62648 -1.52478 0
M  V30 508 H 46.3282 1.25781 -0.806195 0
M  V30 509 H 48.2102 4.19878 0.35781 0
M  V30 510 H 46.8852 3.11798 0.869686 0
M  V30 511 H 45.7922 3.4601 -1.42224 0
M  V30 512 H 47.1252 4.55987 -1.85301 0
M  V30 513 N 48.7773 0.814389 1.34928 0
M  V30 514 C 50.1883 0.458364 1.80986 0
M  V30 515 C 50.5393 -1.02042 1.67577 0
M  V30 516 O 49.6643 -1.79352 1.21086 0
M  V30 517 C 50.2593 0.825212 3.28597 0
M  V30 518 C 48.8183 0.521677 3.72767 0
M  V30 519 C 47.9653 1.04668 2.56788 0
M  V30 520 H 50.9163 1.00533 1.22795 0
M  V30 521 H 50.9373 0.12571 3.80292 0
M  V30 522 H 50.4493 1.90154 3.38324 0
M  V30 523 H 48.5503 -0.545589 3.68584 0
M  V30 524 H 48.6633 1.05977 4.67232 0
M  V30 525 H 47.0273 0.468622 2.50352 0
M  V30 526 H 47.8103 2.12927 2.6929 0
M  V30 527 N 50.2554 -1.46986 0.568584 0
M  V30 528 C 51.2024 -2.30153 -0.172707 0
M  V30 529 C 52.1724 -1.39759 -0.897586 0
M  V30 530 O 53.3574 -1.68716 -0.891044 0
M  V30 531 C 50.4974 -3.23952 -1.1895 0
M  V30 532 C 49.6104 -4.29441 -0.469517 0
M  V30 533 C 48.7454 -5.1038 -1.47259 0
M  V30 534 C 47.7844 -6.07632 -0.738225 0
M  V30 535 N 46.9214 -6.8149 -1.68868 0
M  V30 536 H 51.7614 -2.93019 0.542596 0
M  V30 537 H 49.2984 -1.44422 0.279401 0
M  V30 538 H 51.2564 -3.76767 -1.79173 0
M  V30 539 H 49.8864 -2.62926 -1.87269 0
M  V30 540 H 48.9384 -3.79594 0.247467 0
M  V30 541 H 50.2504 -4.98689 0.105241 0
M  V30 542 H 49.4044 -5.67402 -2.14803 0
M  V30 543 H 48.1434 -4.4106 -2.08128 0
M  V30 544 H 47.1484 -5.49778 -0.0489293 0
M  V30 545 H 48.3734 -6.78966 -0.135129 0
M  V30 546 H 46.3194 -6.14891 -2.28573 0
M  V30 547 H 46.2364 -7.46948 -1.16636 0
M  V30 548 H 47.5044 -7.43078 -2.3549 0
M  V30 549 N 51.7335 -0.305618 -1.54608 0
M  V30 550 C 52.9585 0.307562 -2.05107 0
M  V30 551 C 53.3835 1.46385 -1.18123 0
M  V30 552 O 52.7415 1.8034 -0.186324 0
M  V30 553 C 52.7895 0.73704 -3.52987 0
M  V30 554 O 51.8935 1.84134 -3.6901 0
M  V30 555 H 51.2345 0.0589143 -0.661381 0
M  V30 556 H 53.7645 -0.448807 -1.99617 0
M  V30 557 H 53.7745 1.02459 -3.94925 0
M  V30 558 H 52.4495 -0.108773 -4.15758 0
M  V30 559 H 51.0265 1.55398 -3.38978 0
M  V30 560 N 53.2116 1.57565 -0.0334293 0
M  V30 561 C 54.1596 2.1164 0.96496 0
M  V30 562 C 55.1536 1.04398 1.33407 0
M  V30 563 O 56.3596 1.22828 1.3158 0
M  V30 564 H 52.7346 0.676222 0.32898 0
M  V30 565 H 54.7056 2.94455 0.483614 0
M  V30 566 C 53.4546 2.66207 2.23672 0
M  V30 567 H 52.7776 3.48378 1.96145 0
M  V30 568 H 54.2176 3.07685 2.9173 0
M  V30 569 C 52.6766 1.59151 2.96939 0
M  V30 570 O 53.2066 0.993858 3.89211 0
M  V30 571 N 51.4126 1.31093 2.59351 0
M  V30 572 H 50.9596 1.7988 1.84393 0
M  V30 573 H 50.9176 0.596889 3.08682 0
M  V30 574 N 54.6897 -0.239769 1.55765 0
M  V30 575 C 55.6217 -1.32001 1.87372 0
M  V30 576 C 56.6347 -1.43944 0.760522 0
M  V30 577 O 57.8237 -1.45167 1.0387 0
M  V30 578 C 54.9237 -2.69779 2.05115 0
M  V30 579 C 54.0967 -2.80014 3.36022 0
M  V30 580 C 53.1557 -3.98684 3.4342 0
M  V30 581 O 52.1817 -3.87877 4.16582 0
M  V30 582 N 53.3837 -5.12176 2.73232 0
M  V30 583 H 56.1487 -1.0522 2.80622 0
M  V30 584 H 53.7097 -0.429857 1.56089 0
M  V30 585 H 55.7017 -3.47517 2.07399 0
M  V30 586 H 54.2717 -2.89237 1.18577 0
M  V30 587 H 53.4917 -1.88896 3.45994 0
M  V30 588 H 54.7797 -2.83808 4.22292 0
M  V30 589 H 54.1777 -5.2385 2.13536 0
M  V30 590 H 52.7347 -5.88022 2.81199 0
M  V30 591 N 56.1678 -1.49265 -0.50573 0
M  V30 592 C 57.1308 -1.65075 -1.59006 0
M  V30 593 C 58.1308 -0.522768 -1.52065 0
M  V30 594 O 59.3208 -0.789117 -1.55302 0
M  V30 595 C 56.4528 -1.64369 -2.98656 0
M  V30 596 H 57.6458 -2.61784 -1.46319 0
M  V30 597 H 55.1988 -1.38226 -0.729616 0
M  V30 598 H 55.9338 -0.692272 -3.16825 0
M  V30 599 H 55.7188 -2.46282 -3.05103 0
M  V30 600 H 57.2088 -1.78674 -3.77446 0
M  V30 601 N 57.6459 0.756429 -1.3826 0
M  V30 602 C 58.5929 1.87011 -1.35261 0
M  V30 603 C 59.5629 1.64695 -0.215616 0
M  V30 604 O 60.7479 1.864 -0.407399 0
M  V30 605 C 57.8879 3.24275 -1.18068 0
M  V30 606 C 57.0009 3.58442 -2.41129 0
M  V30 607 C 56.1359 4.84994 -2.16689 0
M  V30 608 C 55.1749 5.11939 -3.35537 0
M  V30 609 N 54.3119 6.29685 -3.10549 0
M  V30 610 H 59.1519 1.8891 -2.30472 0
M  V30 611 H 56.6889 0.923373 -1.14509 0
M  V30 612 H 58.6469 4.03479 -1.06116 0
M  V30 613 H 57.2769 3.21711 -0.264973 0
M  V30 614 H 56.3289 2.74103 -2.63764 0
M  V30 615 H 57.6409 3.74283 -3.29717 0
M  V30 616 H 56.7949 5.72135 -2.01857 0
M  V30 617 H 55.5339 4.71286 -1.25462 0
M  V30 618 H 54.5389 4.23268 -3.50891 0
M  V30 619 H 55.7639 5.27546 -4.27635 0
M  V30 620 H 53.7099 6.17306 -2.21967 0
M  V30 621 H 53.6269 6.46014 -3.92686 0
M  V30 622 H 54.8949 7.19722 -2.99367 0
M  V30 623 N 59.124 1.23083 0.984299 0
M  V30 624 C 60.087 1.00979 2.05757 0
M  V30 625 C 61.087 -0.0269573 1.60777 0
M  V30 626 O 62.277 0.212403 1.729 0
M  V30 627 C 59.409 0.527072 3.36801 0
M  V30 628 H 60.602 1.9622 2.26799 0
M  V30 629 H 58.155 1.05072 1.15714 0
M  V30 630 H 58.89 -0.429294 3.21446 0
M  V30 631 H 58.675 1.27515 3.70786 0
M  V30 632 H 60.165 0.392942 4.15747 0
M  V30 633 N 60.6021 -1.18246 1.0419 0
M  V30 634 C 61.8791 -1.84121 0.660208 0
M  V30 635 C 62.2591 -1.92778 -0.860221 0
M  V30 636 O 61.6071 -1.45464 -1.76217 0
M  V30 637 C 61.8171 -3.22355 1.33747 0
M  V30 638 C 63.1651 -3.98376 1.46906 0
M  V30 639 O 64.1891 -3.31799 1.29568 0
M  V30 640 O 63.0481 -5.17665 1.75171 0
M  V30 641 H 60.1421 -0.794036 0.231161 0
M  V30 642 H 62.6881 -1.25628 1.14087 0
M  V30 643 H 61.4601 -3.10964 2.37522 0
M  V30 644 H 61.0831 -3.88506 0.845515 0
M  V30 645 N 62.0802 -0.821533 -1.34494 0
M  V30 646 C 63.0432 -0.247847 -2.27856 0
M  V30 647 C 64.0432 0.573453 -1.50227 0
M  V30 648 O 65.2332 0.389759 -1.69784 0
M  V30 649 C 62.3652 0.652698 -3.34593 0
M  V30 650 H 63.5582 -1.07146 -2.80107 0
M  V30 651 H 61.1112 -0.593291 -1.44602 0
M  V30 652 H 61.8462 1.49943 -2.87555 0
M  V30 653 H 61.6312 0.065292 -3.92046 0
M  V30 654 H 63.1212 1.04793 -4.04238 0
M  V30 655 N 63.5583 1.46682 -0.576371 0
M  V30 656 C 64.8043 2.02712 -0.0596221 0
M  V30 657 C 65.1373 1.44765 1.29448 0
M  V30 658 O 64.4123 0.610355 1.84675 0
M  V30 659 C 64.6953 3.60098 0.0129503 0
M  V30 660 C 64.5483 4.28441 -1.3696 0
M  V30 661 C 65.8673 4.34224 0.71678 0
M  V30 662 H 62.9863 0.736637 -0.0231407 0
M  V30 663 H 65.6283 1.74898 -0.742351 0
M  V30 664 H 63.7783 3.83926 0.594378 0
M  V30 665 H 65.4503 4.15896 -1.9957 0
M  V30 666 H 63.6933 3.8805 -1.93907 0
M  V30 667 H 64.3643 5.3716 -1.27135 0
M  V30 668 H 66.8403 4.15503 0.222908 0
M  V30 669 H 65.7163 5.43936 0.73657 0
M  V30 670 H 65.9773 4.04823 1.77682 0
M  V30 671 N 65.0364 0.313813 1.54444 0
M  V30 672 C 65.9834 -0.55655 2.23989 0
M  V30 673 C 66.9534 -1.11943 1.22711 0
M  V30 674 O 68.1384 -1.16158 1.51367 0
M  V30 675 C 65.2784 -1.71635 2.99392 0
M  V30 676 C 64.3914 -1.18364 4.15468 0
M  V30 677 C 63.5264 -2.30834 4.78424 0
M  V30 678 C 62.5654 -1.74762 5.86622 0
M  V30 679 N 61.7024 -2.80855 6.43479 0
M  V30 680 H 66.5424 0.0430893 2.97969 0
M  V30 681 H 64.0794 0.0330359 1.47063 0
M  V30 682 H 66.0374 -2.39868 3.41349 0
M  V30 683 H 64.6674 -2.28742 2.27765 0
M  V30 684 H 63.7194 -0.393163 3.78363 0
M  V30 685 H 65.0314 -0.733262 4.93381 0
M  V30 686 H 64.1854 -3.0699 5.23299 0
M  V30 687 H 62.9244 -2.79204 3.99871 0
M  V30 688 H 61.9294 -0.970995 5.41158 0
M  V30 689 H 63.1544 -1.2728 6.67066 0
M  V30 690 H 61.1004 -3.28535 5.67804 0
M  V30 691 H 61.0174 -2.40351 7.16776 0
M  V30 692 H 62.2854 -3.5687 6.93011 0
M  V30 693 N 66.5145 -1.57545 0.0417849 0
M  V30 694 C 67.4245 -2.14451 -0.951213 0
M  V30 695 C 68.4405 -1.09992 -1.34825 0
M  V30 696 O 69.6165 -1.42114 -1.42708 0
M  V30 697 C 66.6815 -2.67063 -2.21084 0
M  V30 698 C 65.7425 -3.86284 -1.87304 0
M  V30 699 C 64.9755 -4.36378 -3.07261 0
M  V30 700 O 65.1985 -3.85587 -4.20332 0
M  V30 701 O 64.1325 -5.28077 -2.88822 0
M  V30 702 H 67.9585 -2.99601 -0.497287 0
M  V30 703 H 65.5435 -1.48317 -0.179567 0
M  V30 704 H 67.4255 -3.00914 -2.95006 0
M  V30 705 H 66.1005 -1.84989 -2.65633 0
M  V30 706 H 65.0075 -3.57338 -1.10727 0
M  V30 707 H 66.3405 -4.6956 -1.47562 0
M  V30 708 N 67.9926 0.231505 -1.5589 0
M  V30 709 C 68.9556 1.27028 -1.90779 0
M  V30 710 C 69.9556 1.40308 -0.785507 0
M  V30 711 O 71.1456 1.38744 -1.05336 0
M  V30 712 C 68.2776 2.64566 -2.14983 0
M  V30 713 H 69.4706 0.973017 -2.83677 0
M  V30 714 H 67.0236 0.471486 -1.49019 0
M  V30 715 H 67.7586 2.99406 -1.24604 0
M  V30 716 H 67.5436 2.56305 -2.96732 0
M  V30 717 H 69.0336 3.39543 -2.43105 0
M  V30 718 N 69.4707 1.49531 0.497807 0
M  V30 719 C 70.7177 1.59179 1.25173 0
M  V30 720 C 71.0457 0.279932 1.92475 0
M  V30 721 O 70.3007 -0.732383 1.81479 0
M  V30 722 C 70.5997 2.70252 2.33878 0
M  V30 723 C 70.2657 4.11644 1.84012 0
M  V30 724 C 68.9277 4.50121 1.70132 0
M  V30 725 C 71.2797 5.00121 1.46725 0
M  V30 726 C 68.6077 5.74845 1.17348 0
M  V30 727 C 70.9597 6.25366 0.95392 0
M  V30 728 C 69.6237 6.6267 0.801538 0
M  V30 729 H 68.8937 0.582478 0.45804 0
M  V30 730 H 71.5407 1.83373 0.551948 0
M  V30 731 H 69.8457 2.40041 3.09657 0
M  V30 732 H 71.5427 2.74925 2.9192 0
M  V30 733 H 68.1327 3.81274 1.95775 0
M  V30 734 H 72.3167 4.71048 1.56294 0
M  V30 735 H 67.5727 6.02444 1.04264 0
M  V30 736 H 71.7467 6.93301 0.656225 0
M  V30 737 H 69.3737 7.59197 0.390351 0
M  V30 738 N 70.9488 -0.749086 1.3866 0
M  V30 739 C 71.8808 -1.87273 1.32142 0
M  V30 740 C 72.8938 -1.61127 0.232787 0
M  V30 741 O 74.0828 -1.71623 0.49069 0
M  V30 742 C 71.1828 -3.23005 1.02571 0
M  V30 743 C 70.3558 -3.7662 2.22433 0
M  V30 744 C 69.4148 -4.90879 1.89537 0
M  V30 745 O 68.4408 -5.05276 2.62078 0
M  V30 746 N 69.6428 -5.74198 0.853031 0
M  V30 747 H 72.4078 -1.93373 2.28969 0
M  V30 748 H 69.9688 -0.929216 1.32579 0
M  V30 749 H 71.9608 -3.96992 0.786085 0
M  V30 750 H 70.5308 -3.12262 0.145249 0
M  V30 751 H 69.7508 -2.94147 2.62434 0
M  V30 752 H 71.0388 -4.09173 3.02415 0
M  V30 753 H 70.4368 -5.6514 0.25155 0
M  V30 754 H 68.9938 -6.48313 0.67329 0
M  V30 755 N 72.4269 -1.23603 -0.977757 0
M  V30 756 C 73.3769 -0.986664 -2.05545 0
M  V30 757 C 74.3609 0.0683009 -1.60755 0
M  V30 758 O 75.5529 -0.144162 -1.76412 0
M  V30 759 C 72.6819 -0.582623 -3.3832 0
M  V30 760 C 71.7679 -1.67313 -3.89701 0
M  V30 761 N 72.1589 -2.90394 -4.14132 0
M  V30 762 C 70.4569 -1.54832 -4.18262 0
M  V30 763 C 71.1579 -3.61017 -4.56116 0
M  V30 764 N 70.1339 -2.8854 -4.60701 0
M  V30 765 H 73.9359 -1.92139 -2.22396 0
M  V30 766 H 71.4499 -1.1358 -1.16074 0
M  V30 767 H 73.4469 -0.38524 -4.15116 0
M  V30 768 H 72.1069 0.34503 -3.22862 0
M  V30 769 H 73.1179 -3.26673 -4.01877 0
M  V30 770 H 69.7949 -0.687969 -4.11793 0
M  V30 771 H 71.1849 -4.66544 -4.83514 0
M  V30 772 N 73.905 1.17692 -1.04816 0
M  V30 773 C 74.868 2.19787 -0.650117 0
M  V30 774 C 75.868 1.58044 0.296427 0
M  V30 775 O 77.058 1.74012 0.0808097 0
M  V30 776 C 74.19 3.40869 0.0456987 0
M  V30 777 H 75.383 2.56516 -1.5537 0
M  V30 778 H 72.936 1.31708 -0.841594 0
M  V30 779 H 73.671 3.09681 0.962726 0
M  V30 780 H 73.456 3.86928 -0.634727 0
M  V30 781 H 74.946 4.16445 0.310432 0
M  V30 782 N 75.3831 0.828654 1.34056 0
M  V30 783 C 76.6291 0.429279 1.98818 0
M  V30 784 C 76.9841 -0.998011 1.64492 0
M  V30 785 O 76.2771 -1.68652 0.909228 0
M  V30 786 C 76.4711 0.575226 3.52741 0
M  V30 787 C 76.3001 2.01515 4.02022 0
M  V30 788 C 75.0701 2.64825 4.30344 0
M  V30 789 C 77.2681 2.98261 4.18981 0
M  V30 790 N 75.2501 3.99998 4.65698 0
M  V30 791 C 76.6211 4.18356 4.57578 0
M  V30 792 C 78.6761 2.94802 4.01243 0
M  V30 793 C 77.3791 5.35454 4.80293 0
M  V30 794 C 79.4051 4.11121 4.25128 0
M  V30 795 C 78.7671 5.29969 4.64018 0
M  V30 796 H 74.8661 0.205304 0.754569 0
M  V30 797 H 77.4501 1.07457 1.62361 0
M  V30 798 H 75.6211 -0.0401962 3.88379 0
M  V30 799 H 77.3531 0.148292 4.04428 0
M  V30 800 H 74.1081 2.16027 4.21461 0
M  V30 801 H 74.5321 4.69653 4.87601 0
M  V30 802 H 79.1741 2.04054 3.70299 0
M  V30 803 H 76.8921 6.26755 5.10102 0
M  V30 804 H 80.4781 4.0985 4.12934 0
M  V30 805 H 79.3581 6.18479 4.82134 0
M  V30 806 N 76.8612 -1.46375 0.584142 0
M  V30 807 C 77.8092 -2.32042 -0.161047 0
M  V30 808 C 78.8032 -1.44569 -0.882966 0
M  V30 809 O 80.0092 -1.61186 -0.801191 0
M  V30 810 H 76.3842 -0.748659 -0.0708033 0
M  V30 811 H 78.3552 -2.92704 0.580269 0
M  V30 812 C 77.1042 -3.27762 -1.1605 0
M  V30 813 H 76.4272 -3.95051 -0.614419 0
M  V30 814 H 77.8672 -3.90481 -1.65228 0
M  V30 815 C 76.3262 -2.53218 -2.22221 0
M  V30 816 O 76.8562 -2.29628 -3.29597 0
M  V30 817 N 75.0622 -2.13756 -1.96868 0
M  V30 818 H 74.6092 -2.33142 -1.09557 0
M  V30 819 H 74.5672 -1.642 -2.68115 0
M  V30 820 N 78.3393 -0.321999 -1.54275 0
M  V30 821 C 79.5873 0.280489 -2.00144 0
M  V30 822 C 79.9083 1.52777 -1.21178 0
M  V30 823 O 79.1783 1.9338 -0.313187 0
M  V30 824 H 77.7583 0.106632 -0.73935 0
M  V30 825 H 80.4203 -0.438184 -1.8991 0
M  V30 826 H 79.5163 0.537972 -3.07428 0
M  V30 827 N 79.8174 1.5752 -0.0501392 0
M  V30 828 C 81.0474 1.96678 0.632573 0
M  V30 829 C 81.4554 0.926298 1.64974 0
M  V30 830 O 80.7984 -0.09802 1.83438 0
M  V30 831 C 80.8604 3.32068 1.37735 0
M  V30 832 C 80.5244 4.54076 0.516131 0
M  V30 833 C 81.5214 5.19445 -0.217357 0
M  V30 834 C 79.2064 5.00304 0.44736 0
M  V30 835 C 81.2004 6.29378 -1.00807 0
M  V30 836 C 78.8874 6.10114 -0.347038 0
M  V30 837 C 79.8854 6.74512 -1.07344 0
M  V30 838 O 79.5734 7.82211 -1.85477 0
M  V30 839 H 79.3054 0.652193 0.177821 0
M  V30 840 H 81.8594 2.05091 -0.112543 0
M  V30 841 H 80.0894 3.20206 2.16807 0
M  V30 842 H 81.7784 3.55981 1.95019 0
M  V30 843 H 82.5444 4.84689 -0.173688 0
M  V30 844 H 78.4234 4.49971 1.00235 0
M  V30 845 H 81.9674 6.79575 -1.57556 0
M  V30 846 H 77.8644 6.44307 -0.392349 0
M  V30 847 H 78.6324 7.98982 -1.77678 0
M  V30 848 N 81.2955 -0.223234 1.56011 0
M  V30 849 C 82.2285 -1.30377 1.87289 0
M  V30 850 C 83.2065 -1.45286 0.730112 0
M  V30 851 O 84.3905 -1.61126 0.978302 0
M  V30 852 C 81.5175 -2.67431 2.07843 0
M  V30 853 C 80.5635 -2.69546 3.30526 0
M  V30 854 S 81.3965 -2.23781 4.865 0
M  V30 855 C 82.5525 -3.62714 5.10088 0
M  V30 856 H 82.7855 -1.03652 2.78646 0
M  V30 857 H 80.3185 -0.425393 1.48424 0
M  V30 858 H 82.2765 -3.46336 2.20368 0
M  V30 859 H 80.9375 -2.91381 1.17285 0
M  V30 860 H 80.1305 -3.70255 3.41947 0
M  V30 861 H 79.7325 -1.98703 3.16849 0
M  V30 862 H 82.0245 -4.58391 4.98883 0
M  V30 863 H 82.9675 -3.5621 6.11981 0
M  V30 864 H 83.3755 -3.56323 4.37829 0
M  V30 865 N 82.7736 -1.49793 -0.48987 0
M  V30 866 C 83.7206 -1.67281 -1.59014 0
M  V30 867 C 84.6906 -0.514177 -1.57941 0
M  V30 868 O 85.8756 -0.742533 -1.75759 0
M  V30 869 C 83.0156 -1.75569 -2.97102 0
M  V30 870 C 82.1286 -3.0281 -3.08107 0
M  V30 871 C 81.2636 -3.02008 -4.36995 0
M  V30 872 C 80.3026 -4.23782 -4.41673 0
M  V30 873 N 79.4396 -4.20826 -5.62005 0
M  V30 874 H 84.2796 -2.61224 -1.43409 0
M  V30 875 H 81.8166 -1.29508 -0.697565 0
M  V30 876 H 83.7746 -1.78354 -3.77155 0
M  V30 877 H 82.4046 -0.850827 -3.11385 0
M  V30 878 H 81.4566 -3.09584 -2.21047 0
M  V30 879 H 82.7686 -3.92801 -3.07423 0
M  V30 880 H 81.9226 -3.03418 -5.25378 0
M  V30 881 H 80.6616 -2.09815 -4.4026 0
M  V30 882 H 79.6666 -4.22604 -3.5169 0
M  V30 883 H 80.8916 -5.17181 -4.40115 0
M  V30 884 H 78.8376 -3.31476 -5.66091 0
M  V30 885 H 78.7546 -5.04564 -5.62984 0
M  V30 886 H 80.0226 -4.26355 -6.52565 0
M  V30 887 N 84.2517 0.741722 -1.39055 0
M  V30 888 C 85.4817 1.52876 -1.3897 0
M  V30 889 C 85.8897 1.8919 0.0193266 0
M  V30 890 O 85.2327 1.54138 0.999356 0
M  V30 891 C 85.2947 2.84929 -2.19216 0
M  V30 892 C 84.9587 2.71086 -3.67915 0
M  V30 893 C 85.9557 2.40084 -4.61146 0
M  V30 894 C 83.6407 2.88168 -4.11418 0
M  V30 895 C 85.6347 2.26335 -5.95862 0
M  V30 896 C 83.3217 2.74037 -5.46211 0
M  V30 897 C 84.3197 2.43166 -6.38247 0
M  V30 898 O 84.0077 2.29115 -7.70559 0
M  V30 899 H 83.7397 0.479252 -0.476753 0
M  V30 900 H 86.2937 0.924751 -1.83405 0
M  V30 901 H 84.5237 3.47564 -1.69518 0
M  V30 902 H 86.2127 3.46509 -2.11392 0
M  V30 903 H 86.9787 2.26545 -4.28838 0
M  V30 904 H 82.8577 3.11191 -3.40119 0
M  V30 905 H 86.4017 2.0216 -6.67665 0
M  V30 906 H 82.2987 2.87153 -5.78112 0
M  V30 907 H 83.0667 2.44237 -7.81211 0
M  V30 908 N 85.7298 1.2412 0.971189 0
M  V30 909 C 86.6928 1.03156 2.04674 0
M  V30 910 C 87.6928 -0.00990322 1.60797 0
M  V30 911 O 88.8828 0.230729 1.72665 0
M  V30 912 C 86.0148 0.562765 3.36223 0
M  V30 913 H 87.2078 1.98614 2.24705 0
M  V30 914 H 84.7608 1.06293 1.14593 0
M  V30 915 H 85.4958 -0.395176 3.21883 0
M  V30 916 H 85.2808 1.31441 3.69413 0
M  V30 917 H 86.7708 0.437015 4.15307 0
M  V30 918 N 87.2079 -1.17134 1.05439 0
M  V30 919 C 88.4549 -1.87456 0.765942 0
M  V30 920 C 88.7829 -1.81189 -0.707153 0
M  V30 921 O 88.0379 -1.21633 -1.5331 0
M  V30 922 C 88.3369 -3.36833 1.19491 0
M  V30 923 C 88.0029 -3.63301 2.67063 0
M  V30 924 C 86.6649 -3.70234 3.07376 0
M  V30 925 C 89.0169 -3.74575 3.62413 0
M  V30 926 C 86.3449 -3.85933 4.41896 0
M  V30 927 C 88.6969 -3.91793 4.9667 0
M  V30 928 C 87.3609 -3.96966 5.36633 0
M  V30 929 H 86.6309 -0.685948 0.280278 0
M  V30 930 H 89.2779 -1.38556 1.32192 0
M  V30 931 H 87.5829 -3.87807 0.557969 0
M  V30 932 H 89.2799 -3.89611 0.948893 0
M  V30 933 H 85.8699 -3.58532 2.34846 0
M  V30 934 H 90.0539 -3.68537 3.32406 0
M  V30 935 H 85.3099 -3.88187 4.72357 0
M  V30 936 H 89.4839 -3.99458 5.70444 0
M  V30 937 H 87.1109 -4.08883 6.40874 0
M  V30 938 N 88.686 -0.835752 -1.33615 0
M  V30 939 C 90.097 -0.487099 -1.80234 0
M  V30 940 C 90.448 0.993627 -1.69179 0
M  V30 941 O 89.573 1.77403 -1.23924 0
M  V30 942 C 90.168 -0.877385 -3.27242 0
M  V30 943 C 88.727 -0.580915 -3.7189 0
M  V30 944 C 87.874 -1.0874 -2.5509 0
M  V30 945 H 90.825 -1.02474 -1.2118 0
M  V30 946 H 90.846 -0.186195 -3.80044 0
M  V30 947 H 90.358 -1.95512 -3.35256 0
M  V30 948 H 88.459 0.486881 -3.69405 0
M  V30 949 H 88.572 -1.13396 -4.65487 0
M  V30 950 H 86.936 -0.508392 -2.49575 0
M  V30 951 H 87.719 -2.17184 -2.65868 0
M  V30 952 N 90.1641 1.46063 -0.591896 0
M  V30 953 C 91.1141 2.27458 0.157172 0
M  V30 954 C 92.0981 1.3641 0.853301 0
M  V30 955 O 93.2901 1.60517 0.74588 0
M  V30 956 C 90.4191 3.22956 1.16423 0
M  V30 957 C 89.5051 4.2149 0.469742 0
M  V30 958 N 89.8961 5.03519 -0.479839 0
M  V30 959 C 88.1941 4.40161 0.719319 0
M  V30 960 C 88.8951 5.74904 -0.886591 0
M  V30 961 N 87.8711 5.43097 -0.233731 0
M  V30 962 H 91.6731 2.88272 -0.572392 0
M  V30 963 H 89.1871 1.57024 -0.414375 0
M  V30 964 H 91.1841 3.79986 1.71513 0
M  V30 965 H 89.8441 2.63701 1.89451 0
M  V30 966 H 90.8551 5.1078 -0.855823 0
M  V30 967 H 87.5321 3.92046 1.43548 0
M  V30 968 H 88.9221 6.50844 -1.66888 0
M  V30 969 N 91.6422 0.330177 1.54103 0
M  V30 970 C 92.9192 -0.325007 1.92881 0
M  V30 971 C 93.2992 -1.6934 1.26045 0
M  V30 972 O 92.6472 -2.24855 0.406526 0
M  V30 973 C 92.8572 -0.410634 3.46576 0
M  V30 974 C 94.2052 -0.667801 4.19316 0
M  V30 975 O 95.2292 -0.49329 3.52768 0
M  V30 976 O 94.0882 -1.00491 5.37181 0
M  V30 977 H 91.1822 -0.186873 0.80561 0
M  V30 978 H 93.7282 0.380376 1.65382 0
M  V30 979 H 92.5002 0.550164 3.87413 0
M  V30 980 H 92.1232 -1.16333 3.802 0
M  V30 981 N 93.1203 -1.57491 0.0584922 0
M  V30 982 C 94.0303 -2.15448 -0.928414 0
M  V30 983 C 95.0463 -1.11416 -1.3365 0
M  V30 984 O 96.2223 -1.4362 -1.41193 0
M  V30 985 C 93.2873 -2.69393 -2.18239 0
M  V30 986 C 92.3483 -3.88249 -1.83196 0
M  V30 987 C 91.5813 -4.39613 -3.02616 0
M  V30 988 O 91.8043 -3.90023 -4.16219 0
M  V30 989 O 90.7383 -5.31111 -2.83204 0
M  V30 990 H 94.5643 -3.00112 -0.465483 0
M  V30 991 H 92.1493 -1.48499 -0.163826 0
M  V30 992 H 94.0313 -3.04026 -2.91798 0
M  V30 993 H 92.7063 -1.87796 -2.63656 0
M  V30 994 H 91.6133 -3.58492 -1.06931 0
M  V30 995 H 92.9463 -4.71098 -1.42573 0
M  V30 996 N 94.5984 0.214957 -1.56127 0
M  V30 997 C 95.5284 1.2695 -1.95974 0
M  V30 998 C 96.5094 1.48539 -0.828868 0
M  V30 999 O 97.6944 1.60611 -1.09168 0
M  V30 1000 C 94.8244 2.61794 -2.28214 0
M  V30 1001 C 93.7784 2.54851 -3.43853 0
M  V30 1002 C 93.1044 3.93785 -3.61715 0
M  V30 1003 C 94.4044 2.09065 -4.78632 0
M  V30 1004 H 96.0984 0.93846 -2.84312 0
M  V30 1005 H 93.6444 0.449996 -1.36788 0
M  V30 1006 H 95.5974 3.35731 -2.54682 0
M  V30 1007 H 94.3214 2.96599 -1.36736 0
M  V30 1008 H 92.9804 1.8337 -3.17444 0
M  V30 1009 H 92.6284 4.25908 -2.67602 0
M  V30 1010 H 92.3284 3.90019 -4.39498 0
M  V30 1011 H 93.8524 4.69374 -3.90539 0
M  V30 1012 H 95.2664 2.7275 -5.04262 0
M  V30 1013 H 93.6634 2.16346 -5.59745 0
M  V30 1014 H 94.7334 1.04315 -4.73547 0
M  V30 1015 N 96.0765 1.50051 0.48192 0
M  V30 1016 C 97.3045 1.64237 1.25832 0
M  V30 1017 C 97.7195 0.321336 1.86045 0
M  V30 1018 O 97.0765 -0.695478 1.68729 0
M  V30 1019 C 97.1275 2.72548 2.37487 0
M  V30 1020 O 96.8485 3.99529 1.79745 0
M  V30 1021 C 98.3495 2.9761 3.28547 0
M  V30 1022 H 95.5695 0.55237 0.380957 0
M  V30 1023 H 98.1135 1.96207 0.576467 0
M  V30 1024 H 96.2685 2.43303 3.01467 0
M  V30 1025 H 96.6825 4.59342 2.5319 0
M  V30 1026 H 98.1565 3.77084 4.03127 0
M  V30 1027 H 98.6335 2.0826 3.86684 0
M  V30 1028 H 99.2395 3.28345 2.70314 0
M  V30 1029 N 97.5546 -0.734337 1.39446 0
M  V30 1030 C 98.9656 -1.31264 1.32766 0
M  V30 1031 C 99.3166 -1.96198 -0.00767497 0
M  V30 1032 O 98.4416 -1.96346 -0.909796 0
M  V30 1033 C 99.0366 -2.38682 2.4045 0
M  V30 1034 C 97.5956 -2.92184 2.37288 0
M  V30 1035 C 96.7426 -1.6576 2.22304 0
M  V30 1036 H 99.6936 -0.531799 1.49525 0
M  V30 1037 H 99.7146 -3.19087 2.07276 0
M  V30 1038 H 99.2266 -1.91392 3.37625 0
M  V30 1039 H 97.3276 -3.43752 1.43754 0
M  V30 1040 H 97.4406 -3.45253 3.3217 0
M  V30 1041 H 95.8046 -1.9012 1.69489 0
M  V30 1042 H 96.5876 -1.20521 3.21449 0
M  V30 1043 N 99.0327 -1.24633 -0.964593 0
M  V30 1044 C 100.279 -1.08949 -1.71049 0
M  V30 1045 C 100.612 0.370302 -1.90637 0
M  V30 1046 O 99.8867 1.27349 -1.47011 0
M  V30 1047 C 100.17 -1.83329 -3.0994 0
M  V30 1048 C 100.023 -3.37077 -2.97824 0
M  V30 1049 C 101.342 -1.60846 -4.09654 0
M  V30 1050 H 98.4607 -0.397178 -0.620821 0
M  V30 1051 H 101.103 -1.5334 -1.12191 0
M  V30 1052 H 99.2527 -1.45597 -3.60186 0
M  V30 1053 H 100.925 -3.84425 -2.5498 0
M  V30 1054 H 99.1677 -3.65298 -2.33965 0
M  V30 1055 H 99.8387 -3.84324 -3.96231 0
M  V30 1056 H 102.315 -1.93674 -3.68279 0
M  V30 1057 H 101.191 -2.1534 -5.04896 0
M  V30 1058 H 101.452 -0.547434 -4.38698 0
M  V30 1059 N 100.511 1.16574 -1.06058 0
M  V30 1060 C 101.736 1.91493 -0.796562 0
M  V30 1061 C 102.161 1.76773 0.642868 0
M  V30 1062 O 101.519 1.09142 1.44768 0
M  V30 1063 C 101.567 3.40293 -1.19303 0
M  V30 1064 O 100.671 4.11074 -0.330394 0
M  V30 1065 H 100.012 0.596678 -0.291326 0
M  V30 1066 H 102.542 1.47708 -1.41575 0
M  V30 1067 H 102.552 3.91057 -1.16356 0
M  V30 1068 H 101.227 3.50326 -2.24153 0
M  V30 1069 H 99.8038 3.70513 -0.421225 0
M  V30 1070 N 101.989 0.842826 1.3317 0
M  V30 1071 C 102.937 0.267495 2.31057 0
M  V30 1072 C 103.931 -0.602682 1.58316 0
M  V30 1073 O 105.137 -0.491803 1.73151 0
M  V30 1074 H 101.512 0.0677813 0.748939 0
M  V30 1075 H 103.483 1.10754 2.77085 0
M  V30 1076 C 102.232 -0.539331 3.43492 0
M  V30 1077 H 101.555 0.12095 3.99617 0
M  V30 1078 H 102.995 -0.90767 4.14171 0
M  V30 1079 C 101.454 -1.71981 2.89697 0
M  V30 1080 O 101.984 -2.81862 2.86211 0
M  V30 1081 N 100.19 -1.54299 2.46252 0
M  V30 1082 H 99.7369 -0.649143 2.49287 0
M  V30 1083 H 99.6949 -2.33431 2.10612 0
M  V30 1084 N 103.467 -1.45747 0.599634 0
M  V30 1085 C 104.715 -2.01893 0.0915472 0
M  V30 1086 C 105.036 -1.47155 -1.27946 0
M  V30 1087 O 104.306 -0.66273 -1.84349 0
M  V30 1088 H 102.886 -0.746363 0.0308524 0
M  V30 1089 H 105.548 -1.78645 0.779237 0
M  V30 1090 H 104.644 -3.1208 0.0353086 0
M  V30 1091 N 104.945 -0.338344 -1.53925 0
M  V30 1092 C 105.895 0.536712 -2.21593 0
M  V30 1093 C 106.879 1.07015 -1.20153 0
M  V30 1094 O 108.071 1.00471 -1.45721 0
M  V30 1095 C 105.2 1.68977 -2.98834 0
M  V30 1096 C 104.286 1.17052 -4.07627 0
M  V30 1097 N 104.677 0.372085 -5.0443 0
M  V30 1098 C 102.975 1.44789 -4.21844 0
M  V30 1099 C 103.676 0.0909171 -5.81629 0
M  V30 1100 N 102.652 0.681131 -5.39316 0
M  V30 1101 H 106.454 -0.0804298 -2.9379 0
M  V30 1102 H 103.968 -0.144943 -1.61752 0
M  V30 1103 H 105.965 2.32857 -3.45808 0
M  V30 1104 H 104.625 2.31024 -2.28162 0
M  V30 1105 H 105.636 0.0136217 -5.17898 0
M  V30 1106 H 102.313 2.07313 -3.62391 0
M  V30 1107 H 103.703 -0.552817 -6.69622 0
M  V30 1108 N 106.423 1.57458 -0.0668435 0
M  V30 1109 C 107.386 2.11323 0.887422 0
M  V30 1110 C 108.386 1.03618 1.22964 0
M  V30 1111 O 109.576 1.29626 1.16373 0
M  V30 1112 C 106.708 2.61048 2.19242 0
M  V30 1113 H 107.901 2.96942 0.420194 0
M  V30 1114 H 105.454 1.55239 0.181793 0
M  V30 1115 H 106.189 1.78868 2.70512 0
M  V30 1116 H 105.974 3.39769 1.95702 0
M  V30 1117 H 107.464 3.02814 2.87565 0
M  V30 1118 N 107.901 -0.206675 1.56239 0
M  V30 1119 C 109.178 -0.954051 1.70755 0
M  V30 1120 C 109.558 -2.01841 0.618353 0
M  V30 1121 O 108.906 -2.25444 -0.372434 0
M  V30 1122 C 109.116 -1.551 3.12642 0
M  V30 1123 C 110.464 -2.03757 3.72516 0
M  V30 1124 O 111.488 -1.64965 3.15698 0
M  V30 1125 O 110.347 -2.75103 4.72208 0
M  V30 1126 H 107.441 -0.446636 0.696021 0
M  V30 1127 H 109.987 -0.197283 1.68549 0
M  V30 1128 H 108.759 -0.783212 3.83382 0
M  V30 1129 H 108.382 -2.37291 3.19028 0
M  V30 1130 N 109.379 -1.50304 -0.473955 0
M  V30 1131 C 110.604 -1.65175 -1.25427 0
M  V30 1132 C 111.029 -0.333673 -1.85117 0
M  V30 1133 O 110.387 0.702114 -1.67153 0
M  V30 1134 C 110.435 -2.74295 -2.34082 0
M  V30 1135 O 109.539 -2.35349 -3.38651 0
M  V30 1136 H 108.88 -0.551944 -0.369126 0
M  V30 1137 H 111.41 -1.96662 -0.564364 0
M  V30 1138 H 111.42 -2.97285 -2.79438 0
M  V30 1139 H 110.095 -3.69959 -1.90008 0
M  V30 1140 H 108.672 -2.22794 -2.99027 0
M  V30 1141 N 110.857 0.726932 -1.39834 0
M  V30 1142 C 112.273 1.03354 -1.21615 0
M  V30 1143 C 112.473 2.01327 -0.08338 0
M  V30 1144 O 111.529 2.46158 0.56238 0
M  V30 1145 C 112.842 1.58811 -2.55342 0
M  V30 1146 C 114.39 1.70851 -2.62257 0
M  V30 1147 C 114.865 2.29716 -3.96225 0
M  V30 1148 N 116.356 2.37116 -3.97907 0
M  V30 1149 C 117.091 2.83619 -4.98345 0
M  V30 1150 N 116.587 3.29958 -6.09179 0
M  V30 1151 N 118.38 2.82901 -4.8572 0
M  V30 1152 H 110.531 0.0773069 -2.12259 0
M  V30 1153 H 112.794 0.0969102 -0.943034 0
M  V30 1154 H 112.5 0.942855 -3.38826 0
M  V30 1155 H 112.374 2.57502 -2.75632 0
M  V30 1156 H 114.761 2.34497 -1.79152 0
M  V30 1157 H 114.842 0.707913 -2.45809 0
M  V30 1158 H 114.486 1.66696 -4.79765 0
M  V30 1159 H 114.416 3.30469 -4.09997 0
M  V30 1160 H 116.907 2.04374 -3.17868 0
M  V30 1161 H 117.22 3.63976 -6.8172 0
M  V30 1162 H 115.565 3.27946 -6.12761 0
M  V30 1163 H 118.756 2.46027 -3.98231 0
M  V30 1164 H 118.929 3.18827 -5.6414 0
M  V30 1165 N 112.336 1.25143 0.95797 0
M  V30 1166 C 113.284 1.05019 2.07542 0
M  V30 1167 C 114.278 -0.0178751 1.69391 0
M  V30 1168 O 115.484 0.137472 1.79474 0
M  V30 1169 H 111.859 0.32265 0.679265 0
M  V30 1170 H 113.83 1.99759 2.21673 0
M  V30 1171 C 112.579 0.682074 3.40944 0
M  V30 1172 H 111.902 1.49573 3.70767 0
M  V30 1173 H 113.342 0.580945 4.20001 0
M  V30 1174 C 111.801 -0.611608 3.31302 0
M  V30 1175 O 112.331 -1.65465 3.66038 0
M  V30 1176 N 110.537 -0.595982 2.84423 0
M  V30 1177 H 110.084 0.253192 2.56353 0
M  V30 1178 H 110.042 -1.46173 2.78354 0
M  V30 1179 N 113.814 -1.1601 1.06675 0
M  V30 1180 C 115.062 -1.86264 0.784229 0
M  V30 1181 C 115.383 -1.82328 -0.691488 0
M  V30 1182 O 114.653 -1.25947 -1.50047 0
M  V30 1183 H 113.233 -0.689621 0.28711 0
M  V30 1184 H 115.895 -1.40664 1.34906 0
M  V30 1185 H 114.991 -2.91595 1.11259 0
M  V30 1186 N 115.292 -0.849877 -1.32721 0
M  V30 1187 C 116.538 -0.460855 -1.9811 0
M  V30 1188 C 116.893 0.971716 -1.66059 0
M  V30 1189 O 116.186 1.67184 -0.935944 0
M  V30 1190 C 116.38 -0.631272 -3.51781 0
M  V30 1191 C 116.209 -2.07886 -3.98765 0
M  V30 1192 C 114.979 -2.71637 -4.26077 0
M  V30 1193 C 117.177 -3.04889 -4.14182 0
M  V30 1194 N 115.159 -4.07356 -4.59276 0
M  V30 1195 C 116.53 -4.25583 -4.50865 0
M  V30 1196 C 118.585 -3.01148 -3.96503 0
M  V30 1197 C 117.288 -5.43027 -4.71714 0
M  V30 1198 C 119.314 -4.17832 -4.18533 0
M  V30 1199 C 118.676 -5.37284 -4.55528 0
M  V30 1200 H 114.775 -0.217283 -0.751207 0
M  V30 1201 H 117.359 -1.10026 -1.60631 0
M  V30 1202 H 115.53 -0.0215966 -3.88394 0
M  V30 1203 H 117.262 -0.212614 -4.04141 0
M  V30 1204 H 114.017 -2.22705 -4.17971 0
M  V30 1205 H 114.441 -4.77351 -4.80068 0
M  V30 1206 H 119.083 -2.0992 -3.67006 0
M  V30 1207 H 116.801 -6.34791 -5.00066 0
M  V30 1208 H 120.387 -4.16368 -4.06361 0
M  V30 1209 H 119.267 -6.26071 -4.72234 0
M  V30 1210 N 116.77 1.45427 -0.607355 0
M  V30 1211 C 118.018 2.01841 -0.102253 0
M  V30 1212 C 118.339 1.47832 1.27164 0
M  V30 1213 O 117.609 0.672497 1.83995 0
M  V30 1214 H 116.189 0.746188 -0.0348101 0
M  V30 1215 H 118.851 1.78229 -0.7887 0
M  V30 1216 H 117.947 3.12057 -0.0518585 0
M  V30 1217 N 118.248 0.346503 1.53744 0
M  V30 1218 C 119.211 -0.496439 2.23759 0
M  V30 1219 C 120.211 -1.0252 1.2388 0
M  V30 1220 O 121.401 -0.913974 1.48297 0
M  V30 1221 C 118.533 -1.69187 2.95954 0
M  V30 1222 H 119.726 0.115952 2.99676 0
M  V30 1223 H 117.279 0.0978939 1.55993 0
M  V30 1224 H 118.014 -2.34288 2.24231 0
M  V30 1225 H 117.799 -1.31989 3.69217 0
M  V30 1226 H 119.289 -2.28969 3.49232 0
M  V30 1227 N 119.726 -1.57421 0.075193 0
M  V30 1228 C 120.951 -1.98364 -0.605515 0
M  V30 1229 C 121.376 -0.953383 -1.62149 0
M  V30 1230 O 120.734 0.0806053 -1.81121 0
M  V30 1231 C 120.782 -3.38332 -1.24756 0
M  V30 1232 O 119.886 -3.37959 -2.36342 0
M  V30 1233 H 119.227 -0.645553 -0.155428 0
M  V30 1234 H 121.757 -2.04044 0.150714 0
M  V30 1235 H 121.767 -3.75591 -1.5936 0
M  V30 1236 H 120.442 -4.12846 -0.503129 0
M  V30 1237 H 119.019 -3.12474 -2.03506 0
M  V30 1238 N 121.204 0.198386 -1.56346 0
M  V30 1239 C 122.167 1.22952 -1.93431 0
M  V30 1240 C 123.167 1.38611 -0.815092 0
M  V30 1241 O 124.357 1.36479 -1.08255 0
M  V30 1242 C 121.489 2.59946 -2.20546 0
M  V30 1243 H 122.682 0.912626 -2.85677 0
M  V30 1244 H 120.235 0.43977 -1.49986 0
M  V30 1245 H 120.97 2.96696 -1.30927 0
M  V30 1246 H 120.755 2.49953 -3.02102 0
M  V30 1247 H 122.245 3.3431 -2.50253 0
M  V30 1248 N 122.682 1.50554 0.465978 0
M  V30 1249 C 123.928 1.62038 1.21949 0
M  V30 1250 C 124.261 0.322116 1.9151 0
M  V30 1251 O 123.536 -0.676723 1.82348 0
M  V30 1252 C 123.819 2.80421 2.25912 0
M  V30 1253 C 123.672 4.20144 1.60622 0
M  V30 1254 C 124.991 2.94354 3.27176 0
M  V30 1255 H 122.11 0.589752 0.441998 0
M  V30 1256 H 124.752 1.82956 0.51257 0
M  V30 1257 H 122.902 2.62717 2.86203 0
M  V30 1258 H 124.574 4.49449 1.03889 0
M  V30 1259 H 122.817 4.24165 0.909211 0
M  V30 1260 H 123.488 4.98914 2.36196 0
M  V30 1261 H 125.964 3.10578 2.76913 0
M  V30 1262 H 124.84 3.788 3.97242 0
M  V30 1263 H 125.101 2.05186 3.916 0
M  V30 1264 N 124.16 -0.719506 1.40217 0
M  V30 1265 C 125.437 -1.47221 1.28784 0
M  V30 1266 C 125.817 -2.10883 -0.0956067 0
M  V30 1267 O 125.165 -1.99833 -1.10811 0
M  V30 1268 C 125.375 -2.5111 2.42373 0
M  V30 1269 C 126.723 -3.17053 2.82423 0
M  V30 1270 O 127.747 -2.61429 2.41937 0
M  V30 1271 O 126.606 -4.17742 3.52355 0
M  V30 1272 H 123.7 -0.654491 0.50554 0
M  V30 1273 H 126.246 -0.752014 1.52128 0
M  V30 1274 H 125.018 -2.02556 3.34793 0
M  V30 1275 H 124.641 -3.3067 2.20778 0
M  V30 1276 N 125.638 -1.25649 -0.95132 0
M  V30 1277 C 126.601 -1.06399 -2.03007 0
M  V30 1278 C 127.601 -0.0156794 -1.60792 0
M  V30 1279 O 128.791 -0.25817 -1.72276 0
M  V30 1280 C 125.923 -0.616184 -3.35285 0
M  V30 1281 H 127.116 -2.02164 -2.21517 0
M  V30 1282 H 124.669 -1.08103 -1.12887 0
M  V30 1283 H 125.404 0.343917 -3.22471 0
M  V30 1284 H 125.189 -1.37301 -3.67275 0
M  V30 1285 H 126.679 -0.503032 -4.14559 0
M  V30 1286 N 127.117 1.15442 -1.07289 0
M  V30 1287 C 128.047 2.22312 -0.714107 0
M  V30 1288 C 129.028 1.67467 0.298155 0
M  V30 1289 O 130.213 1.93445 0.171048 0
M  V30 1290 C 127.343 3.47124 -0.110448 0
M  V30 1291 C 126.297 4.14926 -1.04979 0
M  V30 1292 C 125.623 5.33807 -0.308924 0
M  V30 1293 C 126.923 4.64762 -2.38314 0
M  V30 1294 H 128.617 2.5258 -1.6076 0
M  V30 1295 H 126.163 1.21404 -0.77441 0
M  V30 1296 H 128.116 4.21124 0.152482 0
M  V30 1297 H 126.84 3.16187 0.81812 0
M  V30 1298 H 125.499 3.42866 -1.29764 0
M  V30 1299 H 125.147 4.99126 0.623084 0
M  V30 1300 H 124.847 5.80113 -0.935036 0
M  V30 1301 H 126.371 6.10576 -0.0537771 0
M  V30 1302 H 127.785 5.30292 -2.1786 0
M  V30 1303 H 126.182 5.21728 -2.96514 0
M  V30 1304 H 127.252 3.80434 -3.00663 0
M  V30 1305 N 128.595 0.856903 1.32268 0
M  V30 1306 C 129.82 0.474569 2.01897 0
M  V30 1307 C 130.245 -0.921766 1.63967 0
M  V30 1308 O 129.603 -1.60589 0.84148 0
M  V30 1309 C 129.651 0.623799 3.55164 0
M  V30 1310 O 128.755 -0.342459 4.10976 0
M  V30 1311 H 128.096 0.190422 0.63611 0
M  V30 1312 H 130.626 1.15672 1.68764 0
M  V30 1313 H 130.636 0.512169 4.04773 0
M  V30 1314 H 129.311 1.64202 3.82113 0
M  V30 1315 H 127.888 -0.18688 3.72431 0
M  V30 1316 N 130.073 -1.45103 0.615059 0
M  V30 1317 C 131.301 -2.06553 0.11977 0
M  V30 1318 C 131.716 -1.45842 -1.19898 0
M  V30 1319 O 131.073 -0.575325 -1.73194 0
M  V30 1320 C 131.124 -3.61495 -0.018364 0
M  V30 1321 O 130.845 -4.19942 1.24822 0
M  V30 1322 C 132.346 -4.39947 -0.544237 0
M  V30 1323 H 129.566 -0.667096 0.0722739 0
M  V30 1324 H 132.11 -1.8623 0.84491 0
M  V30 1325 H 130.265 -3.81135 -0.693865 0
M  V30 1326 H 130.679 -5.13204 1.0827 0
M  V30 1327 H 132.153 -5.48838 -0.589953 0
M  V30 1328 H 132.63 -4.10255 -1.56805 0
M  V30 1329 H 133.236 -4.25188 0.0974703 0
M  V30 1330 N 131.551 -0.354651 -1.53558 0
M  V30 1331 C 132.514 0.484566 -2.24019 0
M  V30 1332 C 133.514 1.01861 -1.24422 0
M  V30 1333 O 134.704 0.906097 -1.4878 0
M  V30 1334 C 131.836 1.67615 -2.96847 0
M  V30 1335 H 133.029 -0.131843 -2.9961 0
M  V30 1336 H 130.582 -0.106165 -1.55939 0
M  V30 1337 H 131.317 2.33095 -2.25471 0
M  V30 1338 H 131.102 1.30029 -3.69912 0
M  V30 1339 H 132.592 2.27114 -3.50441 0
M  V30 1340 N 133.029 1.57378 -0.0835403 0
M  V30 1341 C 134.275 1.94217 0.583733 0
M  V30 1342 C 134.608 0.964653 1.68547 0
M  V30 1343 O 133.883 -0.00422258 1.945 0
M  V30 1344 C 134.166 3.41253 1.14972 0
M  V30 1345 C 134.019 4.49768 0.0538277 0
M  V30 1346 C 135.338 3.89352 2.05166 0
M  V30 1347 H 132.457 0.706233 0.210724 0
M  V30 1348 H 135.099 1.89392 -0.1519 0
M  V30 1349 H 133.249 3.45496 1.77665 0
M  V30 1350 H 134.921 4.57641 -0.579851 0
M  V30 1351 H 133.164 4.29432 -0.614068 0
M  V30 1352 H 133.835 5.49817 0.490452 0
M  V30 1353 H 136.311 3.87189 1.52393 0
M  V30 1354 H 135.187 4.92822 2.41698 0
M  V30 1355 H 135.448 3.27973 2.96456 0
M  V30 1356 N 134.507 -0.190092 1.56449 0
M  V30 1357 C 135.756 -0.907912 1.80111 0
M  V30 1358 C 136.069 -1.84214 0.657619 0
M  V30 1359 O 137.275 -2.60094 0.778663 0
M  V30 1360 C 135.731 -1.66485 3.19078 0
M  V30 1361 C 135.339 -0.7752 4.41242 0
M  V30 1362 C 137.083 -2.37201 3.52045 0
M  V30 1363 C 134.99 -1.53129 5.71231 0
M  V30 1364 H 133.92 -0.34276 0.671589 0
M  V30 1365 H 136.571 -0.161109 1.82791 0
M  V30 1366 H 134.953 -2.45572 3.10661 0
M  V30 1367 H 136.127 -0.0226298 4.60794 0
M  V30 1368 H 134.442 -0.178627 4.16017 0
M  V30 1369 H 137.039 -2.94329 4.46402 0
M  V30 1370 H 137.382 -3.11632 2.76028 0
M  V30 1371 H 137.915 -1.65075 3.61932 0
M  V30 1372 H 134.654 -0.82967 6.50228 0
M  V30 1373 H 134.174 -2.25767 5.55688 0
M  V30 1374 H 135.853 -2.08377 6.12526 0
M  V30 1375 N 135.985 -1.50799 -0.457987 0
M  V30 1376 C 136.918 -1.65273 -1.57353 0
M  V30 1377 C 137.896 -0.500578 -1.54703 0
M  V30 1378 O 139.08 -0.721781 -1.74134 0
M  V30 1379 C 136.207 -1.64737 -2.95938 0
M  V30 1380 C 135.253 -2.8567 -3.16693 0
M  V30 1381 S 136.086 -4.46791 -2.95191 0
M  V30 1382 C 137.242 -4.48968 -4.36095 0
M  V30 1383 H 137.475 -2.59633 -1.44838 0
M  V30 1384 H 135.008 -1.40225 -0.64625 0
M  V30 1385 H 136.966 -1.65112 -3.7583 0
M  V30 1386 H 135.627 -0.715899 -3.05833 0
M  V30 1387 H 134.82 -2.81637 -4.17967 0
M  V30 1388 H 134.422 -2.8293 -2.44594 0
M  V30 1389 H 136.714 -4.23337 -5.28954 0
M  V30 1390 H 137.657 -5.50664 -4.45168 0
M  V30 1391 H 138.065 -3.78522 -4.18786 0
M  V30 1392 N 137.463 0.71206 -1.40597 0
M  V30 1393 C 138.711 1.46907 -1.38791 0
M  V30 1394 C 139.032 1.94998 0.00780391 0
M  V30 1395 O 138.302 1.70587 0.963174 0
M  V30 1396 H 136.882 0.545043 -0.51082 0
M  V30 1397 H 139.544 0.843882 -1.75683 0
M  V30 1398 H 138.64 2.34021 -2.06496 0
M  V30 1399 N 138.941 1.26152 0.944643 0
M  V30 1400 C 139.888 1.07408 2.04285 0
M  V30 1401 C 140.858 -0.0198413 1.66088 0
M  V30 1402 O 142.043 0.139264 1.90291 0
M  V30 1403 C 139.183 0.70945 3.37729 0
M  V30 1404 C 138.296 1.87926 3.88983 0
M  V30 1405 C 137.431 1.45807 5.10797 0
M  V30 1406 C 136.47 2.5964 5.54305 0
M  V30 1407 N 135.607 2.18226 6.67324 0
M  V30 1408 H 140.447 2.01389 2.1965 0
M  V30 1409 H 137.984 1.00275 1.07626 0
M  V30 1410 H 139.942 0.478948 4.14442 0
M  V30 1411 H 138.572 -0.193389 3.2222 0
M  V30 1412 H 137.624 2.22279 3.08701 0
M  V30 1413 H 138.936 2.73377 4.17213 0
M  V30 1414 H 138.09 1.18781 5.94959 0
M  V30 1415 H 136.829 0.574414 4.84305 0
M  V30 1416 H 135.834 2.87399 4.68702 0
M  V30 1417 H 137.059 3.48599 5.828 0
M  V30 1418 H 135.005 1.3229 6.42523 0
M  V30 1419 H 134.922 2.97221 6.95123 0
M  V30 1420 H 136.19 1.94403 7.54869 0
M  V30 1421 N 140.419 -1.14872 1.07899 0
M  V30 1422 C 141.382 -2.17986 0.708161 0
M  V30 1423 C 142.382 -1.58775 -0.25442 0
M  V30 1424 O 143.572 -1.74166 -0.034645 0
M  V30 1425 C 140.704 -3.40871 0.0446929 0
M  V30 1426 H 141.897 -2.52306 1.62116 0
M  V30 1427 H 139.45 -1.2943 0.876218 0
M  V30 1428 H 140.185 -3.12124 -0.880281 0
M  V30 1429 H 139.97 -3.8511 0.737091 0
M  V30 1430 H 141.46 -4.17121 -0.19991 0
M  V30 1431 N 141.898 -0.863906 -1.31812 0
M  V30 1432 C 143.175 -0.39275 -1.91616 0
M  V30 1433 C 143.555 1.12461 -1.7865 0
M  V30 1434 O 142.903 1.95045 -1.19037 0
M  V30 1435 C 143.113 -0.867385 -3.38049 0
M  V30 1436 C 144.461 -0.889966 -4.15168 0
M  V30 1437 O 145.485 -0.812635 -3.46806 0
M  V30 1438 O 144.344 -1.00079 -5.37258 0
M  V30 1439 H 141.438 -0.116358 -0.818773 0
M  V30 1440 H 143.984 -0.951418 -1.40521 0
M  V30 1441 H 142.756 -1.91081 -3.41473 0
M  V30 1442 H 142.379 -0.286687 -3.96565 0
M  V30 1443 N 143.376 1.44774 -0.622745 0
M  V30 1444 C 144.622 2.0242 -0.124083 0
M  V30 1445 C 144.955 1.4881 1.24777 0
M  V30 1446 O 144.23 0.668799 1.8264 0
M  V30 1447 C 144.513 3.59957 -0.101619 0
M  V30 1448 C 144.366 4.23867 -1.50521 0
M  V30 1449 C 145.685 4.36284 0.578272 0
M  V30 1450 H 142.804 0.735528 -0.0465645 0
M  V30 1451 H 145.446 1.72447 -0.797617 0
M  V30 1452 H 143.596 3.85623 0.471934 0
M  V30 1453 H 145.268 4.09336 -2.12701 0
M  V30 1454 H 143.511 3.81684 -2.06154 0
M  V30 1455 H 144.182 5.32843 -1.4416 0
M  V30 1456 H 146.658 4.16001 0.0906057 0
M  V30 1457 H 145.534 5.46004 0.563149 0
M  V30 1458 H 145.795 4.10271 1.64713 0
M  V30 1459 N 144.854 0.36279 1.53368 0
M  V30 1460 C 146.1 -0.228113 2.01513 0
M  V30 1461 C 146.433 -1.48648 1.2497 0
M  V30 1462 O 145.708 -1.91459 0.342616 0
M  V30 1463 C 145.991 -0.522884 3.56284 0
M  V30 1464 C 145.844 0.74892 4.43521 0
M  V30 1465 C 147.163 -1.32461 4.19693 0
M  V30 1466 H 144.282 -0.0814343 0.732487 0
M  V30 1467 H 146.924 0.48713 1.83649 0
M  V30 1468 H 145.074 -1.1322 3.71636 0
M  V30 1469 H 146.746 1.38648 4.39971 0
M  V30 1470 H 144.989 1.36986 4.11603 0
M  V30 1471 H 145.66 0.497667 5.49752 0
M  V30 1472 H 148.136 -0.809203 4.08156 0
M  V30 1473 H 147.012 -1.49961 5.28018 0
M  V30 1474 H 147.273 -2.33232 3.75573 0
M  V30 1475 N 146.332 -1.57332 0.0918853 0
M  V30 1476 C 147.28 -2.15075 -0.885747 0
M  V30 1477 C 148.274 -1.09277 -1.29441 0
M  V30 1478 O 149.48 -1.27627 -1.26931 0
M  V30 1479 H 145.855 -0.687966 -0.303656 0
M  V30 1480 H 147.826 -2.96047 -0.373995 0
M  V30 1481 C 146.575 -2.74325 -2.13638 0
M  V30 1482 H 145.898 -3.55418 -1.8308 0
M  V30 1483 H 147.338 -3.183 -2.80109 0
M  V30 1484 C 145.797 -1.70062 -2.90827 0
M  V30 1485 O 146.327 -1.13763 -3.85254 0
M  V30 1486 N 144.533 -1.40628 -2.54307 0
M  V30 1487 H 144.08 -1.866 -1.7759 0
M  V30 1488 H 144.038 -0.711043 -3.06254 0
M  V30 1489 N 147.81 0.181792 -1.56548 0
M  V30 1490 C 148.773 1.20894 -1.94724 0
M  V30 1491 C 149.773 1.37738 -0.829747 0
M  V30 1492 O 150.963 1.35323 -1.09697 0
M  V30 1493 C 148.095 2.57593 -2.23291 0
M  V30 1494 H 149.288 0.882275 -2.86629 0
M  V30 1495 H 146.841 0.423838 -1.50444 0
M  V30 1496 H 147.576 2.95291 -1.34067 0
M  V30 1497 H 147.361 2.46735 -3.04736 0
M  V30 1498 H 148.851 3.31637 -2.53785 0
M  V30 1499 N 149.288 1.51039 0.449983 0
M  V30 1500 C 150.537 1.62317 1.19733 0
M  V30 1501 C 150.85 0.339101 1.92638 0
M  V30 1502 O 152.056 0.331069 2.69474 0
M  V30 1503 C 150.512 2.86608 2.17678 0
M  V30 1504 C 150.12 4.21972 1.50479 0
M  V30 1505 C 151.864 3.07239 2.92924 0
M  V30 1506 C 149.771 5.37426 2.46834 0
M  V30 1507 H 148.701 0.604532 0.450619 0
M  V30 1508 H 151.352 1.77494 0.465625 0
M  V30 1509 H 149.734 2.65037 2.94231 0
M  V30 1510 H 150.908 4.53878 0.795716 0
M  V30 1511 H 149.223 4.07117 0.874344 0
M  V30 1512 H 151.82 3.90668 3.65079 0
M  V30 1513 H 152.163 2.19807 3.5354 0
M  V30 1514 H 152.696 3.29091 2.23481 0
M  V30 1515 H 149.435 6.27079 1.90926 0
M  V30 1516 H 148.955 5.09912 3.15832 0
M  V30 1517 H 150.634 5.68862 3.08228 0
M  V30 1518 N 150.766 -0.704594 1.40972 0
M  V30 1519 C 151.696 -1.83124 1.44872 0
M  V30 1520 C 152.677 -1.67281 0.30838 0
M  V30 1521 O 153.862 -1.87149 0.518556 0
M  V30 1522 C 150.992 -3.21181 1.32136 0
M  V30 1523 C 149.946 -3.51714 2.43888 0
M  V30 1524 C 149.272 -4.89032 2.16222 0
M  V30 1525 C 150.572 -3.516 3.86232 0
M  V30 1526 H 152.266 -1.80117 2.39161 0
M  V30 1527 H 149.812 -0.865145 1.15114 0
M  V30 1528 H 151.765 -3.99702 1.33479 0
M  V30 1529 H 150.489 -3.24791 0.343279 0
M  V30 1530 H 149.148 -2.75539 2.41813 0
M  V30 1531 H 148.796 -4.89256 1.16778 0
M  V30 1532 H 148.496 -5.10426 2.911 0
M  V30 1533 H 150.02 -5.69873 2.19265 0
M  V30 1534 H 151.434 -4.2014 3.9007 0
M  V30 1535 H 149.831 -3.84523 4.60719 0
M  V30 1536 H 150.901 -2.50757 4.15029 0
M  V30 1537 N 152.244 -1.26651 -0.937939 0
M  V30 1538 C 153.154 -1.10276 -2.07066 0
M  V30 1539 C 154.17 -0.0354197 -1.73964 0
M  V30 1540 O 155.346 -0.239816 -1.99967 0
M  V30 1541 C 152.411 -0.740887 -3.38691 0
M  V30 1542 C 151.472 -1.88799 -3.85556 0
M  V30 1543 C 150.705 -1.54329 -5.10899 0
M  V30 1544 O 150.928 -0.446494 -5.6865 0
M  V30 1545 O 149.862 -2.37911 -5.52885 0
M  V30 1546 H 153.688 -2.05309 -2.23789 0
M  V30 1547 H 151.273 -1.05743 -1.0554 0
M  V30 1548 H 153.155 -0.55195 -4.1777 0
M  V30 1549 H 151.83 0.180022 -3.23199 0
M  V30 1550 H 150.737 -2.13191 -3.07409 0
M  V30 1551 H 152.07 -2.78874 -4.05574 0
M  V30 1552 N 153.722 1.14298 -1.08507 0
M  V30 1553 C 154.672 2.17449 -0.685569 0
M  V30 1554 C 155.656 1.58167 0.295315 0
M  V30 1555 O 156.848 1.76675 0.107172 0
M  V30 1556 C 153.977 3.43161 -0.0975318 0
M  V30 1557 C 153.063 4.09471 -1.10426 0
M  V30 1558 N 153.454 4.51089 -2.28806 0
M  V30 1559 C 151.752 4.35976 -0.940258 0
M  V30 1560 C 152.453 5.02654 -2.9277 0
M  V30 1561 N 151.429 4.96927 -2.20374 0
M  V30 1562 H 155.231 2.47369 -1.587 0
M  V30 1563 H 152.745 1.30992 -0.959936 0
M  V30 1564 H 154.742 4.16388 0.20664 0
M  V30 1565 H 153.402 3.14719 0.798872 0
M  V30 1566 H 154.413 4.44097 -2.66455 0
M  V30 1567 H 151.09 4.17386 -0.0977441 0
M  V30 1568 H 152.48 5.44723 -3.93352 0
M  V30 1569 N 155.201 0.870884 1.31352 0
M  V30 1570 C 156.447 0.482987 1.96965 0
M  V30 1571 C 156.78 -0.962462 1.68672 0
M  V30 1572 O 156.055 -1.6779 0.98371 0
M  V30 1573 C 156.338 0.741752 3.52378 0
M  V30 1574 C 156.191 2.2368 3.9024 0
M  V30 1575 C 157.51 0.208838 4.39604 0
M  V30 1576 H 154.629 0.176955 0.715441 0
M  V30 1577 H 157.271 1.09229 1.55464 0
M  V30 1578 H 155.421 0.223149 3.87859 0
M  V30 1579 H 157.093 2.82273 3.64856 0
M  V30 1580 H 155.336 2.70901 3.38814 0
M  V30 1581 H 156.007 2.3685 4.98604 0
M  V30 1582 H 158.483 0.652529 4.10952 0
M  V30 1583 H 157.359 0.419336 5.47296 0
M  V30 1584 H 157.62 -0.889275 4.33064 0
M  V30 1585 N 156.679 -1.44442 0.630414 0
M  V30 1586 C 157.642 -2.29107 -0.0652523 0
M  V30 1587 C 158.642 -1.41002 -0.772995 0
M  V30 1588 O 159.832 -1.62881 -0.617692 0
M  V30 1589 C 156.964 -3.22564 -1.10296 0
M  V30 1590 H 158.157 -2.92103 0.679401 0
M  V30 1591 H 155.71 -1.51343 0.390517 0
M  V30 1592 H 156.445 -2.64416 -1.87762 0
M  V30 1593 H 156.23 -3.87491 -0.59941 0
M  V30 1594 H 157.72 -3.86167 -1.5895 0
M  V30 1595 N 158.157 -0.370918 -1.53173 0
M  V30 1596 C 159.434 0.273754 -1.93675 0
M  V30 1597 C 159.814 1.65938 -1.3049 0
M  V30 1598 O 159.162 2.23698 -0.465999 0
M  V30 1599 C 159.372 0.318602 -3.47543 0
M  V30 1600 C 160.72 0.556392 -4.20939 0
M  V30 1601 O 161.744 0.399587 -3.53952 0
M  V30 1602 O 160.603 0.862133 -5.39657 0
M  V30 1603 H 157.697 0.165448 -0.810281 0
M  V30 1604 H 160.243 -0.42409 -1.64315 0
M  V30 1605 H 159.015 -0.652687 -3.85818 0
M  V30 1606 H 158.638 1.06212 -3.83151 0
M  V30 1607 N 159.635 1.57281 -0.100228 0
M  V30 1608 C 160.884 1.93713 0.561984 0
M  V30 1609 C 161.197 0.984492 1.69018 0
M  V30 1610 O 162.403 1.24273 2.41389 0
M  V30 1611 C 160.859 3.4421 1.05106 0
M  V30 1612 C 160.467 4.47975 -0.0476628 0
M  V30 1613 C 162.211 3.89595 1.68571 0
M  V30 1614 C 160.118 5.89631 0.457055 0
M  V30 1615 H 159.048 0.723082 0.2137 0
M  V30 1616 H 161.699 1.82644 -0.177057 0
M  V30 1617 H 160.081 3.50449 1.84395 0
M  V30 1618 H 161.255 4.53385 -0.823333 0
M  V30 1619 H 159.57 4.1223 -0.587816 0
M  V30 1620 H 162.167 4.92832 2.07414 0
M  V30 1621 H 162.51 3.28526 2.55688 0
M  V30 1622 H 163.043 3.86078 0.958562 0
M  V30 1623 H 159.782 6.54411 -0.377616 0
M  V30 1624 H 159.302 5.87681 1.19962 0
M  V30 1625 H 160.981 6.40363 0.92437 0
M  V30 1626 N 161.113 -0.173488 1.56642 0
M  V30 1627 C 162.39 -0.917617 1.7274 0
M  V30 1628 C 162.77 -2.00484 0.661027 0
M  V30 1629 O 162.118 -2.26184 -0.32453 0
M  V30 1630 C 162.328 -1.48433 3.15862 0
M  V30 1631 C 163.676 -1.95809 3.76754 0
M  V30 1632 O 164.7 -1.58231 3.19126 0
M  V30 1633 O 163.559 -2.65024 4.77938 0
M  V30 1634 H 160.653 -0.431772 0.705338 0
M  V30 1635 H 163.199 -0.161487 1.6893 0
M  V30 1636 H 161.971 -0.701715 3.84957 0
M  V30 1637 H 161.594 -2.30471 3.23989 0
M  V30 1638 N 162.591 -1.51276 -0.441967 0
M  V30 1639 C 163.838 -1.63715 -1.19179 0
M  V30 1640 C 164.166 -0.351175 -1.91303 0
M  V30 1641 O 163.421 0.664524 -1.84072 0
M  V30 1642 C 163.72 -2.78746 -2.23686 0
M  V30 1643 C 163.386 -4.18189 -1.68607 0
M  V30 1644 C 162.048 -4.56125 -1.53308 0
M  V30 1645 C 164.4 -5.05222 -1.28062 0
M  V30 1646 C 161.728 -5.78804 -0.959317 0
M  V30 1647 C 164.08 -6.28476 -0.721162 0
M  V30 1648 C 162.744 -6.65188 -0.55504 0
M  V30 1649 H 162.014 -0.599076 -0.436106 0
M  V30 1650 H 164.661 -1.85296 -0.48351 0
M  V30 1651 H 162.966 -2.51369 -3.00535 0
M  V30 1652 H 164.663 -2.8557 -2.81515 0
M  V30 1653 H 161.253 -3.88277 -1.8149 0
M  V30 1654 H 165.437 -4.76524 -1.38704 0
M  V30 1655 H 160.693 -6.05899 -0.81833 0
M  V30 1656 H 164.867 -6.95259 -0.398458 0
M  V30 1657 H 162.494 -7.60123 -0.108311 0
M  V30 1658 N 164.069 0.697108 -1.41344 0
M  V30 1659 C 165.294 1.49096 -1.44171 0
M  V30 1660 C 165.719 1.88038 -0.0481568 0
M  V30 1661 O 165.077 1.54525 0.948243 0
M  V30 1662 C 165.125 2.73088 -2.3549 0
M  V30 1663 O 164.229 3.70514 -1.81088 0
M  V30 1664 H 163.57 0.448801 -0.489361 0
M  V30 1665 H 166.1 0.856992 -1.85787 0
M  V30 1666 H 166.11 3.21413 -2.51312 0
M  V30 1667 H 164.785 2.44081 -3.36745 0
M  V30 1668 H 163.362 3.29441 -1.74708 0
M  V30 1669 N 165.547 1.27147 0.931209 0
M  V30 1670 C 166.494 1.09568 2.03134 0
M  V30 1671 C 167.464 -0.00222433 1.661 0
M  V30 1672 O 168.649 0.159439 1.90133 0
M  V30 1673 C 165.789 0.745231 3.36957 0
M  V30 1674 C 164.902 1.92041 3.86968 0
M  V30 1675 C 164.037 1.51216 5.09222 0
M  V30 1676 C 163.076 2.65504 5.5152 0
M  V30 1677 N 162.213 2.25291 6.64972 0
M  V30 1678 H 167.053 2.03708 2.17502 0
M  V30 1679 H 164.59 1.01411 1.06556 0
M  V30 1680 H 166.548 0.522878 4.1391 0
M  V30 1681 H 165.178 -0.159202 3.22407 0
M  V30 1682 H 164.23 2.25541 3.06326 0
M  V30 1683 H 165.542 2.77787 4.1429 0
M  V30 1684 H 164.696 1.25084 5.93666 0
M  V30 1685 H 163.435 0.625749 4.83669 0
M  V30 1686 H 162.44 2.92354 4.65628 0
M  V30 1687 H 163.665 3.54761 5.7907 0
M  V30 1688 H 161.611 1.39098 6.41083 0
M  V30 1689 H 161.528 3.04577 6.91931 0
M  V30 1690 H 162.796 2.02398 7.52765 0
M  V30 1691 N 167.025 -1.13721 1.09112 0
M  V30 1692 C 168.253 -1.88773 0.846899 0
M  V30 1693 C 168.668 -1.7896 -0.601572 0
M  V30 1694 O 168.025 -1.15394 -1.41388 0
M  V30 1695 C 168.076 -3.3849 1.26913 0
M  V30 1696 O 167.797 -3.48043 2.66079 0
M  V30 1697 C 169.298 -4.30518 1.05682 0
M  V30 1698 H 166.518 -0.59772 0.304914 0
M  V30 1699 H 169.062 -1.43977 1.45227 0
M  V30 1700 H 167.217 -3.80881 0.707723 0
M  V30 1701 H 167.631 -4.4109 2.83795 0
M  V30 1702 H 169.105 -5.3391 1.40156 0
M  V30 1703 H 169.582 -4.392 -0.00563416 0
M  V30 1704 H 170.188 -3.93893 1.60402 0
M  V30 1705 N 168.503 -0.877838 -1.30888 0
M  V30 1706 C 169.728 -0.506629 -2.01117 0
M  V30 1707 C 170.153 0.895564 -1.65412 0
M  V30 1708 O 169.511 1.5923 -0.866922 0
M  V30 1709 C 169.559 -0.680223 -3.54126 0
M  V30 1710 O 168.663 0.277033 -4.11468 0
M  V30 1711 H 168.004 -0.200518 -0.633 0
M  V30 1712 H 170.534 -1.18342 -1.66902 0
M  V30 1713 H 170.544 -0.5765 -4.03907 0
M  V30 1714 H 169.219 -1.70261 -3.79452 0
M  V30 1715 H 167.796 0.127606 -3.72682 0
M  V30 1716 N 169.982 1.44106 -0.638065 0
M  V30 1717 C 171.259 1.95453 -0.0759321 0
M  V30 1718 C 171.639 1.57984 1.40015 0
M  V30 1719 O 170.987 0.857361 2.11806 0
M  V30 1720 C 171.197 3.47655 -0.306132 0
M  V30 1721 C 172.545 4.24114 -0.203008 0
M  V30 1722 O 173.569 3.55405 -0.237871 0
M  V30 1723 O 172.428 5.46381 -0.113827 0
M  V30 1724 H 169.522 0.826797 0.0183332 0
M  V30 1725 H 172.068 1.54122 -0.710251 0
M  V30 1726 H 170.84 3.68 -1.3301 0
M  V30 1727 H 170.463 3.95949 0.361991 0
M  V30 1728 N 171.46 0.379036 1.52974 0
M  V30 1729 C 172.688 -0.20679 2.05864 0
M  V30 1730 C 173.103 -1.41356 1.25155 0
M  V30 1731 O 172.46 -1.8009 0.295588 0
M  V30 1732 C 172.511 -0.587045 3.56702 0
M  V30 1733 O 172.232 0.571776 4.34353 0
M  V30 1734 C 173.733 -1.22983 4.25899 0
M  V30 1735 H 170.953 -0.0336123 0.670158 0
M  V30 1736 H 173.497 0.541298 1.97206 0
M  V30 1737 H 171.652 -1.28504 3.65466 0
M  V30 1738 H 172.066 0.261544 5.23847 0
M  V30 1739 H 173.54 -1.44635 5.32715 0
M  V30 1740 H 174.017 -2.19416 3.80465 0
M  V30 1741 H 174.623 -0.572892 4.21424 0
M  V30 1742 N 172.938 -1.57226 0.108567 0
M  V30 1743 C 174.184 -1.95121 -0.552761 0
M  V30 1744 C 174.517 -0.991345 -1.66991 0
M  V30 1745 O 173.792 -0.0267211 -1.94482 0
M  V30 1746 C 174.075 -3.43039 -1.09528 0
M  V30 1747 C 173.928 -4.49797 0.0177332 0
M  V30 1748 C 175.247 -3.92567 -1.98945 0
M  V30 1749 H 172.366 -0.709496 -0.199461 0
M  V30 1750 H 175.008 -1.89126 0.182011 0
M  V30 1751 H 173.158 -3.48279 -1.72146 0
M  V30 1752 H 174.83 -4.56661 0.652584 0
M  V30 1753 H 173.073 -4.284 0.682309 0
M  V30 1754 H 173.744 -5.50528 -0.402919 0
M  V30 1755 H 176.22 -3.89565 -1.46214 0
M  V30 1756 H 175.096 -4.96605 -2.33827 0
M  V30 1757 H 175.357 -3.32648 -2.91201 0
M  V30 1758 N 174.416 0.165178 -1.56732 0
M  V30 1759 C 175.641 0.900253 -1.86843 0
M  V30 1760 C 176.066 1.74766 -0.695596 0
M  V30 1761 O 175.424 1.77786 0.35522 0
M  V30 1762 C 175.472 1.74777 -3.15413 0
M  V30 1763 O 174.576 2.85007 -2.98068 0
M  V30 1764 H 173.917 0.251832 -0.614391 0
M  V30 1765 H 176.447 0.161468 -2.03962 0
M  V30 1766 H 176.457 2.14646 -3.46974 0
M  V30 1767 H 175.132 1.12537 -4.00385 0
M  V30 1768 H 173.709 2.48676 -2.77875 0
M  V30 1769 N 175.894 1.51508 0.433938 0
M  V30 1770 C 176.824 1.76016 1.53429 0
M  V30 1771 C 177.805 0.610112 1.58782 0
M  V30 1772 O 178.99 0.853177 1.74455 0
M  V30 1773 C 176.12 1.88831 2.9148 0
M  V30 1774 C 175.074 3.04288 3.00987 0
M  V30 1775 C 174.4 3.0229 4.4105 0
M  V30 1776 C 175.7 4.44193 2.74754 0
M  V30 1777 H 177.394 2.68152 1.33171 0
M  V30 1778 H 174.94 1.29035 0.639214 0
M  V30 1779 H 176.893 2.04559 3.6842 0
M  V30 1780 H 175.617 0.933455 3.12976 0
M  V30 1781 H 174.276 2.8827 2.26486 0
M  V30 1782 H 173.924 2.04576 4.59519 0
M  V30 1783 H 173.624 3.79822 4.4834 0
M  V30 1784 H 175.148 3.20116 5.1996 0
M  V30 1785 H 176.562 4.60544 3.41426 0
M  V30 1786 H 174.959 5.23457 2.9345 0
M  V30 1787 H 176.029 4.53996 1.70339 0
M  V30 1788 N 177.372 -0.689602 1.41712 0
M  V30 1789 C 178.619 -1.44966 1.4139 0
M  V30 1790 C 178.947 -1.94484 0.025105 0
M  V30 1791 O 178.202 -1.70307 -0.964048 0
M  V30 1792 C 178.501 -2.67298 2.37247 0
M  V30 1793 C 178.167 -2.36405 3.83958 0
M  V30 1794 C 176.829 -2.27691 4.23923 0
M  V30 1795 C 179.181 -2.11043 4.76561 0
M  V30 1796 C 176.509 -1.91719 5.54492 0
M  V30 1797 C 178.861 -1.76578 6.07456 0
M  V30 1798 C 177.525 -1.66363 6.46436 0
M  V30 1799 H 176.795 -0.53047 0.517381 0
M  V30 1800 H 179.442 -0.787655 1.74552 0
M  V30 1801 H 177.747 -3.38461 1.9736 0
M  V30 1802 H 179.444 -3.25452 2.34269 0
M  V30 1803 H 176.034 -2.44085 3.52308 0
M  V30 1804 H 180.218 -2.16717 4.46483 0
M  V30 1805 H 175.474 -1.82367 5.83568 0
M  V30 1806 H 179.648 -1.55974 6.78708 0
M  V30 1807 H 177.275 -1.38258 7.47522 0
M  V30 1808 N 178.85 -1.27639 -0.924453 0
M  V30 1809 C 179.76 -1.12466 -2.05885 0
M  V30 1810 C 180.776 -0.053869 -1.73917 0
M  V30 1811 O 181.952 -0.261012 -1.99702 0
M  V30 1812 C 179.017 -0.776768 -3.37886 0
M  V30 1813 C 178.078 -1.92878 -3.83532 0
M  V30 1814 C 177.311 -1.59739 -5.09234 0
M  V30 1815 O 177.534 -0.506782 -5.68144 0
M  V30 1816 O 176.468 -2.43761 -5.50331 0
M  V30 1817 H 180.294 -2.07671 -2.21599 0
M  V30 1818 H 177.879 -1.06857 -1.04413 0
M  V30 1819 H 179.761 -0.596229 -4.17161 0
M  V30 1820 H 178.436 0.145732 -3.23372 0
M  V30 1821 H 177.343 -2.1644 -3.0513 0
M  V30 1822 H 178.676 -2.8316 -4.02593 0
M  V30 1823 N 180.328 1.1314 -1.09713 0
M  V30 1824 C 181.556 1.88321 -0.856898 0
M  V30 1825 C 181.971 1.79276 0.592073 0
M  V30 1826 O 181.328 1.16142 1.40774 0
M  V30 1827 C 181.379 3.37812 -1.28706 0
M  V30 1828 O 181.1 3.46627 -2.67921 0
M  V30 1829 C 182.601 4.29952 -1.07964 0
M  V30 1830 H 179.821 0.596094 -0.308079 0
M  V30 1831 H 182.365 1.43205 -1.45988 0
M  V30 1832 H 180.52 3.805 -0.727912 0
M  V30 1833 H 180.934 4.39579 -2.8613 0
M  V30 1834 H 182.408 5.33159 -1.42986 0
M  V30 1835 H 182.885 4.39196 -0.0176577 0
M  V30 1836 H 183.491 3.93036 -1.62489 0
M  V30 1837 N 181.806 0.884767 1.30421 0
M  V30 1838 C 183.034 0.518044 2.0031 0
M  V30 1839 C 183.449 -0.893408 1.66324 0
M  V30 1840 O 182.806 -1.5875 0.900262 0
M  V30 1841 C 182.857 0.682997 3.54989 0
M  V30 1842 O 182.578 2.03888 3.87764 0
M  V30 1843 C 184.079 0.31924 4.42149 0
M  V30 1844 H 181.299 0.200265 0.640418 0
M  V30 1845 H 183.843 1.19001 1.6631 0
M  V30 1846 H 181.998 0.0584052 3.87356 0
M  V30 1847 H 182.412 2.05735 4.82466 0
M  V30 1848 H 183.886 0.485555 5.4986 0
M  V30 1849 H 184.363 -0.742717 4.32875 0
M  V30 1850 H 184.969 0.920147 4.15227 0
M  V30 1851 N 183.284 -1.43765 0.645699 0
M  V30 1852 C 184.533 -2.01116 0.153412 0
M  V30 1853 C 184.846 -1.51493 -1.23731 0
M  V30 1854 O 186.052 -2.01067 -1.8244 0
M  V30 1855 C 184.508 -3.59206 0.223473 0
M  V30 1856 C 184.116 -4.17823 1.61642 0
M  V30 1857 C 185.86 -4.23972 -0.211597 0
M  V30 1858 C 183.767 -5.68183 1.64081 0
M  V30 1859 H 182.697 -0.752093 0.0535891 0
M  V30 1860 H 185.348 -1.6482 0.806633 0
M  V30 1861 H 183.73 -3.92867 -0.497118 0
M  V30 1862 H 184.904 -3.95674 2.36176 0
M  V30 1863 H 183.219 -3.65399 1.99681 0
M  V30 1864 H 185.816 -5.34275 -0.213112 0
M  V30 1865 H 186.159 -3.97352 -1.24165 0
M  V30 1866 H 186.692 -3.95166 0.456988 0
M  V30 1867 H 183.431 -5.99559 2.64971 0
M  V30 1868 H 182.951 -5.9241 0.938611 0
M  V30 1869 H 184.63 -6.32085 1.3812 0
M  V30 1870 N 184.763 -0.387143 -1.52771 0
M  V30 1871 C 186.179 -0.037007 -1.59557 0
M  V30 1872 C 186.379 1.44801 -1.40124 0
M  V30 1873 O 185.435 2.21227 -1.21716 0
M  V30 1874 C 186.748 -0.512256 -2.96305 0
M  V30 1875 C 188.296 -0.468328 -3.09476 0
M  V30 1876 C 188.771 -0.919731 -4.4867 0
M  V30 1877 N 190.262 -0.875656 -4.54848 0
M  V30 1878 C 190.997 -1.19637 -5.6078 0
M  V30 1879 N 190.493 -1.58745 -6.74368 0
M  V30 1880 N 192.286 -1.11776 -5.50874 0
M  V30 1881 H 184.437 -1.35395 -1.63652 0
M  V30 1882 H 186.7 -0.554818 -0.768688 0
M  V30 1883 H 186.406 -1.54935 -3.15734 0
M  V30 1884 H 186.28 0.089805 -3.77093 0
M  V30 1885 H 188.667 0.559671 -2.89744 0
M  V30 1886 H 188.748 -1.10616 -2.30646 0
M  V30 1887 H 188.392 -1.94595 -4.69143 0
M  V30 1888 H 188.322 -0.258927 -5.25963 0
M  V30 1889 H 190.813 -0.587843 -3.733 0
M  V30 1890 H 191.126 -1.81586 -7.51163 0
M  V30 1891 H 189.471 -1.6263 -6.75705 0
M  V30 1892 H 192.662 -0.811264 -4.61016 0
M  V30 1893 H 192.835 -1.37103 -6.3333 0
M  V30 1894 N 186.241 1.57166 -0.116904 0
M  V30 1895 C 187.471 1.99184 0.548586 0
M  V30 1896 C 187.879 0.995436 1.60897 0
M  V30 1897 O 187.222 -0.0201293 1.83689 0
M  V30 1898 C 187.284 3.37611 1.23526 0
M  V30 1899 C 186.948 4.55857 0.323077 0
M  V30 1900 C 187.945 5.18056 -0.437476 0
M  V30 1901 C 185.63 5.01751 0.234761 0
M  V30 1902 C 187.624 6.24536 -1.2741 0
M  V30 1903 C 185.311 6.08093 -0.605496 0
M  V30 1904 C 186.309 6.69352 -1.35856 0
M  V30 1905 O 185.997 7.7364 -2.18487 0
M  V30 1906 H 185.729 0.659148 0.149999 0
M  V30 1907 H 188.283 2.0443 -0.199428 0
M  V30 1908 H 186.513 3.29113 2.0303 0
M  V30 1909 H 188.202 3.63932 1.79745 0
M  V30 1910 H 188.968 4.83516 -0.379105 0
M  V30 1911 H 184.847 4.53817 0.810601 0
M  V30 1912 H 188.391 6.72281 -1.86237 0
M  V30 1913 H 184.288 6.42063 -0.665268 0
M  V30 1914 H 185.056 7.90727 -2.11406 0
M  V30 1915 N 187.719 -0.156864 1.56817 0
M  V30 1916 C 188.649 -1.19589 2.00551 0
M  V30 1917 C 189.63 -1.4536 0.883426 0
M  V30 1918 O 190.815 -1.56449 1.15054 0
M  V30 1919 C 187.945 -2.53143 2.37773 0
M  V30 1920 C 186.899 -2.41913 3.53075 0
M  V30 1921 C 186.225 -3.80088 3.76081 0
M  V30 1922 C 187.525 -1.91157 4.86062 0
M  V30 1923 H 189.219 -0.832293 2.87599 0
M  V30 1924 H 186.765 -0.398918 1.38364 0
M  V30 1925 H 188.718 -3.26047 2.66967 0
M  V30 1926 H 187.442 -2.91319 1.4765 0
M  V30 1927 H 186.101 -1.71462 3.24031 0
M  V30 1928 H 185.749 -4.15683 2.83225 0
M  V30 1929 H 185.449 -3.73439 4.53671 0
M  V30 1930 H 186.973 -4.54556 4.0769 0
M  V30 1931 H 188.387 -2.53846 5.14038 0
M  V30 1932 H 186.784 -1.95422 5.67389 0
M  V30 1933 H 187.854 -0.866673 4.77092 0
M  V30 1934 N 189.197 -1.51736 -0.425897 0
M  V30 1935 C 190.16 -1.73271 -1.50032 0
M  V30 1936 C 191.16 -0.602639 -1.4908 0
M  V30 1937 O 192.35 -0.87033 -1.509 0
M  V30 1938 C 189.482 -1.79969 -2.89523 0
M  V30 1939 H 190.675 -2.69172 -1.32237 0
M  V30 1940 H 188.228 -1.41899 -0.65532 0
M  V30 1941 H 188.963 -0.859241 -3.1271 0
M  V30 1942 H 188.748 -2.62109 -2.91619 0
M  V30 1943 H 190.238 -1.9843 -3.67444 0
M  V30 1944 N 190.675 0.682077 -1.42076 0
M  V30 1945 C 191.923 1.4393 -1.41876 0
M  V30 1946 C 192.244 1.94971 -0.0335599 0
M  V30 1947 O 191.514 1.72591 0.926773 0
M  V30 1948 H 190.094 0.534085 -0.522267 0
M  V30 1949 H 192.756 0.806427 -1.77434 0
M  V30 1950 H 191.852 2.29588 -2.11414 0
M  V30 1951 N 192.153 1.28127 0.917671 0
M  V30 1952 C 193.086 1.06039 2.02067 0
M  V30 1953 C 194.064 -0.0223285 1.62585 0
M  V30 1954 O 195.248 0.124823 1.88086 0
M  V30 1955 C 192.375 0.610596 3.33151 0
M  V30 1956 C 191.421 1.68937 3.91615 0
M  V30 1957 S 192.254 3.28437 4.22953 0
M  V30 1958 C 193.41 2.85283 5.57103 0
M  V30 1959 H 193.643 1.99425 2.20493 0
M  V30 1960 H 191.176 1.12071 1.06205 0
M  V30 1961 H 193.134 0.357778 4.08938 0
M  V30 1962 H 191.795 -0.303364 3.12632 0
M  V30 1963 H 190.988 1.32619 4.86239 0
M  V30 1964 H 190.59 1.89478 3.2245 0
M  V30 1965 H 192.882 2.3121 6.36827 0
M  V30 1966 H 193.825 3.7869 5.98331 0
M  V30 1967 H 194.233 2.24118 5.18104 0
M  V30 1968 N 193.631 -1.12557 1.10312 0
M  V30 1969 C 194.561 -2.20341 0.772798 0
M  V30 1970 C 195.542 -1.68198 -0.25365 0
M  V30 1971 O 196.727 -1.93831 -0.119699 0
M  V30 1972 C 193.857 -3.46709 0.202443 0
M  V30 1973 C 192.811 -4.11996 1.15943 0
M  V30 1974 C 192.137 -5.328 0.450345 0
M  V30 1975 C 193.437 -4.5828 2.50552 0
M  V30 1976 H 195.131 -2.48229 1.674 0
M  V30 1977 H 192.677 -1.19308 0.806326 0
M  V30 1978 H 194.63 -4.2138 -0.0407752 0
M  V30 1979 H 193.354 -3.18245 -0.734001 0
M  V30 1980 H 192.013 -3.39305 1.38808 0
M  V30 1981 H 191.661 -5.00602 -0.490531 0
M  V30 1982 H 191.361 -5.7743 1.08851 0
M  V30 1983 H 192.885 -6.10219 0.215642 0
M  V30 1984 H 194.299 -5.2433 2.31843 0
M  V30 1985 H 192.696 -5.13683 3.10242 0
M  V30 1986 H 193.766 -3.72329 3.10643 0
M  V30 1987 N 195.109 -0.891671 -1.2995 0
M  V30 1988 C 196.334 -0.527932 -2.00568 0
M  V30 1989 C 196.759 0.877969 -1.66353 0
M  V30 1990 O 196.117 1.58301 -0.883762 0
M  V30 1991 C 196.165 -0.717745 -3.53385 0
M  V30 1992 O 195.269 0.233376 -4.11739 0
M  V30 1993 H 194.61 -0.20722 -0.630837 0
M  V30 1994 H 197.14 -1.20105 -1.65638 0
M  V30 1995 H 197.15 -0.619307 -4.03272 0
M  V30 1996 H 195.825 -1.74276 -3.77625 0
M  V30 1997 H 194.402 0.0880706 -3.72796 0
M  V30 1998 N 196.587 1.43421 -0.653314 0
M  V30 1999 C 197.835 2.01414 -0.166415 0
M  V30 2000 C 198.156 1.51803 1.22397 0
M  V30 2001 O 197.426 0.730693 1.81763 0
M  V30 2002 H 196.006 0.744703 -0.0585319 0
M  V30 2003 H 198.668 1.75629 -0.845003 0
M  V30 2004 H 197.764 3.11734 -0.151111 0
M  V30 2005 N 198.065 0.39524 1.52563 0
M  V30 2006 C 199.295 -0.184675 2.05773 0
M  V30 2007 C 199.703 -1.40571 1.26635 0
M  V30 2008 O 199.046 -1.81105 0.30769 0
M  V30 2009 C 199.108 -0.613551 3.54226 0
M  V30 2010 C 198.772 0.49484 4.54313 0
M  V30 2011 C 199.769 1.3541 5.01956 0
M  V30 2012 C 197.454 0.663565 4.97898 0
M  V30 2013 C 199.448 2.36716 5.91814 0
M  V30 2014 C 197.135 1.67996 5.87555 0
M  V30 2015 C 198.133 2.53017 6.34406 0
M  V30 2016 O 197.821 3.52917 7.22291 0
M  V30 2017 H 197.553 -0.030077 0.675331 0
M  V30 2018 H 200.107 0.560708 1.97599 0
M  V30 2019 H 198.337 -1.411 3.60038 0
M  V30 2020 H 200.026 -1.11981 3.90148 0
M  V30 2021 H 200.792 1.23509 4.6901 0
M  V30 2022 H 196.671 0.0114913 4.60999 0
M  V30 2023 H 200.215 3.03113 6.28306 0
M  V30 2024 H 196.112 1.79933 6.19915 0
M  V30 2025 H 196.88 3.48996 7.40367 0
M  V30 2026 N 199.544 -1.57102 0.125237 0
M  V30 2027 C 200.821 -1.86953 -0.575142 0
M  V30 2028 C 201.201 -1.02749 -1.84407 0
M  V30 2029 O 200.549 -0.108144 -2.28244 0
M  V30 2030 C 200.759 -3.38198 -0.861583 0
M  V30 2031 C 202.107 -4.06937 -1.21192 0
M  V30 2032 O 203.131 -3.43252 -0.951645 0
M  V30 2033 O 201.99 -5.19364 -1.70068 0
M  V30 2034 H 199.084 -0.774147 -0.290906 0
M  V30 2035 H 201.63 -1.68942 0.160211 0
M  V30 2036 H 200.402 -3.91282 0.0373647 0
M  V30 2037 H 200.025 -3.61661 -1.65188 0
M  V30 2038 N 201.022 0.148545 -1.56898 0
M  V30 2039 C 201.952 1.18524 -2.01182 0
M  V30 2040 C 202.933 1.4489 -0.891123 0
M  V30 2041 O 204.118 1.55836 -1.15882 0
M  V30 2042 C 201.248 2.51879 -2.39112 0
M  V30 2043 C 200.202 2.40038 -3.54353 0
M  V30 2044 C 199.528 3.78089 -3.78091 0
M  V30 2045 C 200.828 1.88577 -4.87069 0
M  V30 2046 H 202.522 0.817029 -2.88036 0
M  V30 2047 H 200.068 0.391575 -1.38574 0
M  V30 2048 H 202.021 3.24627 -2.68692 0
M  V30 2049 H 200.745 2.90532 -1.49193 0
M  V30 2050 H 199.404 1.69742 -3.24936 0
M  V30 2051 H 199.052 4.14175 -2.85426 0
M  V30 2052 H 198.752 3.71028 -4.55645 0
M  V30 2053 H 200.276 4.52387 -4.10095 0
M  V30 2054 H 201.69 2.51117 -5.15377 0
M  V30 2055 H 200.087 1.9241 -5.68417 0
M  V30 2056 H 201.157 0.84136 -4.77545 0
M  V30 2057 N 202.5 1.5196 0.417844 0
M  V30 2058 C 203.43 1.77634 1.51554 0
M  V30 2059 C 204.411 0.626918 1.58126 0
M  V30 2060 O 205.596 0.871632 1.7354 0
M  V30 2061 C 202.726 1.91911 2.8946 0
M  V30 2062 C 201.68 3.07463 2.97743 0
M  V30 2063 C 201.006 3.06951 4.37819 0
M  V30 2064 C 202.306 4.47082 2.70027 0
M  V30 2065 H 204 2.6955 1.3032 0
M  V30 2066 H 201.546 1.29706 0.625492 0
M  V30 2067 H 203.499 2.08455 3.6623 0
M  V30 2068 H 202.223 0.966598 3.11969 0
M  V30 2069 H 200.882 2.90656 2.23416 0
M  V30 2070 H 200.53 2.09438 4.57323 0
M  V30 2071 H 200.23 3.84556 4.44286 0
M  V30 2072 H 201.754 3.25613 5.16535 0
M  V30 2073 H 203.168 4.6414 3.36522 0
M  V30 2074 H 201.565 5.2654 2.87881 0
M  V30 2075 H 202.635 4.55777 1.65514 0
M  V30 2076 N 203.978 -0.674533 1.42435 0
M  V30 2077 C 204.91 -1.80005 1.41883 0
M  V30 2078 C 205.923 -1.59667 0.31787 0
M  V30 2079 O 207.112 -1.68781 0.580973 0
M  V30 2080 C 204.212 -3.17114 1.19549 0
M  V30 2081 C 203.385 -3.64299 2.42084 0
M  V30 2082 C 202.444 -4.80142 2.15291 0
M  V30 2083 O 201.47 -4.90673 2.88493 0
M  V30 2084 N 202.672 -5.68869 1.1562 0
M  V30 2085 H 205.437 -1.80964 2.38898 0
M  V30 2086 H 202.998 -0.857633 1.37318 0
M  V30 2087 H 204.99 -3.92267 0.995417 0
M  V30 2088 H 203.56 -3.11053 0.310569 0
M  V30 2089 H 202.78 -2.79822 2.77657 0
M  V30 2090 H 204.068 -3.92567 3.23679 0
M  V30 2091 H 203.466 -5.63012 0.550765 0
M  V30 2092 H 202.023 -6.43833 1.016 0
M  V30 2093 N 205.456 -1.28612 -0.910864 0
M  V30 2094 C 206.704 -1.15705 -1.65701 0
M  V30 2095 C 207.025 0.29416 -1.92769 0
M  V30 2096 O 206.295 1.20331 -1.54588 0
M  V30 2097 H 204.875 -0.425216 -0.614167 0
M  V30 2098 H 207.537 -1.61381 -1.0928 0
M  V30 2099 H 206.633 -1.6988 -2.61815 0
M  V30 2100 N 206.934 1.1197 -1.10907 0
M  V30 2101 C 208.345 1.65114 -0.871446 0
M  V30 2102 C 208.696 1.86885 0.597353 0
M  V30 2103 O 207.821 1.59896 1.45816 0
M  V30 2104 C 208.416 2.99944 -1.5754 0
M  V30 2105 C 206.975 3.50018 -1.38435 0
M  V30 2106 C 206.122 2.24941 -1.62164 0
M  V30 2107 H 209.073 0.956851 -1.2661 0
M  V30 2108 H 209.094 3.66651 -1.01721 0
M  V30 2109 H 208.606 2.84067 -2.64438 0
M  V30 2110 H 206.707 3.71071 -0.337214 0
M  V30 2111 H 206.82 4.29165 -2.12965 0
M  V30 2112 H 205.184 2.3229 -1.04467 0
M  V30 2113 H 205.967 2.11612 -2.70324 0
M  V30 2114 N 208.412 0.89855 1.29475 0
M  V30 2115 C 209.375 0.380272 2.26023 0
M  V30 2116 C 210.375 -0.484891 1.53315 0
M  V30 2117 O 211.565 -0.290108 1.71767 0
M  V30 2118 C 208.697 -0.45651 3.3783 0
M  V30 2119 H 209.89 1.23295 2.73383 0
M  V30 2120 H 207.443 0.676589 1.40897 0
M  V30 2121 H 208.178 -1.32922 2.95808 0
M  V30 2122 H 207.963 0.163393 3.91759 0
M  V30 2123 H 209.453 -0.810466 4.0966 0
M  V30 2124 N 209.89 -1.43072 0.660911 0
M  V30 2125 C 210.837 -2.30785 -0.0259884 0
M  V30 2126 C 211.807 -1.45184 -0.806888 0
M  V30 2127 O 212.992 -1.74041 -0.781943 0
M  V30 2128 C 210.132 -3.30861 -0.981067 0
M  V30 2129 C 209.245 -4.31558 -0.195458 0
M  V30 2130 C 208.38 -5.18712 -1.14503 0
M  V30 2131 C 207.419 -6.11097 -0.350299 0
M  V30 2132 N 206.556 -6.90849 -1.25186 0
M  V30 2133 H 211.396 -2.88975 0.727846 0
M  V30 2134 H 208.933 -1.42353 0.370682 0
M  V30 2135 H 210.891 -3.87399 -1.54849 0
M  V30 2136 H 209.521 -2.74304 -1.70169 0
M  V30 2137 H 208.573 -3.77252 0.488374 0
M  V30 2138 H 209.885 -4.9701 0.422176 0
M  V30 2139 H 209.039 -5.79914 -1.78284 0
M  V30 2140 H 207.778 -4.53404 -1.79656 0
M  V30 2141 H 206.783 -5.48976 0.300808 0
M  V30 2142 H 208.008 -6.7845 0.296941 0
M  V30 2143 H 205.954 -6.28182 -1.89005 0
M  V30 2144 H 205.871 -7.52854 -0.688971 0
M  V30 2145 H 207.139 -7.5655 -1.87757 0
M  V30 2146 N 211.368 -0.403325 -1.52352 0
M  V30 2147 C 212.316 0.439752 -2.28405 0
M  V30 2148 C 213.31 1.05089 -1.32863 0
M  V30 2149 O 214.516 0.989759 -1.50345 0
M  V30 2150 H 210.891 0.160587 -0.734653 0
M  V30 2151 H 212.862 -0.222983 -2.97566 0
M  V30 2152 C 211.611 1.54736 -3.11371 0
M  V30 2153 H 210.934 1.08643 -3.84755 0
M  V30 2154 H 212.374 2.1112 -3.67701 0
M  V30 2155 C 210.833 2.51141 -2.24566 0
M  V30 2156 O 211.363 3.54887 -1.88196 0
M  V30 2157 N 209.569 2.21213 -1.8845 0
M  V30 2158 H 209.116 1.36878 -2.18225 0
M  V30 2159 H 209.074 2.85963 -1.30662 0
M  V30 2160 N 212.846 1.57033 -0.133567 0
M  V30 2161 C 213.776 2.1909 0.807567 0
M  V30 2162 C 214.757 1.13517 1.26681 0
M  V30 2163 O 215.942 1.41809 1.32679 0
M  V30 2164 C 213.072 2.80188 2.05212 0
M  V30 2165 C 212.026 3.91471 1.73015 0
M  V30 2166 C 211.352 4.39443 3.04622 0
M  V30 2167 C 212.652 5.12886 0.987168 0
M  V30 2168 H 214.346 2.97988 0.290403 0
M  V30 2169 H 211.892 1.43335 0.138239 0
M  V30 2170 H 213.845 3.22264 2.71521 0
M  V30 2171 H 212.569 1.98601 2.59278 0
M  V30 2172 H 211.228 3.49993 1.0909 0
M  V30 2173 H 210.876 3.54695 3.56651 0
M  V30 2174 H 210.576 5.14495 2.83847 0
M  V30 2175 H 212.1 4.8418 3.72024 0
M  V30 2176 H 213.514 5.51891 1.55208 0
M  V30 2177 H 211.911 5.93615 0.87985 0
M  V30 2178 H 212.981 4.84894 -0.0235286 0
M  V30 2179 N 214.325 -0.140222 1.56975 0
M  V30 2180 C 215.571 -0.852949 1.83991 0
M  V30 2181 C 215.904 -1.80512 0.716187 0
M  V30 2182 O 215.179 -1.92479 -0.279681 0
M  V30 2183 C 215.462 -1.6215 3.21527 0
M  V30 2184 C 215.315 -0.690363 4.4447 0
M  V30 2185 C 216.634 -2.58247 3.56366 0
M  V30 2186 H 213.753 -0.308634 0.669264 0
M  V30 2187 H 216.395 -0.117898 1.89634 0
M  V30 2188 H 214.545 -2.24812 3.16847 0
M  V30 2189 H 216.217 -0.0742264 4.6124 0
M  V30 2190 H 214.46 -0.000396433 4.338 0
M  V30 2191 H 215.131 -1.2643 5.37326 0
M  V30 2192 H 217.607 -2.05701 3.61699 0
M  V30 2193 H 216.483 -3.09067 4.53617 0
M  V30 2194 H 216.744 -3.39923 2.82674 0
M  V30 2195 N 215.803 -1.52179 -0.40978 0
M  V30 2196 C 217.08 -1.56769 -1.16974 0
M  V30 2197 C 217.46 -0.348322 -2.08206 0
M  V30 2198 O 216.808 0.664862 -2.18613 0
M  V30 2199 C 217.018 -2.89603 -1.9476 0
M  V30 2200 C 218.366 -3.42579 -2.50849 0
M  V30 2201 O 219.39 -2.91338 -2.04941 0
M  V30 2202 O 218.249 -4.32054 -3.34652 0
M  V30 2203 H 215.343 -0.631439 -0.534054 0
M  V30 2204 H 217.889 -1.64507 -0.416613 0
M  V30 2205 H 216.661 -3.698 -1.27921 0
M  V30 2206 H 216.284 -2.85155 -2.77079 0
M  V30 2207 N 217.281 0.66697 -1.42791 0
M  V30 2208 C 218.229 1.80157 -1.47127 0
M  V30 2209 C 219.223 1.65825 -0.346199 0
M  V30 2210 O 220.429 1.72338 -0.519572 0
M  V30 2211 H 216.804 0.594158 -0.460956 0
M  V30 2212 H 218.775 1.73619 -2.42692 0
M  V30 2213 C 217.524 3.18351 -1.39813 0
M  V30 2214 H 216.847 3.3001 -2.25684 0
M  V30 2215 H 218.287 3.97736 -1.46908 0
M  V30 2216 C 216.746 3.36707 -0.11391 0
M  V30 2217 O 217.276 3.93027 0.830241 0
M  V30 2218 N 215.482 2.90586 -0.0285295 0
M  V30 2219 H 215.029 2.4494 -0.79764 0
M  V30 2220 H 214.987 3.03245 0.830063 0
M  V30 2221 N 218.759 1.29093 0.90403 0
M  V30 2222 C 219.691 1.09658 2.01266 0
M  V30 2223 C 220.704 0.0453729 1.62737 0
M  V30 2224 O 221.893 0.289446 1.76138 0
M  V30 2225 C 218.993 0.646278 3.32681 0
M  V30 2226 C 218.166 1.77505 3.99763 0
M  V30 2227 C 217.225 1.31649 5.09465 0
M  V30 2228 O 216.251 2.02045 5.32134 0
M  V30 2229 N 217.453 0.184997 5.80205 0
M  V30 2230 H 220.218 2.05135 2.18494 0
M  V30 2231 H 217.779 1.20975 1.07594 0
M  V30 2232 H 219.771 0.322906 4.0341 0
M  V30 2233 H 218.341 -0.215916 3.11853 0
M  V30 2234 H 217.561 2.26752 3.22455 0
M  V30 2235 H 218.849 2.53198 4.41325 0
M  V30 2236 H 218.247 -0.402021 5.6427 0
M  V30 2237 H 216.804 -0.0790358 6.51752 0
M  V30 2238 N 220.237 -1.11381 1.11499 0
M  V30 2239 C 221.514 -1.7955 0.775965 0
M  V30 2240 C 221.894 -1.97859 -0.73588 0
M  V30 2241 O 221.242 -1.56376 -1.66609 0
M  V30 2242 C 221.452 -3.13196 1.53977 0
M  V30 2243 C 222.8 -3.88227 1.71944 0
M  V30 2244 O 223.824 -3.22887 1.50407 0
M  V30 2245 O 222.683 -5.05477 2.07738 0
M  V30 2246 H 219.777 -0.777728 0.28119 0
M  V30 2247 H 222.323 -1.18118 1.21845 0
M  V30 2248 H 221.095 -2.95229 2.56818 0
M  V30 2249 H 220.718 -3.82342 1.09088 0
M  V30 2250 N 221.715 -0.905404 -1.28997 0
M  V30 2251 C 222.645 -0.404212 -2.29975 0
M  V30 2252 C 223.626 0.523784 -1.61835 0
M  V30 2253 O 224.811 0.433298 -1.89304 0
M  V30 2254 C 221.941 0.364042 -3.45387 0
M  V30 2255 C 220.895 -0.474048 -4.25367 0
M  V30 2256 C 220.221 0.422045 -5.33032 0
M  V30 2257 C 221.521 -1.72696 -4.92923 0
M  V30 2258 H 223.215 -1.24807 -2.72146 0
M  V30 2259 H 220.761 -0.601585 -1.30832 0
M  V30 2260 H 222.714 0.725447 -4.15109 0
M  V30 2261 H 221.438 1.24174 -3.02074 0
M  V30 2262 H 220.097 -0.81786 -3.57361 0
M  V30 2263 H 219.745 1.29804 -4.85963 0
M  V30 2264 H 219.445 -0.135057 -5.87445 0
M  V30 2265 H 220.969 0.779517 -6.05604 0
M  V30 2266 H 222.383 -1.43495 -5.55051 0
M  V30 2267 H 220.78 -2.22582 -5.57295 0
M  V30 2268 H 221.85 -2.45964 -4.17887 0
M  V30 2269 N 223.193 1.4272 -0.668489 0
M  V30 2270 C 224.442 2.00846 -0.185389 0
M  V30 2271 C 224.755 1.53442 1.21305 0
M  V30 2272 O 225.961 2.03944 1.79218 0
M  V30 2273 C 224.417 3.58805 -0.280591 0
M  V30 2274 C 224.025 4.15198 -1.68268 0
M  V30 2275 C 225.769 4.24255 0.14412 0
M  V30 2276 C 223.676 5.655 -1.73099 0
M  V30 2277 H 222.606 0.751145 -0.0655475 0
M  V30 2278 H 225.257 1.63516 -0.832752 0
M  V30 2279 H 223.639 3.93608 0.434553 0
M  V30 2280 H 224.813 3.91866 -2.42441 0
M  V30 2281 H 223.128 3.62176 -2.05469 0
M  V30 2282 H 225.725 5.34547 0.128086 0
M  V30 2283 H 226.068 3.99277 1.17827 0
M  V30 2284 H 226.601 3.94389 -0.519798 0
M  V30 2285 H 223.34 5.95268 -2.74475 0
M  V30 2286 H 222.86 5.90842 -1.03274 0
M  V30 2287 H 224.539 6.29808 -1.48158 0
M  V30 2288 N 224.671 0.411399 1.52136 0
M  V30 2289 C 225.948 -0.222308 1.94333 0
M  V30 2290 C 226.328 -1.6242 1.34844 0
M  V30 2291 O 225.676 -2.22384 0.525145 0
M  V30 2292 C 225.886 -0.226345 3.48265 0
M  V30 2293 C 227.234 -0.444592 4.22266 0
M  V30 2294 O 228.258 -0.305602 3.54887 0
M  V30 2295 O 227.117 -0.718749 5.41753 0
M  V30 2296 H 224.211 -0.143907 0.814383 0
M  V30 2297 H 226.757 0.467506 1.63133 0
M  V30 2298 H 225.529 0.75475 3.83952 0
M  V30 2299 H 225.152 -0.960163 3.85832 0
M  V30 2300 N 226.149 -1.5696 0.141893 0
M  V30 2301 C 227.397 -1.95573 -0.509484 0
M  V30 2302 C 227.718 -1.02746 -1.65736 0
M  V30 2303 O 226.988 -0.0880311 -1.95702 0
M  V30 2304 H 225.568 -0.722115 -0.191205 0
M  V30 2305 H 228.23 -1.93697 0.216196 0
M  V30 2306 H 227.326 -2.99171 -0.889 0
M  V30 2307 N 227.627 0.131896 -1.57047 0
M  V30 2308 C 228.557 1.16384 -2.02428 0
M  V30 2309 C 229.538 1.43936 -0.90644 0
M  V30 2310 O 230.723 1.54599 -1.17528 0
M  V30 2311 C 227.853 2.49328 -2.4177 0
M  V30 2312 C 226.807 2.36266 -3.56879 0
M  V30 2313 C 226.133 3.74057 -3.8208 0
M  V30 2314 C 227.433 1.834 -4.89042 0
M  V30 2315 H 229.127 0.786433 -2.88887 0
M  V30 2316 H 226.673 0.376855 -1.38981 0
M  V30 2317 H 228.626 3.21759 -2.7212 0
M  V30 2318 H 227.35 2.88934 -1.52266 0
M  V30 2319 H 226.009 1.66286 -3.26718 0
M  V30 2320 H 225.657 4.11125 -2.89803 0
M  V30 2321 H 225.357 3.66174 -4.59554 0
M  V30 2322 H 226.881 4.48012 -4.1487 0
M  V30 2323 H 228.295 2.45636 -5.18011 0
M  V30 2324 H 226.692 1.8637 -5.70426 0
M  V30 2325 H 227.762 0.790662 -4.7841 0
M  V30 2326 N 229.106 1.52395 0.401703 0
M  V30 2327 C 230.036 1.79231 1.49661 0
M  V30 2328 C 231.017 0.643654 1.57452 0
M  V30 2329 O 232.202 0.889989 1.72606 0
M  V30 2330 C 229.332 1.94971 2.87409 0
M  V30 2331 C 228.286 3.10604 2.94465 0
M  V30 2332 C 227.612 3.11577 4.34538 0
M  V30 2333 C 228.912 4.49921 2.6527 0
M  V30 2334 H 230.606 2.70917 1.27454 0
M  V30 2335 H 228.152 1.30362 0.6117 0
M  V30 2336 H 230.105 2.12328 3.63999 0
M  V30 2337 H 228.829 0.999632 3.10926 0
M  V30 2338 H 227.488 2.93009 2.20321 0
M  V30 2339 H 227.136 2.14277 4.55076 0
M  V30 2340 H 226.836 3.89247 4.40183 0
M  V30 2341 H 228.36 3.31073 5.13053 0
M  V30 2342 H 229.774 4.67683 3.31581 0
M  V30 2343 H 228.171 5.29564 2.82281 0
M  V30 2344 H 229.241 4.57507 1.60671 0
M  V30 2345 N 230.584 -0.659388 1.43143 0
M  V30 2346 C 231.861 -1.41627 1.34912 0
M  V30 2347 C 232.241 -2.11099 -0.00607785 0
M  V30 2348 O 231.589 -2.04353 -1.02236 0
M  V30 2349 C 231.799 -2.40604 2.52805 0
M  V30 2350 C 233.147 -3.04789 2.95616 0
M  V30 2351 O 234.171 -2.50932 2.52807 0
M  V30 2352 O 233.03 -4.02421 3.69756 0
M  V30 2353 H 230.124 -0.63246 0.532844 0
M  V30 2354 H 232.67 -0.686814 1.5518 0
M  V30 2355 H 231.442 -1.88174 3.43083 0
M  V30 2356 H 231.065 -3.21009 2.34604 0
M  V30 2357 N 232.062 -1.29571 -0.897171 0
M  V30 2358 C 232.994 -1.10724 -2.00681 0
M  V30 2359 C 234.007 -0.0540026 -1.6271 0
M  V30 2360 O 235.196 -0.298783 -1.75982 0
M  V30 2361 C 232.296 -0.663912 -3.32333 0
M  V30 2362 C 231.469 -1.79622 -3.98816 0
M  V30 2363 C 230.528 -1.34349 -5.0876 0
M  V30 2364 O 229.554 -2.04864 -5.31055 0
M  V30 2365 N 230.756 -0.215764 -5.80099 0
M  V30 2366 H 233.521 -2.06291 -2.17403 0
M  V30 2367 H 231.082 -1.21544 -1.06951 0
M  V30 2368 H 233.074 -0.344295 -4.03233 0
M  V30 2369 H 231.644 0.199375 -3.11964 0
M  V30 2370 H 230.864 -2.28459 -3.21248 0
M  V30 2371 H 232.152 -2.55535 -4.39976 0
M  V30 2372 H 231.55 0.372091 -5.64475 0
M  V30 2373 H 230.107 0.0444707 -6.51785 0
M  V30 2374 N 233.54 1.10788 -1.12088 0
M  V30 2375 C 234.765 1.87002 -0.896949 0
M  V30 2376 C 235.19 1.79933 0.548261 0
M  V30 2377 O 234.548 1.16662 1.38779 0
M  V30 2378 C 234.596 3.3349 -1.37174 0
M  V30 2379 O 233.7 4.08745 -0.547831 0
M  V30 2380 H 233.041 0.580397 -0.322545 0
M  V30 2381 H 235.571 1.39996 -1.49206 0
M  V30 2382 H 235.581 3.84339 -1.36922 0
M  V30 2383 H 234.256 3.37951 -2.42408 0
M  V30 2384 H 232.833 3.6776 -0.617034 0
M  V30 2385 N 235.018 0.912232 1.28515 0
M  V30 2386 C 236.434 0.610159 1.47476 0
M  V30 2387 C 236.634 -0.844955 1.82928 0
M  V30 2388 O 235.69 -1.62416 1.93332 0
M  V30 2389 C 237.003 1.54675 2.57868 0
M  V30 2390 C 238.551 1.55331 2.71738 0
M  V30 2391 C 239.026 2.47649 3.85272 0
M  V30 2392 N 240.517 2.45767 3.92623 0
M  V30 2393 C 241.252 3.13896 4.79851 0
M  V30 2394 N 240.748 3.9135 5.71679 0
M  V30 2395 N 242.541 3.02991 4.73448 0
M  V30 2396 H 234.692 1.85318 1.03783 0
M  V30 2397 H 236.955 0.794777 0.516753 0
M  V30 2398 H 236.661 2.5841 2.38574 0
M  V30 2399 H 236.535 1.27671 3.54937 0
M  V30 2400 H 238.922 0.52335 2.90422 0
M  V30 2401 H 239.003 1.86378 1.75205 0
M  V30 2402 H 238.647 3.50745 3.67342 0
M  V30 2403 H 238.577 2.13904 4.81199 0
M  V30 2404 H 241.068 1.89503 3.26951 0
M  V30 2405 H 241.381 4.40359 6.35062 0
M  V30 2406 H 239.726 3.95455 5.71524 0
M  V30 2407 H 242.917 2.41987 4.007 0
M  V30 2408 H 243.09 3.5636 5.41213 0
M  V30 2409 N 236.496 -1.42363 0.676048 0
M  V30 2410 C 237.444 -2.32596 -0.0131507 0
M  V30 2411 C 238.438 -1.49891 -0.789238 0
M  V30 2412 O 239.644 -1.65955 -0.697061 0
M  V30 2413 H 236.019 -0.751647 -0.0230481 0
M  V30 2414 H 237.99 -2.88421 0.765243 0
M  V30 2415 C 236.739 -3.34479 -0.949702 0
M  V30 2416 H 236.062 -3.98158 -0.361938 0
M  V30 2417 H 237.502 -4.00199 -1.4006 0
M  V30 2418 C 235.961 -2.66838 -2.05667 0
M  V30 2419 O 236.491 -2.50124 -3.14326 0
M  V30 2420 N 234.697 -2.25843 -1.82875 0
M  V30 2421 H 234.244 -2.39637 -0.945085 0
M  V30 2422 H 234.202 -1.80918 -2.5713 0
M  V30 2423 N 237.974 -0.419461 -1.51915 0
M  V30 2424 C 238.904 0.391813 -2.30189 0
M  V30 2425 C 239.885 1.03699 -1.34836 0
M  V30 2426 O 241.07 1.04403 -1.63748 0
M  V30 2427 C 238.2 1.50312 -3.13087 0
M  V30 2428 C 237.154 0.9824 -4.16573 0
M  V30 2429 C 236.48 2.18809 -4.8788 0
M  V30 2430 C 237.78 0.0292356 -5.22292 0
M  V30 2431 H 239.474 -0.26135 -2.98257 0
M  V30 2432 H 237.02 -0.127134 -1.43438 0
M  V30 2433 H 238.973 2.07773 -3.66617 0
M  V30 2434 H 237.697 2.18431 -2.42807 0
M  V30 2435 H 236.356 0.430119 -3.64068 0
M  V30 2436 H 236.004 2.85507 -4.14119 0
M  V30 2437 H 235.704 1.84615 -5.57845 0
M  V30 2438 H 237.228 2.76858 -5.44226 0
M  V30 2439 H 238.642 0.512976 -5.71 0
M  V30 2440 H 237.039 -0.2244 -5.9968 0
M  V30 2441 H 238.109 -0.912931 -4.76228 0
M  V30 2442 N 239.452 1.56882 -0.150215 0
M  V30 2443 C 240.415 2.1573 0.774157 0
M  V30 2444 C 241.415 1.0999 1.17298 0
M  V30 2445 O 242.605 1.35613 1.09338 0
M  V30 2446 C 239.737 2.72302 2.05096 0
M  V30 2447 H 240.93 2.98752 0.262201 0
M  V30 2448 H 238.483 1.55985 0.099248 0
M  V30 2449 H 239.218 1.92956 2.6065 0
M  V30 2450 H 239.003 3.49665 1.77416 0
M  V30 2451 H 240.493 3.17632 2.71109 0
M  V30 2452 N 240.93 -0.123565 1.57115 0
M  V30 2453 C 242.207 -0.862196 1.75572 0
M  V30 2454 C 242.587 -1.98279 0.724475 0
M  V30 2455 O 241.935 -2.27102 -0.252407 0
M  V30 2456 C 242.145 -1.38309 3.20424 0
M  V30 2457 C 243.493 -1.83724 3.82793 0
M  V30 2458 O 244.517 -1.47999 3.23998 0
M  V30 2459 O 243.376 -2.49685 4.86127 0
M  V30 2460 H 240.47 -0.409113 0.718718 0
M  V30 2461 H 243.016 -0.107661 1.69358 0
M  V30 2462 H 241.788 -0.578889 3.86994 0
M  V30 2463 H 241.411 -2.20046 3.31158 0
M  V30 2464 N 242.408 -1.52605 -0.393616 0
M  V30 2465 C 243.654 -1.67672 -1.14079 0
M  V30 2466 C 243.987 -0.413121 -1.89755 0
M  V30 2467 O 243.262 0.588952 -1.85369 0
M  V30 2468 C 243.545 -2.9088 -2.12276 0
M  V30 2469 C 243.398 -4.27329 -1.40394 0
M  V30 2470 C 244.717 -3.09628 -3.12759 0
M  V30 2471 H 241.836 -0.610168 -0.413356 0
M  V30 2472 H 244.478 -1.85193 -0.424696 0
M  V30 2473 H 242.628 -2.76073 -2.73342 0
M  V30 2474 H 244.3 -4.53894 -0.82327 0
M  V30 2475 H 242.543 -4.2802 -0.705801 0
M  V30 2476 H 243.214 -5.09615 -2.12123 0
M  V30 2477 H 245.69 -3.23436 -2.61779 0
M  V30 2478 H 244.566 -3.97322 -3.78717 0
M  V30 2479 H 244.827 -2.23637 -3.81365 0
M  V30 2480 N 243.887 0.651787 -1.4349 0
M  V30 2481 C 244.817 1.77621 -1.51569 0
M  V30 2482 C 245.798 1.66022 -0.370253 0
M  V30 2483 O 246.983 1.85095 -0.587658 0
M  V30 2484 C 244.113 3.16056 -1.43966 0
M  V30 2485 C 243.067 3.4242 -2.56774 0
M  V30 2486 C 242.393 4.8067 -2.34223 0
M  V30 2487 C 243.693 3.37023 -3.99015 0
M  V30 2488 H 245.387 1.71117 -2.45681 0
M  V30 2489 H 242.933 0.821825 -1.18246 0
M  V30 2490 H 244.886 3.94472 -1.48221 0
M  V30 2491 H 243.61 3.23293 -0.463586 0
M  V30 2492 H 242.269 2.66375 -2.51873 0
M  V30 2493 H 241.917 4.84585 -1.34856 0
M  V30 2494 H 241.617 4.9927 -3.09844 0
M  V30 2495 H 243.141 5.61342 -2.40265 0
M  V30 2496 H 244.555 4.05374 -4.05395 0
M  V30 2497 H 242.952 3.67159 -4.74673 0
M  V30 2498 H 244.022 2.3518 -4.2405 0
M  V30 2499 N 245.365 1.30045 0.890287 0
M  V30 2500 C 246.312 1.15976 1.99545 0
M  V30 2501 C 247.282 0.0506202 1.66023 0
M  V30 2502 O 248.467 0.219847 1.89529 0
M  V30 2503 C 245.607 0.852054 3.34416 0
M  V30 2504 C 244.72 2.04255 3.80662 0
M  V30 2505 C 243.855 1.6734 5.04154 0
M  V30 2506 C 242.894 2.82916 5.42794 0
M  V30 2507 N 242.031 2.46333 6.57468 0
M  V30 2508 H 246.871 2.10524 2.10911 0
M  V30 2509 H 244.408 1.04749 1.03276 0
M  V30 2510 H 246.366 0.654296 4.12037 0
M  V30 2511 H 244.996 -0.0565502 3.2275 0
M  V30 2512 H 244.048 2.35172 2.98995 0
M  V30 2513 H 245.36 2.90826 4.05242 0
M  V30 2514 H 244.514 1.43908 5.89386 0
M  V30 2515 H 243.253 0.779308 4.81433 0
M  V30 2516 H 242.258 3.0702 4.56091 0
M  V30 2517 H 243.483 3.73004 5.6749 0
M  V30 2518 H 241.429 1.59423 6.36334 0
M  V30 2519 H 241.346 3.26436 6.81891 0
M  V30 2520 H 242.614 2.26244 7.45945 0
M  V30 2521 N 246.843 -1.10192 1.12674 0
M  V30 2522 C 248.09 -1.82205 0.883606 0
M  V30 2523 C 248.418 -1.8532 -0.590492 0
M  V30 2524 O 247.673 -1.31137 -1.45264 0
M  V30 2525 C 247.972 -3.28552 1.4067 0
M  V30 2526 C 247.638 -3.45582 2.89627 0
M  V30 2527 C 246.3 -3.49937 3.30299 0
M  V30 2528 C 248.652 -3.50768 3.85501 0
M  V30 2529 C 245.98 -3.57049 4.65546 0
M  V30 2530 C 248.332 -3.59414 5.20581 0
M  V30 2531 C 246.996 -3.62034 5.60792 0
M  V30 2532 H 246.266 -0.666735 0.323334 0
M  V30 2533 H 248.913 -1.29868 1.40736 0
M  V30 2534 H 247.218 -3.83473 0.80347 0
M  V30 2535 H 248.915 -3.82788 1.19475 0
M  V30 2536 H 245.505 -3.42871 2.57172 0
M  V30 2537 H 249.689 -3.46651 3.55171 0
M  V30 2538 H 244.945 -3.57361 4.96088 0
M  V30 2539 H 249.119 -3.62371 5.94693 0
M  V30 2540 H 246.746 -3.67298 6.6558 0
M  V30 2541 N 248.321 -0.919034 -1.28029 0
M  V30 2542 C 249.284 -0.416182 -2.2539 0
M  V30 2543 C 250.284 0.460438 -1.54067 0
M  V30 2544 O 251.474 0.262744 -1.72207 0
M  V30 2545 C 248.606 0.402707 -3.38513 0
M  V30 2546 H 249.799 -1.27629 -2.71387 0
M  V30 2547 H 247.352 -0.698919 -1.39803 0
M  V30 2548 H 248.087 1.282 -2.97885 0
M  V30 2549 H 247.872 -0.225698 -3.9145 0
M  V30 2550 H 249.362 0.745191 -4.10897 0
M  V30 2551 N 249.799 1.42003 -0.683588 0
M  V30 2552 C 251.046 2.01413 -0.209514 0
M  V30 2553 C 251.374 1.54088 1.1869 0
M  V30 2554 O 250.629 0.737591 1.81268 0
M  V30 2555 C 250.928 3.56827 -0.202357 0
M  V30 2556 C 250.594 4.23617 -1.54464 0
M  V30 2557 C 249.256 4.41577 -1.91215 0
M  V30 2558 C 251.608 4.61178 -2.42826 0
M  V30 2559 C 248.936 4.9437 -3.15935 0
M  V30 2560 C 251.288 5.15355 -3.66867 0
M  V30 2561 C 249.952 5.31528 -4.03776 0
M  V30 2562 H 249.222 0.737023 -0.0766668 0
M  V30 2563 H 251.869 1.70067 -0.880312 0
M  V30 2564 H 250.174 3.87892 0.551969 0
M  V30 2565 H 251.871 4.00588 0.181793 0
M  V30 2566 H 248.461 4.10004 -1.24877 0
M  V30 2567 H 252.645 4.46968 -2.15717 0
M  V30 2568 H 247.901 5.05076 -3.44541 0
M  V30 2569 H 252.075 5.43402 -4.35531 0
M  V30 2570 H 249.702 5.72199 -5.00492 0
M  V30 2571 N 251.277 0.427512 1.51691 0
M  V30 2572 C 252.554 -0.201684 1.94557 0
M  V30 2573 C 252.934 -1.60981 1.36559 0
M  V30 2574 O 252.282 -2.21814 0.548702 0
M  V30 2575 C 252.492 -0.189394 3.48486 0
M  V30 2576 C 253.84 -0.39978 4.22714 0
M  V30 2577 O 254.864 -0.267945 3.55191 0
M  V30 2578 O 253.723 -0.661249 5.42485 0
M  V30 2579 H 250.817 -0.135261 0.815864 0
M  V30 2580 H 253.363 0.484782 1.62628 0
M  V30 2581 H 252.135 0.795431 3.8313 0
M  V30 2582 H 251.758 -0.919187 3.86829 0
M  V30 2583 N 252.755 -1.56801 0.158532 0
M  V30 2584 C 253.983 -2.00859 -0.496303 0
M  V30 2585 C 254.398 -1.03871 -1.57659 0
M  V30 2586 O 253.755 -0.0375165 -1.82461 0
M  V30 2587 C 253.806 -3.4479 -1.08638 0
M  V30 2588 O 253.527 -4.38072 -0.0492322 0
M  V30 2589 C 255.028 -4.04185 -1.8207 0
M  V30 2590 H 252.248 -0.65864 -0.128199 0
M  V30 2591 H 254.792 -2.02885 0.256506 0
M  V30 2592 H 252.947 -3.43579 -1.78975 0
M  V30 2593 H 253.361 -5.2227 -0.483102 0
M  V30 2594 H 254.835 -5.06857 -2.18633 0
M  V30 2595 H 255.312 -3.45549 -2.71095 0
M  V30 2596 H 255.918 -4.0906 -1.16405 0
M  V30 2597 N 254.233 0.115231 -1.57178 0
M  V30 2598 C 255.644 0.67197 -1.74188 0
M  V30 2599 C 255.995 1.80125 -0.777777 0
M  V30 2600 O 255.12 2.16346 0.0484376 0
M  V30 2601 C 255.715 1.22573 -3.1585 0
M  V30 2602 C 254.274 1.72872 -3.34353 0
M  V30 2603 C 253.421 0.629972 -2.70049 0
M  V30 2604 H 256.372 -0.110712 -1.58313 0
M  V30 2605 H 256.393 2.09535 -3.17609 0
M  V30 2606 H 255.905 0.403598 -3.85996 0
M  V30 2607 H 254.006 2.5755 -2.69256 0
M  V30 2608 H 254.119 1.83557 -4.42542 0
M  V30 2609 H 252.483 1.0645 -2.31388 0
M  V30 2610 H 253.266 -0.181241 -3.42821 0
M  V30 2611 N 255.711 1.52812 0.385517 0
M  V30 2612 C 256.936 1.72207 1.15583 0
M  V30 2613 C 257.361 0.441034 1.82857 0
M  V30 2614 O 256.719 -0.603465 1.70962 0
M  V30 2615 C 256.767 2.87476 2.17692 0
M  V30 2616 O 255.871 2.54693 3.24354 0
M  V30 2617 H 255.212 0.572526 0.336319 0
M  V30 2618 H 257.742 1.99618 0.448744 0
M  V30 2619 H 257.752 3.13072 2.6163 0
M  V30 2620 H 256.427 3.80408 1.68115 0
M  V30 2621 H 255.004 2.3985 2.85529 0
M  V30 2622 N 257.189 -0.644168 1.43834 0
M  V30 2623 C 258.437 -1.40117 1.45642 0
M  V30 2624 C 258.758 -1.94814 0.0852413 0
M  V30 2625 O 258.028 -1.74988 -0.880688 0
M  V30 2626 H 256.608 -0.52005 0.536243 0
M  V30 2627 H 259.27 -0.7591 1.7951 0
M  V30 2628 H 258.366 -2.23902 2.17427 0
M  V30 2629 N 258.668 -1.30515 -0.883378 0
M  V30 2630 C 259.914 -1.19607 -1.63774 0
M  V30 2631 C 260.247 0.248314 -1.92606 0
M  V30 2632 O 259.522 1.17742 -1.54813 0
M  V30 2633 C 259.805 -2.02669 -2.97653 0
M  V30 2634 C 259.658 -3.55335 -2.75784 0
M  V30 2635 C 260.977 -1.86573 -3.98596 0
M  V30 2636 H 258.096 -0.435856 -0.594305 0
M  V30 2637 H 260.738 -1.60165 -1.02212 0
M  V30 2638 H 258.888 -1.68208 -3.50197 0
M  V30 2639 H 260.56 -3.99863 -2.30016 0
M  V30 2640 H 258.803 -3.79438 -2.1026 0
M  V30 2641 H 259.474 -4.08745 -3.70988 0
M  V30 2642 H 261.95 -2.16703 -3.55217 0
M  V30 2643 H 260.826 -2.47014 -4.90179 0
M  V30 2644 H 261.087 -0.825321 -4.34328 0
M  V30 2645 N 260.146 1.09593 -1.13257 0
M  V30 2646 C 261.557 1.63229 -0.906274 0
M  V30 2647 C 261.908 1.8811 0.557578 0
M  V30 2648 O 261.033 1.62953 1.42391 0
M  V30 2649 C 261.628 2.96535 -1.63867 0
M  V30 2650 C 260.187 3.47003 -1.45828 0
M  V30 2651 C 259.334 2.2145 -1.66898 0
M  V30 2652 H 262.285 0.92978 -1.28611 0
M  V30 2653 H 262.306 3.64411 -1.09476 0
M  V30 2654 H 261.818 2.78394 -2.70404 0
M  V30 2655 H 259.919 3.70272 -0.415848 0
M  V30 2656 H 260.032 4.24551 -2.2202 0
M  V30 2657 H 258.396 2.30022 -1.09371 0
M  V30 2658 H 259.179 2.0583 -2.74752 0
M  V30 2659 N 261.624 0.925811 1.2754 0
M  V30 2660 C 262.854 0.580666 1.98272 0
M  V30 2661 C 263.262 -0.845207 1.69272 0
M  V30 2662 O 262.605 -1.57306 0.948707 0
M  V30 2663 C 262.667 0.724418 3.52126 0
M  V30 2664 C 262.331 2.12206 4.04744 0
M  V30 2665 C 263.328 3.09604 4.17662 0
M  V30 2666 C 261.013 2.4385 4.39138 0
M  V30 2667 C 263.007 4.36755 4.64246 0
M  V30 2668 C 260.694 3.71237 4.85414 0
M  V30 2669 C 261.692 4.67503 4.97926 0
M  V30 2670 O 261.38 5.92624 5.43187 0
M  V30 2671 H 261.112 0.218987 0.639547 0
M  V30 2672 H 263.666 1.24452 1.63404 0
M  V30 2673 H 261.896 0.0034663 3.867 0
M  V30 2674 H 263.585 0.384607 4.04074 0
M  V30 2675 H 264.351 2.86478 3.91351 0
M  V30 2676 H 260.23 1.69665 4.28643 0
M  V30 2677 H 263.774 5.11898 4.73927 0
M  V30 2678 H 259.671 3.94182 5.11166 0
M  V30 2679 H 260.439 5.95585 5.61445 0
M  V30 2680 N 263.102 -1.41638 0.69111 0
M  V30 2681 C 264.05 -2.32597 0.0115199 0
M  V30 2682 C 265.044 -1.5072 -0.773296 0
M  V30 2683 O 266.25 -1.66685 -0.67942 0
M  V30 2684 H 262.625 -0.751849 -0.0150746 0
M  V30 2685 H 264.596 -2.87593 0.795791 0
M  V30 2686 C 263.345 -3.35467 -0.914172 0
M  V30 2687 H 262.668 -3.9852 -0.319687 0
M  V30 2688 H 264.108 -4.01662 -1.35808 0
M  V30 2689 C 262.567 -2.69004 -2.02826 0
M  V30 2690 O 263.097 -2.53444 -3.11655 0
M  V30 2691 N 261.303 -2.2777 -1.80469 0
M  V30 2692 H 260.85 -2.40626 -0.919615 0
M  V30 2693 H 260.808 -1.83635 -2.55197 0
M  V30 2694 N 264.58 -0.43555 -1.51462 0
M  V30 2695 C 265.528 0.391205 -2.29287 0
M  V30 2696 C 266.522 1.02247 -1.35062 0
M  V30 2697 O 267.728 0.957646 -1.52411 0
M  V30 2698 H 264.103 0.144968 -0.737895 0
M  V30 2699 H 266.074 -0.286051 -2.97026 0
M  V30 2700 C 264.823 1.48096 -3.14583 0
M  V30 2701 H 264.146 1.00457 -3.86973 0
M  V30 2702 H 265.586 2.03273 -3.72097 0
M  V30 2703 C 264.045 2.46321 -2.29843 0
M  V30 2704 O 264.575 3.50815 -1.95682 0
M  V30 2705 N 262.781 2.17166 -1.931 0
M  V30 2706 H 262.328 1.32218 -2.21079 0
M  V30 2707 H 262.286 2.83127 -1.36698 0
M  V30 2708 N 266.058 1.56714 -0.166846 0
M  V30 2709 C 267.307 1.95922 0.479318 0
M  V30 2710 C 267.62 1.05529 1.6469 0
M  V30 2711 O 268.826 1.34399 2.35901 0
M  V30 2712 C 267.282 3.48359 0.90412 0
M  V30 2713 C 266.89 4.47369 -0.237621 0
M  V30 2714 C 268.634 3.96394 1.51896 0
M  V30 2715 C 266.541 5.91039 0.206561 0
M  V30 2716 H 265.471 0.731495 0.18284 0
M  V30 2717 H 268.122 1.81728 -0.254363 0
M  V30 2718 H 266.504 3.57955 1.69365 0
M  V30 2719 H 267.678 4.49485 -1.01489 0
M  V30 2720 H 265.993 4.09366 -0.762128 0
M  V30 2721 H 268.59 5.01186 1.86325 0
M  V30 2722 H 268.933 3.39075 2.41524 0
M  V30 2723 H 269.466 3.89796 0.79395 0
M  V30 2724 H 266.205 6.52221 -0.654834 0
M  V30 2725 H 265.725 5.9224 0.949282 0
M  V30 2726 H 267.404 6.43707 0.651939 0
M  V30 2727 N 267.536 -0.106894 1.57237 0
M  V30 2728 C 268.484 -1.14944 2.02215 0
M  V30 2729 C 269.478 -1.42167 0.92114 0
M  V30 2730 O 270.684 -1.41987 1.10634 0
M  V30 2731 H 267.059 -0.387841 0.64427 0
M  V30 2732 H 269.03 -0.743683 2.88984 0
M  V30 2733 C 267.779 -2.4647 2.4525 0
M  V30 2734 H 267.102 -2.26363 3.29545 0
M  V30 2735 H 268.542 -3.17948 2.80508 0
M  V30 2736 C 267.001 -3.09921 1.321 0
M  V30 2737 O 267.531 -3.9651 0.643622 0
M  V30 2738 N 265.737 -2.69986 1.07497 0
M  V30 2739 H 265.284 -1.99667 1.62761 0
M  V30 2740 H 265.242 -3.12769 0.319876 0
M  V30 2741 N 269.014 -1.53014 -0.377408 0
M  V30 2742 C 270.263 -1.67845 -1.11853 0
M  V30 2743 C 270.576 -0.430625 -1.90801 0
M  V30 2744 O 271.782 -0.459261 -2.67587 0
M  V30 2745 C 270.238 -2.96668 -2.03756 0
M  V30 2746 C 269.846 -4.28671 -1.30175 0
M  V30 2747 C 271.59 -3.20865 -2.77932 0
M  V30 2748 C 269.497 -5.48591 -2.20911 0
M  V30 2749 H 268.427 -0.625343 -0.421263 0
M  V30 2750 H 271.078 -1.79514 -0.380409 0
M  V30 2751 H 269.46 -2.78773 -2.8125 0
M  V30 2752 H 270.634 -4.57157 -0.578259 0
M  V30 2753 H 268.949 -4.10825 -0.679108 0
M  V30 2754 H 271.546 -4.07642 -3.46024 0
M  V30 2755 H 271.889 -2.36424 -3.4265 0
M  V30 2756 H 272.422 -3.39379 -2.07525 0
M  V30 2757 H 269.161 -6.35474 -1.6079 0
M  V30 2758 H 268.681 -5.244 -2.91144 0
M  V30 2759 H 270.36 -5.8292 -2.80736 0
M  V30 2760 N 270.492 0.636531 -1.44174 0
M  V30 2761 C 271.72 1.42353 -1.50144 0
M  V30 2762 C 272.135 1.88389 -0.124575 0
M  V30 2763 O 271.492 1.6051 0.868489 0
M  V30 2764 C 271.543 2.64744 -2.46156 0
M  V30 2765 O 271.264 2.20629 -3.7849 0
M  V30 2766 C 272.765 3.57929 -2.61537 0
M  V30 2767 H 269.985 0.436752 -0.5094 0
M  V30 2768 H 272.529 0.778933 -1.89084 0
M  V30 2769 H 270.684 3.25307 -2.10366 0
M  V30 2770 H 271.098 2.99938 -4.30276 0
M  V30 2771 H 272.572 4.40428 -3.32757 0
M  V30 2772 H 273.049 4.06382 -1.66585 0
M  V30 2773 H 273.655 3.03238 -2.98206 0
M  V30 2774 N 271.97 1.30982 0.876444 0
M  V30 2775 C 273.195 1.23373 1.66715 0
M  V30 2776 C 273.62 -0.19885 1.87046 0
M  V30 2777 O 272.978 -1.1427 1.40756 0
M  V30 2778 C 273.026 1.97644 3.01611 0
M  V30 2779 O 272.13 1.30935 3.91062 0
M  V30 2780 H 271.471 0.426279 0.509099 0
M  V30 2781 H 274.001 1.72944 1.09323 0
M  V30 2782 H 274.011 2.06992 3.51594 0
M  V30 2783 H 272.686 3.01829 2.86133 0
M  V30 2784 H 271.263 1.29996 3.49507 0
M  V30 2785 N 273.449 -1.08991 1.13837 0
M  V30 2786 C 274.399 -2.1393 0.788535 0
M  V30 2787 C 275.383 -1.59396 -0.219516 0
M  V30 2788 O 276.575 -1.76985 -0.0227557 0
M  V30 2789 C 273.704 -3.42305 0.261147 0
M  V30 2790 C 272.79 -4.03736 1.29837 0
M  V30 2791 N 273.181 -4.39659 2.50067 0
M  V30 2792 C 271.479 -4.30993 1.1472 0
M  V30 2793 C 272.18 -4.88113 3.16419 0
M  V30 2794 N 271.156 -4.85846 2.43832 0
M  V30 2795 H 274.958 -2.39516 1.70322 0
M  V30 2796 H 272.472 -1.26263 1.02134 0
M  V30 2797 H 274.469 -4.16899 -0.0077405 0
M  V30 2798 H 273.129 -3.18172 -0.647805 0
M  V30 2799 H 274.14 -4.30878 2.8734 0
M  V30 2800 H 270.817 -4.16444 0.296773 0
M  V30 2801 H 272.207 -5.25336 4.18894 0
M  V30 2802 N 274.927 -0.932562 -1.27047 0
M  V30 2803 C 276.175 -0.574422 -1.93765 0
M  V30 2804 C 276.496 0.887993 -1.73608 0
M  V30 2805 O 275.766 1.62999 -1.08665 0
M  V30 2806 H 274.346 -0.209451 -0.717035 0
M  V30 2807 H 277.008 -1.18601 -1.5466 0
M  V30 2808 H 276.104 -0.784841 -3.02071 0
M  V30 2809 N 276.405 1.4127 -0.698611 0
M  V30 2810 C 277.353 2.32588 -0.023855 0
M  V30 2811 C 278.347 1.51128 0.765292 0
M  V30 2812 O 279.553 1.67043 0.670571 0
M  V30 2813 H 275.928 0.751918 0.0110871 0
M  V30 2814 H 277.899 2.87167 -0.811031 0
M  V30 2815 C 276.648 3.35947 0.896369 0
M  V30 2816 H 275.971 3.98684 0.298548 0
M  V30 2817 H 277.411 4.02376 1.33676 0
M  V30 2818 C 275.87 2.70076 2.01396 0
M  V30 2819 O 276.4 2.55093 3.10307 0
M  V30 2820 N 274.606 2.28724 1.79259 0
M  V30 2821 H 274.153 2.4111 0.906841 0
M  V30 2822 H 274.111 1.84986 2.54219 0
M  V30 2823 N 277.883 0.443576 1.51229 0
M  V30 2824 C 279.16 -0.181038 1.9476 0
M  V30 2825 C 279.54 -1.59523 1.38259 0
M  V30 2826 O 278.888 -2.2122 0.572198 0
M  V30 2827 C 279.098 -0.152422 3.48667 0
M  V30 2828 C 280.446 -0.354923 4.23114 0
M  V30 2829 O 281.47 -0.230257 3.55455 0
M  V30 2830 O 280.329 -0.603674 5.43156 0
M  V30 2831 H 277.423 -0.1266 0.817252 0
M  V30 2832 H 279.969 0.502004 1.62105 0
M  V30 2833 H 278.741 0.836022 3.82265 0
M  V30 2834 H 278.364 -0.878107 3.87782 0
M  V30 2835 N 279.361 -1.56624 0.175154 0
M  V30 2836 C 280.609 -1.96609 -0.467885 0
M  V30 2837 C 280.93 -1.06238 -1.63519 0
M  V30 2838 O 280.2 -0.129523 -1.95471 0
M  V30 2839 H 278.78 -0.726008 -0.175845 0
M  V30 2840 H 281.442 -1.93195 0.257234 0
M  V30 2841 H 280.538 -3.00989 -0.825342 0
M  V30 2842 N 280.839 0.0985539 -1.57292 0
M  V30 2843 C 281.802 1.10402 -2.00858 0
M  V30 2844 C 282.802 1.33146 -0.901593 0
M  V30 2845 O 283.992 1.29318 -1.16716 0
M  V30 2846 C 281.124 2.45394 -2.36632 0
M  V30 2847 H 282.317 0.729099 -2.90902 0
M  V30 2848 H 279.87 0.343495 -1.52479 0
M  V30 2849 H 280.605 2.87769 -1.49531 0
M  V30 2850 H 280.39 2.30235 -3.17387 0
M  V30 2851 H 281.88 3.17718 -2.71007 0
M  V30 2852 N 282.317 1.53212 0.369288 0
M  V30 2853 C 283.545 1.73119 1.13303 0
M  V30 2854 C 283.96 0.458455 1.83149 0
M  V30 2855 O 283.317 -0.568403 1.73423 0
M  V30 2856 C 283.368 2.89413 2.16616 0
M  V30 2857 O 283.089 4.11761 1.49614 0
M  V30 2858 C 284.59 3.21161 3.05566 0
M  V30 2859 H 281.81 0.579107 0.338934 0
M  V30 2860 H 284.354 1.99942 0.429338 0
M  V30 2861 H 282.509 2.64994 2.82589 0
M  V30 2862 H 282.923 4.76858 2.18419 0
M  V30 2863 H 284.397 4.05949 3.74045 0
M  V30 2864 H 284.874 2.36369 3.70171 0
M  V30 2865 H 285.48 3.47492 2.45213 0
M  V30 2866 N 283.795 -0.628877 1.44509 0
M  V30 2867 C 285.023 -1.41554 1.50897 0
M  V30 2868 C 285.438 -1.8832 0.134564 0
M  V30 2869 O 284.795 -1.60969 -0.859965 0
M  V30 2870 C 284.846 -2.63435 2.47556 0
M  V30 2871 O 284.567 -2.18619 3.79654 0
M  V30 2872 C 286.068 -3.56537 2.63431 0
M  V30 2873 H 283.288 -0.434044 0.511709 0
M  V30 2874 H 285.832 -0.768895 1.89495 0
M  V30 2875 H 283.987 -3.24187 2.12089 0
M  V30 2876 H 284.401 -2.97652 4.31861 0
M  V30 2877 H 285.875 -4.38657 3.35088 0
M  V30 2878 H 286.352 -4.05493 1.68738 0
M  V30 2879 H 286.958 -3.01653 2.9981 0
M  V30 2880 N 285.273 -1.31445 -0.869486 0
M  V30 2881 C 286.221 -1.19067 -1.99814 0
M  V30 2882 C 287.215 -0.0988569 -1.69111 0
M  V30 2883 O 288.421 -0.260781 -1.78101 0
M  V30 2884 H 284.796 -0.368677 -0.655425 0
M  V30 2885 H 286.767 -2.14555 -2.07385 0
M  V30 2886 C 285.516 -0.915323 -3.35436 0
M  V30 2887 H 284.839 -1.74759 -3.59582 0
M  V30 2888 H 286.279 -0.868895 -4.15001 0
M  V30 2889 C 284.738 0.381928 -3.34728 0
M  V30 2890 O 285.268 1.39857 -3.76567 0
M  V30 2891 N 283.474 0.398633 -2.87853 0
M  V30 2892 H 283.021 -0.429186 -2.54 0
M  V30 2893 H 282.979 1.26651 -2.87762 0
M  V30 2894 N 286.751 1.08385 -1.14413 0
M  V30 2895 C 287.999 1.80419 -0.910679 0
M  V30 2896 C 288.32 1.86658 0.564243 0
M  V30 2897 O 287.59 1.35985 1.41014 0
M  V30 2898 H 286.17 0.668204 -0.333934 0
M  V30 2899 H 288.832 1.31037 -1.44275 0
M  V30 2900 H 287.928 2.83238 -1.31082 0
M  V30 2901 N 288.23 0.939286 1.26551 0
M  V30 2902 C 289.16 0.465044 2.28822 0
M  V30 2903 C 290.141 -0.480692 1.63167 0
M  V30 2904 O 291.326 -0.382955 1.90387 0
M  V30 2905 C 288.456 -0.27234 3.46231 0
M  V30 2906 C 287.41 0.58666 4.2396 0
M  V30 2907 C 286.736 -0.280573 5.33963 0
M  V30 2908 C 288.036 1.85704 4.88171 0
M  V30 2909 H 289.73 1.31979 2.68741 0
M  V30 2910 H 287.276 0.636061 1.29191 0
M  V30 2911 H 289.229 -0.615133 4.16886 0
M  V30 2912 H 287.953 -1.16121 3.0526 0
M  V30 2913 H 286.612 0.91232 3.55067 0
M  V30 2914 H 286.26 -1.16874 4.89234 0
M  V30 2915 H 285.96 0.29076 5.8688 0
M  V30 2916 H 287.484 -0.618678 6.07458 0
M  V30 2917 H 288.898 1.58161 5.51052 0
M  V30 2918 H 287.295 2.37279 5.51197 0
M  V30 2919 H 288.365 2.56957 4.11219 0
M  V30 2920 N 289.708 -1.40897 0.706093 0
M  V30 2921 C 290.671 -2.29131 0.0562841 0
M  V30 2922 C 291.671 -1.44901 -0.697166 0
M  V30 2923 O 292.861 -1.65926 -0.530484 0
M  V30 2924 C 289.993 -3.27957 -0.93043 0
M  V30 2925 H 291.186 -2.88091 0.833284 0
M  V30 2926 H 288.739 -1.4906 0.470192 0
M  V30 2927 H 289.474 -2.73997 -1.73482 0
M  V30 2928 H 289.259 -3.90124 -0.393166 0
M  V30 2929 H 290.749 -3.94049 -1.38256 0
M  V30 2930 N 291.186 -0.45159 -1.50991 0
M  V30 2931 C 292.432 0.110237 -2.025 0
M  V30 2932 C 292.765 1.41109 -1.33424 0
M  V30 2933 O 292.04 1.89135 -0.453659 0
M  V30 2934 C 292.323 0.314271 -3.58726 0
M  V30 2935 C 292.176 -1.00623 -4.38401 0
M  V30 2936 C 293.495 1.07767 -4.26702 0
M  V30 2937 H 290.614 0.0385897 -0.735989 0
M  V30 2938 H 293.256 -0.593374 -1.80497 0
M  V30 2939 H 291.406 0.913601 -3.77605 0
M  V30 2940 H 293.078 -1.64064 -4.31139 0
M  V30 2941 H 291.321 -1.6075 -4.02917 0
M  V30 2942 H 291.992 -0.817341 -5.45915 0
M  V30 2943 H 294.468 0.56986 -4.12179 0
M  V30 2944 H 293.344 1.18921 -5.35863 0
M  V30 2945 H 293.605 2.10939 -3.88532 0
M  V30 2946 N 292.664 1.56529 -0.183458 0
M  V30 2947 C 293.892 2.01623 0.464285 0
M  V30 2948 C 294.307 1.06366 1.55986 0
M  V30 2949 O 293.664 0.0665398 1.82379 0
M  V30 2950 C 293.715 3.46475 1.03139 0
M  V30 2951 O 293.436 4.38095 -0.0204675 0
M  V30 2952 C 294.937 4.0703 1.75617 0
M  V30 2953 H 292.157 0.660596 0.117704 0
M  V30 2954 H 294.701 2.02451 -0.288751 0
M  V30 2955 H 292.856 3.46383 1.73486 0
M  V30 2956 H 293.27 5.22973 0.399952 0
M  V30 2957 H 294.744 5.10271 2.10542 0
M  V30 2958 H 295.221 3.49819 2.65563 0
M  V30 2959 H 295.827 4.1086 1.09882 0
M  V30 2960 N 294.142 -0.090211 1.57342 0
M  V30 2961 C 295.39 -0.791241 1.85967 0
M  V30 2962 C 295.711 -1.7903 0.772859 0
M  V30 2963 O 294.981 -1.94872 -0.200398 0
M  V30 2964 H 293.561 -0.295205 0.686195 0
M  V30 2965 H 296.223 -0.0706782 1.94772 0
M  V30 2966 H 295.319 -1.31882 2.82867 0
M  V30 2967 N 295.62 -1.53406 -0.361157 0
M  V30 2968 C 296.848 -1.73717 -1.12383 0
M  V30 2969 C 297.263 -0.468161 -1.82904 0
M  V30 2970 O 296.62 0.559198 -1.73722 0
M  V30 2971 C 296.671 -2.90558 -2.15078 0
M  V30 2972 O 296.392 -4.12549 -1.47428 0
M  V30 2973 C 297.893 -3.22777 -3.03858 0
M  V30 2974 H 295.113 -0.580896 -0.335858 0
M  V30 2975 H 297.657 -2.00167 -0.418728 0
M  V30 2976 H 295.812 -2.66489 -2.8118 0
M  V30 2977 H 296.226 -4.78009 -2.15887 0
M  V30 2978 H 297.7 -4.07927 -3.71887 0
M  V30 2979 H 298.177 -2.38329 -3.68912 0
M  V30 2980 H 298.783 -3.48787 -2.43367 0
M  V30 2981 N 297.098 0.621204 -1.44841 0
M  V30 2982 C 298.028 1.74366 -1.55303 0
M  V30 2983 C 299.009 1.65199 -0.405385 0
M  V30 2984 O 300.194 1.83807 -0.626787 0
M  V30 2985 C 297.324 3.12931 -1.50637 0
M  V30 2986 C 296.278 3.36896 -2.63979 0
M  V30 2987 C 295.604 4.75594 -2.44366 0
M  V30 2988 C 296.904 3.28483 -4.06074 0
M  V30 2989 H 298.598 1.65867 -2.49256 0
M  V30 2990 H 296.144 0.796558 -1.19962 0
M  V30 2991 H 298.097 3.9124 -1.56555 0
M  V30 2992 H 296.821 3.22237 -0.532057 0
M  V30 2993 H 295.48 2.60972 -2.57467 0
M  V30 2994 H 295.128 4.81616 -1.45105 0
M  V30 2995 H 294.828 4.92586 -3.20364 0
M  V30 2996 H 296.352 5.5612 -2.52117 0
M  V30 2997 H 297.766 3.96684 -4.13902 0
M  V30 2998 H 296.163 3.57008 -4.82354 0
M  V30 2999 H 297.233 2.26133 -4.28943 0
M  V30 3000 N 298.576 1.31904 0.862503 0
M  V30 3001 C 299.822 1.22197 1.61851 0
M  V30 3002 C 300.155 -0.217641 1.92977 0
M  V30 3003 O 299.43 -1.15264 1.56666 0
M  V30 3004 C 299.713 2.07378 2.94391 0
M  V30 3005 C 299.566 3.59678 2.70096 0
M  V30 3006 C 300.885 1.92891 3.95577 0
M  V30 3007 H 298.004 0.445255 0.587296 0
M  V30 3008 H 300.646 1.6177 0.99651 0
M  V30 3009 H 298.796 1.73758 3.47477 0
M  V30 3010 H 300.468 4.03472 2.23625 0
M  V30 3011 H 298.711 3.82735 2.04197 0
M  V30 3012 H 299.382 4.14595 3.64438 0
M  V30 3013 H 301.858 2.22327 3.51724 0
M  V30 3014 H 300.734 2.54781 4.86187 0
M  V30 3015 H 300.995 0.894315 4.3296 0
M  V30 3016 N 300.054 -1.07777 1.14986 0
M  V30 3017 C 300.984 -2.16865 0.865557 0
M  V30 3018 C 301.965 -1.69123 -0.182083 0
M  V30 3019 O 303.15 -1.94164 -0.0373815 0
M  V30 3020 C 300.28 -3.45539 0.349313 0
M  V30 3021 C 299.234 -4.06708 1.33313 0
M  V30 3022 C 298.56 -5.30411 0.675918 0
M  V30 3023 C 299.86 -4.47241 2.69764 0
M  V30 3024 H 301.554 -2.40905 1.77778 0
M  V30 3025 H 299.1 -1.15781 0.856203 0
M  V30 3026 H 301.053 -4.21174 0.137983 0
M  V30 3027 H 299.777 -3.21072 -0.598362 0
M  V30 3028 H 298.436 -3.33112 1.53075 0
M  V30 3029 H 298.084 -5.02232 -0.277767 0
M  V30 3030 H 297.784 -5.72293 1.33244 0
M  V30 3031 H 299.308 -6.08755 0.474262 0
M  V30 3032 H 300.722 -5.14025 2.53873 0
M  V30 3033 H 299.119 -5.00062 3.3175 0
M  V30 3034 H 300.189 -3.58818 3.26156 0
M  V30 3035 N 301.532 -0.945985 -1.26051 0
M  V30 3036 C 302.442 -0.465633 -2.29933 0
M  V30 3037 C 303.458 0.462761 -1.67733 0
M  V30 3038 O 304.634 0.341118 -1.9849 0
M  V30 3039 C 301.699 0.256994 -3.45746 0
M  V30 3040 C 300.76 -0.708549 -4.23412 0
M  V30 3041 C 299.993 -0.0203135 -5.33696 0
M  V30 3042 O 300.216 1.19571 -5.57726 0
M  V30 3043 O 299.15 -0.701459 -5.97799 0
M  V30 3044 H 302.976 -1.32866 -2.73094 0
M  V30 3045 H 300.561 -0.712071 -1.31339 0
M  V30 3046 H 302.443 0.663852 -4.16138 0
M  V30 3047 H 301.118 1.09533 -3.04605 0
M  V30 3048 H 300.025 -1.16545 -3.55483 0
M  V30 3049 H 301.358 -1.51465 -4.68315 0
M  V30 3050 N 303.011 1.40521 -0.713556 0
M  V30 3051 C 304.257 2.01714 -0.261382 0
M  V30 3052 C 304.612 1.55562 1.13217 0
M  V30 3053 O 303.905 0.764893 1.7567 0
M  V30 3054 C 304.099 3.56317 -0.278 0
M  V30 3055 C 303.928 4.17476 -1.67163 0
M  V30 3056 C 302.698 4.50998 -2.2788 0
M  V30 3057 C 304.896 4.42472 -2.6215 0
M  V30 3058 N 302.878 4.9754 -3.5962 0
M  V30 3059 C 304.249 4.90985 -3.78594 0
M  V30 3060 C 306.304 4.24508 -2.60188 0
M  V30 3061 C 305.007 5.2342 -4.9338 0
M  V30 3062 C 307.033 4.58043 -3.741 0
M  V30 3063 C 306.395 5.06743 -4.89276 0
M  V30 3064 H 302.494 0.769104 -0.141434 0
M  V30 3065 H 305.078 1.70785 -0.934915 0
M  V30 3066 H 303.249 3.8668 0.36509 0
M  V30 3067 H 304.981 4.0425 0.190695 0
M  V30 3068 H 301.736 4.38062 -1.79997 0
M  V30 3069 H 302.16 5.25196 -4.27198 0
M  V30 3070 H 306.802 3.86078 -1.72348 0
M  V30 3071 H 304.52 5.60765 -5.81866 0
M  V30 3072 H 308.106 4.45785 -3.73854 0
M  V30 3073 H 306.986 5.32204 -5.75959 0
M  V30 3074 N 304.489 0.459591 1.5075 0
M  V30 3075 C 305.717 -0.0973749 2.06671 0
M  V30 3076 C 306.132 -1.34524 1.32472 0
M  V30 3077 O 305.489 -1.7827 0.390634 0
M  V30 3078 C 305.54 -0.39714 3.59312 0
M  V30 3079 O 305.261 0.801214 4.30711 0
M  V30 3080 C 306.762 -1.00234 4.31819 0
M  V30 3081 H 303.982 0.00195854 0.670997 0
M  V30 3082 H 306.526 0.645072 1.94059 0
M  V30 3083 H 304.681 -1.08951 3.71764 0
M  V30 3084 H 305.095 0.538857 5.21725 0
M  V30 3085 H 306.569 -1.16193 5.39632 0
M  V30 3086 H 307.046 -1.98939 3.91561 0
M  V30 3087 H 307.652 -0.348699 4.23868 0
M  V30 3088 N 305.967 -1.56429 0.191757 0
M  V30 3089 C 307.383 -1.58754 -0.164137 0
M  V30 3090 C 307.583 -1.20782 -1.61288 0
M  V30 3091 O 306.639 -0.928999 -2.34789 0
M  V30 3092 C 307.952 -3.00396 0.135195 0
M  V30 3093 C 309.5 -3.1291 0.0750351 0
M  V30 3094 C 309.975 -4.56679 0.347632 0
M  V30 3095 N 311.466 -4.62252 0.296131 0
M  V30 3096 C 312.201 -5.71379 0.480948 0
M  V30 3097 N 311.697 -6.88986 0.725933 0
M  V30 3098 N 313.49 -5.60563 0.415435 0
M  V30 3099 H 305.641 -1.79393 1.13718 0
M  V30 3100 H 307.904 -0.832414 0.453643 0
M  V30 3101 H 307.61 -3.32726 1.13958 0
M  V30 3102 H 307.484 -3.72963 -0.563773 0
M  V30 3103 H 309.871 -2.80394 -0.919948 0
M  V30 3104 H 309.952 -2.42736 0.807029 0
M  V30 3105 H 309.596 -4.89907 1.33992 0
M  V30 3106 H 309.526 -5.25039 -0.405212 0
M  V30 3107 H 312.017 -3.7773 0.113259 0
M  V30 3108 H 312.33 -7.68046 0.855857 0
M  V30 3109 H 310.675 -6.90801 0.762788 0
M  V30 3110 H 313.866 -4.67561 0.224486 0
M  V30 3111 H 314.039 -6.45551 0.562889 0
M  V30 3112 N 307.445 0.0818655 -1.57387 0
M  V30 3113 C 308.375 1.09885 -2.06028 0
M  V30 3114 C 309.356 1.4098 -0.951774 0
M  V30 3115 O 310.541 1.50781 -1.22387 0
M  V30 3116 C 307.671 2.4151 -2.4958 0
M  V30 3117 C 306.625 2.24792 -3.64215 0
M  V30 3118 C 305.951 3.61712 -3.93787 0
M  V30 3119 C 307.251 1.67749 -4.94629 0
M  V30 3120 H 308.945 0.694128 -2.91243 0
M  V30 3121 H 306.491 0.332448 -1.4011 0
M  V30 3122 H 308.444 3.12939 -2.82219 0
M  V30 3123 H 307.168 2.83943 -1.61381 0
M  V30 3124 H 305.827 1.55807 -3.31843 0
M  V30 3125 H 305.475 4.01697 -3.02735 0
M  V30 3126 H 305.175 3.51368 -4.70971 0
M  V30 3127 H 306.699 4.34587 -4.28913 0
M  V30 3128 H 308.113 2.29032 -5.25564 0
M  V30 3129 H 306.51 1.68128 -5.76067 0
M  V30 3130 H 307.58 0.638059 -4.80684 0
M  V30 3131 N 308.923 1.53595 0.353017 0
M  V30 3132 C 310.148 1.7462 1.11904 0
M  V30 3133 C 310.573 0.479721 1.8188 0
M  V30 3134 O 309.931 -0.567066 1.72204 0
M  V30 3135 C 309.979 2.92029 2.11545 0
M  V30 3136 O 309.083 2.61516 3.18878 0
M  V30 3137 H 308.424 0.579531 0.324099 0
M  V30 3138 H 310.954 2.00525 0.406301 0
M  V30 3139 H 310.964 3.18551 2.5493 0
M  V30 3140 H 309.639 3.83888 1.60008 0
M  V30 3141 H 308.216 2.45852 2.80377 0
M  V30 3142 N 310.401 -0.613514 1.45168 0
M  V30 3143 C 311.678 -1.37263 1.39349 0
M  V30 3144 C 312.058 -2.11012 0.0610848 0
M  V30 3145 O 311.406 -2.07502 -0.956825 0
M  V30 3146 C 311.616 -2.3244 2.60332 0
M  V30 3147 C 312.964 -2.9523 3.05163 0
M  V30 3148 O 313.988 -2.42762 2.60663 0
M  V30 3149 O 312.847 -3.90454 3.82372 0
M  V30 3150 H 309.941 -0.615188 0.552696 0
M  V30 3151 H 312.487 -0.637097 1.57287 0
M  V30 3152 H 311.259 -1.77164 3.48896 0
M  V30 3153 H 310.882 -3.13383 2.44698 0
M  V30 3154 N 311.879 -1.3236 -0.855495 0
M  V30 3155 C 312.809 -1.23833 -1.97958 0
M  V30 3156 C 313.79 -0.122361 -1.69659 0
M  V30 3157 O 314.975 -0.30939 -1.9172 0
M  V30 3158 C 312.105 -0.959772 -3.33775 0
M  V30 3159 C 311.059 -2.03689 -3.76424 0
M  V30 3160 C 310.385 -1.61075 -5.09862 0
M  V30 3161 C 311.685 -3.4518 -3.9198 0
M  V30 3162 H 313.379 -2.1788 -2.0535 0
M  V30 3163 H 310.925 -1.04891 -0.986605 0
M  V30 3164 H 312.878 -0.886678 -4.11966 0
M  V30 3165 H 311.602 0.0163404 -3.26596 0
M  V30 3166 H 310.261 -2.10012 -3.00484 0
M  V30 3167 H 309.909 -0.622107 -4.99138 0
M  V30 3168 H 309.609 -2.33143 -5.39368 0
M  V30 3169 H 311.133 -1.55201 -5.90546 0
M  V30 3170 H 312.547 -3.4145 -4.60526 0
M  V30 3171 H 310.944 -4.1559 -4.32903 0
M  V30 3172 H 312.014 -3.84903 -2.94919 0
M  V30 3173 N 313.357 1.07166 -1.15556 0
M  V30 3174 C 314.585 1.83514 -0.955519 0
M  V30 3175 C 315 1.82163 0.49621 0
M  V30 3176 O 314.357 1.23441 1.34419 0
M  V30 3177 C 314.408 3.30515 -1.46432 0
M  V30 3178 O 314.129 3.31937 -2.85918 0
M  V30 3179 C 315.63 4.23625 -1.30603 0
M  V30 3180 H 312.85 0.578926 -0.339244 0
M  V30 3181 H 315.394 1.35265 -1.53374 0
M  V30 3182 H 313.549 3.76106 -0.928584 0
M  V30 3183 H 313.963 4.23794 -3.09029 0
M  V30 3184 H 315.437 5.24831 -1.71047 0
M  V30 3185 H 315.914 4.38485 -0.250441 0
M  V30 3186 H 316.52 3.83871 -1.83094 0
M  V30 3187 N 314.835 0.952656 1.25548 0
M  V30 3188 C 316.083 0.605176 1.92826 0
M  V30 3189 C 316.404 -0.860261 1.74999 0
M  V30 3190 O 315.674 -1.6125 1.11244 0
M  V30 3191 H 314.254 0.220832 0.713612 0
M  V30 3192 H 316.916 1.21047 1.52754 0
M  V30 3193 H 316.012 0.832798 3.00784 0
M  V30 3194 N 316.313 -1.40141 0.720998 0
M  V30 3195 C 317.59 -1.94677 0.189757 0
M  V30 3196 C 317.97 -1.65879 -1.30566 0
M  V30 3197 O 317.318 -0.979391 -2.06447 0
M  V30 3198 C 317.528 -3.45279 0.508304 0
M  V30 3199 C 318.876 -4.22209 0.449934 0
M  V30 3200 O 319.9 -3.53413 0.444677 0
M  V30 3201 O 318.759 -5.44788 0.432189 0
M  V30 3202 H 315.853 -0.826459 0.0299026 0
M  V30 3203 H 318.399 -1.49719 0.7989 0
M  V30 3204 H 317.171 -3.59619 1.54239 0
M  V30 3205 H 316.794 -3.97386 -0.130525 0
M  V30 3206 N 317.792 -0.46758 -1.50504 0
M  V30 3207 C 318.702 0.33382 -2.32213 0
M  V30 3208 C 319.718 0.999323 -1.42441 0
M  V30 3209 O 320.894 0.988068 -1.75497 0
M  V30 3210 C 317.959 1.4035 -3.17022 0
M  V30 3211 C 317.02 0.754961 -4.2261 0
M  V30 3212 C 316.253 1.77367 -5.03365 0
M  V30 3213 O 316.476 2.99976 -4.8515 0
M  V30 3214 O 315.41 1.34744 -5.86624 0
M  V30 3215 H 319.236 -0.334067 -3.01857 0
M  V30 3216 H 316.821 -0.229496 -1.47627 0
M  V30 3217 H 318.703 2.02318 -3.69656 0
M  V30 3218 H 317.378 2.05492 -2.5011 0
M  V30 3219 H 316.285 0.0964244 -3.73976 0
M  V30 3220 H 317.618 0.146545 -4.91982 0
M  V30 3221 N 319.27 1.56325 -0.20005 0
M  V30 3222 C 320.18 2.22931 0.730668 0
M  V30 3223 C 321.196 1.22997 1.23076 0
M  V30 3224 O 322.372 1.55748 1.27689 0
M  V30 3225 C 319.437 2.87948 1.93098 0
M  V30 3226 C 318.498 4.03166 1.47497 0
M  V30 3227 C 317.731 4.65073 2.61807 0
M  V30 3228 O 317.954 4.25913 3.79413 0
M  V30 3229 O 316.888 5.54452 2.34237 0
M  V30 3230 H 320.714 3.03084 0.193391 0
M  V30 3231 H 318.299 1.49371 0.0294621 0
M  V30 3232 H 320.181 3.29063 2.6324 0
M  V30 3233 H 318.856 2.10771 2.45677 0
M  V30 3234 H 317.763 3.66664 0.742201 0
M  V30 3235 H 319.096 4.82022 0.995796 0
M  V30 3236 N 320.748 -0.0735177 1.57428 0
M  V30 3237 C 321.978 -0.78483 1.91112 0
M  V30 3238 C 322.386 -1.71729 0.7941 0
M  V30 3239 O 321.729 -1.82105 -0.241542 0
M  V30 3240 C 321.791 -1.63346 3.20247 0
M  V30 3241 C 321.455 -0.870557 4.48632 0
M  V30 3242 C 322.452 -0.19058 5.19551 0
M  V30 3243 C 320.137 -0.838242 4.95256 0
M  V30 3244 C 322.131 0.511503 6.35344 0
M  V30 3245 C 319.818 -0.132386 6.10957 0
M  V30 3246 C 320.816 0.541288 6.80852 0
M  V30 3247 O 320.504 1.23578 7.94345 0
M  V30 3248 H 320.236 -0.228408 0.636244 0
M  V30 3249 H 322.79 -0.0486039 2.05342 0
M  V30 3250 H 321.02 -2.41245 3.02222 0
M  V30 3251 H 322.709 -2.22329 3.39595 0
M  V30 3252 H 323.475 -0.206864 4.84559 0
M  V30 3253 H 319.354 -1.35206 4.40727 0
M  V30 3254 H 322.898 1.03789 6.89836 0
M  V30 3255 H 318.795 -0.114023 6.45399 0
M  V30 3256 H 319.563 1.14487 8.10454 0
M  V30 3257 N 322.226 -1.5378 -0.344866 0
M  V30 3258 C 323.189 -1.80981 -1.40637 0
M  V30 3259 C 324.189 -0.680816 -1.45676 0
M  V30 3260 O 325.379 -0.949095 -1.46075 0
M  V30 3261 C 322.511 -1.95063 -2.79577 0
M  V30 3262 H 323.704 -2.75803 -1.17783 0
M  V30 3263 H 321.257 -1.45173 -0.579181 0
M  V30 3264 H 321.992 -1.02379 -3.07716 0
M  V30 3265 H 321.777 -2.77198 -2.77315 0
M  V30 3266 H 323.267 -2.17629 -3.56409 0
M  V30 3267 N 323.704 0.605807 -1.45491 0
M  V30 3268 C 324.651 1.7164 -1.54299 0
M  V30 3269 C 325.621 1.61486 -0.388761 0
M  V30 3270 O 326.806 1.81039 -0.602445 0
M  V30 3271 C 323.946 3.09953 -1.51734 0
M  V30 3272 C 323.059 3.309 -2.77721 0
M  V30 3273 C 322.194 4.59329 -2.66816 0
M  V30 3274 C 321.233 4.7354 -3.87848 0
M  V30 3275 N 320.37 5.9327 -3.75467 0
M  V30 3276 H 325.21 1.63449 -2.49176 0
M  V30 3277 H 322.747 0.796957 -1.23641 0
M  V30 3278 H 324.705 3.89977 -1.48235 0
M  V30 3279 H 323.335 3.17098 -0.604068 0
M  V30 3280 H 322.387 2.44639 -2.913 0
M  V30 3281 H 323.699 3.37274 -3.67488 0
M  V30 3282 H 322.853 5.4755 -2.61292 0
M  V30 3283 H 321.592 4.55355 -1.74651 0
M  V30 3284 H 320.597 3.83741 -3.93729 0
M  V30 3285 H 321.822 4.79309 -4.81082 0
M  V30 3286 H 319.768 5.90338 -2.86072 0
M  V30 3287 H 319.685 6.00811 -4.5887 0
M  V30 3288 H 320.953 6.83984 -3.73879 0
M  V30 3289 N 325.182 1.32811 0.848464 0
M  V30 3290 C 326.112 1.24882 1.97299 0
M  V30 3291 C 327.093 0.131357 1.69592 0
M  V30 3292 O 328.278 0.319553 1.91553 0
M  V30 3293 C 325.408 0.97746 3.33261 0
M  V30 3294 C 324.362 2.05682 3.75338 0
M  V30 3295 C 323.688 1.63777 5.09 0
M  V30 3296 C 324.988 3.47254 3.90144 0
M  V30 3297 H 326.682 2.18966 2.04191 0
M  V30 3298 H 324.228 1.05413 0.981029 0
M  V30 3299 H 326.181 0.908513 4.1149 0
M  V30 3300 H 324.905 0.000980011 3.266 0
M  V30 3301 H 323.564 2.11603 2.99366 0
M  V30 3302 H 323.212 0.648569 4.98801 0
M  V30 3303 H 322.912 2.36 5.38124 0
M  V30 3304 H 324.436 1.5833 5.89715 0
M  V30 3305 H 325.85 3.43888 4.58709 0
M  V30 3306 H 324.247 4.1788 4.30693 0
M  V30 3307 H 325.317 3.86462 2.92874 0
M  V30 3308 N 326.66 -1.06551 1.16123 0
M  V30 3309 C 327.885 -1.83544 0.965735 0
M  V30 3310 C 328.31 -1.81843 -0.481102 0
M  V30 3311 O 327.668 -1.21732 -1.34354 0
M  V30 3312 C 327.716 -3.28169 1.49457 0
M  V30 3313 O 326.82 -4.0643 0.699157 0
M  V30 3314 H 326.161 -0.568026 0.343864 0
M  V30 3315 H 328.691 -1.34362 1.54299 0
M  V30 3316 H 328.701 -3.78992 1.51092 0
M  V30 3317 H 327.376 -3.28722 2.54784 0
M  V30 3318 H 325.953 -3.65216 0.7531 0
M  V30 3319 N 328.138 -0.959301 -1.25041 0
M  V30 3320 C 329.07 -0.440543 -2.24926 0
M  V30 3321 C 330.083 0.446131 -1.56568 0
M  V30 3322 O 331.272 0.253657 -1.76689 0
M  V30 3323 C 328.372 0.38412 -3.36716 0
M  V30 3324 C 327.545 -0.490658 -4.34639 0
M  V30 3325 C 326.604 0.276587 -5.25473 0
M  V30 3326 O 325.63 -0.326614 -5.68262 0
M  V30 3327 N 326.832 1.56844 -5.5891 0
M  V30 3328 H 329.597 -1.29931 -2.70071 0
M  V30 3329 H 327.158 -0.830181 -1.38995 0
M  V30 3330 H 329.15 0.905228 -3.94446 0
M  V30 3331 H 327.72 1.14377 -2.90924 0
M  V30 3332 H 326.94 -1.19282 -3.7572 0
M  V30 3333 H 328.228 -1.08756 -4.97041 0
M  V30 3334 H 327.626 2.08036 -5.26059 0
M  V30 3335 H 326.183 2.03541 -6.19205 0
M  V30 3336 N 329.616 1.39756 -0.72842 0
M  V30 3337 C 330.563 2.30647 -0.0841519 0
M  V30 3338 C 331.533 1.48869 0.7367 0
M  V30 3339 O 332.718 1.77574 0.698015 0
M  V30 3340 C 329.858 3.35165 0.822091 0
M  V30 3341 C 328.971 4.31999 -0.0106663 0
M  V30 3342 C 328.106 5.23585 0.896241 0
M  V30 3343 C 327.145 6.12072 0.0583381 0
M  V30 3344 N 326.282 6.96035 0.920818 0
M  V30 3345 H 331.122 2.85173 -0.864891 0
M  V30 3346 H 328.659 1.40422 -0.438179 0
M  V30 3347 H 330.617 3.94345 1.36189 0
M  V30 3348 H 329.247 2.8211 1.56888 0
M  V30 3349 H 328.299 3.74492 -0.66781 0
M  V30 3350 H 329.611 4.9443 -0.658825 0
M  V30 3351 H 328.765 5.87759 1.50412 0
M  V30 3352 H 327.504 4.61459 1.57819 0
M  V30 3353 H 326.509 5.46916 -0.562389 0
M  V30 3354 H 327.734 6.76261 -0.6203 0
M  V30 3355 H 325.68 6.36485 1.58818 0
M  V30 3356 H 325.597 7.55284 0.32899 0
M  V30 3357 H 326.865 7.64646 1.51447 0
M  V30 3358 N 331.094 0.475555 1.50254 0
M  V30 3359 C 332.057 -0.305016 2.27161 0
M  V30 3360 C 333.057 -0.916519 1.32123 0
M  V30 3361 O 334.247 -0.785003 1.5551 0
M  V30 3362 C 331.379 -1.43496 3.09227 0
M  V30 3363 H 332.572 0.369511 2.97615 0
M  V30 3364 H 330.125 0.229747 1.54602 0
M  V30 3365 H 330.86 -2.14441 2.43281 0
M  V30 3366 H 330.645 -1.00223 3.79075 0
M  V30 3367 H 332.135 -1.98548 3.67381 0
M  V30 3368 N 332.573 -1.56217 0.208337 0
M  V30 3369 C 333.483 -2.23316 -0.718836 0
M  V30 3370 C 334.499 -1.23648 -1.22422 0
M  V30 3371 O 335.675 -1.56423 -1.26861 0
M  V30 3372 C 332.74 -2.88968 -1.91568 0
M  V30 3373 C 331.801 -4.03943 -1.45357 0
M  V30 3374 C 331.034 -4.66455 -2.59337 0
M  V30 3375 O 331.257 -4.27919 -3.77149 0
M  V30 3376 O 330.191 -5.55686 -2.31293 0
M  V30 3377 H 334.017 -3.03182 -0.177315 0
M  V30 3378 H 331.602 -1.49384 -0.0215402 0
M  V30 3379 H 333.484 -3.30455 -2.61491 0
M  V30 3380 H 332.159 -2.12071 -2.44556 0
M  V30 3381 H 331.066 -3.67052 -0.722746 0
M  V30 3382 H 332.399 -4.82543 -0.970219 0
M  V30 3383 N 334.051 0.0651679 -1.57465 0
M  V30 3384 C 335.276 0.779605 -1.9219 0
M  V30 3385 C 335.701 1.69988 -0.805333 0
M  V30 3386 O 335.059 1.79685 0.241435 0
M  V30 3387 C 335.107 1.54364 -3.2589 0
M  V30 3388 O 334.211 2.65474 -3.1559 0
M  V30 3389 H 333.552 0.212249 -0.629163 0
M  V30 3390 H 336.082 0.0314294 -2.04576 0
M  V30 3391 H 336.092 1.92146 -3.59922 0
M  V30 3392 H 334.767 0.868457 -4.06732 0
M  V30 3393 H 333.344 2.30501 -2.93128 0
M  V30 3394 N 335.529 1.53961 0.336706 0
M  V30 3395 C 336.759 1.75229 1.09446 0
M  V30 3396 C 337.167 0.494602 1.82621 0
M  V30 3397 O 336.51 -0.543764 1.75468 0
M  V30 3398 C 336.572 2.88288 2.1478 0
M  V30 3399 C 336.236 4.27656 1.6112 0
M  V30 3400 C 337.233 5.08981 1.0599 0
M  V30 3401 C 334.918 4.74161 1.6576 0
M  V30 3402 C 336.912 6.34916 0.562129 0
M  V30 3403 C 334.599 6.00067 1.15595 0
M  V30 3404 C 335.597 6.80278 0.609147 0
M  V30 3405 O 335.285 8.03818 0.114999 0
M  V30 3406 H 335.017 0.588881 0.331956 0
M  V30 3407 H 337.571 2.01614 0.392566 0
M  V30 3408 H 335.801 2.57443 2.88548 0
M  V30 3409 H 337.49 2.97461 2.76174 0
M  V30 3410 H 338.256 4.74213 1.01722 0
M  V30 3411 H 334.135 4.11781 2.07261 0
M  V30 3412 H 337.679 6.9747 0.134668 0
M  V30 3413 H 333.576 6.3433 1.19566 0
M  V30 3414 H 334.344 8.18172 0.231651 0
M  V30 3415 N 337.007 -0.598083 1.45811 0
M  V30 3416 C 337.937 -1.71873 1.58057 0
M  V30 3417 C 338.918 -1.64533 0.431615 0
M  V30 3418 O 340.103 -1.82787 0.65595 0
M  V30 3419 C 337.233 -3.10495 1.55597 0
M  V30 3420 C 336.187 -3.32654 2.69305 0
M  V30 3421 C 335.513 -4.71646 2.51902 0
M  V30 3422 C 336.813 -3.21981 4.11248 0
M  V30 3423 H 338.507 -1.61881 2.51863 0
M  V30 3424 H 336.053 -0.777372 1.21214 0
M  V30 3425 H 338.006 -3.88699 1.6276 0
M  V30 3426 H 336.73 -3.2135 0.583255 0
M  V30 3427 H 335.389 -2.56843 2.61586 0
M  V30 3428 H 335.037 -4.79246 1.52748 0
M  V30 3429 H 334.737 -4.87426 3.2816 0
M  V30 3430 H 336.261 -5.52038 2.60933 0
M  V30 3431 H 337.675 -3.90049 4.20161 0
M  V30 3432 H 336.072 -3.49289 4.87972 0
M  V30 3433 H 337.142 -2.1928 4.32486 0
M  V30 3434 N 338.485 -1.33259 -0.841409 0
M  V30 3435 C 339.415 -1.25926 -1.96634 0
M  V30 3436 C 340.396 -0.140349 -1.6952 0
M  V30 3437 O 341.581 -0.329707 -1.91381 0
M  V30 3438 C 338.711 -0.99512 -3.32738 0
M  V30 3439 C 337.665 -2.0767 -3.74242 0
M  V30 3440 C 336.991 -1.66474 -5.08125 0
M  V30 3441 C 338.291 -3.49318 -3.88297 0
M  V30 3442 H 339.985 -2.20046 -2.03027 0
M  V30 3443 H 337.531 -1.05931 -0.975425 0
M  V30 3444 H 339.484 -0.930323 -4.11002 0
M  V30 3445 H 338.208 -0.0183004 -3.26595 0
M  V30 3446 H 336.867 -2.13187 -2.98239 0
M  V30 3447 H 336.515 -0.675012 -4.9845 0
M  V30 3448 H 336.215 -2.3885 -5.36865 0
M  V30 3449 H 337.739 -1.61455 -5.88867 0
M  V30 3450 H 339.153 -3.46316 -4.56879 0
M  V30 3451 H 337.55 -4.20158 -4.28471 0
M  V30 3452 H 338.62 -3.8801 -2.9082 0
M  V30 3453 N 339.963 1.05934 -1.16686 0
M  V30 3454 C 340.91 2.13499 -0.876748 0
M  V30 3455 C 341.88 1.65162 0.176299 0
M  V30 3456 O 343.065 1.90757 0.0407143 0
M  V30 3457 C 340.205 3.42912 -0.387967 0
M  V30 3458 C 339.318 4.04964 -1.50426 0
M  V30 3459 C 338.453 5.22266 -0.970125 0
M  V30 3460 C 337.492 5.76309 -2.06238 0
M  V30 3461 N 336.629 6.84922 -1.54356 0
M  V30 3462 H 341.469 2.37654 -1.7979 0
M  V30 3463 H 339.006 1.16598 -0.896843 0
M  V30 3464 H 340.964 4.17111 -0.086186 0
M  V30 3465 H 339.594 3.18963 0.496235 0
M  V30 3466 H 338.646 3.28277 -1.92193 0
M  V30 3467 H 339.958 4.41122 -2.32836 0
M  V30 3468 H 339.112 6.03506 -0.621743 0
M  V30 3469 H 337.851 4.87564 -0.115377 0
M  V30 3470 H 336.856 4.93704 -2.41942 0
M  V30 3471 H 338.081 6.13062 -2.92115 0
M  V30 3472 H 336.027 6.52131 -0.711406 0
M  V30 3473 H 335.944 7.20043 -2.30379 0
M  V30 3474 H 337.212 7.69832 -1.22387 0
M  V30 3475 N 341.441 0.965919 1.2453 0
M  V30 3476 C 342.852 0.665929 1.7442 0
M  V30 3477 C 343.203 -0.818407 1.78316 0
M  V30 3478 O 342.328 -1.64037 1.41141 0
M  V30 3479 C 342.923 1.20211 3.16757 0
M  V30 3480 C 341.482 0.952059 3.6416 0
M  V30 3481 C 340.629 1.33848 2.42858 0
M  V30 3482 H 343.58 1.14144 1.10258 0
M  V30 3483 H 343.601 0.567544 3.76244 0
M  V30 3484 H 343.113 2.28244 3.13889 0
M  V30 3485 H 341.214 -0.112821 3.72429 0
M  V30 3486 H 341.327 1.59645 4.51719 0
M  V30 3487 H 339.691 0.756864 2.43195 0
M  V30 3488 H 340.474 2.42827 2.42673 0
M  V30 3489 N 342.919 -1.39368 0.735821 0
M  V30 3490 C 343.851 -2.2913 0.0567723 0
M  V30 3491 C 344.864 -1.46859 -0.702589 0
M  V30 3492 O 346.053 -1.69925 -0.546616 0
M  V30 3493 C 343.153 -3.25492 -0.943823 0
M  V30 3494 C 342.326 -4.36709 -0.24581 0
M  V30 3495 C 341.385 -5.13376 -1.15463 0
M  V30 3496 O 340.411 -5.65683 -0.631803 0
M  V30 3497 N 341.613 -5.24656 -2.48427 0
M  V30 3498 H 344.378 -2.88047 0.827582 0
M  V30 3499 H 341.939 -1.50957 0.585112 0
M  V30 3500 H 343.931 -3.73657 -1.55443 0
M  V30 3501 H 342.501 -2.676 -1.61583 0
M  V30 3502 H 341.721 -3.9041 0.545286 0
M  V30 3503 H 343.009 -5.08244 0.237891 0
M  V30 3504 H 342.407 -4.83679 -2.93379 0
M  V30 3505 H 340.964 -5.76258 -3.04582 0
M  V30 3506 N 344.397 -0.483516 -1.5 0
M  V30 3507 C 345.808 -0.0314176 -1.86674 0
M  V30 3508 C 346.159 1.37728 -1.39733 0
M  V30 3509 O 345.284 2.02327 -0.767635 0
M  V30 3510 C 345.879 -0.0502376 -3.38763 0
M  V30 3511 C 344.438 0.346442 -3.74802 0
M  V30 3512 C 343.585 -0.430366 -2.7394 0
M  V30 3513 H 346.536 -0.697182 -1.42566 0
M  V30 3514 H 346.557 0.749116 -3.73053 0
M  V30 3515 H 346.069 -1.07563 -3.72897 0
M  V30 3516 H 344.17 1.37572 -3.46273 0
M  V30 3517 H 344.283 0.0391486 -4.79084 0
M  V30 3518 H 342.647 0.117557 -2.54429 0
M  V30 3519 H 343.43 -1.4555 -3.10918 0
M  V30 3520 N 345.875 1.56104 -0.216619 0
M  V30 3521 C 347.1 2.0301 0.424462 0
M  V30 3522 C 347.525 1.0955 1.52907 0
M  V30 3523 O 346.883 0.0827914 1.81111 0
M  V30 3524 C 346.931 3.4819 0.937883 0
M  V30 3525 O 346.035 3.57865 2.04955 0
M  V30 3526 H 345.376 0.656925 0.0966755 0
M  V30 3527 H 347.906 2.01859 -0.33381 0
M  V30 3528 H 347.916 3.88413 1.24897 0
M  V30 3529 H 346.591 4.15699 0.129387 0
M  V30 3530 H 345.168 3.29527 1.74546 0
M  V30 3531 N 347.353 -0.0568162 1.57498 0
M  V30 3532 C 348.578 -0.769402 1.92601 0
M  V30 3533 C 349.003 -1.69559 0.814336 0
M  V30 3534 O 348.361 -1.79811 -0.231903 0
M  V30 3535 C 348.409 -1.52634 3.26704 0
M  V30 3536 O 347.513 -2.63797 3.16994 0
M  V30 3537 H 346.854 -0.208909 0.63028 0
M  V30 3538 H 349.384 -0.0205798 2.0459 0
M  V30 3539 H 349.394 -1.90234 3.60936 0
M  V30 3540 H 348.069 -0.846875 4.07186 0
M  V30 3541 H 346.646 -2.28943 2.94346 0
M  V30 3542 N 348.832 -1.54138 -0.328536 0
M  V30 3543 C 350.057 -1.76378 -1.09112 0
M  V30 3544 C 350.482 -0.508596 -1.81094 0
M  V30 3545 O 349.84 0.539598 -1.73084 0
M  V30 3546 C 349.888 -2.95358 -2.06872 0
M  V30 3547 O 348.992 -2.66556 -3.14677 0
M  V30 3548 H 348.333 -0.584614 -0.314838 0
M  V30 3549 H 350.863 -2.01146 -0.374348 0
M  V30 3550 H 350.873 -3.22566 -2.4983 0
M  V30 3551 H 349.548 -3.86385 -1.5388 0
M  V30 3552 H 348.125 -2.50282 -2.7643 0
M  V30 3553 N 350.31 0.590341 -1.46126 0
M  V30 3554 C 351.22 1.72793 -1.58681 0
M  V30 3555 C 352.236 1.67516 -0.470566 0
M  V30 3556 O 353.412 1.87562 -0.733642 0
M  V30 3557 C 350.477 3.09287 -1.5666 0
M  V30 3558 C 349.538 3.25886 -2.79458 0
M  V30 3559 C 348.771 4.55869 -2.77524 0
M  V30 3560 O 348.994 5.3928 -1.85832 0
M  V30 3561 O 347.928 4.75552 -3.68964 0
M  V30 3562 H 351.754 1.65149 -2.54872 0
M  V30 3563 H 349.339 0.756486 -1.28832 0
M  V30 3564 H 351.221 3.90577 -1.58202 0
M  V30 3565 H 349.896 3.17385 -0.636271 0
M  V30 3566 H 348.803 2.44119 -2.83472 0
M  V30 3567 H 350.136 3.22675 -3.71674 0
M  V30 3568 N 351.788 1.33704 0.83433 0
M  V30 3569 C 353.199 1.22813 1.4062 0
M  V30 3570 C 353.55 -0.151107 1.95617 0
M  V30 3571 O 352.675 -1.05092 1.89168 0
M  V30 3572 C 353.27 2.22355 2.55624 0
M  V30 3573 C 351.829 2.1529 3.08751 0
M  V30 3574 C 350.976 2.09589 1.8157 0
M  V30 3575 H 353.927 1.45236 0.639702 0
M  V30 3576 H 353.948 1.83391 3.33389 0
M  V30 3577 H 353.46 3.22728 2.15566 0
M  V30 3578 H 351.561 1.18235 3.53343 0
M  V30 3579 H 351.674 3.06038 3.68616 0
M  V30 3580 H 350.038 1.55134 2.02004 0
M  V30 3581 H 350.821 3.11777 1.43701 0
M  V30 3582 N 353.266 -1.05314 1.17247 0
M  V30 3583 C 354.513 -1.78293 0.960091 0
M  V30 3584 C 354.841 -1.87658 -0.51136 0
M  V30 3585 O 354.096 -1.3718 -1.39571 0
M  V30 3586 C 354.395 -3.2229 1.54479 0
M  V30 3587 C 354.061 -3.32987 3.04024 0
M  V30 3588 C 352.723 -3.35613 3.44844 0
M  V30 3589 C 355.075 -3.34102 4.00031 0
M  V30 3590 C 352.403 -3.36982 4.8027 0
M  V30 3591 C 354.755 -3.3701 5.35357 0
M  V30 3592 C 353.419 -3.37923 5.75642 0
M  V30 3593 H 352.689 -0.652422 0.351322 0
M  V30 3594 H 355.336 -1.23782 1.46117 0
M  V30 3595 H 353.641 -3.7972 0.965391 0
M  V30 3596 H 355.338 -3.77376 1.35603 0
M  V30 3597 H 351.928 -3.31655 2.71483 0
M  V30 3598 H 356.112 -3.31276 3.69554 0
M  V30 3599 H 351.368 -3.35999 5.10798 0
M  V30 3600 H 355.542 -3.36822 6.09528 0
M  V30 3601 H 353.169 -3.38738 6.80559 0
M  V30 3602 N 354.744 -0.972509 -1.24016 0
M  V30 3603 C 356.155 -0.67517 -1.74064 0
M  V30 3604 C 356.506 0.808939 -1.78747 0
M  V30 3605 O 355.631 1.63286 -1.42009 0
M  V30 3606 C 356.226 -1.21889 -3.16115 0
M  V30 3607 C 354.785 -0.971358 -3.6365 0
M  V30 3608 C 353.932 -1.35134 -2.42145 0
M  V30 3609 H 356.883 -1.14727 -1.09651 0
M  V30 3610 H 356.904 -0.587489 -3.75937 0
M  V30 3611 H 356.416 -2.29906 -3.12674 0
M  V30 3612 H 354.517 0.0930686 -3.72484 0
M  V30 3613 H 354.63 -1.62039 -4.50866 0
M  V30 3614 H 352.994 -0.769751 -2.4279 0
M  V30 3615 H 353.777 -2.4411 -2.41381 0
M  V30 3616 N 356.222 1.38976 -0.743202 0
M  V30 3617 C 357.47 1.99948 -0.29417 0
M  V30 3618 C 357.791 1.59279 1.12495 0
M  V30 3619 O 357.061 0.844808 1.76748 0
M  V30 3620 H 355.641 0.739473 -0.105774 0
M  V30 3621 H 358.303 1.699 -0.954986 0
M  V30 3622 H 357.399 3.10142 -0.349056 0
M  V30 3623 N 357.7 0.491464 1.49741 0
M  V30 3624 C 358.63 -0.28154 2.31796 0
M  V30 3625 C 359.611 -0.971473 1.3963 0
M  V30 3626 O 360.796 -0.964719 1.68543 0
M  V30 3627 C 357.926 -1.35203 3.19902 0
M  V30 3628 C 356.88 -0.782529 4.20786 0
M  V30 3629 C 356.206 -1.95283 4.97764 0
M  V30 3630 C 357.506 0.21999 5.21837 0
M  V30 3631 H 359.2 0.403355 2.96671 0
M  V30 3632 H 356.746 0.195425 1.42668 0
M  V30 3633 H 358.699 -1.90045 3.76113 0
M  V30 3634 H 357.423 -2.06598 2.52953 0
M  V30 3635 H 356.082 -0.255928 3.65706 0
M  V30 3636 H 355.73 -2.65423 4.2727 0
M  V30 3637 H 355.43 -1.57789 5.66018 0
M  V30 3638 H 356.954 -2.50577 5.56816 0
M  V30 3639 H 358.368 -0.23996 5.72798 0
M  V30 3640 H 356.765 0.51026 5.97927 0
M  V30 3641 H 357.835 1.13911 4.7133 0
M  V30 3642 N 359.178 -1.55987 0.224894 0
M  V30 3643 C 360.424 -1.98684 -0.406502 0
M  V30 3644 C 360.757 -1.11248 -1.59177 0
M  V30 3645 O 360.032 -0.170909 -1.93748 0
M  V30 3646 C 360.315 -3.50218 -0.837808 0
M  V30 3647 C 360.168 -4.48426 0.351332 0
M  V30 3648 C 361.487 -4.06243 -1.69278 0
M  V30 3649 H 358.606 -0.722337 -0.146283 0
M  V30 3650 H 361.248 -1.87255 0.321799 0
M  V30 3651 H 359.398 -3.60089 -1.45837 0
M  V30 3652 H 361.07 -4.50562 0.989526 0
M  V30 3653 H 359.313 -4.22159 0.998207 0
M  V30 3654 H 359.984 -5.52 0.00655905 0
M  V30 3655 H 362.46 -3.99337 -1.16914 0
M  V30 3656 H 361.336 -5.12581 -1.96346 0
M  V30 3657 H 361.597 -3.53332 -2.65723 0
M  V30 3658 N 360.656 0.0484629 -1.57525 0
M  V30 3659 C 361.904 0.741657 -1.88 0
M  V30 3660 C 362.225 1.76918 -0.820054 0
M  V30 3661 O 361.495 1.95335 0.148661 0
M  V30 3662 H 360.075 0.276908 -0.69378 0
M  V30 3663 H 362.737 0.019013 -1.94891 0
M  V30 3664 H 361.833 1.24336 -2.86264 0
M  V30 3665 N 362.134 1.5431 0.320358 0
M  V30 3666 C 363.359 1.76954 1.08175 0
M  V30 3667 C 363.784 0.518193 1.80821 0
M  V30 3668 O 363.142 -0.530411 1.73368 0
M  V30 3669 C 363.19 2.96451 2.05303 0
M  V30 3670 O 362.294 2.68221 3.13259 0
M  V30 3671 H 361.635 0.586275 0.311733 0
M  V30 3672 H 364.165 2.01342 0.363676 0
M  V30 3673 H 364.175 3.23887 2.48116 0
M  V30 3674 H 362.85 3.87196 1.51829 0
M  V30 3675 H 361.427 2.51744 2.75099 0
M  V30 3676 N 363.613 -0.582584 1.46437 0
M  V30 3677 C 364.838 -1.37168 1.55563 0
M  V30 3678 C 365.263 -1.87061 0.19743 0
M  V30 3679 O 364.621 -1.61572 -0.822451 0
M  V30 3680 C 364.669 -2.53511 2.56446 0
M  V30 3681 O 363.773 -3.54953 2.09958 0
M  V30 3682 H 363.114 -0.408494 0.523477 0
M  V30 3683 H 365.644 -0.706646 1.9201 0
M  V30 3684 H 365.654 -3.00426 2.76058 0
M  V30 3685 H 364.329 -2.16549 3.55076 0
M  V30 3686 H 362.906 -3.14516 2.00334 0
M  V30 3687 N 365.091 -1.34144 -0.827227 0
M  V30 3688 C 366.34 -1.25602 -1.5782 0
M  V30 3689 C 366.653 0.173445 -1.94829 0
M  V30 3690 O 367.859 0.380984 -2.68814 0
M  V30 3691 C 366.315 -2.20151 -2.84713 0
M  V30 3692 C 365.923 -3.68331 -2.55021 0
M  V30 3693 C 367.667 -2.20508 -3.62735 0
M  V30 3694 C 365.574 -4.54762 -3.78082 0
M  V30 3695 H 364.504 -0.466573 -0.592306 0
M  V30 3696 H 367.155 -1.59283 -0.911116 0
M  V30 3697 H 365.537 -1.79417 -3.53023 0
M  V30 3698 H 366.711 -4.17577 -1.94849 0
M  V30 3699 H 365.026 -3.7038 -1.90283 0
M  V30 3700 H 367.623 -2.82306 -4.54101 0
M  V30 3701 H 367.966 -1.20322 -3.98533 0
M  V30 3702 H 368.499 -2.59664 -3.01362 0
M  V30 3703 H 365.238 -5.55867 -3.47407 0
M  V30 3704 H 364.758 -4.10254 -4.37552 0
M  V30 3705 H 366.437 -4.69153 -4.45538 0
M  V30 3706 N 366.569 1.04691 -1.17803 0
M  V30 3707 C 367.517 2.14665 -0.895635 0
M  V30 3708 C 368.511 1.68806 0.141679 0
M  V30 3709 O 369.717 1.79999 -0.00587914 0
M  V30 3710 H 366.092 0.701038 -0.272121 0
M  V30 3711 H 368.063 2.35685 -1.83017 0
M  V30 3712 C 366.812 3.45019 -0.430962 0
M  V30 3713 H 366.135 3.8071 -1.22064 0
M  V30 3714 H 367.575 4.23125 -0.272301 0
M  V30 3715 C 366.034 3.25943 0.852207 0
M  V30 3716 O 366.564 3.5296 1.91786 0
M  V30 3717 N 364.77 2.79304 0.802346 0
M  V30 3718 H 364.317 2.57518 -0.0650788 0
M  V30 3719 H 364.275 2.66921 1.66134 0
M  V30 3720 N 368.047 0.979072 1.23499 0
M  V30 3721 C 369.296 0.642751 1.91185 0
M  V30 3722 C 369.609 -0.827253 1.77245 0
M  V30 3723 O 370.815 -1.27458 2.39722 0
M  V30 3724 C 369.271 1.09901 3.42709 0
M  V30 3725 C 368.879 2.59327 3.65313 0
M  V30 3726 C 370.623 0.836371 4.16179 0
M  V30 3727 C 368.53 2.98627 5.10467 0
M  V30 3728 H 367.46 0.236698 0.715884 0
M  V30 3729 H 370.111 1.1868 1.39955 0
M  V30 3730 H 368.493 0.48319 3.93041 0
M  V30 3731 H 369.667 3.26136 3.25533 0
M  V30 3732 H 367.982 2.83323 3.05151 0
M  V30 3733 H 370.579 1.10586 5.23139 0
M  V30 3734 H 370.922 -0.227509 4.15678 0
M  V30 3735 H 371.455 1.41371 3.71832 0
M  V30 3736 H 368.194 4.04133 5.16098 0
M  V30 3737 H 367.714 2.3651 5.51201 0
M  V30 3738 H 369.393 2.89159 5.78788 0
M  V30 3739 N 369.525 -1.3858 0.750561 0
M  V30 3740 C 370.473 -2.32339 0.110162 0
M  V30 3741 C 371.467 -1.53864 -0.708674 0
M  V30 3742 O 372.673 -1.69417 -0.608112 0
M  V30 3743 H 369.048 -0.751812 0.0168275 0
M  V30 3744 H 371.019 -2.83959 0.917053 0
M  V30 3745 C 369.768 -3.39043 -0.771067 0
M  V30 3746 H 369.091 -3.99517 -0.150374 0
M  V30 3747 H 370.531 -4.07061 -1.1865 0
M  V30 3748 C 368.99 -2.77365 -1.91234 0
M  V30 3749 O 369.52 -2.66434 -3.00626 0
M  V30 3750 N 367.726 -2.35219 -1.70646 0
M  V30 3751 H 367.273 -2.4431 -0.81673 0
M  V30 3752 H 367.231 -1.94294 -2.47178 0
M  V30 3753 N 371.003 -0.499398 -1.49478 0
M  V30 3754 C 372.28 0.108629 -1.95298 0
M  V30 3755 C 372.66 1.54282 -1.44084 0
M  V30 3756 O 372.008 2.18944 -0.653908 0
M  V30 3757 C 372.218 0.0229111 -3.48992 0
M  V30 3758 C 373.566 0.197643 -4.2414 0
M  V30 3759 O 374.59 0.0981735 -3.56065 0
M  V30 3760 O 373.449 0.401669 -5.45022 0
M  V30 3761 H 370.543 0.096181 -0.821388 0
M  V30 3762 H 373.089 -0.561822 -1.6013 0
M  V30 3763 H 371.861 -0.977321 -3.78899 0
M  V30 3764 H 371.484 0.733579 -3.90774 0
M  V30 3765 N 372.481 1.55866 -0.233164 0
M  V30 3766 C 373.729 1.9821 0.394593 0
M  V30 3767 C 374.05 1.12234 1.59463 0
M  V30 3768 O 373.32 0.201981 1.94856 0
M  V30 3769 H 371.9 0.732034 0.148778 0
M  V30 3770 H 374.562 1.92107 -0.32876 0
M  V30 3771 H 373.658 3.03845 0.713063 0
M  V30 3772 N 373.959 -0.0401083 1.57549 0
M  V30 3773 C 374.891 -1.07149 2.02612 0
M  V30 3774 C 375.904 -1.33126 0.937085 0
M  V30 3775 O 377.093 -1.30808 1.21456 0
M  V30 3776 C 374.193 -2.41561 2.37701 0
M  V30 3777 C 373.366 -2.35096 3.68848 0
M  V30 3778 C 372.425 -3.51867 3.91249 0
M  V30 3779 O 371.451 -3.3186 4.62447 0
M  V30 3780 N 372.653 -4.73351 3.36035 0
M  V30 3781 H 375.418 -0.687485 2.91708 0
M  V30 3782 H 372.979 -0.228248 1.60283 0
M  V30 3783 H 374.971 -3.18379 2.49833 0
M  V30 3784 H 373.541 -2.71846 1.54332 0
M  V30 3785 H 372.761 -1.4345 3.67173 0
M  V30 3786 H 374.049 -2.27908 4.54901 0
M  V30 3787 H 373.447 -4.92507 2.78304 0
M  V30 3788 H 372.004 -5.47572 3.53565 0
M  V30 3789 N 375.437 -1.54477 -0.31217 0
M  V30 3790 C 376.684 -1.73227 -1.04875 0
M  V30 3791 C 377.012 -0.512042 -1.87639 0
M  V30 3792 O 376.267 0.506131 -1.89042 0
M  V30 3793 C 376.566 -2.967 -1.99258 0
M  V30 3794 C 376.232 -4.30974 -1.32559 0
M  V30 3795 C 374.894 -4.67477 -1.141 0
M  V30 3796 C 377.246 -5.14258 -0.847835 0
M  V30 3797 C 374.574 -5.84852 -0.465326 0
M  V30 3798 C 376.926 -6.32327 -0.185931 0
M  V30 3799 C 375.59 -6.67499 0.0107077 0
M  V30 3800 H 374.86 -0.633881 -0.383765 0
M  V30 3801 H 377.507 -1.88727 -0.324731 0
M  V30 3802 H 375.812 -2.75935 -2.7815 0
M  V30 3803 H 377.509 -3.08401 -2.563 0
M  V30 3804 H 374.099 -4.02262 -1.4793 0
M  V30 3805 H 378.283 -4.86565 -0.978192 0
M  V30 3806 H 373.539 -6.10654 -0.301883 0
M  V30 3807 H 377.713 -6.96135 0.192211 0
M  V30 3808 H 375.34 -7.58306 0.536287 0
M  V30 3809 N 376.915 0.57481 -1.46744 0
M  V30 3810 C 377.878 1.66533 -1.57478 0
M  V30 3811 C 378.878 1.54338 -0.451263 0
M  V30 3812 O 380.068 1.58814 -0.715813 0
M  V30 3813 C 377.2 3.05999 -1.50259 0
M  V30 3814 H 378.393 1.58372 -2.54673 0
M  V30 3815 H 375.946 0.793301 -1.34672 0
M  V30 3816 H 376.681 3.19709 -0.543725 0
M  V30 3817 H 376.466 3.16259 -2.31781 0
M  V30 3818 H 377.956 3.8537 -1.60872 0
M  V30 3819 N 378.394 1.34581 0.820102 0
M  V30 3820 C 379.671 1.17675 1.56244 0
M  V30 3821 C 380.051 -0.249541 2.0962 0
M  V30 3822 O 379.399 -1.25125 1.91196 0
M  V30 3823 C 379.609 2.23364 2.6816 0
M  V30 3824 C 380.957 2.58485 3.36854 0
M  V30 3825 O 381.981 2.22175 2.78418 0
M  V30 3826 O 380.84 3.20868 4.42386 0
M  V30 3827 H 377.934 0.456333 0.689702 0
M  V30 3828 H 380.48 1.46222 0.861231 0
M  V30 3829 H 379.252 3.19087 2.26493 0
M  V30 3830 H 378.875 1.96009 3.45928 0
M  V30 3831 N 379.872 -1.04064 1.18357 0
M  V30 3832 C 381.097 -1.81454 1.00445 0
M  V30 3833 C 381.522 -1.82823 -0.442423 0
M  V30 3834 O 380.88 -1.24555 -1.31741 0
M  V30 3835 C 380.928 -3.24925 1.56384 0
M  V30 3836 O 380.032 -4.04856 0.785209 0
M  V30 3837 H 379.373 -0.560604 0.355835 0
M  V30 3838 H 381.903 -1.31059 1.57114 0
M  V30 3839 H 381.913 -3.75702 1.59097 0
M  V30 3840 H 380.588 -3.23244 2.61699 0
M  V30 3841 H 379.165 -3.63537 0.830399 0
M  V30 3842 N 381.35 -0.985608 -1.22978 0
M  V30 3843 C 382.766 -0.695104 -1.43668 0
M  V30 3844 C 382.966 0.736866 -1.87543 0
M  V30 3845 O 382.022 1.50868 -2.02473 0
M  V30 3846 C 383.335 -1.69447 -2.48412 0
M  V30 3847 C 384.883 -1.70909 -2.62219 0
M  V30 3848 C 385.358 -2.6969 -3.70178 0
M  V30 3849 N 386.849 -2.6824 -3.77626 0
M  V30 3850 C 387.584 -3.41339 -4.60733 0
M  V30 3851 N 387.08 -4.24015 -5.4789 0
M  V30 3852 N 388.873 -3.30079 -4.54977 0
M  V30 3853 H 381.024 -1.91054 -0.928016 0
M  V30 3854 H 383.287 -0.823553 -0.469536 0
M  V30 3855 H 382.993 -2.7188 -2.23102 0
M  V30 3856 H 382.867 -1.48147 -3.46889 0
M  V30 3857 H 385.254 -0.691785 -2.86877 0
M  V30 3858 H 385.335 -1.96276 -1.6404 0
M  V30 3859 H 384.979 -3.71566 -3.46268 0
M  V30 3860 H 384.909 -2.41595 -4.67909 0
M  V30 3861 H 387.4 -2.08243 -3.15346 0
M  V30 3862 H 387.713 -4.76636 -6.08308 0
M  V30 3863 H 386.058 -4.28104 -5.47496 0
M  V30 3864 H 389.249 -2.64937 -3.85909 0
M  V30 3865 H 389.422 -3.87308 -5.19516 0
M  V30 3866 N 382.828 1.3818 -0.7579 0
M  V30 3867 C 384.074 2.00316 -0.316453 0
M  V30 3868 C 384.407 1.60026 1.10025 0
M  V30 3869 O 383.682 0.839835 1.75434 0
M  V30 3870 C 383.965 3.57349 -0.444245 0
M  V30 3871 C 383.818 4.07591 -1.90236 0
M  V30 3872 C 385.137 4.3981 0.1598 0
M  V30 3873 H 382.256 0.727741 -0.116459 0
M  V30 3874 H 384.898 1.6406 -0.958352 0
M  V30 3875 H 383.048 3.88365 0.102233 0
M  V30 3876 H 384.72 3.87199 -2.50748 0
M  V30 3877 H 382.963 3.60297 -2.41595 0
M  V30 3878 H 383.634 5.16677 -1.94291 0
M  V30 3879 H 386.11 4.14971 -0.306314 0
M  V30 3880 H 384.986 5.48885 0.0401675 0
M  V30 3881 H 385.247 4.24102 1.24859 0
M  V30 3882 N 384.306 0.507319 1.49211 0
M  V30 3883 C 385.531 -0.033725 2.07373 0
M  V30 3884 C 385.956 -1.29485 1.36437 0
M  V30 3885 O 385.314 -1.76294 0.423087 0
M  V30 3886 C 385.362 -0.263945 3.59633 0
M  V30 3887 O 384.466 -1.33737 3.90113 0
M  V30 3888 H 383.807 0.0290331 0.663365 0
M  V30 3889 H 386.337 0.708749 1.91932 0
M  V30 3890 H 386.347 -0.493536 4.05004 0
M  V30 3891 H 385.022 0.657424 4.10671 0
M  V30 3892 H 383.599 -1.09224 3.56545 0
M  V30 3893 N 385.784 -1.5574 0.241426 0
M  V30 3894 C 387.03 -1.99846 -0.378555 0
M  V30 3895 C 387.385 -1.12665 -1.55963 0
M  V30 3896 O 386.678 -0.180966 -1.90743 0
M  V30 3897 C 386.872 -3.47308 -0.843317 0
M  V30 3898 C 386.701 -4.48756 0.291178 0
M  V30 3899 C 385.471 -4.9949 0.764077 0
M  V30 3900 C 387.669 -5.02039 1.11631 0
M  V30 3901 N 385.651 -5.84676 1.87156 0
M  V30 3902 C 387.022 -5.84343 2.07226 0
M  V30 3903 C 389.077 -4.84354 1.15349 0
M  V30 3904 C 387.78 -6.50851 3.06245 0
M  V30 3905 C 389.806 -5.51636 2.13195 0
M  V30 3906 C 389.168 -6.33724 3.07528 0
M  V30 3907 H 385.267 -0.774968 -0.104634 0
M  V30 3908 H 387.851 -1.91385 0.357751 0
M  V30 3909 H 386.022 -3.56178 -1.54893 0
M  V30 3910 H 387.754 -3.78299 -1.43779 0
M  V30 3911 H 384.509 -4.72311 0.349175 0
M  V30 3912 H 384.933 -6.31967 2.42789 0
M  V30 3913 H 389.575 -4.20525 0.438057 0
M  V30 3914 H 387.293 -7.1385 3.78739 0
M  V30 3915 H 390.879 -5.39909 2.16771 0
M  V30 3916 H 389.759 -6.84867 3.82003 0
M  V30 3917 N 387.262 0.0317525 -1.57568 0
M  V30 3918 C 388.21 1.05165 -2.07468 0
M  V30 3919 C 389.204 1.3761 -0.98792 0
M  V30 3920 O 390.41 1.36546 -1.17282 0
M  V30 3921 H 386.785 0.35666 -0.66204 0
M  V30 3922 H 388.756 0.604958 -2.92203 0
M  V30 3923 C 387.505 2.34488 -2.56731 0
M  V30 3924 H 386.828 2.10383 -3.39969 0
M  V30 3925 H 388.268 3.04203 -2.95358 0
M  V30 3926 C 386.727 3.03266 -1.46736 0
M  V30 3927 O 387.257 3.92988 -0.832069 0
M  V30 3928 N 385.463 2.6455 -1.20256 0
M  V30 3929 H 385.01 1.91674 -1.72102 0
M  V30 3930 H 384.968 3.10886 -0.468737 0
M  V30 3931 N 388.74 1.54641 0.303973 0
M  V30 3932 C 389.988 1.73437 1.0375 0
M  V30 3933 C 390.309 0.521449 1.87899 0
M  V30 3934 O 389.579 -0.46432 1.90318 0
M  V30 3935 H 388.159 0.639518 0.386039 0
M  V30 3936 H 390.821 1.91988 0.335675 0
M  V30 3937 H 389.917 2.62235 1.69231 0
M  V30 3938 N 390.218 -0.567019 1.47046 0
M  V30 3939 C 391.466 -1.322 1.52864 0
M  V30 3940 C 391.787 -1.94088 0.188388 0
M  V30 3941 O 391.057 -1.7941 -0.786693 0
M  V30 3942 H 389.637 -0.490894 0.563056 0
M  V30 3943 H 392.299 -0.662879 1.83281 0
M  V30 3944 H 391.395 -2.12062 2.2899 0
M  V30 3945 N 391.696 -1.35014 -0.812953 0
M  V30 3946 C 392.973 -1.18502 -1.55617 0
M  V30 3947 C 393.353 0.238421 -2.09749 0
M  V30 3948 O 392.701 1.2411 -1.91857 0
M  V30 3949 C 392.911 -2.24783 -2.66971 0
M  V30 3950 C 394.259 -2.60268 -3.35478 0
M  V30 3951 O 395.283 -2.23648 -2.77236 0
M  V30 3952 O 394.142 -3.2321 -4.40678 0
M  V30 3953 H 391.236 -0.459984 -0.687272 0
M  V30 3954 H 393.782 -1.46677 -0.853464 0
M  V30 3955 H 392.554 -3.20284 -2.24798 0
M  V30 3956 H 392.177 -1.97841 -3.44884 0
M  V30 3957 N 393.175 1.03435 -1.18907 0
M  V30 3958 C 394.452 1.73778 -0.89781 0
M  V30 3959 C 394.832 2.02458 0.597832 0
M  V30 3960 O 394.18 1.67482 1.55441 0
M  V30 3961 C 394.39 3.01845 -1.75187 0
M  V30 3962 C 395.738 3.7546 -1.9828 0
M  V30 3963 O 396.762 3.11759 -1.72293 0
M  V30 3964 O 395.621 4.89966 -2.42065 0
M  V30 3965 H 392.715 0.75651 -0.334098 0
M  V30 3966 H 395.261 1.09444 -1.29693 0
M  V30 3967 H 394.033 2.76836 -2.76545 0
M  V30 3968 H 393.656 3.73919 -1.35167 0
M  V30 3969 N 394.653 0.992116 1.22453 0
M  V30 3970 C 395.878 0.685644 1.95739 0
M  V30 3971 C 396.303 -0.743 1.72804 0
M  V30 3972 O 395.661 -1.50778 1.00676 0
M  V30 3973 C 395.709 0.996293 3.46564 0
M  V30 3974 O 394.813 0.0945512 4.12292 0
M  V30 3975 H 394.154 0.256694 0.612376 0
M  V30 3976 H 396.684 1.32888 1.5557 0
M  V30 3977 H 396.694 0.93781 3.97076 0
M  V30 3978 H 395.369 2.03733 3.62582 0
M  V30 3979 H 393.946 0.208451 3.72317 0
M  V30 3980 N 396.131 -1.37776 0.765217 0
M  V30 3981 C 397.378 -1.99849 0.326588 0
M  V30 3982 C 397.706 -1.60746 -1.09504 0
M  V30 3983 O 396.961 -0.84202 -1.76659 0
M  V30 3984 C 397.26 -3.5504 0.410053 0
M  V30 3985 C 396.926 -4.13891 1.78899 0
M  V30 3986 C 395.588 -4.29678 2.16635 0
M  V30 3987 C 397.94 -4.46236 2.69301 0
M  V30 3988 C 395.268 -4.7511 3.44221 0
M  V30 3989 C 397.62 -4.93089 3.9629 0
M  V30 3990 C 396.284 -5.07082 4.34078 0
M  V30 3991 H 395.554 -0.7313 0.119507 0
M  V30 3992 H 398.201 -1.64645 0.977968 0
M  V30 3993 H 396.506 -3.90451 -0.324878 0
M  V30 3994 H 398.203 -4.00966 0.0520699 0
M  V30 3995 H 394.793 -4.02026 1.48569 0
M  V30 3996 H 398.977 -4.3363 2.41409 0
M  V30 3997 H 394.233 -4.84129 3.73402 0
M  V30 3998 H 398.407 -5.17084 4.66472 0
M  V30 3999 H 396.034 -5.42046 5.33001 0
M  V30 4000 N 397.609 -0.515225 -1.4894 0
M  V30 4001 C 398.839 0.0205735 -2.0659 0
M  V30 4002 C 399.247 1.30064 -1.37405 0
M  V30 4003 O 398.59 1.78087 -0.450632 0
M  V30 4004 C 398.652 0.330124 -3.57981 0
M  V30 4005 C 398.316 -0.854295 -4.48944 0
M  V30 4006 C 399.313 -1.7487 -4.89609 0
M  V30 4007 C 396.998 -1.05712 -4.9105 0
M  V30 4008 C 398.992 -2.82996 -5.71132 0
M  V30 4009 C 396.679 -2.14154 -5.72347 0
M  V30 4010 C 397.677 -3.0263 -6.12294 0
M  V30 4011 O 397.365 -4.09198 -6.91962 0
M  V30 4012 H 397.097 -0.0236833 -0.675585 0
M  V30 4013 H 399.651 -0.715956 -1.92518 0
M  V30 4014 H 397.881 1.12044 -3.70112 0
M  V30 4015 H 399.57 0.806233 -3.97812 0
M  V30 4016 H 400.336 -1.60388 -4.57712 0
M  V30 4017 H 396.215 -0.377788 -4.59449 0
M  V30 4018 H 399.759 -3.52083 -6.02232 0
M  V30 4019 H 395.656 -2.28626 -6.03656 0
M  V30 4020 H 396.424 -4.06726 -7.10293 0
M  V30 4021 N 399.087 1.5561 -0.249682 0
M  V30 4022 C 399.997 2.25143 0.659375 0
M  V30 4023 C 401.013 1.2685 1.19101 0
M  V30 4024 O 402.189 1.59732 1.22669 0
M  V30 4025 C 399.254 2.93945 1.8384 0
M  V30 4026 C 398.315 4.07655 1.34596 0
M  V30 4027 C 397.548 4.73167 2.46878 0
M  V30 4028 O 397.771 4.37768 3.65671 0
M  V30 4029 O 396.705 5.61623 2.16478 0
M  V30 4030 H 400.531 3.03545 0.0968698 0
M  V30 4031 H 398.116 1.49389 -0.018074 0
M  V30 4032 H 399.998 3.37271 2.52638 0
M  V30 4033 H 398.673 2.18481 2.38847 0
M  V30 4034 H 397.58 3.68839 0.625174 0
M  V30 4035 H 398.913 4.84946 0.841941 0
M  V30 4036 N 400.565 -0.0233959 1.57583 0
M  V30 4037 C 401.795 -0.723631 1.93513 0
M  V30 4038 C 402.203 -1.69115 0.848333 0
M  V30 4039 O 401.546 -1.82781 -0.183484 0
M  V30 4040 C 401.608 -1.53075 3.25282 0
M  V30 4041 C 401.272 -0.727388 4.51174 0
M  V30 4042 C 402.269 -0.0251924 5.19894 0
M  V30 4043 C 399.954 -0.680256 4.97672 0
M  V30 4044 C 401.948 0.713374 6.33395 0
M  V30 4045 C 399.635 0.0620523 6.11068 0
M  V30 4046 C 400.633 0.757622 6.78785 0
M  V30 4047 O 400.321 1.48787 7.90011 0
M  V30 4048 H 400.053 -0.208051 0.643188 0
M  V30 4049 H 402.607 0.0167489 2.05393 0
M  V30 4050 H 400.837 -2.31508 3.09744 0
M  V30 4051 H 402.526 -2.11413 3.46496 0
M  V30 4052 H 403.292 -0.0526003 4.84971 0
M  V30 4053 H 399.171 -1.21116 4.44805 0
M  V30 4054 H 402.715 1.25683 6.86185 0
M  V30 4055 H 398.612 0.0913634 6.45435 0
M  V30 4056 H 399.38 1.40213 8.06401 0
M  V30 4057 N 402.043 -1.548 -0.295768 0
M  V30 4058 C 402.973 -1.89115 -1.36959 0
M  V30 4059 C 403.954 -0.75059 -1.52644 0
M  V30 4060 O 405.139 -1.00678 -1.66065 0
M  V30 4061 C 402.269 -2.14307 -2.73295 0
M  V30 4062 C 401.223 -3.30151 -2.72368 0
M  V30 4063 C 400.549 -3.40772 -4.12042 0
M  V30 4064 C 401.849 -4.67126 -2.33646 0
M  V30 4065 H 403.543 -2.79053 -1.08488 0
M  V30 4066 H 401.089 -1.34266 -0.520443 0
M  V30 4067 H 403.042 -2.36898 -3.48507 0
M  V30 4068 H 401.766 -1.21145 -3.03301 0
M  V30 4069 H 400.425 -3.0749 -1.99613 0
M  V30 4070 H 400.073 -2.45117 -4.39234 0
M  V30 4071 H 399.773 -4.18645 -4.12322 0
M  V30 4072 H 401.297 -3.6563 -4.89027 0
M  V30 4073 H 402.711 -4.89414 -2.98575 0
M  V30 4074 H 401.108 -5.47751 -2.45129 0
M  V30 4075 H 402.178 -4.67489 -1.28772 0
M  V30 4076 N 403.521 0.559213 -1.47345 0
M  V30 4077 C 404.77 1.31281 -1.53128 0
M  V30 4078 C 405.083 1.94602 -0.197344 0
M  V30 4079 O 406.289 2.71173 -0.133154 0
M  V30 4080 C 404.745 2.38051 -2.69925 0
M  V30 4081 C 404.353 1.8093 -4.0984 0
M  V30 4082 C 406.097 3.14604 -2.84999 0
M  V30 4083 C 404.004 2.85468 -5.1794 0
M  V30 4084 H 402.934 0.493614 -0.569966 0
M  V30 4085 H 405.585 0.594155 -1.73615 0
M  V30 4086 H 403.967 3.12822 -2.42814 0
M  V30 4087 H 405.141 1.12544 -4.46845 0
M  V30 4088 H 403.456 1.16967 -3.99634 0
M  V30 4089 H 406.053 3.92666 -3.62929 0
M  V30 4090 H 406.396 3.68665 -1.93369 0
M  V30 4091 H 406.929 2.46945 -3.1187 0
M  V30 4092 H 403.668 2.36264 -6.1144 0
M  V30 4093 H 403.188 3.52269 -4.85455 0
M  V30 4094 H 404.867 3.48996 -5.44803 0
M  V30 4095 N 404.999 1.35443 0.805782 0
M  V30 4096 C 405.946 1.28431 1.91766 0
M  V30 4097 C 406.916 0.156102 1.65365 0
M  V30 4098 O 408.101 0.339936 1.87747 0
M  V30 4099 C 405.241 1.06301 3.2832 0
M  V30 4100 C 404.354 2.2805 3.66902 0
M  V30 4101 C 403.489 1.99064 4.92491 0
M  V30 4102 C 402.528 3.16863 5.23703 0
M  V30 4103 N 401.665 2.87647 6.40471 0
M  V30 4104 H 406.505 2.23511 1.97096 0
M  V30 4105 H 404.042 1.11105 0.964054 0
M  V30 4106 H 406 0.915012 4.07042 0
M  V30 4107 H 404.63 0.148822 3.22457 0
M  V30 4108 H 403.682 2.53711 2.83434 0
M  V30 4109 H 404.994 3.1601 3.85927 0
M  V30 4110 H 404.148 1.81099 5.7904 0
M  V30 4111 H 402.887 1.0839 4.75503 0
M  V30 4112 H 401.892 3.35404 4.35642 0
M  V30 4113 H 403.117 4.08339 5.4262 0
M  V30 4114 H 401.063 1.99568 6.24907 0
M  V30 4115 H 400.98 3.69141 6.59751 0
M  V30 4116 H 402.248 2.73226 7.30047 0
M  V30 4117 N 406.477 -1.02803 1.19454 0
M  V30 4118 C 407.41 -2.107 0.876396 0
M  V30 4119 C 408.388 -1.61741 -0.166897 0
M  V30 4120 O 409.572 -1.88451 -0.0430195 0
M  V30 4121 C 406.699 -3.37262 0.311758 0
M  V30 4122 C 405.745 -4.05093 1.33424 0
M  V30 4123 S 406.578 -4.50498 2.89503 0
M  V30 4124 C 407.734 -5.80277 2.34584 0
M  V30 4125 H 407.967 -2.37362 1.79016 0
M  V30 4126 H 405.5 -1.15755 1.02177 0
M  V30 4127 H 407.458 -4.10499 -0.00748752 0
M  V30 4128 H 406.119 -3.08693 -0.58032 0
M  V30 4129 H 405.312 -4.9611 0.888302 0
M  V30 4130 H 404.914 -3.3803 1.60037 0
M  V30 4131 H 407.206 -6.54873 1.73633 0
M  V30 4132 H 408.149 -6.29651 3.23952 0
M  V30 4133 H 408.557 -5.3599 1.77131 0
M  V30 4134 N 407.956 -0.998596 -1.21925 0
M  V30 4135 C 409.186 -0.695276 -1.94549 0
M  V30 4136 C 409.594 0.745079 -1.73911 0
M  V30 4137 O 408.937 1.51507 -1.03881 0
M  V30 4138 C 408.999 -0.928485 -3.47303 0
M  V30 4139 C 408.663 -2.35443 -3.91683 0
M  V30 4140 C 409.66 -3.33428 -3.98901 0
M  V30 4141 C 407.345 -2.69038 -4.24174 0
M  V30 4142 C 409.339 -4.63079 -4.37992 0
M  V30 4143 C 407.026 -3.98906 -4.62944 0
M  V30 4144 C 408.024 -4.95738 -4.69822 0
M  V30 4145 O 407.712 -6.23285 -5.07711 0
M  V30 4146 H 407.444 -0.255902 -0.625692 0
M  V30 4147 H 409.998 -1.33767 -1.5587 0
M  V30 4148 H 408.228 -0.228917 -3.86022 0
M  V30 4149 H 409.917 -0.619539 -4.01144 0
M  V30 4150 H 410.683 -3.08807 -3.73983 0
M  V30 4151 H 406.562 -1.94367 -4.18022 0
M  V30 4152 H 410.106 -5.38658 -4.43275 0
M  V30 4153 H 406.003 -4.23314 -4.87314 0
M  V30 4154 H 406.771 -6.27306 -5.25766 0
M  V30 4155 N 409.434 1.37368 -0.772513 0
M  V30 4156 C 410.68 1.99969 -0.337681 0
M  V30 4157 C 411.013 1.61184 1.08321 0
M  V30 4158 O 410.288 0.858395 1.74533 0
M  V30 4159 C 410.571 3.56858 -0.482121 0
M  V30 4160 C 410.424 4.0555 -1.94549 0
M  V30 4161 C 411.743 4.39955 0.113143 0
M  V30 4162 H 408.862 0.726464 -0.124171 0
M  V30 4163 H 411.504 1.63034 -0.975699 0
M  V30 4164 H 409.654 3.88452 0.0610361 0
M  V30 4165 H 411.326 3.84518 -2.54841 0
M  V30 4166 H 409.569 3.57715 -2.45403 0
M  V30 4167 H 410.24 5.14587 -1.9976 0
M  V30 4168 H 412.716 4.14623 -0.35031 0
M  V30 4169 H 411.592 5.48897 -0.0180514 0
M  V30 4170 H 411.853 4.25403 1.20354 0
M  V30 4171 N 410.912 0.523116 1.48665 0
M  V30 4172 C 412.142 -0.00961724 2.06598 0
M  V30 4173 C 412.55 -1.29333 1.38093 0
M  V30 4174 O 411.893 -1.77846 0.46007 0
M  V30 4175 C 411.955 -0.311135 3.58151 0
M  V30 4176 C 411.619 0.878092 4.48485 0
M  V30 4177 C 412.616 1.77464 4.88674 0
M  V30 4178 C 410.301 1.08315 4.90483 0
M  V30 4179 C 412.295 2.86021 5.69623 0
M  V30 4180 C 409.982 2.17187 5.71203 0
M  V30 4181 C 410.98 3.05873 6.10681 0
M  V30 4182 O 410.668 4.12862 6.89783 0
M  V30 4183 H 410.4 0.0272658 0.67545 0
M  V30 4184 H 412.954 0.726156 1.92136 0
M  V30 4185 H 411.184 -1.10079 3.70701 0
M  V30 4186 H 412.873 -0.785125 3.98234 0
M  V30 4187 H 413.639 1.62813 4.56855 0
M  V30 4188 H 409.518 0.402149 4.59243 0
M  V30 4189 H 413.062 3.55272 6.00356 0
M  V30 4190 H 408.959 2.31824 6.02435 0
M  V30 4191 H 409.727 4.10487 7.08126 0
M  V30 4192 N 412.39 -1.55475 0.257931 0
M  V30 4193 C 413.667 -1.91155 -0.414629 0
M  V30 4194 C 414.047 -1.18008 -1.75035 0
M  V30 4195 O 413.395 -0.301193 -2.26506 0
M  V30 4196 C 413.605 -3.44283 -0.571859 0
M  V30 4197 C 414.953 -4.15744 -0.862678 0
M  V30 4198 O 415.977 -3.50083 -0.657314 0
M  V30 4199 O 414.836 -5.31909 -1.2544 0
M  V30 4200 H 411.93 -0.796016 -0.22425 0
M  V30 4201 H 414.476 -1.66976 0.302814 0
M  V30 4202 H 413.248 -3.89558 0.368844 0
M  V30 4203 H 412.871 -3.7436 -1.33943 0
M  V30 4204 N 413.868 0.0150385 -1.57593 0
M  V30 4205 C 415.279 0.559832 -1.78109 0
M  V30 4206 C 415.63 1.74814 -0.890756 0
M  V30 4207 O 414.755 2.16216 -0.0892482 0
M  V30 4208 C 415.35 1.02238 -3.23006 0
M  V30 4209 C 413.909 1.51258 -3.44671 0
M  V30 4210 C 413.056 0.456955 -2.73509 0
M  V30 4211 H 416.007 -0.211169 -1.57289 0
M  V30 4212 H 416.028 1.88912 -3.30292 0
M  V30 4213 H 415.54 0.157302 -3.87781 0
M  V30 4214 H 413.641 2.39905 -2.8509 0
M  V30 4215 H 413.754 1.55042 -4.5332 0
M  V30 4216 H 412.118 0.915196 -2.37689 0
M  V30 4217 H 412.901 -0.398896 -3.40975 0
M  V30 4218 N 415.346 1.54954 0.287554 0
M  V30 4219 C 416.293 1.86834 1.35505 0
M  V30 4220 C 417.263 0.718452 1.49758 0
M  V30 4221 O 418.448 0.968358 1.644 0
M  V30 4222 C 415.588 2.13303 2.71286 0
M  V30 4223 C 414.701 3.40883 2.65373 0
M  V30 4224 C 413.836 3.57125 3.93236 0
M  V30 4225 C 412.875 4.78449 3.81776 0
M  V30 4226 N 412.012 4.91426 5.01443 0
M  V30 4227 H 416.852 2.77889 1.07619 0
M  V30 4228 H 414.389 1.37593 0.520241 0
M  V30 4229 H 416.347 2.26646 3.50267 0
M  V30 4230 H 414.977 1.25499 2.97405 0
M  V30 4231 H 414.029 3.36088 1.78182 0
M  V30 4232 H 415.341 4.29993 2.52799 0
M  V30 4233 H 414.495 3.70207 4.80658 0
M  V30 4234 H 413.234 2.66173 4.0866 0
M  V30 4235 H 412.239 4.65386 2.92738 0
M  V30 4236 H 413.464 5.70822 3.67884 0
M  V30 4237 H 411.41 4.03401 5.17304 0
M  V30 4238 H 411.327 5.74559 4.91343 0
M  V30 4239 H 412.595 5.08879 5.90477 0
M  V30 4240 N 416.824 -0.551391 1.4764 0
M  V30 4241 C 418.24 -0.877887 1.33287 0
M  V30 4242 C 418.44 -1.98817 0.327721 0
M  V30 4243 O 417.496 -2.51171 -0.258695 0
M  V30 4244 C 418.809 -1.26563 2.72768 0
M  V30 4245 C 420.357 -1.37673 2.81097 0
M  V30 4246 C 420.832 -1.79799 4.21232 0
M  V30 4247 N 422.323 -1.8694 4.23802 0
M  V30 4248 C 423.058 -2.20876 5.29151 0
M  V30 4249 N 422.554 -2.53386 6.448 0
M  V30 4250 N 424.347 -2.217 5.16532 0
M  V30 4251 H 416.498 0.18153 2.11623 0
M  V30 4252 H 418.761 0.0185514 0.947818 0
M  V30 4253 H 418.467 -0.523591 3.47781 0
M  V30 4254 H 418.341 -2.22052 3.04915 0
M  V30 4255 H 420.728 -2.10956 2.06353 0
M  V30 4256 H 420.809 -0.40357 2.52596 0
M  V30 4257 H 420.453 -1.07083 4.96483 0
M  V30 4258 H 420.383 -2.78128 4.4716 0
M  V30 4259 H 422.874 -1.64179 3.40373 0
M  V30 4260 H 423.187 -2.78325 7.20941 0
M  V30 4261 H 421.532 -2.50953 6.48111 0
M  V30 4262 H 424.723 -1.95745 4.25207 0
M  V30 4263 H 424.896 -2.47818 5.98741 0
M  V30 4264 N 418.302 -1.35869 -0.798587 0
M  V30 4265 C 419.549 -1.29588 -1.55606 0
M  V30 4266 C 419.877 0.127456 -1.94082 0
M  V30 4267 O 419.132 1.09461 -1.62225 0
M  V30 4268 C 419.431 -2.1556 -2.85077 0
M  V30 4269 C 419.097 -3.6424 -2.65781 0
M  V30 4270 C 417.759 -4.04766 -2.60227 0
M  V30 4271 C 420.111 -4.58547 -2.47758 0
M  V30 4272 C 417.439 -5.37753 -2.34603 0
M  V30 4273 C 419.791 -5.91742 -2.23662 0
M  V30 4274 C 418.455 -6.31402 -2.16534 0
M  V30 4275 H 417.725 -0.474197 -0.569402 0
M  V30 4276 H 420.372 -1.67839 -0.922086 0
M  V30 4277 H 418.677 -1.70216 -3.52893 0
M  V30 4278 H 420.374 -2.08031 -3.42818 0
M  V30 4279 H 416.964 -3.32086 -2.70956 0
M  V30 4280 H 421.148 -4.28117 -2.51056 0
M  V30 4281 H 416.404 -5.67474 -2.2756 0
M  V30 4282 H 420.578 -6.6439 -2.08708 0
M  V30 4283 H 418.205 -7.34381 -1.96441 0
M  V30 4284 N 419.78 1.02168 -1.19998 0
M  V30 4285 C 420.69 2.14069 -0.959774 0
M  V30 4286 C 421.706 1.73804 0.082655 0
M  V30 4287 O 422.882 2.01133 -0.103633 0
M  V30 4288 C 419.947 3.42936 -0.509459 0
M  V30 4289 C 419.008 3.97474 -1.62213 0
M  V30 4290 C 418.241 5.2019 -1.19321 0
M  V30 4291 O 418.464 5.70369 -0.0597726 0
M  V30 4292 O 417.398 5.67749 -1.99863 0
M  V30 4293 H 421.224 2.37199 -1.89658 0
M  V30 4294 H 418.809 1.12469 -0.983411 0
M  V30 4295 H 420.691 4.20551 -0.267322 0
M  V30 4296 H 419.366 3.21234 0.398821 0
M  V30 4297 H 418.273 3.21161 -1.9185 0
M  V30 4298 H 419.606 4.23555 -2.50723 0
M  V30 4299 N 421.258 1.00505 1.21394 0
M  V30 4300 C 422.486 0.706609 1.9446 0
M  V30 4301 C 422.901 -0.73081 1.74082 0
M  V30 4302 O 422.258 -1.49446 1.04747 0
M  V30 4303 C 422.309 1.01824 3.46863 0
M  V30 4304 O 422.03 2.39919 3.66566 0
M  V30 4305 C 423.531 0.739216 4.37093 0
M  V30 4306 H 420.751 0.260394 0.618414 0
M  V30 4307 H 423.295 1.34311 1.54211 0
M  V30 4308 H 421.45 0.427343 3.85036 0
M  V30 4309 H 421.864 2.50784 4.6066 0
M  V30 4310 H 423.338 1.00744 5.42729 0
M  V30 4311 H 423.815 -0.326746 4.37983 0
M  V30 4312 H 424.421 1.31173 4.04566 0
M  V30 4313 N 422.737 -1.36956 0.779787 0
M  V30 4314 C 423.967 -2.03459 0.358877 0
M  V30 4315 C 424.375 -1.58939 -1.02641 0
M  V30 4316 O 423.718 -0.769777 -1.66794 0
M  V30 4317 C 423.78 -3.5796 0.332393 0
M  V30 4318 C 423.444 -4.25644 1.66362 0
M  V30 4319 C 424.441 -4.49205 2.61746 0
M  V30 4320 C 422.126 -4.63313 1.94027 0
M  V30 4321 C 424.12 -5.09503 3.82996 0
M  V30 4322 C 421.807 -5.2333 3.15546 0
M  V30 4323 C 422.805 -5.46363 4.0985 0
M  V30 4324 O 422.493 -6.05122 5.29228 0
M  V30 4325 H 422.225 -0.659767 0.147254 0
M  V30 4326 H 424.779 -1.76111 1.05708 0
M  V30 4327 H 423.009 -3.84388 -0.422237 0
M  V30 4328 H 424.698 -4.05852 -0.0625389 0
M  V30 4329 H 425.464 -4.20508 2.41657 0
M  V30 4330 H 421.343 -4.44715 1.21448 0
M  V30 4331 H 424.887 -5.27397 4.56617 0
M  V30 4332 H 420.784 -5.51451 3.35517 0
M  V30 4333 H 421.552 -6.23595 5.30161 0
M  V30 4334 N 424.215 -0.530993 -1.48385 0
M  V30 4335 C 425.162 0.231223 -2.29639 0
M  V30 4336 C 426.132 0.932864 -1.37429 0
M  V30 4337 O 427.317 0.933692 -1.66394 0
M  V30 4338 C 424.457 1.27155 -3.2082 0
M  V30 4339 C 423.57 0.578655 -4.28107 0
M  V30 4340 C 422.705 1.602 -5.06467 0
M  V30 4341 C 421.744 0.892625 -6.05556 0
M  V30 4342 N 420.881 1.86157 -6.76971 0
M  V30 4343 H 425.721 -0.467848 -2.94305 0
M  V30 4344 H 423.258 -0.242556 -1.45086 0
M  V30 4345 H 425.216 1.88703 -3.72085 0
M  V30 4346 H 423.846 1.939 -2.58075 0
M  V30 4347 H 422.898 -0.150782 -3.80101 0
M  V30 4348 H 424.21 0.0217065 -4.98795 0
M  V30 4349 H 423.364 2.29173 -5.61751 0
M  V30 4350 H 422.103 2.19285 -4.35621 0
M  V30 4351 H 421.108 0.188829 -5.49476 0
M  V30 4352 H 422.333 0.307878 -6.78402 0
M  V30 4353 H 420.279 2.44147 -6.08875 0
M  V30 4354 H 420.196 1.35608 -7.43738 0
M  V30 4355 H 421.464 2.54325 -7.36844 0
M  V30 4356 N 425.693 1.55336 -0.266172 0
M  V30 4357 C 426.97 1.91372 0.404486 0
M  V30 4358 C 427.35 1.18935 1.74407 0
M  V30 4359 O 426.698 0.3132 2.26343 0
M  V30 4360 C 426.908 3.44581 0.553593 0
M  V30 4361 C 428.256 4.16196 0.840618 0
M  V30 4362 O 429.28 3.50426 0.638739 0
M  V30 4363 O 428.139 5.32567 1.22618 0
M  V30 4364 H 425.233 0.797194 0.220025 0
M  V30 4365 H 427.779 1.66813 -0.311664 0
M  V30 4366 H 426.551 3.89357 -0.389498 0
M  V30 4367 H 426.174 3.75065 1.31955 0
M  V30 4368 N 427.171 -0.0066808 1.57599 0
M  V30 4369 C 428.587 -0.36267 1.55425 0
M  V30 4370 C 428.787 -1.75209 0.995187 0
M  V30 4371 O 427.843 -2.44616 0.626058 0
M  V30 4372 C 429.156 -0.244017 2.99708 0
M  V30 4373 C 430.704 -0.319451 3.11366 0
M  V30 4374 C 431.179 -0.229998 4.57422 0
M  V30 4375 N 432.67 -0.288105 4.62303 0
M  V30 4376 C 433.405 -0.242127 5.72889 0
M  V30 4377 N 432.901 -0.147133 6.92644 0
M  V30 4378 N 434.694 -0.293502 5.61333 0
M  V30 4379 H 426.845 0.902314 1.92281 0
M  V30 4380 H 429.108 0.34525 0.882896 0
M  V30 4381 H 428.814 0.711678 3.44424 0
M  V30 4382 H 428.688 -1.02877 3.629 0
M  V30 4383 H 431.075 -1.26559 2.66584 0
M  V30 4384 H 431.156 0.495055 2.50964 0
M  V30 4385 H 430.8 0.712566 5.02877 0
M  V30 4386 H 430.73 -1.0629 5.15761 0
M  V30 4387 H 433.221 -0.363126 3.76151 0
M  V30 4388 H 433.534 -0.117763 7.7271 0
M  V30 4389 H 431.879 -0.112857 6.94908 0
M  V30 4390 H 435.07 -0.365864 4.66668 0
M  V30 4391 H 435.243 -0.254204 6.47501 0
M  V30 4392 N 428.649 -1.55105 -0.279332 0
M  V30 4393 C 429.895 -1.76597 -1.00921 0
M  V30 4394 C 430.25 -0.556831 -1.84166 0
M  V30 4395 O 429.543 0.450573 -1.86227 0
M  V30 4396 C 429.737 -3.0086 -1.92919 0
M  V30 4397 C 429.566 -4.33744 -1.18728 0
M  V30 4398 C 428.336 -4.9712 -0.905545 0
M  V30 4399 C 430.534 -5.11009 -0.580857 0
M  V30 4400 N 428.516 -6.13749 -0.136169 0
M  V30 4401 C 429.887 -6.19976 0.0546661 0
M  V30 4402 C 431.942 -4.95502 -0.488067 0
M  V30 4403 C 430.645 -7.15123 0.774028 0
M  V30 4404 C 432.671 -5.90999 0.217688 0
M  V30 4405 C 432.033 -6.9935 0.841975 0
M  V30 4406 H 428.132 -0.698553 -0.351493 0
M  V30 4407 H 430.716 -1.92595 -0.285531 0
M  V30 4408 H 428.887 -2.86249 -2.62519 0
M  V30 4409 H 430.619 -3.10784 -2.59221 0
M  V30 4410 H 427.374 -4.57903 -1.20921 0
M  V30 4411 H 427.798 -6.7659 0.235665 0
M  V30 4412 H 432.44 -4.11841 -0.956406 0
M  V30 4413 H 430.158 -7.9831 1.25407 0
M  V30 4414 H 433.744 -5.81078 0.289717 0
M  V30 4415 H 432.624 -7.71973 1.37939 0
M  V30 4416 N 430.127 0.543554 -1.4793 0
M  V30 4417 C 431.373 1.30201 -1.55485 0
M  V30 4418 C 431.706 1.92925 -0.222201 0
M  V30 4419 O 430.981 1.78586 0.77053 0
M  V30 4420 C 431.264 2.40174 -2.68307 0
M  V30 4421 C 431.117 1.8223 -4.11233 0
M  V30 4422 C 432.436 3.42024 -2.76961 0
M  V30 4423 H 429.555 0.472036 -0.565996 0
M  V30 4424 H 432.197 0.606914 -1.80046 0
M  V30 4425 H 430.347 2.99463 -2.47495 0
M  V30 4426 H 432.019 1.27096 -4.43446 0
M  V30 4427 H 430.262 1.12832 -4.18869 0
M  V30 4428 H 430.933 2.61793 -4.85972 0
M  V30 4429 H 433.409 2.92672 -2.95774 0
M  V30 4430 H 432.285 4.16383 -3.57654 0
M  V30 4431 H 432.546 4.0173 -1.84568 0
M  V30 4432 N 431.605 1.3629 0.791371 0
M  V30 4433 C 432.535 1.33137 1.91825 0
M  V30 4434 C 433.516 0.203168 1.68882 0
M  V30 4435 O 434.701 0.400509 1.90025 0
M  V30 4436 C 431.831 1.11793 3.28816 0
M  V30 4437 C 430.785 2.21417 3.66277 0
M  V30 4438 C 430.111 1.85218 5.01596 0
M  V30 4439 C 431.411 3.63489 3.75064 0
M  V30 4440 H 433.105 2.2743 1.9472 0
M  V30 4441 H 430.651 1.09479 0.935437 0
M  V30 4442 H 432.604 1.08222 4.07266 0
M  V30 4443 H 431.328 0.139501 3.26302 0
M  V30 4444 H 429.987 2.2411 2.90121 0
M  V30 4445 H 429.635 0.859544 4.95602 0
M  V30 4446 H 429.335 2.58611 5.27631 0
M  V30 4447 H 430.859 1.832 5.82469 0
M  V30 4448 H 432.273 3.63034 4.43711 0
M  V30 4449 H 430.67 4.35771 4.12582 0
M  V30 4450 H 431.74 3.98536 2.76219 0
M  V30 4451 N 433.083 -1.0153 1.20538 0
M  V30 4452 C 434.046 -2.0826 0.957098 0
M  V30 4453 C 435.046 -1.60657 -0.0678655 0
M  V30 4454 O 436.236 -1.73385 0.168332 0
M  V30 4455 C 433.368 -3.38033 0.441188 0
M  V30 4456 H 434.561 -2.31719 1.90384 0
M  V30 4457 H 432.114 -1.1835 1.02093 0
M  V30 4458 H 432.849 -3.20249 -0.510961 0
M  V30 4459 H 432.634 -3.73911 1.18038 0
M  V30 4460 H 434.124 -4.16613 0.287009 0
M  V30 4461 N 434.561 -1.01147 -1.20859 0
M  V30 4462 C 435.524 -0.582224 -2.21682 0
M  V30 4463 C 436.524 0.344887 -1.57058 0
M  V30 4464 O 437.714 0.134281 -1.73682 0
M  V30 4465 C 434.846 0.150496 -3.40568 0
M  V30 4466 H 436.039 -1.47408 -2.61172 0
M  V30 4467 H 433.592 -0.800695 -1.34233 0
M  V30 4468 H 434.327 1.0575 -3.06574 0
M  V30 4469 H 434.112 -0.515444 -3.88697 0
M  V30 4470 H 435.602 0.438344 -4.15293 0
M  V30 4471 N 436.039 1.36541 -0.78704 0
M  V30 4472 C 436.949 2.3387 -0.184896 0
M  V30 4473 C 437.965 1.60927 0.661697 0
M  V30 4474 O 439.141 1.92927 0.57804 0
M  V30 4475 C 436.206 3.40122 0.672145 0
M  V30 4476 C 435.267 4.28867 -0.19267 0
M  V30 4477 C 434.5 5.30045 0.623561 0
M  V30 4478 O 434.723 5.39232 1.8597 0
M  V30 4479 O 433.657 6.01895 0.0247068 0
M  V30 4480 H 437.483 2.87126 -0.989562 0
M  V30 4481 H 435.068 1.38969 -0.548455 0
M  V30 4482 H 436.95 4.05093 1.16094 0
M  V30 4483 H 435.625 2.89169 1.45474 0
M  V30 4484 H 434.532 3.66945 -0.728166 0
M  V30 4485 H 435.865 4.83165 -0.938722 0
M  V30 4486 N 437.518 0.538854 1.48102 0
M  V30 4487 C 438.743 0.0102694 2.07397 0
M  V30 4488 C 439.168 -1.26562 1.39153 0
M  V30 4489 O 438.526 -1.75357 0.460387 0
M  V30 4490 C 438.574 -0.187602 3.60112 0
M  V30 4491 O 437.678 -1.25432 3.92862 0
M  V30 4492 H 437.019 0.0430975 0.6626 0
M  V30 4493 H 439.549 0.749301 1.90385 0
M  V30 4494 H 439.559 -0.407517 4.0596 0
M  V30 4495 H 438.234 0.744386 4.09184 0
M  V30 4496 H 436.811 -1.01636 3.58782 0
M  V30 4497 N 438.996 -1.55193 0.274407 0
M  V30 4498 C 440.224 -2.03987 -0.345943 0
M  V30 4499 C 440.639 -1.15279 -1.4952 0
M  V30 4500 O 439.996 -0.172759 -1.8168 0
M  V30 4501 C 440.047 -3.51898 -0.827631 0
M  V30 4502 O 439.768 -4.37231 0.275855 0
M  V30 4503 C 441.269 -4.16577 -1.51587 0
M  V30 4504 H 438.489 -0.666335 -0.0789892 0
M  V30 4505 H 441.033 -2.00423 0.406294 0
M  V30 4506 H 439.188 -3.55909 -1.52996 0
M  V30 4507 H 439.602 -5.24415 -0.0943638 0
M  V30 4508 H 441.076 -5.21678 -1.80433 0
M  V30 4509 H 441.553 -3.64707 -2.44716 0
M  V30 4510 H 442.159 -4.16568 -0.857409 0
M  V30 4511 N 440.474 -0.00167713 -1.576 0
M  V30 4512 C 441.723 0.682021 -1.89819 0
M  V30 4513 C 442.036 1.74844 -0.876871 0
M  V30 4514 O 443.242 2.48688 -1.08934 0
M  V30 4515 C 441.698 1.26425 -3.36964 0
M  V30 4516 C 441.306 0.232568 -4.47396 0
M  V30 4517 C 443.05 1.92604 -3.78291 0
M  V30 4518 C 440.957 0.824882 -5.85619 0
M  V30 4519 H 439.887 0.258499 -0.708304 0
M  V30 4520 H 442.538 -0.0624957 -1.83394 0
M  V30 4521 H 440.92 2.05949 -3.38232 0
M  V30 4522 H 442.094 -0.5382 -4.57646 0
M  V30 4523 H 440.409 -0.32888 -4.15099 0
M  V30 4524 H 443.006 2.37827 -4.78897 0
M  V30 4525 H 443.349 2.75732 -3.11894 0
M  V30 4526 H 443.882 1.19812 -3.79328 0
M  V30 4527 H 440.621 0.0323542 -6.55492 0
M  V30 4528 H 440.141 1.56477 -5.79029 0
M  V30 4529 H 441.82 1.32301 -6.33329 0
M  V30 4530 N 441.952 1.55251 0.271103 0
M  V30 4531 C 442.899 1.88261 1.33516 0
M  V30 4532 C 443.869 0.734296 1.48988 0
M  V30 4533 O 445.054 0.985741 1.63364 0
M  V30 4534 C 442.194 2.16168 2.69008 0
M  V30 4535 C 441.307 3.43678 2.61743 0
M  V30 4536 C 440.442 3.61276 3.89427 0
M  V30 4537 C 439.481 4.82472 3.7668 0
M  V30 4538 N 438.618 4.96717 4.96202 0
M  V30 4539 H 443.458 2.79015 1.04665 0
M  V30 4540 H 440.995 1.38137 0.505618 0
M  V30 4541 H 442.953 2.30349 3.47844 0
M  V30 4542 H 441.583 1.28646 2.96057 0
M  V30 4543 H 440.635 3.37959 1.74607 0
M  V30 4544 H 441.947 4.3265 2.48224 0
M  V30 4545 H 441.101 3.75284 4.76704 0
M  V30 4546 H 439.84 2.70492 4.05814 0
M  V30 4547 H 438.845 4.68465 2.87786 0
M  V30 4548 H 440.07 5.74692 3.61809 0
M  V30 4549 H 438.016 4.08865 5.12997 0
M  V30 4550 H 437.933 5.79738 4.85222 0
M  V30 4551 H 439.201 5.15113 5.85046 0
M  V30 4552 N 443.43 -0.535701 1.48216 0
M  V30 4553 C 444.38 -1.63688 1.58714 0
M  V30 4554 C 445.364 -1.54635 0.444615 0
M  V30 4555 O 446.556 -1.62753 0.695742 0
M  V30 4556 C 443.685 -3.02423 1.62466 0
M  V30 4557 C 442.771 -3.16601 2.82178 0
M  V30 4558 N 443.162 -3.00771 4.06658 0
M  V30 4559 C 441.46 -3.47645 2.79391 0
M  V30 4560 C 442.161 -3.18213 4.86945 0
M  V30 4561 N 441.137 -3.45528 4.19656 0
M  V30 4562 H 444.939 -1.5005 2.5271 0
M  V30 4563 H 442.453 -0.741018 1.44508 0
M  V30 4564 H 444.45 -3.81517 1.6808 0
M  V30 4565 H 443.11 -3.17157 0.695826 0
M  V30 4566 H 444.121 -2.77652 4.37184 0
M  V30 4567 H 440.798 -3.68771 1.95739 0
M  V30 4568 H 442.188 -3.1076 5.95716 0
M  V30 4569 N 444.908 -1.36708 -0.784132 0
M  V30 4570 C 445.838 -1.34153 -1.91116 0
M  V30 4571 C 446.819 -0.212121 -1.68772 0
M  V30 4572 O 448.004 -0.410581 -1.8981 0
M  V30 4573 C 445.134 -1.13535 -3.28218 0
M  V30 4574 C 444.088 -2.23356 -3.65097 0
M  V30 4575 C 443.414 -1.87875 -5.00607 0
M  V30 4576 C 444.714 -3.65473 -3.73131 0
M  V30 4577 H 446.408 -2.28459 -1.93512 0
M  V30 4578 H 443.954 -1.09973 -0.929618 0
M  V30 4579 H 445.907 -1.10381 -4.06687 0
M  V30 4580 H 444.631 -0.156804 -3.26223 0
M  V30 4581 H 443.29 -2.25645 -2.88929 0
M  V30 4582 H 442.938 -0.885814 -4.95139 0
M  V30 4583 H 442.638 -2.61406 -5.26252 0
M  V30 4584 H 444.162 -1.86286 -5.81489 0
M  V30 4585 H 445.576 -3.65382 -4.41779 0
M  V30 4586 H 443.973 -4.37953 -4.10265 0
M  V30 4587 H 445.043 -3.99995 -2.74102 0
M  V30 4588 N 446.386 1.0089 -1.21074 0
M  V30 4589 C 447.333 2.09588 -0.966512 0
M  V30 4590 C 448.303 1.65761 0.106089 0
M  V30 4591 O 449.488 1.90758 -0.0402287 0
M  V30 4592 C 446.628 3.40958 -0.533058 0
M  V30 4593 C 445.741 3.9822 -1.67467 0
M  V30 4594 C 444.876 5.17682 -1.19076 0
M  V30 4595 C 443.915 5.67043 -2.30496 0
M  V30 4596 N 443.052 6.77759 -1.83267 0
M  V30 4597 H 447.892 2.29815 -1.89708 0
M  V30 4598 H 445.429 1.12689 -0.945489 0
M  V30 4599 H 447.387 4.1637 -0.263019 0
M  V30 4600 H 446.017 3.20781 0.360505 0
M  V30 4601 H 445.069 3.1983 -2.05944 0
M  V30 4602 H 446.381 4.3085 -2.51336 0
M  V30 4603 H 445.535 6.00326 -0.877151 0
M  V30 4604 H 444.274 4.86635 -0.322066 0
M  V30 4605 H 443.279 4.82999 -2.62664 0
M  V30 4606 H 444.504 6.00121 -3.17855 0
M  V30 4607 H 442.45 6.48527 -0.987356 0
M  V30 4608 H 442.367 7.09624 -2.60711 0
M  V30 4609 H 443.635 7.63949 -1.54928 0
M  V30 4610 N 447.864 1.01787 1.20321 0
M  V30 4611 C 449.089 0.727009 1.9424 0
M  V30 4612 C 449.514 -0.706179 1.74341 0
M  V30 4613 O 448.872 -1.48609 1.03852 0
M  V30 4614 C 448.92 1.06958 3.44372 0
M  V30 4615 O 448.024 0.181983 4.11998 0
M  V30 4616 H 447.365 0.269626 0.606793 0
M  V30 4617 H 449.895 1.36158 1.52716 0
M  V30 4618 H 449.905 1.02182 3.94997 0
M  V30 4619 H 448.58 2.11378 3.58179 0
M  V30 4620 H 447.157 0.287378 3.71791 0
M  V30 4621 N 449.342 -1.36122 0.79427 0
M  V30 4622 C 450.292 -2.27373 0.169017 0
M  V30 4623 C 451.276 -1.4719 -0.649913 0
M  V30 4624 O 452.468 -1.69518 -0.50919 0
M  V30 4625 C 449.597 -3.36264 -0.691455 0
M  V30 4626 C 448.683 -4.2388 0.13653 0
M  V30 4627 N 449.074 -4.91519 1.19345 0
M  V30 4628 C 447.372 -4.45921 -0.0838499 0
M  V30 4629 C 448.073 -5.56369 1.6979 0
M  V30 4630 N 447.049 -5.34204 1.00634 0
M  V30 4631 H 450.851 -2.77154 0.977897 0
M  V30 4632 H 448.365 -1.49504 0.634208 0
M  V30 4633 H 450.362 -4.00572 -1.15534 0
M  V30 4634 H 449.022 -2.88037 -1.49883 0
M  V30 4635 H 450.033 -4.9334 1.57594 0
M  V30 4636 H 446.71 -4.08518 -0.861341 0
M  V30 4637 H 448.1 -6.20368 2.58055 0
M  V30 4638 N 450.82 -0.546701 -1.47814 0
M  V30 4639 C 452.231 -0.110564 -1.86372 0
M  V30 4640 C 452.582 1.31678 -1.45449 0
M  V30 4641 O 451.707 1.98889 -0.852758 0
M  V30 4642 C 452.302 -0.193873 -3.38245 0
M  V30 4643 C 450.861 0.187164 -3.75934 0
M  V30 4644 C 450.008 -0.546166 -2.71868 0
M  V30 4645 H 452.959 -0.757022 -1.39481 0
M  V30 4646 H 452.98 0.590218 -3.75895 0
M  V30 4647 H 452.492 -1.23282 -3.67999 0
M  V30 4648 H 450.593 1.22762 -3.51796 0
M  V30 4649 H 450.706 -0.164083 -4.78819 0
M  V30 4650 H 449.07 0.00953904 -2.54698 0
M  V30 4651 H 449.853 -1.58606 -3.04465 0
M  V30 4652 N 452.299 1.55045 -0.282633 0
M  V30 4653 C 453.246 2.22822 0.601566 0
M  V30 4654 C 454.216 1.20431 1.14392 0
M  V30 4655 O 455.401 1.48996 1.19184 0
M  V30 4656 C 452.541 2.95873 1.77632 0
M  V30 4657 C 451.654 4.12999 1.26711 0
M  V30 4658 C 450.789 4.73676 2.40426 0
M  V30 4659 C 449.828 5.82981 1.86545 0
M  V30 4660 N 448.965 6.3769 2.93762 0
M  V30 4661 H 453.805 2.97995 0.0169528 0
M  V30 4662 H 451.342 1.471 -0.00339964 0
M  V30 4663 H 453.3 3.36447 2.46697 0
M  V30 4664 H 451.93 2.2311 2.33285 0
M  V30 4665 H 450.982 3.77494 0.469314 0
M  V30 4666 H 452.294 4.91803 0.832518 0
M  V30 4667 H 451.448 5.17008 3.17471 0
M  V30 4668 H 450.187 3.94164 2.87203 0
M  V30 4669 H 449.192 5.39092 1.07983 0
M  V30 4670 H 450.417 6.64366 1.40694 0
M  V30 4671 H 448.363 5.61069 3.39908 0
M  V30 4672 H 448.28 7.11788 2.54744 0
M  V30 4673 H 449.548 6.8568 3.7076 0
M  V30 4674 N 453.777 0.010035 1.57597 0
M  V30 4675 C 455.002 -0.687021 1.95691 0
M  V30 4676 C 455.427 -1.65952 0.885519 0
M  V30 4677 O 454.785 -1.80633 -0.15543 0
M  V30 4678 C 454.833 -1.3864 3.32884 0
M  V30 4679 O 453.937 -2.50115 3.27897 0
M  V30 4680 H 453.278 -0.181989 0.638573 0
M  V30 4681 H 455.808 0.0662122 2.04493 0
M  V30 4682 H 455.818 -1.74754 3.6868 0
M  V30 4683 H 454.493 -0.673411 4.10412 0
M  V30 4684 H 453.07 -2.16253 3.03791 0
M  V30 4685 N 455.255 -1.55392 -0.262866 0
M  V30 4686 C 456.671 -1.47459 -0.610582 0
M  V30 4687 C 456.871 -0.697031 -1.8906 0
M  V30 4688 O 455.927 -0.219952 -2.5154 0
M  V30 4689 C 457.24 -2.91751 -0.728131 0
M  V30 4690 C 458.788 -3.02027 -0.821517 0
M  V30 4691 C 459.263 -4.47594 -0.97076 0
M  V30 4692 N 460.754 -4.51465 -1.03603 0
M  V30 4693 C 461.489 -5.61326 -1.17049 0
M  V30 4694 N 460.985 -6.81032 -1.2715 0
M  V30 4695 N 462.778 -5.49089 -1.20239 0
M  V30 4696 H 454.929 -2.04395 0.577632 0
M  V30 4697 H 457.192 -0.927287 0.197086 0
M  V30 4698 H 456.898 -3.51413 0.142132 0
M  V30 4699 H 456.772 -3.4134 -1.6052 0
M  V30 4700 H 459.159 -2.42456 -1.68224 0
M  V30 4701 H 459.24 -2.55674 0.0803688 0
M  V30 4702 H 458.884 -5.07771 -0.114655 0
M  V30 4703 H 458.814 -4.91613 -1.88745 0
M  V30 4704 H 461.305 -3.6524 -0.96996 0
M  V30 4705 H 461.618 -7.60511 -1.37271 0
M  V30 4706 H 459.963 -6.83824 -1.24136 0
M  V30 4707 H 463.154 -4.54507 -1.11985 0
M  V30 4708 H 463.327 -6.34749 -1.30373 0
M  V30 4709 N 456.733 0.527833 -1.48498 0
M  V30 4710 C 458.144 1.10975 -1.50138 0
M  V30 4711 C 458.495 1.943 -0.272378 0
M  V30 4712 O 457.62 2.07319 0.620301 0
M  V30 4713 C 458.215 2.01927 -2.72049 0
M  V30 4714 C 456.774 2.55332 -2.76554 0
M  V30 4715 C 455.921 1.32341 -2.43683 0
M  V30 4716 H 458.872 0.312986 -1.55583 0
M  V30 4717 H 458.893 2.86244 -2.50689 0
M  V30 4718 H 458.405 1.41254 -3.61481 0
M  V30 4719 H 456.506 3.19721 -1.91336 0
M  V30 4720 H 456.619 2.94319 -3.78038 0
M  V30 4721 H 454.983 1.63989 -1.94884 0
M  V30 4722 H 455.766 0.734165 -3.35358 0
M  V30 4723 N 458.211 1.37122 0.776871 0
M  V30 4724 C 459.488 1.22586 1.52421 0
M  V30 4725 C 459.868 -0.182726 2.10308 0
M  V30 4726 O 459.216 -1.18979 1.9508 0
M  V30 4727 C 459.426 2.31782 2.60918 0
M  V30 4728 C 460.774 2.69071 3.2846 0
M  V30 4729 O 461.798 2.3092 2.71209 0
M  V30 4730 O 460.657 3.3478 4.31954 0
M  V30 4731 H 457.751 0.478045 0.674835 0
M  V30 4732 H 460.297 1.48888 0.814275 0
M  V30 4733 H 459.069 3.26131 2.16227 0
M  V30 4734 H 458.692 2.06916 3.39517 0
M  V30 4735 N 459.689 -1.00246 1.21608 0
M  V30 4736 C 460.619 -2.10921 1.00172 0
M  V30 4737 C 461.6 -1.69938 -0.0741587 0
M  V30 4738 O 462.785 -1.94009 0.0861753 0
M  V30 4739 C 459.915 -3.42618 0.568355 0
M  V30 4740 C 458.869 -3.97407 1.58909 0
M  V30 4741 C 458.195 -5.25038 1.01187 0
M  V30 4742 C 459.495 -4.2918 2.97661 0
M  V30 4743 H 461.189 -2.29112 1.92739 0
M  V30 4744 H 458.735 -1.10101 0.928102 0
M  V30 4745 H 460.688 -4.19444 0.405555 0
M  V30 4746 H 459.412 -3.24227 -0.392961 0
M  V30 4747 H 458.071 -3.22703 1.73949 0
M  V30 4748 H 457.719 -5.02982 0.0421965 0
M  V30 4749 H 457.419 -5.62661 1.6937 0
M  V30 4750 H 458.943 -6.04507 0.860448 0
M  V30 4751 H 460.357 -4.96839 2.86049 0
M  V30 4752 H 458.754 -4.77952 3.6288 0
M  V30 4753 H 459.824 -3.3735 3.48315 0
M  V30 4754 N 461.167 -1.02423 -1.1978 0
M  V30 4755 C 462.395 -0.737456 -1.93311 0
M  V30 4756 C 462.81 0.703023 -1.75223 0
M  V30 4757 O 462.167 1.47761 -1.07112 0
M  V30 4758 C 462.218 -1.0733 -3.45199 0
M  V30 4759 O 461.939 -2.4572 -3.62702 0
M  V30 4760 C 463.44 -0.80866 -4.35862 0
M  V30 4761 H 460.66 -0.2702 -0.614193 0
M  V30 4762 H 463.204 -1.36747 -1.52054 0
M  V30 4763 H 461.359 -0.488545 -3.84307 0
M  V30 4764 H 461.773 -2.58081 -4.56612 0
M  V30 4765 H 463.247 -1.09365 -5.41057 0
M  V30 4766 H 463.724 0.257025 -4.38447 0
M  V30 4767 H 464.33 -1.37592 -4.02428 0
M  V30 4768 N 462.645 1.35699 -0.801477 0
M  V30 4769 C 463.892 1.98913 -0.379459 0
M  V30 4770 C 464.22 1.63592 1.05204 0
M  V30 4771 O 463.475 0.888563 1.74365 0
M  V30 4772 C 463.774 3.53828 -0.504041 0
M  V30 4773 C 463.44 4.09002 -1.8981 0
M  V30 4774 C 462.102 4.23783 -2.27951 0
M  V30 4775 C 464.454 4.38939 -2.81038 0
M  V30 4776 C 461.782 4.65816 -3.56696 0
M  V30 4777 C 464.134 4.82409 -4.09224 0
M  V30 4778 C 462.798 4.95395 -4.4737 0
M  V30 4779 H 462.068 0.727874 -0.138854 0
M  V30 4780 H 464.715 1.61994 -1.02128 0
M  V30 4781 H 463.02 3.91175 0.221242 0
M  V30 4782 H 464.717 4.00687 -0.158361 0
M  V30 4783 H 461.307 3.97946 -1.59176 0
M  V30 4784 H 465.491 4.27077 -2.52821 0
M  V30 4785 H 460.747 4.74059 -3.86106 0
M  V30 4786 H 464.921 5.04535 -4.80018 0
M  V30 4787 H 462.548 5.27724 -5.47185 0
M  V30 4788 N 464.123 0.554532 1.47522 0
M  V30 4789 C 465.053 -0.182974 2.32782 0
M  V30 4790 C 466.034 -0.911377 1.43624 0
M  V30 4791 O 467.219 -0.892366 1.72483 0
M  V30 4792 C 464.349 -1.21513 3.25349 0
M  V30 4793 C 463.303 -0.603355 4.23726 0
M  V30 4794 C 462.629 -1.73995 5.05598 0
M  V30 4795 C 463.929 0.441121 5.20434 0
M  V30 4796 H 465.623 0.52882 2.94693 0
M  V30 4797 H 463.169 0.255759 1.41711 0
M  V30 4798 H 465.122 -1.73922 3.83835 0
M  V30 4799 H 463.846 -1.95683 2.61487 0
M  V30 4800 H 462.505 -0.10059 3.66462 0
M  V30 4801 H 462.153 -2.47063 4.38143 0
M  V30 4802 H 461.853 -1.3364 5.72201 0
M  V30 4803 H 463.377 -2.26735 5.66942 0
M  V30 4804 H 464.791 0.00319931 5.733 0
M  V30 4805 H 463.188 0.763402 5.95224 0
M  V30 4806 H 464.258 1.33799 4.66075 0
M  V30 4807 N 465.601 -1.54893 0.290851 0
M  V30 4808 C 466.826 -2.04804 -0.32712 0
M  V30 4809 C 467.251 -1.16721 -1.47506 0
M  V30 4810 O 466.609 -0.169107 -1.8051 0
M  V30 4811 C 466.657 -3.52268 -0.770689 0
M  V30 4812 O 465.761 -3.67236 -1.87647 0
M  V30 4813 H 465.102 -0.660789 -0.0652227 0
M  V30 4814 H 467.632 -2.00036 0.429739 0
M  V30 4815 H 467.642 -3.9393 -1.06223 0
M  V30 4816 H 466.317 -4.15843 0.069096 0
M  V30 4817 H 464.894 -3.37479 -1.58626 0
M  V30 4818 N 467.08 -0.0183926 -1.57589 0
M  V30 4819 C 468.305 0.676634 -1.96052 0
M  V30 4820 C 468.73 1.6548 -0.894307 0
M  V30 4821 O 468.088 1.80712 0.145849 0
M  V30 4822 C 468.136 1.36872 -3.33614 0
M  V30 4823 O 467.24 2.48372 -3.29219 0
M  V30 4824 H 466.581 0.1786 -0.63953 0
M  V30 4825 H 469.111 -0.077056 -2.04455 0
M  V30 4826 H 469.121 1.72797 -3.69601 0
M  V30 4827 H 467.796 0.651636 -4.10763 0
M  V30 4828 H 466.373 2.14639 -3.04934 0
M  V30 4829 N 468.558 1.5553 0.254621 0
M  V30 4830 C 469.788 1.80784 1.00004 0
M  V30 4831 C 470.196 0.59071 1.79742 0
M  V30 4832 O 469.539 -0.449988 1.78103 0
M  V30 4833 C 469.601 2.99268 1.99196 0
M  V30 4834 C 469.265 4.35595 1.38224 0
M  V30 4835 C 470.262 5.13884 0.788611 0
M  V30 4836 C 467.947 4.82281 1.40393 0
M  V30 4837 C 469.941 6.37004 0.224783 0
M  V30 4838 C 467.628 6.05351 0.836243 0
M  V30 4839 C 468.626 6.82551 0.24769 0
M  V30 4840 O 468.314 8.03297 -0.311249 0
M  V30 4841 H 468.046 0.60565 0.300274 0
M  V30 4842 H 470.6 2.03411 0.285143 0
M  V30 4843 H 468.83 2.72377 2.74496 0
M  V30 4844 H 470.519 3.11682 2.60018 0
M  V30 4845 H 471.285 4.78938 0.764423 0
M  V30 4846 H 467.164 4.22189 1.85142 0
M  V30 4847 H 470.708 6.97203 -0.235235 0
M  V30 4848 H 466.605 6.39776 0.857733 0
M  V30 4849 H 467.373 8.1825 -0.20237 0
M  V30 4850 N 470.036 -0.519951 1.48776 0
M  V30 4851 C 471.261 -1.30447 1.6124 0
M  V30 4852 C 471.686 -1.86055 0.276591 0
M  V30 4853 O 471.044 -1.64915 -0.753183 0
M  V30 4854 C 471.092 -2.42406 2.66967 0
M  V30 4855 O 470.196 -3.45728 2.24824 0
M  V30 4856 H 469.537 -0.385924 0.540332 0
M  V30 4857 H 472.067 -0.624572 1.94834 0
M  V30 4858 H 472.077 -2.88447 2.88552 0
M  V30 4859 H 470.752 -2.01294 3.63941 0
M  V30 4860 H 469.329 -3.05737 2.13494 0
M  V30 4861 N 471.514 -1.37532 -0.769588 0
M  V30 4862 C 472.462 -1.33561 -1.90432 0
M  V30 4863 C 473.456 -0.224027 -1.67912 0
M  V30 4864 O 474.662 -0.392174 -1.75676 0
M  V30 4865 H 471.037 -0.416279 -0.626271 0
M  V30 4866 H 473.008 -2.29348 -1.90899 0
M  V30 4867 C 471.757 -1.16162 -3.27722 0
M  V30 4868 H 471.08 -2.00951 -3.45628 0
M  V30 4869 H 472.52 -1.17434 -4.07413 0
M  V30 4870 C 470.979 0.132583 -3.36639 0
M  V30 4871 O 471.509 1.11539 -3.85904 0
M  V30 4872 N 469.715 0.184013 -2.90017 0
M  V30 4873 H 469.262 -0.616415 -2.50116 0
M  V30 4874 H 469.22 1.04956 -2.96364 0
M  V30 4875 N 472.992 0.995999 -1.22138 0
M  V30 4876 C 474.408 1.25917 -0.980667 0
M  V30 4877 C 474.608 1.98819 0.327604 0
M  V30 4878 O 473.664 2.29587 1.05101 0
M  V30 4879 C 474.977 2.07399 -2.17729 0
M  V30 4880 C 476.525 2.20594 -2.22052 0
M  V30 4881 C 477 3.05462 -3.41258 0
M  V30 4882 N 478.491 3.13049 -3.41401 0
M  V30 4883 C 479.226 3.78997 -4.30289 0
M  V30 4884 N 478.722 4.46899 -5.2939 0
M  V30 4885 N 480.515 3.75728 -4.18073 0
M  V30 4886 H 472.666 0.507158 -2.06256 0
M  V30 4887 H 474.929 0.28658 -0.903646 0
M  V30 4888 H 474.635 1.61191 -3.12586 0
M  V30 4889 H 474.509 3.08154 -2.17534 0
M  V30 4890 H 476.896 2.66017 -1.27745 0
M  V30 4891 H 476.977 1.1928 -2.26287 0
M  V30 4892 H 476.621 2.60739 -4.35864 0
M  V30 4893 H 476.551 4.06911 -3.34262 0
M  V30 4894 H 479.042 2.64721 -2.69688 0
M  V30 4895 H 479.355 4.94952 -5.935 0
M  V30 4896 H 477.7 4.45657 -5.33306 0
M  V30 4897 H 480.891 3.2184 -3.39907 0
M  V30 4898 H 481.064 4.26845 -4.87553 0
M  V30 4899 N 474.47 1.03057 1.19235 0
M  V30 4900 C 475.418 0.606391 2.24557 0
M  V30 4901 C 476.412 -0.361826 1.65491 0
M  V30 4902 O 477.618 -0.23022 1.78522 0
M  V30 4903 H 473.993 0.177838 0.730669 0
M  V30 4904 H 475.964 1.50529 2.5765 0
M  V30 4905 C 474.713 -0.0252127 3.47691 0
M  V30 4906 H 474.036 0.710838 3.9343 0
M  V30 4907 H 475.476 -0.284931 4.23042 0
M  V30 4908 C 473.935 -1.27229 3.11953 0
M  V30 4909 O 474.465 -2.36416 3.24762 0
M  V30 4910 N 472.671 -1.16169 2.6637 0
M  V30 4911 H 472.218 -0.273189 2.56147 0
M  V30 4912 H 472.176 -1.99703 2.42829 0
M  V30 4913 N 475.948 -1.35272 0.808662 0
M  V30 4914 C 477.178 -2.02652 0.401953 0
M  V30 4915 C 477.586 -1.6108 -0.992462 0
M  V30 4916 O 476.929 -0.804984 -1.65123 0
M  V30 4917 C 476.991 -3.57174 0.408246 0
M  V30 4918 C 476.655 -4.22019 1.75353 0
M  V30 4919 C 477.652 -4.43552 2.71215 0
M  V30 4920 C 475.337 -4.59093 2.03811 0
M  V30 4921 C 477.331 -5.01264 3.93717 0
M  V30 4922 C 475.018 -5.16519 3.26576 0
M  V30 4923 C 476.016 -5.37546 4.21347 0
M  V30 4924 O 475.704 -5.93761 5.41944 0
M  V30 4925 H 475.436 -0.656495 0.161216 0
M  V30 4926 H 477.99 -1.73829 1.0942 0
M  V30 4927 H 476.22 -3.85197 -0.340608 0
M  V30 4928 H 477.909 -4.05893 0.0235623 0
M  V30 4929 H 478.675 -4.15288 2.50522 0
M  V30 4930 H 474.554 -4.42039 1.30854 0
M  V30 4931 H 478.098 -5.17592 4.67701 0
M  V30 4932 H 473.995 -5.4421 3.47139 0
M  V30 4933 H 474.763 -6.1221 5.43269 0
M  V30 4934 N 477.426 -0.562348 -1.47226 0
M  V30 4935 C 478.703 0.0256985 -1.95583 0
M  V30 4936 C 479.083 1.48032 -1.50498 0
M  V30 4937 O 478.431 2.15973 -0.746181 0
M  V30 4938 C 478.641 -0.125129 -3.48776 0
M  V30 4939 C 479.989 0.0175728 -4.24596 0
M  V30 4940 O 481.013 -0.0529341 -3.56161 0
M  V30 4941 O 479.872 0.170145 -5.46235 0
M  V30 4942 H 476.966 0.0612565 -0.824728 0
M  V30 4943 H 479.512 -0.629233 -1.57603 0
M  V30 4944 H 478.284 -1.13715 -3.74412 0
M  V30 4945 H 477.907 0.567178 -3.93534 0
M  V30 4946 N 478.904 1.54736 -0.299062 0
M  V30 4947 C 479.834 2.26409 0.571085 0
M  V30 4948 C 480.815 1.2629 1.13951 0
M  V30 4949 O 482 1.55059 1.16921 0
M  V30 4950 C 479.13 3.00338 1.74396 0
M  V30 4951 C 478.084 4.07588 1.30599 0
M  V30 4952 C 477.41 4.69222 2.56387 0
M  V30 4953 C 478.71 5.20455 0.438645 0
M  V30 4954 H 480.404 2.99388 -0.0266991 0
M  V30 4955 H 477.95 1.43993 -0.0142812 0
M  V30 4956 H 479.903 3.49198 2.35878 0
M  V30 4957 H 478.627 2.24934 2.36796 0
M  V30 4958 H 477.286 3.59575 0.71424 0
M  V30 4959 H 476.934 3.9046 3.17097 0
M  V30 4960 H 476.634 5.41653 2.27784 0
M  V30 4961 H 478.158 5.20844 3.18675 0
M  V30 4962 H 479.572 5.65221 0.959085 0
M  V30 4963 H 477.969 5.99594 0.246466 0
M  V30 4964 H 479.039 4.8192 -0.536738 0
M  V30 4965 N 480.382 0.0267497 1.57577 0
M  V30 4966 C 481.607 -0.666227 1.96408 0
M  V30 4967 C 482.032 -1.65004 0.903071 0
M  V30 4968 O 481.39 -1.80787 -0.136263 0
M  V30 4969 C 481.438 -1.35101 3.34335 0
M  V30 4970 O 480.542 -2.46623 3.30531 0
M  V30 4971 H 479.883 -0.175206 0.640468 0
M  V30 4972 H 482.413 0.0878977 2.04411 0
M  V30 4973 H 482.423 -1.70834 3.70513 0
M  V30 4974 H 481.098 -0.629844 4.11103 0
M  V30 4975 H 479.675 -2.13019 3.06068 0
M  V30 4976 N 481.861 -1.55662 -0.24637 0
M  V30 4977 C 483.086 -1.81914 -0.996093 0
M  V30 4978 C 483.511 -0.603875 -1.78143 0
M  V30 4979 O 482.869 0.447091 -1.75701 0
M  V30 4980 C 482.917 -3.05908 -1.90925 0
M  V30 4981 O 482.021 -2.82861 -3.00105 0
M  V30 4982 H 481.362 -0.600481 -0.283406 0
M  V30 4983 H 483.892 -2.02848 -0.267199 0
M  V30 4984 H 483.902 -3.35356 -2.3238 0
M  V30 4985 H 482.577 -3.93999 -1.33183 0
M  V30 4986 H 481.154 -2.64583 -2.62775 0
M  V30 4987 N 483.339 0.512053 -1.4905 0
M  V30 4988 C 484.271 1.63121 -1.6101 0
M  V30 4989 C 485.284 1.55145 -0.493352 0
M  V30 4990 O 486.473 1.61278 -0.764955 0
M  V30 4991 C 483.573 3.01863 -1.54052 0
M  V30 4992 C 482.746 3.35138 -2.81072 0
M  V30 4993 C 481.805 4.5324 -2.67319 0
M  V30 4994 O 480.831 4.55571 -3.41238 0
M  V30 4995 N 482.033 5.52495 -1.78127 0
M  V30 4996 H 484.798 1.53292 -2.5753 0
M  V30 4997 H 482.359 0.699706 -1.45999 0
M  V30 4998 H 484.351 3.78774 -1.42521 0
M  V30 4999 H 482.921 3.05675 -0.654345 0
M  V30 5000 H 482.141 2.4723 -3.07036 0
M  V30 5001 H 483.429 3.54162 -3.65304 0
M  V30 5002 H 482.827 5.53403 -1.17308 0
M  V30 5003 H 481.384 6.28553 -1.72525 0
M  V30 5004 N 484.817 1.37938 0.762283 0
M  V30 5005 C 485.767 1.30976 1.86626 0
M  V30 5006 C 486.751 0.195714 1.59705 0
M  V30 5007 O 487.943 0.430937 1.71674 0
M  V30 5008 C 485.072 1.12847 3.24223 0
M  V30 5009 C 484.158 2.28836 3.57064 0
M  V30 5010 N 484.549 3.54256 3.61022 0
M  V30 5011 C 482.847 2.21198 3.87282 0
M  V30 5012 C 483.548 4.30798 3.90881 0
M  V30 5013 N 482.524 3.60049 4.07266 0
M  V30 5014 H 486.326 2.25946 1.87951 0
M  V30 5015 H 483.84 1.31046 0.959206 0
M  V30 5016 H 485.837 1.05943 4.03214 0
M  V30 5017 H 484.497 0.188024 3.24155 0
M  V30 5018 H 485.508 3.8804 3.42995 0
M  V30 5019 H 482.185 1.35264 3.94981 0
M  V30 5020 H 483.575 5.39386 4.00639 0
M  V30 5021 N 486.295 -0.989507 1.22664 0
M  V30 5022 C 487.225 -2.09847 1.02404 0
M  V30 5023 C 488.206 -1.70007 -0.0561303 0
M  V30 5024 O 489.391 -1.93906 0.106748 0
M  V30 5025 C 486.521 -3.41996 0.604663 0
M  V30 5026 C 485.475 -3.95699 1.63115 0
M  V30 5027 C 484.801 -5.23936 1.0675 0
M  V30 5028 C 486.101 -4.25999 3.02196 0
M  V30 5029 H 487.795 -2.27054 1.95158 0
M  V30 5030 H 485.341 -1.09111 0.939727 0
M  V30 5031 H 487.294 -4.1899 0.45002 0
M  V30 5032 H 486.018 -3.24626 -0.35855 0
M  V30 5033 H 484.677 -3.2084 1.77362 0
M  V30 5034 H 484.325 -5.02909 0.0955422 0
M  V30 5035 H 484.025 -5.60833 1.75328 0
M  V30 5036 H 485.549 -6.0356 0.924516 0
M  V30 5037 H 486.963 -4.93777 2.91303 0
M  V30 5038 H 485.36 -4.74076 3.67929 0
M  V30 5039 H 486.43 -3.33636 3.51873 0
M  V30 5040 N 487.773 -1.03688 -1.18687 0
M  V30 5041 C 489.001 -0.757918 -1.92518 0
M  V30 5042 C 489.416 0.684398 -1.75959 0
M  V30 5043 O 488.773 1.46617 -1.08673 0
M  V30 5044 C 488.824 -1.10985 -3.44042 0
M  V30 5045 O 488.545 -2.49554 -3.60076 0
M  V30 5046 C 490.046 -0.854844 -4.3498 0
M  V30 5047 H 487.266 -0.276699 -0.611293 0
M  V30 5048 H 489.81 -1.38352 -1.50595 0
M  V30 5049 H 487.965 -0.529279 -3.83767 0
M  V30 5050 H 488.379 -2.6291 -4.53849 0
M  V30 5051 H 489.853 -1.15098 -5.39867 0
M  V30 5052 H 490.33 0.210507 -4.38695 0
M  V30 5053 H 490.936 -1.41853 -4.00946 0
M  V30 5054 N 489.251 1.34841 -0.815825 0
M  V30 5055 C 490.491 2.00321 -0.406297 0
M  V30 5056 C 490.855 1.63293 1.00992 0
M  V30 5057 O 492.056 2.21563 1.52195 0
M  V30 5058 C 490.327 3.52421 -0.594469 0
M  V30 5059 S 491.886 4.37926 -0.276735 0
M  V30 5060 H 488.704 0.694155 -0.153848 0
M  V30 5061 H 491.306 1.64263 -1.06009 0
M  V30 5062 H 490.01 3.76858 -1.625 0
M  V30 5063 H 489.541 3.9333 0.0743157 0
M  V30 5064 H 491.556 4.87743 0.912215 0
M  V30 5065 N 490.729 0.570148 1.46925 0
M  V30 5066 C 491.976 0.0509529 2.02436 0
M  V30 5067 C 492.304 -1.30405 1.44308 0
M  V30 5068 O 491.559 -1.86493 0.593198 0
M  V30 5069 C 491.858 -0.0780336 3.57315 0
M  V30 5070 C 491.524 1.20775 4.34424 0
M  V30 5071 C 490.186 1.56004 4.5521 0
M  V30 5072 C 492.538 2.0592 4.78797 0
M  V30 5073 C 489.866 2.76201 5.17619 0
M  V30 5074 C 492.218 3.25332 5.42533 0
M  V30 5075 C 490.882 3.60859 5.61549 0
M  V30 5076 H 490.152 0.018645 0.740765 0
M  V30 5077 H 492.799 0.744262 1.76445 0
M  V30 5078 H 491.104 -0.854394 3.82371 0
M  V30 5079 H 492.801 -0.495312 3.97929 0
M  V30 5080 H 489.391 0.923469 4.18533 0
M  V30 5081 H 493.575 1.80008 4.62505 0
M  V30 5082 H 488.831 3.0388 5.30535 0
M  V30 5083 H 493.005 3.91586 5.75876 0
M  V30 5084 H 490.632 4.54088 6.09678 0
M  V30 5085 N 492.207 -1.54576 0.307264 0
M  V30 5086 C 493.484 -1.92377 -0.353605 0
M  V30 5087 C 493.864 -1.23517 -1.71192 0
M  V30 5088 O 493.212 -0.373101 -2.25433 0
M  V30 5089 C 493.422 -3.45928 -0.462039 0
M  V30 5090 C 494.77 -4.18278 -0.729975 0
M  V30 5091 O 495.794 -3.51997 -0.545605 0
M  V30 5092 O 494.653 -5.3563 -1.08454 0
M  V30 5093 H 491.747 -0.802747 -0.198812 0
M  V30 5094 H 494.293 -1.65929 0.355783 0
M  V30 5095 H 493.065 -3.88187 0.492592 0
M  V30 5096 H 492.688 -3.78431 -1.21965 0
M  V30 5097 N 493.685 -0.035106 -1.57561 0
M  V30 5098 C 494.933 0.64096 -1.91667 0
M  V30 5099 C 495.254 1.72323 -0.912681 0
M  V30 5100 O 494.524 1.95849 0.0449089 0
M  V30 5101 H 493.104 0.239743 -0.707483 0
M  V30 5102 H 495.766 -0.084321 -1.94718 0
M  V30 5103 H 494.862 1.08987 -2.92452 0
M  V30 5104 N 495.163 1.55791 0.238111 0
M  V30 5105 C 496.411 1.77681 0.963001 0
M  V30 5106 C 496.732 0.600674 1.85518 0
M  V30 5107 O 496.002 -0.383182 1.92116 0
M  V30 5108 H 494.582 0.655315 0.358568 0
M  V30 5109 H 497.244 1.93239 0.253945 0
M  V30 5110 H 496.34 2.69177 1.57956 0
M  V30 5111 N 496.642 -0.504142 1.49319 0
M  V30 5112 C 497.867 -1.28729 1.62615 0
M  V30 5113 C 498.292 -1.85752 0.296309 0
M  V30 5114 O 497.65 -1.65704 -0.735649 0
M  V30 5115 C 497.698 -2.39561 2.69524 0
M  V30 5116 O 496.802 -3.43324 2.28478 0
M  V30 5117 H 496.143 -0.380172 0.544395 0
M  V30 5118 H 498.673 -0.603872 1.95485 0
M  V30 5119 H 498.683 -2.8537 2.91595 0
M  V30 5120 H 497.358 -1.97423 3.66056 0
M  V30 5121 H 495.935 -3.03455 2.16725 0
M  V30 5122 N 498.12 -1.38341 -0.754957 0
M  V30 5123 C 499.367 -1.34473 -1.51404 0
M  V30 5124 C 499.695 0.0656458 -1.94389 0
M  V30 5125 O 498.95 1.04244 -1.65625 0
M  V30 5126 C 499.249 -2.2452 -2.78075 0
M  V30 5127 C 498.915 -3.72512 -2.54059 0
M  V30 5128 C 497.577 -4.1284 -2.47218 0
M  V30 5129 C 499.929 -4.66197 -2.33044 0
M  V30 5130 C 497.257 -5.44945 -2.17376 0
M  V30 5131 C 499.609 -5.98558 -2.04723 0
M  V30 5132 C 498.273 -6.37972 -1.96337 0
M  V30 5133 H 497.543 -0.492072 -0.554027 0
M  V30 5134 H 500.19 -1.70687 -0.868223 0
M  V30 5135 H 498.495 -1.81357 -3.473 0
M  V30 5136 H 500.192 -2.18832 -3.36026 0
M  V30 5137 H 496.782 -3.40538 -2.60253 0
M  V30 5138 H 500.966 -4.35888 -2.37309 0
M  V30 5139 H 496.222 -5.74426 -2.09391 0
M  V30 5140 H 500.396 -6.70693 -1.87465 0
M  V30 5141 H 498.023 -7.40258 -1.72978 0
M  V30 5142 N 499.598 0.982988 -1.23187 0
M  V30 5143 C 500.528 2.09301 -1.03515 0
M  V30 5144 C 501.509 1.70035 0.0471136 0
M  V30 5145 O 502.694 1.93847 -0.117029 0
M  V30 5146 C 499.824 3.4167 -0.622791 0
M  V30 5147 C 498.778 3.94828 -1.65211 0
M  V30 5148 C 498.104 5.23362 -1.09527 0
M  V30 5149 C 499.404 4.2439 -3.04451 0
M  V30 5150 H 501.098 2.26016 -1.96359 0
M  V30 5151 H 498.644 1.08611 -0.945501 0
M  V30 5152 H 500.597 4.18746 -0.472233 0
M  V30 5153 H 499.321 3.24811 0.341329 0
M  V30 5154 H 497.98 3.19895 -1.79061 0
M  V30 5155 H 497.628 5.02852 -0.122211 0
M  V30 5156 H 497.328 5.59895 -1.783 0
M  V30 5157 H 498.852 6.03062 -0.956511 0
M  V30 5158 H 500.266 4.92225 -2.93917 0
M  V30 5159 H 498.663 4.72118 -3.70438 0
M  V30 5160 H 499.733 3.31765 -3.53638 0
M  V30 5161 N 501.076 1.04316 1.18135 0
M  V30 5162 C 502.006 0.657299 2.24058 0
M  V30 5163 C 502.987 -0.340678 1.66654 0
M  V30 5164 O 504.172 -0.220223 1.92947 0
M  V30 5165 C 501.302 0.0220715 3.47293 0
M  V30 5166 C 500.256 0.943857 4.17463 0
M  V30 5167 C 499.582 0.172973 5.3442 0
M  V30 5168 C 500.882 2.26409 4.70677 0
M  V30 5169 H 502.576 1.5428 2.56589 0
M  V30 5170 H 500.122 0.743263 1.23335 0
M  V30 5171 H 502.075 -0.259607 4.206 0
M  V30 5172 H 500.799 -0.898323 3.14003 0
M  V30 5173 H 499.458 1.20996 3.46057 0
M  V30 5174 H 499.106 -0.749907 4.97379 0
M  V30 5175 H 498.806 0.787098 5.82304 0
M  V30 5176 H 500.33 -0.101628 6.10515 0
M  V30 5177 H 501.744 2.04294 5.35665 0
M  V30 5178 H 500.141 2.8314 5.29105 0
M  V30 5179 H 501.211 2.90883 3.87962 0
M  V30 5180 N 502.554 -1.34406 0.822964 0
M  V30 5181 C 503.802 -1.97892 0.410245 0
M  V30 5182 C 504.123 -1.65567 -1.03017 0
M  V30 5183 O 503.393 -0.94642 -1.71522 0
M  V30 5184 H 501.973 -0.732049 0.148707 0
M  V30 5185 H 504.635 -1.64043 1.05242 0
M  V30 5186 H 503.731 -3.07579 0.529284 0
M  V30 5187 N 504.032 -0.577932 -1.46621 0
M  V30 5188 C 505.28 -0.061566 -2.02006 0
M  V30 5189 C 505.601 1.30117 -1.4524 0
M  V30 5190 O 504.871 1.85313 -0.63529 0
M  V30 5191 H 503.451 -0.0197692 -0.746738 0
M  V30 5192 H 506.113 -0.752631 -1.79782 0
M  V30 5193 H 505.209 0.0110238 -3.12098 0
M  V30 5194 N 505.51 1.54411 -0.315457 0
M  V30 5195 C 506.738 2.04833 0.291738 0
M  V30 5196 C 507.153 1.19203 1.46411 0
M  V30 5197 O 506.51 0.220867 1.81159 0
M  V30 5198 C 506.561 3.53969 0.73404 0
M  V30 5199 O 506.282 4.36346 -0.391682 0
M  V30 5200 C 507.783 4.2045 1.40489 0
M  V30 5201 H 505.003 0.668195 0.0612947 0
M  V30 5202 H 507.547 1.99276 -0.45929 0
M  V30 5203 H 505.702 3.5984 1.43506 0
M  V30 5204 H 506.116 5.24481 -0.0447088 0
M  V30 5205 H 507.59 5.26278 1.66539 0
M  V30 5206 H 508.067 3.71067 2.3496 0
M  V30 5207 H 508.673 4.18694 0.746662 0
M  V30 5208 N 506.988 0.0434614 1.5754 0
M  V30 5209 C 508.234 -0.632971 1.92669 0
M  V30 5210 C 508.567 -1.70947 0.921446 0
M  V30 5211 O 507.842 -1.94426 -0.0537202 0
M  V30 5212 C 508.125 -1.23619 3.38216 0
M  V30 5213 C 507.978 -0.168274 4.49485 0
M  V30 5214 C 509.297 -2.15008 3.84005 0
M  V30 5215 H 506.416 -0.228629 0.700641 0
M  V30 5216 H 509.058 0.103651 1.89717 0
M  V30 5217 H 507.208 -1.864 3.40863 0
M  V30 5218 H 508.88 0.463196 4.58969 0
M  V30 5219 H 507.123 0.504581 4.30855 0
M  V30 5220 H 507.794 -0.630218 5.48391 0
M  V30 5221 H 510.27 -1.62198 3.83185 0
M  V30 5222 H 509.146 -2.54161 4.86511 0
M  V30 5223 H 509.407 -3.04707 3.20322 0
M  V30 5224 N 508.466 -1.55915 -0.229846 0
M  V30 5225 C 509.396 -1.94754 -1.28815 0
M  V30 5226 C 510.377 -0.814657 -1.49323 0
M  V30 5227 O 511.562 -1.07631 -1.61645 0
M  V30 5228 C 508.692 -2.25705 -2.63959 0
M  V30 5229 C 507.646 -3.41406 -2.5812 0
M  V30 5230 C 506.972 -3.57941 -3.97218 0
M  V30 5231 C 508.272 -4.76616 -2.13623 0
M  V30 5232 H 509.966 -2.83404 -0.965547 0
M  V30 5233 H 507.512 -1.36353 -0.463028 0
M  V30 5234 H 509.465 -2.51467 -3.38146 0
M  V30 5235 H 508.189 -1.339 -2.9789 0
M  V30 5236 H 506.848 -3.1568 -1.86391 0
M  V30 5237 H 506.496 -2.63526 -4.28443 0
M  V30 5238 H 506.196 -4.35757 -3.94195 0
M  V30 5239 H 507.72 -3.86042 -4.73079 0
M  V30 5240 H 509.134 -5.01637 -2.77549 0
M  V30 5241 H 507.531 -5.57655 -2.21677 0
M  V30 5242 H 508.601 -4.7253 -1.08829 0
M  V30 5243 N 509.944 0.496216 -1.49584 0
M  V30 5244 C 511.221 1.25755 -1.49816 0
M  V30 5245 C 511.601 2.09859 -0.228572 0
M  V30 5246 O 510.949 2.14449 0.788908 0
M  V30 5247 C 511.159 2.11017 -2.7798 0
M  V30 5248 C 512.507 2.70047 -3.27658 0
M  V30 5249 O 513.531 2.21281 -2.79129 0
M  V30 5250 O 512.39 3.58834 -4.1219 0
M  V30 5251 H 509.484 0.569322 -0.599834 0
M  V30 5252 H 512.03 0.510094 -1.61852 0
M  V30 5253 H 510.802 1.48879 -3.61871 0
M  V30 5254 H 510.425 2.92947 -2.68827 0
M  V30 5255 N 511.423 1.38739 0.74761 0
M  V30 5256 C 512.839 1.20067 1.05148 0
M  V30 5257 C 513.039 0.0534835 2.01429 0
M  V30 5258 O 512.095 -0.59886 2.45296 0
M  V30 5259 C 513.408 2.52957 1.62584 0
M  V30 5260 C 514.956 2.59692 1.74726 0
M  V30 5261 C 515.431 3.92772 2.35573 0
M  V30 5262 N 516.922 3.94343 2.42997 0
M  V30 5263 C 517.657 4.9408 2.90985 0
M  V30 5264 N 517.153 6.04214 3.38965 0
M  V30 5265 N 518.946 4.81466 2.9008 0
M  V30 5266 H 511.097 2.12121 0.108808 0
M  V30 5267 H 513.36 0.941491 0.110899 0
M  V30 5268 H 513.066 3.37389 0.993051 0
M  V30 5269 H 512.94 2.71779 2.61565 0
M  V30 5270 H 515.327 1.75651 2.3713 0
M  V30 5271 H 515.408 2.44731 0.744326 0
M  V30 5272 H 515.052 4.77238 1.738 0
M  V30 5273 H 514.982 4.05046 3.36519 0
M  V30 5274 H 517.473 3.14799 2.0907 0
M  V30 5275 H 517.786 6.76241 3.74056 0
M  V30 5276 H 516.131 6.07825 3.37007 0
M  V30 5277 H 519.322 3.94535 2.51912 0
M  V30 5278 H 519.495 5.59344 3.27166 0
M  V30 5279 N 512.901 -0.976442 1.23707 0
M  V30 5280 C 513.833 -2.07212 0.979574 0
M  V30 5281 C 514.846 -1.6273 -0.0478528 0
M  V30 5282 O 516.035 -1.77506 0.18815 0
M  V30 5283 C 513.135 -3.35835 0.45479 0
M  V30 5284 C 512.308 -4.09268 1.54331 0
M  V30 5285 C 511.367 -5.16166 1.02271 0
M  V30 5286 O 510.393 -5.42827 1.71254 0
M  V30 5287 N 511.595 -5.80313 -0.147419 0
M  V30 5288 H 514.36 -2.29878 1.92292 0
M  V30 5289 H 511.921 -1.14343 1.14618 0
M  V30 5290 H 513.913 -4.04597 0.0914631 0
M  V30 5291 H 512.483 -3.10106 -0.394068 0
M  V30 5292 H 511.703 -3.34906 2.07923 0
M  V30 5293 H 512.991 -4.55095 2.27522 0
M  V30 5294 H 512.389 -5.61043 -0.724353 0
M  V30 5295 H 510.946 -6.50231 -0.451972 0
M  V30 5296 N 514.379 -1.04941 -1.1758 0
M  V30 5297 C 515.656 -0.671918 -1.83697 0
M  V30 5298 C 516.036 0.847929 -1.93322 0
M  V30 5299 O 515.384 1.75287 -1.46583 0
M  V30 5300 C 515.594 -1.35797 -3.21497 0
M  V30 5301 C 516.942 -1.4944 -3.97433 0
M  V30 5302 O 517.966 -1.31678 -3.30967 0
M  V30 5303 O 516.825 -1.78463 -5.1654 0
M  V30 5304 H 513.919 -0.236212 -0.792548 0
M  V30 5305 H 516.465 -1.14884 -1.24899 0
M  V30 5306 H 515.237 -2.39498 -3.09446 0
M  V30 5307 H 514.86 -0.870236 -3.8796 0
M  V30 5308 N 515.857 1.33968 -0.830081 0
M  V30 5309 C 517.104 1.98063 -0.421566 0
M  V30 5310 C 517.432 1.65787 1.0171 0
M  V30 5311 O 516.687 0.925348 1.72441 0
M  V30 5312 C 516.986 3.52679 -0.57898 0
M  V30 5313 C 516.652 4.04884 -1.98443 0
M  V30 5314 C 515.314 4.18852 -2.36888 0
M  V30 5315 C 517.666 4.32879 -2.90285 0
M  V30 5316 C 514.994 4.58145 -3.66497 0
M  V30 5317 C 517.346 4.7362 -4.19364 0
M  V30 5318 C 516.01 4.85794 -4.57778 0
M  V30 5319 H 515.28 0.724765 -0.154262 0
M  V30 5320 H 517.927 1.59792 -1.05541 0
M  V30 5321 H 516.232 3.91556 0.138219 0
M  V30 5322 H 517.929 4.00261 -0.243317 0
M  V30 5323 H 514.519 3.9448 -1.67581 0
M  V30 5324 H 518.703 4.21619 -2.61823 0
M  V30 5325 H 513.959 4.65762 -3.96075 0
M  V30 5326 H 518.133 4.9424 -4.90612 0
M  V30 5327 H 515.76 5.15998 -5.58256 0
M  V30 5328 N 517.335 0.585699 1.46312 0
M  V30 5329 C 518.584 0.0701192 2.01578 0
M  V30 5330 C 518.897 -1.29889 1.46247 0
M  V30 5331 O 520.103 -1.90598 1.93351 0
M  V30 5332 C 518.559 0.0747499 3.59822 0
M  V30 5333 C 518.167 1.44226 4.24149 0
M  V30 5334 C 519.911 -0.38673 4.22735 0
M  V30 5335 C 517.818 1.40446 5.74481 0
M  V30 5336 H 516.748 0.0224441 0.753666 0
M  V30 5337 H 519.399 0.737789 1.68015 0
M  V30 5338 H 517.781 -0.659144 3.90476 0
M  V30 5339 H 518.955 2.19612 4.05101 0
M  V30 5340 H 517.27 1.84401 3.73343 0
M  V30 5341 H 519.867 -0.433853 5.32937 0
M  V30 5342 H 520.21 -1.40489 3.91878 0
M  V30 5343 H 520.743 0.293195 3.96718 0
M  V30 5344 H 517.482 2.39952 6.10003 0
M  V30 5345 H 517.002 0.692845 5.95785 0
M  V30 5346 H 518.681 1.11865 6.37256 0
M  V30 5347 N 518.813 -1.54241 0.323641 0
M  V30 5348 C 520.09 -1.92741 -0.333181 0
M  V30 5349 C 520.47 -1.25326 -1.69872 0
M  V30 5350 O 519.818 -0.396991 -2.25025 0
M  V30 5351 C 520.028 -3.46399 -0.425322 0
M  V30 5352 C 521.376 -4.19029 -0.68557 0
M  V30 5353 O 522.4 -3.52555 -0.50824 0
M  V30 5354 O 521.259 -5.36751 -1.02767 0
M  V30 5355 H 518.353 -0.804811 -0.190286 0
M  V30 5356 H 520.899 -1.65542 0.373361 0
M  V30 5357 H 519.671 -3.87643 0.533737 0
M  V30 5358 H 519.294 -3.79704 -1.17944 0
M  V30 5359 N 520.291 -0.0518155 -1.57515 0
M  V30 5360 C 521.538 0.621823 -1.92716 0
M  V30 5361 C 521.866 1.70813 -0.930229 0
M  V30 5362 O 521.121 1.95616 0.0573708 0
M  V30 5363 C 521.42 1.25607 -3.34601 0
M  V30 5364 C 521.086 0.297901 -4.49915 0
M  V30 5365 C 519.748 0.034243 -4.81188 0
M  V30 5366 C 522.1 -0.358738 -5.19964 0
M  V30 5367 C 519.428 -0.893479 -5.79857 0
M  V30 5368 C 521.78 -1.27466 -6.19625 0
M  V30 5369 C 520.444 -1.54698 -6.49326 0
M  V30 5370 H 519.714 0.227541 -0.705199 0
M  V30 5371 H 522.361 -0.118432 -1.91133 0
M  V30 5372 H 520.666 2.07161 -3.32553 0
M  V30 5373 H 522.363 1.78424 -3.59118 0
M  V30 5374 H 518.953 0.513581 -4.25512 0
M  V30 5375 H 523.137 -0.168133 -4.96015 0
M  V30 5376 H 518.393 -1.11193 -6.01204 0
M  V30 5377 H 522.567 -1.78953 -6.73015 0
M  V30 5378 H 520.194 -2.26748 -7.25596 0
M  V30 5379 N 521.769 1.56035 0.221574 0
M  V30 5380 C 523.017 1.78693 0.944102 0
M  V30 5381 C 523.338 0.620317 1.8487 0
M  V30 5382 O 522.608 -0.362784 1.92512 0
M  V30 5383 H 521.188 0.659082 0.351597 0
M  V30 5384 H 523.85 1.93497 0.233435 0
M  V30 5385 H 522.946 2.70837 1.55093 0
M  V30 5386 N 523.247 -0.488276 1.49845 0
M  V30 5387 C 524.177 -1.59675 1.70371 0
M  V30 5388 C 525.158 -1.60878 0.552473 0
M  V30 5389 O 526.343 -1.77417 0.78973 0
M  V30 5390 C 523.473 -2.98098 1.782 0
M  V30 5391 C 522.427 -3.11761 2.93239 0
M  V30 5392 C 521.753 -4.51661 2.86193 0
M  V30 5393 C 523.053 -2.90589 4.33999 0
M  V30 5394 H 524.747 -1.42752 2.63177 0
M  V30 5395 H 522.293 -0.685317 1.26647 0
M  V30 5396 H 524.246 -3.75555 1.91144 0
M  V30 5397 H 522.97 -3.16138 0.820018 0
M  V30 5398 H 521.629 -2.36732 2.79917 0
M  V30 5399 H 521.277 -4.66595 1.87877 0
M  V30 5400 H 520.977 -4.61742 3.63412 0
M  V30 5401 H 522.501 -5.31162 3.01163 0
M  V30 5402 H 523.915 -3.57807 4.47936 0
M  V30 5403 H 522.312 -3.1213 5.12538 0
M  V30 5404 H 523.382 -1.86595 4.4756 0
M  V30 5405 N 524.725 -1.39134 -0.740242 0
M  V30 5406 C 525.635 -1.39697 -1.88473 0
M  V30 5407 C 526.651 -0.292403 -1.71526 0
M  V30 5408 O 527.827 -0.533021 -1.94219 0
M  V30 5409 C 524.892 -1.23382 -3.24003 0
M  V30 5410 C 523.953 -2.43763 -3.53381 0
M  V30 5411 C 523.186 -2.28216 -4.82445 0
M  V30 5412 O 523.409 -1.28288 -5.55786 0
M  V30 5413 O 522.343 -3.1709 -5.11603 0
M  V30 5414 H 526.169 -2.36159 -1.90952 0
M  V30 5415 H 523.754 -1.20194 -0.887346 0
M  V30 5416 H 525.636 -1.16395 -4.05006 0
M  V30 5417 H 524.311 -0.300121 -3.22306 0
M  V30 5418 H 523.218 -2.56325 -2.72485 0
M  V30 5419 H 524.551 -3.35808 -3.59852 0
M  V30 5420 N 526.204 0.969867 -1.24223 0
M  V30 5421 C 527.134 2.08191 -1.05729 0
M  V30 5422 C 528.115 1.70075 0.0290765 0
M  V30 5423 O 529.3 1.93712 -0.137583 0
M  V30 5424 C 526.43 3.40991 -0.658995 0
M  V30 5425 C 525.384 3.93054 -1.69389 0
M  V30 5426 C 524.71 5.22171 -1.15072 0
M  V30 5427 C 526.01 4.21137 -3.08935 0
M  V30 5428 H 527.704 2.23921 -1.98746 0
M  V30 5429 H 525.25 1.07602 -0.956967 0
M  V30 5430 H 527.203 4.18221 -0.51662 0
M  V30 5431 H 525.927 3.25155 0.30686 0
M  V30 5432 H 524.586 3.17977 -1.82444 0
M  V30 5433 H 524.234 5.02694 -0.175539 0
M  V30 5434 H 523.934 5.57973 -1.84229 0
M  V30 5435 H 525.458 6.02013 -1.02042 0
M  V30 5436 H 526.872 4.8908 -2.99121 0
M  V30 5437 H 525.269 4.68163 -3.75425 0
M  V30 5438 H 526.339 3.27996 -3.57137 0
M  V30 5439 N 527.682 1.05563 1.17022 0
M  V30 5440 C 528.928 0.769074 1.87652 0
M  V30 5441 C 529.261 -0.702326 1.81055 0
M  V30 5442 O 528.536 -1.5139 1.22112 0
M  V30 5443 C 528.819 1.25492 3.37526 0
M  V30 5444 C 528.672 2.78953 3.52853 0
M  V30 5445 C 529.991 0.856919 4.31677 0
M  V30 5446 H 527.11 0.280854 0.681388 0
M  V30 5447 H 529.752 1.31027 1.37593 0
M  V30 5448 H 527.902 0.794516 3.80289 0
M  V30 5449 H 529.574 3.33146 3.19079 0
M  V30 5450 H 527.817 3.18046 2.95007 0
M  V30 5451 H 528.488 3.08011 4.58076 0
M  V30 5452 H 530.964 1.25334 3.96775 0
M  V30 5453 H 529.84 1.22443 5.35069 0
M  V30 5454 H 530.101 -0.238787 4.41455 0
M  V30 5455 N 529.16 -1.33526 0.837174 0
M  V30 5456 C 530.437 -1.92369 0.354065 0
M  V30 5457 C 530.817 -1.76348 -1.16038 0
M  V30 5458 O 530.165 -1.15083 -1.97403 0
M  V30 5459 C 530.375 -3.39728 0.799101 0
M  V30 5460 C 531.723 -4.16877 0.806139 0
M  V30 5461 O 532.747 -3.48373 0.742597 0
M  V30 5462 O 531.606 -5.39166 0.892345 0
M  V30 5463 H 528.7 -0.820952 0.0998378 0
M  V30 5464 H 531.246 -1.42409 0.922913 0
M  V30 5465 H 530.018 -3.45254 1.84162 0
M  V30 5466 H 529.641 -3.97062 0.206731 0
M  V30 5467 N 530.638 -0.59345 -1.46 0
M  V30 5468 C 531.886 -0.082988 -2.0193 0
M  V30 5469 C 532.207 1.28569 -1.46612 0
M  V30 5470 O 531.477 1.84629 -0.654909 0
M  V30 5471 H 530.057 -0.0276882 -0.746487 0
M  V30 5472 H 532.719 -0.771657 -1.78973 0
M  V30 5473 H 531.815 -0.022079 -3.12092 0
M  V30 5474 N 532.116 1.54067 -0.331816 0
M  V30 5475 C 533.356 2.02625 0.26876 0
M  V30 5476 C 533.72 1.21462 1.48697 0
M  V30 5477 O 534.921 1.59863 2.16096 0
M  V30 5478 C 533.192 3.52554 0.586577 0
M  V30 5479 S 534.751 4.23035 1.16563 0
M  V30 5480 H 531.569 0.706395 0.0807862 0
M  V30 5481 H 534.171 1.89844 -0.466856 0
M  V30 5482 H 532.875 4.09242 -0.308046 0
M  V30 5483 H 532.406 3.69432 1.35217 0
M  V30 5484 H 534.421 4.31382 2.45203 0
M  V30 5485 N 533.594 0.0601682 1.57485 0
M  V30 5486 C 534.504 -0.926121 2.15546 0
M  V30 5487 C 535.52 -1.33532 1.11558 0
M  V30 5488 O 536.696 -1.4104 1.4377 0
M  V30 5489 C 533.761 -2.17952 2.69625 0
M  V30 5490 C 532.822 -1.82783 3.88444 0
M  V30 5491 C 532.055 -3.02148 4.39935 0
M  V30 5492 O 532.278 -4.15803 3.90466 0
M  V30 5493 O 531.212 -2.82639 5.31412 0
M  V30 5494 H 535.038 -0.462289 3.00161 0
M  V30 5495 H 532.623 -0.162246 1.48516 0
M  V30 5496 H 534.505 -2.91474 3.04337 0
M  V30 5497 H 533.18 -2.63456 1.88077 0
M  V30 5498 H 532.087 -1.06549 3.58606 0
M  V30 5499 H 533.42 -1.42072 4.7125 0
M  V30 5500 N 535.072 -1.5615 -0.213296 0
M  V30 5501 C 536.035 -1.92249 -1.24792 0
M  V30 5502 C 537.035 -0.801828 -1.39382 0
M  V30 5503 O 538.225 -1.06948 -1.37506 0
M  V30 5504 C 535.357 -2.18056 -2.62039 0
M  V30 5505 H 536.55 -2.84793 -0.939845 0
M  V30 5506 H 534.103 -1.49559 -0.454062 0
M  V30 5507 H 534.838 -1.2809 -2.97932 0
M  V30 5508 H 534.623 -2.99703 -2.52825 0
M  V30 5509 H 536.113 -2.47051 -3.36683 0
M  V30 5510 N 536.55 0.480323 -1.50102 0
M  V30 5511 C 537.778 1.25657 -1.64371 0
M  V30 5512 C 538.193 1.86011 -0.323316 0
M  V30 5513 O 537.55 1.68803 0.693682 0
M  V30 5514 C 537.601 2.37197 -2.728 0
M  V30 5515 O 537.322 1.7932 -3.9972 0
M  V30 5516 C 538.823 3.2823 -2.9796 0
M  V30 5517 H 536.043 0.380369 -0.552775 0
M  V30 5518 H 538.587 0.574379 -1.96268 0
M  V30 5519 H 536.742 3.01208 -2.43623 0
M  V30 5520 H 537.156 2.52701 -4.59611 0
M  V30 5521 H 538.63 4.02725 -3.77513 0
M  V30 5522 H 539.107 3.86462 -2.08671 0
M  V30 5523 H 539.713 2.69964 -3.28633 0
M  V30 5524 N 538.028 1.39524 0.732853 0
M  V30 5525 C 539.258 1.3994 1.51988 0
M  V30 5526 C 539.666 -0.00727973 1.89199 0
M  V30 5527 O 539.009 -0.989521 1.54771 0
M  V30 5528 C 539.071 2.21026 2.83527 0
M  V30 5529 C 538.735 3.69633 2.68738 0
M  V30 5530 C 539.732 4.62665 2.37143 0
M  V30 5531 C 537.417 4.13244 2.85542 0
M  V30 5532 C 539.411 5.97291 2.22536 0
M  V30 5533 C 537.098 5.47945 2.70554 0
M  V30 5534 C 538.096 6.39783 2.39097 0
M  V30 5535 O 537.784 7.72002 2.24204 0
M  V30 5536 H 537.516 0.479795 0.476206 0
M  V30 5537 H 540.07 1.8399 0.913054 0
M  V30 5538 H 538.3 1.71728 3.46477 0
M  V30 5539 H 539.989 2.13594 3.45156 0
M  V30 5540 H 540.755 4.30272 2.2381 0
M  V30 5541 H 536.634 3.42094 3.09019 0
M  V30 5542 H 540.178 6.68939 1.97905 0
M  V30 5543 H 536.075 5.79928 2.83466 0
M  V30 5544 H 536.843 7.8275 2.39258 0
M  V30 5545 N 539.506 -0.963266 1.24736 0
M  V30 5546 C 540.454 -2.07985 1.04139 0
M  V30 5547 C 541.448 -1.69381 -0.0250556 0
M  V30 5548 O 542.654 -1.79531 0.129863 0
M  V30 5549 H 539.029 -0.680627 0.319768 0
M  V30 5550 H 541 -2.22517 1.98818 0
M  V30 5551 C 539.749 -3.4123 0.667615 0
M  V30 5552 H 539.072 -3.71397 1.48 0
M  V30 5553 H 540.512 -4.20244 0.563136 0
M  V30 5554 C 538.971 -3.3104 -0.625647 0
M  V30 5555 O 539.501 -3.65334 -1.67016 0
M  V30 5556 N 537.707 -2.84168 -0.608033 0
M  V30 5557 H 537.254 -2.56458 0.242323 0
M  V30 5558 H 537.212 -2.77732 -1.47352 0
M  V30 5559 N 540.985 -1.06182 -1.16461 0
M  V30 5560 C 542.21 -0.798599 -1.91408 0
M  V30 5561 C 542.635 0.640987 -1.76842 0
M  V30 5562 O 541.993 1.44652 -1.09296 0
M  V30 5563 C 542.041 -1.19665 -3.40165 0
M  V30 5564 O 541.145 -0.334768 -4.11039 0
M  V30 5565 H 540.486 -0.291961 -0.596368 0
M  V30 5566 H 543.016 -1.41732 -1.47557 0
M  V30 5567 H 543.026 -1.16772 -3.90933 0
M  V30 5568 H 541.701 -2.24526 -3.50087 0
M  V30 5569 H 540.278 -0.425168 -3.70468 0
M  V30 5570 N 542.463 1.3308 -0.844243 0
M  V30 5571 C 543.691 2.01808 -0.456203 0
M  V30 5572 C 544.106 1.63498 0.944131 0
M  V30 5573 O 543.463 0.85102 1.61443 0
M  V30 5574 C 543.514 3.56922 -0.573513 0
M  V30 5575 O 543.235 3.93851 -1.91868 0
M  V30 5576 C 544.736 4.42922 -0.183125 0
M  V30 5577 H 541.956 0.646273 -0.180477 0
M  V30 5578 H 544.5 1.69891 -1.1383 0
M  V30 5579 H 542.655 3.87352 0.0607367 0
M  V30 5580 H 543.069 4.88564 -1.90802 0
M  V30 5581 H 544.543 5.51093 -0.316241 0
M  V30 5582 H 545.02 4.30386 0.875477 0
M  V30 5583 H 545.626 4.1786 -0.792027 0
M  V30 5584 N 543.941 0.601185 1.45683 0
M  V30 5585 C 544.871 -0.108824 2.33246 0
M  V30 5586 C 545.852 -0.865223 1.46451 0
M  V30 5587 O 547.037 -0.83704 1.75235 0
M  V30 5588 C 544.167 -1.11101 3.2905 0
M  V30 5589 C 543.121 -0.468244 4.25431 0
M  V30 5590 C 542.447 -1.57822 5.10878 0
M  V30 5591 C 543.747 0.606469 5.18767 0
M  V30 5592 H 545.441 0.622306 2.92861 0
M  V30 5593 H 542.987 0.300714 1.40825 0
M  V30 5594 H 544.94 -1.61622 3.89174 0
M  V30 5595 H 543.664 -1.87265 2.67581 0
M  V30 5596 H 542.323 0.0160484 3.66596 0
M  V30 5597 H 541.971 -2.32998 4.45781 0
M  V30 5598 H 541.671 -1.15369 5.76163 0
M  V30 5599 H 543.195 -2.08583 5.73869 0
M  V30 5600 H 544.609 0.185589 5.73 0
M  V30 5601 H 543.006 0.952381 5.92494 0
M  V30 5602 H 544.076 1.48559 4.61582 0
M  V30 5603 N 545.419 -1.53889 0.339982 0
M  V30 5604 C 546.647 -2.05271 -0.259114 0
M  V30 5605 C 547.062 -1.21517 -1.44496 0
M  V30 5606 O 546.419 -0.24966 -1.80784 0
M  V30 5607 C 546.47 -3.55092 -0.677634 0
M  V30 5608 O 546.191 -4.35667 0.461051 0
M  V30 5609 C 547.692 -4.22631 -1.33782 0
M  V30 5610 H 544.912 -0.669085 -0.0506566 0
M  V30 5611 H 547.456 -1.9852 0.490935 0
M  V30 5612 H 545.611 -3.62077 -1.37763 0
M  V30 5613 H 546.025 -5.24343 0.128144 0
M  V30 5614 H 547.499 -5.28861 -1.58145 0
M  V30 5615 H 547.976 -3.74758 -2.29027 0
M  V30 5616 H 548.582 -4.19829 -0.679957 0
M  V30 5617 N 546.897 -0.0685191 -1.57451 0
M  V30 5618 C 547.844 0.899861 -2.12535 0
M  V30 5619 C 548.814 1.29749 -1.03703 0
M  V30 5620 O 549.999 1.38392 -1.31348 0
M  V30 5621 C 547.139 2.16328 -2.6888 0
M  V30 5622 C 546.252 1.81857 -3.91857 0
M  V30 5623 C 545.387 3.02786 -4.36457 0
M  V30 5624 C 544.426 2.64317 -5.5209 0
M  V30 5625 N 543.563 3.77994 -5.91663 0
M  V30 5626 H 548.403 0.423243 -2.94979 0
M  V30 5627 H 545.94 0.197268 -1.45771 0
M  V30 5628 H 547.898 2.90281 -2.99655 0
M  V30 5629 H 546.528 2.61536 -1.89206 0
M  V30 5630 H 545.58 0.979808 -3.67565 0
M  V30 5631 H 546.892 1.49553 -4.75852 0
M  V30 5632 H 546.046 3.85021 -4.68875 0
M  V30 5633 H 544.785 3.38281 -3.51308 0
M  V30 5634 H 543.79 1.80503 -5.19325 0
M  V30 5635 H 545.015 2.29995 -6.38967 0
M  V30 5636 H 542.961 4.13258 -5.09464 0
M  V30 5637 H 542.878 3.49447 -6.7039 0
M  V30 5638 H 544.146 4.60818 -6.28703 0
M  V30 5639 N 548.375 1.56261 0.205012 0
M  V30 5640 C 549.624 1.79236 0.925058 0
M  V30 5641 C 549.937 0.640011 1.84833 0
M  V30 5642 O 551.143 0.753809 2.60826 0
M  V30 5643 C 549.599 3.17475 1.69522 0
M  V30 5644 C 549.207 4.40482 0.817269 0
M  V30 5645 C 550.951 3.49766 2.4055 0
M  V30 5646 C 548.858 5.69744 1.58573 0
M  V30 5647 H 547.788 0.668287 0.349153 0
M  V30 5648 H 550.439 1.82629 0.178544 0
M  V30 5649 H 548.821 3.08304 2.48526 0
M  V30 5650 H 549.995 4.60752 0.0665988 0
M  V30 5651 H 548.31 4.15827 0.218316 0
M  V30 5652 H 550.907 4.43573 2.98575 0
M  V30 5653 H 551.25 2.73041 3.14252 0
M  V30 5654 H 551.783 3.60341 1.68522 0
M  V30 5655 H 548.522 6.49407 0.891679 0
M  V30 5656 H 548.042 5.53509 2.31059 0
M  V30 5657 H 549.721 6.1051 2.14212 0
M  V30 5658 N 549.853 -0.472356 1.50355 0
M  V30 5659 C 551.101 -1.22211 1.60962 0
M  V30 5660 C 551.422 -1.92497 0.311439 0
M  V30 5661 O 550.692 -1.8405 -0.671002 0
M  V30 5662 H 549.272 -0.454092 0.593135 0
M  V30 5663 H 551.934 -0.544977 1.87126 0
M  V30 5664 H 551.03 -1.9707 2.42012 0
M  V30 5665 N 551.331 -1.39911 -0.725443 0
M  V30 5666 C 552.742 -1.33599 -1.30415 0
M  V30 5667 C 553.093 -0.00481792 -1.96199 0
M  V30 5668 O 552.218 0.897275 -1.96921 0
M  V30 5669 C 552.813 -2.41965 -2.37146 0
M  V30 5670 C 551.372 -2.39144 -2.90667 0
M  V30 5671 C 550.519 -2.23355 -1.64341 0
M  V30 5672 H 553.47 -1.4986 -0.522267 0
M  V30 5673 H 553.491 -2.09304 -3.17761 0
M  V30 5674 H 553.003 -3.38837 -1.89238 0
M  V30 5675 H 551.104 -1.4594 -3.4283 0
M  V30 5676 H 551.217 -3.34362 -3.43131 0
M  V30 5677 H 549.581 -1.70696 -1.89037 0
M  V30 5678 H 550.364 -3.2221 -1.18471 0
M  V30 5679 N 552.809 0.956637 -1.25245 0
M  V30 5680 C 554.086 1.67716 -1.00651 0
M  V30 5681 C 554.466 2.0585 0.467866 0
M  V30 5682 O 553.814 1.77029 1.44475 0
M  V30 5683 C 554.024 2.90093 -1.94028 0
M  V30 5684 C 555.372 3.6209 -2.21756 0
M  V30 5685 O 556.396 3.00171 -1.9177 0
M  V30 5686 O 555.255 4.7358 -2.72735 0
M  V30 5687 H 552.349 0.733731 -0.381533 0
M  V30 5688 H 554.895 1.00974 -1.3639 0
M  V30 5689 H 553.667 2.58689 -2.93591 0
M  V30 5690 H 553.29 3.64566 -1.58674 0
M  V30 5691 N 554.287 1.06798 1.15896 0
M  V30 5692 C 555.512 0.808739 1.90982 0
M  V30 5693 C 555.937 -0.6316 1.77179 0
M  V30 5694 O 555.295 -1.4407 1.10061 0
M  V30 5695 C 555.343 1.21468 3.39526 0
M  V30 5696 O 554.447 0.356562 4.10856 0
M  V30 5697 H 553.788 0.29512 0.594811 0
M  V30 5698 H 556.318 1.42513 1.46804 0
M  V30 5699 H 556.328 1.18844 3.90308 0
M  V30 5700 H 555.003 2.26379 3.48891 0
M  V30 5701 H 553.58 0.444808 3.70238 0
M  V30 5702 N 555.766 -1.3263 0.851289 0
M  V30 5703 C 557.012 -1.98061 0.462963 0
M  V30 5704 C 557.367 -1.66162 -0.969948 0
M  V30 5705 O 556.66 -0.937723 -1.67085 0
M  V30 5706 C 556.854 -3.51713 0.635015 0
M  V30 5707 C 556.683 -3.98544 2.0831 0
M  V30 5708 C 555.453 -4.25787 2.72091 0
M  V30 5709 C 557.651 -4.13858 3.0533 0
M  V30 5710 N 555.633 -4.58842 4.07845 0
M  V30 5711 C 557.004 -4.50412 4.26063 0
M  V30 5712 C 559.059 -3.96182 3.0157 0
M  V30 5713 C 557.762 -4.71136 5.43529 0
M  V30 5714 C 559.788 -4.18088 4.18278 0
M  V30 5715 C 559.15 -4.54956 5.37768 0
M  V30 5716 H 555.249 -0.750976 0.218082 0
M  V30 5717 H 557.833 -1.60514 1.10197 0
M  V30 5718 H 556.004 -3.88391 0.0257298 0
M  V30 5719 H 557.736 -4.04118 0.216915 0
M  V30 5720 H 554.491 -4.17734 2.23149 0
M  V30 5721 H 554.915 -4.7956 4.77862 0
M  V30 5722 H 559.557 -3.66783 2.1031 0
M  V30 5723 H 557.275 -4.9939 6.35323 0
M  V30 5724 H 560.861 -4.05918 4.168 0
M  V30 5725 H 559.741 -4.71567 6.26573 0
M  V30 5726 N 557.244 -0.608902 -1.45362 0
M  V30 5727 C 558.492 -0.104401 -2.0183 0
M  V30 5728 C 558.813 1.27007 -1.47967 0
M  V30 5729 O 558.083 1.83924 -0.674455 0
M  V30 5730 H 556.663 -0.0356042 -0.746151 0
M  V30 5731 H 559.325 -0.790596 -1.78145 0
M  V30 5732 H 558.421 -0.0551793 -3.12051 0
M  V30 5733 N 558.722 1.53707 -0.348139 0
M  V30 5734 C 559.968 2.01979 0.239986 0
M  V30 5735 C 560.323 1.23141 1.47831 0
M  V30 5736 O 559.616 0.311936 1.89044 0
M  V30 5737 C 559.81 3.52292 0.602061 0
M  V30 5738 C 559.639 4.45684 -0.599625 0
M  V30 5739 C 558.409 4.9304 -1.10635 0
M  V30 5740 C 560.607 4.93156 -1.4595 0
M  V30 5741 N 558.589 5.70394 -2.26988 0
M  V30 5742 C 559.96 5.6868 -2.46988 0
M  V30 5743 C 562.015 4.75257 -1.48441 0
M  V30 5744 C 560.718 6.28208 -3.50353 0
M  V30 5745 C 562.744 5.35639 -2.50689 0
M  V30 5746 C 562.106 6.11034 -3.50453 0
M  V30 5747 H 558.205 0.780335 0.0509992 0
M  V30 5748 H 560.789 1.88466 -0.488742 0
M  V30 5749 H 558.96 3.66002 1.29989 0
M  V30 5750 H 560.692 3.87304 1.17377 0
M  V30 5751 H 557.447 4.68784 -0.67371 0
M  V30 5752 H 557.871 6.13741 -2.85747 0
M  V30 5753 H 562.513 4.16508 -0.726707 0
M  V30 5754 H 560.231 6.86064 -4.27015 0
M  V30 5755 H 563.817 5.23693 -2.53449 0
M  V30 5756 H 562.697 6.56925 -4.28275 0
M  V30 5757 N 560.2 0.0768682 1.57412 0
M  V30 5758 C 561.477 -0.632359 1.85096 0
M  V30 5759 C 561.857 -1.87479 0.9703 0
M  V30 5760 O 561.205 -2.28469 0.0379062 0
M  V30 5761 C 561.415 -0.965174 3.35388 0
M  V30 5762 C 562.763 -1.33648 4.03018 0
M  V30 5763 O 563.787 -1.05675 3.40164 0
M  V30 5764 O 562.646 -1.85959 5.13889 0
M  V30 5765 H 559.74 -0.314574 0.764835 0
M  V30 5766 H 562.286 0.108184 1.69355 0
M  V30 5767 H 561.058 -0.0829745 3.91212 0
M  V30 5768 H 560.681 -1.76231 3.5641 0
M  V30 5769 N 561.678 -1.56367 -0.196722 0
M  V30 5770 C 563.089 -1.70462 -0.761545 0
M  V30 5771 C 563.44 -0.683161 -1.83922 0
M  V30 5772 O 562.565 0.160753 -2.15802 0
M  V30 5773 C 563.16 -3.09057 -1.38814 0
M  V30 5774 C 561.719 -3.24922 -1.90007 0
M  V30 5775 C 560.866 -2.66412 -0.769399 0
M  V30 5776 H 563.817 -1.58675 0.0283263 0
M  V30 5777 H 563.838 -3.06296 -2.2575 0
M  V30 5778 H 563.35 -3.83378 -0.603559 0
M  V30 5779 H 561.451 -2.55514 -2.71189 0
M  V30 5780 H 561.564 -4.3241 -2.06297 0
M  V30 5781 H 559.928 -2.25546 -1.18326 0
M  V30 5782 H 560.711 -3.433 0.00291773 0
M  V30 5783 N 563.156 0.464375 -1.50603 0
M  V30 5784 C 564.103 1.56152 -1.69956 0
M  V30 5785 C 565.073 1.57046 -0.54091 0
M  V30 5786 O 566.258 1.74473 -0.772258 0
M  V30 5787 C 563.398 2.94079 -1.80586 0
M  V30 5788 C 562.511 3.02923 -3.07996 0
M  V30 5789 C 561.646 4.31806 -3.09382 0
M  V30 5790 C 560.685 4.34417 -4.31218 0
M  V30 5791 N 559.822 5.54782 -4.30304 0
M  V30 5792 H 564.662 1.38955 -2.6362 0
M  V30 5793 H 562.199 0.675482 -1.30674 0
M  V30 5794 H 564.157 3.74073 -1.8473 0
M  V30 5795 H 562.787 3.09896 -0.903556 0
M  V30 5796 H 561.839 2.1576 -3.13292 0
M  V30 5797 H 563.151 3.00712 -3.97962 0
M  V30 5798 H 562.305 5.20153 -3.12292 0
M  V30 5799 H 561.044 4.36636 -2.17257 0
M  V30 5800 H 560.049 3.44467 -4.28512 0
M  V30 5801 H 561.274 4.31273 -5.24576 0
M  V30 5802 H 559.22 5.60384 -3.41037 0
M  V30 5803 H 559.137 5.54339 -5.14047 0
M  V30 5804 H 560.405 6.45235 -4.3737 0
M  V30 5805 N 564.634 1.40294 0.718013 0
M  V30 5806 C 565.581 1.40367 1.8321 0
M  V30 5807 C 566.551 0.260952 1.64037 0
M  V30 5808 O 567.736 0.458648 1.85205 0
M  V30 5809 C 564.876 1.26965 3.20895 0
M  V30 5810 C 563.989 2.50922 3.51656 0
M  V30 5811 C 563.124 2.29981 4.78834 0
M  V30 5812 C 562.163 3.49527 5.02491 0
M  V30 5813 N 561.3 3.27796 6.20882 0
M  V30 5814 H 566.14 2.35593 1.82482 0
M  V30 5815 H 563.677 1.17012 0.891444 0
M  V30 5816 H 565.635 1.17202 4.00399 0
M  V30 5817 H 564.265 0.353591 3.20858 0
M  V30 5818 H 563.317 2.71223 2.66725 0
M  V30 5819 H 564.629 3.39913 3.65048 0
M  V30 5820 H 563.783 2.17558 5.66351 0
M  V30 5821 H 562.522 1.38411 4.67647 0
M  V30 5822 H 561.527 3.6243 4.1343 0
M  V30 5823 H 562.752 4.42021 5.15553 0
M  V30 5824 H 560.698 2.38906 6.1095 0
M  V30 5825 H 560.615 4.10351 6.34939 0
M  V30 5826 H 561.883 3.19101 7.11193 0
M  V30 5827 N 566.112 -0.949982 1.2575 0
M  V30 5828 C 567.358 -1.69766 1.10938 0
M  V30 5829 C 567.691 -1.91056 -0.348028 0
M  V30 5830 O 566.966 -1.48488 -1.25625 0
M  V30 5831 C 567.249 -3.07779 1.86933 0
M  V30 5832 C 567.102 -2.9387 3.4053 0
M  V30 5833 C 568.421 -4.07749 1.65616 0
M  V30 5834 H 565.54 -0.616144 0.404396 0
M  V30 5835 H 568.182 -1.10394 1.54639 0
M  V30 5836 H 566.332 -3.58462 1.4979 0
M  V30 5837 H 568.004 -2.50476 3.87375 0
M  V30 5838 H 566.247 -2.29686 3.68004 0
M  V30 5839 H 566.918 -3.91719 3.88922 0
M  V30 5840 H 569.394 -3.65994 1.97959 0
M  V30 5841 H 568.27 -5.02348 2.21218 0
M  V30 5842 H 568.531 -4.38029 0.598595 0
M  V30 5843 N 567.59 -1.07411 -1.15328 0
M  V30 5844 C 569.001 -0.820261 -1.67716 0
M  V30 5845 C 569.352 0.654539 -1.8496 0
M  V30 5846 O 568.477 1.50664 -1.55337 0
M  V30 5847 C 569.072 -1.48242 -3.04647 0
M  V30 5848 C 567.631 -1.27606 -3.5411 0
M  V30 5849 C 566.778 -1.5517 -2.29821 0
M  V30 5850 H 569.729 -1.23608 -0.995332 0
M  V30 5851 H 569.75 -0.903984 -3.69606 0
M  V30 5852 H 569.262 -2.55578 -2.92064 0
M  V30 5853 H 567.363 -0.222948 -3.71932 0
M  V30 5854 H 567.476 -1.99667 -4.35511 0
M  V30 5855 H 565.84 -0.972747 -2.35393 0
M  V30 5856 H 566.623 -2.63689 -2.19824 0
M  V30 5857 N 569.068 1.32177 -0.85831 0
M  V30 5858 C 570.293 2.01847 -0.476718 0
M  V30 5859 C 570.718 1.64065 0.920021 0
M  V30 5860 O 570.076 0.843189 1.60499 0
M  V30 5861 C 570.124 3.55097 -0.627578 0
M  V30 5862 O 569.228 4.11012 0.338086 0
M  V30 5863 H 568.569 0.635907 -0.191099 0
M  V30 5864 H 571.099 1.68641 -1.15851 0
M  V30 5865 H 571.109 4.04718 -0.516476 0
M  V30 5866 H 569.784 3.81938 -1.64609 0
M  V30 5867 H 568.361 3.72451 0.182917 0
M  V30 5868 N 570.547 0.616602 1.45037 0
M  V30 5869 C 571.824 0.0469086 1.95544 0
M  V30 5870 C 572.204 -1.42345 1.55888 0
M  V30 5871 O 571.552 -2.13055 0.825824 0
M  V30 5872 C 571.762 0.254489 3.48071 0
M  V30 5873 C 573.11 0.140025 4.24369 0
M  V30 5874 O 574.134 0.185084 3.55719 0
M  V30 5875 O 572.993 0.0327034 5.4649 0
M  V30 5876 H 570.087 -0.0306051 0.826433 0
M  V30 5877 H 572.633 0.687293 1.55159 0
M  V30 5878 H 571.405 1.27532 3.69934 0
M  V30 5879 H 571.028 -0.42073 3.95368 0
M  V30 5880 N 572.025 -1.5352 0.356285 0
M  V30 5881 C 572.957 -2.23009 -0.529127 0
M  V30 5882 C 573.97 -1.241 -1.05371 0
M  V30 5883 O 575.159 -1.50379 -0.961679 0
M  V30 5884 C 572.259 -2.90685 -1.74229 0
M  V30 5885 C 571.432 -4.16019 -1.35081 0
M  V30 5886 C 570.491 -4.66989 -2.42502 0
M  V30 5887 O 569.517 -5.30895 -2.05279 0
M  V30 5888 N 570.719 -4.44006 -3.7395 0
M  V30 5889 H 573.484 -2.99627 0.0660501 0
M  V30 5890 H 571.045 -1.60885 0.181014 0
M  V30 5891 H 573.037 -3.21695 -2.4555 0
M  V30 5892 H 571.607 -2.17575 -2.24454 0
M  V30 5893 H 570.827 -3.91414 -0.467833 0
M  V30 5894 H 572.115 -4.9752 -1.06542 0
M  V30 5895 H 571.513 -3.92924 -4.06973 0
M  V30 5896 H 570.07 -4.7959 -4.41403 0
M  V30 5897 N 573.503 -0.0852151 -1.57369 0
M  V30 5898 C 574.45 0.877268 -2.13478 0
M  V30 5899 C 575.42 1.28642 -1.05073 0
M  V30 5900 O 576.605 1.36992 -1.32808 0
M  V30 5901 C 573.745 2.13464 -2.71159 0
M  V30 5902 C 572.858 1.77691 -3.93764 0
M  V30 5903 C 571.993 2.98139 -4.39643 0
M  V30 5904 C 571.032 2.58447 -5.54862 0
M  V30 5905 N 570.169 3.71698 -5.95639 0
M  V30 5906 H 575.009 0.391933 -2.95411 0
M  V30 5907 H 572.546 0.181796 -1.45972 0
M  V30 5908 H 574.504 2.87086 -3.02717 0
M  V30 5909 H 573.134 2.59514 -1.91969 0
M  V30 5910 H 572.186 0.940768 -3.68583 0
M  V30 5911 H 573.498 1.44497 -4.77412 0
M  V30 5912 H 572.652 3.80026 -4.72933 0
M  V30 5913 H 571.391 3.34536 -3.54876 0
M  V30 5914 H 570.396 1.74984 -5.21211 0
M  V30 5915 H 571.621 2.23205 -6.41371 0
M  V30 5916 H 569.567 4.07831 -5.13819 0
M  V30 5917 H 569.484 3.42317 -6.74059 0
M  V30 5918 H 570.752 4.54123 -6.33555 0
M  V30 5919 N 574.981 1.5647 0.188427 0
M  V30 5920 C 575.891 1.98285 1.2538 0
M  V30 5921 C 576.907 0.891535 1.49424 0
M  V30 5922 O 578.083 1.19782 1.61908 0
M  V30 5923 C 575.148 2.31965 2.57669 0
M  V30 5924 C 574.209 3.54838 2.41638 0
M  V30 5925 C 573.442 3.86901 3.67618 0
M  V30 5926 O 573.665 3.20163 4.72072 0
M  V30 5927 O 572.599 4.80309 3.62749 0
M  V30 5928 H 576.425 2.89145 0.928912 0
M  V30 5929 H 574.01 1.44112 0.393955 0
M  V30 5930 H 575.892 2.54673 3.35737 0
M  V30 5931 H 574.567 1.44271 2.89771 0
M  V30 5932 H 573.474 3.37369 1.61658 0
M  V30 5933 H 574.807 4.43019 2.14465 0
M  V30 5934 N 576.459 -0.456382 1.50847 0
M  V30 5935 C 577.706 -1.20736 1.62571 0
M  V30 5936 C 578.034 -1.9163 0.332904 0
M  V30 5937 O 577.289 -1.8343 -0.682058 0
M  V30 5938 C 577.588 -2.26336 2.76599 0
M  V30 5939 C 577.254 -1.7259 4.16562 0
M  V30 5940 C 575.916 -1.57654 4.54641 0
M  V30 5941 C 578.268 -1.32877 5.03977 0
M  V30 5942 C 575.596 -1.0145 5.77862 0
M  V30 5943 C 577.948 -0.7811 6.27759 0
M  V30 5944 C 576.612 -0.618488 6.64628 0
M  V30 5945 H 575.882 -0.441803 0.594888 0
M  V30 5946 H 578.529 -0.501169 1.84826 0
M  V30 5947 H 576.834 -3.0292 2.48489 0
M  V30 5948 H 578.531 -2.84227 2.82871 0
M  V30 5949 H 575.121 -1.85187 3.86528 0
M  V30 5950 H 579.305 -1.43245 4.75179 0
M  V30 5951 H 574.561 -0.876109 6.0509 0
M  V30 5952 H 578.735 -0.464783 6.94847 0
M  V30 5953 H 576.362 -0.180838 7.59985 0
M  V30 5954 N 577.937 -1.40673 -0.710563 0
M  V30 5955 C 579.167 -1.4234 -1.49742 0
M  V30 5956 C 579.575 -0.022821 -1.89186 0
M  V30 5957 O 578.918 0.964773 -1.56326 0
M  V30 5958 C 578.98 -2.25509 -2.79975 0
M  V30 5959 C 578.644 -3.73862 -2.62824 0
M  V30 5960 C 579.641 -4.66379 -2.29752 0
M  V30 5961 C 577.326 -4.17735 -2.78932 0
M  V30 5962 C 579.32 -6.00756 -2.13006 0
M  V30 5963 C 577.007 -5.5218 -2.61802 0
M  V30 5964 C 578.005 -6.43505 -2.28888 0
M  V30 5965 O 577.693 -7.75472 -2.11894 0
M  V30 5966 H 577.425 -0.487311 -0.468513 0
M  V30 5967 H 579.979 -1.8542 -0.883668 0
M  V30 5968 H 578.209 -1.77218 -3.43701 0
M  V30 5969 H 579.898 -2.19058 -3.41714 0
M  V30 5970 H 580.664 -4.33778 -2.16936 0
M  V30 5971 H 576.543 -3.46967 -3.03537 0
M  V30 5972 H 580.087 -6.72003 -1.87237 0
M  V30 5973 H 575.984 -5.84365 -2.74204 0
M  V30 5974 H 576.752 -7.86458 -2.26775 0
M  V30 5975 N 579.415 0.9433 -1.26252 0
M  V30 5976 C 580.325 2.07532 -1.09397 0
M  V30 5977 C 581.341 1.73977 -0.0280449 0
M  V30 5978 O 582.517 2.00067 -0.231337 0
M  V30 5979 C 579.582 3.39002 -0.726523 0
M  V30 5980 C 578.643 3.86353 -1.87163 0
M  V30 5981 C 577.876 5.11549 -1.52162 0
M  V30 5982 O 578.099 5.68834 -0.422385 0
M  V30 5983 O 577.033 5.53889 -2.35565 0
M  V30 5984 H 580.859 2.24658 -2.04359 0
M  V30 5985 H 578.444 1.05988 -1.05295 0
M  V30 5986 H 580.326 4.18 -0.534236 0
M  V30 5987 H 579.001 3.2312 0.193721 0
M  V30 5988 H 577.908 3.0831 -2.11886 0
M  V30 5989 H 579.241 4.06752 -2.77152 0
M  V30 5990 N 580.893 1.08022 1.14757 0
M  V30 5991 C 581.84 0.706657 2.19716 0
M  V30 5992 C 582.81 -0.30525 1.63271 0
M  V30 5993 O 583.995 -0.19015 1.8985 0
M  V30 5994 C 581.135 0.117914 3.44898 0
M  V30 5995 C 580.248 1.18212 4.15512 0
M  V30 5996 C 579.383 0.557659 5.28265 0
M  V30 5997 C 578.422 1.60418 5.90705 0
M  V30 5998 N 577.559 1.0018 6.94916 0
M  V30 5999 H 582.399 1.60603 2.51019 0
M  V30 6000 H 579.936 0.802664 1.23271 0
M  V30 6001 H 581.894 -0.241112 4.16503 0
M  V30 6002 H 580.524 -0.744788 3.1409 0
M  V30 6003 H 579.576 1.65863 3.42335 0
M  V30 6004 H 580.888 1.97533 4.5802 0
M  V30 6005 H 580.042 0.146654 6.06523 0
M  V30 6006 H 578.781 -0.267249 4.86967 0
M  V30 6007 H 577.786 2.02489 5.11154 0
M  V30 6008 H 579.011 2.43149 6.34078 0
M  V30 6009 H 576.957 0.197917 6.55701 0
M  V30 6010 H 576.874 1.73216 7.35889 0
M  V30 6011 H 578.142 0.616523 7.77058 0
M  V30 6012 N 582.371 -1.3172 0.865308 0
M  V30 6013 C 583.334 -2.26918 0.322627 0
M  V30 6014 C 584.334 -1.52031 -0.523751 0
M  V30 6015 O 585.524 -1.70973 -0.333727 0
M  V30 6016 C 582.656 -3.36558 -0.542338 0
M  V30 6017 H 583.849 -2.76432 1.16298 0
M  V30 6018 H 581.402 -1.42573 0.640512 0
M  V30 6019 H 582.137 -2.92329 -1.40407 0
M  V30 6020 H 581.922 -3.92048 0.0636395 0
M  V30 6021 H 583.412 -4.07465 -0.91446 0
M  V30 6022 N 583.85 -0.624285 -1.44708 0
M  V30 6023 C 585.098 -0.125802 -2.01708 0
M  V30 6024 C 585.418 1.2543 -1.49306 0
M  V30 6025 O 584.689 1.83198 -0.693924 0
M  V30 6026 H 583.269 -0.0435161 -0.745731 0
M  V30 6027 H 585.931 -0.809446 -1.77296 0
M  V30 6028 H 585.027 -0.0882734 -3.11975 0
M  V30 6029 N 585.328 1.53329 -0.364422 0
M  V30 6030 C 586.575 2.01239 0.225634 0
M  V30 6031 C 586.903 1.25172 1.48869 0
M  V30 6032 O 586.158 0.333289 1.92841 0
M  V30 6033 C 586.457 3.52911 0.564661 0
M  V30 6034 C 586.123 4.46837 -0.603936 0
M  V30 6035 C 584.785 4.72234 -0.924585 0
M  V30 6036 C 587.137 5.02409 -1.38691 0
M  V30 6037 C 584.465 5.50454 -2.0302 0
M  V30 6038 C 586.817 5.81836 -2.48293 0
M  V30 6039 C 585.481 6.0552 -2.80894 0
M  V30 6040 H 584.751 0.736386 0.0825654 0
M  V30 6041 H 587.398 1.84948 -0.496645 0
M  V30 6042 H 585.703 3.67144 1.36794 0
M  V30 6043 H 587.4 3.87455 1.03344 0
M  V30 6044 H 583.99 4.27217 -0.343983 0
M  V30 6045 H 588.174 4.82735 -1.15243 0
M  V30 6046 H 583.43 5.67024 -2.28678 0
M  V30 6047 H 587.604 6.23905 -3.0938 0
M  V30 6048 H 585.231 6.65916 -3.66688 0
M  V30 6049 N 586.806 0.0935595 1.57322 0
M  V30 6050 C 588.036 -0.578095 1.98347 0
M  V30 6051 C 588.444 -1.62357 0.971441 0
M  V30 6052 O 587.787 -1.83639 -0.0473959 0
M  V30 6053 C 587.849 -1.28525 3.3574 0
M  V30 6054 C 587.513 -0.390714 4.55327 0
M  V30 6055 C 588.51 0.360522 5.18648 0
M  V30 6056 C 586.195 -0.309221 5.01347 0
M  V30 6057 C 588.189 1.18125 6.26359 0
M  V30 6058 C 585.876 0.515157 6.08925 0
M  V30 6059 C 586.874 1.25904 6.71295 0
M  V30 6060 O 586.562 2.06978 7.76798 0
M  V30 6061 H 586.294 -0.159767 0.656849 0
M  V30 6062 H 588.848 0.169058 2.04703 0
M  V30 6063 H 587.078 -2.07894 3.26063 0
M  V30 6064 H 588.767 -1.85128 3.61223 0
M  V30 6065 H 589.533 0.307285 4.84026 0
M  V30 6066 H 585.412 -0.877881 4.52564 0
M  V30 6067 H 588.956 1.76236 6.74971 0
M  V30 6068 H 584.853 0.56988 6.42979 0
M  V30 6069 H 585.621 1.99644 7.93779 0
M  V30 6070 N 588.284 -1.56567 -0.180126 0
M  V30 6071 C 589.533 -1.80685 -0.896426 0
M  V30 6072 C 589.846 -0.669335 -1.83791 0
M  V30 6073 O 591.052 -0.795209 -2.59593 0
M  V30 6074 C 589.508 -3.20132 -1.6445 0
M  V30 6075 C 589.116 -4.41727 -0.747088 0
M  V30 6076 C 590.86 -3.53549 -2.34955 0
M  V30 6077 C 588.767 -5.72195 -1.49489 0
M  V30 6078 H 587.697 -0.673758 -0.338477 0
M  V30 6079 H 590.348 -1.8289 -0.149467 0
M  V30 6080 H 588.73 -3.12218 -2.43589 0
M  V30 6081 H 589.904 -4.608 0.00671129 0
M  V30 6082 H 588.219 -4.16122 -0.152134 0
M  V30 6083 H 590.816 -4.48267 -2.91481 0
M  V30 6084 H 591.159 -2.78006 -3.09868 0
M  V30 6085 H 591.692 -3.62976 -1.62768 0
M  V30 6086 H 588.431 -6.50743 -0.788251 0
M  V30 6087 H 587.951 -5.57115 -2.22224 0
M  V30 6088 H 589.63 -6.1384 -2.04472 0
M  V30 6089 N 589.762 0.448376 -1.51087 0
M  V30 6090 C 590.987 1.22605 -1.6728 0
M  V30 6091 C 591.412 1.84524 -0.365045 0
M  V30 6092 O 590.77 1.6832 0.673642 0
M  V30 6093 C 590.818 2.29393 -2.78229 0
M  V30 6094 O 589.922 3.34608 -2.41063 0
M  V30 6095 H 589.263 0.359705 -0.558129 0
M  V30 6096 H 591.793 0.530903 -1.97592 0
M  V30 6097 H 591.803 2.74352 -3.01986 0
M  V30 6098 H 590.478 1.83701 -3.73131 0
M  V30 6099 H 589.055 2.95202 -2.27838 0
M  V30 6100 N 591.24 1.41047 0.703093 0
M  V30 6101 C 592.465 1.43537 1.49706 0
M  V30 6102 C 592.89 0.0401853 1.88057 0
M  V30 6103 O 592.248 -0.954785 1.54122 0
M  V30 6104 C 592.296 2.3433 2.74084 0
M  V30 6105 O 591.4 1.79515 3.71279 0
M  V30 6106 H 590.741 0.487454 0.450871 0
M  V30 6107 H 593.271 1.85422 0.86486 0
M  V30 6108 H 593.281 2.49947 3.22476 0
M  V30 6109 H 591.956 3.35708 2.45506 0
M  V30 6110 H 590.533 1.7331 3.30179 0
M  V30 6111 N 592.718 -0.936591 1.26751 0
M  V30 6112 C 593.966 -1.67998 1.12343 0
M  V30 6113 C 594.287 -1.92137 -0.332938 0
M  V30 6114 O 593.557 -1.52132 -1.23421 0
M  V30 6115 H 592.137 -0.622609 0.412756 0
M  V30 6116 H 594.799 -1.12509 1.59147 0
M  V30 6117 H 593.895 -2.65185 1.64571 0
M  V30 6118 N 594.196 -1.08629 -1.14182 0
M  V30 6119 C 595.421 -0.83902 -1.89671 0
M  V30 6120 C 595.846 0.603332 -1.78161 0
M  V30 6121 O 595.204 1.42301 -1.12339 0
M  V30 6122 C 595.252 -1.26854 -3.37551 0
M  V30 6123 O 594.356 -0.42188 -4.10236 0
M  V30 6124 H 593.697 -0.304545 -0.590041 0
M  V30 6125 H 596.227 -1.4483 -1.44518 0
M  V30 6126 H 596.237 -1.25038 -3.88368 0
M  V30 6127 H 594.912 -2.31901 -3.45246 0
M  V30 6128 H 593.489 -0.503654 -3.69483 0
M  V30 6129 N 595.674 1.31259 -0.872281 0
M  V30 6130 C 596.904 2.00504 -0.498183 0
M  V30 6131 C 597.312 1.65632 0.914479 0
M  V30 6132 O 596.655 0.882849 1.61095 0
M  V30 6133 C 596.717 3.5482 -0.578194 0
M  V30 6134 C 596.381 4.13172 -1.95289 0
M  V30 6135 C 597.378 4.30107 -2.92069 0
M  V30 6136 C 595.063 4.48846 -2.25483 0
M  V30 6137 C 597.057 4.81908 -4.17185 0
M  V30 6138 C 594.744 5.00349 -3.50847 0
M  V30 6139 C 595.742 5.16831 -4.46514 0
M  V30 6140 O 595.43 5.67228 -5.69656 0
M  V30 6141 H 595.162 0.648055 -0.192354 0
M  V30 6142 H 597.716 1.6841 -1.17589 0
M  V30 6143 H 595.946 3.86383 0.156438 0
M  V30 6144 H 597.635 4.05318 -0.217192 0
M  V30 6145 H 598.401 4.02862 -2.7005 0
M  V30 6146 H 594.28 4.35292 -1.51795 0
M  V30 6147 H 597.824 4.94688 -4.91863 0
M  V30 6148 H 593.721 5.27028 -3.72708 0
M  V30 6149 H 594.489 5.85592 -5.7186 0
M  V30 6150 N 597.152 0.631951 1.44375 0
M  V30 6151 C 598.398 0.13697 2.02337 0
M  V30 6152 C 598.731 -1.23826 1.49602 0
M  V30 6153 O 598.006 -1.8221 0.680415 0
M  V30 6154 C 598.289 0.124536 3.59885 0
M  V30 6155 C 598.142 1.53217 4.229 0
M  V30 6156 C 599.461 -0.550481 4.36644 0
M  V30 6157 H 596.58 0.051247 0.735216 0
M  V30 6158 H 599.222 0.808581 1.71936 0
M  V30 6159 H 597.372 -0.44737 3.85916 0
M  V30 6160 H 599.044 2.15303 4.07973 0
M  V30 6161 H 597.287 2.0858 3.80364 0
M  V30 6162 H 597.958 1.4755 5.31914 0
M  V30 6163 H 600.434 -0.0641154 4.16051 0
M  V30 6164 H 599.31 -0.528371 5.46351 0
M  V30 6165 H 599.571 -1.62097 4.11311 0
M  V30 6166 N 598.631 -1.53133 0.372548 0
M  V30 6167 C 599.561 -2.28876 -0.462412 0
M  V30 6168 C 600.542 -1.31583 -1.07796 0
M  V30 6169 O 601.727 -1.60461 -1.09389 0
M  V30 6170 C 598.857 -3.08317 -1.59868 0
M  V30 6171 C 597.811 -4.13355 -1.11003 0
M  V30 6172 C 597.137 -4.8092 -2.33708 0
M  V30 6173 C 598.437 -5.21955 -0.18983 0
M  V30 6174 H 600.131 -2.9892 0.169511 0
M  V30 6175 H 597.677 -1.43761 0.0829658 0
M  V30 6176 H 599.63 -3.60055 -2.18949 0
M  V30 6177 H 598.354 -2.35976 -2.25794 0
M  V30 6178 H 597.013 -3.62573 -0.541869 0
M  V30 6179 H 596.661 -4.05144 -2.98106 0
M  V30 6180 H 596.361 -5.51904 -2.01682 0
M  V30 6181 H 597.885 -5.35455 -2.93462 0
M  V30 6182 H 599.299 -5.69153 -0.688319 0
M  V30 6183 H 597.696 -6.00087 0.0398887 0
M  V30 6184 H 598.766 -4.78811 0.766057 0
M  V30 6185 N 600.109 -0.101901 -1.5727 0
M  V30 6186 C 601.525 0.254739 -1.57554 0
M  V30 6187 C 601.725 1.67937 -1.11352 0
M  V30 6188 O 600.781 2.39722 -0.793081 0
M  V30 6189 C 602.094 0.036975 -3.00677 0
M  V30 6190 C 603.642 0.104199 -3.12827 0
M  V30 6191 C 604.117 -0.0856565 -4.5792 0
M  V30 6192 N 605.608 -0.0310498 -4.6319 0
M  V30 6193 C 606.343 -0.153099 -5.73196 0
M  V30 6194 N 605.839 -0.330364 -6.92012 0
M  V30 6195 N 607.632 -0.0938854 -5.62022 0
M  V30 6196 H 599.783 -1.03263 -1.85609 0
M  V30 6197 H 602.046 -0.405251 -0.857016 0
M  V30 6198 H 601.752 -0.947254 -3.38703 0
M  V30 6199 H 601.626 0.776335 -3.69124 0
M  V30 6200 H 604.013 1.07894 -2.74669 0
M  V30 6201 H 604.094 -0.666762 -2.46957 0
M  V30 6202 H 603.738 -1.05729 -4.96773 0
M  V30 6203 H 603.668 0.705082 -5.21858 0
M  V30 6204 H 606.159 0.103141 -3.77759 0
M  V30 6205 H 606.472 -0.41482 -7.71686 0
M  V30 6206 H 604.817 -0.366119 -6.94035 0
M  V30 6207 H 608.008 0.0435168 -4.6808 0
M  V30 6208 H 608.181 -0.19245 -6.47714 0
M  V30 6209 N 601.587 1.56661 0.17182 0
M  V30 6210 C 602.998 1.71652 0.734329 0
M  V30 6211 C 603.349 0.712335 1.82812 0
M  V30 6212 O 602.474 -0.126401 2.16031 0
M  V30 6213 C 603.069 3.11226 1.3388 0
M  V30 6214 C 601.628 3.27904 1.84813 0
M  V30 6215 C 600.775 2.67603 0.726917 0
M  V30 6216 H 603.726 1.5861 -0.0535665 0
M  V30 6217 H 603.747 3.09849 2.20849 0
M  V30 6218 H 603.259 3.8429 0.54249 0
M  V30 6219 H 601.36 2.59796 2.6709 0
M  V30 6220 H 601.473 4.35637 1.99392 0
M  V30 6221 H 599.837 2.274 1.14723 0
M  V30 6222 H 600.62 3.43252 -0.0575334 0
M  V30 6223 N 603.065 -0.440357 1.51323 0
M  V30 6224 C 603.975 -1.55955 1.75258 0
M  V30 6225 C 604.991 -1.61933 0.636687 0
M  V30 6226 O 606.167 -1.79231 0.918593 0
M  V30 6227 C 603.232 -2.9196 1.86977 0
M  V30 6228 C 602.293 -2.96122 3.10822 0
M  V30 6229 C 601.526 -4.2564 3.21973 0
M  V30 6230 O 601.749 -5.17851 2.39137 0
M  V30 6231 O 600.683 -4.36025 4.14929 0
M  V30 6232 H 604.509 -1.38673 2.70191 0
M  V30 6233 H 602.094 -0.623055 1.35788 0
M  V30 6234 H 603.976 -3.72682 1.96688 0
M  V30 6235 H 602.651 -3.09375 0.952307 0
M  V30 6236 H 601.558 -2.14366 3.06591 0
M  V30 6237 H 602.891 -2.83651 4.02247 0
M  V30 6238 N 604.543 -1.41418 -0.695603 0
M  V30 6239 C 605.789 -1.40982 -1.4578 0
M  V30 6240 C 606.122 -0.0187763 -1.94191 0
M  V30 6241 O 605.397 0.95346 -1.69527 0
M  V30 6242 C 605.68 -2.41657 -2.66972 0
M  V30 6243 C 605.533 -3.89869 -2.24327 0
M  V30 6244 C 606.852 -2.39589 -3.69168 0
M  V30 6245 H 603.971 -0.513405 -0.528757 0
M  V30 6246 H 606.613 -1.72693 -0.792275 0
M  V30 6247 H 604.763 -2.14746 -3.23754 0
M  V30 6248 H 606.435 -4.27683 -1.72872 0
M  V30 6249 H 604.678 -4.04737 -1.56111 0
M  V30 6250 H 605.349 -4.55857 -3.11285 0
M  V30 6251 H 607.825 -2.63471 -3.2206 0
M  V30 6252 H 606.701 -3.12044 -4.51575 0
M  V30 6253 H 606.962 -1.41447 -4.18862 0
M  V30 6254 N 606.021 0.929856 -1.27246 0
M  V30 6255 C 607.27 1.67182 -1.12842 0
M  V30 6256 C 607.583 1.9287 0.325666 0
M  V30 6257 O 608.789 2.64999 0.590572 0
M  V30 6258 C 607.245 3.01097 -1.97151 0
M  V30 6259 C 606.853 2.83115 -3.47203 0
M  V30 6260 C 608.597 3.78907 -1.91389 0
M  V30 6261 C 606.504 4.12573 -4.23719 0
M  V30 6262 H 605.434 0.627064 -0.418697 0
M  V30 6263 H 608.085 1.0332 -1.51649 0
M  V30 6264 H 606.467 3.66004 -1.51186 0
M  V30 6265 H 607.641 2.26989 -4.01015 0
M  V30 6266 H 605.956 2.18736 -3.54321 0
M  V30 6267 H 608.553 4.74837 -2.45834 0
M  V30 6268 H 608.896 4.0674 -0.887047 0
M  V30 6269 H 609.429 3.20794 -2.35237 0
M  V30 6270 H 606.168 3.8992 -5.26918 0
M  V30 6271 H 605.688 4.68371 -3.74685 0
M  V30 6272 H 607.367 4.8095 -4.32777 0
M  V30 6273 N 607.499 1.09233 1.13605 0
M  V30 6274 C 608.409 0.741939 2.22559 0
M  V30 6275 C 609.425 -0.255236 1.72118 0
M  V30 6276 O 610.601 -0.0970747 2.01166 0
M  V30 6277 C 607.666 0.165595 3.46304 0
M  V30 6278 C 606.727 1.21846 4.11645 0
M  V30 6279 C 605.96 0.669526 5.29484 0
M  V30 6280 O 606.183 -0.508228 5.68131 0
M  V30 6281 O 605.117 1.42361 5.84822 0
M  V30 6282 H 608.943 1.65107 2.54899 0
M  V30 6283 H 606.528 0.866584 1.21699 0
M  V30 6284 H 608.41 -0.152592 4.21124 0
M  V30 6285 H 607.085 -0.716573 3.15669 0
M  V30 6286 H 605.992 1.58931 3.38662 0
M  V30 6287 H 607.325 2.07321 4.46407 0
M  V30 6288 N 608.977 -1.30795 0.87923 0
M  V30 6289 C 610.202 -2.01063 0.508769 0
M  V30 6290 C 610.627 -1.65508 -0.893803 0
M  V30 6291 O 609.985 -0.868616 -1.59138 0
M  V30 6292 C 610.033 -3.54054 0.683991 0
M  V30 6293 O 609.137 -4.11498 -0.272654 0
M  V30 6294 H 608.478 -0.632786 0.201191 0
M  V30 6295 H 611.008 -1.66776 1.18519 0
M  V30 6296 H 611.018 -4.03845 0.580798 0
M  V30 6297 H 609.693 -3.79271 1.70665 0
M  V30 6298 H 608.27 -3.72695 -0.12364 0
M  V30 6299 N 610.455 -0.639598 -1.44038 0
M  V30 6300 C 611.702 -0.14748 -2.01962 0
M  V30 6301 C 612.03 1.23372 -1.50365 0
M  V30 6302 O 611.285 1.8345 -0.681501 0
M  V30 6303 C 611.584 -0.0925348 -3.5728 0
M  V30 6304 C 611.25 -1.41365 -4.28167 0
M  V30 6305 C 609.912 -1.77545 -4.47248 0
M  V30 6306 C 612.264 -2.2853 -4.68427 0
M  V30 6307 C 609.592 -3.00583 -5.03852 0
M  V30 6308 C 611.944 -3.50846 -5.26393 0
M  V30 6309 C 610.608 -3.8724 -5.43692 0
M  V30 6310 H 609.878 -0.0539666 -0.739032 0
M  V30 6311 H 612.525 -0.827599 -1.72694 0
M  V30 6312 H 610.83 0.670987 -3.86012 0
M  V30 6313 H 612.527 0.304891 -3.99839 0
M  V30 6314 H 609.117 -1.1221 -4.13651 0
M  V30 6315 H 613.301 -2.0187 -4.5339 0
M  V30 6316 H 608.557 -3.28846 -5.15432 0
M  V30 6317 H 612.731 -4.18616 -5.56537 0
M  V30 6318 H 610.358 -4.8266 -5.87319 0
M  V30 6319 N 611.933 1.52934 -0.380664 0
M  V30 6320 C 613.163 2.05587 0.204302 0
M  V30 6321 C 613.571 1.25288 1.41773 0
M  V30 6322 O 612.914 0.290394 1.8139 0
M  V30 6323 C 612.976 3.53624 0.647324 0
M  V30 6324 C 612.64 4.54765 -0.451465 0
M  V30 6325 C 613.637 5.03226 -1.30614 0
M  V30 6326 C 611.322 4.98508 -0.616025 0
M  V30 6327 C 613.316 5.94046 -2.31058 0
M  V30 6328 C 611.003 5.89131 -1.62381 0
M  V30 6329 C 612.001 6.36792 -2.46952 0
M  V30 6330 O 611.689 7.25626 -3.46009 0
M  V30 6331 H 611.421 0.675013 0.0365198 0
M  V30 6332 H 613.975 1.98125 -0.541827 0
M  V30 6333 H 612.205 3.58676 1.44529 0
M  V30 6334 H 613.894 3.89061 1.15698 0
M  V30 6335 H 614.66 4.70167 -1.19027 0
M  V30 6336 H 610.539 4.60989 0.0324987 0
M  V30 6337 H 614.083 6.3117 -2.97104 0
M  V30 6338 H 609.98 6.21603 -1.7401 0
M  V30 6339 H 610.748 7.43664 -3.41916 0
M  V30 6340 N 613.412 0.11024 1.57214 0
M  V30 6341 C 614.642 -0.557025 1.98949 0
M  V30 6342 C 615.05 -1.61317 0.988606 0
M  V30 6343 O 614.393 -1.83679 -0.0279159 0
M  V30 6344 C 614.455 -1.24956 3.37085 0
M  V30 6345 C 614.119 -0.342398 4.55716 0
M  V30 6346 C 615.116 0.415511 5.18237 0
M  V30 6347 C 612.801 -0.256029 5.01647 0
M  V30 6348 C 614.795 1.24761 6.25071 0
M  V30 6349 C 612.482 0.579713 6.08344 0
M  V30 6350 C 613.48 1.33017 6.69922 0
M  V30 6351 O 613.168 2.15205 7.74559 0
M  V30 6352 H 612.9 -0.152792 0.658506 0
M  V30 6353 H 615.454 0.19076 2.04512 0
M  V30 6354 H 613.684 -2.04424 3.2825 0
M  V30 6355 H 615.373 -1.81286 3.63167 0
M  V30 6356 H 616.139 0.358605 4.83672 0
M  V30 6357 H 612.018 -0.829831 4.5347 0
M  V30 6358 H 615.562 1.83386 6.73064 0
M  V30 6359 H 611.459 0.638044 6.42339 0
M  V30 6360 H 612.227 2.08052 7.91617 0
M  V30 6361 N 614.89 -1.56749 -0.16351 0
M  V30 6362 C 615.853 -1.96121 -1.18613 0
M  V30 6363 C 616.853 -0.845765 -1.36761 0
M  V30 6364 O 618.043 -1.11268 -1.34033 0
M  V30 6365 C 615.175 -2.26282 -2.54969 0
M  V30 6366 H 616.368 -2.87639 -0.848764 0
M  V30 6367 H 613.921 -1.50928 -0.406251 0
M  V30 6368 H 614.656 -1.37504 -2.93706 0
M  V30 6369 H 614.441 -3.07595 -2.43162 0
M  V30 6370 H 615.931 -2.57638 -3.28653 0
M  V30 6371 N 616.368 0.432326 -1.51554 0
M  V30 6372 C 617.318 1.52366 -1.69614 0
M  V30 6373 C 618.302 1.51205 -0.550083 0
M  V30 6374 O 619.494 1.57573 -0.806206 0
M  V30 6375 C 616.623 2.90513 -1.82913 0
M  V30 6376 C 615.709 2.9641 -3.03318 0
M  V30 6377 N 616.1 2.72043 -4.26411 0
M  V30 6378 C 614.398 3.27572 -3.02675 0
M  V30 6379 C 615.099 2.83912 -5.07709 0
M  V30 6380 N 614.075 3.15798 -4.42462 0
M  V30 6381 H 617.877 1.32285 -2.62446 0
M  V30 6382 H 615.391 0.639708 -1.4927 0
M  V30 6383 H 617.388 3.69032 -1.93962 0
M  V30 6384 H 616.048 3.1161 -0.912655 0
M  V30 6385 H 617.059 2.46876 -4.55272 0
M  V30 6386 H 613.736 3.54411 -2.20678 0
M  V30 6387 H 615.126 2.68984 -6.15709 0
M  V30 6388 N 617.846 1.41785 0.688094 0
M  V30 6389 C 619.262 1.24419 0.999608 0
M  V30 6390 C 619.462 0.138868 2.01021 0
M  V30 6391 O 618.518 -0.494283 2.47615 0
M  V30 6392 C 619.831 2.59625 1.51709 0
M  V30 6393 C 621.379 2.66869 1.63554 0
M  V30 6394 C 621.854 4.0241 2.18702 0
M  V30 6395 N 623.345 4.04295 2.26053 0
M  V30 6396 C 624.08 5.05977 2.69768 0
M  V30 6397 N 623.576 6.18047 3.13033 0
M  V30 6398 N 625.369 4.93336 2.69398 0
M  V30 6399 H 617.52 2.12392 0.0187427 0
M  V30 6400 H 619.783 0.945347 0.0708673 0
M  V30 6401 H 619.489 3.41297 0.849059 0
M  V30 6402 H 619.363 2.82628 2.49803 0
M  V30 6403 H 621.75 1.8555 2.29467 0
M  V30 6404 H 621.831 2.47668 0.639857 0
M  V30 6405 H 621.475 4.8418 1.53402 0
M  V30 6406 H 621.405 4.18955 3.19037 0
M  V30 6407 H 623.896 3.23383 1.9553 0
M  V30 6408 H 624.209 6.91498 3.45038 0
M  V30 6409 H 622.554 6.21572 3.10923 0
M  V30 6410 H 625.745 4.04865 2.34952 0
M  V30 6411 H 625.918 5.72717 3.03148 0
M  V30 6412 N 619.324 -0.923095 1.27737 0
M  V30 6413 C 620.57 -1.67375 1.14514 0
M  V30 6414 C 620.903 -1.91751 -0.307424 0
M  V30 6415 O 620.178 -1.51119 -1.22447 0
M  V30 6416 C 620.461 -3.03745 1.9342 0
M  V30 6417 C 620.314 -2.86581 3.46686 0
M  V30 6418 C 621.633 -4.04144 1.74228 0
M  V30 6419 H 618.752 -0.607427 0.417374 0
M  V30 6420 H 621.394 -1.07089 1.56946 0
M  V30 6421 H 619.544 -3.55204 1.5736 0
M  V30 6422 H 621.216 -2.42203 3.92601 0
M  V30 6423 H 619.459 -2.21829 3.72793 0
M  V30 6424 H 620.13 -3.83381 3.97143 0
M  V30 6425 H 622.606 -3.61712 2.05678 0
M  V30 6426 H 621.482 -4.97543 2.31824 0
M  V30 6427 H 621.743 -4.36661 0.691373 0
M  V30 6428 N 620.802 -1.09834 -1.13024 0
M  V30 6429 C 622.03 -0.858902 -1.8823 0
M  V30 6430 C 622.445 0.590164 -1.79339 0
M  V30 6431 O 621.802 1.4065 -1.16292 0
M  V30 6432 C 621.853 -1.29066 -3.37675 0
M  V30 6433 O 621.574 -2.6829 -3.46341 0
M  V30 6434 C 623.075 -1.08421 -4.29837 0
M  V30 6435 H 620.295 -0.308713 -0.595766 0
M  V30 6436 H 622.839 -1.4614 -1.4305 0
M  V30 6437 H 620.994 -0.731961 -3.80422 0
M  V30 6438 H 621.408 -2.86598 -4.39274 0
M  V30 6439 H 622.882 -1.43553 -5.33007 0
M  V30 6440 H 623.359 -0.0223315 -4.39194 0
M  V30 6441 H 623.965 -1.62907 -3.92863 0
M  V30 6442 N 622.28 1.30327 -0.886154 0
M  V30 6443 C 623.528 1.9571 -0.504195 0
M  V30 6444 C 623.849 1.70294 0.950003 0
M  V30 6445 O 623.119 1.02718 1.66811 0
M  V30 6446 H 621.699 0.72412 -0.183465 0
M  V30 6447 H 624.361 1.58835 -1.12949 0
M  V30 6448 H 623.457 3.04704 -0.675431 0
M  V30 6449 N 623.758 0.647228 1.43697 0
M  V30 6450 C 624.705 -0.0480092 2.3075 0
M  V30 6451 C 625.675 -0.820705 1.44408 0
M  V30 6452 O 626.86 -0.798515 1.73287 0
M  V30 6453 C 624 -1.01259 3.2991 0
M  V30 6454 C 623.113 -0.236629 4.31351 0
M  V30 6455 C 622.248 -1.19447 5.17596 0
M  V30 6456 C 621.287 -0.408595 6.10735 0
M  V30 6457 N 620.424 -1.31772 6.89623 0
M  V30 6458 H 625.264 0.700238 2.89656 0
M  V30 6459 H 622.801 0.357082 1.427 0
M  V30 6460 H 624.759 -1.58538 3.85903 0
M  V30 6461 H 623.389 -1.72778 2.72667 0
M  V30 6462 H 622.441 0.452353 3.77701 0
M  V30 6463 H 623.753 0.374731 4.9739 0
M  V30 6464 H 622.907 -1.83809 5.78186 0
M  V30 6465 H 621.646 -1.83975 4.51669 0
M  V30 6466 H 620.651 0.24841 5.49239 0
M  V30 6467 H 621.876 0.232188 6.78703 0
M  V30 6468 H 619.822 -1.94991 6.2635 0
M  V30 6469 H 619.739 -0.760779 7.52162 0
M  V30 6470 H 621.007 -1.94967 7.54724 0
M  V30 6471 N 625.236 -1.5273 0.388769 0
M  V30 6472 C 626.146 -2.30165 -0.453993 0
M  V30 6473 C 627.162 -1.37058 -1.07197 0
M  V30 6474 O 628.338 -1.70127 -1.0779 0
M  V30 6475 C 625.403 -3.09303 -1.56628 0
M  V30 6476 C 624.464 -4.18117 -0.973467 0
M  V30 6477 C 623.697 -4.93472 -2.03275 0
M  V30 6478 O 623.92 -4.68913 -3.24772 0
M  V30 6479 O 622.854 -5.78833 -1.65034 0
M  V30 6480 H 626.68 -3.03185 0.176816 0
M  V30 6481 H 624.265 -1.4862 0.152501 0
M  V30 6482 H 626.147 -3.58648 -2.21246 0
M  V30 6483 H 624.822 -2.39098 -2.18206 0
M  V30 6484 H 623.729 -3.7297 -0.290556 0
M  V30 6485 H 625.062 -4.90556 -0.401908 0
M  V30 6486 N 626.714 -0.118576 -1.57153 0
M  V30 6487 C 627.963 0.539339 -1.94355 0
M  V30 6488 C 628.276 1.67858 -1.00415 0
M  V30 6489 O 629.482 2.39922 -1.27081 0
M  V30 6490 C 627.938 1.01082 -3.45414 0
M  V30 6491 C 627.546 -0.0999402 -4.47889 0
M  V30 6492 C 629.29 1.64013 -3.91535 0
M  V30 6493 C 627.197 0.388212 -5.90124 0
M  V30 6494 H 626.127 0.205247 -0.725527 0
M  V30 6495 H 628.778 -0.19836 -1.82425 0
M  V30 6496 H 627.16 1.80292 -3.52577 0
M  V30 6497 H 628.334 -0.876189 -4.52393 0
M  V30 6498 H 626.649 -0.635885 -4.11516 0
M  V30 6499 H 629.246 2.01649 -4.95219 0
M  V30 6500 H 629.589 2.51836 -3.31488 0
M  V30 6501 H 630.122 0.913439 -3.87171 0
M  V30 6502 H 626.861 -0.453963 -6.53926 0
M  V30 6503 H 626.381 1.13095 -5.89041 0
M  V30 6504 H 628.06 0.849574 -6.41398 0
M  V30 6505 N 628.193 1.56834 0.155195 0
M  V30 6506 C 629.423 1.86778 0.883044 0
M  V30 6507 C 629.831 0.703824 1.75622 0
M  V30 6508 O 629.174 -0.33581 1.80605 0
M  V30 6509 C 629.236 3.1133 1.79761 0
M  V30 6510 C 628.9 4.43504 1.10242 0
M  V30 6511 C 629.897 5.17859 0.460204 0
M  V30 6512 C 627.582 4.90233 1.09437 0
M  V30 6513 C 629.576 6.37144 -0.180782 0
M  V30 6514 C 627.263 6.09444 0.449569 0
M  V30 6515 C 628.261 6.82744 -0.186888 0
M  V30 6516 O 627.949 7.99692 -0.821486 0
M  V30 6517 H 627.681 0.62352 0.261149 0
M  V30 6518 H 630.235 2.04813 0.155204 0
M  V30 6519 H 628.465 2.89282 2.56618 0
M  V30 6520 H 630.154 3.27587 2.39669 0
M  V30 6521 H 630.92 4.8283 0.458289 0
M  V30 6522 H 626.799 4.33109 1.57917 0
M  V30 6523 H 630.343 6.94296 -0.678154 0
M  V30 6524 H 626.24 6.43936 0.449123 0
M  V30 6525 H 627.008 8.15306 -0.722337 0
M  V30 6526 N 629.671 -0.424282 1.51781 0
M  V30 6527 C 631.087 -0.761768 1.40247 0
M  V30 6528 C 631.287 -1.95324 0.495041 0
M  V30 6529 O 630.343 -2.5246 -0.0448949 0
M  V30 6530 C 631.656 -1.0299 2.82513 0
M  V30 6531 C 633.204 -1.13354 2.91753 0
M  V30 6532 C 633.679 -1.43453 4.34954 0
M  V30 6533 N 635.17 -1.5035 4.3812 0
M  V30 6534 C 635.905 -1.75236 5.45967 0
M  V30 6535 N 635.401 -1.97827 6.63955 0
M  V30 6536 N 637.194 -1.77126 5.33463 0
M  V30 6537 H 629.345 0.360228 2.09323 0
M  V30 6538 H 631.608 0.0988128 0.942836 0
M  V30 6539 H 631.314 -0.226961 3.50967 0
M  V30 6540 H 631.188 -1.95411 3.22637 0
M  V30 6541 H 633.575 -1.92709 2.23489 0
M  V30 6542 H 633.656 -0.188041 2.55108 0
M  V30 6543 H 633.3 -0.646209 5.03772 0
M  V30 6544 H 633.23 -2.3923 4.69123 0
M  V30 6545 H 635.721 -1.34742 3.53062 0
M  V30 6546 H 636.034 -2.16223 7.41935 0
M  V30 6547 H 634.379 -1.95123 6.67047 0
M  V30 6548 H 637.57 -1.59005 4.40267 0
M  V30 6549 H 637.743 -1.96182 6.17589 0
M  V30 6550 N 631.149 -1.42148 -0.680565 0
M  V30 6551 C 632.426 -1.32795 -1.43614 0
M  V30 6552 C 632.806 0.037415 -2.11067 0
M  V30 6553 O 632.154 1.05258 -2.02813 0
M  V30 6554 C 632.364 -2.49206 -2.44331 0
M  V30 6555 C 633.712 -2.91059 -3.09144 0
M  V30 6556 O 634.736 -2.49054 -2.54657 0
M  V30 6557 O 633.595 -3.63741 -4.07866 0
M  V30 6558 H 630.689 -0.523397 -0.640301 0
M  V30 6559 H 633.235 -1.54144 -0.709775 0
M  V30 6560 H 632.007 -3.40252 -1.93247 0
M  V30 6561 H 631.63 -2.29813 -3.24456 0
M  V30 6562 N 632.627 0.916307 -1.28225 0
M  V30 6563 C 633.873 1.66794 -1.1641 0
M  V30 6564 C 634.228 1.90278 0.284986 0
M  V30 6565 O 633.521 1.49023 1.20427 0
M  V30 6566 C 633.715 3.03125 -1.8934 0
M  V30 6567 C 633.544 2.92947 -3.41192 0
M  V30 6568 C 632.314 2.9461 -4.10528 0
M  V30 6569 C 634.512 2.7121 -4.36978 0
M  V30 6570 N 632.494 2.74993 -5.48864 0
M  V30 6571 C 633.865 2.60411 -5.6266 0
M  V30 6572 C 635.92 2.56187 -4.26934 0
M  V30 6573 C 634.623 2.3612 -6.79441 0
M  V30 6574 C 636.649 2.33275 -5.43449 0
M  V30 6575 C 636.011 2.23228 -6.68093 0
M  V30 6576 H 632.11 0.616654 -0.480896 0
M  V30 6577 H 634.694 1.08237 -1.61842 0
M  V30 6578 H 632.865 3.59774 -1.46346 0
M  V30 6579 H 634.597 3.67294 -1.69932 0
M  V30 6580 H 631.352 3.0527 -3.62087 0
M  V30 6581 H 631.776 2.68284 -6.21573 0
M  V30 6582 H 636.418 2.62707 -3.31278 0
M  V30 6583 H 634.136 2.28339 -7.75169 0
M  V30 6584 H 637.722 2.22519 -5.37565 0
M  V30 6585 H 636.602 2.05741 -7.5673 0
M  V30 6586 N 634.105 1.10431 1.1244 0
M  V30 6587 C 635.351 0.847972 1.84221 0
M  V30 6588 C 635.684 -0.624903 1.83871 0
M  V30 6589 O 634.959 -1.46074 1.28423 0
M  V30 6590 C 635.242 1.39695 3.319 0
M  V30 6591 C 635.095 2.93668 3.40704 0
M  V30 6592 C 636.414 1.03924 4.27654 0
M  V30 6593 H 633.533 0.309502 0.668863 0
M  V30 6594 H 636.175 1.36745 1.31912 0
M  V30 6595 H 634.325 0.955095 3.76577 0
M  V30 6596 H 635.997 3.46379 3.04662 0
M  V30 6597 H 634.24 3.30272 2.81252 0
M  V30 6598 H 634.911 3.27162 4.446 0
M  V30 6599 H 637.387 1.42049 3.91102 0
M  V30 6600 H 636.263 1.45027 5.29394 0
M  V30 6601 H 636.524 -0.051336 4.4207 0
M  V30 6602 N 635.583 -1.29855 0.893053 0
M  V30 6603 C 636.829 -1.96488 0.52574 0
M  V30 6604 C 637.184 -1.69164 -0.916594 0
M  V30 6605 O 636.477 -0.990405 -1.64017 0
M  V30 6606 C 636.671 -3.49515 0.746588 0
M  V30 6607 C 636.5 -3.91715 2.20884 0
M  V30 6608 C 635.27 -4.16915 2.85499 0
M  V30 6609 C 637.468 -4.03934 3.18342 0
M  V30 6610 N 635.45 -4.45634 4.22236 0
M  V30 6611 C 636.821 -4.36629 4.40176 0
M  V30 6612 C 638.876 -3.86387 3.14021 0
M  V30 6613 C 637.579 -4.53605 5.58243 0
M  V30 6614 C 639.605 -4.04569 4.31367 0
M  V30 6615 C 638.967 -4.37617 5.5197 0
M  V30 6616 H 635.066 -0.743657 0.241863 0
M  V30 6617 H 637.65 -1.56927 1.15248 0
M  V30 6618 H 635.821 -3.88113 0.149281 0
M  V30 6619 H 637.553 -4.03224 0.345372 0
M  V30 6620 H 634.308 -4.10423 2.36326 0
M  V30 6621 H 634.732 -4.64114 4.92876 0
M  V30 6622 H 639.374 -3.59906 2.21873 0
M  V30 6623 H 637.092 -4.78925 6.50889 0
M  V30 6624 H 640.678 -3.92452 4.29503 0
M  V30 6625 H 639.558 -4.51395 6.41258 0
M  V30 6626 N 637.061 -0.65484 -1.43351 0
M  V30 6627 C 638.009 0.0476784 -2.32551 0
M  V30 6628 C 639.003 0.811403 -1.48703 0
M  V30 6629 O 640.209 0.721621 -1.64902 0
M  V30 6630 H 636.584 0.0342038 -0.751222 0
M  V30 6631 H 638.555 -0.722342 -2.89525 0
M  V30 6632 C 637.304 0.999251 -3.33032 0
M  V30 6633 H 636.627 0.421005 -3.97577 0
M  V30 6634 H 638.067 1.45986 -3.98076 0
M  V30 6635 C 636.526 2.09606 -2.63756 0
M  V30 6636 O 637.056 3.18004 -2.4543 0
M  V30 6637 N 635.262 1.86207 -2.23103 0
M  V30 6638 H 634.809 0.980555 -2.38208 0
M  V30 6639 H 634.767 2.59787 -1.77081 0
M  V30 6640 N 638.539 1.52521 -0.396863 0
M  V30 6641 C 639.502 2.2527 0.422604 0
M  V30 6642 C 640.502 1.27184 0.983913 0
M  V30 6643 O 641.692 1.51222 0.864723 0
M  V30 6644 C 638.824 3.01356 1.59365 0
M  V30 6645 H 640.017 2.99133 -0.214416 0
M  V30 6646 H 637.57 1.55587 -0.149128 0
M  V30 6647 H 638.305 2.31813 2.26789 0
M  V30 6648 H 638.09 3.73357 1.19779 0
M  V30 6649 H 639.58 3.56571 2.17363 0
M  V30 6650 N 640.017 0.126909 1.57088 0
M  V30 6651 C 641.264 -0.529168 1.95464 0
M  V30 6652 C 641.592 -1.6618 1.01067 0
M  V30 6653 O 640.847 -1.95667 0.0360254 0
M  V30 6654 C 641.146 -1.095 3.40212 0
M  V30 6655 C 640.812 -0.0829015 4.50824 0
M  V30 6656 C 639.474 0.195377 4.80803 0
M  V30 6657 C 641.826 0.606411 5.1766 0
M  V30 6658 C 639.154 1.16912 5.74933 0
M  V30 6659 C 641.506 1.56884 6.12838 0
M  V30 6660 C 640.17 1.85502 6.41206 0
M  V30 6661 H 639.44 -0.193636 0.715252 0
M  V30 6662 H 642.087 0.209489 1.90351 0
M  V30 6663 H 640.392 -1.91058 3.42059 0
M  V30 6664 H 642.089 -1.61087 3.67222 0
M  V30 6665 H 638.679 -0.309979 4.27478 0
M  V30 6666 H 642.863 0.404597 4.94648 0
M  V30 6667 H 638.119 1.3975 5.95214 0
M  V30 6668 H 642.293 2.10859 6.6371 0
M  V30 6669 H 639.92 2.61109 7.13951 0
M  V30 6670 N 641.495 -1.56914 -0.146875 0
M  V30 6671 C 642.741 -1.83628 -0.860741 0
M  V30 6672 C 643.074 -0.708528 -1.80813 0
M  V30 6673 O 642.349 0.287838 -1.92358 0
M  V30 6674 C 642.632 -3.20836 -1.63511 0
M  V30 6675 C 642.485 -4.44174 -0.709199 0
M  V30 6676 C 643.804 -3.55268 -2.59756 0
M  V30 6677 H 640.923 -0.667949 -0.311468 0
M  V30 6678 H 643.565 -1.89582 -0.125936 0
M  V30 6679 H 641.715 -3.15891 -2.26153 0
M  V30 6680 H 643.387 -4.61205 -0.0937781 0
M  V30 6681 H 641.63 -4.33796 -0.0187856 0
M  V30 6682 H 642.301 -5.36785 -1.28707 0
M  V30 6683 H 644.777 -3.60824 -2.07232 0
M  V30 6684 H 643.653 -4.52303 -3.10987 0
M  V30 6685 H 643.914 -2.81231 -3.41118 0
M  V30 6686 N 642.974 0.416227 -1.52004 0
M  V30 6687 C 643.937 1.48926 -1.74223 0
M  V30 6688 C 644.937 1.48693 -0.612119 0
M  V30 6689 O 646.127 1.50343 -0.879921 0
M  V30 6690 C 643.259 2.88372 -1.81809 0
M  V30 6691 H 644.452 1.3052 -2.70008 0
M  V30 6692 H 642.005 0.646271 -1.42313 0
M  V30 6693 H 642.74 3.12157 -0.879135 0
M  V30 6694 H 642.525 2.89944 -2.6396 0
M  V30 6695 H 644.015 3.66173 -2.00766 0
M  V30 6696 N 644.452 1.42507 0.673017 0
M  V30 6697 C 645.701 1.42364 1.42883 0
M  V30 6698 C 646.014 0.0441598 1.9555 0
M  V30 6699 O 647.22 -0.0798679 2.71382 0
M  V30 6700 C 645.676 2.5043 2.58482 0
M  V30 6701 C 645.284 3.94392 2.12506 0
M  V30 6702 C 647.028 2.59455 3.35981 0
M  V30 6703 C 644.935 4.93964 3.25198 0
M  V30 6704 H 643.865 0.52951 0.536782 0
M  V30 6705 H 646.516 1.68422 0.728448 0
M  V30 6706 H 644.898 2.1754 3.30896 0
M  V30 6707 H 646.072 4.36645 1.47233 0
M  V30 6708 H 644.387 3.89233 1.4794 0
M  V30 6709 H 646.984 3.31025 4.19912 0
M  V30 6710 H 647.327 1.63869 3.82691 0
M  V30 6711 H 647.86 2.91549 2.70637 0
M  V30 6712 H 644.599 5.91034 2.83477 0
M  V30 6713 H 644.119 4.56341 3.89247 0
M  V30 6714 H 645.798 5.15763 3.90637 0
M  V30 6715 N 645.93 -0.909495 1.28709 0
M  V30 6716 C 646.878 -2.03381 1.12866 0
M  V30 6717 C 647.872 -1.69335 0.0468074 0
M  V30 6718 O 649.078 -1.78819 0.205891 0
M  V30 6719 H 645.453 -0.666452 0.348348 0
M  V30 6720 H 647.424 -2.13885 2.08077 0
M  V30 6721 C 646.173 -3.38092 0.811742 0
M  V30 6722 H 645.496 -3.64786 1.63619 0
M  V30 6723 H 646.936 -4.17477 0.740869 0
M  V30 6724 C 645.395 -3.33395 -0.484679 0
M  V30 6725 O 645.925 -3.72089 -1.5137 0
M  V30 6726 N 644.131 -2.86491 -0.486961 0
M  V30 6727 H 643.678 -2.55199 0.350877 0
M  V30 6728 H 643.636 -2.83731 -1.3544 0
M  V30 6729 N 647.408 -1.11026 -1.11852 0
M  V30 6730 C 648.633 -0.879064 -1.87849 0
M  V30 6731 C 649.058 0.565406 -1.79401 0
M  V30 6732 O 648.416 1.39886 -1.15333 0
M  V30 6733 C 648.464 -1.33985 -3.34784 0
M  V30 6734 O 647.568 -0.508803 -4.09249 0
M  V30 6735 H 646.909 -0.316992 -0.583448 0
M  V30 6736 H 649.439 -1.47863 -1.41413 0
M  V30 6737 H 649.449 -1.33248 -3.85628 0
M  V30 6738 H 648.124 -2.39172 -3.40249 0
M  V30 6739 H 646.701 -0.581913 -3.68332 0
M  V30 6740 N 648.886 1.2938 -0.899927 0
M  V30 6741 C 650.114 1.99691 -0.541386 0
M  V30 6742 C 650.529 1.67355 0.873936 0
M  V30 6743 O 649.886 0.918728 1.57688 0
M  V30 6744 C 649.937 3.54168 -0.72438 0
M  V30 6745 O 649.658 3.85359 -2.08399 0
M  V30 6746 C 651.159 4.41746 -0.370819 0
M  V30 6747 H 648.379 0.638037 -0.207726 0
M  V30 6748 H 650.923 1.6491 -1.20934 0
M  V30 6749 H 649.078 3.87261 -0.103607 0
M  V30 6750 H 649.492 4.80032 -2.11352 0
M  V30 6751 H 650.966 5.49256 -0.549693 0
M  V30 6752 H 651.443 4.33712 0.692148 0
M  V30 6753 H 652.049 4.14125 -0.968543 0
M  V30 6754 N 650.364 0.662433 1.43002 0
M  V30 6755 C 651.604 0.183312 2.03576 0
M  V30 6756 C 651.968 -1.18354 1.51183 0
M  V30 6757 O 653.169 -1.7566 2.03462 0
M  V30 6758 C 651.44 0.202908 3.56824 0
M  V30 6759 S 652.999 -0.20702 4.38311 0
M  V30 6760 H 649.817 0.0765001 0.706872 0
M  V30 6761 H 652.419 0.872827 1.74934 0
M  V30 6762 H 651.123 1.20028 3.92456 0
M  V30 6763 H 650.654 -0.506845 3.90121 0
M  V30 6764 H 652.669 -1.44358 4.74737 0
M  V30 6765 N 651.842 -1.52309 0.404946 0
M  V30 6766 C 653.258 -1.59503 0.0556255 0
M  V30 6767 C 653.458 -1.41805 -1.43156 0
M  V30 6768 O 652.514 -1.2429 -2.19792 0
M  V30 6769 C 653.827 -2.95687 0.546801 0
M  V30 6770 C 655.375 -3.08909 0.504413 0
M  V30 6771 C 655.85 -4.47566 0.97203 0
M  V30 6772 N 657.341 -4.53795 0.928679 0
M  V30 6773 C 658.076 -5.59346 1.26174 0
M  V30 6774 N 657.572 -6.72469 1.66604 0
M  V30 6775 N 659.365 -5.49532 1.18198 0
M  V30 6776 H 651.516 -1.6206 1.37296 0
M  V30 6777 H 653.779 -0.762161 0.563751 0
M  V30 6778 H 653.485 -3.13905 1.58609 0
M  V30 6779 H 653.359 -3.77172 -0.0457905 0
M  V30 6780 H 655.746 -2.90378 -0.525819 0
M  V30 6781 H 655.827 -2.2934 1.13301 0
M  V30 6782 H 655.471 -4.6684 2.00057 0
M  V30 6783 H 655.401 -5.25625 0.320292 0
M  V30 6784 H 657.892 -3.72588 0.631369 0
M  V30 6785 H 658.205 -7.48993 1.9034 0
M  V30 6786 H 656.55 -6.73761 1.70504 0
M  V30 6787 H 659.741 -4.60038 0.865011 0
M  V30 6788 H 659.914 -6.31687 1.44485 0
M  V30 6789 N 653.32 -0.135238 -1.57019 0
M  V30 6790 C 654.548 0.526066 -2.001 0
M  V30 6791 C 654.963 1.59184 -1.01519 0
M  V30 6792 O 654.32 1.82497 -0.0104258 0
M  V30 6793 C 654.371 1.13744 -3.43139 0
M  V30 6794 O 654.092 0.114259 -4.37951 0
M  V30 6795 C 655.593 1.8805 -4.01438 0
M  V30 6796 H 652.813 0.137962 -0.656664 0
M  V30 6797 H 655.357 -0.226359 -2.03243 0
M  V30 6798 H 653.512 1.84056 -3.40885 0
M  V30 6799 H 653.926 0.56058 -5.21496 0
M  V30 6800 H 655.4 2.26133 -5.03555 0
M  V30 6801 H 655.877 2.76194 -3.41487 0
M  V30 6802 H 656.483 1.22464 -4.07287 0
M  V30 6803 N 654.798 1.5699 0.138552 0
M  V30 6804 C 656.075 1.74741 0.87891 0
M  V30 6805 C 656.455 0.705522 1.98961 0
M  V30 6806 O 655.803 -0.274066 2.2685 0
M  V30 6807 C 656.013 3.1909 1.4136 0
M  V30 6808 C 657.361 3.81023 1.87368 0
M  V30 6809 O 658.385 3.22571 1.51084 0
M  V30 6810 O 657.244 4.83722 2.54312 0
M  V30 6811 H 654.338 0.714781 0.415953 0
M  V30 6812 H 656.884 1.69248 0.123817 0
M  V30 6813 H 655.656 3.86424 0.61579 0
M  V30 6814 H 655.279 3.29043 2.23196 0
M  V30 6815 N 656.276 -0.40816 1.52223 0
M  V30 6816 C 657.501 -1.18127 1.70472 0
M  V30 6817 C 657.926 -1.83491 0.41384 0
M  V30 6818 O 657.284 -1.70047 -0.628778 0
M  V30 6819 C 657.332 -2.21935 2.84213 0
M  V30 6820 O 656.436 -3.28099 2.4985 0
M  V30 6821 H 655.777 -0.344781 0.56747 0
M  V30 6822 H 658.307 -0.478328 1.9893 0
M  V30 6823 H 658.317 -2.66248 3.09153 0
M  V30 6824 H 656.992 -1.73744 3.7787 0
M  V30 6825 H 655.569 -2.89058 2.35584 0
M  V30 6826 N 657.755 -1.42862 -0.66545 0
M  V30 6827 C 659.003 -1.43546 -1.42264 0
M  V30 6828 C 659.324 -0.0563116 -1.94919 0
M  V30 6829 O 658.594 0.906568 -1.73661 0
M  V30 6830 H 657.174 -0.528464 -0.527953 0
M  V30 6831 H 659.836 -1.78363 -0.785665 0
M  V30 6832 H 658.932 -2.14079 -2.27105 0
M  V30 6833 N 659.233 0.902656 -1.29189 0
M  V30 6834 C 660.48 1.65287 -1.16989 0
M  V30 6835 C 660.808 1.92485 0.279232 0
M  V30 6836 O 660.063 1.53143 1.21843 0
M  V30 6837 C 660.362 3.011 -1.92545 0
M  V30 6838 C 660.028 2.93521 -3.42281 0
M  V30 6839 C 658.69 2.91161 -3.83117 0
M  V30 6840 C 661.042 2.82947 -4.3771 0
M  V30 6841 C 658.37 2.76043 -5.17704 0
M  V30 6842 C 660.722 2.69368 -5.72384 0
M  V30 6843 C 659.386 2.65373 -6.12482 0
M  V30 6844 H 658.656 0.604828 -0.428094 0
M  V30 6845 H 661.303 1.05084 -1.60092 0
M  V30 6846 H 659.608 3.65153 -1.42024 0
M  V30 6847 H 661.305 3.58073 -1.80512 0
M  V30 6848 H 657.895 2.96158 -3.09819 0
M  V30 6849 H 662.079 2.83849 -4.07116 0
M  V30 6850 H 657.335 2.71352 -5.47885 0
M  V30 6851 H 661.509 2.60156 -6.45981 0
M  V30 6852 H 659.136 2.53415 -7.16718 0
M  V30 6853 N 660.711 1.11618 1.11262 0
M  V30 6854 C 661.674 0.779447 2.15539 0
M  V30 6855 C 662.674 -0.202081 1.59525 0
M  V30 6856 O 663.864 0.0226356 1.74185 0
M  V30 6857 C 660.996 0.15674 3.40539 0
M  V30 6858 H 662.189 1.70324 2.4684 0
M  V30 6859 H 659.742 0.918298 1.26479 0
M  V30 6860 H 660.477 -0.777186 3.1485 0
M  V30 6861 H 660.262 0.863308 3.82478 0
M  V30 6862 H 661.752 -0.062661 4.17553 0
M  V30 6863 N 662.189 -1.289 0.906776 0
M  V30 6864 C 663.152 -2.25777 0.394656 0
M  V30 6865 C 664.152 -1.53621 -0.475119 0
M  V30 6866 O 665.342 -1.71949 -0.279165 0
M  V30 6867 C 662.474 -3.38113 -0.43499 0
M  V30 6868 H 663.667 -2.72592 1.25033 0
M  V30 6869 H 661.22 -1.40463 0.685547 0
M  V30 6870 H 661.955 -2.96648 -1.31036 0
M  V30 6871 H 661.74 -3.91647 0.188334 0
M  V30 6872 H 663.23 -4.10168 -0.784365 0
M  V30 6873 N 663.667 -0.670007 -1.42649 0
M  V30 6874 C 664.913 -0.190568 -2.01903 0
M  V30 6875 C 665.246 1.19817 -1.52832 0
M  V30 6876 O 664.521 1.80342 -0.728485 0
M  V30 6877 C 664.804 -0.21991 -3.59428 0
M  V30 6878 C 664.657 -1.64376 -4.18689 0
M  V30 6879 C 665.976 0.434519 -4.3795 0
M  V30 6880 H 663.095 -0.0707219 -0.733599 0
M  V30 6881 H 665.737 -0.853883 -1.69732 0
M  V30 6882 H 663.887 0.344894 -3.86966 0
M  V30 6883 H 665.559 -2.26044 -4.02122 0
M  V30 6884 H 663.802 -2.18591 -3.747 0
M  V30 6885 H 664.473 -1.61601 -5.27815 0
M  V30 6886 H 666.949 -0.0462156 -4.16074 0
M  V30 6887 H 665.825 0.38333 -5.4756 0
M  V30 6888 H 666.086 1.51135 -4.15464 0
M  V30 6889 N 665.145 1.52092 -0.413018 0
M  V30 6890 C 666.37 2.06756 0.163338 0
M  V30 6891 C 666.795 1.28073 1.37764 0
M  V30 6892 O 666.153 0.312015 1.78595 0
M  V30 6893 C 666.201 3.57278 0.488322 0
M  V30 6894 O 665.305 3.80986 1.57871 0
M  V30 6895 H 664.646 0.663882 0.0125068 0
M  V30 6896 H 667.176 1.95988 -0.587339 0
M  V30 6897 H 667.186 4.01125 0.745836 0
M  V30 6898 H 665.861 4.13978 -0.399327 0
M  V30 6899 H 664.438 3.49017 1.31306 0
M  V30 6900 N 666.623 0.143563 1.56945 0
M  V30 6901 C 667.9 -0.553285 1.87612 0
M  V30 6902 C 668.28 -1.83195 1.04894 0
M  V30 6903 O 667.628 -2.28102 0.134773 0
M  V30 6904 C 667.838 -0.822055 3.3918 0
M  V30 6905 C 669.186 -1.16435 4.08324 0
M  V30 6906 O 670.21 -0.911522 3.4434 0
M  V30 6907 O 669.069 -1.63996 5.21313 0
M  V30 6908 H 666.163 -0.281851 0.777489 0
M  V30 6909 H 668.709 0.179916 1.68744 0
M  V30 6910 H 667.481 0.0830265 3.91212 0
M  V30 6911 H 667.104 -1.60956 3.63564 0
M  V30 6912 N 668.101 -1.57061 -0.130224 0
M  V30 6913 C 669.347 -1.8453 -0.841216 0
M  V30 6914 C 669.68 -0.727666 -1.80052 0
M  V30 6915 O 668.955 0.267419 -1.92653 0
M  V30 6916 C 669.238 -3.22553 -1.60099 0
M  V30 6917 C 669.091 -4.44901 -0.662048 0
M  V30 6918 C 670.41 -3.58003 -2.55973 0
M  V30 6919 H 667.529 -0.671215 -0.304366 0
M  V30 6920 H 670.171 -1.89705 -0.105821 0
M  V30 6921 H 668.321 -3.18272 -2.22789 0
M  V30 6922 H 669.993 -4.61278 -0.0448559 0
M  V30 6923 H 668.236 -4.33791 0.0272253 0
M  V30 6924 H 668.907 -5.3812 -1.23006 0
M  V30 6925 H 671.383 -3.63002 -2.03393 0
M  V30 6926 H 670.259 -4.55576 -3.06172 0
M  V30 6927 H 670.52 -2.84833 -3.38116 0
M  V30 6928 N 669.579 0.400081 -1.52437 0
M  V30 6929 C 670.527 1.50851 -1.7705 0
M  V30 6930 C 671.521 1.56928 -0.637969 0
M  V30 6931 O 672.727 1.60226 -0.820212 0
M  V30 6932 H 669.102 0.50186 -0.560036 0
M  V30 6933 H 671.073 1.27281 -2.69893 0
M  V30 6934 C 669.822 2.88117 -1.94638 0
M  V30 6935 H 669.145 2.84187 -2.81208 0
M  V30 6936 H 670.585 3.64942 -2.15855 0
M  V30 6937 C 669.044 3.29206 -0.715899 0
M  V30 6938 O 669.574 4.01544 0.111944 0
M  V30 6939 N 667.78 2.85363 -0.549191 0
M  V30 6940 H 667.327 2.26664 -1.22397 0
M  V30 6941 H 667.285 3.13214 0.27278 0
M  V30 6942 N 671.057 1.43213 0.657864 0
M  V30 6943 C 672.004 1.48011 1.77092 0
M  V30 6944 C 672.974 0.330291 1.62783 0
M  V30 6945 O 674.159 0.536787 1.83094 0
M  V30 6946 C 671.299 1.40461 3.15222 0
M  V30 6947 C 670.412 2.65612 3.40697 0
M  V30 6948 C 669.547 2.50083 4.68649 0
M  V30 6949 C 668.586 3.70525 4.87214 0
M  V30 6950 N 667.723 3.53835 6.0642 0
M  V30 6951 H 672.563 2.43121 1.72326 0
M  V30 6952 H 670.1 1.20687 0.841013 0
M  V30 6953 H 672.058 1.34079 3.95068 0
M  V30 6954 H 670.688 0.489359 3.19069 0
M  V30 6955 H 669.74 2.82292 2.54982 0
M  V30 6956 H 671.052 3.5509 3.50303 0
M  V30 6957 H 670.206 2.41383 5.56614 0
M  V30 6958 H 668.945 1.58121 4.61356 0
M  V30 6959 H 667.95 3.79639 3.97686 0
M  V30 6960 H 669.175 4.63489 4.96341 0
M  V30 6961 H 667.121 2.64604 6.00267 0
M  V30 6962 H 667.038 4.36912 6.16963 0
M  V30 6963 H 668.306 3.48978 6.97019 0
M  V30 6964 N 672.536 -0.895792 1.29666 0
M  V30 6965 C 673.499 -1.98189 1.15124 0
M  V30 6966 C 674.499 -1.60572 0.0855717 0
M  V30 6967 O 675.689 -1.70991 0.332826 0
M  V30 6968 C 672.821 -3.32289 0.761372 0
M  V30 6969 H 674.014 -2.12518 2.11603 0
M  V30 6970 H 671.567 -1.0808 1.12908 0
M  V30 6971 H 672.302 -3.23662 -0.203393 0
M  V30 6972 H 672.087 -3.60958 1.53139 0
M  V30 6973 H 673.577 -4.1198 0.682792 0
M  V30 6974 N 674.014 -1.12206 -1.10668 0
M  V30 6975 C 674.962 -0.782918 -2.19028 0
M  V30 6976 C 675.956 0.229175 -1.67843 0
M  V30 6977 O 677.162 0.0876295 -1.79787 0
M  V30 6978 H 673.537 -0.235339 -0.714227 0
M  V30 6979 H 675.508 -1.70527 -2.44874 0
M  V30 6980 C 674.257 -0.25116 -3.46792 0
M  V30 6981 H 673.58 -1.02123 -3.86537 0
M  V30 6982 H 675.02 -0.0521409 -4.23968 0
M  V30 6983 C 673.479 1.02037 -3.21076 0
M  V30 6984 O 674.009 2.09862 -3.42522 0
M  V30 6985 N 672.215 0.946348 -2.74759 0
M  V30 6986 H 671.762 0.068777 -2.57508 0
M  V30 6987 H 671.72 1.79775 -2.57931 0
M  V30 6988 N 675.492 1.28418 -0.913599 0
M  V30 6989 C 676.74 1.94596 -0.545594 0
M  V30 6990 C 677.061 1.7227 0.913668 0
M  V30 6991 O 676.331 1.06233 1.64595 0
M  V30 6992 H 674.911 0.720065 -0.198783 0
M  V30 6993 H 677.573 1.56404 -1.16292 0
M  V30 6994 H 676.669 3.03202 -0.739911 0
M  V30 6995 N 676.97 0.677563 1.42291 0
M  V30 6996 C 678.218 0.200578 2.01102 0
M  V30 6997 C 678.539 -1.19803 1.53858 0
M  V30 6998 O 677.809 -1.80496 0.761439 0
M  V30 6999 H 676.389 0.0711634 0.743603 0
M  V30 7000 H 679.051 0.874691 1.7417 0
M  V30 7001 H 678.147 0.204 3.11433 0
M  V30 7002 N 678.448 -1.51871 0.421078 0
M  V30 7003 C 679.673 -2.0684 -0.152371 0
M  V30 7004 C 680.098 -1.28802 -1.37083 0
M  V30 7005 O 679.456 -0.321482 -1.78427 0
M  V30 7006 C 679.504 -3.57532 -0.469368 0
M  V30 7007 O 678.608 -3.81818 -1.55848 0
M  V30 7008 H 677.949 -0.663939 -0.00898586 0
M  V30 7009 H 680.479 -1.95674 0.597724 0
M  V30 7010 H 680.489 -4.01515 -0.724553 0
M  V30 7011 H 679.164 -4.13761 0.421276 0
M  V30 7012 H 677.741 -3.49709 -1.29453 0
M  V30 7013 N 679.926 -0.151884 -1.56866 0
M  V30 7014 C 680.873 0.785936 -2.17006 0
M  V30 7015 C 681.843 1.2407 -1.10435 0
M  V30 7016 O 683.028 1.31235 -1.38499 0
M  V30 7017 C 680.168 2.01771 -2.79969 0
M  V30 7018 C 679.281 1.6083 -4.00946 0
M  V30 7019 C 678.416 2.79224 -4.51893 0
M  V30 7020 C 677.455 2.3468 -5.65324 0
M  V30 7021 N 676.592 3.461 -6.10867 0
M  V30 7022 H 681.432 0.266286 -2.96808 0
M  V30 7023 H 678.969 0.11972 -1.46612 0
M  V30 7024 H 680.927 2.73989 -3.14621 0
M  V30 7025 H 679.557 2.51139 -2.02803 0
M  V30 7026 H 678.609 0.783592 -3.72242 0
M  V30 7027 H 679.921 1.24119 -4.83111 0
M  V30 7028 H 679.075 3.59625 -4.88625 0
M  V30 7029 H 677.814 3.19183 -3.68746 0
M  V30 7030 H 676.819 1.52721 -5.28163 0
M  V30 7031 H 678.044 1.95801 -6.5026 0
M  V30 7032 H 675.99 3.85671 -5.30654 0
M  V30 7033 H 675.907 3.1342 -6.87971 0
M  V30 7034 H 677.175 4.26844 -6.52246 0
M  V30 7035 N 681.404 1.57128 0.121893 0
M  V30 7036 C 682.634 1.88609 0.843227 0
M  V30 7037 C 683.042 0.740917 1.74089 0
M  V30 7038 O 682.385 -0.297426 1.81276 0
M  V30 7039 C 682.447 3.15073 1.73117 0
M  V30 7040 C 682.111 4.45742 1.0081 0
M  V30 7041 C 683.108 5.18719 0.350255 0
M  V30 7042 C 680.793 4.92444 0.99014 0
M  V30 7043 C 682.787 6.36617 -0.315889 0
M  V30 7044 C 680.474 6.10261 0.320196 0
M  V30 7045 C 681.472 6.82194 -0.331666 0
M  V30 7046 O 681.16 7.97769 -0.990927 0
M  V30 7047 H 680.892 0.628919 0.247865 0
M  V30 7048 H 683.446 2.05096 0.111725 0
M  V30 7049 H 681.676 2.9466 2.50424 0
M  V30 7050 H 683.365 3.32597 2.32667 0
M  V30 7051 H 684.131 4.83693 0.35577 0
M  V30 7052 H 680.01 4.36361 1.48695 0
M  V30 7053 H 683.554 6.92701 -0.825272 0
M  V30 7054 H 679.451 6.44743 0.312433 0
M  V30 7055 H 680.219 8.13591 -0.895113 0
M  V30 7056 N 682.882 -0.391992 1.52647 0
M  V30 7057 C 684.159 -1.15136 1.58123 0
M  V30 7058 C 684.539 -2.07786 0.372597 0
M  V30 7059 O 683.887 -2.19374 -0.639304 0
M  V30 7060 C 684.097 -1.91367 2.91856 0
M  V30 7061 C 685.445 -2.46833 3.45483 0
M  V30 7062 O 686.469 -2.01527 2.9371 0
M  V30 7063 O 685.328 -3.29587 4.3593 0
M  V30 7064 H 682.422 -0.526649 0.637629 0
M  V30 7065 H 684.968 -0.397386 1.64982 0
M  V30 7066 H 683.74 -1.23597 3.71268 0
M  V30 7067 H 683.363 -2.73732 2.88369 0
M  V30 7068 N 684.36 -1.4356 -0.65026 0
M  V30 7069 C 685.308 -1.49219 -1.78427 0
M  V30 7070 C 686.302 -0.365528 -1.65409 0
M  V30 7071 O 687.508 -0.539649 -1.7172 0
M  V30 7072 H 683.883 -0.467858 -0.588738 0
M  V30 7073 H 685.854 -2.44701 -1.70774 0
M  V30 7074 C 684.603 -1.43519 -3.16698 0
M  V30 7075 H 683.926 -2.2952 -3.27354 0
M  V30 7076 H 685.366 -1.5154 -3.95995 0
M  V30 7077 C 683.825 -0.153197 -3.36552 0
M  V30 7078 O 684.355 0.784317 -3.93969 0
M  V30 7079 N 682.561 -0.0624402 -2.90533 0
M  V30 7080 H 682.108 -0.826172 -2.43992 0
M  V30 7081 H 682.066 0.794616 -3.04193 0
M  V30 7082 N 685.838 0.888903 -1.30139 0
M  V30 7083 C 686.77 1.99972 -1.11999 0
M  V30 7084 C 687.783 1.62673 -0.0643619 0
M  V30 7085 O 688.972 1.75788 -0.309983 0
M  V30 7086 C 686.072 3.31904 -0.685059 0
M  V30 7087 C 685.245 3.97665 -1.82158 0
M  V30 7088 C 684.304 5.07894 -1.37585 0
M  V30 7089 O 683.33 5.2974 -2.08241 0
M  V30 7090 N 684.532 5.7995 -0.252697 0
M  V30 7091 H 687.297 2.16085 -2.07671 0
M  V30 7092 H 684.858 1.06175 -1.22223 0
M  V30 7093 H 686.85 4.03005 -0.369964 0
M  V30 7094 H 685.42 3.12084 0.179507 0
M  V30 7095 H 684.64 3.19787 -2.305 0
M  V30 7096 H 685.928 4.3834 -2.58332 0
M  V30 7097 H 685.326 5.647 0.336141 0
M  V30 7098 H 683.883 6.518 0.00296813 0
M  V30 7099 N 687.317 1.12792 1.10072 0
M  V30 7100 C 688.227 0.812369 2.20086 0
M  V30 7101 C 689.243 -0.200349 1.72843 0
M  V30 7102 O 690.419 -0.0330262 2.01373 0
M  V30 7103 C 687.484 0.275685 3.45602 0
M  V30 7104 C 686.545 1.34881 4.07561 0
M  V30 7105 C 685.778 0.837639 5.27086 0
M  V30 7106 O 686.001 -0.327224 5.69461 0
M  V30 7107 O 684.935 1.60894 5.79997 0
M  V30 7108 H 688.761 1.73133 2.49517 0
M  V30 7109 H 686.346 0.904863 1.18881 0
M  V30 7110 H 688.228 -0.0185375 4.21396 0
M  V30 7111 H 686.903 -0.615783 3.17789 0
M  V30 7112 H 685.81 1.69625 3.33434 0
M  V30 7113 H 687.143 2.21418 4.39585 0
M  V30 7114 N 688.795 -1.27931 0.920396 0
M  V30 7115 C 690.02 -1.99343 0.572478 0
M  V30 7116 C 690.445 -1.68267 -0.840696 0
M  V30 7117 O 689.803 -0.918805 -1.56294 0
M  V30 7118 C 689.851 -3.51698 0.796284 0
M  V30 7119 O 688.955 -4.12157 -0.141602 0
M  V30 7120 H 688.296 -0.626065 0.221221 0
M  V30 7121 H 690.826 -1.62921 1.23765 0
M  V30 7122 H 690.836 -4.01793 0.708984 0
M  V30 7123 H 689.511 -3.73649 1.82644 0
M  V30 7124 H 688.088 -3.729 -0.005007 0
M  V30 7125 N 690.273 -0.685099 -1.4193 0
M  V30 7126 C 691.52 -0.211658 -2.01391 0
M  V30 7127 C 691.848 1.18526 -1.54214 0
M  V30 7128 O 691.103 1.81189 -0.739519 0
M  V30 7129 C 691.402 -0.206154 -3.56805 0
M  V30 7130 C 691.068 -1.54915 -4.23453 0
M  V30 7131 C 689.73 -1.91684 -4.41373 0
M  V30 7132 C 692.082 -2.43317 -4.60919 0
M  V30 7133 C 689.41 -3.16461 -4.94034 0
M  V30 7134 C 691.762 -3.67415 -5.14965 0
M  V30 7135 C 690.426 -4.04341 -5.31098 0
M  V30 7136 H 689.696 -0.0774511 -0.736941 0
M  V30 7137 H 692.343 -0.882121 -1.69973 0
M  V30 7138 H 690.648 0.547841 -3.87951 0
M  V30 7139 H 692.345 0.17753 -4.00607 0
M  V30 7140 H 688.935 -1.25314 -4.09871 0
M  V30 7141 H 693.119 -2.16192 -4.46738 0
M  V30 7142 H 688.375 -3.45078 -5.04709 0
M  V30 7143 H 692.549 -4.3611 -5.42938 0
M  V30 7144 H 690.176 -5.01101 -5.71666 0
M  V30 7145 N 691.751 1.51645 -0.429126 0
M  V30 7146 C 692.681 2.30434 0.377148 0
M  V30 7147 C 693.662 1.35493 1.02838 0
M  V30 7148 O 694.847 1.6441 1.03359 0
M  V30 7149 C 691.977 3.14038 1.48315 0
M  V30 7150 C 690.931 4.1719 0.955855 0
M  V30 7151 C 690.257 4.89263 2.15698 0
M  V30 7152 C 691.557 5.223 -0.00402136 0
M  V30 7153 H 693.251 2.98085 -0.280336 0
M  V30 7154 H 690.797 1.43354 -0.136265 0
M  V30 7155 H 692.75 3.67933 2.05435 0
M  V30 7156 H 691.474 2.44193 2.16881 0
M  V30 7157 H 690.133 3.64335 0.406929 0
M  V30 7158 H 689.781 4.15929 2.82864 0
M  V30 7159 H 689.481 5.59009 1.81059 0
M  V30 7160 H 691.005 5.45978 2.73387 0
M  V30 7161 H 692.419 5.71315 0.476607 0
M  V30 7162 H 690.816 5.99525 -0.26258 0
M  V30 7163 H 691.886 4.75638 -0.943236 0
M  V30 7164 N 693.229 0.160201 1.56784 0
M  V30 7165 C 694.476 -0.487588 1.96542 0
M  V30 7166 C 694.804 -1.63999 1.04569 0
M  V30 7167 O 694.059 -1.95546 0.0775211 0
M  V30 7168 C 694.358 -1.02259 3.42459 0
M  V30 7169 C 694.024 0.0127436 4.50898 0
M  V30 7170 C 692.686 0.297318 4.80281 0
M  V30 7171 C 695.038 0.716078 5.16257 0
M  V30 7172 C 692.366 1.29081 5.72324 0
M  V30 7173 C 694.718 1.69847 6.09372 0
M  V30 7174 C 693.382 1.99061 6.37127 0
M  V30 7175 H 692.652 -0.178421 0.719199 0
M  V30 7176 H 695.299 0.249818 1.89864 0
M  V30 7177 H 693.604 -1.8376 3.46034 0
M  V30 7178 H 695.301 -1.53261 3.70556 0
M  V30 7179 H 691.891 -0.219235 4.28039 0
M  V30 7180 H 696.075 0.509428 4.93679 0
M  V30 7181 H 691.331 1.52344 5.92116 0
M  V30 7182 H 695.505 2.2489 6.59088 0
M  V30 7183 H 693.132 2.76194 7.08252 0
M  V30 7184 N 694.707 -1.5719 -0.113559 0
M  V30 7185 C 695.67 -1.99796 -1.12314 0
M  V30 7186 C 696.67 -0.888847 -1.34001 0
M  V30 7187 O 697.86 -1.15476 -1.30426 0
M  V30 7188 C 694.992 -2.34279 -2.47641 0
M  V30 7189 H 696.185 -2.90193 -0.756825 0
M  V30 7190 H 693.738 -1.52144 -0.358029 0
M  V30 7191 H 694.473 -1.46778 -2.89183 0
M  V30 7192 H 694.258 -3.15175 -2.33253 0
M  V30 7193 H 695.748 -2.67963 -3.2029 0
M  V30 7194 N 696.185 0.383891 -1.52853 0
M  V30 7195 C 697.095 1.49343 -1.80925 0
M  V30 7196 C 698.111 1.59458 -0.696348 0
M  V30 7197 O 699.287 1.75698 -0.984481 0
M  V30 7198 C 696.352 2.84819 -1.97684 0
M  V30 7199 C 695.413 2.84382 -3.21598 0
M  V30 7200 C 694.646 4.13397 -3.37548 0
M  V30 7201 O 694.869 5.08619 -2.58192 0
M  V30 7202 O 693.803 4.20325 -4.30826 0
M  V30 7203 H 697.629 1.2855 -2.75152 0
M  V30 7204 H 695.214 0.572229 -1.38007 0
M  V30 7205 H 697.096 3.65125 -2.10385 0
M  V30 7206 H 695.771 3.05627 -1.06647 0
M  V30 7207 H 694.678 2.0284 -3.14336 0
M  V30 7208 H 696.011 2.68526 -4.12498 0
M  V30 7209 N 697.663 1.43903 0.642637 0
M  V30 7210 C 698.909 1.46296 1.40447 0
M  V30 7211 C 699.242 0.0908361 1.93987 0
M  V30 7212 O 698.517 -0.889884 1.72949 0
M  V30 7213 C 698.8 2.51399 2.57819 0
M  V30 7214 C 698.653 3.97926 2.09702 0
M  V30 7215 C 699.972 2.53125 3.60022 0
M  V30 7216 H 697.091 0.532676 0.509338 0
M  V30 7217 H 699.733 1.75515 0.727635 0
M  V30 7218 H 697.883 2.26614 3.1556 0
M  V30 7219 H 699.555 4.33804 1.5688 0
M  V30 7220 H 697.798 4.10252 1.40982 0
M  V30 7221 H 698.469 4.67096 2.94152 0
M  V30 7222 H 700.945 2.75242 3.12059 0
M  V30 7223 H 699.821 3.28589 4.39682 0
M  V30 7224 H 700.082 1.56895 4.13324 0
M  V30 7225 N 699.141 -0.881989 1.30609 0
M  V30 7226 C 700.074 -1.99066 1.11571 0
M  V30 7227 C 701.052 -1.62584 0.022516 0
M  V30 7228 O 702.236 -1.87671 0.176644 0
M  V30 7229 C 699.363 -3.3134 0.702237 0
M  V30 7230 C 698.409 -3.86807 1.79673 0
M  V30 7231 S 699.242 -4.13735 3.39976 0
M  V30 7232 C 700.398 -5.49024 3.00538 0
M  V30 7233 H 700.631 -2.1491 2.05429 0
M  V30 7234 H 698.164 -1.03074 1.14957 0
M  V30 7235 H 700.122 -4.07796 0.470415 0
M  V30 7236 H 698.783 -3.13349 -0.217034 0
M  V30 7237 H 697.976 -4.82397 1.45977 0
M  V30 7238 H 697.578 -3.17102 1.98298 0
M  V30 7239 H 699.87 -6.30208 2.48684 0
M  V30 7240 H 700.813 -5.8766 3.95046 0
M  V30 7241 H 701.221 -5.11726 2.3832 0
M  V30 7242 N 700.619 -1.13374 -1.09472 0
M  V30 7243 C 701.566 -0.810682 -2.16094 0
M  V30 7244 C 702.536 0.227003 -1.64541 0
M  V30 7245 O 703.721 0.0993538 -1.90541 0
M  V30 7246 C 700.861 -0.282336 -3.43943 0
M  V30 7247 C 699.974 -1.37902 -4.09398 0
M  V30 7248 C 699.109 -0.809066 -5.25002 0
M  V30 7249 C 698.148 -1.88419 -5.82379 0
M  V30 7250 N 697.285 -1.33221 -6.89345 0
M  V30 7251 H 702.125 -1.72397 -2.43071 0
M  V30 7252 H 699.662 -0.860564 -1.19301 0
M  V30 7253 H 701.62 0.0421189 -4.17179 0
M  V30 7254 H 700.25 0.594083 -3.17286 0
M  V30 7255 H 699.302 -1.82008 -3.34032 0
M  V30 7256 H 700.614 -2.19161 -4.48074 0
M  V30 7257 H 699.768 -0.435867 -6.05132 0
M  V30 7258 H 698.507 0.0346058 -4.87688 0
M  V30 7259 H 697.512 -2.26646 -5.00911 0
M  V30 7260 H 698.737 -2.73125 -6.21755 0
M  V30 7261 H 696.683 -0.510535 -6.5401 0
M  V30 7262 H 696.6 -2.08129 -7.26786 0
M  V30 7263 H 697.868 -0.986565 -7.73232 0
M  V30 7264 N 702.098 1.27442 -0.927168 0
M  V30 7265 C 703.328 1.9821 -0.582775 0
M  V30 7266 C 703.736 1.69361 0.843406 0
M  V30 7267 O 703.079 0.950381 1.57205 0
M  V30 7268 C 703.141 3.52048 -0.728165 0
M  V30 7269 C 702.805 4.04518 -2.12637 0
M  V30 7270 C 703.802 4.17332 -3.10048 0
M  V30 7271 C 701.487 4.38879 -2.44317 0
M  V30 7272 C 703.481 4.6378 -4.37249 0
M  V30 7273 C 701.168 4.85018 -3.71753 0
M  V30 7274 C 702.166 4.97428 -4.68033 0
M  V30 7275 O 701.854 5.42556 -5.93202 0
M  V30 7276 H 701.586 0.639314 -0.219667 0
M  V30 7277 H 704.14 1.63272 -1.24626 0
M  V30 7278 H 702.37 3.86699 -0.00758143 0
M  V30 7279 H 704.059 4.04033 -0.388906 0
M  V30 7280 H 704.825 3.91046 -2.86894 0
M  V30 7281 H 700.704 4.28462 -1.70121 0
M  V30 7282 H 704.248 4.73382 -5.12402 0
M  V30 7283 H 700.145 5.10746 -3.94726 0
M  V30 7284 H 700.913 5.60811 -5.96182 0
M  V30 7285 N 703.576 0.692616 1.41565 0
M  V30 7286 C 704.801 0.229776 2.06123 0
M  V30 7287 C 705.226 -1.11119 1.5177 0
M  V30 7288 O 704.584 -1.69498 0.643444 0
M  V30 7289 C 704.632 0.19469 3.60074 0
M  V30 7290 O 703.736 -0.831366 4.03933 0
M  V30 7291 H 703.077 0.113002 0.654314 0
M  V30 7292 H 705.607 0.946645 1.81383 0
M  V30 7293 H 705.617 0.0245487 4.07993 0
M  V30 7294 H 704.292 1.17339 3.99004 0
M  V30 7295 H 702.869 -0.630819 3.67526 0
M  V30 7296 N 705.054 -1.51416 0.437162 0
M  V30 7297 C 706.284 -2.06204 -0.127859 0
M  V30 7298 C 706.692 -1.30463 -1.37026 0
M  V30 7299 O 706.035 -0.357516 -1.80187 0
M  V30 7300 C 706.097 -3.55783 -0.515632 0
M  V30 7301 C 705.761 -4.52776 0.619937 0
M  V30 7302 C 706.758 -4.98031 1.49201 0
M  V30 7303 C 704.443 -4.95878 0.800618 0
M  V30 7304 C 706.437 -5.85061 2.52947 0
M  V30 7305 C 704.124 -5.82699 1.84135 0
M  V30 7306 C 705.122 -6.27188 2.70416 0
M  V30 7307 O 704.81 -7.12284 3.72702 0
M  V30 7308 H 704.542 -0.675903 -0.011442 0
M  V30 7309 H 707.096 -1.95977 0.614986 0
M  V30 7310 H 705.326 -3.63793 -1.31118 0
M  V30 7311 H 707.015 -3.93087 -1.01179 0
M  V30 7312 H 707.781 -4.65426 1.36395 0
M  V30 7313 H 703.66 -4.60792 0.138617 0
M  V30 7314 H 707.204 -6.19708 3.20325 0
M  V30 7315 H 703.101 -6.14717 1.9696 0
M  V30 7316 H 703.869 -7.30462 3.69281 0
M  V30 7317 N 706.532 -0.168513 -1.56696 0
M  V30 7318 C 707.462 0.758563 -2.20835 0
M  V30 7319 C 708.443 1.24121 -1.1631 0
M  V30 7320 O 709.628 1.29487 -1.4473 0
M  V30 7321 C 706.758 1.9892 -2.8469 0
M  V30 7322 C 705.712 1.64252 -3.95228 0
M  V30 7323 C 705.038 2.94757 -4.46119 0
M  V30 7324 C 706.338 0.872675 -5.14958 0
M  V30 7325 H 708.032 0.223953 -2.98561 0
M  V30 7326 H 705.578 0.106277 -1.43607 0
M  V30 7327 H 707.531 2.64275 -3.28233 0
M  V30 7328 H 706.255 2.5479 -2.04327 0
M  V30 7329 H 704.914 1.01266 -3.52336 0
M  V30 7330 H 704.562 3.48662 -3.62552 0
M  V30 7331 H 704.262 2.72316 -5.2069 0
M  V30 7332 H 705.786 3.61147 -4.92347 0
M  V30 7333 H 707.2 1.42875 -5.55211 0
M  V30 7334 H 705.597 0.747402 -5.95428 0
M  V30 7335 H 706.667 -0.131535 -4.84722 0
M  V30 7336 N 708.01 1.57248 0.105221 0
M  V30 7337 C 708.973 2.00388 1.11252 0
M  V30 7338 C 709.973 0.89594 1.33527 0
M  V30 7339 O 711.163 1.16166 1.29811 0
M  V30 7340 C 708.295 2.35589 2.46395 0
M  V30 7341 H 709.488 2.90591 0.741424 0
M  V30 7342 H 707.041 1.52332 0.349956 0
M  V30 7343 H 707.776 1.4831 2.884 0
M  V30 7344 H 707.561 3.16408 2.31578 0
M  V30 7345 H 709.051 2.69658 3.18864 0
M  V30 7346 N 709.488 -0.375779 1.53054 0
M  V30 7347 C 710.438 -1.45965 1.75152 0
M  V30 7348 C 711.422 -1.49059 0.605823 0
M  V30 7349 O 712.614 -1.54472 0.864133 0
M  V30 7350 C 709.743 -2.83524 1.93569 0
M  V30 7351 C 708.829 -2.84949 3.1411 0
M  V30 7352 N 709.22 -2.56029 4.36214 0
M  V30 7353 C 707.518 -3.16113 3.14625 0
M  V30 7354 C 708.219 -2.64873 5.17897 0
M  V30 7355 N 707.195 -2.99159 4.53878 0
M  V30 7356 H 710.997 -1.22454 2.67175 0
M  V30 7357 H 708.511 -0.583867 1.51541 0
M  V30 7358 H 710.508 -3.61578 2.07525 0
M  V30 7359 H 709.168 -3.08008 1.02768 0
M  V30 7360 H 710.179 -2.29808 4.64121 0
M  V30 7361 H 706.856 -3.45977 2.3368 0
M  V30 7362 H 708.246 -2.45947 6.25268 0
M  V30 7363 N 710.966 -1.44241 -0.634997 0
M  V30 7364 C 712.191 -1.50516 -1.42687 0
M  V30 7365 C 712.616 -0.129864 -1.87651 0
M  V30 7366 O 711.974 0.880164 -1.58502 0
M  V30 7367 C 712.022 -2.4714 -2.62591 0
M  V30 7368 O 711.126 -1.97025 -3.62291 0
M  V30 7369 H 710.467 -0.50841 -0.427101 0
M  V30 7370 H 712.997 -1.89337 -0.775408 0
M  V30 7371 H 713.007 -2.65048 -3.10183 0
M  V30 7372 H 711.682 -3.47039 -2.29209 0
M  V30 7373 H 710.259 -1.88866 -3.21534 0
M  V30 7374 N 712.444 0.87505 -1.31075 0
M  V30 7375 C 713.354 2.01441 -1.20244 0
M  V30 7376 C 714.37 1.73584 -0.120227 0
M  V30 7377 O 715.546 1.98559 -0.337063 0
M  V30 7378 C 712.611 3.34675 -0.905199 0
M  V30 7379 C 711.672 3.75889 -2.0738 0
M  V30 7380 C 710.905 5.02764 -1.79064 0
M  V30 7381 O 711.128 5.65795 -0.723318 0
M  V30 7382 O 710.062 5.40623 -2.64594 0
M  V30 7383 H 713.888 2.13509 -2.1598 0
M  V30 7384 H 711.473 1.00257 -1.10765 0
M  V30 7385 H 713.355 4.1458 -0.755057 0
M  V30 7386 H 712.03 3.23692 0.0221695 0
M  V30 7387 H 710.937 2.96645 -2.27931 0
M  V30 7388 H 712.27 3.91489 -2.98324 0
M  V30 7389 N 713.922 1.13953 1.08869 0
M  V30 7390 C 715.199 0.815768 1.77777 0
M  V30 7391 C 715.579 -0.691624 1.99449 0
M  V30 7392 O 714.927 -1.63085 1.60049 0
M  V30 7393 C 715.137 1.60916 3.09689 0
M  V30 7394 C 716.485 1.80549 3.84301 0
M  V30 7395 O 717.509 1.57562 3.19457 0
M  V30 7396 O 716.368 2.18946 5.00724 0
M  V30 7397 H 713.462 0.298445 0.771271 0
M  V30 7398 H 716.008 1.24446 1.15374 0
M  V30 7399 H 714.78 2.6333 2.89435 0
M  V30 7400 H 714.403 1.17578 3.79817 0
M  V30 7401 N 715.4 -1.26948 0.933913 0
M  V30 7402 C 716.363 -2.24889 0.442457 0
M  V30 7403 C 717.363 -1.54594 -0.442426 0
M  V30 7404 O 718.553 -1.72502 -0.242629 0
M  V30 7405 C 715.685 -3.3896 -0.363173 0
M  V30 7406 H 716.878 -2.69879 1.30787 0
M  V30 7407 H 714.431 -1.38978 0.715187 0
M  V30 7408 H 715.166 -2.99361 -1.24714 0
M  V30 7409 H 714.951 -3.9116 0.271366 0
M  V30 7410 H 716.441 -4.11739 -0.697186 0
M  V30 7411 N 716.879 -0.700114 -1.41195 0
M  V30 7412 C 717.842 -0.0465706 -2.29153 0
M  V30 7413 C 718.842 0.703302 -1.44604 0
M  V30 7414 O 720.032 0.537513 -1.657 0
M  V30 7415 C 717.164 0.944324 -3.2756 0
M  V30 7416 H 718.357 -0.821064 -2.88442 0
M  V30 7417 H 715.91 -0.463869 -1.49258 0
M  V30 7418 H 716.645 1.74642 -2.73259 0
M  V30 7419 H 716.43 0.409701 -3.89954 0
M  V30 7420 H 717.92 1.39925 -3.9346 0
M  V30 7421 N 718.357 1.51182 -0.445186 0
M  V30 7422 C 719.603 2.03097 0.111049 0
M  V30 7423 C 719.958 1.32293 1.397 0
M  V30 7424 O 719.251 0.431529 1.86677 0
M  V30 7425 C 719.445 3.55408 0.376797 0
M  V30 7426 C 719.274 4.40969 -0.88185 0
M  V30 7427 C 718.044 4.85006 -1.41766 0
M  V30 7428 C 720.242 4.82876 -1.77017 0
M  V30 7429 N 718.224 5.54804 -2.62803 0
M  V30 7430 C 719.595 5.51821 -2.82654 0
M  V30 7431 C 721.65 4.64855 -1.78365 0
M  V30 7432 C 720.353 6.04655 -3.89595 0
M  V30 7433 C 722.379 5.18612 -2.84246 0
M  V30 7434 C 721.741 5.87509 -3.88603 0
M  V30 7435 H 717.84 0.781999 0.0012696 0
M  V30 7436 H 720.424 1.84976 -0.60761 0
M  V30 7437 H 718.595 3.73528 1.06449 0
M  V30 7438 H 720.327 3.93985 0.925082 0
M  V30 7439 H 717.082 4.6355 -0.970476 0
M  V30 7440 H 717.506 5.94326 -3.24201 0
M  V30 7441 H 722.148 4.11043 -0.990119 0
M  V30 7442 H 719.866 6.57518 -4.69782 0
M  V30 7443 H 723.452 5.06515 -2.86241 0
M  V30 7444 H 722.332 6.28358 -4.69186 0
M  V30 7445 N 719.835 0.176821 1.56605 0
M  V30 7446 C 720.767 -0.782836 2.15417 0
M  V30 7447 C 721.78 -1.18982 1.11117 0
M  V30 7448 O 722.969 -1.12872 1.38283 0
M  V30 7449 C 720.069 -2.06596 2.68647 0
M  V30 7450 C 719.242 -1.82167 3.9766 0
M  V30 7451 C 718.301 -2.94751 4.35899 0
M  V30 7452 O 717.327 -2.65148 5.03672 0
M  V30 7453 N 718.529 -4.2267 3.97907 0
M  V30 7454 H 721.294 -0.280012 2.98389 0
M  V30 7455 H 718.855 -0.00577529 1.61899 0
M  V30 7456 H 720.847 -2.81018 2.91223 0
M  V30 7457 H 719.417 -2.48054 1.90232 0
M  V30 7458 H 718.637 -0.916208 3.83405 0
M  V30 7459 H 719.925 -1.6322 4.81909 0
M  V30 7460 H 719.323 -4.4958 3.43357 0
M  V30 7461 H 717.88 -4.93778 4.25472 0
M  V30 7462 N 721.313 -1.57302 -0.09688 0
M  V30 7463 C 722.559 -1.86273 -0.801885 0
M  V30 7464 C 722.892 -0.765694 -1.78468 0
M  V30 7465 O 722.167 0.226495 -1.93177 0
M  V30 7466 C 722.45 -3.25876 -1.53221 0
M  V30 7467 C 722.303 -4.46205 -0.567529 0
M  V30 7468 C 723.622 -3.63352 -2.48321 0
M  V30 7469 H 720.741 -0.67752 -0.29006 0
M  V30 7470 H 723.383 -1.89887 -0.0655577 0
M  V30 7471 H 721.533 -3.22926 -2.15988 0
M  V30 7472 H 723.205 -4.6127 0.0529982 0
M  V30 7473 H 721.448 -4.33636 0.119233 0
M  V30 7474 H 722.119 -5.40608 -1.11564 0
M  V30 7475 H 724.595 -3.67234 -1.95648 0
M  V30 7476 H 723.471 -4.61968 -2.9644 0
M  V30 7477 H 723.732 -2.91941 -3.31998 0
M  V30 7478 N 722.791 0.367657 -1.53252 0
M  V30 7479 C 723.723 1.47032 -1.75824 0
M  V30 7480 C 724.736 1.49736 -0.63898 0
M  V30 7481 O 725.925 1.53253 -0.915193 0
M  V30 7482 C 723.025 2.85805 -1.82122 0
M  V30 7483 C 722.198 3.06822 -3.11736 0
M  V30 7484 C 721.257 4.25698 -3.09302 0
M  V30 7485 O 720.283 4.20972 -3.83107 0
M  V30 7486 N 721.485 5.33002 -2.29977 0
M  V30 7487 H 724.25 1.28048 -2.70968 0
M  V30 7488 H 721.811 0.557363 -1.52004 0
M  V30 7489 H 723.803 3.63465 -1.77975 0
M  V30 7490 H 722.373 2.98046 -0.942716 0
M  V30 7491 H 721.593 2.1684 -3.29202 0
M  V30 7492 H 722.881 3.17731 -3.97397 0
M  V30 7493 H 722.279 5.39703 -1.69521 0
M  V30 7494 H 720.836 6.09247 -2.3165 0
M  V30 7495 N 724.269 1.44576 0.627338 0
M  V30 7496 C 725.216 1.51734 1.73912 0
M  V30 7497 C 726.186 0.364745 1.62046 0
M  V30 7498 O 727.371 0.575503 1.81914 0
M  V30 7499 C 724.511 1.47116 3.12171 0
M  V30 7500 C 723.624 2.72778 3.34986 0
M  V30 7501 C 722.759 2.59968 4.63239 0
M  V30 7502 C 721.798 3.80776 4.79245 0
M  V30 7503 N 720.935 3.66618 5.98778 0
M  V30 7504 H 725.775 2.46722 1.6713 0
M  V30 7505 H 723.312 1.22444 0.815224 0
M  V30 7506 H 725.27 1.42429 3.92135 0
M  V30 7507 H 723.9 0.556928 3.17959 0
M  V30 7508 H 722.952 2.87637 2.48936 0
M  V30 7509 H 724.264 3.62441 3.42692 0
M  V30 7510 H 723.418 2.53135 5.51369 0
M  V30 7511 H 722.157 1.67872 4.57898 0
M  V30 7512 H 721.162 3.87989 3.89544 0
M  V30 7513 H 722.387 4.73913 4.86398 0
M  V30 7514 H 720.333 2.77277 5.9452 0
M  V30 7515 H 720.25 4.499 6.07557 0
M  V30 7516 H 721.518 3.63684 6.89459 0
M  V30 7517 N 725.747 -0.868086 1.31537 0
M  V30 7518 C 726.995 -1.61807 1.21091 0
M  V30 7519 C 727.316 -1.93631 -0.230623 0
M  V30 7520 O 726.586 -1.5846 -1.15183 0
M  V30 7521 H 725.166 -0.599854 0.445178 0
M  V30 7522 H 727.828 -1.03915 1.64887 0
M  V30 7523 H 726.924 -2.56088 1.78396 0
M  V30 7524 N 727.225 -1.14528 -1.08264 0
M  V30 7525 C 728.473 -0.912599 -1.80322 0
M  V30 7526 C 728.794 0.562256 -1.86718 0
M  V30 7527 O 728.064 1.40869 -1.36135 0
M  V30 7528 H 726.644 -0.334645 -0.667849 0
M  V30 7529 H 729.306 -1.44415 -1.30883 0
M  V30 7530 H 728.402 -1.31384 -2.83098 0
M  V30 7531 N 728.703 1.26451 -0.940633 0
M  V30 7532 C 729.65 2.264 -0.448497 0
M  V30 7533 C 730.62 1.5866 0.491546 0
M  V30 7534 O 731.805 1.86389 0.407874 0
M  V30 7535 C 728.945 3.43956 0.280715 0
M  V30 7536 C 728.058 4.26374 -0.694937 0
M  V30 7537 C 727.193 5.31171 0.0554186 0
M  V30 7538 C 726.232 6.05266 -0.912091 0
M  V30 7539 N 725.369 7.01833 -0.193524 0
M  V30 7540 H 730.209 2.67869 -1.30576 0
M  V30 7541 H 727.746 1.31707 -0.655112 0
M  V30 7542 H 729.704 4.10941 0.71994 0
M  V30 7543 H 728.334 3.03403 1.10212 0
M  V30 7544 H 727.386 3.59183 -1.25267 0
M  V30 7545 H 728.698 4.77748 -1.43382 0
M  V30 7546 H 727.852 6.04166 0.553951 0
M  V30 7547 H 726.591 4.80634 0.827183 0
M  V30 7548 H 725.596 5.31099 -1.42175 0
M  V30 7549 H 726.821 6.57893 -1.68385 0
M  V30 7550 H 724.767 6.53607 0.559758 0
M  V30 7551 H 724.684 7.50957 -0.871744 0
M  V30 7552 H 725.952 7.78983 0.283932 0
M  V30 7553 N 730.181 0.707592 1.40822 0
M  V30 7554 C 731.129 0.0386643 2.32568 0
M  V30 7555 C 732.123 -0.755653 1.51612 0
M  V30 7556 O 733.329 -0.659921 1.67467 0
M  V30 7557 H 729.704 -0.00629912 0.751974 0
M  V30 7558 H 731.675 0.8293 2.86645 0
M  V30 7559 C 730.424 -0.87496 3.36511 0
M  V30 7560 H 729.747 -0.273157 3.98866 0
M  V30 7561 H 731.187 -1.31111 4.03219 0
M  V30 7562 C 729.646 -1.99672 2.71353 0
M  V30 7563 O 730.176 -3.08676 2.57064 0
M  V30 7564 N 728.382 -1.77799 2.29861 0
M  V30 7565 H 727.929 -0.89147 2.41683 0
M  V30 7566 H 727.887 -2.53036 1.86601 0
M  V30 7567 N 731.66 -1.50943 0.453197 0
M  V30 7568 C 732.888 -2.06628 -0.106135 0
M  V30 7569 C 733.303 -1.31901 -1.35084 0
M  V30 7570 O 732.66 -0.383074 -1.78434 0
M  V30 7571 C 732.711 -3.5914 -0.412368 0
M  V30 7572 O 732.432 -4.31047 0.782948 0
M  V30 7573 C 733.933 -4.31391 -1.02064 0
M  V30 7574 H 731.153 -0.670999 -0.000885896 0
M  V30 7575 H 733.697 -1.94331 0.63684 0
M  V30 7576 H 731.852 -3.71299 -1.10526 0
M  V30 7577 H 732.266 -5.21948 0.516736 0
M  V30 7578 H 733.74 -5.39135 -1.1848 0
M  V30 7579 H 734.217 -3.90714 -2.00598 0
M  V30 7580 H 734.823 -4.23716 -0.366664 0
M  V30 7581 N 733.138 -0.185124 -1.56509 0
M  V30 7582 C 734.385 0.456258 -1.97293 0
M  V30 7583 C 734.713 1.62314 -1.07165 0
M  V30 7584 O 733.968 1.95398 -0.108621 0
M  V30 7585 C 734.267 0.967977 -3.44042 0
M  V30 7586 C 733.933 -0.084476 -4.50821 0
M  V30 7587 C 732.595 -0.373689 -4.79747 0
M  V30 7588 C 734.947 -0.79812 -5.15053 0
M  V30 7589 C 732.275 -1.3817 -5.70198 0
M  V30 7590 C 734.627 -1.79521 -6.06593 0
M  V30 7591 C 733.291 -2.09172 -6.3388 0
M  V30 7592 H 732.561 0.166957 -0.721946 0
M  V30 7593 H 735.208 -0.279992 -1.89442 0
M  V30 7594 H 733.513 1.78231 -3.48914 0
M  V30 7595 H 735.21 1.47347 -3.72948 0
M  V30 7596 H 731.8 0.15111 -4.28334 0
M  V30 7597 H 735.984 -0.587903 -4.92806 0
M  V30 7598 H 731.24 -1.61745 -5.89617 0
M  V30 7599 H 735.414 -2.35347 -6.55427 0
M  V30 7600 H 733.041 -2.87427 -7.03768 0
M  V30 7601 N 734.616 1.57351 0.0885366 0
M  V30 7602 C 735.862 1.86696 0.791996 0
M  V30 7603 C 736.195 0.775148 1.78059 0
M  V30 7604 O 735.47 -0.216247 1.93294 0
M  V30 7605 C 735.753 3.26684 1.51491 0
M  V30 7606 C 735.606 4.465 0.543858 0
M  V30 7607 C 736.925 3.64664 2.46391 0
M  V30 7608 H 734.044 0.679049 0.286463 0
M  V30 7609 H 736.686 1.89919 0.0554866 0
M  V30 7610 H 734.836 3.24067 2.14273 0
M  V30 7611 H 736.508 4.61235 -0.0774597 0
M  V30 7612 H 734.751 4.33567 -0.142228 0
M  V30 7613 H 735.422 5.41192 1.08696 0
M  V30 7614 H 737.898 3.68267 1.93698 0
M  V30 7615 H 736.774 4.63534 2.93986 0
M  V30 7616 H 737.035 2.93698 3.30445 0
M  V30 7617 N 736.094 -0.359525 1.53444 0
M  V30 7618 C 737.324 -1.12036 1.73585 0
M  V30 7619 C 737.732 -1.83335 0.467438 0
M  V30 7620 O 737.075 -1.74641 -0.569753 0
M  V30 7621 C 737.137 -2.19036 2.85068 0
M  V30 7622 C 736.801 -1.67451 4.25217 0
M  V30 7623 C 737.798 -1.13534 5.07352 0
M  V30 7624 C 735.483 -1.72781 4.71648 0
M  V30 7625 C 737.477 -0.656321 6.34012 0
M  V30 7626 C 735.164 -1.2449 5.98285 0
M  V30 7627 C 736.162 -0.710068 6.79299 0
M  V30 7628 O 735.85 -0.234314 8.03558 0
M  V30 7629 H 735.582 -0.340662 0.583888 0
M  V30 7630 H 738.136 -0.422452 2.01009 0
M  V30 7631 H 736.366 -2.92338 2.53131 0
M  V30 7632 H 738.055 -2.80559 2.93328 0
M  V30 7633 H 738.821 -1.08751 4.7265 0
M  V30 7634 H 734.7 -2.13351 4.08659 0
M  V30 7635 H 738.244 -0.238193 6.97193 0
M  V30 7636 H 734.141 -1.28969 6.32485 0
M  V30 7637 H 734.909 -0.353084 8.17738 0
M  V30 7638 N 737.572 -1.44907 -0.619662 0
M  V30 7639 C 738.52 -1.52971 -1.75222 0
M  V30 7640 C 739.514 -0.400531 -1.64597 0
M  V30 7641 O 740.72 -0.575952 -1.70537 0
M  V30 7642 H 737.095 -0.480241 -0.578682 0
M  V30 7643 H 739.066 -2.48269 -1.65545 0
M  V30 7644 C 737.815 -1.50204 -3.13583 0
M  V30 7645 H 737.138 -2.36412 -3.22412 0
M  V30 7646 H 738.578 -1.59905 -3.92691 0
M  V30 7647 C 737.037 -0.22455 -3.36151 0
M  V30 7648 O 737.567 0.700574 -3.95544 0
M  V30 7649 N 735.773 -0.124052 -2.90335 0
M  V30 7650 H 735.32 -0.87774 -2.42185 0
M  V30 7651 H 735.278 0.729914 -3.0581 0
M  V30 7652 N 739.05 0.861098 -1.31996 0
M  V30 7653 C 740.278 1.6474 -1.25173 0
M  V30 7654 C 740.693 1.87926 0.181425 0
M  V30 7655 O 740.05 1.4437 1.1164 0
M  V30 7656 C 740.101 3.01036 -2.0015 0
M  V30 7657 O 739.822 2.7888 -3.37872 0
M  V30 7658 C 741.323 3.95481 -2.00273 0
M  V30 7659 H 738.543 0.513314 -0.432146 0
M  V30 7660 H 741.087 1.07419 -1.74016 0
M  V30 7661 H 739.242 3.55021 -1.55046 0
M  V30 7662 H 739.656 3.65514 -3.76165 0
M  V30 7663 H 741.13 4.88403 -2.57229 0
M  V30 7664 H 741.607 4.27957 -0.987407 0
M  V30 7665 H 742.213 3.47433 -2.45296 0
M  V30 7666 N 740.528 1.15101 1.07655 0
M  V30 7667 C 741.438 0.858869 2.18313 0
M  V30 7668 C 742.454 -0.163641 1.73229 0
M  V30 7669 O 743.63 0.00969541 2.01398 0
M  V30 7670 C 740.695 0.34893 3.4494 0
M  V30 7671 C 739.756 1.43495 4.04608 0
M  V30 7672 C 738.989 0.949253 5.2519 0
M  V30 7673 O 739.212 -0.20636 5.70027 0
M  V30 7674 O 738.146 1.73161 5.76454 0
M  V30 7675 H 741.972 1.78386 2.45788 0
M  V30 7676 H 739.557 0.929876 1.16934 0
M  V30 7677 H 741.439 0.070851 4.2134 0
M  V30 7678 H 740.114 -0.548237 3.19024 0
M  V30 7679 H 739.021 1.7666 3.29761 0
M  V30 7680 H 740.354 2.30692 4.3479 0
M  V30 7681 N 742.006 -1.2595 0.947325 0
M  V30 7682 C 742.969 -2.24407 0.466285 0
M  V30 7683 C 743.969 -1.55054 -0.426005 0
M  V30 7684 O 745.159 -1.7275 -0.224319 0
M  V30 7685 C 742.291 -3.39326 -0.327201 0
M  V30 7686 H 743.484 -2.68477 1.33642 0
M  V30 7687 H 741.037 -1.38211 0.729887 0
M  V30 7688 H 741.772 -3.00667 -1.21532 0
M  V30 7689 H 741.557 -3.9085 0.312839 0
M  V30 7690 H 743.047 -4.12455 -0.653477 0
M  V30 7691 N 743.484 -0.715051 -1.40445 0
M  V30 7692 C 744.434 -0.038591 -2.27967 0
M  V30 7693 C 745.418 0.733099 -1.43229 0
M  V30 7694 O 746.61 0.605388 -1.66325 0
M  V30 7695 C 743.739 0.882801 -3.31755 0
M  V30 7696 C 742.825 0.106325 -4.23967 0
M  V30 7697 N 743.216 -0.910143 -4.97544 0
M  V30 7698 C 741.514 0.33896 -4.4471 0
M  V30 7699 C 742.215 -1.37665 -5.65175 0
M  V30 7700 N 741.191 -0.698905 -5.39088 0
M  V30 7701 H 744.993 -0.81765 -2.82297 0
M  V30 7702 H 742.507 -0.547591 -1.5289 0
M  V30 7703 H 744.504 1.38273 -3.93302 0
M  V30 7704 H 743.164 1.66124 -2.78985 0
M  V30 7705 H 744.175 -1.29097 -5.01552 0
M  V30 7706 H 740.852 1.09377 -4.02918 0
M  V30 7707 H 742.242 -2.22122 -6.34123 0
M  V30 7708 N 744.962 1.50701 -0.461195 0
M  V30 7709 C 746.373 1.867 -0.00370227 0
M  V30 7710 C 746.724 1.37673 1.39787 0
M  V30 7711 O 745.849 0.737515 2.03445 0
M  V30 7712 C 746.444 3.388 5.75786e-05 0
M  V30 7713 C 745.003 3.74247 0.402044 0
M  V30 7714 C 744.15 2.74549 -0.389652 0
M  V30 7715 H 747.101 1.43585 -0.675942 0
M  V30 7716 H 747.122 3.719 0.804414 0
M  V30 7717 H 746.634 3.74452 -1.02015 0
M  V30 7718 H 744.735 3.44192 1.42697 0
M  V30 7719 H 744.848 4.78973 0.110265 0
M  V30 7720 H 743.212 2.54226 0.155314 0
M  V30 7721 H 743.995 3.13044 -1.40919 0
M  V30 7722 N 746.441 0.193421 1.56409 0
M  V30 7723 C 747.69 -0.445995 1.96707 0
M  V30 7724 C 748.003 -1.62876 1.08309 0
M  V30 7725 O 749.209 -2.33586 1.38383 0
M  V30 7726 C 747.665 -0.844863 3.49843 0
M  V30 7727 C 747.273 0.31352 4.46902 0
M  V30 7728 C 749.017 -1.45146 3.98915 0
M  V30 7729 C 746.924 -0.106214 5.91305 0
M  V30 7730 H 745.854 -0.170398 0.734493 0
M  V30 7731 H 748.505 0.285172 1.81271 0
M  V30 7732 H 746.887 -1.63265 3.60778 0
M  V30 7733 H 748.061 1.09103 4.47698 0
M  V30 7734 H 746.376 0.8315 4.08014 0
M  V30 7735 H 748.973 -1.77792 5.04276 0
M  V30 7736 H 749.316 -2.35734 3.43126 0
M  V30 7737 H 749.849 -0.727675 3.91088 0
M  V30 7738 H 746.588 0.765442 6.51016 0
M  V30 7739 H 746.108 -0.848623 5.93766 0
M  V30 7740 H 747.787 -0.542588 6.44721 0
M  V30 7741 N 747.919 -1.57396 -0.0801906 0
M  V30 7742 C 749.144 -1.91437 -0.797909 0
M  V30 7743 C 749.569 -0.789075 -1.70749 0
M  V30 7744 O 748.927 0.25857 -1.79447 0
M  V30 7745 C 748.975 -3.24402 -1.57467 0
M  V30 7746 O 748.079 -3.13043 -2.68473 0
M  V30 7747 H 747.42 -0.627109 -0.218243 0
M  V30 7748 H 749.95 -2.04537 -0.050949 0
M  V30 7749 H 749.96 -3.58072 -1.95571 0
M  V30 7750 H 748.635 -4.05884 -0.907229 0
M  V30 7751 H 747.212 -2.90915 -2.33287 0
M  V30 7752 N 749.397 0.351382 -1.53633 0
M  V30 7753 C 750.643 1.09411 -1.70754 0
M  V30 7754 C 750.976 1.88544 -0.465293 0
M  V30 7755 O 750.251 1.86923 0.537608 0
M  V30 7756 C 750.534 2.04173 -2.96623 0
M  V30 7757 C 750.387 1.28556 -4.31038 0
M  V30 7758 C 751.706 3.04102 -3.18136 0
M  V30 7759 H 748.825 0.396373 -0.621335 0
M  V30 7760 H 751.467 0.373464 -1.86293 0
M  V30 7761 H 749.617 2.65625 -2.83506 0
M  V30 7762 H 751.289 0.697786 -4.55992 0
M  V30 7763 H 749.532 0.587498 -4.29803 0
M  V30 7764 H 750.203 1.97989 -5.15271 0
M  V30 7765 H 752.679 2.5276 -3.30532 0
M  V30 7766 H 751.555 3.67616 -4.07615 0
M  V30 7767 H 751.816 3.75053 -2.34068 0
M  V30 7768 N 750.875 1.45233 0.611969 0
M  V30 7769 C 751.838 1.53189 1.70487 0
M  V30 7770 C 752.838 0.411839 1.55437 0
M  V30 7771 O 754.028 0.675164 1.60584 0
M  V30 7772 C 751.16 1.42422 3.09723 0
M  V30 7773 H 752.353 2.5056 1.64802 0
M  V30 7774 H 749.906 1.32609 0.827318 0
M  V30 7775 H 750.641 0.462185 3.2099 0
M  V30 7776 H 750.426 2.23658 3.22055 0
M  V30 7777 H 751.916 1.51012 3.89339 0
M  V30 7778 N 752.353 -0.854086 1.3245 0
M  V30 7779 C 753.769 -1.14238 1.11453 0
M  V30 7780 C 753.969 -2.01228 -0.10461 0
M  V30 7781 O 753.025 -2.39845 -0.789339 0
M  V30 7782 C 754.338 -1.81916 2.39431 0
M  V30 7783 C 755.886 -1.94549 2.45193 0
M  V30 7784 C 756.361 -2.65642 3.73093 0
M  V30 7785 N 757.852 -2.73167 3.74078 0
M  V30 7786 C 758.587 -3.28828 4.69744 0
M  V30 7787 N 758.083 -3.85295 5.75778 0
M  V30 7788 N 759.876 -3.26936 4.57241 0
M  V30 7789 H 752.027 -0.274786 2.10615 0
M  V30 7790 H 754.29 -0.184375 0.929898 0
M  V30 7791 H 753.996 -1.25452 3.28565 0
M  V30 7792 H 753.87 -2.82068 2.50434 0
M  V30 7793 H 756.257 -2.50172 1.56518 0
M  V30 7794 H 756.338 -0.933914 2.38142 0
M  V30 7795 H 755.982 -2.10683 4.62142 0
M  V30 7796 H 755.912 -3.6724 3.77415 0
M  V30 7797 H 758.403 -2.33108 2.97438 0
M  V30 7798 H 758.716 -4.25925 6.44832 0
M  V30 7799 H 757.061 -3.83625 5.79531 0
M  V30 7800 H 760.252 -2.8207 3.7357 0
M  V30 7801 H 760.425 -3.70014 5.31971 0
M  V30 7802 N 753.831 -1.1567 -1.07043 0
M  V30 7803 C 754.779 -0.852204 -2.16426 0
M  V30 7804 C 755.773 0.175661 -1.68487 0
M  V30 7805 O 756.979 0.0303874 -1.79974 0
M  V30 7806 H 753.354 -0.257942 -0.706378 0
M  V30 7807 H 755.325 -1.78231 -2.39324 0
M  V30 7808 C 754.074 -0.361362 -3.45817 0
M  V30 7809 H 753.397 -1.14369 -3.83092 0
M  V30 7810 H 754.837 -0.186997 -4.23587 0
M  V30 7811 C 753.296 0.917703 -3.2416 0
M  V30 7812 O 753.826 1.98858 -3.49025 0
M  V30 7813 N 752.032 0.858456 -2.77631 0
M  V30 7814 H 751.579 -0.0131821 -2.57597 0
M  V30 7815 H 751.537 1.71478 -2.6352 0
M  V30 7816 O 755.348 1.19707 -1.08409 0
M  V30 7817 H 756.039 1.77498 -0.775504 0
M  V30 END ATOM
M  V30 BEGIN BOND
M  V30 END BOND
M  V30 END CTAB
M  END
$$$$
