drugbank_target|P31749 RAC-alpha serine/threonine-protein kinase (DB00171; DB01169; DB01645; DB01863; DB02709; DB05971; DB06486; DB06641; DB07584; DB07585)
 OpenBabel12092119313D

  0  0  0     0  0            999 V3000
M  V30 BEGIN CTAB
M  V30 COUNTS 7761 7854 0 0 0
M  V30 BEGIN ATOM
M  V30 1 H -0.908 1.98254 -0.117106 0
M  V30 2 N 0 1.576 0 0
M  V30 3 C 0.933 2.03868 1.02534 0
M  V30 4 C 1.911 0.928543 1.3348 0
M  V30 5 O 3.095 1.19667 1.45644 0
M  V30 6 C 0.222 2.43627 2.35294 0
M  V30 7 C -0.732 3.65373 2.2001 0
M  V30 8 S 0.101 5.13292 1.52614 0
M  V30 9 C 1.257 5.56322 2.86805 0
M  V30 10 H 1.49 2.90518 0.631377 0
M  V30 11 H -0.977 1.52953 0.210867 0
M  V30 12 H 0.981 2.67203 3.11629 0
M  V30 13 H -0.358 1.57376 2.7183 0
M  V30 14 H -1.165 3.90944 3.18086 0
M  V30 15 H -1.563 3.418 1.51819 0
M  V30 16 H 0.729 5.58782 3.83104 0
M  V30 17 H 1.672 6.56266 2.65933 0
M  V30 18 H 2.08 4.83886 2.90714 0
M  V30 19 N 1.4781 -0.272755 1.55222 0
M  V30 20 C 2.7031 -1.02683 1.80197 0
M  V30 21 C 3.1281 -1.79142 0.573551 0
M  V30 22 O 2.4861 -1.74917 -0.476849 0
M  V30 23 C 2.5341 -1.9609 3.02624 0
M  V30 24 O 1.6381 -3.04863 2.77727 0
M  V30 25 H 0.9791 -0.293557 0.595584 0
M  V30 26 H 3.5091 -0.30159 2.02365 0
M  V30 27 H 3.5191 -2.38039 3.31363 0
M  V30 28 H 2.1941 -1.39851 3.91682 0
M  V30 29 H 0.7711 -2.67228 2.60084 0
M  V30 30 N 2.9562 -1.48159 -0.537278 0
M  V30 31 C 4.2332 -1.46291 -1.29839 0
M  V30 32 C 4.6132 -0.170613 -2.10409 0
M  V30 33 O 3.9612 0.847746 -2.12192 0
M  V30 34 C 4.1712 -2.72055 -2.18603 0
M  V30 35 C 5.5192 -3.20087 -2.7898 0
M  V30 36 O 6.5432 -2.72921 -2.28894 0
M  V30 37 O 5.4022 -4.02138 -3.70064 0
M  V30 38 H 2.4962 -0.583906 -0.585647 0
M  V30 39 H 5.0422 -1.60384 -0.554534 0
M  V30 40 H 3.8142 -3.57628 -1.58801 0
M  V30 41 H 3.4372 -2.60646 -3.00249 0
M  V30 42 N 4.4343 0.785586 -1.36625 0
M  V30 43 C 5.6803 1.54591 -1.31261 0
M  V30 44 C 6.0133 1.93906 0.106823 0
M  V30 45 O 5.2883 1.63007 1.06108 0
M  V30 46 C 5.5713 2.82038 -2.23889 0
M  V30 47 C 5.4243 2.49066 -3.74548 0
M  V30 48 C 6.7433 3.83887 -2.15217 0
M  V30 49 H 3.8623 0.560846 -0.478143 0
M  V30 50 H 6.5043 0.902278 -1.67209 0
M  V30 51 H 4.6543 3.36961 -1.93363 0
M  V30 52 H 6.3263 2.00164 -4.15611 0
M  V30 53 H 4.5693 1.81954 -3.93796 0
M  V30 54 H 5.2403 3.40109 -4.34776 0
M  V30 55 H 7.7163 3.38421 -2.42096 0
M  V30 56 H 6.5923 4.70806 -2.82193 0
M  V30 57 H 6.8533 4.27131 -1.14068 0
M  V30 58 N 5.9124 1.20967 1.01018 0
M  V30 59 C 6.8754 0.965918 2.07853 0
M  V30 60 C 7.8754 -0.0610545 1.60684 0
M  V30 61 O 9.0654 0.175681 1.73312 0
M  V30 62 C 6.1974 0.455513 3.37843 0
M  V30 63 H 7.3904 1.91365 2.3091 0
M  V30 64 H 4.9434 1.02594 1.17916 0
M  V30 65 H 5.6784 -0.497381 3.20463 0
M  V30 66 H 5.4634 1.19622 3.73407 0
M  V30 67 H 6.9534 0.304667 4.16487 0
M  V30 68 N 7.3905 -1.2043 1.01659 0
M  V30 69 C 8.6395 -1.89118 0.701237 0
M  V30 70 C 8.9525 -1.79705 -0.772358 0
M  V30 71 O 10.1585 -2.43528 -1.20026 0
M  V30 72 C 8.6145 -3.39168 1.20388 0
M  V30 73 C 8.2225 -3.57166 2.70438 0
M  V30 74 C 9.9665 -4.1341 0.963953 0
M  V30 75 C 7.8735 -5.01042 3.14183 0
M  V30 76 H 6.8035 -0.708267 0.2586 0
M  V30 77 H 9.4545 -1.36239 1.22927 0
M  V30 78 H 7.8365 -3.91369 0.603824 0
M  V30 79 H 9.0105 -3.15351 3.35992 0
M  V30 80 H 7.3255 -2.96294 2.92572 0
M  V30 81 H 9.9225 -5.19491 1.26621 0
M  V30 82 H 10.2655 -4.16181 -0.099578 0
M  V30 83 H 10.7985 -3.67309 1.52738 0
M  V30 84 H 7.5375 -5.03426 4.19812 0
M  V30 85 H 7.0575 -5.43668 2.53348 0
M  V30 86 H 8.7365 -5.69623 3.0682 0
M  V30 87 N 8.8686 -0.792821 -1.36206 0
M  V30 88 C 10.1146 -0.36733 -1.99446 0
M  V30 89 C 10.4476 1.05917 -1.62774 0
M  V30 90 O 9.7226 1.7324 -0.88421 0
M  V30 91 C 10.0056 -0.535044 -3.56103 0
M  V30 92 C 9.8586 -2.00548 -4.02617 0
M  V30 93 C 11.1776 0.0478191 -4.40074 0
M  V30 94 H 8.2966 -0.134941 -0.724541 0
M  V30 95 H 10.9386 -0.999794 -1.61568 0
M  V30 96 H 9.0886 0.00336329 -3.885 0
M  V30 97 H 10.7606 -2.60521 -3.80692 0
M  V30 98 H 9.0036 -2.50686 -3.54032 0
M  V30 99 H 9.6746 -2.07377 -5.11565 0
M  V30 100 H 12.1506 -0.411822 -4.14057 0
M  V30 101 H 11.0266 -0.0995336 -5.4881 0
M  V30 102 H 11.2876 1.14025 -4.27142 0
M  V30 103 N 10.3467 1.47872 -0.545128 0
M  V30 104 C 11.2937 2.29849 0.2093 0
M  V30 105 C 12.2637 1.38313 0.919707 0
M  V30 106 O 13.4487 1.67277 0.917772 0
M  V30 107 C 10.5887 3.22019 1.24088 0
M  V30 108 C 9.7017 4.2864 0.537778 0
M  V30 109 C 8.8367 5.07973 1.5536 0
M  V30 110 C 7.8757 6.06381 0.8348 0
M  V30 111 N 7.0127 6.78717 1.79688 0
M  V30 112 H 11.8527 2.93845 -0.49591 0
M  V30 113 H 9.3897 1.44848 -0.256389 0
M  V30 114 H 11.3477 3.73868 1.85144 0
M  V30 115 H 9.9777 2.59914 1.91428 0
M  V30 116 H 9.0297 3.7994 -0.187046 0
M  V30 117 H 10.3417 4.98793 -0.0258907 0
M  V30 118 H 9.4957 5.63912 2.23803 0
M  V30 119 H 8.2347 4.37693 2.15118 0
M  V30 120 H 7.2397 5.49631 0.136388 0
M  V30 121 H 8.4647 6.78665 0.24313 0
M  V30 122 H 6.4107 6.11177 2.38326 0
M  V30 123 H 6.3277 7.44998 1.28505 0
M  V30 124 H 7.5957 7.39237 2.47282 0
M  V30 125 N 11.8248 0.280983 1.55075 0
M  V30 126 C 12.7348 -0.61388 2.26426 0
M  V30 127 C 13.7508 -1.16521 1.29224 0
M  V30 128 O 14.9268 -1.19426 1.62171 0
M  V30 129 C 11.9918 -1.7788 2.9759 0
M  V30 130 C 11.0528 -1.26355 4.10284 0
M  V30 131 C 10.2858 -2.37295 4.78045 0
M  V30 132 O 10.5088 -3.56777 4.45047 0
M  V30 133 O 9.4428 -2.05119 5.65871 0
M  V30 134 H 13.2688 -0.0356932 3.03679 0
M  V30 135 H 10.8538 0.0481686 1.49322 0
M  V30 136 H 12.7358 -2.45791 3.42293 0
M  V30 137 H 11.4108 -2.34397 2.23249 0
M  V30 138 H 10.3178 -0.550735 3.70024 0
M  V30 139 H 11.6508 -0.744065 4.86543 0
M  V30 140 N 13.3029 -1.57598 0.00835791 0
M  V30 141 C 14.5509 -1.90551 -0.6734 0
M  V30 142 C 14.8719 -0.883301 -1.73847 0
M  V30 143 O 14.1419 0.0781442 -1.95744 0
M  V30 144 H 12.7219 -0.703312 -0.251717 0
M  V30 145 H 15.3839 -1.94833 0.0512592 0
M  V30 146 H 14.4799 -2.9056 -1.13935 0
M  V30 147 N 14.781 0.264519 -1.55364 0
M  V30 148 C 16.027 0.992314 -1.77552 0
M  V30 149 C 16.382 1.83626 -0.574379 0
M  V30 150 O 15.675 1.86648 0.432782 0
M  V30 151 C 15.869 1.9004 -3.02687 0
M  V30 152 C 15.698 1.14583 -4.34857 0
M  V30 153 C 14.468 0.858068 -4.97961 0
M  V30 154 C 16.666 0.532069 -5.1154 0
M  V30 155 N 14.648 0.0775974 -6.13851 0
M  V30 156 C 16.019 -0.113823 -6.19896 0
M  V30 157 C 18.074 0.440763 -4.95945 0
M  V30 158 C 16.777 -0.842231 -7.14352 0
M  V30 159 C 18.803 -0.274072 -5.90765 0
M  V30 160 C 18.165 -0.90867 -6.98515 0
M  V30 161 H 14.264 0.344811 -0.701875 0
M  V30 162 H 16.848 0.267141 -1.92859 0
M  V30 163 H 15.019 2.59775 -2.88741 0
M  V30 164 H 16.751 2.56243 -3.13243 0
M  V30 165 H 13.506 1.16547 -4.59036 0
M  V30 166 H 13.93 -0.300216 -6.76334 0
M  V30 167 H 18.572 0.917064 -4.12735 0
M  V30 168 H 16.29 -1.33019 -7.97077 0
M  V30 169 H 19.876 -0.345151 -5.80775 0
M  V30 170 H 18.756 -1.45299 -7.70622 0
M  V30 171 N 16.2591 1.48442 0.529413 0
M  V30 172 C 17.1891 1.65902 1.64313 0
M  V30 173 C 18.1701 0.507897 1.6234 0
M  V30 174 O 19.3551 0.740503 1.79528 0
M  V30 175 C 16.4851 1.69911 3.02898 0
M  V30 176 C 15.4391 2.8453 3.19729 0
M  V30 177 C 14.7651 2.73629 4.59381 0
M  V30 178 C 16.0651 4.25821 3.02447 0
M  V30 179 H 17.7591 2.5914 1.49955 0
M  V30 180 H 15.3051 1.24709 0.719982 0
M  V30 181 H 17.2581 1.80715 3.80684 0
M  V30 182 H 15.9821 0.732524 3.18279 0
M  V30 183 H 14.6411 2.73283 2.44361 0
M  V30 184 H 14.2891 1.74938 4.71599 0
M  V30 185 H 13.9891 3.50541 4.71588 0
M  V30 186 H 15.5131 2.86401 5.39265 0
M  V30 187 H 16.9271 4.37898 3.70024 0
M  V30 188 H 15.3241 5.03735 3.26146 0
M  V30 189 H 16.3941 4.42244 1.98867 0
M  V30 190 N 17.7372 -0.778329 1.37039 0
M  V30 191 C 18.6872 -1.88142 1.28789 0
M  V30 192 C 19.6712 -1.59923 0.177063 0
M  V30 193 O 20.8632 -1.72165 0.410873 0
M  V30 194 C 17.9922 -3.25518 1.09055 0
M  V30 195 C 17.0782 -3.5971 2.24654 0
M  V30 196 N 17.4692 -3.65131 3.50018 0
M  V30 197 C 15.7672 -3.89837 2.16663 0
M  V30 198 C 16.4682 -3.95882 4.26207 0
M  V30 199 N 15.4442 -4.11441 3.55271 0
M  V30 200 H 19.2462 -1.90575 2.23737 0
M  V30 201 H 16.7602 -0.974435 1.29917 0
M  V30 202 H 18.7572 -4.04423 1.0123 0
M  V30 203 H 17.4172 -3.24353 0.15018 0
M  V30 204 H 18.4282 -3.475 3.84011 0
M  V30 205 H 15.1052 -3.96533 1.30645 0
M  V30 206 H 16.4952 -4.06907 5.34674 0
M  V30 207 N 19.2153 -1.21501 -1.00376 0
M  V30 208 C 20.1623 -0.975387 -2.09177 0
M  V30 209 C 21.1323 0.0990615 -1.65804 0
M  V30 210 O 22.3173 -0.0483147 -1.90739 0
M  V30 211 C 19.4573 -0.547507 -3.40729 0
M  V30 212 C 18.5703 -1.69153 -3.97506 0
M  V30 213 C 17.7053 -1.2127 -5.17172 0
M  V30 214 C 16.7443 -2.32897 -5.66061 0
M  V30 215 N 15.8813 -1.86138 -6.76976 0
M  V30 216 H 20.7213 -1.9068 -2.29009 0
M  V30 217 H 18.2583 -0.950257 -1.12288 0
M  V30 218 H 20.2163 -0.280667 -4.16255 0
M  V30 219 H 18.8463 0.346904 -3.20931 0
M  V30 220 H 17.8983 -2.07298 -3.18954 0
M  V30 221 H 19.2103 -2.5316 -4.29781 0
M  V30 222 H 18.3643 -0.902591 -5.99948 0
M  V30 223 H 17.1033 -0.342692 -4.86495 0
M  V30 224 H 16.1083 -2.64709 -4.81881 0
M  V30 225 H 17.3333 -3.20396 -5.98768 0
M  V30 226 H 15.2793 -1.01484 -6.48103 0
M  V30 227 H 15.1963 -2.63717 -7.08512 0
M  V30 228 H 16.4643 -1.58165 -7.63285 0
M  V30 229 N 20.6934 1.19889 -1.02296 0
M  V30 230 C 22.1094 1.41462 -0.738954 0
M  V30 231 C 22.3094 1.89721 0.678846 0
M  V30 232 O 21.3654 2.07016 1.4457 0
M  V30 233 C 22.6784 2.43083 -1.77005 0
M  V30 234 C 24.2264 2.5684 -1.78892 0
M  V30 235 C 24.7014 3.61709 -2.80945 0
M  V30 236 N 26.1924 3.69199 -2.79725 0
M  V30 237 C 26.9274 4.50019 -3.55345 0
M  V30 238 N 26.4234 5.34592 -4.40662 0
M  V30 239 N 28.2164 4.44612 -3.43914 0
M  V30 240 H 20.3674 0.868827 -1.93817 0
M  V30 241 H 22.6304 0.44399 -0.837602 0
M  V30 242 H 22.3364 2.14636 -2.78612 0
M  V30 243 H 22.2104 3.4217 -1.58744 0
M  V30 244 H 24.5974 2.84614 -0.779674 0
M  V30 245 H 24.6784 1.57927 -2.01228 0
M  V30 246 H 24.3224 3.34678 -3.82038 0
M  V30 247 H 24.2524 4.60259 -2.5587 0
M  V30 248 H 26.7434 3.08794 -2.17842 0
M  V30 249 H 27.0564 5.93363 -4.95116 0
M  V30 250 H 25.4014 5.34073 -4.44737 0
M  V30 251 H 28.5924 3.7758 -2.76679 0
M  V30 252 H 28.7654 5.0736 -4.031 0
M  V30 253 N 22.1715 0.800033 1.35784 0
M  V30 254 C 23.4195 0.376597 1.9856 0
M  V30 255 C 23.7405 -1.05812 1.63795 0
M  V30 256 O 23.0105 -1.73103 0.917171 0
M  V30 257 H 21.5905 0.136261 0.734467 0
M  V30 258 H 24.2525 1.02442 1.65806 0
M  V30 259 H 23.3485 0.477002 3.08433 0
M  V30 260 N 23.6496 -1.47581 0.552962 0
M  V30 261 C 24.5596 -2.33743 -0.200353 0
M  V30 262 C 25.5756 -1.47928 -0.916151 0
M  V30 263 O 26.7516 -1.80865 -0.885993 0
M  V30 264 C 23.8166 -3.24536 -1.21973 0
M  V30 265 C 22.8776 -4.26238 -0.511819 0
M  V30 266 C 22.1106 -5.12693 -1.48263 0
M  V30 267 O 22.3336 -5.01525 -2.71714 0
M  V30 268 O 21.2676 -5.93375 -1.00945 0
M  V30 269 H 25.0936 -2.9945 0.506304 0
M  V30 270 H 22.6786 -1.46071 0.313622 0
M  V30 271 H 24.5606 -3.80631 -1.80827 0
M  V30 272 H 23.2356 -2.61462 -1.90839 0
M  V30 273 H 22.1426 -3.73914 0.117799 0
M  V30 274 H 23.4756 -4.92014 0.135308 0
M  V30 275 N 25.1277 -0.289203 -1.54924 0
M  V30 276 C 26.3577 0.325989 -2.04012 0
M  V30 277 C 26.7657 1.48961 -1.1665 0
M  V30 278 O 26.1087 1.82794 -0.1822 0
M  V30 279 C 26.1707 0.856112 -3.49158 0
M  V30 280 C 25.8347 -0.180697 -4.56643 0
M  V30 281 C 26.8317 -1.0051 -5.10092 0
M  V30 282 C 24.5167 -0.318998 -5.01286 0
M  V30 283 C 26.5107 -1.95385 -6.06715 0
M  V30 284 C 24.1977 -1.27121 -5.97732 0
M  V30 285 C 25.1957 -2.08713 -6.50329 0
M  V30 286 O 24.8837 -3.02322 -7.44887 0
M  V30 287 H 24.6157 0.0765276 -0.671654 0
M  V30 288 H 27.1697 -0.423254 -2.00992 0
M  V30 289 H 25.3997 1.65567 -3.49463 0
M  V30 290 H 27.0887 1.38591 -3.81507 0
M  V30 291 H 27.8547 -0.90906 -4.76404 0
M  V30 292 H 23.7337 0.306108 -4.59983 0
M  V30 293 H 27.2777 -2.59111 -6.47694 0
M  V30 294 H 23.1747 -1.36801 -6.30837 0
M  V30 295 H 23.9427 -2.97165 -7.6265 0
M  V30 296 N 26.6058 1.57591 -0.0167156 0
M  V30 297 C 27.8548 1.90461 0.663877 0
M  V30 298 C 28.1678 0.893515 1.73999 0
M  V30 299 O 29.3738 1.11302 2.47637 0
M  V30 300 C 27.8298 3.38155 1.23204 0
M  V30 301 C 27.4378 4.47597 0.189866 0
M  V30 302 C 29.1818 3.80111 1.88986 0
M  V30 303 C 27.0888 5.86379 0.768964 0
M  V30 304 H 26.0188 0.710738 0.251729 0
M  V30 305 H 28.6698 1.83326 -0.0799926 0
M  V30 306 H 27.0518 3.40182 2.02712 0
M  V30 307 H 28.2258 4.57112 -0.581846 0
M  V30 308 H 26.5408 4.14766 -0.368475 0
M  V30 309 H 29.1378 4.81145 2.33247 0
M  V30 310 H 29.4808 3.14511 2.72743 0
M  V30 311 H 30.0138 3.80454 1.16187 0
M  V30 312 H 26.7528 6.55493 -0.0301957 0
M  V30 313 H 26.2728 5.80496 1.50945 0
M  V30 314 H 27.9518 6.34563 1.26251 0
M  V30 315 N 28.0839 -0.256276 1.55502 0
M  V30 316 C 29.0309 -1.31714 1.89526 0
M  V30 317 C 30.0009 -1.4828 0.748479 0
M  V30 318 O 31.1859 -1.62416 1.00128 0
M  V30 319 C 28.3259 -2.66933 2.18725 0
M  V30 320 C 27.4389 -2.58452 3.4616 0
M  V30 321 C 26.5739 -3.85961 3.64976 0
M  V30 322 C 25.6129 -3.72059 4.86044 0
M  V30 323 N 24.7499 -4.9144 5.01429 0
M  V30 324 H 29.5899 -1.01998 2.80001 0
M  V30 325 H 27.1269 -0.492413 1.38613 0
M  V30 326 H 29.0849 -3.4563 2.33657 0
M  V30 327 H 27.7149 -2.94816 1.31466 0
M  V30 328 H 26.7669 -1.71374 3.3961 0
M  V30 329 H 28.0789 -2.44085 4.34999 0
M  V30 330 H 27.2329 -4.73101 3.79816 0
M  V30 331 H 25.9719 -4.03215 2.74353 0
M  V30 332 H 24.9769 -2.83302 4.7119 0
M  V30 333 H 26.2019 -3.56309 5.78118 0
M  V30 334 H 24.1479 -5.09072 4.13741 0
M  V30 335 H 24.0649 -4.79668 5.84341 0
M  V30 336 H 25.3329 -5.80104 5.20672 0
M  V30 337 N 29.562 -1.4872 -0.521534 0
M  V30 338 C 30.79 -1.60843 -1.30142 0
M  V30 339 C 31.205 -0.271897 -1.86832 0
M  V30 340 O 30.562 0.739969 -1.66825 0
M  V30 341 C 30.613 -2.66155 -2.4463 0
M  V30 342 O 30.334 -3.94623 -1.90275 0
M  V30 343 C 31.835 -2.88795 -3.36322 0
M  V30 344 H 29.055 -0.542075 -0.395468 0
M  V30 345 H 31.599 -1.94609 -0.628285 0
M  V30 346 H 29.754 -2.35224 -3.07812 0
M  V30 347 H 30.168 -4.52468 -2.65279 0
M  V30 348 H 31.642 -3.66264 -4.12983 0
M  V30 349 H 32.119 -1.97934 -3.9207 0
M  V30 350 H 32.725 -3.21063 -2.78924 0
M  V30 351 N 31.0401 0.771051 -1.3745 0
M  V30 352 C 32.2861 1.53109 -1.339 0
M  V30 353 C 32.6411 1.9225 0.0758401 0
M  V30 354 O 31.9341 1.61264 1.03463 0
M  V30 355 C 32.1281 2.80676 -2.2126 0
M  V30 356 C 31.9571 2.54003 -3.71096 0
M  V30 357 C 30.7271 2.48097 -4.402 0
M  V30 358 C 32.9251 2.21953 -4.63941 0
M  V30 359 N 30.9071 2.13515 -5.75573 0
M  V30 360 C 32.2781 1.97516 -5.87697 0
M  V30 361 C 34.3331 2.08114 -4.5232 0
M  V30 362 C 33.0361 1.60638 -7.01133 0
M  V30 363 C 35.0621 1.72636 -5.65642 0
M  V30 364 C 34.4241 1.4906 -6.88448 0
M  V30 365 H 30.5231 0.56055 -0.54526 0
M  V30 366 H 33.1071 0.899472 -1.72678 0
M  V30 367 H 31.2781 3.41674 -1.84698 0
M  V30 368 H 33.0101 3.46578 -2.08963 0
M  V30 369 H 29.7651 2.63974 -3.93211 0
M  V30 370 H 30.1891 1.98919 -6.47117 0
M  V30 371 H 34.8311 2.25024 -3.57944 0
M  V30 372 H 32.5491 1.42467 -7.95443 0
M  V30 373 H 36.1351 1.62586 -5.58621 0
M  V30 374 H 35.0151 1.22014 -7.7465 0
M  V30 375 N 32.5182 1.22032 0.997298 0
M  V30 376 C 33.9342 0.979326 1.26021 0
M  V30 377 C 34.1342 -0.32972 1.98784 0
M  V30 378 O 33.1902 -1.05345 2.29475 0
M  V30 379 C 34.5032 2.17509 2.07631 0
M  V30 380 C 36.0512 2.21817 2.2083 0
M  V30 381 C 36.5262 3.40933 3.05825 0
M  V30 382 N 38.0172 3.41067 3.13412 0
M  V30 383 C 38.7522 4.29885 3.79455 0
M  V30 384 N 38.2482 5.28914 4.47462 0
M  V30 385 N 40.0412 4.17673 3.76173 0
M  V30 386 H 32.1922 2.06202 0.509352 0
M  V30 387 H 34.4552 0.90334 0.287541 0
M  V30 388 H 34.1612 3.12415 1.61524 0
M  V30 389 H 34.0352 2.17206 3.08385 0
M  V30 390 H 36.4222 1.27462 2.66153 0
M  V30 391 H 36.5032 2.2616 1.1952 0
M  V30 392 H 36.1472 4.35586 2.61203 0
M  V30 393 H 36.0772 3.33829 4.07266 0
M  V30 394 H 38.5682 2.69406 2.65007 0
M  V30 395 H 38.8812 5.92973 4.95583 0
M  V30 396 H 37.2262 5.32831 4.46224 0
M  V30 397 H 40.4172 3.39564 3.22202 0
M  V30 398 H 40.5902 4.87098 4.27363 0
M  V30 399 N 33.9963 -1.19345 1.0293 0
M  V30 400 C 35.4073 -1.70725 0.755633 0
M  V30 401 C 35.7583 -1.82326 -0.724676 0
M  V30 402 O 34.8833 -1.49471 -1.56484 0
M  V30 403 C 35.4783 -3.10084 1.36503 0
M  V30 404 C 34.0373 -3.58723 1.13994 0
M  V30 405 C 33.1843 -2.35577 1.46283 0
M  V30 406 H 36.1353 -1.0418 1.19718 0
M  V30 407 H 36.1563 -3.72787 0.762217 0
M  V30 408 H 35.6683 -3.01609 2.44241 0
M  V30 409 H 33.7693 -3.72512 0.0807901 0
M  V30 410 H 33.8823 -4.42816 1.82894 0
M  V30 411 H 32.2463 -2.38935 0.88217 0
M  V30 412 H 33.0293 -2.29731 2.55105 0
M  V30 413 N 35.4744 -0.807222 -1.35358 0
M  V30 414 C 36.8904 -0.491038 -1.51858 0
M  V30 415 C 37.0904 0.987648 -1.75635 0
M  V30 416 O 36.1464 1.77265 -1.79815 0
M  V30 417 C 37.4594 -1.33695 -2.69344 0
M  V30 418 C 39.0074 -1.33246 -2.83222 0
M  V30 419 C 39.4824 -2.1625 -4.03733 0
M  V30 420 N 40.9734 -2.1379 -4.10911 0
M  V30 421 C 41.7084 -2.74772 -5.03277 0
M  V30 422 N 41.2044 -3.44684 -6.0097 0
M  V30 423 N 42.9974 -2.6441 -4.96028 0
M  V30 424 H 35.1484 -1.76485 -1.18181 0
M  V30 425 H 37.4114 -0.751199 -0.578276 0
M  V30 426 H 37.1174 -2.38634 -2.58354 0
M  V30 427 H 36.9914 -0.990618 -3.6396 0
M  V30 428 H 39.3784 -0.290911 -2.93663 0
M  V30 429 H 39.4594 -1.71866 -1.89461 0
M  V30 430 H 39.1034 -3.20445 -3.94052 0
M  V30 431 H 39.0334 -1.74989 -4.96675 0
M  V30 432 H 41.5244 -1.62923 -3.40976 0
M  V30 433 H 41.8374 -3.88501 -6.68047 0
M  V30 434 H 40.1824 -3.48788 -6.01142 0
M  V30 435 H 43.3734 -2.0938 -4.18662 0
M  V30 436 H 43.5464 -3.12225 -5.6782 0
M  V30 437 N 36.9525 1.47285 -0.560781 0
M  V30 438 C 38.1825 2.06555 -0.0429638 0
M  V30 439 C 38.5905 1.41339 1.25777 0
M  V30 440 O 37.9335 0.505182 1.76617 0
M  V30 441 C 37.9955 3.58827 0.219887 0
M  V30 442 C 37.6595 4.46105 -0.991944 0
M  V30 443 C 38.6565 4.84 -1.89843 0
M  V30 444 C 36.3415 4.87567 -1.20762 0
M  V30 445 C 38.3355 5.6216 -3.00425 0
M  V30 446 C 36.0225 5.65491 -2.31653 0
M  V30 447 C 37.0205 6.02699 -3.21315 0
M  V30 448 O 36.7085 6.79052 -4.30283 0
M  V30 449 H 36.4405 0.674537 -0.0444468 0
M  V30 450 H 38.9945 1.90225 -0.774818 0
M  V30 451 H 37.2245 3.73383 1.00609 0
M  V30 452 H 38.9135 4.00103 0.683522 0
M  V30 453 H 39.6795 4.52564 -1.74387 0
M  V30 454 H 35.5585 4.5807 -0.518893 0
M  V30 455 H 39.1025 5.9112 -3.70436 0
M  V30 456 H 34.9995 5.9634 -2.47081 0
M  V30 457 H 35.7675 6.9745 -4.28376 0
M  V30 458 N 38.4306 0.297415 1.54768 0
M  V30 459 C 39.6776 -0.312913 2.00068 0
M  V30 460 C 40.0056 -1.54171 1.18582 0
M  V30 461 O 39.2606 -1.94108 0.249133 0
M  V30 462 C 39.5596 -0.717561 3.50123 0
M  V30 463 C 39.2256 0.409095 4.4904 0
M  V30 464 C 37.8876 0.718399 4.75807 0
M  V30 465 C 40.2396 1.16717 5.07963 0
M  V30 466 C 37.5676 1.78896 5.5876 0
M  V30 467 C 39.9196 2.22762 5.92081 0
M  V30 468 C 38.5836 2.54303 6.1716 0
M  V30 469 H 37.8536 -0.114503 0.7321 0
M  V30 470 H 40.5006 0.415767 1.86932 0
M  V30 471 H 38.8056 -1.52627 3.60849 0
M  V30 472 H 40.5026 -1.20091 3.82595 0
M  V30 473 H 37.0926 0.157918 4.28309 0
M  V30 474 H 41.2766 0.941466 4.87289 0
M  V30 475 H 36.5326 2.0381 5.7643 0
M  V30 476 H 40.7066 2.81962 6.36765 0
M  V30 477 H 38.3336 3.3739 6.81229 0
M  V30 478 N 39.9087 -1.5758 0.0250728 0
M  V30 479 C 40.8387 -2.13007 -0.956575 0
M  V30 480 C 41.8197 -1.0452 -1.342 0
M  V30 481 O 43.0047 -1.32332 -1.42133 0
M  V30 482 C 40.1347 -2.65386 -2.24026 0
M  V30 483 C 39.0887 -3.78623 -1.99571 0
M  V30 484 C 38.4147 -4.17414 -3.3417 0
M  V30 485 C 39.7147 -5.04867 -1.33814 0
M  V30 486 H 41.4087 -2.9528 -0.494991 0
M  V30 487 H 38.9547 -1.42042 -0.236651 0
M  V30 488 H 40.9077 -3.02794 -2.93076 0
M  V30 489 H 39.6317 -1.80268 -2.72343 0
M  V30 490 H 38.2907 -3.41646 -1.32941 0
M  V30 491 H 37.9387 -3.29284 -3.80238 0
M  V30 492 H 37.6387 -4.93719 -3.18615 0
M  V30 493 H 39.1627 -4.57402 -4.04495 0
M  V30 494 H 40.5767 -5.39888 -1.92857 0
M  V30 495 H 38.9737 -5.86144 -1.28669 0
M  V30 496 H 40.0437 -4.83904 -0.310561 0
M  V30 497 N 41.3868 0.248026 -1.55636 0
M  V30 498 C 42.3168 1.31079 -1.93237 0
M  V30 499 C 43.2978 1.50264 -0.797174 0
M  V30 500 O 44.4828 1.62891 -1.05737 0
M  V30 501 C 41.6128 2.66575 -2.22609 0
M  V30 502 C 40.5668 2.62087 -3.3837 0
M  V30 503 C 39.8928 4.01369 -3.53281 0
M  V30 504 C 41.1928 2.19171 -4.7409 0
M  V30 505 H 42.8868 0.998556 -2.82257 0
M  V30 506 H 40.4328 0.47891 -1.35803 0
M  V30 507 H 42.3858 3.41057 -2.47503 0
M  V30 508 H 41.1098 2.99432 -1.30414 0
M  V30 509 H 39.7688 1.90063 -3.13483 0
M  V30 510 H 39.4168 4.31489 -2.58508 0
M  V30 511 H 39.1168 3.99254 -4.31127 0
M  V30 512 H 40.6408 4.77552 -3.80495 0
M  V30 513 H 42.0548 2.83384 -4.98363 0
M  V30 514 H 40.4518 2.2817 -5.5503 0
M  V30 515 H 41.5218 1.14336 -4.71227 0
M  V30 516 N 42.8649 1.48995 0.513639 0
M  V30 517 C 43.8119 1.6473 1.61656 0
M  V30 518 C 44.7819 0.488984 1.58739 0
M  V30 519 O 45.9669 0.714478 1.76918 0
M  V30 520 C 43.1069 1.7082 2.99858 0
M  V30 521 C 42.2199 2.9787 3.12885 0
M  V30 522 C 41.3549 2.95017 4.41744 0
M  V30 523 C 40.3939 4.16702 4.48359 0
M  V30 524 N 39.5309 4.11832 5.68629 0
M  V30 525 H 44.3709 2.58909 1.47547 0
M  V30 526 H 41.9079 1.28382 0.71808 0
M  V30 527 H 43.8659 1.72331 3.79944 0
M  V30 528 H 42.4959 0.801181 3.12699 0
M  V30 529 H 41.5479 3.06029 2.25944 0
M  V30 530 H 42.8599 3.8786 3.13633 0
M  V30 531 H 42.0139 2.95021 5.30139 0
M  V30 532 H 40.7529 2.02784 4.43542 0
M  V30 533 H 39.7579 4.16955 3.58369 0
M  V30 534 H 40.9829 5.10113 4.48287 0
M  V30 535 H 38.9289 3.22428 5.71293 0
M  V30 536 H 38.8459 4.95543 5.7094 0
M  V30 537 H 40.1139 4.1592 6.59266 0
M  V30 538 N 44.343 -0.763751 1.37857 0
M  V30 539 C 45.291 -1.89864 1.34367 0
M  V30 540 C 46.285 -1.67816 0.231143 0
M  V30 541 O 47.491 -1.75508 0.399617 0
M  V30 542 H 43.866 -0.624501 0.41893 0
M  V30 543 H 45.837 -1.89925 2.30155 0
M  V30 544 C 44.586 -3.27227 1.1755 0
M  V30 545 H 43.909 -3.44773 2.02414 0
M  V30 546 H 45.349 -4.06911 1.1916 0
M  V30 547 C 43.808 -3.36692 -0.118311 0
M  V30 548 O 44.338 -3.86374 -1.09902 0
M  V30 549 N 42.544 -2.90092 -0.171717 0
M  V30 550 H 42.091 -2.49853 0.627012 0
M  V30 551 H 42.049 -2.96806 -1.03699 0
M  V30 552 N 45.8211 -1.22559 -0.990812 0
M  V30 553 C 47.0981 -0.959875 -1.70428 0
M  V30 554 C 47.4781 0.524455 -2.04481 0
M  V30 555 O 46.8261 1.49302 -1.72977 0
M  V30 556 C 47.0361 -1.85955 -2.95333 0
M  V30 557 C 48.3841 -2.11687 -3.68068 0
M  V30 558 O 49.4081 -1.8342 -3.05345 0
M  V30 559 O 48.2671 -2.59572 -4.80921 0
M  V30 560 H 45.3611 -0.361154 -0.743974 0
M  V30 561 H 47.9071 -1.33554 -1.04697 0
M  V30 562 H 46.6791 -2.86346 -2.66687 0
M  V30 563 H 46.3021 -1.4856 -3.68803 0
M  V30 564 N 47.2992 1.18797 -1.03562 0
M  V30 565 C 48.5472 1.88278 -0.734569 0
M  V30 566 C 48.8682 1.8043 0.739586 0
M  V30 567 O 48.1382 1.21925 1.53333 0
M  V30 568 H 46.7182 0.696991 -0.268725 0
M  V30 569 H 49.3802 1.44192 -1.31129 0
M  V30 570 H 48.4762 2.94443 -1.03489 0
M  V30 571 N 48.7773 0.814389 1.34928 0
M  V30 572 C 50.0053 0.411136 2.02774 0
M  V30 573 C 50.4203 -0.980316 1.61354 0
M  V30 574 O 49.7773 -1.63299 0.814847 0
M  V30 575 C 49.8283 0.493865 3.58111 0
M  V30 576 O 49.5493 1.83047 3.98027 0
M  V30 577 C 51.0503 0.0844174 4.4322 0
M  V30 578 H 48.2703 0.166037 0.650133 0
M  V30 579 H 50.8143 1.10018 1.72384 0
M  V30 580 H 48.9693 -0.147006 3.87121 0
M  V30 581 H 49.3833 1.79872 4.92693 0
M  V30 582 H 50.8573 0.193404 5.51661 0
M  V30 583 H 51.3343 -0.97113 4.28329 0
M  V30 584 H 51.9403 0.69875 4.19521 0
M  V30 585 N 50.2554 -1.46986 0.568584 0
M  V30 586 C 51.5024 -2.02441 0.0487986 0
M  V30 587 C 51.8304 -1.44169 -1.30559 0
M  V30 588 O 51.0854 -0.591213 -1.86556 0
M  V30 589 C 51.3844 -3.57306 -0.081836 0
M  V30 590 C 51.0504 -4.34552 1.20313 0
M  V30 591 C 49.7124 -4.55376 1.5552 0
M  V30 592 C 52.0644 -4.79016 2.05411 0
M  V30 593 C 49.3924 -5.17913 2.7565 0
M  V30 594 C 51.7444 -5.42879 3.24754 0
M  V30 595 C 50.4084 -5.61933 3.60261 0
M  V30 596 H 49.6784 -0.740785 0.0178567 0
M  V30 597 H 52.3254 -1.76525 0.742384 0
M  V30 598 H 50.6304 -3.8228 -0.858463 0
M  V30 599 H 52.3274 -3.97876 -0.499546 0
M  V30 600 H 48.9174 -4.18631 0.919014 0
M  V30 601 H 53.1014 -4.62696 1.79516 0
M  V30 602 H 48.3574 -5.30858 3.03315 0
M  V30 603 H 52.5314 -5.76293 3.90973 0
M  V30 604 H 50.1584 -6.10161 4.53439 0
M  V30 605 N 51.7335 -0.305618 -1.54608 0
M  V30 606 C 52.9825 0.303098 -1.9941 0
M  V30 607 C 53.2955 1.54648 -1.19764 0
M  V30 608 O 54.5015 2.23007 -1.54855 0
M  V30 609 C 52.9575 0.590588 -3.55021 0
M  V30 610 C 52.5655 -0.634719 -4.43481 0
M  V30 611 C 54.3095 1.16025 -4.08336 0
M  V30 612 C 52.2165 -0.320126 -5.90533 0
M  V30 613 H 51.1465 0.117031 -0.744862 0
M  V30 614 H 53.7975 -0.415045 -1.78745 0
M  V30 615 H 52.1795 1.36845 -3.71604 0
M  V30 616 H 53.3535 -1.41079 -4.38672 0
M  V30 617 H 51.6685 -1.12333 -4.00962 0
M  V30 618 H 54.2655 1.40994 -5.15776 0
M  V30 619 H 54.6085 2.10397 -3.5922 0
M  V30 620 H 55.1415 0.443985 -3.95315 0
M  V30 621 H 51.8805 -1.23254 -6.43808 0
M  V30 622 H 51.4005 0.418579 -5.98338 0
M  V30 623 H 53.0795 0.0766241 -6.46955 0
M  V30 624 N 53.2116 1.57565 -0.0334293 0
M  V30 625 C 54.4596 1.91598 0.642999 0
M  V30 626 C 54.7806 0.910847 1.7242 0
M  V30 627 O 54.0506 -0.0469931 1.95844 0
M  V30 628 H 52.6306 0.707228 0.240496 0
M  V30 629 H 55.2926 1.94726 -0.0822488 0
M  V30 630 H 54.3886 2.92336 1.09298 0
M  V30 631 N 54.6897 -0.239769 1.55765 0
M  V30 632 C 55.9197 -0.982743 1.8173 0
M  V30 633 C 56.3277 -1.7917 0.607835 0
M  V30 634 O 55.6707 -1.78525 -0.432973 0
M  V30 635 C 55.7327 -1.96332 3.01155 0
M  V30 636 C 55.3967 -1.34062 4.36894 0
M  V30 637 C 56.3937 -0.739539 5.14613 0
M  V30 638 C 54.0787 -1.35784 4.83599 0
M  V30 639 C 56.0727 -0.163989 6.37189 0
M  V30 640 C 53.7597 -0.778441 6.06122 0
M  V30 641 C 54.7577 -0.182548 6.82756 0
M  V30 642 O 54.4457 0.387887 8.02964 0
M  V30 643 H 54.1777 -0.294481 0.608487 0
M  V30 644 H 56.7317 -0.26572 2.03674 0
M  V30 645 H 54.9617 -2.71884 2.74984 0
M  V30 646 H 56.6507 -2.57032 3.14149 0
M  V30 647 H 57.4167 -0.718687 4.79646 0
M  V30 648 H 53.2957 -1.81105 4.23936 0
M  V30 649 H 56.8397 0.301753 6.96947 0
M  V30 650 H 52.7367 -0.796645 6.40565 0
M  V30 651 H 53.5047 0.28044 8.18019 0
M  V30 652 N 56.1678 -1.49265 -0.50573 0
M  V30 653 C 57.1148 -1.65585 -1.6078 0
M  V30 654 C 58.0848 -0.497396 -1.58478 0
M  V30 655 O 59.2698 -0.72385 -1.76536 0
M  V30 656 C 56.4098 -1.72408 -2.98948 0
M  V30 657 C 55.5228 -2.99525 -3.11301 0
M  V30 658 C 54.6578 -2.97356 -4.40174 0
M  V30 659 C 53.6968 -4.19074 -4.46143 0
M  V30 660 N 52.8338 -4.14841 -5.66437 0
M  V30 661 H 57.6738 -2.59688 -1.46172 0
M  V30 662 H 55.2108 -1.28761 -0.711261 0
M  V30 663 H 57.1688 -1.74344 -3.79025 0
M  V30 664 H 55.7988 -0.817753 -3.1227 0
M  V30 665 H 54.8508 -3.07222 -2.24318 0
M  V30 666 H 56.1628 -3.89518 -3.11572 0
M  V30 667 H 55.3168 -2.97829 -5.28567 0
M  V30 668 H 54.0558 -2.05133 -4.42461 0
M  V30 669 H 53.0608 -4.1885 -3.56153 0
M  V30 670 H 54.2858 -5.12483 -4.45575 0
M  V30 671 H 52.2318 -3.25453 -5.69575 0
M  V30 672 H 52.1488 -4.98564 -5.68304 0
M  V30 673 H 53.4168 -4.1941 -6.57051 0
M  V30 674 N 57.6459 0.756429 -1.3826 0
M  V30 675 C 58.5559 1.9009 -1.37488 0
M  V30 676 C 59.5719 1.71855 -0.272366 0
M  V30 677 O 60.7479 1.94827 -0.510318 0
M  V30 678 C 57.8129 3.25421 -1.19592 0
M  V30 679 C 56.8739 3.56202 -2.39622 0
M  V30 680 C 56.1069 4.85075 -2.2257 0
M  V30 681 O 56.3299 5.57246 -1.21793 0
M  V30 682 O 55.2639 5.15269 -3.11098 0
M  V30 683 H 59.0899 1.93695 -2.33914 0
M  V30 684 H 56.6749 0.901313 -1.1915 0
M  V30 685 H 58.5569 4.06337 -1.11661 0
M  V30 686 H 57.2319 3.22634 -0.262486 0
M  V30 687 H 56.1389 2.75458 -2.53128 0
M  V30 688 H 57.4719 3.63747 -3.31586 0
M  V30 689 N 59.124 1.23083 0.984299 0
M  V30 690 C 60.54 0.992637 1.24975 0
M  V30 691 C 60.74 -0.308618 1.99123 0
M  V30 692 O 59.796 -1.02905 2.30579 0
M  V30 693 C 61.109 2.19698 2.05312 0
M  V30 694 C 62.657 2.24147 2.18465 0
M  V30 695 C 63.132 3.44157 3.02192 0
M  V30 696 N 64.623 3.44372 3.09777 0
M  V30 697 C 65.358 4.33886 3.74874 0
M  V30 698 N 64.854 5.3363 4.41827 0
M  V30 699 N 66.647 4.21639 3.71721 0
M  V30 700 H 58.798 2.06731 0.487453 0
M  V30 701 H 61.061 0.906339 0.277944 0
M  V30 702 H 60.767 3.1411 1.58201 0
M  V30 703 H 60.641 2.20465 3.06064 0
M  V30 704 H 63.028 1.30277 2.64786 0
M  V30 705 H 63.109 2.27415 1.17115 0
M  V30 706 H 62.753 4.38332 2.56568 0
M  V30 707 H 62.683 3.3813 4.03702 0
M  V30 708 H 65.174 2.72201 2.62135 0
M  V30 709 H 65.487 5.98196 4.89266 0
M  V30 710 H 63.832 5.37534 4.40548 0
M  V30 711 H 67.023 3.42962 3.18582 0
M  V30 712 H 67.196 4.91604 4.22173 0
M  V30 713 N 60.6021 -1.18246 1.0419 0
M  V30 714 C 62.0131 -1.69914 0.773698 0
M  V30 715 C 62.3641 -1.83085 -0.705297 0
M  V30 716 O 61.4891 -1.51123 -1.5489 0
M  V30 717 C 62.0841 -3.08619 1.39784 0
M  V30 718 C 60.6431 -3.57494 1.17792 0
M  V30 719 C 59.7901 -2.34013 1.48773 0
M  V30 720 H 62.7411 -1.02904 1.20816 0
M  V30 721 H 62.7621 -3.71958 0.801714 0
M  V30 722 H 62.2741 -2.99001 2.47426 0
M  V30 723 H 60.3751 -3.72406 0.120295 0
M  V30 724 H 60.4881 -4.40852 1.87581 0
M  V30 725 H 58.8521 -2.37986 0.907463 0
M  V30 726 H 59.6351 -2.27013 2.57527 0
M  V30 727 N 62.0802 -0.821533 -1.34494 0
M  V30 728 C 63.0122 -0.199946 -2.28326 0
M  V30 729 C 64.0252 0.609377 -1.50965 0
M  V30 730 O 65.2142 0.439285 -1.7301 0
M  V30 731 C 62.3142 0.738431 -3.30757 0
M  V30 732 C 61.4872 -0.0277632 -4.37391 0
M  V30 733 C 60.5462 0.831332 -5.19591 0
M  V30 734 O 59.5722 0.276822 -5.68526 0
M  V30 735 N 60.7742 2.15132 -5.39165 0
M  V30 736 H 63.5392 -1.00609 -2.82308 0
M  V30 737 H 61.1002 -0.678366 -1.47003 0
M  V30 738 H 63.0922 1.31773 -3.82646 0
M  V30 739 H 61.6622 1.44533 -2.7718 0
M  V30 740 H 60.8822 -0.788359 -3.86236 0
M  V30 741 H 62.1702 -0.555251 -5.05761 0
M  V30 742 H 61.5682 2.62559 -5.01078 0
M  V30 743 H 60.1252 2.6795 -5.94177 0
M  V30 744 N 63.5583 1.46682 -0.576371 0
M  V30 745 C 64.8353 1.95599 0.00703437 0
M  V30 746 C 65.2153 1.51904 1.46589 0
M  V30 747 O 64.5633 0.766755 2.15251 0
M  V30 748 C 64.7733 3.4864 -0.158404 0
M  V30 749 C 66.1213 4.24594 -0.0229439 0
M  V30 750 O 67.1453 3.56094 -0.0869173 0
M  V30 751 O 66.0043 5.46373 0.118015 0
M  V30 752 H 63.0983 0.825275 0.053384 0
M  V30 753 H 65.6443 1.56996 -0.644244 0
M  V30 754 H 64.4163 3.7331 -1.17282 0
M  V30 755 H 64.0393 3.94057 0.5296 0
M  V30 756 N 65.0364 0.313813 1.54444 0
M  V30 757 C 66.2824 -0.292108 2.00685 0
M  V30 758 C 66.6154 -1.52548 1.20177 0
M  V30 759 O 65.8904 -1.92452 0.281531 0
M  V30 760 C 66.1734 -0.635968 3.5444 0
M  V30 761 C 66.0264 0.607437 4.4568 0
M  V30 762 C 67.3454 -1.45747 4.15266 0
M  V30 763 H 64.4644 -0.104697 0.729526 0
M  V30 764 H 67.1064 0.428457 1.85106 0
M  V30 765 H 65.2564 -1.24986 3.67846 0
M  V30 766 H 66.9284 1.24581 4.44159 0
M  V30 767 H 65.1714 1.23822 4.15753 0
M  V30 768 H 65.8424 0.322515 5.51057 0
M  V30 769 H 68.3184 -0.938645 4.05375 0
M  V30 770 H 67.1944 -1.66683 5.2298 0
M  V30 771 H 67.4554 -2.45063 3.67963 0
M  V30 772 N 66.5145 -1.57545 0.0417849 0
M  V30 773 C 67.7915 -1.83642 -0.673433 0
M  V30 774 C 68.1715 -0.928298 -1.89594 0
M  V30 775 O 67.5195 0.0129955 -2.28496 0
M  V30 776 C 67.7295 -3.33155 -1.03964 0
M  V30 777 C 69.0775 -3.99941 -1.42592 0
M  V30 778 O 70.1015 -3.37725 -1.13226 0
M  V30 779 O 68.9605 -5.09619 -1.9736 0
M  V30 780 H 66.0545 -0.757638 -0.331533 0
M  V30 781 H 68.6005 -1.69554 0.070433 0
M  V30 782 H 67.3725 -3.9093 -0.170098 0
M  V30 783 H 66.9955 -3.52396 -1.84126 0
M  V30 784 N 67.9926 0.231505 -1.5589 0
M  V30 785 C 68.9246 1.31006 -1.8807 0
M  V30 786 C 69.9376 1.43539 -0.768145 0
M  V30 787 O 71.1266 1.44614 -1.04638 0
M  V30 788 C 68.2266 2.68688 -2.06543 0
M  V30 789 C 67.3996 2.78228 -3.37502 0
M  V30 790 C 66.4586 3.96857 -3.4553 0
M  V30 791 O 65.4846 3.85662 -4.18633 0
M  V30 792 N 66.6866 5.1072 -2.75944 0
M  V30 793 H 69.4516 1.03731 -2.81176 0
M  V30 794 H 67.0126 0.421573 -1.56315 0
M  V30 795 H 69.0046 3.46412 -2.09239 0
M  V30 796 H 67.5746 2.88605 -1.20109 0
M  V30 797 H 66.7946 1.87059 -3.46991 0
M  V30 798 H 68.0826 2.81564 -4.23791 0
M  V30 799 H 67.4806 5.2271 -2.16311 0
M  V30 800 H 66.0376 5.86523 -2.84314 0
M  V30 801 N 69.4707 1.49531 0.497807 0
M  V30 802 C 70.8867 1.36365 0.829266 0
M  V30 803 C 71.0867 0.399184 1.97506 0
M  V30 804 O 70.1427 -0.167977 2.51941 0
M  V30 805 C 71.4557 2.77153 1.16647 0
M  V30 806 C 73.0037 2.85877 1.27449 0
M  V30 807 C 73.4787 4.2744 1.64497 0
M  V30 808 N 74.9697 4.30265 1.7154 0
M  V30 809 C 75.7047 5.3677 2.01656 0
M  V30 810 N 75.2007 6.53516 2.29976 0
M  V30 811 N 76.9937 5.24189 2.02934 0
M  V30 812 H 69.1447 2.10831 -0.257703 0
M  V30 813 H 71.4077 0.946534 -0.0527091 0
M  V30 814 H 71.1137 3.49442 0.397872 0
M  V30 815 H 70.9877 3.12722 2.10915 0
M  V30 816 H 73.3747 2.13824 2.0338 0
M  V30 817 H 73.4557 2.53887 0.312244 0
M  V30 818 H 73.0997 5.00021 0.891151 0
M  V30 819 H 73.0297 4.56896 2.61827 0
M  V30 820 H 75.5207 3.4607 1.51802 0
M  V30 821 H 75.8337 7.30506 2.52153 0
M  V30 822 H 74.1787 6.56737 2.27425 0
M  V30 823 H 77.3697 4.31988 1.80289 0
M  V30 824 H 77.5427 6.07286 2.26071 0
M  V30 825 N 70.9488 -0.749086 1.3866 0
M  V30 826 C 71.8588 -1.89358 1.38494 0
M  V30 827 C 72.8748 -1.71708 0.281476 0
M  V30 828 O 74.0508 -1.94554 0.520643 0
M  V30 829 C 71.1158 -3.24782 1.21316 0
M  V30 830 C 70.1768 -3.54926 2.41508 0
M  V30 831 C 69.4098 -4.83888 2.2514 0
M  V30 832 O 69.6328 -5.56592 1.24746 0
M  V30 833 O 68.5668 -5.13612 3.13826 0
M  V30 834 H 72.3928 -1.92452 2.34938 0
M  V30 835 H 69.9778 -0.894981 1.19626 0
M  V30 836 H 71.8598 -4.05739 1.13814 0
M  V30 837 H 70.5348 -3.2249 0.279592 0
M  V30 838 H 69.4418 -2.74112 2.54585 0
M  V30 839 H 70.7748 -3.61983 3.3351 0
M  V30 840 N 72.4269 -1.23603 -0.977757 0
M  V30 841 C 73.3899 -1.02069 -2.05218 0
M  V30 842 C 74.3899 0.0184305 -1.60789 0
M  V30 843 O 75.5799 -0.221569 -1.72785 0
M  V30 844 C 72.7119 -0.544926 -3.36517 0
M  V30 845 H 73.9049 -1.9742 -2.25755 0
M  V30 846 H 71.4579 -1.05684 -1.15155 0
M  V30 847 H 72.1929 0.412241 -3.21669 0
M  V30 848 H 71.9779 -1.2948 -3.70105 0
M  V30 849 H 73.4679 -0.414985 -4.15533 0
M  V30 850 N 73.905 1.17692 -1.04816 0
M  V30 851 C 75.316 1.69501 -0.782698 0
M  V30 852 C 75.667 1.83456 0.695577 0
M  V30 853 O 74.792 1.51942 1.54086 0
M  V30 854 C 75.387 3.07874 -1.41419 0
M  V30 855 C 73.946 3.56864 -1.19686 0
M  V30 856 C 73.093 2.3322 -1.50012 0
M  V30 857 H 76.044 1.02262 -1.2136 0
M  V30 858 H 76.065 3.71528 -0.821428 0
M  V30 859 H 75.577 2.97685 -2.49009 0
M  V30 860 H 73.678 3.72337 -0.140043 0
M  V30 861 H 73.791 4.39851 -1.89916 0
M  V30 862 H 72.155 2.37501 -0.920071 0
M  V30 863 H 72.938 2.25644 -2.58727 0
M  V30 864 N 75.3831 0.828654 1.34056 0
M  V30 865 C 76.3131 0.269443 2.3194 0
M  V30 866 C 77.2941 -0.617247 1.58506 0
M  V30 867 O 78.4791 -0.542931 1.86456 0
M  V30 868 C 75.6091 -0.564793 3.42677 0
M  V30 869 C 74.5631 0.225241 4.27407 0
M  V30 870 C 73.8891 -0.7321 5.29664 0
M  V30 871 C 75.1891 1.43663 5.02154 0
M  V30 872 H 76.8831 1.08728 2.7896 0
M  V30 873 H 74.4291 0.524283 1.34117 0
M  V30 874 H 76.3821 -0.966233 4.10173 0
M  V30 875 H 75.1061 -1.41574 2.9432 0
M  V30 876 H 73.7651 0.608117 3.61521 0
M  V30 877 H 73.4131 -1.57916 4.77568 0
M  V30 878 H 73.1131 -0.20767 5.87233 0
M  V30 879 H 74.6371 -1.13128 6.00029 0
M  V30 880 H 76.0511 1.1089 5.62473 0
M  V30 881 H 74.4481 1.89711 5.69324 0
M  V30 882 H 75.5181 2.21181 4.31517 0
M  V30 883 N 76.8612 -1.46375 0.584142 0
M  V30 884 C 77.8092 -2.32042 -0.161047 0
M  V30 885 C 78.8032 -1.44569 -0.882966 0
M  V30 886 O 80.0092 -1.61186 -0.801191 0
M  V30 887 H 76.3842 -0.748659 -0.0708033 0
M  V30 888 H 78.3552 -2.92704 0.580269 0
M  V30 889 C 77.1042 -3.27762 -1.1605 0
M  V30 890 H 76.4272 -3.95051 -0.614419 0
M  V30 891 H 77.8672 -3.90481 -1.65228 0
M  V30 892 C 76.3262 -2.53218 -2.22221 0
M  V30 893 O 76.8562 -2.29628 -3.29597 0
M  V30 894 N 75.0622 -2.13756 -1.96868 0
M  V30 895 H 74.6092 -2.33142 -1.09557 0
M  V30 896 H 74.5672 -1.642 -2.68115 0
M  V30 897 N 78.3393 -0.321999 -1.54275 0
M  V30 898 C 79.2873 0.560206 -2.25753 0
M  V30 899 C 80.2813 1.11984 -1.27106 0
M  V30 900 O 81.4873 1.06806 -1.44888 0
M  V30 901 H 77.8623 0.199304 -0.725108 0
M  V30 902 H 79.8333 -0.0649365 -2.98329 0
M  V30 903 C 78.5823 1.71023 -3.02731 0
M  V30 904 H 77.9053 1.28885 -3.78456 0
M  V30 905 H 79.3453 2.30314 -3.55993 0
M  V30 906 C 77.8043 2.62692 -2.10938 0
M  V30 907 O 78.3343 3.64364 -1.6912 0
M  V30 908 N 76.5403 2.30891 -1.76459 0
M  V30 909 H 76.0873 1.48253 -2.10663 0
M  V30 910 H 76.0453 2.92487 -1.1532 0
M  V30 911 N 79.8174 1.5752 -0.0501392 0
M  V30 912 C 81.0644 1.9265 0.623874 0
M  V30 913 C 81.3924 0.928411 1.70912 0
M  V30 914 O 80.6474 -0.0594525 1.9561 0
M  V30 915 C 80.9464 3.34467 1.25963 0
M  V30 916 C 80.6124 4.49883 0.302689 0
M  V30 917 C 79.2744 4.81184 0.0393636 0
M  V30 918 C 81.6264 5.20002 -0.353205 0
M  V30 919 C 78.9544 5.79951 -0.887308 0
M  V30 920 C 81.3064 6.1976 -1.26806 0
M  V30 921 C 79.9704 6.49491 -1.54007 0
M  V30 922 H 79.2404 0.704957 0.228292 0
M  V30 923 H 81.8874 1.91146 -0.116398 0
M  V30 924 H 80.1924 3.32333 2.07514 0
M  V30 925 H 81.8894 3.58928 1.78806 0
M  V30 926 H 78.4794 4.25457 0.518109 0
M  V30 927 H 82.6634 4.96033 -0.162854 0
M  V30 928 H 77.9194 6.01322 -1.10553 0
M  V30 929 H 82.0934 6.73205 -1.78236 0
M  V30 930 H 79.7204 7.25837 -2.25976 0
M  V30 931 N 81.2955 -0.223234 1.56011 0
M  V30 932 C 82.5205 -0.968978 1.83373 0
M  V30 933 C 82.9455 -1.77227 0.630254 0
M  V30 934 O 82.3035 -1.76345 -0.420959 0
M  V30 935 C 82.3515 -1.86363 3.08709 0
M  V30 936 O 81.4555 -2.95873 2.87285 0
M  V30 937 H 80.7965 -0.274461 0.604622 0
M  V30 938 H 83.3265 -0.237056 2.03222 0
M  V30 939 H 83.3365 -2.27376 3.38768 0
M  V30 940 H 82.0115 -1.27319 3.95933 0
M  V30 941 H 80.5885 -2.58818 2.68454 0
M  V30 942 N 82.7736 -1.49793 -0.48987 0
M  V30 943 C 84.0196 -1.60078 -1.24511 0
M  V30 944 C 84.3526 -0.291608 -1.91998 0
M  V30 945 O 83.6276 0.705647 -1.81248 0
M  V30 946 C 83.9106 -2.76791 -2.30345 0
M  V30 947 C 83.7636 -4.17535 -1.67286 0
M  V30 948 C 85.0826 -2.89111 -3.31817 0
M  V30 949 H 82.2016 -0.582645 -0.451324 0
M  V30 950 H 84.8436 -1.82117 -0.541612 0
M  V30 951 H 82.9936 -2.5813 -2.90346 0
M  V30 952 H 84.6656 -4.4774 -1.11026 0
M  V30 953 H 82.9086 -4.22665 -0.976577 0
M  V30 954 H 83.5796 -4.95094 -2.44103 0
M  V30 955 H 86.0556 -3.06133 -2.81819 0
M  V30 956 H 84.9316 -3.72433 -4.03219 0
M  V30 957 H 85.1926 -1.9893 -3.94815 0
M  V30 958 N 84.2517 0.741722 -1.39055 0
M  V30 959 C 85.2147 1.83733 -1.37021 0
M  V30 960 C 86.2147 1.58542 -0.268534 0
M  V30 961 O 87.4047 1.66067 -0.526076 0
M  V30 962 C 84.5367 3.2141 -1.13617 0
M  V30 963 H 85.7297 1.86941 -2.34506 0
M  V30 964 H 83.2827 0.944676 -1.24521 0
M  V30 965 H 84.0177 3.23865 -0.167863 0
M  V30 966 H 83.8027 3.4109 -1.93391 0
M  V30 967 H 85.2927 4.01477 -1.14918 0
M  V30 968 N 85.7298 1.2412 0.971189 0
M  V30 969 C 86.6618 0.988349 2.06795 0
M  V30 970 C 87.6748 -0.0409541 1.62748 0
M  V30 971 O 88.8638 0.195673 1.77424 0
M  V30 972 C 85.9638 0.469023 3.35639 0
M  V30 973 C 85.1368 1.56065 4.08611 0
M  V30 974 C 84.1958 1.04458 5.15728 0
M  V30 975 O 83.2218 1.73553 5.42096 0
M  V30 976 N 84.4238 -0.122817 5.8037 0
M  V30 977 H 87.1888 1.93265 2.29061 0
M  V30 978 H 84.7498 1.15102 1.13856 0
M  V30 979 H 86.7418 0.108613 4.04554 0
M  V30 980 H 85.3118 -0.380919 3.1027 0
M  V30 981 H 84.5318 2.09341 3.34021 0
M  V30 982 H 85.8198 2.29449 4.54126 0
M  V30 983 H 85.2178 -0.700563 5.61345 0
M  V30 984 H 83.7748 -0.424404 6.50417 0
M  V30 985 N 87.2079 -1.17134 1.05439 0
M  V30 986 C 88.4479 -1.89137 0.77502 0
M  V30 987 C 88.8119 -1.79345 -0.685526 0
M  V30 988 O 90.0129 -2.46188 -1.0791 0
M  V30 989 C 88.2839 -3.35003 1.2453 0
M  V30 990 S 89.8429 -4.24952 1.09367 0
M  V30 991 H 86.6609 -0.652949 0.281387 0
M  V30 992 H 89.2629 -1.4145 1.34953 0
M  V30 993 H 87.9669 -3.39666 2.30338 0
M  V30 994 H 87.4979 -3.87736 0.665166 0
M  V30 995 H 89.5129 -4.96196 0.0193397 0
M  V30 996 N 88.686 -0.835752 -1.33615 0
M  V30 997 C 89.618 -0.224151 -2.28101 0
M  V30 998 C 90.631 0.593331 -1.51603 0
M  V30 999 O 91.82 0.420911 -1.73466 0
M  V30 1000 C 88.92 0.703309 -3.31522 0
M  V30 1001 C 88.093 -0.0741528 -4.37337 0
M  V30 1002 C 87.152 0.776176 -5.20444 0
M  V30 1003 O 86.178 0.216506 -5.68788 0
M  V30 1004 N 87.38 2.09401 -5.41416 0
M  V30 1005 H 90.145 -1.03598 -2.81225 0
M  V30 1006 H 87.706 -0.69392 -1.46275 0
M  V30 1007 H 89.698 1.27707 -3.84022 0
M  V30 1008 H 88.268 1.41585 -2.78698 0
M  V30 1009 H 87.488 -0.82928 -3.85378 0
M  V30 1010 H 88.776 -0.608863 -5.05144 0
M  V30 1011 H 88.174 2.57229 -5.03835 0
M  V30 1012 H 86.731 2.61633 -5.96985 0
M  V30 1013 N 90.1641 1.46063 -0.591896 0
M  V30 1014 C 91.0941 2.33172 0.123673 0
M  V30 1015 C 92.0751 1.45897 0.87453 0
M  V30 1016 O 93.2601 1.74698 0.848181 0
M  V30 1017 C 90.3901 3.28336 1.13194 0
M  V30 1018 C 89.3441 4.25124 0.495324 0
M  V30 1019 C 88.6701 5.09863 1.61071 0
M  V30 1020 C 89.9701 5.19143 -0.573425 0
M  V30 1021 H 91.6641 2.93252 -0.603646 0
M  V30 1022 H 89.2101 1.41014 -0.291741 0
M  V30 1023 H 91.1631 3.88137 1.64097 0
M  V30 1024 H 89.8871 2.66383 1.88965 0
M  V30 1025 H 88.5461 3.66599 0.00729452 0
M  V30 1026 H 88.1941 4.44288 2.35832 0
M  V30 1027 H 87.8941 5.75417 1.19035 0
M  V30 1028 H 89.4181 5.72529 2.12233 0
M  V30 1029 H 90.8321 5.73106 -0.1491 0
M  V30 1030 H 89.2291 5.93089 -0.914636 0
M  V30 1031 H 90.2991 4.62519 -1.45617 0
M  V30 1032 N 91.6422 0.330177 1.54103 0
M  V30 1033 C 92.5752 -0.575477 2.20825 0
M  V30 1034 C 93.5532 -1.11064 1.18758 0
M  V30 1035 O 94.7372 -1.17341 1.47524 0
M  V30 1036 C 91.8642 -1.79032 2.87516 0
M  V30 1037 C 90.9102 -1.38581 4.03358 0
M  V30 1038 S 91.7432 -0.416911 5.33875 0
M  V30 1039 C 92.8992 -1.63889 6.04062 0
M  V30 1040 H 93.1322 -0.00872114 2.97299 0
M  V30 1041 H 90.6652 0.114254 1.53977 0
M  V30 1042 H 92.6232 -2.48734 3.2656 0
M  V30 1043 H 91.2842 -2.32827 2.10832 0
M  V30 1044 H 90.4772 -2.29123 4.48908 0
M  V30 1045 H 90.0792 -0.768419 3.66021 0
M  V30 1046 H 92.3712 -2.57536 6.26643 0
M  V30 1047 H 93.3142 -1.22542 6.97416 0
M  V30 1048 H 93.7222 -1.82887 5.34053 0
M  V30 1049 N 93.1203 -1.57491 0.0584922 0
M  V30 1050 C 94.0673 -2.11958 -0.913376 0
M  V30 1051 C 95.0373 -1.02875 -1.30407 0
M  V30 1052 O 96.2223 -1.30464 -1.39226 0
M  V30 1053 C 93.3623 -2.67497 -2.18035 0
M  V30 1054 C 92.4753 -3.90691 -1.84349 0
M  V30 1055 C 91.6103 -4.3452 -3.05559 0
M  V30 1056 C 90.6493 -5.50395 -2.67827 0
M  V30 1057 N 89.7863 -5.89244 -3.81754 0
M  V30 1058 H 94.6263 -2.94704 -0.442017 0
M  V30 1059 H 92.1633 -1.45643 -0.206545 0
M  V30 1060 H 94.1213 -2.978 -2.92183 0
M  V30 1061 H 92.7513 -1.87537 -2.62735 0
M  V30 1062 H 91.8033 -3.66934 -1.00319 0
M  V30 1063 H 93.1153 -4.7489 -1.5258 0
M  V30 1064 H 92.2693 -4.66414 -3.87998 0
M  V30 1065 H 91.0083 -3.49147 -3.40511 0
M  V30 1066 H 90.0133 -5.18165 -1.83806 0
M  V30 1067 H 91.2383 -6.3749 -2.34059 0
M  V30 1068 H 89.1843 -5.06823 -4.16493 0
M  V30 1069 H 89.1013 -6.68151 -3.53708 0
M  V30 1070 H 90.3693 -6.25756 -4.64811 0
M  V30 1071 N 94.5984 0.214957 -1.56127 0
M  V30 1072 C 95.8264 0.955092 -1.83536 0
M  V30 1073 C 96.2414 1.77677 -0.638472 0
M  V30 1074 O 95.5984 1.78219 0.392968 0
M  V30 1075 C 95.6494 1.86734 -3.09536 0
M  V30 1076 O 95.3704 1.07887 -4.24608 0
M  V30 1077 C 96.8714 2.72082 -3.4998 0
M  V30 1078 H 94.0914 0.279611 -0.609966 0
M  V30 1079 H 96.6354 0.228197 -2.03223 0
M  V30 1080 H 94.7904 2.5481 -2.91806 0
M  V30 1081 H 95.2044 1.69872 -4.9623 0
M  V30 1082 H 96.6784 3.31782 -4.41163 0
M  V30 1083 H 97.1554 3.44806 -2.7204 0
M  V30 1084 H 97.7614 2.09409 -3.70173 0
M  V30 1085 N 96.0765 1.50051 0.48192 0
M  V30 1086 C 96.9865 1.7089 1.60728 0
M  V30 1087 C 98.0025 0.591788 1.63627 0
M  V30 1088 O 99.1785 0.868817 1.81696 0
M  V30 1089 C 96.2435 1.78855 2.97005 0
M  V30 1090 C 95.3045 3.02537 3.04581 0
M  V30 1091 C 94.5375 3.10112 4.34357 0
M  V30 1092 O 94.7605 2.24765 5.24249 0
M  V30 1093 O 93.6945 4.02747 4.47301 0
M  V30 1094 H 97.5205 2.66264 1.46072 0
M  V30 1095 H 95.1055 1.34018 0.660264 0
M  V30 1096 H 96.9875 1.86336 3.77964 0
M  V30 1097 H 95.6625 0.866628 3.11883 0
M  V30 1098 H 94.5695 3.00563 2.22739 0
M  V30 1099 H 95.9025 3.94272 2.94636 0
M  V30 1100 N 97.5546 -0.734337 1.39446 0
M  V30 1101 C 98.9706 -1.03997 1.21065 0
M  V30 1102 C 99.1706 -2.01369 0.0727019 0
M  V30 1103 O 98.2266 -2.45856 -0.575426 0
M  V30 1104 C 99.5396 -1.60163 2.54496 0
M  V30 1105 C 101.088 -1.7224 2.61347 0
M  V30 1106 C 101.563 -2.31814 3.95002 0
M  V30 1107 N 103.054 -2.39223 3.96644 0
M  V30 1108 C 103.789 -2.86258 4.96834 0
M  V30 1109 N 103.285 -3.33184 6.07421 0
M  V30 1110 N 105.078 -2.85473 4.84213 0
M  V30 1111 H 97.2286 -0.0885624 2.12215 0
M  V30 1112 H 99.4916 -0.10191 0.942506 0
M  V30 1113 H 99.1976 -0.960811 3.38321 0
M  V30 1114 H 99.0716 -2.5896 2.74262 0
M  V30 1115 H 101.459 -2.35443 1.77906 0
M  V30 1116 H 101.54 -0.720939 2.4543 0
M  V30 1117 H 101.184 -1.69238 4.78875 0
M  V30 1118 H 101.114 -3.32638 4.08239 0
M  V30 1119 H 103.605 -2.06057 3.16779 0
M  V30 1120 H 103.918 -3.67586 6.7978 0
M  V30 1121 H 102.263 -3.31191 6.11013 0
M  V30 1122 H 105.454 -2.48136 3.96921 0
M  V30 1123 H 105.627 -3.21814 5.62441 0
M  V30 1124 N 99.0327 -1.24633 -0.964593 0
M  V30 1125 C 100.444 -1.08045 -1.5226 0
M  V30 1126 C 100.795 0.347116 -1.93105 0
M  V30 1127 O 99.9197 1.23588 -1.77637 0
M  V30 1128 C 100.515 -1.95514 -2.76695 0
M  V30 1129 C 99.0737 -1.8314 -3.28841 0
M  V30 1130 C 98.2207 -1.90262 -2.01732 0
M  V30 1131 H 101.172 -1.38064 -0.782553 0
M  V30 1132 H 101.193 -1.48925 -3.50145 0
M  V30 1133 H 100.705 -2.99407 -2.46936 0
M  V30 1134 H 98.8057 -0.82092 -3.63444 0
M  V30 1135 H 98.9187 -2.67406 -3.97531 0
M  V30 1136 H 97.2827 -1.34027 -2.16584 0
M  V30 1137 H 98.0657 -2.9574 -1.74334 0
M  V30 1138 N 100.511 1.16574 -1.06058 0
M  V30 1139 C 101.927 1.3904 -0.783585 0
M  V30 1140 C 102.127 1.91784 0.618145 0
M  V30 1141 O 101.183 2.11511 1.37911 0
M  V30 1142 C 102.496 2.37329 -1.84649 0
M  V30 1143 C 104.044 2.51018 -1.86973 0
M  V30 1144 C 104.519 3.52588 -2.92311 0
M  V30 1145 N 106.01 3.60113 -2.91329 0
M  V30 1146 C 106.745 4.38486 -3.69482 0
M  V30 1147 N 106.241 5.20302 -4.57447 0
M  V30 1148 N 108.034 4.33446 -3.57885 0
M  V30 1149 H 100.185 0.806725 -1.96483 0
M  V30 1150 H 102.448 0.417117 -0.851303 0
M  V30 1151 H 102.154 2.05663 -2.85299 0
M  V30 1152 H 102.028 3.36946 -1.6955 0
M  V30 1153 H 104.415 2.81989 -0.869827 0
M  V30 1154 H 104.496 1.51445 -2.0615 0
M  V30 1155 H 104.14 3.22354 -3.92492 0
M  V30 1156 H 104.07 4.51886 -2.70383 0
M  V30 1157 H 106.561 3.01707 -2.27555 0
M  V30 1158 H 106.874 5.77311 -5.13743 0
M  V30 1159 H 105.219 5.19653 -4.61503 0
M  V30 1160 H 108.41 3.68586 -2.88551 0
M  V30 1161 H 108.583 4.94279 -4.19037 0
M  V30 1162 N 101.989 0.842826 1.3317 0
M  V30 1163 C 103.4 0.496651 1.79973 0
M  V30 1164 C 103.751 -0.984641 1.69703 0
M  V30 1165 O 102.876 -1.76743 1.24863 0
M  V30 1166 C 103.471 0.894727 3.26772 0
M  V30 1167 C 102.03 0.600629 3.71577 0
M  V30 1168 C 101.177 1.10091 2.5451 0
M  V30 1169 H 104.128 1.03116 1.20635 0
M  V30 1170 H 104.149 0.206347 3.7994 0
M  V30 1171 H 103.661 1.97287 3.34215 0
M  V30 1172 H 101.762 -0.467284 3.69658 0
M  V30 1173 H 101.875 1.15863 4.64879 0
M  V30 1174 H 100.239 0.52162 2.49301 0
M  V30 1175 H 101.022 2.18591 2.64713 0
M  V30 1176 N 103.467 -1.45747 0.599634 0
M  V30 1177 C 104.415 -2.322 -0.136426 0
M  V30 1178 C 105.409 -1.45497 -0.867583 0
M  V30 1179 O 106.615 -1.62027 -0.78405 0
M  V30 1180 H 102.99 -0.749368 -0.0628588 0
M  V30 1181 H 104.961 -2.92072 0.611281 0
M  V30 1182 C 103.71 -3.28974 -1.12567 0
M  V30 1183 H 103.033 -3.9568 -0.572484 0
M  V30 1184 H 104.473 -3.92212 -1.61077 0
M  V30 1185 C 102.932 -2.55561 -2.19523 0
M  V30 1186 O 103.462 -2.33111 -3.27143 0
M  V30 1187 N 101.668 -2.15832 -1.94589 0
M  V30 1188 H 101.215 -2.3429 -1.07078 0
M  V30 1189 H 101.173 -1.67034 -2.66359 0
M  V30 1190 N 104.945 -0.338344 -1.53925 0
M  V30 1191 C 106.173 0.261298 -2.05243 0
M  V30 1192 C 106.588 1.44625 -1.21363 0
M  V30 1193 O 105.945 1.80811 -0.247736 0
M  V30 1194 C 105.996 0.681412 -3.5502 0
M  V30 1195 O 105.717 -0.456414 -4.35716 0
M  V30 1196 C 107.218 1.34232 -4.22489 0
M  V30 1197 H 104.438 0.0513685 -0.669031 0
M  V30 1198 H 106.982 -0.488822 -1.98572 0
M  V30 1199 H 105.137 1.38148 -3.61931 0
M  V30 1200 H 105.551 -0.122564 -5.24357 0
M  V30 1201 H 107.025 1.58708 -5.28693 0
M  V30 1202 H 107.502 2.29426 -3.74514 0
M  V30 1203 H 108.108 0.684424 -4.19757 0
M  V30 1204 N 106.423 1.57458 -0.0668435 0
M  V30 1205 C 107.67 1.93301 0.603406 0
M  V30 1206 C 107.998 0.946486 1.69917 0
M  V30 1207 O 107.253 -0.0387021 1.95662 0
M  V30 1208 C 107.552 3.35784 1.22409 0
M  V30 1209 C 107.218 4.50179 0.254955 0
M  V30 1210 C 105.88 4.81199 -0.0116746 0
M  V30 1211 C 108.232 5.19598 -0.408338 0
M  V30 1212 C 105.56 5.78978 -0.94877 0
M  V30 1213 C 107.912 6.18381 -1.33372 0
M  V30 1214 C 106.576 6.47821 -1.60887 0
M  V30 1215 H 105.846 0.707338 0.220802 0
M  V30 1216 H 108.493 1.91012 -0.136665 0
M  V30 1217 H 106.798 3.34515 2.03978 0
M  V30 1218 H 108.495 3.60804 1.74989 0
M  V30 1219 H 105.085 4.25983 0.472954 0
M  V30 1220 H 109.269 4.95832 -0.215456 0
M  V30 1221 H 104.525 6.00115 -1.16925 0
M  V30 1222 H 108.699 6.71277 -1.85367 0
M  V30 1223 H 106.326 7.23399 -2.33661 0
M  V30 1224 N 107.901 -0.206675 1.56239 0
M  V30 1225 C 109.15 -0.926964 1.79138 0
M  V30 1226 C 109.463 -1.84901 0.638043 0
M  V30 1227 O 110.669 -2.60906 0.751033 0
M  V30 1228 C 109.125 -1.6986 3.17294 0
M  V30 1229 C 108.733 -0.821956 4.40395 0
M  V30 1230 C 110.477 -2.40922 3.4951 0
M  V30 1231 C 108.384 -1.59179 5.69575 0
M  V30 1232 H 107.314 -0.349864 0.667915 0
M  V30 1233 H 109.965 -0.180487 1.8261 0
M  V30 1234 H 108.347 -2.48853 3.08039 0
M  V30 1235 H 109.521 -0.0715019 4.60745 0
M  V30 1236 H 107.836 -0.222741 4.15804 0
M  V30 1237 H 110.433 -2.99047 4.43255 0
M  V30 1238 H 110.776 -3.14542 2.72707 0
M  V30 1239 H 111.309 -1.68905 3.60161 0
M  V30 1240 H 108.048 -0.898589 6.49312 0
M  V30 1241 H 107.568 -2.31648 5.53262 0
M  V30 1242 H 109.247 -2.14862 6.10281 0
M  V30 1243 N 109.379 -1.50304 -0.473955 0
M  V30 1244 C 110.628 -1.60392 -1.22301 0
M  V30 1245 C 110.941 -0.308411 -1.93153 0
M  V30 1246 O 112.147 -0.288156 -2.69966 0
M  V30 1247 C 110.603 -2.83109 -2.2221 0
M  V30 1248 C 110.211 -4.19524 -1.57173 0
M  V30 1249 C 111.955 -3.0254 -2.97775 0
M  V30 1250 C 109.862 -5.33431 -2.55353 0
M  V30 1251 H 108.792 -0.597286 -0.460179 0
M  V30 1252 H 111.443 -1.76731 -0.493803 0
M  V30 1253 H 109.825 -2.60322 -2.9841 0
M  V30 1254 H 110.999 -4.52554 -0.867824 0
M  V30 1255 H 109.314 -4.05674 -0.939002 0
M  V30 1256 H 111.911 -3.84811 -3.71248 0
M  V30 1257 H 112.254 -2.14154 -3.56992 0
M  V30 1258 H 112.787 -3.25494 -2.28688 0
M  V30 1259 H 109.526 -6.23962 -2.00878 0
M  V30 1260 H 109.046 -5.04823 -3.23904 0
M  V30 1261 H 110.725 -5.63887 -3.17239 0
M  V30 1262 N 110.857 0.726932 -1.39834 0
M  V30 1263 C 112.273 1.03354 -1.21615 0
M  V30 1264 C 112.473 2.01327 -0.08338 0
M  V30 1265 O 111.529 2.46158 0.56238 0
M  V30 1266 C 112.842 1.58811 -2.55342 0
M  V30 1267 C 114.39 1.70851 -2.62257 0
M  V30 1268 C 114.865 2.29716 -3.96225 0
M  V30 1269 N 116.356 2.37116 -3.97907 0
M  V30 1270 C 117.091 2.83619 -4.98345 0
M  V30 1271 N 116.587 3.29958 -6.09179 0
M  V30 1272 N 118.38 2.82901 -4.8572 0
M  V30 1273 H 110.531 0.0773069 -2.12259 0
M  V30 1274 H 112.794 0.0969102 -0.943034 0
M  V30 1275 H 112.5 0.942855 -3.38826 0
M  V30 1276 H 112.374 2.57502 -2.75632 0
M  V30 1277 H 114.761 2.34497 -1.79152 0
M  V30 1278 H 114.842 0.707913 -2.45809 0
M  V30 1279 H 114.486 1.66696 -4.79765 0
M  V30 1280 H 114.416 3.30469 -4.09997 0
M  V30 1281 H 116.907 2.04374 -3.17868 0
M  V30 1282 H 117.22 3.63976 -6.8172 0
M  V30 1283 H 115.565 3.27946 -6.12761 0
M  V30 1284 H 118.756 2.46027 -3.98231 0
M  V30 1285 H 118.929 3.18827 -5.6414 0
M  V30 1286 N 112.336 1.25143 0.95797 0
M  V30 1287 C 113.576 1.10893 1.71703 0
M  V30 1288 C 113.94 -0.34478 1.88879 0
M  V30 1289 O 115.141 -0.609014 2.6181 0
M  V30 1290 C 113.412 1.83889 3.06463 0
M  V30 1291 S 114.971 1.85491 3.97666 0
M  V30 1292 H 111.789 0.396428 0.590226 0
M  V30 1293 H 114.391 1.58618 1.14283 0
M  V30 1294 H 113.095 2.88756 2.9163 0
M  V30 1295 H 112.626 1.36538 3.68946 0
M  V30 1296 H 114.641 0.929553 4.87415 0
M  V30 1297 N 113.814 -1.1601 1.06675 0
M  V30 1298 C 114.744 -2.22688 0.702307 0
M  V30 1299 C 115.725 -1.67306 -0.307032 0
M  V30 1300 O 116.91 -1.93352 -0.181305 0
M  V30 1301 C 114.04 -3.47178 0.092038 0
M  V30 1302 C 112.994 -4.15477 1.02777 0
M  V30 1303 C 112.32 -5.33963 0.28061 0
M  V30 1304 C 113.62 -4.66019 2.35846 0
M  V30 1305 H 115.314 -2.53429 1.59419 0
M  V30 1306 H 112.86 -1.21813 0.767961 0
M  V30 1307 H 114.813 -4.21037 -0.174814 0
M  V30 1308 H 113.537 -3.15749 -0.834877 0
M  V30 1309 H 112.196 -3.43549 1.27944 0
M  V30 1310 H 111.844 -4.98788 -0.649545 0
M  V30 1311 H 111.544 -5.806 0.904258 0
M  V30 1312 H 113.068 -6.10596 0.021396 0
M  V30 1313 H 114.482 -5.3144 2.15045 0
M  V30 1314 H 112.879 -5.23293 2.93743 0
M  V30 1315 H 113.949 -3.82023 2.98641 0
M  V30 1316 N 115.292 -0.849877 -1.32721 0
M  V30 1317 C 116.224 -0.248332 -2.27851 0
M  V30 1318 C 117.237 0.577218 -1.52224 0
M  V30 1319 O 118.426 0.402489 -1.73903 0
M  V30 1320 C 115.526 0.668107 -3.32249 0
M  V30 1321 C 114.699 -0.120534 -4.37234 0
M  V30 1322 C 113.758 0.720932 -5.21238 0
M  V30 1323 O 112.784 0.156166 -5.68986 0
M  V30 1324 N 113.986 2.03647 -5.43607 0
M  V30 1325 H 116.751 -1.06575 -2.80111 0
M  V30 1326 H 114.312 -0.709395 -1.45531 0
M  V30 1327 H 116.304 1.23627 -3.85355 0
M  V30 1328 H 114.874 1.38621 -2.80184 0
M  V30 1329 H 114.094 -0.870108 -3.84477 0
M  V30 1330 H 115.382 -0.662406 -5.0447 0
M  V30 1331 H 114.78 2.51871 -5.06535 0
M  V30 1332 H 113.337 2.55287 -5.99727 0
M  V30 1333 N 116.77 1.45427 -0.607355 0
M  V30 1334 C 118.016 2.03097 -0.111035 0
M  V30 1335 C 118.371 1.46735 1.24445 0
M  V30 1336 O 117.664 0.632478 1.8086 0
M  V30 1337 C 117.858 3.57398 -0.0129263 0
M  V30 1338 C 117.687 4.28726 -1.35735 0
M  V30 1339 C 116.457 4.66659 -1.93798 0
M  V30 1340 C 118.655 4.60699 -2.28607 0
M  V30 1341 N 116.637 5.22845 -3.21723 0
M  V30 1342 C 118.008 5.17716 -3.41131 0
M  V30 1343 C 120.063 4.42638 -2.27982 0
M  V30 1344 C 118.766 5.58576 -4.53194 0
M  V30 1345 C 120.792 4.84531 -3.39093 0
M  V30 1346 C 120.154 5.4164 -4.50339 0
M  V30 1347 H 116.253 0.777476 -0.083994 0
M  V30 1348 H 118.837 1.77249 -0.805655 0
M  V30 1349 H 117.008 3.82907 0.650914 0
M  V30 1350 H 118.74 4.01722 0.490033 0
M  V30 1351 H 115.495 4.50207 -1.47007 0
M  V30 1352 H 115.919 5.55438 -3.87063 0
M  V30 1353 H 120.561 3.97798 -1.43235 0
M  V30 1354 H 118.279 6.02382 -5.38667 0
M  V30 1355 H 121.865 4.72289 -3.39757 0
M  V30 1356 H 120.745 5.73461 -5.34895 0
M  V30 1357 N 118.248 0.346503 1.53744 0
M  V30 1358 C 119.476 -0.25041 2.05379 0
M  V30 1359 C 119.891 -1.43979 1.22129 0
M  V30 1360 O 119.248 -1.80677 0.257321 0
M  V30 1361 C 119.299 -0.662575 3.55376 0
M  V30 1362 O 119.02 0.479515 4.35468 0
M  V30 1363 C 120.521 -1.31989 4.23195 0
M  V30 1364 H 117.741 -0.0478198 0.669294 0
M  V30 1365 H 120.285 0.499346 1.9831 0
M  V30 1366 H 118.44 -1.36227 3.62658 0
M  V30 1367 H 118.854 0.15037 5.24284 0
M  V30 1368 H 120.328 -1.55902 5.29527 0
M  V30 1369 H 120.805 -2.27436 3.75725 0
M  V30 1370 H 121.411 -0.662154 4.20114 0
M  V30 1371 N 119.726 -1.57421 0.075193 0
M  V30 1372 C 120.954 -1.97946 -0.602076 0
M  V30 1373 C 121.369 -0.953674 -1.62943 0
M  V30 1374 O 120.726 0.0592551 -1.82404 0
M  V30 1375 C 120.777 -3.38546 -1.26762 0
M  V30 1376 O 120.498 -4.37195 -0.281376 0
M  V30 1377 C 121.999 -3.93966 -2.03239 0
M  V30 1378 H 119.219 -0.650918 -0.162931 0
M  V30 1379 H 121.763 -2.03959 0.148601 0
M  V30 1380 H 119.918 -3.33609 -1.96936 0
M  V30 1381 H 120.332 -5.18975 -0.759267 0
M  V30 1382 H 121.806 -4.94555 -2.45193 0
M  V30 1383 H 122.283 -3.30693 -2.8903 0
M  V30 1384 H 122.889 -4.02315 -1.37924 0
M  V30 1385 N 121.204 0.198386 -1.56346 0
M  V30 1386 C 122.45 0.920648 -1.80698 0
M  V30 1387 C 122.783 1.83045 -0.648697 0
M  V30 1388 O 122.058 1.91308 0.350925 0
M  V30 1389 C 122.341 1.73971 -3.15287 0
M  V30 1390 C 122.194 0.85485 -4.41602 0
M  V30 1391 C 123.513 2.71296 -3.46535 0
M  V30 1392 H 120.632 0.333261 -0.657348 0
M  V30 1393 H 123.274 0.188198 -1.89066 0
M  V30 1394 H 121.424 2.36416 -3.08285 0
M  V30 1395 H 123.096 0.245362 -4.60647 0
M  V30 1396 H 121.339 0.161398 -4.335 0
M  V30 1397 H 122.01 1.46286 -5.32264 0
M  V30 1398 H 124.486 2.18983 -3.53816 0
M  V30 1399 H 123.362 3.2569 -4.41834 0
M  V30 1400 H 123.623 3.5018 -2.69864 0
M  V30 1401 N 122.682 1.50554 0.465978 0
M  V30 1402 C 123.931 1.61038 1.21448 0
M  V30 1403 C 124.244 0.31865 1.92987 0
M  V30 1404 O 125.45 0.302469 2.6981 0
M  V30 1405 C 123.906 2.84283 2.20706 0
M  V30 1406 C 123.514 4.20352 1.54946 0
M  V30 1407 C 125.258 3.04115 2.96166 0
M  V30 1408 C 123.165 5.34778 2.5252 0
M  V30 1409 H 122.095 0.599718 0.457005 0
M  V30 1410 H 124.746 1.7699 0.484424 0
M  V30 1411 H 123.128 2.61901 2.97025 0
M  V30 1412 H 124.302 4.53008 0.843811 0
M  V30 1413 H 122.617 4.06167 0.917475 0
M  V30 1414 H 125.214 3.86774 3.69202 0
M  V30 1415 H 125.557 2.16045 3.55852 0
M  V30 1416 H 126.09 3.26702 2.26959 0
M  V30 1417 H 122.829 6.25018 1.97566 0
M  V30 1418 H 122.349 5.06534 3.21222 0
M  V30 1419 H 124.028 5.65561 3.14245 0
M  V30 1420 N 124.16 -0.719506 1.40217 0
M  V30 1421 C 125.07 -1.86378 1.42479 0
M  V30 1422 C 126.086 -1.71073 0.317834 0
M  V30 1423 O 127.262 -1.93406 0.561794 0
M  V30 1424 C 124.327 -3.22136 1.28178 0
M  V30 1425 C 123.388 -3.49723 2.48982 0
M  V30 1426 C 122.621 -4.79004 2.35353 0
M  V30 1427 O 122.844 -5.53821 1.36524 0
M  V30 1428 O 121.778 -5.06839 3.2465 0
M  V30 1429 H 125.604 -1.87425 2.38968 0
M  V30 1430 H 123.189 -0.869405 1.21498 0
M  V30 1431 H 125.071 -4.03234 1.22395 0
M  V30 1432 H 123.746 -3.21825 0.347934 0
M  V30 1433 H 122.653 -2.6865 2.60342 0
M  V30 1434 H 123.986 -3.54828 3.41113 0
M  V30 1435 N 125.638 -1.25649 -0.95132 0
M  V30 1436 C 127.054 -1.02542 -1.223 0
M  V30 1437 C 127.254 0.255715 -1.99871 0
M  V30 1438 O 126.31 0.967558 -2.33226 0
M  V30 1439 C 127.623 -2.25065 -1.99415 0
M  V30 1440 C 129.171 -2.29861 -2.12446 0
M  V30 1441 C 129.646 -3.52048 -2.92961 0
M  V30 1442 N 131.137 -3.52465 -3.00538 0
M  V30 1443 C 131.872 -4.43672 -3.63239 0
M  V30 1444 N 131.368 -5.45157 -4.27523 0
M  V30 1445 N 133.161 -4.31346 -3.60412 0
M  V30 1446 H 125.312 -2.07951 -0.432471 0
M  V30 1447 H 127.575 -0.91339 -0.253816 0
M  V30 1448 H 127.281 -3.18194 -1.49817 0
M  V30 1449 H 127.155 -2.28502 -3.00111 0
M  V30 1450 H 129.542 -1.37252 -2.61239 0
M  V30 1451 H 129.623 -2.3044 -1.11044 0
M  V30 1452 H 129.267 -4.44981 -2.44856 0
M  V30 1453 H 129.197 -3.48715 -3.94596 0
M  V30 1454 H 131.688 -2.79056 -2.54826 0
M  V30 1455 H 132.001 -6.10958 -4.73234 0
M  V30 1456 H 130.346 -5.49025 -4.26141 0
M  V30 1457 H 133.537 -3.51288 -3.09377 0
M  V30 1458 H 133.71 -5.02624 -4.0899 0
M  V30 1459 N 127.117 1.15442 -1.07289 0
M  V30 1460 C 128.345 1.90096 -0.81676 0
M  V30 1461 C 128.76 1.7798 0.629966 0
M  V30 1462 O 128.117 1.1313 1.43206 0
M  V30 1463 C 128.168 3.40466 -1.21512 0
M  V30 1464 O 127.889 3.52232 -2.60508 0
M  V30 1465 C 129.39 4.32145 -0.988198 0
M  V30 1466 H 126.61 0.602495 -0.295366 0
M  V30 1467 H 129.154 1.4627 -1.42918 0
M  V30 1468 H 127.309 3.81958 -0.647039 0
M  V30 1469 H 127.723 4.45549 -2.76742 0
M  V30 1470 H 129.197 5.36072 -1.31645 0
M  V30 1471 H 129.674 4.39135 0.0755063 0
M  V30 1472 H 130.28 3.96395 -1.54115 0
M  V30 1473 N 128.595 0.856903 1.32268 0
M  V30 1474 C 129.842 0.461386 1.97174 0
M  V30 1475 C 130.17 -0.983491 1.67803 0
M  V30 1476 O 129.425 -1.70541 0.959903 0
M  V30 1477 C 129.724 0.649919 3.51441 0
M  V30 1478 C 129.39 2.0656 4.00804 0
M  V30 1479 C 128.052 2.45279 4.13995 0
M  V30 1480 C 130.404 2.98947 4.26943 0
M  V30 1481 C 127.732 3.75653 4.50668 0
M  V30 1482 C 130.084 4.28822 4.65075 0
M  V30 1483 C 128.748 4.67472 4.76472 0
M  V30 1484 H 128.018 0.168833 0.72151 0
M  V30 1485 H 130.665 1.08739 1.57633 0
M  V30 1486 H 128.97 -0.0593018 3.91755 0
M  V30 1487 H 130.667 0.32391 3.9969 0
M  V30 1488 H 127.257 1.75495 3.91024 0
M  V30 1489 H 131.441 2.70265 4.16258 0
M  V30 1490 H 126.697 4.05379 4.57688 0
M  V30 1491 H 130.871 5.0047 4.84255 0
M  V30 1492 H 128.498 5.68539 5.04646 0
M  V30 1493 N 130.073 -1.45103 0.615059 0
M  V30 1494 C 131.023 -2.27679 -0.120966 0
M  V30 1495 C 132.007 -1.3775 -0.831491 0
M  V30 1496 O 133.199 -1.61683 -0.720249 0
M  V30 1497 C 130.328 -3.24767 -1.1127 0
M  V30 1498 C 129.414 -4.22184 -0.402627 0
M  V30 1499 N 129.805 -5.02692 0.559884 0
M  V30 1500 C 128.103 -4.4125 -0.649202 0
M  V30 1501 C 128.804 -5.73421 0.977942 0
M  V30 1502 N 127.78 -5.42657 0.320104 0
M  V30 1503 H 131.582 -2.87325 0.618181 0
M  V30 1504 H 129.096 -1.56345 0.439304 0
M  V30 1505 H 131.093 -3.82666 -1.65446 0
M  V30 1506 H 129.753 -2.66682 -1.85232 0
M  V30 1507 H 130.764 -5.09354 0.936976 0
M  V30 1508 H 127.441 -3.9428 -1.37293 0
M  V30 1509 H 128.831 -6.48107 1.77222 0
M  V30 1510 N 131.551 -0.354651 -1.53558 0
M  V30 1511 C 132.797 0.238797 -2.01389 0
M  V30 1512 C 133.13 1.49309 -1.2418 0
M  V30 1513 O 132.405 1.91638 -0.332457 0
M  V30 1514 C 132.688 0.541771 -3.56001 0
M  V30 1515 C 132.541 -0.725388 -4.43912 0
M  V30 1516 C 133.86 1.34685 -4.18984 0
M  V30 1517 H 130.979 0.0853177 -0.732045 0
M  V30 1518 H 133.621 -0.477384 -1.83905 0
M  V30 1519 H 131.771 1.15189 -3.71031 0
M  V30 1520 H 133.443 -1.36313 -4.407 0
M  V30 1521 H 131.686 -1.34801 -4.12324 0
M  V30 1522 H 132.357 -0.468505 -5.50008 0
M  V30 1523 H 134.833 0.830837 -4.07721 0
M  V30 1524 H 133.709 1.52759 -5.27215 0
M  V30 1525 H 133.97 2.35221 -3.74331 0
M  V30 1526 N 133.029 1.57378 -0.0835403 0
M  V30 1527 C 133.939 2.16897 0.894021 0
M  V30 1528 C 134.955 1.13528 1.31861 0
M  V30 1529 O 136.131 1.45848 1.3889 0
M  V30 1530 C 133.196 2.72831 2.13925 0
M  V30 1531 C 132.257 3.91115 1.76997 0
M  V30 1532 C 131.49 4.44371 2.95584 0
M  V30 1533 O 131.713 3.96596 4.09961 0
M  V30 1534 O 130.647 5.35549 2.74719 0
M  V30 1535 H 134.473 3.00814 0.417679 0
M  V30 1536 H 132.058 1.48741 0.140181 0
M  V30 1537 H 133.94 3.0863 2.86924 0
M  V30 1538 H 132.615 1.91967 2.60635 0
M  V30 1539 H 131.522 3.60148 1.01214 0
M  V30 1540 H 132.855 4.73307 1.3506 0
M  V30 1541 N 134.507 -0.190092 1.56449 0
M  V30 1542 C 135.735 -0.925772 1.85033 0
M  V30 1543 C 136.15 -1.76638 0.666658 0
M  V30 1544 O 135.507 -1.78822 -0.364565 0
M  V30 1545 C 135.558 -1.81786 3.12468 0
M  V30 1546 O 135.279 -1.01118 4.26271 0
M  V30 1547 C 136.78 -2.6648 3.54265 0
M  V30 1548 H 134 -0.269872 0.614337 0
M  V30 1549 H 136.544 -0.195837 2.0356 0
M  V30 1550 H 134.699 -2.50136 2.95822 0
M  V30 1551 H 135.113 -1.61956 4.98869 0
M  V30 1552 H 136.587 -3.24722 4.46385 0
M  V30 1553 H 137.064 -3.40434 2.77491 0
M  V30 1554 H 137.67 -2.03493 3.73458 0
M  V30 1555 N 135.985 -1.50799 -0.457987 0
M  V30 1556 C 137.396 -1.55152 -1.0385 0
M  V30 1557 C 137.747 -0.362719 -1.92818 0
M  V30 1558 O 136.872 0.522915 -2.09987 0
M  V30 1559 C 137.467 -2.81173 -1.89017 0
M  V30 1560 C 136.026 -2.88164 -2.42154 0
M  V30 1561 C 135.173 -2.49591 -1.20829 0
M  V30 1562 H 138.124 -1.56874 -0.240068 0
M  V30 1563 H 138.145 -2.63769 -2.74238 0
M  V30 1564 H 137.657 -3.67677 -1.24238 0
M  V30 1565 H 135.758 -2.06042 -3.10447 0
M  V30 1566 H 135.871 -3.91356 -2.76364 0
M  V30 1567 H 134.235 -2.02322 -1.54719 0
M  V30 1568 H 135.018 -3.38418 -0.576927 0
M  V30 1569 N 137.463 0.71206 -1.40597 0
M  V30 1570 C 138.373 1.8562 -1.43466 0
M  V30 1571 C 139.389 1.70902 -0.326902 0
M  V30 1572 O 140.565 1.93105 -0.572043 0
M  V30 1573 C 137.63 3.21451 -1.29884 0
M  V30 1574 C 136.691 3.48398 -2.50833 0
M  V30 1575 C 135.924 4.77749 -2.3789 0
M  V30 1576 O 136.147 5.53089 -1.39459 0
M  V30 1577 O 135.081 5.05111 -3.27333 0
M  V30 1578 H 138.907 1.86155 -2.39958 0
M  V30 1579 H 136.492 0.86295 -1.21957 0
M  V30 1580 H 138.374 4.02579 -1.24531 0
M  V30 1581 H 137.049 3.21636 -0.364997 0
M  V30 1582 H 135.956 2.67265 -2.61763 0
M  V30 1583 H 137.289 3.53014 -3.4299 0
M  V30 1584 N 138.941 1.26152 0.944643 0
M  V30 1585 C 139.851 1.09176 2.07648 0
M  V30 1586 C 140.867 0.0261935 1.7398 0
M  V30 1587 O 142.043 0.229208 2.00091 0
M  V30 1588 C 139.108 0.722915 3.39079 0
M  V30 1589 C 138.169 1.86752 3.86552 0
M  V30 1590 C 137.402 1.51617 5.11711 0
M  V30 1591 O 137.625 0.416331 5.68879 0
M  V30 1592 O 136.559 2.34975 5.54139 0
M  V30 1593 H 140.385 2.0412 2.24875 0
M  V30 1594 H 137.97 1.05182 1.061 0
M  V30 1595 H 139.852 0.529787 4.18056 0
M  V30 1596 H 138.527 -0.197159 3.23099 0
M  V30 1597 H 137.434 2.11558 3.08535 0
M  V30 1598 H 138.767 2.76719 4.07047 0
M  V30 1599 N 140.419 -1.14872 1.07899 0
M  V30 1600 C 141.835 -1.37776 0.805606 0
M  V30 1601 C 142.035 -1.92743 -0.587555 0
M  V30 1602 O 141.091 -2.13678 -1.34528 0
M  V30 1603 C 142.404 -2.34361 1.88402 0
M  V30 1604 C 143.952 -2.48012 1.90942 0
M  V30 1605 C 144.427 -3.47893 2.97883 0
M  V30 1606 N 145.918 -3.55433 2.97021 0
M  V30 1607 C 146.653 -4.32553 3.76412 0
M  V30 1608 N 146.149 -5.12959 4.65666 0
M  V30 1609 N 147.942 -4.27697 3.64735 0
M  V30 1610 H 140.093 -0.775365 1.97742 0
M  V30 1611 H 142.356 -0.403521 0.857831 0
M  V30 1612 H 142.062 -2.01098 2.88535 0
M  V30 1613 H 141.936 -3.34206 1.74889 0
M  V30 1614 H 144.323 -2.8057 0.914579 0
M  V30 1615 H 144.404 -1.48147 2.08534 0
M  V30 1616 H 144.048 -3.16069 3.97571 0
M  V30 1617 H 143.978 -4.47527 2.77538 0
M  V30 1618 H 146.469 -2.98048 2.32326 0
M  V30 1619 H 146.782 -5.69065 5.22862 0
M  V30 1620 H 145.127 -5.12245 4.69712 0
M  V30 1621 H 148.318 -3.63949 2.94378 0
M  V30 1622 H 148.491 -4.8755 4.26848 0
M  V30 1623 N 141.898 -0.863906 -1.31812 0
M  V30 1624 C 142.808 -0.318461 -2.32428 0
M  V30 1625 C 143.824 0.568496 -1.64451 0
M  V30 1626 O 145 0.46666 -1.95919 0
M  V30 1627 C 142.065 0.476355 -3.43412 0
M  V30 1628 C 141.126 -0.43784 -4.27061 0
M  V30 1629 C 140.359 0.319138 -5.32745 0
M  V30 1630 O 140.582 1.54799 -5.48993 0
M  V30 1631 O 139.516 -0.319861 -6.01049 0
M  V30 1632 H 143.342 -1.15229 -2.80991 0
M  V30 1633 H 140.927 -0.627103 -1.35602 0
M  V30 1634 H 142.809 0.927156 -4.11074 0
M  V30 1635 H 141.484 1.28683 -2.97022 0
M  V30 1636 H 140.391 -0.937013 -3.62175 0
M  V30 1637 H 141.724 -1.21375 -4.77 0
M  V30 1638 N 143.376 1.44774 -0.622745 0
M  V30 1639 C 144.286 2.34433 0.0886031 0
M  V30 1640 C 145.302 1.52131 0.844529 0
M  V30 1641 O 146.478 1.84886 0.798691 0
M  V30 1642 C 143.543 3.29986 1.0635 0
M  V30 1643 C 142.604 4.28195 0.307873 0
M  V30 1644 C 141.837 5.19183 1.23633 0
M  V30 1645 O 142.06 5.13918 2.47476 0
M  V30 1646 O 140.994 5.97515 0.725189 0
M  V30 1647 H 144.82 2.96693 -0.648599 0
M  V30 1648 H 142.405 1.44408 -0.382957 0
M  V30 1649 H 144.287 3.88825 1.6246 0
M  V30 1650 H 142.962 2.70269 1.78146 0
M  V30 1651 H 141.869 3.72927 -0.296064 0
M  V30 1652 H 143.202 4.90808 -0.3699 0
M  V30 1653 N 144.854 0.36279 1.53368 0
M  V30 1654 C 146.1 -0.220702 2.02199 0
M  V30 1655 C 146.455 -1.46649 1.24546 0
M  V30 1656 O 145.748 -1.88737 0.32996 0
M  V30 1657 C 145.942 -0.568417 3.52851 0
M  V30 1658 C 145.771 0.642126 4.45092 0
M  V30 1659 C 144.541 1.15335 4.91961 0
M  V30 1660 C 146.739 1.50649 4.91741 0
M  V30 1661 N 144.721 2.3242 5.68202 0
M  V30 1662 C 146.092 2.52404 5.66297 0
M  V30 1663 C 148.147 1.52969 4.73819 0
M  V30 1664 C 146.85 3.56331 6.24836 0
M  V30 1665 C 148.876 2.55789 5.33222 0
M  V30 1666 C 148.238 3.56268 6.07662 0
M  V30 1667 H 144.337 -0.0435508 0.780786 0
M  V30 1668 H 146.921 0.506704 1.87991 0
M  V30 1669 H 145.092 -1.2649 3.67226 0
M  V30 1670 H 146.824 -1.13676 3.88407 0
M  V30 1671 H 143.579 0.718412 4.68119 0
M  V30 1672 H 144.003 2.91591 6.10986 0
M  V30 1673 H 148.645 0.766418 4.15795 0
M  V30 1674 H 146.363 4.33543 6.81958 0
M  V30 1675 H 149.949 2.58435 5.21251 0
M  V30 1676 H 148.829 4.34524 6.52808 0
M  V30 1677 N 146.332 -1.57332 0.0918853 0
M  V30 1678 C 147.56 -1.98574 -0.581048 0
M  V30 1679 C 147.975 -0.970903 -1.61923 0
M  V30 1680 O 147.332 0.0399054 -1.82456 0
M  V30 1681 C 147.383 -3.39872 -1.23164 0
M  V30 1682 O 147.104 -4.37469 -0.234989 0
M  V30 1683 C 148.605 -3.96099 -1.99049 0
M  V30 1684 H 145.825 -0.65261 -0.156018 0
M  V30 1685 H 148.369 -2.0379 0.170225 0
M  V30 1686 H 146.524 -3.35679 -1.93386 0
M  V30 1687 H 146.938 -5.19751 -0.70418 0
M  V30 1688 H 148.412 -4.97127 -2.39934 0
M  V30 1689 H 148.889 -3.3374 -2.85507 0
M  V30 1690 H 149.495 -4.03755 -1.3365 0
M  V30 1691 N 147.81 0.181792 -1.56548 0
M  V30 1692 C 149.038 0.915947 -1.85521 0
M  V30 1693 C 149.453 1.76282 -0.676016 0
M  V30 1694 O 148.81 1.79012 0.355077 0
M  V30 1695 C 148.861 1.80126 -3.13427 0
M  V30 1696 O 148.582 0.988562 -4.26801 0
M  V30 1697 C 150.083 2.64597 -3.55673 0
M  V30 1698 H 147.303 0.26661 -0.61576 0
M  V30 1699 H 149.847 0.185039 -2.03661 0
M  V30 1700 H 148.002 2.48563 -2.97145 0
M  V30 1701 H 148.416 1.59308 -4.99721 0
M  V30 1702 H 149.89 3.2235 -4.48101 0
M  V30 1703 H 150.367 3.38958 -2.79292 0
M  V30 1704 H 150.973 2.0151 -3.74532 0
M  V30 1705 N 149.288 1.51039 0.449983 0
M  V30 1706 C 150.251 1.70863 1.5277 0
M  V30 1707 C 151.251 0.578846 1.5002 0
M  V30 1708 O 152.441 0.846213 1.52266 0
M  V30 1709 C 149.573 1.75341 2.9235 0
M  V30 1710 H 150.766 2.67034 1.36502 0
M  V30 1711 H 148.319 1.40838 0.677812 0
M  V30 1712 H 149.054 0.809383 3.14037 0
M  V30 1713 H 148.839 2.57436 2.95752 0
M  V30 1714 H 150.329 1.92559 3.70555 0
M  V30 1715 N 150.766 -0.704594 1.40972 0
M  V30 1716 C 152.015 -1.46018 1.39146 0
M  V30 1717 C 152.328 -1.956 0.000589254 0
M  V30 1718 O 153.534 -2.71137 -0.1403 0
M  V30 1719 C 151.99 -2.63996 2.4461 0
M  V30 1720 C 151.598 -2.21238 3.89561 0
M  V30 1721 C 153.342 -3.41677 2.51907 0
M  V30 1722 C 151.249 -3.3612 4.86598 0
M  V30 1723 H 150.179 -0.548444 0.517422 0
M  V30 1724 H 152.83 -0.765784 1.66757 0
M  V30 1725 H 151.212 -3.3566 2.10115 0
M  V30 1726 H 152.386 -1.56923 4.33257 0
M  V30 1727 H 150.701 -1.56574 3.85841 0
M  V30 1728 H 153.298 -4.27182 3.2159 0
M  V30 1729 H 153.641 -3.86247 1.55303 0
M  V30 1730 H 154.174 -2.77064 2.85448 0
M  V30 1731 H 150.913 -2.96572 5.84573 0
M  V30 1732 H 150.433 -3.99315 4.47557 0
M  V30 1733 H 152.112 -4.02029 5.06934 0
M  V30 1734 N 152.244 -1.26651 -0.937939 0
M  V30 1735 C 153.176 -1.04283 -2.04102 0
M  V30 1736 C 154.189 -0.00221014 -1.628 0
M  V30 1737 O 155.378 -0.242645 -1.76843 0
M  V30 1738 C 152.478 -0.557846 -3.34277 0
M  V30 1739 C 151.651 -1.66843 -4.04329 0
M  V30 1740 C 150.71 -1.18095 -5.12777 0
M  V30 1741 O 149.736 -1.87865 -5.37304 0
M  V30 1742 N 150.938 -0.0311006 -5.80492 0
M  V30 1743 H 153.703 -1.9927 -2.23856 0
M  V30 1744 H 151.264 -1.1808 -1.10764 0
M  V30 1745 H 153.256 -0.215836 -4.04124 0
M  V30 1746 H 151.826 0.298523 -3.11171 0
M  V30 1747 H 151.046 -2.18123 -3.28353 0
M  V30 1748 H 152.334 -2.41408 -4.47883 0
M  V30 1749 H 151.732 0.551486 -5.63005 0
M  V30 1750 H 150.289 0.251809 -6.51313 0
M  V30 1751 N 153.722 1.14298 -1.08507 0
M  V30 1752 C 154.95 1.89219 -0.836876 0
M  V30 1753 C 155.365 1.78638 0.611054 0
M  V30 1754 O 154.722 1.14643 1.41998 0
M  V30 1755 C 154.773 3.39158 -1.25116 0
M  V30 1756 O 154.494 3.49449 -2.64229 0
M  V30 1757 C 155.995 4.31073 -1.03398 0
M  V30 1758 H 153.215 0.599328 -0.301739 0
M  V30 1759 H 155.759 1.44746 -1.44461 0
M  V30 1760 H 153.914 3.81251 -0.687514 0
M  V30 1761 H 154.328 4.42589 -2.81452 0
M  V30 1762 H 155.802 5.34646 -1.37323 0
M  V30 1763 H 156.279 4.3919 0.0289259 0
M  V30 1764 H 156.885 3.94738 -1.58311 0
M  V30 1765 N 155.201 0.870884 1.31352 0
M  V30 1766 C 156.447 0.482987 1.96965 0
M  V30 1767 C 156.78 -0.962462 1.68672 0
M  V30 1768 O 156.055 -1.6779 0.98371 0
M  V30 1769 C 156.338 0.741752 3.52378 0
M  V30 1770 C 156.191 2.2368 3.9024 0
M  V30 1771 C 157.51 0.208838 4.39604 0
M  V30 1772 H 154.629 0.176955 0.715441 0
M  V30 1773 H 157.271 1.09229 1.55464 0
M  V30 1774 H 155.421 0.223149 3.87859 0
M  V30 1775 H 157.093 2.82273 3.64856 0
M  V30 1776 H 155.336 2.70901 3.38814 0
M  V30 1777 H 156.007 2.3685 4.98604 0
M  V30 1778 H 158.483 0.652529 4.10952 0
M  V30 1779 H 157.359 0.419336 5.47296 0
M  V30 1780 H 157.62 -0.889275 4.33064 0
M  V30 1781 N 156.679 -1.44442 0.630414 0
M  V30 1782 C 157.642 -2.29107 -0.0652523 0
M  V30 1783 C 158.642 -1.41002 -0.772995 0
M  V30 1784 O 159.832 -1.62881 -0.617692 0
M  V30 1785 C 156.964 -3.22564 -1.10296 0
M  V30 1786 H 158.157 -2.92103 0.679401 0
M  V30 1787 H 155.71 -1.51343 0.390517 0
M  V30 1788 H 156.445 -2.64416 -1.87762 0
M  V30 1789 H 156.23 -3.87491 -0.59941 0
M  V30 1790 H 157.72 -3.86167 -1.5895 0
M  V30 1791 N 158.157 -0.370918 -1.53173 0
M  V30 1792 C 159.434 0.273754 -1.93675 0
M  V30 1793 C 159.814 1.65938 -1.3049 0
M  V30 1794 O 159.162 2.23698 -0.465999 0
M  V30 1795 C 159.372 0.318602 -3.47543 0
M  V30 1796 C 160.72 0.556392 -4.20939 0
M  V30 1797 O 161.744 0.399587 -3.53952 0
M  V30 1798 O 160.603 0.862133 -5.39657 0
M  V30 1799 H 157.697 0.165448 -0.810281 0
M  V30 1800 H 160.243 -0.42409 -1.64315 0
M  V30 1801 H 159.015 -0.652687 -3.85818 0
M  V30 1802 H 158.638 1.06212 -3.83151 0
M  V30 1803 N 159.635 1.57281 -0.100228 0
M  V30 1804 C 160.883 1.94153 0.561157 0
M  V30 1805 C 161.204 0.983157 1.68401 0
M  V30 1806 O 160.474 0.0361132 1.95867 0
M  V30 1807 H 159.054 0.716791 0.210283 0
M  V30 1808 H 161.716 1.94202 -0.164765 0
M  V30 1809 H 160.812 2.96709 0.968008 0
M  V30 1810 N 161.113 -0.173488 1.56642 0
M  V30 1811 C 162.043 -1.2171 1.99271 0
M  V30 1812 C 163.024 -1.46289 0.867959 0
M  V30 1813 O 164.209 -1.5766 1.13388 0
M  V30 1814 C 161.339 -2.55651 2.35074 0
M  V30 1815 C 160.293 -2.45645 3.50489 0
M  V30 1816 C 159.619 -3.84056 3.72028 0
M  V30 1817 C 160.919 -1.96302 4.84007 0
M  V30 1818 H 162.613 -0.86275 2.867 0
M  V30 1819 H 160.159 -0.413571 1.37933 0
M  V30 1820 H 162.112 -3.2886 2.63494 0
M  V30 1821 H 160.836 -2.92869 1.44552 0
M  V30 1822 H 159.495 -1.7489 3.22194 0
M  V30 1823 H 159.143 -4.18664 2.788 0
M  V30 1824 H 158.843 -3.7823 4.49684 0
M  V30 1825 H 160.367 -4.58854 4.02846 0
M  V30 1826 H 161.781 -2.59284 5.11317 0
M  V30 1827 H 160.178 -2.01429 5.65284 0
M  V30 1828 H 161.248 -0.917226 4.76146 0
M  V30 1829 N 162.591 -1.51276 -0.441967 0
M  V30 1830 C 163.538 -1.72256 -1.53612 0
M  V30 1831 C 164.508 -0.564164 -1.56225 0
M  V30 1832 O 165.693 -0.798074 -1.73307 0
M  V30 1833 C 162.833 -1.84932 -2.91366 0
M  V30 1834 C 161.946 -3.12459 -2.98317 0
M  V30 1835 C 161.081 -3.15758 -4.27166 0
M  V30 1836 C 160.12 -4.37619 -4.27967 0
M  V30 1837 N 159.257 -4.38493 -5.48333 0
M  V30 1838 H 164.097 -2.65654 -1.35026 0
M  V30 1839 H 161.634 -1.31662 -0.656009 0
M  V30 1840 H 163.592 -1.90263 -3.7129 0
M  V30 1841 H 162.222 -0.949461 -3.08521 0
M  V30 1842 H 161.274 -3.1646 -2.11086 0
M  V30 1843 H 162.586 -4.02382 -2.94771 0
M  V30 1844 H 161.74 -3.19979 -5.15459 0
M  V30 1845 H 160.479 -2.23715 -4.33362 0
M  V30 1846 H 159.484 -4.33579 -3.38067 0
M  V30 1847 H 160.709 -5.30921 -4.23438 0
M  V30 1848 H 158.655 -3.49318 -5.55259 0
M  V30 1849 H 158.572 -5.22219 -5.46647 0
M  V30 1850 H 159.84 -4.469 -6.38671 0
M  V30 1851 N 164.069 0.697108 -1.41344 0
M  V30 1852 C 165.016 1.81106 -1.43071 0
M  V30 1853 C 165.986 1.63632 -0.285275 0
M  V30 1854 O 167.171 1.84504 -0.486091 0
M  V30 1855 C 164.311 3.18975 -1.31715 0
M  V30 1856 C 163.424 3.47892 -2.56115 0
M  V30 1857 C 162.559 4.75367 -2.37064 0
M  V30 1858 C 161.598 4.97247 -3.56948 0
M  V30 1859 N 160.735 6.15947 -3.36977 0
M  V30 1860 H 165.575 1.78965 -2.38276 0
M  V30 1861 H 163.112 0.873975 -1.18322 0
M  V30 1862 H 165.07 3.98615 -1.23133 0
M  V30 1863 H 163.7 3.20297 -0.401183 0
M  V30 1864 H 162.752 2.62669 -2.75153 0
M  V30 1865 H 164.064 3.59962 -3.45295 0
M  V30 1866 H 163.218 5.63059 -2.25941 0
M  V30 1867 H 161.957 4.65541 -1.45338 0
M  V30 1868 H 160.962 4.08004 -3.68527 0
M  V30 1869 H 162.187 5.08934 -4.49626 0
M  V30 1870 H 160.133 6.07336 -2.47949 0
M  V30 1871 H 160.05 6.28777 -4.19732 0
M  V30 1872 H 161.318 7.06377 -3.29623 0
M  V30 1873 N 165.547 1.27147 0.931209 0
M  V30 1874 C 166.479 1.05364 2.03546 0
M  V30 1875 C 167.492 0.0108438 1.62796 0
M  V30 1876 O 168.681 0.25202 1.76712 0
M  V30 1877 C 165.781 0.575566 3.33977 0
M  V30 1878 C 164.954 1.68985 4.03439 0
M  V30 1879 C 164.013 1.20813 5.12143 0
M  V30 1880 O 163.039 1.90712 5.363 0
M  V30 1881 N 164.241 0.0618851 5.80467 0
M  V30 1882 H 167.006 2.00454 2.22796 0
M  V30 1883 H 164.567 1.18666 1.10136 0
M  V30 1884 H 166.559 0.237264 4.04004 0
M  V30 1885 H 165.129 -0.282016 3.11325 0
M  V30 1886 H 164.349 2.19861 3.27192 0
M  V30 1887 H 165.637 2.4378 4.46597 0
M  V30 1888 H 165.035 -0.521621 5.6329 0
M  V30 1889 H 163.592 -0.217264 6.51438 0
M  V30 1890 N 167.025 -1.13721 1.09112 0
M  V30 1891 C 167.935 -2.22638 0.73957 0
M  V30 1892 C 168.951 -1.72091 -0.257068 0
M  V30 1893 O 170.127 -2.01155 -0.0992154 0
M  V30 1894 C 167.192 -3.46322 0.16191 0
M  V30 1895 C 166.253 -4.11775 1.21408 0
M  V30 1896 C 165.486 -5.29555 0.663891 0
M  V30 1897 O 165.709 -5.68077 -0.514274 0
M  V30 1898 O 164.643 -5.84973 1.41738 0
M  V30 1899 H 168.469 -2.55074 1.64836 0
M  V30 1900 H 166.054 -1.21791 0.865289 0
M  V30 1901 H 167.936 -4.21107 -0.157073 0
M  V30 1902 H 166.611 -3.15593 -0.719932 0
M  V30 1903 H 165.518 -3.3883 1.58571 0
M  V30 1904 H 166.851 -4.46627 2.06845 0
M  V30 1905 N 168.503 -0.877838 -1.30888 0
M  V30 1906 C 169.413 -0.343096 -2.32078 0
M  V30 1907 C 170.429 0.551022 -1.65045 0
M  V30 1908 O 171.605 0.445854 -1.96403 0
M  V30 1909 C 168.67 0.439905 -3.43898 0
M  V30 1910 C 167.731 -0.483111 -4.26573 0
M  V30 1911 C 166.964 0.262616 -5.33053 0
M  V30 1912 O 167.187 1.48967 -5.50604 0
M  V30 1913 O 166.121 -0.383593 -6.00676 0
M  V30 1914 H 169.947 -1.18203 -2.79753 0
M  V30 1915 H 167.532 -0.64145 -1.34929 0
M  V30 1916 H 169.414 0.883504 -4.12034 0
M  V30 1917 H 168.089 1.25526 -2.98371 0
M  V30 1918 H 166.996 -0.975374 -3.61161 0
M  V30 1919 H 168.329 -1.26427 -4.75686 0
M  V30 1920 N 169.982 1.44106 -0.638065 0
M  V30 1921 C 170.892 2.34513 0.0637334 0
M  V30 1922 C 171.908 1.53018 0.828346 0
M  V30 1923 O 173.084 1.85723 0.779036 0
M  V30 1924 C 170.149 3.31095 1.02844 0
M  V30 1925 C 169.21 4.28497 0.26244 0
M  V30 1926 C 168.443 5.20465 1.1812 0
M  V30 1927 O 168.666 5.16514 2.42011 0
M  V30 1928 O 167.6 5.98251 0.661774 0
M  V30 1929 H 171.426 2.95989 -0.68003 0
M  V30 1930 H 169.011 1.43994 -0.398252 0
M  V30 1931 H 170.893 3.90526 1.58327 0
M  V30 1932 H 169.568 2.72144 1.7527 0
M  V30 1933 H 168.475 3.72592 -0.335602 0
M  V30 1934 H 169.808 4.90388 -0.421936 0
M  V30 1935 N 171.46 0.379036 1.52974 0
M  V30 1936 C 172.37 -0.468639 2.29872 0
M  V30 1937 C 173.386 -1.08067 1.36373 0
M  V30 1938 O 174.562 -1.08871 1.69438 0
M  V30 1939 C 171.627 -1.58594 3.083 0
M  V30 1940 C 170.688 -1.00007 4.17489 0
M  V30 1941 C 169.921 -2.06413 4.92168 0
M  V30 1942 O 170.144 -3.27751 4.66835 0
M  V30 1943 O 169.078 -1.68717 5.7777 0
M  V30 1944 H 172.904 0.157508 3.03291 0
M  V30 1945 H 170.489 0.143035 1.48714 0
M  V30 1946 H 172.371 -2.23525 3.57232 0
M  V30 1947 H 171.046 -2.19724 2.37703 0
M  V30 1948 H 169.953 -0.314299 3.72777 0
M  V30 1949 H 171.286 -0.433135 4.90291 0
M  V30 1950 N 172.938 -1.57226 0.108567 0
M  V30 1951 C 173.871 -2.10447 -0.882464 0
M  V30 1952 C 174.849 -1.01829 -1.26766 0
M  V30 1953 O 176.033 -1.29415 -1.37054 0
M  V30 1954 C 173.16 -2.59258 -2.17952 0
M  V30 1955 C 172.206 -3.79662 -1.94318 0
M  V30 1956 S 173.039 -5.22586 -1.16892 0
M  V30 1957 C 174.195 -5.74758 -2.47799 0
M  V30 1958 H 174.428 -2.94178 -0.429745 0
M  V30 1959 H 171.961 -1.54043 -0.105 0
M  V30 1960 H 173.919 -2.88036 -2.92482 0
M  V30 1961 H 172.58 -1.75728 -2.60343 0
M  V30 1962 H 171.773 -4.11928 -2.90399 0
M  V30 1963 H 171.375 -3.51446 -1.27913 0
M  V30 1964 H 173.667 -5.83846 -3.43701 0
M  V30 1965 H 174.61 -6.73027 -2.20093 0
M  V30 1966 H 175.018 -5.02763 -2.56689 0
M  V30 1967 N 174.416 0.165178 -1.56732 0
M  V30 1968 C 175.693 0.908443 -1.73224 0
M  V30 1969 C 176.073 2.0013 -0.67165 0
M  V30 1970 O 175.421 2.26353 0.31253 0
M  V30 1971 C 175.631 1.46756 -3.16644 0
M  V30 1972 C 176.979 1.93809 -3.77787 0
M  V30 1973 O 178.003 1.56537 -3.1996 0
M  V30 1974 O 176.862 2.62486 -4.79336 0
M  V30 1975 H 173.956 0.428025 -0.707618 0
M  V30 1976 H 176.502 0.152526 -1.69013 0
M  V30 1977 H 175.274 0.68129 -3.85323 0
M  V30 1978 H 174.897 2.28749 -3.25207 0
M  V30 1979 N 175.894 1.51508 0.433938 0
M  V30 1980 C 177.141 1.64345 1.18309 0
M  V30 1981 C 177.469 0.361315 1.91115 0
M  V30 1982 O 176.724 -0.654753 1.84422 0
M  V30 1983 C 177.023 2.79928 2.22205 0
M  V30 1984 C 176.689 4.19078 1.66387 0
M  V30 1985 C 175.351 4.56932 1.50887 0
M  V30 1986 C 177.703 5.05894 1.25381 0
M  V30 1987 C 175.031 5.79305 0.928608 0
M  V30 1988 C 177.383 6.2885 0.687823 0
M  V30 1989 C 176.047 6.65473 0.519755 0
M  V30 1990 H 175.317 0.601381 0.432923 0
M  V30 1991 H 177.964 1.85549 0.473676 0
M  V30 1992 H 176.269 2.52959 2.99197 0
M  V30 1993 H 177.966 2.87059 2.79997 0
M  V30 1994 H 174.556 3.89234 1.79428 0
M  V30 1995 H 178.74 4.77253 1.36175 0
M  V30 1996 H 173.996 6.06324 0.786186 0
M  V30 1997 H 178.17 6.95461 0.361581 0
M  V30 1998 H 175.797 7.6017 0.0679979 0
M  V30 1999 N 177.372 -0.689602 1.41712 0
M  V30 2000 C 178.788 -1.00093 1.24312 0
M  V30 2001 C 178.988 -2.01036 0.136729 0
M  V30 2002 O 178.044 -2.47562 -0.496918 0
M  V30 2003 C 179.357 -1.51985 2.59463 0
M  V30 2004 C 180.905 -1.63838 2.66695 0
M  V30 2005 C 181.38 -2.1913 4.02177 0
M  V30 2006 N 182.871 -2.26483 4.04054 0
M  V30 2007 C 183.606 -2.70306 5.0569 0
M  V30 2008 N 183.102 -3.13691 6.17713 0
M  V30 2009 N 184.895 -2.69923 4.9305 0
M  V30 2010 H 177.046 -0.0210029 2.1239 0
M  V30 2011 H 179.309 -0.0718733 0.945272 0
M  V30 2012 H 179.015 -0.85269 3.41207 0
M  V30 2013 H 178.889 -2.50103 2.82362 0
M  V30 2014 H 181.276 -2.29664 1.85306 0
M  V30 2015 H 181.357 -0.642492 2.476 0
M  V30 2016 H 181.001 -1.53918 4.84016 0
M  V30 2017 H 180.931 -3.19482 4.18615 0
M  V30 2018 H 183.422 -1.95874 3.23174 0
M  V30 2019 H 183.735 -3.45773 6.9113 0
M  V30 2020 H 182.08 -3.11585 6.21241 0
M  V30 2021 H 185.271 -2.35382 4.04614 0
M  V30 2022 H 185.444 -3.03758 5.72394 0
M  V30 2023 N 178.85 -1.27639 -0.924453 0
M  V30 2024 C 180.075 -1.17101 -1.71179 0
M  V30 2025 C 180.5 0.268134 -1.86179 0
M  V30 2026 O 179.858 1.19415 -1.36418 0
M  V30 2027 C 179.906 -1.86313 -3.08739 0
M  V30 2028 O 179.01 -1.16331 -3.95652 0
M  V30 2029 H 178.351 -0.407091 -0.524569 0
M  V30 2030 H 180.881 -1.68767 -1.15666 0
M  V30 2031 H 180.891 -1.938 -3.59034 0
M  V30 2032 H 179.566 -2.91001 -2.97138 0
M  V30 2033 H 178.143 -1.16935 -3.54091 0
M  V30 2034 N 180.328 1.1314 -1.09713 0
M  V30 2035 C 181.576 1.84119 -0.833338 0
M  V30 2036 C 181.897 1.84097 0.642904 0
M  V30 2037 O 181.167 1.29881 1.46655 0
M  V30 2038 H 179.747 0.681766 -0.305293 0
M  V30 2039 H 182.409 1.37038 -1.38588 0
M  V30 2040 H 181.505 2.88543 -1.18951 0
M  V30 2041 N 181.806 0.884767 1.30421 0
M  V30 2042 C 183.031 0.517288 2.00845 0
M  V30 2043 C 183.456 -0.886779 1.65885 0
M  V30 2044 O 182.814 -1.58768 0.875354 0
M  V30 2045 C 182.862 0.698994 3.5376 0
M  V30 2046 O 181.966 -0.255208 4.1161 0
M  V30 2047 H 181.307 0.203872 0.631927 0
M  V30 2048 H 183.837 1.19225 1.66272 0
M  V30 2049 H 183.847 0.597912 4.03595 0
M  V30 2050 H 182.522 1.72271 3.78544 0
M  V30 2051 H 181.099 -0.10784 3.72744 0
M  V30 2052 N 183.284 -1.43765 0.645699 0
M  V30 2053 C 184.695 -1.85193 0.236719 0
M  V30 2054 C 185.046 -1.54045 -1.21509 0
M  V30 2055 O 184.171 -0.985694 -1.92647 0
M  V30 2056 C 184.766 -3.36151 0.422845 0
M  V30 2057 C 183.325 -3.76338 0.0682492 0
M  V30 2058 C 182.472 -2.67538 0.729306 0
M  V30 2059 H 185.423 -1.34025 0.849883 0
M  V30 2060 H 185.444 -3.79032 -0.333904 0
M  V30 2061 H 184.956 -3.5879 1.47958 0
M  V30 2062 H 183.057 -3.59312 -0.986179 0
M  V30 2063 H 183.17 -4.76603 0.488469 0
M  V30 2064 H 181.534 -2.54176 0.163235 0
M  V30 2065 H 182.317 -2.93006 1.78892 0
M  V30 2066 N 184.763 -0.387143 -1.52771 0
M  V30 2067 C 185.988 0.198407 -2.06449 0
M  V30 2068 C 186.413 1.39918 -1.25716 0
M  V30 2069 O 185.771 1.79099 -0.281657 0
M  V30 2070 C 185.819 0.548893 -3.56398 0
M  V30 2071 O 184.923 1.64315 -3.78252 0
M  V30 2072 H 184.264 0.0237731 -0.663574 0
M  V30 2073 H 186.794 -0.553989 -1.96957 0
M  V30 2074 H 186.804 0.813812 -3.99801 0
M  V30 2075 H 185.479 -0.329005 -4.14597 0
M  V30 2076 H 184.056 1.37211 -3.46738 0
M  V30 2077 N 186.241 1.57166 -0.116904 0
M  V30 2078 C 187.518 1.86645 0.585049 0
M  V30 2079 C 187.898 1.0177 1.84949 0
M  V30 2080 O 187.246 0.0960379 2.28298 0
M  V30 2081 C 187.456 3.37736 0.879507 0
M  V30 2082 C 188.804 4.06289 1.23348 0
M  V30 2083 O 189.828 3.42743 0.969836 0
M  V30 2084 O 188.687 5.18455 1.7282 0
M  V30 2085 H 185.781 0.772593 0.295007 0
M  V30 2086 H 188.327 1.69025 -0.151249 0
M  V30 2087 H 187.099 3.91296 -0.0166136 0
M  V30 2088 H 186.722 3.6078 1.67103 0
M  V30 2089 N 187.719 -0.156864 1.56817 0
M  V30 2090 C 188.667 -1.21319 1.98455 0
M  V30 2091 C 189.661 -1.45025 0.875444 0
M  V30 2092 O 190.867 -1.45435 1.0606 0
M  V30 2093 H 187.242 -0.408142 0.631605 0
M  V30 2094 H 189.213 -0.835244 2.86472 0
M  V30 2095 C 187.962 -2.54148 2.37285 0
M  V30 2096 H 187.285 -2.36733 3.22176 0
M  V30 2097 H 188.725 -3.26712 2.70251 0
M  V30 2098 C 187.184 -3.13967 1.22173 0
M  V30 2099 O 187.714 -3.98357 0.517149 0
M  V30 2100 N 185.92 -2.7327 0.988536 0
M  V30 2101 H 185.467 -2.04744 1.56326 0
M  V30 2102 H 185.425 -3.13628 0.220209 0
M  V30 2103 N 189.197 -1.51736 -0.425897 0
M  V30 2104 C 190.422 -1.69082 -1.20108 0
M  V30 2105 C 190.847 -0.392398 -1.83962 0
M  V30 2106 O 190.205 0.64858 -1.69302 0
M  V30 2107 C 190.253 -2.81604 -2.25237 0
M  V30 2108 O 189.357 -2.46004 -3.30992 0
M  V30 2109 H 188.698 -0.563408 -0.35138 0
M  V30 2110 H 191.228 -1.98358 -0.501512 0
M  V30 2111 H 191.238 -3.06025 -2.69838 0
M  V30 2112 H 189.913 -3.75817 -1.78142 0
M  V30 2113 H 188.49 -2.32195 -2.91787 0
M  V30 2114 N 190.675 0.682077 -1.42076 0
M  V30 2115 C 191.923 1.4393 -1.41876 0
M  V30 2116 C 192.244 1.94971 -0.0335599 0
M  V30 2117 O 191.514 1.72591 0.926773 0
M  V30 2118 H 190.094 0.534085 -0.522267 0
M  V30 2119 H 192.756 0.806427 -1.77434 0
M  V30 2120 H 191.852 2.29588 -2.11414 0
M  V30 2121 N 192.153 1.28127 0.917671 0
M  V30 2122 C 193.116 1.11744 2.00115 0
M  V30 2123 C 194.116 0.0583052 1.60694 0
M  V30 2124 O 195.306 0.303755 1.71531 0
M  V30 2125 C 192.438 0.704862 3.33533 0
M  V30 2126 H 193.631 2.07966 2.16079 0
M  V30 2127 H 191.184 1.11058 1.09981 0
M  V30 2128 H 191.919 -0.258299 3.2327 0
M  V30 2129 H 191.704 1.4699 3.63505 0
M  V30 2130 H 193.194 0.612768 4.1308 0
M  V30 2131 N 193.631 -1.12557 1.10312 0
M  V30 2132 C 194.541 -2.21841 0.763142 0
M  V30 2133 C 195.557 -1.72354 -0.238801 0
M  V30 2134 O 196.733 -2.01249 -0.0778746 0
M  V30 2135 C 193.798 -3.46131 0.198632 0
M  V30 2136 C 192.859 -4.10464 1.25769 0
M  V30 2137 C 192.092 -5.28821 0.72002 0
M  V30 2138 O 192.315 -5.6859 -0.453993 0
M  V30 2139 O 191.249 -5.83437 1.47935 0
M  V30 2140 H 195.075 -2.53312 1.67532 0
M  V30 2141 H 192.66 -1.20867 0.878157 0
M  V30 2142 H 194.542 -4.2125 -0.112401 0
M  V30 2143 H 193.217 -3.16338 -0.686419 0
M  V30 2144 H 192.124 -3.3713 1.62156 0
M  V30 2145 H 193.457 -4.44408 2.11571 0
M  V30 2146 N 195.109 -0.891671 -1.2995 0
M  V30 2147 C 196.019 -0.367691 -2.31701 0
M  V30 2148 C 197.035 0.533486 -1.6562 0
M  V30 2149 O 198.211 0.424997 -1.96865 0
M  V30 2150 C 195.276 0.403406 -3.44345 0
M  V30 2151 C 194.337 -0.528328 -4.26037 0
M  V30 2152 C 193.57 0.206063 -5.33302 0
M  V30 2153 O 193.793 1.43119 -5.52153 0
M  V30 2154 O 192.727 -0.447281 -6.00236 0
M  V30 2155 H 196.553 -1.21163 -2.78484 0
M  V30 2156 H 194.138 -0.655725 -1.34241 0
M  V30 2157 H 196.02 0.839753 -4.12948 0
M  V30 2158 H 194.695 1.22354 -2.99685 0
M  V30 2159 H 193.602 -1.01362 -3.60106 0
M  V30 2160 H 194.935 -1.31465 -4.74318 0
M  V30 2161 N 196.587 1.43421 -0.653314 0
M  V30 2162 C 197.52 2.2803 0.0879804 0
M  V30 2163 C 198.498 1.39833 0.82979 0
M  V30 2164 O 199.682 1.69275 0.829341 0
M  V30 2165 C 196.809 3.19247 1.13132 0
M  V30 2166 C 195.855 4.23704 0.487546 0
M  V30 2167 S 196.688 5.30377 -0.738961 0
M  V30 2168 C 197.844 6.25162 0.30384 0
M  V30 2169 H 198.077 2.90554 -0.629739 0
M  V30 2170 H 195.61 1.47934 -0.442156 0
M  V30 2171 H 197.568 3.72346 1.72827 0
M  V30 2172 H 196.229 2.55901 1.82136 0
M  V30 2173 H 195.422 4.87631 1.27407 0
M  V30 2174 H 195.024 3.73983 -0.0352915 0
M  V30 2175 H 197.316 6.67321 1.17 0
M  V30 2176 H 198.259 7.07463 -0.300402 0
M  V30 2177 H 198.667 5.60864 0.63969 0
M  V30 2178 N 198.065 0.39524 1.52563 0
M  V30 2179 C 198.975 -0.444232 2.30356 0
M  V30 2180 C 199.991 -1.06615 1.37511 0
M  V30 2181 O 201.167 -1.07067 1.70583 0
M  V30 2182 C 198.232 -1.55315 3.09964 0
M  V30 2183 C 197.293 -0.955734 4.18526 0
M  V30 2184 C 196.526 -2.01181 4.9433 0
M  V30 2185 O 196.749 -3.22781 4.70285 0
M  V30 2186 O 195.683 -1.62579 5.79527 0
M  V30 2187 H 199.509 0.189667 3.03107 0
M  V30 2188 H 197.094 0.1588 1.48554 0
M  V30 2189 H 198.976 -2.19724 3.59582 0
M  V30 2190 H 197.651 -2.17191 2.4002 0
M  V30 2191 H 196.558 -0.274743 3.7309 0
M  V30 2192 H 197.891 -0.381109 4.90722 0
M  V30 2193 N 199.544 -1.57102 0.125237 0
M  V30 2194 C 200.79 -1.95697 -0.532035 0
M  V30 2195 C 201.123 -1.009 -1.6593 0
M  V30 2196 O 200.398 -0.047347 -1.94442 0
M  V30 2197 C 200.681 -3.44181 -1.05884 0
M  V30 2198 C 200.534 -4.49752 0.0654392 0
M  V30 2199 C 201.853 -3.94655 -1.9477 0
M  V30 2200 H 198.972 -0.711571 -0.191925 0
M  V30 2201 H 201.614 -1.88923 0.20206 0
M  V30 2202 H 199.764 -3.50085 -1.68442 0
M  V30 2203 H 201.436 -4.55943 0.700982 0
M  V30 2204 H 199.679 -4.27653 0.727709 0
M  V30 2205 H 200.35 -5.50924 -0.344505 0
M  V30 2206 H 202.826 -3.91094 -1.42074 0
M  V30 2207 H 201.702 -4.99057 -2.28546 0
M  V30 2208 H 201.963 -3.35718 -2.87656 0
M  V30 2209 N 201.022 0.148545 -1.56898 0
M  V30 2210 C 202.247 0.880385 -1.87787 0
M  V30 2211 C 202.672 1.74018 -0.714093 0
M  V30 2212 O 202.03 1.78153 0.336343 0
M  V30 2213 C 202.078 1.71422 -3.17249 0
M  V30 2214 O 201.182 2.8183 -3.01074 0
M  V30 2215 H 200.523 0.245301 -0.617028 0
M  V30 2216 H 203.053 0.139826 -2.04122 0
M  V30 2217 H 203.063 2.10954 -3.49231 0
M  V30 2218 H 201.738 1.08284 -4.01556 0
M  V30 2219 H 200.315 2.45715 -2.80497 0
M  V30 2220 N 202.5 1.5196 0.417844 0
M  V30 2221 C 203.43 1.77634 1.51554 0
M  V30 2222 C 204.411 0.626918 1.58126 0
M  V30 2223 O 205.596 0.871632 1.7354 0
M  V30 2224 C 202.726 1.91911 2.8946 0
M  V30 2225 C 201.68 3.07463 2.97743 0
M  V30 2226 C 201.006 3.06951 4.37819 0
M  V30 2227 C 202.306 4.47082 2.70027 0
M  V30 2228 H 204 2.6955 1.3032 0
M  V30 2229 H 201.546 1.29706 0.625492 0
M  V30 2230 H 203.499 2.08455 3.6623 0
M  V30 2231 H 202.223 0.966598 3.11969 0
M  V30 2232 H 200.882 2.90656 2.23416 0
M  V30 2233 H 200.53 2.09438 4.57323 0
M  V30 2234 H 200.23 3.84556 4.44286 0
M  V30 2235 H 201.754 3.25613 5.16535 0
M  V30 2236 H 203.168 4.6414 3.36522 0
M  V30 2237 H 201.565 5.2654 2.87881 0
M  V30 2238 H 202.635 4.55777 1.65514 0
M  V30 2239 N 203.978 -0.674533 1.42435 0
M  V30 2240 C 204.941 -1.76986 1.45632 0
M  V30 2241 C 205.941 -1.5708 0.343871 0
M  V30 2242 O 207.131 -1.63367 0.604709 0
M  V30 2243 C 204.263 -3.15623 1.28822 0
M  V30 2244 H 205.456 -1.75539 2.43158 0
M  V30 2245 H 203.009 -0.884189 1.28887 0
M  V30 2246 H 203.744 -3.22696 0.322193 0
M  V30 2247 H 203.529 -3.31475 2.09444 0
M  V30 2248 H 205.019 -3.95537 1.33942 0
M  V30 2249 N 205.456 -1.28612 -0.910864 0
M  V30 2250 C 206.403 -1.12786 -2.01365 0
M  V30 2251 C 207.373 -0.024201 -1.66082 0
M  V30 2252 O 208.558 -0.189667 -1.89855 0
M  V30 2253 C 205.698 -0.798743 -3.35729 0
M  V30 2254 C 204.811 -1.98173 -3.83864 0
M  V30 2255 C 203.946 -1.59298 -5.06752 0
M  V30 2256 C 202.985 -2.74245 -5.47226 0
M  V30 2257 N 202.122 -2.35842 -6.61304 0
M  V30 2258 H 206.962 -2.07142 -2.14234 0
M  V30 2259 H 204.499 -1.03093 -1.0493 0
M  V30 2260 H 206.457 -0.588662 -4.13026 0
M  V30 2261 H 205.087 0.10789 -3.2262 0
M  V30 2262 H 204.139 -2.30386 -3.02699 0
M  V30 2263 H 205.451 -2.84343 -4.09818 0
M  V30 2264 H 204.605 -1.34513 -5.916 0
M  V30 2265 H 203.344 -0.702618 -4.82612 0
M  V30 2266 H 202.349 -2.99725 -4.60918 0
M  V30 2267 H 203.574 -3.63928 -5.73353 0
M  V30 2268 H 201.52 -1.49279 -6.38789 0
M  V30 2269 H 201.437 -3.15546 -6.86998 0
M  V30 2270 H 202.705 -2.14348 -7.4945 0
M  V30 2271 N 206.934 1.1197 -1.10907 0
M  V30 2272 C 208.345 1.65114 -0.871446 0
M  V30 2273 C 208.696 1.86885 0.597353 0
M  V30 2274 O 207.821 1.59896 1.45816 0
M  V30 2275 C 208.416 2.99944 -1.5754 0
M  V30 2276 C 206.975 3.50018 -1.38435 0
M  V30 2277 C 206.122 2.24941 -1.62164 0
M  V30 2278 H 209.073 0.956851 -1.2661 0
M  V30 2279 H 209.094 3.66651 -1.01721 0
M  V30 2280 H 208.606 2.84067 -2.64438 0
M  V30 2281 H 206.707 3.71071 -0.337214 0
M  V30 2282 H 206.82 4.29165 -2.12965 0
M  V30 2283 H 205.184 2.3229 -1.04467 0
M  V30 2284 H 205.967 2.11612 -2.70324 0
M  V30 2285 N 208.412 0.89855 1.29475 0
M  V30 2286 C 209.359 0.373819 2.27753 0
M  V30 2287 C 210.329 -0.543444 1.56958 0
M  V30 2288 O 211.514 -0.468934 1.84948 0
M  V30 2289 C 208.654 -0.393648 3.42848 0
M  V30 2290 C 207.767 0.554379 4.28428 0
M  V30 2291 C 206.902 -0.230026 5.30702 0
M  V30 2292 C 205.941 0.712599 6.07938 0
M  V30 2293 N 205.078 -0.0373283 7.0209 0
M  V30 2294 H 209.918 1.21699 2.72017 0
M  V30 2295 H 207.455 0.611456 1.33789 0
M  V30 2296 H 209.413 -0.85466 4.08352 0
M  V30 2297 H 208.043 -1.20128 2.99615 0
M  V30 2298 H 207.095 1.13391 3.63107 0
M  V30 2299 H 208.407 1.27597 4.82204 0
M  V30 2300 H 207.561 -0.752288 6.02018 0
M  V30 2301 H 206.3 -0.984758 4.77654 0
M  V30 2302 H 205.305 1.24637 5.35486 0
M  V30 2303 H 206.53 1.46664 6.63074 0
M  V30 2304 H 204.476 -0.774348 6.51414 0
M  V30 2305 H 204.393 0.624374 7.53417 0
M  V30 2306 H 205.661 -0.539891 7.77628 0
M  V30 2307 N 209.89 -1.43072 0.660911 0
M  V30 2308 C 210.84 -2.27948 -0.04847 0
M  V30 2309 C 211.824 -1.40325 -0.787246 0
M  V30 2310 O 213.016 -1.63893 -0.668446 0
M  V30 2311 C 210.145 -3.28143 -1.00881 0
M  V30 2312 C 209.231 -4.23252 -0.268108 0
M  V30 2313 N 209.622 -5.00656 0.719528 0
M  V30 2314 C 207.92 -4.43092 -0.508493 0
M  V30 2315 C 208.621 -5.70019 1.15988 0
M  V30 2316 N 207.597 -5.41364 0.492584 0
M  V30 2317 H 211.399 -2.85213 0.709279 0
M  V30 2318 H 208.913 -1.54869 0.488822 0
M  V30 2319 H 210.91 -3.87736 -1.53188 0
M  V30 2320 H 209.57 -2.7244 -1.76654 0
M  V30 2321 H 210.581 -5.06115 1.09855 0
M  V30 2322 H 207.258 -3.98449 -1.24679 0
M  V30 2323 H 208.648 -6.4214 1.97751 0
M  V30 2324 N 211.368 -0.403325 -1.52352 0
M  V30 2325 C 212.784 -0.0539281 -1.59509 0
M  V30 2326 C 212.984 1.43307 -1.41652 0
M  V30 2327 O 212.04 2.19924 -1.24056 0
M  V30 2328 C 213.353 -0.543654 -2.95745 0
M  V30 2329 C 214.901 -0.501125 -3.08962 0
M  V30 2330 C 215.376 -0.967267 -4.47669 0
M  V30 2331 N 216.867 -0.923849 -4.53893 0
M  V30 2332 C 217.602 -1.25578 -5.5948 0
M  V30 2333 N 217.098 -1.65889 -6.72646 0
M  V30 2334 N 218.891 -1.17613 -5.49658 0
M  V30 2335 H 211.042 -1.37123 -1.62206 0
M  V30 2336 H 213.305 -0.56294 -0.76276 0
M  V30 2337 H 213.011 -1.58275 -3.14073 0
M  V30 2338 H 212.885 0.0498042 -3.77167 0
M  V30 2339 H 215.272 0.528909 -2.90321 0
M  V30 2340 H 215.353 -1.13056 -2.2946 0
M  V30 2341 H 214.997 -1.9956 -4.67053 0
M  V30 2342 H 214.927 -0.314698 -5.25659 0
M  V30 2343 H 217.418 -0.627403 -3.72655 0
M  V30 2344 H 217.731 -1.89543 -7.49195 0
M  V30 2345 H 216.076 -1.69787 -6.73942 0
M  V30 2346 H 219.267 -0.860115 -4.6013 0
M  V30 2347 H 219.44 -1.43812 -6.3184 0
M  V30 2348 N 212.846 1.57033 -0.133567 0
M  V30 2349 C 214.092 1.95976 0.521649 0
M  V30 2350 C 214.425 1.01779 1.65393 0
M  V30 2351 O 213.7 0.0576581 1.94415 0
M  V30 2352 C 213.983 3.44738 1.04057 0
M  V30 2353 C 213.836 4.49711 -0.0892897 0
M  V30 2354 C 215.155 3.95682 1.92675 0
M  V30 2355 H 212.274 0.712579 0.188149 0
M  V30 2356 H 214.916 1.88813 -0.212076 0
M  V30 2357 H 213.066 3.50973 1.66583 0
M  V30 2358 H 214.738 4.55565 -0.725152 0
M  V30 2359 H 212.981 4.27261 -0.750378 0
M  V30 2360 H 213.652 5.51099 0.315284 0
M  V30 2361 H 216.128 3.91841 1.39998 0
M  V30 2362 H 215.004 5.00262 2.25897 0
M  V30 2363 H 215.265 3.37239 2.85872 0
M  V30 2364 N 214.325 -0.140222 1.56975 0
M  V30 2365 C 215.553 -0.866437 1.87884 0
M  V30 2366 C 215.968 -1.74428 0.722517 0
M  V30 2367 O 215.325 -1.79891 -0.30749 0
M  V30 2368 C 215.376 -1.71753 3.18093 0
M  V30 2369 O 215.097 -0.875056 4.29272 0
M  V30 2370 C 216.598 -2.55074 3.62563 0
M  V30 2371 H 213.818 -0.25019 0.622612 0
M  V30 2372 H 216.362 -0.130977 2.0408 0
M  V30 2373 H 214.517 -2.40598 3.03631 0
M  V30 2374 H 214.931 -1.46002 5.03769 0
M  V30 2375 H 216.405 -3.10356 4.5649 0
M  V30 2376 H 216.882 -3.31434 2.88181 0
M  V30 2377 H 217.488 -1.91509 3.79743 0
M  V30 2378 N 215.803 -1.52179 -0.40978 0
M  V30 2379 C 216.736 -1.70196 -1.52015 0
M  V30 2380 C 217.714 -0.549542 -1.53032 0
M  V30 2381 O 218.898 -0.776815 -1.71749 0
M  V30 2382 C 216.025 -1.74069 -2.90547 0
M  V30 2383 C 215.071 -2.95601 -3.07445 0
M  V30 2384 S 215.904 -4.55956 -2.80827 0
M  V30 2385 C 217.06 -4.62614 -4.21591 0
M  V30 2386 H 217.293 -2.64109 -1.36504 0
M  V30 2387 H 214.826 -1.4221 -0.601312 0
M  V30 2388 H 216.784 -1.76985 -3.70387 0
M  V30 2389 H 215.445 -0.812835 -3.034 0
M  V30 2390 H 214.638 -2.94791 -4.08796 0
M  V30 2391 H 214.24 -2.90569 -2.35469 0
M  V30 2392 H 216.532 -4.39951 -5.15218 0
M  V30 2393 H 217.475 -5.64548 -4.27424 0
M  V30 2394 H 217.883 -3.91654 -4.06531 0
M  V30 2395 N 217.281 0.66697 -1.42791 0
M  V30 2396 C 218.229 1.80157 -1.47127 0
M  V30 2397 C 219.223 1.65825 -0.346199 0
M  V30 2398 O 220.429 1.72338 -0.519572 0
M  V30 2399 H 216.804 0.594158 -0.460956 0
M  V30 2400 H 218.775 1.73619 -2.42692 0
M  V30 2401 C 217.524 3.18351 -1.39813 0
M  V30 2402 H 216.847 3.3001 -2.25684 0
M  V30 2403 H 218.287 3.97736 -1.46908 0
M  V30 2404 C 216.746 3.36707 -0.11391 0
M  V30 2405 O 217.276 3.93027 0.830241 0
M  V30 2406 N 215.482 2.90586 -0.0285295 0
M  V30 2407 H 215.029 2.4494 -0.79764 0
M  V30 2408 H 214.987 3.03245 0.830063 0
M  V30 2409 N 218.759 1.29093 0.90403 0
M  V30 2410 C 219.669 1.15727 2.0407 0
M  V30 2411 C 220.685 0.0815308 1.73809 0
M  V30 2412 O 221.861 0.292749 1.99261 0
M  V30 2413 C 218.926 0.830424 3.36608 0
M  V30 2414 C 217.987 1.98955 3.80415 0
M  V30 2415 C 217.22 1.6782 5.06628 0
M  V30 2416 O 217.443 0.597105 5.67266 0
M  V30 2417 O 216.377 2.52486 5.46383 0
M  V30 2418 H 220.203 2.11171 2.18267 0
M  V30 2419 H 217.788 1.08504 1.027 0
M  V30 2420 H 219.67 0.662521 4.16159 0
M  V30 2421 H 218.345 -0.0942678 3.23563 0
M  V30 2422 H 217.252 2.21267 3.01648 0
M  V30 2423 H 218.585 2.89529 3.98037 0
M  V30 2424 N 220.237 -1.11381 1.11499 0
M  V30 2425 C 221.484 -1.83132 0.864231 0
M  V30 2426 C 221.812 -1.84683 -0.610114 0
M  V30 2427 O 221.067 -1.29589 -1.46646 0
M  V30 2428 C 221.366 -3.30026 1.37177 0
M  V30 2429 C 221.032 -3.48634 2.85946 0
M  V30 2430 C 219.694 -3.53421 3.26569 0
M  V30 2431 C 222.046 -3.54837 3.81759 0
M  V30 2432 C 219.374 -3.61967 4.61733 0
M  V30 2433 C 221.726 -3.64915 5.1674 0
M  V30 2434 C 220.39 -3.67962 5.5692 0
M  V30 2435 H 219.66 -0.670127 0.316245 0
M  V30 2436 H 222.307 -1.31354 1.3935 0
M  V30 2437 H 220.612 -3.84304 0.762753 0
M  V30 2438 H 222.309 -3.84034 1.15408 0
M  V30 2439 H 218.899 -3.45579 2.53521 0
M  V30 2440 H 223.083 -3.50399 3.51474 0
M  V30 2441 H 218.339 -3.62603 4.92269 0
M  V30 2442 H 222.513 -3.68658 5.90816 0
M  V30 2443 H 220.14 -3.74336 6.61647 0
M  V30 2444 N 221.715 -0.905404 -1.28997 0
M  V30 2445 C 222.625 -0.392246 -2.31298 0
M  V30 2446 C 223.641 0.515889 -1.66176 0
M  V30 2447 O 224.817 0.404093 -1.97304 0
M  V30 2448 C 221.882 0.36686 -3.44754 0
M  V30 2449 C 220.943 -0.573485 -4.25452 0
M  V30 2450 C 220.176 0.149488 -5.33491 0
M  V30 2451 O 220.399 1.37255 -5.5364 0
M  V30 2452 O 219.333 -0.510919 -5.99728 0
M  V30 2453 H 223.159 -1.2411 -2.77183 0
M  V30 2454 H 220.744 -0.669926 -1.33538 0
M  V30 2455 H 222.626 0.795907 -4.13816 0
M  V30 2456 H 221.301 1.19169 -3.00966 0
M  V30 2457 H 220.208 -1.05176 -3.59011 0
M  V30 2458 H 221.541 -1.36489 -4.72897 0
M  V30 2459 N 223.193 1.4272 -0.668489 0
M  V30 2460 C 224.423 2.05668 -0.196063 0
M  V30 2461 C 224.831 1.5028 1.14946 0
M  V30 2462 O 224.174 0.6348 1.72383 0
M  V30 2463 C 224.236 3.59469 -0.0468879 0
M  V30 2464 C 223.9 4.37518 -1.32012 0
M  V30 2465 C 224.897 4.68584 -2.25222 0
M  V30 2466 C 222.582 4.77266 -1.56596 0
M  V30 2467 C 224.576 5.38326 -3.41297 0
M  V30 2468 C 222.263 5.4675 -2.72962 0
M  V30 2469 C 223.261 5.77204 -3.65137 0
M  V30 2470 O 222.949 6.45264 -4.79468 0
M  V30 2471 H 222.681 0.669382 -0.0943599 0
M  V30 2472 H 225.235 1.83954 -0.913788 0
M  V30 2473 H 223.465 3.79817 0.726357 0
M  V30 2474 H 225.154 4.04071 0.384852 0
M  V30 2475 H 225.92 4.38382 -2.07477 0
M  V30 2476 H 221.799 4.52959 -0.857249 0
M  V30 2477 H 225.343 5.62014 -4.13263 0
M  V30 2478 H 221.24 5.76369 -2.90635 0
M  V30 2479 H 222.008 6.63753 -4.78931 0
M  V30 2480 N 224.671 0.411399 1.52136 0
M  V30 2481 C 225.601 -0.404015 2.29978 0
M  V30 2482 C 226.582 -1.04412 1.34284 0
M  V30 2483 O 227.767 -1.0527 1.63192 0
M  V30 2484 C 224.897 -1.5197 3.12286 0
M  V30 2485 C 223.851 -1.00448 4.16046 0
M  V30 2486 C 223.177 -2.21393 4.86712 0
M  V30 2487 C 224.477 -0.0569336 5.22269 0
M  V30 2488 H 226.171 0.245529 2.98392 0
M  V30 2489 H 223.717 0.119525 1.43503 0
M  V30 2490 H 225.67 -2.09715 3.6551 0
M  V30 2491 H 224.394 -2.19716 2.41646 0
M  V30 2492 H 223.053 -0.449421 3.63835 0
M  V30 2493 H 222.701 -2.87699 4.12599 0
M  V30 2494 H 222.401 -1.87571 5.56858 0
M  V30 2495 H 223.925 -2.7974 5.4275 0
M  V30 2496 H 225.339 -0.54325 5.7072 0
M  V30 2497 H 223.736 0.192594 5.99791 0
M  V30 2498 H 224.806 0.887663 4.76706 0
M  V30 2499 N 226.149 -1.5696 0.141893 0
M  V30 2500 C 227.096 -2.16501 -0.799737 0
M  V30 2501 C 228.066 -1.09643 -1.24771 0
M  V30 2502 O 229.251 -1.3766 -1.32115 0
M  V30 2503 C 226.391 -2.78679 -2.03549 0
M  V30 2504 C 225.504 -3.99914 -1.6338 0
M  V30 2505 C 224.639 -4.50106 -2.82096 0
M  V30 2506 C 223.678 -5.63819 -2.38275 0
M  V30 2507 N 222.815 -6.08651 -3.49983 0
M  V30 2508 H 227.655 -2.96632 -0.285179 0
M  V30 2509 H 225.192 -1.46533 -0.129053 0
M  V30 2510 H 227.15 -3.1287 -2.75986 0
M  V30 2511 H 225.78 -2.012 -2.52425 0
M  V30 2512 H 224.832 -3.71735 -0.807279 0
M  V30 2513 H 226.144 -4.82311 -1.27192 0
M  V30 2514 H 225.298 -4.86325 -3.62729 0
M  V30 2515 H 224.037 -3.66706 -3.21525 0
M  V30 2516 H 223.042 -5.2718 -1.56081 0
M  V30 2517 H 224.267 -6.49 -1.99938 0
M  V30 2518 H 222.213 -5.28188 -3.89042 0
M  V30 2519 H 222.13 -6.85961 -3.17794 0
M  V30 2520 H 223.398 -6.49515 -4.30988 0
M  V30 2521 N 227.627 0.131896 -1.57047 0
M  V30 2522 C 228.557 1.16384 -2.02428 0
M  V30 2523 C 229.538 1.43936 -0.90644 0
M  V30 2524 O 230.723 1.54599 -1.17528 0
M  V30 2525 C 227.853 2.49328 -2.4177 0
M  V30 2526 C 226.807 2.36266 -3.56879 0
M  V30 2527 C 226.133 3.74057 -3.8208 0
M  V30 2528 C 227.433 1.834 -4.89042 0
M  V30 2529 H 229.127 0.786433 -2.88887 0
M  V30 2530 H 226.673 0.376855 -1.38981 0
M  V30 2531 H 228.626 3.21759 -2.7212 0
M  V30 2532 H 227.35 2.88934 -1.52266 0
M  V30 2533 H 226.009 1.66286 -3.26718 0
M  V30 2534 H 225.657 4.11125 -2.89803 0
M  V30 2535 H 225.357 3.66174 -4.59554 0
M  V30 2536 H 226.881 4.48012 -4.1487 0
M  V30 2537 H 228.295 2.45636 -5.18011 0
M  V30 2538 H 226.692 1.8637 -5.70426 0
M  V30 2539 H 227.762 0.790662 -4.7841 0
M  V30 2540 N 229.106 1.52395 0.401703 0
M  V30 2541 C 230.036 1.79231 1.49661 0
M  V30 2542 C 231.017 0.643654 1.57452 0
M  V30 2543 O 232.202 0.889989 1.72606 0
M  V30 2544 C 229.332 1.94971 2.87409 0
M  V30 2545 C 228.286 3.10604 2.94465 0
M  V30 2546 C 227.612 3.11577 4.34538 0
M  V30 2547 C 228.912 4.49921 2.6527 0
M  V30 2548 H 230.606 2.70917 1.27454 0
M  V30 2549 H 228.152 1.30362 0.6117 0
M  V30 2550 H 230.105 2.12328 3.63999 0
M  V30 2551 H 228.829 0.999632 3.10926 0
M  V30 2552 H 227.488 2.93009 2.20321 0
M  V30 2553 H 227.136 2.14277 4.55076 0
M  V30 2554 H 226.836 3.89247 4.40183 0
M  V30 2555 H 228.36 3.31073 5.13053 0
M  V30 2556 H 229.774 4.67683 3.31581 0
M  V30 2557 H 228.171 5.29564 2.82281 0
M  V30 2558 H 229.241 4.57507 1.60671 0
M  V30 2559 N 230.584 -0.659388 1.43143 0
M  V30 2560 C 231.832 -1.41654 1.44147 0
M  V30 2561 C 232.153 -1.94893 0.0645739 0
M  V30 2562 O 231.423 -1.74044 -0.899198 0
M  V30 2563 H 230.003 -0.525708 0.530697 0
M  V30 2564 H 232.665 -0.778097 1.78694 0
M  V30 2565 H 231.761 -2.26195 2.1504 0
M  V30 2566 N 232.062 -1.29571 -0.897171 0
M  V30 2567 C 233.009 -1.14916 -2.00158 0
M  V30 2568 C 233.979 -0.0418149 -1.66047 0
M  V30 2569 O 235.164 -0.209793 -1.89643 0
M  V30 2570 C 232.304 -0.834307 -3.34863 0
M  V30 2571 C 231.417 -2.02234 -3.8174 0
M  V30 2572 C 230.552 -1.64664 -5.05034 0
M  V30 2573 C 229.591 -2.80033 -5.44286 0
M  V30 2574 N 228.728 -2.42843 -6.58765 0
M  V30 2575 H 233.568 -2.09403 -2.12025 0
M  V30 2576 H 231.105 -1.042 -1.0383 0
M  V30 2577 H 233.063 -0.632436 -4.12379 0
M  V30 2578 H 231.693 0.0736656 -3.22716 0
M  V30 2579 H 230.745 -2.33583 -3.00238 0
M  V30 2580 H 232.057 -2.88673 -4.06779 0
M  V30 2581 H 231.211 -1.4078 -5.9014 0
M  V30 2582 H 229.95 -0.753766 -4.8184 0
M  V30 2583 H 228.955 -3.04596 -4.57713 0
M  V30 2584 H 230.18 -3.69989 -5.6946 0
M  V30 2585 H 228.126 -1.56046 -6.3717 0
M  V30 2586 H 228.043 -3.22815 -6.83613 0
M  V30 2587 H 229.311 -2.22285 -7.47134 0
M  V30 2588 N 233.54 1.10788 -1.12088 0
M  V30 2589 C 234.788 1.8231 -0.872205 0
M  V30 2590 C 235.109 1.85419 0.603709 0
M  V30 2591 O 234.379 1.32963 1.43867 0
M  V30 2592 H 232.959 0.675137 -0.319686 0
M  V30 2593 H 235.621 1.34068 -1.41463 0
M  V30 2594 H 234.717 2.85955 -1.25045 0
M  V30 2595 N 235.018 0.912232 1.28515 0
M  V30 2596 C 236.246 0.560416 1.99166 0
M  V30 2597 C 236.661 -0.857927 1.68182 0
M  V30 2598 O 236.018 -1.56805 0.933733 0
M  V30 2599 C 236.069 0.758142 3.53461 0
M  V30 2600 O 235.79 2.12067 3.83352 0
M  V30 2601 C 237.291 0.412954 4.41372 0
M  V30 2602 H 234.511 0.213805 0.636026 0
M  V30 2603 H 237.055 1.22502 1.63749 0
M  V30 2604 H 235.21 0.140556 3.87145 0
M  V30 2605 H 235.624 2.15923 4.77993 0
M  V30 2606 H 237.098 0.60208 5.48707 0
M  V30 2607 H 237.575 -0.65073 4.34353 0
M  V30 2608 H 238.181 1.00802 4.13182 0
M  V30 2609 N 236.496 -1.42363 0.676048 0
M  V30 2610 C 237.743 -2.01522 0.19883 0
M  V30 2611 C 238.071 -1.53456 -1.19505 0
M  V30 2612 O 237.326 -0.727967 -1.81657 0
M  V30 2613 C 237.625 -3.56929 0.183431 0
M  V30 2614 C 237.291 -4.24431 1.52215 0
M  V30 2615 C 235.953 -4.42585 1.8887 0
M  V30 2616 C 238.305 -4.62459 2.40377 0
M  V30 2617 C 235.633 -4.96039 3.13309 0
M  V30 2618 C 237.985 -5.17294 3.64129 0
M  V30 2619 C 236.649 -5.33661 4.00951 0
M  V30 2620 H 235.919 -0.737419 0.0727571 0
M  V30 2621 H 238.566 -1.70531 0.871281 0
M  V30 2622 H 236.871 -3.87594 -0.572532 0
M  V30 2623 H 238.568 -4.00486 -0.203035 0
M  V30 2624 H 235.158 -4.10661 1.22701 0
M  V30 2625 H 239.342 -4.48105 2.13343 0
M  V30 2626 H 234.598 -5.06896 3.41857 0
M  V30 2627 H 238.772 -5.45704 4.32644 0
M  V30 2628 H 236.399 -5.74845 4.9745 0
M  V30 2629 N 237.974 -0.419461 -1.51915 0
M  V30 2630 C 239.222 0.152637 -2.01523 0
M  V30 2631 C 239.543 1.44762 -1.30649 0
M  V30 2632 O 238.813 1.90997 -0.435535 0
M  V30 2633 H 237.393 0.0593966 -0.744635 0
M  V30 2634 H 240.055 -0.558073 -1.86739 0
M  V30 2635 H 239.151 0.341369 -3.10227 0
M  V30 2636 N 239.452 1.56882 -0.150215 0
M  V30 2637 C 240.399 2.16922 0.788244 0
M  V30 2638 C 241.369 1.10303 1.24187 0
M  V30 2639 O 242.554 1.38359 1.31383 0
M  V30 2640 C 239.694 2.79754 2.02068 0
M  V30 2641 C 238.807 4.00775 1.61257 0
M  V30 2642 C 237.942 4.51595 2.79705 0
M  V30 2643 C 236.981 5.65074 2.35282 0
M  V30 2644 N 236.118 6.10499 3.4675 0
M  V30 2645 H 240.958 2.96779 0.269444 0
M  V30 2646 H 238.495 1.46599 0.12128 0
M  V30 2647 H 240.453 3.14329 2.74323 0
M  V30 2648 H 239.083 2.02536 2.51354 0
M  V30 2649 H 238.135 3.72158 0.787553 0
M  V30 2650 H 239.447 4.82978 1.24633 0
M  V30 2651 H 238.601 4.88242 3.60145 0
M  V30 2652 H 237.34 3.68406 3.19576 0
M  V30 2653 H 236.345 5.28 1.53283 0
M  V30 2654 H 237.57 6.50052 1.96493 0
M  V30 2655 H 235.516 5.30243 3.86236 0
M  V30 2656 H 235.433 6.87637 3.14152 0
M  V30 2657 H 236.701 6.51791 4.27537 0
M  V30 2658 N 240.93 -0.123565 1.57115 0
M  V30 2659 C 242.176 -0.833386 1.84885 0
M  V30 2660 C 242.509 -1.79742 0.735292 0
M  V30 2661 O 241.784 -1.92764 -0.25925 0
M  V30 2662 C 242.067 -1.5873 3.23228 0
M  V30 2663 C 241.92 -0.643183 4.45178 0
M  V30 2664 C 243.239 -2.54453 3.59085 0
M  V30 2665 H 240.358 -0.301518 0.6725 0
M  V30 2666 H 243 -0.097778 1.89748 0
M  V30 2667 H 241.15 -2.21438 3.19214 0
M  V30 2668 H 242.822 -0.0253015 4.61293 0
M  V30 2669 H 241.065 0.0456139 4.33776 0
M  V30 2670 H 241.736 -1.20724 5.38637 0
M  V30 2671 H 244.212 -2.01853 3.63861 0
M  V30 2672 H 243.088 -3.04238 4.5687 0
M  V30 2673 H 243.349 -3.36906 2.86264 0
M  V30 2674 N 242.408 -1.52605 -0.393616 0
M  V30 2675 C 243.657 -1.66649 -1.13627 0
M  V30 2676 C 243.97 -0.410364 -1.91247 0
M  V30 2677 O 245.176 -0.430854 -2.68059 0
M  V30 2678 C 243.632 -2.9449 -2.06891 0
M  V30 2679 C 243.24 -4.27266 -1.34714 0
M  V30 2680 C 244.984 -3.17899 -2.81319 0
M  V30 2681 C 242.891 -5.46217 -2.26717 0
M  V30 2682 H 241.821 -0.62084 -0.427871 0
M  V30 2683 H 244.472 -1.791 -0.399428 0
M  V30 2684 H 242.854 -2.75774 -2.84191 0
M  V30 2685 H 244.028 -4.56518 -0.626714 0
M  V30 2686 H 242.343 -4.10081 -0.722643 0
M  V30 2687 H 244.94 -4.03949 -3.50328 0
M  V30 2688 H 245.283 -2.32777 -3.45139 0
M  V30 2689 H 245.816 -3.37159 -2.11113 0
M  V30 2690 H 242.555 -6.33733 -1.67521 0
M  V30 2691 H 242.075 -5.21283 -2.96689 0
M  V30 2692 H 243.754 -5.7991 -2.86903 0
M  V30 2693 N 243.887 0.651787 -1.4349 0
M  V30 2694 C 244.817 1.77621 -1.51569 0
M  V30 2695 C 245.798 1.66022 -0.370253 0
M  V30 2696 O 246.983 1.85095 -0.587658 0
M  V30 2697 C 244.113 3.16056 -1.43966 0
M  V30 2698 C 243.067 3.4242 -2.56774 0
M  V30 2699 C 242.393 4.8067 -2.34223 0
M  V30 2700 C 243.693 3.37023 -3.99015 0
M  V30 2701 H 245.387 1.71117 -2.45681 0
M  V30 2702 H 242.933 0.821825 -1.18246 0
M  V30 2703 H 244.886 3.94472 -1.48221 0
M  V30 2704 H 243.61 3.23293 -0.463586 0
M  V30 2705 H 242.269 2.66375 -2.51873 0
M  V30 2706 H 241.917 4.84585 -1.34856 0
M  V30 2707 H 241.617 4.9927 -3.09844 0
M  V30 2708 H 243.141 5.61342 -2.40265 0
M  V30 2709 H 244.555 4.05374 -4.05395 0
M  V30 2710 H 242.952 3.67159 -4.74673 0
M  V30 2711 H 244.022 2.3518 -4.2405 0
M  V30 2712 N 245.365 1.30045 0.890287 0
M  V30 2713 C 246.611 1.18737 1.64406 0
M  V30 2714 C 246.944 -0.258525 1.92472 0
M  V30 2715 O 246.219 -1.18562 1.54186 0
M  V30 2716 C 246.502 2.01087 2.98724 0
M  V30 2717 C 246.355 3.53867 2.77665 0
M  V30 2718 C 247.674 1.84457 3.9958 0
M  V30 2719 H 244.793 0.432698 0.596608 0
M  V30 2720 H 247.435 1.5962 1.0306 0
M  V30 2721 H 245.585 1.66349 3.51084 0
M  V30 2722 H 247.257 3.98637 2.32133 0
M  V30 2723 H 245.5 3.78318 2.12269 0
M  V30 2724 H 246.171 4.06772 3.7315 0
M  V30 2725 H 248.647 2.14817 3.56361 0
M  V30 2726 H 247.523 2.44411 4.91482 0
M  V30 2727 H 247.784 0.802276 4.3476 0
M  V30 2728 N 246.843 -1.10192 1.12674 0
M  V30 2729 C 247.79 -2.16606 0.796906 0
M  V30 2730 C 248.76 -1.64394 -0.237476 0
M  V30 2731 O 249.945 -1.90474 -0.111484 0
M  V30 2732 C 247.085 -3.44116 0.26043 0
M  V30 2733 C 246.198 -4.10268 1.35293 0
M  V30 2734 C 245.333 -5.25507 0.775621 0
M  V30 2735 C 244.372 -5.83567 1.84706 0
M  V30 2736 N 243.509 -6.90179 1.28829 0
M  V30 2737 H 248.349 -2.44163 1.70846 0
M  V30 2738 H 245.886 -1.19846 0.85295 0
M  V30 2739 H 247.844 -4.17143 -0.0686814 0
M  V30 2740 H 246.474 -3.16901 -0.614274 0
M  V30 2741 H 245.526 -3.35184 1.79877 0
M  V30 2742 H 246.838 -4.4946 2.16303 0
M  V30 2743 H 245.992 -6.05398 0.397327 0
M  V30 2744 H 244.731 -4.87656 -0.0656581 0
M  V30 2745 H 243.736 -5.02344 2.23452 0
M  V30 2746 H 244.961 -6.23482 2.69161 0
M  V30 2747 H 242.907 -6.54322 0.468881 0
M  V30 2748 H 242.824 -7.28097 2.03497 0
M  V30 2749 H 244.092 -7.73844 0.937311 0
M  V30 2750 N 248.321 -0.919034 -1.28029 0
M  V30 2751 C 249.231 -0.416756 -2.30869 0
M  V30 2752 C 250.247 0.498235 -1.66714 0
M  V30 2753 O 251.423 0.383144 -1.97722 0
M  V30 2754 C 248.488 0.330274 -3.45123 0
M  V30 2755 C 247.549 -0.618578 -4.2482 0
M  V30 2756 C 246.782 0.0928959 -5.33619 0
M  V30 2757 O 247.005 1.31375 -5.55065 0
M  V30 2758 O 245.939 -0.574499 -5.99152 0
M  V30 2759 H 249.765 -1.27043 -2.75851 0
M  V30 2760 H 247.35 -0.684052 -1.3282 0
M  V30 2761 H 249.232 0.751972 -4.14636 0
M  V30 2762 H 247.907 1.1597 -3.02213 0
M  V30 2763 H 246.814 -1.08978 -3.57875 0
M  V30 2764 H 248.147 -1.41497 -4.71423 0
M  V30 2765 N 249.799 1.42003 -0.683588 0
M  V30 2766 C 250.746 2.30798 -0.0107309 0
M  V30 2767 C 251.716 1.4645 0.783688 0
M  V30 2768 O 252.901 1.75263 0.754156 0
M  V30 2769 C 250.041 3.3238 0.928306 0
M  V30 2770 C 249.154 4.31814 0.126776 0
M  V30 2771 C 248.289 5.20468 1.06236 0
M  V30 2772 C 247.328 6.11577 0.253035 0
M  V30 2773 N 246.465 6.92754 1.14179 0
M  V30 2774 H 251.305 2.8778 -0.773727 0
M  V30 2775 H 248.842 1.41745 -0.393283 0
M  V30 2776 H 250.8 3.89813 1.48666 0
M  V30 2777 H 249.43 2.76976 1.65783 0
M  V30 2778 H 248.482 3.76427 -0.54833 0
M  V30 2779 H 249.794 4.96276 -0.501192 0
M  V30 2780 H 248.948 5.82677 1.69035 0
M  V30 2781 H 247.687 4.56204 1.7242 0
M  V30 2782 H 246.692 5.48428 -0.388108 0
M  V30 2783 H 247.917 6.77892 -0.404839 0
M  V30 2784 H 245.863 6.3111 1.78987 0
M  V30 2785 H 245.78 7.53855 0.569111 0
M  V30 2786 H 247.048 7.59441 1.75697 0
M  V30 2787 N 251.277 0.427512 1.51691 0
M  V30 2788 C 252.24 -0.377132 2.26076 0
M  V30 2789 C 253.24 -0.958089 1.29141 0
M  V30 2790 O 254.43 -0.83408 1.52934 0
M  V30 2791 C 251.562 -1.53262 3.04506 0
M  V30 2792 H 252.755 0.27464 2.9864 0
M  V30 2793 H 250.308 0.180445 1.55255 0
M  V30 2794 H 251.043 -2.22072 2.36335 0
M  V30 2795 H 250.828 -1.12232 3.75694 0
M  V30 2796 H 252.318 -2.10135 3.60878 0
M  V30 2797 N 252.755 -1.56801 0.158532 0
M  V30 2798 C 253.983 -2.00859 -0.496303 0
M  V30 2799 C 254.398 -1.03871 -1.57659 0
M  V30 2800 O 253.755 -0.0375165 -1.82461 0
M  V30 2801 C 253.806 -3.4479 -1.08638 0
M  V30 2802 O 253.527 -4.38072 -0.0492322 0
M  V30 2803 C 255.028 -4.04185 -1.8207 0
M  V30 2804 H 252.248 -0.65864 -0.128199 0
M  V30 2805 H 254.792 -2.02885 0.256506 0
M  V30 2806 H 252.947 -3.43579 -1.78975 0
M  V30 2807 H 253.361 -5.2227 -0.483102 0
M  V30 2808 H 254.835 -5.06857 -2.18633 0
M  V30 2809 H 255.312 -3.45549 -2.71095 0
M  V30 2810 H 255.918 -4.0906 -1.16405 0
M  V30 2811 N 254.233 0.115231 -1.57178 0
M  V30 2812 C 255.481 0.820727 -1.84685 0
M  V30 2813 C 255.802 1.80237 -0.744279 0
M  V30 2814 O 255.072 1.94529 0.231375 0
M  V30 2815 H 253.652 0.306084 -0.681411 0
M  V30 2816 H 256.314 0.101656 -1.94635 0
M  V30 2817 H 255.41 1.36366 -2.80733 0
M  V30 2818 N 255.711 1.52812 0.385517 0
M  V30 2819 C 257.127 1.4214 0.725829 0
M  V30 2820 C 257.327 0.544589 1.94001 0
M  V30 2821 O 256.383 0.0193693 2.52493 0
M  V30 2822 C 257.696 2.85042 0.957668 0
M  V30 2823 C 259.244 2.94543 1.05892 0
M  V30 2824 C 259.719 4.38464 1.32337 0
M  V30 2825 N 261.21 4.41804 1.39151 0
M  V30 2826 C 261.945 5.5025 1.61285 0
M  V30 2827 N 261.441 6.68775 1.80866 0
M  V30 2828 N 263.234 5.37798 1.63492 0
M  V30 2829 H 255.385 2.08338 -0.413383 0
M  V30 2830 H 257.648 0.940016 -0.122775 0
M  V30 2831 H 257.354 3.51431 0.137568 0
M  V30 2832 H 257.228 3.27505 1.87137 0
M  V30 2833 H 259.615 2.28321 1.86959 0
M  V30 2834 H 259.696 2.55504 0.123057 0
M  V30 2835 H 259.34 5.05254 0.517793 0
M  V30 2836 H 259.27 4.75059 2.27214 0
M  V30 2837 H 261.761 3.56377 1.25713 0
M  V30 2838 H 262.074 7.47197 1.97271 0
M  V30 2839 H 260.419 6.71797 1.78083 0
M  V30 2840 H 263.61 4.44171 1.47749 0
M  V30 2841 H 263.783 6.22382 1.80402 0
M  V30 2842 N 257.189 -0.644168 1.43834 0
M  V30 2843 C 258.419 -1.42939 1.49171 0
M  V30 2844 C 258.827 -1.88874 0.111048 0
M  V30 2845 O 258.17 -1.60656 -0.8908 0
M  V30 2846 C 258.232 -2.69151 2.38324 0
M  V30 2847 C 257.896 -2.45097 3.85715 0
M  V30 2848 C 258.893 -2.07747 4.76589 0
M  V30 2849 C 256.578 -2.59141 4.30292 0
M  V30 2850 C 258.572 -1.8475 6.10038 0
M  V30 2851 C 256.259 -2.35759 5.63792 0
M  V30 2852 C 257.257 -1.9862 6.53482 0
M  V30 2853 O 256.945 -1.75489 7.84512 0
M  V30 2854 H 256.677 -0.445271 0.508635 0
M  V30 2855 H 259.231 -0.79621 1.8934 0
M  V30 2856 H 257.461 -3.3506 1.93058 0
M  V30 2857 H 259.15 -3.31123 2.3476 0
M  V30 2858 H 259.916 -1.96465 4.43426 0
M  V30 2859 H 255.795 -2.87022 3.60749 0
M  V30 2860 H 259.339 -1.55686 6.80006 0
M  V30 2861 H 255.236 -2.46646 5.9652 0
M  V30 2862 H 256.004 -1.89841 7.9618 0
M  V30 2863 N 258.668 -1.30515 -0.883378 0
M  V30 2864 C 259.898 -1.22182 -1.66599 0
M  V30 2865 C 260.306 0.217507 -1.87946 0
M  V30 2866 O 259.649 1.1554 -1.42815 0
M  V30 2867 C 259.711 -1.88146 -3.06335 0
M  V30 2868 C 259.375 -3.37476 -3.08154 0
M  V30 2869 C 260.372 -4.33443 -2.87094 0
M  V30 2870 C 258.057 -3.7895 -3.29701 0
M  V30 2871 C 260.051 -5.68858 -2.8754 0
M  V30 2872 C 257.738 -5.14482 -3.29776 0
M  V30 2873 C 258.736 -6.09246 -3.0872 0
M  V30 2874 O 258.424 -7.42302 -3.08615 0
M  V30 2875 H 258.156 -0.423898 -0.52658 0
M  V30 2876 H 260.71 -1.72703 -1.11188 0
M  V30 2877 H 258.94 -1.32157 -3.63416 0
M  V30 2878 H 260.629 -1.7391 -3.66756 0
M  V30 2879 H 261.395 -4.02733 -2.70243 0
M  V30 2880 H 257.274 -3.05631 -3.45124 0
M  V30 2881 H 260.818 -6.428 -2.71024 0
M  V30 2882 H 256.715 -5.44832 -3.46163 0
M  V30 2883 H 257.483 -7.5131 -3.24769 0
M  V30 2884 N 260.146 1.09593 -1.13257 0
M  V30 2885 C 261.109 2.14359 -0.811358 0
M  V30 2886 C 262.109 1.59808 0.178377 0
M  V30 2887 O 263.299 1.74132 -0.0484911 0
M  V30 2888 C 260.431 3.40269 -0.207276 0
M  V30 2889 H 261.624 2.44284 -1.73969 0
M  V30 2890 H 259.177 1.25102 -0.936973 0
M  V30 2891 H 259.912 3.15969 0.73036 0
M  V30 2892 H 259.697 3.81154 -0.919992 0
M  V30 2893 H 261.187 4.176 0.000667944 0
M  V30 2894 N 261.624 0.925811 1.2754 0
M  V30 2895 C 262.557 0.367836 2.25216 0
M  V30 2896 C 263.535 -0.534738 1.53556 0
M  V30 2897 O 264.719 -0.475672 1.824 0
M  V30 2898 C 261.846 -0.47298 3.35381 0
M  V30 2899 C 260.892 0.365898 4.24928 0
M  V30 2900 S 261.725 1.78025 5.05042 0
M  V30 2901 C 262.881 0.947068 6.18693 0
M  V30 2902 H 263.114 1.19568 2.72196 0
M  V30 2903 H 260.647 0.727867 1.36167 0
M  V30 2904 H 262.605 -0.952242 3.99303 0
M  V30 2905 H 261.266 -1.27533 2.87044 0
M  V30 2906 H 260.459 -0.277582 5.03235 0
M  V30 2907 H 260.061 0.779261 3.65792 0
M  V30 2908 H 262.353 0.182201 6.77255 0
M  V30 2909 H 263.296 1.70309 6.87314 0
M  V30 2910 H 263.704 0.489913 5.6237 0
M  V30 2911 N 263.102 -1.41638 0.69111 0
M  V30 2912 C 264.049 -2.30789 0.0229705 0
M  V30 2913 C 265.019 -1.46863 -0.775911 0
M  V30 2914 O 266.204 -1.75661 -0.74485 0
M  V30 2915 C 263.344 -3.32868 -0.910666 0
M  V30 2916 C 262.457 -4.31875 -0.103874 0
M  V30 2917 C 261.592 -5.21024 -1.03475 0
M  V30 2918 C 260.631 -6.11702 -0.220598 0
M  V30 2919 N 259.768 -6.93349 -1.10504 0
M  V30 2920 H 264.608 -2.87366 0.788978 0
M  V30 2921 H 262.145 -1.41535 0.400794 0
M  V30 2922 H 264.103 -3.90596 -1.46597 0
M  V30 2923 H 262.733 -2.77851 -1.64312 0
M  V30 2924 H 261.785 -3.76131 0.568285 0
M  V30 2925 H 263.097 -4.96003 0.527504 0
M  V30 2926 H 262.251 -5.83565 -1.65943 0
M  V30 2927 H 260.99 -4.57112 -1.69999 0
M  V30 2928 H 259.995 -5.48215 0.417187 0
M  V30 2929 H 261.22 -6.77668 0.440784 0
M  V30 2930 H 259.166 -6.3205 -1.75638 0
M  V30 2931 H 259.083 -7.54146 -0.529125 0
M  V30 2932 H 260.351 -7.60362 -1.71667 0
M  V30 2933 N 264.58 -0.43555 -1.51462 0
M  V30 2934 C 265.829 0.133007 -2.01261 0
M  V30 2935 C 266.142 1.43942 -1.32439 0
M  V30 2936 O 267.348 2.09081 -1.73198 0
M  V30 2937 C 265.804 0.287581 -3.58749 0
M  V30 2938 C 265.412 -1.00829 -4.36506 0
M  V30 2939 C 267.156 0.810004 -4.167 0
M  V30 2940 C 265.063 -0.819454 -5.85695 0
M  V30 2941 H 263.993 0.0534822 -0.752101 0
M  V30 2942 H 266.644 -0.565038 -1.74584 0
M  V30 2943 H 265.026 1.04859 -3.81865 0
M  V30 2944 H 266.2 -1.77749 -4.25138 0
M  V30 2945 H 264.515 -1.45911 -3.89999 0
M  V30 2946 H 267.112 0.967743 -5.2587 0
M  V30 2947 H 267.455 1.79196 -3.75758 0
M  V30 2948 H 267.988 0.107357 -3.97655 0
M  V30 2949 H 264.727 -1.77374 -6.31046 0
M  V30 2950 H 264.247 -0.0900208 -5.99732 0
M  V30 2951 H 265.926 -0.471949 -6.45276 0
M  V30 2952 N 266.058 1.56714 -0.166846 0
M  V30 2953 C 266.988 2.20754 0.760913 0
M  V30 2954 C 267.969 1.16178 1.24244 0
M  V30 2955 O 269.154 1.44592 1.29641 0
M  V30 2956 C 266.284 2.84478 1.99223 0
M  V30 2957 C 265.238 3.95053 1.64672 0
M  V30 2958 C 264.564 4.45805 2.95232 0
M  V30 2959 C 265.864 5.14865 0.878155 0
M  V30 2960 H 267.558 2.98537 0.22713 0
M  V30 2961 H 265.104 1.43596 0.107805 0
M  V30 2962 H 267.057 3.27951 2.64624 0
M  V30 2963 H 265.781 2.04056 2.55007 0
M  V30 2964 H 264.44 3.52228 1.01641 0
M  V30 2965 H 264.088 3.62181 3.49047 0
M  V30 2966 H 263.788 5.204 2.7287 0
M  V30 2967 H 265.312 4.91962 3.6167 0
M  V30 2968 H 266.726 5.55059 1.43466 0
M  V30 2969 H 265.123 5.95348 0.753738 0
M  V30 2970 H 266.193 4.84735 -0.126377 0
M  V30 2971 N 267.536 -0.106894 1.57237 0
M  V30 2972 C 268.483 -1.13049 2.01217 0
M  V30 2973 C 269.453 -1.40471 0.886403 0
M  V30 2974 O 270.638 -1.52133 1.15153 0
M  V30 2975 C 267.778 -2.4487 2.43172 0
M  V30 2976 C 266.891 -2.24281 3.69218 0
M  V30 2977 C 266.026 -3.49417 4.00101 0
M  V30 2978 C 265.065 -3.24038 5.19294 0
M  V30 2979 N 264.202 -4.41409 5.45988 0
M  V30 2980 H 269.042 -0.748456 2.88448 0
M  V30 2981 H 266.579 -0.358054 1.42676 0
M  V30 2982 H 268.537 -3.21786 2.65537 0
M  V30 2983 H 267.167 -2.80944 1.58967 0
M  V30 2984 H 266.219 -1.38224 3.54398 0
M  V30 2985 H 267.531 -2.01512 4.56283 0
M  V30 2986 H 266.685 -4.34746 4.2318 0
M  V30 2987 H 265.424 -3.75229 3.11535 0
M  V30 2988 H 264.429 -2.37102 4.96047 0
M  V30 2989 H 265.654 -2.99584 6.09447 0
M  V30 2990 H 263.6 -4.67319 4.60379 0
M  V30 2991 H 263.517 -4.21788 6.274 0
M  V30 2992 H 264.785 -5.27836 5.73593 0
M  V30 2993 N 269.014 -1.53014 -0.377408 0
M  V30 2994 C 269.961 -1.78616 -1.46168 0
M  V30 2995 C 270.931 -0.629917 -1.53692 0
M  V30 2996 O 272.116 -0.870861 -1.69766 0
M  V30 2997 C 269.256 -1.97123 -2.8326 0
M  V30 2998 C 268.369 -3.24831 -2.84796 0
M  V30 2999 C 267.504 -3.33591 -4.13389 0
M  V30 3000 C 266.543 -4.55377 -4.09021 0
M  V30 3001 N 265.68 -4.61355 -5.29241 0
M  V30 3002 H 270.52 -2.71142 -1.23637 0
M  V30 3003 H 268.057 -1.34326 -0.599577 0
M  V30 3004 H 270.015 -2.05839 -3.62886 0
M  V30 3005 H 268.645 -1.07946 -3.04216 0
M  V30 3006 H 267.697 -3.25128 -1.97474 0
M  V30 3007 H 269.009 -4.14523 -2.77439 0
M  V30 3008 H 268.163 -3.41554 -5.01424 0
M  V30 3009 H 266.902 -2.41894 -4.23484 0
M  V30 3010 H 265.907 -4.47527 -3.19373 0
M  V30 3011 H 267.132 -5.48402 -4.00539 0
M  V30 3012 H 265.078 -3.72554 -5.39944 0
M  V30 3013 H 264.995 -5.44935 -5.24006 0
M  V30 3014 H 266.263 -4.73586 -6.19141 0
M  V30 3015 N 270.492 0.636531 -1.44174 0
M  V30 3016 C 271.402 1.77754 -1.53103 0
M  V30 3017 C 272.418 1.68928 -0.417034 0
M  V30 3018 O 273.594 1.89801 -0.6736 0
M  V30 3019 C 270.659 3.14115 -1.46741 0
M  V30 3020 C 269.72 3.34612 -2.68948 0
M  V30 3021 C 268.953 4.64467 -2.6288 0
M  V30 3022 O 269.176 5.44919 -1.68581 0
M  V30 3023 O 268.11 4.87049 -3.53648 0
M  V30 3024 H 271.936 1.73174 -2.49489 0
M  V30 3025 H 269.521 0.79709 -1.2636 0
M  V30 3026 H 271.403 3.95412 -1.45696 0
M  V30 3027 H 270.078 3.19249 -0.534975 0
M  V30 3028 H 268.985 2.53014 -2.75562 0
M  V30 3029 H 270.318 3.34336 -3.61221 0
M  V30 3030 N 271.97 1.30982 0.876444 0
M  V30 3031 C 273.216 1.20474 1.63138 0
M  V30 3032 C 273.549 -0.238096 1.92735 0
M  V30 3033 O 272.824 -1.1692 1.55435 0
M  V30 3034 C 273.107 2.04244 2.96574 0
M  V30 3035 C 272.96 3.56793 2.73896 0
M  V30 3036 C 274.279 1.88684 3.97601 0
M  V30 3037 H 271.398 0.439001 0.591985 0
M  V30 3038 H 274.04 1.60704 1.01361 0
M  V30 3039 H 272.19 1.70063 3.493 0
M  V30 3040 H 273.862 4.01077 2.27892 0
M  V30 3041 H 272.105 3.80548 2.08245 0
M  V30 3042 H 272.776 4.10706 3.68815 0
M  V30 3043 H 275.252 2.18584 3.54062 0
M  V30 3044 H 274.128 2.4961 4.88862 0
M  V30 3045 H 274.389 0.848343 4.33884 0
M  V30 3046 N 273.449 -1.08991 1.13837 0
M  V30 3047 C 274.698 -1.80631 0.897509 0
M  V30 3048 C 275.011 -1.86872 -0.57777 0
M  V30 3049 O 276.217 -2.54866 -0.935701 0
M  V30 3050 C 274.673 -3.24517 1.55618 0
M  V30 3051 C 274.281 -3.26529 3.0673 0
M  V30 3052 C 276.025 -4.00882 1.3962 0
M  V30 3053 C 273.932 -4.64965 3.65461 0
M  V30 3054 H 272.862 -0.67691 0.332129 0
M  V30 3055 H 275.513 -1.2246 1.3666 0
M  V30 3056 H 273.895 -3.82778 1.01476 0
M  V30 3057 H 275.069 -2.78008 3.67489 0
M  V30 3058 H 273.384 -2.63656 3.22296 0
M  V30 3059 H 275.981 -5.03167 1.80906 0
M  V30 3060 H 276.324 -4.14896 0.341578 0
M  V30 3061 H 276.857 -3.49075 1.90766 0
M  V30 3062 H 273.596 -4.56153 4.70749 0
M  V30 3063 H 273.116 -5.13792 3.09481 0
M  V30 3064 H 274.795 -5.3394 3.654 0
M  V30 3065 N 274.927 -0.932562 -1.27047 0
M  V30 3066 C 276.173 -0.576412 -1.94436 0
M  V30 3067 C 276.506 0.880891 -1.73072 0
M  V30 3068 O 275.781 1.62905 -1.06264 0
M  V30 3069 C 276.064 -0.909031 -3.48437 0
M  V30 3070 C 275.917 -2.42044 -3.79123 0
M  V30 3071 C 277.236 -0.418341 -4.38107 0
M  V30 3072 H 274.355 -0.210888 -0.706184 0
M  V30 3073 H 276.997 -1.16522 -1.50075 0
M  V30 3074 H 275.147 -0.407947 -3.86352 0
M  V30 3075 H 276.819 -2.99359 -3.50973 0
M  V30 3076 H 275.062 -2.86758 -3.25503 0
M  V30 3077 H 275.733 -2.6037 -4.86736 0
M  V30 3078 H 278.209 -0.847856 -4.0737 0
M  V30 3079 H 277.085 -0.679981 -5.44672 0
M  V30 3080 H 277.346 0.681642 -4.36814 0
M  V30 3081 N 276.405 1.4127 -0.698611 0
M  V30 3082 C 277.368 2.29158 -0.044132 0
M  V30 3083 C 278.368 1.44529 0.704841 0
M  V30 3084 O 279.558 1.65643 0.539276 0
M  V30 3085 C 276.69 3.27459 0.947809 0
M  V30 3086 H 277.883 2.88529 -0.817994 0
M  V30 3087 H 275.436 1.49307 -0.46228 0
M  V30 3088 H 276.171 2.73073 1.74933 0
M  V30 3089 H 275.956 3.8991 0.41385 0
M  V30 3090 H 277.446 3.93311 1.40344 0
M  V30 3091 N 277.883 0.443576 1.51229 0
M  V30 3092 C 278.83 -0.364716 2.279 0
M  V30 3093 C 279.8 -1.0114 1.31757 0
M  V30 3094 O 280.985 -1.02912 1.60667 0
M  V30 3095 C 278.125 -1.45644 3.12861 0
M  V30 3096 C 277.238 -0.827269 4.24005 0
M  V30 3097 C 276.373 -1.89456 4.96266 0
M  V30 3098 C 275.412 -1.24416 5.99322 0
M  V30 3099 N 274.549 -2.25309 6.64966 0
M  V30 3100 H 279.389 0.295464 2.96532 0
M  V30 3101 H 276.926 0.157554 1.46254 0
M  V30 3102 H 278.884 -2.10076 3.6045 0
M  V30 3103 H 277.514 -2.08616 2.46331 0
M  V30 3104 H 276.566 -0.0710839 3.80334 0
M  V30 3105 H 277.878 -0.312481 4.9782 0
M  V30 3106 H 277.032 -2.61535 5.47434 0
M  V30 3107 H 275.771 -2.4431 4.22095 0
M  V30 3108 H 274.776 -0.508868 5.4744 0
M  V30 3109 H 276.001 -0.702882 6.75453 0
M  V30 3110 H 273.947 -2.79231 5.93604 0
M  V30 3111 H 273.864 -1.78739 7.34567 0
M  V30 3112 H 275.132 -2.96853 7.20763 0
M  V30 3113 N 279.361 -1.56624 0.175154 0
M  V30 3114 C 280.638 -1.88688 -0.515373 0
M  V30 3115 C 281.018 -1.08564 -1.81044 0
M  V30 3116 O 280.366 -0.180703 -2.27784 0
M  V30 3117 C 280.576 -3.40768 -0.753552 0
M  V30 3118 C 281.924 -4.10587 -1.08184 0
M  V30 3119 O 282.948 -3.46106 -0.841961 0
M  V30 3120 O 281.807 -5.24512 -1.53459 0
M  V30 3121 H 278.901 -0.78301 -0.26613 0
M  V30 3122 H 281.447 -1.68347 0.213877 0
M  V30 3123 H 280.219 -3.90965 0.161829 0
M  V30 3124 H 279.842 -3.66733 -1.53598 0
M  V30 3125 N 280.839 0.0985539 -1.57292 0
M  V30 3126 C 281.749 1.13824 -2.05137 0
M  V30 3127 C 282.765 1.44076 -0.975604 0
M  V30 3128 O 283.941 1.54786 -1.28853 0
M  V30 3129 C 281.006 2.43969 -2.46333 0
M  V30 3130 C 280.067 2.2093 -3.68087 0
M  V30 3131 C 279.3 3.44869 -4.0731 0
M  V30 3132 O 279.523 4.52972 -3.46659 0
M  V30 3133 O 278.457 3.34661 -5.00285 0
M  V30 3134 H 282.283 0.761881 -2.93988 0
M  V30 3135 H 279.868 0.310818 -1.46131 0
M  V30 3136 H 281.75 3.20609 -2.73473 0
M  V30 3137 H 280.425 2.81038 -1.60621 0
M  V30 3138 H 279.332 1.42081 -3.46069 0
M  V30 3139 H 280.665 1.88755 -4.54568 0
M  V30 3140 N 282.317 1.53212 0.369288 0
M  V30 3141 C 283.563 1.69466 1.11397 0
M  V30 3142 C 283.896 0.443257 1.89074 0
M  V30 3143 O 283.171 -0.559386 1.86282 0
M  V30 3144 C 283.454 2.9422 2.07621 0
M  V30 3145 C 283.307 4.29508 1.33577 0
M  V30 3146 C 284.626 3.14565 3.07794 0
M  V30 3147 H 281.745 0.616667 0.403597 0
M  V30 3148 H 284.387 1.85845 0.395179 0
M  V30 3149 H 282.537 2.80387 2.68916 0
M  V30 3150 H 284.209 4.55147 0.750955 0
M  V30 3151 H 282.452 4.29088 0.637618 0
M  V30 3152 H 283.123 5.12926 2.03989 0
M  V30 3153 H 285.599 3.2756 2.56601 0
M  V30 3154 H 284.475 4.03297 3.72348 0
M  V30 3155 H 284.736 2.29675 3.77759 0
M  V30 3156 N 283.795 -0.628877 1.44509 0
M  V30 3157 C 284.758 -1.72263 1.51188 0
M  V30 3158 C 285.758 -1.55907 0.39367 0
M  V30 3159 O 286.948 -1.61361 0.656377 0
M  V30 3160 C 284.08 -3.11365 1.38798 0
M  V30 3161 H 285.273 -1.67714 2.4862 0
M  V30 3162 H 282.826 -0.842737 1.31634 0
M  V30 3163 H 283.561 -3.21507 0.424693 0
M  V30 3164 H 283.346 -3.24644 2.19884 0
M  V30 3165 H 284.836 -3.91075 1.46458 0
M  V30 3166 N 285.273 -1.31445 -0.869486 0
M  V30 3167 C 286.223 -1.15731 -1.96444 0
M  V30 3168 C 287.207 -0.0681855 -1.60755 0
M  V30 3169 O 288.399 -0.293154 -1.74555 0
M  V30 3170 C 285.528 -0.867255 -3.32165 0
M  V30 3171 C 284.614 -1.99738 -3.74119 0
M  V30 3172 N 285.005 -3.24447 -3.88031 0
M  V30 3173 C 283.303 -1.89723 -4.03635 0
M  V30 3174 C 284.004 -3.98374 -4.23879 0
M  V30 3175 N 282.98 -3.26547 -4.3459 0
M  V30 3176 H 286.782 -2.10296 -2.05312 0
M  V30 3177 H 284.296 -1.23009 -1.06031 0
M  V30 3178 H 286.293 -0.735668 -4.10358 0
M  V30 3179 H 284.953 0.0701614 -3.24624 0
M  V30 3180 H 285.964 -3.59557 -3.72746 0
M  V30 3181 H 282.641 -1.03449 -4.04481 0
M  V30 3182 H 284.031 -5.05844 -4.42235 0
M  V30 3183 N 286.751 1.08385 -1.14413 0
M  V30 3184 C 287.979 1.84517 -0.936001 0
M  V30 3185 C 288.394 1.81626 0.515503 0
M  V30 3186 O 287.751 1.22008 1.35721 0
M  V30 3187 C 287.802 3.32049 -1.42918 0
M  V30 3188 O 287.523 3.34951 -2.82381 0
M  V30 3189 C 289.024 4.24986 -1.26103 0
M  V30 3190 H 286.244 0.582491 -0.333084 0
M  V30 3191 H 288.788 1.36885 -1.5193 0
M  V30 3192 H 286.943 3.7707 -0.888641 0
M  V30 3193 H 287.357 4.27048 -3.04517 0
M  V30 3194 H 288.831 5.26615 -1.6547 0
M  V30 3195 H 289.308 4.38726 -0.20392 0
M  V30 3196 H 289.914 3.85791 -1.79012 0
M  V30 3197 N 288.23 0.939286 1.26551 0
M  V30 3198 C 289.16 0.465044 2.28822 0
M  V30 3199 C 290.141 -0.480692 1.63167 0
M  V30 3200 O 291.326 -0.382955 1.90387 0
M  V30 3201 C 288.456 -0.27234 3.46231 0
M  V30 3202 C 287.41 0.58666 4.2396 0
M  V30 3203 C 286.736 -0.280573 5.33963 0
M  V30 3204 C 288.036 1.85704 4.88171 0
M  V30 3205 H 289.73 1.31979 2.68741 0
M  V30 3206 H 287.276 0.636061 1.29191 0
M  V30 3207 H 289.229 -0.615133 4.16886 0
M  V30 3208 H 287.953 -1.16121 3.0526 0
M  V30 3209 H 286.612 0.91232 3.55067 0
M  V30 3210 H 286.26 -1.16874 4.89234 0
M  V30 3211 H 285.96 0.29076 5.8688 0
M  V30 3212 H 287.484 -0.618678 6.07458 0
M  V30 3213 H 288.898 1.58161 5.51052 0
M  V30 3214 H 287.295 2.37279 5.51197 0
M  V30 3215 H 288.365 2.56957 4.11219 0
M  V30 3216 N 289.708 -1.40897 0.706093 0
M  V30 3217 C 290.936 -2.05373 0.250887 0
M  V30 3218 C 291.351 -1.53172 -1.10381 0
M  V30 3219 O 290.708 -0.684305 -1.69185 0
M  V30 3220 C 290.759 -3.6088 0.211571 0
M  V30 3221 O 290.48 -4.11153 1.51276 0
M  V30 3222 C 291.981 -4.42517 -0.263346 0
M  V30 3223 H 289.201 -0.66115 0.114552 0
M  V30 3224 H 291.745 -1.80479 0.961635 0
M  V30 3225 H 289.9 -3.84777 -0.450073 0
M  V30 3226 H 290.314 -5.05279 1.40689 0
M  V30 3227 H 291.788 -5.51479 -0.239718 0
M  V30 3228 H 292.265 -4.19396 -1.30397 0
M  V30 3229 H 292.871 -4.23708 0.367677 0
M  V30 3230 N 291.186 -0.45159 -1.50991 0
M  V30 3231 C 292.096 0.358431 -2.31846 0
M  V30 3232 C 293.112 1.01438 -1.41373 0
M  V30 3233 O 294.288 1.00663 -1.74439 0
M  V30 3234 C 291.353 1.43704 -3.15515 0
M  V30 3235 C 290.414 0.799742 -4.21785 0
M  V30 3236 C 289.647 1.82696 -5.01456 0
M  V30 3237 O 289.87 3.05105 -4.81941 0
M  V30 3238 O 288.804 1.40958 -5.85162 0
M  V30 3239 H 292.63 -0.302032 -3.02194 0
M  V30 3240 H 290.215 -0.213825 -1.47862 0
M  V30 3241 H 292.097 2.06227 -3.67489 0
M  V30 3242 H 290.772 2.08133 -2.47916 0
M  V30 3243 H 289.679 0.136084 -3.73852 0
M  V30 3244 H 291.012 0.198718 -4.91799 0
M  V30 3245 N 292.664 1.56529 -0.183458 0
M  V30 3246 C 293.612 2.19873 0.758845 0
M  V30 3247 C 294.606 1.16638 1.22849 0
M  V30 3248 O 295.812 1.3481 1.19274 0
M  V30 3249 H 292.187 0.7045 0.263029 0
M  V30 3250 H 294.158 2.97724 0.200755 0
M  V30 3251 C 292.907 2.86314 1.9728 0
M  V30 3252 H 292.23 3.65487 1.62047 0
M  V30 3253 H 293.67 3.3409 2.61075 0
M  V30 3254 C 292.129 1.86729 2.80418 0
M  V30 3255 O 292.659 1.36031 3.77966 0
M  V30 3256 N 290.865 1.55216 2.45675 0
M  V30 3257 H 290.412 1.96636 1.66409 0
M  V30 3258 H 290.37 0.888388 3.01588 0
M  V30 3259 N 294.142 -0.090211 1.57342 0
M  V30 3260 C 295.558 -0.444547 1.53284 0
M  V30 3261 C 295.758 -1.80238 0.900914 0
M  V30 3262 O 294.814 -2.4759 0.495513 0
M  V30 3263 C 296.127 -0.402543 2.97993 0
M  V30 3264 C 297.675 -0.48405 3.09234 0
M  V30 3265 C 298.15 -0.472144 4.5556 0
M  V30 3266 N 299.641 -0.532757 4.60126 0
M  V30 3267 C 300.376 -0.545462 5.708 0
M  V30 3268 N 299.872 -0.514082 6.9089 0
M  V30 3269 N 301.665 -0.59064 5.58988 0
M  V30 3270 H 293.816 0.799121 1.96794 0
M  V30 3271 H 296.079 0.297965 0.899956 0
M  V30 3272 H 295.785 0.528106 3.47712 0
M  V30 3273 H 295.659 -1.21969 3.56936 0
M  V30 3274 H 298.046 -1.40512 2.595 0
M  V30 3275 H 298.127 0.361328 2.53235 0
M  V30 3276 H 297.771 0.445 5.05947 0
M  V30 3277 H 297.701 -1.3348 5.09402 0
M  V30 3278 H 300.192 -0.562006 3.73698 0
M  V30 3279 H 300.505 -0.527195 7.71 0
M  V30 3280 H 298.85 -0.481054 6.93333 0
M  V30 3281 H 302.041 -0.61272 4.64073 0
M  V30 3282 H 302.214 -0.597073 6.45243 0
M  V30 3283 N 295.62 -1.53406 -0.361157 0
M  V30 3284 C 296.866 -1.70054 -1.10496 0
M  V30 3285 C 297.199 -0.453278 -1.88836 0
M  V30 3286 O 296.474 0.5495 -1.86576 0
M  V30 3287 C 296.757 -2.95317 -2.06058 0
M  V30 3288 C 296.61 -4.3021 -1.31298 0
M  V30 3289 C 297.929 -3.16193 -3.06121 0
M  V30 3290 H 295.048 -0.618799 -0.400321 0
M  V30 3291 H 297.69 -1.86052 -0.385318 0
M  V30 3292 H 295.84 -2.81809 -2.67425 0
M  V30 3293 H 297.512 -4.55538 -0.726807 0
M  V30 3294 H 295.755 -4.29421 -0.614853 0
M  V30 3295 H 296.426 -5.14 -2.01265 0
M  V30 3296 H 298.902 -3.28916 -2.5486 0
M  V30 3297 H 297.778 -4.05266 -3.70204 0
M  V30 3298 H 298.039 -2.31676 -3.76535 0
M  V30 3299 N 297.098 0.621204 -1.44841 0
M  V30 3300 C 298.028 1.74366 -1.55303 0
M  V30 3301 C 299.009 1.65199 -0.405385 0
M  V30 3302 O 300.194 1.83807 -0.626787 0
M  V30 3303 C 297.324 3.12931 -1.50637 0
M  V30 3304 C 296.278 3.36896 -2.63979 0
M  V30 3305 C 295.604 4.75594 -2.44366 0
M  V30 3306 C 296.904 3.28483 -4.06074 0
M  V30 3307 H 298.598 1.65867 -2.49256 0
M  V30 3308 H 296.144 0.796558 -1.19962 0
M  V30 3309 H 298.097 3.9124 -1.56555 0
M  V30 3310 H 296.821 3.22237 -0.532057 0
M  V30 3311 H 295.48 2.60972 -2.57467 0
M  V30 3312 H 295.128 4.81616 -1.45105 0
M  V30 3313 H 294.828 4.92586 -3.20364 0
M  V30 3314 H 296.352 5.5612 -2.52117 0
M  V30 3315 H 297.766 3.96684 -4.13902 0
M  V30 3316 H 296.163 3.57008 -4.82354 0
M  V30 3317 H 297.233 2.26133 -4.28943 0
M  V30 3318 N 298.576 1.31904 0.862503 0
M  V30 3319 C 299.508 1.16005 1.97675 0
M  V30 3320 C 300.521 0.0971234 1.6251 0
M  V30 3321 O 301.71 0.345337 1.75128 0
M  V30 3322 C 298.81 0.751791 3.30456 0
M  V30 3323 C 297.983 1.90133 3.93914 0
M  V30 3324 C 297.042 1.4779 5.05019 0
M  V30 3325 O 296.068 2.18872 5.25437 0
M  V30 3326 N 297.27 0.369491 5.79323 0
M  V30 3327 H 300.035 2.11982 2.11857 0
M  V30 3328 H 297.596 1.24337 1.03691 0
M  V30 3329 H 299.588 0.451084 4.02178 0
M  V30 3330 H 298.158 -0.116593 3.12382 0
M  V30 3331 H 297.378 2.36896 3.15078 0
M  V30 3332 H 298.666 2.67111 4.33047 0
M  V30 3333 H 298.064 -0.222299 5.65263 0
M  V30 3334 H 296.621 0.128354 6.51674 0
M  V30 3335 N 300.054 -1.07777 1.14986 0
M  V30 3336 C 301.002 -2.16964 0.838406 0
M  V30 3337 C 301.996 -1.68372 -0.186386 0
M  V30 3338 O 303.202 -1.79951 -0.0418465 0
M  V30 3339 H 299.577 -0.708006 0.253439 0
M  V30 3340 H 301.548 -2.40454 1.76704 0
M  V30 3341 C 300.297 -3.4604 0.339335 0
M  V30 3342 H 299.62 -3.83813 1.11927 0
M  V30 3343 H 301.06 -4.23698 0.160021 0
M  V30 3344 C 299.519 -3.23569 -0.938325 0
M  V30 3345 O 300.049 -3.47752 -2.01077 0
M  V30 3346 N 298.255 -2.77079 -0.876117 0
M  V30 3347 H 297.802 -2.576 -0.00322037 0
M  V30 3348 H 297.76 -2.62422 -1.73153 0
M  V30 3349 N 301.532 -0.945985 -1.26051 0
M  V30 3350 C 302.757 -0.612525 -1.98149 0
M  V30 3351 C 303.182 0.806623 -1.69927 0
M  V30 3352 O 302.54 1.54411 -0.950108 0
M  V30 3353 C 302.588 -0.866981 -3.50023 0
M  V30 3354 O 301.692 0.0585333 -4.12358 0
M  V30 3355 H 301.033 -0.23379 -0.621481 0
M  V30 3356 H 303.563 -1.27023 -1.60395 0
M  V30 3357 H 303.573 -0.789792 -4.00283 0
M  V30 3358 H 302.248 -1.90135 -3.69894 0
M  V30 3359 H 300.825 -0.0701241 -3.72834 0
M  V30 3360 N 303.011 1.40521 -0.713556 0
M  V30 3361 C 304.427 1.54839 -0.386907 0
M  V30 3362 C 304.627 1.68532 1.1045 0
M  V30 3363 O 303.683 1.67377 1.89053 0
M  V30 3364 C 304.996 2.77792 -1.15118 0
M  V30 3365 C 306.544 2.91607 -1.13729 0
M  V30 3366 C 307.019 4.1747 -1.88368 0
M  V30 3367 N 308.51 4.24466 -1.85427 0
M  V30 3368 C 309.245 5.20755 -2.40004 0
M  V30 3369 N 308.741 6.22965 -3.03129 0
M  V30 3370 N 310.534 5.1282 -2.30158 0
M  V30 3371 H 302.685 1.29879 -1.68063 0
M  V30 3372 H 304.948 0.627896 -0.710247 0
M  V30 3373 H 304.654 2.73944 -2.20561 0
M  V30 3374 H 304.528 3.6984 -0.741477 0
M  V30 3375 H 306.915 2.94959 -0.0910608 0
M  V30 3376 H 306.996 2.00682 -1.5862 0
M  V30 3377 H 306.64 4.1488 -2.9298 0
M  V30 3378 H 306.57 5.074 -1.40898 0
M  V30 3379 H 309.061 3.51241 -1.3942 0
M  V30 3380 H 309.374 6.92859 -3.42295 0
M  V30 3381 H 307.719 6.23415 -3.07212 0
M  V30 3382 H 310.91 4.31899 -1.80501 0
M  V30 3383 H 311.083 5.87689 -2.72993 0
M  V30 3384 N 304.489 0.459591 1.5075 0
M  V30 3385 C 305.439 -0.358926 2.25157 0
M  V30 3386 C 306.423 -0.971285 1.28276 0
M  V30 3387 O 307.615 -0.885739 1.53244 0
M  V30 3388 C 304.744 -1.44695 3.11317 0
M  V30 3389 C 303.83 -0.842894 4.15639 0
M  V30 3390 N 304.221 0.0299373 5.05791 0
M  V30 3391 C 302.519 -1.10809 4.32015 0
M  V30 3392 C 303.22 0.371563 5.80512 0
M  V30 3393 N 302.196 -0.250409 5.43023 0
M  V30 3394 H 305.998 0.313636 2.92222 0
M  V30 3395 H 303.512 0.273021 1.60089 0
M  V30 3396 H 305.509 -2.04641 3.63218 0
M  V30 3397 H 304.169 -2.12162 2.45799 0
M  V30 3398 H 305.18 0.39797 5.16369 0
M  V30 3399 H 301.857 -1.7786 3.77719 0
M  V30 3400 H 303.247 1.08319 6.63111 0
M  V30 3401 N 305.967 -1.56429 0.191757 0
M  V30 3402 C 307.378 -1.83912 -0.321428 0
M  V30 3403 C 307.729 -1.11231 -1.61623 0
M  V30 3404 O 306.854 -0.37202 -2.13178 0
M  V30 3405 C 307.449 -3.33624 -0.589961 0
M  V30 3406 C 306.008 -3.6153 -1.04753 0
M  V30 3407 C 305.155 -2.7714 -0.0943327 0
M  V30 3408 H 308.106 -1.53161 0.415612 0
M  V30 3409 H 308.127 -3.52213 -1.43966 0
M  V30 3410 H 307.639 -3.86495 0.352588 0
M  V30 3411 H 305.74 -3.14089 -2.00447 0
M  V30 3412 H 305.853 -4.69737 -0.942549 0
M  V30 3413 H 304.217 -2.47638 -0.595589 0
M  V30 3414 H 305 -3.32799 0.842601 0
M  V30 3415 N 307.445 0.0818655 -1.57387 0
M  V30 3416 C 308.692 0.782914 -1.86753 0
M  V30 3417 C 309.02 1.78082 -0.782118 0
M  V30 3418 O 308.275 1.94426 0.22295 0
M  V30 3419 C 308.574 1.53513 -3.22752 0
M  V30 3420 C 308.24 0.678134 -4.45771 0
M  V30 3421 C 306.902 0.441929 -4.79166 0
M  V30 3422 C 309.254 0.0832243 -5.21134 0
M  V30 3423 C 306.582 -0.398833 -5.85343 0
M  V30 3424 C 308.934 -0.744935 -6.28199 0
M  V30 3425 C 307.598 -0.991107 -6.60101 0
M  V30 3426 H 306.868 0.286489 -0.683378 0
M  V30 3427 H 309.515 0.0439808 -1.91449 0
M  V30 3428 H 307.82 2.34599 -3.138 0
M  V30 3429 H 309.517 2.08218 -3.42705 0
M  V30 3430 H 306.107 0.872357 -4.19628 0
M  V30 3431 H 310.291 0.252847 -4.95655 0
M  V30 3432 H 305.547 -0.598405 -6.08465 0
M  V30 3433 H 309.721 -1.21271 -6.8576 0
M  V30 3434 H 307.348 -1.64437 -7.42202 0
M  V30 3435 N 308.923 1.53595 0.353017 0
M  V30 3436 C 309.853 1.83902 1.43883 0
M  V30 3437 C 310.834 0.693421 1.55324 0
M  V30 3438 O 312.019 0.944452 1.69687 0
M  V30 3439 C 309.149 2.04016 2.8106 0
M  V30 3440 C 308.103 3.19814 2.84434 0
M  V30 3441 C 307.429 3.25244 4.24406 0
M  V30 3442 C 308.729 4.58133 2.50822 0
M  V30 3443 H 310.423 2.74835 1.1877 0
M  V30 3444 H 307.969 1.32242 0.569917 0
M  V30 3445 H 309.922 2.238 3.57059 0
M  V30 3446 H 308.646 1.09804 3.07588 0
M  V30 3447 H 307.305 2.9987 2.10887 0
M  V30 3448 H 306.953 2.28646 4.48029 0
M  V30 3449 H 306.653 4.03054 4.27576 0
M  V30 3450 H 308.177 3.47228 5.0226 0
M  V30 3451 H 309.591 4.77995 3.16534 0
M  V30 3452 H 307.988 5.38276 2.6529 0
M  V30 3453 H 309.058 4.62387 1.46034 0
M  V30 3454 N 310.401 -0.613514 1.45168 0
M  V30 3455 C 311.629 -1.39946 1.5239 0
M  V30 3456 C 312.044 -1.88167 0.154531 0
M  V30 3457 O 311.401 -1.61872 -0.842843 0
M  V30 3458 C 311.452 -2.60795 2.50337 0
M  V30 3459 O 311.173 -2.1458 3.81952 0
M  V30 3460 C 312.674 -3.53723 2.67198 0
M  V30 3461 H 309.894 -0.428593 0.516284 0
M  V30 3462 H 312.438 -0.748753 1.903 0
M  V30 3463 H 310.593 -3.21919 2.15515 0
M  V30 3464 H 311.007 -2.93055 4.34993 0
M  V30 3465 H 312.481 -4.35079 3.39721 0
M  V30 3466 H 312.958 -4.0368 1.73029 0
M  V30 3467 H 313.564 -2.98456 3.02992 0
M  V30 3468 N 311.879 -1.3236 -0.855495 0
M  V30 3469 C 312.842 -1.21164 -1.94556 0
M  V30 3470 C 313.842 -0.134908 -1.60233 0
M  V30 3471 O 315.032 -0.385249 -1.69887 0
M  V30 3472 C 312.164 -0.863192 -3.29791 0
M  V30 3473 H 313.357 -2.18038 -2.05911 0
M  V30 3474 H 310.91 -1.16179 -1.04557 0
M  V30 3475 H 311.645 0.103769 -3.24134 0
M  V30 3476 H 311.43 -1.64166 -3.56078 0
M  V30 3477 H 312.92 -0.809156 -4.09686 0
M  V30 3478 N 313.357 1.07166 -1.15556 0
M  V30 3479 C 314.287 2.16403 -0.877046 0
M  V30 3480 C 315.268 1.69217 0.173111 0
M  V30 3481 O 316.453 1.94181 0.027084 0
M  V30 3482 C 313.583 3.45349 -0.367632 0
M  V30 3483 C 312.537 4.05995 -1.35468 0
M  V30 3484 C 311.863 5.30045 -0.704038 0
M  V30 3485 C 313.163 4.45804 -2.72132 0
M  V30 3486 H 314.857 2.39959 -1.79053 0
M  V30 3487 H 312.403 1.15325 -0.862331 0
M  V30 3488 H 314.356 4.21095 -0.160317 0
M  V30 3489 H 313.08 3.21385 0.581326 0
M  V30 3490 H 311.739 3.32296 -1.54839 0
M  V30 3491 H 311.387 5.02373 0.251128 0
M  V30 3492 H 311.087 5.71579 -1.36277 0
M  V30 3493 H 312.611 6.08495 -0.50654 0
M  V30 3494 H 314.025 5.12671 -2.56595 0
M  V30 3495 H 312.422 4.98296 -3.34397 0
M  V30 3496 H 313.492 3.57083 -3.28054 0
M  V30 3497 N 314.835 0.952656 1.25548 0
M  V30 3498 C 315.782 0.47008 2.25962 0
M  V30 3499 C 316.752 -0.476384 1.59122 0
M  V30 3500 O 317.937 -0.39007 1.8677 0
M  V30 3501 C 315.077 -0.247881 3.44209 0
M  V30 3502 C 314.19 0.735591 4.25691 0
M  V30 3503 C 313.325 -0.0047306 5.312 0
M  V30 3504 C 312.364 0.969805 6.04368 0
M  V30 3505 N 311.501 0.260486 7.01617 0
M  V30 3506 H 316.341 1.33126 2.66611 0
M  V30 3507 H 313.878 0.66765 1.31076 0
M  V30 3508 H 315.836 -0.680695 4.1161 0
M  V30 3509 H 314.466 -1.07312 3.0444 0
M  V30 3510 H 313.518 1.28689 3.57971 0
M  V30 3511 H 314.83 1.47934 4.76358 0
M  V30 3512 H 313.984 -0.496275 6.04667 0
M  V30 3513 H 312.723 -0.781282 4.81401 0
M  V30 3514 H 311.728 1.47237 5.29718 0
M  V30 3515 H 312.953 1.74655 6.56256 0
M  V30 3516 H 310.899 -0.497364 6.54112 0
M  V30 3517 H 310.816 0.943362 7.50091 0
M  V30 3518 H 312.084 -0.209587 7.79218 0
M  V30 3519 N 316.313 -1.40141 0.720998 0
M  V30 3520 C 317.543 -2.04798 0.27226 0
M  V30 3521 C 317.951 -1.54442 -1.09289 0
M  V30 3522 O 317.294 -0.698342 -1.69908 0
M  V30 3523 C 317.356 -3.59048 0.18027 0
M  V30 3524 C 317.02 -4.32317 1.48159 0
M  V30 3525 C 318.017 -4.59902 2.42458 0
M  V30 3526 C 315.702 -4.71125 1.74202 0
M  V30 3527 C 317.696 -5.25288 3.61042 0
M  V30 3528 C 315.383 -5.36242 2.93066 0
M  V30 3529 C 316.381 -5.63254 3.86308 0
M  V30 3530 O 316.069 -6.27024 5.03086 0
M  V30 3531 H 315.801 -0.665419 0.119139 0
M  V30 3532 H 318.355 -1.80436 0.981432 0
M  V30 3533 H 316.585 -3.82251 -0.58489 0
M  V30 3534 H 318.274 -4.05221 -0.234618 0
M  V30 3535 H 319.04 -4.30379 2.23604 0
M  V30 3536 H 314.919 -4.49466 1.02477 0
M  V30 3537 H 318.463 -5.46289 4.33837 0
M  V30 3538 H 314.36 -5.65185 3.11826 0
M  V30 3539 H 315.128 -6.4552 5.03235 0
M  V30 3540 N 317.792 -0.46758 -1.50504 0
M  V30 3541 C 319.017 0.0886943 -2.0721 0
M  V30 3542 C 319.442 1.33057 -1.32956 0
M  V30 3543 O 318.8 1.77354 -0.376197 0
M  V30 3544 C 318.848 0.359202 -3.58806 0
M  V30 3545 O 317.952 1.44034 -3.8643 0
M  V30 3546 H 317.293 -0.0114349 -0.663902 0
M  V30 3547 H 319.823 -0.657613 -1.93744 0
M  V30 3548 H 319.833 0.600742 -4.03553 0
M  V30 3549 H 318.508 -0.548311 -4.1227 0
M  V30 3550 H 317.085 1.18638 -3.53524 0
M  V30 3551 N 319.27 1.56325 -0.20005 0
M  V30 3552 C 320.517 1.97719 0.437411 0
M  V30 3553 C 320.845 1.08709 1.61284 0
M  V30 3554 O 320.1 0.127261 1.95286 0
M  V30 3555 C 320.399 3.4495 0.935103 0
M  V30 3556 C 320.065 4.5072 -0.12749 0
M  V30 3557 C 318.727 4.79368 -0.419451 0
M  V30 3558 C 321.079 5.14268 -0.847231 0
M  V30 3559 C 318.407 5.68854 -1.43604 0
M  V30 3560 C 320.759 6.04852 -1.85301 0
M  V30 3561 C 319.423 6.31855 -2.15211 0
M  V30 3562 H 318.693 0.723507 0.16006 0
M  V30 3563 H 321.34 1.89166 -0.298056 0
M  V30 3564 H 319.645 3.50599 1.74894 0
M  V30 3565 H 321.342 3.74337 1.43781 0
M  V30 3566 H 317.932 4.28458 0.11023 0
M  V30 3567 H 322.116 4.92222 -0.634901 0
M  V30 3568 H 317.372 5.88047 -1.67364 0
M  V30 3569 H 321.546 6.53152 -2.41591 0
M  V30 3570 H 319.173 7.00994 -2.94129 0
M  V30 3571 N 320.748 -0.0735177 1.57428 0
M  V30 3572 C 321.68 -1.11423 2.00294 0
M  V30 3573 C 322.693 -1.35084 0.908637 0
M  V30 3574 O 323.882 -1.33355 1.18654 0
M  V30 3575 C 320.982 -2.46548 2.32523 0
M  V30 3576 C 320.155 -2.42867 3.63778 0
M  V30 3577 C 319.214 -3.60087 3.83697 0
M  V30 3578 O 318.24 -3.41595 4.55304 0
M  V30 3579 N 319.442 -4.80372 3.25919 0
M  V30 3580 H 322.207 -0.749206 2.90184 0
M  V30 3581 H 319.768 -0.262195 1.59763 0
M  V30 3582 H 321.76 -3.23607 2.43024 0
M  V30 3583 H 320.33 -2.75059 1.48531 0
M  V30 3584 H 319.55 -1.51206 3.64047 0
M  V30 3585 H 320.838 -2.37506 4.49965 0
M  V30 3586 H 320.236 -4.983 2.67795 0
M  V30 3587 H 318.793 -5.54948 3.41871 0
M  V30 3588 N 322.226 -1.5378 -0.344866 0
M  V30 3589 C 323.454 -1.74899 -1.10534 0
M  V30 3590 C 323.869 -0.487534 -1.82397 0
M  V30 3591 O 323.226 0.540741 -1.74305 0
M  V30 3592 C 323.277 -2.92822 -2.11984 0
M  V30 3593 O 322.998 -4.14089 -1.43044 0
M  V30 3594 C 324.499 -3.25982 -3.00417 0
M  V30 3595 H 321.719 -0.584426 -0.329678 0
M  V30 3596 H 324.263 -2.006 -0.397474 0
M  V30 3597 H 322.418 -2.69457 -2.78338 0
M  V30 3598 H 322.832 -4.80272 -2.10805 0
M  V30 3599 H 324.306 -4.11848 -3.67539 0
M  V30 3600 H 324.783 -2.42228 -3.66363 0
M  V30 3601 H 325.389 -3.51349 -2.39654 0
M  V30 3602 N 323.704 0.605807 -1.45491 0
M  V30 3603 C 324.654 1.71074 -1.50724 0
M  V30 3604 C 325.638 1.5658 -0.37033 0
M  V30 3605 O 326.83 1.65887 -0.617299 0
M  V30 3606 C 323.959 3.0983 -1.47852 0
M  V30 3607 C 323.045 3.29704 -2.66751 0
M  V30 3608 N 323.436 3.19831 -3.91844 0
M  V30 3609 C 321.734 3.60579 -2.62486 0
M  V30 3610 C 322.435 3.41083 -4.71208 0
M  V30 3611 N 321.411 3.65157 -4.02693 0
M  V30 3612 H 325.213 1.61937 -2.45263 0
M  V30 3613 H 322.727 0.80912 -1.40808 0
M  V30 3614 H 324.724 3.89101 -1.49686 0
M  V30 3615 H 323.384 3.20115 -0.543714 0
M  V30 3616 H 324.395 2.98194 -4.23439 0
M  V30 3617 H 321.072 3.7769 -1.77922 0
M  V30 3618 H 322.462 3.38828 -5.80211 0
M  V30 3619 N 325.182 1.32811 0.848464 0
M  V30 3620 C 326.459 1.14334 1.58704 0
M  V30 3621 C 326.839 -0.293948 2.09043 0
M  V30 3622 O 326.187 -1.29153 1.88499 0
M  V30 3623 C 326.397 2.17626 2.72837 0
M  V30 3624 C 327.745 2.51282 3.42261 0
M  V30 3625 O 328.769 2.16219 2.83068 0
M  V30 3626 O 327.628 3.11413 4.49093 0
M  V30 3627 H 324.722 0.441601 0.699226 0
M  V30 3628 H 327.268 1.44362 0.892053 0
M  V30 3629 H 326.04 3.14211 2.3321 0
M  V30 3630 H 325.663 1.88628 3.50008 0
M  V30 3631 N 326.66 -1.06551 1.16123 0
M  V30 3632 C 328.076 -1.3142 0.905585 0
M  V30 3633 C 328.276 -1.96571 -0.442964 0
M  V30 3634 O 327.332 -2.23068 -1.18308 0
M  V30 3635 C 328.645 -2.19741 2.05267 0
M  V30 3636 C 330.193 -2.33165 2.08813 0
M  V30 3637 C 330.668 -3.24838 3.22868 0
M  V30 3638 N 332.159 -3.32421 3.22568 0
M  V30 3639 C 332.894 -4.0344 4.0746 0
M  V30 3640 N 332.39 -4.77003 5.02434 0
M  V30 3641 N 334.183 -3.99464 3.95456 0
M  V30 3642 H 326.334 -0.626548 2.02949 0
M  V30 3643 H 328.597 -0.338777 0.8854 0
M  V30 3644 H 328.303 -1.79142 3.02657 0
M  V30 3645 H 328.177 -3.20313 1.99198 0
M  V30 3646 H 330.564 -2.73013 1.12018 0
M  V30 3647 H 330.645 -1.3227 2.18948 0
M  V30 3648 H 330.289 -2.85708 4.19921 0
M  V30 3649 H 330.219 -4.25707 3.0997 0
M  V30 3650 H 332.71 -2.79994 2.53795 0
M  V30 3651 H 333.023 -5.28712 5.63634 0
M  V30 3652 H 331.368 -4.75992 5.06415 0
M  V30 3653 H 334.559 -3.4111 3.20564 0
M  V30 3654 H 334.732 -4.54544 4.61837 0
M  V30 3655 N 328.138 -0.959301 -1.25041 0
M  V30 3656 C 329.068 -0.501388 -2.28053 0
M  V30 3657 C 330.049 0.454673 -1.63911 0
M  V30 3658 O 331.234 0.352618 -1.90972 0
M  V30 3659 C 328.364 0.217224 -3.4662 0
M  V30 3660 C 327.318 -0.654034 -4.22973 0
M  V30 3661 C 326.644 0.195589 -5.34342 0
M  V30 3662 C 327.944 -1.93447 -4.85155 0
M  V30 3663 H 329.638 -1.36238 -2.66608 0
M  V30 3664 H 327.184 -0.656534 -1.28163 0
M  V30 3665 H 329.137 0.548732 -4.17812 0
M  V30 3666 H 327.861 1.1125 -3.07068 0
M  V30 3667 H 326.52 -0.968693 -3.5357 0
M  V30 3668 H 326.168 1.09076 -4.91031 0
M  V30 3669 H 325.868 -0.384091 -5.86343 0
M  V30 3670 H 327.392 0.521958 -6.08365 0
M  V30 3671 H 328.806 -1.66908 -5.48466 0
M  V30 3672 H 327.203 -2.46018 -5.47353 0
M  V30 3673 H 328.273 -2.63466 -4.07079 0
M  V30 3674 N 329.616 1.39756 -0.72842 0
M  V30 3675 C 330.856 2.025 -0.278078 0
M  V30 3676 C 331.22 1.5654 1.11173 0
M  V30 3677 O 332.421 2.11435 1.65978 0
M  V30 3678 C 330.692 3.55489 -0.369139 0
M  V30 3679 S 332.251 4.388 0.00232983 0
M  V30 3680 H 329.069 0.702534 -0.109391 0
M  V30 3681 H 331.671 1.70672 -0.95348 0
M  V30 3682 H 330.375 3.86429 -1.38204 0
M  V30 3683 H 329.906 3.92061 0.324308 0
M  V30 3684 H 331.921 4.80954 1.22055 0
M  V30 3685 N 331.094 0.475555 1.50254 0
M  V30 3686 C 332.341 -0.0778919 2.0235 0
M  V30 3687 C 332.669 -1.39319 1.35722 0
M  V30 3688 O 331.924 -1.89888 0.473395 0
M  V30 3689 C 332.223 -0.305114 3.56095 0
M  V30 3690 C 331.889 0.92903 4.41225 0
M  V30 3691 C 330.551 1.26739 4.6421 0
M  V30 3692 C 332.903 1.75054 4.90923 0
M  V30 3693 C 330.231 2.42724 5.34137 0
M  V30 3694 C 332.583 2.9017 5.62125 0
M  V30 3695 C 331.247 3.24416 5.83362 0
M  V30 3696 H 330.517 -0.0285027 0.740452 0
M  V30 3697 H 333.164 0.630543 1.80821 0
M  V30 3698 H 331.469 -1.09584 3.76163 0
M  V30 3699 H 333.166 -0.747377 3.93974 0
M  V30 3700 H 329.756 0.655428 4.23559 0
M  V30 3701 H 333.94 1.50231 4.73016 0
M  V30 3702 H 329.196 2.69525 5.48786 0
M  V30 3703 H 333.37 3.54169 5.99614 0
M  V30 3704 H 330.997 4.14396 6.37323 0
M  V30 3705 N 332.573 -1.56217 0.208337 0
M  V30 3706 C 333.819 -1.98242 -0.427552 0
M  V30 3707 C 334.152 -1.09554 -1.60348 0
M  V30 3708 O 333.427 -0.15035 -1.93918 0
M  V30 3709 C 333.71 -3.4931 -0.874907 0
M  V30 3710 C 333.563 -4.48773 0.303751 0
M  V30 3711 C 334.882 -4.04424 -1.73577 0
M  V30 3712 H 332.001 -0.720744 -0.153936 0
M  V30 3713 H 334.643 -1.87586 0.30192 0
M  V30 3714 H 332.793 -3.58522 -1.49648 0
M  V30 3715 H 334.465 -4.51586 0.941682 0
M  V30 3716 H 332.708 -4.23194 0.953375 0
M  V30 3717 H 333.379 -5.51976 -0.0519883 0
M  V30 3718 H 335.855 -3.98075 -1.21143 0
M  V30 3719 H 334.731 -5.1047 -2.01771 0
M  V30 3720 H 334.992 -3.50494 -2.69456 0
M  V30 3721 N 334.051 0.0651679 -1.57465 0
M  V30 3722 C 334.984 1.10876 -1.99453 0
M  V30 3723 C 335.962 1.37205 -0.872555 0
M  V30 3724 O 337.146 1.50468 -1.13542 0
M  V30 3725 C 334.273 2.45167 -2.3369 0
M  V30 3726 C 333.319 2.3493 -3.55964 0
M  V30 3727 S 334.152 1.73708 -5.06543 0
M  V30 3728 C 335.308 3.09563 -5.43987 0
M  V30 3729 H 335.541 0.750967 -2.87659 0
M  V30 3730 H 333.074 0.273933 -1.51951 0
M  V30 3731 H 335.032 3.22412 -2.54088 0
M  V30 3732 H 333.693 2.78105 -1.46001 0
M  V30 3733 H 332.886 3.3398 -3.77457 0
M  V30 3734 H 332.488 1.65823 -3.3523 0
M  V30 3735 H 334.78 4.05882 -5.42463 0
M  V30 3736 H 335.723 2.92843 -6.44708 0
M  V30 3737 H 336.131 3.10474 -4.71451 0
M  V30 3738 N 335.529 1.53961 0.336706 0
M  V30 3739 C 336.439 1.85432 1.43708 0
M  V30 3740 C 337.455 0.745053 1.57242 0
M  V30 3741 O 338.631 1.03804 1.72588 0
M  V30 3742 C 335.696 2.06349 2.78605 0
M  V30 3743 C 334.757 3.30191 2.74358 0
M  V30 3744 C 333.99 3.50101 4.02822 0
M  V30 3745 O 334.213 2.7371 5.00439 0
M  V30 3746 O 333.147 4.43547 4.06878 0
M  V30 3747 H 336.973 2.78975 1.20028 0
M  V30 3748 H 334.558 1.39701 0.52952 0
M  V30 3749 H 336.44 2.21513 3.58483 0
M  V30 3750 H 335.115 1.15995 3.02203 0
M  V30 3751 H 334.022 3.20425 1.93078 0
M  V30 3752 H 335.355 4.2056 2.55715 0
M  V30 3753 N 337.007 -0.598083 1.45811 0
M  V30 3754 C 338.237 -1.38121 1.53643 0
M  V30 3755 C 338.645 -1.88425 0.171081 0
M  V30 3756 O 337.988 -1.63409 -0.839237 0
M  V30 3757 C 338.05 -2.61432 2.46766 0
M  V30 3758 C 337.714 -2.32702 3.93318 0
M  V30 3759 C 338.711 -1.92479 4.82957 0
M  V30 3760 C 336.396 -2.45321 4.38318 0
M  V30 3761 C 338.39 -1.65248 6.15607 0
M  V30 3762 C 336.077 -2.17703 5.71007 0
M  V30 3763 C 337.075 -1.7773 6.5947 0
M  V30 3764 O 336.763 -1.50441 7.89698 0
M  V30 3765 H 336.495 -0.428863 0.522544 0
M  V30 3766 H 339.049 -0.73557 1.91777 0
M  V30 3767 H 337.279 -3.28749 2.0362 0
M  V30 3768 H 338.968 -3.23487 2.45175 0
M  V30 3769 H 339.734 -1.82258 4.49452 0
M  V30 3770 H 335.613 -2.75399 3.69697 0
M  V30 3771 H 339.157 -1.33973 6.84614 0
M  V30 3772 H 335.054 -2.27544 6.04065 0
M  V30 3773 H 335.822 -1.64415 8.01817 0
M  V30 3774 N 338.485 -1.33259 -0.841409 0
M  V30 3775 C 339.448 -1.23221 -1.9326 0
M  V30 3776 C 340.448 -0.151895 -1.60081 0
M  V30 3777 O 341.638 -0.403246 -1.69468 0
M  V30 3778 C 338.77 -0.898123 -3.28856 0
M  V30 3779 H 339.963 -2.2021 -2.03587 0
M  V30 3780 H 337.516 -1.17281 -1.03319 0
M  V30 3781 H 338.251 0.0693841 -3.24226 0
M  V30 3782 H 338.036 -1.67934 -3.54317 0
M  V30 3783 H 339.526 -0.852563 -4.08805 0
M  V30 3784 N 339.963 1.05934 -1.16686 0
M  V30 3785 C 340.911 2.15603 -0.872817 0
M  V30 3786 C 341.905 1.68647 0.159576 0
M  V30 3787 O 343.111 1.79995 0.0132125 0
M  V30 3788 H 339.486 0.703885 -0.264671 0
M  V30 3789 H 341.457 2.37613 -1.80507 0
M  V30 3790 C 340.206 3.45457 -0.394344 0
M  V30 3791 H 339.529 3.81984 -1.18019 0
M  V30 3792 H 340.969 4.2339 -0.227408 0
M  V30 3793 C 339.428 3.25021 0.88673 0
M  V30 3794 O 339.958 3.50906 1.95519 0
M  V30 3795 N 338.164 2.78437 0.831925 0
M  V30 3796 H 337.711 2.57572 -0.0377619 0
M  V30 3797 H 337.669 2.65144 1.68956 0
M  V30 3798 N 341.441 0.965919 1.2453 0
M  V30 3799 C 342.689 0.625593 1.92174 0
M  V30 3800 C 343.01 -0.841652 1.75901 0
M  V30 3801 O 342.28 -1.60061 1.12948 0
M  V30 3802 H 340.86 0.228388 0.71123 0
M  V30 3803 H 343.522 1.2266 1.51461 0
M  V30 3804 H 342.618 0.864653 2.99884 0
M  V30 3805 N 342.919 -1.39368 0.735821 0
M  V30 3806 C 344.167 -2.00101 0.283562 0
M  V30 3807 C 344.488 -1.5868 -1.13338 0
M  V30 3808 O 343.758 -0.835423 -1.77193 0
M  V30 3809 H 342.338 -0.740024 0.101851 0
M  V30 3810 H 345 -1.70404 0.945962 0
M  V30 3811 H 344.096 -3.10323 0.332604 0
M  V30 3812 N 344.397 -0.483516 -1.5 0
M  V30 3813 C 345.307 0.309172 -2.32554 0
M  V30 3814 C 346.323 0.984159 -1.43493 0
M  V30 3815 O 347.499 0.969399 -1.76535 0
M  V30 3816 C 344.564 1.36979 -3.18493 0
M  V30 3817 C 343.625 0.710095 -4.23387 0
M  V30 3818 C 342.858 1.72018 -5.05218 0
M  V30 3819 O 343.081 2.94813 -4.88305 0
M  V30 3820 O 342.015 1.28515 -5.8802 0
M  V30 3821 H 345.841 -0.366064 -3.01486 0
M  V30 3822 H 343.426 -0.24514 -1.47375 0
M  V30 3823 H 345.308 1.98385 -3.71781 0
M  V30 3824 H 343.983 2.02828 -2.52275 0
M  V30 3825 H 342.89 0.0567539 -3.74057 0
M  V30 3826 H 344.223 0.0943557 -4.9211 0
M  V30 3827 N 345.875 1.56104 -0.216619 0
M  V30 3828 C 346.805 2.23063 0.690296 0
M  V30 3829 C 347.786 1.20072 1.20485 0
M  V30 3830 O 348.971 1.48643 1.24976 0
M  V30 3831 C 346.101 2.90672 1.90072 0
M  V30 3832 C 345.055 4.00092 1.5202 0
M  V30 3833 C 344.381 4.54972 2.80899 0
M  V30 3834 C 345.681 5.17398 0.71391 0
M  V30 3835 H 347.375 2.99109 0.132038 0
M  V30 3836 H 344.921 1.43866 0.0620664 0
M  V30 3837 H 346.874 3.36204 2.54057 0
M  V30 3838 H 345.598 2.12066 2.48386 0
M  V30 3839 H 344.257 3.55283 0.903839 0
M  V30 3840 H 343.905 3.73102 3.37348 0
M  V30 3841 H 343.605 5.28817 2.56176 0
M  V30 3842 H 345.129 5.0322 3.45836 0
M  V30 3843 H 346.543 5.59342 1.25735 0
M  V30 3844 H 344.94 5.97444 0.563951 0
M  V30 3845 H 346.01 4.84088 -0.280527 0
M  V30 3846 N 347.353 -0.0568162 1.57498 0
M  V30 3847 C 348.6 -0.753104 1.87975 0
M  V30 3848 C 348.928 -1.76815 0.81035 0
M  V30 3849 O 348.183 -1.94756 -0.19199 0
M  V30 3850 C 348.482 -1.48359 3.25153 0
M  V30 3851 C 348.148 -0.60713 4.46794 0
M  V30 3852 C 346.81 -0.365642 4.79809 0
M  V30 3853 C 349.162 -0.000305978 5.212 0
M  V30 3854 C 346.49 0.491905 5.84634 0
M  V30 3855 C 348.842 0.844781 6.26934 0
M  V30 3856 C 347.506 1.096 6.58441 0
M  V30 3857 H 346.776 -0.27558 0.687849 0
M  V30 3858 H 349.423 -0.0135173 1.91495 0
M  V30 3859 H 347.728 -2.29577 3.17492 0
M  V30 3860 H 349.425 -2.02739 3.45974 0
M  V30 3861 H 346.015 -0.805487 4.20963 0
M  V30 3862 H 350.199 -0.173961 4.95995 0
M  V30 3863 H 345.455 0.695131 6.07436 0
M  V30 3864 H 349.629 1.32165 6.83744 0
M  V30 3865 H 347.256 1.76224 7.39492 0
M  V30 3866 N 348.832 -1.54138 -0.328536 0
M  V30 3867 C 350.079 -1.72105 -1.06706 0
M  V30 3868 C 350.407 -0.492111 -1.88171 0
M  V30 3869 O 349.662 0.526153 -1.88494 0
M  V30 3870 C 349.961 -2.9457 -2.02393 0
M  V30 3871 C 349.627 -4.29544 -1.37122 0
M  V30 3872 C 348.289 -4.6624 -1.19052 0
M  V30 3873 C 350.641 -5.1333 -0.902331 0
M  V30 3874 C 347.969 -5.84325 -0.527331 0
M  V30 3875 C 350.321 -6.32094 -0.252988 0
M  V30 3876 C 348.985 -6.67473 -0.0600901 0
M  V30 3877 H 348.255 -0.629775 -0.390466 0
M  V30 3878 H 350.902 -1.88372 -0.34473 0
M  V30 3879 H 349.207 -2.72969 -2.81061 0
M  V30 3880 H 350.904 -3.05665 -2.59557 0
M  V30 3881 H 347.494 -4.0067 -1.52188 0
M  V30 3882 H 351.678 -4.855 -1.02974 0
M  V30 3883 H 346.934 -6.103 -0.366634 0
M  V30 3884 H 351.108 -6.96299 0.118366 0
M  V30 3885 H 348.735 -7.58832 0.455828 0
M  V30 3886 N 350.31 0.590341 -1.46126 0
M  V30 3887 C 351.26 1.69466 -1.5253 0
M  V30 3888 C 352.244 1.56179 -0.386917 0
M  V30 3889 O 353.436 1.65223 -0.634858 0
M  V30 3890 C 350.565 3.08245 -1.5113 0
M  V30 3891 C 349.651 3.26856 -2.70233 0
M  V30 3892 N 350.042 3.15657 -3.95214 0
M  V30 3893 C 348.34 3.57775 -2.66296 0
M  V30 3894 C 349.041 3.36066 -4.74799 0
M  V30 3895 N 348.017 3.60865 -4.06543 0
M  V30 3896 H 351.819 1.59326 -2.46966 0
M  V30 3897 H 349.333 0.79414 -1.41659 0
M  V30 3898 H 351.33 3.87492 -1.53804 0
M  V30 3899 H 349.99 3.19521 -0.577636 0
M  V30 3900 H 351.001 2.93686 -4.26578 0
M  V30 3901 H 347.678 3.75782 -1.81918 0
M  V30 3902 H 349.068 3.32655 -5.83772 0
M  V30 3903 N 351.788 1.33704 0.83433 0
M  V30 3904 C 352.718 1.26967 1.95963 0
M  V30 3905 C 353.699 0.149337 1.69443 0
M  V30 3906 O 354.884 0.339852 1.91203 0
M  V30 3907 C 352.014 1.01275 3.32206 0
M  V30 3908 C 350.968 2.09652 3.73136 0
M  V30 3909 C 350.294 1.69166 5.07235 0
M  V30 3910 C 351.594 3.51372 3.86439 0
M  V30 3911 H 353.288 2.2112 2.01857 0
M  V30 3912 H 350.834 1.06447 0.969793 0
M  V30 3913 H 352.787 0.952106 4.10503 0
M  V30 3914 H 351.511 0.0356203 3.26581 0
M  V30 3915 H 350.17 2.14766 2.97104 0
M  V30 3916 H 349.818 0.701437 4.98085 0
M  V30 3917 H 349.518 2.41694 5.35591 0
M  V30 3918 H 351.042 1.64576 5.88003 0
M  V30 3919 H 352.456 3.48734 4.55036 0
M  V30 3920 H 350.853 4.22425 4.26236 0
M  V30 3921 H 351.923 3.89546 2.88759 0
M  V30 3922 N 353.266 -1.05314 1.17247 0
M  V30 3923 C 354.491 -1.82509 0.985148 0
M  V30 3924 C 354.916 -1.82343 -0.461788 0
M  V30 3925 O 354.274 -1.23151 -1.33055 0
M  V30 3926 C 354.322 -3.26566 1.52929 0
M  V30 3927 O 353.426 -4.05666 0.742225 0
M  V30 3928 H 352.767 -0.564347 0.349869 0
M  V30 3929 H 355.297 -1.32718 1.55715 0
M  V30 3930 H 355.307 -3.77369 1.55103 0
M  V30 3931 H 353.982 -3.26001 2.58256 0
M  V30 3932 H 352.559 -3.64397 0.791794 0
M  V30 3933 N 354.744 -0.972509 -1.24016 0
M  V30 3934 C 356.16 -0.679827 -1.44397 0
M  V30 3935 C 356.36 0.756716 -1.86751 0
M  V30 3936 O 355.416 1.53007 -2.00861 0
M  V30 3937 C 356.729 -1.66803 -2.50195 0
M  V30 3938 C 358.277 -1.68119 -2.64017 0
M  V30 3939 C 358.752 -2.65748 -3.73017 0
M  V30 3940 N 360.243 -2.64219 -3.8045 0
M  V30 3941 C 360.978 -3.36433 -4.64328 0
M  V30 3942 N 360.474 -4.1818 -5.52356 0
M  V30 3943 N 362.267 -3.25235 -4.58453 0
M  V30 3944 H 354.418 -1.90059 -0.948228 0
M  V30 3945 H 356.681 -0.818527 -0.478245 0
M  V30 3946 H 356.387 -2.69498 -2.25973 0
M  V30 3947 H 356.261 -1.4446 -3.48441 0
M  V30 3948 H 358.648 -0.661319 -2.87594 0
M  V30 3949 H 358.729 -1.94525 -1.66113 0
M  V30 3950 H 358.373 -3.67872 -3.50189 0
M  V30 3951 H 358.303 -2.36619 -4.70446 0
M  V30 3952 H 360.794 -2.04887 -3.17537 0
M  V30 3953 H 361.107 -4.70157 -6.13329 0
M  V30 3954 H 359.452 -4.22273 -5.52006 0
M  V30 3955 H 362.643 -2.60829 -3.88698 0
M  V30 3956 H 362.816 -3.81776 -5.23594 0
M  V30 3957 N 356.222 1.38976 -0.743202 0
M  V30 3958 C 357.132 2.3434 -0.110399 0
M  V30 3959 C 358.148 1.58741 0.712559 0
M  V30 3960 O 359.324 1.9099 0.639125 0
M  V30 3961 C 356.389 3.37812 0.780012 0
M  V30 3962 C 355.45 4.29263 -0.0561319 0
M  V30 3963 C 354.683 5.27793 0.791875 0
M  V30 3964 O 354.906 5.33043 2.03031 0
M  V30 3965 O 353.84 6.01512 0.216183 0
M  V30 3966 H 357.666 2.90129 -0.897714 0
M  V30 3967 H 355.251 1.40643 -0.503966 0
M  V30 3968 H 357.133 4.01194 1.28923 0
M  V30 3969 H 355.808 2.84395 1.546 0
M  V30 3970 H 354.715 3.69076 -0.611056 0
M  V30 3971 H 356.048 4.85907 -0.784531 0
M  V30 3972 N 357.7 0.491464 1.49741 0
M  V30 3973 C 359.116 0.146835 1.58923 0
M  V30 3974 C 359.316 -1.34804 1.49767 0
M  V30 3975 O 358.372 -2.12317 1.36667 0
M  V30 3976 C 359.685 0.715157 2.92072 0
M  V30 3977 C 361.233 0.680407 3.05515 0
M  V30 3978 C 361.708 1.22663 4.41269 0
M  V30 3979 N 363.199 1.18691 4.47735 0
M  V30 3980 C 363.934 1.57984 5.51207 0
M  V30 3981 N 363.43 2.04824 6.6183 0
M  V30 3982 N 365.223 1.49459 5.41866 0
M  V30 3983 H 357.374 1.46347 1.53936 0
M  V30 3984 H 359.637 0.606453 0.728642 0
M  V30 3985 H 359.343 1.76317 3.04311 0
M  V30 3986 H 359.217 0.17018 3.76816 0
M  V30 3987 H 361.604 -0.358743 2.92911 0
M  V30 3988 H 361.685 1.26242 2.22478 0
M  V30 3989 H 361.329 2.26451 4.54623 0
M  V30 3990 H 361.259 0.620637 5.2293 0
M  V30 3991 H 363.75 0.843605 3.68364 0
M  V30 3992 H 364.063 2.32901 7.3687 0
M  V30 3993 H 362.408 2.08791 6.62896 0
M  V30 3994 H 365.599 1.12692 4.54333 0
M  V30 3995 H 365.772 1.80406 6.22381 0
M  V30 3996 N 359.178 -1.55987 0.224894 0
M  V30 3997 C 360.424 -1.98684 -0.406502 0
M  V30 3998 C 360.757 -1.11248 -1.59177 0
M  V30 3999 O 360.032 -0.170909 -1.93748 0
M  V30 4000 C 360.315 -3.50218 -0.837808 0
M  V30 4001 C 360.168 -4.48426 0.351332 0
M  V30 4002 C 361.487 -4.06243 -1.69278 0
M  V30 4003 H 358.606 -0.722337 -0.146283 0
M  V30 4004 H 361.248 -1.87255 0.321799 0
M  V30 4005 H 359.398 -3.60089 -1.45837 0
M  V30 4006 H 361.07 -4.50562 0.989526 0
M  V30 4007 H 359.313 -4.22159 0.998207 0
M  V30 4008 H 359.984 -5.52 0.00655905 0
M  V30 4009 H 362.46 -3.99337 -1.16914 0
M  V30 4010 H 361.336 -5.12581 -1.96346 0
M  V30 4011 H 361.597 -3.53332 -2.65723 0
M  V30 4012 N 360.656 0.0484629 -1.57525 0
M  V30 4013 C 361.903 0.743125 -1.88372 0
M  V30 4014 C 362.231 1.76383 -0.819715 0
M  V30 4015 O 361.486 1.94855 0.181659 0
M  V30 4016 C 361.785 1.46632 -3.25935 0
M  V30 4017 C 361.451 0.583427 -4.4711 0
M  V30 4018 C 360.113 0.340191 -4.79996 0
M  V30 4019 C 362.465 -0.0273345 -5.21193 0
M  V30 4020 C 359.793 -0.522903 -5.84365 0
M  V30 4021 C 362.145 -0.878017 -6.26477 0
M  V30 4022 C 360.809 -1.1309 -6.5785 0
M  V30 4023 H 360.079 0.271929 -0.689301 0
M  V30 4024 H 362.726 0.00336166 -1.915 0
M  V30 4025 H 361.031 2.2789 -3.18706 0
M  V30 4026 H 362.728 2.00902 -3.47044 0
M  V30 4027 H 359.318 0.783151 -4.21384 0
M  V30 4028 H 363.502 0.147654 -4.9608 0
M  V30 4029 H 358.758 -0.727335 -6.07058 0
M  V30 4030 H 362.932 -1.35789 -6.83033 0
M  V30 4031 H 360.559 -1.80144 -7.38547 0
M  V30 4032 N 362.134 1.5431 0.320358 0
M  V30 4033 C 363.359 1.76954 1.08175 0
M  V30 4034 C 363.784 0.518193 1.80821 0
M  V30 4035 O 363.142 -0.530411 1.73368 0
M  V30 4036 C 363.19 2.96451 2.05303 0
M  V30 4037 O 362.294 2.68221 3.13259 0
M  V30 4038 H 361.635 0.586275 0.311733 0
M  V30 4039 H 364.165 2.01342 0.363676 0
M  V30 4040 H 364.175 3.23887 2.48116 0
M  V30 4041 H 362.85 3.87196 1.51829 0
M  V30 4042 H 361.427 2.51744 2.75099 0
M  V30 4043 N 363.613 -0.582584 1.46437 0
M  V30 4044 C 364.523 -1.71949 1.59595 0
M  V30 4045 C 365.539 -1.67264 0.479443 0
M  V30 4046 O 366.715 -1.87171 0.743579 0
M  V30 4047 C 363.78 -3.08452 1.58298 0
M  V30 4048 C 362.841 -3.244 2.81182 0
M  V30 4049 C 362.074 -4.54391 2.79937 0
M  V30 4050 O 362.297 -5.38287 1.8869 0
M  V30 4051 O 361.231 -4.73588 3.71481 0
M  V30 4052 H 365.057 -1.63795 2.55744 0
M  V30 4053 H 362.642 -0.749643 1.29231 0
M  V30 4054 H 364.524 -3.89732 1.60271 0
M  V30 4055 H 363.199 -3.17043 0.653094 0
M  V30 4056 H 362.106 -2.42613 2.84763 0
M  V30 4057 H 363.439 -3.20699 3.7338 0
M  V30 4058 N 365.091 -1.34144 -0.827227 0
M  V30 4059 C 366.368 -1.16844 -1.56865 0
M  V30 4060 C 366.748 0.260654 -2.09485 0
M  V30 4061 O 366.096 1.26138 -1.9053 0
M  V30 4062 C 366.306 -2.21939 -2.6934 0
M  V30 4063 C 367.654 -2.56695 -3.3822 0
M  V30 4064 O 368.678 -2.20695 -2.79593 0
M  V30 4065 O 367.537 -3.18518 -4.44082 0
M  V30 4066 H 364.631 -0.452669 -0.692112 0
M  V30 4067 H 367.177 -1.45763 -0.868973 0
M  V30 4068 H 365.949 -3.17882 -2.28182 0
M  V30 4069 H 365.572 -1.94172 -3.46962 0
M  V30 4070 N 366.569 1.04691 -1.17803 0
M  V30 4071 C 367.985 1.29963 -0.926379 0
M  V30 4072 C 368.185 1.97251 0.411635 0
M  V30 4073 O 367.241 2.24922 1.14744 0
M  V30 4074 C 368.554 2.16447 -2.08737 0
M  V30 4075 C 370.102 2.29814 -2.12496 0
M  V30 4076 C 370.577 3.19661 -3.27995 0
M  V30 4077 N 372.068 3.27247 -3.27816 0
M  V30 4078 C 372.803 3.96906 -4.13827 0
M  V30 4079 N 372.299 4.6895 -5.09959 0
M  V30 4080 N 374.092 3.93122 -4.01761 0
M  V30 4081 H 366.243 0.594182 -2.0392 0
M  V30 4082 H 368.506 0.324649 -0.890678 0
M  V30 4083 H 368.212 1.74304 -3.05469 0
M  V30 4084 H 368.086 3.17103 -2.04268 0
M  V30 4085 H 370.473 2.71196 -1.16347 0
M  V30 4086 H 370.554 1.2877 -2.21025 0
M  V30 4087 H 370.198 2.78991 -4.24413 0
M  V30 4088 H 370.128 4.20722 -3.16703 0
M  V30 4089 H 372.619 2.75921 -2.58217 0
M  V30 4090 H 372.932 5.19679 -5.71974 0
M  V30 4091 H 371.277 4.67875 -5.13924 0
M  V30 4092 H 374.468 3.35967 -3.2595 0
M  V30 4093 H 374.641 4.47139 -4.6901 0
M  V30 4094 N 368.047 0.979072 1.23499 0
M  V30 4095 C 369.01 0.523244 2.23147 0
M  V30 4096 C 370.01 -0.386406 1.56088 0
M  V30 4097 O 371.2 -0.180283 1.73265 0
M  V30 4098 C 368.332 -0.240739 3.40049 0
M  V30 4099 H 369.525 1.40432 2.64989 0
M  V30 4100 H 367.078 0.764824 1.36309 0
M  V30 4101 H 367.813 -1.13841 3.03662 0
M  V30 4102 H 367.598 0.412207 3.89927 0
M  V30 4103 H 369.088 -0.548297 4.13985 0
M  V30 4104 N 369.525 -1.3858 0.750561 0
M  V30 4105 C 370.941 -1.53759 0.427824 0
M  V30 4106 C 371.141 -1.71401 -1.05943 0
M  V30 4107 O 370.197 -1.72331 -1.84549 0
M  V30 4108 C 371.51 -2.74642 1.22443 0
M  V30 4109 C 373.058 -2.88489 1.2142 0
M  V30 4110 C 373.533 -4.12329 1.9937 0
M  V30 4111 N 375.024 -4.194 1.96616 0
M  V30 4112 C 375.759 -5.14209 2.53727 0
M  V30 4113 N 375.255 -6.14709 3.19539 0
M  V30 4114 N 377.048 -5.06537 2.43673 0
M  V30 4115 H 369.199 -1.25377 1.71447 0
M  V30 4116 H 371.462 -0.608844 0.726645 0
M  V30 4117 H 371.168 -2.68 2.27747 0
M  V30 4118 H 371.042 -3.67745 0.839273 0
M  V30 4119 H 373.429 -2.94614 0.169232 0
M  V30 4120 H 373.51 -1.96406 1.63885 0
M  V30 4121 H 373.154 -4.06966 3.03877 0
M  V30 4122 H 373.084 -5.03486 1.54302 0
M  V30 4123 H 375.575 -3.47421 1.48684 0
M  V30 4124 H 375.888 -6.8354 3.60545 0
M  V30 4125 H 374.233 -6.1505 3.23633 0
M  V30 4126 H 377.424 -4.26962 1.91889 0
M  V30 4127 H 377.597 -5.80245 2.88479 0
M  V30 4128 N 371.003 -0.499398 -1.49478 0
M  V30 4129 C 372.25 0.0456899 -2.02448 0
M  V30 4130 C 372.578 1.37142 -1.37921 0
M  V30 4131 O 371.833 1.89111 -0.503544 0
M  V30 4132 C 372.132 0.248424 -3.56536 0
M  V30 4133 C 371.798 -0.999107 -4.39692 0
M  V30 4134 C 370.46 -1.34108 -4.62135 0
M  V30 4135 C 372.812 -1.82842 -4.88076 0
M  V30 4136 C 370.14 -2.51191 -5.30208 0
M  V30 4137 C 372.492 -2.99076 -5.57437 0
M  V30 4138 C 371.156 -3.33655 -5.78127 0
M  V30 4139 H 370.426 0.0167191 -0.740811 0
M  V30 4140 H 373.073 -0.65923 -1.79795 0
M  V30 4141 H 371.378 1.03586 -3.77859 0
M  V30 4142 H 373.075 0.684605 -3.95113 0
M  V30 4143 H 369.665 -0.722729 -4.22463 0
M  V30 4144 H 373.849 -1.57737 -4.70566 0
M  V30 4145 H 369.105 -2.78221 -5.44429 0
M  V30 4146 H 373.279 -3.63664 -5.93904 0
M  V30 4147 H 370.906 -4.24483 -6.30649 0
M  V30 4148 N 372.481 1.55866 -0.233164 0
M  V30 4149 C 373.711 2.02704 0.399325 0
M  V30 4150 C 374.119 1.11204 1.53069 0
M  V30 4151 O 373.462 0.116182 1.83332 0
M  V30 4152 C 373.524 3.45844 0.981429 0
M  V30 4153 C 373.188 4.56997 -0.0159561 0
M  V30 4154 C 374.185 5.13384 -0.820552 0
M  V30 4155 C 371.87 5.0211 -0.138072 0
M  V30 4156 C 373.864 6.13365 -1.73386 0
M  V30 4157 C 371.551 6.01926 -1.0549 0
M  V30 4158 C 372.549 6.57431 -1.85132 0
M  V30 4159 O 372.237 7.55302 -2.75272 0
M  V30 4160 H 371.969 0.668459 0.100692 0
M  V30 4161 H 374.523 2.02387 -0.35052 0
M  V30 4162 H 372.753 3.43267 1.78058 0
M  V30 4163 H 374.442 3.76262 1.52255 0
M  V30 4164 H 375.208 4.79372 -0.736721 0
M  V30 4165 H 371.087 4.5858 0.471737 0
M  V30 4166 H 374.631 6.56614 -2.35592 0
M  V30 4167 H 370.528 6.35359 -1.1397 0
M  V30 4168 H 371.296 7.72867 -2.69477 0
M  V30 4169 N 373.959 -0.0401083 1.57549 0
M  V30 4170 C 375.207 -0.731677 1.8839 0
M  V30 4171 C 375.528 -1.76481 0.829425 0
M  V30 4172 O 374.798 -1.95411 -0.1383 0
M  V30 4173 H 373.378 -0.273225 0.695239 0
M  V30 4174 H 376.04 -0.00867725 1.94898 0
M  V30 4175 H 375.136 -1.22816 2.86919 0
M  V30 4176 N 375.437 -1.54477 -0.31217 0
M  V30 4177 C 376.4 -1.83923 -1.36766 0
M  V30 4178 C 377.4 -0.711563 -1.44199 0
M  V30 4179 O 378.59 -0.979866 -1.44029 0
M  V30 4180 C 375.722 -2.0095 -2.75376 0
M  V30 4181 H 376.915 -2.78239 -1.11906 0
M  V30 4182 H 374.468 -1.46369 -0.548257 0
M  V30 4183 H 375.203 -1.08883 -3.05475 0
M  V30 4184 H 374.988 -2.83018 -2.71373 0
M  V30 4185 H 376.478 -2.2514 -3.51713 0
M  V30 4186 N 376.915 0.57481 -1.46744 0
M  V30 4187 C 377.825 1.711 -1.60505 0
M  V30 4188 C 378.841 1.67008 -0.488307 0
M  V30 4189 O 380.017 1.86774 -0.753495 0
M  V30 4190 C 377.082 3.07608 -1.59932 0
M  V30 4191 C 376.143 3.22904 -2.82898 0
M  V30 4192 C 375.376 4.529 -2.82343 0
M  V30 4193 O 375.599 5.37278 -1.91542 0
M  V30 4194 O 374.533 4.71611 -3.73987 0
M  V30 4195 H 378.359 1.62436 -2.56609 0
M  V30 4196 H 375.944 0.742779 -1.29627 0
M  V30 4197 H 377.826 3.88877 -1.62336 0
M  V30 4198 H 376.501 3.16692 -0.669898 0
M  V30 4199 H 375.408 2.41099 -2.86046 0
M  V30 4200 H 376.741 3.18715 -3.75076 0
M  V30 4201 N 378.394 1.34581 0.820102 0
M  V30 4202 C 379.643 1.26437 1.57151 0
M  V30 4203 C 379.956 -0.163111 1.94919 0
M  V30 4204 O 381.162 -0.366722 2.69012 0
M  V30 4205 C 379.618 2.21658 2.83541 0
M  V30 4206 C 379.226 3.69679 2.53065 0
M  V30 4207 C 380.97 2.22428 3.61561 0
M  V30 4208 C 378.877 4.56761 3.75664 0
M  V30 4209 H 377.807 0.469707 0.589823 0
M  V30 4210 H 380.458 1.59763 0.902656 0
M  V30 4211 H 378.84 1.81287 3.52067 0
M  V30 4212 H 380.014 4.18605 1.92631 0
M  V30 4213 H 378.329 3.71384 1.88316 0
M  V30 4214 H 380.926 2.8471 4.52597 0
M  V30 4215 H 381.269 1.22434 3.97889 0
M  V30 4216 H 381.802 2.61259 2.99981 0
M  V30 4217 H 378.541 5.57702 3.44454 0
M  V30 4218 H 378.061 4.12568 4.35371 0
M  V30 4219 H 379.74 4.71509 4.43044 0
M  V30 4220 N 379.872 -1.04064 1.18357 0
M  V30 4221 C 381.118 -1.77528 0.980397 0
M  V30 4222 C 381.451 -1.87948 -0.48879 0
M  V30 4223 O 380.726 -1.3876 -1.36293 0
M  V30 4224 C 381.009 -3.20797 1.63588 0
M  V30 4225 C 380.862 -3.1832 3.17793 0
M  V30 4226 C 382.181 -4.18911 1.34914 0
M  V30 4227 H 379.3 -0.644443 0.357578 0
M  V30 4228 H 381.942 -1.2156 1.46024 0
M  V30 4229 H 380.092 -3.68586 1.22788 0
M  V30 4230 H 381.764 -2.78521 3.67728 0
M  V30 4231 H 380.007 -2.56351 3.49952 0
M  V30 4232 H 380.678 -4.19489 3.58794 0
M  V30 4233 H 383.154 -3.7967 1.70265 0
M  V30 4234 H 382.03 -5.17374 1.83346 0
M  V30 4235 H 382.291 -4.41262 0.272027 0
M  V30 4236 N 381.35 -0.985608 -1.22978 0
M  V30 4237 C 382.575 -0.675254 -1.961 0
M  V30 4238 C 383 0.752154 -1.72407 0
M  V30 4239 O 382.358 1.5131 -0.998751 0
M  V30 4240 C 382.406 -0.977899 -3.47087 0
M  V30 4241 O 381.51 -0.072685 -4.12336 0
M  V30 4242 H 380.851 -0.253443 -0.613728 0
M  V30 4243 H 383.381 -1.32061 -1.56272 0
M  V30 4244 H 383.391 -0.916739 -3.97567 0
M  V30 4245 H 382.066 -2.01807 -3.63657 0
M  V30 4246 H 380.643 -0.188703 -3.72422 0
M  V30 4247 N 382.828 1.3818 -0.7579 0
M  V30 4248 C 383.791 2.28764 -0.141286 0
M  V30 4249 C 384.791 1.47388 0.642907 0
M  V30 4250 O 385.981 1.67781 0.468536 0
M  V30 4251 C 383.113 3.31184 0.808069 0
M  V30 4252 H 384.306 2.848 -0.939633 0
M  V30 4253 H 381.859 1.47212 -0.525191 0
M  V30 4254 H 382.594 2.80247 1.63193 0
M  V30 4255 H 382.379 3.91314 0.248104 0
M  V30 4256 H 383.869 3.98909 1.23536 0
M  V30 4257 N 384.306 0.507319 1.49211 0
M  V30 4258 C 385.236 -0.256939 2.32082 0
M  V30 4259 C 386.217 -0.956609 1.40652 0
M  V30 4260 O 387.402 -0.946788 1.69557 0
M  V30 4261 C 384.532 -1.31802 3.21318 0
M  V30 4262 C 383.486 -0.737855 4.21592 0
M  V30 4263 C 382.812 -1.89992 4.99807 0
M  V30 4264 C 384.112 0.275325 5.21574 0
M  V30 4265 H 385.806 0.434798 2.96226 0
M  V30 4266 H 383.352 0.210546 1.42452 0
M  V30 4267 H 385.305 -1.86045 3.78107 0
M  V30 4268 H 384.029 -2.03903 2.5513 0
M  V30 4269 H 382.688 -0.217126 3.65956 0
M  V30 4270 H 382.336 -2.60877 4.30061 0
M  V30 4271 H 382.036 -1.51777 5.6766 0
M  V30 4272 H 383.56 -2.44657 5.59442 0
M  V30 4273 H 384.974 -0.179193 5.7302 0
M  V30 4274 H 383.371 0.573649 5.97352 0
M  V30 4275 H 384.441 1.18903 4.70096 0
M  V30 4276 N 385.784 -1.5574 0.241426 0
M  V30 4277 C 387.061 -1.90704 -0.434881 0
M  V30 4278 C 387.441 -1.16145 -1.76277 0
M  V30 4279 O 386.789 -0.277152 -2.26813 0
M  V30 4280 C 386.999 -3.43657 -0.608343 0
M  V30 4281 C 388.347 -4.14806 -0.906725 0
M  V30 4282 O 389.371 -3.49366 -0.694408 0
M  V30 4283 O 388.23 -5.30548 -1.31075 0
M  V30 4284 H 385.324 -0.793592 -0.23268 0
M  V30 4285 H 387.87 -1.67288 0.285086 0
M  V30 4286 H 386.642 -3.89927 0.327505 0
M  V30 4287 H 386.265 -3.72918 -1.37906 0
M  V30 4288 N 387.262 0.0317525 -1.57568 0
M  V30 4289 C 388.492 0.733884 -1.93126 0
M  V30 4290 C 388.9 1.69563 -0.839352 0
M  V30 4291 O 388.243 1.82681 0.193175 0
M  V30 4292 C 388.305 1.54798 -3.24465 0
M  V30 4293 C 387.969 0.751304 -4.50782 0
M  V30 4294 C 388.966 0.0527632 -5.19873 0
M  V30 4295 C 386.651 0.706639 -4.97305 0
M  V30 4296 C 388.645 -0.679774 -6.33765 0
M  V30 4297 C 386.332 -0.0296449 -6.11093 0
M  V30 4298 C 387.33 -0.721614 -6.79177 0
M  V30 4299 O 387.018 -1.44595 -7.90789 0
M  V30 4300 H 386.75 0.211459 -0.642076 0
M  V30 4301 H 389.304 -0.00585615 -2.05399 0
M  V30 4302 H 387.534 2.33147 -3.08512 0
M  V30 4303 H 389.223 2.13247 -3.4537 0
M  V30 4304 H 389.989 0.0783188 -4.84937 0
M  V30 4305 H 385.868 1.23474 -4.44157 0
M  V30 4306 H 389.412 -1.22042 -6.86842 0
M  V30 4307 H 385.309 -0.0571331 -6.45475 0
M  V30 4308 H 386.077 -1.35935 -8.07133 0
M  V30 4309 N 388.74 1.54641 0.303973 0
M  V30 4310 C 389.67 1.88386 1.3796 0
M  V30 4311 C 390.651 0.742485 1.5304 0
M  V30 4312 O 391.836 0.997959 1.66597 0
M  V30 4313 C 388.966 2.12854 2.74427 0
M  V30 4314 C 387.92 3.28702 2.74115 0
M  V30 4315 C 387.246 3.38582 4.13844 0
M  V30 4316 C 388.546 4.65881 2.3612 0
M  V30 4317 H 390.24 2.78474 1.09966 0
M  V30 4318 H 387.786 1.33988 0.527556 0
M  V30 4319 H 389.739 2.35047 3.49758 0
M  V30 4320 H 388.463 1.19535 3.03939 0
M  V30 4321 H 387.122 3.06428 2.0124 0
M  V30 4322 H 386.77 2.42784 4.40528 0
M  V30 4323 H 386.47 4.16453 4.14537 0
M  V30 4324 H 387.994 3.63031 4.90959 0
M  V30 4325 H 389.408 4.87823 3.01167 0
M  V30 4326 H 387.805 5.46444 2.48031 0
M  V30 4327 H 388.875 4.66799 1.3125 0
M  V30 4328 N 390.218 -0.567019 1.47046 0
M  V30 4329 C 391.168 -1.67018 1.55207 0
M  V30 4330 C 392.152 -1.55543 0.411714 0
M  V30 4331 O 393.344 -1.64192 0.661064 0
M  V30 4332 C 390.473 -3.05801 1.56014 0
M  V30 4333 C 389.559 -3.22515 2.75399 0
M  V30 4334 N 389.95 -3.09329 4.00186 0
M  V30 4335 C 388.248 -3.53493 2.71954 0
M  V30 4336 C 388.949 -3.2847 4.80086 0
M  V30 4337 N 387.925 -3.54352 4.12233 0
M  V30 4338 H 391.727 -1.55377 2.4947 0
M  V30 4339 H 389.241 -0.771503 1.42904 0
M  V30 4340 H 391.238 -3.84996 1.59949 0
M  V30 4341 H 389.898 -3.18561 0.628396 0
M  V30 4342 H 390.909 -2.86863 4.31196 0
M  V30 4343 H 387.586 -3.7284 1.87873 0
M  V30 4344 H 388.976 -3.23326 5.88991 0
M  V30 4345 N 391.696 -1.35014 -0.812953 0
M  V30 4346 C 392.921 -1.31187 -1.60639 0
M  V30 4347 C 393.346 0.109382 -1.87782 0
M  V30 4348 O 392.704 1.07424 -1.46047 0
M  V30 4349 C 392.752 -2.11809 -2.91838 0
M  V30 4350 O 391.856 -1.49444 -3.8437 0
M  V30 4351 H 391.197 -0.450084 -0.488181 0
M  V30 4352 H 393.727 -1.77963 -1.00947 0
M  V30 4353 H 393.737 -2.23531 -3.41318 0
M  V30 4354 H 392.412 -3.15137 -2.71407 0
M  V30 4355 H 390.989 -1.46524 -3.42907 0
M  V30 4356 N 393.175 1.03435 -1.18907 0
M  V30 4357 C 394.085 2.15075 -0.937015 0
M  V30 4358 C 395.101 1.73706 0.101085 0
M  V30 4359 O 396.277 2.01232 -0.0822948 0
M  V30 4360 C 393.342 3.43458 -0.473057 0
M  V30 4361 C 392.403 3.99172 -1.57989 0
M  V30 4362 C 391.636 5.21427 -1.13797 0
M  V30 4363 O 391.859 5.704 0.000725941 0
M  V30 4364 O 390.793 5.69837 -1.9383 0
M  V30 4365 H 394.619 2.39198 -1.87131 0
M  V30 4366 H 392.204 1.13506 -0.971427 0
M  V30 4367 H 394.086 4.20811 -0.222702 0
M  V30 4368 H 392.761 3.20793 0.432869 0
M  V30 4369 H 391.668 3.23178 -1.88433 0
M  V30 4370 H 393.001 4.2619 -2.46217 0
M  V30 4371 N 394.653 0.992116 1.22453 0
M  V30 4372 C 395.6 0.541731 2.24352 0
M  V30 4373 C 396.57 -0.425519 1.60557 0
M  V30 4374 O 397.755 -0.330453 1.87917 0
M  V30 4375 C 394.895 -0.138248 3.44823 0
M  V30 4376 C 394.008 0.870649 4.23136 0
M  V30 4377 C 393.143 0.164269 5.30946 0
M  V30 4378 C 392.182 1.16159 6.00977 0
M  V30 4379 N 391.319 0.483568 7.00433 0
M  V30 4380 H 396.159 1.41541 2.62241 0
M  V30 4381 H 393.696 0.709013 1.28885 0
M  V30 4382 H 395.654 -0.5494 4.13567 0
M  V30 4383 H 394.284 -0.975721 3.077 0
M  V30 4384 H 393.336 1.40013 3.53696 0
M  V30 4385 H 394.648 1.63014 4.7141 0
M  V30 4386 H 393.802 -0.303653 6.0594 0
M  V30 4387 H 392.541 -0.627733 4.83643 0
M  V30 4388 H 391.546 1.64015 5.24766 0
M  V30 4389 H 392.771 1.95445 6.50368 0
M  V30 4390 H 390.717 -0.289012 6.55363 0
M  V30 4391 H 390.634 1.18152 7.4671 0
M  V30 4392 H 391.902 0.0384219 7.79491 0
M  V30 4393 N 396.131 -1.37776 0.765217 0
M  V30 4394 C 397.079 -2.32209 0.134798 0
M  V30 4395 C 398.073 -1.54607 -0.692315 0
M  V30 4396 O 399.279 -1.70052 -0.590109 0
M  V30 4397 H 395.654 -0.751591 0.0248005 0
M  V30 4398 H 397.625 -2.8297 0.947119 0
M  V30 4399 C 396.374 -3.39841 -0.735063 0
M  V30 4400 H 395.697 -3.99654 -0.107991 0
M  V30 4401 H 397.137 -4.08296 -1.14326 0
M  V30 4402 C 395.596 -2.79378 -1.88281 0
M  V30 4403 O 396.126 -2.69608 -2.97783 0
M  V30 4404 N 394.332 -2.37016 -1.68142 0
M  V30 4405 H 393.879 -2.45162 -0.790772 0
M  V30 4406 H 393.837 -1.96905 -2.45104 0
M  V30 4407 N 397.609 -0.515225 -1.4894 0
M  V30 4408 C 398.855 0.0242508 -2.02785 0
M  V30 4409 C 399.188 1.35323 -1.39289 0
M  V30 4410 O 398.463 1.87041 -0.533469 0
M  V30 4411 C 398.746 0.16184 -3.59736 0
M  V30 4412 C 398.599 -1.19127 -4.33738 0
M  V30 4413 C 399.918 0.895719 -4.30888 0
M  V30 4414 H 397.037 0.00733914 -0.736963 0
M  V30 4415 H 399.679 -0.669395 -1.77818 0
M  V30 4416 H 397.829 0.752624 -3.8114 0
M  V30 4417 H 399.501 -1.82202 -4.23792 0
M  V30 4418 H 397.744 -1.77695 -3.95736 0
M  V30 4419 H 398.415 -1.04815 -5.41957 0
M  V30 4420 H 400.891 0.394528 -4.14225 0
M  V30 4421 H 399.767 0.960859 -5.40425 0
M  V30 4422 H 400.028 1.9427 -3.97129 0
M  V30 4423 N 399.087 1.5561 -0.249682 0
M  V30 4424 C 400.333 1.99306 0.374841 0
M  V30 4425 C 400.666 1.13767 1.57387 0
M  V30 4426 O 399.941 0.201711 1.93451 0
M  V30 4427 C 400.224 3.51507 0.781986 0
M  V30 4428 C 400.077 4.4781 -0.422629 0
M  V30 4429 C 401.396 4.08884 1.62793 0
M  V30 4430 H 398.515 0.724572 0.134773 0
M  V30 4431 H 401.157 1.86719 -0.351549 0
M  V30 4432 H 399.307 3.62363 1.4009 0
M  V30 4433 H 400.979 4.48931 -1.06108 0
M  V30 4434 H 399.222 4.20518 -1.06524 0
M  V30 4435 H 399.893 5.51919 -0.0943766 0
M  V30 4436 H 402.369 4.01147 1.10547 0
M  V30 4437 H 401.245 5.1564 1.88166 0
M  V30 4438 H 401.506 3.57515 2.60068 0
M  V30 4439 N 400.565 -0.0233959 1.57583 0
M  V30 4440 C 401.795 -0.723631 1.93513 0
M  V30 4441 C 402.203 -1.69115 0.848333 0
M  V30 4442 O 401.546 -1.82781 -0.183484 0
M  V30 4443 C 401.608 -1.53075 3.25282 0
M  V30 4444 C 401.272 -0.727388 4.51174 0
M  V30 4445 C 402.269 -0.0251924 5.19894 0
M  V30 4446 C 399.954 -0.680256 4.97672 0
M  V30 4447 C 401.948 0.713374 6.33395 0
M  V30 4448 C 399.635 0.0620523 6.11068 0
M  V30 4449 C 400.633 0.757622 6.78785 0
M  V30 4450 O 400.321 1.48787 7.90011 0
M  V30 4451 H 400.053 -0.208051 0.643188 0
M  V30 4452 H 402.607 0.0167489 2.05393 0
M  V30 4453 H 400.837 -2.31508 3.09744 0
M  V30 4454 H 402.526 -2.11413 3.46496 0
M  V30 4455 H 403.292 -0.0526003 4.84971 0
M  V30 4456 H 399.171 -1.21116 4.44805 0
M  V30 4457 H 402.715 1.25683 6.86185 0
M  V30 4458 H 398.612 0.0913634 6.45435 0
M  V30 4459 H 399.38 1.40213 8.06401 0
M  V30 4460 N 402.043 -1.548 -0.295768 0
M  V30 4461 C 403.459 -1.4613 -0.641722 0
M  V30 4462 C 403.659 -0.656771 -1.90496 0
M  V30 4463 O 402.715 -0.166547 -2.5195 0
M  V30 4464 C 404.028 -2.90141 -0.789852 0
M  V30 4465 C 405.576 -3.00216 -0.885396 0
M  V30 4466 C 406.051 -4.45434 -1.06548 0
M  V30 4467 N 407.542 -4.49166 -1.13156 0
M  V30 4468 C 408.277 -5.58717 -1.28929 0
M  V30 4469 N 407.773 -6.78182 -1.41567 0
M  V30 4470 N 409.566 -5.46415 -1.31859 0
M  V30 4471 H 401.717 -2.05574 0.534147 0
M  V30 4472 H 403.98 -0.931259 0.177372 0
M  V30 4473 H 403.686 -3.51635 0.0675598 0
M  V30 4474 H 403.56 -3.37859 -1.67724 0
M  V30 4475 H 405.947 -2.38833 -1.73329 0
M  V30 4476 H 406.028 -2.55787 0.0261185 0
M  V30 4477 H 405.672 -5.07413 -0.222335 0
M  V30 4478 H 405.602 -4.87499 -1.9913 0
M  V30 4479 H 408.093 -3.631 -1.04721 0
M  V30 4480 H 408.406 -7.57428 -1.53372 0
M  V30 4481 H 406.751 -6.81037 -1.38613 0
M  V30 4482 H 409.942 -4.5203 -1.21601 0
M  V30 4483 H 410.115 -6.31841 -1.43808 0
M  V30 4484 N 403.521 0.559213 -1.47345 0
M  V30 4485 C 404.798 1.31997 -1.44348 0
M  V30 4486 C 405.178 2.1064 -0.139358 0
M  V30 4487 O 404.526 2.1091 0.879153 0
M  V30 4488 C 404.736 2.22618 -2.68779 0
M  V30 4489 C 406.084 2.83701 -3.1591 0
M  V30 4490 O 407.108 2.32921 -2.69493 0
M  V30 4491 O 405.967 3.75993 -3.966 0
M  V30 4492 H 403.061 0.594251 -0.575147 0
M  V30 4493 H 405.607 0.578282 -1.59543 0
M  V30 4494 H 404.379 1.64093 -3.55231 0
M  V30 4495 H 404.002 3.04085 -2.5616 0
M  V30 4496 N 404.999 1.35443 0.805782 0
M  V30 4497 C 405.929 1.31095 1.93226 0
M  V30 4498 C 406.91 0.185244 1.69088 0
M  V30 4499 O 408.095 0.380332 1.90439 0
M  V30 4500 C 405.225 1.08299 3.29983 0
M  V30 4501 C 404.179 2.17519 3.68605 0
M  V30 4502 C 403.505 1.79887 5.03532 0
M  V30 4503 C 404.805 3.5949 3.78898 0
M  V30 4504 H 406.499 2.25352 1.97122 0
M  V30 4505 H 404.045 1.0848 0.946996 0
M  V30 4506 H 405.998 1.03897 4.08391 0
M  V30 4507 H 404.722 0.104885 3.26432 0
M  V30 4508 H 403.381 2.2102 2.92482 0
M  V30 4509 H 403.029 0.80693 4.96485 0
M  V30 4510 H 402.729 2.53001 5.30344 0
M  V30 4511 H 404.253 1.77011 5.84379 0
M  V30 4512 H 405.667 3.58307 4.47536 0
M  V30 4513 H 404.064 4.31371 4.1718 0
M  V30 4514 H 405.134 3.95584 2.80431 0
M  V30 4515 N 406.477 -1.02803 1.19454 0
M  V30 4516 C 407.424 -2.11099 0.933046 0
M  V30 4517 C 408.394 -1.65571 -0.132447 0
M  V30 4518 O 409.579 -1.90797 0.00987576 0
M  V30 4519 C 406.719 -3.41763 0.478747 0
M  V30 4520 C 405.832 -4.00833 1.6111 0
M  V30 4521 C 404.967 -5.19511 1.10825 0
M  V30 4522 C 404.006 -5.70639 2.21445 0
M  V30 4523 N 403.143 -6.80589 1.72461 0
M  V30 4524 H 407.983 -2.32804 1.86028 0
M  V30 4525 H 405.52 -1.14179 0.927441 0
M  V30 4526 H 407.478 -4.16736 0.196745 0
M  V30 4527 H 406.108 -3.20166 -0.411493 0
M  V30 4528 H 405.16 -3.23066 2.00829 0
M  V30 4529 H 406.472 -4.34794 2.4445 0
M  V30 4530 H 405.626 -6.01645 0.781533 0
M  V30 4531 H 404.365 -4.87086 0.244606 0
M  V30 4532 H 403.37 -4.87116 2.54947 0
M  V30 4533 H 404.595 -6.05102 3.08267 0
M  V30 4534 H 402.541 -6.50016 0.884056 0
M  V30 4535 H 402.458 -7.13681 2.49389 0
M  V30 4536 H 403.726 -7.66317 1.42755 0
M  V30 4537 N 407.956 -0.998596 -1.21925 0
M  V30 4538 C 408.886 -0.573688 -2.26343 0
M  V30 4539 C 409.867 0.402296 -1.65274 0
M  V30 4540 O 411.052 0.291683 -1.91997 0
M  V30 4541 C 408.182 0.106839 -3.47136 0
M  V30 4542 C 407.136 -0.788269 -4.20678 0
M  V30 4543 C 406.462 0.0254927 -5.34694 0
M  V30 4544 C 407.762 -2.08784 -4.78755 0
M  V30 4545 H 409.456 -1.44651 -2.62138 0
M  V30 4546 H 407.002 -0.696975 -1.26009 0
M  V30 4547 H 408.955 0.415531 -4.19346 0
M  V30 4548 H 407.679 1.01424 -3.10452 0
M  V30 4549 H 406.338 -1.08069 -3.50309 0
M  V30 4550 H 405.986 0.933989 -4.94253 0
M  V30 4551 H 405.686 -0.570437 -5.84825 0
M  V30 4552 H 407.21 0.328147 -6.09718 0
M  V30 4553 H 408.624 -1.84272 -5.42878 0
M  V30 4554 H 407.021 -2.63307 -5.39249 0
M  V30 4555 H 408.091 -2.76284 -3.98491 0
M  V30 4556 N 409.434 1.37368 -0.772513 0
M  V30 4557 C 410.344 2.34053 -0.160081 0
M  V30 4558 C 411.36 1.60216 0.678728 0
M  V30 4559 O 412.536 1.92303 0.59847 0
M  V30 4560 C 409.601 3.3939 0.708182 0
M  V30 4561 C 408.662 4.29048 -0.147172 0
M  V30 4562 C 407.895 5.29354 0.679744 0
M  V30 4563 O 408.118 5.3723 1.91678 0
M  V30 4564 O 407.052 6.01835 0.0885444 0
M  V30 4565 H 410.878 2.88159 -0.959053 0
M  V30 4566 H 408.463 1.39543 -0.533685 0
M  V30 4567 H 410.345 4.03839 1.20384 0
M  V30 4568 H 409.02 2.8761 1.48533 0
M  V30 4569 H 407.927 3.67697 -0.689205 0
M  V30 4570 H 409.26 4.84134 -0.887423 0
M  V30 4571 N 410.912 0.523116 1.48665 0
M  V30 4572 C 411.86 -0.256859 2.31177 0
M  V30 4573 C 412.854 -0.94199 1.40794 0
M  V30 4574 O 414.06 -0.867157 1.57735 0
M  V30 4575 H 410.435 -0.1017 0.745091 0
M  V30 4576 H 412.406 0.458739 2.94853 0
M  V30 4577 C 411.155 -1.29503 3.22683 0
M  V30 4578 H 410.478 -0.777248 3.92172 0
M  V30 4579 H 411.918 -1.81233 3.83315 0
M  V30 4580 C 410.377 -2.32501 2.43813 0
M  V30 4581 O 410.907 -3.3881 2.15803 0
M  V30 4582 N 409.113 -2.05538 2.05432 0
M  V30 4583 H 408.66 -1.19104 2.28412 0
M  V30 4584 H 408.618 -2.74676 1.52973 0
M  V30 4585 N 412.39 -1.55475 0.257931 0
M  V30 4586 C 413.32 -2.24815 -0.630912 0
M  V30 4587 C 414.301 -1.23224 -1.17259 0
M  V30 4588 O 415.486 -1.51904 -1.20991 0
M  V30 4589 C 412.616 -2.95609 -1.82298 0
M  V30 4590 C 411.57 -4.03982 -1.41359 0
M  V30 4591 C 410.896 -4.6226 -2.68738 0
M  V30 4592 C 412.196 -5.19109 -0.57648 0
M  V30 4593 H 413.89 -2.99354 -0.0526878 0
M  V30 4594 H 411.436 -1.4398 -0.023901 0
M  V30 4595 H 413.389 -3.42822 -2.45054 0
M  V30 4596 H 412.113 -2.18577 -2.42676 0
M  V30 4597 H 410.772 -3.57555 -0.809324 0
M  V30 4598 H 410.42 -3.81915 -3.27338 0
M  V30 4599 H 410.12 -5.35424 -2.42065 0
M  V30 4600 H 411.644 -5.12212 -3.32372 0
M  V30 4601 H 413.058 -5.62479 -1.10861 0
M  V30 4602 H 411.455 -5.98729 -0.405351 0
M  V30 4603 H 412.525 -4.83174 0.408776 0
M  V30 4604 N 413.868 0.0150385 -1.57593 0
M  V30 4605 C 414.801 1.04475 -2.0288 0
M  V30 4606 C 415.779 1.3436 -0.915764 0
M  V30 4607 O 416.963 1.46779 -1.18271 0
M  V30 4608 C 414.09 2.37608 -2.41371 0
M  V30 4609 C 413.136 2.23487 -3.63257 0
M  V30 4610 S 413.969 1.57505 -5.11813 0
M  V30 4611 C 415.125 2.921 -5.5356 0
M  V30 4612 H 415.358 0.65907 -2.89903 0
M  V30 4613 H 412.891 0.225452 -1.52745 0
M  V30 4614 H 414.849 3.14165 -2.64217 0
M  V30 4615 H 413.51 2.7332 -1.54775 0
M  V30 4616 H 412.703 3.21802 -3.87891 0
M  V30 4617 H 412.305 1.55074 -3.40335 0
M  V30 4618 H 414.597 3.88419 -5.55101 0
M  V30 4619 H 415.54 2.72184 -6.53698 0
M  V30 4620 H 415.948 2.95318 -4.8109 0
M  V30 4621 N 415.346 1.54954 0.287554 0
M  V30 4622 C 416.276 1.89839 1.35954 0
M  V30 4623 C 417.257 0.758675 1.52244 0
M  V30 4624 O 418.442 1.01557 1.65529 0
M  V30 4625 C 415.572 2.15753 2.72154 0
M  V30 4626 C 414.526 3.3159 2.70614 0
M  V30 4627 C 413.852 3.42952 4.10229 0
M  V30 4628 C 415.152 4.68359 2.31165 0
M  V30 4629 H 416.846 2.79625 1.07007 0
M  V30 4630 H 414.392 1.3454 0.513316 0
M  V30 4631 H 416.345 2.38743 3.47246 0
M  V30 4632 H 415.069 1.22752 3.02654 0
M  V30 4633 H 413.728 3.08545 1.97979 0
M  V30 4634 H 413.376 2.47443 4.37928 0
M  V30 4635 H 413.076 4.20826 4.10097 0
M  V30 4636 H 414.6 3.68218 4.87081 0
M  V30 4637 H 416.014 4.9099 2.95976 0
M  V30 4638 H 414.411 5.49044 2.42221 0
M  V30 4639 H 415.481 4.68165 1.26291 0
M  V30 4640 N 416.824 -0.551391 1.4764 0
M  V30 4641 C 418.101 -1.31229 1.45046 0
M  V30 4642 C 418.481 -2.10563 0.150527 0
M  V30 4643 O 417.829 -2.11374 -0.867956 0
M  V30 4644 C 418.039 -2.21189 2.69956 0
M  V30 4645 C 419.387 -2.82021 3.1741 0
M  V30 4646 O 420.411 -2.31488 2.70724 0
M  V30 4647 O 419.27 -3.73885 3.98588 0
M  V30 4648 H 416.364 -0.591193 0.578291 0
M  V30 4649 H 418.91 -0.569813 1.59847 0
M  V30 4650 H 417.682 -1.62207 3.56096 0
M  V30 4651 H 417.305 -3.02722 2.57769 0
M  V30 4652 N 418.302 -1.35869 -0.798587 0
M  V30 4653 C 419.249 -1.29446 -1.91082 0
M  V30 4654 C 420.219 -0.16487 -1.6528 0
M  V30 4655 O 421.404 -0.349888 -1.87564 0
M  V30 4656 C 418.544 -1.0804 -3.27752 0
M  V30 4657 C 417.657 -2.29993 -3.65687 0
M  V30 4658 C 416.792 -2.01673 -4.91428 0
M  V30 4659 C 415.831 -3.19636 -5.22015 0
M  V30 4660 N 414.968 -2.91039 -6.38937 0
M  V30 4661 H 419.808 -2.24553 -1.95907 0
M  V30 4662 H 417.345 -1.11615 -0.958148 0
M  V30 4663 H 419.303 -0.936586 -4.06551 0
M  V30 4664 H 417.933 -0.16592 -3.22373 0
M  V30 4665 H 416.985 -2.55211 -2.82085 0
M  V30 4666 H 418.297 -3.18052 -3.84245 0
M  V30 4667 H 417.451 -1.84168 -5.78072 0
M  V30 4668 H 416.19 -1.10911 -4.74921 0
M  V30 4669 H 415.195 -3.37709 -4.33858 0
M  V30 4670 H 416.42 -4.11211 -5.40447 0
M  V30 4671 H 414.366 -2.0288 -6.2384 0
M  V30 4672 H 414.283 -3.72635 -6.57784 0
M  V30 4673 H 415.551 -2.77093 -7.28587 0
M  V30 4674 N 419.78 1.02168 -1.19998 0
M  V30 4675 C 421.057 1.72816 -0.916191 0
M  V30 4676 C 421.437 2.03081 0.576325 0
M  V30 4677 O 420.785 1.69122 1.53656 0
M  V30 4678 C 420.995 2.9997 -1.78378 0
M  V30 4679 C 422.343 3.73336 -2.02251 0
M  V30 4680 O 423.367 3.09914 -1.75589 0
M  V30 4681 O 422.226 4.87371 -2.47249 0
M  V30 4682 H 419.32 0.752924 -0.342103 0
M  V30 4683 H 421.866 1.08062 -1.30846 0
M  V30 4684 H 420.638 2.73888 -2.79466 0
M  V30 4685 H 420.261 3.72464 -1.39126 0
M  V30 4686 N 421.258 1.00505 1.21394 0
M  V30 4687 C 422.506 0.686415 1.90086 0
M  V30 4688 C 422.827 -0.785264 1.7849 0
M  V30 4689 O 422.097 -1.56387 1.17983 0
M  V30 4690 H 420.677 0.2509 0.703604 0
M  V30 4691 H 423.339 1.27417 1.47482 0
M  V30 4692 H 422.435 0.959621 2.96981 0
M  V30 4693 N 422.737 -1.36956 0.779787 0
M  V30 4694 C 423.687 -2.27539 0.144892 0
M  V30 4695 C 424.671 -1.46493 -0.665488 0
M  V30 4696 O 425.863 -1.68968 -0.527141 0
M  V30 4697 C 422.992 -3.35512 -0.727082 0
M  V30 4698 C 422.078 -4.24001 0.0915642 0
M  V30 4699 N 422.469 -4.92757 1.14125 0
M  V30 4700 C 420.767 -4.45807 -0.131141 0
M  V30 4701 C 421.468 -5.58138 1.6388 0
M  V30 4702 N 420.444 -5.35241 0.94962 0
M  V30 4703 H 424.246 -2.78176 0.948446 0
M  V30 4704 H 421.76 -1.50169 0.618315 0
M  V30 4705 H 423.757 -3.99324 -1.19776 0
M  V30 4706 H 422.417 -2.86431 -1.52929 0
M  V30 4707 H 423.428 -4.94984 1.52353 0
M  V30 4708 H 420.105 -4.07582 -0.904621 0
M  V30 4709 H 421.495 -6.23071 2.51461 0
M  V30 4710 N 424.215 -0.530993 -1.48385 0
M  V30 4711 C 425.464 0.00474348 -2.01699 0
M  V30 4712 C 425.777 1.35227 -1.41325 0
M  V30 4713 O 426.983 1.97643 -1.86144 0
M  V30 4714 C 425.439 0.0588473 -3.59852 0
M  V30 4715 C 425.047 -1.28385 -4.2921 0
M  V30 4716 C 426.791 0.543358 -4.21008 0
M  V30 4717 C 424.698 -1.19028 -5.79298 0
M  V30 4718 H 423.628 0.00554317 -0.75398 0
M  V30 4719 H 426.279 -0.674924 -1.70637 0
M  V30 4720 H 424.661 0.803612 -3.8776 0
M  V30 4721 H 425.835 -2.04426 -4.12973 0
M  V30 4722 H 424.15 -1.70418 -3.7993 0
M  V30 4723 H 426.747 0.631351 -5.3096 0
M  V30 4724 H 427.09 1.54937 -3.86394 0
M  V30 4725 H 427.623 -0.145754 -3.97533 0
M  V30 4726 H 424.362 -2.17147 -6.18488 0
M  V30 4727 H 423.882 -0.471246 -5.97946 0
M  V30 4728 H 425.561 -0.881365 -6.40969 0
M  V30 4729 N 425.693 1.55336 -0.266172 0
M  V30 4730 C 426.64 2.22172 0.625165 0
M  V30 4731 C 427.61 1.19211 1.15663 0
M  V30 4732 O 428.795 1.47723 1.20758 0
M  V30 4733 C 425.935 2.93972 1.8076 0
M  V30 4734 C 425.048 4.11632 1.31084 0
M  V30 4735 C 424.183 4.71099 2.45436 0
M  V30 4736 C 423.222 5.8097 1.92718 0
M  V30 4737 N 422.359 6.34538 3.00509 0
M  V30 4738 H 427.199 2.9796 0.0485582 0
M  V30 4739 H 424.736 1.47095 0.0122024 0
M  V30 4740 H 426.694 3.33811 2.50251 0
M  V30 4741 H 425.324 2.20623 2.35638 0
M  V30 4742 H 424.376 3.76975 0.509326 0
M  V30 4743 H 425.688 4.90893 0.884633 0
M  V30 4744 H 424.842 5.13612 3.22936 0
M  V30 4745 H 423.581 3.91096 2.91368 0
M  V30 4746 H 422.586 5.37916 1.13695 0
M  V30 4747 H 423.811 6.62836 1.47733 0
M  V30 4748 H 421.757 5.57433 3.45839 0
M  V30 4749 H 421.674 7.09046 2.62279 0
M  V30 4750 H 422.942 6.81709 3.78011 0
M  V30 4751 N 427.171 -0.0066808 1.57599 0
M  V30 4752 C 428.42 -0.692078 1.89455 0
M  V30 4753 C 428.733 -1.75306 0.867586 0
M  V30 4754 O 429.939 -2.49262 1.07614 0
M  V30 4755 C 428.395 -1.2821 3.36289 0
M  V30 4756 C 428.003 -0.256291 4.47266 0
M  V30 4757 C 429.747 -1.94608 3.77264 0
M  V30 4758 C 427.654 -0.855927 5.85173 0
M  V30 4759 H 426.584 -0.262252 0.706923 0
M  V30 4760 H 429.235 0.052769 1.83424 0
M  V30 4761 H 427.617 -2.0774 3.37135 0
M  V30 4762 H 428.791 0.513923 4.57925 0
M  V30 4763 H 427.106 0.306862 4.15268 0
M  V30 4764 H 429.703 -2.40364 4.77629 0
M  V30 4765 H 430.046 -2.77382 3.10427 0
M  V30 4766 H 430.579 -1.21822 3.78688 0
M  V30 4767 H 427.318 -0.0671161 6.55466 0
M  V30 4768 H 426.838 -1.59546 5.78191 0
M  V30 4769 H 428.517 -1.35658 6.32618 0
M  V30 4770 N 428.649 -1.55105 -0.279332 0
M  V30 4771 C 429.877 -1.7943 -1.03017 0
M  V30 4772 C 430.292 -0.564456 -1.80165 0
M  V30 4773 O 429.649 0.466326 -1.76442 0
M  V30 4774 C 429.7 -3.0155 -1.99374 0
M  V30 4775 O 429.421 -4.19784 -1.25352 0
M  V30 4776 C 430.922 -3.3843 -2.86321 0
M  V30 4777 H 428.142 -0.597882 -0.304594 0
M  V30 4778 H 430.686 -2.02105 -0.312035 0
M  V30 4779 H 428.841 -2.81019 -2.66659 0
M  V30 4780 H 429.255 -4.88781 -1.90246 0
M  V30 4781 H 430.729 -4.27066 -3.49741 0
M  V30 4782 H 431.206 -2.57549 -3.5576 0
M  V30 4783 H 431.812 -3.61197 -2.24536 0
M  V30 4784 N 430.127 0.543554 -1.4793 0
M  V30 4785 C 431.404 1.30458 -1.4574 0
M  V30 4786 C 431.784 2.1048 -0.161692 0
M  V30 4787 O 431.132 2.11831 0.856734 0
M  V30 4788 C 431.342 2.19754 -2.71126 0
M  V30 4789 C 432.69 2.80334 -3.18901 0
M  V30 4790 O 433.714 2.30049 -2.71948 0
M  V30 4791 O 432.573 3.71766 -4.00565 0
M  V30 4792 H 429.667 0.588117 -0.581418 0
M  V30 4793 H 432.213 0.561328 -1.60147 0
M  V30 4794 H 430.985 1.60316 -3.56952 0
M  V30 4795 H 430.608 3.01351 -2.59371 0
M  V30 4796 N 431.605 1.3629 0.791371 0
M  V30 4797 C 432.852 1.30412 1.54916 0
M  V30 4798 C 433.18 -0.117162 1.94147 0
M  V30 4799 O 432.435 -1.08599 1.62803 0
M  V30 4800 C 432.734 2.17068 2.8393 0
M  V30 4801 C 432.4 3.65645 2.63846 0
M  V30 4802 C 431.062 4.0614 2.58077 0
M  V30 4803 C 433.414 4.59855 2.45322 0
M  V30 4804 C 430.742 5.3899 2.31748 0
M  V30 4805 C 433.094 5.9292 2.2052 0
M  V30 4806 C 431.758 6.32542 2.13183 0
M  V30 4807 H 431.028 0.47721 0.566879 0
M  V30 4808 H 433.675 1.68325 0.913172 0
M  V30 4809 H 431.98 1.72085 3.51986 0
M  V30 4810 H 433.677 2.09846 3.4171 0
M  V30 4811 H 430.267 3.33518 2.69191 0
M  V30 4812 H 434.451 4.29443 2.48782 0
M  V30 4813 H 429.707 5.68672 2.24548 0
M  V30 4814 H 433.881 6.65487 2.05182 0
M  V30 4815 H 431.508 7.35412 1.92544 0
M  V30 4816 N 433.083 -1.0153 1.20538 0
M  V30 4817 C 434.331 -1.74803 1.01432 0
M  V30 4818 C 434.652 -1.8963 -0.454456 0
M  V30 4819 O 433.922 -1.43975 -1.32846 0
M  V30 4820 H 432.502 -0.647598 0.372324 0
M  V30 4821 H 435.164 -1.22402 1.5167 0
M  V30 4822 H 434.26 -2.75114 1.47373 0
M  V30 4823 N 434.561 -1.01147 -1.20859 0
M  V30 4824 C 435.491 -0.597663 -2.25722 0
M  V30 4825 C 436.472 0.384744 -1.65692 0
M  V30 4826 O 437.657 0.271303 -1.92296 0
M  V30 4827 C 434.787 0.0700149 -3.47229 0
M  V30 4828 C 433.741 -0.832843 -4.19819 0
M  V30 4829 C 433.067 -0.0312202 -5.34691 0
M  V30 4830 C 434.367 -2.1385 -4.76514 0
M  V30 4831 H 436.061 -1.47423 -2.60589 0
M  V30 4832 H 433.607 -0.710301 -1.25263 0
M  V30 4833 H 435.56 0.37103 -4.19763 0
M  V30 4834 H 434.284 0.981259 -3.11511 0
M  V30 4835 H 432.943 -1.11778 -3.49144 0
M  V30 4836 H 432.591 0.881515 -4.95215 0
M  V30 4837 H 432.291 -0.632434 -5.84187 0
M  V30 4838 H 433.815 0.26346 -6.10031 0
M  V30 4839 H 435.229 -1.9002 -5.40893 0
M  V30 4840 H 433.626 -2.69012 -5.36426 0
M  V30 4841 H 434.696 -2.80495 -3.95538 0
M  V30 4842 N 436.039 1.36541 -0.78704 0
M  V30 4843 C 437.279 2.01138 -0.363714 0
M  V30 4844 C 437.643 1.61114 1.04433 0
M  V30 4845 O 438.844 2.18285 1.56861 0
M  V30 4846 C 437.115 3.53603 -0.519582 0
M  V30 4847 S 438.674 4.38415 -0.183782 0
M  V30 4848 H 435.492 0.697263 -0.13909 0
M  V30 4849 H 438.094 1.66475 -1.02501 0
M  V30 4850 H 436.798 3.8022 -1.5447 0
M  V30 4851 H 436.329 3.93084 0.15773 0
M  V30 4852 H 438.344 4.85698 1.01547 0
M  V30 4853 N 437.518 0.538854 1.48102 0
M  V30 4854 C 438.465 -0.219042 2.29758 0
M  V30 4855 C 439.435 -0.925562 1.37922 0
M  V30 4856 O 440.62 -0.924855 1.66886 0
M  V30 4857 C 437.76 -1.25452 3.2149 0
M  V30 4858 C 436.873 -0.555943 4.28408 0
M  V30 4859 C 436.008 -1.57512 5.0731 0
M  V30 4860 C 435.047 -0.860498 6.06021 0
M  V30 4861 N 434.184 -1.82564 6.77949 0
M  V30 4862 H 439.024 0.483449 2.94052 0
M  V30 4863 H 436.561 0.250247 1.44956 0
M  V30 4864 H 438.519 -1.86727 3.7308 0
M  V30 4865 H 437.149 -1.92528 2.591 0
M  V30 4866 H 436.201 0.170938 3.80016 0
M  V30 4867 H 437.513 0.00474616 4.988 0
M  V30 4868 H 436.667 -2.26191 5.62959 0
M  V30 4869 H 435.406 -2.16972 4.36778 0
M  V30 4870 H 434.411 -0.159686 5.49568 0
M  V30 4871 H 435.636 -0.271897 6.78555 0
M  V30 4872 H 433.582 -2.40915 6.10161 0
M  V30 4873 H 433.499 -1.31662 7.44447 0
M  V30 4874 H 434.767 -2.50414 7.38182 0
M  V30 4875 N 438.996 -1.55193 0.274407 0
M  V30 4876 C 439.906 -2.26164 -0.623473 0
M  V30 4877 C 440.922 -1.28729 -1.17068 0
M  V30 4878 O 442.098 -1.61663 -1.20112 0
M  V30 4879 C 439.163 -2.96833 -1.7914 0
M  V30 4880 C 438.224 -4.09745 -1.28093 0
M  V30 4881 C 437.457 -4.77034 -2.3932 0
M  V30 4882 O 437.68 -4.4353 -3.5866 0
M  V30 4883 O 436.614 -5.64996 -2.07516 0
M  V30 4884 H 440.44 -3.03661 -0.0485661 0
M  V30 4885 H 438.025 -1.49341 0.0418382 0
M  V30 4886 H 439.907 -3.41248 -2.4724 0
M  V30 4887 H 438.582 -2.22253 -2.35341 0
M  V30 4888 H 437.489 -3.69787 -0.566416 0
M  V30 4889 H 438.822 -4.86224 -0.764683 0
M  V30 4890 N 440.474 -0.00167713 -1.576 0
M  V30 4891 C 441.722 0.681471 -1.90264 0
M  V30 4892 C 442.043 1.7422 -0.875924 0
M  V30 4893 O 441.313 1.95709 0.0864412 0
M  V30 4894 H 439.893 0.254696 -0.702239 0
M  V30 4895 H 442.555 -0.0429996 -1.94853 0
M  V30 4896 H 441.651 1.15166 -2.90075 0
M  V30 4897 N 441.952 1.55251 0.271103 0
M  V30 4898 C 443.201 1.75151 1.00025 0
M  V30 4899 C 443.514 0.561041 1.87381 0
M  V30 4900 O 444.72 0.642506 2.63788 0
M  V30 4901 C 443.176 3.09999 1.82835 0
M  V30 4902 C 442.784 4.3662 1.00336 0
M  V30 4903 C 444.528 3.39249 2.55168 0
M  V30 4904 C 442.435 5.62506 1.82595 0
M  V30 4905 H 441.365 0.652877 0.377183 0
M  V30 4906 H 444.016 1.81708 0.255843 0
M  V30 4907 H 442.398 2.97485 2.61378 0
M  V30 4908 H 443.572 4.60055 0.261959 0
M  V30 4909 H 441.887 4.14527 0.394486 0
M  V30 4910 H 444.484 4.3051 3.1712 0
M  V30 4911 H 444.827 2.59467 3.2555 0
M  V30 4912 H 445.36 3.52869 1.83653 0
M  V30 4913 H 442.099 6.45041 1.16631 0
M  V30 4914 H 441.619 5.43211 2.54327 0
M  V30 4915 H 443.298 6.00875 2.39913 0
M  V30 4916 N 443.43 -0.535701 1.48216 0
M  V30 4917 C 444.377 -1.64083 1.62312 0
M  V30 4918 C 445.347 -1.59448 0.465365 0
M  V30 4919 O 446.532 -1.77959 0.688135 0
M  V30 4920 C 443.672 -3.0236 1.66349 0
M  V30 4921 C 442.785 -3.17273 2.93193 0
M  V30 4922 C 441.92 -4.46075 2.88427 0
M  V30 4923 C 440.959 -4.54496 4.1 0
M  V30 4924 N 440.096 -5.7468 4.03345 0
M  V30 4925 H 444.936 -1.51374 2.5669 0
M  V30 4926 H 442.473 -0.737059 1.27302 0
M  V30 4927 H 444.431 -3.82461 1.66672 0
M  V30 4928 H 443.061 -3.13854 0.754672 0
M  V30 4929 H 442.113 -2.30462 3.02641 0
M  V30 4930 H 443.425 -3.19357 3.83162 0
M  V30 4931 H 442.579 -5.3446 2.87119 0
M  V30 4932 H 441.318 -4.46504 1.96177 0
M  V30 4933 H 440.323 -3.64519 4.11589 0
M  V30 4934 H 441.548 -4.5581 5.03402 0
M  V30 4935 H 439.494 -5.76017 3.13912 0
M  V30 4936 H 439.411 -5.78234 4.87013 0
M  V30 4937 H 440.679 -6.65367 4.06087 0
M  V30 4938 N 444.908 -1.36708 -0.784132 0
M  V30 4939 C 446.185 -1.21776 -1.53069 0
M  V30 4940 C 446.565 0.193876 -2.10208 0
M  V30 4941 O 445.913 1.20012 -1.94446 0
M  V30 4942 C 446.123 -2.30395 -2.62143 0
M  V30 4943 C 447.471 -2.67325 -3.29882 0
M  V30 4944 O 448.495 -2.29478 -2.7243 0
M  V30 4945 O 447.354 -3.32485 -4.33724 0
M  V30 4946 H 444.448 -0.474459 -0.677361 0
M  V30 4947 H 446.994 -1.48454 -0.82216 0
M  V30 4948 H 445.766 -3.2498 -2.17953 0
M  V30 4949 H 445.389 -2.05112 -3.40609 0
M  V30 4950 N 446.386 1.0089 -1.21074 0
M  V30 4951 C 447.634 1.74262 -1.02358 0
M  V30 4952 C 447.955 1.89869 0.444393 0
M  V30 4953 O 447.225 1.44677 1.32081 0
M  V30 4954 H 445.805 0.645615 -0.375754 0
M  V30 4955 H 448.467 1.21596 -1.52317 0
M  V30 4956 H 447.563 2.74328 -1.4883 0
M  V30 4957 N 447.864 1.01787 1.20321 0
M  V30 4958 C 448.827 0.593972 2.2137 0
M  V30 4959 C 449.827 -0.336553 1.57239 0
M  V30 4960 O 451.017 -0.125069 1.7375 0
M  V30 4961 C 448.149 -0.132433 3.40643 0
M  V30 4962 H 449.342 1.48791 2.60387 0
M  V30 4963 H 446.895 0.807803 1.33807 0
M  V30 4964 H 447.63 -1.04123 3.0713 0
M  V30 4965 H 447.415 0.53605 3.88418 0
M  V30 4966 H 448.905 -0.416314 4.1552 0
M  V30 4967 N 449.342 -1.36122 0.79427 0
M  V30 4968 C 450.57 -2.03362 0.380989 0
M  V30 4969 C 450.985 -1.59881 -1.00416 0
M  V30 4970 O 450.342 -0.790515 -1.6449 0
M  V30 4971 C 450.393 -3.58804 0.440649 0
M  V30 4972 O 450.114 -4.007 1.77118 0
M  V30 4973 C 451.615 -4.43296 0.0186117 0
M  V30 4974 H 448.835 -0.652526 0.156367 0
M  V30 4975 H 451.379 -1.73998 1.07447 0
M  V30 4976 H 449.534 -3.8686 -0.204458 0
M  V30 4977 H 449.948 -4.95309 1.72538 0
M  V30 4978 H 451.422 -5.51887 0.111488 0
M  V30 4979 H 451.899 -4.2684 -1.03461 0
M  V30 4980 H 452.505 -4.20512 0.636395 0
M  V30 4981 N 450.82 -0.546701 -1.47814 0
M  V30 4982 C 451.753 0.254472 -2.26777 0
M  V30 4983 C 452.731 0.929809 -1.33392 0
M  V30 4984 O 453.915 0.950889 -1.62759 0
M  V30 4985 C 451.042 1.36171 -3.10121 0
M  V30 4986 C 450.088 0.796038 -4.19005 0
M  V30 4987 S 450.921 -0.349191 -5.3436 0
M  V30 4988 C 452.077 0.760122 -6.21267 0
M  V30 4989 H 452.31 -0.415612 -2.94381 0
M  V30 4990 H 449.843 -0.332809 -1.5077 0
M  V30 4991 H 451.801 1.99588 -3.58713 0
M  V30 4992 H 450.462 2.00359 -2.41899 0
M  V30 4993 H 449.655 1.62719 -4.7701 0
M  V30 4994 H 449.257 0.238246 -3.7324 0
M  V30 4995 H 451.549 1.65479 -6.5698 0
M  V30 4996 H 452.492 0.217673 -7.07765 0
M  V30 4997 H 452.9 1.04806 -5.54685 0
M  V30 4998 N 452.299 1.55045 -0.282633 0
M  V30 4999 C 453.246 2.22822 0.601566 0
M  V30 5000 C 454.216 1.20431 1.14392 0
M  V30 5001 O 455.401 1.48996 1.19184 0
M  V30 5002 C 452.541 2.95873 1.77632 0
M  V30 5003 C 451.654 4.12999 1.26711 0
M  V30 5004 C 450.789 4.73676 2.40426 0
M  V30 5005 C 449.828 5.82981 1.86545 0
M  V30 5006 N 448.965 6.3769 2.93762 0
M  V30 5007 H 453.805 2.97995 0.0169528 0
M  V30 5008 H 451.342 1.471 -0.00339964 0
M  V30 5009 H 453.3 3.36447 2.46697 0
M  V30 5010 H 451.93 2.2311 2.33285 0
M  V30 5011 H 450.982 3.77494 0.469314 0
M  V30 5012 H 452.294 4.91803 0.832518 0
M  V30 5013 H 451.448 5.17008 3.17471 0
M  V30 5014 H 450.187 3.94164 2.87203 0
M  V30 5015 H 449.192 5.39092 1.07983 0
M  V30 5016 H 450.417 6.64366 1.40694 0
M  V30 5017 H 448.363 5.61069 3.39908 0
M  V30 5018 H 448.28 7.11788 2.54744 0
M  V30 5019 H 449.548 6.8568 3.7076 0
M  V30 5020 N 453.777 0.010035 1.57597 0
M  V30 5021 C 455.005 -0.683413 1.95287 0
M  V30 5022 C 455.42 -1.66747 0.885481 0
M  V30 5023 O 454.777 -1.82003 -0.134629 0
M  V30 5024 C 454.828 -1.40652 3.33015 0
M  V30 5025 O 454.549 -0.461916 4.35658 0
M  V30 5026 C 456.05 -2.19356 3.85225 0
M  V30 5027 H 453.27 -0.189708 0.643624 0
M  V30 5028 H 455.814 0.0641359 2.04399 0
M  V30 5029 H 453.969 -2.10562 3.2518 0
M  V30 5030 H 454.383 -0.973215 5.15392 0
M  V30 5031 H 455.857 -2.65433 4.83993 0
M  V30 5032 H 456.334 -3.02457 3.18459 0
M  V30 5033 H 456.94 -1.54442 3.96267 0
M  V30 5034 N 455.255 -1.55392 -0.262866 0
M  V30 5035 C 456.502 -1.76476 -0.993109 0
M  V30 5036 C 456.83 -0.571479 -1.85915 0
M  V30 5037 O 456.085 0.445733 -1.90556 0
M  V30 5038 C 456.384 -3.02889 -1.89718 0
M  V30 5039 C 456.05 -4.34974 -1.18781 0
M  V30 5040 C 454.712 -4.7087 -0.991699 0
M  V30 5041 C 457.064 -5.16695 -0.683798 0
M  V30 5042 C 454.392 -5.86036 -0.279024 0
M  V30 5043 C 456.744 -6.32598 0.0153327 0
M  V30 5044 C 455.408 -6.67127 0.223062 0
M  V30 5045 H 454.678 -0.64577 -0.363404 0
M  V30 5046 H 457.325 -1.89664 -0.264525 0
M  V30 5047 H 455.63 -2.84644 -2.6923 0
M  V30 5048 H 457.327 -3.16399 -2.46359 0
M  V30 5049 H 453.917 -4.06765 -1.35058 0
M  V30 5050 H 458.101 -4.8943 -0.8229 0
M  V30 5051 H 453.357 -6.11306 -0.107456 0
M  V30 5052 H 457.531 -6.95171 0.413584 0
M  V30 5053 H 455.158 -7.56216 0.777265 0
M  V30 5054 N 456.733 0.527833 -1.48498 0
M  V30 5055 C 457.973 1.29401 -1.58224 0
M  V30 5056 C 458.337 1.90348 -0.251327 0
M  V30 5057 O 459.538 2.67868 -0.223588 0
M  V30 5058 C 457.809 2.35266 -2.69044 0
M  V30 5059 S 459.368 3.2158 -2.98549 0
M  V30 5060 H 456.186 0.440138 -0.558391 0
M  V30 5061 H 458.788 0.601079 -1.8603 0
M  V30 5062 H 457.492 1.88975 -3.64303 0
M  V30 5063 H 457.023 3.09263 -2.43146 0
M  V30 5064 H 459.038 4.35391 -2.38011 0
M  V30 5065 N 458.211 1.37122 0.776871 0
M  V30 5066 C 459.459 1.31787 1.53221 0
M  V30 5067 C 459.78 -0.0987589 1.9475 0
M  V30 5068 O 459.05 -1.0417 1.65908 0
M  V30 5069 H 457.63 0.484839 0.568278 0
M  V30 5070 H 460.292 1.71556 0.924917 0
M  V30 5071 H 459.388 1.95355 2.43398 0
M  V30 5072 N 459.689 -1.00246 1.21608 0
M  V30 5073 C 460.917 -1.77631 1.06089 0
M  V30 5074 C 461.332 -1.84746 -0.38916 0
M  V30 5075 O 460.689 -1.31068 -1.26994 0
M  V30 5076 C 460.74 -3.21415 1.65453 0
M  V30 5077 O 460.461 -3.14703 3.04785 0
M  V30 5078 C 461.962 -4.15289 1.55079 0
M  V30 5079 H 459.182 -0.558162 0.37242 0
M  V30 5080 H 461.726 -1.26093 1.60999 0
M  V30 5081 H 459.881 -3.70053 1.14629 0
M  V30 5082 H 460.295 -4.05056 3.33212 0
M  V30 5083 H 461.769 -5.13965 2.01355 0
M  V30 5084 H 462.246 -4.36279 0.505665 0
M  V30 5085 H 462.852 -3.72543 2.05163 0
M  V30 5086 N 461.167 -1.02423 -1.1978 0
M  V30 5087 C 462.578 -0.748389 -1.71044 0
M  V30 5088 C 462.929 0.732398 -1.82017 0
M  V30 5089 O 462.054 1.57116 -1.48807 0
M  V30 5090 C 462.649 -1.35187 -3.1066 0
M  V30 5091 C 461.208 -1.12472 -3.59203 0
M  V30 5092 C 460.355 -1.45283 -2.36195 0
M  V30 5093 H 463.306 -1.19275 -1.04686 0
M  V30 5094 H 463.327 -0.746408 -3.73107 0
M  V30 5095 H 462.839 -2.4296 -3.02642 0
M  V30 5096 H 460.94 -0.0649983 -3.72543 0
M  V30 5097 H 461.053 -1.81016 -4.43588 0
M  V30 5098 H 459.417 -0.872034 -2.39307 0
M  V30 5099 H 460.2 -2.54129 -2.30811 0
M  V30 5100 N 462.645 1.35699 -0.801477 0
M  V30 5101 C 463.555 2.33661 -0.209691 0
M  V30 5102 C 464.571 1.6162 0.644591 0
M  V30 5103 O 465.747 1.93529 0.557545 0
M  V30 5104 C 462.812 3.40816 0.636033 0
M  V30 5105 C 461.873 4.28639 -0.238147 0
M  V30 5106 C 461.106 5.30676 0.567307 0
M  V30 5107 O 461.329 5.41174 1.8024 0
M  V30 5108 O 460.263 6.01887 -0.0391336 0
M  V30 5109 H 464.089 2.8606 -1.01996 0
M  V30 5110 H 461.674 1.38379 -0.563164 0
M  V30 5111 H 463.556 4.06301 1.11791 0
M  V30 5112 H 462.231 2.90696 1.42399 0
M  V30 5113 H 461.138 3.66152 -0.767044 0
M  V30 5114 H 462.471 4.82143 -0.989915 0
M  V30 5115 N 464.123 0.554532 1.47522 0
M  V30 5116 C 465.353 0.0342074 2.06572 0
M  V30 5117 C 465.761 -1.26375 1.40805 0
M  V30 5118 O 465.104 -1.7683 0.49769 0
M  V30 5119 C 465.166 -0.235096 3.5873 0
M  V30 5120 C 464.83 0.973024 4.46521 0
M  V30 5121 C 465.827 1.8779 4.848 0
M  V30 5122 C 463.512 1.18694 4.88075 0
M  V30 5123 C 465.506 2.98039 5.63428 0
M  V30 5124 C 463.193 2.29254 5.66468 0
M  V30 5125 C 464.191 3.18757 6.04055 0
M  V30 5126 O 463.879 4.27401 6.8087 0
M  V30 5127 H 463.611 0.041587 0.67472 0
M  V30 5128 H 466.165 0.766748 1.90552 0
M  V30 5129 H 464.395 -1.02191 3.72953 0
M  V30 5130 H 466.084 -0.700477 3.9981 0
M  V30 5131 H 466.85 1.72467 4.53299 0
M  V30 5132 H 462.729 0.49947 4.58286 0
M  V30 5133 H 466.273 3.67926 5.92685 0
M  V30 5134 H 462.17 2.4455 5.97382 0
M  V30 5135 H 462.938 4.25415 6.9926 0
M  V30 5136 N 465.601 -1.54893 0.290851 0
M  V30 5137 C 466.531 -2.26103 -0.583084 0
M  V30 5138 C 467.512 -1.25684 -1.14619 0
M  V30 5139 O 468.697 -1.54436 -1.17741 0
M  V30 5140 C 465.827 -2.99409 -1.75987 0
M  V30 5141 C 464.781 -4.0689 -1.32758 0
M  V30 5142 C 464.107 -4.67856 -2.58872 0
M  V30 5143 C 465.407 -5.20215 -0.46624 0
M  V30 5144 H 467.101 -2.99398 0.0108214 0
M  V30 5145 H 464.647 -1.43998 0.00664468 0
M  V30 5146 H 466.6 -3.47943 -2.37727 0
M  V30 5147 H 465.324 -2.23675 -2.37985 0
M  V30 5148 H 463.983 -3.59191 -0.733299 0
M  V30 5149 H 463.631 -3.88772 -3.19163 0
M  V30 5150 H 463.331 -5.40438 -2.30653 0
M  V30 5151 H 464.855 -5.19147 -3.21433 0
M  V30 5152 H 466.269 -5.64704 -0.989047 0
M  V30 5153 H 464.666 -5.99455 -0.27826 0
M  V30 5154 H 465.736 -4.82198 0.511173 0
M  V30 5155 N 467.08 -0.0183926 -1.57589 0
M  V30 5156 C 468.043 0.951986 -2.08494 0
M  V30 5157 C 469.043 1.26092 -0.997874 0
M  V30 5158 O 470.233 1.20304 -1.25987 0
M  V30 5159 C 467.365 2.27165 -2.54182 0
M  V30 5160 H 468.558 0.511307 -2.95509 0
M  V30 5161 H 466.111 0.229444 -1.54607 0
M  V30 5162 H 466.846 2.75884 -1.70465 0
M  V30 5163 H 466.631 2.06057 -3.33591 0
M  V30 5164 H 468.121 2.9674 -2.93828 0
M  V30 5165 N 468.558 1.5553 0.254621 0
M  V30 5166 C 469.969 1.67518 0.824286 0
M  V30 5167 C 470.32 0.614429 1.86331 0
M  V30 5168 O 469.445 -0.240736 2.15057 0
M  V30 5169 C 470.04 3.03692 1.50189 0
M  V30 5170 C 468.599 3.17646 2.01935 0
M  V30 5171 C 467.746 2.63373 0.867746 0
M  V30 5172 H 470.697 1.58671 0.0305843 0
M  V30 5173 H 470.718 2.97706 2.36962 0
M  V30 5174 H 470.23 3.80874 0.745431 0
M  V30 5175 H 468.331 2.45273 2.80485 0
M  V30 5176 H 468.444 4.24455 2.22204 0
M  V30 5177 H 466.808 2.20999 1.26616 0
M  V30 5178 H 467.591 3.43074 0.124498 0
M  V30 5179 N 470.036 -0.519951 1.48776 0
M  V30 5180 C 470.946 -1.65025 1.66745 0
M  V30 5181 C 471.962 -1.6508 0.549954 0
M  V30 5182 O 473.138 -1.83848 0.822295 0
M  V30 5183 C 470.203 -3.0146 1.71238 0
M  V30 5184 C 469.264 -3.12182 2.94688 0
M  V30 5185 C 468.497 -4.42109 2.98958 0
M  V30 5186 O 468.72 -5.29799 2.1135 0
M  V30 5187 O 467.654 -4.57406 3.91233 0
M  V30 5188 H 471.48 -1.52801 2.62461 0
M  V30 5189 H 469.065 -0.694157 1.32294 0
M  V30 5190 H 470.947 -3.82584 1.76657 0
M  V30 5191 H 469.622 -3.13988 0.786975 0
M  V30 5192 H 468.529 -2.30316 2.94797 0
M  V30 5193 H 469.862 -3.04574 3.86646 0
M  V30 5194 N 471.514 -1.37532 -0.769588 0
M  V30 5195 C 472.76 -1.33057 -1.53048 0
M  V30 5196 C 473.093 0.0841865 -1.94017 0
M  V30 5197 O 472.368 1.04198 -1.64235 0
M  V30 5198 C 472.651 -2.27166 -2.79406 0
M  V30 5199 C 472.504 -3.77429 -2.44677 0
M  V30 5200 C 473.823 -2.19683 -3.81349 0
M  V30 5201 H 470.942 -0.484655 -0.555228 0
M  V30 5202 H 473.584 -1.68251 -0.882702 0
M  V30 5203 H 471.734 -1.97283 -3.34682 0
M  V30 5204 H 473.406 -4.17918 -1.953 0
M  V30 5205 H 471.649 -3.95892 -1.77346 0
M  V30 5206 H 472.32 -4.38716 -3.35011 0
M  V30 5207 H 474.796 -2.46029 -3.35573 0
M  V30 5208 H 473.672 -2.87668 -4.67481 0
M  V30 5209 H 473.933 -1.19045 -4.25771 0
M  V30 5210 N 472.992 0.995999 -1.22138 0
M  V30 5211 C 473.922 2.10387 -1.01289 0
M  V30 5212 C 474.903 1.69975 0.0651454 0
M  V30 5213 O 476.088 1.9396 -0.0964628 0
M  V30 5214 C 473.218 3.42312 -0.586517 0
M  V30 5215 C 472.172 3.96558 -1.61014 0
M  V30 5216 C 471.498 5.24494 -1.0397 0
M  V30 5217 C 472.798 4.27595 -2.99933 0
M  V30 5218 H 474.492 2.28086 -1.93951 0
M  V30 5219 H 472.038 1.09607 -0.933928 0
M  V30 5220 H 473.991 4.19223 -0.427793 0
M  V30 5221 H 472.715 3.24431 0.375761 0
M  V30 5222 H 471.374 3.21776 -1.75658 0
M  V30 5223 H 471.022 5.02953 -0.0688703 0
M  V30 5224 H 470.722 5.61755 -1.72352 0
M  V30 5225 H 472.246 6.04042 -0.892494 0
M  V30 5226 H 473.66 4.95315 -2.8868 0
M  V30 5227 H 472.057 4.76021 -3.6541 0
M  V30 5228 H 473.127 3.35498 -3.50099 0
M  V30 5229 N 474.47 1.03057 1.19235 0
M  V30 5230 C 475.38 0.622922 2.26179 0
M  V30 5231 C 476.396 -0.346113 1.70523 0
M  V30 5232 O 477.572 -0.203572 2.00369 0
M  V30 5233 C 474.637 -0.0182063 3.46695 0
M  V30 5234 C 473.698 0.998546 4.17526 0
M  V30 5235 C 472.931 0.387917 5.32288 0
M  V30 5236 O 473.154 -0.808668 5.64639 0
M  V30 5237 O 472.088 1.1116 5.91546 0
M  V30 5238 H 475.914 1.51363 2.63292 0
M  V30 5239 H 473.499 0.800856 1.26122 0
M  V30 5240 H 475.381 -0.375606 4.19723 0
M  V30 5241 H 474.056 -0.882895 3.11427 0
M  V30 5242 H 472.963 1.40756 3.4661 0
M  V30 5243 H 474.296 1.83366 4.56769 0
M  V30 5244 N 475.948 -1.35272 0.808662 0
M  V30 5245 C 477.225 -1.93077 0.313181 0
M  V30 5246 C 477.605 -1.73847 -1.19752 0
M  V30 5247 O 476.953 -1.1087 -1.998 0
M  V30 5248 C 477.163 -3.41347 0.726859 0
M  V30 5249 C 478.511 -4.18493 0.717532 0
M  V30 5250 O 479.535 -3.4987 0.668535 0
M  V30 5251 O 478.394 -5.40937 0.777779 0
M  V30 5252 H 475.488 -0.822885 0.0824018 0
M  V30 5253 H 478.034 -1.44335 0.892499 0
M  V30 5254 H 476.806 -3.49082 1.76797 0
M  V30 5255 H 476.429 -3.97411 0.122461 0
M  V30 5256 N 477.426 -0.562348 -1.47226 0
M  V30 5257 C 478.374 0.195476 -2.31777 0
M  V30 5258 C 479.368 0.90433 -1.43242 0
M  V30 5259 O 480.574 0.825031 -1.59979 0
M  V30 5260 H 476.949 0.0819095 -0.747526 0
M  V30 5261 H 478.92 -0.536753 -2.93533 0
M  V30 5262 C 477.669 1.20902 -3.26003 0
M  V30 5263 H 476.992 0.672997 -3.94095 0
M  V30 5264 H 478.432 1.71006 -3.87986 0
M  V30 5265 C 476.891 2.25955 -2.49891 0
M  V30 5266 O 477.421 3.32969 -2.2471 0
M  V30 5267 N 475.627 2.00019 -2.1081 0
M  V30 5268 H 475.174 1.13006 -2.31489 0
M  V30 5269 H 475.132 2.70523 -1.60201 0
M  V30 5270 N 478.904 1.54736 -0.299062 0
M  V30 5271 C 480.181 1.92187 0.363802 0
M  V30 5272 C 480.561 1.22607 1.71845 0
M  V30 5273 O 479.909 0.361141 2.25628 0
M  V30 5274 C 480.119 3.45678 0.480377 0
M  V30 5275 C 481.467 4.17885 0.752147 0
M  V30 5276 O 482.491 3.51702 0.564264 0
M  V30 5277 O 481.35 5.35048 1.11294 0
M  V30 5278 H 478.444 0.801681 0.203066 0
M  V30 5279 H 480.99 1.66115 -0.346978 0
M  V30 5280 H 479.762 3.88443 -0.471999 0
M  V30 5281 H 479.385 3.77779 1.2397 0
M  V30 5282 N 480.382 0.0267497 1.57577 0
M  V30 5283 C 481.612 -0.6617 1.95717 0
M  V30 5284 C 482.02 -1.66331 0.901706 0
M  V30 5285 O 481.363 -1.83273 -0.125241 0
M  V30 5286 C 481.425 -1.42649 3.29987 0
M  V30 5287 C 481.089 -0.583482 4.5326 0
M  V30 5288 C 482.086 0.140221 5.19711 0
M  V30 5289 C 479.771 -0.521581 4.99585 0
M  V30 5290 C 481.765 0.914523 6.30805 0
M  V30 5291 C 479.452 0.256428 6.10562 0
M  V30 5292 C 480.45 0.973189 6.76031 0
M  V30 5293 O 480.138 1.73845 7.84878 0
M  V30 5294 H 479.87 -0.187483 0.649481 0
M  V30 5295 H 482.424 0.0820847 2.05236 0
M  V30 5296 H 480.654 -2.21536 3.16952 0
M  V30 5297 H 482.343 -2.00282 3.53047 0
M  V30 5298 H 483.109 0.101716 4.84893 0
M  V30 5299 H 478.988 -1.06904 4.48433 0
M  V30 5300 H 482.532 1.4745 6.81839 0
M  V30 5301 H 478.429 0.296657 6.44818 0
M  V30 5302 H 479.197 1.65797 8.01532 0
M  V30 5303 N 481.861 -1.55662 -0.24637 0
M  V30 5304 C 483.109 -1.77168 -0.972411 0
M  V30 5305 C 483.43 -0.590827 -1.85834 0
M  V30 5306 O 482.7 0.393365 -1.9191 0
M  V30 5307 H 481.28 -0.653405 -0.362038 0
M  V30 5308 H 483.942 -1.93101 -0.264189 0
M  V30 5309 H 483.038 -2.68335 -1.59382 0
M  V30 5310 N 483.339 0.512053 -1.4905 0
M  V30 5311 C 484.755 0.84224 -1.35567 0
M  V30 5312 C 484.955 1.97878 -0.380319 0
M  V30 5313 O 484.011 2.51769 0.19201 0
M  V30 5314 C 485.324 1.19286 -2.76028 0
M  V30 5315 C 486.872 1.30171 -2.84648 0
M  V30 5316 C 487.347 1.68568 -4.25851 0
M  V30 5317 N 488.838 1.75638 -4.28609 0
M  V30 5318 C 489.573 2.06769 -5.34821 0
M  V30 5319 N 489.069 2.36201 -6.51292 0
M  V30 5320 N 490.862 2.07927 -5.22229 0
M  V30 5321 H 483.013 -0.237574 -2.11067 0
M  V30 5322 H 485.276 -0.0436747 -0.946993 0
M  V30 5323 H 484.982 0.431199 -3.49047 0
M  V30 5324 H 484.856 2.13889 -3.10695 0
M  V30 5325 H 487.243 2.05411 -2.11873 0
M  V30 5326 H 487.324 0.336457 -2.53578 0
M  V30 5327 H 486.968 0.938824 -4.99148 0
M  V30 5328 H 486.898 2.66174 -4.54377 0
M  V30 5329 H 489.389 1.55097 -3.44606 0
M  V30 5330 H 489.702 2.59112 -7.28066 0
M  V30 5331 H 488.047 2.33681 -6.54536 0
M  V30 5332 H 491.238 1.84403 -4.30248 0
M  V30 5333 H 491.411 2.31856 -6.05101 0
M  V30 5334 N 484.817 1.37938 0.762283 0
M  V30 5335 C 485.78 1.34279 1.85747 0
M  V30 5336 C 486.78 0.244969 1.58923 0
M  V30 5337 O 487.97 0.501365 1.66829 0
M  V30 5338 C 485.102 1.08833 3.23061 0
M  V30 5339 H 486.295 2.31705 1.90401 0
M  V30 5340 H 483.848 1.23105 0.963057 0
M  V30 5341 H 484.583 0.119767 3.24079 0
M  V30 5342 H 484.368 1.88306 3.43923 0
M  V30 5343 H 485.858 1.08946 4.03138 0
M  V30 5344 N 486.295 -0.989507 1.22664 0
M  V30 5345 C 487.541 -1.7321 1.05481 0
M  V30 5346 C 487.874 -1.89852 -0.408635 0
M  V30 5347 O 487.149 -1.44416 -1.30285 0
M  V30 5348 C 487.432 -3.1357 1.77047 0
M  V30 5349 C 487.285 -3.04555 3.31008 0
M  V30 5350 C 488.604 -4.12812 1.5256 0
M  V30 5351 H 485.723 -0.628697 0.384589 0
M  V30 5352 H 488.365 -1.15258 1.51049 0
M  V30 5353 H 486.515 -3.63046 1.3831 0
M  V30 5354 H 488.187 -2.62674 3.7921 0
M  V30 5355 H 486.43 -2.41278 3.6051 0
M  V30 5356 H 487.101 -4.03894 3.76263 0
M  V30 5357 H 489.577 -3.72106 1.86215 0
M  V30 5358 H 488.453 -5.09132 2.05124 0
M  V30 5359 H 488.714 -4.39711 0.458936 0
M  V30 5360 N 487.773 -1.03688 -1.18687 0
M  V30 5361 C 489.05 -0.652397 -1.84399 0
M  V30 5362 C 489.43 0.868386 -1.92412 0
M  V30 5363 O 488.778 1.76832 -1.44716 0
M  V30 5364 C 488.988 -1.3238 -3.22919 0
M  V30 5365 C 490.336 -1.45216 -3.98996 0
M  V30 5366 O 491.36 -1.2816 -3.32345 0
M  V30 5367 O 490.219 -1.72975 -5.18403 0
M  V30 5368 H 487.313 -0.227793 -0.795009 0
M  V30 5369 H 489.859 -1.13553 -1.2611 0
M  V30 5370 H 488.631 -2.36202 -3.11968 0
M  V30 5371 H 488.254 -0.829039 -3.88861 0
M  V30 5372 N 489.251 1.34841 -0.815825 0
M  V30 5373 C 490.497 1.99219 -0.410288 0
M  V30 5374 C 490.852 1.63532 1.01366 0
M  V30 5375 O 490.145 0.893093 1.69512 0
M  V30 5376 C 490.339 3.53273 -0.541541 0
M  V30 5377 C 490.168 4.03927 -1.9767 0
M  V30 5378 C 488.938 4.32852 -2.60706 0
M  V30 5379 C 491.136 4.21808 -2.9425 0
M  V30 5380 N 489.118 4.69494 -3.95536 0
M  V30 5381 C 490.489 4.6155 -4.13971 0
M  V30 5382 C 492.544 4.04038 -2.9096 0
M  V30 5383 C 491.247 4.85381 -5.30847 0
M  V30 5384 C 493.273 4.29031 -4.07046 0
M  V30 5385 C 492.635 4.69054 -5.25517 0
M  V30 5386 H 488.734 0.756494 -0.198094 0
M  V30 5387 H 491.318 1.63379 -1.05902 0
M  V30 5388 H 489.489 3.88323 0.0772544 0
M  V30 5389 H 491.221 4.04551 -0.109694 0
M  V30 5390 H 487.976 4.23503 -2.11995 0
M  V30 5391 H 488.4 4.92061 -4.64979 0
M  V30 5392 H 493.042 3.7223 -2.00512 0
M  V30 5393 H 490.76 5.16059 -6.21859 0
M  V30 5394 H 494.346 4.16826 -4.05891 0
M  V30 5395 H 493.226 4.88014 -6.1385 0
M  V30 5396 N 490.729 0.570148 1.46925 0
M  V30 5397 C 491.975 0.0593124 2.03314 0
M  V30 5398 C 492.33 -1.28139 1.43521 0
M  V30 5399 O 491.623 -1.82411 0.586245 0
M  V30 5400 C 491.817 -0.0780336 3.57315 0
M  V30 5401 C 491.646 1.2478 4.32042 0
M  V30 5402 C 490.416 1.81859 4.7144 0
M  V30 5403 C 492.614 2.16808 4.66368 0
M  V30 5404 N 490.596 3.08313 5.30864 0
M  V30 5405 C 491.967 3.27845 5.2623 0
M  V30 5406 C 494.022 2.16643 4.48297 0
M  V30 5407 C 492.725 4.38832 5.69929 0
M  V30 5408 C 494.751 3.26652 4.93004 0
M  V30 5409 C 494.113 4.36408 5.52926 0
M  V30 5410 H 490.212 0.0641804 0.779362 0
M  V30 5411 H 492.796 0.760285 1.79242 0
M  V30 5412 H 490.967 -0.748151 3.81126 0
M  V30 5413 H 492.699 -0.59211 4.00345 0
M  V30 5414 H 489.454 1.35502 4.53802 0
M  V30 5415 H 489.878 3.72802 5.65108 0
M  V30 5416 H 494.52 1.33065 4.01315 0
M  V30 5417 H 492.238 5.23162 6.15896 0
M  V30 5418 H 495.824 3.27627 4.80782 0
M  V30 5419 H 494.704 5.20127 5.86888 0
M  V30 5420 N 492.207 -1.54576 0.307264 0
M  V30 5421 C 493.455 -1.99867 -0.299574 0
M  V30 5422 C 493.776 -1.19714 -1.53927 0
M  V30 5423 O 493.046 -0.29472 -1.9367 0
M  V30 5424 H 491.626 -0.738299 -0.113683 0
M  V30 5425 H 494.288 -1.9032 0.420042 0
M  V30 5426 H 493.384 -3.06901 -0.567283 0
M  V30 5427 N 493.685 -0.035106 -1.57561 0
M  V30 5428 C 494.615 0.942993 -2.13612 0
M  V30 5429 C 495.596 1.33531 -1.05373 0
M  V30 5430 O 496.781 1.41287 -1.33235 0
M  V30 5431 C 493.911 2.22332 -2.66807 0
M  V30 5432 C 492.865 1.97156 -3.79886 0
M  V30 5433 C 492.191 3.31506 -4.19533 0
M  V30 5434 C 493.491 1.30596 -5.05709 0
M  V30 5435 H 495.185 0.476179 -2.95589 0
M  V30 5436 H 492.731 0.227602 -1.4219 0
M  V30 5437 H 494.684 2.91142 -3.04654 0
M  V30 5438 H 493.408 2.7119 -1.81999 0
M  V30 5439 H 492.067 1.30763 -3.42486 0
M  V30 5440 H 491.715 3.78134 -3.31698 0
M  V30 5441 H 491.415 3.15465 -4.95738 0
M  V30 5442 H 492.939 4.01574 -4.59968 0
M  V30 5443 H 494.353 1.89416 -5.41105 0
M  V30 5444 H 492.75 1.24934 -5.86951 0
M  V30 5445 H 493.82 0.279742 -4.84092 0
M  V30 5446 N 495.163 1.55791 0.238111 0
M  V30 5447 C 496.411 1.77681 0.963001 0
M  V30 5448 C 496.732 0.600674 1.85518 0
M  V30 5449 O 496.002 -0.383182 1.92116 0
M  V30 5450 H 494.582 0.655315 0.358568 0
M  V30 5451 H 497.244 1.93239 0.253945 0
M  V30 5452 H 496.34 2.69177 1.57956 0
M  V30 5453 N 496.642 -0.504142 1.49319 0
M  V30 5454 C 497.888 -1.26033 1.58882 0
M  V30 5455 C 498.221 -1.92268 0.273274 0
M  V30 5456 O 497.496 -1.80567 -0.72291 0
M  V30 5457 C 497.779 -2.32976 2.7458 0
M  V30 5458 C 497.632 -1.71263 4.1592 0
M  V30 5459 C 498.951 -3.34561 2.85932 0
M  V30 5460 H 496.07 -0.456863 0.578312 0
M  V30 5461 H 498.712 -0.558965 1.81592 0
M  V30 5462 H 496.862 -2.92796 2.55348 0
M  V30 5463 H 498.534 -1.15294 4.4666 0
M  V30 5464 H 496.777 -1.01686 4.21714 0
M  V30 5465 H 497.448 -2.48816 4.92742 0
M  V30 5466 H 499.924 -2.84727 3.0343 0
M  V30 5467 H 498.8 -4.06754 3.68568 0
M  V30 5468 H 499.061 -3.96695 1.95154 0
M  V30 5469 N 498.12 -1.38341 -0.754957 0
M  V30 5470 C 499.366 -1.34672 -1.51628 0
M  V30 5471 C 499.699 0.0636036 -1.94096 0
M  V30 5472 O 498.974 1.0245 -1.6533 0
M  V30 5473 C 499.257 -2.30116 -2.76981 0
M  V30 5474 C 499.11 -3.80003 -2.4066 0
M  V30 5475 C 500.429 -2.23715 -3.78998 0
M  V30 5476 H 497.548 -0.490517 -0.550056 0
M  V30 5477 H 500.19 -1.69178 -0.864807 0
M  V30 5478 H 498.34 -2.00821 -3.3257 0
M  V30 5479 H 500.012 -4.19966 -1.90856 0
M  V30 5480 H 498.255 -3.97751 -1.73137 0
M  V30 5481 H 498.926 -4.42244 -3.30339 0
M  V30 5482 H 501.402 -2.49574 -3.32945 0
M  V30 5483 H 500.278 -2.9261 -4.64403 0
M  V30 5484 H 500.539 -1.23554 -4.24484 0
M  V30 5485 N 499.598 0.982988 -1.23187 0
M  V30 5486 C 500.531 2.07302 -0.953993 0
M  V30 5487 C 501.509 1.62249 0.106753 0
M  V30 5488 O 502.693 1.88481 -0.0269525 0
M  V30 5489 C 499.82 3.35873 -0.436716 0
M  V30 5490 C 498.866 3.99862 -1.48367 0
M  V30 5491 S 499.699 4.39443 -3.06023 0
M  V30 5492 C 500.855 5.7117 -2.55959 0
M  V30 5493 H 501.088 2.30554 -1.87702 0
M  V30 5494 H 498.621 1.11883 -1.06403 0
M  V30 5495 H 500.579 4.10244 -0.144872 0
M  V30 5496 H 499.24 3.10634 0.465351 0
M  V30 5497 H 498.433 4.92471 -1.07182 0
M  V30 5498 H 498.035 3.31857 -1.72473 0
M  V30 5499 H 500.327 6.47977 -1.97818 0
M  V30 5500 H 501.27 6.17194 -3.47098 0
M  V30 5501 H 501.678 5.29046 -1.96902 0
M  V30 5502 N 501.076 1.04316 1.18135 0
M  V30 5503 C 502.306 0.767003 1.91835 0
M  V30 5504 C 502.714 -0.68002 1.76557 0
M  V30 5505 O 502.057 -1.47548 1.09432 0
M  V30 5506 C 502.119 1.05674 3.43618 0
M  V30 5507 C 501.783 2.49818 3.82675 0
M  V30 5508 C 502.78 3.48003 3.86251 0
M  V30 5509 C 500.465 2.84596 4.13897 0
M  V30 5510 C 502.459 4.79016 4.20503 0
M  V30 5511 C 500.146 4.15813 4.4782 0
M  V30 5512 C 501.144 5.12834 4.51099 0
M  V30 5513 O 500.832 6.41699 4.84229 0
M  V30 5514 H 500.564 0.278948 0.615763 0
M  V30 5515 H 503.118 1.3946 1.50798 0
M  V30 5516 H 501.348 0.372029 3.84906 0
M  V30 5517 H 503.037 0.767994 3.98568 0
M  V30 5518 H 503.803 3.22475 3.62264 0
M  V30 5519 H 499.682 2.09748 4.1052 0
M  V30 5520 H 503.226 5.54739 4.22978 0
M  V30 5521 H 499.123 4.41109 4.71268 0
M  V30 5522 H 499.891 6.46387 5.02121 0
M  V30 5523 N 502.554 -1.34406 0.822964 0
M  V30 5524 C 503.464 -2.33298 0.246838 0
M  V30 5525 C 504.48 -1.62625 -0.618797 0
M  V30 5526 O 505.656 -1.94391 -0.526685 0
M  V30 5527 C 502.721 -3.41785 -0.581731 0
M  V30 5528 C 501.782 -4.28206 0.306309 0
M  V30 5529 C 501.015 -5.31512 -0.48281 0
M  V30 5530 O 501.238 -5.43973 -1.71607 0
M  V30 5531 O 500.172 -6.01749 0.134884 0
M  V30 5532 H 503.998 -2.84401 1.06534 0
M  V30 5533 H 501.583 -1.37466 0.585108 0
M  V30 5534 H 503.465 -4.08028 -1.05313 0
M  V30 5535 H 502.14 -2.92925 -1.37756 0
M  V30 5536 H 501.047 -3.64885 0.825199 0
M  V30 5537 H 502.38 -4.80507 1.06649 0
M  V30 5538 N 504.032 -0.577932 -1.46621 0
M  V30 5539 C 504.965 0.206312 -2.27265 0
M  V30 5540 C 505.943 0.901306 -1.35334 0
M  V30 5541 O 507.127 0.916151 -1.64739 0
M  V30 5542 C 504.254 1.29563 -3.1294 0
M  V30 5543 C 503.3 0.706981 -4.206 0
M  V30 5544 S 504.133 -0.462459 -5.33499 0
M  V30 5545 C 505.289 0.628171 -6.2274 0
M  V30 5546 H 505.522 -0.477961 -2.93433 0
M  V30 5547 H 503.055 -0.364715 -1.50031 0
M  V30 5548 H 505.013 1.91935 -3.62865 0
M  V30 5549 H 503.674 1.95183 -2.46095 0
M  V30 5550 H 502.867 1.52565 -4.80354 0
M  V30 5551 H 502.469 0.159022 -3.73662 0
M  V30 5552 H 504.761 1.51506 -6.60342 0
M  V30 5553 H 505.704 0.0674961 -7.08068 0
M  V30 5554 H 506.112 0.930167 -5.56784 0
M  V30 5555 N 505.51 1.54411 -0.315457 0
M  V30 5556 C 506.443 2.20265 0.596522 0
M  V30 5557 C 507.421 1.17693 1.12192 0
M  V30 5558 O 508.605 1.46397 1.18744 0
M  V30 5559 C 505.732 2.85794 1.81767 0
M  V30 5560 C 504.778 4.02017 1.42424 0
M  V30 5561 S 505.611 5.33452 0.467836 0
M  V30 5562 C 506.767 6.02471 1.69645 0
M  V30 5563 H 507 2.97277 0.0370896 0
M  V30 5564 H 504.533 1.54079 -0.0995562 0
M  V30 5565 H 506.491 3.24172 2.51839 0
M  V30 5566 H 505.152 2.08601 2.34828 0
M  V30 5567 H 504.345 4.46701 2.33396 0
M  V30 5568 H 503.947 3.65271 0.803311 0
M  V30 5569 H 506.239 6.24157 2.63504 0
M  V30 5570 H 507.182 6.96215 1.29192 0
M  V30 5571 H 507.59 5.32284 1.87974 0
M  V30 5572 N 506.988 0.0434614 1.5754 0
M  V30 5573 C 508.228 -0.636023 1.94253 0
M  V30 5574 C 508.592 -1.68461 0.921132 0
M  V30 5575 O 509.793 -2.41762 1.17494 0
M  V30 5576 C 508.064 -1.22357 3.35803 0
M  V30 5577 S 509.623 -1.92213 3.94461 0
M  V30 5578 H 506.441 -0.209041 0.679575 0
M  V30 5579 H 509.043 0.110556 1.95187 0
M  V30 5580 H 507.747 -0.448162 4.07946 0
M  V30 5581 H 507.278 -2.00713 3.38346 0
M  V30 5582 H 509.293 -3.20199 3.79061 0
M  V30 5583 N 508.466 -1.55915 -0.229846 0
M  V30 5584 C 509.714 -1.7819 -0.953565 0
M  V30 5585 C 510.035 -0.610504 -1.85197 0
M  V30 5586 O 509.305 0.372988 -1.92316 0
M  V30 5587 H 507.885 -0.657208 -0.355087 0
M  V30 5588 H 510.547 -1.9337 -0.243693 0
M  V30 5589 H 509.643 -2.70011 -1.56527 0
M  V30 5590 N 509.944 0.496216 -1.49584 0
M  V30 5591 C 511.36 0.827814 -1.36453 0
M  V30 5592 C 511.56 1.97464 -0.401285 0
M  V30 5593 O 510.616 2.51958 0.165296 0
M  V30 5594 C 511.929 1.16352 -2.77277 0
M  V30 5595 C 513.477 1.27145 -2.86013 0
M  V30 5596 C 513.952 1.64042 -4.27615 0
M  V30 5597 N 515.443 1.71082 -4.30448 0
M  V30 5598 C 516.178 2.01085 -5.36984 0
M  V30 5599 N 515.674 2.2928 -6.5376 0
M  V30 5600 N 517.467 2.02376 -5.24405 0
M  V30 5601 H 509.618 -0.259947 -2.10803 0
M  V30 5602 H 511.881 -0.0537163 -0.946477 0
M  V30 5603 H 511.587 0.394153 -3.49484 0
M  V30 5604 H 511.461 2.10582 -3.12946 0
M  V30 5605 H 513.848 2.03152 -2.1404 0
M  V30 5606 H 513.929 0.309542 -2.5392 0
M  V30 5607 H 513.573 0.88583 -5.00115 0
M  V30 5608 H 513.503 2.6134 -4.57175 0
M  V30 5609 H 515.994 1.51434 -3.46232 0
M  V30 5610 H 516.307 2.51376 -7.30774 0
M  V30 5611 H 514.652 2.26726 -6.56978 0
M  V30 5612 H 517.843 1.79829 -4.32179 0
M  V30 5613 H 518.016 2.25425 -6.07526 0
M  V30 5614 N 511.423 1.38739 0.74761 0
M  V30 5615 C 512.353 1.39173 1.87492 0
M  V30 5616 C 513.334 0.256794 1.6815 0
M  V30 5617 O 514.519 0.460762 1.88655 0
M  V30 5618 C 511.649 1.22197 3.25093 0
M  V30 5619 C 510.603 2.32957 3.59047 0
M  V30 5620 C 509.929 2.01082 4.95449 0
M  V30 5621 C 511.229 3.75237 3.6331 0
M  V30 5622 H 512.923 2.3351 1.87386 0
M  V30 5623 H 510.469 1.12399 0.900134 0
M  V30 5624 H 512.422 1.21124 4.03617 0
M  V30 5625 H 511.146 0.243241 3.25693 0
M  V30 5626 H 509.805 2.33226 2.82845 0
M  V30 5627 H 509.453 1.01678 4.92616 0
M  V30 5628 H 509.153 2.75267 5.19136 0
M  V30 5629 H 510.677 2.01638 5.76346 0
M  V30 5630 H 512.091 3.76966 4.31937 0
M  V30 5631 H 510.488 4.48677 3.98509 0
M  V30 5632 H 511.558 4.07122 2.634 0
M  V30 5633 N 512.901 -0.976442 1.23707 0
M  V30 5634 C 514.312 -1.53284 1.06587 0
M  V30 5635 C 514.663 -1.92765 -0.365526 0
M  V30 5636 O 513.788 -1.7645 -1.25277 0
M  V30 5637 C 514.383 -2.78548 1.92864 0
M  V30 5638 C 512.942 -3.30574 1.79994 0
M  V30 5639 C 512.089 -2.03538 1.88328 0
M  V30 5640 H 515.04 -0.795692 1.37311 0
M  V30 5641 H 515.061 -3.5155 1.45577 0
M  V30 5642 H 514.573 -2.49782 2.97037 0
M  V30 5643 H 512.674 -3.64211 0.786202 0
M  V30 5644 H 512.787 -4.00065 2.636 0
M  V30 5645 H 511.151 -2.17853 1.31954 0
M  V30 5646 H 511.934 -1.77149 2.94063 0
M  V30 5647 N 514.379 -1.04941 -1.1758 0
M  V30 5648 C 515.626 -0.757989 -1.87779 0
M  V30 5649 C 515.954 0.714827 -1.80888 0
M  V30 5650 O 515.209 1.53824 -1.20982 0
M  V30 5651 C 515.508 -1.18062 -3.37337 0
M  V30 5652 C 515.174 -2.65521 -3.6443 0
M  V30 5653 C 513.836 -3.05804 -3.71534 0
M  V30 5654 C 516.188 -3.60822 -3.76108 0
M  V30 5655 C 513.516 -4.40256 -3.87803 0
M  V30 5656 C 515.868 -4.95005 -3.93895 0
M  V30 5657 C 514.532 -5.34945 -3.99237 0
M  V30 5658 H 513.802 -0.277368 -0.68713 0
M  V30 5659 H 516.449 -1.31603 -1.39115 0
M  V30 5660 H 514.754 -0.541525 -3.8804 0
M  V30 5661 H 516.451 -0.932368 -3.9001 0
M  V30 5662 H 513.041 -2.33324 -3.59524 0
M  V30 5663 H 517.225 -3.30841 -3.69943 0
M  V30 5664 H 512.481 -4.70707 -3.90186 0
M  V30 5665 H 516.655 -5.68746 -4.01872 0
M  V30 5666 H 514.282 -6.39135 -4.11596 0
M  V30 5667 N 515.857 1.33968 -0.830081 0
M  V30 5668 C 517.087 2.01987 -0.434142 0
M  V30 5669 C 517.495 1.62639 0.96671 0
M  V30 5670 O 516.838 0.831151 1.63822 0
M  V30 5671 C 516.9 3.5648 -0.465018 0
M  V30 5672 C 516.564 4.19176 -1.82045 0
M  V30 5673 C 517.561 4.39181 -2.78237 0
M  V30 5674 C 515.246 4.55792 -2.11089 0
M  V30 5675 C 517.24 4.94937 -4.01642 0
M  V30 5676 C 514.927 5.11258 -3.34752 0
M  V30 5677 C 515.925 5.30775 -4.29845 0
M  V30 5678 O 515.613 5.85064 -5.51322 0
M  V30 5679 H 515.345 0.653847 -0.171639 0
M  V30 5680 H 517.899 1.72066 -1.12171 0
M  V30 5681 H 516.129 3.8569 0.279284 0
M  V30 5682 H 517.818 4.05804 -0.0881334 0
M  V30 5683 H 518.584 4.11249 -2.57097 0
M  V30 5684 H 514.463 4.39901 -1.3787 0
M  V30 5685 H 518.007 5.10086 -4.75876 0
M  V30 5686 H 513.904 5.38619 -3.55753 0
M  V30 5687 H 514.672 6.03489 -5.5294 0
M  V30 5688 N 517.335 0.585699 1.46312 0
M  V30 5689 C 518.283 -0.158577 2.32059 0
M  V30 5690 C 519.277 -0.881427 1.44662 0
M  V30 5691 O 520.483 -0.799476 1.61271 0
M  V30 5692 H 516.858 -0.0700066 0.748734 0
M  V30 5693 H 518.829 0.583383 2.92642 0
M  V30 5694 C 517.578 -1.15701 3.27885 0
M  V30 5695 H 516.901 -0.610215 3.95116 0
M  V30 5696 H 518.341 -1.64812 3.90657 0
M  V30 5697 C 516.8 -2.21951 2.53455 0
M  V30 5698 O 517.33 -3.29352 2.29978 0
M  V30 5699 N 515.536 -1.9664 2.13965 0
M  V30 5700 H 515.083 -1.09309 2.33258 0
M  V30 5701 H 515.041 -2.6794 1.64485 0
M  V30 5702 N 518.813 -1.54241 0.323641 0
M  V30 5703 C 519.745 -2.21836 -0.576311 0
M  V30 5704 C 520.758 -1.21837 -1.07979 0
M  V30 5705 O 521.947 -1.48306 -0.99336 0
M  V30 5706 C 519.047 -2.86923 -1.80356 0
M  V30 5707 C 518.22 -4.1306 -1.43875 0
M  V30 5708 C 517.279 -4.6174 -2.52353 0
M  V30 5709 O 516.305 -5.26421 -2.16494 0
M  V30 5710 N 517.507 -4.35974 -3.83284 0
M  V30 5711 H 520.272 -2.997 0.00247987 0
M  V30 5712 H 517.833 -1.61233 0.146848 0
M  V30 5713 H 519.825 -3.16414 -2.52318 0
M  V30 5714 H 518.395 -2.12765 -2.29019 0
M  V30 5715 H 517.615 -3.90334 -0.550752 0
M  V30 5716 H 518.903 -4.95148 -1.17071 0
M  V30 5717 H 518.301 -3.84203 -4.15216 0
M  V30 5718 H 516.858 -4.70119 -4.51477 0
M  V30 5719 N 520.291 -0.0518155 -1.57515 0
M  V30 5720 C 521.568 0.661727 -1.84067 0
M  V30 5721 C 521.948 1.88999 -0.940351 0
M  V30 5722 O 521.296 2.285 -0.00155404 0
M  V30 5723 C 521.506 1.01841 -3.3381 0
M  V30 5724 C 522.854 1.40043 -4.00841 0
M  V30 5725 O 523.878 1.11073 -3.38439 0
M  V30 5726 O 522.737 1.94111 -5.10865 0
M  V30 5727 H 519.831 0.326702 -0.759733 0
M  V30 5728 H 522.377 -0.0812277 -1.69505 0
M  V30 5729 H 521.149 0.145202 -3.91031 0
M  V30 5730 H 520.772 1.81879 -3.53562 0
M  V30 5731 N 521.769 1.56035 0.221574 0
M  V30 5732 C 522.719 1.8881 1.27807 0
M  V30 5733 C 523.703 0.751177 1.42289 0
M  V30 5734 O 524.895 1.01359 1.45104 0
M  V30 5735 C 522.024 2.20828 2.6285 0
M  V30 5736 C 521.11 3.40912 2.52269 0
M  V30 5737 N 521.501 4.59531 2.1134 0
M  V30 5738 C 519.799 3.44526 2.83228 0
M  V30 5739 C 520.5 5.41689 2.1201 0
M  V30 5740 N 519.476 4.814 2.52497 0
M  V30 5741 H 523.278 2.78036 0.952529 0
M  V30 5742 H 520.792 1.566 0.430134 0
M  V30 5743 H 522.789 2.42483 3.39127 0
M  V30 5744 H 521.449 1.32914 2.9625 0
M  V30 5745 H 522.46 4.8469 1.82472 0
M  V30 5746 H 519.137 2.66956 3.21 0
M  V30 5747 H 520.527 6.46643 1.82491 0
M  V30 5748 N 523.247 -0.488276 1.49845 0
M  V30 5749 C 524.157 -1.61451 1.70207 0
M  V30 5750 C 525.173 -1.63877 0.584846 0
M  V30 5751 O 526.349 -1.82063 0.861107 0
M  V30 5752 C 523.414 -2.9776 1.77594 0
M  V30 5753 C 522.475 -3.05861 3.01243 0
M  V30 5754 C 521.708 -4.35668 3.08268 0
M  V30 5755 O 521.931 -5.25197 2.22541 0
M  V30 5756 O 520.865 -4.49005 4.00847 0
M  V30 5757 H 524.691 -1.47199 2.65643 0
M  V30 5758 H 522.276 -0.665939 1.33737 0
M  V30 5759 H 524.158 -3.7875 1.84732 0
M  V30 5760 H 522.833 -3.12248 0.8534 0
M  V30 5761 H 521.74 -2.24012 2.99616 0
M  V30 5762 H 523.073 -2.96304 3.9302 0
M  V30 5763 N 524.725 -1.39134 -0.740242 0
M  V30 5764 C 525.672 -1.37434 -1.8542 0
M  V30 5765 C 526.642 -0.234822 -1.64432 0
M  V30 5766 O 527.827 -0.429125 -1.85912 0
M  V30 5767 C 524.967 -1.21844 -3.22875 0
M  V30 5768 C 524.08 -2.45296 -3.55603 0
M  V30 5769 C 523.215 -2.22334 -4.82432 0
M  V30 5770 C 522.254 -3.41488 -5.07988 0
M  V30 5771 N 521.391 -3.17877 -6.26018 0
M  V30 5772 H 526.231 -2.3266 -1.86207 0
M  V30 5773 H 523.768 -1.15578 -0.909946 0
M  V30 5774 H 525.726 -1.10818 -4.02213 0
M  V30 5775 H 524.356 -0.3025 -3.21379 0
M  V30 5776 H 523.408 -2.66945 -2.71006 0
M  V30 5777 H 524.72 -3.34063 -3.7041 0
M  V30 5778 H 523.874 -2.0852 -5.69741 0
M  V30 5779 H 522.613 -1.30954 -4.6979 0
M  V30 5780 H 521.618 -3.55807 -4.19144 0
M  V30 5781 H 522.843 -4.33763 -5.22519 0
M  V30 5782 H 520.789 -2.29156 -6.14673 0
M  V30 5783 H 520.706 -4.00198 -6.41387 0
M  V30 5784 H 521.974 -3.07746 -7.16179 0
M  V30 5785 N 526.204 0.969867 -1.24223 0
M  V30 5786 C 527.134 2.08191 -1.05729 0
M  V30 5787 C 528.115 1.70075 0.0290765 0
M  V30 5788 O 529.3 1.93712 -0.137583 0
M  V30 5789 C 526.43 3.40991 -0.658995 0
M  V30 5790 C 525.384 3.93054 -1.69389 0
M  V30 5791 C 524.71 5.22171 -1.15072 0
M  V30 5792 C 526.01 4.21137 -3.08935 0
M  V30 5793 H 527.704 2.23921 -1.98746 0
M  V30 5794 H 525.25 1.07602 -0.956967 0
M  V30 5795 H 527.203 4.18221 -0.51662 0
M  V30 5796 H 525.927 3.25155 0.30686 0
M  V30 5797 H 524.586 3.17977 -1.82444 0
M  V30 5798 H 524.234 5.02694 -0.175539 0
M  V30 5799 H 523.934 5.57973 -1.84229 0
M  V30 5800 H 525.458 6.02013 -1.02042 0
M  V30 5801 H 526.872 4.8908 -2.99121 0
M  V30 5802 H 525.269 4.68163 -3.75425 0
M  V30 5803 H 526.339 3.27996 -3.57137 0
M  V30 5804 N 527.682 1.05563 1.17022 0
M  V30 5805 C 528.929 0.767937 1.87374 0
M  V30 5806 C 529.257 -0.705224 1.81265 0
M  V30 5807 O 528.512 -1.5318 1.21796 0
M  V30 5808 C 528.811 1.19849 3.36706 0
M  V30 5809 C 528.477 2.6745 3.63017 0
M  V30 5810 C 527.139 3.0777 3.69907 0
M  V30 5811 C 529.491 3.62811 3.74189 0
M  V30 5812 C 526.819 4.42307 3.85463 0
M  V30 5813 C 529.171 4.97087 3.91264 0
M  V30 5814 C 527.835 5.37055 3.96394 0
M  V30 5815 H 527.105 0.281008 0.68565 0
M  V30 5816 H 529.752 1.32339 1.38415 0
M  V30 5817 H 528.057 0.562096 3.87747 0
M  V30 5818 H 529.754 0.953038 3.8951 0
M  V30 5819 H 526.344 2.35228 3.58282 0
M  V30 5820 H 530.528 3.32798 3.68183 0
M  V30 5821 H 525.784 4.72769 3.87684 0
M  V30 5822 H 529.958 5.70869 3.9885 0
M  V30 5823 H 527.585 6.41308 4.082 0
M  V30 5824 N 529.16 -1.33526 0.837174 0
M  V30 5825 C 530.07 -2.33023 0.271568 0
M  V30 5826 C 531.086 -1.63272 -0.601514 0
M  V30 5827 O 532.262 -1.94939 -0.506038 0
M  V30 5828 C 529.327 -3.42382 -0.545448 0
M  V30 5829 C 528.388 -4.27857 0.351709 0
M  V30 5830 C 527.621 -5.31994 -0.426409 0
M  V30 5831 O 527.844 -5.45763 -1.65828 0
M  V30 5832 O 526.778 -6.01572 0.1987 0
M  V30 5833 H 530.604 -2.83256 1.09545 0
M  V30 5834 H 528.189 -1.36837 0.599655 0
M  V30 5835 H 530.071 -4.09122 -1.00979 0
M  V30 5836 H 528.746 -2.94369 -1.34641 0
M  V30 5837 H 527.653 -3.6399 0.863853 0
M  V30 5838 H 528.986 -4.79349 1.1174 0
M  V30 5839 N 530.638 -0.59345 -1.46 0
M  V30 5840 C 531.568 0.121192 -2.33185 0
M  V30 5841 C 532.549 0.872977 -1.4599 0
M  V30 5842 O 533.734 0.846321 -1.74789 0
M  V30 5843 C 530.864 1.12844 -3.28456 0
M  V30 5844 C 529.818 0.4908 -4.25177 0
M  V30 5845 C 529.144 1.60529 -5.10034 0
M  V30 5846 C 530.444 -0.578949 -5.19081 0
M  V30 5847 H 532.138 -0.606767 -2.93187 0
M  V30 5848 H 529.684 -0.293242 -1.40983 0
M  V30 5849 H 531.637 1.63684 -3.88311 0
M  V30 5850 H 530.361 1.88681 -2.66584 0
M  V30 5851 H 529.02 0.00339328 -3.666 0
M  V30 5852 H 528.668 2.35359 -4.44539 0
M  V30 5853 H 528.368 1.18422 -5.75543 0
M  V30 5854 H 529.892 2.11623 -5.72755 0
M  V30 5855 H 531.306 -0.155199 -5.7309 0
M  V30 5856 H 529.703 -0.920947 -5.92991 0
M  V30 5857 H 530.773 -1.46109 -4.62364 0
M  V30 5858 N 532.116 1.54067 -0.331816 0
M  V30 5859 C 533.365 1.99895 0.269209 0
M  V30 5860 C 533.678 1.22371 1.52593 0
M  V30 5861 O 534.884 1.58618 2.20347 0
M  V30 5862 C 533.34 3.55972 0.530244 0
M  V30 5863 C 532.948 4.4234 -0.709901 0
M  V30 5864 C 534.692 4.10247 1.09077 0
M  V30 5865 C 532.599 5.89905 -0.420312 0
M  V30 5866 H 531.529 0.746741 0.104371 0
M  V30 5867 H 534.18 1.78014 -0.445324 0
M  V30 5868 H 532.562 3.73873 1.30518 0
M  V30 5869 H 533.736 4.36215 -1.48504 0
M  V30 5870 H 532.051 3.98997 -1.19123 0
M  V30 5871 H 534.648 5.18095 1.32219 0
M  V30 5872 H 534.991 3.62739 2.0427 0
M  V30 5873 H 535.524 3.96011 0.376824 0
M  V30 5874 H 532.263 6.41623 -1.34164 0
M  V30 5875 H 531.783 5.98962 0.316962 0
M  V30 5876 H 533.462 6.46991 -0.0331956 0
M  V30 5877 N 533.594 0.0601682 1.57485 0
M  V30 5878 C 534.524 -0.90889 2.15085 0
M  V30 5879 C 535.505 -1.31838 1.07484 0
M  V30 5880 O 536.69 -1.3915 1.35466 0
M  V30 5881 C 533.82 -2.18059 2.7031 0
M  V30 5882 C 532.774 -1.91088 3.82974 0
M  V30 5883 C 532.1 -3.24789 4.24754 0
M  V30 5884 C 533.4 -1.22535 5.07723 0
M  V30 5885 H 535.094 -0.429093 2.96309 0
M  V30 5886 H 532.64 -0.204952 1.42534 0
M  V30 5887 H 534.593 -2.86258 3.09248 0
M  V30 5888 H 533.317 -2.6826 1.8629 0
M  V30 5889 H 531.976 -1.25297 3.44523 0
M  V30 5890 H 531.624 -3.72809 3.37672 0
M  V30 5891 H 531.324 -3.07538 5.00694 0
M  V30 5892 H 532.848 -3.94205 4.66299 0
M  V30 5893 H 534.262 -1.80783 5.4405 0
M  V30 5894 H 532.659 -1.1558 5.88864 0
M  V30 5895 H 533.729 -0.202692 4.84476 0
M  V30 5896 N 535.072 -1.5615 -0.213296 0
M  V30 5897 C 536.005 -1.88115 -1.29182 0
M  V30 5898 C 536.983 -0.739348 -1.44819 0
M  V30 5899 O 538.167 -0.988541 -1.605 0
M  V30 5900 C 535.294 -2.09541 -2.66102 0
M  V30 5901 C 534.34 -3.32236 -2.67436 0
M  V30 5902 S 535.173 -4.87915 -2.20679 0
M  V30 5903 C 536.329 -5.12387 -3.59458 0
M  V30 5904 H 536.562 -2.793 -1.01876 0
M  V30 5905 H 534.095 -1.48692 -0.415934 0
M  V30 5906 H 536.053 -2.22568 -3.44925 0
M  V30 5907 H 534.714 -1.19138 -2.90628 0
M  V30 5908 H 533.907 -3.44297 -3.6807 0
M  V30 5909 H 533.509 -3.18108 -1.96681 0
M  V30 5910 H 535.801 -5.01791 -4.55205 0
M  V30 5911 H 536.744 -6.14236 -3.52306 0
M  V30 5912 H 537.152 -4.40089 -3.53528 0
M  V30 5913 N 536.55 0.480323 -1.50102 0
M  V30 5914 C 537.46 1.60547 -1.71061 0
M  V30 5915 C 538.476 1.63564 -0.593529 0
M  V30 5916 O 539.652 1.81604 -0.870751 0
M  V30 5917 C 536.717 2.96814 -1.79171 0
M  V30 5918 C 535.778 3.04259 -3.02861 0
M  V30 5919 C 535.011 4.34027 -3.10574 0
M  V30 5920 O 535.234 5.24009 -2.25323 0
M  V30 5921 O 534.168 4.46873 -4.03223 0
M  V30 5922 H 537.994 1.45788 -2.6642 0
M  V30 5923 H 535.579 0.658838 -1.34088 0
M  V30 5924 H 537.461 3.77765 -1.86738 0
M  V30 5925 H 536.136 3.11791 -0.869947 0
M  V30 5926 H 535.043 2.22419 -3.008 0
M  V30 5927 H 536.376 2.94216 -3.94586 0
M  V30 5928 N 538.028 1.39524 0.732853 0
M  V30 5929 C 538.938 1.40695 1.87729 0
M  V30 5930 C 539.954 0.301496 1.71368 0
M  V30 5931 O 541.13 0.543313 1.93933 0
M  V30 5932 C 538.195 1.25098 3.23344 0
M  V30 5933 C 537.256 2.45634 3.52083 0
M  V30 5934 C 536.489 2.30772 4.81228 0
M  V30 5935 O 536.712 1.31233 5.55098 0
M  V30 5936 O 535.646 3.19799 5.09914 0
M  V30 5937 H 539.472 2.37168 1.89697 0
M  V30 5938 H 537.057 1.20663 0.880959 0
M  V30 5939 H 538.939 1.18541 4.04383 0
M  V30 5940 H 537.614 0.317209 3.22142 0
M  V30 5941 H 536.521 2.57767 2.71122 0
M  V30 5942 H 537.854 3.37712 3.58066 0
M  V30 5943 N 539.506 -0.963266 1.24736 0
M  V30 5944 C 540.755 -1.70115 1.08369 0
M  V30 5945 C 541.068 -1.91939 -0.376688 0
M  V30 5946 O 542.274 -2.6334 -0.660624 0
M  V30 5947 C 540.73 -3.06218 1.89099 0
M  V30 5948 C 540.338 -2.92221 3.39574 0
M  V30 5949 C 542.082 -3.83848 1.81275 0
M  V30 5950 C 539.989 -4.23662 4.12631 0
M  V30 5951 H 538.919 -0.637944 0.401924 0
M  V30 5952 H 541.57 -1.07304 1.48856 0
M  V30 5953 H 539.952 -3.69884 1.41429 0
M  V30 5954 H 541.126 -2.37541 3.94856 0
M  V30 5955 H 539.441 -2.28054 3.48397 0
M  V30 5956 H 542.038 -4.81188 2.33158 0
M  V30 5957 H 542.381 -4.08949 0.778895 0
M  V30 5958 H 542.914 -3.26918 2.26649 0
M  V30 5959 H 539.653 -4.03753 5.16395 0
M  V30 5960 H 539.173 -4.78141 3.62135 0
M  V30 5961 H 540.852 -4.92256 4.19873 0
M  V30 5962 N 540.985 -1.06182 -1.16461 0
M  V30 5963 C 542.401 -0.785065 -1.38956 0
M  V30 5964 C 542.601 0.616103 -1.9185 0
M  V30 5965 O 541.657 1.37686 -2.11657 0
M  V30 5966 C 542.97 -1.84902 -2.37132 0
M  V30 5967 C 544.518 -1.8724 -2.50819 0
M  V30 5968 C 544.993 -2.92686 -3.52277 0
M  V30 5969 N 546.484 -2.91712 -3.59803 0
M  V30 5970 C 547.219 -3.69949 -4.38093 0
M  V30 5971 N 546.715 -4.58 -5.19815 0
M  V30 5972 N 548.508 -3.58346 -4.33064 0
M  V30 5973 H 540.659 -1.96569 -0.804634 0
M  V30 5974 H 542.922 -0.851747 -0.416211 0
M  V30 5975 H 542.628 -2.85518 -2.0536 0
M  V30 5976 H 542.502 -1.69908 -3.36766 0
M  V30 5977 H 544.889 -0.872827 -2.81897 0
M  V30 5978 H 544.97 -2.06311 -1.51226 0
M  V30 5979 H 544.614 -3.92835 -3.21937 0
M  V30 5980 H 544.544 -2.70864 -4.51598 0
M  V30 5981 H 547.035 -2.27876 -3.01464 0
M  V30 5982 H 547.348 -5.14357 -5.76764 0
M  V30 5983 H 545.693 -4.62056 -5.19162 0
M  V30 5984 H 548.884 -2.88943 -3.68279 0
M  V30 5985 H 549.057 -4.19563 -4.93833 0
M  V30 5986 N 542.463 1.3308 -0.844243 0
M  V30 5987 C 543.71 1.97605 -0.44255 0
M  V30 5988 C 544.038 1.66856 0.999458 0
M  V30 5989 O 543.293 0.943586 1.7145 0
M  V30 5990 C 543.592 3.52045 -0.616354 0
M  V30 5991 C 543.258 4.02757 -2.02726 0
M  V30 5992 C 541.92 4.16316 -2.41317 0
M  V30 5993 C 544.272 4.29776 -2.9486 0
M  V30 5994 C 541.6 4.54232 -3.71335 0
M  V30 5995 C 543.952 4.69146 -4.24364 0
M  V30 5996 C 542.616 4.80911 -4.62904 0
M  V30 5997 H 541.886 0.723088 -0.161941 0
M  V30 5998 H 544.533 1.58663 -1.0723 0
M  V30 5999 H 542.838 3.91681 0.0966812 0
M  V30 6000 H 544.535 3.99981 -0.285756 0
M  V30 6001 H 541.125 3.9268 -1.71756 0
M  V30 6002 H 545.309 4.18818 -2.6628 0
M  V30 6003 H 540.565 4.61535 -4.00993 0
M  V30 6004 H 544.739 4.89008 -4.95827 0
M  V30 6005 H 542.366 5.10048 -5.63698 0
M  V30 6006 N 543.941 0.601185 1.45683 0
M  V30 6007 C 545.352 0.179659 1.85834 0
M  V30 6008 C 545.703 -1.26189 1.50236 0
M  V30 6009 O 544.828 -1.95587 0.925987 0
M  V30 6010 C 545.423 0.319277 3.37292 0
M  V30 6011 C 543.982 -0.0475092 3.7637 0
M  V30 6012 C 543.129 0.646692 2.69654 0
M  V30 6013 H 546.08 0.808268 1.36575 0
M  V30 6014 H 546.101 -0.4503 3.77826 0
M  V30 6015 H 545.613 1.36855 3.6317 0
M  V30 6016 H 543.714 -1.0962 3.5611 0
M  V30 6017 H 543.827 0.34168 4.7788 0
M  V30 6018 H 542.191 0.0849971 2.54558 0
M  V30 6019 H 542.974 1.69797 2.98369 0
M  V30 6020 N 545.419 -1.53889 0.339982 0
M  V30 6021 C 546.835 -1.59595 -0.0120752 0
M  V30 6022 C 547.035 -1.35605 -1.49042 0
M  V30 6023 O 546.091 -1.14856 -2.24865 0
M  V30 6024 C 547.404 -2.9774 0.420898 0
M  V30 6025 C 548.952 -3.1077 0.37294 0
M  V30 6026 C 549.427 -4.51286 0.781327 0
M  V30 6027 N 550.918 -4.57325 0.735374 0
M  V30 6028 C 551.653 -5.64194 1.02336 0
M  V30 6029 N 551.149 -6.7893 1.37933 0
M  V30 6030 N 552.942 -5.54051 0.947838 0
M  V30 6031 H 545.093 -1.67738 1.30299 0
M  V30 6032 H 547.356 -0.785385 0.530918 0
M  V30 6033 H 547.062 -3.20349 1.45152 0
M  V30 6034 H 546.936 -3.76639 -0.205721 0
M  V30 6035 H 549.323 -2.87886 -0.648505 0
M  V30 6036 H 549.404 -2.33939 1.03472 0
M  V30 6037 H 549.048 -4.74905 1.80077 0
M  V30 6038 H 548.978 -5.26511 0.0970679 0
M  V30 6039 H 551.469 -3.74931 0.472773 0
M  V30 6040 H 551.782 -7.56392 1.58402 0
M  V30 6041 H 550.127 -6.80386 1.41774 0
M  V30 6042 H 553.318 -4.63293 0.669115 0
M  V30 6043 H 553.491 -6.37246 1.17563 0
M  V30 6044 N 546.897 -0.0685191 -1.57451 0
M  V30 6045 C 548.125 0.610462 -1.97689 0
M  V30 6046 C 548.54 1.63346 -0.946758 0
M  V30 6047 O 547.897 1.82377 0.0669868 0
M  V30 6048 C 547.948 1.28196 -3.38006 0
M  V30 6049 O 547.669 0.299906 -4.37072 0
M  V30 6050 C 549.17 2.04907 -3.931 0
M  V30 6051 H 546.39 0.165689 -0.650222 0
M  V30 6052 H 548.934 -0.139953 -2.04021 0
M  V30 6053 H 547.089 1.98348 -3.32771 0
M  V30 6054 H 547.503 0.78126 -5.18649 0
M  V30 6055 H 548.977 2.47287 -4.93511 0
M  V30 6056 H 549.454 2.9043 -3.29465 0
M  V30 6057 H 550.06 1.39629 -4.01726 0
M  V30 6058 N 548.375 1.56261 0.205012 0
M  V30 6059 C 549.305 1.96779 1.257 0
M  V30 6060 C 550.286 0.838309 1.48008 0
M  V30 6061 O 551.471 1.10189 1.59913 0
M  V30 6062 C 548.601 2.29876 2.60335 0
M  V30 6063 C 547.555 3.45469 2.52656 0
M  V30 6064 C 546.881 3.64215 3.91473 0
M  V30 6065 C 548.181 4.79954 2.06014 0
M  V30 6066 H 549.875 2.84904 0.920338 0
M  V30 6067 H 547.421 1.37072 0.441277 0
M  V30 6068 H 549.374 2.56814 3.34102 0
M  V30 6069 H 548.098 1.38622 2.95722 0
M  V30 6070 H 546.757 3.18605 1.81345 0
M  V30 6071 H 546.405 2.70309 4.24196 0
M  V30 6072 H 546.105 4.41973 3.87213 0
M  V30 6073 H 547.629 3.93519 4.66878 0
M  V30 6074 H 549.043 5.05989 2.69533 0
M  V30 6075 H 547.44 5.61111 2.12777 0
M  V30 6076 H 548.51 4.74201 1.01297 0
M  V30 6077 N 549.853 -0.472356 1.50355 0
M  V30 6078 C 551.101 -1.22211 1.60962 0
M  V30 6079 C 551.422 -1.92497 0.311439 0
M  V30 6080 O 550.692 -1.8405 -0.671002 0
M  V30 6081 H 549.272 -0.454092 0.593135 0
M  V30 6082 H 551.934 -0.544977 1.87126 0
M  V30 6083 H 551.03 -1.9707 2.42012 0
M  V30 6084 N 551.331 -1.39911 -0.725443 0
M  V30 6085 C 552.742 -1.33599 -1.30415 0
M  V30 6086 C 553.093 -0.00481792 -1.96199 0
M  V30 6087 O 552.218 0.897275 -1.96921 0
M  V30 6088 C 552.813 -2.41965 -2.37146 0
M  V30 6089 C 551.372 -2.39144 -2.90667 0
M  V30 6090 C 550.519 -2.23355 -1.64341 0
M  V30 6091 H 553.47 -1.4986 -0.522267 0
M  V30 6092 H 553.491 -2.09304 -3.17761 0
M  V30 6093 H 553.003 -3.38837 -1.89238 0
M  V30 6094 H 551.104 -1.4594 -3.4283 0
M  V30 6095 H 551.217 -3.34362 -3.43131 0
M  V30 6096 H 549.581 -1.70696 -1.89037 0
M  V30 6097 H 550.364 -3.2221 -1.18471 0
M  V30 6098 N 552.809 0.956637 -1.25245 0
M  V30 6099 C 553.719 2.0868 -1.0719 0
M  V30 6100 C 554.735 1.73997 -0.00959074 0
M  V30 6101 O 555.911 2.00301 -0.210104 0
M  V30 6102 C 552.976 3.39754 -0.690526 0
M  V30 6103 C 552.037 3.88316 -1.83055 0
M  V30 6104 C 551.27 5.13134 -1.46728 0
M  V30 6105 O 551.493 5.6925 -0.362029 0
M  V30 6106 O 550.427 5.56356 -2.29677 0
M  V30 6107 H 554.253 2.26813 -2.01965 0
M  V30 6108 H 551.838 1.07098 -1.04165 0
M  V30 6109 H 553.72 4.18543 -0.489871 0
M  V30 6110 H 552.395 3.22896 0.227981 0
M  V30 6111 H 551.302 3.1054 -2.08604 0
M  V30 6112 H 552.635 4.09669 -2.72822 0
M  V30 6113 N 554.287 1.06798 1.15896 0
M  V30 6114 C 555.25 0.687328 2.18651 0
M  V30 6115 C 556.25 -0.269559 1.58524 0
M  V30 6116 O 557.44 -0.0512627 1.74125 0
M  V30 6117 C 554.572 0.0121642 3.40898 0
M  V30 6118 H 555.765 1.59701 2.53842 0
M  V30 6119 H 553.318 0.863828 1.3026 0
M  V30 6120 H 554.053 -0.910025 3.1127 0
M  V30 6121 H 553.838 0.700309 3.85795 0
M  V30 6122 H 555.328 -0.239703 4.16911 0
M  V30 6123 N 555.766 -1.3263 0.851289 0
M  V30 6124 C 556.713 -2.28952 0.291469 0
M  V30 6125 C 557.683 -1.54897 -0.599676 0
M  V30 6126 O 558.868 -1.83137 -0.535305 0
M  V30 6127 C 556.008 -3.41206 -0.516992 0
M  V30 6128 C 555.121 -4.30148 0.399566 0
M  V30 6129 C 554.256 -5.29527 -0.4212 0
M  V30 6130 C 553.295 -6.10112 0.492969 0
M  V30 6131 N 552.432 -7.01499 -0.290414 0
M  V30 6132 H 557.272 -2.76228 1.11813 0
M  V30 6133 H 554.809 -1.35907 0.562826 0
M  V30 6134 H 556.767 -4.05005 -1.00132 0
M  V30 6135 H 555.397 -2.9509 -1.30851 0
M  V30 6136 H 554.449 -3.66959 1.00227 0
M  V30 6137 H 555.761 -4.8649 1.1013 0
M  V30 6138 H 554.915 -5.98914 -0.968832 0
M  V30 6139 H 553.654 -4.73794 -1.15632 0
M  V30 6140 H 552.659 -5.39632 1.05251 0
M  V30 6141 H 553.884 -6.6793 1.22664 0
M  V30 6142 H 551.83 -6.48199 -1.00868 0
M  V30 6143 H 551.747 -7.55178 0.352354 0
M  V30 6144 H 553.015 -7.75176 -0.819882 0
M  V30 6145 N 557.244 -0.608902 -1.45362 0
M  V30 6146 C 558.469 -0.10921 -2.07112 0
M  V30 6147 C 558.894 1.19779 -1.45033 0
M  V30 6148 O 558.252 1.72961 -0.543527 0
M  V30 6149 C 558.3 0.0155745 -3.60597 0
M  V30 6150 O 557.404 1.06546 -3.98399 0
M  V30 6151 H 556.745 -0.0746619 -0.659789 0
M  V30 6152 H 559.275 -0.839283 -1.86594 0
M  V30 6153 H 559.285 0.213364 -4.07442 0
M  V30 6154 H 557.96 -0.938765 -4.05167 0
M  V30 6155 H 556.537 0.844024 -3.63223 0
M  V30 6156 N 558.722 1.53707 -0.348139 0
M  V30 6157 C 559.652 2.28111 0.498766 0
M  V30 6158 C 560.633 1.29851 1.09876 0
M  V30 6159 O 561.818 1.587 1.11928 0
M  V30 6160 C 558.948 3.05735 1.64753 0
M  V30 6161 C 557.902 4.11537 1.17565 0
M  V30 6162 C 557.228 4.77142 2.4133 0
M  V30 6163 C 558.528 5.21587 0.272844 0
M  V30 6164 H 560.222 2.99152 -0.121934 0
M  V30 6165 H 557.768 1.43875 -0.0600842 0
M  V30 6166 H 559.721 3.56526 2.24649 0
M  V30 6167 H 558.445 2.32354 2.2952 0
M  V30 6168 H 557.104 3.61665 0.599483 0
M  V30 6169 H 556.752 4.0035 3.04514 0
M  V30 6170 H 556.452 5.48626 2.10436 0
M  V30 6171 H 557.976 5.30719 3.01943 0
M  V30 6172 H 559.39 5.67986 0.778779 0
M  V30 6173 H 557.787 6.00074 0.0555849 0
M  V30 6174 H 558.857 4.79969 -0.689785 0
M  V30 6175 N 560.2 0.0768682 1.57412 0
M  V30 6176 C 561.13 -0.886026 2.16037 0
M  V30 6177 C 562.111 -1.30691 1.08876 0
M  V30 6178 O 563.296 -1.37705 1.36934 0
M  V30 6179 C 560.426 -2.1518 2.72608 0
M  V30 6180 C 559.38 -1.87015 3.8498 0
M  V30 6181 C 558.706 -3.20266 4.28175 0
M  V30 6182 C 560.006 -1.17143 5.08994 0
M  V30 6183 H 561.7 -0.397642 2.96748 0
M  V30 6184 H 559.246 -0.189823 1.42743 0
M  V30 6185 H 561.199 -2.82962 3.12266 0
M  V30 6186 H 559.923 -2.66269 1.89125 0
M  V30 6187 H 558.582 -1.21636 3.45833 0
M  V30 6188 H 558.23 -3.69207 3.41607 0
M  V30 6189 H 557.93 -3.0221 5.03927 0
M  V30 6190 H 559.454 -3.89237 4.70454 0
M  V30 6191 H 560.868 -1.75003 5.45937 0
M  V30 6192 H 559.265 -1.09328 5.90057 0
M  V30 6193 H 560.335 -0.151295 4.84664 0
M  V30 6194 N 561.678 -1.56367 -0.196722 0
M  V30 6195 C 562.903 -1.84991 -0.937714 0
M  V30 6196 C 563.328 -0.660244 -1.76132 0
M  V30 6197 O 562.686 0.390967 -1.77034 0
M  V30 6198 C 562.734 -3.11828 -1.81096 0
M  V30 6199 O 561.838 -2.92266 -2.90955 0
M  V30 6200 H 561.179 -0.609193 -0.264159 0
M  V30 6201 H 563.709 -2.03595 -0.202529 0
M  V30 6202 H 563.719 -3.42579 -2.21594 0
M  V30 6203 H 562.394 -3.98037 -1.2058 0
M  V30 6204 H 560.971 -2.72809 -2.54224 0
M  V30 6205 N 563.156 0.464375 -1.50603 0
M  V30 6206 C 564.404 1.21356 -1.61608 0
M  V30 6207 C 564.725 1.92329 -0.321643 0
M  V30 6208 O 563.995 1.84403 0.661232 0
M  V30 6209 H 562.575 0.45094 -0.595535 0
M  V30 6210 H 565.237 0.535046 -1.87412 0
M  V30 6211 H 564.333 1.95783 -2.43054 0
M  V30 6212 N 564.634 1.40294 0.718013 0
M  V30 6213 C 565.564 1.43118 1.84498 0
M  V30 6214 C 566.545 0.292403 1.67568 0
M  V30 6215 O 567.73 0.500675 1.87635 0
M  V30 6216 C 564.86 1.29065 3.22427 0
M  V30 6217 C 563.814 2.40521 3.54025 0
M  V30 6218 C 563.14 2.11546 4.91073 0
M  V30 6219 C 564.44 3.82859 3.55269 0
M  V30 6220 H 566.134 2.37432 1.82391 0
M  V30 6221 H 563.68 1.14283 0.87609 0
M  V30 6222 H 565.633 1.29658 4.00957 0
M  V30 6223 H 564.357 0.312271 3.25104 0
M  V30 6224 H 563.016 2.39173 2.77834 0
M  V30 6225 H 562.664 1.12104 4.90348 0
M  V30 6226 H 562.364 2.86216 5.1318 0
M  V30 6227 H 563.888 2.13817 5.71939 0
M  V30 6228 H 565.302 3.86044 4.23843 0
M  V30 6229 H 563.699 4.57029 3.88902 0
M  V30 6230 H 564.769 4.12617 2.54706 0
M  V30 6231 N 566.112 -0.949982 1.2575 0
M  V30 6232 C 567.042 -2.06483 1.09028 0
M  V30 6233 C 568.023 -1.701 -0.00201532 0
M  V30 6234 O 569.208 -1.93469 0.168383 0
M  V30 6235 C 566.338 -3.39899 0.71316 0
M  V30 6236 C 565.292 -3.90309 1.75621 0
M  V30 6237 C 564.618 -5.20274 1.23365 0
M  V30 6238 C 565.918 -4.16169 3.15596 0
M  V30 6239 H 567.612 -2.20731 2.02283 0
M  V30 6240 H 565.158 -1.06066 0.973964 0
M  V30 6241 H 567.111 -4.17346 0.58309 0
M  V30 6242 H 565.835 -3.25602 -0.255091 0
M  V30 6243 H 564.494 -3.15035 1.8748 0
M  V30 6244 H 564.142 -5.02351 0.255491 0
M  V30 6245 H 563.842 -5.54971 1.93082 0
M  V30 6246 H 565.366 -6.00314 1.11607 0
M  V30 6247 H 566.78 -4.84259 3.06864 0
M  V30 6248 H 565.177 -4.62131 3.82825 0
M  V30 6249 H 566.247 -3.22273 3.6231 0
M  V30 6250 N 567.59 -1.07411 -1.15328 0
M  V30 6251 C 568.537 -0.694995 -2.20087 0
M  V30 6252 C 569.507 0.313904 -1.63107 0
M  V30 6253 O 570.692 0.200216 -1.89747 0
M  V30 6254 C 567.832 -0.0996218 -3.44956 0
M  V30 6255 C 566.945 -1.16007 -4.16133 0
M  V30 6256 C 566.08 -0.529636 -5.28553 0
M  V30 6257 C 565.119 -1.57283 -5.91548 0
M  V30 6258 N 564.256 -0.964932 -6.95438 0
M  V30 6259 H 569.096 -1.5927 -2.51867 0
M  V30 6260 H 566.633 -0.796115 -1.23695 0
M  V30 6261 H 568.591 0.263197 -4.16369 0
M  V30 6262 H 567.221 0.761435 -3.13691 0
M  V30 6263 H 566.273 -1.64045 -3.4321 0
M  V30 6264 H 567.585 -1.95101 -4.59061 0
M  V30 6265 H 566.739 -0.114487 -6.06592 0
M  V30 6266 H 565.478 0.29307 -4.86819 0
M  V30 6267 H 564.483 -1.99775 -5.12221 0
M  V30 6268 H 565.708 -2.39783 -6.35359 0
M  V30 6269 H 563.654 -0.16314 -6.55797 0
M  V30 6270 H 563.571 -1.69311 -7.36797 0
M  V30 6271 H 564.839 -0.575305 -7.77374 0
M  V30 6272 N 569.068 1.32177 -0.85831 0
M  V30 6273 C 570.015 2.28794 -0.303607 0
M  V30 6274 C 570.985 1.55213 0.591453 0
M  V30 6275 O 572.17 1.83418 0.525585 0
M  V30 6276 C 569.31 3.41475 0.49889 0
M  V30 6277 C 568.423 4.2993 -0.422373 0
M  V30 6278 C 567.558 5.29743 0.393111 0
M  V30 6279 C 566.597 6.09842 -0.525317 0
M  V30 6280 N 565.734 7.01643 0.253208 0
M  V30 6281 H 570.574 2.75631 -1.13276 0
M  V30 6282 H 568.111 1.35606 -0.570026 0
M  V30 6283 H 570.069 4.05531 0.979826 0
M  V30 6284 H 568.699 2.95779 1.29284 0
M  V30 6285 H 567.751 3.66422 -1.02171 0
M  V30 6286 H 569.063 4.85899 -1.12709 0
M  V30 6287 H 568.217 5.9942 0.937056 0
M  V30 6288 H 566.956 4.744 1.13117 0
M  V30 6289 H 565.961 5.39066 -1.08112 0
M  V30 6290 H 567.186 6.6727 -1.26205 0
M  V30 6291 H 565.132 6.48725 0.974295 0
M  V30 6292 H 565.049 7.54981 -0.392398 0
M  V30 6293 H 566.317 7.756 0.778761 0
M  V30 6294 N 570.547 0.616602 1.45037 0
M  V30 6295 C 571.824 0.0469086 1.95544 0
M  V30 6296 C 572.204 -1.42345 1.55888 0
M  V30 6297 O 571.552 -2.13055 0.825824 0
M  V30 6298 C 571.762 0.254489 3.48071 0
M  V30 6299 C 573.11 0.140025 4.24369 0
M  V30 6300 O 574.134 0.185084 3.55719 0
M  V30 6301 O 572.993 0.0327034 5.4649 0
M  V30 6302 H 570.087 -0.0306051 0.826433 0
M  V30 6303 H 572.633 0.687293 1.55159 0
M  V30 6304 H 571.405 1.27532 3.69934 0
M  V30 6305 H 571.028 -0.42073 3.95368 0
M  V30 6306 N 572.025 -1.5352 0.356285 0
M  V30 6307 C 573.436 -1.86282 -0.12492 0
M  V30 6308 C 573.787 -1.27717 -1.48939 0
M  V30 6309 O 572.912 -0.595614 -2.08042 0
M  V30 6310 C 573.507 -3.37995 -0.23345 0
M  V30 6311 C 572.066 -3.70588 -0.658899 0
M  V30 6312 C 571.213 -2.76581 0.199596 0
M  V30 6313 H 574.164 -1.47901 0.575423 0
M  V30 6314 H 574.185 -3.65475 -1.0587 0
M  V30 6315 H 573.697 -3.8059 0.759776 0
M  V30 6316 H 571.798 -3.33544 -1.66069 0
M  V30 6317 H 571.911 -4.77076 -0.439957 0
M  V30 6318 H 570.275 -2.52552 -0.330076 0
M  V30 6319 H 571.058 -3.22008 1.19019 0
M  V30 6320 N 573.503 -0.0852151 -1.57369 0
M  V30 6321 C 574.45 0.877268 -2.13478 0
M  V30 6322 C 575.42 1.28642 -1.05073 0
M  V30 6323 O 576.605 1.36992 -1.32808 0
M  V30 6324 C 573.745 2.13464 -2.71159 0
M  V30 6325 C 572.858 1.77691 -3.93764 0
M  V30 6326 C 571.993 2.98139 -4.39643 0
M  V30 6327 C 571.032 2.58447 -5.54862 0
M  V30 6328 N 570.169 3.71698 -5.95639 0
M  V30 6329 H 575.009 0.391933 -2.95411 0
M  V30 6330 H 572.546 0.181796 -1.45972 0
M  V30 6331 H 574.504 2.87086 -3.02717 0
M  V30 6332 H 573.134 2.59514 -1.91969 0
M  V30 6333 H 572.186 0.940768 -3.68583 0
M  V30 6334 H 573.498 1.44497 -4.77412 0
M  V30 6335 H 572.652 3.80026 -4.72933 0
M  V30 6336 H 571.391 3.34536 -3.54876 0
M  V30 6337 H 570.396 1.74984 -5.21211 0
M  V30 6338 H 571.621 2.23205 -6.41371 0
M  V30 6339 H 569.567 4.07831 -5.13819 0
M  V30 6340 H 569.484 3.42317 -6.74059 0
M  V30 6341 H 570.752 4.54123 -6.33555 0
M  V30 6342 N 574.981 1.5647 0.188427 0
M  V30 6343 C 575.913 1.91611 1.25769 0
M  V30 6344 C 576.926 0.807436 1.41366 0
M  V30 6345 O 578.115 1.08586 1.41673 0
M  V30 6346 C 575.215 2.13874 2.6289 0
M  V30 6347 C 574.388 3.45047 2.68815 0
M  V30 6348 C 573.447 3.56342 3.87178 0
M  V30 6349 O 572.473 4.29109 3.73971 0
M  V30 6350 N 573.675 2.89924 5.02916 0
M  V30 6351 H 576.44 2.8393 0.959373 0
M  V30 6352 H 574.001 1.57418 0.378306 0
M  V30 6353 H 575.993 2.18713 3.4051 0
M  V30 6354 H 574.563 1.28022 2.85183 0
M  V30 6355 H 573.783 3.52017 1.77419 0
M  V30 6356 H 575.071 4.31395 2.6977 0
M  V30 6357 H 574.469 2.30644 5.16546 0
M  V30 6358 H 573.026 3.0038 5.78459 0
M  V30 6359 N 576.459 -0.456382 1.50847 0
M  V30 6360 C 577.875 -0.791345 1.386 0
M  V30 6361 C 578.075 -1.9633 0.453498 0
M  V30 6362 O 577.131 -2.52308 -0.0984353 0
M  V30 6363 C 578.444 -1.08959 2.80265 0
M  V30 6364 C 579.992 -1.19517 2.89283 0
M  V30 6365 C 580.467 -1.52647 4.31814 0
M  V30 6366 N 581.958 -1.59609 4.34832 0
M  V30 6367 C 582.693 -1.86777 5.42127 0
M  V30 6368 N 582.189 -2.11866 6.59609 0
M  V30 6369 N 583.982 -1.88402 5.29586 0
M  V30 6370 H 576.133 0.315746 2.1004 0
M  V30 6371 H 578.396 0.0787916 0.94472 0
M  V30 6372 H 578.102 -0.301355 3.50407 0
M  V30 6373 H 577.976 -2.02211 3.18419 0
M  V30 6374 H 580.363 -1.97406 2.19351 0
M  V30 6375 H 580.444 -0.242111 2.54652 0
M  V30 6376 H 580.088 -0.752922 5.02288 0
M  V30 6377 H 580.018 -2.49127 4.63943 0
M  V30 6378 H 582.509 -1.42201 3.50125 0
M  V30 6379 H 582.822 -2.31912 7.37182 0
M  V30 6380 H 581.167 -2.09228 6.62758 0
M  V30 6381 H 584.358 -1.68307 4.36795 0
M  V30 6382 H 584.531 -2.09238 6.13289 0
M  V30 6383 N 577.937 -1.40673 -0.710563 0
M  V30 6384 C 578.867 -1.44095 -1.83736 0
M  V30 6385 C 579.848 -0.301286 -1.67411 0
M  V30 6386 O 581.033 -0.510618 -1.87367 0
M  V30 6387 C 578.163 -1.30773 -3.21738 0
M  V30 6388 C 577.117 -2.42395 -3.52745 0
M  V30 6389 C 576.443 -2.14147 -4.89944 0
M  V30 6390 C 577.743 -3.84738 -3.53234 0
M  V30 6391 H 579.437 -2.38396 -1.81129 0
M  V30 6392 H 576.983 -1.14746 -0.870017 0
M  V30 6393 H 578.936 -1.31783 -4.00264 0
M  V30 6394 H 577.66 -0.329507 -3.24934 0
M  V30 6395 H 576.319 -2.40643 -2.76562 0
M  V30 6396 H 575.967 -1.14703 -4.89747 0
M  V30 6397 H 575.667 -2.88934 -5.11655 0
M  V30 6398 H 577.191 -2.16848 -5.70797 0
M  V30 6399 H 578.605 -3.88286 -4.2179 0
M  V30 6400 H 577.002 -4.59085 -3.86473 0
M  V30 6401 H 578.072 -4.13962 -2.52514 0
M  V30 6402 N 579.415 0.9433 -1.26252 0
M  V30 6403 C 580.663 1.68592 -1.11451 0
M  V30 6404 C 580.984 1.91957 0.343123 0
M  V30 6405 O 580.254 1.51475 1.24226 0
M  V30 6406 H 578.834 0.624789 -0.409448 0
M  V30 6407 H 581.496 1.13351 -1.58548 0
M  V30 6408 H 580.592 2.66054 -1.63162 0
M  V30 6409 N 580.893 1.08022 1.14757 0
M  V30 6410 C 582.141 0.805913 1.85336 0
M  V30 6411 C 582.462 -0.670162 1.83122 0
M  V30 6412 O 581.732 -1.48567 1.2769 0
M  V30 6413 H 580.312 0.295138 0.686223 0
M  V30 6414 H 582.974 1.36538 1.3908 0
M  V30 6415 H 582.07 1.14655 2.90277 0
M  V30 6416 N 582.371 -1.3172 0.865308 0
M  V30 6417 C 583.619 -1.96487 0.472995 0
M  V30 6418 C 583.94 -1.68761 -0.976975 0
M  V30 6419 O 583.21 -1.00051 -1.68424 0
M  V30 6420 H 581.79 -0.726947 0.171922 0
M  V30 6421 H 584.452 -1.60612 1.10407 0
M  V30 6422 H 583.548 -3.0574 0.62687 0
M  V30 6423 N 583.85 -0.624285 -1.44708 0
M  V30 6424 C 585.075 -0.131171 -2.06985 0
M  V30 6425 C 585.5 1.18234 -1.46295 0
M  V30 6426 O 584.858 1.72375 -0.561842 0
M  V30 6427 C 584.906 -0.0226724 -3.60593 0
M  V30 6428 O 584.01 1.02314 -3.99507 0
M  V30 6429 H 583.351 -0.0816556 -0.65896 0
M  V30 6430 H 585.88 -0.859027 -1.85693 0
M  V30 6431 H 585.891 0.170138 -4.07645 0
M  V30 6432 H 584.566 -0.981685 -4.04148 0
M  V30 6433 H 583.143 0.805452 -3.64097 0
M  V30 6434 N 585.328 1.53329 -0.364422 0
M  V30 6435 C 586.238 2.29414 0.490552 0
M  V30 6436 C 587.254 1.35335 1.09363 0
M  V30 6437 O 588.43 1.68391 1.10483 0
M  V30 6438 C 585.495 3.06772 1.61529 0
M  V30 6439 C 584.556 4.16516 1.03986 0
M  V30 6440 C 583.789 4.90176 2.111 0
M  V30 6441 O 584.012 4.63687 3.32191 0
M  V30 6442 O 582.946 5.76134 1.74222 0
M  V30 6443 H 586.772 3.03428 -0.12856 0
M  V30 6444 H 584.357 1.48843 -0.128837 0
M  V30 6445 H 586.239 3.55082 2.26924 0
M  V30 6446 H 584.914 2.35596 2.21983 0
M  V30 6447 H 583.821 3.7246 0.349856 0
M  V30 6448 H 585.154 4.89855 0.4799 0
M  V30 6449 N 586.806 0.0935595 1.57322 0
M  V30 6450 C 588.083 -0.612692 1.85756 0
M  V30 6451 C 588.463 -1.86439 0.99013 0
M  V30 6452 O 587.811 -2.28416 0.0621362 0
M  V30 6453 C 588.021 -0.929547 3.36393 0
M  V30 6454 C 589.369 -1.29366 4.04413 0
M  V30 6455 O 590.393 -1.02061 3.41265 0
M  V30 6456 O 589.252 -1.80498 5.15832 0
M  V30 6457 H 586.346 -0.306444 0.768128 0
M  V30 6458 H 588.892 0.126141 1.69231 0
M  V30 6459 H 587.664 -0.0414766 3.91278 0
M  V30 6460 H 587.287 -1.72441 3.5826 0
M  V30 6461 N 588.284 -1.56567 -0.180126 0
M  V30 6462 C 589.247 -1.94852 -1.20686 0
M  V30 6463 C 590.247 -0.831212 -1.3765 0
M  V30 6464 O 591.437 -1.09841 -1.35206 0
M  V30 6465 C 588.569 -2.23565 -2.57355 0
M  V30 6466 H 589.762 -2.86722 -0.879225 0
M  V30 6467 H 587.315 -1.50489 -0.422237 0
M  V30 6468 H 588.05 -1.34381 -2.95148 0
M  V30 6469 H 587.835 -3.04999 -2.46411 0
M  V30 6470 H 589.325 -2.54137 -3.31367 0
M  V30 6471 N 589.762 0.448376 -1.51087 0
M  V30 6472 C 590.709 1.54341 -1.71603 0
M  V30 6473 C 591.679 1.56463 -0.557536 0
M  V30 6474 O 592.864 1.73644 -0.79072 0
M  V30 6475 C 590.004 2.92148 -1.83695 0
M  V30 6476 C 589.117 2.99639 -3.11192 0
M  V30 6477 C 588.252 4.285 -3.13944 0
M  V30 6478 C 587.291 4.29819 -4.35801 0
M  V30 6479 N 586.428 5.50186 -4.36164 0
M  V30 6480 H 591.268 1.36151 -2.65079 0
M  V30 6481 H 588.805 0.661585 -1.31383 0
M  V30 6482 H 590.763 3.72093 -1.88687 0
M  V30 6483 H 589.393 3.0892 -0.936374 0
M  V30 6484 H 588.445 2.12425 -3.15562 0
M  V30 6485 H 589.757 2.96474 -4.01129 0
M  V30 6486 H 588.911 5.16811 -3.17791 0
M  V30 6487 H 587.65 4.34307 -2.21876 0
M  V30 6488 H 586.655 3.39902 -4.32142 0
M  V30 6489 H 587.88 4.25685 -5.29121 0
M  V30 6490 H 585.826 5.56735 -3.46961 0
M  V30 6491 H 585.743 5.48856 -5.19897 0
M  V30 6492 H 587.011 6.40559 -4.44189 0
M  V30 6493 N 591.24 1.41047 0.703093 0
M  V30 6494 C 592.15 1.44645 1.84703 0
M  V30 6495 C 593.166 0.337778 1.7069 0
M  V30 6496 O 594.342 0.584327 1.92737 0
M  V30 6497 C 591.407 1.31928 3.20618 0
M  V30 6498 C 590.468 2.53047 3.46794 0
M  V30 6499 C 589.701 2.40927 4.76224 0
M  V30 6500 O 589.924 1.42978 5.5219 0
M  V30 6501 O 588.858 3.30543 5.03016 0
M  V30 6502 H 592.684 2.41139 1.84624 0
M  V30 6503 H 590.269 1.22504 0.855167 0
M  V30 6504 H 592.151 1.27092 4.01778 0
M  V30 6505 H 590.826 0.385469 3.21397 0
M  V30 6506 H 589.733 2.6346 2.65593 0
M  V30 6507 H 591.066 3.45231 3.50822 0
M  V30 6508 N 592.718 -0.936591 1.26751 0
M  V30 6509 C 593.967 -1.67778 1.11953 0
M  V30 6510 C 594.28 -1.92694 -0.33589 0
M  V30 6511 O 595.486 -2.64682 -0.604618 0
M  V30 6512 C 593.942 -3.02138 1.95551 0
M  V30 6513 C 593.55 -2.84953 3.45696 0
M  V30 6514 C 595.294 -3.79917 1.89377 0
M  V30 6515 C 593.201 -4.14814 4.21525 0
M  V30 6516 H 592.131 -0.629275 0.415366 0
M  V30 6517 H 594.782 -1.04122 1.51099 0
M  V30 6518 H 593.164 -3.668 1.49243 0
M  V30 6519 H 594.338 -2.29112 3.99805 0
M  V30 6520 H 592.653 -2.20612 3.53156 0
M  V30 6521 H 595.25 -4.76134 2.43312 0
M  V30 6522 H 595.593 -4.07204 0.865464 0
M  V30 6523 H 596.126 -3.22037 2.33532 0
M  V30 6524 H 592.865 -3.92709 5.24843 0
M  V30 6525 H 592.385 -4.70352 3.72195 0
M  V30 6526 H 594.064 -4.83239 4.3022 0
M  V30 6527 N 594.196 -1.08629 -1.14182 0
M  V30 6528 C 595.129 -0.662329 -2.18377 0
M  V30 6529 C 596.107 0.327054 -1.59277 0
M  V30 6530 O 597.291 0.230376 -1.87087 0
M  V30 6531 C 594.418 0.0254765 -3.3869 0
M  V30 6532 C 593.464 -0.924414 -4.16361 0
M  V30 6533 S 594.297 -2.43226 -4.77076 0
M  V30 6534 C 595.453 -1.75663 -6.00744 0
M  V30 6535 H 595.686 -1.54501 -2.54001 0
M  V30 6536 H 593.219 -0.901484 -1.2535 0
M  V30 6537 H 595.177 0.416032 -4.08386 0
M  V30 6538 H 593.838 0.884689 -3.01384 0
M  V30 6539 H 593.031 -0.390099 -5.02488 0
M  V30 6540 H 592.633 -1.25598 -3.5228 0
M  V30 6541 H 594.925 -1.07589 -6.68903 0
M  V30 6542 H 595.868 -2.59673 -6.58768 0
M  V30 6543 H 596.276 -1.22903 -5.50958 0
M  V30 6544 N 595.674 1.31259 -0.872281 0
M  V30 6545 C 596.606 2.27396 -0.28697 0
M  V30 6546 C 597.619 1.53181 0.551297 0
M  V30 6547 O 598.808 1.74561 0.372914 0
M  V30 6548 C 595.908 3.33335 0.611617 0
M  V30 6549 C 595.081 4.36966 -0.194729 0
M  V30 6550 C 594.14 5.22387 0.632358 0
M  V30 6551 O 593.166 5.69169 0.0595691 0
M  V30 6552 N 594.368 5.46985 1.94391 0
M  V30 6553 H 597.133 2.78261 -1.11314 0
M  V30 6554 H 594.694 1.44306 -0.733994 0
M  V30 6555 H 596.686 3.87398 1.17068 0
M  V30 6556 H 595.256 2.82496 1.33846 0
M  V30 6557 H 594.476 3.82945 -0.935241 0
M  V30 6558 H 595.764 5.03273 -0.747935 0
M  V30 6559 H 595.162 5.10737 2.43237 0
M  V30 6560 H 593.719 6.03973 2.45071 0
M  V30 6561 N 597.152 0.631951 1.44375 0
M  V30 6562 C 598.102 -0.0943862 2.27805 0
M  V30 6563 C 599.086 -0.815359 1.38711 0
M  V30 6564 O 600.278 -0.701331 1.62513 0
M  V30 6565 C 597.407 -1.07472 3.26044 0
M  V30 6566 C 596.493 -0.353329 4.22626 0
M  V30 6567 N 596.884 0.618512 5.02004 0
M  V30 6568 C 595.182 -0.597662 4.41977 0
M  V30 6569 C 595.883 1.0448 5.7224 0
M  V30 6570 N 594.859 0.383413 5.42246 0
M  V30 6571 H 598.661 0.651672 2.86584 0
M  V30 6572 H 596.175 0.45752 1.55822 0
M  V30 6573 H 598.172 -1.60969 3.84571 0
M  V30 6574 H 596.832 -1.82107 2.68825 0
M  V30 6575 H 597.843 0.996356 5.08226 0
M  V30 6576 H 594.52 -1.32682 3.95856 0
M  V30 6577 H 595.91 1.84773 6.45994 0
M  V30 6578 N 598.631 -1.53133 0.372548 0
M  V30 6579 C 600.047 -1.59585 0.02178 0
M  V30 6580 C 600.247 -1.38736 -1.46132 0
M  V30 6581 O 599.303 -1.19599 -2.22379 0
M  V30 6582 C 600.616 -2.9678 0.483959 0
M  V30 6583 C 602.164 -3.09909 0.438775 0
M  V30 6584 C 602.639 -4.49527 0.876876 0
M  V30 6585 N 604.13 -4.55663 0.832214 0
M  V30 6586 C 604.865 -5.61896 1.14281 0
M  V30 6587 N 604.361 -6.75852 1.52303 0
M  V30 6588 N 606.154 -5.51916 1.06515 0
M  V30 6589 H 598.305 -1.64936 1.33827 0
M  V30 6590 H 600.568 -0.773947 0.547458 0
M  V30 6591 H 600.274 -3.17198 1.51915 0
M  V30 6592 H 600.148 -3.7699 -0.125784 0
M  V30 6593 H 602.535 -2.89197 -0.587294 0
M  V30 6594 H 602.616 -2.31691 1.0841 0
M  V30 6595 H 602.26 -4.70979 1.90109 0
M  V30 6596 H 602.19 -5.26186 0.208727 0
M  V30 6597 H 604.681 -3.73844 0.552195 0
M  V30 6598 H 604.994 -7.52862 1.7441 0
M  V30 6599 H 603.339 -6.77226 1.56175 0
M  V30 6600 H 606.53 -4.6177 0.767235 0
M  V30 6601 H 606.703 -6.34609 1.31053 0
M  V30 6602 N 600.109 -0.101901 -1.5727 0
M  V30 6603 C 601.356 0.560197 -1.94597 0
M  V30 6604 C 601.684 1.67767 -0.984101 0
M  V30 6605 O 600.939 1.95699 -0.00489193 0
M  V30 6606 C 601.238 1.14898 -3.38427 0
M  V30 6607 C 600.904 0.154613 -4.50635 0
M  V30 6608 C 599.566 -0.118861 -4.81053 0
M  V30 6609 C 601.918 -0.523979 -5.18559 0
M  V30 6610 C 599.246 -1.0775 -5.76721 0
M  V30 6611 C 601.598 -1.47114 -6.15256 0
M  V30 6612 C 600.262 -1.75278 -6.44076 0
M  V30 6613 H 599.532 0.204991 -0.712081 0
M  V30 6614 H 602.179 -0.17918 -1.9066 0
M  V30 6615 H 600.484 1.96476 -3.38976 0
M  V30 6616 H 602.181 1.66909 -3.64613 0
M  V30 6617 H 598.771 0.377948 -4.2693 0
M  V30 6618 H 602.955 -0.325851 -4.95229 0
M  V30 6619 H 598.211 -1.30263 -5.97362 0
M  V30 6620 H 602.385 -2.00274 -6.66981 0
M  V30 6621 H 600.012 -2.49717 -7.18015 0
M  V30 6622 N 601.587 1.56661 0.17182 0
M  V30 6623 C 602.834 1.81965 0.888529 0
M  V30 6624 C 603.162 0.6789 1.82267 0
M  V30 6625 O 602.417 -0.333875 1.92831 0
M  V30 6626 C 602.716 3.13435 1.71736 0
M  V30 6627 C 602.382 4.41159 0.932184 0
M  V30 6628 C 601.044 4.75851 0.715481 0
M  V30 6629 C 603.396 5.19803 0.381387 0
M  V30 6630 C 600.724 5.86666 -0.063126 0
M  V30 6631 C 603.076 6.31433 -0.384129 0
M  V30 6632 C 601.74 6.64692 -0.611637 0
M  V30 6633 H 601.01 0.665859 0.325136 0
M  V30 6634 H 603.657 1.90884 0.153495 0
M  V30 6635 H 601.962 2.99857 2.52177 0
M  V30 6636 H 603.659 3.30224 2.27493 0
M  V30 6637 H 600.249 4.13947 1.11112 0
M  V30 6638 H 604.433 4.93396 0.536148 0
M  V30 6639 H 599.689 6.10892 -0.249136 0
M  V30 6640 H 603.863 6.91577 -0.818185 0
M  V30 6641 H 601.49 7.50398 -1.21684 0
M  V30 6642 N 603.065 -0.440357 1.51323 0
M  V30 6643 C 604.028 -1.51679 1.71832 0
M  V30 6644 C 605.028 -1.49648 0.588386 0
M  V30 6645 O 606.218 -1.51724 0.855891 0
M  V30 6646 C 603.35 -2.91228 1.77199 0
M  V30 6647 H 604.543 -1.34799 2.67898 0
M  V30 6648 H 602.096 -0.66883 1.41267 0
M  V30 6649 H 602.831 -3.13516 0.829363 0
M  V30 6650 H 602.616 -2.94107 2.59314 0
M  V30 6651 H 604.106 -3.69321 1.94915 0
M  V30 6652 N 604.543 -1.41418 -0.695603 0
M  V30 6653 C 605.791 -1.40496 -1.45277 0
M  V30 6654 C 606.112 -0.0149538 -1.94994 0
M  V30 6655 O 605.382 0.9432 -1.71699 0
M  V30 6656 H 603.962 -0.517147 -0.539044 0
M  V30 6657 H 606.624 -1.76656 -0.823321 0
M  V30 6658 H 605.72 -2.09214 -2.31595 0
M  V30 6659 N 606.021 0.929856 -1.27246 0
M  V30 6660 C 607.27 1.67182 -1.12842 0
M  V30 6661 C 607.583 1.9287 0.325666 0
M  V30 6662 O 608.789 2.64999 0.590572 0
M  V30 6663 C 607.245 3.01097 -1.97151 0
M  V30 6664 C 606.853 2.83115 -3.47203 0
M  V30 6665 C 608.597 3.78907 -1.91389 0
M  V30 6666 C 606.504 4.12573 -4.23719 0
M  V30 6667 H 605.434 0.627064 -0.418697 0
M  V30 6668 H 608.085 1.0332 -1.51649 0
M  V30 6669 H 606.467 3.66004 -1.51186 0
M  V30 6670 H 607.641 2.26989 -4.01015 0
M  V30 6671 H 605.956 2.18736 -3.54321 0
M  V30 6672 H 608.553 4.74837 -2.45834 0
M  V30 6673 H 608.896 4.0674 -0.887047 0
M  V30 6674 H 609.429 3.20794 -2.35237 0
M  V30 6675 H 606.168 3.8992 -5.26918 0
M  V30 6676 H 605.688 4.68371 -3.74685 0
M  V30 6677 H 607.367 4.8095 -4.32777 0
M  V30 6678 N 607.499 1.09233 1.13605 0
M  V30 6679 C 608.745 0.828385 1.8511 0
M  V30 6680 C 609.078 -0.64437 1.83198 0
M  V30 6681 O 608.353 -1.47428 1.26867 0
M  V30 6682 C 608.636 1.36167 3.33363 0
M  V30 6683 C 608.489 2.90038 3.438 0
M  V30 6684 C 609.808 0.993819 4.28732 0
M  V30 6685 H 606.927 0.30239 0.672108 0
M  V30 6686 H 609.569 1.35339 1.33355 0
M  V30 6687 H 607.719 0.9151 3.77569 0
M  V30 6688 H 609.391 3.43128 3.08319 0
M  V30 6689 H 607.634 3.27271 2.84739 0
M  V30 6690 H 608.305 3.22428 4.48045 0
M  V30 6691 H 610.781 1.37893 3.92587 0
M  V30 6692 H 609.657 1.39403 5.30903 0
M  V30 6693 H 609.918 -0.0982206 4.41991 0
M  V30 6694 N 608.977 -1.30795 0.87923 0
M  V30 6695 C 610.223 -1.97035 0.50487 0
M  V30 6696 C 610.578 -1.68182 -0.934484 0
M  V30 6697 O 609.871 -0.972953 -1.65058 0
M  V30 6698 C 610.065 -3.50287 0.709476 0
M  V30 6699 C 609.894 -3.94035 2.16717 0
M  V30 6700 C 608.664 -4.1992 2.81061 0
M  V30 6701 C 610.862 -4.07288 3.1404 0
M  V30 6702 N 608.844 -4.50088 4.17486 0
M  V30 6703 C 610.215 -4.41273 4.35521 0
M  V30 6704 C 612.27 -3.89696 3.09906 0
M  V30 6705 C 610.973 -4.59501 5.534 0
M  V30 6706 C 612.999 -4.09122 4.27052 0
M  V30 6707 C 612.361 -4.43447 5.47297 0
M  V30 6708 H 608.46 -0.746181 0.233962 0
M  V30 6709 H 611.044 -1.5814 1.13577 0
M  V30 6710 H 609.215 -3.8825 0.108108 0
M  V30 6711 H 610.947 -4.03567 0.302585 0
M  V30 6712 H 607.702 -4.12906 2.3196 0
M  V30 6713 H 608.126 -4.69316 4.87926 0
M  V30 6714 H 612.768 -3.62239 2.18043 0
M  V30 6715 H 610.486 -4.85802 6.45773 0
M  V30 6716 H 614.072 -3.96985 4.25316 0
M  V30 6717 H 612.952 -4.58171 6.36435 0
M  V30 6718 N 610.455 -0.639598 -1.44038 0
M  V30 6719 C 611.387 0.0987684 -2.28987 0
M  V30 6720 C 612.4 0.80058 -1.41755 0
M  V30 6721 O 613.589 0.660611 -1.65826 0
M  V30 6722 C 610.689 1.16242 -3.18341 0
M  V30 6723 C 609.862 0.541447 -4.34036 0
M  V30 6724 C 608.921 1.50017 -5.04362 0
M  V30 6725 O 607.947 1.01403 -5.60095 0
M  V30 6726 N 609.149 2.83441 -5.06598 0
M  V30 6727 H 611.914 -0.630305 -2.92997 0
M  V30 6728 H 609.475 -0.481376 -1.54578 0
M  V30 6729 H 611.467 1.80429 -3.62253 0
M  V30 6730 H 610.037 1.79362 -2.56024 0
M  V30 6731 H 609.257 -0.27923 -3.9321 0
M  V30 6732 H 610.545 0.107379 -5.08687 0
M  V30 6733 H 609.943 3.2551 -4.62666 0
M  V30 6734 H 608.5 3.42966 -5.54272 0
M  V30 6735 N 611.933 1.52934 -0.380664 0
M  V30 6736 C 612.883 2.22989 0.475399 0
M  V30 6737 C 613.867 1.23058 1.03661 0
M  V30 6738 O 615.059 1.48436 0.964146 0
M  V30 6739 C 612.188 3.0338 1.60671 0
M  V30 6740 C 611.274 4.107 1.05766 0
M  V30 6741 N 611.665 5.05264 0.232837 0
M  V30 6742 C 609.963 4.25676 1.33101 0
M  V30 6743 C 610.664 5.81658 -0.0695134 0
M  V30 6744 N 609.64 5.40989 0.532144 0
M  V30 6745 H 613.442 2.93456 -0.161418 0
M  V30 6746 H 610.956 1.61291 -0.189495 0
M  V30 6747 H 612.953 3.52098 2.23232 0
M  V30 6748 H 611.613 2.34446 2.24644 0
M  V30 6749 H 612.624 5.17739 -0.129204 0
M  V30 6750 H 609.301 3.6797 1.97241 0
M  V30 6751 H 610.691 6.67843 -0.737269 0
M  V30 6752 N 613.412 0.11024 1.57214 0
M  V30 6753 C 614.658 -0.550684 1.9518 0
M  V30 6754 C 614.991 -1.66885 0.993122 0
M  V30 6755 O 614.266 -1.94479 0.0287907 0
M  V30 6756 C 614.549 -1.09163 3.43155 0
M  V30 6757 C 614.402 0.0225198 4.49794 0
M  V30 6758 C 615.721 -1.98527 3.92778 0
M  V30 6759 H 612.84 -0.198706 0.709708 0
M  V30 6760 H 615.482 0.184024 1.89107 0
M  V30 6761 H 613.632 -1.71775 3.48462 0
M  V30 6762 H 615.304 0.657443 4.56591 0
M  V30 6763 H 613.547 0.686868 4.28328 0
M  V30 6764 H 614.218 -0.39706 5.5057 0
M  V30 6765 H 616.694 -1.458 3.8972 0
M  V30 6766 H 615.57 -2.33298 4.96853 0
M  V30 6767 H 615.831 -2.90846 3.32958 0
M  V30 6768 N 614.89 -1.56749 -0.16351 0
M  V30 6769 C 616.12 -1.86307 -0.892936 0
M  V30 6770 C 616.528 -0.6945 -1.75992 0
M  V30 6771 O 615.871 0.345384 -1.80424 0
M  V30 6772 C 615.933 -3.10372 -1.81409 0
M  V30 6773 C 615.597 -4.42913 -1.12593 0
M  V30 6774 C 616.594 -5.17608 -0.487661 0
M  V30 6775 C 614.279 -4.89646 -1.12035 0
M  V30 6776 C 616.273 -6.3723 0.14699 0
M  V30 6777 C 613.96 -6.09197 -0.481883 0
M  V30 6778 C 614.958 -6.82834 0.150678 0
M  V30 6779 O 614.646 -8.00116 0.779065 0
M  V30 6780 H 614.378 -0.622126 -0.264452 0
M  V30 6781 H 616.932 -2.04728 -0.166063 0
M  V30 6782 H 615.162 -2.87917 -2.58148 0
M  V30 6783 H 616.851 -3.26312 -2.41403 0
M  V30 6784 H 617.617 -4.8258 -0.483888 0
M  V30 6785 H 613.496 -4.32265 -1.60212 0
M  V30 6786 H 617.04 -6.94646 0.641325 0
M  V30 6787 H 612.937 -6.43688 -0.483266 0
M  V30 6788 H 613.705 -8.15678 0.679089 0
M  V30 6789 N 616.368 0.432326 -1.51554 0
M  V30 6790 C 617.278 1.55023 -1.76082 0
M  V30 6791 C 618.294 1.61593 -0.645265 0
M  V30 6792 O 619.47 1.78742 -0.928086 0
M  V30 6793 C 616.535 2.90964 -1.88523 0
M  V30 6794 C 615.596 2.9447 -3.12388 0
M  V30 6795 C 614.829 4.23926 -3.24225 0
M  V30 6796 O 615.052 5.16576 -2.4188 0
M  V30 6797 O 613.986 4.33818 -4.17235 0
M  V30 6798 H 617.812 1.37238 -2.70923 0
M  V30 6799 H 615.397 0.615845 -1.36117 0
M  V30 6800 H 617.279 3.71633 -1.98662 0
M  V30 6801 H 615.954 3.08865 -0.9687 0
M  V30 6802 H 614.861 2.12737 -3.07723 0
M  V30 6803 H 616.194 2.81514 -4.03746 0
M  V30 6804 N 617.846 1.41785 0.688094 0
M  V30 6805 C 618.793 1.44221 1.80191 0
M  V30 6806 C 619.763 0.295688 1.63447 0
M  V30 6807 O 620.948 0.49783 1.84191 0
M  V30 6808 C 618.088 1.33743 3.1813 0
M  V30 6809 C 617.201 2.58325 3.46254 0
M  V30 6810 C 616.336 2.40086 4.73848 0
M  V30 6811 C 615.375 3.60107 4.94964 0
M  V30 6812 N 614.512 3.40892 6.13789 0
M  V30 6813 H 619.352 2.39411 1.77444 0
M  V30 6814 H 616.889 1.18876 0.866423 0
M  V30 6815 H 618.847 1.25669 3.97823 0
M  V30 6816 H 617.477 0.42157 3.20035 0
M  V30 6817 H 616.529 2.7682 2.60912 0
M  V30 6818 H 617.841 3.4758 3.57756 0
M  V30 6819 H 616.995 2.29522 5.61609 0
M  V30 6820 H 615.734 1.483 4.64606 0
M  V30 6821 H 614.739 3.71118 4.05649 0
M  V30 6822 H 615.964 4.52857 5.06061 0
M  V30 6823 H 613.91 2.51812 6.05745 0
M  V30 6824 H 613.827 4.23727 6.26092 0
M  V30 6825 H 615.095 3.34114 7.04264 0
M  V30 6826 N 619.324 -0.923095 1.27737 0
M  V30 6827 C 620.271 -2.02432 1.1086 0
M  V30 6828 C 621.241 -1.66098 0.00835195 0
M  V30 6829 O 622.426 -1.90027 0.171542 0
M  V30 6830 C 619.566 -3.36476 0.766671 0
M  V30 6831 C 618.679 -3.85737 1.94501 0
M  V30 6832 C 617.814 -5.08249 1.54455 0
M  V30 6833 C 616.853 -5.49818 2.6901 0
M  V30 6834 N 615.99 -6.63524 2.29521 0
M  V30 6835 H 620.83 -2.16201 2.05089 0
M  V30 6836 H 618.367 -1.05909 1.02087 0
M  V30 6837 H 620.325 -4.13569 0.549223 0
M  V30 6838 H 618.955 -3.22502 -0.13867 0
M  V30 6839 H 618.007 -3.04883 2.27487 0
M  V30 6840 H 619.319 -4.12513 2.80419 0
M  V30 6841 H 618.473 -5.92857 1.28862 0
M  V30 6842 H 617.212 -4.83261 0.656534 0
M  V30 6843 H 616.217 -4.63757 2.95313 0
M  V30 6844 H 617.442 -5.76799 3.5844 0
M  V30 6845 H 615.388 -6.40185 1.43177 0
M  V30 6846 H 615.305 -6.89978 3.08977 0
M  V30 6847 H 616.573 -7.51461 2.07187 0
M  V30 6848 N 620.802 -1.09834 -1.13024 0
M  V30 6849 C 621.732 -0.763451 -2.20666 0
M  V30 6850 C 622.713 0.260778 -1.68089 0
M  V30 6851 O 623.898 0.127915 -1.93778 0
M  V30 6852 C 621.028 -0.187744 -3.46792 0
M  V30 6853 C 619.982 -1.14196 -4.12484 0
M  V30 6854 C 619.308 -0.427755 -5.32986 0
M  V30 6855 C 620.608 -2.48607 -4.59338 0
M  V30 6856 H 622.302 -1.66347 -2.48936 0
M  V30 6857 H 619.848 -0.801261 -1.19649 0
M  V30 6858 H 621.801 0.0586375 -4.21359 0
M  V30 6859 H 620.525 0.747485 -3.17931 0
M  V30 6860 H 619.184 -1.37369 -3.3989 0
M  V30 6861 H 618.832 0.511747 -5.0039 0
M  V30 6862 H 618.532 -1.06403 -5.77886 0
M  V30 6863 H 620.056 -0.189772 -6.10305 0
M  V30 6864 H 621.47 -2.29618 -5.25308 0
M  V30 6865 H 619.867 -3.08062 -5.14993 0
M  V30 6866 H 620.937 -3.09062 -3.73642 0
M  V30 6867 N 622.28 1.30327 -0.886154 0
M  V30 6868 C 623.505 2.0079 -0.519425 0
M  V30 6869 C 623.93 1.65979 0.885013 0
M  V30 6870 O 623.288 0.877043 1.58675 0
M  V30 6871 C 623.336 3.53686 -0.702758 0
M  V30 6872 O 622.44 4.11637 0.250828 0
M  V30 6873 H 621.781 0.63171 -0.204544 0
M  V30 6874 H 624.311 1.66145 -1.19402 0
M  V30 6875 H 624.321 4.03531 -0.602207 0
M  V30 6876 H 622.996 3.78361 -1.72673 0
M  V30 6877 H 621.573 3.72755 0.103873 0
M  V30 6878 N 623.758 0.647228 1.43697 0
M  V30 6879 C 625.169 0.238689 1.85168 0
M  V30 6880 C 625.52 -1.21345 1.54175 0
M  V30 6881 O 624.645 -1.92542 0.987743 0
M  V30 6882 C 625.24 0.426422 3.36106 0
M  V30 6883 C 623.799 0.0722541 3.76331 0
M  V30 6884 C 622.946 0.732153 2.6746 0
M  V30 6885 H 625.897 0.851309 1.33934 0
M  V30 6886 H 625.918 -0.32987 3.79067 0
M  V30 6887 H 625.43 1.48339 3.58632 0
M  V30 6888 H 623.531 -0.982355 3.59417 0
M  V30 6889 H 623.644 0.493541 4.76551 0
M  V30 6890 H 622.008 0.16594 2.54159 0
M  V30 6891 H 622.791 1.79204 2.92816 0
M  V30 6892 N 625.236 -1.5273 0.388769 0
M  V30 6893 C 626.647 -1.86505 -0.0853788 0
M  V30 6894 C 626.998 -1.30847 -1.46197 0
M  V30 6895 O 626.123 -0.639609 -2.06732 0
M  V30 6896 C 626.718 -3.38414 -0.161703 0
M  V30 6897 C 625.277 -3.71902 -0.580144 0
M  V30 6898 C 624.424 -2.76095 0.258218 0
M  V30 6899 H 627.375 -1.46647 0.606665 0
M  V30 6900 H 627.396 -3.67638 -0.980936 0
M  V30 6901 H 626.908 -3.78893 0.840333 0
M  V30 6902 H 625.009 -3.36992 -1.58957 0
M  V30 6903 H 625.122 -4.77902 -0.338663 0
M  V30 6904 H 623.486 -2.53195 -0.276432 0
M  V30 6905 H 624.269 -3.19411 1.25822 0
M  V30 6906 N 626.714 -0.118576 -1.57153 0
M  V30 6907 C 627.961 0.539526 -1.9518 0
M  V30 6908 C 628.289 1.66714 -1.00184 0
M  V30 6909 O 627.544 1.95683 -0.0256482 0
M  V30 6910 C 627.843 1.11303 -3.39627 0
M  V30 6911 C 627.509 0.106809 -4.50773 0
M  V30 6912 C 626.171 -0.169876 -4.809 0
M  V30 6913 C 628.523 -0.57895 -5.17975 0
M  V30 6914 C 625.851 -1.13861 -5.75545 0
M  V30 6915 C 628.203 -1.53631 -6.13661 0
M  V30 6916 C 626.867 -1.82099 -6.42181 0
M  V30 6917 H 626.137 0.197427 -0.714215 0
M  V30 6918 H 628.784 -0.199391 -1.90459 0
M  V30 6919 H 627.089 1.92869 -3.4104 0
M  V30 6920 H 628.786 1.63032 -3.66363 0
M  V30 6921 H 625.376 0.332645 -4.27307 0
M  V30 6922 H 629.56 -0.378359 -4.94856 0
M  V30 6923 H 624.816 -1.36592 -5.95947 0
M  V30 6924 H 628.99 -2.07337 -6.64819 0
M  V30 6925 H 626.617 -2.57319 -7.15326 0
M  V30 6926 N 628.193 1.56834 0.155195 0
M  V30 6927 C 629.14 1.97646 1.19184 0
M  V30 6928 C 630.11 0.842788 1.4313 0
M  V30 6929 O 631.295 1.1042 1.55602 0
M  V30 6930 C 628.435 2.35527 2.52232 0
M  V30 6931 C 627.548 3.62147 2.35529 0
M  V30 6932 C 626.683 3.89167 3.61555 0
M  V30 6933 C 625.722 5.09084 3.39853 0
M  V30 6934 N 624.859 5.32156 4.5799 0
M  V30 6935 H 629.699 2.8601 0.836802 0
M  V30 6936 H 627.236 1.41507 0.401758 0
M  V30 6937 H 629.194 2.55516 3.29799 0
M  V30 6938 H 627.824 1.50253 2.85699 0
M  V30 6939 H 626.876 3.4998 1.49057 0
M  V30 6940 H 628.188 4.49871 2.15448 0
M  V30 6941 H 627.342 4.09611 4.47553 0
M  V30 6942 H 626.081 2.9985 3.84632 0
M  V30 6943 H 625.086 4.88522 2.52243 0
M  V30 6944 H 626.311 5.99947 3.18183 0
M  V30 6945 H 624.257 4.45791 4.81255 0
M  V30 6946 H 624.174 6.14133 4.40882 0
M  V30 6947 H 625.442 5.57091 5.45225 0
M  V30 6948 N 629.671 -0.424282 1.51781 0
M  V30 6949 C 631.082 -1.00368 1.57427 0
M  V30 6950 C 631.433 -1.91962 0.40558 0
M  V30 6951 O 630.558 -2.111 -0.47601 0
M  V30 6952 C 631.153 -1.82707 2.85313 0
M  V30 6953 C 629.712 -2.35675 2.93487 0
M  V30 6954 C 628.859 -1.1524 2.5222 0
M  V30 6955 H 631.81 -0.205064 1.5737 0
M  V30 6956 H 631.831 -2.68294 2.69812 0
M  V30 6957 H 631.343 -1.16017 3.70353 0
M  V30 6958 H 629.444 -3.05781 2.12906 0
M  V30 6959 H 629.557 -2.67578 3.97415 0
M  V30 6960 H 627.921 -1.50174 2.05718 0
M  V30 6961 H 628.704 -0.5014 3.39619 0
M  V30 6962 N 631.149 -1.42148 -0.680565 0
M  V30 6963 C 632.081 -1.41119 -1.80605 0
M  V30 6964 C 633.094 -0.311099 -1.598 0
M  V30 6965 O 634.283 -0.573813 -1.69026 0
M  V30 6966 C 631.383 -1.18204 -3.17618 0
M  V30 6967 C 630.556 -2.40537 -3.65322 0
M  V30 6968 C 629.615 -2.13254 -4.8105 0
M  V30 6969 O 628.641 -2.8641 -4.91892 0
M  V30 6970 N 629.843 -1.13208 -5.69354 0
M  V30 6971 H 632.608 -2.38128 -1.81975 0
M  V30 6972 H 630.169 -1.36953 -0.863446 0
M  V30 6973 H 632.161 -0.97878 -3.92686 0
M  V30 6974 H 630.731 -0.29738 -3.11182 0
M  V30 6975 H 629.951 -2.76468 -2.80996 0
M  V30 6976 H 631.239 -3.22012 -3.93936 0
M  V30 6977 H 630.637 -0.526893 -5.63241 0
M  V30 6978 H 629.194 -0.988699 -6.44258 0
M  V30 6979 N 632.627 0.916307 -1.28225 0
M  V30 6980 C 633.873 1.66765 -1.154 0
M  V30 6981 C 634.206 1.91912 0.297251 0
M  V30 6982 O 633.481 1.51766 1.21644 0
M  V30 6983 C 633.764 3.02715 -1.95028 0
M  V30 6984 C 633.617 2.84738 -3.48201 0
M  V30 6985 C 634.936 4.03215 -1.76369 0
M  V30 6986 H 632.055 0.605205 -0.42059 0
M  V30 6987 H 634.697 1.06255 -1.57512 0
M  V30 6988 H 632.847 3.54365 -1.59242 0
M  V30 6989 H 634.519 2.40118 -3.9388 0
M  V30 6990 H 632.762 2.19848 -3.73964 0
M  V30 6991 H 633.433 3.8127 -3.99171 0
M  V30 6992 H 635.909 3.60617 -2.07593 0
M  V30 6993 H 634.785 4.96306 -2.34459 0
M  V30 6994 H 635.046 4.36288 -0.71452 0
M  V30 6995 N 634.105 1.10431 1.1244 0
M  V30 6996 C 635.333 0.868872 1.87772 0
M  V30 6997 C 635.748 -0.580645 1.7965 0
M  V30 6998 O 635.105 -1.40031 1.17036 0
M  V30 6999 C 635.156 1.30855 3.36986 0
M  V30 7000 O 634.877 2.70123 3.44914 0
M  V30 7001 C 636.378 1.107 4.29256 0
M  V30 7002 H 633.598 0.311868 0.59412 0
M  V30 7003 H 636.142 1.46897 1.42273 0
M  V30 7004 H 634.297 0.752126 3.80029 0
M  V30 7005 H 634.711 2.88923 4.37748 0
M  V30 7006 H 636.185 1.46378 5.32238 0
M  V30 7007 H 636.662 0.0456228 4.39176 0
M  V30 7008 H 637.268 1.64988 3.91994 0
M  V30 7009 N 635.583 -1.29855 0.893053 0
M  V30 7010 C 636.808 -2.00512 0.530066 0
M  V30 7011 C 637.233 -1.66446 -0.876199 0
M  V30 7012 O 636.591 -0.885446 -1.58207 0
M  V30 7013 C 636.639 -3.53308 0.721505 0
M  V30 7014 O 635.743 -4.11764 -0.228994 0
M  V30 7015 H 635.084 -0.630617 0.207891 0
M  V30 7016 H 637.614 -1.6551 1.20282 0
M  V30 7017 H 637.624 -4.03206 0.623599 0
M  V30 7018 H 636.299 -3.77439 1.74678 0
M  V30 7019 H 634.876 -3.72805 -0.0841034 0
M  V30 7020 N 637.061 -0.65484 -1.43351 0
M  V30 7021 C 637.971 0.0363603 -2.34572 0
M  V30 7022 C 638.987 0.810432 -1.53974 0
M  V30 7023 O 640.163 0.757308 -1.86619 0
M  V30 7024 C 637.228 0.989733 -3.32273 0
M  V30 7025 C 636.289 0.212414 -4.28774 0
M  V30 7026 C 635.522 1.12038 -5.21808 0
M  V30 7027 O 635.745 2.35967 -5.19303 0
M  V30 7028 O 634.679 0.59191 -5.98982 0
M  V30 7029 H 638.505 -0.714527 -2.95175 0
M  V30 7030 H 636.09 -0.415029 -1.4352 0
M  V30 7031 H 637.972 1.53759 -3.92347 0
M  V30 7032 H 636.647 1.72082 -2.74171 0
M  V30 7033 H 635.554 -0.379062 -3.72175 0
M  V30 7034 H 636.887 -0.479138 -4.89862 0
M  V30 7035 N 638.539 1.52521 -0.396863 0
M  V30 7036 C 639.767 2.06091 0.18275 0
M  V30 7037 C 640.182 1.26796 1.39886 0
M  V30 7038 O 639.539 0.316585 1.79733 0
M  V30 7039 C 639.59 3.57362 0.545377 0
M  V30 7040 O 639.311 4.33656 -0.622428 0
M  V30 7041 C 640.812 4.27305 1.18004 0
M  V30 7042 H 638.032 0.670504 0.025789 0
M  V30 7043 H 640.576 1.96561 -0.564276 0
M  V30 7044 H 638.731 3.66941 1.2423 0
M  V30 7045 H 639.145 5.23507 -0.322662 0
M  V30 7046 H 640.619 5.34366 1.38408 0
M  V30 7047 H 641.096 3.83 2.1496 0
M  V30 7048 H 641.702 4.22064 0.523671 0
M  V30 7049 N 640.017 0.126909 1.57088 0
M  V30 7050 C 641.294 -0.573152 1.87014 0
M  V30 7051 C 641.674 -1.84297 1.02945 0
M  V30 7052 O 641.022 -2.28232 0.110573 0
M  V30 7053 C 641.232 -0.857984 3.38289 0
M  V30 7054 C 642.58 -1.20759 4.07066 0
M  V30 7055 O 643.604 -0.947992 3.43353 0
M  V30 7056 O 642.463 -1.69516 5.19545 0
M  V30 7057 H 639.557 -0.290082 0.774456 0
M  V30 7058 H 642.103 0.162008 1.68925 0
M  V30 7059 H 640.875 0.0415286 3.91278 0
M  V30 7060 H 640.498 -1.64803 3.61837 0
M  V30 7061 N 641.495 -1.56914 -0.146875 0
M  V30 7062 C 642.723 -1.87515 -0.874394 0
M  V30 7063 C 643.138 -0.715116 -1.74733 0
M  V30 7064 O 642.495 0.315113 -1.79759 0
M  V30 7065 C 642.546 -3.17362 -1.731 0
M  V30 7066 O 642.267 -4.28897 -0.893245 0
M  V30 7067 C 643.768 -3.61479 -2.56609 0
M  V30 7068 H 640.988 -0.621546 -0.252827 0
M  V30 7069 H 643.532 -2.04023 -0.139627 0
M  V30 7070 H 641.687 -3.02608 -2.41883 0
M  V30 7071 H 642.101 -5.03146 -1.48137 0
M  V30 7072 H 643.575 -4.5517 -3.12289 0
M  V30 7073 H 644.052 -2.86773 -3.32653 0
M  V30 7074 H 644.658 -3.78927 -1.93117 0
M  V30 7075 N 642.974 0.416227 -1.52004 0
M  V30 7076 C 644.39 0.754319 -1.40649 0
M  V30 7077 C 644.59 1.95059 -0.505392 0
M  V30 7078 O 643.646 2.5248 0.0315057 0
M  V30 7079 C 644.959 1.0149 -2.83055 0
M  V30 7080 C 646.507 1.11805 -2.9235 0
M  V30 7081 C 646.982 1.41144 -4.35709 0
M  V30 7082 N 648.473 1.48024 -4.38911 0
M  V30 7083 C 649.208 1.72338 -5.46889 0
M  V30 7084 N 648.704 1.94303 -6.64995 0
M  V30 7085 N 650.497 1.74294 -5.34395 0
M  V30 7086 H 642.648 -0.371324 -2.09129 0
M  V30 7087 H 644.911 -0.103811 -0.942299 0
M  V30 7088 H 644.617 0.208345 -3.51082 0
M  V30 7089 H 644.491 1.93697 -3.23668 0
M  V30 7090 H 646.878 1.91521 -2.24508 0
M  V30 7091 H 646.959 0.17451 -2.55204 0
M  V30 7092 H 646.603 0.619484 -5.04108 0
M  V30 7093 H 646.533 2.36739 -4.70385 0
M  V30 7094 H 649.024 1.32868 -3.53772 0
M  V30 7095 H 649.337 2.12286 -7.43071 0
M  V30 7096 H 647.682 1.91582 -6.68073 0
M  V30 7097 H 650.873 1.56667 -4.41104 0
M  V30 7098 H 651.046 1.92904 -6.18621 0
M  V30 7099 N 644.452 1.42507 0.673017 0
M  V30 7100 C 645.682 1.46261 1.45916 0
M  V30 7101 C 646.09 0.0729724 1.89059 0
M  V30 7102 O 645.433 -0.922987 1.58829 0
M  V30 7103 C 645.495 2.32853 2.73898 0
M  V30 7104 C 645.159 3.80699 2.52819 0
M  V30 7105 C 646.156 4.72307 2.17306 0
M  V30 7106 C 643.841 4.24983 2.67758 0
M  V30 7107 C 645.835 6.06192 1.97003 0
M  V30 7108 C 643.522 5.58927 2.4707 0
M  V30 7109 C 644.52 6.49348 2.11746 0
M  V30 7110 O 644.208 7.80817 1.91259 0
M  V30 7111 H 643.94 0.499561 0.455428 0
M  V30 7112 H 646.494 1.87697 0.834196 0
M  V30 7113 H 644.724 1.86268 3.38882 0
M  V30 7114 H 646.413 2.28041 3.35786 0
M  V30 7115 H 647.179 4.39378 2.05359 0
M  V30 7116 H 643.058 3.54893 2.94231 0
M  V30 7117 H 646.602 6.76731 1.69355 0
M  V30 7118 H 642.499 5.91429 2.58615 0
M  V30 7119 H 643.267 7.92194 2.05843 0
M  V30 7120 N 645.93 -0.909495 1.28709 0
M  V30 7121 C 647.177 -1.65905 1.16111 0
M  V30 7122 C 647.505 -1.92334 -0.289436 0
M  V30 7123 O 646.76 -1.52495 -1.22653 0
M  V30 7124 C 647.059 -3.02117 1.90945 0
M  V30 7125 C 646.725 -2.95332 3.40719 0
M  V30 7126 C 645.387 -2.93189 3.81567 0
M  V30 7127 C 647.739 -2.85264 4.36204 0
M  V30 7128 C 645.067 -2.78784 5.16233 0
M  V30 7129 C 647.419 -2.724 5.70948 0
M  V30 7130 C 646.083 -2.68617 6.11066 0
M  V30 7131 H 645.353 -0.60709 0.42488 0
M  V30 7132 H 648 -1.05932 1.59533 0
M  V30 7133 H 646.305 -3.65901 1.40085 0
M  V30 7134 H 648.002 -3.59026 1.7861 0
M  V30 7135 H 644.592 -2.97797 3.08245 0
M  V30 7136 H 648.776 -2.86005 4.05605 0
M  V30 7137 H 644.032 -2.74254 5.46438 0
M  V30 7138 H 648.206 -2.63579 6.44592 0
M  V30 7139 H 645.833 -2.57213 7.15364 0
M  V30 7140 N 647.408 -1.11026 -1.11852 0
M  V30 7141 C 648.685 -0.768347 -1.79877 0
M  V30 7142 C 649.065 0.744261 -1.97545 0
M  V30 7143 O 648.413 1.67271 -1.55669 0
M  V30 7144 C 648.623 -1.52648 -3.13846 0
M  V30 7145 C 649.971 -1.70297 -3.88953 0
M  V30 7146 O 650.995 -1.49037 -3.23522 0
M  V30 7147 O 649.854 -2.05593 -5.06353 0
M  V30 7148 H 646.948 -0.277891 -0.778913 0
M  V30 7149 H 649.494 -1.21343 -1.18633 0
M  V30 7150 H 648.266 -2.55564 -2.96315 0
M  V30 7151 H 647.889 -1.07466 -3.82801 0
M  V30 7152 N 648.886 1.2938 -0.899927 0
M  V30 7153 C 649.796 2.31462 -0.382437 0
M  V30 7154 C 650.812 1.65956 0.522929 0
M  V30 7155 O 651.988 1.97131 0.412454 0
M  V30 7156 C 649.053 3.44595 0.381472 0
M  V30 7157 C 648.114 4.25692 -0.555444 0
M  V30 7158 C 647.347 5.33422 0.172102 0
M  V30 7159 O 647.57 5.53053 1.396 0
M  V30 7160 O 646.504 5.99939 -0.485491 0
M  V30 7161 H 650.33 2.77706 -1.22934 0
M  V30 7162 H 647.915 1.33821 -0.664259 0
M  V30 7163 H 649.797 4.13474 0.813442 0
M  V30 7164 H 648.472 3.00458 1.20443 0
M  V30 7165 H 647.379 3.59453 -1.03653 0
M  V30 7166 H 648.712 4.73471 -1.34483 0
M  V30 7167 N 650.364 0.662433 1.43002 0
M  V30 7168 C 651.274 -0.0239199 2.34588 0
M  V30 7169 C 652.29 -0.802255 1.54402 0
M  V30 7170 O 653.466 -0.747401 1.87018 0
M  V30 7171 C 650.531 -0.972098 3.32793 0
M  V30 7172 C 649.592 -0.189673 4.28881 0
M  V30 7173 C 648.825 -1.09269 5.22395 0
M  V30 7174 O 649.048 -2.33209 5.20547 0
M  V30 7175 O 647.982 -0.560136 5.99288 0
M  V30 7176 H 651.808 0.730171 2.94792 0
M  V30 7177 H 649.393 0.422635 1.43297 0
M  V30 7178 H 651.275 -1.51676 3.93157 0
M  V30 7179 H 649.95 -1.70626 2.75079 0
M  V30 7180 H 648.857 0.398794 3.71968 0
M  V30 7181 H 650.19 0.50511 4.89601 0
M  V30 7182 N 651.842 -1.52309 0.404946 0
M  V30 7183 C 653.089 -2.01767 -0.1722 0
M  V30 7184 C 653.417 -1.29075 -1.45498 0
M  V30 7185 O 652.672 -0.3843 -1.9189 0
M  V30 7186 C 652.971 -3.54284 -0.470895 0
M  V30 7187 C 652.637 -4.45079 0.722194 0
M  V30 7188 C 651.299 -4.69617 1.04946 0
M  V30 7189 C 653.651 -4.98555 1.51962 0
M  V30 7190 C 650.979 -5.44878 2.17543 0
M  V30 7191 C 653.331 -5.75049 2.63632 0
M  V30 7192 C 651.995 -5.9786 2.9685 0
M  V30 7193 H 651.265 -0.738316 -0.0630125 0
M  V30 7194 H 653.912 -1.83566 0.545506 0
M  V30 7195 H 652.217 -3.70642 -1.27012 0
M  V30 7196 H 653.914 -3.90058 -0.930346 0
M  V30 7197 H 650.504 -4.26155 0.457131 0
M  V30 7198 H 654.688 -4.79509 1.28002 0
M  V30 7199 H 649.944 -5.60762 2.43631 0
M  V30 7200 H 654.118 -6.15483 3.25813 0
M  V30 7201 H 651.745 -6.5596 3.84215 0
M  V30 7202 N 653.32 -0.135238 -1.57019 0
M  V30 7203 C 654.548 0.526066 -2.001 0
M  V30 7204 C 654.963 1.59184 -1.01519 0
M  V30 7205 O 654.32 1.82497 -0.0104258 0
M  V30 7206 C 654.371 1.13744 -3.43139 0
M  V30 7207 O 654.092 0.114259 -4.37951 0
M  V30 7208 C 655.593 1.8805 -4.01438 0
M  V30 7209 H 652.813 0.137962 -0.656664 0
M  V30 7210 H 655.357 -0.226359 -2.03243 0
M  V30 7211 H 653.512 1.84056 -3.40885 0
M  V30 7212 H 653.926 0.56058 -5.21496 0
M  V30 7213 H 655.4 2.26133 -5.03555 0
M  V30 7214 H 655.877 2.76194 -3.41487 0
M  V30 7215 H 656.483 1.22464 -4.07287 0
M  V30 7216 N 654.798 1.5699 0.138552 0
M  V30 7217 C 655.761 1.97984 1.15478 0
M  V30 7218 C 656.761 0.867416 1.35398 0
M  V30 7219 O 657.951 1.13387 1.32246 0
M  V30 7220 C 655.083 2.3031 2.51337 0
M  V30 7221 H 656.276 2.88953 0.802896 0
M  V30 7222 H 653.829 1.51555 0.382189 0
M  V30 7223 H 654.564 1.42159 2.91481 0
M  V30 7224 H 654.349 3.11425 2.38237 0
M  V30 7225 H 655.839 2.62834 3.24512 0
M  V30 7226 N 656.276 -0.40816 1.52223 0
M  V30 7227 C 657.208 -1.51642 1.71864 0
M  V30 7228 C 658.221 -1.51378 0.599056 0
M  V30 7229 O 659.41 -1.55626 0.874239 0
M  V30 7230 C 656.51 -2.90534 1.74481 0
M  V30 7231 C 655.683 -3.14979 3.03491 0
M  V30 7232 C 654.742 -4.33749 2.97907 0
M  V30 7233 O 653.768 -4.30982 3.71811 0
M  V30 7234 N 654.97 -5.38912 2.15764 0
M  V30 7235 H 657.735 -1.35188 2.67478 0
M  V30 7236 H 655.296 -0.597468 1.50472 0
M  V30 7237 H 657.288 -3.68056 1.68275 0
M  V30 7238 H 655.858 -3.00441 0.863363 0
M  V30 7239 H 655.078 -2.25492 3.23337 0
M  V30 7240 H 656.366 -3.28156 3.88833 0
M  V30 7241 H 655.764 -5.44008 1.55152 0
M  V30 7242 H 654.321 -6.15174 2.15415 0
M  V30 7243 N 657.755 -1.42862 -0.66545 0
M  V30 7244 C 658.688 -1.41509 -1.79026 0
M  V30 7245 C 659.666 -0.278106 -1.60204 0
M  V30 7246 O 660.85 -0.469792 -1.82552 0
M  V30 7247 C 657.977 -1.21494 -3.1616 0
M  V30 7248 C 657.023 -2.38308 -3.53711 0
M  V30 7249 S 657.856 -4.00852 -3.55075 0
M  V30 7250 C 659.012 -3.83197 -4.94885 0
M  V30 7251 H 659.245 -2.36691 -1.79902 0
M  V30 7252 H 656.778 -1.29746 -0.836977 0
M  V30 7253 H 658.736 -1.10633 -3.95311 0
M  V30 7254 H 657.397 -0.27881 -3.1286 0
M  V30 7255 H 656.59 -2.20076 -4.53412 0
M  V30 7256 H 656.192 -2.45732 -2.81943 0
M  V30 7257 H 658.484 -3.44765 -5.83218 0
M  V30 7258 H 659.427 -4.82607 -5.18166 0
M  V30 7259 H 659.835 -3.15884 -4.67843 0
M  V30 7260 N 659.233 0.902656 -1.29189 0
M  V30 7261 C 660.482 1.6475 -1.16362 0
M  V30 7262 C 660.795 1.93517 0.284682 0
M  V30 7263 O 662.001 2.66192 0.534229 0
M  V30 7264 C 660.457 2.96848 -2.03493 0
M  V30 7265 C 660.065 2.75687 -3.5313 0
M  V30 7266 C 661.809 3.74762 -1.99383 0
M  V30 7267 C 659.716 4.03492 -4.32375 0
M  V30 7268 H 658.646 0.618041 -0.431904 0
M  V30 7269 H 661.297 1.0008 -1.53806 0
M  V30 7270 H 659.679 3.62715 -1.58916 0
M  V30 7271 H 660.853 2.18431 -4.05739 0
M  V30 7272 H 659.168 2.11171 -3.58881 0
M  V30 7273 H 661.765 4.69515 -2.5585 0
M  V30 7274 H 662.108 4.04767 -0.973123 0
M  V30 7275 H 662.641 3.15732 -2.41988 0
M  V30 7276 H 659.38 3.78656 -5.3507 0
M  V30 7277 H 658.9 4.60318 -3.84535 0
M  V30 7278 H 660.579 4.71662 -4.42881 0
M  V30 7279 N 660.711 1.11618 1.11262 0
M  V30 7280 C 661.939 0.888739 1.8684 0
M  V30 7281 C 662.354 -0.561558 1.80255 0
M  V30 7282 O 661.711 -1.38782 1.18515 0
M  V30 7283 C 661.762 1.34422 3.35579 0
M  V30 7284 O 661.483 2.73766 3.42029 0
M  V30 7285 C 662.984 1.15246 4.28058 0
M  V30 7286 H 660.204 0.318152 0.590779 0
M  V30 7287 H 662.748 1.48398 1.40707 0
M  V30 7288 H 660.903 0.79239 3.7921 0
M  V30 7289 H 661.317 2.9355 4.34659 0
M  V30 7290 H 662.791 1.52015 5.30656 0
M  V30 7291 H 663.268 0.0922007 4.39103 0
M  V30 7292 H 663.874 1.69136 3.90222 0
M  V30 7293 N 662.189 -1.289 0.906776 0
M  V30 7294 C 663.438 -1.9455 0.532262 0
M  V30 7295 C 663.751 -1.72219 -0.927353 0
M  V30 7296 O 664.957 -2.32033 -1.40971 0
M  V30 7297 C 663.413 -3.48438 0.901041 0
M  V30 7298 C 663.021 -3.79558 2.37991 0
M  V30 7299 C 664.765 -4.20284 0.596777 0
M  V30 7300 C 662.672 -5.26723 2.68918 0
M  V30 7301 H 661.602 -0.728259 0.195333 0
M  V30 7302 H 664.253 -1.46519 1.10474 0
M  V30 7303 H 662.635 -3.95162 0.257419 0
M  V30 7304 H 663.809 -3.43668 3.06967 0
M  V30 7305 H 662.124 -3.20868 2.65391 0
M  V30 7306 H 664.721 -5.28612 0.8046 0
M  V30 7307 H 665.064 -4.13694 -0.465072 0
M  V30 7308 H 665.597 -3.79315 1.19855 0
M  V30 7309 H 662.336 -5.38384 3.73928 0
M  V30 7310 H 661.856 -5.63836 2.04571 0
M  V30 7311 H 663.535 -5.94391 2.55555 0
M  V30 7312 N 663.667 -0.670007 -1.42649 0
M  V30 7313 C 664.895 -0.19854 -2.05945 0
M  V30 7314 C 665.31 1.14243 -1.50313 0
M  V30 7315 O 664.667 1.70872 -0.641027 0
M  V30 7316 C 664.718 -0.11966 -3.61302 0
M  V30 7317 O 664.439 -1.40764 -4.1487 0
M  V30 7318 C 665.94 0.375878 -4.41704 0
M  V30 7319 H 663.16 -0.0976894 -0.663851 0
M  V30 7320 H 665.704 -0.915392 -1.82868 0
M  V30 7321 H 663.859 0.547851 -3.83507 0
M  V30 7322 H 664.273 -1.27784 -5.08696 0
M  V30 7323 H 665.747 0.379988 -5.50691 0
M  V30 7324 H 666.224 1.41028 -4.15942 0
M  V30 7325 H 666.83 -0.259727 -4.24506 0
M  V30 7326 N 665.145 1.52092 -0.413018 0
M  V30 7327 C 666.556 1.86617 0.0556967 0
M  V30 7328 C 666.907 1.33156 1.44097 0
M  V30 7329 O 666.032 0.672417 2.05688 0
M  V30 7330 C 666.627 3.38628 0.107844 0
M  V30 7331 C 665.186 3.72778 0.520904 0
M  V30 7332 C 664.333 2.75649 -0.302109 0
M  V30 7333 H 667.284 1.45663 -0.629919 0
M  V30 7334 H 667.305 3.69152 0.922324 0
M  V30 7335 H 666.817 3.77508 -0.900506 0
M  V30 7336 H 664.918 3.39478 1.53575 0
M  V30 7337 H 665.031 4.7838 0.262591 0
M  V30 7338 H 663.395 2.53603 0.236115 0
M  V30 7339 H 664.178 3.17369 -1.30888 0
M  V30 7340 N 666.623 0.143563 1.56945 0
M  V30 7341 C 668.034 -0.37783 1.82837 0
M  V30 7342 C 668.385 -1.64967 1.06209 0
M  V30 7343 O 667.51 -2.14221 0.306291 0
M  V30 7344 C 668.105 -0.692274 3.31652 0
M  V30 7345 C 666.664 -1.1582 3.58138 0
M  V30 7346 C 665.811 -0.17951 2.76718 0
M  V30 7347 H 668.762 0.368317 1.54367 0
M  V30 7348 H 668.783 -1.54729 3.47619 0
M  V30 7349 H 668.295 0.233572 3.87397 0
M  V30 7350 H 666.396 -2.10011 3.07776 0
M  V30 7351 H 666.509 -1.08655 4.66616 0
M  V30 7352 H 664.873 -0.671458 2.4569 0
M  V30 7353 H 665.656 0.739865 3.35233 0
M  V30 7354 N 668.101 -1.57061 -0.130224 0
M  V30 7355 C 669.378 -1.75205 -0.869631 0
M  V30 7356 C 669.758 -0.716063 -1.98584 0
M  V30 7357 O 669.106 0.262032 -2.26993 0
M  V30 7358 C 669.316 -3.19835 -1.39666 0
M  V30 7359 C 670.664 -3.82011 -1.85345 0
M  V30 7360 O 671.688 -3.23368 -1.49371 0
M  V30 7361 O 670.547 -4.85064 -2.51744 0
M  V30 7362 H 667.641 -0.716977 -0.412157 0
M  V30 7363 H 670.187 -1.69311 -0.11484 0
M  V30 7364 H 668.959 -3.86745 -0.595288 0
M  V30 7365 H 668.582 -3.30222 -2.21448 0
M  V30 7366 N 669.579 0.400081 -1.52437 0
M  V30 7367 C 670.511 1.50729 -1.72666 0
M  V30 7368 C 671.524 1.51058 -0.607075 0
M  V30 7369 O 672.713 1.5516 -0.88248 0
M  V30 7370 C 669.813 2.89604 -1.76019 0
M  V30 7371 C 668.986 3.13365 -3.05157 0
M  V30 7372 C 668.045 4.32163 -3.00203 0
M  V30 7373 O 667.071 4.29004 -3.74092 0
M  V30 7374 N 668.273 5.3776 -2.18619 0
M  V30 7375 H 671.038 1.33767 -2.68191 0
M  V30 7376 H 668.599 0.58948 -1.50787 0
M  V30 7377 H 670.591 3.67159 -1.70225 0
M  V30 7378 H 669.161 2.99979 -0.879284 0
M  V30 7379 H 668.381 2.23774 -3.24529 0
M  V30 7380 H 669.669 3.26089 -3.90568 0
M  V30 7381 H 669.067 5.43177 -1.58035 0
M  V30 7382 H 667.624 6.14023 -2.18674 0
M  V30 7383 N 671.057 1.43213 0.657864 0
M  V30 7384 C 672.334 1.35063 1.41483 0
M  V30 7385 C 672.714 -0.0038314 2.111 0
M  V30 7386 O 672.062 -1.02018 2.04462 0
M  V30 7387 C 672.272 2.53061 2.40335 0
M  V30 7388 C 673.62 2.9594 3.04474 0
M  V30 7389 O 674.644 2.53074 2.50663 0
M  V30 7390 O 673.503 3.70184 4.02027 0
M  V30 7391 H 670.597 0.533517 0.631893 0
M  V30 7392 H 673.143 1.55253 0.685162 0
M  V30 7393 H 671.915 3.43283 1.87809 0
M  V30 7394 H 671.538 2.34945 3.20759 0
M  V30 7395 N 672.536 -0.895792 1.29666 0
M  V30 7396 C 673.813 -1.62723 1.08538 0
M  V30 7397 C 674.193 -2.07848 -0.369119 0
M  V30 7398 O 673.541 -1.8372 -1.35864 0
M  V30 7399 C 673.751 -2.80505 2.07648 0
M  V30 7400 C 675.099 -3.51098 2.3878 0
M  V30 7401 O 676.123 -2.90679 2.05874 0
M  V30 7402 O 674.982 -4.60028 2.9502 0
M  V30 7403 H 672.076 -0.714692 0.416106 0
M  V30 7404 H 674.622 -0.943517 1.41053 0
M  V30 7405 H 673.394 -2.44386 3.05599 0
M  V30 7406 H 673.017 -3.5658 1.75887 0
M  V30 7407 N 674.014 -1.12206 -1.10668 0
M  V30 7408 C 675.239 -0.898938 -1.86906 0
M  V30 7409 C 675.664 0.546346 -1.79991 0
M  V30 7410 O 675.022 1.38655 -1.1681 0
M  V30 7411 C 675.07 -1.37529 -3.33344 0
M  V30 7412 O 674.174 -0.55218 -4.08687 0
M  V30 7413 H 673.515 -0.323163 -0.580053 0
M  V30 7414 H 676.045 -1.49355 -1.39837 0
M  V30 7415 H 676.055 -1.3733 -3.84193 0
M  V30 7416 H 674.73 -2.42767 -3.37693 0
M  V30 7417 H 673.307 -0.620947 -3.67694 0
M  V30 7418 N 675.492 1.28418 -0.913599 0
M  V30 7419 C 676.425 2.25557 -0.346328 0
M  V30 7420 C 677.403 1.53038 0.549366 0
M  V30 7421 O 678.587 1.81937 0.493055 0
M  V30 7422 C 675.714 3.34915 0.504961 0
M  V30 7423 C 674.76 4.25257 -0.325334 0
M  V30 7424 S 675.593 5.06718 -1.73198 0
M  V30 7425 C 676.749 6.19569 -0.887988 0
M  V30 7426 H 676.982 2.73325 -1.16965 0
M  V30 7427 H 674.515 1.36855 -0.714841 0
M  V30 7428 H 676.473 3.98376 0.990301 0
M  V30 7429 H 675.134 2.85814 1.30267 0
M  V30 7430 H 674.327 5.02947 0.325589 0
M  V30 7431 H 673.929 3.66519 -0.744321 0
M  V30 7432 H 676.221 6.77398 -0.117568 0
M  V30 7433 H 677.164 6.88908 -1.63742 0
M  V30 7434 H 677.572 5.62812 -0.436228 0
M  V30 7435 N 676.97 0.677563 1.42291 0
M  V30 7436 C 677.88 0.000962654 2.346 0
M  V30 7437 C 678.896 -0.785833 1.55244 0
M  V30 7438 O 680.072 -0.727523 1.87801 0
M  V30 7439 C 677.137 -0.936746 3.33805 0
M  V30 7440 C 676.198 -0.144173 4.29058 0
M  V30 7441 C 675.431 -1.03722 5.23524 0
M  V30 7442 O 675.654 -2.27675 5.22992 0
M  V30 7443 O 674.588 -0.496542 5.99848 0
M  V30 7444 H 678.414 0.761397 2.94001 0
M  V30 7445 H 675.999 0.43781 1.42841 0
M  V30 7446 H 677.881 -1.47497 3.94744 0
M  V30 7447 H 676.556 -1.67698 2.76874 0
M  V30 7448 H 675.463 0.438224 3.71524 0
M  V30 7449 H 676.796 0.55701 4.89038 0
M  V30 7450 N 678.448 -1.51871 0.421078 0
M  V30 7451 C 679.688 -2.03848 -0.150167 0
M  V30 7452 C 680.052 -1.29925 -1.41363 0
M  V30 7453 O 681.253 -1.7219 -2.06408 0
M  V30 7454 C 679.524 -3.55374 -0.38003 0
M  V30 7455 S 681.083 -4.29111 -0.917011 0
M  V30 7456 H 677.901 -0.709904 -0.0394639 0
M  V30 7457 H 680.503 -1.86799 0.576746 0
M  V30 7458 H 679.207 -4.0675 0.546122 0
M  V30 7459 H 678.738 -3.76687 -1.13448 0
M  V30 7460 H 680.753 -4.44944 -2.19635 0
M  V30 7461 N 679.926 -0.151884 -1.56866 0
M  V30 7462 C 681.172 0.498742 -1.96572 0
M  V30 7463 C 681.505 1.64194 -1.03702 0
M  V30 7464 O 680.78 1.94334 -0.0803432 0
M  V30 7465 C 681.063 1.00027 -3.45929 0
M  V30 7466 C 680.916 -0.141767 -4.49577 0
M  V30 7467 C 682.235 1.88044 -3.97904 0
M  V30 7468 H 679.354 0.17982 -0.714726 0
M  V30 7469 H 681.996 -0.234097 -1.88552 0
M  V30 7470 H 680.146 1.62476 -3.52894 0
M  V30 7471 H 681.818 -0.778269 -4.54687 0
M  V30 7472 H 680.061 -0.80019 -4.26356 0
M  V30 7473 H 680.732 0.250947 -5.51429 0
M  V30 7474 H 683.208 1.35416 -3.93449 0
M  V30 7475 H 682.084 2.20043 -5.02864 0
M  V30 7476 H 682.345 2.81916 -3.40552 0
M  V30 7477 N 681.404 1.57128 0.121893 0
M  V30 7478 C 682.681 1.75664 0.860327 0
M  V30 7479 C 683.061 0.726585 1.98202 0
M  V30 7480 O 682.409 -0.24999 2.27128 0
M  V30 7481 C 682.619 3.20571 1.37968 0
M  V30 7482 C 683.967 3.82988 1.83317 0
M  V30 7483 O 684.991 3.24156 1.47654 0
M  V30 7484 O 683.85 4.86393 2.49168 0
M  V30 7485 H 680.944 0.719153 0.408348 0
M  V30 7486 H 683.49 1.6937 0.105859 0
M  V30 7487 H 682.262 3.87056 0.57477 0
M  V30 7488 H 681.885 3.31392 2.19694 0
M  V30 7489 N 682.882 -0.391992 1.52647 0
M  V30 7490 C 684.107 -1.16312 1.71716 0
M  V30 7491 C 684.532 -1.83042 0.433279 0
M  V30 7492 O 683.89 -1.70705 -0.610707 0
M  V30 7493 C 683.938 -2.18908 2.86551 0
M  V30 7494 O 683.042 -3.2543 2.53316 0
M  V30 7495 H 682.383 -0.338743 0.571095 0
M  V30 7496 H 684.913 -0.457202 1.99426 0
M  V30 7497 H 684.923 -2.62954 3.1196 0
M  V30 7498 H 683.598 -1.69726 3.79692 0
M  V30 7499 H 682.175 -2.86543 2.38637 0
M  V30 7500 N 684.36 -1.4356 -0.65026 0
M  V30 7501 C 685.27 -1.514 -1.79207 0
M  V30 7502 C 686.286 -0.400895 -1.69319 0
M  V30 7503 O 687.462 -0.655458 -1.90436 0
M  V30 7504 C 684.527 -1.43737 -3.155 0
M  V30 7505 C 683.588 -2.65743 -3.37163 0
M  V30 7506 C 682.821 -2.58436 -4.66954 0
M  V30 7507 O 683.044 -1.63374 -5.46503 0
M  V30 7508 O 681.978 -3.48984 -4.90402 0
M  V30 7509 H 685.804 -2.47825 -1.75547 0
M  V30 7510 H 683.389 -1.25594 -0.809111 0
M  V30 7511 H 685.271 -1.41916 -3.96784 0
M  V30 7512 H 683.946 -0.504488 -3.19745 0
M  V30 7513 H 682.853 -2.73136 -2.55632 0
M  V30 7514 H 684.186 -3.58014 -3.37768 0
M  V30 7515 N 685.838 0.888903 -1.30139 0
M  V30 7516 C 687.254 1.17153 -1.08385 0
M  V30 7517 C 687.454 2.0088 0.157925 0
M  V30 7518 O 686.51 2.37668 0.852652 0
M  V30 7519 C 687.823 1.882 -2.34523 0
M  V30 7520 C 689.371 2.00981 -2.39949 0
M  V30 7521 C 689.846 2.75441 -3.65918 0
M  V30 7522 N 691.337 2.82989 -3.66704 0
M  V30 7523 C 692.072 3.41167 -4.60861 0
M  V30 7524 N 691.568 4.00425 -5.6536 0
M  V30 7525 N 693.361 3.38944 -4.48412 0
M  V30 7526 H 685.512 0.33053 -2.09812 0
M  V30 7527 H 687.775 0.208964 -0.924683 0
M  V30 7528 H 687.481 1.34119 -3.25123 0
M  V30 7529 H 687.355 2.88609 -2.42868 0
M  V30 7530 H 689.742 2.54234 -1.4983 0
M  V30 7531 H 689.823 0.996725 -2.35582 0
M  V30 7532 H 689.467 2.22861 -4.56394 0
M  V30 7533 H 689.397 3.77118 -3.67546 0
M  V30 7534 H 691.888 2.40912 -2.91153 0
M  V30 7535 H 692.201 4.42871 -6.33313 0
M  V30 7536 H 690.546 3.98856 -5.69157 0
M  V30 7537 H 693.737 2.91875 -3.6596 0
M  V30 7538 H 693.91 3.83989 -5.21974 0
M  V30 7539 N 687.317 1.12792 1.10072 0
M  V30 7540 C 688.733 0.864745 1.34143 0
M  V30 7541 C 688.933 -0.503201 1.95116 0
M  V30 7542 O 687.989 -1.25111 2.19325 0
M  V30 7543 C 689.302 1.98413 2.25949 0
M  V30 7544 C 690.85 2.01545 2.39476 0
M  V30 7545 C 691.325 3.12727 3.34613 0
M  V30 7546 N 692.816 3.12194 3.42183 0
M  V30 7547 C 693.551 3.94862 4.15779 0
M  V30 7548 N 693.047 4.87528 4.92228 0
M  V30 7549 N 694.84 3.82985 4.11435 0
M  V30 7550 H 686.991 2.00926 0.68866 0
M  V30 7551 H 689.254 0.874564 0.365844 0
M  V30 7552 H 688.96 2.97005 1.88364 0
M  V30 7553 H 688.834 1.89254 3.26287 0
M  V30 7554 H 691.221 1.0357 2.76328 0
M  V30 7555 H 691.302 2.14777 1.3894 0
M  V30 7556 H 690.946 4.10936 2.98486 0
M  V30 7557 H 690.876 2.96732 4.35037 0
M  V30 7558 H 693.367 2.45065 2.87666 0
M  V30 7559 H 693.68 5.47109 5.45794 0
M  V30 7560 H 692.025 4.91539 4.9134 0
M  V30 7561 H 695.216 3.09923 3.50807 0
M  V30 7562 H 695.389 4.47641 4.68531 0
M  V30 7563 N 688.795 -1.27931 0.920396 0
M  V30 7564 C 690.206 -1.76707 0.602616 0
M  V30 7565 C 690.557 -1.75249 -0.882159 0
M  V30 7566 O 689.682 -1.35135 -1.69019 0
M  V30 7567 C 690.277 -3.20884 1.08714 0
M  V30 7568 C 688.836 -3.67356 0.820157 0
M  V30 7569 C 687.983 -2.47525 1.25006 0
M  V30 7570 H 690.934 -1.14301 1.10095 0
M  V30 7571 H 690.955 -3.78045 0.431535 0
M  V30 7572 H 690.467 -3.21913 2.1678 0
M  V30 7573 H 688.568 -3.7178 -0.247012 0
M  V30 7574 H 688.681 -4.57181 1.43257 0
M  V30 7575 H 687.045 -2.45765 0.668698 0
M  V30 7576 H 687.828 -2.51269 2.3392 0
M  V30 7577 N 690.273 -0.685099 -1.4193 0
M  V30 7578 C 691.223 0.00977295 -2.27998 0
M  V30 7579 C 692.207 0.763315 -1.41641 0
M  V30 7580 O 693.399 0.640532 -1.65004 0
M  V30 7581 C 690.528 0.952972 -3.29808 0
M  V30 7582 C 689.614 0.196231 -4.23646 0
M  V30 7583 N 690.005 -0.804401 -4.99363 0
M  V30 7584 C 688.303 0.433213 -4.43891 0
M  V30 7585 C 689.004 -1.25646 -5.67968 0
M  V30 7586 N 687.98 -0.5844 -5.4045 0
M  V30 7587 H 691.782 -0.757586 -2.83968 0
M  V30 7588 H 689.296 -0.515037 -1.54017 0
M  V30 7589 H 691.293 1.46585 -3.9028 0
M  V30 7590 H 689.953 1.72004 -2.75399 0
M  V30 7591 H 690.964 -1.18429 -5.04177 0
M  V30 7592 H 687.641 1.17899 -4.00507 0
M  V30 7593 H 689.031 -2.08622 -6.38691 0
M  V30 7594 N 691.751 1.51645 -0.429126 0
M  V30 7595 C 692.998 2.02015 0.140079 0
M  V30 7596 C 693.326 1.31374 1.43427 0
M  V30 7597 O 692.581 0.414779 1.91254 0
M  V30 7598 C 692.88 3.54989 0.414472 0
M  V30 7599 C 692.546 4.43874 -0.792911 0
M  V30 7600 C 691.208 4.67887 -1.12404 0
M  V30 7601 C 693.56 4.96074 -1.59875 0
M  V30 7602 C 690.888 5.41348 -2.26184 0
M  V30 7603 C 693.24 5.70782 -2.72747 0
M  V30 7604 C 691.904 5.93062 -3.06324 0
M  V30 7605 H 691.174 0.739225 0.0512585 0
M  V30 7606 H 693.821 1.82675 -0.574641 0
M  V30 7607 H 692.126 3.72615 1.21099 0
M  V30 7608 H 693.823 3.91489 0.868173 0
M  V30 7609 H 690.413 4.25374 -0.524871 0
M  V30 7610 H 694.597 4.77412 -1.35614 0
M  V30 7611 H 689.853 5.56815 -2.52522 0
M  V30 7612 H 694.027 6.10221 -3.35564 0
M  V30 7613 H 691.654 6.49764 -3.94602 0
M  V30 7614 N 693.229 0.160201 1.56784 0
M  V30 7615 C 694.64 -0.358417 1.83227 0
M  V30 7616 C 694.991 -1.63831 1.07952 0
M  V30 7617 O 694.116 -2.13885 0.328995 0
M  V30 7618 C 694.711 -0.657058 3.32368 0
M  V30 7619 C 693.27 -1.12015 3.59346 0
M  V30 7620 C 692.417 -0.15015 2.76893 0
M  V30 7621 H 695.368 0.384669 1.53967 0
M  V30 7622 H 695.389 -1.51033 3.49241 0
M  V30 7623 H 694.901 0.274647 3.87127 0
M  V30 7624 H 693.002 -2.06734 3.09987 0
M  V30 7625 H 693.115 -1.037 4.67743 0
M  V30 7626 H 691.479 -0.645361 2.46388 0
M  V30 7627 H 692.262 0.775379 3.34429 0
M  V30 7628 N 694.707 -1.5719 -0.113559 0
M  V30 7629 C 695.639 -1.97393 -1.16484 0
M  V30 7630 C 696.652 -0.873964 -1.37352 0
M  V30 7631 O 697.841 -1.15222 -1.36331 0
M  V30 7632 C 694.941 -2.26174 -2.52386 0
M  V30 7633 C 694.114 -3.57479 -2.52046 0
M  V30 7634 C 693.173 -3.74409 -3.69735 0
M  V30 7635 O 692.199 -4.46463 -3.53071 0
M  V30 7636 N 693.401 -3.13588 -4.88511 0
M  V30 7637 H 696.166 -2.88184 -0.822814 0
M  V30 7638 H 693.727 -1.59044 -0.302769 0
M  V30 7639 H 695.719 -2.3471 -3.29687 0
M  V30 7640 H 694.289 -1.41483 -2.7875 0
M  V30 7641 H 693.509 -3.60081 -1.60421 0
M  V30 7642 H 694.797 -4.43775 -2.48881 0
M  V30 7643 H 694.195 -2.55026 -5.04953 0
M  V30 7644 H 692.752 -3.27637 -5.63469 0
M  V30 7645 N 696.185 0.383891 -1.52853 0
M  V30 7646 C 697.432 1.12842 -1.68146 0
M  V30 7647 C 697.76 1.89823 -0.423954 0
M  V30 7648 O 697.015 1.86475 0.593765 0
M  V30 7649 C 697.314 2.12881 -2.87082 0
M  V30 7650 C 696.98 1.52519 -4.24322 0
M  V30 7651 C 695.642 1.35783 -4.61645 0
M  V30 7652 C 697.994 1.0868 -5.09743 0
M  V30 7653 C 695.322 0.737643 -5.82044 0
M  V30 7654 C 697.674 0.480699 -6.30771 0
M  V30 7655 C 696.338 0.300681 -6.66822 0
M  V30 7656 H 695.608 0.412917 -0.615289 0
M  V30 7657 H 698.255 0.412416 -1.87006 0
M  V30 7658 H 696.56 2.90719 -2.62659 0
M  V30 7659 H 698.257 2.70408 -2.96109 0
M  V30 7660 H 694.847 1.66534 -3.94923 0
M  V30 7661 H 699.031 1.2041 -4.81472 0
M  V30 7662 H 694.287 0.586415 -6.08581 0
M  V30 7663 H 698.461 0.132733 -6.96273 0
M  V30 7664 H 696.088 -0.181966 -7.59982 0
M  V30 7665 N 697.663 1.43903 0.642637 0
M  V30 7666 C 698.888 1.49758 1.43483 0
M  V30 7667 C 699.313 0.119911 1.87717 0
M  V30 7668 O 698.671 -0.888558 1.58033 0
M  V30 7669 C 698.719 2.45744 2.63898 0
M  V30 7670 O 697.823 1.95101 3.63331 0
M  V30 7671 H 697.164 0.506138 0.429791 0
M  V30 7672 H 699.694 1.88923 0.785438 0
M  V30 7673 H 699.704 2.63399 3.11584 0
M  V30 7674 H 698.379 3.45818 2.31046 0
M  V30 7675 H 696.956 1.87158 3.22531 0
M  V30 7676 N 699.141 -0.881989 1.30609 0
M  V30 7677 C 700.371 -1.66469 1.22359 0
M  V30 7678 C 700.779 -1.87969 -0.215507 0
M  V30 7679 O 700.122 -1.42938 -1.15388 0
M  V30 7680 C 700.184 -3.06135 1.88472 0
M  V30 7681 C 699.848 -3.07795 3.37804 0
M  V30 7682 C 700.845 -2.86633 4.33749 0
M  V30 7683 C 698.53 -3.29297 3.793 0
M  V30 7684 C 700.524 -2.86934 5.69164 0
M  V30 7685 C 698.211 -3.29228 5.14832 0
M  V30 7686 C 699.209 -3.08071 6.09574 0
M  V30 7687 O 698.897 -3.07824 7.4263 0
M  V30 7688 H 698.629 -0.526129 0.424458 0
M  V30 7689 H 701.183 -1.11004 1.72821 0
M  V30 7690 H 699.413 -3.63276 1.32543 0
M  V30 7691 H 701.102 -3.66571 1.74301 0
M  V30 7692 H 701.868 -2.69814 4.0302 0
M  V30 7693 H 697.747 -3.44799 3.05998 0
M  V30 7694 H 701.291 -2.70339 6.43088 0
M  V30 7695 H 697.188 -3.45583 5.452 0
M  V30 7696 H 697.956 -3.2397 7.51656 0
M  V30 7697 N 700.619 -1.13374 -1.09472 0
M  V30 7698 C 701.844 -0.918711 -1.85942 0
M  V30 7699 C 702.269 0.527225 -1.8056 0
M  V30 7700 O 701.627 1.37408 -1.18274 0
M  V30 7701 C 701.675 -1.41056 -3.31867 0
M  V30 7702 O 700.779 -0.595496 -4.08078 0
M  V30 7703 H 700.12 -0.329297 -0.576593 0
M  V30 7704 H 702.65 -1.50829 -1.38245 0
M  V30 7705 H 702.66 -1.41398 -3.82715 0
M  V30 7706 H 701.335 -2.46335 -3.35099 0
M  V30 7707 H 699.912 -0.659911 -3.67014 0
M  V30 7708 N 702.098 1.27442 -0.927168 0
M  V30 7709 C 703.061 2.2512 -0.430525 0
M  V30 7710 C 704.061 1.54357 0.450619 0
M  V30 7711 O 705.251 1.72371 0.251774 0
M  V30 7712 C 702.383 3.38763 0.381144 0
M  V30 7713 H 703.576 2.70569 -1.29354 0
M  V30 7714 H 701.129 1.39355 -0.707806 0
M  V30 7715 H 701.864 2.98695 1.263 0
M  V30 7716 H 701.649 3.91298 -0.250618 0
M  V30 7717 H 703.139 4.11364 0.719012 0
M  V30 7718 N 703.576 0.692616 1.41565 0
M  V30 7719 C 704.801 0.229776 2.06123 0
M  V30 7720 C 705.226 -1.11119 1.5177 0
M  V30 7721 O 704.584 -1.69498 0.643444 0
M  V30 7722 C 704.632 0.19469 3.60074 0
M  V30 7723 O 703.736 -0.831366 4.03933 0
M  V30 7724 H 703.077 0.113002 0.654314 0
M  V30 7725 H 705.607 0.946645 1.81383 0
M  V30 7726 H 705.617 0.0245487 4.07993 0
M  V30 7727 H 704.292 1.17339 3.99004 0
M  V30 7728 H 702.869 -0.630819 3.67526 0
M  V30 7729 N 705.054 -1.51416 0.437162 0
M  V30 7730 C 706.302 -2.01687 -0.129108 0
M  V30 7731 C 706.623 -1.32329 -1.43227 0
M  V30 7732 O 705.893 -0.457796 -1.90476 0
M  V30 7733 H 704.473 -0.745277 -0.0507023 0
M  V30 7734 H 707.135 -1.86075 0.579828 0
M  V30 7735 H 706.231 -3.10605 -0.305141 0
M  V30 7736 N 706.532 -0.168513 -1.56696 0
M  V30 7737 C 707.76 0.483503 -2.01171 0
M  V30 7738 C 708.175 1.56994 -1.04872 0
M  V30 7739 O 707.532 1.82434 -0.0491337 0
M  V30 7740 C 707.583 1.0644 -3.45475 0
M  V30 7741 O 707.304 0.0213375 -4.38095 0
M  V30 7742 C 708.805 1.79493 -4.05336 0
M  V30 7743 H 706.025 0.124002 -0.659443 0
M  V30 7744 H 708.569 -0.269419 -2.02717 0
M  V30 7745 H 706.724 1.76784 -3.44712 0
M  V30 7746 H 707.138 0.449837 -5.22567 0
M  V30 7747 H 708.612 2.15401 -5.08238 0
M  V30 7748 H 709.089 2.68889 -3.47269 0
M  V30 7749 H 709.695 1.13798 -4.09793 0
M  V30 7750 N 708.01 1.57248 0.105221 0
M  V30 7751 C 708.973 2.00388 1.11252 0
M  V30 7752 C 709.973 0.89594 1.33527 0
M  V30 7753 O 711.163 1.16166 1.29811 0
M  V30 7754 C 708.295 2.35589 2.46395 0
M  V30 7755 H 709.488 2.90591 0.741424 0
M  V30 7756 H 707.041 1.52332 0.349956 0
M  V30 7757 H 707.776 1.4831 2.884 0
M  V30 7758 H 707.561 3.16408 2.31578 0
M  V30 7759 H 709.051 2.69658 3.18864 0
M  V30 7760 O 709.527 -0.249352 1.59563 0
M  V30 7761 H 710.218 -0.892778 1.71899 0
M  V30 END ATOM
M  V30 BEGIN BOND
M  V30 END BOND
M  V30 END CTAB
M  END
$$$$
