drugbank_target|P31785 Cytokine receptor common subunit gamma (DB00004; DB00041; DB05943)
 OpenBabel12092120043D

  0  0  0     0  0            999 V3000
M  V30 BEGIN CTAB
M  V30 COUNTS 5872 5965 0 0 0
M  V30 BEGIN ATOM
M  V30 1 H -0.908 1.98254 -0.117106 0
M  V30 2 N 0 1.576 0 0
M  V30 3 C 0.933 2.03868 1.02534 0
M  V30 4 C 1.911 0.928543 1.3348 0
M  V30 5 O 3.095 1.19667 1.45644 0
M  V30 6 C 0.222 2.43627 2.35294 0
M  V30 7 C -0.732 3.65373 2.2001 0
M  V30 8 S 0.101 5.13292 1.52614 0
M  V30 9 C 1.257 5.56322 2.86805 0
M  V30 10 H 1.49 2.90518 0.631377 0
M  V30 11 H -0.977 1.52953 0.210867 0
M  V30 12 H 0.981 2.67203 3.11629 0
M  V30 13 H -0.358 1.57376 2.7183 0
M  V30 14 H -1.165 3.90944 3.18086 0
M  V30 15 H -1.563 3.418 1.51819 0
M  V30 16 H 0.729 5.58782 3.83104 0
M  V30 17 H 1.672 6.56266 2.65933 0
M  V30 18 H 2.08 4.83886 2.90714 0
M  V30 19 N 1.4781 -0.272755 1.55222 0
M  V30 20 C 2.4081 -1.34136 1.91127 0
M  V30 21 C 3.3891 -1.51513 0.773168 0
M  V30 22 O 4.5741 -1.64552 1.03132 0
M  V30 23 C 1.7041 -2.70083 2.1834 0
M  V30 24 C 0.6581 -2.67437 3.34158 0
M  V30 25 C -0.0159 -4.06938 3.46851 0
M  V30 26 C 1.2841 -2.26686 4.70543 0
M  V30 27 H 2.9781 -1.04333 2.80633 0
M  V30 28 H 0.5241 -0.500454 1.35024 0
M  V30 29 H 2.4771 -3.44952 2.42046 0
M  V30 30 H 1.2011 -3.01469 1.25634 0
M  V30 31 H -0.1399 -1.95026 3.1042 0
M  V30 32 H -0.4919 -4.35547 2.51611 0
M  V30 33 H -0.7919 -4.06062 4.2472 0
M  V30 34 H 0.7321 -4.83545 3.72849 0
M  V30 35 H 2.1461 -2.91277 4.93792 0
M  V30 36 H 0.5431 -2.36971 5.5133 0
M  V30 37 H 1.6131 -1.21818 4.69349 0
M  V30 38 N 2.9562 -1.48159 -0.537278 0
M  V30 39 C 3.9032 -1.62138 -1.64256 0
M  V30 40 C 4.8732 -0.463668 -1.59497 0
M  V30 41 O 6.0582 -0.686241 -1.78032 0
M  V30 42 C 3.1982 -1.66028 -3.02537 0
M  V30 43 C 2.3112 -2.92855 -3.17585 0
M  V30 44 C 1.4462 -2.87952 -4.46382 0
M  V30 45 C 0.4852 -4.09516 -4.54932 0
M  V30 46 N -0.3778 -4.02733 -5.75109 0
M  V30 47 H 4.4622 -2.56529 -1.51647 0
M  V30 48 H 1.9992 -1.27224 -0.738414 0
M  V30 49 H 3.9572 -1.66265 -3.82638 0
M  V30 50 H 2.5872 -0.751331 -3.13934 0
M  V30 51 H 1.6392 -3.02395 -2.30784 0
M  V30 52 H 2.9512 -3.82822 -3.19764 0
M  V30 53 H 2.1052 -2.8655 -5.34765 0
M  V30 54 H 0.8442 -1.95702 -4.46712 0
M  V30 55 H -0.1508 -4.11201 -3.64957 0
M  V30 56 H 1.0742 -5.02917 -4.56346 0
M  V30 57 H -0.9798 -3.13299 -5.76351 0
M  V30 58 H -1.0628 -4.86397 -5.78752 0
M  V30 59 H 0.2052 -4.05379 -6.65799 0
M  V30 60 N 4.4343 0.785586 -1.36625 0
M  V30 61 C 5.8453 1.36101 -1.27803 0
M  V30 62 C 6.1963 1.96035 0.0804875 0
M  V30 63 O 5.3213 1.92834 0.982042 0
M  V30 64 C 5.9163 2.47442 -2.31426 0
M  V30 65 C 4.4753 3.00789 -2.26281 0
M  V30 66 C 3.6223 1.73896 -2.15999 0
M  V30 67 H 6.5733 0.586928 -1.47448 0
M  V30 68 H 6.5943 3.2656 -1.95291 0
M  V30 69 H 6.1063 2.03791 -3.30289 0
M  V30 70 H 4.2073 3.48851 -1.30896 0
M  V30 71 H 4.3203 3.57343 -3.19128 0
M  V30 72 H 2.6843 1.9628 -1.62316 0
M  V30 73 H 3.4673 1.32368 -3.16755 0
M  V30 74 N 5.9124 1.20967 1.01018 0
M  V30 75 C 7.1374 1.0503 1.78839 0
M  V30 76 C 7.5624 -0.395752 1.8389 0
M  V30 77 O 6.9204 -1.28529 1.27867 0
M  V30 78 C 6.9684 1.64602 3.2084 0
M  V30 79 O 6.0724 0.887988 4.02726 0
M  V30 80 H 5.4134 0.369987 0.551367 0
M  V30 81 H 7.9434 1.60399 1.27018 0
M  V30 82 H 7.9534 1.68607 3.71532 0
M  V30 83 H 6.6284 2.69841 3.16479 0
M  V30 84 H 5.2054 0.922648 3.61305 0
M  V30 85 N 7.3905 -1.2043 1.01659 0
M  V30 86 C 8.3205 -2.25466 0.607226 0
M  V30 87 C 9.3015 -1.65853 -0.377716 0
M  V30 88 O 10.4865 -1.92409 -0.263149 0
M  V30 89 C 7.6165 -3.47256 -0.0552949 0
M  V30 90 C 6.5705 -4.19462 0.850632 0
M  V30 91 C 5.8965 -5.34673 0.0538859 0
M  V30 92 C 7.1965 -4.75603 2.15868 0
M  V30 93 H 8.8905 -2.59962 1.48526 0
M  V30 94 H 6.4365 -1.2496 0.715605 0
M  V30 95 H 8.3895 -4.19917 -0.353233 0
M  V30 96 H 7.1135 -3.11924 -0.968045 0
M  V30 97 H 5.7725 -3.48667 1.13257 0
M  V30 98 H 5.4205 -4.95585 -0.860514 0
M  V30 99 H 5.1205 -5.83913 0.657192 0
M  V30 100 H 6.6445 -6.10138 -0.237598 0
M  V30 101 H 8.0585 -5.40083 1.92311 0
M  V30 102 H 6.4555 -5.3528 2.71284 0
M  V30 103 H 7.5255 -3.94346 2.82169 0
M  V30 104 N 8.8686 -0.792821 -1.36206 0
M  V30 105 C 10.2796 -0.429513 -1.81692 0
M  V30 106 C 10.6306 1.04695 -1.65932 0
M  V30 107 O 9.7556 1.81256 -1.18218 0
M  V30 108 C 10.3506 -0.772831 -3.29868 0
M  V30 109 C 8.9096 -0.462307 -3.7355 0
M  V30 110 C 8.0566 -1.00569 -2.5842 0
M  V30 111 H 11.0076 -0.985672 -1.24379 0
M  V30 112 H 11.0286 -0.0651928 -3.80444 0
M  V30 113 H 10.5406 -1.84747 -3.41307 0
M  V30 114 H 8.6416 0.604158 -3.67669 0
M  V30 115 H 8.7546 -0.985299 -4.68859 0
M  V30 116 H 7.1186 -0.428734 -2.51066 0
M  V30 117 H 7.9016 -2.08616 -2.72643 0
M  V30 118 N 10.3467 1.47872 -0.545128 0
M  V30 119 C 11.5937 2.02493 -0.0165858 0
M  V30 120 C 11.9217 1.42073 1.32836 0
M  V30 121 O 11.1767 0.561459 1.87473 0
M  V30 122 C 11.4757 3.57131 0.13867 0
M  V30 123 C 11.1417 4.36411 -1.13384 0
M  V30 124 C 9.8037 4.57792 -1.48256 0
M  V30 125 C 12.1557 4.82223 -1.97764 0
M  V30 126 C 9.4837 5.22233 -2.67376 0
M  V30 127 C 11.8357 5.47977 -3.16076 0
M  V30 128 C 10.4997 5.67593 -3.51275 0
M  V30 129 H 9.7697 0.740975 -0.00606918 0
M  V30 130 H 12.4167 1.77683 -0.714207 0
M  V30 131 H 10.7217 3.80865 0.919172 0
M  V30 132 H 12.4187 3.97031 0.562782 0
M  V30 133 H 9.0087 4.2004 -0.852297 0
M  V30 134 H 13.1927 4.65493 -1.72132 0
M  V30 135 H 8.4487 5.35616 -2.94831 0
M  V30 136 H 12.6227 5.8244 -3.81755 0
M  V30 137 H 10.2497 6.17298 -4.43675 0
M  V30 138 N 11.8248 0.280983 1.55075 0
M  V30 139 C 13.0528 -0.337293 2.04132 0
M  V30 140 C 13.4678 -1.4903 1.15912 0
M  V30 141 O 12.8248 -1.81606 0.180459 0
M  V30 142 C 12.8758 -0.812706 3.52246 0
M  V30 143 O 12.5968 0.294387 4.3711 0
M  V30 144 C 14.0978 -1.4982 4.17216 0
M  V30 145 H 11.3178 -0.0761638 0.666663 0
M  V30 146 H 13.8618 0.414787 2.00249 0
M  V30 147 H 12.0168 -1.51486 3.56554 0
M  V30 148 H 12.4308 -0.0721325 5.2445 0
M  V30 149 H 13.9048 -1.7822 5.22438 0
M  V30 150 H 14.3818 -2.43168 3.65741 0
M  V30 151 H 14.9878 -0.839742 4.16927 0
M  V30 152 N 13.3029 -1.57598 0.00835791 0
M  V30 153 C 14.5279 -1.95617 -0.689103 0
M  V30 154 C 14.9529 -0.883753 -1.66046 0
M  V30 155 O 14.3109 0.157352 -1.80616 0
M  V30 156 C 14.3589 -3.32736 -1.38994 0
M  V30 157 O 13.4629 -3.27631 -2.50463 0
M  V30 158 H 12.8039 -0.638379 -0.182668 0
M  V30 159 H 15.3339 -2.045 0.064036 0
M  V30 160 H 15.3439 -3.68494 -1.75147 0
M  V30 161 H 14.0189 -4.1034 -0.677778 0
M  V30 162 H 12.5959 -3.03561 -2.16576 0
M  V30 163 N 14.781 0.264519 -1.55364 0
M  V30 164 C 15.711 1.33121 -1.91836 0
M  V30 165 C 16.692 1.51101 -0.781192 0
M  V30 166 O 17.877 1.64003 -1.04003 0
M  V30 167 C 15.007 2.68921 -2.19769 0
M  V30 168 C 13.961 2.65661 -3.35571 0
M  V30 169 C 13.287 4.05093 -3.49004 0
M  V30 170 C 14.587 2.24187 -4.71739 0
M  V30 171 H 16.281 1.02844 -2.81182 0
M  V30 172 H 13.827 0.493286 -1.35287 0
M  V30 173 H 15.78 3.43663 -2.43872 0
M  V30 174 H 14.504 3.00799 -1.27231 0
M  V30 175 H 13.163 1.93377 -3.1145 0
M  V30 176 H 12.811 4.34206 -2.53917 0
M  V30 177 H 12.511 4.03804 -4.26868 0
M  V30 178 H 14.035 4.81561 -3.75408 0
M  V30 179 H 15.449 2.88654 -4.9533 0
M  V30 180 H 13.846 2.34044 -5.52579 0
M  V30 181 H 14.916 1.19327 -4.69988 0
M  V30 182 N 16.2591 1.48442 0.529413 0
M  V30 183 C 17.1891 1.65902 1.64313 0
M  V30 184 C 18.1701 0.507897 1.6234 0
M  V30 185 O 19.3551 0.740503 1.79528 0
M  V30 186 C 16.4851 1.69911 3.02898 0
M  V30 187 C 15.4391 2.8453 3.19729 0
M  V30 188 C 14.7651 2.73629 4.59381 0
M  V30 189 C 16.0651 4.25821 3.02447 0
M  V30 190 H 17.7591 2.5914 1.49955 0
M  V30 191 H 15.3051 1.24709 0.719982 0
M  V30 192 H 17.2581 1.80715 3.80684 0
M  V30 193 H 15.9821 0.732524 3.18279 0
M  V30 194 H 14.6411 2.73283 2.44361 0
M  V30 195 H 14.2891 1.74938 4.71599 0
M  V30 196 H 13.9891 3.50541 4.71588 0
M  V30 197 H 15.5131 2.86401 5.39265 0
M  V30 198 H 16.9271 4.37898 3.70024 0
M  V30 199 H 15.3241 5.03735 3.26146 0
M  V30 200 H 16.3941 4.42244 1.98867 0
M  V30 201 N 17.7372 -0.778329 1.37039 0
M  V30 202 C 18.9842 -1.53665 1.31884 0
M  V30 203 C 19.3122 -1.9425 -0.0986303 0
M  V30 204 O 18.5672 -1.63832 -1.07041 0
M  V30 205 C 18.8662 -2.81845 2.19768 0
M  V30 206 C 18.5322 -2.60345 3.68146 0
M  V30 207 C 17.1942 -2.5419 4.08584 0
M  V30 208 C 19.5462 -2.40923 4.62175 0
M  V30 209 C 16.8742 -2.26594 5.41177 0
M  V30 210 C 19.2262 -2.14852 5.94997 0
M  V30 211 C 17.8902 -2.07137 6.34547 0
M  V30 212 H 17.1602 -0.562299 0.482598 0
M  V30 213 H 19.8072 -0.897069 1.69189 0
M  V30 214 H 18.1122 -3.50328 1.75436 0
M  V30 215 H 19.8092 -3.39692 2.13097 0
M  V30 216 H 16.3992 -2.65996 3.36072 0
M  V30 217 H 20.5832 -2.44673 4.31797 0
M  V30 218 H 15.8392 -2.19111 5.70789 0
M  V30 219 H 20.0132 -1.98822 6.67415 0
M  V30 220 H 17.6402 -1.85518 7.37216 0
M  V30 221 N 19.2153 -1.21501 -1.00376 0
M  V30 222 C 20.1453 -0.999478 -2.11028 0
M  V30 223 C 21.1263 0.0759671 -1.6993 0
M  V30 224 O 22.3113 -0.0841106 -1.94018 0
M  V30 225 C 19.4413 -0.564709 -3.42678 0
M  V30 226 C 18.3953 -1.58486 -3.97576 0
M  V30 227 C 17.7213 -1.00628 -5.25146 0
M  V30 228 C 19.0213 -2.97204 -4.29496 0
M  V30 229 H 20.7153 -1.92495 -2.29317 0
M  V30 230 H 18.2613 -0.92693 -1.102 0
M  V30 231 H 20.2143 -0.401091 -4.19487 0
M  V30 232 H 18.9383 0.396411 -3.24185 0
M  V30 233 H 17.5973 -1.73606 -3.22888 0
M  V30 234 H 17.2453 -0.0368439 -5.02987 0
M  V30 235 H 16.9453 -1.68771 -5.62841 0
M  V30 236 H 18.4693 -0.854015 -6.04598 0
M  V30 237 H 19.8833 -2.8552 -4.97143 0
M  V30 238 H 18.2803 -3.62372 -4.78338 0
M  V30 239 H 19.3503 -3.47956 -3.3772 0
M  V30 240 N 20.6934 1.19889 -1.02296 0
M  V30 241 C 21.6254 2.22334 -0.556787 0
M  V30 242 C 22.6384 1.58674 0.364199 0
M  V30 243 O 23.8274 1.77768 0.161533 0
M  V30 244 C 20.9274 3.38257 0.208694 0
M  V30 245 C 20.1004 4.31504 -0.71577 0
M  V30 246 C 19.1594 5.262 0.00325597 0
M  V30 247 O 18.1854 5.65798 -0.621357 0
M  V30 248 N 19.3874 5.66303 1.27599 0
M  V30 249 H 22.1524 2.62957 -1.43784 0
M  V30 250 H 19.7134 1.34495 -0.901261 0
M  V30 251 H 21.7054 3.98616 0.699111 0
M  V30 252 H 20.2754 2.96472 0.991102 0
M  V30 253 H 19.4954 3.69016 -1.38638 0
M  V30 254 H 20.7834 4.9072 -1.34428 0
M  V30 255 H 20.1814 5.36155 1.80429 0
M  V30 256 H 18.7384 6.28942 1.71102 0
M  V30 257 N 22.1715 0.800033 1.35784 0
M  V30 258 C 23.1015 0.220184 2.3246 0
M  V30 259 C 24.0825 -0.65073 1.57161 0
M  V30 260 O 25.2675 -0.582359 1.85263 0
M  V30 261 C 22.3975 -0.637353 3.41402 0
M  V30 262 C 21.3515 0.134531 4.27789 0
M  V30 263 C 20.6775 -0.844285 5.27992 0
M  V30 264 C 21.9775 1.32979 5.05088 0
M  V30 265 H 23.6715 1.02787 2.81203 0
M  V30 266 H 21.2175 0.495717 1.35199 0
M  V30 267 H 23.1705 -1.05302 4.08031 0
M  V30 268 H 21.8945 -1.47785 2.91251 0
M  V30 269 H 20.5535 0.531296 3.6273 0
M  V30 270 H 20.2015 -1.68011 4.74111 0
M  V30 271 H 19.9015 -0.332184 5.8666 0
M  V30 272 H 21.4255 -1.2583 5.97494 0
M  V30 273 H 22.8395 0.98934 5.64699 0
M  V30 274 H 21.2365 1.77593 5.7322 0
M  V30 275 H 22.3065 2.11978 4.36111 0
M  V30 276 N 23.6496 -1.47581 0.552962 0
M  V30 277 C 25.0606 -1.86324 0.118463 0
M  V30 278 C 25.4116 -1.46006 -1.3106 0
M  V30 279 O 24.5366 -0.861182 -1.98526 0
M  V30 280 C 25.1316 -3.3816 0.20821 0
M  V30 281 C 23.6906 -3.7601 -0.171226 0
M  V30 282 C 22.8376 -2.71634 0.557686 0
M  V30 283 H 25.7886 -1.39159 0.762928 0
M  V30 284 H 25.8096 -3.76141 -0.574278 0
M  V30 285 H 25.3216 -3.67473 1.24841 0
M  V30 286 H 23.4226 -3.52313 -1.21269 0
M  V30 287 H 23.5356 -4.78745 0.184379 0
M  V30 288 H 21.8996 -2.547 0.00125792 0
M  V30 289 H 22.6826 -3.0379 1.59896 0
M  V30 290 N 25.1277 -0.289203 -1.54924 0
M  V30 291 C 26.0577 0.58549 -2.2604 0
M  V30 292 C 27.0387 1.14753 -1.25562 0
M  V30 293 O 28.2237 1.17906 -1.54311 0
M  V30 294 C 25.3537 1.76305 -2.99222 0
M  V30 295 C 24.3077 1.33191 -4.06748 0
M  V30 296 C 23.6337 2.5937 -4.6758 0
M  V30 297 C 24.9337 0.471775 -5.20165 0
M  V30 298 H 26.6277 -0.00763532 -2.99399 0
M  V30 299 H 24.1737 -0.00511229 -1.43999 0
M  V30 300 H 26.1267 2.38097 -3.47689 0
M  V30 301 H 24.8507 2.38223 -2.23422 0
M  V30 302 H 23.5097 0.737121 -3.59113 0
M  V30 303 H 23.1577 3.19576 -3.88433 0
M  V30 304 H 22.8577 2.31228 -5.40192 0
M  V30 305 H 24.3817 3.21985 -5.18804 0
M  V30 306 H 25.7957 0.995056 -5.64599 0
M  V30 307 H 24.1927 0.284639 -5.99425 0
M  V30 308 H 25.2627 -0.506041 -4.82252 0
M  V30 309 N 26.6058 1.57591 -0.0167156 0
M  V30 310 C 27.5358 2.12496 0.967858 0
M  V30 311 C 28.5168 1.03807 1.34752 0
M  V30 312 O 29.7018 1.31577 1.42833 0
M  V30 313 C 26.8318 2.64194 2.25431 0
M  V30 314 C 25.7858 3.77559 2.01576 0
M  V30 315 C 25.1118 4.15636 3.36379 0
M  V30 316 C 26.4118 5.04151 1.36489 0
M  V30 317 H 28.1058 2.95013 0.510643 0
M  V30 318 H 25.6518 1.41915 0.244181 0
M  V30 319 H 27.6048 3.01236 2.94678 0
M  V30 320 H 26.3288 1.78821 2.73296 0
M  V30 321 H 24.9878 3.40937 1.34751 0
M  V30 322 H 24.6358 3.27263 3.81979 0
M  V30 323 H 24.3358 4.92022 3.21229 0
M  V30 324 H 25.8598 4.5525 4.06915 0
M  V30 325 H 27.2738 5.38857 1.95718 0
M  V30 326 H 25.6708 5.85453 1.31776 0
M  V30 327 H 26.7408 4.83733 0.336219 0
M  V30 328 N 28.0839 -0.256276 1.55502 0
M  V30 329 C 29.3319 -0.983672 1.76545 0
M  V30 330 C 29.6529 -1.86206 0.578982 0
M  V30 331 O 28.9229 -1.91656 -0.405577 0
M  V30 332 H 27.5029 -0.366191 0.651086 0
M  V30 333 H 30.1649 -0.276479 1.92929 0
M  V30 334 H 29.2609 -1.61087 2.67315 0
M  V30 335 N 29.562 -1.4872 -0.521534 0
M  V30 336 C 30.808 -1.574 -1.27879 0
M  V30 337 C 31.141 -0.250817 -1.92573 0
M  V30 338 O 30.416 0.743934 -1.79711 0
M  V30 339 C 30.699 -2.71843 -2.36164 0
M  V30 340 C 30.552 -4.13893 -1.76105 0
M  V30 341 C 31.871 -2.82008 -3.37875 0
M  V30 342 H 28.99 -0.572941 -0.463581 0
M  V30 343 H 31.632 -1.80927 -0.580119 0
M  V30 344 H 29.782 -2.51914 -2.95756 0
M  V30 345 H 31.454 -4.45284 -1.20499 0
M  V30 346 H 29.697 -4.20498 -1.06601 0
M  V30 347 H 30.368 -4.89804 -2.5455 0
M  V30 348 H 32.844 -3.00086 -2.88249 0
M  V30 349 H 31.72 -3.63796 -4.11028 0
M  V30 350 H 31.981 -1.90511 -3.98946 0
M  V30 351 N 31.0401 0.771051 -1.3745 0
M  V30 352 C 32.2881 1.52661 -1.32435 0
M  V30 353 C 32.6091 1.9479 0.0905024 0
M  V30 354 O 31.8791 1.66348 1.03466 0
M  V30 355 H 30.4591 0.566218 -0.487244 0
M  V30 356 H 33.1211 0.917636 -1.71946 0
M  V30 357 H 32.2171 2.42568 -1.96385 0
M  V30 358 N 32.5182 1.22032 0.997298 0
M  V30 359 C 33.4482 1.01065 2.10495 0
M  V30 360 C 34.4292 -0.0669542 1.69968 0
M  V30 361 O 35.6142 0.0943987 1.9397 0
M  V30 362 C 32.7442 0.582874 3.42374 0
M  V30 363 C 31.6982 1.60592 3.96729 0
M  V30 364 C 31.0242 1.03412 5.24605 0
M  V30 365 C 32.3242 2.99478 4.27914 0
M  V30 366 H 34.0182 1.93708 2.28292 0
M  V30 367 H 31.5642 0.932761 1.09707 0
M  V30 368 H 33.5172 0.423332 4.19268 0
M  V30 369 H 32.2412 -0.379213 3.24391 0
M  V30 370 H 30.9002 1.75316 3.21963 0
M  V30 371 H 30.5482 0.063518 5.0296 0
M  V30 372 H 30.2482 1.71754 5.61938 0
M  V30 373 H 31.7722 0.886066 6.04137 0
M  V30 374 H 33.1862 2.88153 4.95622 0
M  V30 375 H 31.5832 3.64903 4.76409 0
M  V30 376 H 32.6532 3.49742 3.3587 0
M  V30 377 N 33.9963 -1.19345 1.0293 0
M  V30 378 C 34.9443 -2.24621 0.604001 0
M  V30 379 C 35.9383 -1.65452 -0.363587 0
M  V30 380 O 37.1443 -1.78497 -0.23212 0
M  V30 381 H 33.5193 -0.730858 0.177061 0
M  V30 382 H 35.4903 -2.5781 1.50255 0
M  V30 383 C 34.2393 -3.47688 -0.0289127 0
M  V30 384 H 33.5623 -3.93505 0.706651 0
M  V30 385 H 35.0023 -4.23011 -0.289432 0
M  V30 386 C 33.4613 -3.11817 -1.2756 0
M  V30 387 O 33.9913 -3.2451 -2.36762 0
M  V30 388 N 32.1973 -2.66246 -1.16453 0
M  V30 389 H 31.7443 -2.56118 -0.275914 0
M  V30 390 H 31.7023 -2.42617 -1.99961 0
M  V30 391 N 35.4744 -0.807222 -1.35358 0
M  V30 392 C 36.7024 -0.400377 -2.02989 0
M  V30 393 C 37.1174 0.988859 -1.60832 0
M  V30 394 O 36.4744 1.63729 -0.806175 0
M  V30 395 C 36.5254 -0.474867 -3.58368 0
M  V30 396 O 36.2464 -1.80933 -3.98992 0
M  V30 397 C 37.7474 -0.0609112 -4.43258 0
M  V30 398 H 34.9674 -0.162587 -0.651004 0
M  V30 399 H 37.5114 -1.09102 -1.72965 0
M  V30 400 H 35.6664 0.167534 -3.87038 0
M  V30 401 H 36.0804 -1.77256 -4.9364 0
M  V30 402 H 37.5544 -0.164145 -5.51756 0
M  V30 403 H 38.0314 0.993831 -4.27808 0
M  V30 404 H 38.6374 -0.676492 -4.19885 0
M  V30 405 N 36.9525 1.47285 -0.560781 0
M  V30 406 C 38.1805 2.06855 -0.0430262 0
M  V30 407 C 38.5955 1.41291 1.25229 0
M  V30 408 O 37.9525 0.510648 1.7521 0
M  V30 409 C 38.0035 3.61178 0.152518 0
M  V30 410 O 37.7245 4.24285 -1.0915 0
M  V30 411 C 39.2255 4.37624 0.707145 0
M  V30 412 H 36.4455 0.669319 -0.0474652 0
M  V30 413 H 38.9895 1.89237 -0.77521 0
M  V30 414 H 37.1445 3.78298 0.834843 0
M  V30 415 H 37.5585 5.16868 -0.891482 0
M  V30 416 H 39.0325 5.46271 0.793244 0
M  V30 417 H 39.5095 4.04152 1.71923 0
M  V30 418 H 40.1155 4.25257 0.0604027 0
M  V30 419 N 38.4306 0.297415 1.54768 0
M  V30 420 C 39.6796 -0.313669 1.99246 0
M  V30 421 C 39.9926 -1.55281 1.18942 0
M  V30 422 O 41.1986 -2.23825 1.5367 0
M  V30 423 C 39.6546 -0.609407 3.54703 0
M  V30 424 C 39.2626 0.611192 4.43811 0
M  V30 425 C 41.0066 -1.18188 4.07715 0
M  V30 426 C 38.9136 0.288805 5.90694 0
M  V30 427 H 37.8436 -0.120979 0.744231 0
M  V30 428 H 40.4946 0.40556 1.78962 0
M  V30 429 H 38.8766 -1.38813 3.70873 0
M  V30 430 H 40.0506 1.3875 4.39414 0
M  V30 431 H 38.3656 1.10205 4.01552 0
M  V30 432 H 40.9626 -1.43727 5.15021 0
M  V30 433 H 41.3056 -2.12299 3.58099 0
M  V30 434 H 41.8386 -0.464944 3.95074 0
M  V30 435 H 38.5776 1.19838 6.44453 0
M  V30 436 H 38.0976 -0.450305 5.98107 0
M  V30 437 H 39.7766 -0.110933 6.46905 0
M  V30 438 N 39.9087 -1.5758 0.0250728 0
M  V30 439 C 40.8387 -2.13007 -0.956575 0
M  V30 440 C 41.8197 -1.0452 -1.342 0
M  V30 441 O 43.0047 -1.32332 -1.42133 0
M  V30 442 C 40.1347 -2.65386 -2.24026 0
M  V30 443 C 39.0887 -3.78623 -1.99571 0
M  V30 444 C 38.4147 -4.17414 -3.3417 0
M  V30 445 C 39.7147 -5.04867 -1.33814 0
M  V30 446 H 41.4087 -2.9528 -0.494991 0
M  V30 447 H 38.9547 -1.42042 -0.236651 0
M  V30 448 H 40.9077 -3.02794 -2.93076 0
M  V30 449 H 39.6317 -1.80268 -2.72343 0
M  V30 450 H 38.2907 -3.41646 -1.32941 0
M  V30 451 H 37.9387 -3.29284 -3.80238 0
M  V30 452 H 37.6387 -4.93719 -3.18615 0
M  V30 453 H 39.1627 -4.57402 -4.04495 0
M  V30 454 H 40.5767 -5.39888 -1.92857 0
M  V30 455 H 38.9737 -5.86144 -1.28669 0
M  V30 456 H 40.0437 -4.83904 -0.310561 0
M  V30 457 N 41.3868 0.248026 -1.55636 0
M  V30 458 C 42.6148 0.993808 -1.81469 0
M  V30 459 C 43.0298 1.78991 -0.60064 0
M  V30 460 O 42.3868 1.77345 0.430682 0
M  V30 461 C 42.4378 1.93258 -3.05506 0
M  V30 462 O 42.1588 1.16869 -4.22224 0
M  V30 463 C 43.6598 2.79444 -3.4413 0
M  V30 464 H 40.8798 0.292486 -0.603898 0
M  V30 465 H 43.4238 0.271253 -2.02693 0
M  V30 466 H 41.5788 2.60943 -2.86335 0
M  V30 467 H 41.9928 1.80359 -4.92515 0
M  V30 468 H 43.4668 3.41066 -4.34026 0
M  V30 469 H 43.9438 3.50499 -2.64665 0
M  V30 470 H 44.5498 2.17214 -3.65648 0
M  V30 471 N 42.8649 1.48995 0.513639 0
M  V30 472 C 44.2759 1.5119 1.09537 0
M  V30 473 C 44.6269 0.290906 1.94031 0
M  V30 474 O 43.7519 -0.60049 2.07902 0
M  V30 475 C 44.3469 2.73964 1.99322 0
M  V30 476 C 42.9059 2.78978 2.52682 0
M  V30 477 C 42.0529 2.44934 1.30009 0
M  V30 478 H 45.0039 1.55875 0.298125 0
M  V30 479 H 45.0249 2.53409 2.83838 0
M  V30 480 H 44.5369 3.62813 1.37799 0
M  V30 481 H 42.6379 1.94378 3.1788 0
M  V30 482 H 42.7509 3.8083 2.90698 0
M  V30 483 H 41.1149 1.9644 1.62122 0
M  V30 484 H 41.8979 3.36043 0.702131 0
M  V30 485 N 44.343 -0.763751 1.37857 0
M  V30 486 C 45.291 -1.89864 1.34367 0
M  V30 487 C 46.285 -1.67816 0.231143 0
M  V30 488 O 47.491 -1.75508 0.399617 0
M  V30 489 H 43.866 -0.624501 0.41893 0
M  V30 490 H 45.837 -1.89925 2.30155 0
M  V30 491 C 44.586 -3.27227 1.1755 0
M  V30 492 H 43.909 -3.44773 2.02414 0
M  V30 493 H 45.349 -4.06911 1.1916 0
M  V30 494 C 43.808 -3.36692 -0.118311 0
M  V30 495 O 44.338 -3.86374 -1.09902 0
M  V30 496 N 42.544 -2.90092 -0.171717 0
M  V30 497 H 42.091 -2.49853 0.627012 0
M  V30 498 H 42.049 -2.96806 -1.03699 0
M  V30 499 N 45.8211 -1.22559 -0.990812 0
M  V30 500 C 47.0691 -1.04933 -1.72724 0
M  V30 501 C 47.3901 0.416158 -1.90508 0
M  V30 502 O 46.6601 1.29918 -1.46622 0
M  V30 503 H 45.2401 -0.385296 -0.639965 0
M  V30 504 H 47.9021 -1.54105 -1.19322 0
M  V30 505 H 46.9981 -1.52886 -2.72089 0
M  V30 506 N 47.2992 1.18797 -1.03562 0
M  V30 507 C 48.2472 2.24297 -0.615905 0
M  V30 508 C 49.2412 1.65643 0.354808 0
M  V30 509 O 50.4472 1.78618 0.22265 0
M  V30 510 H 46.8222 0.729909 -0.180934 0
M  V30 511 H 48.7932 2.5701 -1.5162 0
M  V30 512 C 47.5422 3.47698 0.0104735 0
M  V30 513 H 46.8652 3.93125 -0.727509 0
M  V30 514 H 48.3052 4.23159 0.266995 0
M  V30 515 C 46.7642 3.12489 1.25905 0
M  V30 516 O 47.2942 3.25761 2.35038 0
M  V30 517 N 45.5002 2.6686 1.15039 0
M  V30 518 H 45.0472 2.56261 0.262328 0
M  V30 519 H 45.0052 2.43674 1.98672 0
M  V30 520 N 48.7773 0.814389 1.34928 0
M  V30 521 C 49.6873 0.231978 2.3345 0
M  V30 522 C 50.7033 -0.629139 1.62228 0
M  V30 523 O 51.8793 -0.539052 1.94052 0
M  V30 524 C 48.9443 -0.603482 3.41407 0
M  V30 525 C 48.0053 0.279037 4.28392 0
M  V30 526 C 47.2383 -0.516643 5.31193 0
M  V30 527 O 47.4613 -1.75068 5.4287 0
M  V30 528 O 46.3953 0.0965652 6.01823 0
M  V30 529 H 50.2213 1.04721 2.85074 0
M  V30 530 H 47.8063 0.576343 1.37836 0
M  V30 531 H 49.6883 -1.07908 4.0735 0
M  V30 532 H 48.3633 -1.39618 2.92042 0
M  V30 533 H 47.2703 0.801948 3.65403 0
M  V30 534 H 48.6033 1.03588 4.81176 0
M  V30 535 N 50.2554 -1.46986 0.568584 0
M  V30 536 C 51.5324 -1.95592 -0.0174074 0
M  V30 537 C 51.9124 -1.51124 -1.47393 0
M  V30 538 O 51.2604 -0.755329 -2.15655 0
M  V30 539 C 51.4704 -3.48719 0.139913 0
M  V30 540 C 52.8184 -4.246 0.000426376 0
M  V30 541 O 53.8424 -3.56135 0.0680316 0
M  V30 542 O 52.7014 -5.46302 -0.146988 0
M  V30 543 H 49.7954 -0.82498 -0.0577599 0
M  V30 544 H 52.3414 -1.57335 0.635909 0
M  V30 545 H 51.1134 -3.73927 1.15301 0
M  V30 546 H 50.7364 -3.93771 -0.550491 0
M  V30 547 N 51.7335 -0.305618 -1.54608 0
M  V30 548 C 52.9615 0.304775 -2.04643 0
M  V30 549 C 53.3765 1.47167 -1.18268 0
M  V30 550 O 52.7335 1.81296 -0.209328 0
M  V30 551 C 52.7845 0.756564 -3.53495 0
M  V30 552 O 52.5055 -0.36389 -4.36586 0
M  V30 553 C 54.0065 1.43163 -4.19546 0
M  V30 554 H 51.2265 0.0655481 -0.667791 0
M  V30 555 H 53.7705 -0.446592 -1.99564 0
M  V30 556 H 51.9255 1.45794 -3.58919 0
M  V30 557 H 52.3395 -0.0113121 -5.24499 0
M  V30 558 H 53.8135 1.69886 -5.25207 0
M  V30 559 H 54.2905 2.37318 -3.69563 0
M  V30 560 H 54.8965 0.773307 -4.18211 0
M  V30 561 N 53.2116 1.57565 -0.0334293 0
M  V30 562 C 54.4396 1.9628 0.654347 0
M  V30 563 C 54.8546 0.910138 1.65414 0
M  V30 564 O 54.2116 -0.107595 1.82183 0
M  V30 565 C 54.2626 3.35067 1.35693 0
M  V30 566 O 53.9836 4.36296 0.397191 0
M  V30 567 C 55.4846 3.88439 2.13613 0
M  V30 568 H 52.7046 0.646369 0.180132 0
M  V30 569 H 55.2486 2.04282 -0.0944721 0
M  V30 570 H 53.4036 3.2827 2.05712 0
M  V30 571 H 53.8176 5.1678 0.896597 0
M  V30 572 H 55.2916 4.8788 2.58219 0
M  V30 573 H 55.7686 3.22914 2.97696 0
M  V30 574 H 56.3746 3.98516 1.48543 0
M  V30 575 N 54.6897 -0.239769 1.55765 0
M  V30 576 C 55.6527 -1.28038 1.90103 0
M  V30 577 C 56.6527 -1.40723 0.778055 0
M  V30 578 O 57.8427 -1.39301 1.04599 0
M  V30 579 C 54.9747 -2.65702 2.13577 0
M  V30 580 H 56.1677 -0.988048 2.83157 0
M  V30 581 H 53.7207 -0.479382 1.48767 0
M  V30 582 H 54.4557 -3.00063 1.23015 0
M  V30 583 H 54.2407 -2.57875 2.95369 0
M  V30 584 H 55.7307 -3.40828 2.41301 0
M  V30 585 N 56.1678 -1.49265 -0.50573 0
M  V30 586 C 57.4448 -1.49012 -1.26707 0
M  V30 587 C 57.8248 -0.215205 -2.1 0
M  V30 588 O 57.1728 0.802547 -2.13943 0
M  V30 589 C 57.3828 -2.7663 -2.12783 0
M  V30 590 C 58.7308 -3.25932 -2.72127 0
M  V30 591 O 59.7548 -2.77715 -2.23054 0
M  V30 592 O 58.6138 -4.09897 -3.61451 0
M  V30 593 H 55.7078 -0.596197 -0.57313 0
M  V30 594 H 58.2538 -1.61524 -0.52039 0
M  V30 595 H 57.0258 -3.60916 -1.5118 0
M  V30 596 H 56.6488 -2.66956 -2.94653 0
M  V30 597 N 57.6459 0.756429 -1.3826 0
M  V30 598 C 58.8929 1.51547 -1.34312 0
M  V30 599 C 59.2209 1.94382 0.0677144 0
M  V30 600 O 58.4759 1.65514 1.04421 0
M  V30 601 C 58.7749 2.78313 -2.24224 0
M  V30 602 C 58.4409 2.54455 -3.72241 0
M  V30 603 C 57.1029 2.47657 -4.12576 0
M  V30 604 C 59.4549 2.3354 -4.65949 0
M  V30 605 C 56.7829 2.17956 -5.44713 0
M  V30 606 C 59.1349 2.05359 -5.9834 0
M  V30 607 C 57.7989 1.97016 -6.37762 0
M  V30 608 H 57.0689 0.55455 -0.491482 0
M  V30 609 H 59.7159 0.870039 -1.70595 0
M  V30 610 H 58.0209 3.47492 -1.80987 0
M  V30 611 H 59.7179 3.36259 -2.18474 0
M  V30 612 H 56.3079 2.60616 -3.40261 0
M  V30 613 H 60.4919 2.37772 -4.35635 0
M  V30 614 H 55.7479 2.10003 -5.74203 0
M  V30 615 H 59.9219 1.88179 -6.70494 0
M  V30 616 H 57.5489 1.73766 -7.40074 0
M  V30 617 N 59.124 1.23083 0.984299 0
M  V30 618 C 60.371 1.06057 1.72505 0
M  V30 619 C 60.699 -0.403105 1.90277 0
M  V30 620 O 59.954 -1.3149 1.44944 0
M  V30 621 C 60.253 1.72673 3.1292 0
M  V30 622 C 59.919 3.22586 3.15038 0
M  V30 623 C 58.581 3.63489 3.15324 0
M  V30 624 C 60.933 4.185 3.10657 0
M  V30 625 C 58.261 4.98772 3.08939 0
M  V30 626 C 60.613 5.53769 3.05814 0
M  V30 627 C 59.277 5.94041 3.04419 0
M  V30 628 H 58.547 0.388091 0.631242 0
M  V30 629 H 61.194 1.52963 1.15215 0
M  V30 630 H 59.499 1.18116 3.73572 0
M  V30 631 H 61.196 1.56982 3.68996 0
M  V30 632 H 57.786 2.90022 3.15571 0
M  V30 633 H 61.97 3.87911 3.09579 0
M  V30 634 H 57.226 5.29193 3.0621 0
M  V30 635 H 61.4 6.27808 3.0138 0
M  V30 636 H 59.027 6.98833 2.99227 0
M  V30 637 N 60.6021 -1.18246 1.0419 0
M  V30 638 C 61.5321 -2.24127 0.654914 0
M  V30 639 C 62.5131 -1.66617 -0.342451 0
M  V30 640 O 63.6981 -1.92924 -0.222277 0
M  V30 641 C 60.8281 -3.47295 0.0183757 0
M  V30 642 C 59.7821 -4.17563 0.939414 0
M  V30 643 C 59.1081 -5.34438 0.167286 0
M  V30 644 C 60.4081 -4.70917 2.25908 0
M  V30 645 H 62.1021 -2.56753 1.54007 0
M  V30 646 H 59.6481 -1.23414 0.74195 0
M  V30 647 H 61.6011 -4.20572 -0.264082 0
M  V30 648 H 60.3251 -3.13907 -0.901664 0
M  V30 649 H 58.9841 -3.46186 1.20628 0
M  V30 650 H 58.6321 -4.97298 -0.7552 0
M  V30 651 H 58.3321 -5.82388 0.780901 0
M  V30 652 H 59.8561 -6.10504 -0.108125 0
M  V30 653 H 61.2701 -5.35882 2.03724 0
M  V30 654 H 59.6671 -5.29406 2.82577 0
M  V30 655 H 60.7371 -3.88272 2.9047 0
M  V30 656 N 62.0802 -0.821533 -1.34494 0
M  V30 657 C 63.3082 -0.421884 -2.02553 0
M  V30 658 C 63.7232 0.971745 -1.61872 0
M  V30 659 O 63.0802 1.62864 -0.823496 0
M  V30 660 C 63.1312 -0.51285 -3.57844 0
M  V30 661 O 62.8522 -1.85155 -3.97051 0
M  V30 662 C 64.3532 -0.107921 -4.43169 0
M  V30 663 H 61.5732 -0.169482 -0.649243 0
M  V30 664 H 64.1172 -1.1093 -1.71798 0
M  V30 665 H 62.2722 0.126474 -3.87193 0
M  V30 666 H 62.6862 -1.82482 -4.91732 0
M  V30 667 H 64.1602 -0.222657 -5.51551 0
M  V30 668 H 64.6372 0.948401 -4.28838 0
M  V30 669 H 65.2432 -0.720989 -4.19144 0
M  V30 670 N 63.5583 1.46682 -0.576371 0
M  V30 671 C 64.7863 2.06798 -0.0649635 0
M  V30 672 C 65.2013 1.42612 1.23723 0
M  V30 673 O 64.5583 0.529203 1.74659 0
M  V30 674 C 64.6093 3.6132 0.114202 0
M  V30 675 O 64.3303 4.23104 -1.13644 0
M  V30 676 C 65.8313 4.38349 0.66069 0
M  V30 677 H 63.0513 0.668778 -0.0545616 0
M  V30 678 H 65.5953 1.88404 -0.795237 0
M  V30 679 H 63.7503 3.79162 0.794673 0
M  V30 680 H 64.1643 5.15894 -0.946253 0
M  V30 681 H 65.6383 5.47081 0.73526 0
M  V30 682 H 66.1153 4.05953 1.67627 0
M  V30 683 H 66.7213 4.25297 0.0152951 0
M  V30 684 N 65.0364 0.313813 1.54444 0
M  V30 685 C 65.9694 -0.598866 2.20202 0
M  V30 686 C 66.9474 -1.12318 1.17573 0
M  V30 687 O 68.1314 -1.18899 1.46271 0
M  V30 688 C 65.2584 -1.82071 2.85601 0
M  V30 689 C 64.3044 -1.42851 4.01865 0
M  V30 690 S 65.1374 -0.473512 5.33402 0
M  V30 691 C 66.2934 -1.70286 6.0229 0
M  V30 692 H 66.5264 -0.0402532 2.97273 0
M  V30 693 H 64.0594 0.0979165 1.54089 0
M  V30 694 H 66.0174 -2.52184 3.23904 0
M  V30 695 H 64.6784 -2.3505 2.08351 0
M  V30 696 H 63.8714 -2.33871 4.46453 0
M  V30 697 H 63.4734 -0.807198 3.65185 0
M  V30 698 H 65.7654 -2.64168 6.23876 0
M  V30 699 H 66.7084 -1.29932 6.96077 0
M  V30 700 H 67.1164 -1.88541 5.32083 0
M  V30 701 N 66.5145 -1.57545 0.0417849 0
M  V30 702 C 67.9255 -1.80011 -0.495259 0
M  V30 703 C 68.2765 -0.953199 -1.71489 0
M  V30 704 O 67.4015 -0.167138 -2.15754 0
M  V30 705 C 67.9965 -3.26482 -0.905265 0
M  V30 706 C 66.5555 -3.499 -1.38734 0
M  V30 707 C 65.7025 -2.74979 -0.358056 0
M  V30 708 H 68.6535 -1.56425 0.267736 0
M  V30 709 H 68.6745 -3.36887 -1.76882 0
M  V30 710 H 68.1865 -3.88096 -0.017401 0
M  V30 711 H 66.2875 -2.93553 -2.29471 0
M  V30 712 H 66.4005 -4.58615 -1.38598 0
M  V30 713 H 64.7645 -2.40834 -0.828912 0
M  V30 714 H 65.5475 -3.39315 0.521561 0
M  V30 715 N 67.9926 0.231505 -1.5589 0
M  V30 716 C 69.2206 0.974505 -1.82513 0
M  V30 717 C 69.6356 1.78344 -0.619591 0
M  V30 718 O 68.9926 1.77792 0.411848 0
M  V30 719 C 69.0436 1.90007 -3.07538 0
M  V30 720 O 68.7646 1.12385 -4.2344 0
M  V30 721 C 70.2656 2.75779 -3.47075 0
M  V30 722 H 67.4856 0.286065 -0.606966 0
M  V30 723 H 70.0296 0.249739 -2.02969 0
M  V30 724 H 68.1846 2.57891 -2.89086 0
M  V30 725 H 68.5986 1.75125 -4.944 0
M  V30 726 H 70.0726 3.36443 -4.37619 0
M  V30 727 H 70.5496 3.47672 -2.68367 0
M  V30 728 H 71.1556 2.13323 -3.67931 0
M  V30 729 N 69.4707 1.49531 0.497807 0
M  V30 730 C 70.7477 1.49682 1.25915 0
M  V30 731 C 71.1277 0.226339 2.09883 0
M  V30 732 O 70.4757 -0.791189 2.14365 0
M  V30 733 C 70.6857 2.77755 2.11313 0
M  V30 734 C 72.0337 3.27371 2.70395 0
M  V30 735 O 73.0577 2.78894 2.21578 0
M  V30 736 O 71.9167 4.11808 3.59272 0
M  V30 737 H 69.0107 0.599228 0.56996 0
M  V30 738 H 71.5567 1.61798 0.511816 0
M  V30 739 H 70.3287 3.61713 1.49264 0
M  V30 740 H 69.9517 2.68515 2.93233 0
M  V30 741 N 70.9488 -0.749086 1.3866 0
M  V30 742 C 72.1738 -1.54344 1.38538 0
M  V30 743 C 72.5988 -1.88088 -0.0216655 0
M  V30 744 O 71.9568 -1.50899 -1.00494 0
M  V30 745 C 72.0048 -2.8164 2.25192 0
M  V30 746 O 71.1088 -3.7698 1.67212 0
M  V30 747 H 70.4498 -0.466654 0.472367 0
M  V30 748 H 72.9798 -0.925355 1.82478 0
M  V30 749 H 72.9898 -3.30519 2.3921 0
M  V30 750 H 71.6648 -2.56411 3.27454 0
M  V30 751 H 70.2418 -3.35699 1.6236 0
M  V30 752 N 72.4269 -1.23603 -0.977757 0
M  V30 753 C 73.3569 -1.04401 -2.0886 0
M  V30 754 C 74.3379 0.0399052 -1.70053 0
M  V30 755 O 75.5229 -0.125246 -1.93796 0
M  V30 756 C 72.6529 -0.637269 -3.41403 0
M  V30 757 C 71.6069 -1.66883 -3.94124 0
M  V30 758 C 70.9329 -1.11745 -5.22893 0
M  V30 759 C 72.2329 -3.06247 -4.23096 0
M  V30 760 H 73.9269 -1.97316 -2.25182 0
M  V30 761 H 71.4729 -0.950096 -1.08209 0
M  V30 762 H 73.4259 -0.48998 -4.18542 0
M  V30 763 H 72.1499 0.327557 -3.24953 0
M  V30 764 H 70.8089 -1.80416 -3.19133 0
M  V30 765 H 70.4569 -0.143527 -5.02795 0
M  V30 766 H 70.1569 -1.80672 -5.59134 0
M  V30 767 H 71.6809 -0.982067 -6.02651 0
M  V30 768 H 73.0949 -2.96001 -4.90975 0
M  V30 769 H 71.4919 -3.72436 -4.70544 0
M  V30 770 H 72.5619 -3.55041 -3.30263 0
M  V30 771 N 73.905 1.17692 -1.04816 0
M  V30 772 C 75.13 1.92327 -0.776207 0
M  V30 773 C 75.555 1.76082 0.661581 0
M  V30 774 O 74.913 1.076 1.45917 0
M  V30 775 C 74.961 3.41539 -1.15687 0
M  V30 776 O 74.065 4.11402 -0.286775 0
M  V30 777 H 73.406 0.599735 -0.284981 0
M  V30 778 H 75.936 1.49201 -1.4 0
M  V30 779 H 75.946 3.92269 -1.12202 0
M  V30 780 H 74.621 3.52684 -2.20425 0
M  V30 781 H 73.198 3.70939 -0.381903 0
M  V30 782 N 75.3831 0.828654 1.34056 0
M  V30 783 C 76.6291 0.42008 1.98402 0
M  V30 784 C 76.9621 -1.01564 1.65525 0
M  V30 785 O 76.2371 -1.70834 0.929831 0
M  V30 786 C 76.5201 0.62927 3.54559 0
M  V30 787 C 76.3731 2.11152 3.97159 0
M  V30 788 C 77.6921 0.0688756 4.40046 0
M  V30 789 H 74.8111 0.154104 0.720709 0
M  V30 790 H 77.4531 1.04228 1.5886 0
M  V30 791 H 75.6031 0.0996418 3.88372 0
M  V30 792 H 77.2751 2.70522 3.73651 0
M  V30 793 H 75.5181 2.59985 3.47261 0
M  V30 794 H 76.1891 2.20868 5.05887 0
M  V30 795 H 78.6651 0.521458 4.1282 0
M  V30 796 H 77.5411 0.245006 5.48353 0
M  V30 797 H 77.8021 -1.0266 4.30015 0
M  V30 798 N 76.8612 -1.46375 0.584142 0
M  V30 799 C 78.0862 -2.07268 0.0740405 0
M  V30 800 C 78.5112 -1.42979 -1.22223 0
M  V30 801 O 77.8692 -0.514092 -1.73859 0
M  V30 802 C 77.9172 -3.60518 -0.0767769 0
M  V30 803 O 77.0212 -3.96533 -1.13292 0
M  V30 804 H 76.3622 -0.660961 0.0634524 0
M  V30 805 H 78.8922 -1.87991 0.807492 0
M  V30 806 H 78.9022 -4.07021 -0.282489 0
M  V30 807 H 77.5772 -4.06702 0.86986 0
M  V30 808 H 76.1542 -3.61738 -0.905553 0
M  V30 809 N 78.3393 -0.321999 -1.54275 0
M  V30 810 C 79.5673 0.283052 -2.04955 0
M  V30 811 C 79.9823 1.45904 -1.19823 0
M  V30 812 O 79.3393 1.81063 -0.228545 0
M  V30 813 C 79.3903 0.719028 -3.54277 0
M  V30 814 O 79.1113 -0.410175 -4.36176 0
M  V30 815 C 80.6123 1.38705 -4.21041 0
M  V30 816 H 77.8323 0.0584616 -0.668448 0
M  V30 817 H 80.3763 -0.467734 -1.99079 0
M  V30 818 H 78.5313 1.41979 -3.60445 0
M  V30 819 H 78.9453 -0.0669416 -5.24457 0
M  V30 820 H 80.4193 1.64306 -5.2698 0
M  V30 821 H 80.8963 2.33385 -3.72059 0
M  V30 822 H 81.5023 0.728906 -4.19007 0
M  V30 823 N 79.8174 1.5752 -0.0501392 0
M  V30 824 C 80.7474 2.14502 0.922566 0
M  V30 825 C 81.7284 1.06642 1.3252 0
M  V30 826 O 82.9134 1.34577 1.4001 0
M  V30 827 C 80.0434 2.68916 2.19776 0
M  V30 828 C 78.9974 3.8175 1.93523 0
M  V30 829 C 78.3234 4.22677 3.27487 0
M  V30 830 C 79.6234 5.06932 1.25765 0
M  V30 831 H 81.3174 2.9603 0.447952 0
M  V30 832 H 78.8634 1.42401 0.214024 0
M  V30 833 H 80.8164 3.07419 2.88222 0
M  V30 834 H 79.5404 1.84578 2.69441 0
M  V30 835 H 78.1994 3.43718 1.27489 0
M  V30 836 H 77.8474 3.35291 3.74952 0
M  V30 837 H 77.5474 4.98725 3.1072 0
M  V30 838 H 79.0714 4.63779 3.97166 0
M  V30 839 H 80.4854 5.42888 1.84244 0
M  V30 840 H 78.8824 5.88116 1.19328 0
M  V30 841 H 79.9524 4.84337 0.233536 0
M  V30 842 N 81.2955 -0.223234 1.56011 0
M  V30 843 C 82.7065 -0.790368 1.69145 0
M  V30 844 C 83.0575 -1.85055 0.651845 0
M  V30 845 O 82.1825 -2.15498 -0.197359 0
M  V30 846 C 82.7775 -1.4404 3.06656 0
M  V30 847 C 81.3365 -1.95494 3.2165 0
M  V30 848 C 80.4835 -0.814506 2.65068 0
M  V30 849 H 83.4345 0.00139011 1.587 0
M  V30 850 H 83.4555 -2.30916 3.0242 0
M  V30 851 H 82.9675 -0.668543 3.82298 0
M  V30 852 H 81.0685 -2.75487 2.50874 0
M  V30 853 H 81.1815 -2.13607 4.28846 0
M  V30 854 H 79.5455 -1.22137 2.23505 0
M  V30 855 H 80.3285 -0.0553515 3.43255 0
M  V30 856 N 82.7736 -1.49793 -0.48987 0
M  V30 857 C 83.7036 -1.70201 -1.59856 0
M  V30 858 C 84.6846 -0.55076 -1.60937 0
M  V30 859 O 85.8696 -0.787841 -1.77501 0
M  V30 860 C 82.9996 -1.77882 -2.98287 0
M  V30 861 C 81.9536 -2.92907 -3.12073 0
M  V30 862 C 81.2796 -2.85712 -4.51965 0
M  V30 863 C 82.5796 -4.3369 -2.91051 0
M  V30 864 H 84.2736 -2.63025 -1.43032 0
M  V30 865 H 81.8196 -1.26574 -0.686664 0
M  V30 866 H 83.7726 -1.90744 -3.75759 0
M  V30 867 H 82.4966 -0.816653 -3.16225 0
M  V30 868 H 81.1556 -2.79665 -2.37029 0
M  V30 869 H 80.8036 -1.8738 -4.66795 0
M  V30 870 H 80.5036 -3.62921 -4.62128 0
M  V30 871 H 82.0276 -3.00598 -5.31482 0
M  V30 872 H 83.4416 -4.47555 -3.58284 0
M  V30 873 H 81.8386 -5.12205 -3.12675 0
M  V30 874 H 82.9086 -4.47362 -1.87071 0
M  V30 875 N 84.2517 0.741722 -1.39055 0
M  V30 876 C 85.6627 1.31966 -1.32068 0
M  V30 877 C 86.0137 1.96192 0.0180797 0
M  V30 878 O 85.1387 1.95861 0.920196 0
M  V30 879 C 85.7337 2.39954 -2.39181 0
M  V30 880 C 84.2927 2.93438 -2.35735 0
M  V30 881 C 83.4397 1.66936 -2.21422 0
M  V30 882 H 86.3907 0.539721 -1.4924 0
M  V30 883 H 86.4117 3.20182 -2.05581 0
M  V30 884 H 85.9237 1.9318 -3.36605 0
M  V30 885 H 84.0247 3.4451 -1.41929 0
M  V30 886 H 84.1377 3.4701 -3.30335 0
M  V30 887 H 82.5017 1.91016 -1.68478 0
M  V30 888 H 83.2847 1.22224 -3.20806 0
M  V30 889 N 85.7298 1.2412 0.971189 0
M  V30 890 C 86.6398 1.04747 2.09917 0
M  V30 891 C 87.6558 -0.0107162 1.73997 0
M  V30 892 O 88.8318 0.186714 2.00533 0
M  V30 893 C 85.8968 0.650828 3.40537 0
M  V30 894 C 84.9578 1.7851 3.90426 0
M  V30 895 C 84.1908 1.40729 5.14812 0
M  V30 896 O 84.4138 0.29557 5.69634 0
M  V30 897 O 83.3478 2.23168 5.58999 0
M  V30 898 H 87.1738 1.99304 2.29154 0
M  V30 899 H 84.7588 1.02908 1.08307 0
M  V30 900 H 86.6408 0.440992 4.19086 0
M  V30 901 H 85.3158 -0.265649 3.22608 0
M  V30 902 H 84.2228 2.04966 3.12953 0
M  V30 903 H 85.5558 2.68023 4.12825 0
M  V30 904 N 87.2079 -1.17134 1.05439 0
M  V30 905 C 88.4539 -1.87733 0.767077 0
M  V30 906 C 88.7869 -1.8098 -0.704253 0
M  V30 907 O 88.0619 -1.21951 -1.5152 0
M  V30 908 C 88.3449 -3.37659 1.25133 0
M  V30 909 C 88.1979 -3.53149 2.78578 0
M  V30 910 C 89.5169 -4.31768 0.852324 0
M  V30 911 H 86.6359 -0.681687 0.280129 0
M  V30 912 H 89.2779 -1.37732 1.30881 0
M  V30 913 H 87.4279 -3.80373 0.790469 0
M  V30 914 H 89.0999 -3.19434 3.32806 0
M  V30 915 H 87.3429 -2.95345 3.17732 0
M  V30 916 H 88.0139 -4.58403 3.07523 0
M  V30 917 H 90.4899 -3.96909 1.24911 0
M  V30 918 H 89.3659 -5.35199 1.21873 0
M  V30 919 H 89.6269 -4.41429 -0.243485 0
M  V30 920 N 88.686 -0.835752 -1.33615 0
M  V30 921 C 89.618 -0.224151 -2.28101 0
M  V30 922 C 90.631 0.593331 -1.51603 0
M  V30 923 O 91.82 0.420911 -1.73466 0
M  V30 924 C 88.92 0.703309 -3.31522 0
M  V30 925 C 88.093 -0.0741528 -4.37337 0
M  V30 926 C 87.152 0.776176 -5.20444 0
M  V30 927 O 86.178 0.216506 -5.68788 0
M  V30 928 N 87.38 2.09401 -5.41416 0
M  V30 929 H 90.145 -1.03598 -2.81225 0
M  V30 930 H 87.706 -0.69392 -1.46275 0
M  V30 931 H 89.698 1.27707 -3.84022 0
M  V30 932 H 88.268 1.41585 -2.78698 0
M  V30 933 H 87.488 -0.82928 -3.85378 0
M  V30 934 H 88.776 -0.608863 -5.05144 0
M  V30 935 H 88.174 2.57229 -5.03835 0
M  V30 936 H 86.731 2.61633 -5.96985 0
M  V30 937 N 90.1641 1.46063 -0.591896 0
M  V30 938 C 91.4041 2.04228 -0.0838014 0
M  V30 939 C 91.7681 1.45231 1.25587 0
M  V30 940 O 92.9691 1.94653 1.85375 0
M  V30 941 C 91.2401 3.57389 -0.0286282 0
M  V30 942 S 92.7991 4.3678 0.420557 0
M  V30 943 H 89.6171 0.709762 -0.0419319 0
M  V30 944 H 92.2191 1.78983 -0.786465 0
M  V30 945 H 90.9231 3.97843 -1.00743 0
M  V30 946 H 90.4541 3.87185 0.69652 0
M  V30 947 H 92.4691 4.67131 1.67341 0
M  V30 948 N 91.6422 0.330177 1.54103 0
M  V30 949 C 92.8892 -0.270405 2.00686 0
M  V30 950 C 93.2172 -1.51621 1.21825 0
M  V30 951 O 92.4722 -1.93536 0.29025 0
M  V30 952 C 92.7712 -0.643134 3.51566 0
M  V30 953 C 92.4372 0.504251 4.48072 0
M  V30 954 C 91.0992 0.819163 4.74176 0
M  V30 955 C 93.4512 1.27465 5.05373 0
M  V30 956 C 90.7792 1.90708 5.5484 0
M  V30 957 C 93.1312 2.35271 5.87223 0
M  V30 958 C 91.7952 2.67336 6.11627 0
M  V30 959 H 91.0652 -0.0989482 0.734364 0
M  V30 960 H 93.7122 0.455324 1.86008 0
M  V30 961 H 92.0172 -1.44938 3.64006 0
M  V30 962 H 93.7142 -1.11949 3.85056 0
M  V30 963 H 90.3042 0.248733 4.27878 0
M  V30 964 H 94.4882 1.04462 4.85182 0
M  V30 965 H 89.7442 2.15991 5.71977 0
M  V30 966 H 93.9182 2.95405 6.30641 0
M  V30 967 H 91.5452 3.51763 6.73919 0
M  V30 968 N 93.1203 -1.57491 0.0584922 0
M  V30 969 C 94.3663 -1.93264 -0.614558 0
M  V30 970 C 94.6993 -0.937717 -1.7006 0
M  V30 971 O 93.9743 0.0351652 -1.94468 0
M  V30 972 C 94.2573 -3.3938 -1.20386 0
M  V30 973 C 94.1103 -4.49625 -0.125375 0
M  V30 974 C 95.4293 -3.86039 -2.11334 0
M  V30 975 H 92.5483 -0.702791 -0.221933 0
M  V30 976 H 95.1903 -1.8961 0.12175 0
M  V30 977 H 93.3403 -3.42626 -1.83139 0
M  V30 978 H 95.0123 -4.58506 0.506971 0
M  V30 979 H 93.2553 -4.30354 0.545672 0
M  V30 980 H 93.9263 -5.48967 -0.577861 0
M  V30 981 H 96.4023 -3.84716 -1.58534 0
M  V30 982 H 95.2783 -4.88914 -2.49507 0
M  V30 983 H 95.5393 -3.23215 -3.01636 0
M  V30 984 N 94.5984 0.214957 -1.56127 0
M  V30 985 C 95.8454 0.938372 -1.79446 0
M  V30 986 C 96.1734 1.8407 -0.628378 0
M  V30 987 O 95.4284 1.91837 0.386925 0
M  V30 988 C 95.7274 1.80314 -3.0858 0
M  V30 989 C 95.3934 1.05349 -4.3842 0
M  V30 990 C 94.0554 0.846435 -4.73697 0
M  V30 991 C 96.4074 0.524588 -5.18553 0
M  V30 992 C 93.7354 0.098683 -5.86617 0
M  V30 993 C 96.0874 -0.209853 -6.32252 0
M  V30 994 C 94.7514 -0.428102 -6.66126 0
M  V30 995 H 94.0214 0.343375 -0.656639 0
M  V30 996 H 96.6684 0.206077 -1.90388 0
M  V30 997 H 94.9734 2.6035 -2.92789 0
M  V30 998 H 96.6704 2.36513 -3.23825 0
M  V30 999 H 93.2604 1.22486 -4.10725 0
M  V30 1000 H 97.4444 0.672008 -4.91729 0
M  V30 1001 H 92.7004 -0.0805753 -6.11347 0
M  V30 1002 H 96.8744 -0.627157 -6.9357 0
M  V30 1003 H 94.5014 -1.00944 -7.53468 0
M  V30 1004 N 96.0765 1.50051 0.48192 0
M  V30 1005 C 97.0245 1.68635 1.60203 0
M  V30 1006 C 98.0185 0.552184 1.60148 0
M  V30 1007 O 99.2245 0.732377 1.64427 0
M  V30 1008 H 95.5995 0.532081 0.531407 0
M  V30 1009 H 97.5705 2.62616 1.41688 0
M  V30 1010 C 96.3195 1.78775 2.9822 0
M  V30 1011 H 95.6425 2.6543 2.98976 0
M  V30 1012 H 97.0825 1.95806 3.7608 0
M  V30 1013 C 95.5415 0.536849 3.32595 0
M  V30 1014 O 96.0715 -0.328897 4.00351 0
M  V30 1015 N 94.2775 0.394091 2.87915 0
M  V30 1016 H 93.8245 1.09962 2.32951 0
M  V30 1017 H 93.7825 -0.441737 3.11281 0
M  V30 1018 N 97.5546 -0.734337 1.39446 0
M  V30 1019 C 98.8006 -1.49613 1.36908 0
M  V30 1020 C 99.1336 -1.94169 -0.0347829 0
M  V30 1021 O 98.4086 -1.66833 -0.999847 0
M  V30 1022 C 98.6916 -2.73534 2.34203 0
M  V30 1023 C 98.5446 -2.34993 3.83534 0
M  V30 1024 C 99.8636 -3.75635 2.29317 0
M  V30 1025 H 96.9826 -0.542714 0.498629 0
M  V30 1026 H 99.6246 -0.839597 1.70443 0
M  V30 1027 H 97.7746 -3.29553 2.05736 0
M  V30 1028 H 99.4466 -1.84601 4.22753 0
M  V30 1029 H 97.6896 -1.67213 4.00278 0
M  V30 1030 H 98.3606 -3.23738 4.47099 0
M  V30 1031 H 100.837 -3.29203 2.54489 0
M  V30 1032 H 99.7126 -4.60008 2.99472 0
M  V30 1033 H 99.9736 -4.22603 1.29842 0
M  V30 1034 N 99.0327 -1.24633 -0.964593 0
M  V30 1035 C 99.9427 -1.05859 -2.09359 0
M  V30 1036 C 100.959 0.00148855 -1.74 0
M  V30 1037 O 102.135 -0.197346 -2.00431 0
M  V30 1038 C 99.1997 -0.668879 -3.40187 0
M  V30 1039 C 98.2607 -1.80578 -3.89474 0
M  V30 1040 C 97.4937 -1.43457 -5.14058 0
M  V30 1041 O 97.7167 -0.325775 -5.69469 0
M  V30 1042 O 96.6507 -2.2613 -5.57807 0
M  V30 1043 H 100.477 -2.00516 -2.28094 0
M  V30 1044 H 98.0617 -1.03481 -1.0776 0
M  V30 1045 H 99.9437 -0.463211 -4.18846 0
M  V30 1046 H 98.6187 0.248536 -3.22744 0
M  V30 1047 H 97.5257 -2.06623 -3.11862 0
M  V30 1048 H 98.8587 -2.70208 -4.11398 0
M  V30 1049 N 100.511 1.16574 -1.06058 0
M  V30 1050 C 101.741 1.90675 -0.795397 0
M  V30 1051 C 102.149 1.77547 0.653735 0
M  V30 1052 O 101.492 1.11611 1.45907 0
M  V30 1053 C 101.554 3.42011 -1.10764 0
M  V30 1054 C 101.218 3.78924 -2.55471 0
M  V30 1055 C 102.215 3.81042 -3.53699 0
M  V30 1056 C 99.8998 4.09626 -2.90708 0
M  V30 1057 C 101.894 4.13346 -4.85205 0
M  V30 1058 C 99.5808 4.41597 -4.22416 0
M  V30 1059 C 100.579 4.43436 -5.19474 0
M  V30 1060 O 100.267 4.74649 -6.48817 0
M  V30 1061 H 99.9988 0.611554 -0.288058 0
M  V30 1062 H 102.553 1.48711 -1.41683 0
M  V30 1063 H 100.783 3.84312 -0.429128 0
M  V30 1064 H 102.472 3.97384 -0.827077 0
M  V30 1065 H 103.238 3.57437 -3.27817 0
M  V30 1066 H 99.1168 4.07361 -2.15819 0
M  V30 1067 H 102.661 4.14696 -5.60957 0
M  V30 1068 H 98.5578 4.64667 -4.48056 0
M  V30 1069 H 99.3258 4.9247 -6.5377 0
M  V30 1070 N 101.989 0.842826 1.3317 0
M  V30 1071 C 102.922 0.223862 2.27099 0
M  V30 1072 C 103.9 -0.631311 1.49844 0
M  V30 1073 O 105.084 -0.590708 1.79005 0
M  V30 1074 C 102.211 -0.685313 3.31694 0
M  V30 1075 C 101.257 0.094919 4.26394 0
M  V30 1076 S 102.09 1.45546 5.15341 0
M  V30 1077 C 103.246 0.551685 6.23464 0
M  V30 1078 H 103.479 1.02015 2.79249 0
M  V30 1079 H 101.012 0.639797 1.4052 0
M  V30 1080 H 102.97 -1.20426 3.92438 0
M  V30 1081 H 101.631 -1.4553 2.78352 0
M  V30 1082 H 100.824 -0.597059 5.00451 0
M  V30 1083 H 100.426 0.545054 3.70007 0
M  V30 1084 H 102.718 -0.248877 6.77043 0
M  V30 1085 H 103.661 1.26253 6.96754 0
M  V30 1086 H 104.069 0.131275 5.64347 0
M  V30 1087 N 103.467 -1.45747 0.599634 0
M  V30 1088 C 104.415 -2.322 -0.136426 0
M  V30 1089 C 105.409 -1.45497 -0.867583 0
M  V30 1090 O 106.615 -1.62027 -0.78405 0
M  V30 1091 H 102.99 -0.749368 -0.0628588 0
M  V30 1092 H 104.961 -2.92072 0.611281 0
M  V30 1093 C 103.71 -3.28974 -1.12567 0
M  V30 1094 H 103.033 -3.9568 -0.572484 0
M  V30 1095 H 104.473 -3.92212 -1.61077 0
M  V30 1096 C 102.932 -2.55561 -2.19523 0
M  V30 1097 O 103.462 -2.33111 -3.27143 0
M  V30 1098 N 101.668 -2.15832 -1.94589 0
M  V30 1099 H 101.215 -2.3429 -1.07078 0
M  V30 1100 H 101.173 -1.67034 -2.66359 0
M  V30 1101 N 104.945 -0.338344 -1.53925 0
M  V30 1102 C 106.185 0.260168 -2.02737 0
M  V30 1103 C 106.549 1.48181 -1.22092 0
M  V30 1104 O 107.75 2.15416 -1.60777 0
M  V30 1105 C 106.021 0.571627 -3.52799 0
M  V30 1106 S 107.58 1.14769 -4.23525 0
M  V30 1107 H 104.398 0.077791 -0.706732 0
M  V30 1108 H 107 -0.474899 -1.89644 0
M  V30 1109 H 105.704 -0.325392 -4.09108 0
M  V30 1110 H 105.235 1.3365 -3.70002 0
M  V30 1111 H 107.25 2.43372 -4.32417 0
M  V30 1112 N 106.423 1.57458 -0.0668435 0
M  V30 1113 C 107.651 1.97624 0.612565 0
M  V30 1114 C 108.066 0.94502 1.63447 0
M  V30 1115 O 107.423 -0.0689276 1.8237 0
M  V30 1116 C 107.474 3.37869 1.28555 0
M  V30 1117 O 107.195 4.3704 0.304557 0
M  V30 1118 C 108.696 3.92882 2.05325 0
M  V30 1119 H 105.916 0.650045 0.166381 0
M  V30 1120 H 108.46 2.04035 -0.137782 0
M  V30 1121 H 106.615 3.3256 1.98702 0
M  V30 1122 H 107.029 5.18565 0.786779 0
M  V30 1123 H 108.503 4.93247 2.47812 0
M  V30 1124 H 108.98 3.29156 2.9078 0
M  V30 1125 H 109.586 4.01577 1.40056 0
M  V30 1126 N 107.901 -0.206675 1.56239 0
M  V30 1127 C 109.147 -0.925733 1.81113 0
M  V30 1128 C 109.502 -1.81368 0.642135 0
M  V30 1129 O 108.795 -1.88126 -0.363211 0
M  V30 1130 C 108.989 -1.78675 3.09532 0
M  V30 1131 C 108.818 -0.98365 4.3881 0
M  V30 1132 C 107.588 -0.672661 5.00803 0
M  V30 1133 C 109.786 -0.341847 5.13163 0
M  V30 1134 N 107.768 0.150283 6.13716 0
M  V30 1135 C 109.139 0.343815 6.19046 0
M  V30 1136 C 111.194 -0.256392 4.97239 0
M  V30 1137 C 109.897 1.10678 7.10734 0
M  V30 1138 C 111.923 0.493142 5.8934 0
M  V30 1139 C 111.285 1.16729 6.94661 0
M  V30 1140 H 107.384 -0.318524 0.714189 0
M  V30 1141 H 109.968 -0.195378 1.93717 0
M  V30 1142 H 108.139 -2.4888 2.98183 0
M  V30 1143 H 109.871 -2.44441 3.22538 0
M  V30 1144 H 106.626 -0.994294 4.63045 0
M  V30 1145 H 107.05 0.551026 6.74754 0
M  V30 1146 H 111.692 -0.763249 4.15854 0
M  V30 1147 H 109.41 1.6251 7.91591 0
M  V30 1148 H 112.996 0.560465 5.79094 0
M  V30 1149 H 111.876 1.738 7.64698 0
M  V30 1150 N 109.379 -1.50304 -0.473955 0
M  V30 1151 C 110.327 -1.69482 -1.59307 0
M  V30 1152 C 111.321 -0.560669 -1.59853 0
M  V30 1153 O 112.527 -0.741087 -1.64036 0
M  V30 1154 H 108.902 -0.534892 -0.528578 0
M  V30 1155 H 110.873 -2.63364 -1.40293 0
M  V30 1156 C 109.622 -1.80354 -2.97267 0
M  V30 1157 H 108.945 -2.67012 -2.97564 0
M  V30 1158 H 110.385 -1.97798 -3.75036 0
M  V30 1159 C 108.844 -0.55448 -3.32306 0
M  V30 1160 O 109.374 0.307661 -4.0052 0
M  V30 1161 N 107.58 -0.409354 -2.87702 0
M  V30 1162 H 107.127 -1.11196 -2.32364 0
M  V30 1163 H 107.085 0.425223 -3.11511 0
M  V30 1164 N 110.857 0.726932 -1.39834 0
M  V30 1165 C 112.082 1.52121 -1.40976 0
M  V30 1166 C 112.507 1.88098 -0.00826029 0
M  V30 1167 O 111.865 1.52479 0.980807 0
M  V30 1168 C 111.913 2.78021 -2.29644 0
M  V30 1169 O 111.017 3.74272 -1.73188 0
M  V30 1170 H 110.358 0.45908 -0.479731 0
M  V30 1171 H 112.888 0.896207 -1.83927 0
M  V30 1172 H 112.898 3.26671 -2.44438 0
M  V30 1173 H 111.573 2.51169 -3.31492 0
M  V30 1174 H 110.15 3.33073 -1.6768 0
M  V30 1175 N 112.336 1.25143 0.95797 0
M  V30 1176 C 113.561 1.12521 1.74223 0
M  V30 1177 C 113.986 -0.317402 1.85403 0
M  V30 1178 O 113.344 -1.2299 1.33204 0
M  V30 1179 C 113.392 1.78062 3.1357 0
M  V30 1180 O 112.496 1.058 3.98598 0
M  V30 1181 H 111.837 0.39304 0.535178 0
M  V30 1182 H 114.367 1.65641 1.201 0
M  V30 1183 H 114.377 1.84213 3.64046 0
M  V30 1184 H 113.052 2.83021 3.04749 0
M  V30 1185 H 111.629 1.07506 3.57067 0
M  V30 1186 N 113.814 -1.1601 1.06675 0
M  V30 1187 C 115.039 -1.91068 0.806706 0
M  V30 1188 C 115.464 -1.77112 -0.633485 0
M  V30 1189 O 114.822 -1.09908 -1.44187 0
M  V30 1190 C 114.87 -3.39655 1.21106 0
M  V30 1191 O 113.974 -4.10893 0.352189 0
M  V30 1192 H 113.315 -0.595125 0.294486 0
M  V30 1193 H 115.845 -1.46955 1.42356 0
M  V30 1194 H 115.855 -3.90434 1.18428 0
M  V30 1195 H 114.53 -3.49132 2.26008 0
M  V30 1196 H 113.107 -3.70285 0.440868 0
M  V30 1197 N 115.292 -0.849877 -1.32721 0
M  V30 1198 C 116.202 -0.293791 -2.32753 0
M  V30 1199 C 117.218 0.585906 -1.63839 0
M  V30 1200 O 118.394 0.487413 -1.95413 0
M  V30 1201 C 115.459 0.512752 -3.42887 0
M  V30 1202 C 114.52 -0.39252 -4.27502 0
M  V30 1203 C 113.753 0.375625 -5.32377 0
M  V30 1204 O 113.976 1.60613 -5.4732 0
M  V30 1205 O 112.91 -0.256094 -6.01355 0
M  V30 1206 H 116.736 -1.12242 -2.82197 0
M  V30 1207 H 114.321 -0.612685 -1.36259 0
M  V30 1208 H 116.203 0.970704 -4.10067 0
M  V30 1209 H 114.878 1.31826 -2.95641 0
M  V30 1210 H 113.785 -0.898547 -3.63149 0
M  V30 1211 H 115.118 -1.16309 -4.7826 0
M  V30 1212 N 116.77 1.45427 -0.607355 0
M  V30 1213 C 118.181 1.85756 -0.187535 0
M  V30 1214 C 118.532 1.5077 1.25551 0
M  V30 1215 O 117.657 0.93427 1.95193 0
M  V30 1216 C 118.252 3.37154 -0.333572 0
M  V30 1217 C 116.811 3.76387 0.0315542 0
M  V30 1218 C 115.958 2.69377 -0.658117 0
M  V30 1219 H 118.909 1.36231 -0.81405 0
M  V30 1220 H 118.93 3.78014 0.43428 0
M  V30 1221 H 118.442 3.62586 -1.38393 0
M  V30 1222 H 116.543 3.56571 1.0811 0
M  V30 1223 H 116.656 4.77731 -0.361935 0
M  V30 1224 H 115.02 2.5452 -0.0957873 0
M  V30 1225 H 115.803 2.97646 -1.7106 0
M  V30 1226 N 118.248 0.346503 1.53744 0
M  V30 1227 C 119.18 -0.543316 2.22667 0
M  V30 1228 C 120.193 -1.06159 1.23427 0
M  V30 1229 O 121.382 -0.971235 1.49764 0
M  V30 1230 C 118.482 -1.76076 2.89569 0
M  V30 1231 C 117.655 -1.37727 4.15151 0
M  V30 1232 C 116.714 -2.45471 4.65436 0
M  V30 1233 O 115.74 -2.08655 5.29577 0
M  V30 1234 N 116.942 -3.7677 4.41616 0
M  V30 1235 H 119.707 0.0469703 2.99663 0
M  V30 1236 H 117.268 0.170766 1.60997 0
M  V30 1237 H 119.26 -2.47593 3.20125 0
M  V30 1238 H 117.83 -2.25835 2.16142 0
M  V30 1239 H 117.05 -0.492746 3.91108 0
M  V30 1240 H 118.338 -1.09708 4.96832 0
M  V30 1241 H 117.736 -4.09467 3.90325 0
M  V30 1242 H 116.293 -4.44448 4.7677 0
M  V30 1243 N 119.726 -1.57421 0.075193 0
M  V30 1244 C 121.137 -1.81021 -0.456964 0
M  V30 1245 C 121.488 -0.98936 -1.69429 0
M  V30 1246 O 120.613 -0.212865 -2.15351 0
M  V30 1247 C 121.208 -3.28329 -0.83581 0
M  V30 1248 C 119.767 -3.52764 -1.31281 0
M  V30 1249 C 118.914 -2.75676 -0.299648 0
M  V30 1250 H 121.865 -1.55822 0.300856 0
M  V30 1251 H 121.886 -3.40564 -1.69696 0
M  V30 1252 H 121.398 -3.88046 0.0649238 0
M  V30 1253 H 119.499 -2.98355 -2.23193 0
M  V30 1254 H 119.612 -4.61451 -1.28839 0
M  V30 1255 H 117.976 -2.42538 -0.777641 0
M  V30 1256 H 118.759 -3.38132 0.593417 0
M  V30 1257 N 121.204 0.198386 -1.56346 0
M  V30 1258 C 122.432 0.935572 -1.84539 0
M  V30 1259 C 122.847 1.76989 -0.657281 0
M  V30 1260 O 122.204 1.78626 0.374043 0
M  V30 1261 C 122.255 1.8344 -3.11499 0
M  V30 1262 O 121.976 1.03377 -4.25728 0
M  V30 1263 C 123.477 2.68355 -3.52846 0
M  V30 1264 H 120.697 0.273126 -0.612897 0
M  V30 1265 H 123.241 0.20663 -2.03453 0
M  V30 1266 H 121.396 2.51701 -2.94492 0
M  V30 1267 H 121.81 1.64599 -4.98003 0
M  V30 1268 H 123.284 3.27085 -4.44657 0
M  V30 1269 H 123.761 3.41901 -2.75681 0
M  V30 1270 H 124.367 2.05471 -3.72373 0
M  V30 1271 N 122.682 1.50554 0.465978 0
M  V30 1272 C 123.63 1.70324 1.58406 0
M  V30 1273 C 124.624 0.569139 1.59553 0
M  V30 1274 O 125.83 0.749776 1.63641 0
M  V30 1275 H 122.205 0.537688 0.525734 0
M  V30 1276 H 124.176 2.64104 1.38894 0
M  V30 1277 C 122.925 1.81928 2.96307 0
M  V30 1278 H 122.248 2.68586 2.96144 0
M  V30 1279 H 123.688 1.99784 3.73982 0
M  V30 1280 C 122.147 0.572095 3.32007 0
M  V30 1281 O 122.677 -0.286416 4.00678 0
M  V30 1282 N 120.883 0.424606 2.87481 0
M  V30 1283 H 120.43 1.12427 2.31771 0
M  V30 1284 H 120.388 -0.408697 3.11732 0
M  V30 1285 N 124.16 -0.719506 1.40217 0
M  V30 1286 C 125.09 -1.8465 1.42922 0
M  V30 1287 C 126.071 -1.67599 0.29062 0
M  V30 1288 O 127.256 -1.87688 0.498677 0
M  V30 1289 C 124.386 -3.22565 1.28722 0
M  V30 1290 C 123.34 -3.54281 2.40144 0
M  V30 1291 C 122.666 -4.91298 2.11023 0
M  V30 1292 C 123.966 -3.55676 3.82481 0
M  V30 1293 H 125.66 -1.82644 2.37237 0
M  V30 1294 H 123.206 -0.877305 1.1419 0
M  V30 1295 H 125.159 -4.01095 1.29232 0
M  V30 1296 H 123.883 -3.25137 0.308811 0
M  V30 1297 H 122.542 -2.78088 2.38877 0
M  V30 1298 H 122.19 -4.90468 1.11582 0
M  V30 1299 H 121.89 -5.13485 2.8567 0
M  V30 1300 H 123.414 -5.72166 2.13209 0
M  V30 1301 H 124.828 -4.24254 3.85592 0
M  V30 1302 H 123.225 -3.89388 4.56614 0
M  V30 1303 H 124.295 -2.55144 4.12346 0
M  V30 1304 N 125.638 -1.25649 -0.95132 0
M  V30 1305 C 126.866 -1.13343 -1.73092 0
M  V30 1306 C 127.281 0.312434 -1.86197 0
M  V30 1307 O 126.638 1.21465 -1.36207 0
M  V30 1308 C 126.689 -1.78602 -3.14299 0
M  V30 1309 O 126.41 -3.17537 -3.01831 0
M  V30 1310 C 127.911 -1.72119 -4.08522 0
M  V30 1311 H 125.131 -0.395181 -0.542285 0
M  V30 1312 H 127.675 -1.66076 -1.19328 0
M  V30 1313 H 125.83 -1.29832 -3.64996 0
M  V30 1314 H 126.244 -3.49676 -3.90931 0
M  V30 1315 H 127.718 -2.22435 -5.052 0
M  V30 1316 H 128.195 -0.685635 -4.33815 0
M  V30 1317 H 128.801 -2.20393 -3.63741 0
M  V30 1318 N 127.117 1.15442 -1.07289 0
M  V30 1319 C 128.047 2.22312 -0.714107 0
M  V30 1320 C 129.028 1.67467 0.298155 0
M  V30 1321 O 130.213 1.93445 0.171048 0
M  V30 1322 C 127.343 3.47124 -0.110448 0
M  V30 1323 C 126.297 4.14926 -1.04979 0
M  V30 1324 C 125.623 5.33807 -0.308924 0
M  V30 1325 C 126.923 4.64762 -2.38314 0
M  V30 1326 H 128.617 2.5258 -1.6076 0
M  V30 1327 H 126.163 1.21404 -0.77441 0
M  V30 1328 H 128.116 4.21124 0.152482 0
M  V30 1329 H 126.84 3.16187 0.81812 0
M  V30 1330 H 125.499 3.42866 -1.29764 0
M  V30 1331 H 125.147 4.99126 0.623084 0
M  V30 1332 H 124.847 5.80113 -0.935036 0
M  V30 1333 H 126.371 6.10576 -0.0537771 0
M  V30 1334 H 127.785 5.30292 -2.1786 0
M  V30 1335 H 126.182 5.21728 -2.96514 0
M  V30 1336 H 127.252 3.80434 -3.00663 0
M  V30 1337 N 128.595 0.856903 1.32268 0
M  V30 1338 C 129.545 0.274899 2.26337 0
M  V30 1339 C 130.529 -0.580543 1.50062 0
M  V30 1340 O 131.721 -0.429559 1.71708 0
M  V30 1341 C 128.85 -0.533841 3.39124 0
M  V30 1342 C 127.936 0.334114 4.22782 0
M  V30 1343 N 128.327 1.42143 4.85416 0
M  V30 1344 C 126.625 0.124256 4.45827 0
M  V30 1345 C 127.326 1.95559 5.47843 0
M  V30 1346 N 126.302 1.25444 5.28928 0
M  V30 1347 H 130.104 1.10612 2.72291 0
M  V30 1348 H 127.618 0.703258 1.46383 0
M  V30 1349 H 129.615 -0.96722 4.05525 0
M  V30 1350 H 128.275 -1.36283 2.94715 0
M  V30 1351 H 129.286 1.80436 4.85451 0
M  V30 1352 H 125.963 -0.669837 4.12092 0
M  V30 1353 H 127.353 2.86714 6.07655 0
M  V30 1354 N 130.073 -1.45103 0.615059 0
M  V30 1355 C 131.303 -2.06254 0.119596 0
M  V30 1356 C 131.711 -1.4591 -1.20445 0
M  V30 1357 O 131.054 -0.570384 -1.7462 0
M  V30 1358 C 131.116 -3.59396 -0.0865591 0
M  V30 1359 C 130.78 -4.42116 1.15683 0
M  V30 1360 C 131.777 -4.7662 2.07676 0
M  V30 1361 C 129.462 -4.82749 1.38775 0
M  V30 1362 C 131.456 -5.50622 3.21082 0
M  V30 1363 C 129.143 -5.56504 2.52481 0
M  V30 1364 C 130.141 -5.90358 3.43463 0
M  V30 1365 O 129.829 -6.62615 4.55189 0
M  V30 1366 H 129.561 -0.672423 0.0694512 0
M  V30 1367 H 132.115 -1.87219 0.844885 0
M  V30 1368 H 130.345 -3.76859 -0.866823 0
M  V30 1369 H 132.034 -4.02365 -0.534555 0
M  V30 1370 H 132.8 -4.4578 1.91063 0
M  V30 1371 H 128.679 -4.55829 0.688545 0
M  V30 1372 H 132.223 -5.76965 3.92119 0
M  V30 1373 H 128.12 -5.86759 2.69043 0
M  V30 1374 H 128.888 -6.81071 4.53966 0
M  V30 1375 N 131.551 -0.354651 -1.53558 0
M  V30 1376 C 132.797 0.231422 -2.02079 0
M  V30 1377 C 133.152 1.47308 -1.23767 0
M  V30 1378 O 132.445 1.8891 -0.319947 0
M  V30 1379 C 132.639 0.587121 -3.52545 0
M  V30 1380 C 132.468 -0.618513 -4.45426 0
M  V30 1381 C 131.238 -1.12724 -4.92566 0
M  V30 1382 C 133.436 -1.48039 -4.92533 0
M  V30 1383 N 131.418 -2.29404 -5.69427 0
M  V30 1384 C 132.789 -2.49397 -5.67628 0
M  V30 1385 C 134.844 -1.50454 -4.74624 0
M  V30 1386 C 133.547 -3.53013 -6.26717 0
M  V30 1387 C 135.573 -2.52958 -5.34571 0
M  V30 1388 C 134.935 -3.5304 -6.09543 0
M  V30 1389 H 131.034 0.0476909 -0.780544 0
M  V30 1390 H 133.618 -0.496727 -1.88257 0
M  V30 1391 H 131.789 1.28436 -3.6655 0
M  V30 1392 H 133.521 1.15734 -3.87799 0
M  V30 1393 H 130.276 -0.693577 -4.68494 0
M  V30 1394 H 130.7 -2.88347 -6.12524 0
M  V30 1395 H 135.342 -0.744356 -4.16196 0
M  V30 1396 H 133.06 -4.2992 -6.84247 0
M  V30 1397 H 136.646 -2.55667 -5.22614 0
M  V30 1398 H 135.526 -4.31056 -6.55103 0
M  V30 1399 N 133.029 1.57378 -0.0835403 0
M  V30 1400 C 134.259 1.97975 0.590713 0
M  V30 1401 C 134.667 0.961083 1.62972 0
M  V30 1402 O 134.01 -0.0590879 1.83605 0
M  V30 1403 C 134.072 3.34915 1.3066 0
M  V30 1404 C 133.736 4.55069 0.419698 0
M  V30 1405 C 134.733 5.18868 -0.32749 0
M  V30 1406 C 132.418 5.0114 0.341137 0
M  V30 1407 C 134.412 6.27098 -1.14134 0
M  V30 1408 C 132.099 6.0924 -0.476374 0
M  V30 1409 C 133.097 6.72083 -1.21627 0
M  V30 1410 O 132.785 7.781 -2.02028 0
M  V30 1411 H 132.517 0.655818 0.163947 0
M  V30 1412 H 135.071 2.04807 -0.156021 0
M  V30 1413 H 133.301 3.24733 2.09966 0
M  V30 1414 H 134.99 3.60037 1.87424 0
M  V30 1415 H 135.756 4.84211 -0.276459 0
M  V30 1416 H 131.635 4.51996 0.90668 0
M  V30 1417 H 135.179 6.7608 -1.71935 0
M  V30 1418 H 131.076 6.43329 -0.528927 0
M  V30 1419 H 131.844 7.95034 -1.94586 0
M  V30 1420 N 134.507 -0.190092 1.56449 0
M  V30 1421 C 135.454 -1.23557 1.94942 0
M  V30 1422 C 136.424 -1.44972 0.810696 0
M  V30 1423 O 137.609 -1.58023 1.06927 0
M  V30 1424 C 134.749 -2.57416 2.2985 0
M  V30 1425 C 133.862 -2.43537 3.5681 0
M  V30 1426 C 132.997 -3.70134 3.81017 0
M  V30 1427 C 132.036 -3.51109 5.01387 0
M  V30 1428 N 131.173 -4.6973 5.21822 0
M  V30 1429 H 136.013 -0.900304 2.84075 0
M  V30 1430 H 133.55 -0.43318 1.40577 0
M  V30 1431 H 135.508 -3.35409 2.48106 0
M  V30 1432 H 134.138 -2.88975 1.43852 0
M  V30 1433 H 133.19 -1.56816 3.46573 0
M  V30 1434 H 134.502 -2.25415 4.4496 0
M  V30 1435 H 133.656 -4.56566 3.9954 0
M  V30 1436 H 132.395 -3.91215 2.91207 0
M  V30 1437 H 131.4 -2.63063 4.82782 0
M  V30 1438 H 132.625 -3.31468 5.9271 0
M  V30 1439 H 130.571 -4.91065 4.34961 0
M  V30 1440 H 130.488 -4.54452 6.0416 0
M  V30 1441 H 131.756 -5.57499 5.44808 0
M  V30 1442 N 135.985 -1.50799 -0.457987 0
M  V30 1443 C 136.933 -1.71162 -1.575 0
M  V30 1444 C 137.927 -0.577592 -1.59249 0
M  V30 1445 O 139.133 -0.758443 -1.63241 0
M  V30 1446 H 135.508 -0.540468 -0.522875 0
M  V30 1447 H 137.479 -2.64837 -1.37492 0
M  V30 1448 C 136.228 -1.83496 -2.95338 0
M  V30 1449 H 135.551 -2.70153 -2.94716 0
M  V30 1450 H 136.991 -2.01765 -3.72917 0
M  V30 1451 C 135.45 -0.589694 -3.31699 0
M  V30 1452 O 135.98 0.265163 -4.00824 0
M  V30 1453 N 134.186 -0.439845 -2.87252 0
M  V30 1454 H 133.733 -1.13655 -2.31172 0
M  V30 1455 H 133.691 0.392159 -3.11945 0
M  V30 1456 N 137.463 0.71206 -1.40597 0
M  V30 1457 C 138.688 1.50617 -1.42581 0
M  V30 1458 C 139.113 1.88079 -0.0282102 0
M  V30 1459 O 138.471 1.53511 0.964579 0
M  V30 1460 C 138.519 2.7557 -2.3258 0
M  V30 1461 O 137.623 3.72414 -1.77148 0
M  V30 1462 H 136.964 0.453966 -0.484573 0
M  V30 1463 H 139.494 0.876649 -1.84868 0
M  V30 1464 H 139.504 3.2406 -2.47889 0
M  V30 1465 H 138.179 2.47639 -3.34138 0
M  V30 1466 H 136.756 3.31276 -1.71204 0
M  V30 1467 N 138.941 1.26152 0.944643 0
M  V30 1468 C 140.218 1.02247 1.66748 0
M  V30 1469 C 140.598 -0.448202 2.06287 0
M  V30 1470 O 139.946 -1.42779 1.78399 0
M  V30 1471 C 140.156 1.96788 2.88228 0
M  V30 1472 C 141.504 2.25201 3.59958 0
M  V30 1473 O 142.528 1.94626 2.98327 0
M  V30 1474 O 141.387 2.77242 4.70956 0
M  V30 1475 H 138.481 0.388517 0.730057 0
M  V30 1476 H 141.027 1.37348 0.99668 0
M  V30 1477 H 139.799 2.96047 2.55875 0
M  V30 1478 H 139.422 1.62145 3.63035 0
M  V30 1479 N 140.419 -1.14872 1.07899 0
M  V30 1480 C 141.367 -2.21857 0.698727 0
M  V30 1481 C 142.361 -1.66845 -0.293086 0
M  V30 1482 O 143.567 -1.79321 -0.156204 0
M  V30 1483 H 139.942 -0.722691 0.207899 0
M  V30 1484 H 141.913 -2.51205 1.61054 0
M  V30 1485 C 140.662 -3.47498 0.11858 0
M  V30 1486 H 139.985 -3.90154 0.872914 0
M  V30 1487 H 141.425 -4.23858 -0.109759 0
M  V30 1488 C 139.884 -3.16947 -1.1422 0
M  V30 1489 O 140.414 -3.3426 -2.22785 0
M  V30 1490 N 138.62 -2.70946 -1.05055 0
M  V30 1491 H 138.167 -2.57058 -0.167038 0
M  V30 1492 H 138.125 -2.50879 -1.89491 0
M  V30 1493 N 141.898 -0.863906 -1.31812 0
M  V30 1494 C 143.175 -0.39275 -1.91616 0
M  V30 1495 C 143.555 1.12461 -1.7865 0
M  V30 1496 O 142.903 1.95045 -1.19037 0
M  V30 1497 C 143.113 -0.867385 -3.38049 0
M  V30 1498 C 144.461 -0.889966 -4.15168 0
M  V30 1499 O 145.485 -0.812635 -3.46806 0
M  V30 1500 O 144.344 -1.00079 -5.37258 0
M  V30 1501 H 141.438 -0.116358 -0.818773 0
M  V30 1502 H 143.984 -0.951418 -1.40521 0
M  V30 1503 H 142.756 -1.91081 -3.41473 0
M  V30 1504 H 142.379 -0.286687 -3.96565 0
M  V30 1505 N 143.376 1.44774 -0.622745 0
M  V30 1506 C 144.323 2.30635 0.0871679 0
M  V30 1507 C 145.293 1.42994 0.845097 0
M  V30 1508 O 146.478 1.71907 0.827812 0
M  V30 1509 C 143.618 3.28144 1.06844 0
M  V30 1510 C 142.731 4.30888 0.309809 0
M  V30 1511 C 141.866 5.15494 1.28215 0
M  V30 1512 C 140.905 6.09953 0.512198 0
M  V30 1513 N 140.042 6.87287 1.43458 0
M  V30 1514 H 144.882 2.90803 -0.650974 0
M  V30 1515 H 142.419 1.43286 -0.33281 0
M  V30 1516 H 144.377 3.83157 1.65066 0
M  V30 1517 H 143.007 2.69695 1.77382 0
M  V30 1518 H 142.059 3.78414 -0.388181 0
M  V30 1519 H 143.371 4.97955 -0.290254 0
M  V30 1520 H 142.525 5.74983 1.93596 0
M  V30 1521 H 141.264 4.48481 1.91614 0
M  V30 1522 H 140.269 5.49581 -0.155151 0
M  V30 1523 H 141.494 6.78999 -0.116958 0
M  V30 1524 H 139.44 6.2295 2.05594 0
M  V30 1525 H 139.357 7.50763 0.888335 0
M  V30 1526 H 140.625 7.51306 2.07749 0
M  V30 1527 N 144.854 0.36279 1.53368 0
M  V30 1528 C 146.1 -0.228113 2.01513 0
M  V30 1529 C 146.433 -1.48648 1.2497 0
M  V30 1530 O 145.708 -1.91459 0.342616 0
M  V30 1531 C 145.991 -0.522884 3.56284 0
M  V30 1532 C 145.844 0.74892 4.43521 0
M  V30 1533 C 147.163 -1.32461 4.19693 0
M  V30 1534 H 144.282 -0.0814343 0.732487 0
M  V30 1535 H 146.924 0.48713 1.83649 0
M  V30 1536 H 145.074 -1.1322 3.71636 0
M  V30 1537 H 146.746 1.38648 4.39971 0
M  V30 1538 H 144.989 1.36986 4.11603 0
M  V30 1539 H 145.66 0.497667 5.49752 0
M  V30 1540 H 148.136 -0.809203 4.08156 0
M  V30 1541 H 147.012 -1.49961 5.28018 0
M  V30 1542 H 147.273 -2.33232 3.75573 0
M  V30 1543 N 146.332 -1.57332 0.0918853 0
M  V30 1544 C 147.264 -2.10869 -0.898168 0
M  V30 1545 C 148.277 -1.04521 -1.24817 0
M  V30 1546 O 149.466 -1.31977 -1.20184 0
M  V30 1547 C 146.566 -2.57083 -2.2082 0
M  V30 1548 C 145.739 -3.87229 -2.03402 0
M  V30 1549 C 144.798 -4.19324 -3.17889 0
M  V30 1550 O 143.824 -4.88598 -2.91994 0
M  V30 1551 N 145.026 -3.74471 -4.43567 0
M  V30 1552 H 147.791 -2.96439 -0.440943 0
M  V30 1553 H 145.352 -1.61631 -0.0933064 0
M  V30 1554 H 147.344 -2.75602 -2.96354 0
M  V30 1555 H 145.914 -1.76541 -2.57977 0
M  V30 1556 H 145.134 -3.7789 -1.12218 0
M  V30 1557 H 146.422 -4.72379 -1.89038 0
M  V30 1558 H 145.82 -3.18546 -4.67488 0
M  V30 1559 H 144.377 -3.98151 -5.16061 0
M  V30 1560 N 147.81 0.181792 -1.56548 0
M  V30 1561 C 148.757 1.22521 -1.95595 0
M  V30 1562 C 149.727 1.4454 -0.818373 0
M  V30 1563 O 150.912 1.57454 -1.07763 0
M  V30 1564 C 148.052 2.56193 -2.31212 0
M  V30 1565 C 147.165 2.41641 -3.58097 0
M  V30 1566 C 146.3 3.68108 -3.82975 0
M  V30 1567 C 145.339 3.48445 -5.03242 0
M  V30 1568 N 144.476 4.66956 -5.24306 0
M  V30 1569 H 149.316 0.885226 -2.84548 0
M  V30 1570 H 146.853 0.425718 -1.40805 0
M  V30 1571 H 148.811 3.34088 -2.49882 0
M  V30 1572 H 147.441 2.88208 -1.45382 0
M  V30 1573 H 146.493 1.54976 -3.474 0
M  V30 1574 H 147.805 2.23052 -4.46149 0
M  V30 1575 H 146.959 4.54441 -4.01956 0
M  V30 1576 H 145.698 3.89666 -2.93278 0
M  V30 1577 H 144.703 2.60499 -4.8417 0
M  V30 1578 H 145.928 3.2832 -5.9446 0
M  V30 1579 H 143.874 4.88752 -4.37559 0
M  V30 1580 H 143.791 4.51242 -6.06561 0
M  V30 1581 H 145.059 5.54602 -5.47756 0
M  V30 1582 N 149.288 1.51039 0.449983 0
M  V30 1583 C 150.528 1.64732 1.21007 0
M  V30 1584 C 150.892 0.349865 1.88785 0
M  V30 1585 O 152.093 0.362431 2.66345 0
M  V30 1586 C 150.364 2.80902 2.20973 0
M  V30 1587 S 151.923 3.14851 3.05638 0
M  V30 1588 H 148.741 0.5805 0.410538 0
M  V30 1589 H 151.343 1.88901 0.503634 0
M  V30 1590 H 150.047 3.73627 1.69796 0
M  V30 1591 H 149.578 2.58882 2.96215 0
M  V30 1592 H 151.593 2.60306 4.22439 0
M  V30 1593 N 150.766 -0.704594 1.40972 0
M  V30 1594 C 151.991 -1.49858 1.43378 0
M  V30 1595 C 152.416 -1.88061 0.038184 0
M  V30 1596 O 151.774 -1.5402 -0.956425 0
M  V30 1597 C 151.822 -2.74333 2.34038 0
M  V30 1598 O 150.926 -3.7147 1.7912 0
M  V30 1599 H 150.267 -0.45139 0.486974 0
M  V30 1600 H 152.797 -0.866832 1.8533 0
M  V30 1601 H 152.807 -3.22741 2.49604 0
M  V30 1602 H 151.482 -2.45863 3.35446 0
M  V30 1603 H 150.059 -3.30363 1.72958 0
M  V30 1604 N 152.244 -1.26651 -0.937939 0
M  V30 1605 C 153.194 -1.05156 -2.02302 0
M  V30 1606 C 154.178 0.0171233 -1.60891 0
M  V30 1607 O 155.37 -0.200213 -1.75864 0
M  V30 1608 C 152.499 -0.689962 -3.36295 0
M  V30 1609 C 151.585 -1.79626 -3.84181 0
M  V30 1610 N 151.976 -3.03422 -4.04684 0
M  V30 1611 C 150.274 -1.6806 -4.13124 0
M  V30 1612 C 150.975 -3.75345 -4.444 0
M  V30 1613 N 149.951 -3.03051 -4.51288 0
M  V30 1614 H 153.753 -1.99117 -2.1617 0
M  V30 1615 H 151.267 -1.17216 -1.12402 0
M  V30 1616 H 153.264 -0.517112 -4.13681 0
M  V30 1617 H 151.924 0.242139 -3.23796 0
M  V30 1618 H 152.935 -3.39293 -3.91281 0
M  V30 1619 H 149.612 -0.818629 -4.09396 0
M  V30 1620 H 151.002 -4.81691 -4.68427 0
M  V30 1621 N 153.722 1.14298 -1.08507 0
M  V30 1622 C 154.952 1.88945 -0.835663 0
M  V30 1623 C 155.36 1.78894 0.615928 0
M  V30 1624 O 154.703 1.1468 1.43506 0
M  V30 1625 C 154.765 3.39585 -1.17994 0
M  V30 1626 C 154.429 3.7342 -2.63451 0
M  V30 1627 C 155.426 3.73454 -3.61702 0
M  V30 1628 C 153.111 4.03368 -2.99332 0
M  V30 1629 C 155.105 4.02961 -4.93864 0
M  V30 1630 C 152.792 4.32538 -4.31687 0
M  V30 1631 C 153.79 4.32318 -5.28763 0
M  V30 1632 O 153.478 4.6078 -6.58739 0
M  V30 1633 H 153.21 0.605307 -0.300965 0
M  V30 1634 H 155.764 1.45673 -1.44806 0
M  V30 1635 H 153.994 3.83315 -0.51055 0
M  V30 1636 H 155.683 3.9554 -0.911182 0
M  V30 1637 H 156.449 3.50403 -3.35325 0
M  V30 1638 H 152.328 4.02692 -2.24411 0
M  V30 1639 H 155.872 4.02704 -5.69627 0
M  V30 1640 H 151.769 4.55059 -4.57812 0
M  V30 1641 H 152.537 4.78492 -6.64069 0
M  V30 1642 N 155.201 0.870884 1.31352 0
M  V30 1643 C 156.131 0.343096 2.30966 0
M  V30 1644 C 157.112 -0.566507 1.60389 0
M  V30 1645 O 158.297 -0.483336 1.88089 0
M  V30 1646 C 155.427 -0.455487 3.443 0
M  V30 1647 C 154.381 0.361103 4.26474 0
M  V30 1648 C 153.707 -0.563221 5.31725 0
M  V30 1649 C 155.007 1.59566 4.97329 0
M  V30 1650 H 156.701 1.17548 2.75359 0
M  V30 1651 H 154.247 0.566686 1.32381 0
M  V30 1652 H 156.2 -0.83525 4.13039 0
M  V30 1653 H 154.924 -1.32139 2.98675 0
M  V30 1654 H 153.583 0.722825 3.59403 0
M  V30 1655 H 153.231 -1.42643 4.82351 0
M  V30 1656 H 152.931 -0.0207409 5.87596 0
M  V30 1657 H 154.455 -0.939808 6.03324 0
M  V30 1658 H 155.869 1.28728 5.58661 0
M  V30 1659 H 154.266 2.07728 5.63 0
M  V30 1660 H 155.336 2.34798 4.24262 0
M  V30 1661 N 156.679 -1.44442 0.630414 0
M  V30 1662 C 157.926 -2.02052 0.134617 0
M  V30 1663 C 158.254 -1.49576 -1.24327 0
M  V30 1664 O 157.509 -0.669806 -1.83881 0
M  V30 1665 C 157.808 -3.57332 0.0697835 0
M  V30 1666 C 157.474 -4.29058 1.38635 0
M  V30 1667 C 156.136 -4.4837 1.74694 0
M  V30 1668 C 158.488 -4.69872 2.25543 0
M  V30 1669 C 155.816 -5.05756 2.97369 0
M  V30 1670 C 158.168 -5.28616 3.47487 0
M  V30 1671 C 156.832 -5.46147 3.8377 0
M  V30 1672 H 156.102 -0.739361 0.0492598 0
M  V30 1673 H 158.749 -1.73217 0.816586 0
M  V30 1674 H 157.054 -3.85577 -0.695553 0
M  V30 1675 H 158.751 -3.99637 -0.330344 0
M  V30 1676 H 155.341 -4.14357 1.09574 0
M  V30 1677 H 159.525 -4.54666 1.98979 0
M  V30 1678 H 154.781 -5.17515 3.25558 0
M  V30 1679 H 158.955 -5.59192 4.15063 0
M  V30 1680 H 156.582 -5.9038 4.7891 0
M  V30 1681 N 158.157 -0.370918 -1.53173 0
M  V30 1682 C 159.382 0.220293 -2.06227 0
M  V30 1683 C 159.807 1.41243 -1.24225 0
M  V30 1684 O 159.165 1.79387 -0.262645 0
M  V30 1685 C 159.213 0.586663 -3.55796 0
M  V30 1686 O 158.317 1.68317 -3.76488 0
M  V30 1687 H 157.658 0.0308099 -0.663285 0
M  V30 1688 H 160.188 -0.533068 -1.97534 0
M  V30 1689 H 160.198 0.85617 -3.98916 0
M  V30 1690 H 158.873 -0.285013 -4.14922 0
M  V30 1691 H 157.45 1.40881 -3.45264 0
M  V30 1692 N 159.635 1.57281 -0.100228 0
M  V30 1693 C 160.545 2.17833 0.870965 0
M  V30 1694 C 161.561 1.14921 1.30649 0
M  V30 1695 O 162.737 1.47313 1.37335 0
M  V30 1696 C 159.802 2.75085 2.1102 0
M  V30 1697 C 158.863 3.9297 1.72838 0
M  V30 1698 C 158.096 4.47482 2.90854 0
M  V30 1699 O 158.319 4.00922 4.05731 0
M  V30 1700 O 157.253 5.38433 2.69023 0
M  V30 1701 H 161.079 3.0124 0.38575 0
M  V30 1702 H 158.664 1.48881 0.124397 0
M  V30 1703 H 160.546 3.11656 2.83634 0
M  V30 1704 H 159.221 1.94721 2.58584 0
M  V30 1705 H 158.128 3.61201 0.973883 0
M  V30 1706 H 159.461 4.74713 1.30033 0
M  V30 1707 N 161.113 -0.173488 1.56642 0
M  V30 1708 C 162.023 -1.23482 1.99473 0
M  V30 1709 C 163.039 -1.48567 0.905752 0
M  V30 1710 O 164.215 -1.60758 1.21321 0
M  V30 1711 C 161.28 -2.55444 2.34413 0
M  V30 1712 C 160.341 -2.38241 3.57127 0
M  V30 1713 C 159.574 -3.63909 3.90392 0
M  V30 1714 O 159.797 -4.68996 3.24653 0
M  V30 1715 O 158.731 -3.58149 4.83749 0
M  V30 1716 H 162.557 -0.901279 2.90018 0
M  V30 1717 H 160.142 -0.380185 1.44482 0
M  V30 1718 H 162.024 -3.33292 2.57865 0
M  V30 1719 H 160.699 -2.88382 1.4703 0
M  V30 1720 H 159.606 -1.58431 3.38896 0
M  V30 1721 H 160.939 -2.10228 4.45045 0
M  V30 1722 N 162.591 -1.51276 -0.441967 0
M  V30 1723 C 163.84 -1.6295 -1.18871 0
M  V30 1724 C 164.153 -0.349312 -1.92456 0
M  V30 1725 O 165.359 -0.345355 -2.69295 0
M  V30 1726 C 163.815 -2.87759 -2.16155 0
M  V30 1727 C 163.423 -4.22764 -1.48239 0
M  V30 1728 C 165.167 -3.08788 -2.91291 0
M  V30 1729 C 163.074 -5.38728 -2.4398 0
M  V30 1730 H 162.004 -0.606913 -0.447406 0
M  V30 1731 H 164.655 -1.77739 -0.456205 0
M  V30 1732 H 163.037 -2.66593 -2.92821 0
M  V30 1733 H 164.211 -4.54293 -0.771635 0
M  V30 1734 H 162.526 -4.07575 -0.852741 0
M  V30 1735 H 165.123 -3.92599 -3.63002 0
M  V30 1736 H 165.466 -2.21679 -3.5237 0
M  V30 1737 H 165.999 -3.30272 -2.21733 0
M  V30 1738 H 162.738 -6.28082 -1.87598 0
M  V30 1739 H 162.258 -5.1158 -3.13123 0
M  V30 1740 H 163.937 -5.70489 -3.05207 0
M  V30 1741 N 164.069 0.697108 -1.41344 0
M  V30 1742 C 165.297 1.48593 -1.43972 0
M  V30 1743 C 165.712 1.88747 -0.0445612 0
M  V30 1744 O 165.069 1.56682 0.935785 0
M  V30 1745 C 165.12 2.74946 -2.34706 0
M  V30 1746 O 164.841 2.36484 -3.68791 0
M  V30 1747 C 166.342 3.687 -2.46121 0
M  V30 1748 H 163.562 0.457964 -0.490418 0
M  V30 1749 H 166.106 0.858429 -1.8561 0
M  V30 1750 H 164.261 3.33937 -1.9638 0
M  V30 1751 H 164.675 3.17918 -4.17167 0
M  V30 1752 H 166.149 4.54145 -3.13777 0
M  V30 1753 H 166.626 4.13081 -1.49199 0
M  V30 1754 H 167.232 3.15613 -2.85076 0
M  V30 1755 N 165.547 1.27147 0.931209 0
M  V30 1756 C 166.772 1.16191 1.71797 0
M  V30 1757 C 167.197 -0.278004 1.86034 0
M  V30 1758 O 166.555 -1.20137 1.35782 0
M  V30 1759 C 166.603 1.84673 3.09723 0
M  V30 1760 O 165.707 1.14231 3.96264 0
M  V30 1761 H 165.048 0.404303 0.526721 0
M  V30 1762 H 167.578 1.68152 1.1656 0
M  V30 1763 H 167.588 1.91893 3.60057 0
M  V30 1764 H 166.263 2.89421 2.98677 0
M  V30 1765 H 164.84 1.15056 3.54706 0
M  V30 1766 N 167.025 -1.13721 1.09112 0
M  V30 1767 C 168.273 -1.84559 0.823562 0
M  V30 1768 C 168.594 -1.83754 -0.652658 0
M  V30 1769 O 167.864 -1.29102 -1.47342 0
M  V30 1770 H 166.444 -0.683376 0.301673 0
M  V30 1771 H 169.106 -1.37771 1.37859 0
M  V30 1772 H 168.202 -2.8917 1.17419 0
M  V30 1773 N 168.503 -0.877838 -1.30888 0
M  V30 1774 C 169.743 -0.499301 -1.98208 0
M  V30 1775 C 170.107 0.932649 -1.67826 0
M  V30 1776 O 171.308 1.41694 -2.28421 0
M  V30 1777 C 169.579 -0.758221 -3.49265 0
M  V30 1778 S 171.138 -0.480719 -4.36159 0
M  V30 1779 H 167.956 -0.186062 -0.686223 0
M  V30 1780 H 170.558 -1.13556 -1.59139 0
M  V30 1781 H 169.262 -1.79903 -3.68867 0
M  V30 1782 H 168.793 -0.109247 -3.93248 0
M  V30 1783 H 170.808 0.683698 -4.91467 0
M  V30 1784 N 169.982 1.44106 -0.638065 0
M  V30 1785 C 170.914 2.28976 0.101205 0
M  V30 1786 C 171.927 1.4167 0.802088 0
M  V30 1787 O 173.116 1.65755 0.662375 0
M  V30 1788 C 170.216 3.18217 1.16581 0
M  V30 1789 C 169.389 4.33978 0.546066 0
M  V30 1790 C 168.448 5.04202 1.50554 0
M  V30 1791 O 167.474 5.59986 1.01999 0
M  V30 1792 N 168.676 5.06296 2.8398 0
M  V30 1793 H 171.441 2.93064 -0.627186 0
M  V30 1794 H 169.002 1.54629 -0.479731 0
M  V30 1795 H 170.994 3.62061 1.80815 0
M  V30 1796 H 169.564 2.55833 1.79634 0
M  V30 1797 H 168.784 3.93239 -0.275046 0
M  V30 1798 H 170.072 5.08675 0.112793 0
M  V30 1799 H 169.47 4.62319 3.26002 0
M  V30 1800 H 168.027 5.53907 3.43556 0
M  V30 1801 N 171.46 0.379036 1.52974 0
M  V30 1802 C 172.39 -0.452706 2.29069 0
M  V30 1803 C 173.371 -1.07237 1.32039 0
M  V30 1804 O 174.556 -1.08708 1.60923 0
M  V30 1805 C 171.686 -1.5856 3.08992 0
M  V30 1806 C 170.64 -1.0925 4.13822 0
M  V30 1807 C 169.966 -2.31668 4.81907 0
M  V30 1808 C 171.266 -0.167702 5.22031 0
M  V30 1809 H 172.96 0.182181 2.98845 0
M  V30 1810 H 170.506 0.0890592 1.43724 0
M  V30 1811 H 172.459 -2.1742 3.6098 0
M  V30 1812 H 171.183 -2.24792 2.36931 0
M  V30 1813 H 169.842 -0.526494 3.628 0
M  V30 1814 H 169.49 -2.96386 4.06404 0
M  V30 1815 H 169.19 -1.9934 5.52754 0
M  V30 1816 H 170.714 -2.91189 5.36695 0
M  V30 1817 H 172.128 -0.664186 5.6944 0
M  V30 1818 H 170.525 0.0653265 6.00064 0
M  V30 1819 H 171.595 0.786347 4.78482 0
M  V30 1820 N 172.938 -1.57226 0.108567 0
M  V30 1821 C 173.87 -2.11809 -0.875752 0
M  V30 1822 C 174.883 -1.05839 -1.23701 0
M  V30 1823 O 176.072 -1.33245 -1.18778 0
M  V30 1824 C 173.172 -2.59411 -2.18081 0
M  V30 1825 C 172.345 -3.89364 -1.99284 0
M  V30 1826 C 171.404 -4.22672 -3.13424 0
M  V30 1827 O 170.43 -4.91668 -2.86795 0
M  V30 1828 N 171.632 -3.79154 -4.3957 0
M  V30 1829 H 174.397 -2.9689 -0.409477 0
M  V30 1830 H 171.958 -1.61721 -0.076158 0
M  V30 1831 H 173.95 -2.7873 -2.93414 0
M  V30 1832 H 172.52 -1.79268 -2.5609 0
M  V30 1833 H 171.74 -3.79059 -1.08203 0
M  V30 1834 H 173.028 -4.74358 -1.84017 0
M  V30 1835 H 172.426 -3.23486 -4.64083 0
M  V30 1836 H 170.983 -4.03602 -5.11809 0
M  V30 1837 N 174.416 0.165178 -1.56732 0
M  V30 1838 C 175.363 1.2044 -1.96883 0
M  V30 1839 C 176.333 1.43664 -0.833657 0
M  V30 1840 O 177.518 1.56302 -1.09427 0
M  V30 1841 C 174.658 2.53727 -2.33916 0
M  V30 1842 C 173.771 2.3783 -3.6064 0
M  V30 1843 C 172.906 3.64026 -3.86857 0
M  V30 1844 C 171.945 3.43088 -5.06909 0
M  V30 1845 N 171.082 4.61369 -5.29229 0
M  V30 1846 H 175.922 0.854996 -2.85471 0
M  V30 1847 H 173.459 0.41076 -1.41249 0
M  V30 1848 H 175.417 3.31419 -2.53411 0
M  V30 1849 H 174.047 2.8665 -1.48431 0
M  V30 1850 H 173.099 1.51282 -3.49024 0
M  V30 1851 H 174.411 2.18308 -4.4849 0
M  V30 1852 H 173.565 4.50152 -4.06753 0
M  V30 1853 H 172.304 3.86533 -2.97394 0
M  V30 1854 H 171.309 2.55349 -4.86906 0
M  V30 1855 H 172.534 3.21997 -5.97909 0
M  V30 1856 H 170.48 4.84084 -4.42718 0
M  V30 1857 H 170.397 4.44783 -6.11313 0
M  V30 1858 H 171.665 5.48761 -5.53608 0
M  V30 1859 N 175.894 1.51508 0.433938 0
M  V30 1860 C 176.841 1.73068 1.52696 0
M  V30 1861 C 177.811 0.572441 1.55924 0
M  V30 1862 O 178.996 0.807253 1.72882 0
M  V30 1863 C 176.136 1.86474 2.90381 0
M  V30 1864 C 175.249 3.14037 2.96656 0
M  V30 1865 C 174.384 3.18019 4.25485 0
M  V30 1866 C 173.423 4.39882 4.2564 0
M  V30 1867 N 172.56 4.41394 5.45999 0
M  V30 1868 H 177.4 2.66366 1.33615 0
M  V30 1869 H 174.937 1.32008 0.649018 0
M  V30 1870 H 176.895 1.92229 3.70275 0
M  V30 1871 H 175.525 0.965809 3.08013 0
M  V30 1872 H 174.577 3.17575 2.09404 0
M  V30 1873 H 175.889 4.0394 2.92633 0
M  V30 1874 H 175.043 3.22708 5.13755 0
M  V30 1875 H 173.782 2.2601 4.3217 0
M  V30 1876 H 172.787 4.35366 3.35763 0
M  V30 1877 H 174.012 5.33159 4.20617 0
M  V30 1878 H 171.958 3.52258 5.53399 0
M  V30 1879 H 171.875 5.25111 5.4387 0
M  V30 1880 H 173.143 4.50281 6.36292 0
M  V30 1881 N 177.372 -0.689602 1.41712 0
M  V30 1882 C 178.282 -1.83314 1.46401 0
M  V30 1883 C 179.298 -1.7036 0.35405 0
M  V30 1884 O 180.474 -1.92171 0.602692 0
M  V30 1885 C 177.539 -3.19344 1.34982 0
M  V30 1886 C 176.6 -3.44363 2.56344 0
M  V30 1887 C 175.833 -4.73904 2.45461 0
M  V30 1888 O 176.056 -5.508 1.48241 0
M  V30 1889 O 174.99 -4.99839 3.35328 0
M  V30 1890 H 178.816 -1.82314 2.42889 0
M  V30 1891 H 176.401 -0.843438 1.23315 0
M  V30 1892 H 178.283 -4.00547 1.3092 0
M  V30 1893 H 176.958 -3.21014 0.41612 0
M  V30 1894 H 175.865 -2.63067 2.65982 0
M  V30 1895 H 177.198 -3.47512 3.48563 0
M  V30 1896 N 178.85 -1.27639 -0.924453 0
M  V30 1897 C 180.099 -1.13549 -1.66702 0
M  V30 1898 C 180.412 0.317487 -1.93006 0
M  V30 1899 O 181.618 0.579333 -2.65247 0
M  V30 1900 C 180.074 -1.98426 -3.00259 0
M  V30 1901 C 179.682 -3.484 -2.81641 0
M  V30 1902 C 181.426 -1.92993 -3.78092 0
M  V30 1903 C 179.333 -4.25464 -4.10773 0
M  V30 1904 H 178.263 -0.421351 -0.625283 0
M  V30 1905 H 180.914 -1.52085 -1.02676 0
M  V30 1906 H 179.296 -1.52736 -3.6536 0
M  V30 1907 H 180.47 -4.01973 -2.25287 0
M  V30 1908 H 178.785 -3.55245 -2.17232 0
M  V30 1909 H 181.382 -2.47844 -4.7379 0
M  V30 1910 H 181.725 -0.904281 -4.0636 0
M  V30 1911 H 182.258 -2.36595 -3.19793 0
M  V30 1912 H 178.997 -5.28566 -3.87683 0
M  V30 1913 H 178.517 -3.76667 -4.66779 0
M  V30 1914 H 180.196 -4.34812 -4.79111 0
M  V30 1915 N 180.328 1.1314 -1.09713 0
M  V30 1916 C 181.278 2.16709 -0.708593 0
M  V30 1917 C 182.262 1.58471 0.278523 0
M  V30 1918 O 183.454 1.76779 0.088427 0
M  V30 1919 C 180.583 3.43039 -0.133923 0
M  V30 1920 C 179.669 4.08277 -1.14763 0
M  V30 1921 N 180.06 4.48637 -2.33577 0
M  V30 1922 C 178.358 4.34954 -0.986446 0
M  V30 1923 C 179.059 4.9952 -2.98085 0
M  V30 1924 N 178.035 4.94561 -2.25632 0
M  V30 1925 H 181.837 2.45672 -1.61315 0
M  V30 1926 H 179.351 1.29967 -0.973775 0
M  V30 1927 H 181.348 4.16583 0.162465 0
M  V30 1928 H 180.008 3.15549 0.765447 0
M  V30 1929 H 181.019 4.41246 -2.7115 0
M  V30 1930 H 177.696 4.17258 -0.142008 0
M  V30 1931 H 179.086 5.40521 -3.99108 0
M  V30 1932 N 181.806 0.884767 1.30421 0
M  V30 1933 C 182.736 0.367574 2.30589 0
M  V30 1934 C 183.717 -0.549464 1.60981 0
M  V30 1935 O 184.902 -0.46336 1.88591 0
M  V30 1936 C 182.032 -0.418944 3.44764 0
M  V30 1937 C 180.986 0.406316 4.26067 0
M  V30 1938 C 180.312 -0.506793 5.32293 0
M  V30 1939 C 181.612 1.64832 4.95608 0
M  V30 1940 H 183.306 1.20462 2.74097 0
M  V30 1941 H 180.852 0.580695 1.31772 0
M  V30 1942 H 182.805 -0.791395 4.13902 0
M  V30 1943 H 181.529 -1.28964 3.0006 0
M  V30 1944 H 180.188 0.760903 3.58617 0
M  V30 1945 H 179.836 -1.37519 4.83836 0
M  V30 1946 H 179.536 0.0415828 5.87585 0
M  V30 1947 H 181.06 -0.875764 6.04287 0
M  V30 1948 H 182.474 1.34646 5.57264 0
M  V30 1949 H 180.871 2.13688 5.60765 0
M  V30 1950 H 181.941 2.39284 4.21748 0
M  V30 1951 N 183.284 -1.43765 0.645699 0
M  V30 1952 C 184.514 -2.05953 0.163318 0
M  V30 1953 C 184.922 -1.48432 -1.17322 0
M  V30 1954 O 184.265 -0.607295 -1.73371 0
M  V30 1955 C 184.327 -3.59499 -0.0103065 0
M  V30 1956 C 183.991 -4.39563 1.25035 0
M  V30 1957 C 184.988 -4.72108 2.17739 0
M  V30 1958 C 182.673 -4.79697 1.48983 0
M  V30 1959 C 184.667 -5.43688 3.3269 0
M  V30 1960 C 182.354 -5.51023 2.64229 0
M  V30 1961 C 183.352 -5.8294 3.55908 0
M  V30 1962 O 183.04 -6.5281 4.69142 0
M  V30 1963 H 182.772 -0.670798 0.0836986 0
M  V30 1964 H 185.326 -1.85384 0.884407 0
M  V30 1965 H 183.556 -3.78613 -0.78669 0
M  V30 1966 H 185.245 -4.03408 -0.449087 0
M  V30 1967 H 186.011 -4.41627 2.00476 0
M  V30 1968 H 181.89 -4.54266 0.785078 0
M  V30 1969 H 185.434 -5.68517 4.04269 0
M  V30 1970 H 181.331 -5.8092 2.81429 0
M  V30 1971 H 182.099 -6.71288 4.6831 0
M  V30 1972 N 184.763 -0.387143 -1.52771 0
M  V30 1973 C 185.695 0.484089 -2.2403 0
M  V30 1974 C 186.708 1.02849 -1.26198 0
M  V30 1975 O 187.897 0.931186 -1.52286 0
M  V30 1976 C 184.997 1.68337 -2.94136 0
M  V30 1977 C 184.17 1.26672 -4.18656 0
M  V30 1978 C 183.229 2.33045 -4.7178 0
M  V30 1979 O 182.255 1.94541 -5.34923 0
M  V30 1980 N 183.457 3.64929 -4.5145 0
M  V30 1981 H 186.222 -0.126404 -2.99433 0
M  V30 1982 H 183.783 -0.213392 -1.60488 0
M  V30 1983 H 185.775 2.39019 -3.26577 0
M  V30 1984 H 184.345 2.20025 -2.22053 0
M  V30 1985 H 183.565 0.388878 -3.92277 0
M  V30 1986 H 184.853 0.964964 -4.99566 0
M  V30 1987 H 184.251 3.98974 -4.01044 0
M  V30 1988 H 182.808 4.31651 -4.88386 0
M  V30 1989 N 186.241 1.57166 -0.116904 0
M  V30 1990 C 187.469 1.99473 0.549383 0
M  V30 1991 C 187.884 0.996541 1.60357 0
M  V30 1992 O 187.241 -0.0108731 1.82497 0
M  V30 1993 C 187.292 3.41788 1.17741 0
M  V30 1994 O 187.013 4.37788 0.165362 0
M  V30 1995 C 188.514 3.99216 1.92722 0
M  V30 1996 H 185.734 0.655009 0.145616 0
M  V30 1997 H 188.278 2.03494 -0.202625 0
M  V30 1998 H 186.433 3.38713 1.88021 0
M  V30 1999 H 186.847 5.20806 0.621403 0
M  V30 2000 H 188.321 5.00882 2.31995 0
M  V30 2001 H 188.798 3.3824 2.80161 0
M  V30 2002 H 189.404 4.0583 1.27209 0
M  V30 2003 N 187.719 -0.156864 1.56817 0
M  V30 2004 C 188.966 -0.871125 1.82805 0
M  V30 2005 C 189.294 -1.81611 0.696262 0
M  V30 2006 O 188.549 -1.93141 -0.315459 0
M  V30 2007 C 188.848 -1.68737 3.1506 0
M  V30 2008 C 188.514 -0.890045 4.42028 0
M  V30 2009 C 187.176 -0.670042 4.76512 0
M  V30 2010 C 189.528 -0.331769 5.20143 0
M  V30 2011 C 186.856 0.119104 5.86579 0
M  V30 2012 C 189.208 0.444365 6.31037 0
M  V30 2013 C 187.872 0.675035 6.64078 0
M  V30 2014 H 187.142 -0.318767 0.668931 0
M  V30 2015 H 189.789 -0.135274 1.91022 0
M  V30 2016 H 188.094 -2.49304 3.0225 0
M  V30 2017 H 189.791 -2.24331 3.3238 0
M  V30 2018 H 186.381 -1.07157 4.14988 0
M  V30 2019 H 190.565 -0.489043 4.93885 0
M  V30 2020 H 185.821 0.307417 6.10627 0
M  V30 2021 H 189.995 0.884139 6.90765 0
M  V30 2022 H 187.622 1.28839 7.49203 0
M  V30 2023 N 189.197 -1.51736 -0.425897 0
M  V30 2024 C 190.443 -1.65214 -1.1761 0
M  V30 2025 C 190.776 -0.372778 -1.90589 0
M  V30 2026 O 190.051 0.628139 -1.84078 0
M  V30 2027 C 190.334 -2.86312 -2.18398 0
M  V30 2028 C 190.187 -4.24254 -1.49426 0
M  V30 2029 C 191.506 -3.02925 -3.19256 0
M  V30 2030 H 188.625 -0.601263 -0.426206 0
M  V30 2031 H 191.267 -1.8425 -0.463882 0
M  V30 2032 H 189.417 -2.70213 -2.79137 0
M  V30 2033 H 191.089 -4.52046 -0.919362 0
M  V30 2034 H 189.332 -4.26426 -0.796432 0
M  V30 2035 H 190.003 -5.05001 -2.22885 0
M  V30 2036 H 192.479 -3.1781 -2.68581 0
M  V30 2037 H 191.355 -3.89199 -3.8706 0
M  V30 2038 H 191.616 -2.15497 -3.86023 0
M  V30 2039 N 190.675 0.682077 -1.42076 0
M  V30 2040 C 191.921 1.44428 -1.42367 0
M  V30 2041 C 192.254 1.94164 -0.0373056 0
M  V30 2042 O 191.529 1.70429 0.937239 0
M  V30 2043 C 191.812 2.64654 -2.44194 0
M  V30 2044 C 191.665 2.20596 -3.91991 0
M  V30 2045 C 192.984 3.66865 -2.431 0
M  V30 2046 H 190.103 0.523834 -0.518428 0
M  V30 2047 H 192.745 0.77576 -1.73442 0
M  V30 2048 H 190.895 3.2169 -2.17826 0
M  V30 2049 H 192.567 1.68783 -4.29313 0
M  V30 2050 H 190.81 1.52242 -4.06208 0
M  V30 2051 H 191.481 3.06921 -4.58807 0
M  V30 2052 H 193.957 3.19531 -2.66532 0
M  V30 2053 H 192.833 4.48577 -3.16339 0
M  V30 2054 H 193.094 4.17493 -1.45437 0
M  V30 2055 N 192.153 1.28127 0.917671 0
M  V30 2056 C 193.085 1.07517 2.02417 0
M  V30 2057 C 194.098 0.0281099 1.62776 0
M  V30 2058 O 195.287 0.270748 1.76435 0
M  V30 2059 C 192.387 0.610957 3.33347 0
M  V30 2060 C 191.56 1.73255 4.01624 0
M  V30 2061 C 190.619 1.26238 5.10833 0
M  V30 2062 O 189.645 1.96389 5.34247 0
M  V30 2063 N 190.847 0.123448 5.80369 0
M  V30 2064 H 193.612 2.02806 2.20658 0
M  V30 2065 H 191.173 1.19827 1.08871 0
M  V30 2066 H 193.165 0.280101 4.0373 0
M  V30 2067 H 191.735 -0.24898 3.11607 0
M  V30 2068 H 190.955 2.23319 3.24842 0
M  V30 2069 H 192.243 2.48503 4.43986 0
M  V30 2070 H 191.641 -0.461847 5.63812 0
M  V30 2071 H 190.198 -0.148158 6.51632 0
M  V30 2072 N 193.631 -1.12557 1.10312 0
M  V30 2073 C 194.561 -2.20341 0.772798 0
M  V30 2074 C 195.542 -1.68198 -0.25365 0
M  V30 2075 O 196.727 -1.93831 -0.119699 0
M  V30 2076 C 193.857 -3.46709 0.202443 0
M  V30 2077 C 192.811 -4.11996 1.15943 0
M  V30 2078 C 192.137 -5.328 0.450345 0
M  V30 2079 C 193.437 -4.5828 2.50552 0
M  V30 2080 H 195.131 -2.48229 1.674 0
M  V30 2081 H 192.677 -1.19308 0.806326 0
M  V30 2082 H 194.63 -4.2138 -0.0407752 0
M  V30 2083 H 193.354 -3.18245 -0.734001 0
M  V30 2084 H 192.013 -3.39305 1.38808 0
M  V30 2085 H 191.661 -5.00602 -0.490531 0
M  V30 2086 H 191.361 -5.7743 1.08851 0
M  V30 2087 H 192.885 -6.10219 0.215642 0
M  V30 2088 H 194.299 -5.2433 2.31843 0
M  V30 2089 H 192.696 -5.13683 3.10242 0
M  V30 2090 H 193.766 -3.72329 3.10643 0
M  V30 2091 N 195.109 -0.891671 -1.2995 0
M  V30 2092 C 196.041 -0.320695 -2.26945 0
M  V30 2093 C 197.054 0.528497 -1.53983 0
M  V30 2094 O 198.243 0.346959 -1.75096 0
M  V30 2095 C 195.343 0.562066 -3.34207 0
M  V30 2096 C 194.516 -0.259576 -4.36629 0
M  V30 2097 C 193.575 0.554739 -5.23268 0
M  V30 2098 O 192.601 -0.0249311 -5.69195 0
M  V30 2099 N 193.803 1.8625 -5.4981 0
M  V30 2100 H 196.568 -1.15432 -2.76578 0
M  V30 2101 H 194.129 -0.755336 -1.432 0
M  V30 2102 H 196.121 1.11304 -3.89093 0
M  V30 2103 H 194.691 1.29637 -2.84452 0
M  V30 2104 H 193.911 -0.991986 -3.81514 0
M  V30 2105 H 195.199 -0.822564 -5.02107 0
M  V30 2106 H 194.597 2.35628 -5.14292 0
M  V30 2107 H 193.154 2.36078 -6.07545 0
M  V30 2108 N 196.587 1.43421 -0.653314 0
M  V30 2109 C 197.864 1.95361 -0.0966581 0
M  V30 2110 C 198.244 1.59461 1.38331 0
M  V30 2111 O 197.592 0.879777 2.10884 0
M  V30 2112 C 197.802 3.47311 -0.342988 0
M  V30 2113 C 199.15 4.23875 -0.24798 0
M  V30 2114 O 200.174 3.55133 -0.275553 0
M  V30 2115 O 199.033 5.4623 -0.171771 0
M  V30 2116 H 196.127 0.826945 0.00956291 0
M  V30 2117 H 198.673 1.5336 -0.726558 0
M  V30 2118 H 197.445 3.66569 -1.36906 0
M  V30 2119 H 197.068 3.9631 0.319975 0
M  V30 2120 N 198.065 0.39524 1.52563 0
M  V30 2121 C 199.476 -0.0774719 1.86539 0
M  V30 2122 C 199.827 -1.45641 1.31466 0
M  V30 2123 O 198.952 -2.06459 0.648367 0
M  V30 2124 C 199.547 -0.147356 3.38479 0
M  V30 2125 C 198.106 -0.564373 3.72145 0
M  V30 2126 C 197.253 0.269919 2.75983 0
M  V30 2127 H 200.204 0.612876 1.46388 0
M  V30 2128 H 200.225 -0.965343 3.68051 0
M  V30 2129 H 199.737 0.856387 3.78534 0
M  V30 2130 H 197.838 -1.57527 3.37663 0
M  V30 2131 H 197.951 -0.318402 4.78041 0
M  V30 2132 H 196.315 -0.265696 2.5331 0
M  V30 2133 H 197.098 1.27175 3.18875 0
M  V30 2134 N 199.544 -1.57102 0.125237 0
M  V30 2135 C 200.96 -1.57915 -0.231322 0
M  V30 2136 C 201.16 -1.13833 -1.66266 0
M  V30 2137 O 200.216 -0.828581 -2.38518 0
M  V30 2138 C 201.529 -3.00699 0.00766489 0
M  V30 2139 C 203.077 -3.12947 -0.0577483 0
M  V30 2140 C 203.552 -4.57742 0.153626 0
M  V30 2141 N 205.043 -4.63092 0.0998073 0
M  V30 2142 C 205.778 -5.72905 0.238174 0
M  V30 2143 N 205.274 -6.91445 0.433057 0
M  V30 2144 N 207.067 -5.6182 0.177308 0
M  V30 2145 H 199.218 -1.84055 1.06007 0
M  V30 2146 H 201.481 -0.850905 0.417929 0
M  V30 2147 H 201.187 -3.3726 0.997431 0
M  V30 2148 H 201.061 -3.70236 -0.721452 0
M  V30 2149 H 203.448 -2.7624 -1.03804 0
M  V30 2150 H 203.529 -2.4594 0.70335 0
M  V30 2151 H 203.173 -4.95149 1.13092 0
M  V30 2152 H 203.103 -5.22848 -0.627534 0
M  V30 2153 H 205.594 -3.77871 -0.047051 0
M  V30 2154 H 205.907 -7.70985 0.529332 0
M  V30 2155 H 204.252 -6.93415 0.469109 0
M  V30 2156 H 207.443 -4.68093 0.0259748 0
M  V30 2157 H 207.616 -6.47357 0.288582 0
M  V30 2158 N 201.022 0.148545 -1.56898 0
M  V30 2159 C 201.932 1.20293 -2.01412 0
M  V30 2160 C 202.948 1.47107 -0.929273 0
M  V30 2161 O 204.124 1.58807 -1.23863 0
M  V30 2162 C 201.189 2.51682 -2.38447 0
M  V30 2163 C 200.25 2.32529 -3.60872 0
M  V30 2164 C 199.483 3.57653 -3.96132 0
M  V30 2165 O 199.706 4.63771 -3.32073 0
M  V30 2166 O 198.64 3.50408 -4.89385 0
M  V30 2167 H 202.466 0.855025 -2.91416 0
M  V30 2168 H 200.051 0.357151 -1.45068 0
M  V30 2169 H 201.933 3.29147 -2.63135 0
M  V30 2170 H 200.608 2.86006 -1.51599 0
M  V30 2171 H 199.515 1.53019 -3.41373 0
M  V30 2172 H 200.848 2.03121 -4.48333 0
M  V30 2173 N 202.5 1.5196 0.417844 0
M  V30 2174 C 203.911 1.57851 0.997 0
M  V30 2175 C 204.262 0.413714 1.91789 0
M  V30 2176 O 203.387 -0.467057 2.113 0
M  V30 2177 C 203.982 2.86085 1.81496 0
M  V30 2178 C 202.541 2.94483 2.34428 0
M  V30 2179 C 201.688 2.52707 1.14169 0
M  V30 2180 H 204.639 1.57455 0.198392 0
M  V30 2181 H 204.66 2.70947 2.67148 0
M  V30 2182 H 204.172 3.70842 1.14446 0
M  V30 2183 H 202.273 2.142 3.04875 0
M  V30 2184 H 202.386 3.98546 2.65891 0
M  V30 2185 H 200.75 2.06353 1.49301 0
M  V30 2186 H 201.533 3.39828 0.486999 0
M  V30 2187 N 203.978 -0.674533 1.42435 0
M  V30 2188 C 205.394 -0.98769 1.25367 0
M  V30 2189 C 205.594 -2.00879 0.158044 0
M  V30 2190 O 204.65 -2.48075 -0.470633 0
M  V30 2191 C 205.963 -1.49224 2.6106 0
M  V30 2192 C 207.511 -1.61 2.68417 0
M  V30 2193 C 207.986 -2.14852 4.04478 0
M  V30 2194 N 209.477 -2.22185 4.06434 0
M  V30 2195 C 210.212 -2.64928 5.08528 0
M  V30 2196 N 209.708 -3.07121 6.21006 0
M  V30 2197 N 211.501 -2.64679 4.95885 0
M  V30 2198 H 203.652 0.00152503 2.124 0
M  V30 2199 H 205.915 -0.0618434 0.945981 0
M  V30 2200 H 205.621 -0.816453 3.42092 0
M  V30 2201 H 205.495 -2.47094 2.84999 0
M  V30 2202 H 207.882 -2.27686 1.87732 0
M  V30 2203 H 207.963 -0.616195 2.48267 0
M  V30 2204 H 207.607 -1.48775 4.85622 0
M  V30 2205 H 207.537 -3.15024 4.2198 0
M  V30 2206 H 210.028 -1.92435 3.25234 0
M  V30 2207 H 210.341 -3.38423 6.94759 0
M  V30 2208 H 208.686 -3.04978 6.24511 0
M  V30 2209 H 211.877 -2.31078 4.07088 0
M  V30 2210 H 212.05 -2.9767 5.75584 0
M  V30 2211 N 205.456 -1.28612 -0.910864 0
M  V30 2212 C 206.872 -1.06381 -1.18976 0
M  V30 2213 C 207.072 0.191998 -2.00583 0
M  V30 2214 O 206.128 0.892869 -2.36187 0
M  V30 2215 C 207.441 -2.31295 -1.92154 0
M  V30 2216 C 208.989 -2.36503 -2.05025 0
M  V30 2217 C 209.464 -3.61191 -2.81612 0
M  V30 2218 N 210.955 -3.61847 -2.89172 0
M  V30 2219 C 211.69 -4.55004 -3.4894 0
M  V30 2220 N 211.186 -5.58482 -4.09963 0
M  V30 2221 N 212.979 -4.42594 -3.46506 0
M  V30 2222 H 205.13 -2.09221 -0.366094 0
M  V30 2223 H 207.393 -0.921003 -0.224629 0
M  V30 2224 H 207.099 -3.228 -1.39618 0
M  V30 2225 H 206.973 -2.37934 -2.9269 0
M  V30 2226 H 209.36 -1.45494 -2.5674 0
M  V30 2227 H 209.441 -2.33857 -1.03657 0
M  V30 2228 H 209.085 -4.52545 -2.30576 0
M  V30 2229 H 209.015 -3.61092 -3.83302 0
M  V30 2230 H 211.506 -2.87022 -2.45819 0
M  V30 2231 H 211.819 -6.25704 -4.53557 0
M  V30 2232 H 210.164 -5.62305 -4.08459 0
M  V30 2233 H 213.355 -3.60953 -2.98045 0
M  V30 2234 H 213.528 -5.15381 -3.92793 0
M  V30 2235 N 206.934 1.1197 -1.10907 0
M  V30 2236 C 207.866 2.17592 -0.720175 0
M  V30 2237 C 208.879 1.60938 0.245495 0
M  V30 2238 O 210.068 1.78476 0.0292245 0
M  V30 2239 C 207.168 3.38873 -0.0427917 0
M  V30 2240 C 206.341 4.25006 -1.03388 0
M  V30 2241 C 205.4 5.24774 -0.387075 0
M  V30 2242 O 204.426 5.59631 -1.03934 0
M  V30 2243 N 205.628 5.74208 0.852407 0
M  V30 2244 H 208.393 2.51567 -1.62893 0
M  V30 2245 H 205.954 1.27439 -0.998543 0
M  V30 2246 H 207.946 4.02703 0.401501 0
M  V30 2247 H 206.516 3.03007 0.768456 0
M  V30 2248 H 205.736 3.57716 -1.65629 0
M  V30 2249 H 207.024 4.79397 -1.70458 0
M  V30 2250 H 206.422 5.48062 1.40161 0
M  V30 2251 H 204.979 6.39901 1.23977 0
M  V30 2252 N 208.412 0.89855 1.29475 0
M  V30 2253 C 209.375 0.380272 2.26023 0
M  V30 2254 C 210.375 -0.484891 1.53315 0
M  V30 2255 O 211.565 -0.290108 1.71767 0
M  V30 2256 C 208.697 -0.45651 3.3783 0
M  V30 2257 H 209.89 1.23295 2.73383 0
M  V30 2258 H 207.443 0.676589 1.40897 0
M  V30 2259 H 208.178 -1.32922 2.95808 0
M  V30 2260 H 207.963 0.163393 3.91759 0
M  V30 2261 H 209.453 -0.810466 4.0966 0
M  V30 2262 N 209.89 -1.43072 0.660911 0
M  V30 2263 C 211.118 -2.06067 0.185422 0
M  V30 2264 C 211.533 -1.49582 -1.15198 0
M  V30 2265 O 210.89 -0.630134 -1.71276 0
M  V30 2266 C 210.941 -3.61371 0.0966523 0
M  V30 2267 O 210.662 -4.15758 1.38119 0
M  V30 2268 C 212.163 -4.41455 -0.403996 0
M  V30 2269 H 209.383 -0.664459 0.0934604 0
M  V30 2270 H 211.927 -1.83447 0.90373 0
M  V30 2271 H 210.082 -3.8315 -0.572259 0
M  V30 2272 H 210.496 -5.09499 1.24542 0
M  V30 2273 H 211.97 -5.50437 -0.415045 0
M  V30 2274 H 212.447 -4.15036 -1.43674 0
M  V30 2275 H 213.053 -4.24663 0.232691 0
M  V30 2276 N 211.368 -0.403325 -1.52352 0
M  V30 2277 C 212.3 0.4603 -2.2453 0
M  V30 2278 C 213.313 1.01505 -1.27282 0
M  V30 2279 O 214.502 0.914982 -1.53266 0
M  V30 2280 C 211.602 1.65208 -2.95905 0
M  V30 2281 C 210.775 1.22224 -4.19976 0
M  V30 2282 C 209.834 2.28028 -4.74226 0
M  V30 2283 O 208.86 1.88857 -5.36956 0
M  V30 2284 N 210.062 3.6012 -4.55295 0
M  V30 2285 H 212.827 -0.158156 -2.99282 0
M  V30 2286 H 210.388 -0.230402 -1.60252 0
M  V30 2287 H 212.38 2.35541 -3.29093 0
M  V30 2288 H 210.95 2.17658 -2.24374 0
M  V30 2289 H 210.17 0.34725 -3.92668 0
M  V30 2290 H 211.458 0.911924 -5.00561 0
M  V30 2291 H 210.856 3.94698 -4.05253 0
M  V30 2292 H 209.413 4.26447 -4.92936 0
M  V30 2293 N 212.846 1.57033 -0.133567 0
M  V30 2294 C 213.779 2.11824 0.848872 0
M  V30 2295 C 214.757 1.03833 1.2513 0
M  V30 2296 O 215.941 1.31579 1.34978 0
M  V30 2297 C 213.068 2.62692 2.138 0
M  V30 2298 C 212.114 3.82705 1.88253 0
M  V30 2299 S 212.947 5.2438 1.08563 0
M  V30 2300 C 214.103 5.78627 2.38624 0
M  V30 2301 H 214.336 2.94824 0.38289 0
M  V30 2302 H 211.869 1.5419 0.0804796 0
M  V30 2303 H 213.827 2.92652 2.87863 0
M  V30 2304 H 212.488 1.79847 2.57515 0
M  V30 2305 H 211.681 4.16496 2.83809 0
M  V30 2306 H 211.283 3.53437 1.22305 0
M  V30 2307 H 213.575 5.8924 3.34369 0
M  V30 2308 H 214.518 6.76443 2.09358 0
M  V30 2309 H 214.926 5.06783 2.48658 0
M  V30 2310 N 214.325 -0.140222 1.56975 0
M  V30 2311 C 215.255 -1.17456 2.01808 0
M  V30 2312 C 216.236 -1.44415 0.898794 0
M  V30 2313 O 217.421 -1.5522 1.16707 0
M  V30 2314 C 214.551 -2.50607 2.40444 0
M  V30 2315 C 213.505 -2.38155 3.55621 0
M  V30 2316 C 212.831 -3.76078 3.80091 0
M  V30 2317 C 214.131 -1.85991 4.88062 0
M  V30 2318 H 215.825 -0.801743 2.88466 0
M  V30 2319 H 213.371 -0.38422 1.38779 0
M  V30 2320 H 215.324 -3.23197 2.7041 0
M  V30 2321 H 214.048 -2.89737 1.50732 0
M  V30 2322 H 212.707 -1.68016 3.25832 0
M  V30 2323 H 212.355 -4.12656 2.87618 0
M  V30 2324 H 212.055 -3.68606 4.57606 0
M  V30 2325 H 213.579 -4.50206 4.12488 0
M  V30 2326 H 214.993 -2.4838 5.16701 0
M  V30 2327 H 213.39 -1.89393 5.6943 0
M  V30 2328 H 214.46 -0.816023 4.77984 0
M  V30 2329 N 215.803 -1.52179 -0.40978 0
M  V30 2330 C 216.75 -1.75475 -1.49924 0
M  V30 2331 C 217.72 -0.597175 -1.54994 0
M  V30 2332 O 218.905 -0.834655 -1.71575 0
M  V30 2333 C 216.045 -1.9107 -2.87378 0
M  V30 2334 C 215.158 -3.18717 -2.91622 0
M  V30 2335 C 214.293 -3.24747 -4.20372 0
M  V30 2336 C 213.332 -4.46598 -4.18588 0
M  V30 2337 N 212.469 -4.50025 -5.38908 0
M  V30 2338 H 217.309 -2.68458 -1.29361 0
M  V30 2339 H 214.846 -1.33024 -0.627934 0
M  V30 2340 H 216.804 -1.98096 -3.6717 0
M  V30 2341 H 215.434 -1.01469 -3.06437 0
M  V30 2342 H 214.486 -3.20866 -2.04326 0
M  V30 2343 H 215.798 -4.08544 -2.86169 0
M  V30 2344 H 214.952 -3.30841 -5.08556 0
M  V30 2345 H 213.691 -2.32857 -4.28519 0
M  V30 2346 H 212.696 -4.40652 -3.28794 0
M  V30 2347 H 213.921 -5.39783 -4.12081 0
M  V30 2348 H 211.867 -3.61017 -5.47725 0
M  V30 2349 H 211.784 -5.33697 -5.35447 0
M  V30 2350 H 213.052 -4.60347 -6.29048 0
M  V30 2351 N 217.281 0.66697 -1.42791 0
M  V30 2352 C 218.211 1.79218 -1.49677 0
M  V30 2353 C 219.192 1.66405 -0.352623 0
M  V30 2354 O 220.377 1.85708 -0.567993 0
M  V30 2355 C 217.507 3.17565 -1.40605 0
M  V30 2356 C 216.461 3.45124 -2.53127 0
M  V30 2357 C 215.787 4.83127 -2.29112 0
M  V30 2358 C 217.087 3.41236 -3.95418 0
M  V30 2359 H 218.781 1.73713 -2.43853 0
M  V30 2360 H 216.327 0.83432 -1.17367 0
M  V30 2361 H 218.28 3.96022 -1.44029 0
M  V30 2362 H 217.004 3.23767 -0.429271 0
M  V30 2363 H 215.663 2.69031 -2.49034 0
M  V30 2364 H 215.311 4.85988 -1.29709 0
M  V30 2365 H 215.011 5.02528 -3.04531 0
M  V30 2366 H 216.535 5.63859 -2.34297 0
M  V30 2367 H 217.949 4.09651 -4.01073 0
M  V30 2368 H 216.346 3.72173 -4.70752 0
M  V30 2369 H 217.416 2.39665 -4.21532 0
M  V30 2370 N 218.759 1.29093 0.90403 0
M  V30 2371 C 219.691 1.09658 2.01266 0
M  V30 2372 C 220.704 0.0453729 1.62737 0
M  V30 2373 O 221.893 0.289446 1.76138 0
M  V30 2374 C 218.993 0.646278 3.32681 0
M  V30 2375 C 218.166 1.77505 3.99763 0
M  V30 2376 C 217.225 1.31649 5.09465 0
M  V30 2377 O 216.251 2.02045 5.32134 0
M  V30 2378 N 217.453 0.184997 5.80205 0
M  V30 2379 H 220.218 2.05135 2.18494 0
M  V30 2380 H 217.779 1.20975 1.07594 0
M  V30 2381 H 219.771 0.322906 4.0341 0
M  V30 2382 H 218.341 -0.215916 3.11853 0
M  V30 2383 H 217.561 2.26752 3.22455 0
M  V30 2384 H 218.849 2.53198 4.41325 0
M  V30 2385 H 218.247 -0.402021 5.6427 0
M  V30 2386 H 216.804 -0.0790358 6.51752 0
M  V30 2387 N 220.237 -1.11381 1.11499 0
M  V30 2388 C 221.185 -2.19522 0.768956 0
M  V30 2389 C 222.179 -1.67693 -0.239857 0
M  V30 2390 O 223.385 -1.79727 -0.0990755 0
M  V30 2391 H 219.76 -0.715711 0.230786 0
M  V30 2392 H 221.731 -2.45954 1.68964 0
M  V30 2393 C 220.48 -3.46945 0.229073 0
M  V30 2394 H 219.803 -3.8718 0.996596 0
M  V30 2395 H 221.243 -4.23993 0.0251441 0
M  V30 2396 C 219.702 -3.2042 -1.04079 0
M  V30 2397 O 220.232 -3.41178 -2.12038 0
M  V30 2398 N 218.438 -2.74151 -0.963823 0
M  V30 2399 H 217.985 -2.57459 -0.0851722 0
M  V30 2400 H 217.943 -2.56781 -1.81414 0
M  V30 2401 N 221.715 -0.905404 -1.28997 0
M  V30 2402 C 222.645 -0.404212 -2.29975 0
M  V30 2403 C 223.626 0.523784 -1.61835 0
M  V30 2404 O 224.811 0.433298 -1.89304 0
M  V30 2405 C 221.941 0.364042 -3.45387 0
M  V30 2406 C 220.895 -0.474048 -4.25367 0
M  V30 2407 C 220.221 0.422045 -5.33032 0
M  V30 2408 C 221.521 -1.72696 -4.92923 0
M  V30 2409 H 223.215 -1.24807 -2.72146 0
M  V30 2410 H 220.761 -0.601585 -1.30832 0
M  V30 2411 H 222.714 0.725447 -4.15109 0
M  V30 2412 H 221.438 1.24174 -3.02074 0
M  V30 2413 H 220.097 -0.81786 -3.57361 0
M  V30 2414 H 219.745 1.29804 -4.85963 0
M  V30 2415 H 219.445 -0.135057 -5.87445 0
M  V30 2416 H 220.969 0.779517 -6.05604 0
M  V30 2417 H 222.383 -1.43495 -5.55051 0
M  V30 2418 H 220.78 -2.22582 -5.57295 0
M  V30 2419 H 221.85 -2.45964 -4.17887 0
M  V30 2420 N 223.193 1.4272 -0.668489 0
M  V30 2421 C 224.439 2.01923 -0.188419 0
M  V30 2422 C 224.772 1.52704 1.19979 0
M  V30 2423 O 224.047 0.726566 1.8042 0
M  V30 2424 C 224.33 3.59451 -0.216085 0
M  V30 2425 C 224.183 4.18864 -1.6393 0
M  V30 2426 C 225.502 4.37903 0.439179 0
M  V30 2427 H 222.621 0.733674 -0.0699412 0
M  V30 2428 H 225.263 1.69822 -0.852076 0
M  V30 2429 H 223.413 3.86929 0.349012 0
M  V30 2430 H 225.085 4.02362 -2.25616 0
M  V30 2431 H 223.328 3.74933 -2.18193 0
M  V30 2432 H 223.999 5.27987 -1.61039 0
M  V30 2433 H 226.475 4.16079 -0.0417878 0
M  V30 2434 H 225.351 5.47519 0.389157 0
M  V30 2435 H 225.612 4.15303 1.51577 0
M  V30 2436 N 224.671 0.411399 1.52136 0
M  V30 2437 C 225.92 -0.165009 2.01024 0
M  V30 2438 C 226.233 -1.4603 1.30133 0
M  V30 2439 O 227.439 -2.1181 1.69849 0
M  V30 2440 C 225.895 -0.344618 3.58246 0
M  V30 2441 C 225.503 0.938716 4.38055 0
M  V30 2442 C 227.247 -0.876195 4.15359 0
M  V30 2443 C 225.154 0.726172 5.86925 0
M  V30 2444 H 224.084 -0.0654407 0.751155 0
M  V30 2445 H 226.735 0.537192 1.75461 0
M  V30 2446 H 225.117 -1.10921 3.80148 0
M  V30 2447 H 226.291 1.70963 4.27912 0
M  V30 2448 H 224.606 1.39688 3.92271 0
M  V30 2449 H 227.203 -1.05128 5.24263 0
M  V30 2450 H 227.546 -1.85152 3.7286 0
M  V30 2451 H 228.079 -0.170607 3.97434 0
M  V30 2452 H 224.818 1.67312 6.33788 0
M  V30 2453 H 224.338 -0.00540283 5.998 0
M  V30 2454 H 226.017 0.369231 6.45946 0
M  V30 2455 N 226.149 -1.5696 0.141893 0
M  V30 2456 C 227.56 -1.82797 -0.379776 0
M  V30 2457 C 227.911 -1.06033 -1.6508 0
M  V30 2458 O 227.036 -0.304011 -2.14254 0
M  V30 2459 C 227.631 -3.31578 -0.695802 0
M  V30 2460 C 226.19 -3.58014 -1.16201 0
M  V30 2461 C 225.337 -2.76699 -0.182455 0
M  V30 2462 H 228.288 -1.54406 0.366675 0
M  V30 2463 H 228.309 -3.47454 -1.55099 0
M  V30 2464 H 227.821 -3.87421 0.229449 0
M  V30 2465 H 225.922 -3.07553 -2.10338 0
M  V30 2466 H 226.035 -4.66501 -1.09151 0
M  V30 2467 H 224.399 -2.45618 -0.674072 0
M  V30 2468 H 225.182 -3.35311 0.736297 0
M  V30 2469 N 227.627 0.131896 -1.57047 0
M  V30 2470 C 228.873 0.838268 -1.85323 0
M  V30 2471 C 229.228 1.78098 -0.727937 0
M  V30 2472 O 228.521 1.89645 0.27304 0
M  V30 2473 C 228.715 1.63703 -3.17704 0
M  V30 2474 C 228.544 0.773167 -4.43004 0
M  V30 2475 C 227.314 0.432956 -5.03442 0
M  V30 2476 C 229.512 0.0966216 -5.14209 0
M  V30 2477 N 227.494 -0.442924 -6.123 0
M  V30 2478 C 228.865 -0.638778 -6.16701 0
M  V30 2479 C 230.92 0.018861 -4.97896 0
M  V30 2480 C 229.623 -1.44462 -7.04644 0
M  V30 2481 C 231.649 -0.773762 -5.86316 0
M  V30 2482 C 231.011 -1.4974 -6.883 0
M  V30 2483 H 227.11 0.284086 -0.728573 0
M  V30 2484 H 229.694 0.102731 -1.94429 0
M  V30 2485 H 227.865 2.3437 -3.09718 0
M  V30 2486 H 229.597 2.28774 -3.33833 0
M  V30 2487 H 226.352 0.772237 -4.67262 0
M  V30 2488 H 226.776 -0.872332 -6.71356 0
M  V30 2489 H 231.418 0.56397 -4.19022 0
M  V30 2490 H 229.136 -2.00093 -7.82936 0
M  V30 2491 H 232.722 -0.83612 -5.75761 0
M  V30 2492 H 231.602 -2.10087 -7.55535 0
M  V30 2493 N 229.106 1.52395 0.401703 0
M  V30 2494 C 230.069 1.75636 1.47257 0
M  V30 2495 C 231.069 0.62628 1.48103 0
M  V30 2496 O 232.259 0.894227 1.49497 0
M  V30 2497 C 229.391 1.84553 2.86624 0
M  V30 2498 H 230.584 2.71241 1.27938 0
M  V30 2499 H 228.137 1.42923 0.632662 0
M  V30 2500 H 228.872 0.908882 3.11303 0
M  V30 2501 H 228.657 2.66715 2.87412 0
M  V30 2502 H 230.147 2.04251 3.64241 0
M  V30 2503 N 230.584 -0.659388 1.43143 0
M  V30 2504 C 231.995 -1.24041 1.39537 0
M  V30 2505 C 232.346 -1.95963 0.0963364 0
M  V30 2506 O 231.471 -2.00892 -0.804438 0
M  V30 2507 C 232.066 -2.25601 2.52764 0
M  V30 2508 C 230.625 -2.79195 2.52443 0
M  V30 2509 C 229.772 -1.53743 2.30778 0
M  V30 2510 H 232.723 -0.451792 1.52133 0
M  V30 2511 H 232.744 -3.07651 2.23899 0
M  V30 2512 H 232.256 -1.73226 3.47296 0
M  V30 2513 H 230.357 -3.35649 1.61773 0
M  V30 2514 H 230.47 -3.2716 3.50004 0
M  V30 2515 H 228.834 -1.80869 1.79328 0
M  V30 2516 H 229.617 -1.03312 3.27386 0
M  V30 2517 N 232.062 -1.29571 -0.897171 0
M  V30 2518 C 232.972 -1.16808 -2.03453 0
M  V30 2519 C 233.988 -0.0907471 -1.73763 0
M  V30 2520 O 235.164 -0.303312 -1.99103 0
M  V30 2521 C 232.229 -0.848264 -3.36163 0
M  V30 2522 C 231.29 -2.0097 -3.79354 0
M  V30 2523 C 230.523 -1.70505 -5.05731 0
M  V30 2524 O 230.746 -0.62718 -5.66941 0
M  V30 2525 O 229.68 -2.5538 -5.45036 0
M  V30 2526 H 233.506 -2.12325 -2.17144 0
M  V30 2527 H 231.091 -1.09047 -1.02123 0
M  V30 2528 H 232.973 -0.684581 -4.15802 0
M  V30 2529 H 231.648 0.0771071 -3.23608 0
M  V30 2530 H 230.555 -2.22863 -3.00471 0
M  V30 2531 H 231.888 -2.91636 -3.96496 0
M  V30 2532 N 233.54 1.10788 -1.12088 0
M  V30 2533 C 234.488 2.19111 -0.780587 0
M  V30 2534 C 235.482 1.67818 0.230961 0
M  V30 2535 O 236.688 1.79777 0.0895427 0
M  V30 2536 H 233.063 0.714477 -0.234578 0
M  V30 2537 H 235.034 2.45055 -1.70266 0
M  V30 2538 C 233.783 3.46818 -0.24747 0
M  V30 2539 H 233.106 3.86646 -1.01712 0
M  V30 2540 H 234.546 4.23973 -0.0476291 0
M  V30 2541 C 233.005 3.20968 1.02378 0
M  V30 2542 O 233.535 3.42298 2.10226 0
M  V30 2543 N 231.741 2.74658 0.949271 0
M  V30 2544 H 231.288 2.57501 0.0715173 0
M  V30 2545 H 231.246 2.57739 1.80049 0
M  V30 2546 N 235.018 0.912232 1.28515 0
M  V30 2547 C 235.948 0.416403 2.29757 0
M  V30 2548 C 236.929 -0.515194 1.6211 0
M  V30 2549 O 238.114 -0.423253 1.89532 0
M  V30 2550 C 235.244 -0.34572 3.45575 0
M  V30 2551 C 234.198 0.496599 4.25109 0
M  V30 2552 C 233.524 -0.393771 5.33248 0
M  V30 2553 C 234.824 1.75307 4.92001 0
M  V30 2554 H 236.518 1.26249 2.7148 0
M  V30 2555 H 234.064 0.608515 1.30511 0
M  V30 2556 H 236.017 -0.703422 4.15488 0
M  V30 2557 H 234.741 -1.2257 3.02728 0
M  V30 2558 H 233.4 0.8368 3.56922 0
M  V30 2559 H 233.048 -1.27225 4.86644 0
M  V30 2560 H 232.748 0.166209 5.87365 0
M  V30 2561 H 234.272 -0.747389 6.06009 0
M  V30 2562 H 235.686 1.46437 5.54283 0
M  V30 2563 H 234.083 2.25534 5.56106 0
M  V30 2564 H 235.153 2.48176 4.16577 0
M  V30 2565 N 236.496 -1.42363 0.676048 0
M  V30 2566 C 237.724 -2.05859 0.207268 0
M  V30 2567 C 238.139 -1.50796 -1.13605 0
M  V30 2568 O 237.496 -0.648265 -1.70598 0
M  V30 2569 C 237.547 -3.61248 0.134975 0
M  V30 2570 O 237.268 -4.1427 1.42521 0
M  V30 2571 C 238.769 -4.41859 -0.357151 0
M  V30 2572 H 235.989 -0.663431 0.100503 0
M  V30 2573 H 238.533 -1.82479 0.923136 0
M  V30 2574 H 236.688 -3.83735 -0.531588 0
M  V30 2575 H 237.102 -5.0815 1.29939 0
M  V30 2576 H 238.576 -5.50847 -0.356641 0
M  V30 2577 H 239.053 -4.16536 -1.39264 0
M  V30 2578 H 239.659 -4.24392 0.27772 0
M  V30 2579 N 237.974 -0.419461 -1.51915 0
M  V30 2580 C 238.904 0.391813 -2.30189 0
M  V30 2581 C 239.885 1.03699 -1.34836 0
M  V30 2582 O 241.07 1.04403 -1.63748 0
M  V30 2583 C 238.2 1.50312 -3.13087 0
M  V30 2584 C 237.154 0.9824 -4.16573 0
M  V30 2585 C 236.48 2.18809 -4.8788 0
M  V30 2586 C 237.78 0.0292356 -5.22292 0
M  V30 2587 H 239.474 -0.26135 -2.98257 0
M  V30 2588 H 237.02 -0.127134 -1.43438 0
M  V30 2589 H 238.973 2.07773 -3.66617 0
M  V30 2590 H 237.697 2.18431 -2.42807 0
M  V30 2591 H 236.356 0.430119 -3.64068 0
M  V30 2592 H 236.004 2.85507 -4.14119 0
M  V30 2593 H 235.704 1.84615 -5.57845 0
M  V30 2594 H 237.228 2.76858 -5.44226 0
M  V30 2595 H 238.642 0.512976 -5.71 0
M  V30 2596 H 237.039 -0.2244 -5.9968 0
M  V30 2597 H 238.109 -0.912931 -4.76228 0
M  V30 2598 N 239.452 1.56882 -0.150215 0
M  V30 2599 C 240.402 2.13501 0.800071 0
M  V30 2600 C 241.386 1.06368 1.20726 0
M  V30 2601 O 242.578 1.32538 1.17314 0
M  V30 2602 C 239.707 2.76271 2.03787 0
M  V30 2603 C 238.793 3.90533 1.65364 0
M  V30 2604 N 239.184 4.96259 0.977794 0
M  V30 2605 C 237.482 4.013 1.94613 0
M  V30 2606 C 238.183 5.76286 0.791794 0
M  V30 2607 N 237.159 5.27163 1.32666 0
M  V30 2608 H 240.961 2.92615 0.274517 0
M  V30 2609 H 238.475 1.62319 0.0512144 0
M  V30 2610 H 240.472 3.15197 2.72867 0
M  V30 2611 H 239.132 1.98631 2.56857 0
M  V30 2612 H 240.143 5.13953 0.638193 0
M  V30 2613 H 236.82 3.3474 2.4951 0
M  V30 2614 H 238.21 6.71401 0.258894 0
M  V30 2615 N 240.93 -0.123565 1.57115 0
M  V30 2616 C 241.877 -1.15177 2.00007 0
M  V30 2617 C 242.847 -1.41403 0.871454 0
M  V30 2618 O 244.032 -1.53346 1.13533 0
M  V30 2619 C 241.172 -2.47436 2.40561 0
M  V30 2620 C 240.285 -2.28184 3.66819 0
M  V30 2621 C 239.42 -3.53641 3.96373 0
M  V30 2622 C 238.459 -3.29528 5.15827 0
M  V30 2623 N 237.596 -4.47175 5.41275 0
M  V30 2624 H 242.436 -0.779008 2.87638 0
M  V30 2625 H 239.973 -0.373166 1.42288 0
M  V30 2626 H 241.931 -3.24584 2.62109 0
M  V30 2627 H 240.561 -2.82614 1.55978 0
M  V30 2628 H 239.613 -1.41976 3.52912 0
M  V30 2629 H 240.925 -2.0634 4.5412 0
M  V30 2630 H 240.079 -4.39209 4.18545 0
M  V30 2631 H 238.818 -3.78512 3.07538 0
M  V30 2632 H 237.823 -2.42349 4.93505 0
M  V30 2633 H 239.048 -3.06031 6.06236 0
M  V30 2634 H 236.994 -4.72175 4.55397 0
M  V30 2635 H 236.911 -4.28419 6.22891 0
M  V30 2636 H 238.179 -5.3389 5.67963 0
M  V30 2637 N 242.408 -1.52605 -0.393616 0
M  V30 2638 C 243.338 -1.80022 -1.48709 0
M  V30 2639 C 244.319 -0.651995 -1.57108 0
M  V30 2640 O 245.504 -0.89913 -1.72132 0
M  V30 2641 C 242.634 -1.96492 -2.86371 0
M  V30 2642 C 241.588 -3.12161 -2.92813 0
M  V30 2643 C 240.914 -3.13877 -4.3288 0
M  V30 2644 C 242.214 -4.51322 -2.6288 0
M  V30 2645 H 243.908 -2.71589 -1.26015 0
M  V30 2646 H 241.454 -1.30684 -0.604778 0
M  V30 2647 H 243.407 -2.14255 -3.62867 0
M  V30 2648 H 242.131 -1.01611 -3.10391 0
M  V30 2649 H 240.79 -2.94173 -2.18764 0
M  V30 2650 H 240.438 -2.16687 -4.53933 0
M  V30 2651 H 240.138 -3.91576 -4.38112 0
M  V30 2652 H 241.662 -3.33789 -5.1129 0
M  V30 2653 H 243.076 -4.69435 -3.29096 0
M  V30 2654 H 241.473 -5.31053 -2.79468 0
M  V30 2655 H 242.543 -4.58353 -1.58242 0
M  V30 2656 N 243.887 0.651787 -1.4349 0
M  V30 2657 C 245.112 1.44434 -1.48841 0
M  V30 2658 C 245.537 1.8779 -0.107955 0
M  V30 2659 O 244.895 1.57464 0.898602 0
M  V30 2660 C 244.943 2.65458 -2.44059 0
M  V30 2661 O 244.047 3.64566 -1.92784 0
M  V30 2662 H 243.388 0.433005 -0.503391 0
M  V30 2663 H 245.918 0.797451 -1.88419 0
M  V30 2664 H 245.928 3.13255 -2.6141 0
M  V30 2665 H 244.603 2.33244 -3.4434 0
M  V30 2666 H 243.18 3.23716 -1.851 0
M  V30 2667 N 245.365 1.30045 0.890287 0
M  V30 2668 C 246.275 1.17885 2.02831 0
M  V30 2669 C 247.291 0.0999609 1.73713 0
M  V30 2670 O 248.467 0.313867 1.98939 0
M  V30 2671 C 245.532 0.866079 3.35708 0
M  V30 2672 C 244.593 2.02979 3.78283 0
M  V30 2673 C 243.826 1.73184 5.0482 0
M  V30 2674 O 244.049 0.657237 5.66601 0
M  V30 2675 O 242.983 2.58267 5.43674 0
M  V30 2676 H 246.809 2.13474 2.16015 0
M  V30 2677 H 244.394 1.09587 1.01543 0
M  V30 2678 H 246.276 0.706623 4.15433 0
M  V30 2679 H 244.951 -0.0599443 3.23644 0
M  V30 2680 H 243.858 2.24454 2.99285 0
M  V30 2681 H 245.191 2.93734 3.94944 0
M  V30 2682 N 246.843 -1.10192 1.12674 0
M  V30 2683 C 248.068 -1.86523 0.906853 0
M  V30 2684 C 248.493 -1.80221 -0.538711 0
M  V30 2685 O 247.851 -1.17396 -1.38158 0
M  V30 2686 C 247.899 -3.32758 1.3894 0
M  V30 2687 O 247.003 -4.08449 0.5695 0
M  V30 2688 H 246.344 -0.578678 0.325619 0
M  V30 2689 H 248.874 -1.39203 1.49946 0
M  V30 2690 H 248.884 -3.83608 1.38958 0
M  V30 2691 H 247.559 -3.36661 2.44197 0
M  V30 2692 H 246.136 -3.67427 0.636528 0
M  V30 2693 N 248.321 -0.919034 -1.28029 0
M  V30 2694 C 249.253 -0.368762 -2.26214 0
M  V30 2695 C 250.266 0.495716 -1.55069 0
M  V30 2696 O 251.455 0.30974 -1.75792 0
M  V30 2697 C 248.555 0.491049 -3.35324 0
M  V30 2698 C 247.728 -0.352133 -4.3598 0
M  V30 2699 C 246.787 0.443622 -5.24327 0
M  V30 2700 O 245.813 -0.14566 -5.69014 0
M  V30 2701 N 247.015 1.74545 -5.53637 0
M  V30 2702 H 249.78 -1.21273 -2.74068 0
M  V30 2703 H 247.341 -0.785541 -1.41566 0
M  V30 2704 H 249.333 1.03026 -3.91366 0
M  V30 2705 H 247.903 1.23574 -2.87138 0
M  V30 2706 H 247.123 -1.07269 -3.79324 0
M  V30 2707 H 248.411 -0.928883 -5.00249 0
M  V30 2708 H 247.809 2.24666 -5.19174 0
M  V30 2709 H 246.366 2.23138 -6.12416 0
M  V30 2710 N 249.799 1.42003 -0.683588 0
M  V30 2711 C 250.729 2.33487 -0.024866 0
M  V30 2712 C 251.71 1.51163 0.779975 0
M  V30 2713 O 252.895 1.79739 0.735362 0
M  V30 2714 C 250.025 3.3487 0.920836 0
M  V30 2715 C 248.979 4.27414 0.223958 0
M  V30 2716 C 248.305 5.19074 1.2832 0
M  V30 2717 C 249.605 5.14445 -0.90242 0
M  V30 2718 H 251.299 2.88819 -0.788921 0
M  V30 2719 H 248.845 1.38873 -0.38083 0
M  V30 2720 H 250.798 3.97787 1.39081 0
M  V30 2721 H 249.522 2.77861 1.71642 0
M  V30 2722 H 248.181 3.65904 -0.225864 0
M  V30 2723 H 247.829 4.58387 2.071 0
M  V30 2724 H 247.529 5.81822 0.821995 0
M  V30 2725 H 249.053 5.84867 1.75392 0
M  V30 2726 H 250.467 5.70998 -0.513272 0
M  V30 2727 H 248.864 5.86072 -1.28997 0
M  V30 2728 H 249.934 4.52322 -1.74737 0
M  V30 2729 N 251.277 0.427512 1.51691 0
M  V30 2730 C 252.187 -0.39527 2.31246 0
M  V30 2731 C 253.203 -1.03674 1.39742 0
M  V30 2732 O 254.379 -1.03425 1.72816 0
M  V30 2733 C 251.444 -1.48706 3.13189 0
M  V30 2734 C 250.505 -0.866743 4.20459 0
M  V30 2735 C 249.738 -1.90651 4.98486 0
M  V30 2736 O 249.961 -3.12733 4.77026 0
M  V30 2737 O 248.895 -1.5025 5.82845 0
M  V30 2738 H 252.721 0.253918 3.02637 0
M  V30 2739 H 250.306 0.190274 1.48183 0
M  V30 2740 H 252.188 -2.12047 3.64162 0
M  V30 2741 H 250.863 -2.12051 2.44573 0
M  V30 2742 H 249.77 -0.195544 3.73589 0
M  V30 2743 H 251.103 -0.276934 4.9142 0
M  V30 2744 N 252.755 -1.56801 0.158532 0
M  V30 2745 C 253.685 -2.20347 -0.772609 0
M  V30 2746 C 254.666 -1.15518 -1.24859 0
M  V30 2747 O 255.851 -1.43902 -1.30406 0
M  V30 2748 C 252.981 -2.83417 -2.00729 0
M  V30 2749 C 251.935 -3.94174 -1.66765 0
M  V30 2750 C 251.261 -4.44233 -2.97592 0
M  V30 2751 C 252.561 -5.14392 -0.905447 0
M  V30 2752 H 254.255 -2.98413 -0.242959 0
M  V30 2753 H 251.801 -1.43537 -0.115419 0
M  V30 2754 H 253.754 -3.26543 -2.6636 0
M  V30 2755 H 252.478 -2.02701 -2.56086 0
M  V30 2756 H 251.137 -3.51684 -1.03508 0
M  V30 2757 H 250.785 -3.60325 -3.50963 0
M  V30 2758 H 250.485 -5.18945 -2.75626 0
M  V30 2759 H 252.009 -4.90037 -3.64274 0
M  V30 2760 H 253.423 -5.5429 -1.46408 0
M  V30 2761 H 251.82 -5.9494 -0.7853 0
M  V30 2762 H 252.89 -4.84795 0.100668 0
M  V30 2763 N 254.233 0.115231 -1.57178 0
M  V30 2764 C 255.181 1.16014 -2.01602 0
M  V30 2765 C 256.175 1.42653 -0.913587 0
M  V30 2766 O 257.381 1.42571 -1.09879 0
M  V30 2767 H 253.756 0.391252 -0.642204 0
M  V30 2768 H 255.727 0.758998 -2.88586 0
M  V30 2769 C 254.476 2.47767 -2.4394 0
M  V30 2770 H 253.799 2.28108 -3.28339 0
M  V30 2771 H 255.239 3.19432 -2.78818 0
M  V30 2772 C 253.698 3.10617 -1.30455 0
M  V30 2773 O 254.228 3.96846 -0.622585 0
M  V30 2774 N 252.434 2.70553 -1.06064 0
M  V30 2775 H 251.981 2.00527 -1.61699 0
M  V30 2776 H 251.939 3.12934 -0.303284 0
M  V30 2777 N 255.711 1.52812 0.385517 0
M  V30 2778 C 256.957 1.69225 1.12847 0
M  V30 2779 C 257.312 0.42864 1.87564 0
M  V30 2780 O 256.605 -0.57779 1.8268 0
M  V30 2781 C 256.799 2.86856 2.13187 0
M  V30 2782 C 256.628 4.24535 1.48325 0
M  V30 2783 C 255.398 4.89701 1.24585 0
M  V30 2784 C 257.596 5.05794 0.931501 0
M  V30 2785 N 255.578 6.11353 0.558644 0
M  V30 2786 C 256.949 6.1888 0.372552 0
M  V30 2787 C 259.004 4.90963 0.828248 0
M  V30 2788 C 257.707 7.18757 -0.279556 0
M  V30 2789 C 259.733 5.91095 0.189956 0
M  V30 2790 C 259.095 7.03489 -0.358207 0
M  V30 2791 H 255.194 0.67268 0.39878 0
M  V30 2792 H 257.778 1.9017 0.417528 0
M  V30 2793 H 255.949 2.67484 2.81614 0
M  V30 2794 H 257.681 2.92188 2.80014 0
M  V30 2795 H 254.436 4.48485 1.52178 0
M  V30 2796 H 254.86 6.76606 0.230983 0
M  V30 2797 H 259.502 4.04274 1.23784 0
M  V30 2798 H 257.22 8.05052 -0.701152 0
M  V30 2799 H 260.806 5.81694 0.111264 0
M  V30 2800 H 259.686 7.79642 -0.844314 0
M  V30 2801 N 257.189 -0.644168 1.43834 0
M  V30 2802 C 258.137 -1.77793 1.49974 0
M  V30 2803 C 259.131 -1.65253 0.372536 0
M  V30 2804 O 260.337 -1.7149 0.546924 0
M  V30 2805 H 256.712 -0.58675 0.47035 0
M  V30 2806 H 258.683 -1.69736 2.45423 0
M  V30 2807 C 257.432 -3.16087 1.4486 0
M  V30 2808 H 256.755 -3.26378 2.30905 0
M  V30 2809 H 258.195 -3.95349 1.53217 0
M  V30 2810 C 256.654 -3.36484 0.167463 0
M  V30 2811 O 257.184 -3.94298 -0.767609 0
M  V30 2812 N 255.39 -2.90504 0.0747556 0
M  V30 2813 H 254.937 -2.4364 0.836507 0
M  V30 2814 H 254.895 -3.04527 -0.781714 0
M  V30 2815 N 258.668 -1.30515 -0.883378 0
M  V30 2816 C 259.616 -1.16941 -2.01066 0
M  V30 2817 C 260.61 -0.0809148 -1.69207 0
M  V30 2818 O 261.816 -0.241877 -1.78367 0
M  V30 2819 H 258.191 -0.361705 -0.659298 0
M  V30 2820 H 260.162 -2.12344 -2.09649 0
M  V30 2821 C 258.911 -0.879694 -3.36388 0
M  V30 2822 H 258.234 -1.70936 -3.61415 0
M  V30 2823 H 259.674 -0.82483 -4.159 0
M  V30 2824 C 258.133 0.417409 -3.34304 0
M  V30 2825 O 258.663 1.43843 -3.75063 0
M  V30 2826 N 256.869 0.429141 -2.87414 0
M  V30 2827 H 256.416 -0.402222 -2.5444 0
M  V30 2828 H 256.374 1.29696 -2.86403 0
M  V30 2829 N 260.146 1.09593 -1.13257 0
M  V30 2830 C 261.562 1.33775 -0.870423 0
M  V30 2831 C 261.762 1.95327 0.494926 0
M  V30 2832 O 260.818 2.19853 1.2418 0
M  V30 2833 C 262.131 2.25106 -1.99369 0
M  V30 2834 C 263.679 2.3862 -2.02558 0
M  V30 2835 C 264.154 3.33285 -3.14142 0
M  V30 2836 N 265.645 3.40857 -3.13641 0
M  V30 2837 C 266.38 4.14101 -3.96621 0
M  V30 2838 N 265.876 4.90157 -4.8961 0
M  V30 2839 N 267.669 4.09808 -3.84726 0
M  V30 2840 H 259.82 0.680136 -2.01216 0
M  V30 2841 H 262.083 0.362133 -0.876107 0
M  V30 2842 H 261.789 1.87103 -2.97801 0
M  V30 2843 H 261.663 3.25481 -1.90635 0
M  V30 2844 H 264.05 2.75887 -1.0474 0
M  V30 2845 H 264.131 1.38028 -2.15364 0
M  V30 2846 H 263.775 2.96741 -4.12198 0
M  V30 2847 H 263.705 4.33776 -2.98574 0
M  V30 2848 H 266.196 2.86624 -2.46282 0
M  V30 2849 H 266.509 5.4347 -5.49418 0
M  V30 2850 H 264.854 4.89251 -4.93617 0
M  V30 2851 H 268.045 3.4949 -3.11408 0
M  V30 2852 H 268.218 4.66629 -4.49623 0
M  V30 2853 N 261.624 0.925811 1.2754 0
M  V30 2854 C 262.871 0.565255 1.94451 0
M  V30 2855 C 263.199 -0.89316 1.7278 0
M  V30 2856 O 262.454 -1.65213 1.04895 0
M  V30 2857 C 262.753 0.835296 3.47502 0
M  V30 2858 C 262.419 2.27515 3.89291 0
M  V30 2859 C 261.081 2.66879 4.00411 0
M  V30 2860 C 263.433 3.21158 4.10496 0
M  V30 2861 C 260.761 3.99014 4.30122 0
M  V30 2862 C 263.113 4.52871 4.4169 0
M  V30 2863 C 261.777 4.92072 4.51023 0
M  V30 2864 H 261.047 0.206841 0.711546 0
M  V30 2865 H 263.694 1.16942 1.51647 0
M  V30 2866 H 261.999 0.148442 3.91519 0
M  V30 2867 H 263.696 0.535322 3.97411 0
M  V30 2868 H 260.286 1.95976 3.81171 0
M  V30 2869 H 264.47 2.9195 4.01346 0
M  V30 2870 H 259.726 4.2907 4.35556 0
M  V30 2871 H 263.9 5.25436 4.57045 0
M  V30 2872 H 261.527 5.9449 4.738 0
M  V30 2873 N 263.102 -1.41638 0.69111 0
M  V30 2874 C 264.032 -2.3347 0.037248 0
M  V30 2875 C 265.013 -1.51575 -0.771947 0
M  V30 2876 O 266.198 -1.80126 -0.72582 0
M  V30 2877 C 263.328 -3.35354 -0.903064 0
M  V30 2878 C 262.282 -4.27526 -0.201288 0
M  V30 2879 C 261.608 -5.19747 -1.25565 0
M  V30 2880 C 262.908 -5.13959 0.929689 0
M  V30 2881 H 264.602 -2.88397 0.804227 0
M  V30 2882 H 262.148 -1.38669 0.388189 0
M  V30 2883 H 264.101 -3.98519 -1.36969 0
M  V30 2884 H 262.825 -2.78767 -1.70166 0
M  V30 2885 H 261.484 -3.65779 0.245265 0
M  V30 2886 H 261.132 -4.59479 -2.04666 0
M  V30 2887 H 260.832 -5.8225 -0.791128 0
M  V30 2888 H 262.356 -5.85789 -1.72288 0
M  V30 2889 H 263.77 -5.70718 0.543546 0
M  V30 2890 H 262.167 -5.85379 1.32103 0
M  V30 2891 H 263.237 -4.51389 1.77133 0
M  V30 2892 N 264.58 -0.43555 -1.51462 0
M  V30 2893 C 265.528 0.391205 -2.29287 0
M  V30 2894 C 266.522 1.02247 -1.35062 0
M  V30 2895 O 267.728 0.957646 -1.52411 0
M  V30 2896 H 264.103 0.144968 -0.737895 0
M  V30 2897 H 266.074 -0.286051 -2.97026 0
M  V30 2898 C 264.823 1.48096 -3.14583 0
M  V30 2899 H 264.146 1.00457 -3.86973 0
M  V30 2900 H 265.586 2.03273 -3.72097 0
M  V30 2901 C 264.045 2.46321 -2.29843 0
M  V30 2902 O 264.575 3.50815 -1.95682 0
M  V30 2903 N 262.781 2.17166 -1.931 0
M  V30 2904 H 262.328 1.32218 -2.21079 0
M  V30 2905 H 262.286 2.83127 -1.36698 0
M  V30 2906 N 266.058 1.56714 -0.166846 0
M  V30 2907 C 267.008 2.14338 0.777382 0
M  V30 2908 C 267.992 1.07642 1.19591 0
M  V30 2909 O 269.184 1.33775 1.15902 0
M  V30 2910 C 266.313 2.78417 2.00846 0
M  V30 2911 C 265.399 3.92264 1.61212 0
M  V30 2912 N 265.79 4.97268 0.925104 0
M  V30 2913 C 264.088 4.03342 1.90346 0
M  V30 2914 C 264.789 5.77093 0.730627 0
M  V30 2915 N 263.765 5.2854 1.27067 0
M  V30 2916 H 267.567 2.9289 0.243466 0
M  V30 2917 H 265.081 1.62364 0.0339954 0
M  V30 2918 H 267.078 3.18073 2.69509 0
M  V30 2919 H 265.738 2.01344 2.54736 0
M  V30 2920 H 266.749 5.14601 0.583646 0
M  V30 2921 H 263.426 3.37368 2.45946 0
M  V30 2922 H 264.816 6.71638 0.187668 0
M  V30 2923 N 267.536 -0.106894 1.57237 0
M  V30 2924 C 268.776 -0.818277 1.87306 0
M  V30 2925 C 269.14 -1.76474 0.756371 0
M  V30 2926 O 270.341 -2.5186 0.939155 0
M  V30 2927 C 268.612 -1.53806 3.22612 0
M  V30 2928 S 270.171 -2.28935 3.74345 0
M  V30 2929 H 266.989 -0.272862 0.656557 0
M  V30 2930 H 269.591 -0.075988 1.95352 0
M  V30 2931 H 268.295 -0.834951 4.01817 0
M  V30 2932 H 267.826 -2.32049 3.17674 0
M  V30 2933 H 269.841 -3.54871 3.46815 0
M  V30 2934 N 269.014 -1.53014 -0.377408 0
M  V30 2935 C 269.944 -1.81589 -1.46791 0
M  V30 2936 C 270.925 -0.668622 -1.56408 0
M  V30 2937 O 272.11 -0.917337 -1.71168 0
M  V30 2938 C 269.24 -1.99519 -2.8427 0
M  V30 2939 C 268.194 -3.15249 -2.89486 0
M  V30 2940 C 267.52 -3.18451 -4.29527 0
M  V30 2941 C 268.82 -4.54084 -2.58079 0
M  V30 2942 H 270.514 -2.7291 -1.23127 0
M  V30 2943 H 268.06 -1.31319 -0.590883 0
M  V30 2944 H 270.013 -2.18092 -3.60575 0
M  V30 2945 H 268.737 -1.04897 -3.09296 0
M  V30 2946 H 267.396 -2.96477 -2.15631 0
M  V30 2947 H 267.044 -2.2149 -4.5161 0
M  V30 2948 H 266.744 -3.962 -4.33934 0
M  V30 2949 H 268.268 -3.39193 -5.07721 0
M  V30 2950 H 269.682 -4.72899 -3.24098 0
M  V30 2951 H 268.079 -5.33987 -2.7382 0
M  V30 2952 H 269.149 -4.60006 -1.53372 0
M  V30 2953 N 270.492 0.636531 -1.44174 0
M  V30 2954 C 271.402 1.77754 -1.53103 0
M  V30 2955 C 272.418 1.68928 -0.417034 0
M  V30 2956 O 273.594 1.89801 -0.6736 0
M  V30 2957 C 270.659 3.14115 -1.46741 0
M  V30 2958 C 269.72 3.34612 -2.68948 0
M  V30 2959 C 268.953 4.64467 -2.6288 0
M  V30 2960 O 269.176 5.44919 -1.68581 0
M  V30 2961 O 268.11 4.87049 -3.53648 0
M  V30 2962 H 271.936 1.73174 -2.49489 0
M  V30 2963 H 269.521 0.79709 -1.2636 0
M  V30 2964 H 271.403 3.95412 -1.45696 0
M  V30 2965 H 270.078 3.19249 -0.534975 0
M  V30 2966 H 268.985 2.53014 -2.75562 0
M  V30 2967 H 270.318 3.34336 -3.61221 0
M  V30 2968 N 271.97 1.30982 0.876444 0
M  V30 2969 C 272.92 1.14688 1.97055 0
M  V30 2970 C 273.904 0.0596593 1.60789 0
M  V30 2971 O 275.096 0.283892 1.74708 0
M  V30 2972 C 272.225 0.849627 3.3262 0
M  V30 2973 C 271.311 1.97752 3.75173 0
M  V30 2974 N 271.702 3.22384 3.89746 0
M  V30 2975 C 270 1.8758 4.04635 0
M  V30 2976 C 270.701 3.96121 4.25985 0
M  V30 2977 N 269.677 3.24237 4.36315 0
M  V30 2978 H 273.479 2.09204 2.06424 0
M  V30 2979 H 270.993 1.22445 1.06682 0
M  V30 2980 H 272.99 0.713895 4.10742 0
M  V30 2981 H 271.65 -0.087376 3.24582 0
M  V30 2982 H 272.661 3.57575 3.74647 0
M  V30 2983 H 269.338 1.01303 4.05024 0
M  V30 2984 H 270.728 5.03491 4.44911 0
M  V30 2985 N 273.449 -1.08991 1.13837 0
M  V30 2986 C 274.379 -2.17771 0.842507 0
M  V30 2987 C 275.36 -1.6892 -0.20001 0
M  V30 2988 O 276.545 -1.94113 -0.0579731 0
M  V30 2989 C 273.675 -3.4589 0.312644 0
M  V30 2990 C 272.629 -4.08099 1.28992 0
M  V30 2991 C 271.955 -5.31098 0.619623 0
M  V30 2992 C 273.255 -4.50077 2.65005 0
M  V30 2993 H 274.949 -2.42777 1.75213 0
M  V30 2994 H 272.495 -1.16682 0.843875 0
M  V30 2995 H 274.448 -4.21297 0.0933043 0
M  V30 2996 H 273.172 -3.20419 -0.632382 0
M  V30 2997 H 271.831 -3.34717 1.49533 0
M  V30 2998 H 271.479 -5.0191 -0.33102 0
M  V30 2999 H 271.179 -5.73674 1.27167 0
M  V30 3000 H 272.703 -6.09224 0.409669 0
M  V30 3001 H 274.117 -5.16688 2.48407 0
M  V30 3002 H 272.514 -5.03553 3.26427 0
M  V30 3003 H 273.584 -3.62257 3.22332 0
M  V30 3004 N 274.927 -0.932562 -1.27047 0
M  V30 3005 C 276.173 -0.576412 -1.94436 0
M  V30 3006 C 276.506 0.880891 -1.73072 0
M  V30 3007 O 275.781 1.62905 -1.06264 0
M  V30 3008 C 276.064 -0.909031 -3.48437 0
M  V30 3009 C 275.917 -2.42044 -3.79123 0
M  V30 3010 C 277.236 -0.418341 -4.38107 0
M  V30 3011 H 274.355 -0.210888 -0.706184 0
M  V30 3012 H 276.997 -1.16522 -1.50075 0
M  V30 3013 H 275.147 -0.407947 -3.86352 0
M  V30 3014 H 276.819 -2.99359 -3.50973 0
M  V30 3015 H 275.062 -2.86758 -3.25503 0
M  V30 3016 H 275.733 -2.6037 -4.86736 0
M  V30 3017 H 278.209 -0.847856 -4.0737 0
M  V30 3018 H 277.085 -0.679981 -5.44672 0
M  V30 3019 H 277.346 0.681642 -4.36814 0
M  V30 3020 N 276.405 1.4127 -0.698611 0
M  V30 3021 C 277.337 2.292 0.00399731 0
M  V30 3022 C 278.35 1.44944 0.741279 0
M  V30 3023 O 279.539 1.68416 0.591477 0
M  V30 3024 C 276.639 3.22875 1.02979 0
M  V30 3025 C 275.812 4.35904 0.36151 0
M  V30 3026 C 274.871 5.10134 1.29033 0
M  V30 3027 O 273.897 5.63809 0.781562 0
M  V30 3028 N 275.099 5.17885 2.6225 0
M  V30 3029 H 277.864 2.9014 -0.750921 0
M  V30 3030 H 275.425 1.52455 -0.544882 0
M  V30 3031 H 277.417 3.69404 1.65296 0
M  V30 3032 H 275.987 2.63221 1.68622 0
M  V30 3033 H 275.207 3.91719 -0.441584 0
M  V30 3034 H 276.495 5.08696 -0.103055 0
M  V30 3035 H 275.893 4.7573 3.061 0
M  V30 3036 H 274.45 5.6798 3.19754 0
M  V30 3037 N 277.883 0.443576 1.51229 0
M  V30 3038 C 279.113 -0.119117 2.06256 0
M  V30 3039 C 279.521 -1.36471 1.31043 0
M  V30 3040 O 278.864 -1.80034 0.365151 0
M  V30 3041 C 278.926 -0.500546 3.55998 0
M  V30 3042 C 278.59 0.639125 4.52509 0
M  V30 3043 C 279.587 1.51311 4.97394 0
M  V30 3044 C 277.272 0.821632 4.95535 0
M  V30 3045 C 279.266 2.55425 5.83984 0
M  V30 3046 C 276.953 1.86603 5.81913 0
M  V30 3047 C 277.951 2.73072 6.26036 0
M  V30 3048 O 277.639 3.75718 7.10698 0
M  V30 3049 H 277.371 -0.00857665 0.675946 0
M  V30 3050 H 279.925 0.623288 1.95715 0
M  V30 3051 H 278.155 -1.29575 3.64345 0
M  V30 3052 H 279.844 -0.995116 3.93513 0
M  V30 3053 H 280.61 1.38367 4.64844 0
M  V30 3054 H 276.489 0.158149 4.60729 0
M  V30 3055 H 280.033 3.22949 6.18344 0
M  V30 3056 H 275.93 1.99564 6.13876 0
M  V30 3057 H 276.698 3.72374 7.2889 0
M  V30 3058 N 279.361 -1.56624 0.175154 0
M  V30 3059 C 280.777 -1.58571 -0.180966 0
M  V30 3060 C 280.977 -1.19065 -1.6256 0
M  V30 3061 O 280.033 -0.904044 -2.35761 0
M  V30 3062 C 281.346 -3.00522 0.103326 0
M  V30 3063 C 282.894 -3.12972 0.0418426 0
M  V30 3064 C 283.369 -4.57022 0.299175 0
M  V30 3065 N 284.86 -4.62541 0.247086 0
M  V30 3066 C 285.595 -5.71857 0.420318 0
M  V30 3067 N 285.091 -6.89717 0.652816 0
M  V30 3068 N 286.884 -5.60972 0.355957 0
M  V30 3069 H 279.035 -1.80589 1.11809 0
M  V30 3070 H 281.298 -0.837178 0.444788 0
M  V30 3071 H 281.004 -3.33916 1.10422 0
M  V30 3072 H 280.878 -3.72344 -0.603299 0
M  V30 3073 H 283.265 -2.79403 -0.949636 0
M  V30 3074 H 283.346 -2.43578 0.781238 0
M  V30 3075 H 282.99 -4.913 1.28788 0
M  V30 3076 H 282.92 -5.24579 -0.460876 0
M  V30 3077 H 285.411 -3.77829 0.0731895 0
M  V30 3078 H 285.724 -7.68911 0.774347 0
M  V30 3079 H 284.069 -6.91572 0.689476 0
M  V30 3080 H 287.26 -4.67773 0.174882 0
M  V30 3081 H 287.433 -6.46111 0.494388 0
M  V30 3082 N 280.839 0.0985539 -1.57292 0
M  V30 3083 C 282.067 0.816318 -1.90115 0
M  V30 3084 C 282.482 1.72451 -0.768509 0
M  V30 3085 O 281.839 1.80643 0.259687 0
M  V30 3086 C 281.89 1.63259 -3.22535 0
M  V30 3087 O 281.611 0.760934 -4.31441 0
M  V30 3088 C 283.112 2.45372 -3.69199 0
M  V30 3089 H 280.332 0.233595 -0.629027 0
M  V30 3090 H 282.876 0.0768229 -2.04356 0
M  V30 3091 H 281.031 2.32463 -3.09903 0
M  V30 3092 H 281.445 1.32595 -5.07463 0
M  V30 3093 H 282.919 2.98144 -4.64558 0
M  V30 3094 H 283.396 3.23677 -2.96867 0
M  V30 3095 H 284.002 1.81373 -3.84687 0
M  V30 3096 N 282.317 1.53212 0.369288 0
M  V30 3097 C 283.594 1.59815 1.12776 0
M  V30 3098 C 283.974 0.403402 2.0721 0
M  V30 3099 O 283.322 -0.606667 2.20299 0
M  V30 3100 C 283.532 2.94664 1.87013 0
M  V30 3101 C 284.88 3.49109 2.41677 0
M  V30 3102 O 285.904 2.96669 1.97144 0
M  V30 3103 O 284.763 4.40775 3.23079 0
M  V30 3104 H 281.857 0.645376 0.517125 0
M  V30 3105 H 284.403 1.65553 0.37285 0
M  V30 3106 H 283.175 3.73061 1.18071 0
M  V30 3107 H 282.798 2.92401 2.69421 0
M  V30 3108 N 283.795 -0.628877 1.44509 0
M  V30 3109 C 285.041 -1.38863 1.48623 0
M  V30 3110 C 285.396 -1.92038 0.117933 0
M  V30 3111 O 284.689 -1.70853 -0.86716 0
M  V30 3112 C 284.883 -2.56995 2.48371 0
M  V30 3113 C 284.712 -2.15385 3.94765 0
M  V30 3114 C 283.482 -2.02558 4.62924 0
M  V30 3115 C 285.68 -1.74158 4.83915 0
M  V30 3116 N 283.662 -1.54534 5.94132 0
M  V30 3117 C 285.033 -1.37396 6.04584 0
M  V30 3118 C 287.088 -1.61559 4.7096 0
M  V30 3119 C 285.791 -0.892948 7.13736 0
M  V30 3120 C 287.817 -1.14862 5.80139 0
M  V30 3121 C 287.179 -0.790516 6.9995 0
M  V30 3122 H 283.278 -0.502858 0.59888 0
M  V30 3123 H 285.862 -0.72121 1.8085 0
M  V30 3124 H 284.033 -3.21362 2.1813 0
M  V30 3125 H 285.765 -3.23801 2.42766 0
M  V30 3126 H 282.52 -2.23082 4.1777 0
M  V30 3127 H 282.944 -1.32815 6.63844 0
M  V30 3128 H 287.586 -1.87876 3.78764 0
M  V30 3129 H 285.304 -0.617291 8.05739 0
M  V30 3130 H 288.89 -1.05569 5.72142 0
M  V30 3131 H 287.77 -0.434713 7.82994 0
M  V30 3132 N 285.273 -1.31445 -0.869486 0
M  V30 3133 C 286.55 -1.11795 -1.60503 0
M  V30 3134 C 286.93 0.327168 -2.08549 0
M  V30 3135 O 286.278 1.32135 -1.8642 0
M  V30 3136 C 286.488 -2.13258 -2.76265 0
M  V30 3137 C 287.836 -2.45805 -3.46215 0
M  V30 3138 O 288.86 -2.11688 -2.86473 0
M  V30 3139 O 287.719 -3.04228 -4.5399 0
M  V30 3140 H 284.813 -0.430421 -0.706163 0
M  V30 3141 H 287.359 -1.42925 -0.914907 0
M  V30 3142 H 286.131 -3.10461 -2.3818 0
M  V30 3143 H 285.754 -1.83035 -3.52964 0
M  V30 3144 N 286.751 1.08385 -1.14413 0
M  V30 3145 C 287.701 2.13509 -0.79987 0
M  V30 3146 C 288.685 1.5951 0.211059 0
M  V30 3147 O 289.877 1.76995 0.0133694 0
M  V30 3148 C 287.006 3.42162 -0.279297 0
M  V30 3149 C 286.092 4.03042 -1.31976 0
M  V30 3150 N 286.483 4.38327 -2.52395 0
M  V30 3151 C 284.781 4.30379 -1.17004 0
M  V30 3152 C 285.482 4.86428 -3.19003 0
M  V30 3153 N 284.458 4.84547 -2.46405 0
M  V30 3154 H 288.26 2.38609 -1.7159 0
M  V30 3155 H 285.774 1.2572 -1.02802 0
M  V30 3156 H 287.771 4.16898 -0.0143688 0
M  V30 3157 H 286.431 3.18511 0.630923 0
M  V30 3158 H 287.442 4.29349 -2.89621 0
M  V30 3159 H 284.119 4.16281 -0.318854 0
M  V30 3160 H 285.509 5.23107 -4.21674 0
M  V30 3161 N 288.23 0.939286 1.26551 0
M  V30 3162 C 289.455 0.602008 1.98471 0
M  V30 3163 C 289.88 -0.815624 1.69497 0
M  V30 3164 O 289.238 -1.54912 0.941905 0
M  V30 3165 C 289.286 0.848407 3.50477 0
M  V30 3166 O 288.39 -0.0804009 4.12322 0
M  V30 3167 H 287.731 0.23049 0.622712 0
M  V30 3168 H 290.261 1.2617 1.61066 0
M  V30 3169 H 290.271 0.768553 4.00696 0
M  V30 3170 H 288.946 1.88171 3.70897 0
M  V30 3171 H 287.523 0.0503508 3.72866 0
M  V30 3172 N 289.708 -1.40897 0.706093 0
M  V30 3173 C 290.954 -2.01849 0.250681 0
M  V30 3174 C 291.309 -1.5496 -1.14041 0
M  V30 3175 O 290.602 -0.755566 -1.76073 0
M  V30 3176 C 290.796 -3.5646 0.259099 0
M  V30 3177 C 290.625 -4.18357 1.64947 0
M  V30 3178 C 289.395 -4.522 2.25485 0
M  V30 3179 C 291.593 -4.43856 2.598 0
M  V30 3180 N 289.575 -4.9944 3.56977 0
M  V30 3181 C 290.946 -4.92986 3.75985 0
M  V30 3182 C 293.001 -4.25882 2.57933 0
M  V30 3183 C 291.704 -5.2603 4.90597 0
M  V30 3184 C 293.73 -4.6002 3.71665 0
M  V30 3185 C 293.092 -5.09331 4.86581 0
M  V30 3186 H 289.191 -0.769843 0.137353 0
M  V30 3187 H 291.775 -1.71278 0.925845 0
M  V30 3188 H 289.946 -3.86481 -0.385592 0
M  V30 3189 H 291.678 -4.04144 -0.21213 0
M  V30 3190 H 288.433 -4.3901 1.77671 0
M  V30 3191 H 288.857 -5.27454 4.24407 0
M  V30 3192 H 293.499 -3.86986 1.70298 0
M  V30 3193 H 291.217 -5.63843 5.78884 0
M  V30 3194 H 294.803 -4.47762 3.71484 0
M  V30 3195 H 293.683 -5.35251 5.73129 0
M  V30 3196 N 291.186 -0.45159 -1.50991 0
M  V30 3197 C 292.414 0.108334 -2.06616 0
M  V30 3198 C 292.829 1.35224 -1.31757 0
M  V30 3199 O 292.186 1.78475 -0.381174 0
M  V30 3200 C 292.237 0.41619 -3.59096 0
M  V30 3201 O 291.958 -0.778361 -4.3113 0
M  V30 3202 C 293.459 1.02523 -4.31282 0
M  V30 3203 H 290.679 0.00159995 -0.670998 0
M  V30 3204 H 293.223 -0.634771 -1.94399 0
M  V30 3205 H 291.378 1.10921 -3.71181 0
M  V30 3206 H 291.792 -0.511181 -5.22003 0
M  V30 3207 H 293.266 1.19053 -5.39009 0
M  V30 3208 H 293.743 2.01013 -3.905 0
M  V30 3209 H 294.349 0.371173 -4.23677 0
M  V30 3210 N 292.664 1.56529 -0.183458 0
M  V30 3211 C 293.574 2.22144 0.754272 0
M  V30 3212 C 294.59 1.21684 1.24374 0
M  V30 3213 O 295.766 1.54385 1.29333 0
M  V30 3214 C 292.831 2.85884 1.96141 0
M  V30 3215 C 291.892 4.01579 1.51765 0
M  V30 3216 C 291.125 4.6227 2.66725 0
M  V30 3217 O 291.348 4.21865 3.83909 0
M  V30 3218 O 290.282 5.51936 2.40104 0
M  V30 3219 H 294.108 3.02861 0.225527 0
M  V30 3220 H 291.693 1.49331 0.0453032 0
M  V30 3221 H 293.575 3.26253 2.66715 0
M  V30 3222 H 292.25 2.08154 2.47899 0
M  V30 3223 H 291.157 3.65856 0.781049 0
M  V30 3224 H 292.49 4.80938 1.04686 0
M  V30 3225 N 294.142 -0.090211 1.57342 0
M  V30 3226 C 295.074 -1.13541 1.99101 0
M  V30 3227 C 296.087 -1.3604 0.894258 0
M  V30 3228 O 297.276 -1.34606 1.17233 0
M  V30 3229 C 294.376 -2.49001 2.29895 0
M  V30 3230 C 293.549 -2.46712 3.61182 0
M  V30 3231 C 292.608 -3.64136 3.79857 0
M  V30 3232 O 291.634 -3.46405 4.51655 0
M  V30 3233 N 292.836 -4.83802 3.20806 0
M  V30 3234 H 295.601 -0.779942 2.89373 0
M  V30 3235 H 293.162 -0.279125 1.59476 0
M  V30 3236 H 295.154 -3.26166 2.39578 0
M  V30 3237 H 293.724 -2.76619 1.45605 0
M  V30 3238 H 292.944 -1.55058 3.62423 0
M  V30 3239 H 294.232 -2.42265 4.4742 0
M  V30 3240 H 293.63 -5.01112 2.62494 0
M  V30 3241 H 292.187 -5.58543 3.35966 0
M  V30 3242 N 295.62 -1.53406 -0.361157 0
M  V30 3243 C 296.845 -1.74024 -1.12829 0
M  V30 3244 C 297.27 -0.470069 -1.82132 0
M  V30 3245 O 296.628 0.57619 -1.719 0
M  V30 3246 C 296.676 -2.90903 -2.13091 0
M  V30 3247 O 295.78 -2.59821 -3.20261 0
M  V30 3248 H 295.121 -0.577804 -0.327168 0
M  V30 3249 H 297.651 -2.00307 -0.41693 0
M  V30 3250 H 297.661 -3.17194 -2.56616 0
M  V30 3251 H 296.336 -3.83034 -1.62042 0
M  V30 3252 H 294.913 -2.44362 -2.81677 0
M  V30 3253 N 297.098 0.621204 -1.44841 0
M  V30 3254 C 298.344 1.3826 -1.48365 0
M  V30 3255 C 298.677 1.93831 -0.119624 0
M  V30 3256 O 297.952 1.74251 0.864111 0
M  V30 3257 C 298.235 2.54058 -2.55199 0
M  V30 3258 C 298.088 2.03772 -4.00995 0
M  V30 3259 C 299.407 3.56225 -2.58442 0
M  V30 3260 H 296.526 0.501374 -0.540179 0
M  V30 3261 H 299.168 0.7015 -1.76576 0
M  V30 3262 H 297.318 3.12162 -2.31274 0
M  V30 3263 H 298.99 1.50423 -4.36086 0
M  V30 3264 H 297.233 1.34876 -4.12299 0
M  V30 3265 H 297.904 2.87185 -4.71411 0
M  V30 3266 H 300.38 3.07939 -2.79844 0
M  V30 3267 H 299.256 4.34756 -3.3508 0
M  V30 3268 H 299.517 4.10949 -1.63013 0
M  V30 3269 N 298.576 1.31904 0.862503 0
M  V30 3270 C 299.853 1.12644 1.59908 0
M  V30 3271 C 300.233 -0.316104 2.0872 0
M  V30 3272 O 299.581 -1.31145 1.87118 0
M  V30 3273 C 299.791 2.1472 2.7513 0
M  V30 3274 C 301.139 2.47637 3.44907 0
M  V30 3275 O 302.163 2.13205 2.85346 0
M  V30 3276 O 301.022 3.06632 4.52371 0
M  V30 3277 H 298.116 0.43416 0.703871 0
M  V30 3278 H 300.662 1.43408 0.907314 0
M  V30 3279 H 299.434 3.1172 2.3653 0
M  V30 3280 H 299.057 1.84905 3.51989 0
M  V30 3281 N 300.054 -1.07777 1.14986 0
M  V30 3282 C 301.284 -1.83752 0.944402 0
M  V30 3283 C 301.692 -1.8218 -0.51058 0
M  V30 3284 O 301.035 -1.22852 -1.36576 0
M  V30 3285 C 301.097 -3.32128 1.37592 0
M  V30 3286 C 300.761 -3.57425 2.84775 0
M  V30 3287 C 301.758 -3.5173 3.8286 0
M  V30 3288 C 299.443 -3.8523 3.2234 0
M  V30 3289 C 301.437 -3.73482 5.16517 0
M  V30 3290 C 299.124 -4.06634 4.56171 0
M  V30 3291 C 300.122 -4.00754 5.53069 0
M  V30 3292 O 299.81 -4.2159 6.84483 0
M  V30 3293 H 299.542 -0.58673 0.335744 0
M  V30 3294 H 302.096 -1.36982 1.53052 0
M  V30 3295 H 300.326 -3.79686 0.733165 0
M  V30 3296 H 302.015 -3.89555 1.14024 0
M  V30 3297 H 302.781 -3.30256 3.55184 0
M  V30 3298 H 298.66 -3.88923 2.47508 0
M  V30 3299 H 302.204 -3.68808 5.92137 0
M  V30 3300 H 298.101 -4.27593 4.83564 0
M  V30 3301 H 298.869 -4.38961 6.90837 0
M  V30 3302 N 301.532 -0.945985 -1.26051 0
M  V30 3303 C 302.948 -0.649045 -1.45807 0
M  V30 3304 C 303.148 0.796158 -1.85104 0
M  V30 3305 O 302.204 1.57233 -1.97571 0
M  V30 3306 C 303.517 -1.61458 -2.53677 0
M  V30 3307 C 305.065 -1.62481 -2.67524 0
M  V30 3308 C 305.54 -2.57776 -3.7857 0
M  V30 3309 N 307.031 -2.5609 -3.85969 0
M  V30 3310 C 307.766 -3.26508 -4.7136 0
M  V30 3311 N 307.262 -4.0637 -5.61102 0
M  V30 3312 N 309.055 -3.15437 -4.65248 0
M  V30 3313 H 301.206 -1.88005 -0.988328 0
M  V30 3314 H 303.469 -0.808198 -0.4955 0
M  V30 3315 H 303.175 -2.64644 -2.31638 0
M  V30 3316 H 303.049 -1.37036 -3.51427 0
M  V30 3317 H 305.436 -0.600167 -2.88933 0
M  V30 3318 H 305.517 -1.90958 -1.70202 0
M  V30 3319 H 305.161 -3.60361 -3.57913 0
M  V30 3320 H 305.091 -2.26587 -4.75359 0
M  V30 3321 H 307.582 -1.98105 -3.21812 0
M  V30 3322 H 307.895 -4.57042 -6.23164 0
M  V30 3323 H 306.24 -4.10469 -5.60839 0
M  V30 3324 H 309.431 -2.52525 -3.94143 0
M  V30 3325 H 309.604 -3.70584 -5.31575 0
M  V30 3326 N 303.011 1.40521 -0.713556 0
M  V30 3327 C 303.961 2.27971 -0.036165 0
M  V30 3328 C 304.945 1.43151 0.734623 0
M  V30 3329 O 306.137 1.66261 0.607158 0
M  V30 3330 C 303.266 3.31661 0.886331 0
M  V30 3331 C 302.352 4.23955 0.110836 0
M  V30 3332 N 302.743 4.97641 -0.904847 0
M  V30 3333 C 301.041 4.44674 0.343692 0
M  V30 3334 C 301.742 5.65322 -1.37064 0
M  V30 3335 N 300.718 5.39162 -0.693168 0
M  V30 3336 H 304.52 2.82384 -0.814645 0
M  V30 3337 H 302.034 1.52948 -0.545963 0
M  V30 3338 H 304.031 3.93154 1.38692 0
M  V30 3339 H 302.691 2.78808 1.66421 0
M  V30 3340 H 303.702 5.01689 -1.28563 0
M  V30 3341 H 300.379 4.02801 1.09805 0
M  V30 3342 H 301.769 6.34359 -2.21447 0
M  V30 3343 N 304.489 0.459591 1.5075 0
M  V30 3344 C 305.436 -0.340524 2.28274 0
M  V30 3345 C 306.406 -0.997371 1.32822 0
M  V30 3346 O 307.591 -1.01202 1.61749 0
M  V30 3347 C 304.731 -1.42317 3.14388 0
M  V30 3348 C 303.844 -0.782251 4.24859 0
M  V30 3349 C 302.979 -1.84182 4.98247 0
M  V30 3350 C 302.018 -1.18053 6.00608 0
M  V30 3351 N 301.155 -2.18244 6.67319 0
M  V30 3352 H 305.995 0.326899 2.96202 0
M  V30 3353 H 303.532 0.173057 1.46078 0
M  V30 3354 H 305.49 -2.06241 3.62658 0
M  V30 3355 H 304.12 -2.05992 2.4853 0
M  V30 3356 H 303.172 -0.0307404 3.80388 0
M  V30 3357 H 304.484 -0.259663 4.98124 0
M  V30 3358 H 303.638 -2.55714 5.50177 0
M  V30 3359 H 302.377 -2.39819 4.24662 0
M  V30 3360 H 301.382 -0.450776 5.47949 0
M  V30 3361 H 302.607 -0.631202 6.7616 0
M  V30 3362 H 300.553 -2.72919 5.96533 0
M  V30 3363 H 300.47 -1.70938 7.36421 0
M  V30 3364 H 301.738 -2.89191 7.23871 0
M  V30 3365 N 305.967 -1.56429 0.191757 0
M  V30 3366 C 307.214 -1.97485 -0.447891 0
M  V30 3367 C 307.542 -1.07852 -1.61859 0
M  V30 3368 O 306.797 -0.116903 -1.95351 0
M  V30 3369 C 307.096 -3.44449 -0.953384 0
M  V30 3370 C 306.762 -4.50781 0.103586 0
M  V30 3371 C 305.424 -4.79584 0.394023 0
M  V30 3372 C 307.776 -5.1471 0.819946 0
M  V30 3373 C 305.104 -5.69607 1.40585 0
M  V30 3374 C 307.456 -6.05827 1.8209 0
M  V30 3375 C 306.12 -6.32987 2.11857 0
M  V30 3376 H 305.39 -0.722648 -0.163895 0
M  V30 3377 H 308.037 -1.89322 0.28802 0
M  V30 3378 H 306.342 -3.49666 -1.76751 0
M  V30 3379 H 308.039 -3.73569 -1.45765 0
M  V30 3380 H 304.629 -4.28394 -0.132951 0
M  V30 3381 H 308.813 -4.92552 0.608789 0
M  V30 3382 H 304.069 -5.88926 1.64243 0
M  V30 3383 H 308.243 -6.54424 2.38123 0
M  V30 3384 H 305.87 -7.02544 2.90407 0
M  V30 3385 N 307.445 0.0818655 -1.57387 0
M  V30 3386 C 308.67 0.799946 -1.91352 0
M  V30 3387 C 309.095 1.70833 -0.787258 0
M  V30 3388 O 308.453 1.79419 0.26048 0
M  V30 3389 C 308.501 1.57812 -3.24234 0
M  V30 3390 O 307.605 2.68806 -3.12757 0
M  V30 3391 H 306.946 0.21891 -0.626877 0
M  V30 3392 H 309.476 0.0531256 -2.04531 0
M  V30 3393 H 309.486 1.95952 -3.57864 0
M  V30 3394 H 308.161 0.911548 -4.05788 0
M  V30 3395 H 306.738 2.33597 -2.90666 0
M  V30 3396 N 308.923 1.53595 0.353017 0
M  V30 3397 C 309.853 1.83902 1.43883 0
M  V30 3398 C 310.834 0.693421 1.55324 0
M  V30 3399 O 312.019 0.944452 1.69687 0
M  V30 3400 C 309.149 2.04016 2.8106 0
M  V30 3401 C 308.103 3.19814 2.84434 0
M  V30 3402 C 307.429 3.25244 4.24406 0
M  V30 3403 C 308.729 4.58133 2.50822 0
M  V30 3404 H 310.423 2.74835 1.1877 0
M  V30 3405 H 307.969 1.32242 0.569917 0
M  V30 3406 H 309.922 2.238 3.57059 0
M  V30 3407 H 308.646 1.09804 3.07588 0
M  V30 3408 H 307.305 2.9987 2.10887 0
M  V30 3409 H 306.953 2.28646 4.48029 0
M  V30 3410 H 306.653 4.03054 4.27576 0
M  V30 3411 H 308.177 3.47228 5.0226 0
M  V30 3412 H 309.591 4.77995 3.16534 0
M  V30 3413 H 307.988 5.38276 2.6529 0
M  V30 3414 H 309.058 4.62387 1.46034 0
M  V30 3415 N 310.401 -0.613514 1.45168 0
M  V30 3416 C 311.812 -1.19539 1.43413 0
M  V30 3417 C 312.163 -1.95558 0.158632 0
M  V30 3418 O 311.288 -2.0335 -0.740119 0
M  V30 3419 C 311.883 -2.17445 2.59813 0
M  V30 3420 C 310.442 -2.71022 2.61197 0
M  V30 3421 C 309.589 -1.46323 2.35552 0
M  V30 3422 H 312.54 -0.403163 1.53494 0
M  V30 3423 H 312.561 -3.00373 2.33574 0
M  V30 3424 H 312.073 -1.62089 3.52631 0
M  V30 3425 H 310.174 -3.30332 1.7237 0
M  V30 3426 H 310.287 -3.15859 3.60236 0
M  V30 3427 H 308.651 -1.75072 1.84992 0
M  V30 3428 H 309.434 -0.92844 3.30507 0
M  V30 3429 N 311.879 -1.3236 -0.855495 0
M  V30 3430 C 313.104 -1.2601 -1.64731 0
M  V30 3431 C 313.529 0.169068 -1.87339 0
M  V30 3432 O 312.887 1.12016 -1.42556 0
M  V30 3433 C 312.935 -2.02417 -2.98429 0
M  V30 3434 O 312.039 -1.3714 -3.8893 0
M  V30 3435 H 311.38 -0.434325 -0.502253 0
M  V30 3436 H 313.91 -1.74661 -1.06558 0
M  V30 3437 H 313.92 -2.12559 -3.48257 0
M  V30 3438 H 312.595 -3.06343 -2.81295 0
M  V30 3439 H 311.172 -1.3554 -3.47395 0
M  V30 3440 N 313.357 1.07166 -1.15556 0
M  V30 3441 C 314.603 1.80065 -0.932984 0
M  V30 3442 C 314.936 1.86586 0.53845 0
M  V30 3443 O 314.211 1.35098 1.39924 0
M  V30 3444 C 314.494 3.25022 -1.55025 0
M  V30 3445 C 314.347 3.26634 -3.09242 0
M  V30 3446 C 315.666 4.22341 -1.2376 0
M  V30 3447 H 312.785 0.653697 -0.340366 0
M  V30 3448 H 315.427 1.25389 -1.4275 0
M  V30 3449 H 313.577 3.71712 -1.12972 0
M  V30 3450 H 315.249 2.88173 -3.60214 0
M  V30 3451 H 313.492 2.65539 -3.43033 0
M  V30 3452 H 314.163 4.28854 -3.47546 0
M  V30 3453 H 316.639 3.8405 -1.60139 0
M  V30 3454 H 315.515 5.22053 -1.69564 0
M  V30 3455 H 315.776 4.41828 -0.154938 0
M  V30 3456 N 314.835 0.952656 1.25548 0
M  V30 3457 C 316.112 0.523818 1.88456 0
M  V30 3458 C 316.492 -0.998871 1.85973 0
M  V30 3459 O 315.84 -1.86381 1.3219 0
M  V30 3460 C 316.05 1.0982 3.31271 0
M  V30 3461 C 317.398 1.17385 4.08051 0
M  V30 3462 O 318.422 1.04961 3.40384 0
M  V30 3463 O 317.281 1.36852 5.29088 0
M  V30 3464 H 314.375 0.172485 0.808813 0
M  V30 3465 H 316.921 1.04596 1.33633 0
M  V30 3466 H 315.693 2.1415 3.27499 0
M  V30 3467 H 315.316 0.559191 3.93648 0
M  V30 3468 N 316.313 -1.40141 0.720998 0
M  V30 3469 C 317.561 -2.0039 0.262323 0
M  V30 3470 C 317.882 -1.57469 -1.15015 0
M  V30 3471 O 317.152 -0.816582 -1.78069 0
M  V30 3472 H 315.732 -0.741063 0.093996 0
M  V30 3473 H 318.394 -1.71398 0.927835 0
M  V30 3474 H 317.49 -3.10658 0.299671 0
M  V30 3475 N 317.792 -0.46758 -1.50504 0
M  V30 3476 C 318.724 0.364655 -2.26281 0
M  V30 3477 C 319.737 0.960151 -1.31472 0
M  V30 3478 O 320.926 0.849153 -1.57008 0
M  V30 3479 C 318.026 1.52509 -3.02645 0
M  V30 3480 C 317.199 1.04302 -4.24782 0
M  V30 3481 C 316.258 2.07709 -4.8347 0
M  V30 3482 O 315.284 1.65913 -5.44483 0
M  V30 3483 N 316.486 3.40485 -4.70159 0
M  V30 3484 H 319.251 -0.28495 -2.98342 0
M  V30 3485 H 316.812 -0.298163 -1.59131 0
M  V30 3486 H 318.804 2.21371 -3.38787 0
M  V30 3487 H 317.374 2.07945 -2.33404 0
M  V30 3488 H 316.594 0.180393 -3.93787 0
M  V30 3489 H 317.882 0.698798 -5.03978 0
M  V30 3490 H 317.28 3.77155 -4.21629 0
M  V30 3491 H 315.837 4.05156 -5.1058 0
M  V30 3492 N 319.27 1.56325 -0.20005 0
M  V30 3493 C 320.217 2.1932 0.718833 0
M  V30 3494 C 321.187 1.14198 1.20615 0
M  V30 3495 O 322.372 1.42469 1.26914 0
M  V30 3496 C 319.512 2.86041 1.93066 0
M  V30 3497 C 318.625 4.05702 1.48425 0
M  V30 3498 C 317.76 4.60266 2.65196 0
M  V30 3499 C 316.799 5.72273 2.17185 0
M  V30 3500 N 315.936 6.21221 3.27152 0
M  V30 3501 H 320.776 2.97486 0.17489 0
M  V30 3502 H 318.313 1.46911 0.0745794 0
M  V30 3503 H 320.271 3.22897 2.64184 0
M  V30 3504 H 318.901 2.1043 2.44783 0
M  V30 3505 H 317.953 3.74475 0.668755 0
M  V30 3506 H 319.265 4.86699 1.09204 0
M  V30 3507 H 318.419 4.99453 3.4443 0
M  V30 3508 H 317.158 3.78386 3.07693 0
M  V30 3509 H 316.163 5.3261 1.36407 0
M  V30 3510 H 317.388 6.55974 1.75713 0
M  V30 3511 H 315.334 5.42263 3.69171 0
M  V30 3512 H 315.251 6.97284 2.92116 0
M  V30 3513 H 316.519 6.65063 4.06585 0
M  V30 3514 N 320.748 -0.0735177 1.57428 0
M  V30 3515 C 322.164 -0.428264 1.53747 0
M  V30 3516 C 322.364 -1.79272 0.91998 0
M  V30 3517 O 321.42 -2.47051 0.521745 0
M  V30 3518 C 322.733 -0.370914 2.98404 0
M  V30 3519 C 324.281 -0.451224 3.0973 0
M  V30 3520 C 324.756 -0.4238 4.56035 0
M  V30 3521 N 326.247 -0.483925 4.60665 0
M  V30 3522 C 326.982 -0.484891 5.71346 0
M  V30 3523 N 326.478 -0.440775 6.91396 0
M  V30 3524 N 328.271 -0.531319 5.59583 0
M  V30 3525 H 320.422 0.819949 1.95935 0
M  V30 3526 H 322.685 0.307493 0.896745 0
M  V30 3527 H 322.391 0.564956 3.47133 0
M  V30 3528 H 322.265 -1.18176 3.5821 0
M  V30 3529 H 324.652 -1.37752 2.60976 0
M  V30 3530 H 324.733 0.388167 2.52838 0
M  V30 3531 H 324.377 0.498638 5.05446 0
M  V30 3532 H 324.307 -1.2807 5.10789 0
M  V30 3533 H 326.798 -0.522338 3.74273 0
M  V30 3534 H 327.111 -0.44539 7.71515 0
M  V30 3535 H 325.456 -0.40749 6.93804 0
M  V30 3536 H 328.647 -0.563464 4.64696 0
M  V30 3537 H 328.82 -0.528603 6.4584 0
M  V30 3538 N 322.226 -1.5378 -0.344866 0
M  V30 3539 C 323.456 -1.74646 -1.10374 0
M  V30 3540 C 323.864 -0.48491 -1.8288 0
M  V30 3541 O 323.207 0.553062 -1.75177 0
M  V30 3542 C 323.269 -2.87145 -2.16306 0
M  V30 3543 C 322.933 -4.26795 -1.63386 0
M  V30 3544 C 323.93 -5.08412 -1.08688 0
M  V30 3545 C 321.615 -4.73276 -1.68272 0
M  V30 3546 C 323.609 -6.34609 -0.595792 0
M  V30 3547 C 321.296 -5.99446 -1.18776 0
M  V30 3548 C 322.294 -6.79946 -0.645215 0
M  V30 3549 O 321.982 -8.03745 -0.157626 0
M  V30 3550 H 321.714 -0.587112 -0.335075 0
M  V30 3551 H 324.268 -2.01403 -0.403252 0
M  V30 3552 H 322.498 -2.55909 -2.89909 0
M  V30 3553 H 324.187 -2.95992 -2.77747 0
M  V30 3554 H 324.953 -4.73666 -1.04236 0
M  V30 3555 H 320.832 -4.10677 -2.09442 0
M  V30 3556 H 324.376 -6.97389 -0.171654 0
M  V30 3557 H 320.273 -6.33687 -1.22928 0
M  V30 3558 H 321.041 -8.18038 -0.275037 0
M  V30 3559 N 323.704 0.605807 -1.45491 0
M  V30 3560 C 324.932 1.39136 -1.5313 0
M  V30 3561 C 325.347 1.88082 -0.164507 0
M  V30 3562 O 324.704 1.62316 0.834247 0
M  V30 3563 C 324.755 2.59463 -2.51716 0
M  V30 3564 O 324.476 2.12551 -3.83084 0
M  V30 3565 C 325.977 3.52301 -2.6907 0
M  V30 3566 H 323.197 0.425849 -0.51855 0
M  V30 3567 H 325.741 0.73865 -1.90694 0
M  V30 3568 H 323.896 3.20772 -2.17219 0
M  V30 3569 H 324.31 2.90744 -4.36541 0
M  V30 3570 H 325.784 4.33271 -3.42024 0
M  V30 3571 H 326.261 4.02757 -1.75167 0
M  V30 3572 H 326.867 2.96845 -3.04571 0
M  V30 3573 N 325.182 1.32811 0.848464 0
M  V30 3574 C 326.429 1.23724 1.60308 0
M  V30 3575 C 326.757 -0.1994 1.93475 0
M  V30 3576 O 326.012 -1.15406 1.5805 0
M  V30 3577 C 326.311 2.04831 2.92881 0
M  V30 3578 C 325.977 3.54125 2.79117 0
M  V30 3579 C 324.639 3.94829 2.7507 0
M  V30 3580 C 326.991 4.49036 2.64606 0
M  V30 3581 C 324.319 5.28675 2.544 0
M  V30 3582 C 326.671 5.83033 2.4547 0
M  V30 3583 C 325.335 6.22931 2.39819 0
M  V30 3584 H 324.605 0.452737 0.586609 0
M  V30 3585 H 327.252 1.64301 0.983743 0
M  V30 3586 H 325.557 1.57001 3.58968 0
M  V30 3587 H 327.254 1.95164 3.50303 0
M  V30 3588 H 323.844 3.21801 2.83094 0
M  V30 3589 H 328.028 4.18505 2.66772 0
M  V30 3590 H 323.284 5.58637 2.48465 0
M  V30 3591 H 327.458 6.56186 2.33222 0
M  V30 3592 H 325.085 7.26584 2.23562 0
M  V30 3593 N 326.66 -1.06551 1.16123 0
M  V30 3594 C 328.076 -1.3142 0.905585 0
M  V30 3595 C 328.276 -1.96571 -0.442964 0
M  V30 3596 O 327.332 -2.23068 -1.18308 0
M  V30 3597 C 328.645 -2.19741 2.05267 0
M  V30 3598 C 330.193 -2.33165 2.08813 0
M  V30 3599 C 330.668 -3.24838 3.22868 0
M  V30 3600 N 332.159 -3.32421 3.22568 0
M  V30 3601 C 332.894 -4.0344 4.0746 0
M  V30 3602 N 332.39 -4.77003 5.02434 0
M  V30 3603 N 334.183 -3.99464 3.95456 0
M  V30 3604 H 326.334 -0.626548 2.02949 0
M  V30 3605 H 328.597 -0.338777 0.8854 0
M  V30 3606 H 328.303 -1.79142 3.02657 0
M  V30 3607 H 328.177 -3.20313 1.99198 0
M  V30 3608 H 330.564 -2.73013 1.12018 0
M  V30 3609 H 330.645 -1.3227 2.18948 0
M  V30 3610 H 330.289 -2.85708 4.19921 0
M  V30 3611 H 330.219 -4.25707 3.0997 0
M  V30 3612 H 332.71 -2.79994 2.53795 0
M  V30 3613 H 333.023 -5.28712 5.63634 0
M  V30 3614 H 331.368 -4.75992 5.06415 0
M  V30 3615 H 334.559 -3.4111 3.20564 0
M  V30 3616 H 334.732 -4.54544 4.61837 0
M  V30 3617 N 328.138 -0.959301 -1.25041 0
M  V30 3618 C 329.384 -0.617525 -1.9317 0
M  V30 3619 C 329.717 0.843981 -1.74902 0
M  V30 3620 O 328.992 1.60615 -1.09696 0
M  V30 3621 C 329.275 -0.982736 -3.46431 0
M  V30 3622 C 329.128 -2.50032 -3.73904 0
M  V30 3623 C 330.447 -0.511176 -4.37121 0
M  V30 3624 H 327.566 -0.22582 -0.701552 0
M  V30 3625 H 330.208 -1.19679 -1.4757 0
M  V30 3626 H 328.358 -0.489806 -3.854 0
M  V30 3627 H 330.03 -3.06737 -3.44544 0
M  V30 3628 H 328.273 -2.93598 -3.19348 0
M  V30 3629 H 328.944 -2.70635 -4.81103 0
M  V30 3630 H 331.42 -0.934075 -4.0548 0
M  V30 3631 H 330.296 -0.795361 -5.43107 0
M  V30 3632 H 330.557 0.588834 -4.38161 0
M  V30 3633 N 329.616 1.39756 -0.72842 0
M  V30 3634 C 331.032 1.5442 -0.403308 0
M  V30 3635 C 331.232 1.69694 1.08656 0
M  V30 3636 O 330.288 1.69373 1.87267 0
M  V30 3637 C 331.601 2.76555 -1.18058 0
M  V30 3638 C 333.149 2.90384 -1.16815 0
M  V30 3639 C 333.624 4.15449 -1.92785 0
M  V30 3640 N 335.115 4.22475 -1.89918 0
M  V30 3641 C 335.85 5.1818 -2.45514 0
M  V30 3642 N 335.346 6.19714 -3.09719 0
M  V30 3643 N 337.139 5.1035 -2.35584 0
M  V30 3644 H 329.29 1.28089 -1.69431 0
M  V30 3645 H 331.553 0.620327 -0.716867 0
M  V30 3646 H 331.259 2.7159 -2.23455 0
M  V30 3647 H 331.133 3.69033 -0.780662 0
M  V30 3648 H 333.52 2.94846 -0.12234 0
M  V30 3649 H 333.601 1.98988 -1.6074 0
M  V30 3650 H 333.245 4.11749 -2.97364 0
M  V30 3651 H 333.175 5.05877 -1.46272 0
M  V30 3652 H 335.666 3.49743 -1.43138 0
M  V30 3653 H 335.979 6.8919 -3.49625 0
M  V30 3654 H 334.324 6.20121 -3.13807 0
M  V30 3655 H 337.515 4.2996 -1.85072 0
M  V30 3656 H 337.688 5.84761 -2.79211 0
M  V30 3657 N 331.094 0.475555 1.50254 0
M  V30 3658 C 332.319 -0.0777042 2.07254 0
M  V30 3659 C 332.744 -1.3235 1.3366 0
M  V30 3660 O 332.102 -1.77152 0.385597 0
M  V30 3661 C 332.15 -0.340169 3.58992 0
M  V30 3662 O 331.254 -1.41982 3.87188 0
M  V30 3663 H 330.595 0.0149556 0.663832 0
M  V30 3664 H 333.125 0.667878 1.93392 0
M  V30 3665 H 333.135 -0.579332 4.03866 0
M  V30 3666 H 331.81 0.570167 4.11973 0
M  V30 3667 H 330.387 -1.16762 3.54148 0
M  V30 3668 N 332.573 -1.56217 0.208337 0
M  V30 3669 C 333.989 -1.58919 -0.14729 0
M  V30 3670 C 334.189 -1.22486 -1.59998 0
M  V30 3671 O 333.245 -0.953849 -2.3379 0
M  V30 3672 C 334.558 -3.00236 0.167048 0
M  V30 3673 C 336.106 -3.12813 0.108219 0
M  V30 3674 C 336.581 -4.56284 0.396049 0
M  V30 3675 N 338.072 -4.61912 0.345142 0
M  V30 3676 C 338.807 -5.70837 0.541523 0
M  V30 3677 N 338.303 -6.88178 0.798968 0
M  V30 3678 N 340.096 -5.60091 0.474867 0
M  V30 3679 H 332.247 -1.78177 1.15614 0
M  V30 3680 H 334.51 -0.827555 0.462446 0
M  V30 3681 H 334.216 -3.31499 1.1748 0
M  V30 3682 H 334.09 -3.7354 -0.524184 0
M  V30 3683 H 336.477 -2.81354 -0.890157 0
M  V30 3684 H 336.558 -2.41866 0.832729 0
M  V30 3685 H 336.202 -4.88458 1.3918 0
M  V30 3686 H 336.132 -5.25439 -0.349502 0
M  V30 3687 H 338.623 -3.77589 0.153316 0
M  V30 3688 H 338.936 -7.67095 0.93727 0
M  V30 3689 H 337.281 -6.89953 0.836013 0
M  V30 3690 H 340.472 -4.67297 0.274064 0
M  V30 3691 H 340.645 -6.44917 0.631326 0
M  V30 3692 N 334.051 0.0651679 -1.57465 0
M  V30 3693 C 335.298 0.763063 -1.87573 0
M  V30 3694 C 335.626 1.77242 -0.800961 0
M  V30 3695 O 334.881 1.94651 0.202316 0
M  V30 3696 C 335.18 1.50081 -3.24362 0
M  V30 3697 C 334.846 0.630816 -4.46466 0
M  V30 3698 C 333.508 0.391082 -4.79608 0
M  V30 3699 C 335.86 0.0279465 -5.21193 0
M  V30 3700 C 333.188 -0.460894 -5.84887 0
M  V30 3701 C 335.54 -0.811522 -6.27373 0
M  V30 3702 C 334.204 -1.06106 -6.59013 0
M  V30 3703 H 333.474 0.279224 -0.686378 0
M  V30 3704 H 336.121 0.0236726 -1.91485 0
M  V30 3705 H 334.426 2.31258 -3.16271 0
M  V30 3706 H 336.123 2.04571 -3.44894 0
M  V30 3707 H 332.713 0.8278 -4.2053 0
M  V30 3708 H 336.897 0.200262 -4.95896 0
M  V30 3709 H 332.153 -0.662907 -6.07796 0
M  V30 3710 H 336.327 -1.28537 -6.84435 0
M  V30 3711 H 333.954 -1.723 -7.40417 0
M  V30 3712 N 335.529 1.53961 0.336706 0
M  V30 3713 C 336.477 1.83136 1.43401 0
M  V30 3714 C 337.471 0.702313 1.54156 0
M  V30 3715 O 338.677 0.885765 1.56698 0
M  V30 3716 H 335.052 0.580309 0.478273 0
M  V30 3717 H 337.023 2.74925 1.16012 0
M  V30 3718 C 335.772 2.06385 2.79822 0
M  V30 3719 H 335.095 2.92718 2.72316 0
M  V30 3720 H 336.535 2.30761 3.55704 0
M  V30 3721 C 334.994 0.851414 3.25964 0
M  V30 3722 O 335.524 0.0541904 4.01663 0
M  V30 3723 N 333.73 0.66672 2.82848 0
M  V30 3724 H 333.277 1.31665 2.21409 0
M  V30 3725 H 333.235 -0.143032 3.14074 0
M  V30 3726 N 337.007 -0.598083 1.45811 0
M  V30 3727 C 338.418 -1.18011 1.44673 0
M  V30 3728 C 338.769 -1.95378 0.179364 0
M  V30 3729 O 337.894 -2.04124 -0.718509 0
M  V30 3730 C 338.489 -2.14677 2.62105 0
M  V30 3731 C 337.048 -2.68236 2.64057 0
M  V30 3732 C 336.195 -1.43816 2.37091 0
M  V30 3733 H 339.146 -0.38686 1.53913 0
M  V30 3734 H 339.167 -2.97878 2.36746 0
M  V30 3735 H 338.679 -1.5834 3.5433 0
M  V30 3736 H 336.78 -3.28486 1.75864 0
M  V30 3737 H 336.893 -3.12021 3.63566 0
M  V30 3738 H 335.257 -1.731 1.86838 0
M  V30 3739 H 336.04 -0.893333 3.31473 0
M  V30 3740 N 338.485 -1.33259 -0.841409 0
M  V30 3741 C 339.415 -1.25926 -1.96634 0
M  V30 3742 C 340.396 -0.140349 -1.6952 0
M  V30 3743 O 341.581 -0.329707 -1.91381 0
M  V30 3744 C 338.711 -0.99512 -3.32738 0
M  V30 3745 C 337.665 -2.0767 -3.74242 0
M  V30 3746 C 336.991 -1.66474 -5.08125 0
M  V30 3747 C 338.291 -3.49318 -3.88297 0
M  V30 3748 H 339.985 -2.20046 -2.03027 0
M  V30 3749 H 337.531 -1.05931 -0.975425 0
M  V30 3750 H 339.484 -0.930323 -4.11002 0
M  V30 3751 H 338.208 -0.0183004 -3.26595 0
M  V30 3752 H 336.867 -2.13187 -2.98239 0
M  V30 3753 H 336.515 -0.675012 -4.9845 0
M  V30 3754 H 336.215 -2.3885 -5.36865 0
M  V30 3755 H 337.739 -1.61455 -5.88867 0
M  V30 3756 H 339.153 -3.46316 -4.56879 0
M  V30 3757 H 337.55 -4.20158 -4.28471 0
M  V30 3758 H 338.62 -3.8801 -2.9082 0
M  V30 3759 N 339.963 1.05934 -1.16686 0
M  V30 3760 C 341.203 1.80382 -0.961345 0
M  V30 3761 C 341.567 1.85331 0.501643 0
M  V30 3762 O 342.768 2.55795 0.825986 0
M  V30 3763 C 341.039 3.20777 -1.57596 0
M  V30 3764 S 342.598 4.11795 -1.51559 0
M  V30 3765 H 339.416 0.621332 -0.345641 0
M  V30 3766 H 342.018 1.27157 -1.48497 0
M  V30 3767 H 340.722 3.14773 -2.63337 0
M  V30 3768 H 340.253 3.79078 -1.05182 0
M  V30 3769 H 342.268 4.93485 -0.518374 0
M  V30 3770 N 341.441 0.965919 1.2453 0
M  V30 3771 C 342.689 0.625593 1.92174 0
M  V30 3772 C 343.01 -0.841652 1.75901 0
M  V30 3773 O 342.28 -1.60061 1.12948 0
M  V30 3774 H 340.86 0.228388 0.71123 0
M  V30 3775 H 343.522 1.2266 1.51461 0
M  V30 3776 H 342.618 0.864653 2.99884 0
M  V30 3777 N 342.919 -1.39368 0.735821 0
M  V30 3778 C 344.144 -2.05319 0.293052 0
M  V30 3779 C 344.569 -1.55115 -1.064 0
M  V30 3780 O 343.927 -0.695261 -1.67439 0
M  V30 3781 C 343.975 -3.59305 0.305323 0
M  V30 3782 O 343.079 -4.06299 -0.706761 0
M  V30 3783 H 342.42 -0.650529 0.13307 0
M  V30 3784 H 344.95 -1.78386 1.00197 0
M  V30 3785 H 344.96 -4.07724 0.149997 0
M  V30 3786 H 343.635 -3.95207 1.29553 0
M  V30 3787 H 342.212 -3.69292 -0.517504 0
M  V30 3788 N 344.397 -0.483516 -1.5 0
M  V30 3789 C 345.36 0.292965 -2.2732 0
M  V30 3790 C 346.36 0.909499 -1.32608 0
M  V30 3791 O 347.55 0.776745 -1.55924 0
M  V30 3792 C 344.682 1.41854 -3.09984 0
M  V30 3793 H 345.875 -0.385289 -2.97415 0
M  V30 3794 H 343.428 -0.237942 -1.54478 0
M  V30 3795 H 344.163 2.13148 -2.44414 0
M  V30 3796 H 343.948 0.982114 -3.79601 0
M  V30 3797 H 345.438 1.96597 -3.68429 0
M  V30 3798 N 345.875 1.56104 -0.216619 0
M  V30 3799 C 346.807 2.17339 0.72776 0
M  V30 3800 C 347.82 1.14109 1.16116 0
M  V30 3801 O 349.009 1.4111 1.09317 0
M  V30 3802 C 346.109 2.73818 1.99693 0
M  V30 3803 C 345.282 4.02168 1.71988 0
M  V30 3804 C 344.341 4.43259 2.83562 0
M  V30 3805 O 343.367 5.10257 2.52244 0
M  V30 3806 N 344.569 4.08535 4.12407 0
M  V30 3807 H 347.334 2.99005 0.203983 0
M  V30 3808 H 344.895 1.61861 -0.0354289 0
M  V30 3809 H 346.887 2.9828 2.73516 0
M  V30 3810 H 345.457 1.96483 2.43132 0
M  V30 3811 H 344.677 3.85612 0.818337 0
M  V30 3812 H 345.965 4.85907 1.50903 0
M  V30 3813 H 345.363 3.54687 4.40696 0
M  V30 3814 H 343.92 4.37901 4.8279 0
M  V30 3815 N 347.353 -0.0568162 1.57498 0
M  V30 3816 C 348.303 -1.07315 2.01166 0
M  V30 3817 C 349.287 -1.33632 0.896171 0
M  V30 3818 O 350.479 -1.33682 1.16009 0
M  V30 3819 C 347.608 -2.38257 2.47161 0
M  V30 3820 C 346.694 -2.1515 3.65474 0
M  V30 3821 N 347.085 -1.62014 4.7915 0
M  V30 3822 C 345.383 -2.45559 3.72313 0
M  V30 3823 C 346.084 -1.54069 5.60926 0
M  V30 3824 N 345.06 -2.00652 5.05213 0
M  V30 3825 H 348.862 -0.655878 2.86488 0
M  V30 3826 H 346.376 -0.263635 1.60246 0
M  V30 3827 H 348.373 -3.11845 2.76691 0
M  V30 3828 H 347.033 -2.80687 1.63232 0
M  V30 3829 H 348.044 -1.30667 5.01145 0
M  V30 3830 H 344.721 -2.91253 2.99129 0
M  V30 3831 H 346.111 -1.13712 6.62208 0
M  V30 3832 N 348.832 -1.54138 -0.328536 0
M  V30 3833 C 350.078 -1.73297 -1.06488 0
M  V30 3834 C 350.433 -0.497958 -1.85844 0
M  V30 3835 O 349.726 0.509591 -1.84699 0
M  V30 3836 C 349.92 -2.9457 -2.02393 0
M  V30 3837 C 349.749 -4.29747 -1.32467 0
M  V30 3838 C 348.519 -4.93987 -1.06324 0
M  V30 3839 C 350.717 -5.08903 -0.743137 0
M  V30 3840 N 348.699 -6.13005 -0.331359 0
M  V30 3841 C 350.07 -6.19836 -0.142602 0
M  V30 3842 C 352.125 -4.93699 -0.64546 0
M  V30 3843 C 350.828 -7.17224 0.546125 0
M  V30 3844 C 352.854 -5.91393 0.0295558 0
M  V30 3845 C 352.216 -7.01674 0.619056 0
M  V30 3846 H 348.315 -0.687017 -0.373539 0
M  V30 3847 H 350.899 -1.91589 -0.346659 0
M  V30 3848 H 349.07 -2.77752 -2.71493 0
M  V30 3849 H 350.802 -3.0238 -2.68977 0
M  V30 3850 H 347.557 -4.53824 -1.35428 0
M  V30 3851 H 347.981 -6.76997 0.0202939 0
M  V30 3852 H 352.623 -4.08589 -1.08695 0
M  V30 3853 H 350.341 -8.01896 0.999459 0
M  V30 3854 H 353.927 -5.81706 0.104705 0
M  V30 3855 H 352.807 -7.75971 1.13309 0
M  V30 3856 N 350.31 0.590341 -1.46126 0
M  V30 3857 C 351.535 1.37991 -1.54833 0
M  V30 3858 C 351.96 1.87163 -0.187506 0
M  V30 3859 O 351.318 1.61133 0.831008 0
M  V30 3860 C 351.366 2.54867 -2.55098 0
M  V30 3861 O 350.47 3.56061 -2.08073 0
M  V30 3862 H 349.811 0.411265 -0.521303 0
M  V30 3863 H 352.341 0.716819 -1.91632 0
M  V30 3864 H 352.351 3.01886 -2.74461 0
M  V30 3865 H 351.026 2.18429 -3.53923 0
M  V30 3866 H 349.603 3.15574 -1.98664 0
M  V30 3867 N 351.788 1.33704 0.83433 0
M  V30 3868 C 352.698 1.26382 1.97648 0
M  V30 3869 C 353.714 0.173548 1.73132 0
M  V30 3870 O 354.89 0.397962 1.97429 0
M  V30 3871 C 351.955 1.00769 3.31733 0
M  V30 3872 C 351.016 2.1884 3.69334 0
M  V30 3873 C 350.249 1.9444 4.9702 0
M  V30 3874 O 350.472 0.896961 5.63303 0
M  V30 3875 O 349.406 2.81093 5.32231 0
M  V30 3876 H 353.232 2.22444 2.06767 0
M  V30 3877 H 350.817 1.13795 0.968037 0
M  V30 3878 H 352.699 0.882186 4.12062 0
M  V30 3879 H 351.374 0.0773783 3.23608 0
M  V30 3880 H 350.281 2.36946 2.89495 0
M  V30 3881 H 351.614 3.10221 3.82131 0
M  V30 3882 N 353.266 -1.05314 1.17247 0
M  V30 3883 C 354.512 -1.78699 0.971513 0
M  V30 3884 C 354.867 -1.85932 -0.494692 0
M  V30 3885 O 354.16 -1.34716 -1.36243 0
M  V30 3886 C 354.354 -3.2229 1.54479 0
M  V30 3887 C 354.183 -3.29052 3.06521 0
M  V30 3888 C 352.953 -3.3841 3.75242 0
M  V30 3889 C 355.151 -3.18095 4.04129 0
M  V30 3890 N 353.133 -3.34289 5.14902 0
M  V30 3891 C 354.504 -3.21331 5.30232 0
M  V30 3892 C 356.559 -3.02049 3.95817 0
M  V30 3893 C 355.262 -3.10169 6.4899 0
M  V30 3894 C 357.288 -2.92228 5.14156 0
M  V30 3895 C 356.65 -2.96096 6.39145 0
M  V30 3896 H 352.749 -0.66628 0.409383 0
M  V30 3897 H 355.333 -1.25553 1.4881 0
M  V30 3898 H 353.504 -3.7381 1.05455 0
M  V30 3899 H 355.236 -3.83905 1.28059 0
M  V30 3900 H 351.991 -3.43621 3.25917 0
M  V30 3901 H 352.415 -3.35702 5.87906 0
M  V30 3902 H 357.057 -2.97897 3.00029 0
M  V30 3903 H 354.775 -3.13076 7.44989 0
M  V30 3904 H 358.361 -2.80885 5.09505 0
M  V30 3905 H 357.241 -2.88568 7.29176 0
M  V30 3906 N 354.744 -0.972509 -1.24016 0
M  V30 3907 C 355.969 -0.654417 -1.96805 0
M  V30 3908 C 356.394 0.770398 -1.716 0
M  V30 3909 O 355.752 1.52361 -0.982647 0
M  V30 3910 C 355.8 -0.941031 -3.48105 0
M  V30 3911 O 354.904 -0.0289472 -4.1239 0
M  V30 3912 H 354.245 -0.24692 -0.616382 0
M  V30 3913 H 356.775 -1.30396 -1.57664 0
M  V30 3914 H 356.785 -0.87452 -3.98517 0
M  V30 3915 H 355.46 -1.97939 -3.65777 0
M  V30 3916 H 354.037 -0.149192 -3.72601 0
M  V30 3917 N 356.222 1.38976 -0.743202 0
M  V30 3918 C 357.172 2.27843 -0.084513 0
M  V30 3919 C 358.156 1.44677 0.704094 0
M  V30 3920 O 359.348 1.67511 0.571755 0
M  V30 3921 C 356.477 3.33466 0.815781 0
M  V30 3922 C 355.563 4.24095 0.0208844 0
M  V30 3923 N 355.954 4.95609 -1.0102 0
M  V30 3924 C 354.252 4.45303 0.249293 0
M  V30 3925 C 354.953 5.62287 -1.49024 0
M  V30 3926 N 353.929 5.37571 -0.807377 0
M  V30 3927 H 357.731 2.80593 -0.87436 0
M  V30 3928 H 355.245 1.51755 -0.578283 0
M  V30 3929 H 357.242 3.96008 1.30321 0
M  V30 3930 H 355.902 2.82276 1.6047 0
M  V30 3931 H 356.913 4.98849 -1.39176 0
M  V30 3932 H 353.59 4.0504 1.01237 0
M  V30 3933 H 354.98 6.29519 -2.34853 0
M  V30 3934 N 357.7 0.491464 1.49741 0
M  V30 3935 C 359.111 0.0413169 1.86654 0
M  V30 3936 C 359.462 -1.36985 1.40462 0
M  V30 3937 O 358.587 -2.01917 0.778354 0
M  V30 3938 C 359.182 0.0682023 3.38731 0
M  V30 3939 C 357.741 -0.32656 3.74981 0
M  V30 3940 C 356.888 0.444888 2.73708 0
M  V30 3941 H 359.839 0.704733 1.42194 0
M  V30 3942 H 359.86 -0.729322 3.73445 0
M  V30 3943 H 359.372 1.09539 3.72321 0
M  V30 3944 H 357.473 -1.35734 3.46997 0
M  V30 3945 H 357.586 -0.013741 4.79098 0
M  V30 3946 H 355.95 -0.104062 2.54487 0
M  V30 3947 H 356.733 1.47197 3.10142 0
M  V30 3948 N 359.178 -1.55987 0.224894 0
M  V30 3949 C 360.427 -1.97566 -0.406273 0
M  V30 3950 C 360.74 -1.11569 -1.6066 0
M  V30 3951 O 361.946 -1.43062 -2.3075 0
M  V30 3952 C 360.402 -3.51474 -0.774207 0
M  V30 3953 C 360.01 -4.46179 0.403496 0
M  V30 3954 C 361.754 -4.01758 -1.37079 0
M  V30 3955 C 359.661 -5.91399 0.0129412 0
M  V30 3956 H 358.591 -0.737777 -0.155565 0
M  V30 3957 H 361.242 -1.80659 0.321635 0
M  V30 3958 H 359.624 -3.63994 -1.55963 0
M  V30 3959 H 360.798 -4.45409 1.18101 0
M  V30 3960 H 359.113 -4.06255 0.913536 0
M  V30 3961 H 361.71 -5.07756 -1.67596 0
M  V30 3962 H 362.053 -3.47805 -2.28773 0
M  V30 3963 H 362.586 -3.92475 -0.648733 0
M  V30 3964 H 359.325 -6.49341 0.896451 0
M  V30 3965 H 358.845 -5.95356 -0.728821 0
M  V30 3966 H 360.524 -6.45683 -0.412582 0
M  V30 3967 N 360.656 0.0484629 -1.57525 0
M  V30 3968 C 361.606 1.06246 -2.01732 0
M  V30 3969 C 362.59 1.33155 -0.903245 0
M  V30 3970 O 363.782 1.33065 -1.16717 0
M  V30 3971 C 360.911 2.36943 -2.48421 0
M  V30 3972 C 359.997 2.13208 -3.6661 0
M  V30 3973 N 360.388 1.5947 -4.80003 0
M  V30 3974 C 358.686 2.43581 -3.7361 0
M  V30 3975 C 359.387 1.51092 -5.61735 0
M  V30 3976 N 358.363 1.9797 -5.0627 0
M  V30 3977 H 362.165 0.640675 -2.86832 0
M  V30 3978 H 359.679 0.255134 -1.60383 0
M  V30 3979 H 361.676 3.10374 -2.78341 0
M  V30 3980 H 360.336 2.79818 -1.64718 0
M  V30 3981 H 361.347 1.28008 -5.01831 0
M  V30 3982 H 358.024 2.89662 -3.00669 0
M  V30 3983 H 359.414 1.10199 -6.62801 0
M  V30 3984 N 362.134 1.5431 0.320358 0
M  V30 3985 C 363.38 1.73859 1.05568 0
M  V30 3986 C 363.735 0.507807 1.85578 0
M  V30 3987 O 363.028 -0.499789 1.84967 0
M  V30 3988 C 363.222 2.95639 2.00828 0
M  V30 3989 C 363.051 4.30444 1.30186 0
M  V30 3990 C 361.821 4.94544 1.03703 0
M  V30 3991 C 364.019 5.0929 0.716138 0
M  V30 3992 N 362.001 6.13172 0.298846 0
M  V30 3993 C 363.372 6.19903 0.109729 0
M  V30 3994 C 365.427 4.94034 0.619269 0
M  V30 3995 C 364.13 7.16924 -0.584153 0
M  V30 3996 C 366.156 5.91369 -0.0609184 0
M  V30 3997 C 365.518 7.01336 -0.656258 0
M  V30 3998 H 361.617 0.688988 0.36989 0
M  V30 3999 H 364.201 1.9177 0.336494 0
M  V30 4000 H 362.372 2.79188 2.70016 0
M  V30 4001 H 364.104 3.03802 2.6737 0
M  V30 4002 H 360.859 4.54536 1.33019 0
M  V30 4003 H 361.283 6.76977 -0.0561964 0
M  V30 4004 H 365.925 4.0916 1.06526 0
M  V30 4005 H 363.643 8.01354 -1.04197 0
M  V30 4006 H 367.229 5.81642 -0.135552 0
M  V30 4007 H 366.109 7.75359 -1.17423 0
M  V30 4008 N 363.613 -0.582584 1.46437 0
M  V30 4009 C 364.861 -1.33814 1.51453 0
M  V30 4010 C 365.182 -1.94277 0.167792 0
M  V30 4011 O 364.452 -1.78566 -0.805677 0
M  V30 4012 H 363.032 -0.496838 0.557818 0
M  V30 4013 H 365.694 -0.682281 1.82568 0
M  V30 4014 H 364.79 -2.14479 2.26728 0
M  V30 4015 N 365.091 -1.34144 -0.827227 0
M  V30 4016 C 366.316 -1.29476 -1.62021 0
M  V30 4017 C 366.741 0.129292 -1.87655 0
M  V30 4018 O 366.099 1.08967 -1.449 0
M  V30 4019 C 366.147 -2.08702 -2.94068 0
M  V30 4020 O 365.251 -1.45359 -3.85933 0
M  V30 4021 H 364.592 -0.444881 -0.492927 0
M  V30 4022 H 367.122 -1.76882 -1.02829 0
M  V30 4023 H 367.132 -2.19898 -3.43669 0
M  V30 4024 H 365.807 -3.12241 -2.74734 0
M  V30 4025 H 364.384 -1.42879 -3.44442 0
M  V30 4026 N 366.569 1.04691 -1.17803 0
M  V30 4027 C 367.517 2.14665 -0.895635 0
M  V30 4028 C 368.511 1.68806 0.141679 0
M  V30 4029 O 369.717 1.79999 -0.00587914 0
M  V30 4030 H 366.092 0.701038 -0.272121 0
M  V30 4031 H 368.063 2.35685 -1.83017 0
M  V30 4032 C 366.812 3.45019 -0.430962 0
M  V30 4033 H 366.135 3.8071 -1.22064 0
M  V30 4034 H 367.575 4.23125 -0.272301 0
M  V30 4035 C 366.034 3.25943 0.852207 0
M  V30 4036 O 366.564 3.5296 1.91786 0
M  V30 4037 N 364.77 2.79304 0.802346 0
M  V30 4038 H 364.317 2.57518 -0.0650788 0
M  V30 4039 H 364.275 2.66921 1.66134 0
M  V30 4040 N 368.047 0.979072 1.23499 0
M  V30 4041 C 369.275 0.665202 1.95915 0
M  V30 4042 C 369.69 -0.767571 1.72493 0
M  V30 4043 O 369.047 -1.51635 1.01554 0
M  V30 4044 C 369.098 0.944438 3.48945 0
M  V30 4045 O 368.819 2.3209 3.71572 0
M  V30 4046 C 370.32 0.646336 4.38563 0
M  V30 4047 H 367.54 0.247218 0.623798 0
M  V30 4048 H 370.084 1.31009 1.57025 0
M  V30 4049 H 368.239 0.345575 3.85856 0
M  V30 4050 H 368.653 2.40957 4.65876 0
M  V30 4051 H 370.127 0.892091 5.44744 0
M  V30 4052 H 370.604 -0.419575 4.37191 0
M  V30 4053 H 371.21 1.22562 4.07258 0
M  V30 4054 N 369.525 -1.3858 0.750561 0
M  V30 4055 C 370.75 -2.04997 0.314812 0
M  V30 4056 C 371.175 -1.56235 -1.04749 0
M  V30 4057 O 370.533 -0.712981 -1.66692 0
M  V30 4058 C 370.581 -3.58961 0.343415 0
M  V30 4059 O 369.685 -4.07025 -0.663628 0
M  V30 4060 H 369.026 -0.649081 0.139962 0
M  V30 4061 H 371.556 -1.77313 1.02084 0
M  V30 4062 H 371.566 -4.07542 0.193233 0
M  V30 4063 H 370.241 -3.93811 1.33738 0
M  V30 4064 H 368.818 -3.6982 -0.478307 0
M  V30 4065 N 371.003 -0.499398 -1.49478 0
M  V30 4066 C 371.95 0.279881 -2.29097 0
M  V30 4067 C 372.92 0.961805 -1.3542 0
M  V30 4068 O 374.105 0.968777 -1.64376 0
M  V30 4069 C 371.245 1.33932 -3.18051 0
M  V30 4070 C 370.358 0.669333 -4.26783 0
M  V30 4071 C 369.493 1.70907 -5.02955 0
M  V30 4072 C 368.532 1.02087 -6.03527 0
M  V30 4073 N 367.669 2.00474 -6.7287 0
M  V30 4074 H 372.509 -0.405317 -2.95231 0
M  V30 4075 H 370.046 -0.211726 -1.45568 0
M  V30 4076 H 372.004 1.96553 -3.67998 0
M  V30 4077 H 370.634 1.9933 -2.53904 0
M  V30 4078 H 369.686 -0.0701234 -3.80335 0
M  V30 4079 H 370.998 0.127503 -4.98637 0
M  V30 4080 H 370.152 2.41037 -5.56764 0
M  V30 4081 H 368.891 2.28476 -4.30871 0
M  V30 4082 H 367.896 0.305338 -5.48951 0
M  V30 4083 H 369.121 0.451708 -6.77596 0
M  V30 4084 H 367.067 2.57007 -6.03559 0
M  V30 4085 H 366.984 1.51353 -7.40694 0
M  V30 4086 H 368.252 2.69897 -7.31284 0
M  V30 4087 N 372.481 1.55866 -0.233164 0
M  V30 4088 C 373.391 2.24431 0.683217 0
M  V30 4089 C 374.407 1.2558 1.2044 0
M  V30 4090 O 375.583 1.58422 1.24356 0
M  V30 4091 C 372.648 2.91979 1.86947 0
M  V30 4092 C 371.709 4.06204 1.38912 0
M  V30 4093 C 370.942 4.70522 2.51883 0
M  V30 4094 O 371.165 4.33865 3.70293 0
M  V30 4095 O 370.099 5.59296 2.22423 0
M  V30 4096 H 373.925 3.03426 0.129059 0
M  V30 4097 H 371.51 1.494 -0.0022283 0
M  V30 4098 H 373.392 3.34573 2.56201 0
M  V30 4099 H 372.067 2.15935 2.41151 0
M  V30 4100 H 370.974 3.68155 0.664259 0
M  V30 4101 H 372.307 4.84025 0.893328 0
M  V30 4102 N 373.959 -0.0401083 1.57549 0
M  V30 4103 C 374.907 -1.06264 2.06908 0
M  V30 4104 C 375.901 -1.38132 0.980608 0
M  V30 4105 O 377.107 -1.37167 1.16556 0
M  V30 4106 H 373.482 -0.360166 0.660139 0
M  V30 4107 H 375.453 -0.620445 2.91878 0
M  V30 4108 C 374.202 -2.35846 2.55483 0
M  V30 4109 H 373.525 -2.12183 3.38849 0
M  V30 4110 H 374.965 -3.05765 2.93741 0
M  V30 4111 C 373.424 -3.0404 1.45126 0
M  V30 4112 O 373.954 -3.93424 0.811216 0
M  V30 4113 N 372.16 -2.65184 1.18852 0
M  V30 4114 H 371.707 -1.92584 1.71083 0
M  V30 4115 H 371.665 -3.1113 0.452244 0
M  V30 4116 N 375.437 -1.54477 -0.31217 0
M  V30 4117 C 376.848 -1.64344 -0.885891 0
M  V30 4118 C 377.199 -0.54485 -1.88483 0
M  V30 4119 O 376.324 0.320387 -2.14015 0
M  V30 4120 C 376.919 -2.97908 -1.61357 0
M  V30 4121 C 375.478 -3.09933 -2.13585 0
M  V30 4122 C 374.625 -2.59971 -0.964897 0
M  V30 4123 H 377.576 -1.58448 -0.0894528 0
M  V30 4124 H 377.597 -2.88706 -2.47848 0
M  V30 4125 H 377.109 -3.77845 -0.886277 0
M  V30 4126 H 375.21 -2.34694 -2.89395 0
M  V30 4127 H 375.323 -4.15916 -2.37804 0
M  V30 4128 H 373.687 -2.16147 -1.34731 0
M  V30 4129 H 374.47 -3.42376 -0.251742 0
M  V30 4130 N 376.915 0.57481 -1.46744 0
M  V30 4131 C 378.162 1.33272 -1.52462 0
M  V30 4132 C 378.49 1.93669 -0.179572 0
M  V30 4133 O 377.745 1.7743 0.825664 0
M  V30 4134 C 378.044 2.476 -2.57738 0
M  V30 4135 C 377.71 2.05146 -4.01529 0
M  V30 4136 C 376.372 1.93284 -4.40676 0
M  V30 4137 C 378.724 1.72506 -4.91824 0
M  V30 4138 C 376.052 1.47049 -5.67973 0
M  V30 4139 C 378.404 1.27748 -6.19567 0
M  V30 4140 C 377.068 1.14468 -6.57612 0
M  V30 4141 H 376.338 0.487678 -0.557899 0
M  V30 4142 H 378.985 0.646456 -1.80259 0
M  V30 4143 H 377.29 3.21708 -2.23632 0
M  V30 4144 H 378.987 3.05807 -2.5939 0
M  V30 4145 H 375.577 2.15316 -3.7059 0
M  V30 4146 H 379.761 1.80552 -4.62293 0
M  V30 4147 H 375.017 1.35417 -5.96215 0
M  V30 4148 H 379.191 1.01547 -6.88957 0
M  V30 4149 H 376.818 0.78419 -7.56145 0
M  V30 4150 N 378.394 1.34581 0.820102 0
M  V30 4151 C 379.324 1.29038 1.94606 0
M  V30 4152 C 380.305 0.1673 1.69275 0
M  V30 4153 O 381.49 0.360112 1.90832 0
M  V30 4154 C 378.62 1.04793 3.31113 0
M  V30 4155 C 377.574 2.13597 3.70891 0
M  V30 4156 C 376.9 1.74537 5.05412 0
M  V30 4157 C 378.2 3.55451 3.8269 0
M  V30 4158 H 379.894 2.23248 1.99501 0
M  V30 4159 H 377.44 1.0747 0.958449 0
M  V30 4160 H 379.393 0.995592 4.0947 0
M  V30 4161 H 378.117 0.0702565 3.26524 0
M  V30 4162 H 376.776 2.17905 2.9481 0
M  V30 4163 H 376.424 0.754226 4.97313 0
M  V30 4164 H 376.124 2.47361 5.32997 0
M  V30 4165 H 377.648 1.70803 5.86224 0
M  V30 4166 H 379.062 3.5354 4.51312 0
M  V30 4167 H 377.459 4.26922 4.21732 0
M  V30 4168 H 378.529 3.92587 2.84611 0
M  V30 4169 N 379.872 -1.04064 1.18357 0
M  V30 4170 C 381.119 -1.77265 0.978947 0
M  V30 4171 C 381.447 -1.88189 -0.491428 0
M  V30 4172 O 380.702 -1.38653 -1.38108 0
M  V30 4173 C 381.001 -3.20634 1.57888 0
M  V30 4174 C 380.667 -3.29743 3.07539 0
M  V30 4175 C 379.329 -3.31937 3.48384 0
M  V30 4176 C 381.681 -3.29841 4.03552 0
M  V30 4177 C 379.009 -3.3187 4.83818 0
M  V30 4178 C 381.361 -3.31313 5.38901 0
M  V30 4179 C 380.025 -3.31799 5.79194 0
M  V30 4180 H 379.295 -0.648659 0.358222 0
M  V30 4181 H 381.942 -1.22225 1.47422 0
M  V30 4182 H 380.247 -3.78675 1.00561 0
M  V30 4183 H 381.944 -3.75917 1.39598 0
M  V30 4184 H 378.534 -3.28757 2.74986 0
M  V30 4185 H 382.718 -3.27337 3.73047 0
M  V30 4186 H 377.974 -3.30562 5.14333 0
M  V30 4187 H 382.148 -3.30338 6.13066 0
M  V30 4188 H 379.775 -3.315 6.84114 0
M  V30 4189 N 381.35 -0.985608 -1.22978 0
M  V30 4190 C 382.313 -0.535071 -2.22867 0
M  V30 4191 C 383.313 0.378123 -1.56291 0
M  V30 4192 O 384.503 0.171092 -1.73358 0
M  V30 4193 C 381.635 0.222702 -3.40172 0
M  V30 4194 H 382.828 -1.41835 -2.6424 0
M  V30 4195 H 380.381 -0.772042 -1.35901 0
M  V30 4196 H 381.116 1.12229 -3.04262 0
M  V30 4197 H 380.901 -0.43288 -3.89703 0
M  V30 4198 H 382.391 0.526335 -4.1427 0
M  V30 4199 N 382.828 1.3818 -0.7579 0
M  V30 4200 C 383.758 2.33027 -0.148597 0
M  V30 4201 C 384.739 1.55085 0.69875 0
M  V30 4202 O 385.924 1.83384 0.639053 0
M  V30 4203 C 383.054 3.3928 0.742034 0
M  V30 4204 C 382.008 4.28 -0.00291946 0
M  V30 4205 C 381.334 5.25146 1.00625 0
M  V30 4206 C 382.634 5.08938 -1.17385 0
M  V30 4207 H 384.328 2.84231 -0.940909 0
M  V30 4208 H 381.874 1.36659 -0.453908 0
M  V30 4209 H 383.827 4.046 1.17799 0
M  V30 4210 H 382.551 2.86569 1.56671 0
M  V30 4211 H 381.21 3.64192 -0.419504 0
M  V30 4212 H 380.858 4.68721 1.8251 0
M  V30 4213 H 380.558 5.85361 0.512428 0
M  V30 4214 H 382.082 5.93342 1.44143 0
M  V30 4215 H 383.496 5.67474 -0.815224 0
M  V30 4216 H 381.893 5.7841 -1.59882 0
M  V30 4217 H 382.963 4.42424 -1.98468 0
M  V30 4218 N 384.306 0.507319 1.49211 0
M  V30 4219 C 385.216 -0.272136 2.33016 0
M  V30 4220 C 386.232 -0.961206 1.45041 0
M  V30 4221 O 387.408 -0.941191 1.78055 0
M  V30 4222 C 384.473 -1.31895 3.20631 0
M  V30 4223 C 383.534 -0.642648 4.24463 0
M  V30 4224 C 382.767 -1.63959 5.07891 0
M  V30 4225 O 382.99 -2.87007 4.92933 0
M  V30 4226 O 381.924 -1.19143 5.8999 0
M  V30 4227 H 385.75 0.413982 3.00865 0
M  V30 4228 H 383.335 0.268556 1.46966 0
M  V30 4229 H 385.217 -1.92446 3.7489 0
M  V30 4230 H 383.892 -1.98788 2.5547 0
M  V30 4231 H 382.799 0.00276252 3.741 0
M  V30 4232 H 384.132 -0.0160534 4.92197 0
M  V30 4233 N 385.784 -1.5574 0.241426 0
M  V30 4234 C 386.747 -2.19877 -0.647063 0
M  V30 4235 C 387.747 -1.16642 -1.10686 0
M  V30 4236 O 388.937 -1.41757 -1.01245 0
M  V30 4237 C 386.069 -2.83797 -1.88871 0
M  V30 4238 H 387.262 -2.99772 -0.087574 0
M  V30 4239 H 384.815 -1.56298 -0.00813574 0
M  V30 4240 H 385.55 -2.07824 -2.48957 0
M  V30 4241 H 385.335 -3.59414 -1.56728 0
M  V30 4242 H 386.825 -3.32898 -2.52129 0
M  V30 4243 N 387.262 0.0317525 -1.57568 0
M  V30 4244 C 388.508 0.724175 -1.8943 0
M  V30 4245 C 388.841 1.75149 -0.838836 0
M  V30 4246 O 388.116 1.93948 0.146422 0
M  V30 4247 C 388.399 1.39615 -3.31933 0
M  V30 4248 C 388.252 0.382537 -4.4817 0
M  V30 4249 C 389.571 2.33084 -3.73309 0
M  V30 4250 H 386.69 0.261797 -0.688935 0
M  V30 4251 H 389.332 -0.013017 -1.89996 0
M  V30 4252 H 387.482 2.02451 -3.31581 0
M  V30 4253 H 389.154 -0.243689 -4.60656 0
M  V30 4254 H 387.397 -0.29844 -4.32772 0
M  V30 4255 H 388.068 0.891145 -5.44759 0
M  V30 4256 H 390.544 1.80295 -3.7501 0
M  V30 4257 H 389.42 2.77084 -4.73831 0
M  V30 4258 H 389.681 3.19643 -3.05419 0
M  V30 4259 N 388.74 1.54641 0.303973 0
M  V30 4260 C 389.986 1.74038 1.04109 0
M  V30 4261 C 390.319 0.523051 1.87024 0
M  V30 4262 O 389.594 -0.479874 1.88487 0
M  V30 4263 C 389.877 3.02761 1.94955 0
M  V30 4264 C 389.73 4.34787 1.1524 0
M  V30 4265 C 391.049 3.27336 2.94175 0
M  V30 4266 H 388.168 0.63323 0.377079 0
M  V30 4267 H 390.81 1.87354 0.316001 0
M  V30 4268 H 388.96 2.9154 2.56782 0
M  V30 4269 H 390.632 4.57922 0.557236 0
M  V30 4270 H 388.875 4.31407 0.455053 0
M  V30 4271 H 389.546 5.21116 1.8205 0
M  V30 4272 H 392.022 3.38148 2.42477 0
M  V30 4273 H 390.898 4.18726 3.54908 0
M  V30 4274 H 391.159 2.45491 3.67677 0
M  V30 4275 N 390.218 -0.567019 1.47046 0
M  V30 4276 C 391.467 -1.32091 1.5243 0
M  V30 4277 C 391.78 -1.94704 0.187021 0
M  V30 4278 O 392.986 -2.7124 0.118771 0
M  V30 4279 C 391.442 -2.39479 2.68659 0
M  V30 4280 C 391.05 -1.831 4.08874 0
M  V30 4281 C 392.794 -3.16111 2.83327 0
M  V30 4282 C 390.701 -2.8821 5.16419 0
M  V30 4283 H 389.631 -0.496629 0.56734 0
M  V30 4284 H 392.282 -0.603354 1.73297 0
M  V30 4285 H 390.664 -3.14105 2.41152 0
M  V30 4286 H 391.838 -1.14913 4.46242 0
M  V30 4287 H 390.153 -1.19085 3.99008 0
M  V30 4288 H 392.75 -3.94585 3.60842 0
M  V30 4289 H 393.093 -3.69686 1.91411 0
M  V30 4290 H 393.626 -2.48595 3.10556 0
M  V30 4291 H 390.365 -2.39504 6.10179 0
M  V30 4292 H 389.885 -3.54839 4.8358 0
M  V30 4293 H 391.564 -3.51881 5.42945 0
M  V30 4294 N 391.696 -1.35014 -0.812953 0
M  V30 4295 C 392.921 -1.31187 -1.60639 0
M  V30 4296 C 393.346 0.109382 -1.87782 0
M  V30 4297 O 392.704 1.07424 -1.46047 0
M  V30 4298 C 392.752 -2.11809 -2.91838 0
M  V30 4299 O 391.856 -1.49444 -3.8437 0
M  V30 4300 H 391.197 -0.450084 -0.488181 0
M  V30 4301 H 393.727 -1.77963 -1.00947 0
M  V30 4302 H 393.737 -2.23531 -3.41318 0
M  V30 4303 H 392.412 -3.15137 -2.71407 0
M  V30 4304 H 390.989 -1.46524 -3.42907 0
M  V30 4305 N 393.175 1.03435 -1.18907 0
M  V30 4306 C 394.421 1.77005 -0.989798 0
M  V30 4307 C 394.754 1.88205 0.478816 0
M  V30 4308 O 394.029 1.39481 1.35556 0
M  V30 4309 C 394.312 3.19925 -1.65287 0
M  V30 4310 C 394.165 3.1663 -3.19477 0
M  V30 4311 C 395.484 4.18189 -1.37134 0
M  V30 4312 H 392.603 0.642538 -0.360991 0
M  V30 4313 H 395.245 1.20784 -1.46667 0
M  V30 4314 H 393.395 3.67929 -1.24741 0
M  V30 4315 H 395.067 2.76567 -3.692 0
M  V30 4316 H 393.31 2.54491 -3.51307 0
M  V30 4317 H 393.981 4.1758 -3.61013 0
M  V30 4318 H 396.457 3.78761 -1.72276 0
M  V30 4319 H 395.333 5.16394 -1.86087 0
M  V30 4320 H 395.594 4.41112 -0.295424 0
M  V30 4321 N 394.653 0.992116 1.22453 0
M  V30 4322 C 395.901 0.666215 1.90804 0
M  V30 4323 C 396.222 -0.804152 1.77647 0
M  V30 4324 O 395.492 -1.57629 1.16318 0
M  V30 4325 H 394.072 0.243423 0.706225 0
M  V30 4326 H 396.734 1.25845 1.48825 0
M  V30 4327 H 395.83 0.928069 2.97982 0
M  V30 4328 N 396.131 -1.37776 0.765217 0
M  V30 4329 C 397.356 -2.04651 0.336537 0
M  V30 4330 C 397.781 -1.57337 -1.03086 0
M  V30 4331 O 397.139 -0.730621 -1.65927 0
M  V30 4332 C 397.187 -3.58577 0.381468 0
M  V30 4333 O 396.291 -4.07706 -0.62042 0
M  V30 4334 H 395.632 -0.64756 0.146838 0
M  V30 4335 H 398.162 -1.76221 1.03959 0
M  V30 4336 H 398.172 -4.07314 0.236448 0
M  V30 4337 H 396.847 -3.9237 1.37907 0
M  V30 4338 H 395.424 -3.70306 -0.439056 0
M  V30 4339 N 397.609 -0.515225 -1.4894 0
M  V30 4340 C 398.542 0.302518 -2.26186 0
M  V30 4341 C 399.52 0.957895 -1.31389 0
M  V30 4342 O 400.704 0.985198 -1.60705 0
M  V30 4343 C 397.831 1.42719 -3.07163 0
M  V30 4344 C 396.877 0.884736 -4.17223 0
M  V30 4345 S 397.71 -0.235767 -5.34981 0
M  V30 4346 C 398.866 0.891731 -6.19515 0
M  V30 4347 H 399.099 -0.353076 -2.95196 0
M  V30 4348 H 396.632 -0.300753 -1.51443 0
M  V30 4349 H 398.59 2.07152 -3.54398 0
M  V30 4350 H 397.251 2.05445 -2.37595 0
M  V30 4351 H 396.444 1.72801 -4.73451 0
M  V30 4352 H 396.046 0.317362 -3.72651 0
M  V30 4353 H 398.338 1.79377 -6.53322 0
M  V30 4354 H 399.281 0.367751 -7.07144 0
M  V30 4355 H 399.689 1.16548 -5.52338 0
M  V30 4356 N 399.087 1.5561 -0.249682 0
M  V30 4357 C 400.335 1.98618 0.373548 0
M  V30 4358 C 400.656 1.13919 1.58264 0
M  V30 4359 O 399.926 0.222637 1.94631 0
M  V30 4360 H 398.506 0.733571 0.141006 0
M  V30 4361 H 401.168 1.91748 -0.349117 0
M  V30 4362 H 400.264 3.04584 0.680796 0
M  V30 4363 N 400.565 -0.0233959 1.57583 0
M  V30 4364 C 401.495 -1.02162 2.09965 0
M  V30 4365 C 402.476 -1.3735 1.00344 0
M  V30 4366 O 403.661 -1.46135 1.27899 0
M  V30 4367 C 400.791 -2.32081 2.58371 0
M  V30 4368 C 399.745 -2.1112 3.72307 0
M  V30 4369 C 399.071 -3.46848 4.06941 0
M  V30 4370 C 400.371 -1.49276 5.00514 0
M  V30 4371 H 402.065 -0.585557 2.93618 0
M  V30 4372 H 399.611 -0.280218 1.41247 0
M  V30 4373 H 401.564 -3.02249 2.93639 0
M  V30 4374 H 400.288 -2.77758 1.71808 0
M  V30 4375 H 398.947 -1.43384 3.37397 0
M  V30 4376 H 398.595 -3.90184 3.17436 0
M  V30 4377 H 398.295 -3.33646 4.83688 0
M  V30 4378 H 399.819 -4.18369 4.44747 0
M  V30 4379 H 401.233 -2.09368 5.33702 0
M  V30 4380 H 399.63 -1.46632 5.8191 0
M  V30 4381 H 400.7 -0.459217 4.82721 0
M  V30 4382 N 402.043 -1.548 -0.295768 0
M  V30 4383 C 403.292 -1.73538 -1.02798 0
M  V30 4384 C 403.605 -0.531159 -1.8825 0
M  V30 4385 O 404.811 -0.600458 -2.64777 0
M  V30 4386 C 403.267 -3.07051 -1.87744 0
M  V30 4387 C 402.875 -4.34968 -1.07269 0
M  V30 4388 C 404.619 -3.35146 -2.60533 0
M  V30 4389 C 402.526 -5.5953 -1.91521 0
M  V30 4390 H 401.456 -0.646794 -0.387522 0
M  V30 4391 H 404.107 -1.81278 -0.284718 0
M  V30 4392 H 402.489 -2.93289 -2.66078 0
M  V30 4393 H 403.663 -4.5958 -0.335117 0
M  V30 4394 H 401.978 -4.13847 -0.460384 0
M  V30 4395 H 404.575 -4.2541 -3.23929 0
M  V30 4396 H 404.918 -2.54255 -3.29636 0
M  V30 4397 H 405.451 -3.49902 -1.89244 0
M  V30 4398 H 402.19 -6.43103 -1.26878 0
M  V30 4399 H 401.71 -5.39096 -2.62937 0
M  V30 4400 H 403.389 -5.96982 -2.49442 0
M  V30 4401 N 403.521 0.559213 -1.47345 0
M  V30 4402 C 404.77 1.31281 -1.53128 0
M  V30 4403 C 405.083 1.94602 -0.197344 0
M  V30 4404 O 406.289 2.71173 -0.133154 0
M  V30 4405 C 404.745 2.38051 -2.69925 0
M  V30 4406 C 404.353 1.8093 -4.0984 0
M  V30 4407 C 406.097 3.14604 -2.84999 0
M  V30 4408 C 404.004 2.85468 -5.1794 0
M  V30 4409 H 402.934 0.493614 -0.569966 0
M  V30 4410 H 405.585 0.594155 -1.73615 0
M  V30 4411 H 403.967 3.12822 -2.42814 0
M  V30 4412 H 405.141 1.12544 -4.46845 0
M  V30 4413 H 403.456 1.16967 -3.99634 0
M  V30 4414 H 406.053 3.92666 -3.62929 0
M  V30 4415 H 406.396 3.68665 -1.93369 0
M  V30 4416 H 406.929 2.46945 -3.1187 0
M  V30 4417 H 403.668 2.36264 -6.1144 0
M  V30 4418 H 403.188 3.52269 -4.85455 0
M  V30 4419 H 404.867 3.48996 -5.44803 0
M  V30 4420 N 404.999 1.35443 0.805782 0
M  V30 4421 C 406.224 1.32037 1.59941 0
M  V30 4422 C 406.649 -0.0994215 1.87837 0
M  V30 4423 O 406.007 -1.06648 1.46615 0
M  V30 4424 C 406.055 2.13354 2.90711 0
M  V30 4425 O 405.159 1.5148 3.83572 0
M  V30 4426 H 404.5 0.452666 0.485787 0
M  V30 4427 H 407.03 1.78496 1.00002 0
M  V30 4428 H 407.04 2.25338 3.40128 0
M  V30 4429 H 405.715 3.16572 2.69732 0
M  V30 4430 H 404.292 1.4834 3.42125 0
M  V30 4431 N 406.477 -1.02803 1.19454 0
M  V30 4432 C 407.407 -2.12999 0.956758 0
M  V30 4433 C 408.388 -1.69743 -0.110188 0
M  V30 4434 O 409.573 -1.94148 0.0450038 0
M  V30 4435 C 406.703 -3.43746 0.495553 0
M  V30 4436 C 405.657 -4.00688 1.50443 0
M  V30 4437 C 404.983 -5.27067 0.900275 0
M  V30 4438 C 406.283 -4.35397 2.8849 0
M  V30 4439 H 407.977 -2.33148 1.87836 0
M  V30 4440 H 405.523 -1.12045 0.904539 0
M  V30 4441 H 407.476 -4.2021 0.316493 0
M  V30 4442 H 406.2 -3.23321 -0.461646 0
M  V30 4443 H 404.859 -3.2632 1.67065 0
M  V30 4444 H 404.507 -5.02959 -0.064503 0
M  V30 4445 H 404.207 -5.66127 1.57397 0
M  V30 4446 H 405.731 -6.06196 0.73203 0
M  V30 4447 H 407.145 -5.02795 2.75446 0
M  V30 4448 H 405.542 -4.85541 3.52661 0
M  V30 4449 H 406.612 -3.44662 3.41081 0
M  V30 4450 N 407.956 -0.998596 -1.21925 0
M  V30 4451 C 408.886 -0.573688 -2.26343 0
M  V30 4452 C 409.867 0.402296 -1.65274 0
M  V30 4453 O 411.052 0.291683 -1.91997 0
M  V30 4454 C 408.182 0.106839 -3.47136 0
M  V30 4455 C 407.136 -0.788269 -4.20678 0
M  V30 4456 C 406.462 0.0254927 -5.34694 0
M  V30 4457 C 407.762 -2.08784 -4.78755 0
M  V30 4458 H 409.456 -1.44651 -2.62138 0
M  V30 4459 H 407.002 -0.696975 -1.26009 0
M  V30 4460 H 408.955 0.415531 -4.19346 0
M  V30 4461 H 407.679 1.01424 -3.10452 0
M  V30 4462 H 406.338 -1.08069 -3.50309 0
M  V30 4463 H 405.986 0.933989 -4.94253 0
M  V30 4464 H 405.686 -0.570437 -5.84825 0
M  V30 4465 H 407.21 0.328147 -6.09718 0
M  V30 4466 H 408.624 -1.84272 -5.42878 0
M  V30 4467 H 407.021 -2.63307 -5.39249 0
M  V30 4468 H 408.091 -2.76284 -3.98491 0
M  V30 4469 N 409.434 1.37368 -0.772513 0
M  V30 4470 C 410.674 2.01512 -0.342361 0
M  V30 4471 C 411.038 1.59997 1.06136 0
M  V30 4472 O 412.239 2.16609 1.59167 0
M  V30 4473 C 410.51 3.54134 -0.482048 0
M  V30 4474 S 412.069 4.38585 -0.137272 0
M  V30 4475 H 408.887 0.698699 -0.131686 0
M  V30 4476 H 411.489 1.67552 -1.0073 0
M  V30 4477 H 410.193 3.81837 -1.50428 0
M  V30 4478 H 409.724 3.92894 0.199413 0
M  V30 4479 H 411.739 4.84594 1.06692 0
M  V30 4480 N 410.912 0.523116 1.48665 0
M  V30 4481 C 412.158 -0.0134963 2.02796 0
M  V30 4482 C 412.491 -1.34582 1.40004 0
M  V30 4483 O 411.766 -1.86756 0.543381 0
M  V30 4484 C 412.049 -0.14276 3.59817 0
M  V30 4485 C 411.902 1.21425 4.331 0
M  V30 4486 C 413.221 -0.872856 4.31357 0
M  V30 4487 H 410.34 -0.00343074 0.736992 0
M  V30 4488 H 412.982 0.678816 1.7746 0
M  V30 4489 H 411.132 -0.732401 3.81534 0
M  V30 4490 H 412.804 1.84447 4.2282 0
M  V30 4491 H 411.047 1.79791 3.94788 0
M  V30 4492 H 411.718 1.07687 5.41394 0
M  V30 4493 H 414.194 -0.372555 4.14429 0
M  V30 4494 H 413.07 -0.932185 5.40927 0
M  V30 4495 H 413.331 -1.92161 3.98154 0
M  V30 4496 N 412.39 -1.55475 0.257931 0
M  V30 4497 C 413.62 -2.03314 -0.367026 0
M  V30 4498 C 414.028 -1.13625 -1.51281 0
M  V30 4499 O 413.371 -0.145334 -1.83124 0
M  V30 4500 C 413.433 -3.47362 -0.926284 0
M  V30 4501 C 413.097 -4.56914 0.0886584 0
M  V30 4502 C 414.094 -5.12013 0.902123 0
M  V30 4503 C 411.779 -5.01827 0.217936 0
M  V30 4504 C 413.773 -6.10529 1.83122 0
M  V30 4505 C 411.46 -6.00172 1.15052 0
M  V30 4506 C 412.458 -6.54402 1.95568 0
M  V30 4507 O 412.146 -7.50827 2.87253 0
M  V30 4508 H 411.878 -0.669976 -0.0900443 0
M  V30 4509 H 414.432 -2.01804 0.382673 0
M  V30 4510 H 412.662 -3.46056 -1.72575 0
M  V30 4511 H 414.351 -3.78637 -1.46249 0
M  V30 4512 H 415.117 -4.78139 0.812891 0
M  V30 4513 H 410.996 -4.59272 -0.398721 0
M  V30 4514 H 414.54 -6.52783 2.46008 0
M  V30 4515 H 410.437 -6.33465 1.24064 0
M  V30 4516 H 411.205 -7.68483 2.81739 0
M  V30 4517 N 413.868 0.0150385 -1.57593 0
M  V30 4518 C 415.115 0.703001 -1.89906 0
M  V30 4519 C 415.443 1.74604 -0.856944 0
M  V30 4520 O 414.698 1.95197 0.140287 0
M  V30 4521 C 414.997 1.39686 -3.28972 0
M  V30 4522 C 414.663 0.488457 -4.48246 0
M  V30 4523 C 413.325 0.2383 -4.8061 0
M  V30 4524 C 415.677 -0.137881 -5.21018 0
M  V30 4525 C 413.005 -0.646738 -5.83125 0
M  V30 4526 C 415.357 -1.0107 -6.24474 0
M  V30 4527 C 414.021 -1.27019 -6.55303 0
M  V30 4528 H 413.291 0.257246 -0.694914 0
M  V30 4529 H 415.938 -0.037259 -1.91464 0
M  V30 4530 H 414.243 2.21079 -3.23468 0
M  V30 4531 H 415.94 1.93495 -3.51227 0
M  V30 4532 H 412.53 0.693593 -4.22951 0
M  V30 4533 H 416.714 0.0423953 -4.96282 0
M  V30 4534 H 411.97 -0.855937 -6.05379 0
M  V30 4535 H 416.144 -1.50247 -6.79999 0
M  V30 4536 H 413.771 -1.95769 -7.3456 0
M  V30 4537 N 415.346 1.54954 0.287554 0
M  V30 4538 C 416.592 1.76059 1.01856 0
M  V30 4539 C 416.947 0.547056 1.84459 0
M  V30 4540 O 416.24 -0.460442 1.85985 0
M  V30 4541 C 416.434 2.99833 1.94512 0
M  V30 4542 C 416.263 4.33108 1.21026 0
M  V30 4543 C 415.033 4.96632 0.931896 0
M  V30 4544 C 417.231 5.10694 0.607949 0
M  V30 4545 N 415.213 6.13668 0.168716 0
M  V30 4546 C 416.584 6.19996 -0.0217865 0
M  V30 4547 C 418.639 4.95236 0.514338 0
M  V30 4548 C 417.342 7.15524 -0.736092 0
M  V30 4549 C 419.368 5.91106 -0.186343 0
M  V30 4550 C 418.73 6.99786 -0.804875 0
M  V30 4551 H 414.829 0.696679 0.355193 0
M  V30 4552 H 417.413 1.92441 0.295741 0
M  V30 4553 H 415.584 2.84853 2.64033 0
M  V30 4554 H 417.316 3.09405 2.60865 0
M  V30 4555 H 414.071 4.57255 1.23348 0
M  V30 4556 H 414.495 6.76705 -0.199781 0
M  V30 4557 H 419.137 4.11328 0.978234 0
M  V30 4558 H 416.855 7.98964 -1.21172 0
M  V30 4559 H 420.441 5.81224 -0.258897 0
M  V30 4560 H 419.321 7.72694 -1.33843 0
M  V30 4561 N 416.824 -0.551391 1.4764 0
M  V30 4562 C 417.754 -1.66757 1.63445 0
M  V30 4563 C 418.735 -1.63077 0.483742 0
M  V30 4564 O 419.92 -1.80607 0.71377 0
M  V30 4565 C 417.05 -3.05387 1.65396 0
M  V30 4566 C 416.004 -3.23918 2.79752 0
M  V30 4567 C 415.33 -4.63393 2.66779 0
M  V30 4568 C 416.63 -3.08735 4.21284 0
M  V30 4569 H 418.324 -1.53786 2.56886 0
M  V30 4570 H 415.87 -0.738415 1.23626 0
M  V30 4571 H 417.823 -3.83325 1.75043 0
M  V30 4572 H 416.547 -3.19332 0.685195 0
M  V30 4573 H 415.206 -2.48391 2.69625 0
M  V30 4574 H 414.854 -4.74144 1.67918 0
M  V30 4575 H 414.554 -4.7674 3.43501 0
M  V30 4576 H 416.078 -5.43458 2.78364 0
M  V30 4577 H 417.492 -3.76484 4.32357 0
M  V30 4578 H 415.889 -3.33588 4.98838 0
M  V30 4579 H 416.959 -2.0541 4.39243 0
M  V30 4580 N 418.302 -1.35869 -0.798587 0
M  V30 4581 C 419.212 -1.31578 -1.94228 0
M  V30 4582 C 420.228 -0.21939 -1.72611 0
M  V30 4583 O 421.404 -0.450167 -1.96305 0
M  V30 4584 C 418.469 -1.09528 -3.28944 0
M  V30 4585 C 417.53 -2.28556 -3.63402 0
M  V30 4586 C 416.763 -2.07549 -4.9169 0
M  V30 4587 O 416.986 -1.046 -5.60727 0
M  V30 4588 O 415.92 -2.95106 -5.24591 0
M  V30 4589 H 419.746 -2.27847 -2.00796 0
M  V30 4590 H 417.331 -1.16322 -0.937526 0
M  V30 4591 H 419.213 -0.991127 -4.09579 0
M  V30 4592 H 417.888 -0.16315 -3.23289 0
M  V30 4593 H 416.795 -2.44538 -2.83112 0
M  V30 4594 H 418.128 -3.20244 -3.73771 0
M  V30 4595 N 419.78 1.02168 -1.19998 0
M  V30 4596 C 421.196 1.27969 -0.953737 0
M  V30 4597 C 421.396 1.98079 0.369703 0
M  V30 4598 O 420.452 2.27306 1.09947 0
M  V30 4599 C 421.765 2.11971 -2.13281 0
M  V30 4600 C 423.313 2.25255 -2.17323 0
M  V30 4601 C 423.788 3.12632 -3.34702 0
M  V30 4602 N 425.279 3.2022 -3.34684 0
M  V30 4603 C 426.014 3.88039 -4.22153 0
M  V30 4604 N 425.51 4.58027 -5.19791 0
M  V30 4605 N 427.303 3.84511 -4.10009 0
M  V30 4606 H 419.454 0.550794 -2.05134 0
M  V30 4607 H 421.717 0.305683 -0.897364 0
M  V30 4608 H 421.423 1.67785 -3.09097 0
M  V30 4609 H 421.297 3.12699 -2.10949 0
M  V30 4610 H 423.684 2.68667 -1.22073 0
M  V30 4611 H 423.765 1.24053 -2.23706 0
M  V30 4612 H 423.409 2.69926 -4.30235 0
M  V30 4613 H 423.339 4.13909 -3.25556 0
M  V30 4614 H 425.83 2.70382 -2.64012 0
M  V30 4615 H 426.143 5.07429 -5.82868 0
M  V30 4616 H 424.488 4.56869 -5.23733 0
M  V30 4617 H 427.679 3.28978 -3.33003 0
M  V30 4618 H 427.852 4.3709 -4.78389 0
M  V30 4619 N 421.258 1.00505 1.21394 0
M  V30 4620 C 422.486 0.706609 1.9446 0
M  V30 4621 C 422.901 -0.73081 1.74082 0
M  V30 4622 O 422.258 -1.49446 1.04747 0
M  V30 4623 C 422.309 1.01824 3.46863 0
M  V30 4624 O 422.03 2.39919 3.66566 0
M  V30 4625 C 423.531 0.739216 4.37093 0
M  V30 4626 H 420.751 0.260394 0.618414 0
M  V30 4627 H 423.295 1.34311 1.54211 0
M  V30 4628 H 421.45 0.427343 3.85036 0
M  V30 4629 H 421.864 2.50784 4.6066 0
M  V30 4630 H 423.338 1.00744 5.42729 0
M  V30 4631 H 423.815 -0.326746 4.37983 0
M  V30 4632 H 424.421 1.31173 4.04566 0
M  V30 4633 N 422.737 -1.36956 0.779787 0
M  V30 4634 C 423.67 -2.27896 0.117681 0
M  V30 4635 C 424.648 -1.46736 -0.700523 0
M  V30 4636 O 425.832 -1.76055 -0.673568 0
M  V30 4637 C 422.959 -3.28136 -0.839296 0
M  V30 4638 C 422.005 -4.26373 -0.10409 0
M  V30 4639 S 422.838 -5.2157 1.21348 0
M  V30 4640 C 423.994 -6.25359 0.260249 0
M  V30 4641 H 424.227 -2.83704 0.888778 0
M  V30 4642 H 421.76 -1.43352 0.57355 0
M  V30 4643 H 423.718 -3.86394 -1.38601 0
M  V30 4644 H 422.379 -2.7126 -1.58356 0
M  V30 4645 H 421.572 -4.97121 -0.82986 0
M  V30 4646 H 421.174 -3.72147 0.371858 0
M  V30 4647 H 423.466 -6.75145 -0.564435 0
M  V30 4648 H 424.409 -7.01885 0.936135 0
M  V30 4649 H 424.817 -5.64345 -0.132127 0
M  V30 4650 N 424.215 -0.530993 -1.48385 0
M  V30 4651 C 425.626 -0.0907905 -1.86479 0
M  V30 4652 C 425.977 1.33213 -1.44044 0
M  V30 4653 O 425.102 1.99783 -0.831615 0
M  V30 4654 C 425.697 -0.157987 -3.38431 0
M  V30 4655 C 424.256 0.227026 -3.75715 0
M  V30 4656 C 423.403 -0.5173 -2.72432 0
M  V30 4657 H 426.354 -0.742186 -1.40276 0
M  V30 4658 H 426.375 0.630053 -3.75247 0
M  V30 4659 H 425.887 -1.19372 -3.69286 0
M  V30 4660 H 423.988 1.26486 -3.50474 0
M  V30 4661 H 424.101 -0.113288 -4.78966 0
M  V30 4662 H 422.465 0.0365527 -2.54674 0
M  V30 4663 H 423.248 -1.55368 -3.0613 0
M  V30 4664 N 425.693 1.55336 -0.266172 0
M  V30 4665 C 427.109 1.59356 0.0882065 0
M  V30 4666 C 427.309 1.2834 1.55342 0
M  V30 4667 O 426.365 1.03996 2.30089 0
M  V30 4668 C 427.678 2.99409 -0.278364 0
M  V30 4669 C 429.226 3.12196 -0.224243 0
M  V30 4670 C 429.701 4.545 -0.565123 0
M  V30 4671 N 431.192 4.60313 -0.51634 0
M  V30 4672 C 431.927 5.68434 -0.753013 0
M  V30 4673 N 431.423 6.84738 -1.05383 0
M  V30 4674 N 433.216 5.57942 -0.682414 0
M  V30 4675 H 425.367 1.73764 -1.22147 0
M  V30 4676 H 427.63 0.809822 -0.492841 0
M  V30 4677 H 427.336 3.2691 -1.29703 0
M  V30 4678 H 427.21 3.75228 0.385186 0
M  V30 4679 H 429.597 2.84464 0.78512 0
M  V30 4680 H 429.678 2.38609 -0.921922 0
M  V30 4681 H 429.322 4.82956 -1.57213 0
M  V30 4682 H 429.252 5.26374 0.154248 0
M  V30 4683 H 431.743 3.7676 -0.29335 0
M  V30 4684 H 432.056 7.63088 -1.22133 0
M  V30 4685 H 430.401 6.86375 -1.09151 0
M  V30 4686 H 433.592 4.65958 -0.44731 0
M  V30 4687 H 433.765 6.4213 -0.870248 0
M  V30 4688 N 427.171 -0.0066808 1.57599 0
M  V30 4689 C 428.42 -0.692078 1.89455 0
M  V30 4690 C 428.733 -1.75306 0.867586 0
M  V30 4691 O 429.939 -2.49262 1.07614 0
M  V30 4692 C 428.395 -1.2821 3.36289 0
M  V30 4693 C 428.003 -0.256291 4.47266 0
M  V30 4694 C 429.747 -1.94608 3.77264 0
M  V30 4695 C 427.654 -0.855927 5.85173 0
M  V30 4696 H 426.584 -0.262252 0.706923 0
M  V30 4697 H 429.235 0.052769 1.83424 0
M  V30 4698 H 427.617 -2.0774 3.37135 0
M  V30 4699 H 428.791 0.513923 4.57925 0
M  V30 4700 H 427.106 0.306862 4.15268 0
M  V30 4701 H 429.703 -2.40364 4.77629 0
M  V30 4702 H 430.046 -2.77382 3.10427 0
M  V30 4703 H 430.579 -1.21822 3.78688 0
M  V30 4704 H 427.318 -0.0671161 6.55466 0
M  V30 4705 H 426.838 -1.59546 5.78191 0
M  V30 4706 H 428.517 -1.35658 6.32618 0
M  V30 4707 N 428.649 -1.55105 -0.279332 0
M  V30 4708 C 430.06 -1.66186 -0.850832 0
M  V30 4709 C 430.411 -0.584707 -1.87285 0
M  V30 4710 O 429.536 0.274919 -2.14647 0
M  V30 4711 C 430.131 -3.01264 -1.55001 0
M  V30 4712 C 428.69 -3.14394 -2.06963 0
M  V30 4713 C 427.837 -2.61959 -0.909536 0
M  V30 4714 H 430.788 -1.58602 -0.0558235 0
M  V30 4715 H 430.809 -2.93899 -2.41669 0
M  V30 4716 H 430.321 -3.7964 -0.805931 0
M  V30 4717 H 428.422 -2.4078 -2.84352 0
M  V30 4718 H 428.535 -4.20867 -2.28928 0
M  V30 4719 H 426.899 -2.18957 -1.30116 0
M  V30 4720 H 427.682 -3.42833 -0.179062 0
M  V30 4721 N 430.127 0.543554 -1.4793 0
M  V30 4722 C 431.355 1.32516 -1.58894 0
M  V30 4723 C 431.77 1.87215 -0.244131 0
M  V30 4724 O 431.127 1.65709 0.764652 0
M  V30 4725 C 431.178 2.48554 -2.62494 0
M  V30 4726 O 430.899 1.96112 -3.91755 0
M  V30 4727 C 432.4 3.40572 -2.8377 0
M  V30 4728 H 429.62 0.403472 -0.536145 0
M  V30 4729 H 432.164 0.657106 -1.93655 0
M  V30 4730 H 430.319 3.1127 -2.30629 0
M  V30 4731 H 430.733 2.71967 -4.4848 0
M  V30 4732 H 432.207 4.18375 -3.60093 0
M  V30 4733 H 432.684 3.94965 -1.92092 0
M  V30 4734 H 433.29 2.8366 -3.16887 0
M  V30 4735 N 431.605 1.3629 0.791371 0
M  V30 4736 C 432.535 1.33137 1.91825 0
M  V30 4737 C 433.516 0.203168 1.68882 0
M  V30 4738 O 434.701 0.400509 1.90025 0
M  V30 4739 C 431.831 1.11793 3.28816 0
M  V30 4740 C 430.785 2.21417 3.66277 0
M  V30 4741 C 430.111 1.85218 5.01596 0
M  V30 4742 C 431.411 3.63489 3.75064 0
M  V30 4743 H 433.105 2.2743 1.9472 0
M  V30 4744 H 430.651 1.09479 0.935437 0
M  V30 4745 H 432.604 1.08222 4.07266 0
M  V30 4746 H 431.328 0.139501 3.26302 0
M  V30 4747 H 429.987 2.2411 2.90121 0
M  V30 4748 H 429.635 0.859544 4.95602 0
M  V30 4749 H 429.335 2.58611 5.27631 0
M  V30 4750 H 430.859 1.832 5.82469 0
M  V30 4751 H 432.273 3.63034 4.43711 0
M  V30 4752 H 430.67 4.35771 4.12582 0
M  V30 4753 H 431.74 3.98536 2.76219 0
M  V30 4754 N 433.083 -1.0153 1.20538 0
M  V30 4755 C 434.03 -2.10098 0.955383 0
M  V30 4756 C 435 -1.65702 -0.114878 0
M  V30 4757 O 436.185 -1.90776 0.0301118 0
M  V30 4758 C 433.325 -3.41236 0.514969 0
M  V30 4759 C 432.438 -3.99102 1.65353 0
M  V30 4760 C 431.573 -5.18306 1.16329 0
M  V30 4761 C 430.612 -5.68258 2.27485 0
M  V30 4762 N 429.749 -6.78722 1.7967 0
M  V30 4763 H 434.589 -2.30818 1.88486 0
M  V30 4764 H 432.126 -1.13189 0.939499 0
M  V30 4765 H 434.084 -4.16504 0.240935 0
M  V30 4766 H 432.714 -3.20585 -0.377512 0
M  V30 4767 H 431.766 -3.20918 2.04245 0
M  V30 4768 H 433.078 -4.32177 2.49047 0
M  V30 4769 H 432.232 -6.00782 0.845302 0
M  V30 4770 H 430.971 -4.86799 0.296254 0
M  V30 4771 H 429.976 -4.84385 2.60099 0
M  V30 4772 H 431.201 -6.01798 3.14667 0
M  V30 4773 H 429.147 -6.49042 0.95295 0
M  V30 4774 H 429.064 -7.10996 2.56944 0
M  V30 4775 H 430.332 -7.64759 1.50875 0
M  V30 4776 N 434.561 -1.01147 -1.20859 0
M  V30 4777 C 435.509 -0.57059 -2.25493 0
M  V30 4778 C 436.503 0.388109 -1.64894 0
M  V30 4779 O 437.709 0.258592 -1.78133 0
M  V30 4780 H 434.084 -0.166191 -0.733406 0
M  V30 4781 H 436.055 -1.46411 -2.60012 0
M  V30 4782 C 434.804 0.0805241 -3.47607 0
M  V30 4783 H 434.127 -0.648156 -3.94511 0
M  V30 4784 H 435.567 0.352197 -4.22535 0
M  V30 4785 C 434.026 1.32175 -3.09889 0
M  V30 4786 O 434.556 2.41553 -3.20959 0
M  V30 4787 N 432.762 1.20392 -2.64488 0
M  V30 4788 H 432.309 0.313905 -2.5568 0
M  V30 4789 H 432.267 2.03541 -2.39621 0
M  V30 4790 N 436.039 1.36541 -0.78704 0
M  V30 4791 C 436.969 2.32659 -0.197992 0
M  V30 4792 C 437.95 1.56533 0.665697 0
M  V30 4793 O 439.135 1.84698 0.60001 0
M  V30 4794 C 436.265 3.40778 0.669901 0
M  V30 4795 C 435.219 4.27897 -0.0937039 0
M  V30 4796 C 434.545 5.27163 0.894629 0
M  V30 4797 C 435.845 5.06334 -1.28154 0
M  V30 4798 H 437.539 2.82171 -1.00099 0
M  V30 4799 H 435.085 1.35665 -0.482793 0
M  V30 4800 H 437.038 4.07008 1.09191 0
M  V30 4801 H 435.762 2.89827 1.50558 0
M  V30 4802 H 434.421 3.6322 -0.49666 0
M  V30 4803 H 434.069 4.72486 1.72527 0
M  V30 4804 H 433.769 5.86317 0.388149 0
M  V30 4805 H 435.293 5.96266 1.31525 0
M  V30 4806 H 436.707 5.65617 -0.93541 0
M  V30 4807 H 435.104 5.74888 -1.72115 0
M  V30 4808 H 436.174 4.38114 -2.07807 0
M  V30 4809 N 437.518 0.538854 1.48102 0
M  V30 4810 C 438.428 -0.222648 2.33541 0
M  V30 4811 C 439.444 -0.930225 1.47047 0
M  V30 4812 O 440.62 -0.903211 1.80011 0
M  V30 4813 C 437.685 -1.25064 3.23357 0
M  V30 4814 C 436.746 -0.552469 4.2573 0
M  V30 4815 C 435.979 -1.53149 5.11254 0
M  V30 4816 O 436.202 -2.76487 4.9891 0
M  V30 4817 O 435.136 -1.06602 5.92385 0
M  V30 4818 H 438.962 0.477707 2.99919 0
M  V30 4819 H 436.547 0.299669 1.46364 0
M  V30 4820 H 438.429 -1.8445 3.78888 0
M  V30 4821 H 437.104 -1.93325 2.59629 0
M  V30 4822 H 436.011 0.082114 3.7401 0
M  V30 4823 H 437.344 0.0883526 4.92121 0
M  V30 4824 N 438.996 -1.55193 0.274407 0
M  V30 4825 C 440.273 -1.91584 -0.394331 0
M  V30 4826 C 440.653 -1.19858 -1.73774 0
M  V30 4827 O 440.001 -0.3252 -2.26174 0
M  V30 4828 C 440.211 -3.4487 -0.535311 0
M  V30 4829 C 441.559 -4.16636 -0.818534 0
M  V30 4830 O 442.583 -3.5076 -0.620146 0
M  V30 4831 O 441.442 -5.33209 -1.19792 0
M  V30 4832 H 438.536 -0.798349 -0.215794 0
M  V30 4833 H 441.082 -1.66646 0.320507 0
M  V30 4834 H 439.854 -3.89145 0.410141 0
M  V30 4835 H 439.477 -3.75759 -1.29964 0
M  V30 4836 N 440.474 -0.00167713 -1.576 0
M  V30 4837 C 441.404 0.988091 -2.11563 0
M  V30 4838 C 442.385 1.35736 -1.02517 0
M  V30 4839 O 443.57 1.44082 -1.30208 0
M  V30 4840 C 440.7 2.27941 -2.62031 0
M  V30 4841 C 439.654 2.0517 -3.75619 0
M  V30 4842 C 438.98 3.4033 -4.12407 0
M  V30 4843 C 440.28 1.41294 -5.02825 0
M  V30 4844 H 441.974 0.538771 -2.94513 0
M  V30 4845 H 439.52 0.257712 -1.41675 0
M  V30 4846 H 441.473 2.97539 -2.9841 0
M  V30 4847 H 440.197 2.74989 -1.76205 0
M  V30 4848 H 438.856 1.37998 -3.39635 0
M  V30 4849 H 438.504 3.85085 -3.23603 0
M  V30 4850 H 438.204 3.25909 -4.88935 0
M  V30 4851 H 439.728 4.1124 -4.51347 0
M  V30 4852 H 441.142 2.00851 -5.36965 0
M  V30 4853 H 439.539 1.37356 -5.84169 0
M  V30 4854 H 440.609 0.382362 -4.8339 0
M  V30 4855 N 441.952 1.55251 0.271103 0
M  V30 4856 C 443.198 1.76207 1.00394 0
M  V30 4857 C 443.531 0.562604 1.85872 0
M  V30 4858 O 442.806 -0.439785 1.89463 0
M  V30 4859 C 443.089 3.06828 1.8849 0
M  V30 4860 C 442.942 4.37134 1.05992 0
M  V30 4861 C 444.261 3.33503 2.87165 0
M  V30 4862 H 441.38 0.641086 0.363562 0
M  V30 4863 H 444.022 1.87982 0.276189 0
M  V30 4864 H 442.172 2.96921 2.5054 0
M  V30 4865 H 443.844 4.59001 0.459978 0
M  V30 4866 H 442.087 4.32275 0.363443 0
M  V30 4867 H 442.758 5.2486 1.70955 0
M  V30 4868 H 445.234 3.43215 2.3525 0
M  V30 4869 H 444.11 4.2616 3.45946 0
M  V30 4870 H 444.371 2.53235 3.62387 0
M  V30 4871 N 443.43 -0.535701 1.48216 0
M  V30 4872 C 444.658 -1.31671 1.59594 0
M  V30 4873 C 445.073 -1.87083 0.254056 0
M  V30 4874 O 444.43 -1.66112 -0.755854 0
M  V30 4875 C 444.481 -2.47158 2.63809 0
M  V30 4876 O 444.202 -1.94032 3.92789 0
M  V30 4877 C 445.703 -3.39062 2.85573 0
M  V30 4878 H 442.923 -0.400623 0.538277 0
M  V30 4879 H 445.467 -0.646827 1.94001 0
M  V30 4880 H 443.622 -3.10043 2.32276 0
M  V30 4881 H 444.036 -2.69585 4.49916 0
M  V30 4882 H 445.51 -4.16459 3.62306 0
M  V30 4883 H 445.987 -3.93941 1.94184 0
M  V30 4884 H 446.593 -2.81975 3.18387 0
M  V30 4885 N 444.908 -1.36708 -0.784132 0
M  V30 4886 C 445.818 -1.3363 -1.92822 0
M  V30 4887 C 446.834 -0.237686 -1.72369 0
M  V30 4888 O 448.01 -0.470962 -1.95816 0
M  V30 4889 C 445.075 -1.13011 -3.27764 0
M  V30 4890 C 444.136 -2.32397 -3.60957 0
M  V30 4891 C 443.369 -2.12752 -4.89461 0
M  V30 4892 O 443.592 -1.10541 -5.59586 0
M  V30 4893 O 442.526 -3.00653 -5.21432 0
M  V30 4894 H 446.352 -2.29964 -1.98369 0
M  V30 4895 H 443.937 -1.1731 -0.925136 0
M  V30 4896 H 445.819 -1.03451 -4.08504 0
M  V30 4897 H 444.494 -0.19743 -3.23097 0
M  V30 4898 H 443.401 -2.47527 -2.80502 0
M  V30 4899 H 444.734 -3.2419 -3.70354 0
M  V30 4900 N 446.386 1.0089 -1.21074 0
M  V30 4901 C 447.616 1.77933 -1.04993 0
M  V30 4902 C 448.024 1.84847 0.403495 0
M  V30 4903 O 447.367 1.30606 1.29181 0
M  V30 4904 C 447.429 3.23541 -1.56722 0
M  V30 4905 C 447.093 3.40214 -3.05129 0
M  V30 4906 C 448.09 3.2881 -4.02716 0
M  V30 4907 C 445.775 3.65781 -3.44252 0
M  V30 4908 C 447.769 3.42732 -5.37414 0
M  V30 4909 C 445.456 3.79346 -4.79103 0
M  V30 4910 C 446.454 3.67827 -5.75493 0
M  V30 4911 O 446.142 3.80965 -7.07899 0
M  V30 4912 H 445.874 0.566157 -0.369381 0
M  V30 4913 H 448.428 1.27826 -1.60779 0
M  V30 4914 H 446.658 3.74766 -0.953285 0
M  V30 4915 H 448.347 3.82245 -1.36543 0
M  V30 4916 H 449.113 3.08986 -3.73835 0
M  V30 4917 H 444.992 3.73831 -2.69762 0
M  V30 4918 H 448.536 3.33658 -6.12632 0
M  V30 4919 H 444.433 3.98672 -5.07672 0
M  V30 4920 H 445.201 3.97937 -7.15254 0
M  V30 4921 N 447.864 1.01787 1.20321 0
M  V30 4922 C 448.814 0.559976 2.21016 0
M  V30 4923 C 449.798 -0.385366 1.56217 0
M  V30 4924 O 450.99 -0.208126 1.75772 0
M  V30 4925 C 448.119 -0.0990553 3.43157 0
M  V30 4926 C 447.205 0.86807 4.15121 0
M  V30 4927 N 447.596 2.0261 4.63447 0
M  V30 4928 C 445.894 0.689162 4.40643 0
M  V30 4929 C 446.595 2.63518 5.18588 0
M  V30 4930 N 445.571 1.91569 5.08726 0
M  V30 4931 H 449.373 1.44281 2.56048 0
M  V30 4932 H 446.887 0.883381 1.36272 0
M  V30 4933 H 448.884 -0.444643 4.14522 0
M  V30 4934 H 447.544 -0.977709 3.0963 0
M  V30 4935 H 448.555 2.40598 4.58621 0
M  V30 4936 H 445.232 -0.14133 4.17261 0
M  V30 4937 H 446.622 3.61527 5.66346 0
M  V30 4938 N 449.342 -1.36122 0.79427 0
M  V30 4939 C 450.59 -1.98718 0.368177 0
M  V30 4940 C 450.911 -1.63345 -1.06506 0
M  V30 4941 O 450.181 -0.909825 -1.73491 0
M  V30 4942 H 448.761 -0.735038 0.133146 0
M  V30 4943 H 451.423 -1.66239 1.01739 0
M  V30 4944 H 450.519 -3.08633 0.463923 0
M  V30 4945 N 450.82 -0.546701 -1.47814 0
M  V30 4946 C 451.768 0.220048 -2.31557 0
M  V30 4947 C 452.762 0.919472 -1.42275 0
M  V30 4948 O 453.968 0.841953 -1.59095 0
M  V30 4949 H 450.343 0.0898334 -0.746615 0
M  V30 4950 H 452.314 -0.505589 -2.94086 0
M  V30 4951 C 451.063 1.24353 -3.24702 0
M  V30 4952 H 450.386 0.714758 -3.93359 0
M  V30 4953 H 451.826 1.75112 -3.8615 0
M  V30 4954 C 450.285 2.28593 -2.47481 0
M  V30 4955 O 450.815 3.35334 -2.21165 0
M  V30 4956 N 449.021 2.02244 -2.08676 0
M  V30 4957 H 448.568 1.15455 -2.30278 0
M  V30 4958 H 448.526 2.72207 -1.57323 0
M  V30 4959 N 452.299 1.55045 -0.282633 0
M  V30 4960 C 453.546 1.9976 0.33199 0
M  V30 4961 C 453.874 1.17105 1.55295 0
M  V30 4962 O 453.129 0.230599 1.94337 0
M  V30 4963 C 453.428 3.49422 0.750938 0
M  V30 4964 C 453.094 4.4941 -0.366228 0
M  V30 4965 C 451.756 4.76471 -0.672964 0
M  V30 4966 C 454.108 5.09054 -1.11864 0
M  V30 4967 C 451.436 5.60442 -1.73556 0
M  V30 4968 C 453.788 5.9418 -2.17102 0
M  V30 4969 C 452.452 6.19558 -2.48402 0
M  V30 4970 H 451.722 0.730974 0.121484 0
M  V30 4971 H 454.369 1.8732 -0.39791 0
M  V30 4972 H 452.674 3.59377 1.56063 0
M  V30 4973 H 454.371 3.81432 1.23736 0
M  V30 4974 H 450.961 4.2844 -0.117041 0
M  V30 4975 H 455.145 4.88165 -0.894925 0
M  V30 4976 H 450.401 5.78349 -1.983 0
M  V30 4977 H 454.575 6.39427 -2.75873 0
M  V30 4978 H 452.202 6.84417 -3.30874 0
M  V30 4979 N 453.777 0.010035 1.57597 0
M  V30 4980 C 455.002 -0.687021 1.95691 0
M  V30 4981 C 455.427 -1.65952 0.885519 0
M  V30 4982 O 454.785 -1.80633 -0.15543 0
M  V30 4983 C 454.833 -1.3864 3.32884 0
M  V30 4984 O 453.937 -2.50115 3.27897 0
M  V30 4985 H 453.278 -0.181989 0.638573 0
M  V30 4986 H 455.808 0.0662122 2.04493 0
M  V30 4987 H 455.818 -1.74754 3.6868 0
M  V30 4988 H 454.493 -0.673411 4.10412 0
M  V30 4989 H 453.07 -2.16253 3.03791 0
M  V30 4990 N 455.255 -1.55392 -0.262866 0
M  V30 4991 C 456.218 -1.88181 -1.30846 0
M  V30 4992 C 457.218 -0.757079 -1.41862 0
M  V30 4993 O 458.408 -1.02519 -1.40838 0
M  V30 4994 C 455.54 -2.09609 -2.68844 0
M  V30 4995 H 456.733 -2.81659 -1.02997 0
M  V30 4996 H 454.286 -1.48039 -0.501414 0
M  V30 4997 H 455.021 -1.18547 -3.01856 0
M  V30 4998 H 454.806 -2.91508 -2.62231 0
M  V30 4999 H 456.296 -2.36215 -3.44372 0
M  V30 5000 N 456.733 0.527833 -1.48498 0
M  V30 5001 C 457.979 1.28295 -1.57836 0
M  V30 5002 C 458.334 1.9077 -0.249943 0
M  V30 5003 O 457.627 1.76421 0.747402 0
M  V30 5004 C 457.821 2.39275 -2.65485 0
M  V30 5005 C 457.65 1.87679 -4.08664 0
M  V30 5006 C 456.42 1.70187 -4.75778 0
M  V30 5007 C 458.618 1.40409 -4.94762 0
M  V30 5008 N 456.6 1.13238 -6.03366 0
M  V30 5009 C 457.971 0.954216 -6.12613 0
M  V30 5010 C 460.026 1.28732 -4.8097 0
M  V30 5011 C 458.729 0.39915 -7.18192 0
M  V30 5012 C 460.755 0.746244 -5.86673 0
M  V30 5013 C 460.117 0.306457 -7.03733 0
M  V30 5014 H 456.216 0.460408 -0.632099 0
M  V30 5015 H 458.8 0.594913 -1.85388 0
M  V30 5016 H 456.971 3.05572 -2.3975 0
M  V30 5017 H 458.703 3.06308 -2.64495 0
M  V30 5018 H 455.458 1.93772 -4.32145 0
M  V30 5019 H 455.882 0.867687 -6.71417 0
M  V30 5020 H 460.524 1.61338 -3.90807 0
M  V30 5021 H 458.242 0.0607678 -8.08077 0
M  V30 5022 H 461.828 0.659041 -5.78055 0
M  V30 5023 H 460.708 -0.105708 -7.84129 0
M  V30 5024 N 458.211 1.37122 0.776871 0
M  V30 5025 C 459.436 1.354 1.57104 0
M  V30 5026 C 459.861 -0.0595562 1.88006 0
M  V30 5027 O 459.219 -1.03514 1.48844 0
M  V30 5028 C 459.267 2.19472 2.8612 0
M  V30 5029 O 458.371 1.59582 3.80273 0
M  V30 5030 H 457.712 0.462869 0.476076 0
M  V30 5031 H 460.242 1.80577 0.961932 0
M  V30 5032 H 460.252 2.32502 3.35271 0
M  V30 5033 H 458.927 3.22222 2.62956 0
M  V30 5034 H 457.504 1.55564 3.38902 0
M  V30 5035 N 459.689 -1.00246 1.21608 0
M  V30 5036 C 460.937 -1.73717 1.0328 0
M  V30 5037 C 461.258 -1.90102 -0.434318 0
M  V30 5038 O 460.528 -1.45376 -1.31311 0
M  V30 5039 H 459.108 -0.643613 0.379172 0
M  V30 5040 H 461.77 -1.20787 1.52959 0
M  V30 5041 H 460.866 -2.73535 1.50283 0
M  V30 5042 N 461.167 -1.02423 -1.1978 0
M  V30 5043 C 462.413 -0.719051 -1.89625 0
M  V30 5044 C 462.746 0.750083 -1.7913 0
M  V30 5045 O 462.021 1.54574 -1.18056 0
M  V30 5046 C 462.304 -1.16499 -3.40735 0
M  V30 5047 C 462.157 -2.695 -3.60125 0
M  V30 5048 C 463.476 -0.742166 -4.33797 0
M  V30 5049 H 460.595 -0.26269 -0.688595 0
M  V30 5050 H 463.237 -1.27333 -1.41018 0
M  V30 5051 H 461.387 -0.69341 -3.82262 0
M  V30 5052 H 463.059 -3.24569 -3.278 0
M  V30 5053 H 461.302 -3.10113 -3.03336 0
M  V30 5054 H 461.973 -2.95757 -4.66081 0
M  V30 5055 H 464.449 -1.1477 -3.99959 0
M  V30 5056 H 463.325 -1.08213 -5.38127 0
M  V30 5057 H 463.586 0.355747 -4.40666 0
M  V30 5058 N 462.645 1.35699 -0.801477 0
M  V30 5059 C 463.87 2.03687 -0.390678 0
M  V30 5060 C 464.295 1.60015 0.988778 0
M  V30 5061 O 463.653 0.774357 1.63931 0
M  V30 5062 C 463.701 3.57439 -0.476404 0
M  V30 5063 O 462.805 4.09208 0.512106 0
M  V30 5064 H 462.146 0.64344 -0.163956 0
M  V30 5065 H 464.676 1.73403 -1.08594 0
M  V30 5066 H 464.686 4.06544 -0.344357 0
M  V30 5067 H 463.361 3.88576 -1.48262 0
M  V30 5068 H 461.938 3.7134 0.340721 0
M  V30 5069 N 464.123 0.554532 1.47522 0
M  V30 5070 C 465.07 -0.19466 2.29978 0
M  V30 5071 C 466.04 -0.910882 1.38896 0
M  V30 5072 O 467.225 -0.907102 1.67858 0
M  V30 5073 C 464.365 -1.22035 3.22802 0
M  V30 5074 C 463.478 -0.510474 4.28973 0
M  V30 5075 C 462.613 -1.52123 5.08952 0
M  V30 5076 C 461.652 -0.796173 6.069 0
M  V30 5077 N 460.789 -1.75363 6.79847 0
M  V30 5078 H 465.629 0.51461 2.93523 0
M  V30 5079 H 463.166 0.265607 1.44682 0
M  V30 5080 H 465.124 -1.8276 3.7504 0
M  V30 5081 H 463.754 -1.89769 2.61127 0
M  V30 5082 H 462.806 0.211234 3.79813 0
M  V30 5083 H 464.118 0.0576503 4.98767 0
M  V30 5084 H 463.272 -2.20207 5.65326 0
M  V30 5085 H 462.011 -2.12327 4.39054 0
M  V30 5086 H 461.016 -0.101388 5.49707 0
M  V30 5087 H 462.241 -0.199911 6.78806 0
M  V30 5088 H 460.187 -2.3443 6.12682 0
M  V30 5089 H 460.104 -1.23759 7.45801 0
M  V30 5090 H 461.372 -2.4257 7.40797 0
M  V30 5091 N 465.601 -1.54893 0.290851 0
M  V30 5092 C 466.849 -1.99538 -0.320756 0
M  V30 5093 C 467.17 -1.18075 -1.55188 0
M  V30 5094 O 466.44 -0.274162 -1.93972 0
M  V30 5095 H 465.02 -0.737052 -0.121507 0
M  V30 5096 H 467.682 -1.90755 0.399832 0
M  V30 5097 H 466.778 -3.06282 -0.599802 0
M  V30 5098 N 467.08 -0.0183926 -1.57589 0
M  V30 5099 C 468.01 0.965596 -2.12599 0
M  V30 5100 C 468.991 1.34641 -1.0395 0
M  V30 5101 O 470.176 1.42693 -1.31729 0
M  V30 5102 C 467.306 2.25149 -2.64434 0
M  V30 5103 C 466.26 2.01175 -3.77773 0
M  V30 5104 C 465.586 3.35937 -4.15994 0
M  V30 5105 C 466.886 1.35953 -5.04296 0
M  V30 5106 H 468.58 0.507504 -2.95067 0
M  V30 5107 H 466.126 0.242671 -1.41941 0
M  V30 5108 H 468.079 2.94357 -3.01549 0
M  V30 5109 H 466.803 2.73105 -1.79112 0
M  V30 5110 H 465.462 1.34388 -3.4108 0
M  V30 5111 H 465.11 3.81631 -3.27669 0
M  V30 5112 H 464.81 3.20705 -4.92364 0
M  V30 5113 H 466.334 4.0643 -4.55683 0
M  V30 5114 H 467.748 1.95144 -5.39065 0
M  V30 5115 H 466.145 1.31152 -5.85593 0
M  V30 5116 H 467.215 0.331071 -4.83768 0
M  V30 5117 N 468.558 1.5553 0.254621 0
M  V30 5118 C 469.521 1.88872 1.29846 0
M  V30 5119 C 470.521 0.764591 1.41459 0
M  V30 5120 O 471.711 1.03265 1.40293 0
M  V30 5121 C 468.843 2.11032 2.67728 0
M  V30 5122 H 470.036 2.82201 1.01502 0
M  V30 5123 H 467.589 1.48303 0.493556 0
M  V30 5124 H 468.324 1.20146 3.01223 0
M  V30 5125 H 468.109 2.92895 2.60682 0
M  V30 5126 H 469.599 2.38038 3.43115 0
M  V30 5127 N 470.036 -0.519951 1.48776 0
M  V30 5128 C 470.946 -1.65025 1.66745 0
M  V30 5129 C 471.962 -1.6508 0.549954 0
M  V30 5130 O 473.138 -1.83848 0.822295 0
M  V30 5131 C 470.203 -3.0146 1.71238 0
M  V30 5132 C 469.264 -3.12182 2.94688 0
M  V30 5133 C 468.497 -4.42109 2.98958 0
M  V30 5134 O 468.72 -5.29799 2.1135 0
M  V30 5135 O 467.654 -4.57406 3.91233 0
M  V30 5136 H 471.48 -1.52801 2.62461 0
M  V30 5137 H 469.065 -0.694157 1.32294 0
M  V30 5138 H 470.947 -3.82584 1.76657 0
M  V30 5139 H 469.622 -3.13988 0.786975 0
M  V30 5140 H 468.529 -2.30316 2.94797 0
M  V30 5141 H 469.862 -3.04574 3.86646 0
M  V30 5142 N 471.514 -1.37532 -0.769588 0
M  V30 5143 C 472.739 -1.36231 -1.56384 0
M  V30 5144 C 473.164 0.0495849 -1.88035 0
M  V30 5145 O 472.522 1.02723 -1.49391 0
M  V30 5146 C 472.57 -2.20986 -2.84952 0
M  V30 5147 O 471.674 -1.61597 -3.79421 0
M  V30 5148 H 471.015 -0.465387 -0.473615 0
M  V30 5149 H 473.545 -1.81085 -0.952342 0
M  V30 5150 H 473.555 -2.34277 -3.34034 0
M  V30 5151 H 472.23 -3.23612 -2.61243 0
M  V30 5152 H 470.807 -1.57359 -3.38072 0
M  V30 5153 N 472.992 0.995999 -1.22138 0
M  V30 5154 C 473.922 2.10387 -1.01289 0
M  V30 5155 C 474.903 1.69975 0.0651454 0
M  V30 5156 O 476.088 1.9396 -0.0964628 0
M  V30 5157 C 473.218 3.42312 -0.586517 0
M  V30 5158 C 472.172 3.96558 -1.61014 0
M  V30 5159 C 471.498 5.24494 -1.0397 0
M  V30 5160 C 472.798 4.27595 -2.99933 0
M  V30 5161 H 474.492 2.28086 -1.93951 0
M  V30 5162 H 472.038 1.09607 -0.933928 0
M  V30 5163 H 473.991 4.19223 -0.427793 0
M  V30 5164 H 472.715 3.24431 0.375761 0
M  V30 5165 H 471.374 3.21776 -1.75658 0
M  V30 5166 H 471.022 5.02953 -0.0688703 0
M  V30 5167 H 470.722 5.61755 -1.72352 0
M  V30 5168 H 472.246 6.04042 -0.892494 0
M  V30 5169 H 473.66 4.95315 -2.8868 0
M  V30 5170 H 472.057 4.76021 -3.6541 0
M  V30 5171 H 473.127 3.35498 -3.50099 0
M  V30 5172 N 474.47 1.03057 1.19235 0
M  V30 5173 C 475.402 0.570932 2.21975 0
M  V30 5174 C 476.415 -0.354088 1.58903 0
M  V30 5175 O 477.604 -0.150211 1.77867 0
M  V30 5176 C 474.704 -0.187152 3.38383 0
M  V30 5177 C 473.877 0.743231 4.31039 0
M  V30 5178 C 472.936 0.0302493 5.26191 0
M  V30 5179 O 471.962 0.657371 5.65391 0
M  V30 5180 N 473.164 -1.23991 5.67104 0
M  V30 5181 H 475.929 1.45456 2.62036 0
M  V30 5182 H 473.49 0.909807 1.33918 0
M  V30 5183 H 475.482 -0.673715 3.99053 0
M  V30 5184 H 474.052 -0.972205 2.97098 0
M  V30 5185 H 473.272 1.40985 3.68126 0
M  V30 5186 H 474.56 1.3755 4.89854 0
M  V30 5187 H 473.958 -1.77011 5.37293 0
M  V30 5188 H 472.515 -1.67093 6.30018 0
M  V30 5189 N 475.948 -1.35272 0.808662 0
M  V30 5190 C 477.359 -1.81179 0.450688 0
M  V30 5191 C 477.71 -1.67143 -1.02751 0
M  V30 5192 O 476.835 -1.20325 -1.79864 0
M  V30 5193 C 477.43 -3.28943 0.811275 0
M  V30 5194 C 475.989 -3.72985 0.505871 0
M  V30 5195 C 475.136 -2.57229 1.03578 0
M  V30 5196 H 478.087 -1.2322 1.00012 0
M  V30 5197 H 478.108 -3.80342 0.109588 0
M  V30 5198 H 477.62 -3.39127 1.88718 0
M  V30 5199 H 475.721 -3.68349 -0.561209 0
M  V30 5200 H 475.834 -4.67677 1.03995 0
M  V30 5201 H 474.198 -2.50548 0.458005 0
M  V30 5202 H 474.981 -2.7019 2.11784 0
M  V30 5203 N 477.426 -0.562348 -1.47226 0
M  V30 5204 C 478.703 0.0256985 -1.95583 0
M  V30 5205 C 479.083 1.48032 -1.50498 0
M  V30 5206 O 478.431 2.15973 -0.746181 0
M  V30 5207 C 478.641 -0.125129 -3.48776 0
M  V30 5208 C 479.989 0.0175728 -4.24596 0
M  V30 5209 O 481.013 -0.0529341 -3.56161 0
M  V30 5210 O 479.872 0.170145 -5.46235 0
M  V30 5211 H 476.966 0.0612565 -0.824728 0
M  V30 5212 H 479.512 -0.629233 -1.57603 0
M  V30 5213 H 478.284 -1.13715 -3.74412 0
M  V30 5214 H 477.907 0.567178 -3.93534 0
M  V30 5215 N 478.904 1.54736 -0.299062 0
M  V30 5216 C 480.134 2.04215 0.312992 0
M  V30 5217 C 480.542 1.17596 1.48215 0
M  V30 5218 O 479.885 0.193835 1.82674 0
M  V30 5219 C 479.947 3.49696 0.833862 0
M  V30 5220 C 479.611 4.56518 -0.20977 0
M  V30 5221 C 480.608 5.09442 -1.03756 0
M  V30 5222 C 478.293 5.01073 -0.35091 0
M  V30 5223 C 480.287 6.05459 -1.99244 0
M  V30 5224 C 477.974 5.9691 -1.30924 0
M  V30 5225 C 478.972 6.48987 -2.1285 0
M  V30 5226 O 478.66 7.42947 -3.07059 0
M  V30 5227 H 478.392 0.672128 0.0722494 0
M  V30 5228 H 480.946 2.00718 -0.436043 0
M  V30 5229 H 479.176 3.5051 1.63339 0
M  V30 5230 H 480.865 3.82381 1.36159 0
M  V30 5231 H 481.631 4.75816 -0.939376 0
M  V30 5232 H 477.51 4.60168 0.276813 0
M  V30 5233 H 481.054 6.46031 -2.63229 0
M  V30 5234 H 476.951 6.29953 -1.40815 0
M  V30 5235 H 477.719 7.60743 -3.02015 0
M  V30 5236 N 480.382 0.0267497 1.57577 0
M  V30 5237 C 481.607 -0.666227 1.96408 0
M  V30 5238 C 482.032 -1.65004 0.903071 0
M  V30 5239 O 481.39 -1.80787 -0.136263 0
M  V30 5240 C 481.438 -1.35101 3.34335 0
M  V30 5241 O 480.542 -2.46623 3.30531 0
M  V30 5242 H 479.883 -0.175206 0.640468 0
M  V30 5243 H 482.413 0.0878977 2.04411 0
M  V30 5244 H 482.423 -1.70834 3.70513 0
M  V30 5245 H 481.098 -0.629844 4.11103 0
M  V30 5246 H 479.675 -2.13019 3.06068 0
M  V30 5247 N 481.861 -1.55662 -0.24637 0
M  V30 5248 C 482.771 -1.93495 -1.32653 0
M  V30 5249 C 483.787 -0.835462 -1.5263 0
M  V30 5250 O 484.963 -1.1369 -1.66242 0
M  V30 5251 C 482.028 -2.22242 -2.66101 0
M  V30 5252 C 481.089 -3.45625 -2.54641 0
M  V30 5253 C 480.322 -3.72991 -3.81724 0
M  V30 5254 O 480.545 -3.02421 -4.8363 0
M  V30 5255 O 479.479 -4.66515 -3.80325 0
M  V30 5256 H 483.305 -2.85498 -1.03559 0
M  V30 5257 H 480.89 -1.42551 -0.44717 0
M  V30 5258 H 482.772 -2.42037 -3.44958 0
M  V30 5259 H 481.447 -1.33417 -2.94926 0
M  V30 5260 H 480.354 -3.31136 -1.74067 0
M  V30 5261 H 481.687 -4.34754 -2.3076 0
M  V30 5262 N 483.339 0.512053 -1.4905 0
M  V30 5263 C 484.755 0.84224 -1.35567 0
M  V30 5264 C 484.955 1.97878 -0.380319 0
M  V30 5265 O 484.011 2.51769 0.19201 0
M  V30 5266 C 485.324 1.19286 -2.76028 0
M  V30 5267 C 486.872 1.30171 -2.84648 0
M  V30 5268 C 487.347 1.68568 -4.25851 0
M  V30 5269 N 488.838 1.75638 -4.28609 0
M  V30 5270 C 489.573 2.06769 -5.34821 0
M  V30 5271 N 489.069 2.36201 -6.51292 0
M  V30 5272 N 490.862 2.07927 -5.22229 0
M  V30 5273 H 483.013 -0.237574 -2.11067 0
M  V30 5274 H 485.276 -0.0436747 -0.946993 0
M  V30 5275 H 484.982 0.431199 -3.49047 0
M  V30 5276 H 484.856 2.13889 -3.10695 0
M  V30 5277 H 487.243 2.05411 -2.11873 0
M  V30 5278 H 487.324 0.336457 -2.53578 0
M  V30 5279 H 486.968 0.938824 -4.99148 0
M  V30 5280 H 486.898 2.66174 -4.54377 0
M  V30 5281 H 489.389 1.55097 -3.44606 0
M  V30 5282 H 489.702 2.59112 -7.28066 0
M  V30 5283 H 488.047 2.33681 -6.54536 0
M  V30 5284 H 491.238 1.84403 -4.30248 0
M  V30 5285 H 491.411 2.31856 -6.05101 0
M  V30 5286 N 484.817 1.37938 0.762283 0
M  V30 5287 C 485.747 1.37176 1.88958 0
M  V30 5288 C 486.728 0.238945 1.68413 0
M  V30 5289 O 487.913 0.440726 1.89133 0
M  V30 5290 C 485.043 1.18742 3.2637 0
M  V30 5291 C 483.997 2.29136 3.61498 0
M  V30 5292 C 483.323 1.95816 4.97554 0
M  V30 5293 C 484.623 3.71363 3.6727 0
M  V30 5294 H 486.317 2.31509 1.89853 0
M  V30 5295 H 483.863 1.11438 0.912005 0
M  V30 5296 H 485.816 1.16837 4.04879 0
M  V30 5297 H 484.54 0.208683 3.25933 0
M  V30 5298 H 483.199 2.30213 2.85303 0
M  V30 5299 H 482.847 0.964475 4.93667 0
M  V30 5300 H 482.547 2.69745 5.22026 0
M  V30 5301 H 484.071 1.95513 5.78452 0
M  V30 5302 H 485.485 3.72364 4.35911 0
M  V30 5303 H 483.882 4.44425 4.03245 0
M  V30 5304 H 484.952 4.04305 2.67704 0
M  V30 5305 N 486.295 -0.989507 1.22664 0
M  V30 5306 C 487.535 -1.7447 1.06488 0
M  V30 5307 C 487.899 -1.8794 -0.392737 0
M  V30 5308 O 489.1 -2.60175 -0.675446 0
M  V30 5309 C 487.371 -3.11043 1.76031 0
M  V30 5310 S 488.93 -4.02258 1.7531 0
M  V30 5311 H 485.748 -0.600123 0.381278 0
M  V30 5312 H 488.35 -1.18283 1.55658 0
M  V30 5313 H 487.054 -2.98884 2.81241 0
M  V30 5314 H 486.585 -3.72301 1.27105 0
M  V30 5315 H 488.6 -4.89623 0.805208 0
M  V30 5316 N 487.773 -1.03688 -1.18687 0
M  V30 5317 C 488.703 -0.645407 -2.24403 0
M  V30 5318 C 489.684 0.349511 -1.66471 0
M  V30 5319 O 490.869 0.230453 -1.92828 0
M  V30 5320 C 487.999 -0.00365337 -3.473 0
M  V30 5321 C 486.953 -0.921705 -4.17958 0
M  V30 5322 C 486.279 -0.144629 -5.34504 0
M  V30 5323 C 487.579 -2.23909 -4.71871 0
M  V30 5324 H 489.273 -1.52917 -2.57404 0
M  V30 5325 H 486.819 -0.736711 -1.23728 0
M  V30 5326 H 488.772 0.281908 -4.20456 0
M  V30 5327 H 487.496 0.914963 -3.13522 0
M  V30 5328 H 486.155 -1.19159 -3.46694 0
M  V30 5329 H 485.803 0.776274 -4.96974 0
M  V30 5330 H 485.503 -0.756206 -5.82714 0
M  V30 5331 H 487.027 0.134004 -6.10453 0
M  V30 5332 H 488.441 -2.0145 -5.36741 0
M  V30 5333 H 486.838 -2.8033 -5.30599 0
M  V30 5334 H 487.908 -2.88822 -3.895 0
M  V30 5335 N 489.251 1.34841 -0.815825 0
M  V30 5336 C 490.497 1.98793 -0.401129 0
M  V30 5337 C 490.83 1.64548 1.03139 0
M  V30 5338 O 490.105 0.913487 1.71714 0
M  V30 5339 C 490.388 3.55143 -0.595409 0
M  V30 5340 C 490.241 3.99155 -2.07352 0
M  V30 5341 C 491.56 4.40092 -0.0268823 0
M  V30 5342 H 488.679 0.722146 -0.14722 0
M  V30 5343 H 491.321 1.59847 -1.02707 0
M  V30 5344 H 489.471 3.8845 -0.0625779 0
M  V30 5345 H 491.143 3.76216 -2.66945 0
M  V30 5346 H 489.386 3.49726 -2.56659 0
M  V30 5347 H 490.057 5.07971 -2.1603 0
M  V30 5348 H 492.533 4.13298 -0.482042 0
M  V30 5349 H 491.409 5.48562 -0.19267 0
M  V30 5350 H 491.67 4.29016 1.06759 0
M  V30 5351 N 490.729 0.570148 1.46925 0
M  V30 5352 C 491.954 0.0542592 2.07329 0
M  V30 5353 C 492.379 -1.23582 1.41806 0
M  V30 5354 O 491.737 -1.74341 0.497479 0
M  V30 5355 C 491.785 -0.111175 3.60429 0
M  V30 5356 O 490.889 -1.17071 3.95434 0
M  V30 5357 H 490.23 0.0571425 0.661537 0
M  V30 5358 H 492.76 0.789516 1.88753 0
M  V30 5359 H 492.77 -0.321315 4.06733 0
M  V30 5360 H 491.445 0.831012 4.07513 0
M  V30 5361 H 490.022 -0.940029 3.60857 0
M  V30 5362 N 492.207 -1.54576 0.307264 0
M  V30 5363 C 493.117 -2.27435 -0.57536 0
M  V30 5364 C 494.133 -1.31183 -1.14311 0
M  V30 5365 O 495.309 -1.64175 -1.16656 0
M  V30 5366 C 492.374 -3.00566 -1.72803 0
M  V30 5367 C 491.435 -4.12369 -1.19373 0
M  V30 5368 C 490.668 -4.82003 -2.29147 0
M  V30 5369 O 490.891 -4.51038 -3.49171 0
M  V30 5370 O 489.825 -5.69271 -1.95485 0
M  V30 5371 H 493.651 -3.03696 0.0158558 0
M  V30 5372 H 491.236 -1.49219 0.0735064 0
M  V30 5373 H 493.118 -3.46416 -2.39946 0
M  V30 5374 H 491.793 -2.27195 -2.30574 0
M  V30 5375 H 490.7 -3.70905 -0.487851 0
M  V30 5376 H 492.033 -4.87736 -0.661376 0
M  V30 5377 N 493.685 -0.035106 -1.57561 0
M  V30 5378 C 494.934 0.641604 -1.91223 0
M  V30 5379 C 495.247 1.72944 -0.913761 0
M  V30 5380 O 496.453 2.46321 -1.14185 0
M  V30 5381 C 494.909 1.19249 -3.3957 0
M  V30 5382 C 494.517 0.137616 -4.47789 0
M  V30 5383 C 496.261 1.84537 -3.82291 0
M  V30 5384 C 494.168 0.700478 -5.87237 0
M  V30 5385 H 493.098 0.243417 -0.713627 0
M  V30 5386 H 495.749 -0.101382 -1.8322 0
M  V30 5387 H 494.131 1.98728 -3.42525 0
M  V30 5388 H 495.305 -0.635153 -4.56402 0
M  V30 5389 H 493.62 -0.416855 -4.14308 0
M  V30 5390 H 496.217 2.27616 -4.83834 0
M  V30 5391 H 496.56 2.69054 -3.17672 0
M  V30 5392 H 497.093 1.11739 -3.81784 0
M  V30 5393 H 493.832 -0.106693 -6.55413 0
M  V30 5394 H 493.352 1.4416 -5.82218 0
M  V30 5395 H 495.031 1.18837 -6.35993 0
M  V30 5396 N 495.163 1.55791 0.238111 0
M  V30 5397 C 496.574 1.68383 0.806472 0
M  V30 5398 C 496.925 0.634157 1.85669 0
M  V30 5399 O 496.05 -0.217913 2.153 0
M  V30 5400 C 496.645 3.05268 1.46959 0
M  V30 5401 C 495.204 3.1977 1.98555 0
M  V30 5402 C 494.351 2.64279 0.839763 0
M  V30 5403 H 497.302 1.58694 0.0137535 0
M  V30 5404 H 497.323 3.00203 2.33792 0
M  V30 5405 H 496.835 3.81643 0.704993 0
M  V30 5406 H 494.936 2.48234 2.77868 0
M  V30 5407 H 495.049 4.26788 2.17689 0
M  V30 5408 H 493.413 2.22329 1.24265 0
M  V30 5409 H 494.196 3.43187 0.0881032 0
M  V30 5410 N 496.642 -0.504142 1.49319 0
M  V30 5411 C 498.053 -1.08572 1.51885 0
M  V30 5412 C 498.404 -1.93842 0.303255 0
M  V30 5413 O 497.529 -2.0828 -0.58724 0
M  V30 5414 C 498.124 -1.97574 2.75227 0
M  V30 5415 C 496.683 -2.509 2.80581 0
M  V30 5416 C 495.83 -1.28447 2.45757 0
M  V30 5417 H 498.781 -0.288194 1.56061 0
M  V30 5418 H 498.802 -2.82219 2.55211 0
M  V30 5419 H 498.314 -1.35486 3.63683 0
M  V30 5420 H 496.415 -3.16636 1.96398 0
M  V30 5421 H 496.528 -2.88268 3.82673 0
M  V30 5422 H 494.892 -1.60868 1.97468 0
M  V30 5423 H 495.675 -0.68072 3.36483 0
M  V30 5424 N 498.12 -1.38341 -0.754957 0
M  V30 5425 C 499.067 -1.3546 -1.86867 0
M  V30 5426 C 500.037 -0.217369 -1.64672 0
M  V30 5427 O 501.222 -0.409383 -1.86356 0
M  V30 5428 C 498.362 -1.18413 -3.24149 0
M  V30 5429 C 497.475 -2.41511 -3.58185 0
M  V30 5430 C 496.61 -2.17205 -4.84763 0
M  V30 5431 C 495.649 -3.36081 -5.11582 0
M  V30 5432 N 494.786 -3.11219 -6.29354 0
M  V30 5433 H 499.626 -2.30672 -1.88664 0
M  V30 5434 H 497.163 -1.14607 -0.922154 0
M  V30 5435 H 499.121 -1.06545 -4.03366 0
M  V30 5436 H 497.751 -0.268397 -3.21682 0
M  V30 5437 H 496.803 -2.64056 -2.73822 0
M  V30 5438 H 498.115 -3.30115 -3.73932 0
M  V30 5439 H 497.269 -2.02465 -5.7192 0
M  V30 5440 H 496.008 -1.25964 -4.71152 0
M  V30 5441 H 495.013 -3.51341 -4.22894 0
M  V30 5442 H 496.238 -4.28196 -5.27091 0
M  V30 5443 H 494.184 -2.22624 -6.17069 0
M  V30 5444 H 494.101 -3.93373 -6.45596 0
M  V30 5445 H 495.369 -3.00132 -7.19403 0
M  V30 5446 N 499.598 0.982988 -1.23187 0
M  V30 5447 C 500.846 1.72052 -1.06031 0
M  V30 5448 C 501.167 1.90769 0.404019 0
M  V30 5449 O 500.437 1.47446 1.28982 0
M  V30 5450 H 499.017 0.637499 -0.389363 0
M  V30 5451 H 501.679 1.18338 -1.54862 0
M  V30 5452 H 500.775 2.7111 -1.54615 0
M  V30 5453 N 501.076 1.04316 1.18135 0
M  V30 5454 C 502.324 0.746542 1.87806 0
M  V30 5455 C 502.645 -0.728082 1.80898 0
M  V30 5456 O 501.915 -1.52554 1.22899 0
M  V30 5457 H 500.495 0.273157 0.695265 0
M  V30 5458 H 503.157 1.32044 1.43354 0
M  V30 5459 H 502.253 1.05362 2.93778 0
M  V30 5460 N 502.554 -1.34406 0.822964 0
M  V30 5461 C 503.517 -2.2783 0.250271 0
M  V30 5462 C 504.517 -1.50288 -0.571854 0
M  V30 5463 O 505.707 -1.69825 -0.387952 0
M  V30 5464 C 502.839 -3.34663 -0.649137 0
M  V30 5465 H 504.032 -2.79992 1.07444 0
M  V30 5466 H 501.585 -1.44539 0.594829 0
M  V30 5467 H 502.32 -2.87714 -1.49637 0
M  V30 5468 H 502.105 -3.92052 -0.0611199 0
M  V30 5469 H 503.595 -4.04349 -1.04363 0
M  V30 5470 N 504.032 -0.577932 -1.46621 0
M  V30 5471 C 504.962 0.145917 -2.33044 0
M  V30 5472 C 505.943 0.888412 -1.45056 0
M  V30 5473 O 507.128 0.864812 -1.73881 0
M  V30 5474 C 504.258 1.16322 -3.27241 0
M  V30 5475 C 503.212 0.535868 -4.24632 0
M  V30 5476 C 502.538 1.65929 -5.08303 0
M  V30 5477 C 503.838 -0.523861 -5.19666 0
M  V30 5478 H 505.532 -0.575636 -2.93814 0
M  V30 5479 H 503.078 -0.278272 -1.41286 0
M  V30 5480 H 505.031 1.67793 -3.86553 0
M  V30 5481 H 503.755 1.91498 -2.64567 0
M  V30 5482 H 502.414 0.0422759 -3.66576 0
M  V30 5483 H 502.062 2.40061 -4.42018 0
M  V30 5484 H 501.762 1.2452 -5.74255 0
M  V30 5485 H 503.286 2.17686 -5.70478 0
M  V30 5486 H 504.7 -0.0944059 -5.73222 0
M  V30 5487 H 503.097 -0.858 -5.93935 0
M  V30 5488 H 504.167 -1.41197 -4.63887 0
M  V30 5489 N 505.51 1.54411 -0.315457 0
M  V30 5490 C 506.758 2.00023 0.288971 0
M  V30 5491 C 507.079 1.20529 1.5329 0
M  V30 5492 O 506.349 0.304986 1.93511 0
M  V30 5493 H 504.929 0.738891 0.109766 0
M  V30 5494 H 507.591 1.90094 -0.430129 0
M  V30 5495 H 506.687 3.07198 0.550999 0
M  V30 5496 N 506.988 0.0434614 1.5754 0
M  V30 5497 C 507.898 -0.94893 2.14552 0
M  V30 5498 C 508.914 -1.34707 1.10136 0
M  V30 5499 O 510.09 -1.42557 1.42266 0
M  V30 5500 C 507.155 -2.208 2.67298 0
M  V30 5501 C 506.216 -1.86893 3.86484 0
M  V30 5502 C 505.449 -3.06797 4.36705 0
M  V30 5503 O 505.672 -4.19921 3.86034 0
M  V30 5504 O 504.606 -2.8826 5.28384 0
M  V30 5505 H 508.432 -0.494099 2.99654 0
M  V30 5506 H 506.017 -0.177989 1.48336 0
M  V30 5507 H 507.899 -2.94686 3.01228 0
M  V30 5508 H 506.574 -2.65436 1.85272 0
M  V30 5509 H 505.481 -1.10347 3.57455 0
M  V30 5510 H 506.814 -1.47062 4.69716 0
M  V30 5511 N 508.466 -1.55915 -0.229846 0
M  V30 5512 C 509.714 -1.7819 -0.953565 0
M  V30 5513 C 510.035 -0.610504 -1.85197 0
M  V30 5514 O 509.305 0.372988 -1.92316 0
M  V30 5515 H 507.885 -0.657208 -0.355087 0
M  V30 5516 H 510.547 -1.9337 -0.243693 0
M  V30 5517 H 509.643 -2.70011 -1.56527 0
M  V30 5518 N 509.944 0.496216 -1.49584 0
M  V30 5519 C 511.355 1.07765 -1.52459 0
M  V30 5520 C 511.706 1.93679 -0.31353 0
M  V30 5521 O 510.831 2.08588 0.576186 0
M  V30 5522 C 511.426 1.96111 -2.76271 0
M  V30 5523 C 509.985 2.49409 -2.81908 0
M  V30 5524 C 509.132 1.27142 -2.46435 0
M  V30 5525 H 512.083 0.279914 -1.56212 0
M  V30 5526 H 512.104 2.80862 -2.56704 0
M  V30 5527 H 511.616 1.33555 -3.64396 0
M  V30 5528 H 509.717 3.1559 -1.98074 0
M  V30 5529 H 509.83 2.86234 -3.84196 0
M  V30 5530 H 508.194 1.59818 -1.98319 0
M  V30 5531 H 508.977 0.662866 -3.3684 0
M  V30 5532 N 511.423 1.38739 0.74761 0
M  V30 5533 C 512.671 1.35007 1.50391 0
M  V30 5534 C 512.992 -0.0574274 1.94915 0
M  V30 5535 O 512.262 -1.00628 1.6808 0
M  V30 5536 H 510.842 0.496784 0.557866 0
M  V30 5537 H 513.504 1.73479 0.888319 0
M  V30 5538 H 512.6 2.00474 2.392 0
M  V30 5539 N 512.901 -0.976442 1.23707 0
M  V30 5540 C 513.864 -2.0511 1.02287 0
M  V30 5541 C 514.864 -1.60791 -0.0167195 0
M  V30 5542 O 516.054 -1.72761 0.223408 0
M  V30 5543 C 513.186 -3.36458 0.548507 0
M  V30 5544 H 514.379 -2.25545 1.9766 0
M  V30 5545 H 511.932 -1.15042 1.05806 0
M  V30 5546 H 512.667 -3.21713 -0.408818 0
M  V30 5547 H 512.452 -3.69967 1.29874 0
M  V30 5548 H 513.942 -4.15489 0.419406 0
M  V30 5549 N 514.379 -1.04941 -1.1758 0
M  V30 5550 C 515.604 -0.778253 -1.92245 0
M  V30 5551 C 516.029 0.659707 -1.76152 0
M  V30 5552 O 515.387 1.45803 -1.07755 0
M  V30 5553 C 515.435 -1.16051 -3.41416 0
M  V30 5554 O 514.539 -0.291153 -4.11371 0
M  V30 5555 H 513.88 -0.285619 -0.599431 0
M  V30 5556 H 516.41 -1.40159 -1.49052 0
M  V30 5557 H 516.42 -1.12619 -3.92149 0
M  V30 5558 H 515.095 -2.208 -3.52449 0
M  V30 5559 H 513.672 -0.385851 -3.70898 0
M  V30 5560 N 515.857 1.33968 -0.830081 0
M  V30 5561 C 517.268 1.80439 -0.479455 0
M  V30 5562 C 517.619 1.68756 1.00079 0
M  V30 5563 O 516.744 1.23171 1.77927 0
M  V30 5564 C 517.339 3.27611 -0.863505 0
M  V30 5565 C 515.898 3.72133 -0.565145 0
M  V30 5566 C 515.045 2.55549 -1.07657 0
M  V30 5567 H 517.996 1.21614 -1.0196 0
M  V30 5568 H 518.017 3.8012 -0.170083 0
M  V30 5569 H 517.529 3.36082 -1.94089 0
M  V30 5570 H 515.63 3.69196 0.502536 0
M  V30 5571 H 515.743 4.65963 -1.11422 0
M  V30 5572 H 514.107 2.49788 -0.497807 0
M  V30 5573 H 514.89 2.66786 -2.16055 0
M  V30 5574 N 517.335 0.585699 1.46312 0
M  V30 5575 C 518.575 0.0751432 2.04262 0
M  V30 5576 C 518.939 -1.26201 1.44697 0
M  V30 5577 O 520.14 -1.86198 1.93865 0
M  V30 5578 C 518.411 0.013478 3.57397 0
M  V30 5579 S 519.97 -0.439068 4.36598 0
M  V30 5580 H 516.788 0.0389228 0.709934 0
M  V30 5581 H 519.39 0.778871 1.79315 0
M  V30 5582 H 518.094 0.990558 3.98266 0
M  V30 5583 H 517.625 -0.712927 3.86886 0
M  V30 5584 H 519.64 -1.6932 4.66417 0
M  V30 5585 N 518.813 -1.54241 0.323641 0
M  V30 5586 C 519.761 -2.25813 -0.557804 0
M  V30 5587 C 520.755 -1.27225 -1.11849 0
M  V30 5588 O 521.961 -1.45001 -1.06652 0
M  V30 5589 H 518.336 -0.72532 -0.198532 0
M  V30 5590 H 520.307 -2.98322 0.0681112 0
M  V30 5591 C 519.056 -3.02913 -1.70701 0
M  V30 5592 H 518.379 -3.78593 -1.28482 0
M  V30 5593 H 519.819 -3.56238 -2.29935 0
M  V30 5594 C 518.278 -2.11217 -2.62467 0
M  V30 5595 O 518.808 -1.69508 -3.64184 0
M  V30 5596 N 517.014 -1.76704 -2.30703 0
M  V30 5597 H 516.561 -2.1082 -1.48029 0
M  V30 5598 H 516.519 -1.15631 -2.92364 0
M  V30 5599 N 520.291 -0.0518155 -1.57515 0
M  V30 5600 C 521.223 0.951542 -2.08515 0
M  V30 5601 C 522.236 1.27436 -1.01311 0
M  V30 5602 O 523.425 1.23504 -1.28876 0
M  V30 5603 C 520.525 2.27291 -2.5138 0
M  V30 5604 C 519.698 2.13191 -3.81927 0
M  V30 5605 C 518.757 3.28458 -4.11098 0
M  V30 5606 O 517.783 3.04334 -4.81009 0
M  V30 5607 N 518.985 4.52954 -3.63061 0
M  V30 5608 H 521.75 0.516242 -2.9522 0
M  V30 5609 H 519.311 0.13441 -1.61341 0
M  V30 5610 H 521.303 3.03272 -2.67971 0
M  V30 5611 H 519.873 2.62386 -1.69919 0
M  V30 5612 H 519.093 1.21798 -3.74912 0
M  V30 5613 H 520.381 2.00999 -4.67415 0
M  V30 5614 H 519.779 4.75444 -3.06545 0
M  V30 5615 H 518.336 5.26026 -3.84889 0
M  V30 5616 N 521.769 1.56035 0.221574 0
M  V30 5617 C 522.719 1.8881 1.27807 0
M  V30 5618 C 523.703 0.751177 1.42289 0
M  V30 5619 O 524.895 1.01359 1.45104 0
M  V30 5620 C 522.024 2.20828 2.6285 0
M  V30 5621 C 521.11 3.40912 2.52269 0
M  V30 5622 N 521.501 4.59531 2.1134 0
M  V30 5623 C 519.799 3.44526 2.83228 0
M  V30 5624 C 520.5 5.41689 2.1201 0
M  V30 5625 N 519.476 4.814 2.52497 0
M  V30 5626 H 523.278 2.78036 0.952529 0
M  V30 5627 H 520.792 1.566 0.430134 0
M  V30 5628 H 522.789 2.42483 3.39127 0
M  V30 5629 H 521.449 1.32914 2.9625 0
M  V30 5630 H 522.46 4.8469 1.82472 0
M  V30 5631 H 519.137 2.66956 3.21 0
M  V30 5632 H 520.527 6.46643 1.82491 0
M  V30 5633 N 523.247 -0.488276 1.49845 0
M  V30 5634 C 524.472 -1.26997 1.63971 0
M  V30 5635 C 524.897 -1.85427 0.315994 0
M  V30 5636 O 524.255 -1.66475 -0.718032 0
M  V30 5637 C 524.303 -2.36689 2.72049 0
M  V30 5638 O 523.407 -3.40882 2.32107 0
M  V30 5639 H 522.748 -0.374376 0.548396 0
M  V30 5640 H 525.278 -0.583104 1.96115 0
M  V30 5641 H 525.288 -2.82262 2.94605 0
M  V30 5642 H 523.963 -1.93529 3.68129 0
M  V30 5643 H 522.54 -3.01139 2.19931 0
M  V30 5644 N 524.725 -1.39134 -0.740242 0
M  V30 5645 C 526.136 -1.32208 -1.31825 0
M  V30 5646 C 526.487 0.0159919 -1.96193 0
M  V30 5647 O 525.612 0.918111 -1.95958 0
M  V30 5648 C 526.207 -2.39436 -2.39699 0
M  V30 5649 C 524.766 -2.36048 -2.93187 0
M  V30 5650 C 523.913 -2.21599 -1.66701 0
M  V30 5651 H 526.864 -1.49298 -0.538133 0
M  V30 5652 H 526.885 -2.05922 -3.19963 0
M  V30 5653 H 526.397 -3.36811 -1.92821 0
M  V30 5654 H 524.498 -1.42295 -3.44359 0
M  V30 5655 H 524.611 -3.30704 -3.46658 0
M  V30 5656 H 522.975 -1.68681 -1.90837 0
M  V30 5657 H 523.758 -3.20936 -1.21882 0
M  V30 5658 N 526.204 0.969867 -1.24223 0
M  V30 5659 C 527.434 1.74502 -1.106 0
M  V30 5660 C 527.842 1.86038 0.344483 0
M  V30 5661 O 527.185 1.3465 1.24961 0
M  V30 5662 C 527.247 3.18391 -1.66935 0
M  V30 5663 C 526.911 3.30334 -3.15798 0
M  V30 5664 C 527.908 3.15832 -4.12973 0
M  V30 5665 C 525.593 3.54644 -3.55715 0
M  V30 5666 C 527.587 3.25461 -5.48045 0
M  V30 5667 C 525.274 3.63912 -4.90929 0
M  V30 5668 C 526.272 3.49332 -5.86904 0
M  V30 5669 O 525.96 3.58251 -7.1966 0
M  V30 5670 H 525.692 0.554119 -0.387206 0
M  V30 5671 H 528.246 1.22646 -1.64764 0
M  V30 5672 H 526.476 3.71543 -1.07203 0
M  V30 5673 H 528.165 3.77707 -1.48634 0
M  V30 5674 H 528.931 2.96937 -3.83476 0
M  V30 5675 H 524.81 3.65059 -2.81519 0
M  V30 5676 H 528.354 3.13998 -6.22937 0
M  V30 5677 H 524.251 3.82319 -5.20098 0
M  V30 5678 H 525.019 3.7498 -7.27552 0
M  V30 5679 N 527.682 1.05563 1.17022 0
M  V30 5680 C 528.928 0.778872 1.87897 0
M  V30 5681 C 529.283 -0.686839 1.79723 0
M  V30 5682 O 528.576 -1.49612 1.19694 0
M  V30 5683 C 528.77 1.19849 3.36706 0
M  V30 5684 C 528.599 2.70345 3.59366 0
M  V30 5685 C 527.369 3.37707 3.75875 0
M  V30 5686 C 529.567 3.68564 3.58699 0
M  V30 5687 N 527.549 4.7703 3.86414 0
M  V30 5688 C 528.92 4.93634 3.75134 0
M  V30 5689 C 530.975 3.6198 3.4187 0
M  V30 5690 C 529.678 6.12907 3.76481 0
M  V30 5691 C 531.704 4.80697 3.44507 0
M  V30 5692 C 531.066 6.04592 3.61453 0
M  V30 5693 H 527.165 0.337297 0.705517 0
M  V30 5694 H 529.749 1.34832 1.40458 0
M  V30 5695 H 527.92 0.656958 3.82804 0
M  V30 5696 H 529.652 0.871172 3.95212 0
M  V30 5697 H 526.407 2.88108 3.75887 0
M  V30 5698 H 526.831 5.49483 3.95471 0
M  V30 5699 H 531.473 2.67154 3.27702 0
M  V30 5700 H 529.191 7.08073 3.89432 0
M  V30 5701 H 532.777 4.77259 3.32738 0
M  V30 5702 H 531.657 6.94916 3.63403 0
M  V30 5703 N 529.16 -1.33526 0.837174 0
M  V30 5704 C 530.123 -2.27551 0.274421 0
M  V30 5705 C 531.123 -1.50886 -0.555881 0
M  V30 5706 O 532.313 -1.70227 -0.369918 0
M  V30 5707 C 529.445 -3.35332 -0.613605 0
M  V30 5708 H 530.638 -2.78837 1.10408 0
M  V30 5709 H 528.191 -1.439 0.610126 0
M  V30 5710 H 528.926 -2.89285 -1.46577 0
M  V30 5711 H 528.711 -3.92095 -0.0195341 0
M  V30 5712 H 530.201 -4.05433 -1.00068 0
M  V30 5713 N 530.638 -0.59345 -1.46 0
M  V30 5714 C 532.049 -0.169801 -1.85926 0
M  V30 5715 C 532.4 1.26984 -1.49565 0
M  V30 5716 O 531.525 1.96076 -0.915602 0
M  V30 5717 C 532.12 -0.301385 -3.37457 0
M  V30 5718 C 530.679 0.0674684 -3.7634 0
M  V30 5719 C 529.826 -0.632383 -2.69993 0
M  V30 5720 H 532.777 -0.801014 -1.37002 0
M  V30 5721 H 532.798 0.470331 -3.77582 0
M  V30 5722 H 532.31 -1.34927 -3.63891 0
M  V30 5723 H 530.411 1.11507 -3.55523 0
M  V30 5724 H 530.524 -0.316332 -4.78055 0
M  V30 5725 H 528.888 -0.0714961 -2.546 0
M  V30 5726 H 529.671 -1.68212 -2.99265 0
M  V30 5727 N 532.116 1.54067 -0.331816 0
M  V30 5728 C 533.527 1.86059 0.15454 0
M  V30 5729 C 533.878 1.25331 1.50952 0
M  V30 5730 O 533.003 0.562441 2.08963 0
M  V30 5731 C 533.598 3.37581 0.287192 0
M  V30 5732 C 532.157 3.69493 0.717773 0
M  V30 5733 C 531.304 2.76863 -0.155569 0
M  V30 5734 H 534.255 1.48797 -0.55182 0
M  V30 5735 H 534.276 3.63744 1.11671 0
M  V30 5736 H 533.788 3.81751 -0.699131 0
M  V30 5737 H 531.889 3.3086 1.71354 0
M  V30 5738 H 532.002 4.76315 0.5158 0
M  V30 5739 H 530.366 2.51995 0.370213 0
M  V30 5740 H 531.149 3.23861 -1.13881 0
M  V30 5741 N 533.594 0.0601682 1.57485 0
M  V30 5742 C 534.834 -0.615384 1.94916 0
M  V30 5743 C 535.198 -1.67475 0.938948 0
M  V30 5744 O 536.399 -2.40502 1.20051 0
M  V30 5745 C 534.67 -1.18788 3.37082 0
M  V30 5746 S 536.229 -1.88018 3.96478 0
M  V30 5747 H 533.047 -0.201821 0.681754 0
M  V30 5748 H 535.649 0.131252 1.95059 0
M  V30 5749 H 534.353 -0.404869 4.08398 0
M  V30 5750 H 533.884 -1.97114 3.40455 0
M  V30 5751 H 535.899 -3.16161 3.82435 0
M  V30 5752 N 535.072 -1.5615 -0.213296 0
M  V30 5753 C 536.302 -1.83372 -0.951757 0
M  V30 5754 C 536.71 -0.638158 -1.78113 0
M  V30 5755 O 536.053 0.402609 -1.79234 0
M  V30 5756 C 536.115 -3.04444 -1.91192 0
M  V30 5757 C 535.779 -4.39107 -1.26627 0
M  V30 5758 C 536.776 -5.15794 -0.652087 0
M  V30 5759 C 534.461 -4.85834 -1.27556 0
M  V30 5760 C 536.455 -6.37376 -0.055814 0
M  V30 5761 C 534.142 -6.07356 -0.675451 0
M  V30 5762 C 535.14 -6.82967 -0.0666367 0
M  V30 5763 O 534.828 -8.0219 0.524119 0
M  V30 5764 H 534.56 -0.613398 -0.284111 0
M  V30 5765 H 537.114 -2.04096 -0.231112 0
M  V30 5766 H 535.344 -2.79559 -2.67178 0
M  V30 5767 H 537.033 -3.18466 -2.51662 0
M  V30 5768 H 537.799 -4.80796 -0.637172 0
M  V30 5769 H 533.678 -4.26949 -1.73883 0
M  V30 5770 H 537.222 -6.96334 0.420004 0
M  V30 5771 H 533.119 -6.41825 -0.687806 0
M  V30 5772 H 533.887 -8.17426 0.419243 0
M  V30 5773 N 536.55 0.480323 -1.50102 0
M  V30 5774 C 537.778 1.25657 -1.64371 0
M  V30 5775 C 538.193 1.86011 -0.323316 0
M  V30 5776 O 537.55 1.68803 0.693682 0
M  V30 5777 C 537.601 2.37197 -2.728 0
M  V30 5778 O 537.322 1.7932 -3.9972 0
M  V30 5779 C 538.823 3.2823 -2.9796 0
M  V30 5780 H 536.043 0.380369 -0.552775 0
M  V30 5781 H 538.587 0.574379 -1.96268 0
M  V30 5782 H 536.742 3.01208 -2.43623 0
M  V30 5783 H 537.156 2.52701 -4.59611 0
M  V30 5784 H 538.63 4.02725 -3.77513 0
M  V30 5785 H 539.107 3.86462 -2.08671 0
M  V30 5786 H 539.713 2.69964 -3.28633 0
M  V30 5787 N 538.028 1.39524 0.732853 0
M  V30 5788 C 538.958 1.41153 1.86005 0
M  V30 5789 C 539.939 0.274614 1.67869 0
M  V30 5790 O 541.124 0.480745 1.88155 0
M  V30 5791 C 538.254 1.25638 3.23778 0
M  V30 5792 C 537.208 2.36752 3.56556 0
M  V30 5793 C 536.534 2.06326 4.93289 0
M  V30 5794 C 537.834 3.79069 3.5931 0
M  V30 5795 H 539.528 2.35484 1.84899 0
M  V30 5796 H 537.074 1.13348 0.888162 0
M  V30 5797 H 539.027 1.25398 4.0231 0
M  V30 5798 H 537.751 0.277772 3.25417 0
M  V30 5799 H 536.41 2.36213 2.80355 0
M  V30 5800 H 536.058 1.06897 4.9151 0
M  V30 5801 H 535.758 2.80757 5.16187 0
M  V30 5802 H 537.282 2.07739 5.74175 0
M  V30 5803 H 538.696 3.81526 4.27914 0
M  V30 5804 H 537.093 4.52878 3.93728 0
M  V30 5805 H 538.163 4.09893 2.59068 0
M  V30 5806 N 539.506 -0.963266 1.24736 0
M  V30 5807 C 540.453 -2.05857 1.04363 0
M  V30 5808 C 541.423 -1.6604 -0.0444951 0
M  V30 5809 O 542.608 -1.90477 0.110999 0
M  V30 5810 C 539.748 -3.38745 0.659235 0
M  V30 5811 C 538.861 -3.9173 1.82131 0
M  V30 5812 C 537.996 -5.12906 1.38208 0
M  V30 5813 C 537.035 -5.58098 2.51382 0
M  V30 5814 N 536.172 -6.7049 2.08295 0
M  V30 5815 H 541.012 -2.22616 1.98107 0
M  V30 5816 H 538.549 -1.09103 0.986661 0
M  V30 5817 H 540.507 -4.15107 0.417371 0
M  V30 5818 H 539.137 -3.21898 -0.241201 0
M  V30 5819 H 538.189 -3.11966 2.17672 0
M  V30 5820 H 539.501 -4.21225 2.67153 0
M  V30 5821 H 538.655 -5.96657 1.09935 0
M  V30 5822 H 537.394 -4.85105 0.502456 0
M  V30 5823 H 536.399 -4.72917 2.80409 0
M  V30 5824 H 537.624 -5.87911 3.39909 0
M  V30 5825 H 535.57 -6.44416 1.22737 0
M  V30 5826 H 535.487 -6.99458 2.86869 0
M  V30 5827 H 536.755 -7.57672 1.83175 0
M  V30 5828 N 540.985 -1.06182 -1.16461 0
M  V30 5829 C 542.396 -0.802426 -1.68576 0
M  V30 5830 C 542.747 0.67412 -1.84255 0
M  V30 5831 O 541.872 1.52303 -1.5373 0
M  V30 5832 C 542.467 -1.45002 -3.06202 0
M  V30 5833 C 541.026 -1.23843 -3.55443 0
M  V30 5834 C 540.173 -1.52724 -2.31454 0
M  V30 5835 H 543.124 -1.22545 -1.00839 0
M  V30 5836 H 543.145 -0.864731 -3.70544 0
M  V30 5837 H 542.657 -2.52466 -2.94759 0
M  V30 5838 H 540.758 -0.183487 -3.72148 0
M  V30 5839 H 540.871 -1.95036 -4.37604 0
M  V30 5840 H 539.235 -0.947726 -2.36411 0
M  V30 5841 H 540.018 -2.61343 -2.22609 0
M  V30 5842 N 542.463 1.3308 -0.844243 0
M  V30 5843 C 543.373 2.32876 -0.283922 0
M  V30 5844 C 544.389 1.63589 0.592846 0
M  V30 5845 O 545.565 1.95205 0.495693 0
M  V30 5846 C 542.63 3.42667 0.527283 0
M  V30 5847 C 541.691 4.27664 -0.374394 0
M  V30 5848 C 540.924 5.32212 0.39819 0
M  V30 5849 O 541.147 5.46635 1.62932 0
M  V30 5850 O 540.081 6.01458 -0.2306 0
M  V30 5851 H 543.907 2.82671 -1.11045 0
M  V30 5852 H 541.492 1.36518 -0.606903 0
M  V30 5853 H 543.374 4.09652 0.988078 0
M  V30 5854 H 542.049 2.95079 1.33078 0
M  V30 5855 H 540.956 3.63526 -0.883144 0
M  V30 5856 H 542.289 4.78749 -1.1428 0
M  V30 5857 N 543.941 0.601185 1.45683 0
M  V30 5858 C 545.169 0.100054 2.06658 0
M  V30 5859 C 545.584 -1.21285 1.44691 0
M  V30 5860 O 544.941 -1.73735 0.558772 0
M  V30 5861 C 544.992 -0.0528579 3.61461 0
M  V30 5862 O 544.713 1.20809 4.21114 0
M  V30 5863 C 546.214 -0.586193 4.39407 0
M  V30 5864 H 543.434 0.065905 0.667756 0
M  V30 5865 H 545.978 0.827101 1.87028 0
M  V30 5866 H 544.133 -0.730203 3.80456 0
M  V30 5867 H 544.547 1.03368 5.14213 0
M  V30 5868 H 546.021 -0.642297 5.4825 0
M  V30 5869 H 546.498 -1.60713 4.0874 0
M  V30 5870 H 547.104 0.0568935 4.25262 0
M  V30 5871 O 545.458 -1.54135 0.48216 0
M  V30 5872 H 546.149 -1.93658 -0.0403371 0
M  V30 END ATOM
M  V30 BEGIN BOND
M  V30 END BOND
M  V30 END CTAB
M  END
$$$$
