drugbank_target|P31992 Tautomerase PptA (DB02384)
 OpenBabel12092119573D

  0  0  0     0  0            999 V3000
M  V30 BEGIN CTAB
M  V30 COUNTS 1217 1229 0 0 0
M  V30 BEGIN ATOM
M  V30 1 H -0.908 1.98254 -0.117106 0
M  V30 2 N 0 1.576 0 0
M  V30 3 C 0.933 2.03868 1.02534 0
M  V30 4 C 1.911 0.928543 1.3348 0
M  V30 5 O 3.095 1.19667 1.45644 0
M  V30 6 C 0.222 2.43627 2.35294 0
M  V30 7 C -0.732 3.65373 2.2001 0
M  V30 8 S 0.101 5.13292 1.52614 0
M  V30 9 C 1.257 5.56322 2.86805 0
M  V30 10 H 1.49 2.90518 0.631377 0
M  V30 11 H -0.977 1.52953 0.210867 0
M  V30 12 H 0.981 2.67203 3.11629 0
M  V30 13 H -0.358 1.57376 2.7183 0
M  V30 14 H -1.165 3.90944 3.18086 0
M  V30 15 H -1.563 3.418 1.51819 0
M  V30 16 H 0.729 5.58782 3.83104 0
M  V30 17 H 1.672 6.56266 2.65933 0
M  V30 18 H 2.08 4.83886 2.90714 0
M  V30 19 N 1.4781 -0.272755 1.55222 0
M  V30 20 C 2.8891 -0.84378 1.66545 0
M  V30 21 C 3.2401 -1.87035 0.592641 0
M  V30 22 O 2.3651 -2.14761 -0.265818 0
M  V30 23 C 2.9601 -1.53723 3.01918 0
M  V30 24 C 1.5191 -2.05628 3.15268 0
M  V30 25 C 0.6661 -0.898424 2.62343 0
M  V30 26 H 3.6171 -0.0490998 1.58624 0
M  V30 27 H 3.6381 -2.40421 2.94921 0
M  V30 28 H 3.1501 -0.78983 3.79978 0
M  V30 29 H 1.2511 -2.83329 2.41983 0
M  V30 30 H 1.3641 -2.27142 4.21833 0
M  V30 31 H -0.2719 -1.29186 2.19506 0
M  V30 32 H 0.5111 -0.164528 3.42906 0
M  V30 33 N 2.9562 -1.48159 -0.537278 0
M  V30 34 C 3.9062 -1.5854 -1.63857 0
M  V30 35 C 4.8902 -0.442969 -1.54682 0
M  V30 36 O 6.0822 -0.69401 -1.62827 0
M  V30 37 C 3.2112 -1.62144 -3.02596 0
M  V30 38 C 2.2972 -2.81841 -3.16901 0
M  V30 39 N 2.6882 -4.06337 -3.01204 0
M  V30 40 C 0.9862 -2.79021 -3.47942 0
M  V30 41 C 1.6872 -4.86606 -3.18731 0
M  V30 42 N 0.6632 -4.19288 -3.45974 0
M  V30 43 H 4.4652 -2.5255 -1.50319 0
M  V30 44 H 1.9792 -1.4443 -0.742555 0
M  V30 45 H 3.9762 -1.67674 -3.81695 0
M  V30 46 H 2.6362 -0.69245 -3.17231 0
M  V30 47 H 3.6472 -4.36888 -2.78117 0
M  V30 48 H 0.3242 -1.95347 -3.6898 0
M  V30 49 H 1.7142 -5.95385 -3.11394 0
M  V30 50 N 4.4343 0.785586 -1.36625 0
M  V30 51 C 5.6833 1.53883 -1.30396 0
M  V30 52 C 5.9963 1.95271 0.113452 0
M  V30 53 O 7.2023 2.69858 0.298142 0
M  V30 54 C 5.6583 2.77808 -2.28802 0
M  V30 55 C 5.2663 2.43574 -3.75999 0
M  V30 56 C 7.0103 3.55783 -2.31558 0
M  V30 57 C 4.9173 3.63919 -4.66173 0
M  V30 58 H 3.8473 0.577678 -0.484566 0
M  V30 59 H 6.4983 0.861705 -1.62009 0
M  V30 60 H 4.8803 3.47339 -1.90188 0
M  V30 61 H 6.0543 1.81916 -4.23371 0
M  V30 62 H 4.3693 1.78803 -3.76056 0
M  V30 63 H 6.9663 4.45205 -2.96137 0
M  V30 64 H 7.3093 3.94644 -1.3252 0
M  V30 65 H 7.8423 2.93235 -2.68809 0
M  V30 66 H 4.5813 3.3015 -5.66287 0
M  V30 67 H 4.1013 4.2473 -4.23515 0
M  V30 68 H 5.7803 4.30901 -4.82632 0
M  V30 69 N 5.9124 1.20967 1.01018 0
M  V30 70 C 7.1894 0.93264 1.71934 0
M  V30 71 C 7.5694 -0.55692 2.03621 0
M  V30 72 O 6.9174 -1.52035 1.7058 0
M  V30 73 C 7.1274 1.81233 2.98254 0
M  V30 74 C 8.4754 2.05804 3.71389 0
M  V30 75 O 9.4994 1.78539 3.08225 0
M  V30 76 O 8.3584 2.51888 4.84989 0
M  V30 77 H 5.4524 0.349272 0.749625 0
M  V30 78 H 7.9984 1.31871 1.06808 0
M  V30 79 H 6.7704 2.82067 2.71208 0
M  V30 80 H 6.3934 1.42674 3.7112 0
M  V30 81 N 7.3905 -1.2043 1.01659 0
M  V30 82 C 8.6395 -1.89118 0.701237 0
M  V30 83 C 8.9525 -1.79705 -0.772358 0
M  V30 84 O 10.1585 -2.43528 -1.20026 0
M  V30 85 C 8.6145 -3.39168 1.20388 0
M  V30 86 C 8.2225 -3.57166 2.70438 0
M  V30 87 C 9.9665 -4.1341 0.963953 0
M  V30 88 C 7.8735 -5.01042 3.14183 0
M  V30 89 H 6.8035 -0.708267 0.2586 0
M  V30 90 H 9.4545 -1.36239 1.22927 0
M  V30 91 H 7.8365 -3.91369 0.603824 0
M  V30 92 H 9.0105 -3.15351 3.35992 0
M  V30 93 H 7.3255 -2.96294 2.92572 0
M  V30 94 H 9.9225 -5.19491 1.26621 0
M  V30 95 H 10.2655 -4.16181 -0.099578 0
M  V30 96 H 10.7985 -3.67309 1.52738 0
M  V30 97 H 7.5375 -5.03426 4.19812 0
M  V30 98 H 7.0575 -5.43668 2.53348 0
M  V30 99 H 8.7365 -5.69623 3.0682 0
M  V30 100 N 8.8686 -0.792821 -1.36206 0
M  V30 101 C 9.8156 -0.191653 -2.30003 0
M  V30 102 C 10.7856 0.666453 -1.52143 0
M  V30 103 O 11.9706 0.61442 -1.80636 0
M  V30 104 C 9.1106 0.664848 -3.38635 0
M  V30 105 C 8.2236 -0.212175 -4.31479 0
M  V30 106 C 7.3586 0.651022 -5.27196 0
M  V30 107 C 6.3976 -0.227247 -6.11678 0
M  V30 108 N 5.5346 0.595127 -6.99573 0
M  V30 109 H 10.3746 -0.996978 -2.80828 0
M  V30 110 H 7.9116 -0.503206 -1.38225 0
M  V30 111 H 9.8696 1.17645 -4.00269 0
M  V30 112 H 8.4996 1.43557 -2.89122 0
M  V30 113 H 7.5516 -0.841777 -3.70969 0
M  V30 114 H 8.8636 -0.888751 -4.90818 0
M  V30 115 H 8.0176 1.2283 -5.94136 0
M  V30 116 H 6.7566 1.36121 -4.68319 0
M  V30 117 H 5.7616 -0.816904 -5.43697 0
M  V30 118 H 6.9866 -0.93509 -6.72631 0
M  V30 119 H 4.9326 1.28955 -6.432 0
M  V30 120 H 4.8496 -0.0236952 -7.55996 0
M  V30 121 H 6.1176 1.15613 -7.70879 0
M  V30 122 N 10.3467 1.47872 -0.545128 0
M  V30 123 C 11.5867 2.04391 -0.0187854 0
M  V30 124 C 11.9507 1.41162 1.30144 0
M  V30 125 O 13.1517 1.88656 1.91474 0
M  V30 126 C 11.4227 3.57299 0.0850867 0
M  V30 127 S 12.9817 4.35221 0.559302 0
M  V30 128 H 9.7997 0.710737 -0.0193301 0
M  V30 129 H 12.4017 1.81395 -0.729125 0
M  V30 130 H 11.1057 4.00847 -0.880351 0
M  V30 131 H 10.6367 3.84773 0.819348 0
M  V30 132 H 12.6517 4.61571 1.82118 0
M  V30 133 N 11.8248 0.280983 1.55075 0
M  V30 134 C 13.0718 -0.334115 1.99725 0
M  V30 135 C 13.3998 -1.5542 1.1694 0
M  V30 136 O 12.6548 -1.94361 0.228531 0
M  V30 137 C 12.9538 -0.754656 3.49342 0
M  V30 138 C 12.6198 0.361445 4.49449 0
M  V30 139 C 11.2818 0.667893 4.76542 0
M  V30 140 C 13.6338 1.11322 5.09173 0
M  V30 141 C 10.9618 1.7296 5.60626 0
M  V30 142 C 13.3138 2.1647 5.9441 0
M  V30 143 C 11.9778 2.47742 6.19822 0
M  V30 144 H 11.2478 -0.122261 0.730844 0
M  V30 145 H 13.8948 0.395917 1.87363 0
M  V30 146 H 12.1998 -1.56446 3.5921 0
M  V30 147 H 13.8968 -1.24142 3.813 0
M  V30 148 H 10.4868 0.112481 4.28452 0
M  V30 149 H 14.6708 0.88973 4.8826 0
M  V30 150 H 9.9268 1.97684 5.78559 0
M  V30 151 H 14.1008 2.75193 6.3972 0
M  V30 152 H 11.7278 3.30145 6.84769 0
M  V30 153 N 13.3029 -1.57598 0.00835791 0
M  V30 154 C 14.7139 -1.7892 -0.53333 0
M  V30 155 C 15.0649 -0.916609 -1.73473 0
M  V30 156 O 14.1899 -0.121336 -2.1606 0
M  V30 157 C 14.7849 -3.24488 -0.974313 0
M  V30 158 C 13.3439 -3.46878 -1.46125 0
M  V30 159 C 12.4909 -2.74157 -0.416302 0
M  V30 160 H 15.4419 -1.56958 0.234495 0
M  V30 161 H 15.4629 -3.3306 -1.83988 0
M  V30 162 H 14.9749 -3.87972 -0.099718 0
M  V30 163 H 13.0759 -2.8862 -2.35646 0
M  V30 164 H 13.1889 -4.55572 -1.48295 0
M  V30 165 H 11.5529 -2.39022 -0.87981 0
M  V30 166 H 12.3359 -3.40345 0.44947 0
M  V30 167 N 14.781 0.264519 -1.55364 0
M  V30 168 C 16.197 0.61215 -1.47394 0
M  V30 169 C 16.397 1.89134 -0.695018 0
M  V30 170 O 15.453 2.51563 -0.217275 0
M  V30 171 C 16.766 0.731235 -2.91674 0
M  V30 172 C 18.314 0.82473 -3.01939 0
M  V30 173 C 18.789 0.975522 -4.4749 0
M  V30 174 N 20.28 1.04083 -4.51354 0
M  V30 175 C 21.015 1.17646 -5.61201 0
M  V30 176 N 20.511 1.27874 -6.80896 0
M  V30 177 N 22.304 1.20823 -5.48961 0
M  V30 178 H 14.455 -0.575456 -2.04456 0
M  V30 179 H 16.718 -0.196099 -0.927496 0
M  V30 180 H 16.424 -0.138392 -3.51428 0
M  V30 181 H 16.298 1.60883 -3.41169 0
M  V30 182 H 18.685 1.68482 -2.42276 0
M  V30 183 H 18.766 -0.0776479 -2.55682 0
M  V30 184 H 18.41 0.120058 -5.07758 0
M  V30 185 H 18.34 1.89268 -4.91412 0
M  V30 186 H 20.831 0.973846 -3.65136 0
M  V30 187 H 21.144 1.38081 -7.60364 0
M  V30 188 H 19.489 1.24863 -6.83692 0
M  V30 189 H 22.68 1.12469 -4.54388 0
M  V30 190 H 22.853 1.31049 -6.3461 0
M  V30 191 N 16.2591 1.48442 0.529413 0
M  V30 192 C 17.1691 1.6569 1.66084 0
M  V30 193 C 18.1851 0.539432 1.65427 0
M  V30 194 O 19.3611 0.810572 1.84368 0
M  V30 195 C 16.4261 1.69315 3.02545 0
M  V30 196 C 15.4871 2.92694 3.14052 0
M  V30 197 C 14.7201 2.96137 4.44003 0
M  V30 198 O 14.9431 2.07973 5.31134 0
M  V30 199 O 13.8771 3.88312 4.59888 0
M  V30 200 H 17.7031 2.61483 1.54469 0
M  V30 201 H 15.2881 1.3185 0.702567 0
M  V30 202 H 17.1701 1.74217 3.83701 0
M  V30 203 H 15.8451 0.766966 3.14483 0
M  V30 204 H 14.7521 2.93324 2.32189 0
M  V30 205 H 16.0851 3.84699 3.0703 0
M  V30 206 N 17.7372 -0.778329 1.37039 0
M  V30 207 C 18.6672 -1.90546 1.34962 0
M  V30 208 C 19.6482 -1.68681 0.219274 0
M  V30 209 O 20.8332 -1.89634 0.418624 0
M  V30 210 C 17.9632 -3.27734 1.14925 0
M  V30 211 C 16.9172 -3.64147 2.24902 0
M  V30 212 C 16.2432 -4.99806 1.89996 0
M  V30 213 C 17.5432 -3.71579 3.67051 0
M  V30 214 H 19.2372 -1.92541 2.29277 0
M  V30 215 H 16.7832 -0.924948 1.10366 0
M  V30 216 H 18.7362 -4.06215 1.12104 0
M  V30 217 H 17.4602 -3.26154 0.170631 0
M  V30 218 H 16.1192 -2.8797 2.26868 0
M  V30 219 H 15.7672 -4.94759 0.906796 0
M  V30 220 H 15.4672 -5.25139 2.63634 0
M  V30 221 H 16.9912 -5.80694 1.88749 0
M  V30 222 H 18.4052 -4.40227 3.67251 0
M  V30 223 H 16.8022 -4.08405 4.39688 0
M  V30 224 H 17.8722 -2.72404 4.01154 0
M  V30 225 N 19.2153 -1.21501 -1.00376 0
M  V30 226 C 20.4923 -0.941745 -1.71437 0
M  V30 227 C 20.8723 0.546114 -2.03914 0
M  V30 228 O 20.2203 1.51128 -1.71384 0
M  V30 229 C 20.4303 -1.82812 -2.97289 0
M  V30 230 C 21.7783 -2.07771 -3.70292 0
M  V30 231 O 22.8023 -1.80171 -3.07273 0
M  V30 232 O 21.6613 -2.54456 -4.83647 0
M  V30 233 H 18.7553 -0.353243 -0.747762 0
M  V30 234 H 21.3013 -1.32436 -1.06108 0
M  V30 235 H 20.0733 -2.83501 -2.69709 0
M  V30 236 H 19.6963 -1.4464 -3.70358 0
M  V30 237 N 20.6934 1.19889 -1.02296 0
M  V30 238 C 21.6034 2.26571 -0.608508 0
M  V30 239 C 22.6194 1.70299 0.356964 0
M  V30 240 O 23.7954 2.00235 0.216326 0
M  V30 241 C 20.8604 3.46677 0.0402814 0
M  V30 242 C 19.9214 4.18153 -0.97194 0
M  V30 243 C 19.1544 5.32525 -0.354016 0
M  V30 244 O 19.3774 5.64112 0.844604 0
M  V30 245 O 18.3114 5.92242 -1.07391 0
M  V30 246 H 22.1374 2.64251 -1.49684 0
M  V30 247 H 19.7224 1.26629 -0.792809 0
M  V30 248 H 21.6044 4.19475 0.402324 0
M  V30 249 H 20.2794 3.10858 0.902707 0
M  V30 250 H 19.1864 3.47499 -1.38546 0
M  V30 251 H 20.5194 4.57927 -1.80454 0
M  V30 252 N 22.1715 0.800033 1.35784 0
M  V30 253 C 23.1035 0.163596 2.28615 0
M  V30 254 C 24.1165 -0.633317 1.49976 0
M  V30 255 O 25.3055 -0.466754 1.72289 0
M  V30 256 C 22.4055 -0.790958 3.29541 0
M  V30 257 C 21.5785 -0.0418255 4.3738 0
M  V30 258 C 20.6375 -0.91389 5.18203 0
M  V30 259 O 19.6635 -0.367234 5.68014 0
M  V30 260 N 20.8655 -2.23682 5.35674 0
M  V30 261 H 23.6305 0.96105 2.83873 0
M  V30 262 H 21.1915 0.654894 1.48063 0
M  V30 263 H 23.1835 -1.37844 3.80501 0
M  V30 264 H 21.7535 -1.48925 2.74846 0
M  V30 265 H 20.9735 0.726813 3.87442 0
M  V30 266 H 22.2615 0.474719 5.06581 0
M  V30 267 H 21.6595 -2.70497 4.96838 0
M  V30 268 H 20.2165 -2.77369 5.89839 0
M  V30 269 N 23.6496 -1.47581 0.552962 0
M  V30 270 C 24.5816 -2.27997 -0.234533 0
M  V30 271 C 25.5946 -1.36753 -0.883321 0
M  V30 272 O 26.7836 -1.61612 -0.757889 0
M  V30 273 C 23.8836 -3.10879 -1.34935 0
M  V30 274 C 23.0566 -4.30056 -0.798158 0
M  V30 275 C 22.1156 -4.94567 -1.79694 0
M  V30 276 O 21.1416 -5.53087 -1.34474 0
M  V30 277 N 22.3436 -4.88878 -3.13015 0
M  V30 278 H 25.1086 -2.96222 0.455255 0
M  V30 279 H 22.6696 -1.57163 0.388761 0
M  V30 280 H 24.6616 -3.50903 -2.01616 0
M  V30 281 H 23.2316 -2.44924 -1.94244 0
M  V30 282 H 22.4516 -3.94174 0.0453079 0
M  V30 283 H 23.7396 -5.07152 -0.409173 0
M  V30 284 H 23.1376 -4.42526 -3.52402 0
M  V30 285 H 21.6946 -5.32934 -3.75266 0
M  V30 286 N 25.1277 -0.289203 -1.54924 0
M  V30 287 C 26.0747 0.592115 -2.23075 0
M  V30 288 C 27.0447 1.13881 -1.20915 0
M  V30 289 O 28.2297 1.18551 -1.495 0
M  V30 290 C 25.3697 1.76376 -2.96623 0
M  V30 291 C 24.4827 1.24959 -4.13533 0
M  V30 292 C 23.6177 2.38416 -4.74691 0
M  V30 293 C 22.6567 1.84072 -5.83767 0
M  V30 294 N 21.7937 2.91057 -6.38929 0
M  V30 295 H 26.6337 0.00432038 -2.98 0
M  V30 296 H 24.1707 -0.00963529 -1.47097 0
M  V30 297 H 26.1287 2.45268 -3.3749 0
M  V30 298 H 24.7587 2.32337 -2.24097 0
M  V30 299 H 23.8107 0.453307 -3.77689 0
M  V30 300 H 25.1227 0.811662 -4.92152 0
M  V30 301 H 24.2767 3.15276 -5.18349 0
M  V30 302 H 23.0157 2.8553 -3.95378 0
M  V30 303 H 22.0207 1.05697 -5.39545 0
M  V30 304 H 23.2457 1.37877 -6.64956 0
M  V30 305 H 21.1917 3.37526 -5.62505 0
M  V30 306 H 21.1087 2.51724 -7.12861 0
M  V30 307 H 22.3767 3.6785 -6.87246 0
M  V30 308 N 26.6058 1.57591 -0.0167156 0
M  V30 309 C 27.5688 2.08393 0.954204 0
M  V30 310 C 28.5688 0.996531 1.26198 0
M  V30 311 O 29.7588 1.25858 1.20438 0
M  V30 312 C 26.8908 2.5394 2.27436 0
M  V30 313 H 28.0838 2.95455 0.514451 0
M  V30 314 H 25.6368 1.54582 0.231089 0
M  V30 315 H 26.3718 1.70171 2.76066 0
M  V30 316 H 26.1568 3.33371 2.06412 0
M  V30 317 H 27.6468 2.93512 2.97053 0
M  V30 318 N 28.0839 -0.256276 1.55502 0
M  V30 319 C 29.0469 -1.30047 1.88734 0
M  V30 320 C 30.0469 -1.4154 0.763086 0
M  V30 321 O 31.2369 -1.40403 1.03115 0
M  V30 322 C 28.3689 -2.67953 2.10747 0
M  V30 323 H 29.5619 -1.01802 2.82093 0
M  V30 324 H 27.1149 -0.495134 1.4825 0
M  V30 325 H 27.8499 -3.01351 1.19825 0
M  V30 326 H 27.6349 -2.60993 2.92617 0
M  V30 327 H 29.1249 -3.43368 2.37673 0
M  V30 328 N 29.562 -1.4872 -0.521534 0
M  V30 329 C 30.492 -1.66771 -1.63431 0
M  V30 330 C 31.473 -0.516499 -1.62069 0
M  V30 331 O 32.658 -0.750013 -1.79132 0
M  V30 332 C 29.788 -1.71515 -3.01993 0
M  V30 333 C 28.742 -2.86222 -3.18216 0
M  V30 334 C 28.068 -2.76061 -4.57924 0
M  V30 335 C 29.368 -4.27419 -3.00184 0
M  V30 336 H 31.062 -2.59932 -1.48579 0
M  V30 337 H 28.608 -1.25089 -0.713358 0
M  V30 338 H 30.561 -1.82731 -3.7972 0
M  V30 339 H 29.285 -0.749393 -3.17886 0
M  V30 340 H 27.944 -2.74575 -2.42908 0
M  V30 341 H 27.592 -1.77437 -4.70665 0
M  V30 342 H 27.292 -3.53037 -4.69722 0
M  V30 343 H 28.816 -2.89256 -5.37739 0
M  V30 344 H 30.23 -4.39855 -3.67697 0
M  V30 345 H 28.627 -5.05458 -3.2347 0
M  V30 346 H 29.697 -4.43293 -1.96518 0
M  V30 347 N 31.0401 0.771051 -1.3745 0
M  V30 348 C 32.0031 1.86598 -1.33093 0
M  V30 349 C 33.0031 1.59076 -0.234845 0
M  V30 350 O 34.1931 1.67145 -0.490732 0
M  V30 351 C 31.3251 3.23747 -1.06773 0
M  V30 352 H 32.5181 1.91873 -2.30488 0
M  V30 353 H 30.0711 0.970876 -1.2249 0
M  V30 354 H 30.8061 3.24148 -0.099129 0
M  V30 355 H 30.5911 3.45115 -1.86112 0
M  V30 356 H 32.0811 4.03824 -1.06377 0
M  V30 357 N 32.5182 1.22032 0.997298 0
M  V30 358 C 33.4812 0.987909 2.06816 0
M  V30 359 C 34.4812 -0.0440084 1.6074 0
M  V30 360 O 35.6712 0.194053 1.73116 0
M  V30 361 C 32.8032 0.49132 3.37341 0
M  V30 362 H 33.9962 1.93803 2.28868 0
M  V30 363 H 31.5492 1.03838 1.16822 0
M  V30 364 H 32.2842 -0.463364 3.20973 0
M  V30 365 H 32.0692 1.23575 3.72118 0
M  V30 366 H 33.5592 0.348824 4.16141 0
M  V30 367 N 33.9963 -1.19345 1.0293 0
M  V30 368 C 35.2733 -1.84811 0.640642 0
M  V30 369 C 35.6533 -1.91855 -0.88062 0
M  V30 370 O 35.0013 -1.43587 -1.7775 0
M  V30 371 C 35.2113 -3.23755 1.30321 0
M  V30 372 C 36.5593 -3.99912 1.42673 0
M  V30 373 O 37.5833 -3.33155 1.26041 0
M  V30 374 O 36.4423 -5.19494 1.6967 0
M  V30 375 H 33.5363 -0.796443 0.222726 0
M  V30 376 H 36.0823 -1.26831 1.12748 0
M  V30 377 H 34.8543 -3.13466 2.34211 0
M  V30 378 H 34.4773 -3.89381 0.804261 0
M  V30 379 N 35.4744 -0.807222 -1.35358 0
M  V30 380 C 36.7234 -0.384376 -1.98004 0
M  V30 381 C 37.0364 1.0543 -1.64754 0
M  V30 382 O 38.2424 1.58029 -2.20769 0
M  V30 383 C 36.6984 -0.636326 -3.5423 0
M  V30 384 C 36.3064 -2.08759 -3.96388 0
M  V30 385 C 38.0504 -0.278869 -4.23583 0
M  V30 386 C 35.9574 -2.28525 -5.45463 0
M  V30 387 H 34.8874 -0.139986 -0.740891 0
M  V30 388 H 37.5384 -0.991369 -1.54415 0
M  V30 389 H 35.9204 0.0406256 -3.95979 0
M  V30 390 H 37.0944 -2.8024 -3.6579 0
M  V30 391 H 35.4094 -2.40497 -3.39926 0
M  V30 392 H 38.0064 -0.404599 -5.33167 0
M  V30 393 H 38.3494 0.775012 -4.09022 0
M  V30 394 H 38.8824 -0.909764 -3.87257 0
M  V30 395 H 35.6214 -3.32361 -5.64992 0
M  V30 396 H 35.1414 -1.61569 -5.77629 0
M  V30 397 H 36.8204 -2.10109 -6.11934 0
M  V30 398 N 36.9525 1.47285 -0.560781 0
M  V30 399 C 38.1805 2.06855 -0.0430262 0
M  V30 400 C 38.5955 1.41291 1.25229 0
M  V30 401 O 37.9525 0.510648 1.7521 0
M  V30 402 C 38.0035 3.61178 0.152518 0
M  V30 403 O 37.7245 4.24285 -1.0915 0
M  V30 404 C 39.2255 4.37624 0.707145 0
M  V30 405 H 36.4455 0.669319 -0.0474652 0
M  V30 406 H 38.9895 1.89237 -0.77521 0
M  V30 407 H 37.1445 3.78298 0.834843 0
M  V30 408 H 37.5585 5.16868 -0.891482 0
M  V30 409 H 39.0325 5.46271 0.793244 0
M  V30 410 H 39.5095 4.04152 1.71923 0
M  V30 411 H 40.1155 4.25257 0.0604027 0
M  V30 412 N 38.4306 0.297415 1.54768 0
M  V30 413 C 39.7076 -0.365847 1.92148 0
M  V30 414 C 40.0876 -1.71975 1.22424 0
M  V30 415 O 39.4356 -2.25666 0.358739 0
M  V30 416 C 39.6456 -0.484056 3.45627 0
M  V30 417 C 40.9936 -0.756594 4.17805 0
M  V30 418 O 42.0176 -0.568007 3.51642 0
M  V30 419 O 40.8766 -1.11863 5.34929 0
M  V30 420 H 37.9706 -0.203919 0.801465 0
M  V30 421 H 40.5166 0.34521 1.66152 0
M  V30 422 H 39.2886 0.467865 3.88493 0
M  V30 423 H 38.9116 -1.24372 3.77647 0
M  V30 424 N 39.9087 -1.5758 0.0250728 0
M  V30 425 C 41.1547 -1.91917 -0.655413 0
M  V30 426 C 41.4877 -0.901433 -1.72011 0
M  V30 427 O 40.7627 0.0764069 -1.9435 0
M  V30 428 C 41.0457 -3.36751 -1.27558 0
M  V30 429 C 40.8987 -4.49258 -0.220719 0
M  V30 430 C 42.2177 -3.81469 -2.19475 0
M  V30 431 H 39.3367 -0.697925 -0.23679 0
M  V30 432 H 41.9787 -1.89825 0.0815036 0
M  V30 433 H 40.1287 -3.38664 -1.90365 0
M  V30 434 H 41.8007 -4.59478 0.409601 0
M  V30 435 H 40.0437 -4.31415 0.454264 0
M  V30 436 H 40.7147 -5.47618 -0.694175 0
M  V30 437 H 43.1907 -3.81266 -1.66659 0
M  V30 438 H 42.0667 -4.83512 -2.59822 0
M  V30 439 H 42.3277 -3.16744 -3.08424 0
M  V30 440 N 41.3868 0.248026 -1.55636 0
M  V30 441 C 42.6358 0.974134 -1.76617 0
M  V30 442 C 42.9488 1.86528 -0.588796 0
M  V30 443 O 44.1548 2.62805 -0.681594 0
M  V30 444 C 42.6108 1.78213 -3.12679 0
M  V30 445 C 42.2188 0.93843 -4.38061 0
M  V30 446 C 43.9628 2.50104 -3.42999 0
M  V30 447 C 41.8698 1.74225 -5.65155 0
M  V30 448 H 40.7998 0.36745 -0.658405 0
M  V30 449 H 43.4508 0.22884 -1.82067 0
M  V30 450 H 41.8328 2.56933 -3.01333 0
M  V30 451 H 43.0068 0.193635 -4.60393 0
M  V30 452 H 41.3218 0.332905 -4.15067 0
M  V30 453 H 43.9188 3.10694 -4.3517 0
M  V30 454 H 44.2618 3.21662 -2.64271 0
M  V30 455 H 44.7948 1.78395 -3.55556 0
M  V30 456 H 41.5338 1.07043 -6.46701 0
M  V30 457 H 41.0538 2.46235 -5.46926 0
M  V30 458 H 42.7328 2.30967 -6.0437 0
M  V30 459 N 42.8649 1.48995 0.513639 0
M  V30 460 C 44.1139 1.57093 1.2651 0
M  V30 461 C 44.4269 0.257091 1.93903 0
M  V30 462 O 45.6329 0.216478 2.70636 0
M  V30 463 C 44.0889 2.77118 2.29638 0
M  V30 464 C 43.6969 4.15209 1.68241 0
M  V30 465 C 45.4409 2.94538 3.05692 0
M  V30 466 C 43.3479 5.26474 2.69406 0
M  V30 467 H 42.2779 0.584876 0.475854 0
M  V30 468 H 44.9289 1.7536 0.540487 0
M  V30 469 H 43.3109 2.52319 3.05207 0
M  V30 470 H 44.4849 4.50094 0.987505 0
M  V30 471 H 42.7999 4.03042 1.04623 0
M  V30 472 H 45.3969 3.74832 3.8132 0
M  V30 473 H 45.7399 2.04614 3.62545 0
M  V30 474 H 46.2729 3.19316 2.37238 0
M  V30 475 H 43.0119 6.18417 2.17351 0
M  V30 476 H 42.5319 4.96058 3.37175 0
M  V30 477 H 44.2109 5.55277 3.32078 0
M  V30 478 N 44.343 -0.763751 1.37857 0
M  V30 479 C 45.759 -1.06542 1.18832 0
M  V30 480 C 45.959 -2.01478 0.0299722 0
M  V30 481 O 45.015 -2.4458 -0.627447 0
M  V30 482 C 46.328 -1.65525 2.51042 0
M  V30 483 C 47.876 -1.77745 2.57635 0
M  V30 484 C 48.351 -2.4014 3.89996 0
M  V30 485 N 49.842 -2.47582 3.91481 0
M  V30 486 C 50.577 -2.96732 4.9065 0
M  V30 487 N 50.073 -3.45993 6.00217 0
M  V30 488 N 51.866 -2.95679 4.78048 0
M  V30 489 H 44.017 -0.133556 2.1198 0
M  V30 490 H 46.28 -0.121879 0.940133 0
M  V30 491 H 45.986 -1.03236 3.36207 0
M  V30 492 H 45.86 -2.64719 2.68707 0
M  V30 493 H 48.247 -2.39164 1.72872 0
M  V30 494 H 48.328 -0.772836 2.43846 0
M  V30 495 H 47.972 -1.79358 4.75177 0
M  V30 496 H 47.902 -3.41223 4.01092 0
M  V30 497 H 50.393 -2.1273 3.12337 0
M  V30 498 H 50.706 -3.81922 6.7183 0
M  V30 499 H 49.051 -3.44077 6.03851 0
M  V30 500 H 52.242 -2.56499 3.91568 0
M  V30 501 H 52.415 -3.33672 5.55488 0
M  V30 502 N 45.8211 -1.22559 -0.990812 0
M  V30 503 C 46.7711 -0.964807 -2.0658 0
M  V30 504 C 47.7551 0.0853472 -1.60673 0
M  V30 505 O 48.9471 -0.125443 -1.76555 0
M  V30 506 C 46.0761 -0.546707 -3.38919 0
M  V30 507 C 45.1621 -1.6317 -3.91454 0
M  V30 508 N 45.5531 -2.85985 -4.17189 0
M  V30 509 C 43.8511 -1.50387 -4.19881 0
M  V30 510 C 44.5521 -3.56159 -4.59919 0
M  V30 511 N 43.5281 -2.83637 -4.63736 0
M  V30 512 H 47.3301 -1.89769 -2.24421 0
M  V30 513 H 44.8441 -1.12343 -1.17273 0
M  V30 514 H 46.8411 -0.34119 -4.15502 0
M  V30 515 H 45.5011 0.379254 -3.22478 0
M  V30 516 H 46.5121 -3.22392 -4.05319 0
M  V30 517 H 43.1891 -0.644254 -4.12499 0
M  V30 518 H 44.5791 -4.6139 -4.88435 0
M  V30 519 N 47.2992 1.18797 -1.03562 0
M  V30 520 C 48.2292 2.24472 -0.643019 0
M  V30 521 C 49.2102 1.66433 0.351283 0
M  V30 522 O 50.3952 1.92803 0.232505 0
M  V30 523 C 47.5252 3.473 4.24935e-05 0
M  V30 524 C 46.4792 4.18055 -0.917257 0
M  V30 525 C 45.8052 5.34519 -0.138941 0
M  V30 526 C 47.1052 4.72109 -2.23407 0
M  V30 527 H 48.7992 2.57566 -1.52643 0
M  V30 528 H 46.3452 1.23806 -0.735394 0
M  V30 529 H 48.2982 4.20426 0.286383 0
M  V30 530 H 47.0222 3.13424 0.918299 0
M  V30 531 H 45.6812 3.46821 -1.1879 0
M  V30 532 H 45.3292 4.96891 0.781562 0
M  V30 533 H 45.0292 5.82794 -0.750005 0
M  V30 534 H 46.5532 6.10438 0.1405 0
M  V30 535 H 47.9672 5.36955 -2.00879 0
M  V30 536 H 46.3642 5.30897 -2.79765 0
M  V30 537 H 47.4342 3.89807 -2.88407 0
M  V30 538 N 48.7773 0.814389 1.34928 0
M  V30 539 C 49.7253 0.218424 2.31572 0
M  V30 540 C 50.7193 -0.636128 1.57002 0
M  V30 541 O 51.9253 -0.52842 1.72069 0
M  V30 542 H 48.3003 0.0518799 0.750208 0
M  V30 543 H 50.2713 1.04852 2.79372 0
M  V30 544 C 49.0203 -0.61207 3.4227 0
M  V30 545 H 48.3433 0.0361578 3.99784 0
M  V30 546 H 49.7833 -0.995317 4.12152 0
M  V30 547 C 48.2423 -1.78087 2.85984 0
M  V30 548 O 48.7723 -2.8787 2.80168 0
M  V30 549 N 46.9783 -1.59488 2.42924 0
M  V30 550 H 46.5253 -0.701874 2.47854 0
M  V30 551 H 46.4833 -2.37846 2.05613 0
M  V30 552 N 50.2554 -1.46986 0.568584 0
M  V30 553 C 51.4804 -2.07335 0.0520528 0
M  V30 554 C 51.9054 -1.41675 -1.23733 0
M  V30 555 O 51.2634 -0.495623 -1.74394 0
M  V30 556 C 51.3114 -3.60417 -0.11501 0
M  V30 557 O 50.4154 -3.95309 -1.17492 0
M  V30 558 H 49.7564 -0.661597 0.0564385 0
M  V30 559 H 52.2864 -1.88837 0.787507 0
M  V30 560 H 52.2964 -4.06698 -0.325644 0
M  V30 561 H 50.9714 -4.07601 0.826675 0
M  V30 562 H 49.5484 -3.60757 -0.943869 0
M  V30 563 N 51.7335 -0.305618 -1.54608 0
M  V30 564 C 52.6805 0.568421 -2.23691 0
M  V30 565 C 53.6505 1.12592 -1.22116 0
M  V30 566 O 54.8355 1.16959 -1.50749 0
M  V30 567 C 51.9755 1.7322 -2.98477 0
M  V30 568 C 51.0885 1.20566 -4.14835 0
M  V30 569 C 50.2235 2.33368 -4.77193 0
M  V30 570 C 49.2625 1.7787 -5.85686 0
M  V30 571 N 48.3995 2.84263 -6.4198 0
M  V30 572 H 53.2395 -0.0272867 -2.97988 0
M  V30 573 H 50.7765 -0.0252363 -1.47078 0
M  V30 574 H 52.7345 2.41675 -3.40072 0
M  V30 575 H 51.3645 2.29947 -2.26548 0
M  V30 576 H 50.4165 0.413223 -3.78149 0
M  V30 577 H 51.7285 0.759417 -4.92985 0
M  V30 578 H 50.8825 3.09761 -5.21664 0
M  V30 579 H 49.6215 2.8132 -3.98385 0
M  V30 580 H 48.6265 0.99968 -5.40635 0
M  V30 581 H 49.8515 1.30816 -6.66381 0
M  V30 582 H 47.7975 3.31541 -5.66053 0
M  V30 583 H 47.7145 2.44149 -7.15491 0
M  V30 584 H 48.9825 3.6054 -6.91109 0
M  V30 585 N 53.2116 1.57565 -0.0334293 0
M  V30 586 C 54.4886 1.83282 0.683163 0
M  V30 587 C 54.8686 0.91823 1.90084 0
M  V30 588 O 54.2166 -0.025113 2.28486 0
M  V30 589 C 54.4266 3.32599 1.0573 0
M  V30 590 C 55.7746 3.99179 1.44711 0
M  V30 591 O 56.7986 3.3712 1.15015 0
M  V30 592 O 55.6576 5.08565 2.0006 0
M  V30 593 H 52.7516 0.755869 0.335546 0
M  V30 594 H 55.2976 1.69589 -0.0614402 0
M  V30 595 H 54.0696 3.90834 0.190828 0
M  V30 596 H 53.6926 3.51415 1.85993 0
M  V30 597 N 54.6897 -0.239769 1.55765 0
M  V30 598 C 55.9147 -0.988373 1.82335 0
M  V30 599 C 56.3397 -1.77886 0.611421 0
M  V30 600 O 55.6977 -1.75889 -0.439639 0
M  V30 601 C 55.7457 -1.89627 3.06715 0
M  V30 602 O 54.8497 -2.98904 2.84131 0
M  V30 603 H 54.1907 -0.280858 0.601677 0
M  V30 604 H 56.7207 -0.258597 2.02959 0
M  V30 605 H 56.7307 -2.30957 3.36338 0
M  V30 606 H 55.4057 -1.31511 3.9456 0
M  V30 607 H 53.9827 -2.61651 2.65694 0
M  V30 608 N 56.1678 -1.49265 -0.50573 0
M  V30 609 C 57.3928 -1.62478 -1.28902 0
M  V30 610 C 57.8178 -0.294332 -1.85783 0
M  V30 611 O 57.1758 0.737412 -1.65626 0
M  V30 612 C 57.2238 -2.69268 -2.39848 0
M  V30 613 O 56.3278 -2.28113 -3.43567 0
M  V30 614 H 55.6688 -0.54399 -0.380751 0
M  V30 615 H 58.1988 -1.95421 -0.605952 0
M  V30 616 H 58.2088 -2.91291 -2.85681 0
M  V30 617 H 56.8838 -3.65846 -1.97812 0
M  V30 618 H 55.4608 -2.16401 -3.03685 0
M  V30 619 N 57.6459 0.756429 -1.3826 0
M  V30 620 C 58.8949 1.51082 -1.3363 0
M  V30 621 C 59.2079 1.95467 0.0720068 0
M  V30 622 O 60.4139 2.7043 0.240834 0
M  V30 623 C 58.8699 2.72893 -2.34644 0
M  V30 624 C 58.4779 2.35544 -3.81081 0
M  V30 625 C 60.2219 3.50791 -2.39052 0
M  V30 626 C 58.1289 3.53948 -4.73787 0
M  V30 627 H 57.0589 0.56727 -0.49671 0
M  V30 628 H 59.7099 0.827147 -1.638 0
M  V30 629 H 58.0919 3.43227 -1.97513 0
M  V30 630 H 59.2659 1.72894 -4.27135 0
M  V30 631 H 57.5809 1.70786 -3.79764 0
M  V30 632 H 60.1779 4.38823 -3.05513 0
M  V30 633 H 60.5209 3.91745 -1.40861 0
M  V30 634 H 61.0539 2.87467 -2.74968 0
M  V30 635 H 57.7929 3.18064 -5.73163 0
M  V30 636 H 57.3129 4.15651 -4.32428 0
M  V30 637 H 58.9919 4.20566 -4.91663 0
M  V30 638 N 59.124 1.23083 0.984299 0
M  V30 639 C 60.349 1.088 1.76571 0
M  V30 640 C 60.774 -0.356657 1.84688 0
M  V30 641 O 60.132 -1.25788 1.30565 0
M  V30 642 C 60.18 1.71371 3.17277 0
M  V30 643 O 59.284 0.973213 4.00752 0
M  V30 644 H 58.625 0.381599 0.543395 0
M  V30 645 H 61.155 1.63057 1.23587 0
M  V30 646 H 61.165 1.76449 3.67872 0
M  V30 647 H 59.84 2.76493 3.10684 0
M  V30 648 H 58.417 0.999078 3.59267 0
M  V30 649 N 60.6021 -1.18246 1.0419 0
M  V30 650 C 61.8511 -1.87588 0.741194 0
M  V30 651 C 62.1641 -1.81303 -0.734066 0
M  V30 652 O 63.3701 -2.46019 -1.14834 0
M  V30 653 C 61.8261 -3.36538 1.27555 0
M  V30 654 C 61.4341 -3.51349 2.77953 0
M  V30 655 C 63.1781 -4.11273 1.05143 0
M  V30 656 C 61.0851 -4.94265 3.2474 0
M  V30 657 H 60.0151 -0.702622 0.273565 0
M  V30 658 H 62.6661 -1.33601 1.25789 0
M  V30 659 H 61.0481 -3.9 0.686703 0
M  V30 660 H 62.2221 -3.08153 3.42605 0
M  V30 661 H 60.5371 -2.90022 2.98791 0
M  V30 662 H 63.1341 -5.16689 1.37611 0
M  V30 663 H 63.4771 -4.16298 -0.0112774 0
M  V30 664 H 64.0101 -3.63987 1.60495 0
M  V30 665 H 60.7491 -4.94408 4.30396 0
M  V30 666 H 60.2691 -5.38172 2.64823 0
M  V30 667 H 61.9481 -5.62987 3.18834 0
M  V30 668 N 62.0802 -0.821533 -1.34494 0
M  V30 669 C 63.0432 -0.247847 -2.27856 0
M  V30 670 C 64.0432 0.573453 -1.50227 0
M  V30 671 O 65.2332 0.389759 -1.69784 0
M  V30 672 C 62.3652 0.652698 -3.34593 0
M  V30 673 H 63.5582 -1.07146 -2.80107 0
M  V30 674 H 61.1112 -0.593291 -1.44602 0
M  V30 675 H 61.8462 1.49943 -2.87555 0
M  V30 676 H 61.6312 0.065292 -3.92046 0
M  V30 677 H 63.1212 1.04793 -4.04238 0
M  V30 678 N 63.5583 1.46682 -0.576371 0
M  V30 679 C 64.4883 2.33028 0.148397 0
M  V30 680 C 65.4693 1.44961 0.889956 0
M  V30 681 O 66.6543 1.73789 0.866662 0
M  V30 682 C 63.7843 3.27117 1.1667 0
M  V30 683 C 62.7383 4.24575 0.540386 0
M  V30 684 C 62.0643 5.08126 1.6647 0
M  V30 685 C 63.3643 5.19722 -0.518331 0
M  V30 686 H 65.0583 2.93875 -0.572509 0
M  V30 687 H 62.6043 1.41315 -0.276768 0
M  V30 688 H 64.5573 3.86374 1.68204 0
M  V30 689 H 63.2813 2.64364 1.9178 0
M  V30 690 H 61.9403 3.66571 0.0461769 0
M  V30 691 H 61.5883 4.41762 2.40531 0
M  V30 692 H 61.2883 5.74122 1.25131 0
M  V30 693 H 62.8123 5.70246 2.18293 0
M  V30 694 H 64.2263 5.73232 -0.0883058 0
M  V30 695 H 62.6233 5.94026 -0.851679 0
M  V30 696 H 63.6933 4.64037 -1.40703 0
M  V30 697 N 65.0364 0.313813 1.54444 0
M  V30 698 C 65.9684 -0.590425 2.21465 0
M  V30 699 C 66.9814 -1.08753 1.21147 0
M  V30 700 O 68.1704 -1.00278 1.4767 0
M  V30 701 C 65.2704 -1.82179 2.85769 0
M  V30 702 C 64.4434 -1.46502 4.12136 0
M  V30 703 C 63.5024 -2.55288 4.60124 0
M  V30 704 O 62.5284 -2.19842 5.25032 0
M  V30 705 N 63.7304 -3.86053 4.33525 0
M  V30 706 H 66.4954 -0.0166033 2.99695 0
M  V30 707 H 64.0564 0.136578 1.61323 0
M  V30 708 H 66.0484 -2.54328 3.14801 0
M  V30 709 H 64.6184 -2.30369 2.11303 0
M  V30 710 H 63.8384 -0.575595 3.89975 0
M  V30 711 H 65.1264 -1.20221 4.94393 0
M  V30 712 H 64.5244 -4.17654 3.81552 0
M  V30 713 H 63.0814 -4.54461 4.67235 0
M  V30 714 N 66.5145 -1.57545 0.0417849 0
M  V30 715 C 67.4465 -2.07904 -0.964799 0
M  V30 716 C 68.4595 -1.00497 -1.28079 0
M  V30 717 O 69.6485 -1.28087 -1.24322 0
M  V30 718 C 66.7485 -2.49928 -2.28887 0
M  V30 719 C 65.9215 -3.80562 -2.15619 0
M  V30 720 C 64.9805 -4.08999 -3.31069 0
M  V30 721 O 64.0065 -4.79061 -3.0739 0
M  V30 722 N 65.2085 -3.6017 -4.55256 0
M  V30 723 H 67.9735 -2.94886 -0.535029 0
M  V30 724 H 65.5345 -1.61252 -0.144681 0
M  V30 725 H 67.5265 -2.66034 -3.04972 0
M  V30 726 H 66.0965 -1.68245 -2.63463 0
M  V30 727 H 65.3165 -3.74129 -1.24183 0
M  V30 728 H 66.6045 -4.66126 -2.03971 0
M  V30 729 H 66.0025 -3.03512 -4.77386 0
M  V30 730 H 64.5595 -3.81532 -5.28466 0
M  V30 731 N 67.9926 0.231505 -1.5589 0
M  V30 732 C 69.2416 0.955346 -1.7764 0
M  V30 733 C 69.5546 1.85893 -0.608546 0
M  V30 734 O 70.7606 2.62067 -0.70943 0
M  V30 735 C 69.2166 1.74886 -3.14552 0
M  V30 736 C 68.8246 0.891915 -4.39032 0
M  V30 737 C 70.5686 2.46452 -3.45633 0
M  V30 738 C 68.4756 1.68221 -5.66971 0
M  V30 739 H 67.4056 0.360446 -0.662265 0
M  V30 740 H 70.0566 0.209516 -1.823 0
M  V30 741 H 68.4386 2.53723 -3.04041 0
M  V30 742 H 69.6126 0.144793 -4.60572 0
M  V30 743 H 67.9276 0.288863 -4.15397 0
M  V30 744 H 70.5246 3.06061 -4.38441 0
M  V30 745 H 70.8676 3.18841 -2.67668 0
M  V30 746 H 71.4006 1.74613 -3.57428 0
M  V30 747 H 68.1396 1.00178 -6.478 0
M  V30 748 H 67.6596 2.4042 -5.49507 0
M  V30 749 H 69.3386 2.24544 -6.06786 0
M  V30 750 N 69.4707 1.49531 0.497807 0
M  V30 751 C 70.4027 1.62559 1.61578 0
M  V30 752 C 71.4157 0.508134 1.54667 0
M  V30 753 O 72.6047 0.780309 1.60541 0
M  V30 754 C 69.7047 1.56925 3.00379 0
M  V30 755 C 68.8777 2.84257 3.3244 0
M  V30 756 C 67.9367 2.71632 4.50669 0
M  V30 757 O 66.9627 3.4557 4.52294 0
M  V30 758 N 68.1647 1.83391 5.5077 0
M  V30 759 H 70.9297 2.58981 1.50828 0
M  V30 760 H 68.4907 1.4666 0.685743 0
M  V30 761 H 70.4827 1.46129 3.77397 0
M  V30 762 H 69.0527 0.683483 3.05037 0
M  V30 763 H 68.2727 3.09381 2.44289 0
M  V30 764 H 69.5607 3.68666 3.5066 0
M  V30 765 H 68.9587 1.22583 5.52259 0
M  V30 766 H 67.5157 1.78515 6.26878 0
M  V30 767 N 70.9488 -0.749086 1.3866 0
M  V30 768 C 72.3598 -1.32664 1.31366 0
M  V30 769 C 72.7108 -1.96179 -0.028484 0
M  V30 770 O 71.8358 -1.9537 -0.93057 0
M  V30 771 C 72.4308 -2.41219 2.37905 0
M  V30 772 C 70.9898 -2.94684 2.34176 0
M  V30 773 C 70.1368 -1.68108 2.20533 0
M  V30 774 H 73.0878 -0.547628 1.48952 0
M  V30 775 H 73.1088 -3.21268 2.0388 0
M  V30 776 H 72.6208 -1.94962 3.35576 0
M  V30 777 H 70.7218 -3.45258 1.401 0
M  V30 778 H 70.8348 -3.48757 3.2849 0
M  V30 779 H 69.1988 -1.91907 1.67463 0
M  V30 780 H 69.9818 -1.23923 3.20153 0
M  V30 781 N 72.4269 -1.23603 -0.977757 0
M  V30 782 C 73.3369 -1.03632 -2.1047 0
M  V30 783 C 74.3529 0.0199435 -1.73989 0
M  V30 784 O 75.5289 -0.176076 -2.00629 0
M  V30 785 C 72.5939 -0.63276 -3.40877 0
M  V30 786 C 71.6549 -1.76437 -3.91367 0
M  V30 787 C 70.8879 -1.37997 -5.15551 0
M  V30 788 O 71.1109 -0.265357 -5.69782 0
M  V30 789 O 70.0449 -2.20201 -5.60174 0
M  V30 790 H 73.8709 -1.98086 -2.30208 0
M  V30 791 H 71.4559 -1.02332 -1.08851 0
M  V30 792 H 73.3379 -0.418761 -4.19314 0
M  V30 793 H 72.0129 0.282754 -3.22463 0
M  V30 794 H 70.9199 -2.03304 -3.14036 0
M  V30 795 H 72.2529 -2.6583 -4.14241 0
M  V30 796 N 73.905 1.17692 -1.04816 0
M  V30 797 C 75.13 1.92327 -0.776207 0
M  V30 798 C 75.555 1.76082 0.661581 0
M  V30 799 O 74.913 1.076 1.45917 0
M  V30 800 C 74.961 3.41539 -1.15687 0
M  V30 801 O 74.065 4.11402 -0.286775 0
M  V30 802 H 73.406 0.599735 -0.284981 0
M  V30 803 H 75.936 1.49201 -1.4 0
M  V30 804 H 75.946 3.92269 -1.12202 0
M  V30 805 H 74.621 3.52684 -2.20425 0
M  V30 806 H 73.198 3.70939 -0.381903 0
M  V30 807 N 75.3831 0.828654 1.34056 0
M  V30 808 C 76.6291 0.429279 1.98818 0
M  V30 809 C 76.9841 -0.998011 1.64492 0
M  V30 810 O 76.2771 -1.68652 0.909228 0
M  V30 811 C 76.4711 0.575226 3.52741 0
M  V30 812 C 76.3001 2.01515 4.02022 0
M  V30 813 C 75.0701 2.64825 4.30344 0
M  V30 814 C 77.2681 2.98261 4.18981 0
M  V30 815 N 75.2501 3.99998 4.65698 0
M  V30 816 C 76.6211 4.18356 4.57578 0
M  V30 817 C 78.6761 2.94802 4.01243 0
M  V30 818 C 77.3791 5.35454 4.80293 0
M  V30 819 C 79.4051 4.11121 4.25128 0
M  V30 820 C 78.7671 5.29969 4.64018 0
M  V30 821 H 74.8661 0.205304 0.754569 0
M  V30 822 H 77.4501 1.07457 1.62361 0
M  V30 823 H 75.6211 -0.0401962 3.88379 0
M  V30 824 H 77.3531 0.148292 4.04428 0
M  V30 825 H 74.1081 2.16027 4.21461 0
M  V30 826 H 74.5321 4.69653 4.87601 0
M  V30 827 H 79.1741 2.04054 3.70299 0
M  V30 828 H 76.8921 6.26755 5.10102 0
M  V30 829 H 80.4781 4.0985 4.12934 0
M  V30 830 H 79.3581 6.18479 4.82134 0
M  V30 831 N 76.8612 -1.46375 0.584142 0
M  V30 832 C 77.7932 -2.28443 -0.186119 0
M  V30 833 C 78.8062 -1.38596 -0.854115 0
M  V30 834 O 79.9952 -1.63183 -0.723438 0
M  V30 835 C 77.0952 -3.13671 -1.28311 0
M  V30 836 C 76.2682 -4.31652 -0.706758 0
M  V30 837 C 75.3272 -4.98267 -1.69163 0
M  V30 838 O 74.3532 -5.55815 -1.22712 0
M  V30 839 N 75.5552 -4.95408 -3.02575 0
M  V30 840 H 78.3202 -2.9519 0.517986 0
M  V30 841 H 75.8812 -1.56303 0.42201 0
M  V30 842 H 77.8732 -3.55101 -1.94128 0
M  V30 843 H 76.4432 -2.48989 -1.89005 0
M  V30 844 H 75.6632 -3.93989 0.128908 0
M  V30 845 H 76.9512 -5.07906 -0.301506 0
M  V30 846 H 76.3492 -4.49902 -3.42936 0
M  V30 847 H 74.9062 -5.40774 -3.63877 0
M  V30 848 N 78.3393 -0.321999 -1.54275 0
M  V30 849 C 79.3023 0.531975 -2.22941 0
M  V30 850 C 80.3023 1.04478 -1.22234 0
M  V30 851 O 81.4923 0.937452 -1.46825 0
M  V30 852 C 78.6243 1.73874 -2.93224 0
M  V30 853 H 79.8173 -0.0682612 -2.99822 0
M  V30 854 H 77.3703 -0.0730644 -1.56129 0
M  V30 855 H 78.1053 2.37825 -2.20476 0
M  V30 856 H 77.8903 1.37847 -3.6707 0
M  V30 857 H 79.3803 2.34496 -3.45545 0
M  V30 858 N 79.8174 1.5752 -0.0501392 0
M  V30 859 C 81.0664 1.91827 0.623328 0
M  V30 860 C 81.3794 0.930222 1.72065 0
M  V30 861 O 82.5854 1.1653 2.4522 0
M  V30 862 C 81.0414 3.40692 1.16003 0
M  V30 863 C 80.6494 4.479 0.0948811 0
M  V30 864 C 82.3934 3.84034 1.80881 0
M  V30 865 C 80.3004 5.87879 0.644411 0
M  V30 866 H 79.2304 0.715918 0.236596 0
M  V30 867 H 81.8814 1.83115 -0.118861 0
M  V30 868 H 80.2634 3.44405 1.9545 0
M  V30 869 H 81.4374 4.55775 -0.678675 0
M  V30 870 H 79.7524 4.13892 -0.45637 0
M  V30 871 H 82.3494 4.85984 2.22988 0
M  V30 872 H 82.6924 3.20225 2.6601 0
M  V30 873 H 83.2254 3.82833 1.0809 0
M  V30 874 H 79.9644 6.55282 -0.169229 0
M  V30 875 H 79.4844 5.83567 1.38598 0
M  V30 876 H 81.1634 6.37098 1.12763 0
M  V30 877 N 81.2955 -0.223234 1.56011 0
M  V30 878 C 82.5415 -0.944891 1.8012 0
M  V30 879 C 82.8965 -1.82039 0.622862 0
M  V30 880 O 82.1895 -1.8773 -0.383143 0
M  V30 881 C 82.3835 -1.81948 3.0762 0
M  V30 882 C 82.2125 -1.03014 4.37742 0
M  V30 883 C 80.9825 -0.72574 5.00061 0
M  V30 884 C 83.1805 -0.396256 5.12771 0
M  V30 885 N 81.1625 0.0851816 6.13841 0
M  V30 886 C 82.5335 0.278137 6.19376 0
M  V30 887 C 84.5885 -0.309117 4.9694 0
M  V30 888 C 83.2915 1.03133 7.11868 0
M  V30 889 C 85.3175 0.430607 5.8983 0
M  V30 890 C 84.6795 1.09355 6.9586 0
M  V30 891 H 80.7785 -0.326081 0.710771 0
M  V30 892 H 83.3625 -0.215914 1.93499 0
M  V30 893 H 81.5335 -2.52029 2.95527 0
M  V30 894 H 83.2655 -2.47848 3.19927 0
M  V30 895 H 80.0205 -1.04335 4.61964 0
M  V30 896 H 80.4445 0.479428 6.753 0
M  V30 897 H 85.0865 -0.807313 4.15021 0
M  V30 898 H 82.8045 1.54105 7.9327 0
M  V30 899 H 86.3905 0.499012 5.79656 0
M  V30 900 H 85.2705 1.65679 7.66499 0
M  V30 901 N 82.7736 -1.49793 -0.48987 0
M  V30 902 C 84.0506 -1.50348 -1.25119 0
M  V30 903 C 84.4306 -0.237466 -2.0976 0
M  V30 904 O 83.7786 0.77981 -2.14782 0
M  V30 905 C 83.9886 -2.78872 -2.09837 0
M  V30 906 C 85.3366 -3.288 -2.68655 0
M  V30 907 O 86.3606 -2.80065 -2.20096 0
M  V30 908 O 85.2196 -4.13707 -3.57083 0
M  V30 909 H 82.3136 -0.602242 -0.566775 0
M  V30 910 H 84.8596 -1.62067 -0.503229 0
M  V30 911 H 83.6316 -3.62499 -1.47343 0
M  V30 912 H 83.2546 -2.70066 -2.91805 0
M  V30 913 N 84.2517 0.741722 -1.39055 0
M  V30 914 C 85.2147 1.83733 -1.37021 0
M  V30 915 C 86.2147 1.58542 -0.268534 0
M  V30 916 O 87.4047 1.66067 -0.526076 0
M  V30 917 C 84.5367 3.2141 -1.13617 0
M  V30 918 H 85.7297 1.86941 -2.34506 0
M  V30 919 H 83.2827 0.944676 -1.24521 0
M  V30 920 H 84.0177 3.23865 -0.167863 0
M  V30 921 H 83.8027 3.4109 -1.93391 0
M  V30 922 H 85.2927 4.01477 -1.14918 0
M  V30 923 N 85.7298 1.2412 0.971189 0
M  V30 924 C 86.6398 1.04747 2.09917 0
M  V30 925 C 87.6558 -0.0107162 1.73997 0
M  V30 926 O 88.8318 0.186714 2.00533 0
M  V30 927 C 85.8968 0.650828 3.40537 0
M  V30 928 C 84.9578 1.7851 3.90426 0
M  V30 929 C 84.1908 1.40729 5.14812 0
M  V30 930 O 84.4138 0.29557 5.69634 0
M  V30 931 O 83.3478 2.23168 5.58999 0
M  V30 932 H 87.1738 1.99304 2.29154 0
M  V30 933 H 84.7588 1.02908 1.08307 0
M  V30 934 H 86.6408 0.440992 4.19086 0
M  V30 935 H 85.3158 -0.265649 3.22608 0
M  V30 936 H 84.2228 2.04966 3.12953 0
M  V30 937 H 85.5558 2.68023 4.12825 0
M  V30 938 N 87.2079 -1.17134 1.05439 0
M  V30 939 C 88.4569 -1.86791 0.761049 0
M  V30 940 C 88.7699 -1.82072 -0.714795 0
M  V30 941 O 89.9759 -2.47223 -1.12218 0
M  V30 942 C 88.4319 -3.35166 1.31117 0
M  V30 943 C 88.0399 -3.48381 2.81664 0
M  V30 944 C 89.7839 -4.10134 1.09499 0
M  V30 945 C 87.6909 -4.90793 3.29964 0
M  V30 946 H 86.6209 -0.699681 0.281002 0
M  V30 947 H 89.2719 -1.3226 1.27199 0
M  V30 948 H 87.6539 -3.8925 0.72803 0
M  V30 949 H 88.8279 -3.04502 3.45855 0
M  V30 950 H 87.1429 -2.86836 3.01851 0
M  V30 951 H 89.7399 -5.152 1.43084 0
M  V30 952 H 90.0829 -4.16287 0.0328772 0
M  V30 953 H 90.6159 -3.62264 1.64346 0
M  V30 954 H 87.3549 -4.89816 4.35616 0
M  V30 955 H 86.8749 -5.35333 2.70516 0
M  V30 956 H 88.5539 -5.59573 3.24787 0
M  V30 957 N 88.686 -0.835752 -1.33615 0
M  V30 958 C 89.649 -0.272 -2.2758 0
M  V30 959 C 90.649 0.557487 -1.50827 0
M  V30 960 O 91.839 0.37173 -1.70188 0
M  V30 961 C 88.971 0.617173 -3.35267 0
M  V30 962 H 90.164 -1.10111 -2.78954 0
M  V30 963 H 87.717 -0.608594 -1.43965 0
M  V30 964 H 88.452 1.46884 -2.89129 0
M  V30 965 H 88.237 0.0237066 -3.92093 0
M  V30 966 H 89.727 1.005 -4.05326 0
M  V30 967 N 90.1641 1.46063 -0.591896 0
M  V30 968 C 91.5751 1.85944 -0.167822 0
M  V30 969 C 91.9261 1.49429 1.27143 0
M  V30 970 O 91.0511 0.913515 1.96173 0
M  V30 971 C 91.6461 3.37489 -0.297794 0
M  V30 972 C 90.2051 3.76332 0.0714732 0
M  V30 973 C 89.3521 2.7006 -0.629509 0
M  V30 974 H 92.3031 1.37087 -0.799555 0
M  V30 975 H 92.3241 3.77532 0.474349 0
M  V30 976 H 91.8361 3.64034 -1.3454 0
M  V30 977 H 89.9371 3.55405 1.11886 0
M  V30 978 H 90.0501 4.78088 -0.311245 0
M  V30 979 H 88.4141 2.54607 -0.0687867 0
M  V30 980 H 89.1971 2.99444 -1.67894 0
M  V30 981 N 91.6422 0.330177 1.54103 0
M  V30 982 C 92.5742 -0.566902 2.22079 0
M  V30 983 C 93.5872 -1.07462 1.22294 0
M  V30 984 O 94.7762 -0.987065 1.48726 0
M  V30 985 C 91.8762 -1.79138 2.87685 0
M  V30 986 C 91.0492 -1.42123 4.13666 0
M  V30 987 C 90.1082 -2.50394 4.62806 0
M  V30 988 O 89.1342 -2.14261 5.27334 0
M  V30 989 N 90.3362 -3.81433 4.37595 0
M  V30 990 H 93.1012 0.0151844 2.99696 0
M  V30 991 H 90.6622 0.153681 1.61169 0
M  V30 992 H 92.6542 -2.50975 3.1748 0
M  V30 993 H 91.2242 -2.28115 2.13734 0
M  V30 994 H 90.4442 -0.534201 3.90564 0
M  V30 995 H 91.7322 -1.14971 4.9564 0
M  V30 996 H 91.1302 -4.13584 3.8596 0
M  V30 997 H 89.6872 -4.4948 4.72029 0
M  V30 998 N 93.1203 -1.57491 0.0584922 0
M  V30 999 C 94.0533 -2.07533 -0.948969 0
M  V30 1000 C 95.0313 -0.977444 -1.29942 0
M  V30 1001 O 96.2153 -1.2499 -1.41102 0
M  V30 1002 C 93.3423 -2.52192 -2.2609 0
M  V30 1003 C 92.3883 -3.73287 -2.06298 0
M  V30 1004 S 93.2213 -5.18603 -1.33459 0
M  V30 1005 C 94.3773 -5.66583 -2.65959 0
M  V30 1006 H 94.6103 -2.92662 -0.523118 0
M  V30 1007 H 92.1433 -1.53631 -0.153954 0
M  V30 1008 H 94.1013 -2.78585 -3.01498 0
M  V30 1009 H 92.7623 -1.67356 -2.65802 0
M  V30 1010 H 91.9553 -4.0248 -3.03357 0
M  V30 1011 H 91.5573 -3.47199 -1.39029 0
M  V30 1012 H 93.8493 -5.72616 -3.62101 0
M  V30 1013 H 94.7923 -6.65684 -2.41393 0
M  V30 1014 H 95.2003 -4.94342 -2.72554 0
M  V30 1015 N 94.5984 0.214957 -1.56127 0
M  V30 1016 C 95.5084 1.28727 -1.96129 0
M  V30 1017 C 96.5244 1.50916 -0.866044 0
M  V30 1018 O 97.7004 1.63918 -1.17016 0
M  V30 1019 C 94.7654 2.61569 -2.27558 0
M  V30 1020 C 93.8264 2.47625 -3.50685 0
M  V30 1021 C 93.0594 3.74132 -3.80606 0
M  V30 1022 O 93.2824 4.77438 -3.12104 0
M  V30 1023 O 92.2164 3.70849 -4.74083 0
M  V30 1024 H 96.0424 0.977855 -2.87527 0
M  V30 1025 H 93.6274 0.418358 -1.43423 0
M  V30 1026 H 95.5094 3.40012 -2.48938 0
M  V30 1027 H 94.1844 2.92178 -1.39332 0
M  V30 1028 H 93.0914 1.67361 -3.34576 0
M  V30 1029 H 94.4244 2.21954 -4.39315 0
M  V30 1030 N 96.0765 1.50051 0.48192 0
M  V30 1031 C 97.0395 1.67584 1.5636 0
M  V30 1032 C 98.0395 0.546894 1.51214 0
M  V30 1033 O 99.2295 0.813725 1.54026 0
M  V30 1034 C 96.3615 1.691 2.96003 0
M  V30 1035 H 97.5545 2.64078 1.42136 0
M  V30 1036 H 95.1075 1.39369 0.707533 0
M  V30 1037 H 95.8425 0.742589 3.15684 0
M  V30 1038 H 95.6275 2.51105 3.01146 0
M  V30 1039 H 97.1175 1.84656 3.74556 0
M  V30 1040 N 97.5546 -0.734337 1.39446 0
M  V30 1041 C 98.4846 -1.86155 1.40955 0
M  V30 1042 C 99.4656 -1.67898 0.272827 0
M  V30 1043 O 100.651 -1.88207 0.478743 0
M  V30 1044 C 97.7806 -3.23912 1.25294 0
M  V30 1045 C 96.7346 -3.56808 2.36373 0
M  V30 1046 C 96.0606 -4.93508 2.058 0
M  V30 1047 C 97.3606 -3.59713 3.78687 0
M  V30 1048 H 99.0546 -1.8515 2.35287 0
M  V30 1049 H 96.6006 -0.889367 1.13253 0
M  V30 1050 H 98.5536 -4.02443 1.2497 0
M  V30 1051 H 97.2776 -3.25446 0.274308 0
M  V30 1052 H 95.9366 -2.80606 2.35914 0
M  V30 1053 H 95.5846 -4.91623 1.06374 0
M  V30 1054 H 95.2846 -5.16486 2.80208 0
M  V30 1055 H 96.8086 -5.74396 2.07128 0
M  V30 1056 H 98.2226 -4.2832 3.81071 0
M  V30 1057 H 96.6196 -3.94209 4.52459 0
M  V30 1058 H 97.6896 -2.59504 4.09617 0
M  V30 1059 N 99.0327 -1.24633 -0.964593 0
M  V30 1060 C 100.282 -1.08188 -1.7023 0
M  V30 1061 C 100.595 0.37873 -1.91898 0
M  V30 1062 O 101.801 0.663427 -2.6327 0
M  V30 1063 C 100.257 -1.88773 -3.06419 0
M  V30 1064 C 99.8647 -3.39263 -2.92582 0
M  V30 1065 C 101.609 -1.80867 -3.84041 0
M  V30 1066 C 99.5157 -4.1218 -4.24101 0
M  V30 1067 H 98.4457 -0.401245 -0.638372 0
M  V30 1068 H 101.097 -1.48742 -1.07462 0
M  V30 1069 H 99.4787 -1.41035 -3.70034 0
M  V30 1070 H 100.653 -3.94603 -2.37961 0
M  V30 1071 H 98.9677 -3.48154 -2.28424 0
M  V30 1072 H 101.565 -2.32646 -4.81435 0
M  V30 1073 H 101.908 -0.774543 -4.09031 0
M  V30 1074 H 102.441 -2.26301 -3.27159 0
M  V30 1075 H 99.1797 -5.15965 -4.04303 0
M  V30 1076 H 98.6997 -3.61626 -4.78526 0
M  V30 1077 H 100.379 -4.19349 -4.92702 0
M  V30 1078 N 100.511 1.16574 -1.06058 0
M  V30 1079 C 101.458 2.20883 -0.669263 0
M  V30 1080 C 102.428 1.62729 0.332918 0
M  V30 1081 O 103.613 1.895 0.222346 0
M  V30 1082 C 100.753 3.45049 -0.0593572 0
M  V30 1083 C 99.8658 4.17458 -1.11143 0
M  V30 1084 C 99.0008 5.29135 -0.467916 0
M  V30 1085 C 98.0398 5.93343 -1.50369 0
M  V30 1086 N 97.1768 6.96516 -0.883706 0
M  V30 1087 H 102.017 2.53709 -1.5632 0
M  V30 1088 H 99.5538 1.24616 -0.781625 0
M  V30 1089 H 101.512 4.16033 0.311771 0
M  V30 1090 H 100.142 3.12781 0.797992 0
M  V30 1091 H 99.1938 3.45101 -1.60029 0
M  V30 1092 H 100.506 4.61307 -1.89731 0
M  V30 1093 H 99.6598 6.06684 -0.0436871 0
M  V30 1094 H 98.3988 4.86443 0.349864 0
M  V30 1095 H 97.4038 5.14517 -1.93784 0
M  V30 1096 H 98.6288 6.38114 -2.32352 0
M  V30 1097 H 96.5748 6.55943 -0.086595 0
M  V30 1098 H 96.4918 7.38723 -1.607 0
M  V30 1099 H 97.7598 7.77993 -0.484543 0
M  V30 1100 N 101.989 0.842826 1.3317 0
M  V30 1101 C 102.936 0.276885 2.29133 0
M  V30 1102 C 103.906 -0.609527 1.54512 0
M  V30 1103 O 105.091 -0.546955 1.82792 0
M  V30 1104 C 102.231 -0.538707 3.40869 0
M  V30 1105 C 101.344 0.372169 4.30394 0
M  V30 1106 C 100.479 -0.454908 5.29249 0
M  V30 1107 C 99.5179 0.45411 6.10413 0
M  V30 1108 N 98.6549 -0.335075 7.013 0
M  V30 1109 H 103.495 1.10052 2.76934 0
M  V30 1110 H 101.032 0.554161 1.36262 0
M  V30 1111 H 102.99 -1.02709 4.0436 0
M  V30 1112 H 101.62 -1.32727 2.9425 0
M  V30 1113 H 100.672 0.97888 3.6759 0
M  V30 1114 H 101.984 1.0703 4.87182 0
M  V30 1115 H 101.138 -1.00695 5.98285 0
M  V30 1116 H 99.8769 -1.18646 4.73048 0
M  V30 1117 H 98.8819 1.01813 5.40291 0
M  V30 1118 H 100.107 1.18409 6.68697 0
M  V30 1119 H 98.0529 -1.04994 6.47543 0
M  V30 1120 H 97.9699 0.304262 7.55387 0
M  V30 1121 H 99.2379 -0.869224 7.74638 0
M  V30 1122 N 103.467 -1.45747 0.599634 0
M  V30 1123 C 104.878 -1.85853 0.177681 0
M  V30 1124 C 105.229 -1.50102 -1.26348 0
M  V30 1125 O 104.354 -0.923905 -1.95686 0
M  V30 1126 C 104.949 -3.37326 0.315688 0
M  V30 1127 C 103.508 -3.76365 -0.0515144 0
M  V30 1128 C 102.655 -2.69722 0.643822 0
M  V30 1129 H 105.606 -1.36661 0.806814 0
M  V30 1130 H 105.627 -3.77778 -0.454321 0
M  V30 1131 H 105.139 -3.63315 1.36468 0
M  V30 1132 H 103.24 -3.55993 -1.09999 0
M  V30 1133 H 103.353 -4.77916 0.336594 0
M  V30 1134 H 101.717 -2.54567 0.0822881 0
M  V30 1135 H 102.5 -2.98549 1.6948 0
M  V30 1136 N 104.945 -0.338344 -1.53925 0
M  V30 1137 C 106.193 0.259245 -2.0043 0
M  V30 1138 C 106.514 1.51484 -1.22791 0
M  V30 1139 O 105.784 1.93037 -0.33368 0
M  V30 1140 H 104.364 0.0987845 -0.740439 0
M  V30 1141 H 107.026 -0.458302 -1.89435 0
M  V30 1142 H 106.122 0.505334 -3.07982 0
M  V30 1143 N 106.423 1.57458 -0.0668435 0
M  V30 1144 C 107.653 1.97337 0.611677 0
M  V30 1145 C 108.061 0.943744 1.63982 0
M  V30 1146 O 107.404 -0.0785584 1.83532 0
M  V30 1147 C 107.466 3.33511 1.34205 0
M  V30 1148 C 107.13 4.54598 0.467941 0
M  V30 1149 C 108.127 5.19186 -0.272439 0
M  V30 1150 C 105.812 5.0075 0.39427 0
M  V30 1151 C 107.806 6.28274 -1.07476 0
M  V30 1152 C 105.493 6.09711 -0.411729 0
M  V30 1153 C 106.491 6.73335 -1.14492 0
M  V30 1154 O 106.179 7.80199 -1.93763 0
M  V30 1155 H 105.911 0.654042 0.170893 0
M  V30 1156 H 108.465 2.04961 -0.134289 0
M  V30 1157 H 106.695 3.22487 2.13398 0
M  V30 1158 H 108.384 3.58029 1.91233 0
M  V30 1159 H 109.15 4.84477 -0.225086 0
M  V30 1160 H 105.029 4.51009 0.954569 0
M  V30 1161 H 108.573 6.77866 -1.64755 0
M  V30 1162 H 104.47 6.43854 -0.460664 0
M  V30 1163 H 105.238 7.97053 -1.86142 0
M  V30 1164 N 107.901 -0.206675 1.56239 0
M  V30 1165 C 109.126 -0.949474 1.8439 0
M  V30 1166 C 109.551 -1.76549 0.649016 0
M  V30 1167 O 108.909 -1.76782 -0.402231 0
M  V30 1168 C 108.957 -1.83078 3.10668 0
M  V30 1169 O 108.061 -2.9281 2.90407 0
M  V30 1170 H 107.402 -0.268033 0.607499 0
M  V30 1171 H 109.932 -0.215488 2.03462 0
M  V30 1172 H 109.942 -2.2377 3.41161 0
M  V30 1173 H 108.617 -1.23112 3.97261 0
M  V30 1174 H 107.194 -2.55956 2.71184 0
M  V30 1175 N 109.379 -1.50304 -0.473955 0
M  V30 1176 C 110.312 -1.63595 -1.59097 0
M  V30 1177 C 111.29 -0.484142 -1.55225 0
M  V30 1178 O 112.474 -0.703271 -1.7489 0
M  V30 1179 C 109.601 -1.61589 -2.97669 0
M  V30 1180 C 108.647 -2.82295 -3.19705 0
M  V30 1181 S 109.48 -4.43635 -2.99913 0
M  V30 1182 C 110.636 -4.44317 -4.40832 0
M  V30 1183 H 110.869 -2.58082 -1.47583 0
M  V30 1184 H 108.402 -1.39531 -0.661087 0
M  V30 1185 H 110.36 -1.61116 -3.7756 0
M  V30 1186 H 109.021 -0.683421 -3.06575 0
M  V30 1187 H 108.214 -2.77188 -4.20931 0
M  V30 1188 H 107.816 -2.8032 -2.47582 0
M  V30 1189 H 110.108 -4.17703 -5.33414 0
M  V30 1190 H 111.051 -5.45911 -4.50984 0
M  V30 1191 H 111.459 -3.74059 -4.22777 0
M  V30 1192 N 110.857 0.726932 -1.39834 0
M  V30 1193 C 111.805 1.86235 -1.39353 0
M  V30 1194 C 112.799 1.67144 -0.275555 0
M  V30 1195 O 114.005 1.74387 -0.44601 0
M  V30 1196 H 110.38 0.613174 -0.43534 0
M  V30 1197 H 112.351 1.83756 -2.35109 0
M  V30 1198 C 111.1 3.23995 -1.26185 0
M  V30 1199 H 110.423 3.39285 -2.11484 0
M  V30 1200 H 111.863 4.03609 -1.29907 0
M  V30 1201 C 110.322 3.36888 0.0290018 0
M  V30 1202 O 110.852 3.89152 0.99619 0
M  V30 1203 N 109.058 2.90446 0.0947437 0
M  V30 1204 H 108.605 2.48102 -0.693035 0
M  V30 1205 H 108.563 2.99451 0.957932 0
M  V30 1206 N 112.336 1.25143 0.95797 0
M  V30 1207 C 113.299 1.05321 2.03569 0
M  V30 1208 C 114.299 0.007152 1.60798 0
M  V30 1209 O 115.489 0.24903 1.72411 0
M  V30 1210 C 112.621 0.598394 3.35607 0
M  V30 1211 H 113.814 2.00986 2.22586 0
M  V30 1212 H 111.367 1.07502 1.13459 0
M  V30 1213 H 112.102 -0.361014 3.22284 0
M  V30 1214 H 111.887 1.35351 3.67998 0
M  V30 1215 H 113.377 0.48104 4.1482 0
M  V30 1216 O 113.853 -1.09082 1.19093 0
M  V30 1217 H 114.544 -1.69498 0.937549 0
M  V30 END ATOM
M  V30 BEGIN BOND
M  V30 END BOND
M  V30 END CTAB
M  END
$$$$
