drugbank_target|P31948 Stress-induced-phosphoprotein 1 (DB09130)
 OpenBabel12092121053D

  0  0  0     0  0            999 V3000
M  V30 BEGIN CTAB
M  V30 COUNTS 8759 8839 0 0 0
M  V30 BEGIN ATOM
M  V30 1 H -0.908 1.98254 -0.117106 0
M  V30 2 N 0 1.576 0 0
M  V30 3 C 0.933 2.03868 1.02534 0
M  V30 4 C 1.911 0.928543 1.3348 0
M  V30 5 O 3.095 1.19667 1.45644 0
M  V30 6 C 0.222 2.43627 2.35294 0
M  V30 7 C -0.732 3.65373 2.2001 0
M  V30 8 S 0.101 5.13292 1.52614 0
M  V30 9 C 1.257 5.56322 2.86805 0
M  V30 10 H 1.49 2.90518 0.631377 0
M  V30 11 H -0.977 1.52953 0.210867 0
M  V30 12 H 0.981 2.67203 3.11629 0
M  V30 13 H -0.358 1.57376 2.7183 0
M  V30 14 H -1.165 3.90944 3.18086 0
M  V30 15 H -1.563 3.418 1.51819 0
M  V30 16 H 0.729 5.58782 3.83104 0
M  V30 17 H 1.672 6.56266 2.65933 0
M  V30 18 H 2.08 4.83886 2.90714 0
M  V30 19 N 1.4781 -0.272755 1.55222 0
M  V30 20 C 2.3881 -1.35918 1.91216 0
M  V30 21 C 3.4041 -1.54026 0.809436 0
M  V30 22 O 4.5801 -1.68148 1.10852 0
M  V30 23 C 1.6451 -2.69834 2.17693 0
M  V30 24 C 0.7061 -2.6047 3.41253 0
M  V30 25 C -0.0609 -3.88 3.66458 0
M  V30 26 O 0.1621 -4.88693 2.94169 0
M  V30 27 O -0.9039 -3.88189 4.59992 0
M  V30 28 H 2.9221 -1.0839 2.83699 0
M  V30 29 H 0.5071 -0.471301 1.41771 0
M  V30 30 H 2.3891 -3.49017 2.36147 0
M  V30 31 H 1.0641 -2.97148 1.28392 0
M  V30 32 H -0.0289 -1.79663 3.28134 0
M  V30 33 H 1.3041 -2.38106 4.30774 0
M  V30 34 N 2.9562 -1.48159 -0.537278 0
M  V30 35 C 3.8882 -1.58218 -1.65831 0
M  V30 36 C 4.9012 -0.466948 -1.5596 0
M  V30 37 O 6.0902 -0.73747 -1.62553 0
M  V30 38 C 3.1902 -1.48906 -3.04434 0
M  V30 39 C 2.3632 -2.75343 -3.3986 0
M  V30 40 C 1.4222 -2.59588 -4.57712 0
M  V30 41 O 0.4482 -3.33457 -4.61297 0
M  V30 42 N 1.6502 -1.68724 -5.55439 0
M  V30 43 H 4.4152 -2.54891 -1.57641 0
M  V30 44 H 1.9762 -1.4479 -0.724386 0
M  V30 45 H 3.9682 -1.36072 -3.81139 0
M  V30 46 H 2.5382 -0.602368 -3.06741 0
M  V30 47 H 1.7582 -3.02795 -2.52406 0
M  V30 48 H 3.0462 -3.5924 -3.60311 0
M  V30 49 H 2.4442 -1.07898 -5.55315 0
M  V30 50 H 1.0012 -1.61832 -6.3139 0
M  V30 51 N 4.4343 0.785586 -1.36625 0
M  V30 52 C 5.6803 1.54591 -1.31261 0
M  V30 53 C 6.0133 1.93906 0.106823 0
M  V30 54 O 5.2883 1.63007 1.06108 0
M  V30 55 C 5.5713 2.82038 -2.23889 0
M  V30 56 C 5.4243 2.49066 -3.74548 0
M  V30 57 C 6.7433 3.83887 -2.15217 0
M  V30 58 H 3.8623 0.560846 -0.478143 0
M  V30 59 H 6.5043 0.902278 -1.67209 0
M  V30 60 H 4.6543 3.36961 -1.93363 0
M  V30 61 H 6.3263 2.00164 -4.15611 0
M  V30 62 H 4.5693 1.81954 -3.93796 0
M  V30 63 H 5.2403 3.40109 -4.34776 0
M  V30 64 H 7.7163 3.38421 -2.42096 0
M  V30 65 H 6.5923 4.70806 -2.82193 0
M  V30 66 H 6.8533 4.27131 -1.14068 0
M  V30 67 N 5.9124 1.20967 1.01018 0
M  V30 68 C 6.8604 0.961223 2.1181 0
M  V30 69 C 7.8544 -0.0897034 1.69162 0
M  V30 70 O 9.0604 0.0612271 1.79896 0
M  V30 71 H 5.4354 0.29355 0.692338 0
M  V30 72 H 7.4064 1.90178 2.29946 0
M  V30 73 C 6.1554 0.536854 3.4353 0
M  V30 74 H 5.4784 1.33713 3.76777 0
M  V30 75 H 6.9184 0.402286 4.22087 0
M  V30 76 C 5.3774 -0.751574 3.2841 0
M  V30 77 O 5.9074 -1.80841 3.58691 0
M  V30 78 N 4.1134 -0.716079 2.81639 0
M  V30 79 H 3.6604 0.144236 2.57196 0
M  V30 80 H 3.6184 -1.57847 2.71904 0
M  V30 81 N 7.3905 -1.2043 1.01659 0
M  V30 82 C 8.3005 -2.2689 0.596484 0
M  V30 83 C 9.3165 -1.70107 -0.36599 0
M  V30 84 O 10.4925 -2.00117 -0.226942 0
M  V30 85 C 7.5575 -3.4665 -0.0586659 0
M  V30 86 C 6.6185 -4.18662 0.949751 0
M  V30 87 C 5.8515 -5.32705 0.32577 0
M  V30 88 O 6.0745 -5.63656 -0.874509 0
M  V30 89 O 5.0085 -5.92803 1.04249 0
M  V30 90 H 8.8345 -2.65041 1.4828 0
M  V30 91 H 6.4195 -1.27048 0.786082 0
M  V30 92 H 8.3015 -4.19256 -0.424564 0
M  V30 93 H 6.9765 -3.10375 -0.91918 0
M  V30 94 H 5.8835 -3.48229 1.36702 0
M  V30 95 H 7.2165 -4.58878 1.78023 0
M  V30 96 N 8.8686 -0.792821 -1.36206 0
M  V30 97 C 9.7986 -0.207853 -2.32573 0
M  V30 98 C 10.7796 0.659055 -1.56813 0
M  V30 99 O 11.9646 0.592176 -1.84951 0
M  V30 100 C 9.0946 0.655449 -3.41059 0
M  V30 101 C 8.0486 -0.111842 -4.27854 0
M  V30 102 C 7.3746 0.872274 -5.27537 0
M  V30 103 C 8.6746 -1.30299 -5.05786 0
M  V30 104 H 10.3686 -1.01294 -2.81744 0
M  V30 105 H 7.9146 -0.48854 -1.3546 0
M  V30 106 H 9.8676 1.07464 -4.07467 0
M  V30 107 H 8.5916 1.49328 -2.90463 0
M  V30 108 H 7.2506 -0.512053 -3.63006 0
M  V30 109 H 6.8986 1.70523 -4.73214 0
M  V30 110 H 6.5986 0.363291 -5.86476 0
M  V30 111 H 8.1226 1.28996 -5.96818 0
M  V30 112 H 9.5366 -0.959379 -5.65216 0
M  V30 113 H 7.9336 -1.7455 -5.74154 0
M  V30 114 H 9.0036 -2.09663 -4.37229 0
M  V30 115 N 10.3467 1.47872 -0.545128 0
M  V30 116 C 11.2937 2.29849 0.2093 0
M  V30 117 C 12.2637 1.38313 0.919707 0
M  V30 118 O 13.4487 1.67277 0.917772 0
M  V30 119 C 10.5887 3.22019 1.24088 0
M  V30 120 C 9.7017 4.2864 0.537778 0
M  V30 121 C 8.8367 5.07973 1.5536 0
M  V30 122 C 7.8757 6.06381 0.8348 0
M  V30 123 N 7.0127 6.78717 1.79688 0
M  V30 124 H 11.8527 2.93845 -0.49591 0
M  V30 125 H 9.3897 1.44848 -0.256389 0
M  V30 126 H 11.3477 3.73868 1.85144 0
M  V30 127 H 9.9777 2.59914 1.91428 0
M  V30 128 H 9.0297 3.7994 -0.187046 0
M  V30 129 H 10.3417 4.98793 -0.0258907 0
M  V30 130 H 9.4957 5.63912 2.23803 0
M  V30 131 H 8.2347 4.37693 2.15118 0
M  V30 132 H 7.2397 5.49631 0.136388 0
M  V30 133 H 8.4647 6.78665 0.24313 0
M  V30 134 H 6.4107 6.11177 2.38326 0
M  V30 135 H 6.3277 7.44998 1.28505 0
M  V30 136 H 7.5957 7.39237 2.47282 0
M  V30 137 N 11.8248 0.280983 1.55075 0
M  V30 138 C 12.7348 -0.61388 2.26426 0
M  V30 139 C 13.7508 -1.16521 1.29224 0
M  V30 140 O 14.9268 -1.19426 1.62171 0
M  V30 141 C 11.9918 -1.7788 2.9759 0
M  V30 142 C 11.0528 -1.26355 4.10284 0
M  V30 143 C 10.2858 -2.37295 4.78045 0
M  V30 144 O 10.5088 -3.56777 4.45047 0
M  V30 145 O 9.4428 -2.05119 5.65871 0
M  V30 146 H 13.2688 -0.0356932 3.03679 0
M  V30 147 H 10.8538 0.0481686 1.49322 0
M  V30 148 H 12.7358 -2.45791 3.42293 0
M  V30 149 H 11.4108 -2.34397 2.23249 0
M  V30 150 H 10.3178 -0.550735 3.70024 0
M  V30 151 H 11.6508 -0.744065 4.86543 0
M  V30 152 N 13.3029 -1.57598 0.00835791 0
M  V30 153 C 14.2499 -2.08945 -0.980346 0
M  V30 154 C 15.2199 -0.986738 -1.33614 0
M  V30 155 O 16.4049 -1.25968 -1.43306 0
M  V30 156 C 13.5449 -2.60425 -2.26435 0
M  V30 157 C 12.6579 -3.84628 -1.96685 0
M  V30 158 C 11.7929 -4.24579 -3.19228 0
M  V30 159 C 10.8319 -5.41596 -2.85202 0
M  V30 160 N 9.9689 -5.768 -4.00307 0
M  V30 161 H 14.8089 -2.93148 -0.535551 0
M  V30 162 H 12.3459 -1.44912 -0.252776 0
M  V30 163 H 14.3039 -2.88354 -3.01509 0
M  V30 164 H 12.9339 -1.79083 -2.68568 0
M  V30 165 H 11.9859 -3.63556 -1.11942 0
M  V30 166 H 13.2979 -4.69796 -1.67611 0
M  V30 167 H 12.4519 -4.53834 -4.02641 0
M  V30 168 H 11.1909 -3.38137 -3.51447 0
M  V30 169 H 10.1959 -5.12056 -2.00198 0
M  V30 170 H 11.4209 -6.29721 -2.54222 0
M  V30 171 H 9.3669 -4.93316 -4.32407 0
M  V30 172 H 9.2839 -6.5656 -3.74786 0
M  V30 173 H 10.5519 -6.10652 -4.84484 0
M  V30 174 N 14.781 0.264519 -1.55364 0
M  V30 175 C 16.029 0.993021 -1.76021 0
M  V30 176 C 16.35 1.86511 -0.569099 0
M  V30 177 O 15.62 1.91438 0.415735 0
M  V30 178 H 14.2 0.369639 -0.649135 0
M  V30 179 H 16.862 0.286707 -1.9278 0
M  V30 180 H 15.958 1.62502 -2.66457 0
M  V30 181 N 16.2591 1.48442 0.529413 0
M  V30 182 C 17.2071 1.63452 1.65487 0
M  V30 183 C 18.2011 0.500955 1.61823 0
M  V30 184 O 19.4071 0.679695 1.66674 0
M  V30 185 H 15.7821 0.514905 0.548066 0
M  V30 186 H 17.7531 2.57975 1.49971 0
M  V30 187 C 16.5021 1.69196 3.03756 0
M  V30 188 H 15.8251 2.55784 3.07269 0
M  V30 189 H 17.2651 1.83743 3.82119 0
M  V30 190 C 15.7241 0.430765 3.34135 0
M  V30 191 O 16.2541 -0.4561 3.99102 0
M  V30 192 N 14.4601 0.302293 2.89023 0
M  V30 193 H 14.0071 1.02496 2.36331 0
M  V30 194 H 13.9651 -0.540546 3.09718 0
M  V30 195 N 17.7372 -0.778329 1.37039 0
M  V30 196 C 18.6842 -1.89139 1.32269 0
M  V30 197 C 19.6542 -1.65017 0.189387 0
M  V30 198 O 20.8392 -1.87024 0.377693 0
M  V30 199 C 17.9792 -3.26112 1.12894 0
M  V30 200 C 17.0922 -3.62233 2.35396 0
M  V30 201 C 16.2272 -4.8838 2.08946 0
M  V30 202 C 15.2662 -5.17212 3.2735 0
M  V30 203 N 14.4032 -6.34546 3.00492 0
M  V30 204 H 19.2432 -1.92552 2.27437 0
M  V30 205 H 16.7802 -0.941473 1.13025 0
M  V30 206 H 18.7382 -4.05116 0.996835 0
M  V30 207 H 17.3682 -3.22091 0.213758 0
M  V30 208 H 16.4202 -2.78265 2.5937 0
M  V30 209 H 17.7322 -3.79481 3.23721 0
M  V30 210 H 16.8862 -5.75274 1.92729 0
M  V30 211 H 15.6252 -4.73222 1.17949 0
M  V30 212 H 14.6302 -4.28796 3.44113 0
M  V30 213 H 15.8552 -5.34283 4.19188 0
M  V30 214 H 13.8012 -6.20759 2.12118 0
M  V30 215 H 13.7182 -6.52179 3.82358 0
M  V30 216 H 14.9862 -7.24394 2.87879 0
M  V30 217 N 19.2153 -1.21501 -1.00376 0
M  V30 218 C 20.1783 -0.976927 -2.07337 0
M  V30 219 C 21.1783 0.0525322 -1.60714 0
M  V30 220 O 22.3683 -0.184869 -1.73216 0
M  V30 221 C 19.5003 -0.473423 -3.37597 0
M  V30 222 H 20.6933 -1.92587 -2.29892 0
M  V30 223 H 18.2463 -1.03217 -1.17371 0
M  V30 224 H 18.9813 0.480379 -3.20722 0
M  V30 225 H 18.7663 -1.216 -3.72768 0
M  V30 226 H 20.2563 -0.32675 -4.1632 0
M  V30 227 N 20.6934 1.19889 -1.02296 0
M  V30 228 C 21.6234 2.25141 -0.619174 0
M  V30 229 C 22.6044 1.66051 0.368915 0
M  V30 230 O 23.7894 1.92546 0.252941 0
M  V30 231 C 20.9194 3.4728 0.0368783 0
M  V30 232 C 19.8734 4.19005 -0.872865 0
M  V30 233 C 19.1994 5.34637 -0.0822402 0
M  V30 234 C 20.4994 4.74452 -2.18387 0
M  V30 235 H 22.1934 2.59171 -1.49903 0
M  V30 236 H 19.7394 1.24579 -0.722222 0
M  V30 237 H 21.6924 4.20098 0.330958 0
M  V30 238 H 20.4164 3.12433 0.95149 0
M  V30 239 H 19.0754 3.48061 -1.15105 0
M  V30 240 H 18.7234 4.96034 0.83422 0
M  V30 241 H 18.4234 5.83557 -0.688149 0
M  V30 242 H 19.9474 6.10255 0.205238 0
M  V30 243 H 21.3614 5.39055 -1.95172 0
M  V30 244 H 19.7584 5.33834 -2.74119 0
M  V30 245 H 20.8284 3.92844 -2.84257 0
M  V30 246 N 22.1715 0.800033 1.35784 0
M  V30 247 C 23.3965 0.388511 2.03729 0
M  V30 248 C 23.8215 -0.990481 1.5991 0
M  V30 249 O 23.1795 -1.64013 0.772612 0
M  V30 250 C 23.2275 0.4726 3.5749 0
M  V30 251 O 22.3315 -0.51646 4.09153 0
M  V30 252 H 21.6725 0.163271 0.643614 0
M  V30 253 H 24.2025 1.0841 1.73518 0
M  V30 254 H 24.2125 0.34003 4.06581 0
M  V30 255 H 22.8875 1.47848 3.88734 0
M  V30 256 H 21.4645 -0.344673 3.71304 0
M  V30 257 N 23.6496 -1.47581 0.552962 0
M  V30 258 C 24.8956 -2.02782 0.0273648 0
M  V30 259 C 25.2286 -1.42687 -1.31734 0
M  V30 260 O 24.5036 -0.580897 -1.85623 0
M  V30 261 C 24.7866 -3.60031 -0.0702371 0
M  V30 262 C 24.6396 -4.30566 1.30126 0
M  V30 263 C 25.9586 -4.33028 -0.785771 0
M  V30 264 H 23.0776 -0.736912 0.0114185 0
M  V30 265 H 25.7196 -1.76056 0.714432 0
M  V30 266 H 23.8696 -3.82932 -0.655382 0
M  V30 267 H 25.5416 -4.19018 1.92929 0
M  V30 268 H 23.7846 -3.91086 1.87709 0
M  V30 269 H 24.4556 -5.39114 1.18573 0
M  V30 270 H 26.9316 -4.15095 -0.288982 0
M  V30 271 H 25.8076 -5.42695 -0.823013 0
M  V30 272 H 26.0686 -4.01945 -1.841 0
M  V30 273 N 25.1277 -0.289203 -1.54924 0
M  V30 274 C 26.3757 0.322879 -1.99504 0
M  V30 275 C 26.6967 1.55313 -1.1791 0
M  V30 276 O 25.9667 1.94001 -0.272097 0
M  V30 277 H 24.5467 0.122291 -0.736922 0
M  V30 278 H 27.2087 -0.397802 -1.90797 0
M  V30 279 H 26.3047 0.603061 -3.06218 0
M  V30 280 N 26.6058 1.57591 -0.0167156 0
M  V30 281 C 27.5538 2.10604 0.987353 0
M  V30 282 C 28.5478 1.02977 1.34507 0
M  V30 283 O 29.7538 1.21425 1.32875 0
M  V30 284 H 26.1288 0.672695 0.336134 0
M  V30 285 H 28.0998 2.93925 0.514817 0
M  V30 286 C 26.8488 2.6382 2.26483 0
M  V30 287 H 26.1718 3.46278 1.99829 0
M  V30 288 H 27.6118 3.04573 2.94977 0
M  V30 289 C 26.0708 1.55992 2.9861 0
M  V30 290 O 26.6008 0.952521 3.90243 0
M  V30 291 N 24.8068 1.28335 2.60727 0
M  V30 292 H 24.3538 1.77914 1.86291 0
M  V30 293 H 24.3118 0.564115 3.09298 0
M  V30 294 N 28.0839 -0.256276 1.55502 0
M  V30 295 C 29.3329 -0.983486 1.76098 0
M  V30 296 C 29.6459 -1.86837 0.578896 0
M  V30 297 O 30.8519 -2.63163 0.667648 0
M  V30 298 C 29.3079 -1.79868 3.1173 0
M  V30 299 C 28.9159 -0.961648 4.37557 0
M  V30 300 C 30.6599 -2.51919 3.41668 0
M  V30 301 C 28.5669 -1.77219 5.64223 0
M  V30 302 H 27.4969 -0.370936 0.656447 0
M  V30 303 H 30.1479 -0.238492 1.81944 0
M  V30 304 H 28.5299 -2.58527 2.99966 0
M  V30 305 H 29.7039 -0.218048 4.60284 0
M  V30 306 H 28.0189 -0.354913 4.14885 0
M  V30 307 H 30.6159 -3.12998 4.33516 0
M  V30 308 H 30.9589 -3.23059 2.62562 0
M  V30 309 H 31.4919 -1.80278 3.54605 0
M  V30 310 H 28.2309 -1.10471 6.46124 0
M  V30 311 H 27.7509 -2.49132 5.45613 0
M  V30 312 H 29.4299 -2.34169 6.03137 0
M  V30 313 N 29.562 -1.4872 -0.521534 0
M  V30 314 C 30.839 -1.4766 -1.2828 0
M  V30 315 C 31.219 -0.19292 -2.10217 0
M  V30 316 O 30.567 0.825193 -2.13079 0
M  V30 317 C 30.777 -2.74358 -2.15705 0
M  V30 318 C 32.125 -3.23028 -2.75569 0
M  V30 319 O 33.149 -2.75333 -2.25987 0
M  V30 320 O 32.008 -4.0604 -3.65778 0
M  V30 321 H 29.102 -0.590085 -0.579421 0
M  V30 322 H 31.648 -1.60963 -0.537492 0
M  V30 323 H 30.42 -3.59292 -1.54999 0
M  V30 324 H 30.043 -2.63816 -2.97467 0
M  V30 325 N 31.0401 0.771051 -1.3745 0
M  V30 326 C 32.3171 1.519 -1.23231 0
M  V30 327 C 32.6971 2.10383 0.173809 0
M  V30 328 O 32.0451 1.95583 1.18151 0
M  V30 329 C 32.2551 2.59933 -2.32886 0
M  V30 330 C 33.6031 3.27316 -2.70461 0
M  V30 331 O 34.6271 2.70228 -2.32068 0
M  V30 332 O 33.4861 4.30531 -3.36608 0
M  V30 333 H 30.5801 0.672803 -0.480901 0
M  V30 334 H 33.1261 0.807957 -1.49232 0
M  V30 335 H 31.8981 2.14842 -3.27045 0
M  V30 336 H 31.5211 3.38637 -2.08353 0
M  V30 337 N 32.5182 1.22032 0.997298 0
M  V30 338 C 33.4812 0.987909 2.06816 0
M  V30 339 C 34.4812 -0.0440084 1.6074 0
M  V30 340 O 35.6712 0.194053 1.73116 0
M  V30 341 C 32.8032 0.49132 3.37341 0
M  V30 342 H 33.9962 1.93803 2.28868 0
M  V30 343 H 31.5492 1.03838 1.16822 0
M  V30 344 H 32.2842 -0.463364 3.20973 0
M  V30 345 H 32.0692 1.23575 3.72118 0
M  V30 346 H 33.5592 0.348824 4.16141 0
M  V30 347 N 33.9963 -1.19345 1.0293 0
M  V30 348 C 34.9263 -2.2481 0.631105 0
M  V30 349 C 35.9073 -1.66245 -0.360104 0
M  V30 350 O 37.0923 -1.92677 -0.242726 0
M  V30 351 C 34.2223 -3.47295 -0.0184607 0
M  V30 352 C 33.1763 -4.18536 0.895073 0
M  V30 353 C 32.5023 -5.34586 0.110592 0
M  V30 354 C 33.8023 -4.73287 2.209 0
M  V30 355 H 35.4963 -2.58372 1.51275 0
M  V30 356 H 33.0423 -1.24194 0.728818 0
M  V30 357 H 34.9953 -4.20268 -0.308675 0
M  V30 358 H 33.7193 -3.12933 -0.934907 0
M  V30 359 H 32.3783 -3.47446 1.16949 0
M  V30 360 H 32.0263 -4.96469 -0.807902 0
M  V30 361 H 31.7263 -5.83183 0.719087 0
M  V30 362 H 33.2503 -6.10355 -0.172871 0
M  V30 363 H 34.6643 -5.38013 1.98028 0
M  V30 364 H 33.0613 -5.32373 2.76946 0
M  V30 365 H 34.1313 -3.91331 2.86336 0
M  V30 366 N 35.4744 -0.807222 -1.35358 0
M  V30 367 C 36.4064 -0.175717 -2.28525 0
M  V30 368 C 37.4194 0.625354 -1.5031 0
M  V30 369 O 38.6084 0.457611 -1.72535 0
M  V30 370 C 35.7084 0.773471 -3.29956 0
M  V30 371 C 34.8814 0.0186296 -4.37396 0
M  V30 372 C 33.9404 0.886395 -5.18681 0
M  V30 373 O 32.9664 0.337106 -5.68201 0
M  V30 374 N 34.1684 2.20839 -5.36852 0
M  V30 375 H 36.9334 -0.976091 -2.83359 0
M  V30 376 H 34.4944 -0.662737 -1.47714 0
M  V30 377 H 36.4864 1.35824 -3.81227 0
M  V30 378 H 35.0564 1.47465 -2.75632 0
M  V30 379 H 34.2764 -0.747349 -3.87051 0
M  V30 380 H 35.5644 -0.501577 -5.06322 0
M  V30 381 H 34.9624 2.67858 -4.98265 0
M  V30 382 H 33.5194 2.74237 -5.91301 0
M  V30 383 N 36.9525 1.47285 -0.560781 0
M  V30 384 C 38.1925 2.0436 -0.0404627 0
M  V30 385 C 38.5565 1.42534 1.28639 0
M  V30 386 O 39.7575 1.90677 1.89462 0
M  V30 387 C 38.0285 3.57369 0.0471856 0
M  V30 388 S 39.5875 4.3579 0.513109 0
M  V30 389 H 36.4055 0.710492 -0.0268674 0
M  V30 390 H 39.0075 1.80611 -0.748323 0
M  V30 391 H 37.7115 3.9989 -0.922817 0
M  V30 392 H 37.2425 3.8562 0.778491 0
M  V30 393 H 39.2575 4.63476 1.77212 0
M  V30 394 N 38.4306 0.297415 1.54768 0
M  V30 395 C 39.6606 -0.315165 2.04182 0
M  V30 396 C 40.0686 -1.4834 1.17439 0
M  V30 397 O 39.4116 -1.82695 0.191891 0
M  V30 398 C 39.4736 -0.837583 3.49607 0
M  V30 399 C 39.1376 0.204912 4.5654 0
M  V30 400 C 40.1346 1.03214 5.09552 0
M  V30 401 C 37.8196 0.345578 5.0111 0
M  V30 402 C 39.8136 1.986 6.05671 0
M  V30 403 C 37.5006 1.30289 5.97049 0
M  V30 404 C 38.4986 2.12159 6.49213 0
M  V30 405 O 38.1866 3.06268 7.43273 0
M  V30 406 H 37.9186 -0.0729646 0.672051 0
M  V30 407 H 40.4726 0.433907 2.00765 0
M  V30 408 H 38.7026 -1.63712 3.50336 0
M  V30 409 H 40.3916 -1.36566 3.82236 0
M  V30 410 H 41.1576 0.934312 4.75916 0
M  V30 411 H 37.0366 -0.28171 4.60138 0
M  V30 412 H 40.5806 2.62542 6.46311 0
M  V30 413 H 36.4776 1.40145 6.30103 0
M  V30 414 H 37.2456 3.01205 7.61064 0
M  V30 415 N 39.9087 -1.5758 0.0250728 0
M  V30 416 C 41.1337 -1.96337 -0.668317 0
M  V30 417 C 41.5587 -0.901314 -1.651 0
M  V30 418 O 40.9167 0.138187 -1.80773 0
M  V30 419 C 40.9647 -3.34191 -1.35457 0
M  V30 420 O 40.0687 -3.30269 -2.46974 0
M  V30 421 H 39.4097 -0.640281 -0.175887 0
M  V30 422 H 41.9397 -2.0442 0.0857224 0
M  V30 423 H 41.9497 -3.70331 -1.71228 0
M  V30 424 H 40.6247 -4.11036 -0.634218 0
M  V30 425 H 39.2017 -3.05841 -2.13344 0
M  V30 426 N 41.3868 0.248026 -1.55636 0
M  V30 427 C 42.2968 1.32859 -1.93354 0
M  V30 428 C 43.3128 1.52719 -0.833838 0
M  V30 429 O 44.4888 1.66363 -1.13513 0
M  V30 430 C 41.5538 2.66337 -2.21958 0
M  V30 431 C 40.6148 2.55008 -3.45354 0
M  V30 432 C 39.8478 3.82121 -3.72584 0
M  V30 433 O 40.0708 4.83951 -3.01907 0
M  V30 434 O 39.0048 3.80822 -4.6611 0
M  V30 435 H 42.8308 1.03862 -2.85388 0
M  V30 436 H 40.4158 0.448686 -1.42503 0
M  V30 437 H 42.2978 3.45216 -2.4167 0
M  V30 438 H 40.9728 2.95068 -1.33103 0
M  V30 439 H 39.8798 1.7442 -3.30951 0
M  V30 440 H 41.2128 2.31222 -4.34508 0
M  V30 441 N 42.8649 1.48995 0.513639 0
M  V30 442 C 43.8279 1.64229 1.59879 0
M  V30 443 C 44.8279 0.514696 1.5234 0
M  V30 444 O 46.0179 0.78087 1.55718 0
M  V30 445 C 43.1499 1.62783 2.99524 0
M  V30 446 H 44.3429 2.61004 1.47705 0
M  V30 447 H 41.8959 1.37837 0.736936 0
M  V30 448 H 42.6309 0.675461 3.17188 0
M  V30 449 H 42.4159 2.4466 3.06404 0
M  V30 450 H 43.9059 1.76669 3.78388 0
M  V30 451 N 44.343 -0.763751 1.37857 0
M  V30 452 C 45.592 -1.51789 1.32827 0
M  V30 453 C 45.905 -1.95426 -0.0823719 0
M  V30 454 O 47.111 -2.70298 -0.255172 0
M  V30 455 C 45.567 -2.74133 2.33193 0
M  V30 456 C 45.175 -2.37562 3.79827 0
M  V30 457 C 46.919 -3.52054 2.37188 0
M  V30 458 C 44.826 -3.56456 4.71904 0
M  V30 459 H 43.756 -0.569896 0.493695 0
M  V30 460 H 46.407 -0.835822 1.63359 0
M  V30 461 H 44.789 -3.4427 1.9569 0
M  V30 462 H 45.963 -1.75157 4.26212 0
M  V30 463 H 44.278 -1.72798 3.78853 0
M  V30 464 H 46.875 -4.40437 3.03182 0
M  V30 465 H 47.218 -3.92486 1.38782 0
M  V30 466 H 47.751 -2.88921 2.7344 0
M  V30 467 H 44.49 -3.21099 5.71468 0
M  V30 468 H 44.01 -4.17938 4.30218 0
M  V30 469 H 45.689 -4.23168 4.89426 0
M  V30 470 N 45.8211 -1.22559 -0.990812 0
M  V30 471 C 46.7681 -0.997519 -2.0813 0
M  V30 472 C 47.7381 0.0814702 -1.659 0
M  V30 473 O 48.9231 -0.0685424 -1.90677 0
M  V30 474 C 46.0631 -0.583615 -3.40129 0
M  V30 475 C 45.1761 -1.7336 -3.9569 0
M  V30 476 C 44.3111 -1.26748 -5.15857 0
M  V30 477 C 43.3501 -2.38888 -5.63559 0
M  V30 478 N 42.4871 -1.93308 -6.74964 0
M  V30 479 H 47.3271 -1.93099 -2.26973 0
M  V30 480 H 44.8641 -0.962114 -1.11273 0
M  V30 481 H 46.8221 -0.324801 -4.15934 0
M  V30 482 H 45.4521 0.312845 -3.2128 0
M  V30 483 H 44.5041 -2.10669 -3.16738 0
M  V30 484 H 45.8161 -2.57704 -4.27071 0
M  V30 485 H 44.9701 -0.966173 -5.98957 0
M  V30 486 H 43.7091 -0.394272 -4.86104 0
M  V30 487 H 42.7141 -2.69805 -4.79046 0
M  V30 488 H 43.9391 -3.26728 -5.95336 0
M  V30 489 H 41.8851 -1.08352 -6.4699 0
M  V30 490 H 41.8021 -2.71217 -7.05675 0
M  V30 491 H 43.0701 -1.66252 -7.61564 0
M  V30 492 N 47.2992 1.18797 -1.03562 0
M  V30 493 C 48.2292 2.24472 -0.643019 0
M  V30 494 C 49.2102 1.66433 0.351283 0
M  V30 495 O 50.3952 1.92803 0.232505 0
M  V30 496 C 47.5252 3.473 4.24935e-05 0
M  V30 497 C 46.4792 4.18055 -0.917257 0
M  V30 498 C 45.8052 5.34519 -0.138941 0
M  V30 499 C 47.1052 4.72109 -2.23407 0
M  V30 500 H 48.7992 2.57566 -1.52643 0
M  V30 501 H 46.3452 1.23806 -0.735394 0
M  V30 502 H 48.2982 4.20426 0.286383 0
M  V30 503 H 47.0222 3.13424 0.918299 0
M  V30 504 H 45.6812 3.46821 -1.1879 0
M  V30 505 H 45.3292 4.96891 0.781562 0
M  V30 506 H 45.0292 5.82794 -0.750005 0
M  V30 507 H 46.5532 6.10438 0.1405 0
M  V30 508 H 47.9672 5.36955 -2.00879 0
M  V30 509 H 46.3642 5.30897 -2.79765 0
M  V30 510 H 47.4342 3.89807 -2.88407 0
M  V30 511 N 48.7773 0.814389 1.34928 0
M  V30 512 C 50.0543 0.321363 1.92942 0
M  V30 513 C 50.4343 -1.19014 1.74353 0
M  V30 514 O 49.7823 -1.99328 1.11716 0
M  V30 515 C 49.9923 0.741323 3.41036 0
M  V30 516 C 51.3403 0.735266 4.18185 0
M  V30 517 O 52.3643 0.68336 3.49584 0
M  V30 518 O 51.2233 0.800703 5.40602 0
M  V30 519 H 48.3173 0.0858893 0.822528 0
M  V30 520 H 50.8633 0.898609 1.43955 0
M  V30 521 H 49.6353 1.78276 3.4833 0
M  V30 522 H 49.2583 0.139307 3.97356 0
M  V30 523 N 50.2554 -1.46986 0.568584 0
M  V30 524 C 51.6664 -1.86188 0.138219 0
M  V30 525 C 52.0174 -1.47388 -1.29504 0
M  V30 526 O 51.1424 -0.88219 -1.97602 0
M  V30 527 C 51.7374 -3.3792 0.244065 0
M  V30 528 C 50.2964 -3.76171 -0.131335 0
M  V30 529 C 49.4434 -2.71027 0.586465 0
M  V30 530 H 52.3944 -1.38342 0.777645 0
M  V30 531 H 52.4154 -3.76729 -0.534351 0
M  V30 532 H 51.9274 -3.66128 1.28731 0
M  V30 533 H 50.0284 -3.5358 -1.17526 0
M  V30 534 H 50.1414 -4.78523 0.235146 0
M  V30 535 H 48.5054 -2.54684 0.0282722 0
M  V30 536 H 49.2884 -3.02077 1.63109 0
M  V30 537 N 51.7335 -0.305618 -1.54608 0
M  V30 538 C 52.6835 0.583595 -2.20405 0
M  V30 539 C 53.6675 1.09539 -1.17856 0
M  V30 540 O 54.8595 1.0354 -1.43557 0
M  V30 541 C 51.9885 1.75277 -2.95183 0
M  V30 542 C 51.0745 1.25672 -4.05052 0
M  V30 543 N 51.4655 0.478998 -5.03527 0
M  V30 544 C 49.7635 1.53704 -4.18678 0
M  V30 545 C 50.4645 0.214269 -5.81305 0
M  V30 546 N 49.4405 0.795374 -5.3775 0
M  V30 547 H 53.2425 -0.0180946 -2.93894 0
M  V30 548 H 50.7565 -0.110601 -1.62023 0
M  V30 549 H 52.7535 2.4014 -3.40791 0
M  V30 550 H 51.4135 2.35812 -2.23211 0
M  V30 551 H 52.4245 0.123473 -5.17753 0
M  V30 552 H 49.1015 2.14954 -3.57912 0
M  V30 553 H 50.4915 -0.410656 -6.70644 0
M  V30 554 N 53.2116 1.57565 -0.0334293 0
M  V30 555 C 54.1596 2.1164 0.96496 0
M  V30 556 C 55.1536 1.04398 1.33407 0
M  V30 557 O 56.3596 1.22828 1.3158 0
M  V30 558 H 52.7346 0.676222 0.32898 0
M  V30 559 H 54.7056 2.94455 0.483614 0
M  V30 560 C 53.4546 2.66207 2.23672 0
M  V30 561 H 52.7776 3.48378 1.96145 0
M  V30 562 H 54.2176 3.07685 2.9173 0
M  V30 563 C 52.6766 1.59151 2.96939 0
M  V30 564 O 53.2066 0.993858 3.89211 0
M  V30 565 N 51.4126 1.31093 2.59351 0
M  V30 566 H 50.9596 1.7988 1.84393 0
M  V30 567 H 50.9176 0.596889 3.08682 0
M  V30 568 N 54.6897 -0.239769 1.55765 0
M  V30 569 C 55.6397 -1.30002 1.87306 0
M  V30 570 C 56.6237 -1.43156 0.73452 0
M  V30 571 O 57.8157 -1.46277 0.99659 0
M  V30 572 C 54.9447 -2.65409 2.17745 0
M  V30 573 C 54.0307 -2.56231 3.37945 0
M  V30 574 N 54.4217 -2.16689 4.57033 0
M  V30 575 C 52.7197 -2.87229 3.41197 0
M  V30 576 C 53.4207 -2.18318 5.39177 0
M  V30 577 N 52.3967 -2.58098 4.78421 0
M  V30 578 H 56.1987 -0.984912 2.76906 0
M  V30 579 H 53.7127 -0.448381 1.56087 0
M  V30 580 H 55.7097 -3.41934 2.38509 0
M  V30 581 H 54.3697 -2.97781 1.29448 0
M  V30 582 H 55.3807 -1.88116 4.82528 0
M  V30 583 H 52.0577 -3.24094 2.63191 0
M  V30 584 H 53.4477 -1.90025 6.44469 0
M  V30 585 N 56.1678 -1.49265 -0.50573 0
M  V30 586 C 57.4138 -1.58748 -1.26202 0
M  V30 587 C 57.7468 -0.271227 -1.92297 0
M  V30 588 O 57.0218 0.724831 -1.80489 0
M  V30 589 C 57.3048 -2.74332 -2.33268 0
M  V30 590 C 57.1578 -4.15737 -1.71705 0
M  V30 591 C 58.4768 -2.85576 -3.34865 0
M  V30 592 H 55.5958 -0.577826 -0.457478 0
M  V30 593 H 58.2378 -1.81532 -0.560897 0
M  V30 594 H 56.3878 -2.55036 -2.93068 0
M  V30 595 H 58.0598 -4.46537 -1.15769 0
M  V30 596 H 56.3028 -4.21605 -1.02135 0
M  V30 597 H 56.9738 -4.92477 -2.49341 0
M  V30 598 H 59.4498 -3.03127 -2.8505 0
M  V30 599 H 58.3258 -3.68135 -4.07146 0
M  V30 600 H 58.5868 -1.94732 -3.96903 0
M  V30 601 N 57.6459 0.756429 -1.3826 0
M  V30 602 C 58.5759 1.88374 -1.37976 0
M  V30 603 C 59.5569 1.68311 -0.246082 0
M  V30 604 O 60.7419 1.88944 -0.44874 0
M  V30 605 C 57.8719 3.25864 -1.20125 0
M  V30 606 C 56.8259 3.60523 -2.30666 0
M  V30 607 C 56.1519 4.9672 -1.97923 0
M  V30 608 C 57.4519 3.65692 -3.72916 0
M  V30 609 H 59.1459 1.88869 -2.32312 0
M  V30 610 H 56.6919 0.907272 -1.11824 0
M  V30 611 H 58.6449 4.0438 -1.18552 0
M  V30 612 H 57.3689 3.25841 -0.222498 0
M  V30 613 H 56.0279 2.84324 -2.3142 0
M  V30 614 H 55.6759 4.93253 -0.985393 0
M  V30 615 H 55.3759 5.20878 -2.71955 0
M  V30 616 H 56.8999 5.77618 -1.97964 0
M  V30 617 H 58.3139 4.34328 -3.74208 0
M  V30 618 H 56.7109 4.01358 -4.4613 0
M  V30 619 H 57.7809 2.65987 -4.05436 0
M  V30 620 N 59.124 1.23083 0.984299 0
M  V30 621 C 60.354 1.08556 1.75781 0
M  V30 622 C 60.762 -0.366171 1.85623 0
M  V30 623 O 60.105 -1.26524 1.33182 0
M  V30 624 C 60.167 1.63208 3.20318 0
M  V30 625 C 59.831 3.11922 3.33997 0
M  V30 626 C 60.828 4.09259 3.2063 0
M  V30 627 C 58.513 3.51552 3.58771 0
M  V30 628 C 60.507 5.4421 3.31835 0
M  V30 629 C 58.194 4.86649 3.69616 0
M  V30 630 C 59.192 5.82787 3.56157 0
M  V30 631 O 58.88 7.15431 3.66626 0
M  V30 632 H 58.612 0.380713 0.5586 0
M  V30 633 H 61.166 1.63321 1.2456 0
M  V30 634 H 59.396 1.0286 3.72769 0
M  V30 635 H 61.085 1.44216 3.79416 0
M  V30 636 H 61.851 3.79984 3.01392 0
M  V30 637 H 57.73 2.77239 3.6832 0
M  V30 638 H 61.274 6.1923 3.21247 0
M  V30 639 H 57.171 5.15601 3.88363 0
M  V30 640 H 57.939 7.23127 3.83445 0
M  V30 641 N 60.6021 -1.18246 1.0419 0
M  V30 642 C 61.8271 -1.92736 0.765996 0
M  V30 643 C 62.2521 -1.75728 -0.67091 0
M  V30 644 O 61.6101 -1.06825 -1.46486 0
M  V30 645 C 61.6581 -3.42148 1.13875 0
M  V30 646 O 60.7621 -4.11548 0.264954 0
M  V30 647 H 60.1031 -0.601238 0.281797 0
M  V30 648 H 62.6331 -1.49942 1.39207 0
M  V30 649 H 62.6431 -3.92858 1.1012 0
M  V30 650 H 61.3181 -3.53848 2.18551 0
M  V30 651 H 59.8951 -3.71137 0.362226 0
M  V30 652 N 62.0802 -0.821533 -1.34494 0
M  V30 653 C 63.0282 -0.230702 -2.31453 0
M  V30 654 C 64.0222 0.627793 -1.57338 0
M  V30 655 O 65.2282 0.519288 -1.72347 0
M  V30 656 H 61.6032 -0.0558577 -0.749923 0
M  V30 657 H 63.5742 -1.06332 -2.78812 0
M  V30 658 C 62.3232 0.59391 -3.4259 0
M  V30 659 H 61.6462 -0.0573588 -3.99759 0
M  V30 660 H 63.0862 0.973446 -4.12674 0
M  V30 661 C 61.5452 1.76568 -2.86924 0
M  V30 662 O 62.0752 2.8638 -2.81691 0
M  V30 663 N 60.2812 1.58198 -2.43766 0
M  V30 664 H 59.8282 0.68872 -2.48222 0
M  V30 665 H 59.7862 2.36752 -2.06871 0
M  V30 666 N 63.5583 1.46682 -0.576371 0
M  V30 667 C 64.9743 1.57822 -0.237562 0
M  V30 668 C 65.1743 1.57237 1.26011 0
M  V30 669 O 64.2303 1.48596 2.04146 0
M  V30 670 C 65.5433 2.87499 -0.881168 0
M  V30 671 C 67.0913 3.01119 -0.85417 0
M  V30 672 C 67.5663 4.33524 -1.4772 0
M  V30 673 N 69.0573 4.40207 -1.44125 0
M  V30 674 C 69.7923 5.4126 -1.89276 0
M  V30 675 N 69.2883 6.49021 -2.42371 0
M  V30 676 N 71.0813 5.32422 -1.80231 0
M  V30 677 H 63.2323 1.45306 -1.54919 0
M  V30 678 H 65.4953 0.692733 -0.647167 0
M  V30 679 H 65.2013 2.9372 -1.93447 0
M  V30 680 H 65.0753 3.75224 -0.385592 0
M  V30 681 H 67.4623 2.94485 0.190491 0
M  V30 682 H 67.5433 2.14887 -1.3877 0
M  V30 683 H 67.1873 4.40916 -2.52103 0
M  V30 684 H 67.1173 5.1852 -0.918947 0
M  V30 685 H 69.6083 3.62931 -1.05307 0
M  V30 686 H 69.9213 7.2233 -2.74698 0
M  V30 687 H 68.2663 6.49858 -2.46393 0
M  V30 688 H 71.4573 4.47137 -1.38514 0
M  V30 689 H 71.6303 6.11034 -2.15735 0
M  V30 690 N 65.0364 0.313813 1.54444 0
M  V30 691 C 66.2614 -0.296681 2.05267 0
M  V30 692 C 66.6864 -1.45757 1.18897 0
M  V30 693 O 66.0444 -1.80239 0.195886 0
M  V30 694 C 66.0924 -0.71831 3.53373 0
M  V30 695 O 65.1964 -1.82175 3.69981 0
M  V30 696 H 64.5374 -0.0554061 0.661684 0
M  V30 697 H 67.0674 0.459387 1.99376 0
M  V30 698 H 67.0774 -1.00364 3.95463 0
M  V30 699 H 65.7524 0.130821 4.15694 0
M  V30 700 H 64.3294 -1.53598 3.39797 0
M  V30 701 N 66.5145 -1.57545 0.0417849 0
M  V30 702 C 67.4775 -2.09885 -0.92093 0
M  V30 703 C 68.4775 -1.01648 -1.24596 0
M  V30 704 O 69.6675 -1.27759 -1.1842 0
M  V30 705 C 66.7995 -2.57527 -2.23367 0
M  V30 706 H 67.9925 -2.96236 -0.467382 0
M  V30 707 H 65.5455 -1.5493 -0.206467 0
M  V30 708 H 66.2805 -1.74542 -2.73323 0
M  V30 709 H 66.0655 -3.36613 -2.01083 0
M  V30 710 H 67.5555 -2.98201 -2.92346 0
M  V30 711 N 67.9926 0.231505 -1.5589 0
M  V30 712 C 68.9556 1.27028 -1.90779 0
M  V30 713 C 69.9556 1.40308 -0.785507 0
M  V30 714 O 71.1456 1.38744 -1.05336 0
M  V30 715 C 68.2776 2.64566 -2.14983 0
M  V30 716 H 69.4706 0.973017 -2.83677 0
M  V30 717 H 67.0236 0.471486 -1.49019 0
M  V30 718 H 67.7586 2.99406 -1.24604 0
M  V30 719 H 67.5436 2.56305 -2.96732 0
M  V30 720 H 69.0336 3.39543 -2.43105 0
M  V30 721 N 69.4707 1.49531 0.497807 0
M  V30 722 C 70.7007 1.62657 1.27382 0
M  V30 723 C 71.1087 0.298488 1.86831 0
M  V30 724 O 70.4517 -0.72647 1.68725 0
M  V30 725 C 70.5137 2.6393 2.44093 0
M  V30 726 C 70.1777 4.08195 2.05489 0
M  V30 727 C 71.1747 4.949 1.59279 0
M  V30 728 C 68.8597 4.53948 2.15026 0
M  V30 729 C 70.8537 6.25397 1.23113 0
M  V30 730 C 68.5407 5.84458 1.78473 0
M  V30 731 C 69.5387 6.70006 1.32591 0
M  V30 732 O 69.2267 7.98083 0.965327 0
M  V30 733 H 68.9587 0.550429 0.392434 0
M  V30 734 H 71.5127 1.96325 0.603801 0
M  V30 735 H 69.7427 2.25449 3.14181 0
M  V30 736 H 71.4317 2.66552 3.06113 0
M  V30 737 H 72.1977 4.60779 1.51354 0
M  V30 738 H 68.0767 3.87525 2.4969 0
M  V30 739 H 71.6207 6.92125 0.872299 0
M  V30 740 H 67.5177 6.18107 1.86048 0
M  V30 741 H 68.2857 8.11122 1.09652 0
M  V30 742 N 70.9488 -0.749086 1.3866 0
M  V30 743 C 71.9118 -1.84457 1.36045 0
M  V30 744 C 72.9118 -1.58682 0.260122 0
M  V30 745 O 74.1018 -1.66343 0.517261 0
M  V30 746 C 71.2338 -3.22008 1.11911 0
M  V30 747 H 72.4268 -1.88182 2.33512 0
M  V30 748 H 69.9798 -0.951266 1.24019 0
M  V30 749 H 70.7148 -3.2395 0.150686 0
M  V30 750 H 70.4998 -3.42111 1.91579 0
M  V30 751 H 71.9898 -4.0208 1.12788 0
M  V30 752 N 72.4269 -1.23603 -0.977757 0
M  V30 753 C 73.3739 -1.01954 -2.07061 0
M  V30 754 C 74.3439 0.0638697 -1.65977 0
M  V30 755 O 75.5289 -0.0887624 -1.90593 0
M  V30 756 C 72.6689 -0.619658 -3.39491 0
M  V30 757 C 71.7819 -1.77547 -3.93829 0
M  V30 758 C 70.9169 -1.32212 -5.14484 0
M  V30 759 C 69.9559 -2.44852 -5.60994 0
M  V30 760 N 69.0929 -2.00456 -6.72876 0
M  V30 761 H 73.9329 -1.95495 -2.24913 0
M  V30 762 H 71.4699 -0.973861 -1.10247 0
M  V30 763 H 73.4279 -0.368898 -4.15566 0
M  V30 764 H 72.0579 0.278752 -3.21594 0
M  V30 765 H 71.1099 -2.14016 -3.14486 0
M  V30 766 H 72.4219 -2.62219 -4.24314 0
M  V30 767 H 71.5759 -1.02965 -5.97899 0
M  V30 768 H 70.3149 -0.445808 -4.85658 0
M  V30 769 H 69.3199 -2.74871 -4.76157 0
M  V30 770 H 70.5449 -3.33024 -5.91837 0
M  V30 771 H 68.4909 -1.15208 -6.45804 0
M  V30 772 H 68.4079 -2.78687 -7.02759 0
M  V30 773 H 69.6759 -1.7432 -7.59758 0
M  V30 774 N 73.905 1.17692 -1.04816 0
M  V30 775 C 74.852 2.21581 -0.645797 0
M  V30 776 C 75.822 1.62367 0.350159 0
M  V30 777 O 77.007 1.89254 0.242433 0
M  V30 778 C 74.147 3.45092 -0.0227568 0
M  V30 779 C 73.26 4.18613 -1.06709 0
M  V30 780 C 72.395 5.29602 -0.411767 0
M  V30 781 C 71.434 5.94904 -1.44067 0
M  V30 782 N 70.571 6.97414 -0.809781 0
M  V30 783 H 75.411 2.55353 -1.5362 0
M  V30 784 H 72.948 1.25438 -0.768364 0
M  V30 785 H 74.906 4.15679 0.35588 0
M  V30 786 H 73.536 3.11917 0.831122 0
M  V30 787 H 72.588 3.46779 -1.5636 0
M  V30 788 H 73.9 4.63293 -1.84827 0
M  V30 789 H 73.054 6.06696 0.0206623 0
M  V30 790 H 71.793 4.86045 0.401438 0
M  V30 791 H 70.798 5.16544 -1.88316 0
M  V30 792 H 72.023 6.40542 -2.25571 0
M  V30 793 H 69.969 6.55998 -0.0170186 0
M  V30 794 H 69.886 7.40386 -1.52856 0
M  V30 795 H 71.154 7.78463 -0.401999 0
M  V30 796 N 75.3831 0.828654 1.34056 0
M  V30 797 C 76.6311 0.41863 1.97717 0
M  V30 798 C 76.9521 -1.02314 1.66002 0
M  V30 799 O 76.2221 -1.71119 0.953683 0
M  V30 800 H 74.8021 0.151809 0.731412 0
M  V30 801 H 77.4641 1.05936 1.63596 0
M  V30 802 H 76.5601 0.542318 3.07352 0
M  V30 803 N 76.8612 -1.46375 0.584142 0
M  V30 804 C 78.1382 -1.956 0.0033388 0
M  V30 805 C 78.5182 -1.52679 -1.45782 0
M  V30 806 O 77.8662 -0.77816 -2.14842 0
M  V30 807 C 78.0762 -3.48551 0.176891 0
M  V30 808 C 79.4242 -4.24576 0.0454609 0
M  V30 809 O 80.4482 -3.56043 0.105801 0
M  V30 810 O 79.3072 -5.46427 -0.0890376 0
M  V30 811 H 76.4012 -0.825547 -0.0490066 0
M  V30 812 H 78.9472 -1.56652 0.65256 0
M  V30 813 H 77.7192 -3.72683 1.1926 0
M  V30 814 H 77.3422 -3.94332 -0.508695 0
M  V30 815 N 78.3393 -0.321999 -1.54275 0
M  V30 816 C 79.5693 0.282642 -2.04658 0
M  V30 817 C 79.9773 1.46453 -1.19784 0
M  V30 818 O 79.3203 1.82367 -0.220932 0
M  V30 819 C 79.3823 0.781857 -3.50895 0
M  V30 820 C 79.0463 -0.277517 -4.56157 0
M  V30 821 C 80.0433 -1.11307 -5.07845 0
M  V30 822 C 77.7283 -0.425256 -5.00497 0
M  V30 823 C 79.7223 -2.08211 -6.02434 0
M  V30 824 C 77.4093 -1.39771 -5.94901 0
M  V30 825 C 78.4073 -2.2246 -6.45756 0
M  V30 826 O 78.0953 -3.18054 -7.38307 0
M  V30 827 H 77.8273 0.0622636 -0.673126 0
M  V30 828 H 80.3813 -0.465792 -2.00049 0
M  V30 829 H 78.6113 1.58118 -3.52896 0
M  V30 830 H 80.3003 1.30467 -3.84361 0
M  V30 831 H 81.0663 -1.00991 -4.74369 0
M  V30 832 H 76.9453 0.20847 -4.60528 0
M  V30 833 H 80.4893 -2.72791 -6.42052 0
M  V30 834 H 76.3863 -1.50152 -6.27794 0
M  V30 835 H 77.1543 -3.13275 -7.56175 0
M  V30 836 N 79.8174 1.5752 -0.0501392 0
M  V30 837 C 80.7494 2.08413 0.95376 0
M  V30 838 C 81.7624 1.01175 1.27544 0
M  V30 839 O 82.9514 1.28744 1.23641 0
M  V30 840 C 80.0514 2.51138 2.27559 0
M  V30 841 C 79.2244 3.817 2.13598 0
M  V30 842 C 78.2834 4.10749 3.28895 0
M  V30 843 O 77.3094 4.80685 3.04845 0
M  V30 844 N 78.5114 3.62579 4.5334 0
M  V30 845 H 81.2764 2.95165 0.519383 0
M  V30 846 H 78.8374 1.61327 0.136127 0
M  V30 847 H 80.8294 2.67648 3.03557 0
M  V30 848 H 79.3994 1.6964 2.62567 0
M  V30 849 H 78.6194 3.74782 1.22197 0
M  V30 850 H 79.9074 4.67201 2.01496 0
M  V30 851 H 79.3054 3.06039 4.75769 0
M  V30 852 H 77.8624 3.84329 5.26436 0
M  V30 853 N 81.2955 -0.223234 1.56011 0
M  V30 854 C 82.2425 -1.27664 1.92277 0
M  V30 855 C 83.2125 -1.46659 0.779763 0
M  V30 856 O 84.3975 -1.60256 1.03551 0
M  V30 857 C 81.5375 -2.62234 2.24338 0
M  V30 858 C 80.6505 -2.51051 3.51564 0
M  V30 859 C 79.7855 -3.78133 3.7308 0
M  V30 860 C 78.8245 -3.61665 4.93827 0
M  V30 861 N 77.9615 -4.80693 5.11741 0
M  V30 862 H 82.8015 -0.960358 2.82101 0
M  V30 863 H 80.3385 -0.462901 1.39627 0
M  V30 864 H 82.2965 -3.40596 2.40936 0
M  V30 865 H 80.9265 -2.91961 1.3769 0
M  V30 866 H 79.9785 -1.64132 3.43169 0
M  V30 867 H 81.2905 -2.34803 4.40079 0
M  V30 868 H 80.4445 -4.64938 3.89766 0
M  V30 869 H 79.1835 -3.97304 2.82844 0
M  V30 870 H 78.1885 -2.73244 4.77093 0
M  V30 871 H 79.4135 -3.43966 5.85546 0
M  V30 872 H 77.3595 -5.00181 4.24446 0
M  V30 873 H 77.2765 -4.67165 5.94384 0
M  V30 874 H 78.5445 -5.6893 5.3286 0
M  V30 875 N 82.7736 -1.49793 -0.48987 0
M  V30 876 C 83.7366 -1.66752 -1.57246 0
M  V30 877 C 84.7366 -0.538867 -1.51502 0
M  V30 878 O 85.9266 -0.805545 -1.54456 0
M  V30 879 C 83.0586 -1.67528 -2.96896 0
M  V30 880 H 84.2516 -2.63321 -1.43534 0
M  V30 881 H 81.8046 -1.38992 -0.714914 0
M  V30 882 H 82.5396 -0.725837 -3.16073 0
M  V30 883 H 82.3246 -2.49504 -3.02473 0
M  V30 884 H 83.8146 -1.82667 -3.7553 0
M  V30 885 N 84.2517 0.741722 -1.39055 0
M  V30 886 C 85.4817 1.52876 -1.3897 0
M  V30 887 C 85.8897 1.8919 0.0193266 0
M  V30 888 O 85.2327 1.54138 0.999356 0
M  V30 889 C 85.2947 2.84929 -2.19216 0
M  V30 890 C 84.9587 2.71086 -3.67915 0
M  V30 891 C 85.9557 2.40084 -4.61146 0
M  V30 892 C 83.6407 2.88168 -4.11418 0
M  V30 893 C 85.6347 2.26335 -5.95862 0
M  V30 894 C 83.3217 2.74037 -5.46211 0
M  V30 895 C 84.3197 2.43166 -6.38247 0
M  V30 896 O 84.0077 2.29115 -7.70559 0
M  V30 897 H 83.7397 0.479252 -0.476753 0
M  V30 898 H 86.2937 0.924751 -1.83405 0
M  V30 899 H 84.5237 3.47564 -1.69518 0
M  V30 900 H 86.2127 3.46509 -2.11392 0
M  V30 901 H 86.9787 2.26545 -4.28838 0
M  V30 902 H 82.8577 3.11191 -3.40119 0
M  V30 903 H 86.4017 2.0216 -6.67665 0
M  V30 904 H 82.2987 2.87153 -5.78112 0
M  V30 905 H 83.0667 2.44237 -7.81211 0
M  V30 906 N 85.7298 1.2412 0.971189 0
M  V30 907 C 86.6398 1.04747 2.09917 0
M  V30 908 C 87.6558 -0.0107162 1.73997 0
M  V30 909 O 88.8318 0.186714 2.00533 0
M  V30 910 C 85.8968 0.650828 3.40537 0
M  V30 911 C 84.9578 1.7851 3.90426 0
M  V30 912 C 84.1908 1.40729 5.14812 0
M  V30 913 O 84.4138 0.29557 5.69634 0
M  V30 914 O 83.3478 2.23168 5.58999 0
M  V30 915 H 87.1738 1.99304 2.29154 0
M  V30 916 H 84.7588 1.02908 1.08307 0
M  V30 917 H 86.6408 0.440992 4.19086 0
M  V30 918 H 85.3158 -0.265649 3.22608 0
M  V30 919 H 84.2228 2.04966 3.12953 0
M  V30 920 H 85.5558 2.68023 4.12825 0
M  V30 921 N 87.2079 -1.17134 1.05439 0
M  V30 922 C 88.4849 -1.83411 0.679699 0
M  V30 923 C 88.8649 -1.9368 -0.839726 0
M  V30 924 O 88.2129 -1.47325 -1.74664 0
M  V30 925 C 88.4229 -3.20918 1.37159 0
M  V30 926 C 89.7709 -3.96796 1.51123 0
M  V30 927 O 90.7949 -3.30406 1.3308 0
M  V30 928 O 89.6539 -5.15778 1.80651 0
M  V30 929 H 86.7479 -0.79154 0.239569 0
M  V30 930 H 89.2939 -1.24411 1.15413 0
M  V30 931 H 88.0659 -3.08428 2.40807 0
M  V30 932 H 87.6889 -3.87587 0.886674 0
M  V30 933 N 88.686 -0.835752 -1.33615 0
M  V30 934 C 89.934 -0.429109 -1.97492 0
M  V30 935 C 90.255 1.01433 -1.66543 0
M  V30 936 O 89.525 1.70611 -0.962744 0
M  V30 937 H 88.105 -0.155686 -0.730596 0
M  V30 938 H 90.767 -1.06802 -1.63031 0
M  V30 939 H 89.863 -0.55861 -3.0706 0
M  V30 940 N 90.1641 1.46063 -0.591896 0
M  V30 941 C 91.4041 2.04228 -0.0838014 0
M  V30 942 C 91.7681 1.45231 1.25587 0
M  V30 943 O 92.9691 1.94653 1.85375 0
M  V30 944 C 91.2401 3.57389 -0.0286282 0
M  V30 945 S 92.7991 4.3678 0.420557 0
M  V30 946 H 89.6171 0.709762 -0.0419319 0
M  V30 947 H 92.2191 1.78983 -0.786465 0
M  V30 948 H 90.9231 3.97843 -1.00743 0
M  V30 949 H 90.4541 3.87185 0.69652 0
M  V30 950 H 92.4691 4.67131 1.67341 0
M  V30 951 N 91.6422 0.330177 1.54103 0
M  V30 952 C 92.5892 -0.532762 2.24567 0
M  V30 953 C 93.5592 -1.10635 1.23892 0
M  V30 954 O 94.7442 -1.14546 1.5259 0
M  V30 955 C 91.8842 -1.6845 3.01195 0
M  V30 956 C 90.9972 -1.13951 4.167 0
M  V30 957 C 90.1322 -2.25746 4.80845 0
M  V30 958 C 89.1712 -1.6853 5.88442 0
M  V30 959 N 88.3082 -2.74014 6.46421 0
M  V30 960 H 93.1482 0.0746905 2.97906 0
M  V30 961 H 90.6852 0.048632 1.4702 0
M  V30 962 H 92.6432 -2.36234 3.43874 0
M  V30 963 H 91.2732 -2.26314 2.30178 0
M  V30 964 H 90.3252 -0.35301 3.78758 0
M  V30 965 H 91.6372 -0.680892 4.94131 0
M  V30 966 H 90.7912 -3.01422 5.26526 0
M  V30 967 H 89.5302 -2.74947 4.0281 0
M  V30 968 H 88.5352 -0.913543 5.42157 0
M  V30 969 H 89.7602 -1.20198 6.68378 0
M  V30 970 H 87.7062 -3.22494 5.71256 0
M  V30 971 H 87.6232 -2.32735 7.19285 0
M  V30 972 H 88.8912 -3.49499 6.96757 0
M  V30 973 N 93.1203 -1.57491 0.0584922 0
M  V30 974 C 94.3483 -1.97296 -0.623037 0
M  V30 975 C 94.7633 -0.936338 -1.63946 0
M  V30 976 O 94.1203 0.0785981 -1.82331 0
M  V30 977 C 94.1713 -3.37183 -1.30345 0
M  V30 978 O 93.8923 -4.36872 -0.32773 0
M  V30 979 C 95.3933 -3.91788 -2.07406 0
M  V30 980 H 92.6133 -0.649153 -0.169826 0
M  V30 981 H 95.1573 -2.04106 0.12696 0
M  V30 982 H 93.3123 -3.31502 -2.00463 0
M  V30 983 H 93.7263 -5.18141 -0.814269 0
M  V30 984 H 95.2003 -4.91926 -2.50425 0
M  V30 985 H 95.6773 -3.27609 -2.92521 0
M  V30 986 H 96.2833 -4.00829 -1.42184 0
M  V30 987 N 94.5984 0.214957 -1.56127 0
M  V30 988 C 95.8444 0.939762 -1.79712 0
M  V30 989 C 96.1774 1.83723 -0.629247 0
M  V30 990 O 95.4524 1.90925 0.371197 0
M  V30 991 C 95.7354 1.77306 -3.13424 0
M  V30 992 C 95.5884 0.90164 -4.40671 0
M  V30 993 C 96.9074 2.74956 -3.43638 0
M  V30 994 H 94.0264 0.340214 -0.653776 0
M  V30 995 H 96.6684 0.20824 -1.88855 0
M  V30 996 H 94.8184 2.39673 -3.0576 0
M  V30 997 H 96.4904 0.294206 -4.60361 0
M  V30 998 H 94.7334 0.207368 -4.33304 0
M  V30 999 H 95.4044 1.51923 -5.30682 0
M  V30 1000 H 97.8804 2.22724 -3.51473 0
M  V30 1001 H 96.7564 3.30358 -4.38355 0
M  V30 1002 H 97.0174 3.53023 -2.66134 0
M  V30 1003 N 96.0765 1.50051 0.48192 0
M  V30 1004 C 97.3535 1.51009 1.2432 0
M  V30 1005 C 97.7335 0.248587 2.09631 0
M  V30 1006 O 97.0815 -0.768409 2.15192 0
M  V30 1007 C 97.2915 2.79981 2.08355 0
M  V30 1008 C 98.6395 3.3022 2.66908 0
M  V30 1009 O 99.6635 2.81228 2.18607 0
M  V30 1010 O 98.5225 4.15595 3.54884 0
M  V30 1011 H 95.6165 0.605239 0.563573 0
M  V30 1012 H 98.1625 1.62332 0.494627 0
M  V30 1013 H 96.9345 3.63275 1.45419 0
M  V30 1014 H 96.5575 2.7161 2.90368 0
M  V30 1015 N 97.5546 -0.734337 1.39446 0
M  V30 1016 C 98.4846 -1.86155 1.40955 0
M  V30 1017 C 99.4656 -1.67898 0.272827 0
M  V30 1018 O 100.651 -1.88207 0.478743 0
M  V30 1019 C 97.7806 -3.23912 1.25294 0
M  V30 1020 C 96.7346 -3.56808 2.36373 0
M  V30 1021 C 96.0606 -4.93508 2.058 0
M  V30 1022 C 97.3606 -3.59713 3.78687 0
M  V30 1023 H 99.0546 -1.8515 2.35287 0
M  V30 1024 H 96.6006 -0.889367 1.13253 0
M  V30 1025 H 98.5536 -4.02443 1.2497 0
M  V30 1026 H 97.2776 -3.25446 0.274308 0
M  V30 1027 H 95.9366 -2.80606 2.35914 0
M  V30 1028 H 95.5846 -4.91623 1.06374 0
M  V30 1029 H 95.2846 -5.16486 2.80208 0
M  V30 1030 H 96.8086 -5.74396 2.07128 0
M  V30 1031 H 98.2226 -4.2832 3.81071 0
M  V30 1032 H 96.6196 -3.94209 4.52459 0
M  V30 1033 H 97.6896 -2.59504 4.09617 0
M  V30 1034 N 99.0327 -1.24633 -0.964593 0
M  V30 1035 C 99.9797 -1.04144 -2.05968 0
M  V30 1036 C 100.95 0.046262 -1.66036 0
M  V30 1037 O 102.135 -0.108972 -1.90489 0
M  V30 1038 C 99.2747 -0.65563 -3.38815 0
M  V30 1039 C 98.3877 -1.81714 -3.91923 0
M  V30 1040 C 97.5227 -1.37662 -5.13052 0
M  V30 1041 C 96.5617 -2.50788 -5.58365 0
M  V30 1042 N 95.6987 -2.07582 -6.70712 0
M  V30 1043 H 100.539 -1.9787 -2.22827 0
M  V30 1044 H 98.0757 -0.9855 -1.09208 0
M  V30 1045 H 100.034 -0.412954 -4.15151 0
M  V30 1046 H 98.6637 0.244627 -3.21872 0
M  V30 1047 H 97.7157 -2.1734 -3.12198 0
M  V30 1048 H 99.0277 -2.66705 -4.21509 0
M  V30 1049 H 98.1817 -1.093 -5.96773 0
M  V30 1050 H 96.9207 -0.497293 -4.85158 0
M  V30 1051 H 95.9257 -2.79906 -4.73215 0
M  V30 1052 H 97.1507 -3.39283 -5.88272 0
M  V30 1053 H 95.0967 -1.22051 -6.44546 0
M  V30 1054 H 95.0137 -2.86125 -6.99763 0
M  V30 1055 H 96.2817 -1.82369 -7.57867 0
M  V30 1056 N 100.511 1.16574 -1.06058 0
M  V30 1057 C 101.922 1.68662 -0.800632 0
M  V30 1058 C 102.273 1.84184 0.67608 0
M  V30 1059 O 101.398 1.53568 1.52466 0
M  V30 1060 C 101.993 3.06356 -1.44676 0
M  V30 1061 C 100.552 3.55575 -1.23465 0
M  V30 1062 C 99.6988 2.31616 -1.52477 0
M  V30 1063 H 102.65 1.00969 -1.22438 0
M  V30 1064 H 102.671 3.70636 -0.860788 0
M  V30 1065 H 102.183 2.95027 -2.52152 0
M  V30 1066 H 100.284 3.72167 -0.179527 0
M  V30 1067 H 100.397 4.37812 -1.94571 0
M  V30 1068 H 98.7608 2.36512 -0.945209 0
M  V30 1069 H 99.5438 2.22887 -2.61106 0
M  V30 1070 N 101.989 0.842826 1.3317 0
M  V30 1071 C 103.266 0.362216 1.92217 0
M  V30 1072 C 103.646 -1.15289 1.76838 0
M  V30 1073 O 102.994 -1.96914 1.15919 0
M  V30 1074 C 103.204 0.813495 3.39387 0
M  V30 1075 C 104.552 0.823804 4.16532 0
M  V30 1076 O 105.576 0.757358 3.48055 0
M  V30 1077 O 104.435 0.915193 5.38782 0
M  V30 1078 H 101.529 0.103317 0.820521 0
M  V30 1079 H 104.075 0.928942 1.42017 0
M  V30 1080 H 102.847 1.85624 3.4447 0
M  V30 1081 H 102.47 0.223561 3.96971 0
M  V30 1082 N 103.467 -1.45747 0.599634 0
M  V30 1083 C 104.713 -2.03153 0.100263 0
M  V30 1084 C 105.068 -1.46073 -1.25221 0
M  V30 1085 O 104.361 -0.622878 -1.81193 0
M  V30 1086 C 104.555 -3.57399 -0.00602758 0
M  V30 1087 C 104.384 -4.2944 1.3346 0
M  V30 1088 C 103.154 -4.6768 1.91321 0
M  V30 1089 C 105.352 -4.61905 2.2616 0
M  V30 1090 N 103.334 -5.24544 3.18946 0
M  V30 1091 C 104.705 -5.19518 3.3838 0
M  V30 1092 C 106.76 -4.43841 2.25631 0
M  V30 1093 C 105.463 -5.60972 4.50226 0
M  V30 1094 C 107.489 -4.86322 3.36518 0
M  V30 1095 C 106.851 -5.44021 4.4746 0
M  V30 1096 H 102.95 -0.777911 0.0798696 0
M  V30 1097 H 105.534 -1.77674 0.796244 0
M  V30 1098 H 103.705 -3.82556 -0.671212 0
M  V30 1099 H 105.437 -4.01457 -0.51133 0
M  V30 1100 H 102.192 -4.5098 1.44617 0
M  V30 1101 H 102.616 -5.57483 3.84112 0
M  V30 1102 H 107.258 -3.98552 1.41123 0
M  V30 1103 H 104.976 -6.0523 5.35464 0
M  V30 1104 H 108.562 -4.74084 3.37247 0
M  V30 1105 H 107.442 -5.76289 5.31846 0
M  V30 1106 N 104.945 -0.338344 -1.53925 0
M  V30 1107 C 106.193 0.259245 -2.0043 0
M  V30 1108 C 106.514 1.51484 -1.22791 0
M  V30 1109 O 105.784 1.93037 -0.33368 0
M  V30 1110 H 104.364 0.0987845 -0.740439 0
M  V30 1111 H 107.026 -0.458302 -1.89435 0
M  V30 1112 H 106.122 0.505334 -3.07982 0
M  V30 1113 N 106.423 1.57458 -0.0668435 0
M  V30 1114 C 107.37 2.12439 0.902122 0
M  V30 1115 C 108.34 1.03565 1.2986 0
M  V30 1116 O 109.525 1.312 1.38532 0
M  V30 1117 C 106.665 2.6865 2.16614 0
M  V30 1118 C 105.778 3.91663 1.82274 0
M  V30 1119 C 104.913 4.36134 3.0325 0
M  V30 1120 C 103.952 5.51808 2.64904 0
M  V30 1121 N 103.089 5.9126 3.78624 0
M  V30 1122 H 107.929 2.94934 0.426382 0
M  V30 1123 H 105.466 1.4575 0.198819 0
M  V30 1124 H 107.424 2.99346 2.90599 0
M  V30 1125 H 106.054 1.88928 2.61737 0
M  V30 1126 H 105.106 3.6746 0.983719 0
M  V30 1127 H 106.418 4.75693 1.50059 0
M  V30 1128 H 105.572 4.68465 3.85519 0
M  V30 1129 H 104.311 3.50948 3.38655 0
M  V30 1130 H 103.316 5.19133 1.81055 0
M  V30 1131 H 104.541 6.38722 2.30675 0
M  V30 1132 H 102.487 5.09024 4.138 0
M  V30 1133 H 102.404 6.70018 3.5016 0
M  V30 1134 H 103.672 6.28212 4.61486 0
M  V30 1135 N 107.901 -0.206675 1.56239 0
M  V30 1136 C 109.149 -0.927007 1.79586 0
M  V30 1137 C 109.47 -1.8427 0.637929 0
M  V30 1138 O 108.74 -1.92849 -0.344398 0
M  V30 1139 H 107.32 -0.345292 0.662407 0
M  V30 1140 H 109.982 -0.21496 1.93711 0
M  V30 1141 H 109.078 -1.52501 2.72305 0
M  V30 1142 N 109.379 -1.50304 -0.473955 0
M  V30 1143 C 110.609 -1.64663 -1.24778 0
M  V30 1144 C 111.017 -0.328174 -1.86332 0
M  V30 1145 O 110.36 0.699536 -1.69859 0
M  V30 1146 C 110.422 -2.6778 -2.39863 0
M  V30 1147 C 110.086 -4.11413 -1.98969 0
M  V30 1148 C 111.083 -4.97372 -1.51385 0
M  V30 1149 C 108.768 -4.57312 -2.07777 0
M  V30 1150 C 110.762 -6.27277 -1.13148 0
M  V30 1151 C 108.449 -5.87223 -1.69152 0
M  V30 1152 C 109.447 -6.72031 -1.21915 0
M  V30 1153 O 109.135 -7.99518 -0.838237 0
M  V30 1154 H 108.867 -0.556602 -0.383627 0
M  V30 1155 H 111.421 -1.9726 -0.572491 0
M  V30 1156 H 109.651 -2.30419 -3.10554 0
M  V30 1157 H 111.34 -2.71388 -3.01833 0
M  V30 1158 H 112.106 -4.63128 -1.44004 0
M  V30 1159 H 107.985 -3.91449 -2.43493 0
M  V30 1160 H 111.529 -6.93425 -0.762077 0
M  V30 1161 H 107.426 -6.20989 -1.76191 0
M  V30 1162 H 108.194 -8.12764 -0.967339 0
M  V30 1163 N 110.857 0.726932 -1.39834 0
M  V30 1164 C 112.082 1.52121 -1.40976 0
M  V30 1165 C 112.507 1.88098 -0.00826029 0
M  V30 1166 O 111.865 1.52479 0.980807 0
M  V30 1167 C 111.913 2.78021 -2.29644 0
M  V30 1168 O 111.017 3.74272 -1.73188 0
M  V30 1169 H 110.358 0.45908 -0.479731 0
M  V30 1170 H 112.888 0.896207 -1.83927 0
M  V30 1171 H 112.898 3.26671 -2.44438 0
M  V30 1172 H 111.573 2.51169 -3.31492 0
M  V30 1173 H 110.15 3.33073 -1.6768 0
M  V30 1174 N 112.336 1.25143 0.95797 0
M  V30 1175 C 113.752 1.01892 1.22842 0
M  V30 1176 C 113.952 -0.266311 1.99732 0
M  V30 1177 O 113.008 -0.979913 2.3271 0
M  V30 1178 C 114.321 2.24004 2.00606 0
M  V30 1179 C 115.869 2.28731 2.13662 0
M  V30 1180 C 116.344 3.5049 2.94823 0
M  V30 1181 N 117.835 3.50866 3.02403 0
M  V30 1182 C 118.57 4.4174 3.65586 0
M  V30 1183 N 118.066 5.42882 4.30408 0
M  V30 1184 N 119.859 4.29429 3.62694 0
M  V30 1185 H 112.01 2.07718 0.443493 0
M  V30 1186 H 114.273 0.912031 0.258657 0
M  V30 1187 H 113.979 3.17395 1.51503 0
M  V30 1188 H 113.853 2.26907 3.01319 0
M  V30 1189 H 116.24 1.35865 2.61963 0
M  V30 1190 H 116.321 2.29848 1.12265 0
M  V30 1191 H 115.965 4.43676 2.47213 0
M  V30 1192 H 115.895 3.46617 3.96439 0
M  V30 1193 H 118.386 2.777 2.56302 0
M  V30 1194 H 118.699 6.0844 4.76467 0
M  V30 1195 H 117.044 5.46758 4.29047 0
M  V30 1196 H 120.235 3.49643 3.11236 0
M  V30 1197 H 120.408 5.00448 4.1165 0
M  V30 1198 N 113.814 -1.1601 1.06675 0
M  V30 1199 C 114.761 -2.20525 0.680967 0
M  V30 1200 C 115.731 -1.62904 -0.324283 0
M  V30 1201 O 116.916 -1.89615 -0.212294 0
M  V30 1202 C 114.056 -3.45013 0.0776551 0
M  V30 1203 C 113.169 -4.16863 1.13355 0
M  V30 1204 C 112.304 -5.2888 0.49597 0
M  V30 1205 C 111.343 -5.92537 1.53513 0
M  V30 1206 N 110.48 -6.96038 0.920631 0
M  V30 1207 H 115.32 -2.52876 1.57663 0
M  V30 1208 H 112.857 -1.24199 0.788223 0
M  V30 1209 H 114.815 -4.16193 -0.289704 0
M  V30 1210 H 113.445 -3.132 -0.781393 0
M  V30 1211 H 112.497 -3.44248 1.61857 0
M  V30 1212 H 113.809 -4.60294 1.92174 0
M  V30 1213 H 112.963 -6.06653 0.0758604 0
M  V30 1214 H 111.702 -4.86622 -0.324062 0
M  V30 1215 H 110.707 -5.13482 1.9651 0
M  V30 1216 H 111.932 -6.36873 2.35733 0
M  V30 1217 H 109.878 -6.55888 0.12138 0
M  V30 1218 H 109.795 -7.3786 1.64616 0
M  V30 1219 H 111.063 -7.77725 0.525795 0
M  V30 1220 N 115.292 -0.849877 -1.32721 0
M  V30 1221 C 116.255 -0.296122 -2.27279 0
M  V30 1222 C 117.255 0.541458 -1.5141 0
M  V30 1223 O 118.445 0.353658 -1.70572 0
M  V30 1224 C 115.577 0.581579 -3.35902 0
M  V30 1225 H 116.77 -1.13064 -2.77771 0
M  V30 1226 H 114.323 -0.62383 -1.43311 0
M  V30 1227 H 115.058 1.43809 -2.9067 0
M  V30 1228 H 114.843 -0.0178814 -3.92096 0
M  V30 1229 H 116.333 0.961951 -4.0637 0
M  V30 1230 N 116.77 1.45427 -0.607355 0
M  V30 1231 C 117.733 2.28974 0.101693 0
M  V30 1232 C 118.733 1.39754 0.795329 0
M  V30 1233 O 119.923 1.61878 0.643527 0
M  V30 1234 C 117.055 3.20768 1.15414 0
M  V30 1235 H 118.248 2.93147 -0.632844 0
M  V30 1236 H 115.801 1.51945 -0.366391 0
M  V30 1237 H 116.536 2.61395 1.91945 0
M  V30 1238 H 116.321 3.86489 0.66098 0
M  V30 1239 H 117.811 3.83589 1.65073 0
M  V30 1240 N 118.248 0.346503 1.53744 0
M  V30 1241 C 119.211 -0.496439 2.23759 0
M  V30 1242 C 120.211 -1.0252 1.2388 0
M  V30 1243 O 121.401 -0.913974 1.48297 0
M  V30 1244 C 118.533 -1.69187 2.95954 0
M  V30 1245 H 119.726 0.115952 2.99676 0
M  V30 1246 H 117.279 0.0978939 1.55993 0
M  V30 1247 H 118.014 -2.34288 2.24231 0
M  V30 1248 H 117.799 -1.31989 3.69217 0
M  V30 1249 H 119.289 -2.28969 3.49232 0
M  V30 1250 N 119.726 -1.57421 0.075193 0
M  V30 1251 C 120.656 -2.15942 -0.888324 0
M  V30 1252 C 121.637 -1.08737 -1.30806 0
M  V30 1253 O 122.822 -1.36787 -1.37851 0
M  V30 1254 C 119.952 -2.72379 -2.1547 0
M  V30 1255 C 118.906 -3.8478 -1.87425 0
M  V30 1256 C 118.232 -4.27834 -3.20721 0
M  V30 1257 C 119.532 -5.08869 -1.17684 0
M  V30 1258 H 121.226 -2.96705 -0.400799 0
M  V30 1259 H 118.772 -1.42723 -0.191342 0
M  V30 1260 H 120.725 -3.11965 -2.83295 0
M  V30 1261 H 119.449 -1.88841 -2.6647 0
M  V30 1262 H 118.108 -3.45703 -1.22004 0
M  V30 1263 H 117.756 -3.41214 -3.6957 0
M  V30 1264 H 117.456 -5.03605 -3.02746 0
M  V30 1265 H 118.98 -4.70039 -3.89738 0
M  V30 1266 H 120.394 -5.4575 -1.75584 0
M  V30 1267 H 118.791 -5.8994 -1.09956 0
M  V30 1268 H 119.861 -4.84648 -0.156453 0
M  V30 1269 N 121.204 0.198386 -1.56346 0
M  V30 1270 C 122.114 1.2664 -1.97483 0
M  V30 1271 C 123.13 1.49989 -0.882002 0
M  V30 1272 O 124.306 1.62668 -1.18748 0
M  V30 1273 C 121.371 2.59141 -2.30319 0
M  V30 1274 C 120.432 2.43892 -3.53292 0
M  V30 1275 C 119.665 3.70074 -3.84553 0
M  V30 1276 O 119.888 4.74101 -3.1715 0
M  V30 1277 O 118.822 3.658 -4.7799 0
M  V30 1278 H 122.648 0.947304 -2.88548 0
M  V30 1279 H 120.233 0.403123 -1.43859 0
M  V30 1280 H 122.115 3.37352 -2.5253 0
M  V30 1281 H 120.79 2.90684 -1.42423 0
M  V30 1282 H 119.697 1.63803 -3.36332 0
M  V30 1283 H 121.03 2.17282 -4.41644 0
M  V30 1284 N 122.682 1.50554 0.465978 0
M  V30 1285 C 123.929 1.61798 1.21768 0
M  V30 1286 C 124.257 0.320696 1.91838 0
M  V30 1287 O 123.512 -0.693724 1.82992 0
M  V30 1288 C 123.811 2.75152 2.28093 0
M  V30 1289 C 123.477 4.15454 1.75239 0
M  V30 1290 C 122.139 4.53628 1.60546 0
M  V30 1291 C 124.491 5.03121 1.36083 0
M  V30 1292 C 121.819 5.77204 1.05128 0
M  V30 1293 C 124.171 6.27249 0.821056 0
M  V30 1294 C 122.835 6.64221 0.660795 0
M  V30 1295 H 122.105 0.592063 0.445582 0
M  V30 1296 H 124.752 1.84503 0.512927 0
M  V30 1297 H 123.057 2.46556 3.04496 0
M  V30 1298 H 124.754 2.81055 2.86023 0
M  V30 1299 H 121.344 3.85341 1.87644 0
M  V30 1300 H 125.528 4.74257 1.46267 0
M  V30 1301 H 120.784 6.0452 0.91462 0
M  V30 1302 H 124.958 6.94537 0.509018 0
M  V30 1303 H 122.585 7.59854 0.229226 0
M  V30 1304 N 124.16 -0.719506 1.40217 0
M  V30 1305 C 125.09 -1.8465 1.42922 0
M  V30 1306 C 126.071 -1.67599 0.29062 0
M  V30 1307 O 127.256 -1.87688 0.498677 0
M  V30 1308 C 124.386 -3.22565 1.28722 0
M  V30 1309 C 123.34 -3.54281 2.40144 0
M  V30 1310 C 122.666 -4.91298 2.11023 0
M  V30 1311 C 123.966 -3.55676 3.82481 0
M  V30 1312 H 125.66 -1.82644 2.37237 0
M  V30 1313 H 123.206 -0.877305 1.1419 0
M  V30 1314 H 125.159 -4.01095 1.29232 0
M  V30 1315 H 123.883 -3.25137 0.308811 0
M  V30 1316 H 122.542 -2.78088 2.38877 0
M  V30 1317 H 122.19 -4.90468 1.11582 0
M  V30 1318 H 121.89 -5.13485 2.8567 0
M  V30 1319 H 123.414 -5.72166 2.13209 0
M  V30 1320 H 124.828 -4.24254 3.85592 0
M  V30 1321 H 123.225 -3.89388 4.56614 0
M  V30 1322 H 124.295 -2.55144 4.12346 0
M  V30 1323 N 125.638 -1.25649 -0.95132 0
M  V30 1324 C 126.586 -1.06118 -2.06982 0
M  V30 1325 C 127.58 0.00889169 -1.69398 0
M  V30 1326 O 128.786 -0.146988 -1.79399 0
M  V30 1327 H 125.161 -0.326248 -0.677544 0
M  V30 1328 H 127.132 -2.00932 -2.2061 0
M  V30 1329 C 125.881 -0.700145 -3.40578 0
M  V30 1330 H 125.204 -1.51537 -3.69968 0
M  V30 1331 H 126.644 -0.603211 -4.19687 0
M  V30 1332 C 125.103 0.59403 -3.31622 0
M  V30 1333 O 125.633 1.63522 -3.66911 0
M  V30 1334 N 123.839 0.58089 -2.84735 0
M  V30 1335 H 123.386 -0.266783 -2.56215 0
M  V30 1336 H 123.344 1.44695 -2.79125 0
M  V30 1337 N 127.117 1.15442 -1.07289 0
M  V30 1338 C 128.533 1.38201 -0.798288 0
M  V30 1339 C 128.733 1.92429 0.597769 0
M  V30 1340 O 127.789 2.12962 1.3566 0
M  V30 1341 C 129.102 2.35357 -1.87156 0
M  V30 1342 C 130.65 2.49021 -1.89624 0
M  V30 1343 C 131.125 3.49468 -2.96034 0
M  V30 1344 N 132.616 3.57003 -2.95132 0
M  V30 1345 C 133.351 4.34543 -3.74112 0
M  V30 1346 N 132.847 5.15421 -4.6294 0
M  V30 1347 N 134.64 4.29625 -3.62462 0
M  V30 1348 H 126.791 0.78584 -1.97328 0
M  V30 1349 H 129.054 0.408065 -0.855679 0
M  V30 1350 H 128.76 2.02626 -2.87464 0
M  V30 1351 H 128.634 3.35129 -1.73114 0
M  V30 1352 H 131.021 2.81051 -0.899687 0
M  V30 1353 H 131.102 1.4925 -2.07745 0
M  V30 1354 H 130.746 3.18173 -3.95889 0
M  V30 1355 H 130.676 4.48992 -2.75161 0
M  V30 1356 H 133.167 2.99276 -2.30743 0
M  V30 1357 H 133.48 5.7183 -5.19837 0
M  V30 1358 H 131.825 5.14729 -4.66989 0
M  V30 1359 H 135.016 3.65505 -2.92444 0
M  V30 1360 H 135.189 4.89807 -4.24256 0
M  V30 1361 N 128.595 0.856903 1.32268 0
M  V30 1362 C 129.842 0.461386 1.97174 0
M  V30 1363 C 130.17 -0.983491 1.67803 0
M  V30 1364 O 129.425 -1.70541 0.959903 0
M  V30 1365 C 129.724 0.649919 3.51441 0
M  V30 1366 C 129.39 2.0656 4.00804 0
M  V30 1367 C 128.052 2.45279 4.13995 0
M  V30 1368 C 130.404 2.98947 4.26943 0
M  V30 1369 C 127.732 3.75653 4.50668 0
M  V30 1370 C 130.084 4.28822 4.65075 0
M  V30 1371 C 128.748 4.67472 4.76472 0
M  V30 1372 H 128.018 0.168833 0.72151 0
M  V30 1373 H 130.665 1.08739 1.57633 0
M  V30 1374 H 128.97 -0.0593018 3.91755 0
M  V30 1375 H 130.667 0.32391 3.9969 0
M  V30 1376 H 127.257 1.75495 3.91024 0
M  V30 1377 H 131.441 2.70265 4.16258 0
M  V30 1378 H 126.697 4.05379 4.57688 0
M  V30 1379 H 130.871 5.0047 4.84255 0
M  V30 1380 H 128.498 5.68539 5.04646 0
M  V30 1381 N 130.073 -1.45103 0.615059 0
M  V30 1382 C 130.983 -2.34382 -0.101034 0
M  V30 1383 C 131.999 -1.51681 -0.852585 0
M  V30 1384 O 133.175 -1.8446 -0.808484 0
M  V30 1385 C 130.24 -3.29417 -1.08099 0
M  V30 1386 C 129.301 -4.28025 -0.330577 0
M  V30 1387 C 128.534 -5.1852 -1.26385 0
M  V30 1388 O 128.757 -5.12598 -2.50198 0
M  V30 1389 O 127.691 -5.97122 -0.756866 0
M  V30 1390 H 131.517 -2.97033 0.632855 0
M  V30 1391 H 129.102 -1.4461 0.375293 0
M  V30 1392 H 130.984 -3.87958 -1.6452 0
M  V30 1393 H 129.659 -2.69321 -1.79577 0
M  V30 1394 H 128.566 -3.73078 0.276283 0
M  V30 1395 H 129.899 -4.90997 0.343866 0
M  V30 1396 N 131.551 -0.354651 -1.53558 0
M  V30 1397 C 132.461 0.50515 -2.29097 0
M  V30 1398 C 133.477 1.10223 -1.34636 0
M  V30 1399 O 134.653 1.11553 -1.67684 0
M  V30 1400 C 131.718 1.63479 -3.05738 0
M  V30 1401 C 130.779 1.06636 -4.15845 0
M  V30 1402 C 130.012 2.14217 -4.88822 0
M  V30 1403 O 130.235 3.35137 -4.61562 0
M  V30 1404 O 129.169 1.77887 -5.75013 0
M  V30 1405 H 132.995 -0.109237 -3.03503 0
M  V30 1406 H 130.58 -0.119357 -1.48922 0
M  V30 1407 H 132.462 2.2918 -3.5363 0
M  V30 1408 H 131.137 2.23478 -2.34178 0
M  V30 1409 H 130.044 0.373565 -3.7223 0
M  V30 1410 H 131.377 0.511081 -4.89539 0
M  V30 1411 N 133.029 1.57378 -0.0835403 0
M  V30 1412 C 133.992 2.12252 0.864959 0
M  V30 1413 C 134.992 1.04916 1.21858 0
M  V30 1414 O 136.182 1.30853 1.14991 0
M  V30 1415 C 133.314 2.63358 2.16461 0
M  V30 1416 H 134.507 2.97371 0.388676 0
M  V30 1417 H 132.06 1.55423 0.165317 0
M  V30 1418 H 132.795 1.81727 2.686 0
M  V30 1419 H 132.58 3.41826 1.92087 0
M  V30 1420 H 134.07 3.05847 2.84337 0
M  V30 1421 N 134.507 -0.190092 1.56449 0
M  V30 1422 C 135.454 -1.23557 1.94942 0
M  V30 1423 C 136.424 -1.44972 0.810696 0
M  V30 1424 O 137.609 -1.58023 1.06927 0
M  V30 1425 C 134.749 -2.57416 2.2985 0
M  V30 1426 C 133.862 -2.43537 3.5681 0
M  V30 1427 C 132.997 -3.70134 3.81017 0
M  V30 1428 C 132.036 -3.51109 5.01387 0
M  V30 1429 N 131.173 -4.6973 5.21822 0
M  V30 1430 H 136.013 -0.900304 2.84075 0
M  V30 1431 H 133.55 -0.43318 1.40577 0
M  V30 1432 H 135.508 -3.35409 2.48106 0
M  V30 1433 H 134.138 -2.88975 1.43852 0
M  V30 1434 H 133.19 -1.56816 3.46573 0
M  V30 1435 H 134.502 -2.25415 4.4496 0
M  V30 1436 H 133.656 -4.56566 3.9954 0
M  V30 1437 H 132.395 -3.91215 2.91207 0
M  V30 1438 H 131.4 -2.63063 4.82782 0
M  V30 1439 H 132.625 -3.31468 5.9271 0
M  V30 1440 H 130.571 -4.91065 4.34961 0
M  V30 1441 H 130.488 -4.54452 6.0416 0
M  V30 1442 H 131.756 -5.57499 5.44808 0
M  V30 1443 N 135.985 -1.50799 -0.457987 0
M  V30 1444 C 137.401 -1.38515 -0.792819 0
M  V30 1445 C 137.601 -0.451409 -1.96379 0
M  V30 1446 O 136.657 0.10112 -2.52297 0
M  V30 1447 C 137.97 -2.80149 -1.09258 0
M  V30 1448 C 139.518 -2.89156 -1.19825 0
M  V30 1449 C 139.993 -4.31651 -1.53106 0
M  V30 1450 N 141.484 -4.34662 -1.60072 0
M  V30 1451 C 142.219 -5.41928 -1.87354 0
M  V30 1452 N 141.715 -6.59384 -2.12568 0
M  V30 1453 N 143.508 -5.29385 -1.88965 0
M  V30 1454 H 135.659 -2.10073 0.313511 0
M  V30 1455 H 137.922 -0.944803 0.0777862 0
M  V30 1456 H 137.628 -3.50374 -0.305084 0
M  V30 1457 H 137.502 -3.18204 -2.02549 0
M  V30 1458 H 139.889 -2.19141 -1.97639 0
M  V30 1459 H 139.97 -2.54626 -0.244821 0
M  V30 1460 H 139.614 -5.02208 -0.758266 0
M  V30 1461 H 139.544 -4.63678 -2.49621 0
M  V30 1462 H 142.035 -3.49973 -1.42573 0
M  V30 1463 H 142.348 -7.36934 -2.32696 0
M  V30 1464 H 140.693 -6.62535 -2.09933 0
M  V30 1465 H 143.884 -4.36616 -1.68772 0
M  V30 1466 H 144.057 -6.13066 -2.09891 0
M  V30 1467 N 137.463 0.71206 -1.40597 0
M  V30 1468 C 138.691 1.50111 -1.42388 0
M  V30 1469 C 139.106 1.88784 -0.0245395 0
M  V30 1470 O 138.463 1.55681 0.952351 0
M  V30 1471 C 138.514 2.7742 -2.31776 0
M  V30 1472 O 138.235 2.40382 -3.66262 0
M  V30 1473 C 139.736 3.7129 -2.42196 0
M  V30 1474 H 136.956 0.46314 -0.485533 0
M  V30 1475 H 139.5 0.878068 -1.8469 0
M  V30 1476 H 137.655 3.36001 -1.92827 0
M  V30 1477 H 138.069 3.22324 -4.13772 0
M  V30 1478 H 139.543 4.57448 -3.08943 0
M  V30 1479 H 140.02 4.14641 -1.44809 0
M  V30 1480 H 140.626 3.18619 -2.81712 0
M  V30 1481 N 138.941 1.26152 0.944643 0
M  V30 1482 C 140.171 1.14094 1.72239 0
M  V30 1483 C 140.579 -0.306931 1.86694 0
M  V30 1484 O 139.922 -1.22222 1.3714 0
M  V30 1485 C 139.984 1.73316 3.14963 0
M  V30 1486 C 139.648 3.2239 3.23904 0
M  V30 1487 C 140.645 4.19252 3.07447 0
M  V30 1488 C 138.33 3.62788 3.47405 0
M  V30 1489 C 140.324 5.54491 3.14353 0
M  V30 1490 C 138.011 4.98162 3.53947 0
M  V30 1491 C 139.009 5.93823 3.37436 0
M  V30 1492 O 138.697 7.26732 3.43679 0
M  V30 1493 H 138.429 0.398292 0.546205 0
M  V30 1494 H 140.983 1.67201 1.19301 0
M  V30 1495 H 139.213 1.14667 3.69308 0
M  V30 1496 H 140.902 1.56214 3.74636 0
M  V30 1497 H 141.668 3.8938 2.8915 0
M  V30 1498 H 137.547 2.88816 3.59313 0
M  V30 1499 H 141.091 6.29137 3.01384 0
M  V30 1500 H 136.988 5.27695 3.71763 0
M  V30 1501 H 137.756 7.3496 3.60245 0
M  V30 1502 N 140.419 -1.14872 1.07899 0
M  V30 1503 C 141.329 -2.2341 0.715915 0
M  V30 1504 C 142.345 -1.71808 -0.275306 0
M  V30 1505 O 143.521 -2.01039 -0.120545 0
M  V30 1506 C 140.586 -3.46474 0.125168 0
M  V30 1507 C 139.647 -4.13039 1.17034 0
M  V30 1508 C 138.88 -5.30229 0.607688 0
M  V30 1509 O 139.103 -5.675 -0.574497 0
M  V30 1510 O 138.037 -5.86444 1.35526 0
M  V30 1511 H 141.863 -2.56808 1.62121 0
M  V30 1512 H 139.448 -1.22702 0.852322 0
M  V30 1513 H 141.33 -4.20917 -0.201729 0
M  V30 1514 H 140.005 -3.14811 -0.753364 0
M  V30 1515 H 138.912 -3.40493 1.54968 0
M  V30 1516 H 140.245 -4.48796 2.02097 0
M  V30 1517 N 141.898 -0.863906 -1.31812 0
M  V30 1518 C 142.808 -0.318461 -2.32428 0
M  V30 1519 C 143.824 0.568496 -1.64451 0
M  V30 1520 O 145 0.46666 -1.95919 0
M  V30 1521 C 142.065 0.476355 -3.43412 0
M  V30 1522 C 141.126 -0.43784 -4.27061 0
M  V30 1523 C 140.359 0.319138 -5.32745 0
M  V30 1524 O 140.582 1.54799 -5.48993 0
M  V30 1525 O 139.516 -0.319861 -6.01049 0
M  V30 1526 H 143.342 -1.15229 -2.80991 0
M  V30 1527 H 140.927 -0.627103 -1.35602 0
M  V30 1528 H 142.809 0.927156 -4.11074 0
M  V30 1529 H 141.484 1.28683 -2.97022 0
M  V30 1530 H 140.391 -0.937013 -3.62175 0
M  V30 1531 H 141.724 -1.21375 -4.77 0
M  V30 1532 N 143.376 1.44774 -0.622745 0
M  V30 1533 C 144.624 2.01721 -0.123655 0
M  V30 1534 C 144.945 1.49172 1.25589 0
M  V30 1535 O 144.215 0.691974 1.83272 0
M  V30 1536 H 142.795 0.745777 -0.0427225 0
M  V30 1537 H 145.457 1.77382 -0.807559 0
M  V30 1538 H 144.553 3.11984 -0.0849534 0
M  V30 1539 N 144.854 0.36279 1.53368 0
M  V30 1540 C 145.784 -0.476976 2.28576 0
M  V30 1541 C 146.765 -1.08631 1.30894 0
M  V30 1542 O 147.95 -1.10409 1.59761 0
M  V30 1543 C 145.08 -1.61828 3.07293 0
M  V30 1544 C 144.034 -1.13633 4.1264 0
M  V30 1545 C 143.36 -2.36766 4.79423 0
M  V30 1546 C 144.66 -0.223061 5.21823 0
M  V30 1547 H 146.354 0.150474 2.99022 0
M  V30 1548 H 143.9 0.0738103 1.43811 0
M  V30 1549 H 145.853 -2.21237 3.58653 0
M  V30 1550 H 144.577 -2.27292 2.34533 0
M  V30 1551 H 143.236 -0.564945 3.62221 0
M  V30 1552 H 142.884 -3.0068 4.03238 0
M  V30 1553 H 142.584 -2.05192 5.50609 0
M  V30 1554 H 144.108 -2.96865 5.33576 0
M  V30 1555 H 145.522 -0.724545 5.68703 0
M  V30 1556 H 143.919 0.001678 6.001 0
M  V30 1557 H 144.989 0.735553 4.79289 0
M  V30 1558 N 146.332 -1.57332 0.0918853 0
M  V30 1559 C 147.279 -2.13847 -0.868211 0
M  V30 1560 C 148.249 -1.05618 -1.28196 0
M  V30 1561 O 149.434 -1.33387 -1.36427 0
M  V30 1562 C 146.574 -2.72062 -2.12312 0
M  V30 1563 C 145.687 -3.94514 -1.7602 0
M  V30 1564 C 144.822 -4.40903 -2.96273 0
M  V30 1565 C 143.861 -5.55953 -2.56092 0
M  V30 1566 N 142.998 -5.97209 -3.69169 0
M  V30 1567 H 147.838 -2.95575 -0.379406 0
M  V30 1568 H 145.375 -1.46048 -0.175606 0
M  V30 1569 H 147.333 -3.03931 -2.858 0
M  V30 1570 H 145.963 -1.93068 -2.58698 0
M  V30 1571 H 145.015 -3.68979 -0.925135 0
M  V30 1572 H 146.327 -4.7802 -1.42472 0
M  V30 1573 H 145.481 -4.74539 -3.78018 0
M  V30 1574 H 144.22 -3.56291 -3.33029 0
M  V30 1575 H 143.225 -5.21948 -1.72773 0
M  V30 1576 H 144.45 -6.42311 -2.20484 0
M  V30 1577 H 142.396 -5.15543 -4.05649 0
M  V30 1578 H 142.313 -6.75504 -3.39456 0
M  V30 1579 H 143.581 -6.35475 -4.51434 0
M  V30 1580 N 147.81 0.181792 -1.56548 0
M  V30 1581 C 148.76 1.22961 -1.92002 0
M  V30 1582 C 149.744 1.40331 -0.787146 0
M  V30 1583 O 150.936 1.42478 -1.05019 0
M  V30 1584 C 148.065 2.57144 -2.27446 0
M  V30 1585 C 147.151 2.43512 -3.47222 0
M  V30 1586 N 147.542 1.99577 -4.64761 0
M  V30 1587 C 145.84 2.74368 -3.51622 0
M  V30 1588 C 146.541 1.98156 -5.46909 0
M  V30 1589 N 145.517 2.40164 -4.8767 0
M  V30 1590 H 149.319 0.881462 -2.8037 0
M  V30 1591 H 146.833 0.390141 -1.57644 0
M  V30 1592 H 148.83 3.32847 -2.51035 0
M  V30 1593 H 147.49 2.92771 -1.40411 0
M  V30 1594 H 148.501 1.70078 -4.89177 0
M  V30 1595 H 145.178 3.14102 -2.75038 0
M  V30 1596 H 146.568 1.65975 -6.51077 0
M  V30 1597 N 149.288 1.51039 0.449983 0
M  V30 1598 C 150.198 1.74261 1.57067 0
M  V30 1599 C 151.214 0.626363 1.62335 0
M  V30 1600 O 152.39 0.907162 1.79812 0
M  V30 1601 C 149.455 1.85114 2.93144 0
M  V30 1602 C 148.516 3.0893 2.98095 0
M  V30 1603 C 147.749 3.19256 4.27681 0
M  V30 1604 O 147.972 2.35835 5.19363 0
M  V30 1605 O 146.906 4.12144 4.38658 0
M  V30 1606 H 150.732 2.69303 1.40391 0
M  V30 1607 H 148.317 1.35389 0.631688 0
M  V30 1608 H 150.199 1.94311 3.73926 0
M  V30 1609 H 148.874 0.932588 3.09975 0
M  V30 1610 H 147.781 3.0522 2.16314 0
M  V30 1611 H 149.114 4.00433 2.86206 0
M  V30 1612 N 150.766 -0.704594 1.40972 0
M  V30 1613 C 151.729 -1.80035 1.41845 0
M  V30 1614 C 152.729 -1.57774 0.310474 0
M  V30 1615 O 153.919 -1.64613 0.56992 0
M  V30 1616 C 151.051 -3.18284 1.22098 0
M  V30 1617 H 152.244 -1.80658 2.3938 0
M  V30 1618 H 149.797 -0.911329 1.26982 0
M  V30 1619 H 150.532 -3.23306 0.253672 0
M  V30 1620 H 150.317 -3.35843 2.02366 0
M  V30 1621 H 151.807 -3.98289 1.25522 0
M  V30 1622 N 152.244 -1.26651 -0.937939 0
M  V30 1623 C 153.192 -1.08308 -2.05845 0
M  V30 1624 C 154.186 -0.0090757 -1.69398 0
M  V30 1625 O 155.392 -0.166007 -1.79233 0
M  V30 1626 H 151.767 -0.333416 -0.674046 0
M  V30 1627 H 153.738 -2.03261 -2.18467 0
M  V30 1628 C 152.487 -0.736229 -3.39816 0
M  V30 1629 H 151.81 -1.55453 -3.6834 0
M  V30 1630 H 153.25 -0.64769 -4.19024 0
M  V30 1631 C 151.709 0.558824 -3.32233 0
M  V30 1632 O 152.239 1.59621 -3.68624 0
M  V30 1633 N 150.445 0.550657 -2.85335 0
M  V30 1634 H 149.992 -0.293943 -2.55917 0
M  V30 1635 H 149.95 1.41726 -2.80644 0
M  V30 1636 N 153.722 1.14298 -1.08507 0
M  V30 1637 C 154.67 2.21483 -0.710483 0
M  V30 1638 C 155.664 1.66998 0.284234 0
M  V30 1639 O 156.87 1.79401 0.146692 0
M  V30 1640 H 153.245 0.721578 -0.211729 0
M  V30 1641 H 155.216 2.50348 -1.62384 0
M  V30 1642 C 153.965 3.4743 -0.137007 0
M  V30 1643 H 153.288 3.89686 -0.893592 0
M  V30 1644 H 154.728 4.2391 0.0872789 0
M  V30 1645 C 153.187 3.17548 1.12538 0
M  V30 1646 O 153.717 3.35437 2.21009 0
M  V30 1647 N 151.923 2.71499 1.03617 0
M  V30 1648 H 151.47 2.57143 0.153403 0
M  V30 1649 H 151.428 2.51881 1.88158 0
M  V30 1650 N 155.201 0.870884 1.31352 0
M  V30 1651 C 156.612 0.534714 1.78879 0
M  V30 1652 C 156.963 -0.948423 1.71754 0
M  V30 1653 O 156.088 -1.74055 1.28584 0
M  V30 1654 C 156.683 0.963839 3.24801 0
M  V30 1655 C 155.242 0.679311 3.70219 0
M  V30 1656 C 154.389 1.15465 2.52117 0
M  V30 1657 H 157.34 1.05651 1.18421 0
M  V30 1658 H 157.361 0.286892 3.79417 0
M  V30 1659 H 156.873 2.04332 3.29955 0
M  V30 1660 H 154.974 -0.388769 3.70566 0
M  V30 1661 H 155.087 1.25698 4.62317 0
M  V30 1662 H 153.451 0.574383 2.48139 0
M  V30 1663 H 154.234 2.24157 2.60016 0
M  V30 1664 N 156.679 -1.44442 0.630414 0
M  V30 1665 C 157.611 -2.2892 -0.113347 0
M  V30 1666 C 158.624 -1.41243 -0.80959 0
M  V30 1667 O 159.813 -1.65402 -0.671156 0
M  V30 1668 C 156.913 -3.17594 -1.18266 0
M  V30 1669 C 156.086 -4.33682 -0.569073 0
M  V30 1670 C 155.145 -5.03397 -1.53226 0
M  V30 1671 O 154.171 -5.59438 -1.04967 0
M  V30 1672 N 155.373 -5.04783 -2.86661 0
M  V30 1673 H 158.138 -2.93392 0.611636 0
M  V30 1674 H 155.699 -1.54881 0.471523 0
M  V30 1675 H 157.691 -3.61097 -1.82732 0
M  V30 1676 H 156.261 -2.54876 -1.80988 0
M  V30 1677 H 155.481 -3.9338 0.254187 0
M  V30 1678 H 156.769 -5.08608 -0.139767 0
M  V30 1679 H 156.167 -4.60584 -3.28449 0
M  V30 1680 H 154.724 -5.52077 -3.46489 0
M  V30 1681 N 158.157 -0.370918 -1.53173 0
M  V30 1682 C 159.087 0.464847 -2.28826 0
M  V30 1683 C 160.068 1.07936 -1.31468 0
M  V30 1684 O 161.253 1.0956 -1.60344 0
M  V30 1685 C 158.383 1.60196 -3.08147 0
M  V30 1686 C 157.337 1.11443 -4.13237 0
M  V30 1687 C 156.663 2.3422 -4.80672 0
M  V30 1688 C 157.963 0.195384 -5.21934 0
M  V30 1689 H 159.657 -0.166329 -2.98938 0
M  V30 1690 H 157.203 -0.0814359 -1.4377 0
M  V30 1691 H 159.156 2.19332 -3.59822 0
M  V30 1692 H 157.88 2.26045 -2.35735 0
M  V30 1693 H 156.539 0.545727 -3.62515 0
M  V30 1694 H 156.187 2.98537 -4.04827 0
M  V30 1695 H 155.887 2.02269 -5.51689 0
M  V30 1696 H 157.411 2.94032 -5.35143 0
M  V30 1697 H 158.825 0.694375 -5.69079 0
M  V30 1698 H 157.222 -0.0335027 -6.00091 0
M  V30 1699 H 158.292 -0.760961 -4.78892 0
M  V30 1700 N 159.635 1.57281 -0.100228 0
M  V30 1701 C 160.582 2.14305 0.856858 0
M  V30 1702 C 161.552 1.06296 1.27634 0
M  V30 1703 O 162.737 1.34109 1.35718 0
M  V30 1704 C 159.877 2.73184 2.10866 0
M  V30 1705 C 158.99 3.95442 1.73925 0
M  V30 1706 C 158.125 4.42468 2.93931 0
M  V30 1707 C 157.164 5.57303 2.5314 0
M  V30 1708 N 156.301 5.99158 3.65997 0
M  V30 1709 H 161.141 2.95772 0.363726 0
M  V30 1710 H 158.678 1.46139 0.167858 0
M  V30 1711 H 160.636 3.05442 2.84185 0
M  V30 1712 H 159.266 1.94437 2.57671 0
M  V30 1713 H 158.318 3.69464 0.905554 0
M  V30 1714 H 159.63 4.78769 1.39935 0
M  V30 1715 H 158.784 4.76537 3.75496 0
M  V30 1716 H 157.523 3.58052 3.31134 0
M  V30 1717 H 156.528 5.22857 1.70003 0
M  V30 1718 H 157.753 6.43471 2.17075 0
M  V30 1719 H 155.699 5.17687 4.02909 0
M  V30 1720 H 155.616 6.77295 3.35869 0
M  V30 1721 H 156.884 6.3786 4.48057 0
M  V30 1722 N 161.113 -0.173488 1.56642 0
M  V30 1723 C 162.023 -1.23482 1.99473 0
M  V30 1724 C 163.039 -1.48567 0.905752 0
M  V30 1725 O 164.215 -1.60758 1.21321 0
M  V30 1726 C 161.28 -2.55444 2.34413 0
M  V30 1727 C 160.341 -2.38241 3.57127 0
M  V30 1728 C 159.574 -3.63909 3.90392 0
M  V30 1729 O 159.797 -4.68996 3.24653 0
M  V30 1730 O 158.731 -3.58149 4.83749 0
M  V30 1731 H 162.557 -0.901279 2.90018 0
M  V30 1732 H 160.142 -0.380185 1.44482 0
M  V30 1733 H 162.024 -3.33292 2.57865 0
M  V30 1734 H 160.699 -2.88382 1.4703 0
M  V30 1735 H 159.606 -1.58431 3.38896 0
M  V30 1736 H 160.939 -2.10228 4.45045 0
M  V30 1737 N 162.591 -1.51276 -0.441967 0
M  V30 1738 C 163.839 -1.63392 -1.18943 0
M  V30 1739 C 164.16 -0.350159 -1.9183 0
M  V30 1740 O 163.43 0.633784 -1.85364 0
M  V30 1741 H 162.01 -0.602164 -0.442049 0
M  V30 1742 H 164.672 -1.88186 -0.507165 0
M  V30 1743 H 163.768 -2.45934 -1.92154 0
M  V30 1744 N 164.069 0.697108 -1.41344 0
M  V30 1745 C 164.999 1.82353 -1.45841 0
M  V30 1746 C 165.98 1.67115 -0.317247 0
M  V30 1747 O 167.165 1.86871 -0.528474 0
M  V30 1748 C 164.295 3.20476 -1.33838 0
M  V30 1749 C 163.249 3.50415 -2.4575 0
M  V30 1750 C 162.575 4.87878 -2.18813 0
M  V30 1751 C 163.875 3.49546 -3.88091 0
M  V30 1752 H 165.569 1.78846 -2.40113 0
M  V30 1753 H 163.115 0.859028 -1.15571 0
M  V30 1754 H 165.068 3.98988 -1.35596 0
M  V30 1755 H 163.792 3.24604 -0.360498 0
M  V30 1756 H 162.451 2.74253 -2.43271 0
M  V30 1757 H 162.099 4.8863 -1.19371 0
M  V30 1758 H 161.799 5.08875 -2.93803 0
M  V30 1759 H 163.323 5.68702 -2.22284 0
M  V30 1760 H 164.737 4.18066 -3.92293 0
M  V30 1761 H 163.134 3.82075 -4.62751 0
M  V30 1762 H 164.204 2.48552 -4.16353 0
M  V30 1763 N 165.547 1.27147 0.931209 0
M  V30 1764 C 166.479 1.05364 2.03546 0
M  V30 1765 C 167.492 0.0108438 1.62796 0
M  V30 1766 O 168.681 0.25202 1.76712 0
M  V30 1767 C 165.781 0.575566 3.33977 0
M  V30 1768 C 164.954 1.68985 4.03439 0
M  V30 1769 C 164.013 1.20813 5.12143 0
M  V30 1770 O 163.039 1.90712 5.363 0
M  V30 1771 N 164.241 0.0618851 5.80467 0
M  V30 1772 H 167.006 2.00454 2.22796 0
M  V30 1773 H 164.567 1.18666 1.10136 0
M  V30 1774 H 166.559 0.237264 4.04004 0
M  V30 1775 H 165.129 -0.282016 3.11325 0
M  V30 1776 H 164.349 2.19861 3.27192 0
M  V30 1777 H 165.637 2.4378 4.46597 0
M  V30 1778 H 165.035 -0.521621 5.6329 0
M  V30 1779 H 163.592 -0.217264 6.51438 0
M  V30 1780 N 167.025 -1.13721 1.09112 0
M  V30 1781 C 167.973 -2.21103 0.722219 0
M  V30 1782 C 168.967 -1.67147 -0.275374 0
M  V30 1783 O 170.173 -1.79477 -0.137176 0
M  V30 1784 H 166.548 -0.720445 0.215553 0
M  V30 1785 H 168.519 -2.49483 1.63709 0
M  V30 1786 C 167.268 -3.47352 0.15543 0
M  V30 1787 H 166.591 -3.89206 0.914246 0
M  V30 1788 H 168.031 -4.2395 -0.0647967 0
M  V30 1789 C 166.49 -3.1814 -1.10852 0
M  V30 1790 O 167.02 -3.36604 -2.19227 0
M  V30 1791 N 165.226 -2.72045 -1.02176 0
M  V30 1792 H 164.773 -2.57221 -0.139764 0
M  V30 1793 H 164.731 -2.52875 -1.8682 0
M  V30 1794 N 168.503 -0.877838 -1.30888 0
M  V30 1795 C 169.436 -0.283995 -2.26426 0
M  V30 1796 C 170.414 0.591361 -1.51465 0
M  V30 1797 O 171.598 0.54304 -1.80509 0
M  V30 1798 C 168.725 0.597129 -3.33395 0
M  V30 1799 C 167.771 -0.207937 -4.25993 0
M  V30 1800 S 168.604 -1.59158 -5.11301 0
M  V30 1801 C 169.76 -0.716791 -6.21782 0
M  V30 1802 H 169.993 -1.09383 -2.76446 0
M  V30 1803 H 167.526 -0.676828 -1.38775 0
M  V30 1804 H 169.484 1.09978 -3.95493 0
M  V30 1805 H 168.145 1.38099 -2.82113 0
M  V30 1806 H 167.338 0.464163 -5.01858 0
M  V30 1807 H 166.94 -0.642963 -3.68432 0
M  V30 1808 H 169.232 0.0692833 -6.77465 0
M  V30 1809 H 170.175 -1.44682 -6.93161 0
M  V30 1810 H 170.583 -0.280855 -5.63801 0
M  V30 1811 N 169.982 1.44106 -0.638065 0
M  V30 1812 C 170.892 2.34513 0.0637334 0
M  V30 1813 C 171.908 1.53018 0.828346 0
M  V30 1814 O 173.084 1.85723 0.779036 0
M  V30 1815 C 170.149 3.31095 1.02844 0
M  V30 1816 C 169.21 4.28497 0.26244 0
M  V30 1817 C 168.443 5.20465 1.1812 0
M  V30 1818 O 168.666 5.16514 2.42011 0
M  V30 1819 O 167.6 5.98251 0.661774 0
M  V30 1820 H 171.426 2.95989 -0.68003 0
M  V30 1821 H 169.011 1.43994 -0.398252 0
M  V30 1822 H 170.893 3.90526 1.58327 0
M  V30 1823 H 169.568 2.72144 1.7527 0
M  V30 1824 H 168.475 3.72592 -0.335602 0
M  V30 1825 H 169.808 4.90388 -0.421936 0
M  V30 1826 N 171.46 0.379036 1.52974 0
M  V30 1827 C 172.423 -0.448865 2.24762 0
M  V30 1828 C 173.423 -0.998689 1.26027 0
M  V30 1829 O 174.613 -0.882313 1.50203 0
M  V30 1830 C 171.745 -1.62872 2.99476 0
M  V30 1831 H 172.938 0.179491 2.99362 0
M  V30 1832 H 170.491 0.13096 1.5575 0
M  V30 1833 H 171.226 -2.29479 2.29151 0
M  V30 1834 H 171.011 -1.24128 3.71934 0
M  V30 1835 H 172.501 -2.2151 3.5401 0
M  V30 1836 N 172.938 -1.57226 0.108567 0
M  V30 1837 C 174.354 -1.5766 -0.248058 0
M  V30 1838 C 174.554 -1.12063 -1.67464 0
M  V30 1839 O 173.61 -0.803236 -2.39383 0
M  V30 1840 C 174.923 -3.0069 -0.0242287 0
M  V30 1841 C 176.471 -3.12868 -0.0909372 0
M  V30 1842 C 176.946 -4.57879 0.105067 0
M  V30 1843 N 178.437 -4.63172 0.0506846 0
M  V30 1844 C 179.172 -5.73126 0.177396 0
M  V30 1845 N 178.668 -6.91866 0.359696 0
M  V30 1846 N 180.461 -5.61977 0.117709 0
M  V30 1847 H 172.612 -1.85169 1.04049 0
M  V30 1848 H 174.875 -0.85529 0.40888 0
M  V30 1849 H 174.581 -3.38299 0.961604 0
M  V30 1850 H 174.455 -3.6945 -0.76068 0
M  V30 1851 H 176.842 -2.75124 -1.06729 0
M  V30 1852 H 176.923 -2.46672 0.677225 0
M  V30 1853 H 176.567 -4.96321 1.07834 0
M  V30 1854 H 176.497 -5.22153 -0.682954 0
M  V30 1855 H 178.988 -3.778 -0.0871266 0
M  V30 1856 H 179.301 -7.71503 0.447529 0
M  V30 1857 H 177.646 -6.93874 0.395536 0
M  V30 1858 H 180.837 -4.68094 -0.0236741 0
M  V30 1859 H 181.01 -6.47627 0.219905 0
M  V30 1860 N 174.416 0.165178 -1.56732 0
M  V30 1861 C 175.346 1.20651 -1.99914 0
M  V30 1862 C 176.327 1.45827 -0.875705 0
M  V30 1863 O 177.512 1.57057 -1.14223 0
M  V30 1864 C 174.642 2.54401 -2.36427 0
M  V30 1865 C 173.596 2.43782 -3.51787 0
M  V30 1866 C 172.922 3.82078 -3.7406 0
M  V30 1867 C 174.222 1.93732 -4.85041 0
M  V30 1868 H 175.916 0.847534 -2.87154 0
M  V30 1869 H 173.462 0.40625 -1.38151 0
M  V30 1870 H 175.415 3.27458 -2.65234 0
M  V30 1871 H 174.139 2.92098 -1.46103 0
M  V30 1872 H 172.798 1.73178 -3.23117 0
M  V30 1873 H 172.446 4.17179 -2.81017 0
M  V30 1874 H 172.146 3.7584 -4.51684 0
M  V30 1875 H 173.67 4.56712 -4.05274 0
M  V30 1876 H 175.084 2.56569 -5.12684 0
M  V30 1877 H 173.481 1.98428 -5.66345 0
M  V30 1878 H 174.551 0.891962 -4.76626 0
M  V30 1879 N 175.894 1.51508 0.433938 0
M  V30 1880 C 176.857 1.72473 1.50949 0
M  V30 1881 C 177.857 0.594725 1.49398 0
M  V30 1882 O 179.047 0.862315 1.5136 0
M  V30 1883 C 176.179 1.78431 2.90474 0
M  V30 1884 H 177.372 2.68467 1.33662 0
M  V30 1885 H 174.925 1.41549 0.662836 0
M  V30 1886 H 175.66 0.842645 3.13161 0
M  V30 1887 H 175.445 2.60558 2.93005 0
M  V30 1888 H 176.935 1.96479 3.68491 0
M  V30 1889 N 177.372 -0.689602 1.41712 0
M  V30 1890 C 178.282 -1.83314 1.46401 0
M  V30 1891 C 179.298 -1.7036 0.35405 0
M  V30 1892 O 180.474 -1.92171 0.602692 0
M  V30 1893 C 177.539 -3.19344 1.34982 0
M  V30 1894 C 176.6 -3.44363 2.56344 0
M  V30 1895 C 175.833 -4.73904 2.45461 0
M  V30 1896 O 176.056 -5.508 1.48241 0
M  V30 1897 O 174.99 -4.99839 3.35328 0
M  V30 1898 H 178.816 -1.82314 2.42889 0
M  V30 1899 H 176.401 -0.843438 1.23315 0
M  V30 1900 H 178.283 -4.00547 1.3092 0
M  V30 1901 H 176.958 -3.21014 0.41612 0
M  V30 1902 H 175.865 -2.63067 2.65982 0
M  V30 1903 H 177.198 -3.47512 3.48563 0
M  V30 1904 N 178.85 -1.27639 -0.924453 0
M  V30 1905 C 180.266 -1.05113 -1.20097 0
M  V30 1906 C 180.466 0.213262 -2.00368 0
M  V30 1907 O 179.522 0.91787 -2.35226 0
M  V30 1908 C 180.835 -2.29244 -1.94596 0
M  V30 1909 C 182.383 -2.34315 -2.07522 0
M  V30 1910 C 182.858 -3.58183 -2.85427 0
M  V30 1911 N 184.349 -3.5876 -2.92994 0
M  V30 1912 C 185.084 -4.51277 -3.53746 0
M  V30 1913 N 184.58 -5.54102 -4.15863 0
M  V30 1914 N 186.373 -4.38894 -3.51181 0
M  V30 1915 H 178.524 -2.08821 -0.388264 0
M  V30 1916 H 180.787 -0.918568 -0.234385 0
M  V30 1917 H 180.493 -3.21301 -1.43034 0
M  V30 1918 H 180.367 -2.34816 -2.95197 0
M  V30 1919 H 182.754 -1.42762 -2.58269 0
M  V30 1920 H 182.835 -2.32744 -1.06131 0
M  V30 1921 H 182.479 -4.50074 -2.35363 0
M  V30 1922 H 182.409 -3.57006 -3.8711 0
M  V30 1923 H 184.9 -2.84398 -2.4885 0
M  V30 1924 H 185.213 -6.20859 -4.60168 0
M  V30 1925 H 183.558 -5.57941 -4.144 0
M  V30 1926 H 186.749 -3.57772 -3.01856 0
M  V30 1927 H 186.922 -5.11186 -3.98237 0
M  V30 1928 N 180.328 1.1314 -1.09713 0
M  V30 1929 C 181.275 2.18642 -0.739196 0
M  V30 1930 C 182.245 1.63706 0.280978 0
M  V30 1931 O 183.43 1.90111 0.161946 0
M  V30 1932 C 180.57 3.44685 -0.169102 0
M  V30 1933 C 179.683 4.13711 -1.24367 0
M  V30 1934 C 178.818 5.27379 -0.636019 0
M  V30 1935 C 177.857 5.88259 -1.69169 0
M  V30 1936 N 176.994 6.93352 -1.10485 0
M  V30 1937 H 181.834 2.48607 -1.64312 0
M  V30 1938 H 179.371 1.22066 -0.820875 0
M  V30 1939 H 181.329 4.16815 0.179256 0
M  V30 1940 H 179.959 3.15161 0.698079 0
M  V30 1941 H 179.011 3.39835 -1.70927 0
M  V30 1942 H 180.323 4.55037 -2.04311 0
M  V30 1943 H 179.477 6.06238 -0.236677 0
M  V30 1944 H 178.216 4.8731 0.194928 0
M  V30 1945 H 177.221 5.08092 -2.10055 0
M  V30 1946 H 178.446 6.30399 -2.52536 0
M  V30 1947 H 176.392 6.55335 -0.295234 0
M  V30 1948 H 176.309 7.33236 -1.84121 0
M  V30 1949 H 177.577 7.76057 -0.73181 0
M  V30 1950 N 181.806 0.884767 1.30421 0
M  V30 1951 C 183.053 0.503105 1.96151 0
M  V30 1952 C 183.381 -0.947676 1.69851 0
M  V30 1953 O 182.636 -1.68467 0.995861 0
M  V30 1954 C 182.935 0.724318 3.49983 0
M  V30 1955 C 182.601 2.15015 3.96332 0
M  V30 1956 C 181.263 2.54005 4.08699 0
M  V30 1957 C 183.615 3.07936 4.20505 0
M  V30 1958 C 180.943 3.85128 4.42599 0
M  V30 1959 C 183.295 4.3859 4.55874 0
M  V30 1960 C 181.959 4.77474 4.66449 0
M  V30 1961 H 181.229 0.184099 0.717766 0
M  V30 1962 H 183.876 1.12058 1.55291 0
M  V30 1963 H 182.181 0.0238086 3.91793 0
M  V30 1964 H 183.878 0.408617 3.98913 0
M  V30 1965 H 180.468 1.8375 3.87213 0
M  V30 1966 H 184.652 2.79033 4.10431 0
M  V30 1967 H 179.908 4.14996 4.48986 0
M  V30 1968 H 184.082 5.10629 4.7353 0
M  V30 1969 H 181.709 5.79115 4.92473 0
M  V30 1970 N 183.284 -1.43765 0.645699 0
M  V30 1971 C 184.217 -2.2798 -0.100072 0
M  V30 1972 C 185.195 -1.39391 -0.837194 0
M  V30 1973 O 186.379 -1.68833 -0.838306 0
M  V30 1974 C 183.506 -3.18643 -1.14823 0
M  V30 1975 C 182.552 -4.2344 -0.510009 0
M  V30 1976 S 183.385 -5.30761 0.710824 0
M  V30 1977 C 184.541 -6.24992 -0.33699 0
M  V30 1978 H 184.774 -2.90884 0.614322 0
M  V30 1979 H 182.307 -1.48166 0.434304 0
M  V30 1980 H 184.265 -3.71424 -1.74799 0
M  V30 1981 H 182.926 -2.54932 -1.8349 0
M  V30 1982 H 182.119 -4.86948 -1.29991 0
M  V30 1983 H 181.721 -3.73997 0.0154577 0
M  V30 1984 H 184.013 -6.66691 -1.20537 0
M  V30 1985 H 184.956 -7.07612 0.262879 0
M  V30 1986 H 185.364 -5.60517 -0.669425 0
M  V30 1987 N 184.763 -0.387143 -1.52771 0
M  V30 1988 C 185.711 0.463953 -2.27926 0
M  V30 1989 C 186.705 1.06493 -1.31741 0
M  V30 1990 O 187.911 1.00565 -1.49287 0
M  V30 1991 H 184.286 0.16837 -0.732909 0
M  V30 1992 H 186.257 -0.19141 -2.97785 0
M  V30 1993 C 185.006 1.5803 -3.09713 0
M  V30 1994 H 184.329 1.12718 -3.83581 0
M  V30 1995 H 185.769 2.15008 -3.65442 0
M  V30 1996 C 184.228 2.53509 -2.2189 0
M  V30 1997 O 184.758 3.56863 -1.84422 0
M  V30 1998 N 182.964 2.23199 -1.86093 0
M  V30 1999 H 182.511 1.39185 -2.16761 0
M  V30 2000 H 182.469 2.87333 -1.27621 0
M  V30 2001 N 186.241 1.57166 -0.116904 0
M  V30 2002 C 187.652 1.82169 0.408809 0
M  V30 2003 C 188.003 1.03393 1.66746 0
M  V30 2004 O 187.128 0.269886 2.1471 0
M  V30 2005 C 187.723 3.30429 0.748466 0
M  V30 2006 C 186.282 3.5612 1.21882 0
M  V30 2007 C 185.429 2.76374 0.226452 0
M  V30 2008 H 188.38 1.5497 -0.342063 0
M  V30 2009 H 188.401 3.44943 1.60607 0
M  V30 2010 H 187.913 3.87737 -0.167784 0
M  V30 2011 H 186.014 3.04168 2.15204 0
M  V30 2012 H 186.127 4.64705 1.16559 0
M  V30 2013 H 184.491 2.44515 0.713063 0
M  V30 2014 H 185.274 3.3644 -0.682859 0
M  V30 2015 N 187.719 -0.156864 1.56817 0
M  V30 2016 C 188.966 -0.871125 1.82805 0
M  V30 2017 C 189.294 -1.81611 0.696262 0
M  V30 2018 O 188.549 -1.93141 -0.315459 0
M  V30 2019 C 188.848 -1.68737 3.1506 0
M  V30 2020 C 188.514 -0.890045 4.42028 0
M  V30 2021 C 187.176 -0.670042 4.76512 0
M  V30 2022 C 189.528 -0.331769 5.20143 0
M  V30 2023 C 186.856 0.119104 5.86579 0
M  V30 2024 C 189.208 0.444365 6.31037 0
M  V30 2025 C 187.872 0.675035 6.64078 0
M  V30 2026 H 187.142 -0.318767 0.668931 0
M  V30 2027 H 189.789 -0.135274 1.91022 0
M  V30 2028 H 188.094 -2.49304 3.0225 0
M  V30 2029 H 189.791 -2.24331 3.3238 0
M  V30 2030 H 186.381 -1.07157 4.14988 0
M  V30 2031 H 190.565 -0.489043 4.93885 0
M  V30 2032 H 185.821 0.307417 6.10627 0
M  V30 2033 H 189.995 0.884139 6.90765 0
M  V30 2034 H 187.622 1.28839 7.49203 0
M  V30 2035 N 189.197 -1.51736 -0.425897 0
M  V30 2036 C 190.145 -1.74464 -1.53834 0
M  V30 2037 C 191.139 -0.611241 -1.57988 0
M  V30 2038 O 192.345 -0.792899 -1.61596 0
M  V30 2039 H 188.72 -0.551437 -0.511293 0
M  V30 2040 H 190.691 -2.67694 -1.31843 0
M  V30 2041 C 189.44 -1.8972 -2.91379 0
M  V30 2042 H 188.763 -2.76344 -2.88919 0
M  V30 2043 H 190.203 -2.09629 -3.68553 0
M  V30 2044 C 188.662 -0.65992 -3.30374 0
M  V30 2045 O 189.192 0.180083 -4.01296 0
M  V30 2046 N 187.398 -0.500677 -2.86254 0
M  V30 2047 H 186.945 -1.18532 -2.28709 0
M  V30 2048 H 186.903 0.325903 -3.12706 0
M  V30 2049 N 190.675 0.682077 -1.42076 0
M  V30 2050 C 191.608 1.80666 -1.3941 0
M  V30 2051 C 192.586 1.60518 -0.25939 0
M  V30 2052 O 193.77 1.83088 -0.448456 0
M  V30 2053 C 190.897 3.17556 -1.17796 0
M  V30 2054 C 189.943 3.56468 -2.34164 0
M  V30 2055 S 190.776 3.59729 -3.96681 0
M  V30 2056 C 191.932 4.99323 -3.77395 0
M  V30 2057 H 192.165 1.82652 -2.34575 0
M  V30 2058 H 189.698 0.852062 -1.2876 0
M  V30 2059 H 191.656 3.96575 -1.06012 0
M  V30 2060 H 190.317 3.13164 -0.242279 0
M  V30 2061 H 189.51 4.5595 -2.1477 0
M  V30 2062 H 189.112 2.84792 -2.42425 0
M  V30 2063 H 191.404 5.87202 -3.37935 0
M  V30 2064 H 192.347 5.23763 -4.76527 0
M  V30 2065 H 192.755 4.71498 -3.10403 0
M  V30 2066 N 192.153 1.28127 0.917671 0
M  V30 2067 C 193.564 1.13622 1.48145 0
M  V30 2068 C 193.915 -0.275207 1.9426 0
M  V30 2069 O 193.04 -1.1691 1.82102 0
M  V30 2070 C 193.635 2.05648 2.69248 0
M  V30 2071 C 192.194 1.95219 3.21818 0
M  V30 2072 C 191.341 1.97618 1.94532 0
M  V30 2073 H 194.292 1.40874 0.730772 0
M  V30 2074 H 194.313 1.61818 3.44377 0
M  V30 2075 H 193.825 3.08365 2.35653 0
M  V30 2076 H 191.926 0.955244 3.60147 0
M  V30 2077 H 192.039 2.81976 3.87333 0
M  V30 2078 H 190.403 1.41973 2.11461 0
M  V30 2079 H 191.186 3.02007 1.63238 0
M  V30 2080 N 193.631 -1.12557 1.10312 0
M  V30 2081 C 194.579 -2.20325 0.745629 0
M  V30 2082 C 195.573 -1.67429 -0.25763 0
M  V30 2083 O 196.779 -1.79612 -0.118132 0
M  V30 2084 H 193.154 -0.718118 0.223182 0
M  V30 2085 H 195.125 -2.47733 1.66346 0
M  V30 2086 C 193.874 -3.47168 0.192262 0
M  V30 2087 H 193.197 -3.88215 0.955475 0
M  V30 2088 H 194.637 -4.23995 -0.0198274 0
M  V30 2089 C 193.096 -3.19298 -1.07472 0
M  V30 2090 O 193.626 -3.3891 -2.15645 0
M  V30 2091 N 191.832 -2.73113 -0.992847 0
M  V30 2092 H 191.379 -2.57354 -0.112474 0
M  V30 2093 H 191.337 -2.54842 -1.84127 0
M  V30 2094 N 195.109 -0.891671 -1.2995 0
M  V30 2095 C 196.039 -0.379797 -2.30391 0
M  V30 2096 C 197.02 0.540919 -1.6127 0
M  V30 2097 O 198.205 0.453352 -1.88834 0
M  V30 2098 C 195.335 0.400654 -3.44981 0
M  V30 2099 C 194.289 -0.428905 -4.25846 0
M  V30 2100 C 193.615 0.478557 -5.32554 0
M  V30 2101 C 194.915 -1.67458 -4.94727 0
M  V30 2102 H 196.609 -1.21914 -2.73454 0
M  V30 2103 H 194.155 -0.587675 -1.31462 0
M  V30 2104 H 196.108 0.769434 -4.14316 0
M  V30 2105 H 194.832 1.27371 -3.0074 0
M  V30 2106 H 193.491 -0.779911 -3.58208 0
M  V30 2107 H 193.139 1.34951 -4.84559 0
M  V30 2108 H 192.839 -0.0727433 -5.87555 0
M  V30 2109 H 194.363 0.843705 -6.04743 0
M  V30 2110 H 195.777 -1.376 -5.56542 0
M  V30 2111 H 194.174 -2.16659 -5.59624 0
M  V30 2112 H 195.244 -2.41518 -4.20473 0
M  V30 2113 N 196.587 1.43421 -0.653314 0
M  V30 2114 C 197.817 2.05864 -0.174238 0
M  V30 2115 C 198.225 1.49052 1.16534 0
M  V30 2116 O 197.568 0.616481 1.73047 0
M  V30 2117 C 197.63 3.59499 -0.00875873 0
M  V30 2118 C 197.294 4.38893 -1.27364 0
M  V30 2119 C 198.291 4.70947 -2.20239 0
M  V30 2120 C 195.976 4.789 -1.51525 0
M  V30 2121 C 197.97 5.41916 -3.35568 0
M  V30 2122 C 195.657 5.49614 -2.67147 0
M  V30 2123 C 196.655 5.81044 -3.58994 0
M  V30 2124 O 196.343 6.50313 -4.72597 0
M  V30 2125 H 196.075 0.670345 -0.0872549 0
M  V30 2126 H 198.629 1.84913 -0.894226 0
M  V30 2127 H 196.859 3.79025 0.7666 0
M  V30 2128 H 198.548 4.0364 0.427687 0
M  V30 2129 H 199.314 4.40558 -2.02815 0
M  V30 2130 H 195.193 4.53843 -0.809158 0
M  V30 2131 H 198.737 5.66365 -4.07279 0
M  V30 2132 H 194.634 5.79419 -2.84505 0
M  V30 2133 H 195.402 6.68795 -4.71864 0
M  V30 2134 N 198.065 0.39524 1.52563 0
M  V30 2135 C 198.997 -0.472201 2.24283 0
M  V30 2136 C 200.01 -1.02178 1.26742 0
M  V30 2137 O 201.199 -0.923097 1.52778 0
M  V30 2138 C 198.299 -1.66775 2.95024 0
M  V30 2139 C 197.472 -1.2445 4.19322 0
M  V30 2140 C 196.531 -2.30539 4.7301 0
M  V30 2141 O 195.557 -1.91702 5.35947 0
M  V30 2142 N 196.759 -3.6253 4.53379 0
M  V30 2143 H 199.524 0.142282 2.99362 0
M  V30 2144 H 197.085 0.2219 1.60372 0
M  V30 2145 H 199.077 -2.37283 3.27839 0
M  V30 2146 H 197.647 -2.18845 2.23217 0
M  V30 2147 H 196.867 -0.368069 3.92478 0
M  V30 2148 H 198.155 -0.938457 5.0007 0
M  V30 2149 H 197.553 -3.96841 4.03154 0
M  V30 2150 H 196.11 -4.29055 4.90668 0
M  V30 2151 N 199.544 -1.57102 0.125237 0
M  V30 2152 C 200.491 -2.15641 -0.822655 0
M  V30 2153 C 201.461 -1.08313 -1.25927 0
M  V30 2154 O 202.646 -1.36251 -1.33567 0
M  V30 2155 C 199.786 -2.76504 -2.06494 0
M  V30 2156 C 198.899 -3.98158 -1.67612 0
M  V30 2157 C 198.034 -4.47088 -2.86854 0
M  V30 2158 C 197.073 -5.6126 -2.44242 0
M  V30 2159 N 196.21 -6.04905 -3.56419 0
M  V30 2160 H 201.05 -2.96313 -0.316625 0
M  V30 2161 H 198.587 -1.46388 -0.144588 0
M  V30 2162 H 200.545 -3.09925 -2.79289 0
M  V30 2163 H 199.175 -1.98512 -2.54545 0
M  V30 2164 H 198.227 -3.70858 -0.846661 0
M  V30 2165 H 199.539 -4.80934 -1.32301 0
M  V30 2166 H 198.693 -4.82451 -3.67867 0
M  V30 2167 H 197.432 -3.63275 -3.25396 0
M  V30 2168 H 196.437 -5.25495 -1.61663 0
M  V30 2169 H 197.662 -6.46843 -2.0681 0
M  V30 2170 H 195.608 -5.24032 -3.94623 0
M  V30 2171 H 195.525 -6.82552 -3.25051 0
M  V30 2172 H 196.793 -6.44907 -4.37853 0
M  V30 2173 N 201.022 0.148545 -1.56898 0
M  V30 2174 C 201.952 1.18524 -2.01182 0
M  V30 2175 C 202.933 1.4489 -0.891123 0
M  V30 2176 O 204.118 1.55836 -1.15882 0
M  V30 2177 C 201.248 2.51879 -2.39112 0
M  V30 2178 C 200.202 2.40038 -3.54353 0
M  V30 2179 C 199.528 3.78089 -3.78091 0
M  V30 2180 C 200.828 1.88577 -4.87069 0
M  V30 2181 H 202.522 0.817029 -2.88036 0
M  V30 2182 H 200.068 0.391575 -1.38574 0
M  V30 2183 H 202.021 3.24627 -2.68692 0
M  V30 2184 H 200.745 2.90532 -1.49193 0
M  V30 2185 H 199.404 1.69742 -3.24936 0
M  V30 2186 H 199.052 4.14175 -2.85426 0
M  V30 2187 H 198.752 3.71028 -4.55645 0
M  V30 2188 H 200.276 4.52387 -4.10095 0
M  V30 2189 H 201.69 2.51117 -5.15377 0
M  V30 2190 H 200.087 1.9241 -5.68417 0
M  V30 2191 H 201.157 0.84136 -4.77545 0
M  V30 2192 N 202.5 1.5196 0.417844 0
M  V30 2193 C 203.41 1.77554 1.53336 0
M  V30 2194 C 204.426 0.660655 1.6097 0
M  V30 2195 O 205.602 0.945099 1.77848 0
M  V30 2196 C 202.667 1.91291 2.89152 0
M  V30 2197 C 201.728 3.15183 2.91475 0
M  V30 2198 C 200.961 3.28256 4.20813 0
M  V30 2199 O 201.184 2.46798 5.14244 0
M  V30 2200 O 200.118 4.21356 4.29817 0
M  V30 2201 H 203.944 2.7222 1.34647 0
M  V30 2202 H 201.529 1.36698 0.602828 0
M  V30 2203 H 203.411 2.02199 3.69721 0
M  V30 2204 H 202.086 0.998129 3.07927 0
M  V30 2205 H 200.993 3.09739 2.09791 0
M  V30 2206 H 202.326 4.06414 2.77648 0
M  V30 2207 N 203.978 -0.674533 1.42435 0
M  V30 2208 C 205.203 -1.46784 1.46524 0
M  V30 2209 C 205.628 -1.87938 0.078066 0
M  V30 2210 O 204.986 -1.56014 -0.92354 0
M  V30 2211 C 205.034 -2.69307 2.39805 0
M  V30 2212 O 204.138 -3.67587 1.86959 0
M  V30 2213 H 203.479 -0.440959 0.496439 0
M  V30 2214 H 206.009 -0.827326 1.87127 0
M  V30 2215 H 206.019 -3.17374 2.56393 0
M  V30 2216 H 204.694 -2.38692 3.40586 0
M  V30 2217 H 203.271 -3.2662 1.79927 0
M  V30 2218 N 205.456 -1.28612 -0.910864 0
M  V30 2219 C 206.733 -1.06632 -1.63979 0
M  V30 2220 C 207.113 0.393351 -2.07403 0
M  V30 2221 O 206.461 1.37999 -1.82122 0
M  V30 2222 C 206.671 -2.0436 -2.8291 0
M  V30 2223 C 208.019 -2.34666 -3.5386 0
M  V30 2224 O 209.043 -2.02467 -2.93062 0
M  V30 2225 O 207.902 -2.89631 -4.63439 0
M  V30 2226 H 204.996 -0.407737 -0.7195 0
M  V30 2227 H 207.542 -1.39942 -0.959914 0
M  V30 2228 H 206.314 -3.02727 -2.47936 0
M  V30 2229 H 205.937 -1.71714 -3.58609 0
M  V30 2230 N 206.934 1.1197 -1.10907 0
M  V30 2231 C 208.345 1.65114 -0.871446 0
M  V30 2232 C 208.696 1.86885 0.597353 0
M  V30 2233 O 207.821 1.59896 1.45816 0
M  V30 2234 C 208.416 2.99944 -1.5754 0
M  V30 2235 C 206.975 3.50018 -1.38435 0
M  V30 2236 C 206.122 2.24941 -1.62164 0
M  V30 2237 H 209.073 0.956851 -1.2661 0
M  V30 2238 H 209.094 3.66651 -1.01721 0
M  V30 2239 H 208.606 2.84067 -2.64438 0
M  V30 2240 H 206.707 3.71071 -0.337214 0
M  V30 2241 H 206.82 4.29165 -2.12965 0
M  V30 2242 H 205.184 2.3229 -1.04467 0
M  V30 2243 H 205.967 2.11612 -2.70324 0
M  V30 2244 N 208.412 0.89855 1.29475 0
M  V30 2245 C 209.828 0.594483 1.48115 0
M  V30 2246 C 210.028 -0.86431 1.82022 0
M  V30 2247 O 209.084 -1.64457 1.91599 0
M  V30 2248 C 210.397 1.51932 2.59494 0
M  V30 2249 C 211.945 1.5244 2.7337 0
M  V30 2250 C 212.42 2.43548 3.87877 0
M  V30 2251 N 213.911 2.41589 3.95208 0
M  V30 2252 C 214.646 3.08789 4.83153 0
M  V30 2253 N 214.142 3.85265 5.75798 0
M  V30 2254 N 215.935 2.97952 4.76635 0
M  V30 2255 H 208.086 1.84207 1.05742 0
M  V30 2256 H 210.349 0.789251 0.525154 0
M  V30 2257 H 210.055 2.55865 2.41301 0
M  V30 2258 H 209.929 1.23899 3.56271 0
M  V30 2259 H 212.316 0.492518 2.90961 0
M  V30 2260 H 212.397 1.8451 1.77172 0
M  V30 2261 H 212.041 3.46829 3.71041 0
M  V30 2262 H 211.971 2.08788 4.83441 0
M  V30 2263 H 214.462 1.86025 3.28943 0
M  V30 2264 H 214.775 4.33598 6.39697 0
M  V30 2265 H 213.12 3.89371 5.75687 0
M  V30 2266 H 216.311 2.37723 4.03244 0
M  V30 2267 H 216.484 3.50599 5.44962 0
M  V30 2268 N 209.89 -1.43072 0.660911 0
M  V30 2269 C 211.118 -2.06067 0.185422 0
M  V30 2270 C 211.533 -1.49582 -1.15198 0
M  V30 2271 O 210.89 -0.630134 -1.71276 0
M  V30 2272 C 210.941 -3.61371 0.0966523 0
M  V30 2273 O 210.662 -4.15758 1.38119 0
M  V30 2274 C 212.163 -4.41455 -0.403996 0
M  V30 2275 H 209.383 -0.664459 0.0934604 0
M  V30 2276 H 211.927 -1.83447 0.90373 0
M  V30 2277 H 210.082 -3.8315 -0.572259 0
M  V30 2278 H 210.496 -5.09499 1.24542 0
M  V30 2279 H 211.97 -5.50437 -0.415045 0
M  V30 2280 H 212.447 -4.15036 -1.43674 0
M  V30 2281 H 213.053 -4.24663 0.232691 0
M  V30 2282 N 211.368 -0.403325 -1.52352 0
M  V30 2283 C 212.784 -0.0539281 -1.59509 0
M  V30 2284 C 212.984 1.43307 -1.41652 0
M  V30 2285 O 212.04 2.19924 -1.24056 0
M  V30 2286 C 213.353 -0.543654 -2.95745 0
M  V30 2287 C 214.901 -0.501125 -3.08962 0
M  V30 2288 C 215.376 -0.967267 -4.47669 0
M  V30 2289 N 216.867 -0.923849 -4.53893 0
M  V30 2290 C 217.602 -1.25578 -5.5948 0
M  V30 2291 N 217.098 -1.65889 -6.72646 0
M  V30 2292 N 218.891 -1.17613 -5.49658 0
M  V30 2293 H 211.042 -1.37123 -1.62206 0
M  V30 2294 H 213.305 -0.56294 -0.76276 0
M  V30 2295 H 213.011 -1.58275 -3.14073 0
M  V30 2296 H 212.885 0.0498042 -3.77167 0
M  V30 2297 H 215.272 0.528909 -2.90321 0
M  V30 2298 H 215.353 -1.13056 -2.2946 0
M  V30 2299 H 214.997 -1.9956 -4.67053 0
M  V30 2300 H 214.927 -0.314698 -5.25659 0
M  V30 2301 H 217.418 -0.627403 -3.72655 0
M  V30 2302 H 217.731 -1.89543 -7.49195 0
M  V30 2303 H 216.076 -1.69787 -6.73942 0
M  V30 2304 H 219.267 -0.860115 -4.6013 0
M  V30 2305 H 219.44 -1.43812 -6.3184 0
M  V30 2306 N 212.846 1.57033 -0.133567 0
M  V30 2307 C 214.074 2.00044 0.528195 0
M  V30 2308 C 214.489 1.01349 1.59291 0
M  V30 2309 O 213.846 0.00848369 1.82498 0
M  V30 2310 C 213.897 3.43018 1.1411 0
M  V30 2311 O 213.618 4.37939 0.11892 0
M  V30 2312 C 215.119 4.01237 1.88477 0
M  V30 2313 H 212.339 0.656517 0.138661 0
M  V30 2314 H 214.883 2.03267 -0.224196 0
M  V30 2315 H 213.038 3.40688 1.84418 0
M  V30 2316 H 213.452 5.21436 0.56613 0
M  V30 2317 H 214.926 5.03314 2.26669 0
M  V30 2318 H 215.403 3.41193 2.76558 0
M  V30 2319 H 216.009 4.07156 1.22898 0
M  V30 2320 N 214.325 -0.140222 1.56975 0
M  V30 2321 C 215.255 -1.17456 2.01808 0
M  V30 2322 C 216.236 -1.44415 0.898794 0
M  V30 2323 O 217.421 -1.5522 1.16707 0
M  V30 2324 C 214.551 -2.50607 2.40444 0
M  V30 2325 C 213.505 -2.38155 3.55621 0
M  V30 2326 C 212.831 -3.76078 3.80091 0
M  V30 2327 C 214.131 -1.85991 4.88062 0
M  V30 2328 H 215.825 -0.801743 2.88466 0
M  V30 2329 H 213.371 -0.38422 1.38779 0
M  V30 2330 H 215.324 -3.23197 2.7041 0
M  V30 2331 H 214.048 -2.89737 1.50732 0
M  V30 2332 H 212.707 -1.68016 3.25832 0
M  V30 2333 H 212.355 -4.12656 2.87618 0
M  V30 2334 H 212.055 -3.68606 4.57606 0
M  V30 2335 H 213.579 -4.50206 4.12488 0
M  V30 2336 H 214.993 -2.4838 5.16701 0
M  V30 2337 H 213.39 -1.89393 5.6943 0
M  V30 2338 H 214.46 -0.816023 4.77984 0
M  V30 2339 N 215.803 -1.52179 -0.40978 0
M  V30 2340 C 216.733 -1.78435 -1.5061 0
M  V30 2341 C 217.714 -0.635295 -1.57791 0
M  V30 2342 O 218.899 -0.880823 -1.73076 0
M  V30 2343 C 216.029 -1.93444 -2.88439 0
M  V30 2344 C 214.983 -3.09038 -2.96108 0
M  V30 2345 C 214.309 -3.09268 -4.36185 0
M  V30 2346 C 215.609 -4.48508 -2.67652 0
M  V30 2347 H 217.303 -2.70237 -1.28889 0
M  V30 2348 H 214.849 -1.30036 -0.618605 0
M  V30 2349 H 216.802 -2.10394 -3.65119 0
M  V30 2350 H 215.526 -0.983129 -3.11452 0
M  V30 2351 H 214.185 -2.91837 -2.21872 0
M  V30 2352 H 213.833 -2.11861 -4.56206 0
M  V30 2353 H 213.533 -3.86907 -4.42241 0
M  V30 2354 H 215.057 -3.28348 -5.14801 0
M  V30 2355 H 216.471 -4.65918 -3.34056 0
M  V30 2356 H 214.868 -5.28059 -2.85085 0
M  V30 2357 H 215.938 -4.56649 -1.63095 0
M  V30 2358 N 217.281 0.66697 -1.42791 0
M  V30 2359 C 218.506 1.46004 -1.47301 0
M  V30 2360 C 218.931 1.87894 -0.0880317 0
M  V30 2361 O 218.289 1.56502 0.915253 0
M  V30 2362 C 218.337 2.68031 -2.41229 0
M  V30 2363 O 217.441 3.6659 -1.88906 0
M  V30 2364 H 216.782 0.43832 -0.49877 0
M  V30 2365 H 219.312 0.817391 -1.87563 0
M  V30 2366 H 219.322 3.1601 -2.58073 0
M  V30 2367 H 217.997 2.36883 -3.41847 0
M  V30 2368 H 216.574 3.25661 -1.81656 0
M  V30 2369 N 218.759 1.29093 0.90403 0
M  V30 2370 C 220.036 1.075 1.63411 0
M  V30 2371 C 220.416 -0.382346 2.07609 0
M  V30 2372 O 219.764 -1.37031 1.82851 0
M  V30 2373 C 219.974 2.05858 2.81822 0
M  V30 2374 C 221.322 2.36539 3.52611 0
M  V30 2375 O 222.346 2.04019 2.91984 0
M  V30 2376 O 221.205 2.92085 4.61897 0
M  V30 2377 H 218.299 0.411547 0.717327 0
M  V30 2378 H 220.845 1.40449 0.952479 0
M  V30 2379 H 219.617 3.04037 2.46327 0
M  V30 2380 H 219.24 1.73613 3.57693 0
M  V30 2381 N 220.237 -1.11381 1.11499 0
M  V30 2382 C 221.648 -1.6465 0.880191 0
M  V30 2383 C 221.999 -1.87199 -0.587434 0
M  V30 2384 O 221.124 -1.60667 -1.44966 0
M  V30 2385 C 221.719 -2.99105 1.59128 0
M  V30 2386 C 220.278 -3.49279 1.40289 0
M  V30 2387 C 219.425 -2.24077 1.63354 0
M  V30 2388 H 222.376 -0.950123 1.27116 0
M  V30 2389 H 222.397 -3.66107 1.03664 0
M  V30 2390 H 221.909 -2.82661 2.65941 0
M  V30 2391 H 220.01 -3.70887 0.356888 0
M  V30 2392 H 220.123 -4.2803 2.15238 0
M  V30 2393 H 218.487 -2.31733 1.05698 0
M  V30 2394 H 219.27 -2.10175 2.71443 0
M  V30 2395 N 221.715 -0.905404 -1.28997 0
M  V30 2396 C 222.943 -0.549846 -1.9946 0
M  V30 2397 C 223.358 0.866834 -1.67724 0
M  V30 2398 O 222.715 1.57298 -0.925404 0
M  V30 2399 C 222.766 -0.739387 -3.53858 0
M  V30 2400 O 222.487 -2.10031 -3.84472 0
M  V30 2401 C 223.988 -0.389541 -4.41585 0
M  V30 2402 H 221.208 -0.210429 -0.637151 0
M  V30 2403 H 223.752 -1.21632 -1.64396 0
M  V30 2404 H 221.907 -0.120023 -3.87214 0
M  V30 2405 H 222.321 -2.13385 -4.79132 0
M  V30 2406 H 223.795 -0.572972 -5.49018 0
M  V30 2407 H 224.272 0.673756 -4.34001 0
M  V30 2408 H 224.878 -0.986089 -4.1371 0
M  V30 2409 N 223.193 1.4272 -0.668489 0
M  V30 2410 C 224.423 2.05668 -0.196063 0
M  V30 2411 C 224.831 1.5028 1.14946 0
M  V30 2412 O 224.174 0.6348 1.72383 0
M  V30 2413 C 224.236 3.59469 -0.0468879 0
M  V30 2414 C 223.9 4.37518 -1.32012 0
M  V30 2415 C 224.897 4.68584 -2.25222 0
M  V30 2416 C 222.582 4.77266 -1.56596 0
M  V30 2417 C 224.576 5.38326 -3.41297 0
M  V30 2418 C 222.263 5.4675 -2.72962 0
M  V30 2419 C 223.261 5.77204 -3.65137 0
M  V30 2420 O 222.949 6.45264 -4.79468 0
M  V30 2421 H 222.681 0.669382 -0.0943599 0
M  V30 2422 H 225.235 1.83954 -0.913788 0
M  V30 2423 H 223.465 3.79817 0.726357 0
M  V30 2424 H 225.154 4.04071 0.384852 0
M  V30 2425 H 225.92 4.38382 -2.07477 0
M  V30 2426 H 221.799 4.52959 -0.857249 0
M  V30 2427 H 225.343 5.62014 -4.13263 0
M  V30 2428 H 221.24 5.76369 -2.90635 0
M  V30 2429 H 222.008 6.63753 -4.78931 0
M  V30 2430 N 224.671 0.411399 1.52136 0
M  V30 2431 C 226.087 0.0623865 1.59478 0
M  V30 2432 C 226.287 -1.42554 1.4241 0
M  V30 2433 O 225.343 -2.19263 1.2522 0
M  V30 2434 C 226.656 0.559331 2.95452 0
M  V30 2435 C 228.204 0.517503 3.08692 0
M  V30 2436 C 228.679 0.990994 4.4715 0
M  V30 2437 N 230.17 0.947908 4.53397 0
M  V30 2438 C 230.905 1.28544 5.58806 0
M  V30 2439 N 230.401 1.69454 6.71757 0
M  V30 2440 N 232.194 1.20526 5.49026 0
M  V30 2441 H 224.345 1.37982 1.61477 0
M  V30 2442 H 226.608 0.566977 0.759764 0
M  V30 2443 H 226.314 1.59938 3.1323 0
M  V30 2444 H 226.188 -0.0298014 3.77188 0
M  V30 2445 H 228.575 -0.513505 2.90598 0
M  V30 2446 H 228.656 1.14272 2.28857 0
M  V30 2447 H 228.3 2.02034 4.65988 0
M  V30 2448 H 228.23 0.34257 5.25485 0
M  V30 2449 H 230.721 0.647157 3.72317 0
M  V30 2450 H 231.034 1.93513 7.48179 0
M  V30 2451 H 229.379 1.73359 6.73032 0
M  V30 2452 H 232.57 0.884505 4.59667 0
M  V30 2453 H 232.743 1.47161 6.31069 0
M  V30 2454 N 226.149 -1.5696 0.141893 0
M  V30 2455 C 227.059 -2.20066 -0.812905 0
M  V30 2456 C 228.075 -1.18344 -1.27557 0
M  V30 2457 O 229.251 -1.50902 -1.33381 0
M  V30 2458 C 226.316 -2.80583 -2.03652 0
M  V30 2459 C 225.377 -3.97414 -1.62359 0
M  V30 2460 C 224.61 -4.55036 -2.78887 0
M  V30 2461 O 224.833 -4.11538 -3.94959 0
M  V30 2462 O 223.767 -5.45376 -2.54653 0
M  V30 2463 H 227.593 -3.02157 -0.305746 0
M  V30 2464 H 225.178 -1.49159 -0.0848799 0
M  V30 2465 H 227.06 -3.19067 -2.75272 0
M  V30 2466 H 225.735 -2.01508 -2.5333 0
M  V30 2467 H 224.642 -3.63656 -0.877775 0
M  V30 2468 H 225.975 -4.77994 -1.17401 0
M  V30 2469 N 227.627 0.131896 -1.57047 0
M  V30 2470 C 228.557 1.16384 -2.02428 0
M  V30 2471 C 229.538 1.43936 -0.90644 0
M  V30 2472 O 230.723 1.54599 -1.17528 0
M  V30 2473 C 227.853 2.49328 -2.4177 0
M  V30 2474 C 226.807 2.36266 -3.56879 0
M  V30 2475 C 226.133 3.74057 -3.8208 0
M  V30 2476 C 227.433 1.834 -4.89042 0
M  V30 2477 H 229.127 0.786433 -2.88887 0
M  V30 2478 H 226.673 0.376855 -1.38981 0
M  V30 2479 H 228.626 3.21759 -2.7212 0
M  V30 2480 H 227.35 2.88934 -1.52266 0
M  V30 2481 H 226.009 1.66286 -3.26718 0
M  V30 2482 H 225.657 4.11125 -2.89803 0
M  V30 2483 H 225.357 3.66174 -4.59554 0
M  V30 2484 H 226.881 4.48012 -4.1487 0
M  V30 2485 H 228.295 2.45636 -5.18011 0
M  V30 2486 H 226.692 1.8637 -5.70426 0
M  V30 2487 H 227.762 0.790662 -4.7841 0
M  V30 2488 N 229.106 1.52395 0.401703 0
M  V30 2489 C 230.355 1.66044 1.14509 0
M  V30 2490 C 230.668 0.400216 1.91462 0
M  V30 2491 O 231.874 0.416632 2.68284 0
M  V30 2492 C 230.33 2.93388 2.0845 0
M  V30 2493 C 229.938 4.26545 1.36978 0
M  V30 2494 C 231.682 3.16402 2.83001 0
M  V30 2495 C 229.589 5.45007 2.29611 0
M  V30 2496 H 228.519 0.618562 0.431158 0
M  V30 2497 H 231.17 1.78886 0.40892 0
M  V30 2498 H 229.552 2.74263 2.8565 0
M  V30 2499 H 230.726 4.56179 0.650916 0
M  V30 2500 H 229.041 4.09692 0.74438 0
M  V30 2501 H 231.638 4.02085 3.52465 0
M  V30 2502 H 231.981 2.30943 3.46368 0
M  V30 2503 H 232.514 3.36034 2.12898 0
M  V30 2504 H 229.253 6.32835 1.70879 0
M  V30 2505 H 228.773 5.19702 2.9945 0
M  V30 2506 H 230.452 5.7838 2.89974 0
M  V30 2507 N 230.584 -0.659388 1.43143 0
M  V30 2508 C 231.494 -1.80167 1.50256 0
M  V30 2509 C 232.51 -1.69571 0.390106 0
M  V30 2510 O 233.686 -1.90849 0.643319 0
M  V30 2511 C 230.751 -3.16409 1.41725 0
M  V30 2512 C 229.812 -3.38848 2.63591 0
M  V30 2513 C 229.045 -4.68591 2.55458 0
M  V30 2514 O 229.268 -5.47532 1.59891 0
M  V30 2515 O 228.202 -4.92614 3.45854 0
M  V30 2516 H 232.028 -1.77121 2.46702 0
M  V30 2517 H 229.613 -0.817092 1.25076 0
M  V30 2518 H 231.495 -3.9768 1.39387 0
M  V30 2519 H 230.17 -3.20059 0.484118 0
M  V30 2520 H 229.077 -2.57366 2.71502 0
M  V30 2521 H 230.41 -3.4004 3.55856 0
M  V30 2522 N 232.062 -1.29571 -0.897171 0
M  V30 2523 C 232.994 -1.10724 -2.00681 0
M  V30 2524 C 234.007 -0.0540026 -1.6271 0
M  V30 2525 O 235.196 -0.298783 -1.75982 0
M  V30 2526 C 232.296 -0.663912 -3.32333 0
M  V30 2527 C 231.469 -1.79622 -3.98816 0
M  V30 2528 C 230.528 -1.34349 -5.0876 0
M  V30 2529 O 229.554 -2.04864 -5.31055 0
M  V30 2530 N 230.756 -0.215764 -5.80099 0
M  V30 2531 H 233.521 -2.06291 -2.17403 0
M  V30 2532 H 231.082 -1.21544 -1.06951 0
M  V30 2533 H 233.074 -0.344295 -4.03233 0
M  V30 2534 H 231.644 0.199375 -3.11964 0
M  V30 2535 H 230.864 -2.28459 -3.21248 0
M  V30 2536 H 232.152 -2.55535 -4.39976 0
M  V30 2537 H 231.55 0.372091 -5.64475 0
M  V30 2538 H 230.107 0.0444707 -6.51785 0
M  V30 2539 N 233.54 1.10788 -1.12088 0
M  V30 2540 C 234.47 2.19083 -0.807755 0
M  V30 2541 C 235.451 1.6858 0.226859 0
M  V30 2542 O 236.636 1.93997 0.0888475 0
M  V30 2543 C 233.766 3.46344 -0.257576 0
M  V30 2544 C 232.72 4.101 -1.22483 0
M  V30 2545 C 232.046 5.32016 -0.535052 0
M  V30 2546 C 233.346 4.54236 -2.57811 0
M  V30 2547 H 235.04 2.45534 -1.71328 0
M  V30 2548 H 232.586 1.1801 -0.825205 0
M  V30 2549 H 234.539 4.21392 -0.0262679 0
M  V30 2550 H 233.263 3.19373 0.683278 0
M  V30 2551 H 231.922 3.37054 -1.44189 0
M  V30 2552 H 231.57 5.01319 0.410827 0
M  V30 2553 H 231.27 5.75625 -1.18024 0
M  V30 2554 H 232.794 6.09799 -0.312695 0
M  V30 2555 H 234.208 5.20575 -2.40155 0
M  V30 2556 H 232.605 5.08682 -3.18375 0
M  V30 2557 H 233.675 3.6734 -3.16528 0
M  V30 2558 N 235.018 0.912232 1.28515 0
M  V30 2559 C 236.434 0.610159 1.47476 0
M  V30 2560 C 236.634 -0.844955 1.82928 0
M  V30 2561 O 235.69 -1.62416 1.93332 0
M  V30 2562 C 237.003 1.54675 2.57868 0
M  V30 2563 C 238.551 1.55331 2.71738 0
M  V30 2564 C 239.026 2.47649 3.85272 0
M  V30 2565 N 240.517 2.45767 3.92623 0
M  V30 2566 C 241.252 3.13896 4.79851 0
M  V30 2567 N 240.748 3.9135 5.71679 0
M  V30 2568 N 242.541 3.02991 4.73448 0
M  V30 2569 H 234.692 1.85318 1.03783 0
M  V30 2570 H 236.955 0.794777 0.516753 0
M  V30 2571 H 236.661 2.5841 2.38574 0
M  V30 2572 H 236.535 1.27671 3.54937 0
M  V30 2573 H 238.922 0.52335 2.90422 0
M  V30 2574 H 239.003 1.86378 1.75205 0
M  V30 2575 H 238.647 3.50745 3.67342 0
M  V30 2576 H 238.577 2.13904 4.81199 0
M  V30 2577 H 241.068 1.89503 3.26951 0
M  V30 2578 H 241.381 4.40359 6.35062 0
M  V30 2579 H 239.726 3.95455 5.71524 0
M  V30 2580 H 242.917 2.41987 4.007 0
M  V30 2581 H 243.09 3.5636 5.41213 0
M  V30 2582 N 236.496 -1.42363 0.676048 0
M  V30 2583 C 237.444 -2.32596 -0.0131507 0
M  V30 2584 C 238.438 -1.49891 -0.789238 0
M  V30 2585 O 239.644 -1.65955 -0.697061 0
M  V30 2586 H 236.019 -0.751647 -0.0230481 0
M  V30 2587 H 237.99 -2.88421 0.765243 0
M  V30 2588 C 236.739 -3.34479 -0.949702 0
M  V30 2589 H 236.062 -3.98158 -0.361938 0
M  V30 2590 H 237.502 -4.00199 -1.4006 0
M  V30 2591 C 235.961 -2.66838 -2.05667 0
M  V30 2592 O 236.491 -2.50124 -3.14326 0
M  V30 2593 N 234.697 -2.25843 -1.82875 0
M  V30 2594 H 234.244 -2.39637 -0.945085 0
M  V30 2595 H 234.202 -1.80918 -2.5713 0
M  V30 2596 N 237.974 -0.419461 -1.51915 0
M  V30 2597 C 238.921 0.400927 -2.27291 0
M  V30 2598 C 239.891 1.03224 -1.30131 0
M  V30 2599 O 241.076 1.05455 -1.59009 0
M  V30 2600 C 238.216 1.50603 -3.10504 0
M  V30 2601 C 237.329 0.89462 -4.22635 0
M  V30 2602 C 236.464 1.97328 -4.93189 0
M  V30 2603 C 235.503 1.33935 -5.97267 0
M  V30 2604 N 234.64 2.3586 -6.61298 0
M  V30 2605 H 239.48 -0.248251 -2.96964 0
M  V30 2606 H 237.017 -0.134266 -1.46486 0
M  V30 2607 H 238.975 2.15783 -3.57062 0
M  V30 2608 H 237.605 2.12509 -2.42981 0
M  V30 2609 H 236.657 0.131583 -3.80172 0
M  V30 2610 H 237.969 0.391641 -4.9726 0
M  V30 2611 H 237.123 2.70211 -5.43204 0
M  V30 2612 H 235.862 2.50994 -4.18155 0
M  V30 2613 H 234.867 0.595896 -5.46561 0
M  V30 2614 H 236.092 0.810252 -6.74249 0
M  V30 2615 H 234.038 2.88639 -5.89087 0
M  V30 2616 H 233.955 1.90403 -7.3163 0
M  V30 2617 H 235.223 3.08282 -7.15949 0
M  V30 2618 N 239.452 1.56882 -0.150215 0
M  V30 2619 C 240.863 1.82995 0.370076 0
M  V30 2620 C 241.214 1.06907 1.64515 0
M  V30 2621 O 240.339 0.315369 2.1409 0
M  V30 2622 C 240.934 3.31942 0.678208 0
M  V30 2623 C 239.493 3.58625 1.14301 0
M  V30 2624 C 238.64 2.76792 0.167778 0
M  V30 2625 H 241.591 1.54209 -0.374858 0
M  V30 2626 H 241.612 3.48272 1.53254 0
M  V30 2627 H 241.124 3.87294 -0.249991 0
M  V30 2628 H 239.225 3.08664 2.08704 0
M  V30 2629 H 239.338 4.67073 1.06676 0
M  V30 2630 H 237.702 2.45972 0.661037 0
M  V30 2631 H 238.485 3.34916 -0.754069 0
M  V30 2632 N 240.93 -0.123565 1.57115 0
M  V30 2633 C 242.155 -0.850398 1.89164 0
M  V30 2634 C 242.58 -1.7286 0.741688 0
M  V30 2635 O 241.938 -1.78665 -0.307958 0
M  V30 2636 C 241.986 -1.66353 3.19936 0
M  V30 2637 O 241.09 -2.77004 3.0552 0
M  V30 2638 H 240.431 -0.235454 0.620852 0
M  V30 2639 H 242.961 -0.107335 2.04318 0
M  V30 2640 H 242.971 -2.05372 3.52543 0
M  V30 2641 H 241.646 -1.01881 4.03228 0
M  V30 2642 H 240.223 -2.41221 2.84371 0
M  V30 2643 N 242.408 -1.52605 -0.393616 0
M  V30 2644 C 243.685 -1.58001 -1.15304 0
M  V30 2645 C 244.065 -0.370385 -2.07825 0
M  V30 2646 O 243.413 0.641638 -2.19306 0
M  V30 2647 C 243.623 -2.91652 -1.91677 0
M  V30 2648 C 244.971 -3.4522 -2.47201 0
M  V30 2649 O 245.995 -2.93495 -2.01839 0
M  V30 2650 O 244.854 -4.35579 -3.3005 0
M  V30 2651 H 241.948 -0.637068 -0.527327 0
M  V30 2652 H 244.494 -1.64939 -0.399141 0
M  V30 2653 H 243.266 -3.71136 -1.23992 0
M  V30 2654 H 242.889 -2.88077 -2.74039 0
M  V30 2655 N 243.887 0.651787 -1.4349 0
M  V30 2656 C 244.817 1.77621 -1.51569 0
M  V30 2657 C 245.798 1.66022 -0.370253 0
M  V30 2658 O 246.983 1.85095 -0.587658 0
M  V30 2659 C 244.113 3.16056 -1.43966 0
M  V30 2660 C 243.067 3.4242 -2.56774 0
M  V30 2661 C 242.393 4.8067 -2.34223 0
M  V30 2662 C 243.693 3.37023 -3.99015 0
M  V30 2663 H 245.387 1.71117 -2.45681 0
M  V30 2664 H 242.933 0.821825 -1.18246 0
M  V30 2665 H 244.886 3.94472 -1.48221 0
M  V30 2666 H 243.61 3.23293 -0.463586 0
M  V30 2667 H 242.269 2.66375 -2.51873 0
M  V30 2668 H 241.917 4.84585 -1.34856 0
M  V30 2669 H 241.617 4.9927 -3.09844 0
M  V30 2670 H 243.141 5.61342 -2.40265 0
M  V30 2671 H 244.555 4.05374 -4.05395 0
M  V30 2672 H 242.952 3.67159 -4.74673 0
M  V30 2673 H 244.022 2.3518 -4.2405 0
M  V30 2674 N 245.365 1.30045 0.890287 0
M  V30 2675 C 246.613 1.18327 1.63839 0
M  V30 2676 C 246.934 -0.263455 1.93212 0
M  V30 2677 O 246.204 -1.17856 1.56482 0
M  V30 2678 H 244.784 0.434933 0.607324 0
M  V30 2679 H 247.446 1.631 1.06698 0
M  V30 2680 H 246.542 1.74024 2.59079 0
M  V30 2681 N 246.843 -1.10192 1.12674 0
M  V30 2682 C 248.071 -1.85983 0.906527 0
M  V30 2683 C 248.486 -1.80783 -0.544333 0
M  V30 2684 O 247.843 -1.19834 -1.37645 0
M  V30 2685 C 247.894 -3.34281 1.37618 0
M  V30 2686 O 247.615 -3.39401 2.77017 0
M  V30 2687 C 249.116 -4.26938 1.19325 0
M  V30 2688 H 246.336 -0.587716 0.323775 0
M  V30 2689 H 248.88 -1.39284 1.49734 0
M  V30 2690 H 247.035 -3.78436 0.828539 0
M  V30 2691 H 247.449 -4.31838 2.97684 0
M  V30 2692 H 248.923 -5.29181 1.57071 0
M  V30 2693 H 249.4 -4.38995 0.134097 0
M  V30 2694 H 250.006 -3.8859 1.72852 0
M  V30 2695 N 248.321 -0.919034 -1.28029 0
M  V30 2696 C 249.268 -0.410005 -2.27129 0
M  V30 2697 C 250.238 0.518405 -1.57803 0
M  V30 2698 O 251.423 0.439451 -1.8567 0
M  V30 2699 C 248.563 0.339054 -3.4343 0
M  V30 2700 C 247.676 -0.622468 -4.27492 0
M  V30 2701 C 246.811 0.145567 -5.31001 0
M  V30 2702 C 245.85 -0.809226 -6.06727 0
M  V30 2703 N 244.987 -0.0743728 -7.02061 0
M  V30 2704 H 249.827 -1.26011 -2.70047 0
M  V30 2705 H 247.364 -0.632663 -1.328 0
M  V30 2706 H 249.322 0.789586 -4.0966 0
M  V30 2707 H 247.952 1.15346 -3.01488 0
M  V30 2708 H 247.004 -1.19153 -3.61257 0
M  V30 2709 H 248.316 -1.35252 -4.80113 0
M  V30 2710 H 247.47 0.656417 -6.03139 0
M  V30 2711 H 246.209 0.908643 -4.79161 0
M  V30 2712 H 245.214 -1.3314 -5.33436 0
M  V30 2713 H 246.439 -1.57194 -6.60656 0
M  V30 2714 H 244.385 0.670616 -6.52563 0
M  V30 2715 H 244.302 -0.744157 -7.52329 0
M  V30 2716 H 245.57 0.416109 -7.78389 0
M  V30 2717 N 249.799 1.42003 -0.683588 0
M  V30 2718 C 250.729 2.33487 -0.024866 0
M  V30 2719 C 251.71 1.51163 0.779975 0
M  V30 2720 O 252.895 1.79739 0.735362 0
M  V30 2721 C 250.025 3.3487 0.920836 0
M  V30 2722 C 248.979 4.27414 0.223958 0
M  V30 2723 C 248.305 5.19074 1.2832 0
M  V30 2724 C 249.605 5.14445 -0.90242 0
M  V30 2725 H 251.299 2.88819 -0.788921 0
M  V30 2726 H 248.845 1.38873 -0.38083 0
M  V30 2727 H 250.798 3.97787 1.39081 0
M  V30 2728 H 249.522 2.77861 1.71642 0
M  V30 2729 H 248.181 3.65904 -0.225864 0
M  V30 2730 H 247.829 4.58387 2.071 0
M  V30 2731 H 247.529 5.81822 0.821995 0
M  V30 2732 H 249.053 5.84867 1.75392 0
M  V30 2733 H 250.467 5.70998 -0.513272 0
M  V30 2734 H 248.864 5.86072 -1.28997 0
M  V30 2735 H 249.934 4.52322 -1.74737 0
M  V30 2736 N 251.277 0.427512 1.51691 0
M  V30 2737 C 252.209 -0.424521 2.25234 0
M  V30 2738 C 253.222 -0.994671 1.2888 0
M  V30 2739 O 254.411 -0.890483 1.54702 0
M  V30 2740 C 251.511 -1.60479 2.98496 0
M  V30 2741 C 250.684 -1.15527 4.21868 0
M  V30 2742 C 249.743 -2.20454 4.77793 0
M  V30 2743 O 248.769 -1.8029 5.39893 0
M  V30 2744 N 249.971 -3.52831 4.60967 0
M  V30 2745 H 252.736 0.205749 2.98993 0
M  V30 2746 H 250.297 0.255867 1.59865 0
M  V30 2747 H 252.289 -2.30276 3.32799 0
M  V30 2748 H 250.859 -2.14061 2.27809 0
M  V30 2749 H 250.079 -0.284736 3.9317 0
M  V30 2750 H 251.367 -0.832173 5.01949 0
M  V30 2751 H 250.765 -3.88201 4.11481 0
M  V30 2752 H 249.322 -4.18551 4.99658 0
M  V30 2753 N 252.755 -1.56801 0.158532 0
M  V30 2754 C 254.032 -1.88131 -0.535357 0
M  V30 2755 C 254.412 -1.06638 -1.82186 0
M  V30 2756 O 253.76 -0.156533 -2.27963 0
M  V30 2757 C 253.97 -3.39949 -0.789653 0
M  V30 2758 C 255.318 -4.09416 -1.12533 0
M  V30 2759 O 256.342 -3.45194 -0.878622 0
M  V30 2760 O 255.201 -5.22855 -1.59014 0
M  V30 2761 H 252.295 -0.780143 -0.27442 0
M  V30 2762 H 254.841 -1.68564 0.19601 0
M  V30 2763 H 253.613 -3.91115 0.120353 0
M  V30 2764 H 253.236 -3.65084 -1.57479 0
M  V30 2765 N 254.233 0.115231 -1.57178 0
M  V30 2766 C 255.644 0.67197 -1.74188 0
M  V30 2767 C 255.995 1.80125 -0.777777 0
M  V30 2768 O 255.12 2.16346 0.0484376 0
M  V30 2769 C 255.715 1.22573 -3.1585 0
M  V30 2770 C 254.274 1.72872 -3.34353 0
M  V30 2771 C 253.421 0.629972 -2.70049 0
M  V30 2772 H 256.372 -0.110712 -1.58313 0
M  V30 2773 H 256.393 2.09535 -3.17609 0
M  V30 2774 H 255.905 0.403598 -3.85996 0
M  V30 2775 H 254.006 2.5755 -2.69256 0
M  V30 2776 H 254.119 1.83557 -4.42542 0
M  V30 2777 H 252.483 1.0645 -2.31388 0
M  V30 2778 H 253.266 -0.181241 -3.42821 0
M  V30 2779 N 255.711 1.52812 0.385517 0
M  V30 2780 C 257.127 1.4214 0.725829 0
M  V30 2781 C 257.327 0.544589 1.94001 0
M  V30 2782 O 256.383 0.0193693 2.52493 0
M  V30 2783 C 257.696 2.85042 0.957668 0
M  V30 2784 C 259.244 2.94543 1.05892 0
M  V30 2785 C 259.719 4.38464 1.32337 0
M  V30 2786 N 261.21 4.41804 1.39151 0
M  V30 2787 C 261.945 5.5025 1.61285 0
M  V30 2788 N 261.441 6.68775 1.80866 0
M  V30 2789 N 263.234 5.37798 1.63492 0
M  V30 2790 H 255.385 2.08338 -0.413383 0
M  V30 2791 H 257.648 0.940016 -0.122775 0
M  V30 2792 H 257.354 3.51431 0.137568 0
M  V30 2793 H 257.228 3.27505 1.87137 0
M  V30 2794 H 259.615 2.28321 1.86959 0
M  V30 2795 H 259.696 2.55504 0.123057 0
M  V30 2796 H 259.34 5.05254 0.517793 0
M  V30 2797 H 259.27 4.75059 2.27214 0
M  V30 2798 H 261.761 3.56377 1.25713 0
M  V30 2799 H 262.074 7.47197 1.97271 0
M  V30 2800 H 260.419 6.71797 1.78083 0
M  V30 2801 H 263.61 4.44171 1.47749 0
M  V30 2802 H 263.783 6.22382 1.80402 0
M  V30 2803 N 257.189 -0.644168 1.43834 0
M  V30 2804 C 258.438 -1.39985 1.45214 0
M  V30 2805 C 258.751 -1.95421 0.0835494 0
M  V30 2806 O 259.957 -2.71488 -0.0251748 0
M  V30 2807 C 258.413 -2.53384 2.55587 0
M  V30 2808 C 258.021 -2.04517 3.98594 0
M  V30 2809 C 259.765 -3.30685 2.66172 0
M  V30 2810 C 257.672 -3.1518 5.00416 0
M  V30 2811 H 256.602 -0.526005 0.540218 0
M  V30 2812 H 259.253 -0.694367 1.69855 0
M  V30 2813 H 257.635 -3.26446 2.24163 0
M  V30 2814 H 258.809 -1.38405 4.39523 0
M  V30 2815 H 257.124 -1.40068 3.92135 0
M  V30 2816 H 259.721 -4.13158 3.39418 0
M  V30 2817 H 260.064 -3.79312 1.71546 0
M  V30 2818 H 260.597 -2.64708 2.96942 0
M  V30 2819 H 257.336 -2.71511 5.96625 0
M  V30 2820 H 256.856 -3.79974 4.64091 0
M  V30 2821 H 258.535 -3.80166 5.23529 0
M  V30 2822 N 258.668 -1.30515 -0.883378 0
M  V30 2823 C 259.601 -1.11359 -1.99184 0
M  V30 2824 C 260.579 -0.0207858 -1.62587 0
M  V30 2825 O 261.763 -0.174646 -1.87689 0
M  V30 2826 C 258.89 -0.69871 -3.31415 0
M  V30 2827 C 257.936 -1.79261 -3.86998 0
M  V30 2828 S 258.769 -3.39536 -4.14096 0
M  V30 2829 C 259.925 -2.99954 -5.49344 0
M  V30 2830 H 260.158 -2.052 -2.15128 0
M  V30 2831 H 257.691 -1.14847 -1.03196 0
M  V30 2832 H 259.649 -0.466075 -4.07846 0
M  V30 2833 H 258.31 0.220368 -3.13326 0
M  V30 2834 H 257.503 -1.45464 -4.82552 0
M  V30 2835 H 257.105 -1.97961 -3.17313 0
M  V30 2836 H 259.397 -2.48013 -6.30473 0
M  V30 2837 H 260.34 -3.9442 -5.8808 0
M  V30 2838 H 260.748 -2.37775 -5.1198 0
M  V30 2839 N 260.146 1.09593 -1.13257 0
M  V30 2840 C 261.374 1.855 -0.916378 0
M  V30 2841 C 261.789 1.81069 0.534738 0
M  V30 2842 O 261.146 1.20562 1.37007 0
M  V30 2843 C 261.197 3.33546 -1.39388 0
M  V30 2844 O 260.918 3.37927 -2.78813 0
M  V30 2845 C 262.419 4.26299 -1.21588 0
M  V30 2846 H 259.639 0.585991 -0.326887 0
M  V30 2847 H 262.183 1.38488 -1.5047 0
M  V30 2848 H 260.338 3.77992 -0.848597 0
M  V30 2849 H 260.752 4.30254 -2.9997 0
M  V30 2850 H 262.226 5.28341 -1.59876 0
M  V30 2851 H 262.703 4.38918 -0.157376 0
M  V30 2852 H 263.309 3.87668 -1.7491 0
M  V30 2853 N 261.624 0.925811 1.2754 0
M  V30 2854 C 262.852 0.581509 1.9856 0
M  V30 2855 C 263.267 -0.840041 1.69082 0
M  V30 2856 O 262.624 -1.55805 0.950312 0
M  V30 2857 C 262.675 0.795589 3.52637 0
M  V30 2858 O 262.396 2.16121 3.81082 0
M  V30 2859 C 263.897 0.459744 4.4091 0
M  V30 2860 H 261.117 0.220538 0.633722 0
M  V30 2861 H 263.661 1.24232 1.6244 0
M  V30 2862 H 261.816 0.18161 3.86974 0
M  V30 2863 H 262.23 2.2098 4.75676 0
M  V30 2864 H 263.704 0.660244 5.48037 0
M  V30 2865 H 264.181 -0.604625 4.35018 0
M  V30 2866 H 264.787 1.05178 4.12089 0
M  V30 2867 N 263.102 -1.41638 0.69111 0
M  V30 2868 C 264.032 -2.3347 0.037248 0
M  V30 2869 C 265.013 -1.51575 -0.771947 0
M  V30 2870 O 266.198 -1.80126 -0.72582 0
M  V30 2871 C 263.328 -3.35354 -0.903064 0
M  V30 2872 C 262.282 -4.27526 -0.201288 0
M  V30 2873 C 261.608 -5.19747 -1.25565 0
M  V30 2874 C 262.908 -5.13959 0.929689 0
M  V30 2875 H 264.602 -2.88397 0.804227 0
M  V30 2876 H 262.148 -1.38669 0.388189 0
M  V30 2877 H 264.101 -3.98519 -1.36969 0
M  V30 2878 H 262.825 -2.78767 -1.70166 0
M  V30 2879 H 261.484 -3.65779 0.245265 0
M  V30 2880 H 261.132 -4.59479 -2.04666 0
M  V30 2881 H 260.832 -5.8225 -0.791128 0
M  V30 2882 H 262.356 -5.85789 -1.72288 0
M  V30 2883 H 263.77 -5.70718 0.543546 0
M  V30 2884 H 262.167 -5.85379 1.32103 0
M  V30 2885 H 263.237 -4.51389 1.77133 0
M  V30 2886 N 264.58 -0.43555 -1.51462 0
M  V30 2887 C 265.805 0.132627 -2.06976 0
M  V30 2888 C 266.23 1.35848 -1.30104 0
M  V30 2889 O 265.588 1.78112 -0.338493 0
M  V30 2890 C 265.636 0.43523 -3.57964 0
M  V30 2891 O 264.74 1.52198 -3.83288 0
M  V30 2892 H 264.081 0.00265 -0.663995 0
M  V30 2893 H 266.611 -0.616369 -1.95095 0
M  V30 2894 H 266.621 0.686206 -4.02188 0
M  V30 2895 H 265.296 -0.460739 -4.1334 0
M  V30 2896 H 263.873 1.2611 -3.50928 0
M  V30 2897 N 266.058 1.56714 -0.166846 0
M  V30 2898 C 267.304 1.97039 0.479962 0
M  V30 2899 C 267.637 1.05264 1.63197 0
M  V30 2900 O 266.912 0.0988833 1.94248 0
M  V30 2901 C 267.195 3.46867 0.967212 0
M  V30 2902 C 267.048 4.49421 -0.18466 0
M  V30 2903 C 268.367 3.9968 1.84238 0
M  V30 2904 H 265.486 0.71641 0.172992 0
M  V30 2905 H 268.128 1.8832 -0.252079 0
M  V30 2906 H 266.278 3.54428 1.59101 0
M  V30 2907 H 267.95 4.53924 -0.821621 0
M  V30 2908 H 266.193 4.25573 -0.840837 0
M  V30 2909 H 266.864 5.51644 0.198317 0
M  V30 2910 H 269.34 3.94723 1.31655 0
M  V30 2911 H 268.216 5.04941 2.15234 0
M  V30 2912 H 268.477 3.43226 2.78654 0
M  V30 2913 N 267.536 -0.106894 1.57237 0
M  V30 2914 C 268.466 -1.13148 2.04254 0
M  V30 2915 C 269.447 -1.42476 0.929224 0
M  V30 2916 O 270.632 -1.52709 1.19973 0
M  V30 2917 C 267.762 -2.4545 2.45706 0
M  V30 2918 C 266.716 -2.30558 3.60592 0
M  V30 2919 C 266.042 -3.67931 3.87983 0
M  V30 2920 C 267.342 -1.75597 4.91897 0
M  V30 2921 H 269.036 -0.740374 2.90101 0
M  V30 2922 H 266.582 -0.354696 1.39563 0
M  V30 2923 H 268.535 -3.17389 2.77205 0
M  V30 2924 H 267.259 -2.86475 1.56843 0
M  V30 2925 H 265.918 -1.61067 3.29322 0
M  V30 2926 H 265.566 -4.06462 2.96306 0
M  V30 2927 H 265.266 -3.58817 4.65322 0
M  V30 2928 H 266.79 -4.41356 4.21945 0
M  V30 2929 H 268.204 -2.37364 5.21854 0
M  V30 2930 H 266.601 -1.77272 5.73319 0
M  V30 2931 H 267.671 -0.714451 4.79608 0
M  V30 2932 N 269.014 -1.53014 -0.377408 0
M  V30 2933 C 269.944 -1.81589 -1.46791 0
M  V30 2934 C 270.925 -0.668622 -1.56408 0
M  V30 2935 O 272.11 -0.917337 -1.71168 0
M  V30 2936 C 269.24 -1.99519 -2.8427 0
M  V30 2937 C 268.194 -3.15249 -2.89486 0
M  V30 2938 C 267.52 -3.18451 -4.29527 0
M  V30 2939 C 268.82 -4.54084 -2.58079 0
M  V30 2940 H 270.514 -2.7291 -1.23127 0
M  V30 2941 H 268.06 -1.31319 -0.590883 0
M  V30 2942 H 270.013 -2.18092 -3.60575 0
M  V30 2943 H 268.737 -1.04897 -3.09296 0
M  V30 2944 H 267.396 -2.96477 -2.15631 0
M  V30 2945 H 267.044 -2.2149 -4.5161 0
M  V30 2946 H 266.744 -3.962 -4.33934 0
M  V30 2947 H 268.268 -3.39193 -5.07721 0
M  V30 2948 H 269.682 -4.72899 -3.24098 0
M  V30 2949 H 268.079 -5.33987 -2.7382 0
M  V30 2950 H 269.149 -4.60006 -1.53372 0
M  V30 2951 N 270.492 0.636531 -1.44174 0
M  V30 2952 C 271.74 1.39343 -1.46383 0
M  V30 2953 C 272.061 1.94766 -0.0955715 0
M  V30 2954 O 271.331 1.75452 0.871395 0
M  V30 2955 H 269.911 0.517199 -0.538994 0
M  V30 2956 H 272.573 0.74957 -1.7991 0
M  V30 2957 H 271.669 2.22746 -2.18611 0
M  V30 2958 N 271.97 1.30982 0.876444 0
M  V30 2959 C 273.216 1.20474 1.63138 0
M  V30 2960 C 273.549 -0.238096 1.92735 0
M  V30 2961 O 272.824 -1.1692 1.55435 0
M  V30 2962 C 273.107 2.04244 2.96574 0
M  V30 2963 C 272.96 3.56793 2.73896 0
M  V30 2964 C 274.279 1.88684 3.97601 0
M  V30 2965 H 271.398 0.439001 0.591985 0
M  V30 2966 H 274.04 1.60704 1.01361 0
M  V30 2967 H 272.19 1.70063 3.493 0
M  V30 2968 H 273.862 4.01077 2.27892 0
M  V30 2969 H 272.105 3.80548 2.08245 0
M  V30 2970 H 272.776 4.10706 3.68815 0
M  V30 2971 H 275.252 2.18584 3.54062 0
M  V30 2972 H 274.128 2.4961 4.88862 0
M  V30 2973 H 274.389 0.848343 4.33884 0
M  V30 2974 N 273.449 -1.08991 1.13837 0
M  V30 2975 C 274.726 -1.77863 0.813876 0
M  V30 2976 C 275.106 -1.99375 -0.693746 0
M  V30 2977 O 274.454 -1.59875 -1.63255 0
M  V30 2978 C 274.664 -3.0986 1.60586 0
M  V30 2979 C 276.012 -3.84493 1.8014 0
M  V30 2980 O 277.036 -3.19624 1.57222 0
M  V30 2981 O 275.895 -5.00957 2.18413 0
M  V30 2982 H 272.989 -0.771589 0.297624 0
M  V30 2983 H 275.535 -1.15507 1.24323 0
M  V30 2984 H 274.307 -2.89715 2.63022 0
M  V30 2985 H 273.93 -3.79942 1.17173 0
M  V30 2986 N 274.927 -0.932562 -1.27047 0
M  V30 2987 C 275.857 -0.452902 -2.29066 0
M  V30 2988 C 276.838 0.489338 -1.62909 0
M  V30 2989 O 278.023 0.393046 -1.90181 0
M  V30 2990 C 275.153 0.290698 -3.46081 0
M  V30 2991 C 274.107 -0.564168 -4.24265 0
M  V30 2992 C 273.433 0.308886 -5.33807 0
M  V30 2993 C 274.733 -1.83112 -4.89149 0
M  V30 2994 H 276.427 -1.30552 -2.69437 0
M  V30 2995 H 273.973 -0.629201 -1.29526 0
M  V30 2996 H 275.926 0.637233 -4.16554 0
M  V30 2997 H 274.65 1.17738 -3.0464 0
M  V30 2998 H 273.309 -0.893477 -3.55545 0
M  V30 2999 H 272.957 1.19467 -4.88607 0
M  V30 3000 H 272.657 -0.259633 -5.87026 0
M  V30 3001 H 274.181 0.650884 -6.07121 0
M  V30 3002 H 275.595 -1.55236 -5.51883 0
M  V30 3003 H 273.992 -2.34353 -5.52448 0
M  V30 3004 H 275.062 -2.54772 -4.12576 0
M  V30 3005 N 276.405 1.4127 -0.698611 0
M  V30 3006 C 277.653 2.00782 -0.230409 0
M  V30 3007 C 277.974 1.5562 1.17505 0
M  V30 3008 O 277.244 0.78815 1.79346 0
M  V30 3009 H 275.824 0.742464 -0.0821944 0
M  V30 3010 H 278.486 1.72852 -0.90045 0
M  V30 3011 H 277.582 3.11095 -0.25021 0
M  V30 3012 N 277.883 0.443576 1.51229 0
M  V30 3013 C 279.108 -0.121648 2.07043 0
M  V30 3014 C 279.533 -1.35156 1.30823 0
M  V30 3015 O 278.891 -1.7793 0.347934 0
M  V30 3016 C 278.939 -0.41624 3.5819 0
M  V30 3017 O 278.043 -1.50163 3.8409 0
M  V30 3018 H 277.384 0.000871367 0.663999 0
M  V30 3019 H 279.914 0.626706 1.94765 0
M  V30 3020 H 279.924 -0.664867 4.02546 0
M  V30 3021 H 278.599 0.482653 4.1309 0
M  V30 3022 H 277.176 -1.24248 3.51592 0
M  V30 3023 N 279.361 -1.56624 0.175154 0
M  V30 3024 C 280.294 -2.14 -0.792412 0
M  V30 3025 C 281.272 -1.07114 -1.22333 0
M  V30 3026 O 282.456 -1.35112 -1.31442 0
M  V30 3027 C 279.583 -2.68268 -2.0676 0
M  V30 3028 C 278.629 -3.87562 -1.7804 0
M  V30 3029 S 279.462 -5.27074 -0.946222 0
M  V30 3030 C 280.618 -5.8475 -2.23199 0
M  V30 3031 H 280.851 -2.95736 -0.304588 0
M  V30 3032 H 278.384 -1.54349 -0.0395705 0
M  V30 3033 H 280.342 -3.00182 -2.80002 0
M  V30 3034 H 279.003 -1.86612 -2.52656 0
M  V30 3035 H 278.196 -4.23874 -2.72666 0
M  V30 3036 H 277.798 -3.56555 -1.12891 0
M  V30 3037 H 280.09 -5.97898 -3.18629 0
M  V30 3038 H 281.033 -6.81756 -1.91349 0
M  V30 3039 H 281.441 -5.13198 -2.35134 0
M  V30 3040 N 280.839 0.0985539 -1.57292 0
M  V30 3041 C 282.116 0.834155 -1.76921 0
M  V30 3042 C 282.496 1.97101 -0.755928 0
M  V30 3043 O 281.844 2.27474 0.216245 0
M  V30 3044 C 282.054 1.33194 -3.22584 0
M  V30 3045 C 283.402 1.77611 -3.85668 0
M  V30 3046 O 284.426 1.42825 -3.26312 0
M  V30 3047 O 283.285 2.4192 -4.90038 0
M  V30 3048 H 280.379 0.397628 -0.725135 0
M  V30 3049 H 282.925 0.0807044 -1.69508 0
M  V30 3050 H 281.697 0.517248 -3.87866 0
M  V30 3051 H 281.32 2.1475 -3.34616 0
M  V30 3052 N 282.317 1.53212 0.369288 0
M  V30 3053 C 283.227 1.82342 1.47609 0
M  V30 3054 C 284.243 0.711532 1.58787 0
M  V30 3055 O 285.419 1.0012 1.74751 0
M  V30 3056 C 282.484 2.00393 2.8292 0
M  V30 3057 C 281.545 3.24297 2.81301 0
M  V30 3058 C 280.778 3.41478 4.10157 0
M  V30 3059 O 281.001 2.63033 5.06132 0
M  V30 3060 O 279.935 4.34817 4.16194 0
M  V30 3061 H 283.761 2.76366 1.25918 0
M  V30 3062 H 281.346 1.38547 0.559034 0
M  V30 3063 H 283.228 2.13859 3.63101 0
M  V30 3064 H 281.903 1.09559 3.04596 0
M  V30 3065 H 280.81 3.16257 1.99831 0
M  V30 3066 H 282.143 4.15041 2.64578 0
M  V30 3067 N 283.795 -0.628877 1.44509 0
M  V30 3068 C 284.705 -1.7694 1.54044 0
M  V30 3069 C 285.721 -1.68705 0.425987 0
M  V30 3070 O 286.897 -1.89442 0.683656 0
M  V30 3071 C 283.962 -3.13332 1.48405 0
M  V30 3072 C 283.023 -3.33181 2.70719 0
M  V30 3073 C 282.256 -4.63067 2.6534 0
M  V30 3074 O 282.479 -5.44017 1.71469 0
M  V30 3075 O 281.413 -4.85167 3.56226 0
M  V30 3076 H 285.239 -1.71848 2.50403 0
M  V30 3077 H 282.824 -0.790378 1.26781 0
M  V30 3078 H 284.706 -3.94634 1.47791 0
M  V30 3079 H 283.381 -3.1896 0.551898 0
M  V30 3080 H 282.288 -2.51549 2.769 0
M  V30 3081 H 283.621 -3.32416 3.62988 0
M  V30 3082 N 285.273 -1.31445 -0.869486 0
M  V30 3083 C 286.183 -1.21097 -2.0093 0
M  V30 3084 C 287.199 -0.127584 -1.73532 0
M  V30 3085 O 288.375 -0.345477 -1.98415 0
M  V30 3086 C 285.44 -0.919378 -3.34288 0
M  V30 3087 C 284.501 -2.08971 -3.75006 0
M  V30 3088 C 283.734 -1.81194 -5.02001 0
M  V30 3089 O 283.957 -0.747296 -5.65484 0
M  V30 3090 O 282.891 -2.66883 -5.39497 0
M  V30 3091 H 286.717 -2.16883 -2.12592 0
M  V30 3092 H 284.302 -1.11189 -0.997868 0
M  V30 3093 H 286.184 -0.772625 -4.14257 0
M  V30 3094 H 284.859 0.00844772 -3.23699 0
M  V30 3095 H 283.766 -2.29187 -2.95676 0
M  V30 3096 H 285.099 -2.9998 -3.90221 0
M  V30 3097 N 286.751 1.08385 -1.14413 0
M  V30 3098 C 287.661 2.18856 -0.844951 0
M  V30 3099 C 288.677 1.73121 0.174668 0
M  V30 3100 O 289.853 2.014 0.00312857 0
M  V30 3101 C 286.918 3.45155 -0.32696 0
M  V30 3102 C 285.979 4.05513 -1.40916 0
M  V30 3103 C 285.212 5.25784 -0.915793 0
M  V30 3104 O 285.435 5.69884 0.242651 0
M  V30 3105 O 284.369 5.77545 -1.69487 0
M  V30 3106 H 288.195 2.46919 -1.76818 0
M  V30 3107 H 285.78 1.17524 -0.922411 0
M  V30 3108 H 287.662 4.21377 -0.0440211 0
M  V30 3109 H 286.337 3.18668 0.568539 0
M  V30 3110 H 285.244 3.30879 -1.74556 0
M  V30 3111 H 286.577 4.3625 -2.27919 0
M  V30 3112 N 288.23 0.939286 1.26551 0
M  V30 3113 C 289.479 0.581601 1.93133 0
M  V30 3114 C 289.792 -0.883224 1.74524 0
M  V30 3115 O 290.998 -1.3502 2.35546 0
M  V30 3116 C 289.454 0.989425 3.46032 0
M  V30 3117 C 289.062 2.47573 3.73379 0
M  V30 3118 C 290.806 0.703544 4.18629 0
M  V30 3119 C 288.713 2.82235 5.19709 0
M  V30 3120 H 287.643 0.213803 0.723052 0
M  V30 3121 H 290.294 1.14167 1.4366 0
M  V30 3122 H 288.676 0.357902 3.94379 0
M  V30 3123 H 289.85 3.15614 3.35744 0
M  V30 3124 H 288.165 2.73471 3.1401 0
M  V30 3125 H 290.762 0.938869 5.26393 0
M  V30 3126 H 291.105 -0.359639 4.14744 0
M  V30 3127 H 291.638 1.2947 3.76141 0
M  V30 3128 H 288.377 3.87509 5.28694 0
M  V30 3129 H 287.897 2.18854 5.58447 0
M  V30 3130 H 289.576 2.70599 5.87695 0
M  V30 3131 N 289.708 -1.40897 0.706093 0
M  V30 3132 C 290.671 -2.29131 0.0562841 0
M  V30 3133 C 291.671 -1.44901 -0.697166 0
M  V30 3134 O 292.861 -1.65926 -0.530484 0
M  V30 3135 C 289.993 -3.27957 -0.93043 0
M  V30 3136 H 291.186 -2.88091 0.833284 0
M  V30 3137 H 288.739 -1.4906 0.470192 0
M  V30 3138 H 289.474 -2.73997 -1.73482 0
M  V30 3139 H 289.259 -3.90124 -0.393166 0
M  V30 3140 H 290.749 -3.94049 -1.38256 0
M  V30 3141 N 291.186 -0.45159 -1.50991 0
M  V30 3142 C 292.414 0.108334 -2.06616 0
M  V30 3143 C 292.829 1.35224 -1.31757 0
M  V30 3144 O 292.186 1.78475 -0.381174 0
M  V30 3145 C 292.237 0.41619 -3.59096 0
M  V30 3146 O 291.958 -0.778361 -4.3113 0
M  V30 3147 C 293.459 1.02523 -4.31282 0
M  V30 3148 H 290.679 0.00159995 -0.670998 0
M  V30 3149 H 293.223 -0.634771 -1.94399 0
M  V30 3150 H 291.378 1.10921 -3.71181 0
M  V30 3151 H 291.792 -0.511181 -5.22003 0
M  V30 3152 H 293.266 1.19053 -5.39009 0
M  V30 3153 H 293.743 2.01013 -3.905 0
M  V30 3154 H 294.349 0.371173 -4.23677 0
M  V30 3155 N 292.664 1.56529 -0.183458 0
M  V30 3156 C 294.075 1.83739 0.331177 0
M  V30 3157 C 294.426 1.10373 1.62211 0
M  V30 3158 O 293.551 0.36071 2.13373 0
M  V30 3159 C 294.146 3.33306 0.607646 0
M  V30 3160 C 292.705 3.60969 1.06668 0
M  V30 3161 C 291.852 2.77086 0.109029 0
M  V30 3162 H 294.803 1.53379 -0.407484 0
M  V30 3163 H 294.824 3.51444 1.45832 0
M  V30 3164 H 294.336 3.86677 -0.332086 0
M  V30 3165 H 292.437 3.13021 2.0211 0
M  V30 3166 H 292.55 4.69231 0.967447 0
M  V30 3167 H 290.914 2.47319 0.608714 0
M  V30 3168 H 291.697 3.33241 -0.82494 0
M  V30 3169 N 294.142 -0.090211 1.57342 0
M  V30 3170 C 295.553 -0.644173 1.75235 0
M  V30 3171 C 295.904 -1.78865 0.806335 0
M  V30 3172 O 295.029 -2.16395 -0.0140128 0
M  V30 3173 C 295.624 -1.17532 3.1776 0
M  V30 3174 C 294.183 -1.67531 3.37061 0
M  V30 3175 C 293.33 -0.58693 2.71017 0
M  V30 3176 H 296.281 0.135884 1.58117 0
M  V30 3177 H 296.302 -2.04455 3.20902 0
M  V30 3178 H 295.814 -0.342138 3.86589 0
M  V30 3179 H 293.915 -2.53234 2.73319 0
M  V30 3180 H 294.028 -1.76493 4.45406 0
M  V30 3181 H 292.392 -1.02756 2.33052 0
M  V30 3182 H 293.175 0.235758 3.4249 0
M  V30 3183 N 295.62 -1.53406 -0.361157 0
M  V30 3184 C 297.031 -1.61442 -0.937728 0
M  V30 3185 C 297.382 -0.48461 -1.90121 0
M  V30 3186 O 296.507 0.388312 -2.12888 0
M  V30 3187 C 297.102 -2.92624 -1.70753 0
M  V30 3188 C 295.661 -3.02981 -2.23337 0
M  V30 3189 C 294.808 -2.5677 -1.04712 0
M  V30 3190 H 297.759 -1.58083 -0.139816 0
M  V30 3191 H 297.78 -2.80675 -2.56908 0
M  V30 3192 H 297.292 -3.74834 -1.00604 0
M  V30 3193 H 295.393 -2.25368 -2.96715 0
M  V30 3194 H 295.506 -4.0814 -2.50916 0
M  V30 3195 H 293.87 -2.11752 -1.41539 0
M  V30 3196 H 294.653 -3.41402 -0.360539 0
M  V30 3197 N 297.098 0.621204 -1.44841 0
M  V30 3198 C 298.509 1.20298 -1.42777 0
M  V30 3199 C 298.86 1.95639 -0.148259 0
M  V30 3200 O 297.985 2.02955 0.750892 0
M  V30 3201 C 298.58 2.1882 -2.58657 0
M  V30 3202 C 297.139 2.72403 -2.59756 0
M  V30 3203 C 296.286 1.4757 -2.34773 0
M  V30 3204 H 299.237 0.411297 -1.53278 0
M  V30 3205 H 299.258 3.01607 -2.31977 0
M  V30 3206 H 298.77 1.63957 -3.51766 0
M  V30 3207 H 296.871 3.31242 -1.70615 0
M  V30 3208 H 296.984 3.17765 -3.58556 0
M  V30 3209 H 295.348 1.76051 -1.8406 0
M  V30 3210 H 296.131 0.945954 -3.3001 0
M  V30 3211 N 298.576 1.31904 0.862503 0
M  V30 3212 C 299.987 1.19803 1.43193 0
M  V30 3213 C 300.338 -0.192567 1.95253 0
M  V30 3214 O 299.463 -1.09081 1.86896 0
M  V30 3215 C 300.058 2.16883 2.60283 0
M  V30 3216 C 298.617 2.08692 3.13248 0
M  V30 3217 C 297.764 2.05691 1.85975 0
M  V30 3218 H 300.715 1.43846 0.670365 0
M  V30 3219 H 300.736 1.76278 3.37204 0
M  V30 3220 H 300.248 3.18083 2.22363 0
M  V30 3221 H 298.349 1.10713 3.55771 0
M  V30 3222 H 298.462 2.9815 3.75025 0
M  V30 3223 H 296.826 1.50814 2.05249 0
M  V30 3224 H 297.609 3.08659 1.50282 0
M  V30 3225 N 300.054 -1.07777 1.14986 0
M  V30 3226 C 301.465 -1.61766 0.932127 0
M  V30 3227 C 301.816 -1.88974 -0.527581 0
M  V30 3228 O 300.941 -1.65198 -1.39781 0
M  V30 3229 C 301.536 -2.93891 1.68563 0
M  V30 3230 C 300.095 -3.44639 1.5133 0
M  V30 3231 C 299.242 -2.18767 1.704 0
M  V30 3232 H 302.193 -0.909201 1.30074 0
M  V30 3233 H 302.214 -3.62623 1.15259 0
M  V30 3234 H 301.726 -2.74057 2.74799 0
M  V30 3235 H 299.827 -3.69564 0.474702 0
M  V30 3236 H 299.94 -4.20966 2.28746 0
M  V30 3237 H 298.304 -2.28253 1.13016 0
M  V30 3238 H 299.087 -2.01433 2.77992 0
M  V30 3239 N 301.532 -0.945985 -1.26051 0
M  V30 3240 C 302.943 -0.638096 -1.75457 0
M  V30 3241 C 303.294 0.846672 -1.76991 0
M  V30 3242 O 302.419 1.66262 -1.38513 0
M  V30 3243 C 303.014 -1.15157 -3.18629 0
M  V30 3244 C 301.573 -0.894004 -3.65629 0
M  V30 3245 C 300.72 -1.29967 -2.44957 0
M  V30 3246 H 303.671 -1.12376 -1.1206 0
M  V30 3247 H 303.692 -0.507615 -3.77099 0
M  V30 3248 H 303.204 -2.23222 -3.1748 0
M  V30 3249 H 301.305 0.172057 -3.72203 0
M  V30 3250 H 301.418 -1.52439 -4.54202 0
M  V30 3251 H 299.782 -0.718078 -2.44368 0
M  V30 3252 H 300.565 -2.38935 -2.46505 0
M  V30 3253 N 303.011 1.40521 -0.713556 0
M  V30 3254 C 303.958 2.30723 -0.059684 0
M  V30 3255 C 304.928 1.48079 0.752448 0
M  V30 3256 O 306.113 1.76823 0.71681 0
M  V30 3257 C 303.253 3.34274 0.857594 0
M  V30 3258 C 302.366 4.31986 0.0351536 0
M  V30 3259 C 301.501 5.22605 0.951724 0
M  V30 3260 C 300.54 6.11976 0.123253 0
M  V30 3261 N 299.677 6.9502 0.99459 0
M  V30 3262 H 304.517 2.86074 -0.834596 0
M  V30 3263 H 302.054 1.40879 -0.42326 0
M  V30 3264 H 304.012 3.92879 1.40364 0
M  V30 3265 H 302.642 2.8043 1.59871 0
M  V30 3266 H 301.694 3.7518 -0.628052 0
M  V30 3267 H 303.006 4.95101 -0.606347 0
M  V30 3268 H 302.16 5.86131 1.56638 0
M  V30 3269 H 300.899 4.59759 1.62705 0
M  V30 3270 H 299.904 5.47482 -0.50435 0
M  V30 3271 H 301.129 6.76881 -0.548539 0
M  V30 3272 H 299.075 6.34764 1.6556 0
M  V30 3273 H 298.992 7.54892 0.40908 0
M  V30 3274 H 300.26 7.62997 1.59549 0
M  V30 3275 N 304.489 0.459591 1.5075 0
M  V30 3276 C 305.436 -0.340524 2.28274 0
M  V30 3277 C 306.406 -0.997371 1.32822 0
M  V30 3278 O 307.591 -1.01202 1.61749 0
M  V30 3279 C 304.731 -1.42317 3.14388 0
M  V30 3280 C 303.844 -0.782251 4.24859 0
M  V30 3281 C 302.979 -1.84182 4.98247 0
M  V30 3282 C 302.018 -1.18053 6.00608 0
M  V30 3283 N 301.155 -2.18244 6.67319 0
M  V30 3284 H 305.995 0.326899 2.96202 0
M  V30 3285 H 303.532 0.173057 1.46078 0
M  V30 3286 H 305.49 -2.06241 3.62658 0
M  V30 3287 H 304.12 -2.05992 2.4853 0
M  V30 3288 H 303.172 -0.0307404 3.80388 0
M  V30 3289 H 304.484 -0.259663 4.98124 0
M  V30 3290 H 303.638 -2.55714 5.50177 0
M  V30 3291 H 302.377 -2.39819 4.24662 0
M  V30 3292 H 301.382 -0.450776 5.47949 0
M  V30 3293 H 302.607 -0.631202 6.7616 0
M  V30 3294 H 300.553 -2.72919 5.96533 0
M  V30 3295 H 300.47 -1.70938 7.36421 0
M  V30 3296 H 301.738 -2.89191 7.23871 0
M  V30 3297 N 305.967 -1.56429 0.191757 0
M  V30 3298 C 306.877 -2.22541 -0.742481 0
M  V30 3299 C 307.893 -1.22342 -1.23727 0
M  V30 3300 O 309.069 -1.55069 -1.28513 0
M  V30 3301 C 306.134 -2.8692 -1.94623 0
M  V30 3302 C 305.195 -4.02378 -1.49633 0
M  V30 3303 C 304.428 -4.63678 -2.6427 0
M  V30 3304 O 304.651 -4.23895 -3.81666 0
M  V30 3305 O 303.585 -5.53202 -2.37174 0
M  V30 3306 H 307.411 -3.02977 -0.209462 0
M  V30 3307 H 304.996 -1.49353 -0.0373832 0
M  V30 3308 H 306.878 -3.27663 -2.64982 0
M  V30 3309 H 305.553 -2.09466 -2.46791 0
M  V30 3310 H 304.46 -3.66265 -0.761636 0
M  V30 3311 H 305.793 -4.81487 -1.02134 0
M  V30 3312 N 307.445 0.0818655 -1.57387 0
M  V30 3313 C 308.673 0.796108 -1.9097 0
M  V30 3314 C 309.088 1.71626 -0.786757 0
M  V30 3315 O 308.445 1.80908 0.240513 0
M  V30 3316 C 308.496 1.59829 -3.24248 0
M  V30 3317 O 308.217 0.715131 -4.32224 0
M  V30 3318 C 309.718 2.41442 -3.7178 0
M  V30 3319 H 306.938 0.22691 -0.631469 0
M  V30 3320 H 309.482 0.0551439 -2.04426 0
M  V30 3321 H 307.637 2.29163 -3.12351 0
M  V30 3322 H 308.051 1.27205 -5.08841 0
M  V30 3323 H 309.525 2.932 -4.67694 0
M  V30 3324 H 310.002 3.2051 -3.00283 0
M  V30 3325 H 310.608 1.77283 -3.86589 0
M  V30 3326 N 308.923 1.53595 0.353017 0
M  V30 3327 C 309.87 1.80919 1.43308 0
M  V30 3328 C 310.84 0.654288 1.5267 0
M  V30 3329 O 312.025 0.897759 1.6836 0
M  V30 3330 C 309.165 2.01605 2.80089 0
M  V30 3331 C 308.278 3.29321 2.79593 0
M  V30 3332 C 307.413 3.40125 4.0803 0
M  V30 3333 C 306.452 4.61826 4.01725 0
M  V30 3334 N 305.589 4.69716 5.21834 0
M  V30 3335 H 310.429 2.73074 1.19308 0
M  V30 3336 H 307.966 1.35263 0.578131 0
M  V30 3337 H 309.924 2.11586 3.59565 0
M  V30 3338 H 308.554 1.12772 3.0246 0
M  V30 3339 H 307.606 3.28229 1.92276 0
M  V30 3340 H 308.918 4.18884 2.70809 0
M  V30 3341 H 308.072 3.49488 4.95927 0
M  V30 3342 H 306.811 2.48601 4.19582 0
M  V30 3343 H 305.816 4.52552 3.12213 0
M  V30 3344 H 307.041 5.54705 3.91764 0
M  V30 3345 H 304.987 3.81097 5.33948 0
M  V30 3346 H 304.904 5.53202 5.1527 0
M  V30 3347 H 306.172 4.83376 6.11529 0
M  V30 3348 N 310.401 -0.613514 1.45168 0
M  V30 3349 C 311.812 -1.19539 1.43413 0
M  V30 3350 C 312.163 -1.95558 0.158632 0
M  V30 3351 O 311.288 -2.0335 -0.740119 0
M  V30 3352 C 311.883 -2.17445 2.59813 0
M  V30 3353 C 310.442 -2.71022 2.61197 0
M  V30 3354 C 309.589 -1.46323 2.35552 0
M  V30 3355 H 312.54 -0.403163 1.53494 0
M  V30 3356 H 312.561 -3.00373 2.33574 0
M  V30 3357 H 312.073 -1.62089 3.52631 0
M  V30 3358 H 310.174 -3.30332 1.7237 0
M  V30 3359 H 310.287 -3.15859 3.60236 0
M  V30 3360 H 308.651 -1.75072 1.84992 0
M  V30 3361 H 309.434 -0.92844 3.30507 0
M  V30 3362 N 311.879 -1.3236 -0.855495 0
M  V30 3363 C 312.789 -1.23221 -1.99634 0
M  V30 3364 C 313.805 -0.145983 -1.73387 0
M  V30 3365 O 314.981 -0.366502 -1.98037 0
M  V30 3366 C 312.046 -0.954782 -3.33294 0
M  V30 3367 C 311.107 -2.12937 -3.72769 0
M  V30 3368 C 310.34 -1.86508 -5.00051 0
M  V30 3369 O 310.563 -0.807231 -5.64659 0
M  V30 3370 O 309.497 -2.72591 -5.36636 0
M  V30 3371 H 313.323 -2.19126 -2.1028 0
M  V30 3372 H 310.908 -1.12241 -0.986018 0
M  V30 3373 H 312.79 -0.816519 -4.13414 0
M  V30 3374 H 311.465 -0.0258854 -3.2369 0
M  V30 3375 H 310.372 -2.3231 -2.93228 0
M  V30 3376 H 311.705 -3.04102 -3.87018 0
M  V30 3377 N 313.357 1.07166 -1.15556 0
M  V30 3378 C 314.768 1.6127 -0.940693 0
M  V30 3379 C 315.119 1.89251 0.517551 0
M  V30 3380 O 314.244 1.65937 1.38903 0
M  V30 3381 C 314.839 2.92993 -1.7012 0
M  V30 3382 C 313.398 3.43832 -1.53156 0
M  V30 3383 C 312.545 2.1786 -1.71558 0
M  V30 3384 H 315.496 0.90229 -1.30554 0
M  V30 3385 H 315.517 3.62007 -1.17181 0
M  V30 3386 H 315.029 2.72596 -2.76248 0
M  V30 3387 H 313.13 3.69307 -0.494294 0
M  V30 3388 H 313.243 4.19747 -2.30975 0
M  V30 3389 H 311.607 2.2765 -1.14225 0
M  V30 3390 H 312.39 1.99956 -2.79056 0
M  V30 3391 N 314.835 0.952656 1.25548 0
M  V30 3392 C 315.768 0.415525 2.24385 0
M  V30 3393 C 316.746 -0.502046 1.54655 0
M  V30 3394 O 317.93 -0.436875 1.83368 0
M  V30 3395 C 315.057 -0.401734 3.36309 0
M  V30 3396 C 314.103 0.455949 4.24056 0
M  V30 3397 S 314.936 1.88698 5.01152 0
M  V30 3398 C 316.092 1.07809 6.16545 0
M  V30 3399 H 316.325 1.25315 2.69599 0
M  V30 3400 H 313.858 0.756587 1.34592 0
M  V30 3401 H 315.816 -0.867329 4.01233 0
M  V30 3402 H 314.477 -1.21416 2.89684 0
M  V30 3403 H 313.67 -0.170776 5.03711 0
M  V30 3404 H 313.272 0.856675 3.64056 0
M  V30 3405 H 315.564 0.325816 6.76716 0
M  V30 3406 H 316.507 1.84849 6.83547 0
M  V30 3407 H 316.915 0.60909 5.61204 0
M  V30 3408 N 316.313 -1.40141 0.720998 0
M  V30 3409 C 317.223 -2.34486 0.0731031 0
M  V30 3410 C 318.239 -1.57587 -0.737723 0
M  V30 3411 O 319.415 -1.89949 -0.669429 0
M  V30 3412 C 316.48 -3.36528 -0.833656 0
M  V30 3413 C 315.541 -4.29298 -0.0121673 0
M  V30 3414 C 314.774 -5.26466 -0.875742 0
M  V30 3415 O 314.997 -5.29745 -2.11485 0
M  V30 3416 O 313.931 -6.01092 -0.31185 0
M  V30 3417 H 317.757 -2.9152 0.851444 0
M  V30 3418 H 315.342 -1.41427 0.481527 0
M  V30 3419 H 317.224 -3.99093 -1.35289 0
M  V30 3420 H 315.899 -2.81899 -1.59105 0
M  V30 3421 H 314.806 -3.70001 0.552262 0
M  V30 3422 H 316.139 -4.87094 0.707129 0
M  V30 3423 N 317.792 -0.46758 -1.50504 0
M  V30 3424 C 318.702 0.33382 -2.32213 0
M  V30 3425 C 319.718 0.999323 -1.42441 0
M  V30 3426 O 320.894 0.988068 -1.75497 0
M  V30 3427 C 317.959 1.4035 -3.17022 0
M  V30 3428 C 317.02 0.754961 -4.2261 0
M  V30 3429 C 316.253 1.77367 -5.03365 0
M  V30 3430 O 316.476 2.99976 -4.8515 0
M  V30 3431 O 315.41 1.34744 -5.86624 0
M  V30 3432 H 319.236 -0.334067 -3.01857 0
M  V30 3433 H 316.821 -0.229496 -1.47627 0
M  V30 3434 H 318.703 2.02318 -3.69656 0
M  V30 3435 H 317.378 2.05492 -2.5011 0
M  V30 3436 H 316.285 0.0964244 -3.73976 0
M  V30 3437 H 317.618 0.146545 -4.91982 0
M  V30 3438 N 319.27 1.56325 -0.20005 0
M  V30 3439 C 320.547 1.89484 0.48529 0
M  V30 3440 C 320.927 1.1143 1.79294 0
M  V30 3441 O 320.275 0.216919 2.27468 0
M  V30 3442 C 320.485 3.41923 0.699243 0
M  V30 3443 C 321.833 4.12256 1.01638 0
M  V30 3444 O 322.857 3.47402 0.786792 0
M  V30 3445 O 321.716 5.26887 1.45095 0
M  V30 3446 H 318.81 0.787144 0.253639 0
M  V30 3447 H 321.356 1.67985 -0.240633 0
M  V30 3448 H 320.128 3.90658 -0.224008 0
M  V30 3449 H 319.751 3.69131 1.47744 0
M  V30 3450 N 320.748 -0.0735177 1.57428 0
M  V30 3451 C 321.678 -1.0879 2.06608 0
M  V30 3452 C 322.659 -1.40473 0.959237 0
M  V30 3453 O 323.844 -1.5013 1.23185 0
M  V30 3454 C 320.974 -2.40183 2.50857 0
M  V30 3455 C 319.928 -2.22858 3.65402 0
M  V30 3456 C 319.254 -3.59619 3.957 0
M  V30 3457 C 320.554 -1.65123 4.95511 0
M  V30 3458 H 322.248 -0.678673 2.91607 0
M  V30 3459 H 319.794 -0.325013 1.40284 0
M  V30 3460 H 321.747 -3.11437 2.83874 0
M  V30 3461 H 320.471 -2.83083 1.62885 0
M  V30 3462 H 319.13 -1.54045 3.32664 0
M  V30 3463 H 318.778 -4.00086 3.04861 0
M  V30 3464 H 318.478 -3.48866 4.72828 0
M  V30 3465 H 320.002 -4.32306 4.31212 0
M  V30 3466 H 321.416 -2.26241 5.26771 0
M  V30 3467 H 319.813 -1.65071 5.7695 0
M  V30 3468 H 320.883 -0.612559 4.81015 0
M  V30 3469 N 322.226 -1.5378 -0.344866 0
M  V30 3470 C 323.637 -1.62428 -0.920552 0
M  V30 3471 C 323.988 -0.504747 -1.89596 0
M  V30 3472 O 323.113 0.365711 -2.13287 0
M  V30 3473 C 323.708 -2.94419 -1.67639 0
M  V30 3474 C 322.267 -3.05333 -2.20111 0
M  V30 3475 C 321.414 -2.57866 -1.01982 0
M  V30 3476 H 324.365 -1.58222 -0.123042 0
M  V30 3477 H 324.386 -2.83384 -2.53917 0
M  V30 3478 H 323.898 -3.7588 -0.966224 0
M  V30 3479 H 321.999 -2.28502 -2.94308 0
M  V30 3480 H 322.112 -4.10778 -2.46573 0
M  V30 3481 H 320.476 -2.13241 -1.39285 0
M  V30 3482 H 321.259 -3.41765 -0.324308 0
M  V30 3483 N 323.704 0.605807 -1.45491 0
M  V30 3484 C 324.614 1.74466 -1.56839 0
M  V30 3485 C 325.63 1.68006 -0.452772 0
M  V30 3486 O 326.806 1.8833 -0.713708 0
M  V30 3487 C 323.871 3.10931 -1.53371 0
M  V30 3488 C 322.932 3.28832 -2.75986 0
M  V30 3489 C 322.165 4.58787 -2.72673 0
M  V30 3490 O 322.388 5.4122 -1.80102 0
M  V30 3491 O 321.322 4.79438 -3.63899 0
M  V30 3492 H 325.148 1.67843 -2.53106 0
M  V30 3493 H 322.733 0.770108 -1.28022 0
M  V30 3494 H 324.615 3.92233 -1.54051 0
M  V30 3495 H 323.29 3.18042 -0.602572 0
M  V30 3496 H 322.197 2.47112 -2.80867 0
M  V30 3497 H 323.53 3.26599 -3.68231 0
M  V30 3498 N 325.182 1.32811 0.848464 0
M  V30 3499 C 326.13 1.22231 1.97895 0
M  V30 3500 C 327.124 0.125749 1.68933 0
M  V30 3501 O 328.33 0.289083 1.77663 0
M  V30 3502 H 324.705 0.379058 0.649476 0
M  V30 3503 H 326.676 2.17828 2.03945 0
M  V30 3504 C 325.425 0.968572 3.33937 0
M  V30 3505 H 324.748 1.80458 3.56756 0
M  V30 3506 H 326.188 0.934808 4.13567 0
M  V30 3507 C 324.647 -0.328628 3.35293 0
M  V30 3508 O 325.177 -1.33848 3.78745 0
M  V30 3509 N 323.383 -0.352788 2.88451 0
M  V30 3510 H 322.93 0.469541 2.53285 0
M  V30 3511 H 322.888 -1.22057 2.89741 0
M  V30 3512 N 326.66 -1.06551 1.16123 0
M  V30 3513 C 327.607 -2.13961 0.865414 0
M  V30 3514 C 328.577 -1.65066 -0.185055 0
M  V30 3515 O 329.762 -1.90732 -0.05083 0
M  V30 3516 C 326.902 -3.43113 0.369776 0
M  V30 3517 C 326.015 -4.05756 1.48276 0
M  V30 3518 C 325.15 -5.22773 0.942414 0
M  V30 3519 C 324.189 -5.77395 2.03179 0
M  V30 3520 N 323.326 -6.85731 1.50721 0
M  V30 3521 H 328.166 -2.38605 1.78527 0
M  V30 3522 H 325.703 -1.17072 0.890646 0
M  V30 3523 H 327.661 -4.17151 0.0640643 0
M  V30 3524 H 326.291 -3.18695 -0.513143 0
M  V30 3525 H 325.343 -3.29292 1.9045 0
M  V30 3526 H 326.655 -4.42351 2.30493 0
M  V30 3527 H 325.809 -6.03827 0.589729 0
M  V30 3528 H 324.548 -4.87618 0.0895191 0
M  V30 3529 H 323.553 -4.94981 2.3932 0
M  V30 3530 H 324.778 -6.14603 2.8886 0
M  V30 3531 H 322.724 -6.52499 0.676811 0
M  V30 3532 H 322.641 -7.21254 2.26557 0
M  V30 3533 H 323.909 -7.7047 1.18303 0
M  V30 3534 N 328.138 -0.959301 -1.25041 0
M  V30 3535 C 329.085 -0.482057 -2.2571 0
M  V30 3536 C 330.055 0.467939 -1.59372 0
M  V30 3537 O 331.24 0.380159 -1.86974 0
M  V30 3538 C 328.38 0.229623 -3.44335 0
M  V30 3539 C 327.493 -0.758156 -4.25295 0
M  V30 3540 C 326.628 -0.0234403 -5.31195 0
M  V30 3541 C 325.667 -1.00184 -6.03846 0
M  V30 3542 N 324.804 -0.29769 -7.01469 0
M  V30 3543 H 329.644 -1.34538 -2.65901 0
M  V30 3544 H 327.181 -0.674592 -1.3072 0
M  V30 3545 H 329.139 0.658856 -4.11965 0
M  V30 3546 H 327.769 1.05696 -3.05005 0
M  V30 3547 H 326.821 -1.30586 -3.57284 0
M  V30 3548 H 328.133 -1.50458 -4.75567 0
M  V30 3549 H 327.287 0.464201 -6.04922 0
M  V30 3550 H 326.026 0.755741 -4.81809 0
M  V30 3551 H 325.031 -1.50044 -5.2893 0
M  V30 3552 H 326.256 -1.78133 -6.55321 0
M  V30 3553 H 324.202 0.462668 -6.54366 0
M  V30 3554 H 324.119 -0.983128 -7.4958 0
M  V30 3555 H 325.387 0.16826 -7.79318 0
M  V30 3556 N 329.616 1.39756 -0.72842 0
M  V30 3557 C 330.548 2.29157 -0.0446202 0
M  V30 3558 C 331.561 1.46484 0.710367 0
M  V30 3559 O 332.75 1.69632 0.55562 0
M  V30 3560 C 329.85 3.24987 0.961071 0
M  V30 3561 C 329.023 4.36572 0.268967 0
M  V30 3562 C 328.082 5.12756 1.18184 0
M  V30 3563 O 327.108 5.6534 0.661794 0
M  V30 3564 N 328.31 5.23331 2.51206 0
M  V30 3565 H 331.075 2.88482 -0.812295 0
M  V30 3566 H 328.636 1.51265 -0.577098 0
M  V30 3567 H 330.628 3.72827 1.57423 0
M  V30 3568 H 329.198 2.66739 1.63 0
M  V30 3569 H 328.418 3.90694 -0.524574 0
M  V30 3570 H 329.706 5.08363 -0.210934 0
M  V30 3571 H 329.104 4.82116 2.9594 0
M  V30 3572 H 327.661 5.74634 3.07634 0
M  V30 3573 N 331.094 0.475555 1.50254 0
M  V30 3574 C 332.057 -0.305016 2.27161 0
M  V30 3575 C 333.057 -0.916519 1.32123 0
M  V30 3576 O 334.247 -0.785003 1.5551 0
M  V30 3577 C 331.379 -1.43496 3.09227 0
M  V30 3578 H 332.572 0.369511 2.97615 0
M  V30 3579 H 330.125 0.229747 1.54602 0
M  V30 3580 H 330.86 -2.14441 2.43281 0
M  V30 3581 H 330.645 -1.00223 3.79075 0
M  V30 3582 H 332.135 -1.98548 3.67381 0
M  V30 3583 N 332.573 -1.56217 0.208337 0
M  V30 3584 C 333.503 -2.22694 -0.702116 0
M  V30 3585 C 334.484 -1.19432 -1.2112 0
M  V30 3586 O 335.669 -1.47978 -1.25762 0
M  V30 3587 C 332.799 -2.8966 -1.9161 0
M  V30 3588 C 331.753 -3.9928 -1.5414 0
M  V30 3589 C 331.079 -4.53476 -2.83308 0
M  V30 3590 C 332.379 -5.17012 -0.741339 0
M  V30 3591 H 334.073 -2.99034 -0.147898 0
M  V30 3592 H 331.619 -1.43831 -0.0696951 0
M  V30 3593 H 333.572 -3.34852 -2.55836 0
M  V30 3594 H 332.296 -2.10746 -2.49507 0
M  V30 3595 H 330.955 -3.54799 -0.922668 0
M  V30 3596 H 330.603 -3.71308 -3.39322 0
M  V30 3597 H 330.303 -5.27451 -2.58976 0
M  V30 3598 H 331.827 -5.01378 -3.485 0
M  V30 3599 H 333.241 -5.58667 -1.28699 0
M  V30 3600 H 331.638 -5.97137 -0.595627 0
M  V30 3601 H 332.708 -4.8423 0.254851 0
M  V30 3602 N 334.051 0.0651679 -1.57465 0
M  V30 3603 C 334.998 1.07675 -2.04144 0
M  V30 3604 C 335.968 1.38071 -0.923335 0
M  V30 3605 O 337.153 1.49026 -1.19146 0
M  V30 3606 C 334.293 2.38337 -2.49579 0
M  V30 3607 C 333.406 2.14413 -3.75035 0
M  V30 3608 C 332.541 3.38686 -4.09225 0
M  V30 3609 C 331.58 3.10156 -5.27702 0
M  V30 3610 N 330.717 4.26778 -5.57499 0
M  V30 3611 H 335.557 0.671716 -2.90331 0
M  V30 3612 H 333.094 0.3201 -1.43575 0
M  V30 3613 H 335.052 3.14632 -2.73975 0
M  V30 3614 H 333.682 2.7663 -1.6636 0
M  V30 3615 H 332.734 1.2878 -3.57939 0
M  V30 3616 H 334.046 1.89344 -4.61466 0
M  V30 3617 H 333.2 4.23373 -4.34558 0
M  V30 3618 H 331.939 3.66837 -3.21374 0
M  V30 3619 H 330.944 2.23866 -5.02159 0
M  V30 3620 H 332.169 2.8332 -6.17176 0
M  V30 3621 H 330.115 4.54948 -4.72608 0
M  V30 3622 H 330.032 4.05005 -6.38362 0
M  V30 3623 H 331.3 5.12443 -5.87386 0
M  V30 3624 N 335.529 1.53961 0.336706 0
M  V30 3625 C 336.439 1.85432 1.43708 0
M  V30 3626 C 337.455 0.745053 1.57242 0
M  V30 3627 O 338.631 1.03804 1.72588 0
M  V30 3628 C 335.696 2.06349 2.78605 0
M  V30 3629 C 334.757 3.30191 2.74358 0
M  V30 3630 C 333.99 3.50101 4.02822 0
M  V30 3631 O 334.213 2.7371 5.00439 0
M  V30 3632 O 333.147 4.43547 4.06878 0
M  V30 3633 H 336.973 2.78975 1.20028 0
M  V30 3634 H 334.558 1.39701 0.52952 0
M  V30 3635 H 336.44 2.21513 3.58483 0
M  V30 3636 H 335.115 1.15995 3.02203 0
M  V30 3637 H 334.022 3.20425 1.93078 0
M  V30 3638 H 335.355 4.2056 2.55715 0
M  V30 3639 N 337.007 -0.598083 1.45811 0
M  V30 3640 C 337.954 -1.7082 1.55207 0
M  V30 3641 C 338.924 -1.61278 0.39732 0
M  V30 3642 O 340.109 -1.80717 0.612038 0
M  V30 3643 C 337.249 -3.09144 1.53376 0
M  V30 3644 C 336.362 -3.29423 2.79472 0
M  V30 3645 C 335.497 -4.57907 2.69248 0
M  V30 3646 C 334.536 -4.71476 3.90354 0
M  V30 3647 N 333.673 -5.9127 3.78608 0
M  V30 3648 H 338.513 -1.62125 2.50039 0
M  V30 3649 H 336.05 -0.790389 1.24062 0
M  V30 3650 H 338.008 -3.89186 1.50301 0
M  V30 3651 H 336.638 -3.16773 0.620876 0
M  V30 3652 H 335.69 -2.43091 2.92594 0
M  V30 3653 H 337.002 -3.3532 3.69272 0
M  V30 3654 H 336.156 -5.46157 2.64192 0
M  V30 3655 H 334.895 -4.54423 1.77063 0
M  V30 3656 H 333.9 -3.81648 3.95759 0
M  V30 3657 H 335.125 -4.76751 4.83617 0
M  V30 3658 H 333.071 -5.88813 2.89199 0
M  V30 3659 H 332.988 -5.98369 4.6205 0
M  V30 3660 H 334.256 -6.81992 3.77501 0
M  V30 3661 N 338.485 -1.33259 -0.841409 0
M  V30 3662 C 339.395 -1.25332 -1.98316 0
M  V30 3663 C 340.411 -0.164364 -1.73222 0
M  V30 3664 O 341.587 -0.387486 -1.97637 0
M  V30 3665 C 338.652 -0.990078 -3.32262 0
M  V30 3666 C 337.713 -2.16879 -3.70489 0
M  V30 3667 C 336.946 -1.91801 -4.98044 0
M  V30 3668 O 337.169 -0.867075 -5.63771 0
M  V30 3669 O 336.103 -2.78267 -5.33714 0
M  V30 3670 H 339.929 -2.21344 -2.07944 0
M  V30 3671 H 337.514 -1.1328 -0.974058 0
M  V30 3672 H 339.396 -0.860321 -4.12524 0
M  V30 3673 H 338.071 -0.0602155 -3.23644 0
M  V30 3674 H 336.978 -2.35407 -2.90748 0
M  V30 3675 H 338.311 -3.0819 -3.8377 0
M  V30 3676 N 339.963 1.05934 -1.16686 0
M  V30 3677 C 340.893 2.1546 -0.899949 0
M  V30 3678 C 341.874 1.69391 0.155154 0
M  V30 3679 O 343.059 1.94199 0.00648693 0
M  V30 3680 C 340.189 3.44939 -0.404241 0
M  V30 3681 C 339.143 4.04536 -1.39767 0
M  V30 3682 C 338.469 5.29268 -0.760216 0
M  V30 3683 C 339.769 4.42893 -2.76845 0
M  V30 3684 H 341.463 2.38046 -1.81588 0
M  V30 3685 H 339.009 1.14404 -0.874514 0
M  V30 3686 H 340.962 4.20901 -0.204971 0
M  V30 3687 H 339.686 3.21983 0.547206 0
M  V30 3688 H 338.345 3.30635 -1.58355 0
M  V30 3689 H 337.993 5.02611 0.197831 0
M  V30 3690 H 337.693 5.70101 -1.42332 0
M  V30 3691 H 339.217 6.07924 -0.57105 0
M  V30 3692 H 340.631 5.09921 -2.62019 0
M  V30 3693 H 339.028 4.94721 -3.39663 0
M  V30 3694 H 340.098 3.53584 -3.31823 0
M  V30 3695 N 341.441 0.965919 1.2453 0
M  V30 3696 C 342.689 0.625593 1.92174 0
M  V30 3697 C 343.01 -0.841652 1.75901 0
M  V30 3698 O 342.28 -1.60061 1.12948 0
M  V30 3699 H 340.86 0.228388 0.71123 0
M  V30 3700 H 343.522 1.2266 1.51461 0
M  V30 3701 H 342.618 0.864653 2.99884 0
M  V30 3702 N 342.919 -1.39368 0.735821 0
M  V30 3703 C 343.867 -2.32443 0.0855131 0
M  V30 3704 C 344.861 -1.53104 -0.724954 0
M  V30 3705 O 346.067 -1.68762 -0.626047 0
M  V30 3706 H 342.442 -0.751948 0.00885257 0
M  V30 3707 H 344.413 -2.84916 0.886883 0
M  V30 3708 C 343.162 -3.38206 -0.806983 0
M  V30 3709 H 342.485 -3.99335 -0.19274 0
M  V30 3710 H 343.925 -4.05779 -1.2296 0
M  V30 3711 C 342.384 -2.75321 -1.94165 0
M  V30 3712 O 342.914 -2.63231 -3.03435 0
M  V30 3713 N 341.12 -2.33396 -1.73132 0
M  V30 3714 H 340.667 -2.4343 -0.842596 0
M  V30 3715 H 340.625 -1.91661 -2.49225 0
M  V30 3716 N 344.397 -0.483516 -1.5 0
M  V30 3717 C 345.674 0.129337 -1.95172 0
M  V30 3718 C 346.054 1.55802 -1.4244 0
M  V30 3719 O 345.402 2.19625 -0.630649 0
M  V30 3720 C 345.612 0.0599251 -3.48949 0
M  V30 3721 C 346.96 0.242617 -4.23906 0
M  V30 3722 O 347.984 0.135933 -3.55941 0
M  V30 3723 O 346.843 0.459454 -5.44565 0
M  V30 3724 H 343.937 0.104887 -0.820322 0
M  V30 3725 H 346.483 -0.544807 -1.60717 0
M  V30 3726 H 345.255 -0.937079 -3.79914 0
M  V30 3727 H 344.878 0.774984 -3.89974 0
M  V30 3728 N 345.875 1.56104 -0.216619 0
M  V30 3729 C 346.838 2.18819 0.681962 0
M  V30 3730 C 347.838 1.14866 1.12528 0
M  V30 3731 O 349.028 1.40128 1.03488 0
M  V30 3732 C 346.16 2.80756 1.93362 0
M  V30 3733 H 347.353 2.99595 0.135254 0
M  V30 3734 H 344.906 1.56265 0.0330003 0
M  V30 3735 H 345.641 2.03837 2.52232 0
M  V30 3736 H 345.426 3.56876 1.62426 0
M  V30 3737 H 346.916 3.28844 2.57393 0
M  V30 3738 N 347.353 -0.0568162 1.57498 0
M  V30 3739 C 348.583 -0.764515 1.91934 0
M  V30 3740 C 348.991 -1.70877 0.81227 0
M  V30 3741 O 348.334 -1.82351 -0.222213 0
M  V30 3742 C 348.396 -1.5994 3.21962 0
M  V30 3743 C 348.06 -0.822925 4.4953 0
M  V30 3744 C 349.057 -0.135464 5.19723 0
M  V30 3745 C 346.742 -0.785666 4.96117 0
M  V30 3746 C 348.736 0.578861 6.34766 0
M  V30 3747 C 346.423 -0.0675784 6.11063 0
M  V30 3748 C 347.421 0.613471 6.80239 0
M  V30 3749 O 347.109 1.31996 7.92989 0
M  V30 3750 H 346.841 -0.221647 0.63863 0
M  V30 3751 H 349.395 -0.0268218 2.05382 0
M  V30 3752 H 347.625 -2.38026 3.04763 0
M  V30 3753 H 349.314 -2.18715 3.41934 0
M  V30 3754 H 350.08 -0.155458 4.84751 0
M  V30 3755 H 345.959 -1.30524 4.42136 0
M  V30 3756 H 349.503 1.111 6.88696 0
M  V30 3757 H 345.4 -0.0455636 6.45484 0
M  V30 3758 H 346.168 1.23077 8.09194 0
M  V30 3759 N 348.832 -1.54138 -0.328536 0
M  V30 3760 C 349.779 -1.83176 -1.40411 0
M  V30 3761 C 350.749 -0.678494 -1.5161 0
M  V30 3762 O 351.934 -0.92443 -1.6691 0
M  V30 3763 C 349.074 -2.06035 -2.76846 0
M  V30 3764 C 348.187 -3.33727 -2.74318 0
M  V30 3765 C 347.322 -3.46574 -4.02567 0
M  V30 3766 C 346.361 -4.68159 -3.94327 0
M  V30 3767 N 345.498 -4.77959 -5.14296 0
M  V30 3768 H 350.338 -2.74938 -1.14948 0
M  V30 3769 H 347.875 -1.36166 -0.556538 0
M  V30 3770 H 349.833 -2.1728 -3.56153 0
M  V30 3771 H 348.463 -1.1757 -3.00628 0
M  V30 3772 H 347.515 -3.31246 -1.8703 0
M  V30 3773 H 348.827 -4.23139 -2.64111 0
M  V30 3774 H 347.981 -3.57333 -4.90304 0
M  V30 3775 H 346.72 -2.55245 -4.15574 0
M  V30 3776 H 345.725 -4.57461 -3.04974 0
M  V30 3777 H 346.95 -5.60868 -3.82889 0
M  V30 3778 H 344.896 -3.89544 -5.27818 0
M  V30 3779 H 344.813 -5.6133 -5.06404 0
M  V30 3780 H 346.081 -4.93044 -6.03761 0
M  V30 3781 N 350.31 0.590341 -1.46126 0
M  V30 3782 C 351.257 1.69994 -1.56111 0
M  V30 3783 C 352.227 1.61065 -0.405867 0
M  V30 3784 O 353.412 1.8039 -0.621613 0
M  V30 3785 C 350.552 3.08326 -1.55013 0
M  V30 3786 C 349.665 3.27936 -2.81215 0
M  V30 3787 C 348.8 4.56473 -2.71673 0
M  V30 3788 C 347.839 4.694 -3.92849 0
M  V30 3789 N 346.976 5.89254 -3.81738 0
M  V30 3790 H 351.816 1.60797 -2.50895 0
M  V30 3791 H 349.353 0.783799 -1.24479 0
M  V30 3792 H 351.311 3.88383 -1.52362 0
M  V30 3793 H 349.941 3.16439 -0.637667 0
M  V30 3794 H 348.993 2.41536 -2.93879 0
M  V30 3795 H 350.305 3.33357 -3.71045 0
M  V30 3796 H 349.459 5.44748 -2.67085 0
M  V30 3797 H 348.198 4.53477 -1.7947 0
M  V30 3798 H 347.203 3.79544 -3.97777 0
M  V30 3799 H 348.428 4.7418 -4.86138 0
M  V30 3800 H 346.374 5.87271 -2.92317 0
M  V30 3801 H 346.291 5.95911 -4.65217 0
M  V30 3802 H 347.559 6.79981 -3.81112 0
M  V30 3803 N 351.788 1.33704 0.83433 0
M  V30 3804 C 352.735 1.24335 1.94447 0
M  V30 3805 C 353.705 0.120991 1.65659 0
M  V30 3806 O 354.89 0.300035 1.88426 0
M  V30 3807 C 352.03 0.993124 3.30501 0
M  V30 3808 C 351.143 2.20217 3.71657 0
M  V30 3809 C 350.278 1.88572 4.96602 0
M  V30 3810 C 349.317 3.05683 5.30306 0
M  V30 3811 N 348.454 2.73997 6.46429 0
M  V30 3812 H 353.294 2.1928 2.01792 0
M  V30 3813 H 350.831 1.09035 0.987404 0
M  V30 3814 H 352.789 0.828467 4.08892 0
M  V30 3815 H 351.419 0.0803902 3.227 0
M  V30 3816 H 350.471 2.47642 2.88752 0
M  V30 3817 H 351.783 3.07752 3.92543 0
M  V30 3818 H 350.937 1.68776 5.82752 0
M  V30 3819 H 349.676 0.982799 4.77695 0
M  V30 3820 H 348.681 3.26088 4.42659 0
M  V30 3821 H 349.906 3.96737 5.51159 0
M  V30 3822 H 347.852 1.86268 6.28999 0
M  V30 3823 H 347.769 3.55064 6.67432 0
M  V30 3824 H 349.037 2.57679 7.35678 0
M  V30 3825 N 353.266 -1.05314 1.17247 0
M  V30 3826 C 354.543 -1.75184 0.87005 0
M  V30 3827 C 354.923 -2.01481 -0.629965 0
M  V30 3828 O 354.271 -1.64988 -1.58086 0
M  V30 3829 C 354.481 -3.04594 1.70363 0
M  V30 3830 C 355.829 -3.78567 1.92281 0
M  V30 3831 O 356.853 -3.14461 1.67311 0
M  V30 3832 O 355.712 -4.93755 2.3424 0
M  V30 3833 H 352.806 -0.761729 0.322021 0
M  V30 3834 H 355.352 -1.11493 1.27935 0
M  V30 3835 H 354.124 -2.81201 2.72106 0
M  V30 3836 H 353.747 -3.76022 1.29202 0
M  V30 3837 N 354.744 -0.972509 -1.24016 0
M  V30 3838 C 355.991 -0.637034 -1.92219 0
M  V30 3839 C 356.319 0.828418 -1.75976 0
M  V30 3840 O 355.574 1.61206 -1.10955 0
M  V30 3841 C 355.873 -0.963694 -3.44162 0
M  V30 3842 C 355.539 -2.41807 -3.80579 0
M  V30 3843 C 354.201 -2.81556 -3.9023 0
M  V30 3844 C 356.553 -3.36172 -3.98293 0
M  V30 3845 C 353.881 -4.14702 -4.15017 0
M  V30 3846 C 356.233 -4.68952 -4.24578 0
M  V30 3847 C 354.897 -5.08472 -4.32449 0
M  V30 3848 H 354.167 -0.233107 -0.703379 0
M  V30 3849 H 356.814 -1.2249 -1.47202 0
M  V30 3850 H 355.119 -0.29365 -3.90698 0
M  V30 3851 H 356.816 -0.682449 -3.9515 0
M  V30 3852 H 353.406 -2.09988 -3.73635 0
M  V30 3853 H 357.59 -3.06644 -3.90234 0
M  V30 3854 H 352.846 -4.4494 -4.19331 0
M  V30 3855 H 357.02 -5.42037 -4.37229 0
M  V30 3856 H 354.647 -6.11665 -4.51409 0
M  V30 3857 N 356.222 1.38976 -0.743202 0
M  V30 3858 C 357.499 1.94351 -0.220705 0
M  V30 3859 C 357.879 1.67935 1.2791 0
M  V30 3860 O 357.227 1.01211 2.04862 0
M  V30 3861 C 357.437 3.44426 -0.563171 0
M  V30 3862 C 358.785 4.2144 -0.517046 0
M  V30 3863 O 359.809 3.52661 -0.500846 0
M  V30 3864 O 358.668 5.44032 -0.518806 0
M  V30 3865 H 355.762 0.825879 -0.043047 0
M  V30 3866 H 358.308 1.48429 -0.822618 0
M  V30 3867 H 357.08 3.5712 -1.59941 0
M  V30 3868 H 356.703 3.97543 0.0672883 0
M  V30 3869 N 357.7 0.491464 1.49741 0
M  V30 3870 C 358.928 -0.0535151 2.06831 0
M  V30 3871 C 359.343 -1.31683 1.35296 0
M  V30 3872 O 358.7 -1.77402 0.42836 0
M  V30 3873 C 358.751 -0.320835 3.60073 0
M  V30 3874 O 358.472 0.892394 4.28915 0
M  V30 3875 C 359.973 -0.910519 4.33848 0
M  V30 3876 H 357.193 0.0161909 0.670805 0
M  V30 3877 H 359.737 0.68609 1.92647 0
M  V30 3878 H 357.892 -1.0104 3.73991 0
M  V30 3879 H 358.306 0.649401 5.20464 0
M  V30 3880 H 359.78 -1.04721 5.41976 0
M  V30 3881 H 360.257 -1.90589 3.95692 0
M  V30 3882 H 360.863 -0.258712 4.24512 0
M  V30 3883 N 359.178 -1.55987 0.224894 0
M  V30 3884 C 360.141 -2.19178 -0.670348 0
M  V30 3885 C 361.141 -1.15461 -1.11917 0
M  V30 3886 O 362.331 -1.40675 -1.02743 0
M  V30 3887 C 359.463 -2.81777 -1.9187 0
M  V30 3888 H 360.656 -2.99662 -0.119364 0
M  V30 3889 H 358.209 -1.5628 -0.0247128 0
M  V30 3890 H 358.944 -2.05172 -2.51147 0
M  V30 3891 H 358.729 -3.57732 -1.60531 0
M  V30 3892 H 360.219 -3.30205 -2.55645 0
M  V30 3893 N 360.656 0.0484629 -1.57525 0
M  V30 3894 C 361.586 1.0549 -2.08313 0
M  V30 3895 C 362.567 1.38929 -0.981463 0
M  V30 3896 O 363.752 1.48151 -1.25558 0
M  V30 3897 C 360.882 2.36162 -2.54646 0
M  V30 3898 C 359.836 2.17016 -3.68901 0
M  V30 3899 C 359.162 3.53278 -4.01371 0
M  V30 3900 C 360.462 1.57219 -4.98076 0
M  V30 3901 H 362.156 0.632195 -2.92649 0
M  V30 3902 H 359.702 0.302654 -1.40784 0
M  V30 3903 H 361.655 3.06882 -2.88793 0
M  V30 3904 H 360.379 2.80456 -1.67368 0
M  V30 3905 H 359.038 1.48733 -3.35073 0
M  V30 3906 H 358.686 3.95185 -3.11188 0
M  V30 3907 H 358.386 3.41299 -4.78318 0
M  V30 3908 H 359.91 4.25391 -4.38035 0
M  V30 3909 H 361.324 2.17832 -5.30304 0
M  V30 3910 H 359.721 1.55871 -5.79503 0
M  V30 3911 H 360.791 0.535956 -4.81929 0
M  V30 3912 N 362.134 1.5431 0.320358 0
M  V30 3913 C 363.081 1.83918 1.39438 0
M  V30 3914 C 364.051 0.686525 1.51248 0
M  V30 3915 O 365.236 0.933269 1.66417 0
M  V30 3916 C 362.376 2.075 2.75749 0
M  V30 3917 C 361.489 3.35177 2.72544 0
M  V30 3918 C 360.624 3.48704 4.00723 0
M  V30 3919 C 359.663 4.70244 3.91838 0
M  V30 3920 N 358.8 4.80679 5.11754 0
M  V30 3921 H 363.64 2.75544 1.13489 0
M  V30 3922 H 361.177 1.36459 0.549309 0
M  V30 3923 H 363.135 2.19166 3.54996 0
M  V30 3924 H 361.765 1.19163 3 0
M  V30 3925 H 360.817 3.32233 1.85271 0
M  V30 3926 H 362.129 4.24534 2.61863 0
M  V30 3927 H 361.283 3.59928 4.88402 0
M  V30 3928 H 360.022 2.57445 4.14214 0
M  V30 3929 H 359.027 4.59072 3.02544 0
M  V30 3930 H 360.252 5.6289 3.7991 0
M  V30 3931 H 358.198 3.92337 5.25745 0
M  V30 3932 H 358.115 5.64007 5.0342 0
M  V30 3933 H 359.383 4.96239 6.01138 0
M  V30 3934 N 363.613 -0.582584 1.46437 0
M  V30 3935 C 364.563 -1.68654 1.53426 0
M  V30 3936 C 365.547 -1.55971 0.395194 0
M  V30 3937 O 366.739 -1.64884 0.643612 0
M  V30 3938 C 363.868 -3.07439 1.52762 0
M  V30 3939 C 362.954 -3.25418 2.71963 0
M  V30 3940 N 363.345 -3.13556 3.96883 0
M  V30 3941 C 361.643 -3.56357 2.68189 0
M  V30 3942 C 362.344 -3.33543 4.76575 0
M  V30 3943 N 361.32 -3.58704 4.08451 0
M  V30 3944 H 365.122 -1.58014 2.47808 0
M  V30 3945 H 362.636 -0.786617 1.42078 0
M  V30 3946 H 364.633 -3.86671 1.55857 0
M  V30 3947 H 363.293 -3.1921 0.594573 0
M  V30 3948 H 364.304 -2.9142 4.28129 0
M  V30 3949 H 360.981 -3.74812 1.83908 0
M  V30 3950 H 362.371 -3.29555 5.85528 0
M  V30 3951 N 365.091 -1.34144 -0.827227 0
M  V30 3952 C 366.321 -1.29138 -1.61267 0
M  V30 3953 C 366.729 0.137597 -1.88699 0
M  V30 3954 O 366.072 1.09379 -1.47587 0
M  V30 3955 C 366.134 -2.0097 -2.9808 0
M  V30 3956 C 365.798 -3.50242 -2.93563 0
M  V30 3957 C 366.795 -4.4523 -2.68452 0
M  V30 3958 C 364.48 -3.92592 -3.13331 0
M  V30 3959 C 366.474 -5.80542 -2.63154 0
M  V30 3960 C 364.161 -5.28005 -3.07658 0
M  V30 3961 C 365.159 -6.21792 -2.82602 0
M  V30 3962 O 364.847 -7.54723 -2.76853 0
M  V30 3963 H 364.579 -0.445851 -0.508127 0
M  V30 3964 H 367.133 -1.77263 -1.03763 0
M  V30 3965 H 365.363 -1.47451 -3.57484 0
M  V30 3966 H 367.052 -1.89309 -3.5905 0
M  V30 3967 H 367.818 -4.13832 -2.52919 0
M  V30 3968 H 363.697 -3.19994 -3.31851 0
M  V30 3969 H 367.241 -6.53717 -2.43516 0
M  V30 3970 H 363.138 -5.59023 -3.22743 0
M  V30 3971 H 363.906 -7.64409 -2.92611 0
M  V30 3972 N 366.569 1.04691 -1.17803 0
M  V30 3973 C 367.846 1.7472 -0.879328 0
M  V30 3974 C 368.226 2.01812 0.619271 0
M  V30 3975 O 367.574 1.65824 1.57209 0
M  V30 3976 C 367.784 3.03686 -1.71976 0
M  V30 3977 C 369.132 3.77542 -1.94286 0
M  V30 3978 O 370.156 3.13569 -1.68976 0
M  V30 3979 O 369.015 4.92506 -2.36855 0
M  V30 3980 H 366.109 0.760011 -0.326056 0
M  V30 3981 H 368.655 1.10813 -1.28525 0
M  V30 3982 H 367.427 2.79754 -2.73594 0
M  V30 3983 H 367.05 3.75332 -1.31194 0
M  V30 3984 N 368.047 0.979072 1.23499 0
M  V30 3985 C 368.994 0.517904 2.24914 0
M  V30 3986 C 369.964 -0.442525 1.60097 0
M  V30 3987 O 371.149 -0.350365 1.87556 0
M  V30 3988 C 368.289 -0.174813 3.44657 0
M  V30 3989 C 367.402 0.825721 4.24035 0
M  V30 3990 C 366.537 0.107946 5.3109 0
M  V30 3991 C 365.576 1.09778 6.02175 0
M  V30 3992 N 364.713 0.40925 7.00906 0
M  V30 3993 H 369.553 1.38751 2.63727 0
M  V30 3994 H 367.09 0.695303 1.2963 0
M  V30 3995 H 369.048 -0.593233 4.12961 0
M  V30 3996 H 367.678 -1.0083 3.06648 0
M  V30 3997 H 366.73 1.36253 3.55161 0
M  V30 3998 H 368.042 1.58005 4.73113 0
M  V30 3999 H 367.196 -0.367904 6.05583 0
M  V30 4000 H 365.935 -0.678994 4.8295 0
M  V30 4001 H 364.94 1.5844 5.26476 0
M  V30 4002 H 366.165 1.88536 6.52404 0
M  V30 4003 H 364.111 -0.358506 6.5502 0
M  V30 4004 H 364.028 1.10226 7.47921 0
M  V30 4005 H 365.296 -0.0442557 7.79487 0
M  V30 4006 N 369.525 -1.3858 0.750561 0
M  V30 4007 C 370.488 -2.28836 0.129152 0
M  V30 4008 C 371.488 -1.47045 -0.650714 0
M  V30 4009 O 372.678 -1.6753 -0.477428 0
M  V30 4010 C 369.81 -3.30751 -0.825622 0
M  V30 4011 H 371.003 -2.85294 0.924516 0
M  V30 4012 H 368.556 -1.47489 0.517376 0
M  V30 4013 H 369.291 -2.79378 -1.64677 0
M  V30 4014 H 369.076 -3.91177 -0.268852 0
M  V30 4015 H 370.566 -3.98249 -1.2565 0
M  V30 4016 N 371.003 -0.499398 -1.49478 0
M  V30 4017 C 371.95 0.279881 -2.29097 0
M  V30 4018 C 372.92 0.961805 -1.3542 0
M  V30 4019 O 374.105 0.968777 -1.64376 0
M  V30 4020 C 371.245 1.33932 -3.18051 0
M  V30 4021 C 370.358 0.669333 -4.26783 0
M  V30 4022 C 369.493 1.70907 -5.02955 0
M  V30 4023 C 368.532 1.02087 -6.03527 0
M  V30 4024 N 367.669 2.00474 -6.7287 0
M  V30 4025 H 372.509 -0.405317 -2.95231 0
M  V30 4026 H 370.046 -0.211726 -1.45568 0
M  V30 4027 H 372.004 1.96553 -3.67998 0
M  V30 4028 H 370.634 1.9933 -2.53904 0
M  V30 4029 H 369.686 -0.0701234 -3.80335 0
M  V30 4030 H 370.998 0.127503 -4.98637 0
M  V30 4031 H 370.152 2.41037 -5.56764 0
M  V30 4032 H 368.891 2.28476 -4.30871 0
M  V30 4033 H 367.896 0.305338 -5.48951 0
M  V30 4034 H 369.121 0.451708 -6.77596 0
M  V30 4035 H 367.067 2.57007 -6.03559 0
M  V30 4036 H 366.984 1.51353 -7.40694 0
M  V30 4037 H 368.252 2.69897 -7.31284 0
M  V30 4038 N 372.481 1.55866 -0.233164 0
M  V30 4039 C 373.391 2.24431 0.683217 0
M  V30 4040 C 374.407 1.2558 1.2044 0
M  V30 4041 O 375.583 1.58422 1.24356 0
M  V30 4042 C 372.648 2.91979 1.86947 0
M  V30 4043 C 371.709 4.06204 1.38912 0
M  V30 4044 C 370.942 4.70522 2.51883 0
M  V30 4045 O 371.165 4.33865 3.70293 0
M  V30 4046 O 370.099 5.59296 2.22423 0
M  V30 4047 H 373.925 3.03426 0.129059 0
M  V30 4048 H 371.51 1.494 -0.0022283 0
M  V30 4049 H 373.392 3.34573 2.56201 0
M  V30 4050 H 372.067 2.15935 2.41151 0
M  V30 4051 H 370.974 3.68155 0.664259 0
M  V30 4052 H 372.307 4.84025 0.893328 0
M  V30 4053 N 373.959 -0.0401083 1.57549 0
M  V30 4054 C 374.889 -1.04384 2.08869 0
M  V30 4055 C 375.87 -1.38407 0.988817 0
M  V30 4056 O 377.055 -1.47483 1.26342 0
M  V30 4057 C 374.185 -2.34808 2.55895 0
M  V30 4058 C 373.139 -2.15057 3.70047 0
M  V30 4059 C 372.465 -3.51145 4.03239 0
M  V30 4060 C 373.765 -1.54576 4.98902 0
M  V30 4061 H 375.459 -0.616666 2.92981 0
M  V30 4062 H 373.005 -0.295184 1.40942 0
M  V30 4063 H 374.958 -3.05346 2.90417 0
M  V30 4064 H 373.682 -2.79565 1.68853 0
M  V30 4065 H 372.341 -1.46954 3.35857 0
M  V30 4066 H 371.989 -3.93529 3.13279 0
M  V30 4067 H 371.689 -3.38758 4.80122 0
M  V30 4068 H 373.213 -4.23062 4.40285 0
M  V30 4069 H 374.627 -2.15017 5.31451 0
M  V30 4070 H 373.024 -1.52796 5.80322 0
M  V30 4071 H 374.094 -0.51039 4.82206 0
M  V30 4072 N 375.437 -1.54477 -0.31217 0
M  V30 4073 C 376.714 -1.63891 -1.06767 0
M  V30 4074 C 377.094 -0.480028 -2.0557 0
M  V30 4075 O 376.442 0.524487 -2.22399 0
M  V30 4076 C 376.652 -3.01402 -1.75948 0
M  V30 4077 C 378 -3.57838 -2.28554 0
M  V30 4078 O 379.024 -3.03782 -1.85998 0
M  V30 4079 O 377.883 -4.52462 -3.06497 0
M  V30 4080 H 374.977 -0.664125 -0.492816 0
M  V30 4081 H 377.523 -1.66823 -0.311149 0
M  V30 4082 H 376.295 -3.77187 -1.04144 0
M  V30 4083 H 375.918 -3.02199 -2.58383 0
M  V30 4084 N 376.915 0.57481 -1.46744 0
M  V30 4085 C 378.326 1.15695 -1.46532 0
M  V30 4086 C 378.677 1.95068 -0.210425 0
M  V30 4087 O 377.802 2.05241 0.685944 0
M  V30 4088 C 378.397 2.1048 -2.65487 0
M  V30 4089 C 376.956 2.64002 -2.68291 0
M  V30 4090 C 376.103 1.40026 -2.39349 0
M  V30 4091 H 379.054 0.362325 -1.54509 0
M  V30 4092 H 379.075 2.94074 -2.41455 0
M  V30 4093 H 378.587 1.52683 -3.56805 0
M  V30 4094 H 376.688 3.25646 -1.81067 0
M  V30 4095 H 376.801 3.06197 -3.68483 0
M  V30 4096 H 375.165 1.70106 -1.89568 0
M  V30 4097 H 375.948 0.840485 -3.32852 0
M  V30 4098 N 378.394 1.34581 0.820102 0
M  V30 4099 C 379.622 1.3018 1.60813 0
M  V30 4100 C 380.037 -0.123551 1.88395 0
M  V30 4101 O 379.394 -1.07148 1.47735 0
M  V30 4102 C 379.445 2.09312 2.94739 0
M  V30 4103 O 379.166 3.46288 2.68358 0
M  V30 4104 C 380.667 2.1234 3.89136 0
M  V30 4105 H 377.887 0.447726 0.499782 0
M  V30 4106 H 380.431 1.77237 1.02017 0
M  V30 4107 H 378.586 1.65889 3.50085 0
M  V30 4108 H 379 3.87227 3.53774 0
M  V30 4109 H 380.474 2.72126 4.80262 0
M  V30 4110 H 380.951 1.11854 4.24718 0
M  V30 4111 H 381.557 2.55864 3.39726 0
M  V30 4112 N 379.872 -1.04064 1.18357 0
M  V30 4113 C 380.82 -2.14187 0.907007 0
M  V30 4114 C 381.814 -1.68879 -0.132725 0
M  V30 4115 O 383.02 -1.79993 0.0154248 0
M  V30 4116 H 379.395 -0.699585 0.275835 0
M  V30 4117 H 381.366 -2.34711 1.84264 0
M  V30 4118 C 380.115 -3.44785 0.449254 0
M  V30 4119 H 379.438 -3.80058 1.24081 0
M  V30 4120 H 380.878 -4.22974 0.294737 0
M  V30 4121 C 379.337 -3.26391 -0.834909 0
M  V30 4122 O 379.867 -3.53973 -1.89911 0
M  V30 4123 N 378.073 -2.79726 -0.787523 0
M  V30 4124 H 377.62 -2.5748 0.0787347 0
M  V30 4125 H 377.578 -2.67798 -1.64716 0
M  V30 4126 N 381.35 -0.985608 -1.22978 0
M  V30 4127 C 382.283 -0.47487 -2.23204 0
M  V30 4128 C 383.261 0.460865 -1.55932 0
M  V30 4129 O 384.445 0.388105 -1.84461 0
M  V30 4130 C 381.572 0.312427 -3.37256 0
M  V30 4131 C 380.618 -0.568219 -4.22698 0
M  V30 4132 S 381.451 -2.01919 -4.95973 0
M  V30 4133 C 382.607 -1.24118 -6.1347 0
M  V30 4134 H 382.84 -1.32419 -2.66181 0
M  V30 4135 H 380.373 -0.792005 -1.32539 0
M  V30 4136 H 382.331 0.760645 -4.03391 0
M  V30 4137 H 380.992 1.13693 -2.92801 0
M  V30 4138 H 380.185 0.0371657 -5.03986 0
M  V30 4139 H 379.787 -0.952897 -3.61657 0
M  V30 4140 H 382.079 -0.505121 -6.75614 0
M  V30 4141 H 383.022 -2.02907 -6.78406 0
M  V30 4142 H 383.43 -0.757669 -5.59392 0
M  V30 4143 N 382.828 1.3818 -0.7579 0
M  V30 4144 C 384.056 2.04301 -0.326937 0
M  V30 4145 C 384.471 1.57163 1.0462 0
M  V30 4146 O 383.828 0.746626 1.66529 0
M  V30 4147 C 383.879 3.59846 -0.345363 0
M  V30 4148 O 383.6 4.05256 -1.66432 0
M  V30 4149 C 385.101 4.4319 0.098927 0
M  V30 4150 H 382.321 0.656443 -0.139012 0
M  V30 4151 H 384.865 1.76786 -1.02796 0
M  V30 4152 H 383.02 3.86182 0.306955 0
M  V30 4153 H 383.434 4.99709 -1.59345 0
M  V30 4154 H 384.908 5.51989 0.0348745 0
M  V30 4155 H 385.385 4.23947 1.14741 0
M  V30 4156 H 385.991 4.22051 -0.52468 0
M  V30 4157 N 384.306 0.507319 1.49211 0
M  V30 4158 C 385.536 -0.0315292 2.06576 0
M  V30 4159 C 385.944 -1.30791 1.36713 0
M  V30 4160 O 385.287 -1.78324 0.441181 0
M  V30 4161 C 385.349 -0.349104 3.57801 0
M  V30 4162 C 385.013 0.830475 4.49391 0
M  V30 4163 C 386.01 1.72271 4.90529 0
M  V30 4164 C 383.695 1.03107 4.91604 0
M  V30 4165 C 385.689 2.79964 5.72625 0
M  V30 4166 C 383.376 2.11116 5.73475 0
M  V30 4167 C 384.374 2.99379 6.1389 0
M  V30 4168 O 384.062 4.05523 6.94123 0
M  V30 4169 H 383.794 0.0201002 0.675701 0
M  V30 4170 H 386.348 0.705737 1.92895 0
M  V30 4171 H 384.578 -1.14005 3.69513 0
M  V30 4172 H 386.267 -0.827319 3.97379 0
M  V30 4173 H 387.033 1.57958 4.58557 0
M  V30 4174 H 382.912 0.353417 4.59643 0
M  V30 4175 H 386.456 3.48884 6.04091 0
M  V30 4176 H 382.353 2.25421 6.0486 0
M  V30 4177 H 383.121 4.02953 7.1244 0
M  V30 4178 N 385.784 -1.5574 0.241426 0
M  V30 4179 C 387.033 -1.97986 -0.385295 0
M  V30 4180 C 387.346 -1.13267 -1.59468 0
M  V30 4181 O 388.552 -1.45501 -2.2922 0
M  V30 4182 C 387.008 -3.52275 -0.736884 0
M  V30 4183 C 386.616 -4.45726 0.450796 0
M  V30 4184 C 388.36 -4.03189 -1.3281 0
M  V30 4185 C 386.267 -5.91352 0.0756662 0
M  V30 4186 H 385.197 -0.739386 -0.147731 0
M  V30 4187 H 387.848 -1.80308 0.340779 0
M  V30 4188 H 386.23 -3.65628 -1.52094 0
M  V30 4189 H 387.404 -4.44131 1.22819 0
M  V30 4190 H 385.719 -4.05264 0.956573 0
M  V30 4191 H 388.316 -5.09505 -1.62201 0
M  V30 4192 H 388.659 -3.50212 -2.25071 0
M  V30 4193 H 389.192 -3.93141 -0.607069 0
M  V30 4194 H 385.931 -6.48354 0.965272 0
M  V30 4195 H 385.451 -5.96095 -0.665635 0
M  V30 4196 H 387.13 -6.46084 -0.344075 0
M  V30 4197 N 387.262 0.0317525 -1.57568 0
M  V30 4198 C 388.49 0.734949 -1.93407 0
M  V30 4199 C 388.905 1.69036 -0.84096 0
M  V30 4200 O 388.262 1.81582 0.182836 0
M  V30 4201 C 388.313 1.49432 -3.29169 0
M  V30 4202 O 388.034 0.577261 -4.3428 0
M  V30 4203 C 389.535 2.29492 -3.79273 0
M  V30 4204 H 386.755 0.206706 -0.638368 0
M  V30 4205 H 389.299 -0.00992046 -2.04498 0
M  V30 4206 H 387.454 2.1911 -3.19483 0
M  V30 4207 H 387.868 1.10952 -5.1263 0
M  V30 4208 H 389.342 2.78172 -4.76785 0
M  V30 4209 H 389.819 3.10794 -3.10328 0
M  V30 4210 H 390.425 1.64894 -3.92033 0
M  V30 4211 N 388.74 1.54641 0.303973 0
M  V30 4212 C 389.688 1.86137 1.39484 0
M  V30 4213 C 390.682 0.734854 1.52631 0
M  V30 4214 O 391.888 0.918803 1.54784 0
M  V30 4215 H 388.263 0.590324 0.465856 0
M  V30 4216 H 390.234 2.77324 1.10154 0
M  V30 4217 C 388.983 2.12274 2.75382 0
M  V30 4218 H 388.306 2.98429 2.66046 0
M  V30 4219 H 389.746 2.38254 3.5073 0
M  V30 4220 C 388.205 0.920365 3.24085 0
M  V30 4221 O 388.735 0.139377 4.01458 0
M  V30 4222 N 386.941 0.726566 2.81371 0
M  V30 4223 H 386.488 1.36332 2.18567 0
M  V30 4224 H 386.446 -0.0763799 3.14307 0
M  V30 4225 N 390.218 -0.567019 1.47046 0
M  V30 4226 C 391.15 -1.68985 1.54844 0
M  V30 4227 C 392.163 -1.56869 0.435431 0
M  V30 4228 O 393.352 -1.64006 0.70457 0
M  V30 4229 C 390.452 -3.07373 1.42742 0
M  V30 4230 C 389.625 -3.45339 2.6844 0
M  V30 4231 C 388.684 -4.62849 2.50314 0
M  V30 4232 O 387.71 -4.67922 3.24095 0
M  V30 4233 N 388.912 -5.58726 1.57499 0
M  V30 4234 H 391.677 -1.62745 2.51663 0
M  V30 4235 H 389.238 -0.753411 1.43302 0
M  V30 4236 H 391.23 -3.83803 1.28365 0
M  V30 4237 H 389.8 -3.07893 0.540445 0
M  V30 4238 H 389.02 -2.58455 2.97648 0
M  V30 4239 H 390.308 -3.67476 3.51907 0
M  V30 4240 H 389.706 -5.57376 0.966876 0
M  V30 4241 H 388.263 -6.34523 1.49078 0
M  V30 4242 N 391.696 -1.35014 -0.812953 0
M  V30 4243 C 392.659 -1.27292 -1.90602 0
M  V30 4244 C 393.659 -0.185817 -1.59723 0
M  V30 4245 O 394.849 -0.439102 -1.68575 0
M  V30 4246 C 391.981 -0.967676 -3.26877 0
M  V30 4247 H 393.174 -2.24479 -1.9887 0
M  V30 4248 H 390.727 -1.19446 -1.00808 0
M  V30 4249 H 391.462 0.0005954 -3.243 0
M  V30 4250 H 391.247 -1.75412 -3.50675 0
M  V30 4251 H 392.737 -0.939085 -4.06904 0
M  V30 4252 N 393.175 1.03435 -1.18907 0
M  V30 4253 C 394.138 2.09756 -0.923844 0
M  V30 4254 C 395.138 1.60528 0.093416 0
M  V30 4255 O 396.328 1.73631 -0.140727 0
M  V30 4256 C 393.46 3.38692 -0.387354 0
M  V30 4257 H 394.653 2.34719 -1.86674 0
M  V30 4258 H 392.206 1.19959 -1.00197 0
M  V30 4259 H 392.941 3.19396 0.561845 0
M  V30 4260 H 392.726 3.75742 -1.12074 0
M  V30 4261 H 394.216 4.17016 -0.220694 0
M  V30 4262 N 394.653 0.992116 1.22453 0
M  V30 4263 C 395.899 0.668523 1.91464 0
M  V30 4264 C 396.232 -0.797313 1.77078 0
M  V30 4265 O 395.507 -1.5765 1.13916 0
M  V30 4266 C 395.79 1.07424 3.43703 0
M  V30 4267 C 395.643 2.59857 3.67143 0
M  V30 4268 C 396.962 0.626891 4.35612 0
M  V30 4269 H 394.081 0.244341 0.695318 0
M  V30 4270 H 396.723 1.2355 1.44345 0
M  V30 4271 H 394.873 0.591816 3.83966 0
M  V30 4272 H 396.545 3.15764 3.3629 0
M  V30 4273 H 394.788 3.01961 3.11451 0
M  V30 4274 H 395.459 2.83296 4.73759 0
M  V30 4275 H 397.935 1.04125 4.02861 0
M  V30 4276 H 396.811 0.939076 5.40807 0
M  V30 4277 H 397.072 -0.472457 4.39568 0
M  V30 4278 N 396.131 -1.37776 0.765217 0
M  V30 4279 C 397.361 -2.03828 0.337277 0
M  V30 4280 C 397.769 -1.57841 -1.04321 0
M  V30 4281 O 397.112 -0.752043 -1.67601 0
M  V30 4282 C 397.174 -3.58292 0.294407 0
M  V30 4283 C 396.838 -4.27384 1.61838 0
M  V30 4284 C 397.835 -4.51956 2.56967 0
M  V30 4285 C 395.52 -4.65345 1.89102 0
M  V30 4286 C 397.514 -5.13536 3.77571 0
M  V30 4287 C 395.201 -5.26647 3.09978 0
M  V30 4288 C 396.199 -5.50679 4.04032 0
M  V30 4289 O 395.887 -6.10702 5.2278 0
M  V30 4290 H 395.619 -0.661292 0.140248 0
M  V30 4291 H 398.173 -1.77222 1.03834 0
M  V30 4292 H 396.403 -3.83918 -0.462983 0
M  V30 4293 H 398.092 -4.05763 -0.105581 0
M  V30 4294 H 398.858 -4.23048 2.37183 0
M  V30 4295 H 394.737 -4.45978 1.16725 0
M  V30 4296 H 398.281 -5.3221 4.50997 0
M  V30 4297 H 394.178 -5.54979 3.29649 0
M  V30 4298 H 394.946 -6.29183 5.23517 0
M  V30 4299 N 397.609 -0.515225 -1.4894 0
M  V30 4300 C 398.856 0.024215 -2.02486 0
M  V30 4301 C 399.184 1.35671 -1.39368 0
M  V30 4302 O 398.439 1.88566 -0.523574 0
M  V30 4303 C 398.738 0.210595 -3.56779 0
M  V30 4304 C 398.404 -1.04569 -4.38607 0
M  V30 4305 C 397.066 -1.39002 -4.60686 0
M  V30 4306 C 399.418 -1.88008 -4.86109 0
M  V30 4307 C 396.746 -2.568 -5.27514 0
M  V30 4308 C 399.098 -3.04972 -5.54234 0
M  V30 4309 C 397.762 -3.39768 -5.74555 0
M  V30 4310 H 397.032 0.00886088 -0.740947 0
M  V30 4311 H 399.679 -0.678263 -1.79086 0
M  V30 4312 H 397.984 0.99572 -3.78936 0
M  V30 4313 H 399.681 0.642659 -3.95817 0
M  V30 4314 H 396.271 -0.767497 -4.21672 0
M  V30 4315 H 400.455 -1.62719 -4.68867 0
M  V30 4316 H 395.711 -2.8398 -5.41447 0
M  V30 4317 H 399.885 -3.69943 -5.90013 0
M  V30 4318 H 397.512 -4.31148 -6.26112 0
M  V30 4319 N 399.087 1.5561 -0.249682 0
M  V30 4320 C 399.997 2.25143 0.659375 0
M  V30 4321 C 401.013 1.2685 1.19101 0
M  V30 4322 O 402.189 1.59732 1.22669 0
M  V30 4323 C 399.254 2.93945 1.8384 0
M  V30 4324 C 398.315 4.07655 1.34596 0
M  V30 4325 C 397.548 4.73167 2.46878 0
M  V30 4326 O 397.771 4.37768 3.65671 0
M  V30 4327 O 396.705 5.61623 2.16478 0
M  V30 4328 H 400.531 3.03545 0.0968698 0
M  V30 4329 H 398.116 1.49389 -0.018074 0
M  V30 4330 H 399.998 3.37271 2.52638 0
M  V30 4331 H 398.673 2.18481 2.38847 0
M  V30 4332 H 397.58 3.68839 0.625174 0
M  V30 4333 H 398.913 4.84946 0.841941 0
M  V30 4334 N 400.565 -0.0233959 1.57583 0
M  V30 4335 C 401.512 -1.02224 2.06927 0
M  V30 4336 C 402.482 -1.35575 0.959617 0
M  V30 4337 O 403.667 -1.45815 1.23055 0
M  V30 4338 C 400.807 -2.31636 2.5581 0
M  V30 4339 C 399.92 -2.04394 3.80588 0
M  V30 4340 C 399.055 -3.27717 4.18061 0
M  V30 4341 C 398.094 -2.96056 5.3574 0
M  V30 4342 N 397.231 -4.11847 5.68618 0
M  V30 4343 H 402.071 -0.594504 2.9201 0
M  V30 4344 H 399.608 -0.281921 1.44373 0
M  V30 4345 H 401.566 -3.07258 2.82221 0
M  V30 4346 H 400.196 -2.72122 1.73636 0
M  V30 4347 H 399.248 -1.19244 3.61227 0
M  V30 4348 H 400.56 -1.77042 4.66323 0
M  V30 4349 H 399.714 -4.11702 4.4563 0
M  V30 4350 H 398.453 -3.58188 3.30988 0
M  V30 4351 H 397.458 -2.10474 5.07918 0
M  V30 4352 H 398.683 -2.66857 6.24471 0
M  V30 4353 H 396.629 -4.42258 4.84504 0
M  V30 4354 H 396.546 -3.87938 6.48876 0
M  V30 4355 H 397.814 -4.96689 6.00766 0
M  V30 4356 N 402.043 -1.548 -0.295768 0
M  V30 4357 C 403.291 -1.73985 -1.02828 0
M  V30 4358 C 403.612 -0.531406 -1.87619 0
M  V30 4359 O 402.882 0.454221 -1.90561 0
M  V30 4360 H 401.462 -0.641556 -0.382642 0
M  V30 4361 H 404.124 -1.92163 -0.325489 0
M  V30 4362 H 403.22 -2.63129 -1.67838 0
M  V30 4363 N 403.521 0.559213 -1.47345 0
M  V30 4364 C 404.798 1.31997 -1.44348 0
M  V30 4365 C 405.178 2.1064 -0.139358 0
M  V30 4366 O 404.526 2.1091 0.879153 0
M  V30 4367 C 404.736 2.22618 -2.68779 0
M  V30 4368 C 406.084 2.83701 -3.1591 0
M  V30 4369 O 407.108 2.32921 -2.69493 0
M  V30 4370 O 405.967 3.75993 -3.966 0
M  V30 4371 H 403.061 0.594251 -0.575147 0
M  V30 4372 H 405.607 0.578282 -1.59543 0
M  V30 4373 H 404.379 1.64093 -3.55231 0
M  V30 4374 H 404.002 3.04085 -2.5616 0
M  V30 4375 N 404.999 1.35443 0.805782 0
M  V30 4376 C 406.229 1.31687 1.59192 0
M  V30 4377 C 406.637 -0.10756 1.88894 0
M  V30 4378 O 405.98 -1.07017 1.49309 0
M  V30 4379 C 406.042 2.05686 2.94845 0
M  V30 4380 C 405.706 3.54868 2.87954 0
M  V30 4381 C 406.703 4.49444 2.61335 0
M  V30 4382 C 404.388 3.97528 3.07046 0
M  V30 4383 C 406.382 5.84655 2.53885 0
M  V30 4384 C 404.069 5.32833 2.99219 0
M  V30 4385 C 405.067 6.26209 2.72674 0
M  V30 4386 O 404.755 7.59032 2.64811 0
M  V30 4387 H 404.487 0.453878 0.50097 0
M  V30 4388 H 407.041 1.78892 1.0093 0
M  V30 4389 H 405.271 1.5312 3.55093 0
M  V30 4390 H 406.96 1.94998 3.55993 0
M  V30 4391 H 407.726 4.17804 2.46303 0
M  V30 4392 H 403.605 3.25233 3.26718 0
M  V30 4393 H 407.149 6.57508 2.33086 0
M  V30 4394 H 403.046 5.64087 3.13809 0
M  V30 4395 H 403.814 7.68967 2.80413 0
M  V30 4396 N 406.477 -1.02803 1.19454 0
M  V30 4397 C 407.425 -2.13213 0.929673 0
M  V30 4398 C 408.419 -1.69011 -0.114806 0
M  V30 4399 O 409.625 -1.79967 0.0345147 0
M  V30 4400 H 406 -0.69662 0.28324 0
M  V30 4401 H 407.971 -2.32744 1.86743 0
M  V30 4402 C 406.72 -3.4429 0.485797 0
M  V30 4403 H 406.043 -3.7872 1.28105 0
M  V30 4404 H 407.483 -4.22638 0.339582 0
M  V30 4405 C 405.942 -3.27258 -0.800244 0
M  V30 4406 O 406.472 -3.55967 -1.86146 0
M  V30 4407 N 404.678 -2.80545 -0.75781 0
M  V30 4408 H 404.225 -2.57382 0.106039 0
M  V30 4409 H 404.183 -2.6953 -1.61867 0
M  V30 4410 N 407.956 -0.998596 -1.21925 0
M  V30 4411 C 408.903 -0.553621 -2.24062 0
M  V30 4412 C 409.873 0.416999 -1.6078 0
M  V30 4413 O 411.058 0.320482 -1.88089 0
M  V30 4414 C 408.198 0.119959 -3.44891 0
M  V30 4415 C 407.311 -0.893077 -4.22668 0
M  V30 4416 C 406.446 -0.192424 -5.30851 0
M  V30 4417 C 405.485 -1.19344 -6.00353 0
M  V30 4418 N 404.622 -0.520707 -7.00166 0
M  V30 4419 H 409.462 -1.4293 -2.61486 0
M  V30 4420 H 406.999 -0.715838 -1.28507 0
M  V30 4421 H 408.957 0.527459 -4.13852 0
M  V30 4422 H 407.587 0.959389 -3.08214 0
M  V30 4423 H 406.639 -1.41886 -3.52948 0
M  V30 4424 H 407.951 -1.65512 -4.70539 0
M  V30 4425 H 407.105 0.271515 -6.06092 0
M  V30 4426 H 405.844 0.602075 -4.83969 0
M  V30 4427 H 404.849 -1.66795 -5.23889 0
M  V30 4428 H 406.074 -1.98891 -6.49322 0
M  V30 4429 H 404.02 0.254252 -6.55507 0
M  V30 4430 H 403.937 -1.2211 -7.46073 0
M  V30 4431 H 405.205 -0.0797596 -7.79459 0
M  V30 4432 N 409.434 1.37368 -0.772513 0
M  V30 4433 C 410.674 2.01512 -0.342361 0
M  V30 4434 C 411.038 1.59997 1.06136 0
M  V30 4435 O 412.239 2.16609 1.59167 0
M  V30 4436 C 410.51 3.54134 -0.482048 0
M  V30 4437 S 412.069 4.38585 -0.137272 0
M  V30 4438 H 408.887 0.698699 -0.131686 0
M  V30 4439 H 411.489 1.67552 -1.0073 0
M  V30 4440 H 410.193 3.81837 -1.50428 0
M  V30 4441 H 409.724 3.92894 0.199413 0
M  V30 4442 H 411.739 4.84594 1.06692 0
M  V30 4443 N 410.912 0.523116 1.48665 0
M  V30 4444 C 412.328 0.180511 1.58576 0
M  V30 4445 C 412.528 -1.31597 1.52592 0
M  V30 4446 O 411.584 -2.0937 1.4114 0
M  V30 4447 C 412.897 0.776949 2.90489 0
M  V30 4448 C 414.445 0.745058 3.04003 0
M  V30 4449 C 414.92 1.31995 4.38567 0
M  V30 4450 N 416.411 1.28162 4.45117 0
M  V30 4451 C 417.146 1.6964 5.47731 0
M  V30 4452 N 416.642 2.18816 6.57337 0
M  V30 4453 N 418.435 1.6092 5.38573 0
M  V30 4454 H 410.586 1.4958 1.50797 0
M  V30 4455 H 412.849 0.621772 0.715614 0
M  V30 4456 H 412.555 1.82732 3.00503 0
M  V30 4457 H 412.429 0.25007 3.7637 0
M  V30 4458 H 414.816 -0.296532 2.93606 0
M  V30 4459 H 414.897 1.30933 2.1975 0
M  V30 4460 H 414.541 2.36043 4.49718 0
M  V30 4461 H 414.471 0.731418 5.21496 0
M  V30 4462 H 416.962 0.92155 3.66491 0
M  V30 4463 H 417.275 2.48478 7.31764 0
M  V30 4464 H 415.62 2.22805 6.58318 0
M  V30 4465 H 418.811 1.22304 4.5184 0
M  V30 4466 H 418.984 1.93567 6.18414 0
M  V30 4467 N 412.39 -1.55475 0.257931 0
M  V30 4468 C 413.3 -2.2549 -0.647425 0
M  V30 4469 C 414.316 -1.2748 -1.18427 0
M  V30 4470 O 415.492 -1.6038 -1.2182 0
M  V30 4471 C 412.557 -2.94916 -1.82278 0
M  V30 4472 C 411.618 -4.08363 -1.32432 0
M  V30 4473 C 410.851 -4.74469 -2.44366 0
M  V30 4474 O 411.074 -4.39701 -3.63344 0
M  V30 4475 O 410.008 -5.62763 -2.13497 0
M  V30 4476 H 413.834 -3.03593 -0.0807707 0
M  V30 4477 H 411.419 -1.49377 0.0259962 0
M  V30 4478 H 413.301 -3.38606 -2.50846 0
M  V30 4479 H 411.976 -2.19744 -2.37685 0
M  V30 4480 H 410.883 -3.69166 -0.605605 0
M  V30 4481 H 412.216 -4.85385 -0.816211 0
M  V30 4482 N 413.868 0.0150385 -1.57593 0
M  V30 4483 C 414.798 1.01047 -2.10503 0
M  V30 4484 C 415.779 1.36816 -1.01071 0
M  V30 4485 O 416.964 1.45455 -1.28672 0
M  V30 4486 C 414.094 2.30708 -2.59598 0
M  V30 4487 C 413.048 2.09142 -3.73421 0
M  V30 4488 C 412.374 3.44685 -4.08774 0
M  V30 4489 C 413.674 1.46619 -5.01298 0
M  V30 4490 H 415.368 0.569978 -2.93925 0
M  V30 4491 H 412.914 0.272724 -1.41394 0
M  V30 4492 H 414.867 3.00687 -2.95238 0
M  V30 4493 H 413.591 2.76843 -1.73279 0
M  V30 4494 H 412.25 1.41592 -3.38153 0
M  V30 4495 H 411.898 3.88495 -3.195 0
M  V30 4496 H 411.598 3.31077 -4.8545 0
M  V30 4497 H 413.122 4.16004 -4.4696 0
M  V30 4498 H 414.536 2.06535 -5.34805 0
M  V30 4499 H 412.933 1.43544 -5.82679 0
M  V30 4500 H 414.003 0.433611 -4.82957 0
M  V30 4501 N 415.346 1.54954 0.287554 0
M  V30 4502 C 416.586 1.76617 1.02887 0
M  V30 4503 C 416.95 0.547759 1.84021 0
M  V30 4504 O 418.151 0.642365 2.61012 0
M  V30 4505 C 416.422 3.02717 1.89993 0
M  V30 4506 S 417.981 3.45438 2.70588 0
M  V30 4507 H 414.799 0.6207 0.346775 0
M  V30 4508 H 417.401 1.93172 0.30082 0
M  V30 4509 H 416.105 3.89503 1.29287 0
M  V30 4510 H 415.636 2.88787 2.67144 0
M  V30 4511 H 417.651 3.03566 3.92508 0
M  V30 4512 N 416.824 -0.551391 1.4764 0
M  V30 4513 C 417.734 -1.68525 1.63207 0
M  V30 4514 C 418.75 -1.6621 0.514815 0
M  V30 4515 O 419.926 -1.85551 0.783113 0
M  V30 4516 C 416.991 -3.05025 1.64805 0
M  V30 4517 C 416.052 -3.18362 2.88 0
M  V30 4518 C 415.285 -4.4835 2.89513 0
M  V30 4519 O 415.508 -5.34163 2.00065 0
M  V30 4520 O 414.442 -4.65602 3.81443 0
M  V30 4521 H 418.268 -1.58333 2.59161 0
M  V30 4522 H 415.853 -0.722063 1.30792 0
M  V30 4523 H 417.735 -3.86245 1.68502 0
M  V30 4524 H 416.41 -3.15587 0.720197 0
M  V30 4525 H 415.317 -2.36518 2.89845 0
M  V30 4526 H 416.65 -3.12707 3.80099 0
M  V30 4527 N 418.302 -1.35869 -0.798587 0
M  V30 4528 C 419.249 -1.29446 -1.91082 0
M  V30 4529 C 420.219 -0.16487 -1.6528 0
M  V30 4530 O 421.404 -0.349888 -1.87564 0
M  V30 4531 C 418.544 -1.0804 -3.27752 0
M  V30 4532 C 417.657 -2.29993 -3.65687 0
M  V30 4533 C 416.792 -2.01673 -4.91428 0
M  V30 4534 C 415.831 -3.19636 -5.22015 0
M  V30 4535 N 414.968 -2.91039 -6.38937 0
M  V30 4536 H 419.808 -2.24553 -1.95907 0
M  V30 4537 H 417.345 -1.11615 -0.958148 0
M  V30 4538 H 419.303 -0.936586 -4.06551 0
M  V30 4539 H 417.933 -0.16592 -3.22373 0
M  V30 4540 H 416.985 -2.55211 -2.82085 0
M  V30 4541 H 418.297 -3.18052 -3.84245 0
M  V30 4542 H 417.451 -1.84168 -5.78072 0
M  V30 4543 H 416.19 -1.10911 -4.74921 0
M  V30 4544 H 415.195 -3.37709 -4.33858 0
M  V30 4545 H 416.42 -4.11211 -5.40447 0
M  V30 4546 H 414.366 -2.0288 -6.2384 0
M  V30 4547 H 414.283 -3.72635 -6.57784 0
M  V30 4548 H 415.551 -2.77093 -7.28587 0
M  V30 4549 N 419.78 1.02168 -1.19998 0
M  V30 4550 C 420.743 2.08765 -0.94604 0
M  V30 4551 C 421.743 1.60618 0.0763846 0
M  V30 4552 O 422.933 1.73472 -0.159135 0
M  V30 4553 C 420.065 3.38262 -0.423255 0
M  V30 4554 H 421.258 2.32726 -1.89153 0
M  V30 4555 H 418.811 1.1889 -1.01464 0
M  V30 4556 H 419.546 3.19974 0.527938 0
M  V30 4557 H 419.331 3.74532 -1.16053 0
M  V30 4558 H 420.821 4.16759 -0.264911 0
M  V30 4559 N 421.258 1.00505 1.21394 0
M  V30 4560 C 422.507 0.683159 1.89778 0
M  V30 4561 C 422.82 -0.789471 1.7896 0
M  V30 4562 O 424.026 -1.22344 2.42372 0
M  V30 4563 C 422.482 1.17146 3.40301 0
M  V30 4564 C 422.09 2.67017 3.5973 0
M  V30 4565 C 423.834 0.924461 4.14311 0
M  V30 4566 C 421.741 3.09387 5.04017 0
M  V30 4567 H 420.671 0.25183 0.710702 0
M  V30 4568 H 423.322 1.21622 1.37406 0
M  V30 4569 H 421.704 0.566451 3.91928 0
M  V30 4570 H 422.878 3.32968 3.18542 0
M  V30 4571 H 421.193 2.89732 2.99073 0
M  V30 4572 H 423.79 1.21658 5.20676 0
M  V30 4573 H 424.133 -0.139286 4.16067 0
M  V30 4574 H 424.666 1.49226 3.6875 0
M  V30 4575 H 421.405 4.14989 5.07409 0
M  V30 4576 H 420.925 2.48149 5.46061 0
M  V30 4577 H 422.604 3.01371 5.72525 0
M  V30 4578 N 422.737 -1.36956 0.779787 0
M  V30 4579 C 423.647 -2.33965 0.172491 0
M  V30 4580 C 424.663 -1.60574 -0.670222 0
M  V30 4581 O 425.839 -1.92617 -0.588263 0
M  V30 4582 C 422.904 -3.39761 -0.690173 0
M  V30 4583 C 421.965 -4.28964 0.169924 0
M  V30 4584 C 421.198 -5.29707 -0.651662 0
M  V30 4585 O 421.421 -5.38238 -1.88827 0
M  V30 4586 O 420.355 -6.01873 -0.0566264 0
M  V30 4587 H 424.181 -2.87647 0.974321 0
M  V30 4588 H 421.766 -1.39258 0.541078 0
M  V30 4589 H 423.648 -4.04471 -1.1824 0
M  V30 4590 H 422.323 -2.88394 -1.47006 0
M  V30 4591 H 421.23 -3.67326 0.708696 0
M  V30 4592 H 422.563 -4.83656 0.913085 0
M  V30 4593 N 424.215 -0.530993 -1.48385 0
M  V30 4594 C 425.461 0.00274135 -2.028 0
M  V30 4595 C 425.794 1.33838 -1.40716 0
M  V30 4596 O 425.069 1.86465 -0.553277 0
M  V30 4597 C 425.352 0.123676 -3.59888 0
M  V30 4598 C 425.205 -1.2372 -4.3245 0
M  V30 4599 C 426.524 0.849967 -4.31814 0
M  V30 4600 H 423.643 -0.000477758 -0.737 0
M  V30 4601 H 426.285 -0.688217 -1.77098 0
M  V30 4602 H 424.435 0.712157 -3.81917 0
M  V30 4603 H 426.107 -1.86687 -4.21836 0
M  V30 4604 H 424.35 -1.81882 -3.93829 0
M  V30 4605 H 425.021 -1.10557 -5.40815 0
M  V30 4606 H 427.497 0.350572 -4.14621 0
M  V30 4607 H 426.373 0.903486 -5.41413 0
M  V30 4608 H 426.634 1.90047 -3.99167 0
M  V30 4609 N 425.693 1.55336 -0.266172 0
M  V30 4610 C 426.941 1.99003 0.35246 0
M  V30 4611 C 427.262 1.15591 1.57047 0
M  V30 4612 O 426.532 0.243268 1.94384 0
M  V30 4613 H 425.112 0.735025 0.133217 0
M  V30 4614 H 427.774 1.91367 -0.369434 0
M  V30 4615 H 426.87 3.05289 0.648453 0
M  V30 4616 N 427.171 -0.0066808 1.57599 0
M  V30 4617 C 428.587 -0.36267 1.55425 0
M  V30 4618 C 428.787 -1.75209 0.995187 0
M  V30 4619 O 427.843 -2.44616 0.626058 0
M  V30 4620 C 429.156 -0.244017 2.99708 0
M  V30 4621 C 430.704 -0.319451 3.11366 0
M  V30 4622 C 431.179 -0.229998 4.57422 0
M  V30 4623 N 432.67 -0.288105 4.62303 0
M  V30 4624 C 433.405 -0.242127 5.72889 0
M  V30 4625 N 432.901 -0.147133 6.92644 0
M  V30 4626 N 434.694 -0.293502 5.61333 0
M  V30 4627 H 426.845 0.902314 1.92281 0
M  V30 4628 H 429.108 0.34525 0.882896 0
M  V30 4629 H 428.814 0.711678 3.44424 0
M  V30 4630 H 428.688 -1.02877 3.629 0
M  V30 4631 H 431.075 -1.26559 2.66584 0
M  V30 4632 H 431.156 0.495055 2.50964 0
M  V30 4633 H 430.8 0.712566 5.02877 0
M  V30 4634 H 430.73 -1.0629 5.15761 0
M  V30 4635 H 433.221 -0.363126 3.76151 0
M  V30 4636 H 433.534 -0.117763 7.7271 0
M  V30 4637 H 431.879 -0.112857 6.94908 0
M  V30 4638 H 435.07 -0.365864 4.66668 0
M  V30 4639 H 435.243 -0.254204 6.47501 0
M  V30 4640 N 428.649 -1.55105 -0.279332 0
M  V30 4641 C 429.559 -1.90638 -1.36727 0
M  V30 4642 C 430.575 -0.802899 -1.54368 0
M  V30 4643 O 431.751 -1.10138 -1.68616 0
M  V30 4644 C 428.816 -2.16547 -2.70755 0
M  V30 4645 C 427.877 -3.40146 -2.61915 0
M  V30 4646 C 427.11 -3.6481 -3.8955 0
M  V30 4647 O 427.333 -2.92095 -4.89935 0
M  V30 4648 O 426.267 -4.58343 -3.90135 0
M  V30 4649 H 430.093 -2.83237 -1.09591 0
M  V30 4650 H 427.678 -1.4157 -0.477306 0
M  V30 4651 H 429.56 -2.34665 -3.50014 0
M  V30 4652 H 428.235 -1.27131 -2.9769 0
M  V30 4653 H 427.142 -3.2737 -1.81052 0
M  V30 4654 H 428.475 -4.29761 -2.3993 0
M  V30 4655 N 430.127 0.543554 -1.4793 0
M  V30 4656 C 431.075 1.67039 -1.61866 0
M  V30 4657 C 432.069 1.62294 -0.48549 0
M  V30 4658 O 433.275 1.67315 -0.66376 0
M  V30 4659 H 429.65 0.552954 -0.509652 0
M  V30 4660 H 431.621 1.52426 -2.56533 0
M  V30 4661 C 430.37 3.05357 -1.6629 0
M  V30 4662 H 429.693 3.09696 -2.5284 0
M  V30 4663 H 431.133 3.83855 -1.80088 0
M  V30 4664 C 429.592 3.34531 -0.398861 0
M  V30 4665 O 430.122 3.98649 0.494162 0
M  V30 4666 N 428.328 2.89299 -0.2747 0
M  V30 4667 H 427.875 2.37298 -1.00236 0
M  V30 4668 H 427.833 3.09188 0.570075 0
M  V30 4669 N 431.605 1.3629 0.791371 0
M  V30 4670 C 433.021 1.16661 1.08914 0
M  V30 4671 C 433.221 -0.0106266 2.01497 0
M  V30 4672 O 432.277 -0.676596 2.43266 0
M  V30 4673 C 433.59 2.47656 1.70549 0
M  V30 4674 C 435.138 2.54002 1.82899 0
M  V30 4675 C 435.613 3.85078 2.47949 0
M  V30 4676 N 437.104 3.86413 2.5542 0
M  V30 4677 C 437.839 4.84572 3.06557 0
M  V30 4678 N 437.335 5.93124 3.58016 0
M  V30 4679 N 439.128 4.71994 3.05251 0
M  V30 4680 H 431.279 2.11668 0.176238 0
M  V30 4681 H 433.542 0.937486 0.140796 0
M  V30 4682 H 433.248 3.34059 1.09989 0
M  V30 4683 H 433.122 2.63319 2.70079 0
M  V30 4684 H 435.509 1.68018 2.42598 0
M  V30 4685 H 435.59 2.42239 0.821808 0
M  V30 4686 H 435.234 4.71467 1.88895 0
M  V30 4687 H 435.164 3.94135 3.49235 0
M  V30 4688 H 437.655 3.07988 2.18979 0
M  V30 4689 H 437.968 6.63999 3.95381 0
M  V30 4690 H 436.313 5.96796 3.56173 0
M  V30 4691 H 439.504 3.86321 2.64336 0
M  V30 4692 H 439.677 5.48653 3.44796 0
M  V30 4693 N 433.083 -1.0153 1.20538 0
M  V30 4694 C 433.993 -2.13557 0.971113 0
M  V30 4695 C 435.009 -1.73845 -0.0734366 0
M  V30 4696 O 436.185 -2.01075 0.114299 0
M  V30 4697 C 433.25 -3.42661 0.527639 0
M  V30 4698 C 432.311 -3.96608 1.64319 0
M  V30 4699 C 431.544 -5.1955 1.22078 0
M  V30 4700 O 431.767 -5.70329 0.0900198 0
M  V30 4701 O 430.701 -5.66681 2.02871 0
M  V30 4702 H 434.527 -2.3619 1.90913 0
M  V30 4703 H 432.112 -1.11946 0.989362 0
M  V30 4704 H 433.994 -4.20404 0.289621 0
M  V30 4705 H 432.669 -3.21441 -0.381779 0
M  V30 4706 H 431.576 -3.20139 1.93551 0
M  V30 4707 H 432.909 -4.22219 2.52966 0
M  V30 4708 N 434.561 -1.01147 -1.20859 0
M  V30 4709 C 435.838 -0.613136 -1.85742 0
M  V30 4710 C 436.218 0.909004 -1.90526 0
M  V30 4711 O 435.566 1.79862 -1.40932 0
M  V30 4712 C 435.776 -1.255 -3.25654 0
M  V30 4713 C 437.124 -1.3672 -4.01986 0
M  V30 4714 O 438.148 -1.21082 -3.34989 0
M  V30 4715 O 437.007 -1.6194 -5.21956 0
M  V30 4716 H 434.101 -0.210878 -0.799662 0
M  V30 4717 H 436.647 -1.10853 -1.2849 0
M  V30 4718 H 435.419 -2.29532 -3.16908 0
M  V30 4719 H 435.042 -0.746369 -3.90532 0
M  V30 4720 N 436.039 1.36541 -0.78704 0
M  V30 4721 C 437.269 2.03266 -0.369662 0
M  V30 4722 C 437.677 1.59481 1.01796 0
M  V30 4723 O 437.02 0.778612 1.66383 0
M  V30 4724 C 437.082 3.57779 -0.351371 0
M  V30 4725 C 436.746 4.24756 -1.68617 0
M  V30 4726 C 437.743 4.47811 -2.64124 0
M  V30 4727 C 435.428 4.62277 -1.96481 0
M  V30 4728 C 437.422 5.07464 -3.85693 0
M  V30 4729 C 435.109 5.21649 -3.18317 0
M  V30 4730 C 436.107 5.44182 -4.12741 0
M  V30 4731 O 435.795 6.02307 -5.32429 0
M  V30 4732 H 435.527 0.658977 -0.150751 0
M  V30 4733 H 438.081 1.75548 -1.0664 0
M  V30 4734 H 436.311 3.84606 0.401847 0
M  V30 4735 H 438 4.05879 0.0410147 0
M  V30 4736 H 438.766 4.19221 -2.43883 0
M  V30 4737 H 434.645 4.44065 -1.23805 0
M  V30 4738 H 438.189 5.24968 -4.59407 0
M  V30 4739 H 434.086 5.49664 -3.38437 0
M  V30 4740 H 434.854 6.20775 -5.33461 0
M  V30 4741 N 437.518 0.538854 1.48102 0
M  V30 4742 C 438.934 0.19732 1.58376 0
M  V30 4743 C 439.134 -1.29971 1.5398 0
M  V30 4744 O 438.19 -2.07861 1.43352 0
M  V30 4745 C 439.503 0.807716 2.89649 0
M  V30 4746 C 441.051 0.77726 3.03196 0
M  V30 4747 C 441.526 1.36639 4.37143 0
M  V30 4748 N 443.017 1.32875 4.43732 0
M  V30 4749 C 443.752 1.7544 5.45901 0
M  V30 4750 N 443.248 2.25776 6.54979 0
M  V30 4751 N 445.041 1.66623 5.36836 0
M  V30 4752 H 437.192 1.5117 1.49202 0
M  V30 4753 H 439.455 0.629327 0.708979 0
M  V30 4754 H 439.161 1.85909 2.98548 0
M  V30 4755 H 439.035 0.289975 3.76084 0
M  V30 4756 H 441.422 -0.265374 2.93904 0
M  V30 4757 H 441.503 1.33256 2.18349 0
M  V30 4758 H 441.147 2.408 4.47189 0
M  V30 4759 H 441.077 0.786689 5.20691 0
M  V30 4760 H 443.568 0.96037 3.65493 0
M  V30 4761 H 443.881 2.56226 7.29087 0
M  V30 4762 H 442.226 2.29775 6.55918 0
M  V30 4763 H 445.417 1.27089 4.50517 0
M  V30 4764 H 445.59 2.00115 6.16326 0
M  V30 4765 N 438.996 -1.55193 0.274407 0
M  V30 4766 C 439.928 -2.1989 -0.646595 0
M  V30 4767 C 440.941 -1.1834 -1.11801 0
M  V30 4768 O 442.13 -1.4507 -1.04004 0
M  V30 4769 C 439.23 -2.8104 -1.89393 0
M  V30 4770 C 438.403 -4.08274 -1.56943 0
M  V30 4771 C 437.462 -4.53478 -2.66916 0
M  V30 4772 O 436.488 -5.19267 -2.33132 0
M  V30 4773 N 437.69 -4.2356 -3.9696 0
M  V30 4774 H 440.455 -2.99556 -0.0928686 0
M  V30 4775 H 438.016 -1.61618 0.0954783 0
M  V30 4776 H 440.008 -3.08226 -2.62257 0
M  V30 4777 H 438.578 -2.05372 -2.35672 0
M  V30 4778 H 437.798 -3.88384 -0.674655 0
M  V30 4779 H 439.086 -4.91173 -1.32764 0
M  V30 4780 H 438.484 -3.70799 -4.27229 0
M  V30 4781 H 437.041 -4.55518 -4.66205 0
M  V30 4782 N 440.474 -0.00167713 -1.576 0
M  V30 4783 C 441.723 0.682021 -1.89819 0
M  V30 4784 C 442.036 1.74844 -0.876871 0
M  V30 4785 O 443.242 2.48688 -1.08934 0
M  V30 4786 C 441.698 1.26425 -3.36964 0
M  V30 4787 C 441.306 0.232568 -4.47396 0
M  V30 4788 C 443.05 1.92604 -3.78291 0
M  V30 4789 C 440.957 0.824882 -5.85619 0
M  V30 4790 H 439.887 0.258499 -0.708304 0
M  V30 4791 H 442.538 -0.0624957 -1.83394 0
M  V30 4792 H 440.92 2.05949 -3.38232 0
M  V30 4793 H 442.094 -0.5382 -4.57646 0
M  V30 4794 H 440.409 -0.32888 -4.15099 0
M  V30 4795 H 443.006 2.37827 -4.78897 0
M  V30 4796 H 443.349 2.75732 -3.11894 0
M  V30 4797 H 443.882 1.19812 -3.79328 0
M  V30 4798 H 440.621 0.0323542 -6.55492 0
M  V30 4799 H 440.141 1.56477 -5.79029 0
M  V30 4800 H 441.82 1.32301 -6.33329 0
M  V30 4801 N 441.952 1.55251 0.271103 0
M  V30 4802 C 442.915 1.87484 1.31842 0
M  V30 4803 C 443.915 0.749545 1.42262 0
M  V30 4804 O 445.105 1.01771 1.4138 0
M  V30 4805 C 442.237 2.0818 2.69951 0
M  V30 4806 H 443.43 2.81108 1.0449 0
M  V30 4807 H 440.983 1.47771 0.509258 0
M  V30 4808 H 441.718 1.16944 3.02481 0
M  V30 4809 H 441.503 2.90114 2.63774 0
M  V30 4810 H 442.993 2.34385 3.4562 0
M  V30 4811 N 443.43 -0.535701 1.48216 0
M  V30 4812 C 444.377 -1.64083 1.62312 0
M  V30 4813 C 445.347 -1.59448 0.465365 0
M  V30 4814 O 446.532 -1.77959 0.688135 0
M  V30 4815 C 443.672 -3.0236 1.66349 0
M  V30 4816 C 442.785 -3.17273 2.93193 0
M  V30 4817 C 441.92 -4.46075 2.88427 0
M  V30 4818 C 440.959 -4.54496 4.1 0
M  V30 4819 N 440.096 -5.7468 4.03345 0
M  V30 4820 H 444.936 -1.51374 2.5669 0
M  V30 4821 H 442.473 -0.737059 1.27302 0
M  V30 4822 H 444.431 -3.82461 1.66672 0
M  V30 4823 H 443.061 -3.13854 0.754672 0
M  V30 4824 H 442.113 -2.30462 3.02641 0
M  V30 4825 H 443.425 -3.19357 3.83162 0
M  V30 4826 H 442.579 -5.3446 2.87119 0
M  V30 4827 H 441.318 -4.46504 1.96177 0
M  V30 4828 H 440.323 -3.64519 4.11589 0
M  V30 4829 H 441.548 -4.5581 5.03402 0
M  V30 4830 H 439.494 -5.76017 3.13912 0
M  V30 4831 H 439.411 -5.78234 4.87013 0
M  V30 4832 H 440.679 -6.65367 4.06087 0
M  V30 4833 N 444.908 -1.36708 -0.784132 0
M  V30 4834 C 445.871 -1.31307 -1.87859 0
M  V30 4835 C 446.871 -0.219654 -1.59293 0
M  V30 4836 O 448.061 -0.47476 -1.67606 0
M  V30 4837 C 445.193 -1.03679 -3.24751 0
M  V30 4838 H 446.386 -2.28647 -1.94064 0
M  V30 4839 H 443.939 -1.21558 -0.98252 0
M  V30 4840 H 444.674 -0.0681936 -3.24228 0
M  V30 4841 H 444.459 -1.82811 -3.46876 0
M  V30 4842 H 445.949 -1.02518 -4.04821 0
M  V30 4843 N 446.386 1.0089 -1.21074 0
M  V30 4844 C 447.616 1.77933 -1.04993 0
M  V30 4845 C 448.024 1.84847 0.403495 0
M  V30 4846 O 447.367 1.30606 1.29181 0
M  V30 4847 C 447.429 3.23541 -1.56722 0
M  V30 4848 C 447.093 3.40214 -3.05129 0
M  V30 4849 C 448.09 3.2881 -4.02716 0
M  V30 4850 C 445.775 3.65781 -3.44252 0
M  V30 4851 C 447.769 3.42732 -5.37414 0
M  V30 4852 C 445.456 3.79346 -4.79103 0
M  V30 4853 C 446.454 3.67827 -5.75493 0
M  V30 4854 O 446.142 3.80965 -7.07899 0
M  V30 4855 H 445.874 0.566157 -0.369381 0
M  V30 4856 H 448.428 1.27826 -1.60779 0
M  V30 4857 H 446.658 3.74766 -0.953285 0
M  V30 4858 H 448.347 3.82245 -1.36543 0
M  V30 4859 H 449.113 3.08986 -3.73835 0
M  V30 4860 H 444.992 3.73831 -2.69762 0
M  V30 4861 H 448.536 3.33658 -6.12632 0
M  V30 4862 H 444.433 3.98672 -5.07672 0
M  V30 4863 H 445.201 3.97937 -7.15254 0
M  V30 4864 N 447.864 1.01787 1.20321 0
M  V30 4865 C 448.827 0.593972 2.2137 0
M  V30 4866 C 449.827 -0.336553 1.57239 0
M  V30 4867 O 451.017 -0.125069 1.7375 0
M  V30 4868 C 448.149 -0.132433 3.40643 0
M  V30 4869 H 449.342 1.48791 2.60387 0
M  V30 4870 H 446.895 0.807803 1.33807 0
M  V30 4871 H 447.63 -1.04123 3.0713 0
M  V30 4872 H 447.415 0.53605 3.88418 0
M  V30 4873 H 448.905 -0.416314 4.1552 0
M  V30 4874 N 449.342 -1.36122 0.79427 0
M  V30 4875 C 450.758 -1.5232 0.476525 0
M  V30 4876 C 450.958 -1.74685 -1.00436 0
M  V30 4877 O 450.014 -1.78115 -1.78973 0
M  V30 4878 C 451.327 -2.70607 1.31119 0
M  V30 4879 C 452.875 -2.8448 1.30537 0
M  V30 4880 C 453.35 -4.05778 2.12387 0
M  V30 4881 N 454.841 -4.12933 2.09859 0
M  V30 4882 C 455.576 -5.05876 2.69957 0
M  V30 4883 N 455.072 -6.04232 3.38934 0
M  V30 4884 N 456.865 -4.98528 2.59665 0
M  V30 4885 H 449.016 -1.1986 1.75349 0
M  V30 4886 H 451.279 -0.585418 0.745647 0
M  V30 4887 H 450.985 -2.60619 2.36158 0
M  V30 4888 H 450.859 -3.64888 0.955843 0
M  V30 4889 H 453.246 -2.93927 0.262876 0
M  V30 4890 H 453.327 -1.91093 1.70051 0
M  V30 4891 H 452.971 -3.97092 3.1667 0
M  V30 4892 H 452.901 -4.98323 1.70242 0
M  V30 4893 H 455.392 -3.42515 1.59662 0
M  V30 4894 H 455.705 -6.71724 3.82109 0
M  V30 4895 H 454.05 -6.04443 3.43036 0
M  V30 4896 H 457.241 -4.20641 2.05375 0
M  V30 4897 H 457.414 -5.70773 3.06793 0
M  V30 4898 N 450.82 -0.546701 -1.47814 0
M  V30 4899 C 452.069 -0.0166497 -2.01693 0
M  V30 4900 C 452.382 1.33721 -1.42752 0
M  V30 4901 O 453.588 1.95658 -1.8823 0
M  V30 4902 C 452.044 0.0206769 -3.59894 0
M  V30 4903 C 451.652 -1.3293 -4.27824 0
M  V30 4904 C 453.396 0.498674 -4.21561 0
M  V30 4905 C 451.303 -1.25165 -5.78003 0
M  V30 4906 H 450.233 -0.0024541 -0.753996 0
M  V30 4907 H 452.884 -0.692984 -1.69912 0
M  V30 4908 H 451.266 0.76244 -3.88591 0
M  V30 4909 H 452.44 -2.08795 -4.10781 0
M  V30 4910 H 450.755 -1.74438 -3.78101 0
M  V30 4911 H 453.352 0.575 -5.31599 0
M  V30 4912 H 453.695 1.5083 -3.88016 0
M  V30 4913 H 454.228 -0.18791 -3.97356 0
M  V30 4914 H 450.967 -2.23695 -6.1615 0
M  V30 4915 H 450.487 -0.53464 -5.97412 0
M  V30 4916 H 452.166 -0.949299 -6.39998 0
M  V30 4917 N 452.299 1.55045 -0.282633 0
M  V30 4918 C 453.547 1.99365 0.331334 0
M  V30 4919 C 453.868 1.1725 1.55812 0
M  V30 4920 O 453.138 0.263871 1.94115 0
M  V30 4921 H 451.718 0.736397 0.125414 0
M  V30 4922 H 454.38 1.90964 -0.389711 0
M  V30 4923 H 453.476 3.0596 0.616036 0
M  V30 4924 N 453.777 0.010035 1.57597 0
M  V30 4925 C 454.725 -0.996272 2.10184 0
M  V30 4926 C 455.719 -1.34942 1.02406 0
M  V30 4927 O 456.925 -1.33389 1.20861 0
M  V30 4928 H 453.3 -0.338982 0.671264 0
M  V30 4929 H 455.271 -0.527272 2.93705 0
M  V30 4930 C 454.02 -2.27599 2.62857 0
M  V30 4931 H 453.343 -2.01295 3.45428 0
M  V30 4932 H 454.783 -2.96265 3.0332 0
M  V30 4933 C 453.242 -2.99269 1.54725 0
M  V30 4934 O 453.772 -3.90644 0.93597 0
M  V30 4935 N 451.978 -2.61269 1.27228 0
M  V30 4936 H 451.525 -1.87043 1.77123 0
M  V30 4937 H 451.483 -3.09534 0.550999 0
M  V30 4938 N 455.255 -1.55392 -0.262866 0
M  V30 4939 C 456.48 -1.80847 -1.01533 0
M  V30 4940 C 456.905 -0.584946 -1.78774 0
M  V30 4941 O 456.263 0.465701 -1.75217 0
M  V30 4942 C 456.311 -3.03866 -1.94159 0
M  V30 4943 O 455.415 -2.79662 -3.03089 0
M  V30 4944 H 454.756 -0.597441 -0.289759 0
M  V30 4945 H 457.286 -2.02553 -0.288698 0
M  V30 4946 H 457.296 -3.32872 -2.35924 0
M  V30 4947 H 455.971 -3.92564 -1.37354 0
M  V30 4948 H 454.548 -2.61781 -2.65566 0
M  V30 4949 N 456.733 0.527833 -1.48498 0
M  V30 4950 C 457.963 1.30633 -1.60058 0
M  V30 4951 C 458.371 1.87394 -0.260786 0
M  V30 4952 O 457.714 1.67227 0.760317 0
M  V30 4953 C 457.776 2.49361 -2.58958 0
M  V30 4954 C 457.44 2.13671 -4.03972 0
M  V30 4955 C 458.437 1.69217 -4.91591 0
M  V30 4956 C 456.122 2.24129 -4.49524 0
M  V30 4957 C 458.116 1.35689 -6.2279 0
M  V30 4958 C 455.803 1.90212 -5.80743 0
M  V30 4959 C 456.801 1.46063 -6.67199 0
M  V30 4960 O 456.489 1.12593 -7.95976 0
M  V30 4961 H 456.221 0.403444 -0.54241 0
M  V30 4962 H 458.775 0.643233 -1.95068 0
M  V30 4963 H 457.005 3.18659 -2.19073 0
M  V30 4964 H 458.694 3.11421 -2.6033 0
M  V30 4965 H 459.46 1.60607 -4.57636 0
M  V30 4966 H 455.339 2.57447 -3.82416 0
M  V30 4967 H 458.883 1.01157 -6.90227 0
M  V30 4968 H 454.78 1.98464 -6.14233 0
M  V30 4969 H 455.548 1.25972 -8.08748 0
M  V30 4970 N 458.211 1.37122 0.776871 0
M  V30 4971 C 459.458 1.32047 1.53524 0
M  V30 4972 C 459.786 -0.0965631 1.9426 0
M  V30 4973 O 459.041 -1.06866 1.63945 0
M  V30 4974 C 459.34 2.20068 2.81611 0
M  V30 4975 C 459.006 3.68423 2.59953 0
M  V30 4976 C 457.668 4.08854 2.53755 0
M  V30 4977 C 460.02 4.62431 2.40431 0
M  V30 4978 C 457.348 5.41417 2.26018 0
M  V30 4979 C 459.7 5.95225 2.14219 0
M  V30 4980 C 458.364 6.34767 2.06462 0
M  V30 4981 H 457.634 0.483196 0.561785 0
M  V30 4982 H 460.281 1.69284 0.895268 0
M  V30 4983 H 458.586 1.75809 3.50141 0
M  V30 4984 H 460.283 2.13458 3.39465 0
M  V30 4985 H 456.873 3.36354 2.65638 0
M  V30 4986 H 461.057 4.32057 2.44213 0
M  V30 4987 H 456.313 5.71022 2.18504 0
M  V30 4988 H 460.487 6.67626 1.98112 0
M  V30 4989 H 458.114 7.37413 1.84733 0
M  V30 4990 N 459.689 -1.00246 1.21608 0
M  V30 4991 C 460.636 -2.09073 0.977613 0
M  V30 4992 C 461.606 -1.65815 -0.097297 0
M  V30 4993 O 462.791 -1.90734 0.0503445 0
M  V30 4994 C 459.931 -3.40671 0.551133 0
M  V30 4995 C 459.044 -3.97326 1.69576 0
M  V30 4996 C 458.179 -5.17043 1.2182 0
M  V30 4997 C 457.218 -5.65813 2.335 0
M  V30 4998 N 456.355 -6.76778 1.86859 0
M  V30 4999 H 461.195 -2.28806 1.90924 0
M  V30 5000 H 458.732 -1.12186 0.951452 0
M  V30 5001 H 460.69 -4.16225 0.285097 0
M  V30 5002 H 459.32 -3.20967 -0.343489 0
M  V30 5003 H 458.372 -3.18734 2.07637 0
M  V30 5004 H 459.684 -4.29511 2.53617 0
M  V30 5005 H 458.838 -5.99852 0.908975 0
M  V30 5006 H 457.577 -4.86458 0.347869 0
M  V30 5007 H 456.582 -4.81599 2.65222 0
M  V30 5008 H 457.807 -5.98427 3.21033 0
M  V30 5009 H 455.753 -6.47994 1.02174 0
M  V30 5010 H 455.67 -7.08231 2.64471 0
M  V30 5011 H 456.938 -7.63116 1.58978 0
M  V30 5012 N 461.167 -1.02423 -1.1978 0
M  V30 5013 C 462.077 -0.610919 -2.26506 0
M  V30 5014 C 463.093 0.355152 -1.70337 0
M  V30 5015 O 464.269 0.214195 -2.00258 0
M  V30 5016 C 461.334 0.0365921 -3.46681 0
M  V30 5017 C 460.395 -0.976389 -4.18049 0
M  V30 5018 C 459.628 -0.359683 -5.32487 0
M  V30 5019 O 459.851 0.838601 -5.64202 0
M  V30 5020 O 458.785 -1.08022 -5.92127 0
M  V30 5021 H 462.611 -1.49965 -2.64091 0
M  V30 5022 H 460.196 -0.794156 -1.26545 0
M  V30 5023 H 462.078 0.39786 -4.19518 0
M  V30 5024 H 460.753 0.899398 -3.10954 0
M  V30 5025 H 459.66 -1.38916 -3.47352 0
M  V30 5026 H 460.993 -1.80941 -4.57735 0
M  V30 5027 N 462.645 1.35699 -0.801477 0
M  V30 5028 C 463.555 2.33661 -0.209691 0
M  V30 5029 C 464.571 1.6162 0.644591 0
M  V30 5030 O 465.747 1.93529 0.557545 0
M  V30 5031 C 462.812 3.40816 0.636033 0
M  V30 5032 C 461.873 4.28639 -0.238147 0
M  V30 5033 C 461.106 5.30676 0.567307 0
M  V30 5034 O 461.329 5.41174 1.8024 0
M  V30 5035 O 460.263 6.01887 -0.0391336 0
M  V30 5036 H 464.089 2.8606 -1.01996 0
M  V30 5037 H 461.674 1.38379 -0.563164 0
M  V30 5038 H 463.556 4.06301 1.11791 0
M  V30 5039 H 462.231 2.90696 1.42399 0
M  V30 5040 H 461.138 3.66152 -0.767044 0
M  V30 5041 H 462.471 4.82143 -0.989915 0
M  V30 5042 N 464.123 0.554532 1.47522 0
M  V30 5043 C 465.07 -0.19466 2.29978 0
M  V30 5044 C 466.04 -0.910882 1.38896 0
M  V30 5045 O 467.225 -0.907102 1.67858 0
M  V30 5046 C 464.365 -1.22035 3.22802 0
M  V30 5047 C 463.478 -0.510474 4.28973 0
M  V30 5048 C 462.613 -1.52123 5.08952 0
M  V30 5049 C 461.652 -0.796173 6.069 0
M  V30 5050 N 460.789 -1.75363 6.79847 0
M  V30 5051 H 465.629 0.51461 2.93523 0
M  V30 5052 H 463.166 0.265607 1.44682 0
M  V30 5053 H 465.124 -1.8276 3.7504 0
M  V30 5054 H 463.754 -1.89769 2.61127 0
M  V30 5055 H 462.806 0.211234 3.79813 0
M  V30 5056 H 464.118 0.0576503 4.98767 0
M  V30 5057 H 463.272 -2.20207 5.65326 0
M  V30 5058 H 462.011 -2.12327 4.39054 0
M  V30 5059 H 461.016 -0.101388 5.49707 0
M  V30 5060 H 462.241 -0.199911 6.78806 0
M  V30 5061 H 460.187 -2.3443 6.12682 0
M  V30 5062 H 460.104 -1.23759 7.45801 0
M  V30 5063 H 461.372 -2.4257 7.40797 0
M  V30 5064 N 465.601 -1.54893 0.290851 0
M  V30 5065 C 466.831 -2.04047 -0.323818 0
M  V30 5066 C 467.239 -1.16809 -1.48837 0
M  V30 5067 O 466.582 -0.184145 -1.82775 0
M  V30 5068 C 466.644 -3.49248 -0.852395 0
M  V30 5069 C 466.308 -4.56623 0.185557 0
M  V30 5070 C 467.305 -5.09985 1.01053 0
M  V30 5071 C 464.99 -5.01252 0.324332 0
M  V30 5072 C 466.984 -6.06507 1.96031 0
M  V30 5073 C 464.671 -5.97596 1.27757 0
M  V30 5074 C 465.669 -6.50107 2.09405 0
M  V30 5075 O 465.357 -7.44565 3.03114 0
M  V30 5076 H 465.089 -0.671735 -0.0758129 0
M  V30 5077 H 467.643 -2.00947 0.425393 0
M  V30 5078 H 465.873 -3.49639 -1.65195 0
M  V30 5079 H 467.562 -3.81654 -1.38185 0
M  V30 5080 H 468.328 -4.76307 0.914129 0
M  V30 5081 H 464.207 -4.60015 -0.301213 0
M  V30 5082 H 467.751 -6.47418 2.598 0
M  V30 5083 H 463.648 -6.30691 1.37473 0
M  V30 5084 H 464.416 -7.62334 2.97976 0
M  V30 5085 N 467.08 -0.0183926 -1.57589 0
M  V30 5086 C 468.027 0.967022 -2.09565 0
M  V30 5087 C 468.997 1.32983 -0.995225 0
M  V30 5088 O 470.182 1.42501 -1.26878 0
M  V30 5089 C 467.322 2.24772 -2.61861 0
M  V30 5090 C 466.435 1.94232 -3.85873 0
M  V30 5091 C 465.57 3.16518 -4.26603 0
M  V30 5092 C 464.609 2.81748 -5.43401 0
M  V30 5093 N 463.746 3.96626 -5.79338 0
M  V30 5094 H 468.586 0.516874 -2.93483 0
M  V30 5095 H 466.123 0.243544 -1.4507 0
M  V30 5096 H 468.081 2.99667 -2.90268 0
M  V30 5097 H 466.711 2.67423 -1.8079 0
M  V30 5098 H 465.763 1.09625 -3.64262 0
M  V30 5099 H 467.075 1.64616 -4.70853 0
M  V30 5100 H 466.229 3.99743 -4.56389 0
M  V30 5101 H 464.968 3.49286 -3.40368 0
M  V30 5102 H 463.973 1.96933 -5.1332 0
M  V30 5103 H 465.198 2.50207 -6.31327 0
M  V30 5104 H 463.144 4.29257 -4.96059 0
M  V30 5105 H 463.061 3.70598 -6.58933 0
M  V30 5106 H 464.329 4.80586 -6.13724 0
M  V30 5107 N 468.558 1.5553 0.254621 0
M  V30 5108 C 469.835 1.6774 1.00611 0
M  V30 5109 C 470.215 0.555993 2.03647 0
M  V30 5110 O 469.563 -0.441583 2.24193 0
M  V30 5111 C 469.773 3.07725 1.6464 0
M  V30 5112 C 471.121 3.66074 2.15116 0
M  V30 5113 O 472.145 3.10476 1.74595 0
M  V30 5114 O 471.004 4.63526 2.89493 0
M  V30 5115 H 468.098 0.681958 0.467828 0
M  V30 5116 H 470.644 1.67863 0.24902 0
M  V30 5117 H 469.416 3.80792 0.900734 0
M  V30 5118 H 469.039 3.1158 2.46989 0
M  V30 5119 N 470.036 -0.519951 1.48776 0
M  V30 5120 C 470.999 -1.60574 1.6355 0
M  V30 5121 C 471.999 -1.52557 0.508234 0
M  V30 5122 O 473.189 -1.56047 0.774262 0
M  V30 5123 C 470.321 -3.00211 1.61512 0
M  V30 5124 H 471.514 -1.4881 2.60376 0
M  V30 5125 H 469.067 -0.742772 1.37523 0
M  V30 5126 H 469.802 -3.17471 0.662009 0
M  V30 5127 H 469.587 -3.07439 2.43359 0
M  V30 5128 H 471.077 -3.79134 1.75064 0
M  V30 5129 N 471.514 -1.37532 -0.769588 0
M  V30 5130 C 472.763 -1.32183 -1.5235 0
M  V30 5131 C 473.076 0.0906555 -1.9539 0
M  V30 5132 O 474.282 0.266628 -2.70188 0
M  V30 5133 C 472.738 -2.32029 -2.75119 0
M  V30 5134 C 472.346 -3.78816 -2.3917 0
M  V30 5135 C 474.09 -2.35694 -3.53056 0
M  V30 5136 C 471.997 -4.70388 -3.58453 0
M  V30 5137 H 470.927 -0.491275 -0.571984 0
M  V30 5138 H 473.578 -1.63004 -0.842739 0
M  V30 5139 H 471.96 -1.94229 -3.45096 0
M  V30 5140 H 473.134 -4.25466 -1.76962 0
M  V30 5141 H 471.449 -3.78117 -1.74402 0
M  V30 5142 H 474.046 -3.01312 -4.41718 0
M  V30 5143 H 474.389 -1.37117 -3.93071 0
M  V30 5144 H 474.922 -2.72212 -2.90078 0
M  V30 5145 H 471.661 -5.70102 -3.23518 0
M  V30 5146 H 471.181 -4.28442 -4.19758 0
M  V30 5147 H 472.86 -4.87628 -4.25239 0
M  V30 5148 N 472.992 0.995999 -1.22138 0
M  V30 5149 C 473.942 2.06988 -0.956042 0
M  V30 5150 C 474.926 1.60636 0.0921576 0
M  V30 5151 O 476.118 1.76607 -0.117958 0
M  V30 5152 C 473.247 3.39148 -0.532335 0
M  V30 5153 C 472.333 3.92142 -1.61509 0
M  V30 5154 N 472.724 4.18397 -2.84214 0
M  V30 5155 C 471.022 4.20514 -1.48606 0
M  V30 5156 C 471.723 4.61425 -3.54206 0
M  V30 5157 N 470.699 4.64934 -2.81669 0
M  V30 5158 H 474.501 2.25223 -1.88816 0
M  V30 5159 H 472.015 1.17748 -1.11845 0
M  V30 5160 H 474.012 4.15642 -0.323574 0
M  V30 5161 H 472.672 3.22314 0.392921 0
M  V30 5162 H 473.683 4.06682 -3.20671 0
M  V30 5163 H 470.36 4.12769 -0.626762 0
M  V30 5164 H 471.75 4.90387 -4.59315 0
M  V30 5165 N 474.47 1.03057 1.19235 0
M  V30 5166 C 475.717 0.728019 1.88961 0
M  V30 5167 C 476.045 -0.743515 1.79728 0
M  V30 5168 O 475.3 -1.55729 1.1852 0
M  V30 5169 C 475.599 1.1268 3.39172 0
M  V30 5170 C 475.265 2.5969 3.68608 0
M  V30 5171 C 473.927 2.99854 3.76352 0
M  V30 5172 C 476.279 3.54793 3.81801 0
M  V30 5173 C 473.607 4.34031 3.94758 0
M  V30 5174 C 475.959 4.88675 4.0172 0
M  V30 5175 C 474.623 5.28526 4.07697 0
M  V30 5176 H 473.893 0.266401 0.691456 0
M  V30 5177 H 476.54 1.29373 1.41191 0
M  V30 5178 H 474.845 0.479722 3.88852 0
M  V30 5179 H 476.542 0.870203 3.91444 0
M  V30 5180 H 473.132 2.27575 3.63191 0
M  V30 5181 H 477.316 3.24914 3.7516 0
M  V30 5182 H 472.572 4.6444 3.97625 0
M  V30 5183 H 476.746 5.6228 4.1087 0
M  V30 5184 H 474.373 6.32506 4.21712 0
M  V30 5185 N 475.948 -1.35272 0.808662 0
M  V30 5186 C 477.178 -2.02652 0.401953 0
M  V30 5187 C 477.586 -1.6108 -0.992462 0
M  V30 5188 O 476.929 -0.804984 -1.65123 0
M  V30 5189 C 476.991 -3.57174 0.408246 0
M  V30 5190 C 476.655 -4.22019 1.75353 0
M  V30 5191 C 477.652 -4.43552 2.71215 0
M  V30 5192 C 475.337 -4.59093 2.03811 0
M  V30 5193 C 477.331 -5.01264 3.93717 0
M  V30 5194 C 475.018 -5.16519 3.26576 0
M  V30 5195 C 476.016 -5.37546 4.21347 0
M  V30 5196 O 475.704 -5.93761 5.41944 0
M  V30 5197 H 475.436 -0.656495 0.161216 0
M  V30 5198 H 477.99 -1.73829 1.0942 0
M  V30 5199 H 476.22 -3.85197 -0.340608 0
M  V30 5200 H 477.909 -4.05893 0.0235623 0
M  V30 5201 H 478.675 -4.15288 2.50522 0
M  V30 5202 H 474.554 -4.42039 1.30854 0
M  V30 5203 H 478.098 -5.17592 4.67701 0
M  V30 5204 H 473.995 -5.4421 3.47139 0
M  V30 5205 H 474.763 -6.1221 5.43269 0
M  V30 5206 N 477.426 -0.562348 -1.47226 0
M  V30 5207 C 478.374 0.195476 -2.31777 0
M  V30 5208 C 479.368 0.90433 -1.43242 0
M  V30 5209 O 480.574 0.825031 -1.59979 0
M  V30 5210 H 476.949 0.0819095 -0.747526 0
M  V30 5211 H 478.92 -0.536753 -2.93533 0
M  V30 5212 C 477.669 1.20902 -3.26003 0
M  V30 5213 H 476.992 0.672997 -3.94095 0
M  V30 5214 H 478.432 1.71006 -3.87986 0
M  V30 5215 C 476.891 2.25955 -2.49891 0
M  V30 5216 O 477.421 3.32969 -2.2471 0
M  V30 5217 N 475.627 2.00019 -2.1081 0
M  V30 5218 H 475.174 1.13006 -2.31489 0
M  V30 5219 H 475.132 2.70523 -1.60201 0
M  V30 5220 N 478.904 1.54736 -0.299062 0
M  V30 5221 C 479.851 2.23448 0.577899 0
M  V30 5222 C 480.821 1.21637 1.13109 0
M  V30 5223 O 482.006 1.50252 1.17597 0
M  V30 5224 C 479.146 2.9774 1.74484 0
M  V30 5225 C 478.259 4.1432 1.22323 0
M  V30 5226 C 477.394 4.76199 2.35388 0
M  V30 5227 C 476.433 5.84927 1.80351 0
M  V30 5228 N 475.57 6.4077 2.86982 0
M  V30 5229 H 480.41 2.97996 -0.0146545 0
M  V30 5230 H 477.947 1.47088 -0.0190013 0
M  V30 5231 H 479.905 3.39045 2.43114 0
M  V30 5232 H 478.535 2.25572 2.30905 0
M  V30 5233 H 477.587 3.7797 0.429249 0
M  V30 5234 H 478.899 4.92659 0.780309 0
M  V30 5235 H 478.053 5.20346 3.11969 0
M  V30 5236 H 476.792 3.97188 2.83006 0
M  V30 5237 H 475.797 5.40207 1.02259 0
M  V30 5238 H 477.022 6.65821 1.3364 0
M  V30 5239 H 474.968 5.64643 3.33938 0
M  V30 5240 H 474.885 7.1445 2.4718 0
M  V30 5241 H 476.153 6.89574 3.63466 0
M  V30 5242 N 480.382 0.0267497 1.57577 0
M  V30 5243 C 481.607 -0.666227 1.96408 0
M  V30 5244 C 482.032 -1.65004 0.903071 0
M  V30 5245 O 481.39 -1.80787 -0.136263 0
M  V30 5246 C 481.438 -1.35101 3.34335 0
M  V30 5247 O 480.542 -2.46623 3.30531 0
M  V30 5248 H 479.883 -0.175206 0.640468 0
M  V30 5249 H 482.413 0.0878977 2.04411 0
M  V30 5250 H 482.423 -1.70834 3.70513 0
M  V30 5251 H 481.098 -0.629844 4.11103 0
M  V30 5252 H 479.675 -2.13019 3.06068 0
M  V30 5253 N 481.861 -1.55662 -0.24637 0
M  V30 5254 C 482.791 -1.93377 -1.30873 0
M  V30 5255 C 483.772 -0.798773 -1.50179 0
M  V30 5256 O 484.957 -1.0591 -1.62778 0
M  V30 5257 C 482.087 -2.22893 -2.66338 0
M  V30 5258 C 481.041 -3.38649 -2.61727 0
M  V30 5259 C 480.367 -3.53708 -4.00992 0
M  V30 5260 C 481.667 -4.74323 -2.18666 0
M  V30 5261 H 483.361 -2.82363 -0.995552 0
M  V30 5262 H 480.907 -1.35854 -0.477464 0
M  V30 5263 H 482.86 -2.47866 -3.40794 0
M  V30 5264 H 481.584 -1.30733 -2.99293 0
M  V30 5265 H 480.243 -3.13685 -1.89729 0
M  V30 5266 H 479.891 -2.58967 -4.31214 0
M  V30 5267 H 479.591 -4.31551 -3.98795 0
M  V30 5268 H 481.115 -3.81003 -4.77147 0
M  V30 5269 H 482.529 -4.98665 -2.82854 0
M  V30 5270 H 480.926 -5.55273 -2.27579 0
M  V30 5271 H 481.996 -4.71349 -1.13834 0
M  V30 5272 N 483.339 0.512053 -1.4905 0
M  V30 5273 C 484.302 1.59704 -1.64399 0
M  V30 5274 C 485.302 1.52285 -0.516317 0
M  V30 5275 O 486.492 1.55635 -0.782527 0
M  V30 5276 C 483.624 2.9935 -1.63102 0
M  V30 5277 H 484.817 1.47428 -2.61161 0
M  V30 5278 H 482.37 0.735469 -1.37915 0
M  V30 5279 H 483.105 3.17116 -0.678836 0
M  V30 5280 H 482.89 3.06144 -2.44986 0
M  V30 5281 H 484.38 3.782 -1.77072 0
M  V30 5282 N 484.817 1.37938 0.762283 0
M  V30 5283 C 485.727 1.36681 1.90671 0
M  V30 5284 C 486.743 0.265078 1.71969 0
M  V30 5285 O 487.919 0.502055 1.95042 0
M  V30 5286 C 484.984 1.18211 3.25925 0
M  V30 5287 C 484.045 2.3811 3.57214 0
M  V30 5288 C 483.278 2.20512 4.86014 0
M  V30 5289 O 483.501 1.19429 5.57757 0
M  V30 5290 O 482.435 3.08911 5.16583 0
M  V30 5291 H 486.261 2.33091 1.94685 0
M  V30 5292 H 483.846 1.18767 0.906356 0
M  V30 5293 H 485.728 1.09937 4.06807 0
M  V30 5294 H 484.403 0.248807 3.22742 0
M  V30 5295 H 483.31 2.51958 2.76529 0
M  V30 5296 H 484.643 3.30041 3.65149 0
M  V30 5297 N 486.295 -0.989507 1.22664 0
M  V30 5298 C 487.245 -2.06478 0.967005 0
M  V30 5299 C 488.229 -1.60682 -0.0836374 0
M  V30 5300 O 489.421 -1.76541 0.127322 0
M  V30 5301 C 486.55 -3.38861 0.550313 0
M  V30 5302 C 485.636 -3.9128 1.63587 0
M  V30 5303 N 486.027 -4.16884 2.86429 0
M  V30 5304 C 484.325 -4.1972 1.50834 0
M  V30 5305 C 485.026 -4.5954 3.56648 0
M  V30 5306 N 484.002 -4.63434 2.84131 0
M  V30 5307 H 487.804 -2.24219 1.90008 0
M  V30 5308 H 485.318 -1.17153 1.12467 0
M  V30 5309 H 487.315 -4.15465 0.345612 0
M  V30 5310 H 485.975 -3.22518 -0.375822 0
M  V30 5311 H 486.986 -4.04976 3.22823 0
M  V30 5312 H 483.663 -4.1243 0.648643 0
M  V30 5313 H 485.053 -4.87944 4.61909 0
M  V30 5314 N 487.773 -1.03688 -1.18687 0
M  V30 5315 C 489.189 -0.755413 -1.4059 0
M  V30 5316 C 489.389 0.656659 -1.905 0
M  V30 5317 O 488.445 1.42144 -2.08689 0
M  V30 5318 C 489.758 -1.7983 -2.41001 0
M  V30 5319 C 491.306 -1.81877 -2.54735 0
M  V30 5320 C 491.781 -2.85148 -3.58406 0
M  V30 5321 N 493.272 -2.84015 -3.6591 0
M  V30 5322 C 494.007 -3.60573 -4.45841 0
M  V30 5323 N 493.503 -4.46871 -5.29413 0
M  V30 5324 N 495.296 -3.49079 -4.40568 0
M  V30 5325 H 487.447 -1.94818 -0.846148 0
M  V30 5326 H 489.71 -0.842727 -0.434184 0
M  V30 5327 H 489.416 -2.81097 -2.1137 0
M  V30 5328 H 489.29 -1.62727 -3.40294 0
M  V30 5329 H 491.677 -0.812836 -2.83685 0
M  V30 5330 H 491.758 -2.03057 -1.55568 0
M  V30 5331 H 491.402 -3.85918 -3.30197 0
M  V30 5332 H 491.332 -2.61224 -4.57241 0
M  V30 5333 H 493.823 -2.21431 -3.0623 0
M  V30 5334 H 494.136 -5.02007 -5.87545 0
M  V30 5335 H 492.481 -4.5094 -5.28846 0
M  V30 5336 H 495.672 -2.81066 -3.74325 0
M  V30 5337 H 495.845 -4.08994 -5.02621 0
M  V30 5338 N 489.251 1.34841 -0.815825 0
M  V30 5339 C 490.479 2.0273 -0.413294 0
M  V30 5340 C 490.894 1.61459 0.978599 0
M  V30 5341 O 490.251 0.816584 1.63212 0
M  V30 5342 C 490.302 3.58058 -0.497676 0
M  V30 5343 O 490.023 3.97832 -1.8347 0
M  V30 5344 C 491.524 4.4321 -0.0891339 0
M  V30 5345 H 488.744 0.649956 -0.166728 0
M  V30 5346 H 491.288 1.72267 -1.10201 0
M  V30 5347 H 489.443 3.87136 0.142886 0
M  V30 5348 H 489.857 4.92501 -1.80396 0
M  V30 5349 H 491.331 5.5164 -0.199274 0
M  V30 5350 H 491.808 4.28432 0.966571 0
M  V30 5351 H 492.414 4.19446 -0.703214 0
M  V30 5352 N 490.729 0.570148 1.46925 0
M  V30 5353 C 492.14 0.1402 1.86173 0
M  V30 5354 C 492.491 -1.29347 1.47526 0
M  V30 5355 O 491.616 -1.97508 0.884292 0
M  V30 5356 C 492.211 0.247661 3.37894 0
M  V30 5357 C 490.77 -0.127332 3.76185 0
M  V30 5358 C 489.917 0.589349 2.70965 0
M  V30 5359 H 492.868 0.779117 1.38259 0
M  V30 5360 H 492.889 -0.530341 3.76786 0
M  V30 5361 H 492.401 1.29121 3.65991 0
M  V30 5362 H 490.502 -1.17149 3.53704 0
M  V30 5363 H 490.615 0.240238 4.78497 0
M  V30 5364 H 488.979 0.0309824 2.54681 0
M  V30 5365 H 489.762 1.6343 3.01903 0
M  V30 5366 N 492.207 -1.54576 0.307264 0
M  V30 5367 C 493.484 -1.92377 -0.353605 0
M  V30 5368 C 493.864 -1.23517 -1.71192 0
M  V30 5369 O 493.212 -0.373101 -2.25433 0
M  V30 5370 C 493.422 -3.45928 -0.462039 0
M  V30 5371 C 494.77 -4.18278 -0.729975 0
M  V30 5372 O 495.794 -3.51997 -0.545605 0
M  V30 5373 O 494.653 -5.3563 -1.08454 0
M  V30 5374 H 491.747 -0.802747 -0.198812 0
M  V30 5375 H 494.293 -1.65929 0.355783 0
M  V30 5376 H 493.065 -3.88187 0.492592 0
M  V30 5377 H 492.688 -3.78431 -1.21965 0
M  V30 5378 N 493.685 -0.035106 -1.57561 0
M  V30 5379 C 494.931 0.64318 -1.92331 0
M  V30 5380 C 495.264 1.71434 -0.912368 0
M  V30 5381 O 494.539 1.94395 0.0640303 0
M  V30 5382 C 494.822 1.25411 -3.37556 0
M  V30 5383 C 494.675 0.192109 -4.4939 0
M  V30 5384 C 495.994 2.17041 -3.82859 0
M  V30 5385 H 493.113 0.232341 -0.699419 0
M  V30 5386 H 495.755 -0.0935889 -1.89769 0
M  V30 5387 H 493.905 1.88205 -3.39869 0
M  V30 5388 H 495.577 -0.438849 -4.59208 0
M  V30 5389 H 493.82 -0.481725 -4.31117 0
M  V30 5390 H 494.491 0.659292 -5.48049 0
M  V30 5391 H 496.967 1.64228 -3.8232 0
M  V30 5392 H 495.843 2.56738 -4.85157 0
M  V30 5393 H 496.104 3.06401 -3.18702 0
M  V30 5394 N 495.163 1.55791 0.238111 0
M  V30 5395 C 496.093 1.94068 1.29846 0
M  V30 5396 C 497.074 0.806726 1.49753 0
M  V30 5397 O 498.259 1.06772 1.62214 0
M  V30 5398 C 495.389 2.24302 2.65153 0
M  V30 5399 C 494.343 3.40032 2.59927 0
M  V30 5400 C 493.669 3.55829 3.99111 0
M  V30 5401 C 494.969 4.75476 2.16148 0
M  V30 5402 H 496.663 2.82887 0.980563 0
M  V30 5403 H 494.209 1.36105 0.470253 0
M  V30 5404 H 496.162 2.4967 3.39475 0
M  V30 5405 H 494.886 1.32318 2.98596 0
M  V30 5406 H 493.545 3.14687 1.88063 0
M  V30 5407 H 493.193 2.6125 4.29834 0
M  V30 5408 H 492.893 4.3366 3.96501 0
M  V30 5409 H 494.417 3.83528 4.7512 0
M  V30 5410 H 495.831 5.00158 2.80205 0
M  V30 5411 H 494.228 5.56472 2.24631 0
M  V30 5412 H 495.298 4.71946 1.11333 0
M  V30 5413 N 496.642 -0.504142 1.49319 0
M  V30 5414 C 497.589 -1.60603 1.65756 0
M  V30 5415 C 498.559 -1.58425 0.499082 0
M  V30 5416 O 499.744 -1.76459 0.725728 0
M  V30 5417 C 496.884 -2.98764 1.72726 0
M  V30 5418 C 495.997 -3.10982 2.99857 0
M  V30 5419 C 495.132 -4.39857 2.97824 0
M  V30 5420 C 494.171 -4.45697 4.19548 0
M  V30 5421 N 493.308 -5.65995 4.15444 0
M  V30 5422 H 498.148 -1.45895 2.59843 0
M  V30 5423 H 495.685 -0.709891 1.28837 0
M  V30 5424 H 497.643 -3.78839 1.74747 0
M  V30 5425 H 496.273 -3.12183 0.821075 0
M  V30 5426 H 495.325 -2.23991 3.07461 0
M  V30 5427 H 496.637 -3.11157 3.89849 0
M  V30 5428 H 495.791 -5.2825 2.98391 0
M  V30 5429 H 494.53 -4.42242 2.05604 0
M  V30 5430 H 493.535 -3.55707 4.19229 0
M  V30 5431 H 494.76 -4.4503 5.12957 0
M  V30 5432 H 492.706 -5.69229 3.26059 0
M  V30 5433 H 492.623 -5.67773 4.99169 0
M  V30 5434 H 493.891 -6.56604 4.20109 0
M  V30 5435 N 498.12 -1.38341 -0.754957 0
M  V30 5436 C 499.067 -1.3546 -1.86867 0
M  V30 5437 C 500.037 -0.217369 -1.64672 0
M  V30 5438 O 501.222 -0.409383 -1.86356 0
M  V30 5439 C 498.362 -1.18413 -3.24149 0
M  V30 5440 C 497.475 -2.41511 -3.58185 0
M  V30 5441 C 496.61 -2.17205 -4.84763 0
M  V30 5442 C 495.649 -3.36081 -5.11582 0
M  V30 5443 N 494.786 -3.11219 -6.29354 0
M  V30 5444 H 499.626 -2.30672 -1.88664 0
M  V30 5445 H 497.163 -1.14607 -0.922154 0
M  V30 5446 H 499.121 -1.06545 -4.03366 0
M  V30 5447 H 497.751 -0.268397 -3.21682 0
M  V30 5448 H 496.803 -2.64056 -2.73822 0
M  V30 5449 H 498.115 -3.30115 -3.73932 0
M  V30 5450 H 497.269 -2.02465 -5.7192 0
M  V30 5451 H 496.008 -1.25964 -4.71152 0
M  V30 5452 H 495.013 -3.51341 -4.22894 0
M  V30 5453 H 496.238 -4.28196 -5.27091 0
M  V30 5454 H 494.184 -2.22624 -6.17069 0
M  V30 5455 H 494.101 -3.93373 -6.45596 0
M  V30 5456 H 495.369 -3.00132 -7.19403 0
M  V30 5457 N 499.598 0.982988 -1.23187 0
M  V30 5458 C 500.838 1.73903 -1.07412 0
M  V30 5459 C 501.202 1.88146 0.382764 0
M  V30 5460 O 502.403 2.6053 0.661638 0
M  V30 5461 C 500.674 3.10105 -1.77678 0
M  V30 5462 S 502.233 4.01323 -1.77441 0
M  V30 5463 H 499.051 0.598093 -0.384456 0
M  V30 5464 H 501.653 1.17456 -1.56283 0
M  V30 5465 H 500.357 2.97388 -2.82822 0
M  V30 5466 H 499.888 3.71622 -1.29077 0
M  V30 5467 H 501.903 4.89189 -0.831162 0
M  V30 5468 N 501.076 1.04316 1.18135 0
M  V30 5469 C 502.008 0.594444 2.21357 0
M  V30 5470 C 503.021 -0.337215 1.59269 0
M  V30 5471 O 504.21 -0.131337 1.78016 0
M  V30 5472 C 501.31 -0.151251 3.38562 0
M  V30 5473 C 500.483 0.788907 4.30227 0
M  V30 5474 C 499.542 0.0860572 5.2613 0
M  V30 5475 O 498.568 0.717302 5.64662 0
M  V30 5476 N 499.77 -1.17969 5.68387 0
M  V30 5477 H 502.535 1.48227 2.60478 0
M  V30 5478 H 500.096 0.92396 1.32946 0
M  V30 5479 H 502.088 -0.631352 3.99745 0
M  V30 5480 H 500.658 -0.940639 2.98112 0
M  V30 5481 H 499.878 1.44882 3.6661 0
M  V30 5482 H 501.166 1.42738 4.88368 0
M  V30 5483 H 500.564 -1.71302 5.3914 0
M  V30 5484 H 499.121 -1.60402 6.31755 0
M  V30 5485 N 502.554 -1.34406 0.822964 0
M  V30 5486 C 503.486 -2.28305 0.202375 0
M  V30 5487 C 504.499 -1.5103 -0.60777 0
M  V30 5488 O 505.688 -1.73057 -0.437444 0
M  V30 5489 C 502.788 -3.30836 -0.734911 0
M  V30 5490 C 501.961 -4.37388 0.0324177 0
M  V30 5491 C 501.02 -5.1968 -0.825803 0
M  V30 5492 O 500.046 -5.68556 -0.270771 0
M  V30 5493 N 501.248 -5.39393 -2.14558 0
M  V30 5494 H 504.013 -2.82201 1.00909 0
M  V30 5495 H 501.574 -1.4693 0.67993 0
M  V30 5496 H 503.566 -3.82786 -1.31365 0
M  V30 5497 H 502.136 -2.77334 -1.44238 0
M  V30 5498 H 501.356 -3.86152 0.792469 0
M  V30 5499 H 502.644 -5.05702 0.560633 0
M  V30 5500 H 502.042 -5.01357 -2.62025 0
M  V30 5501 H 500.599 -5.94461 -2.67318 0
M  V30 5502 N 504.032 -0.577932 -1.46621 0
M  V30 5503 C 504.995 0.147805 -2.28723 0
M  V30 5504 C 505.995 0.823325 -1.38123 0
M  V30 5505 O 507.185 0.676011 -1.60548 0
M  V30 5506 C 504.317 1.21853 -3.18378 0
M  V30 5507 H 505.51 -0.573654 -2.94362 0
M  V30 5508 H 503.063 -0.335703 -1.52652 0
M  V30 5509 H 503.798 1.97173 -2.57475 0
M  V30 5510 H 503.583 0.738714 -3.85078 0
M  V30 5511 H 505.073 1.72768 -3.80186 0
M  V30 5512 N 505.51 1.54411 -0.315457 0
M  V30 5513 C 506.42 2.27737 0.56329 0
M  V30 5514 C 507.436 1.31787 1.13614 0
M  V30 5515 O 508.612 1.64791 1.15784 0
M  V30 5516 C 505.677 3.01478 1.71207 0
M  V30 5517 C 504.738 4.12997 1.17185 0
M  V30 5518 C 503.971 4.83212 2.26588 0
M  V30 5519 O 504.194 4.52884 3.46775 0
M  V30 5520 O 503.128 5.70299 1.92463 0
M  V30 5521 H 506.954 3.03683 -0.0319614 0
M  V30 5522 H 504.539 1.49178 -0.0814188 0
M  V30 5523 H 506.421 3.47683 2.38106 0
M  V30 5524 H 505.096 2.28414 2.29366 0
M  V30 5525 H 504.003 3.71159 0.468174 0
M  V30 5526 H 505.336 4.8808 0.635501 0
M  V30 5527 N 506.988 0.0434614 1.5754 0
M  V30 5528 C 507.935 -0.93356 2.11077 0
M  V30 5529 C 508.905 -1.31383 1.01626 0
M  V30 5530 O 510.09 -1.40465 1.29129 0
M  V30 5531 C 507.23 -2.20578 2.65404 0
M  V30 5532 C 506.343 -1.88068 3.88914 0
M  V30 5533 C 505.478 -3.09691 4.31584 0
M  V30 5534 C 504.517 -2.73067 5.47815 0
M  V30 5535 N 503.654 -3.87359 5.85574 0
M  V30 5536 H 508.494 -0.470118 2.94268 0
M  V30 5537 H 506.031 -0.220434 1.45439 0
M  V30 5538 H 507.989 -2.95011 2.94999 0
M  V30 5539 H 506.619 -2.64513 1.85021 0
M  V30 5540 H 505.671 -1.03816 3.6596 0
M  V30 5541 H 506.983 -1.57104 4.73413 0
M  V30 5542 H 506.137 -3.92431 4.62691 0
M  V30 5543 H 504.876 -3.43827 3.45882 0
M  V30 5544 H 503.881 -1.88742 5.16388 0
M  V30 5545 H 505.106 -2.40131 6.35227 0
M  V30 5546 H 503.052 -4.21311 5.02825 0
M  V30 5547 H 502.969 -3.60068 6.64746 0
M  V30 5548 H 504.237 -4.70761 6.21292 0
M  V30 5549 N 508.466 -1.55915 -0.229846 0
M  V30 5550 C 509.715 -1.77742 -0.953455 0
M  V30 5551 C 510.028 -0.610524 -1.85828 0
M  V30 5552 O 511.234 -0.712219 -2.61992 0
M  V30 5553 C 509.69 -3.14738 -1.74551 0
M  V30 5554 C 509.298 -4.39126 -0.887242 0
M  V30 5555 C 511.042 -3.45895 -2.46084 0
M  V30 5556 C 508.949 -5.67149 -1.67617 0
M  V30 5557 H 507.879 -0.662648 -0.359741 0
M  V30 5558 H 510.53 -1.82322 -0.207576 0
M  V30 5559 H 508.912 -3.04311 -2.53399 0
M  V30 5560 H 510.086 -4.60588 -0.139892 0
M  V30 5561 H 508.401 -4.15427 -0.284443 0
M  V30 5562 H 510.998 -4.38767 -3.05594 0
M  V30 5563 H 511.341 -2.68007 -3.18556 0
M  V30 5564 H 511.874 -3.57614 -1.74233 0
M  V30 5565 H 508.613 -6.47906 -0.994881 0
M  V30 5566 H 508.133 -5.49763 -2.39836 0
M  V30 5567 H 509.812 -6.07025 -2.23898 0
M  V30 5568 N 509.944 0.496216 -1.49584 0
M  V30 5569 C 510.874 1.60576 -1.69521 0
M  V30 5570 C 511.855 1.61169 -0.543933 0
M  V30 5571 O 513.04 1.77834 -0.78031 0
M  V30 5572 C 510.17 2.99038 -1.76616 0
M  V30 5573 C 509.124 3.13312 -2.91581 0
M  V30 5574 C 508.45 4.53172 -2.83794 0
M  V30 5575 C 509.75 2.92886 -4.32452 0
M  V30 5576 H 511.444 1.44146 -2.62416 0
M  V30 5577 H 508.99 0.692024 -1.26282 0
M  V30 5578 H 510.943 3.76564 -1.8915 0
M  V30 5579 H 509.667 3.16568 -0.80324 0
M  V30 5580 H 508.326 2.38213 -2.78658 0
M  V30 5581 H 507.974 4.67585 -1.854 0
M  V30 5582 H 507.674 4.63662 -3.60958 0
M  V30 5583 H 509.198 5.32752 -2.98342 0
M  V30 5584 H 510.612 3.60178 -4.46032 0
M  V30 5585 H 509.009 3.14844 -5.10875 0
M  V30 5586 H 510.079 1.88966 -4.46565 0
M  V30 5587 N 511.423 1.38739 0.74761 0
M  V30 5588 C 512.37 1.36449 1.86146 0
M  V30 5589 C 513.34 0.226098 1.64554 0
M  V30 5590 O 514.525 0.41926 1.86137 0
M  V30 5591 C 511.665 1.2013 3.23516 0
M  V30 5592 C 510.778 2.43407 3.56899 0
M  V30 5593 C 509.913 2.19773 4.83605 0
M  V30 5594 C 508.952 3.3879 5.09792 0
M  V30 5595 N 508.089 3.14553 6.27695 0
M  V30 5596 H 512.929 2.3167 1.87438 0
M  V30 5597 H 510.466 1.15094 0.916063 0
M  V30 5598 H 512.424 1.08683 4.02795 0
M  V30 5599 H 511.054 0.285453 3.21535 0
M  V30 5600 H 510.106 2.65504 2.72418 0
M  V30 5601 H 511.418 3.32094 3.72176 0
M  V30 5602 H 510.572 2.05496 5.70838 0
M  V30 5603 H 509.311 1.28461 4.70478 0
M  V30 5604 H 508.316 3.53579 4.21025 0
M  V30 5605 H 509.541 4.30986 5.24812 0
M  V30 5606 H 507.487 2.25893 6.1588 0
M  V30 5607 H 507.404 3.96791 6.435 0
M  V30 5608 H 508.672 3.03943 7.17801 0
M  V30 5609 N 512.901 -0.976442 1.23707 0
M  V30 5610 C 513.811 -2.10359 1.03856 0
M  V30 5611 C 514.827 -1.73991 -0.0180919 0
M  V30 5612 O 516.003 -2.0061 0.178211 0
M  V30 5613 C 513.068 -3.40809 0.636387 0
M  V30 5614 C 512.129 -3.91179 1.76854 0
M  V30 5615 C 511.362 -5.15404 1.38546 0
M  V30 5616 O 511.585 -5.69754 0.27142 0
M  V30 5617 O 510.519 -5.5994 2.20797 0
M  V30 5618 H 514.345 -2.29997 1.98331 0
M  V30 5619 H 511.93 -1.08742 1.02448 0
M  V30 5620 H 513.812 -4.19269 0.423223 0
M  V30 5621 H 512.487 -3.22493 -0.279322 0
M  V30 5622 H 511.394 -3.13819 2.03638 0
M  V30 5623 H 512.727 -4.13958 2.6627 0
M  V30 5624 N 514.379 -1.04941 -1.1758 0
M  V30 5625 C 515.311 -0.606174 -2.21039 0
M  V30 5626 C 516.324 0.328763 -1.59446 0
M  V30 5627 O 517.513 0.121895 -1.78083 0
M  V30 5628 C 514.613 0.133294 -3.38638 0
M  V30 5629 C 513.786 -0.811711 -4.29802 0
M  V30 5630 C 512.845 -0.113958 -5.26077 0
M  V30 5631 O 511.871 -0.747237 -5.64274 0
M  V30 5632 N 513.073 1.14953 -5.69004 0
M  V30 5633 H 515.838 -1.49606 -2.59689 0
M  V30 5634 H 513.399 -0.930997 -1.32454 0
M  V30 5635 H 515.391 0.610144 -4.00074 0
M  V30 5636 H 513.961 0.924816 -2.98607 0
M  V30 5637 H 513.181 -1.46824 -3.65837 0
M  V30 5638 H 514.469 -1.45326 -4.87604 0
M  V30 5639 H 513.867 1.68441 -5.40041 0
M  V30 5640 H 512.424 1.57049 -6.32597 0
M  V30 5641 N 515.857 1.33968 -0.830081 0
M  V30 5642 C 516.767 2.33164 -0.259207 0
M  V30 5643 C 517.783 1.62951 0.610164 0
M  V30 5644 O 518.959 1.94668 0.516369 0
M  V30 5645 C 516.024 3.42088 0.563598 0
M  V30 5646 C 515.085 4.28037 -0.329014 0
M  V30 5647 C 514.318 5.3176 0.454616 0
M  V30 5648 O 514.541 5.44876 1.6872 0
M  V30 5649 O 513.475 6.01669 -0.166794 0
M  V30 5650 H 517.301 2.83832 -1.08041 0
M  V30 5651 H 514.886 1.37154 -0.59239 0
M  V30 5652 H 516.768 4.08581 1.03147 0
M  V30 5653 H 515.443 2.93651 1.36201 0
M  V30 5654 H 514.35 3.64443 -0.844538 0
M  V30 5655 H 515.683 4.79934 -1.09196 0
M  V30 5656 N 517.335 0.585699 1.46312 0
M  V30 5657 C 518.751 0.247607 1.57668 0
M  V30 5658 C 518.951 -1.25007 1.58037 0
M  V30 5659 O 518.007 -2.03196 1.49893 0
M  V30 5660 C 519.32 0.899456 2.86933 0
M  V30 5661 C 520.868 0.873326 3.00569 0
M  V30 5662 C 521.343 1.50477 4.32574 0
M  V30 5663 N 522.834 1.46925 4.3928 0
M  V30 5664 C 523.569 1.92719 5.40044 0
M  V30 5665 N 523.065 2.46499 6.47464 0
M  V30 5666 N 524.858 1.83617 5.31264 0
M  V30 5667 H 517.009 1.55841 1.44317 0
M  V30 5668 H 519.272 0.651564 0.688599 0
M  V30 5669 H 518.978 1.95313 2.92482 0
M  V30 5670 H 518.852 0.409476 3.74971 0
M  V30 5671 H 521.239 -0.171736 2.946 0
M  V30 5672 H 521.32 1.40136 2.13999 0
M  V30 5673 H 520.964 2.54905 4.39302 0
M  V30 5674 H 520.894 0.951944 5.17924 0
M  V30 5675 H 523.385 1.07616 3.62253 0
M  V30 5676 H 523.698 2.79291 7.20567 0
M  V30 5677 H 522.043 2.50526 6.48276 0
M  V30 5678 H 525.234 1.41358 4.46246 0
M  V30 5679 H 525.407 2.19622 6.09648 0
M  V30 5680 N 518.813 -1.54241 0.323641 0
M  V30 5681 C 519.743 -2.27289 -0.534993 0
M  V30 5682 C 520.724 -1.28087 -1.11927 0
M  V30 5683 O 521.909 -1.56899 -1.14439 0
M  V30 5684 C 519.039 -3.03075 -1.69596 0
M  V30 5685 C 517.993 -4.09614 -1.24098 0
M  V30 5686 C 517.319 -4.73242 -2.4889 0
M  V30 5687 C 518.619 -5.21087 -0.355789 0
M  V30 5688 H 520.313 -2.99308 0.0743257 0
M  V30 5689 H 517.859 -1.43952 0.0371874 0
M  V30 5690 H 519.812 -3.52907 -2.30293 0
M  V30 5691 H 518.536 -2.28673 -2.33187 0
M  V30 5692 H 517.195 -3.60666 -0.656945 0
M  V30 5693 H 516.843 -3.95455 -3.10845 0
M  V30 5694 H 516.543 -5.45209 -2.19138 0
M  V30 5695 H 518.067 -5.25848 -3.10348 0
M  V30 5696 H 519.481 -5.66675 -0.869042 0
M  V30 5697 H 517.878 -5.9991 -0.151045 0
M  V30 5698 H 518.948 -4.81005 0.613339 0
M  V30 5699 N 520.291 -0.0518155 -1.57515 0
M  V30 5700 C 521.254 0.907547 -2.10467 0
M  V30 5701 C 522.254 1.23947 -1.02439 0
M  V30 5702 O 523.444 1.17604 -1.2851 0
M  V30 5703 C 520.576 2.21723 -2.58944 0
M  V30 5704 H 521.769 0.44851 -2.96527 0
M  V30 5705 H 519.322 0.196598 -1.55059 0
M  V30 5706 H 520.057 2.72206 -1.76279 0
M  V30 5707 H 519.842 1.98935 -3.37886 0
M  V30 5708 H 521.332 2.90441 -3.00056 0
M  V30 5709 N 521.769 1.56035 0.221574 0
M  V30 5710 C 522.999 1.82864 0.961468 0
M  V30 5711 C 523.407 0.628703 1.78449 0
M  V30 5712 O 522.75 -0.412109 1.79018 0
M  V30 5713 C 522.812 3.03425 1.92804 0
M  V30 5714 C 522.476 4.38429 1.28954 0
M  V30 5715 C 523.473 5.15441 0.679431 0
M  V30 5716 C 521.158 4.85151 1.30131 0
M  V30 5717 C 523.152 6.37337 0.0896148 0
M  V30 5718 C 520.839 6.06989 0.707651 0
M  V30 5719 C 521.837 6.82923 0.102855 0
M  V30 5720 O 521.525 8.02456 -0.48157 0
M  V30 5721 H 521.257 0.611883 0.28736 0
M  V30 5722 H 523.811 2.0397 0.241932 0
M  V30 5723 H 522.041 2.78138 2.68656 0
M  V30 5724 H 523.73 3.17127 2.53348 0
M  V30 5725 H 524.496 4.80452 0.662661 0
M  V30 5726 H 520.375 4.26021 1.76145 0
M  V30 5727 H 523.919 6.96547 -0.383069 0
M  V30 5728 H 519.816 6.41451 0.721834 0
M  V30 5729 H 520.584 8.17636 -0.375887 0
M  V30 5730 N 523.247 -0.488276 1.49845 0
M  V30 5731 C 524.496 -1.23826 1.59217 0
M  V30 5732 C 524.809 -1.93439 0.289966 0
M  V30 5733 O 526.015 -2.70229 0.262382 0
M  V30 5734 C 524.471 -2.24902 2.80976 0
M  V30 5735 C 524.079 -1.6117 4.18005 0
M  V30 5736 C 525.823 -3.00648 2.99685 0
M  V30 5737 C 523.73 -2.60431 5.3097 0
M  V30 5738 H 522.66 -0.465858 0.592868 0
M  V30 5739 H 525.311 -0.510645 1.76252 0
M  V30 5740 H 523.693 -3.0088 2.57463 0
M  V30 5741 H 524.867 -0.910968 4.51706 0
M  V30 5742 H 523.182 -0.97767 4.0476 0
M  V30 5743 H 525.779 -3.74903 3.81251 0
M  V30 5744 H 526.122 -3.5902 2.10738 0
M  V30 5745 H 526.655 -2.31784 3.23297 0
M  V30 5746 H 523.394 -2.06823 6.22017 0
M  V30 5747 H 522.914 -3.28707 5.01709 0
M  V30 5748 H 524.593 -3.22606 5.60834 0
M  V30 5749 N 524.725 -1.39134 -0.740242 0
M  V30 5750 C 525.673 -1.3757 -1.87556 0
M  V30 5751 C 526.667 -0.259593 -1.67399 0
M  V30 5752 O 527.873 -0.429349 -1.74804 0
M  V30 5753 H 524.248 -0.42947 -0.6173 0
M  V30 5754 H 526.219 -2.33345 -1.85991 0
M  V30 5755 C 524.968 -1.23087 -3.25184 0
M  V30 5756 H 524.291 -2.08237 -3.41288 0
M  V30 5757 H 525.731 -1.26049 -4.0483 0
M  V30 5758 C 524.19 0.0611471 -3.36845 0
M  V30 5759 O 524.72 1.03328 -3.88183 0
M  V30 5760 N 522.926 0.122454 -2.90342 0
M  V30 5761 H 522.473 -0.669329 -2.48752 0
M  V30 5762 H 522.431 0.986463 -2.98523 0
M  V30 5763 N 526.204 0.969867 -1.24223 0
M  V30 5764 C 527.615 1.52717 -1.07399 0
M  V30 5765 C 527.966 1.92956 0.355298 0
M  V30 5766 O 527.091 1.77112 1.2434 0
M  V30 5767 C 527.686 2.77521 -1.94339 0
M  V30 5768 C 526.245 3.29615 -1.81744 0
M  V30 5769 C 525.392 2.02537 -1.89405 0
M  V30 5770 H 528.343 0.788399 -1.37732 0
M  V30 5771 H 528.364 3.50773 -1.47439 0
M  V30 5772 H 527.876 2.48203 -2.98357 0
M  V30 5773 H 525.977 3.63789 -0.805505 0
M  V30 5774 H 526.09 3.98661 -2.65718 0
M  V30 5775 H 524.454 2.17151 -1.33108 0
M  V30 5776 H 525.237 1.75587 -2.94999 0
M  V30 5777 N 527.682 1.05563 1.17022 0
M  V30 5778 C 528.959 0.68165 1.83338 0
M  V30 5779 C 529.339 -0.837665 1.93769 0
M  V30 5780 O 528.687 -1.74507 1.47511 0
M  V30 5781 C 528.897 1.375 3.20772 0
M  V30 5782 C 530.245 1.51545 3.96635 0
M  V30 5783 O 531.269 1.33431 3.30264 0
M  V30 5784 O 530.128 1.812 5.15586 0
M  V30 5785 H 527.222 0.240412 0.791285 0
M  V30 5786 H 529.768 1.15545 1.24288 0
M  V30 5787 H 528.54 2.41135 3.08171 0
M  V30 5788 H 528.163 0.890798 3.87493 0
M  V30 5789 N 529.16 -1.33526 0.837174 0
M  V30 5790 C 530.09 -2.31764 0.284206 0
M  V30 5791 C 531.071 -1.58896 -0.607142 0
M  V30 5792 O 532.256 -1.86798 -0.531047 0
M  V30 5793 C 529.386 -3.43029 -0.542962 0
M  V30 5794 C 528.34 -4.27255 0.252451 0
M  V30 5795 C 527.666 -5.3012 -0.69836 0
M  V30 5796 C 528.966 -5.01229 1.46858 0
M  V30 5797 H 530.66 -2.78262 1.10502 0
M  V30 5798 H 528.206 -1.3378 0.532812 0
M  V30 5799 H 530.159 -4.1078 -0.940096 0
M  V30 5800 H 528.883 -2.95216 -1.39697 0
M  V30 5801 H 527.542 -3.61127 0.631124 0
M  V30 5802 H 527.19 -4.78564 -1.54872 0
M  V30 5803 H 526.89 -5.87353 -0.170274 0
M  V30 5804 H 528.414 -6.00737 -1.09305 0
M  V30 5805 H 529.828 -5.61756 1.14469 0
M  V30 5806 H 528.225 -5.68104 1.93333 0
M  V30 5807 H 529.295 -4.301 2.23924 0
M  V30 5808 N 530.638 -0.59345 -1.46 0
M  V30 5809 C 531.601 0.123538 -2.28867 0
M  V30 5810 C 532.601 0.808628 -1.38989 0
M  V30 5811 O 533.791 0.658945 -1.61256 0
M  V30 5812 C 530.923 1.1847 -3.19653 0
M  V30 5813 H 532.116 -0.604843 -2.93737 0
M  V30 5814 H 529.669 -0.351875 -1.52288 0
M  V30 5815 H 530.404 1.94431 -2.59552 0
M  V30 5816 H 530.189 0.69783 -3.8584 0
M  V30 5817 H 531.679 1.68726 -3.81997 0
M  V30 5818 N 532.116 1.54067 -0.331816 0
M  V30 5819 C 533.046 2.27569 0.522932 0
M  V30 5820 C 534.027 1.28679 1.11247 0
M  V30 5821 O 535.212 1.57504 1.13605 0
M  V30 5822 C 532.342 3.0397 1.67987 0
M  V30 5823 C 531.296 4.10267 1.21924 0
M  V30 5824 C 530.622 4.74555 2.46377 0
M  V30 5825 C 531.922 5.21268 0.32815 0
M  V30 5826 H 533.616 2.99264 -0.0901977 0
M  V30 5827 H 531.162 1.4393 -0.044821 0
M  V30 5828 H 533.115 3.54123 2.28418 0
M  V30 5829 H 531.839 2.29906 2.31971 0
M  V30 5830 H 530.498 3.61009 0.637809 0
M  V30 5831 H 530.146 3.97098 3.08743 0
M  V30 5832 H 529.846 5.46363 2.16243 0
M  V30 5833 H 531.37 5.27487 3.07555 0
M  V30 5834 H 532.784 5.67128 0.838978 0
M  V30 5835 H 531.181 5.99982 0.119228 0
M  V30 5836 H 532.251 4.80673 -0.638839 0
M  V30 5837 N 533.594 0.0601682 1.57485 0
M  V30 5838 C 534.504 -0.926121 2.15546 0
M  V30 5839 C 535.52 -1.33532 1.11558 0
M  V30 5840 O 536.696 -1.4104 1.4377 0
M  V30 5841 C 533.761 -2.17952 2.69625 0
M  V30 5842 C 532.822 -1.82783 3.88444 0
M  V30 5843 C 532.055 -3.02148 4.39935 0
M  V30 5844 O 532.278 -4.15803 3.90466 0
M  V30 5845 O 531.212 -2.82639 5.31412 0
M  V30 5846 H 535.038 -0.462289 3.00161 0
M  V30 5847 H 532.623 -0.162246 1.48516 0
M  V30 5848 H 534.505 -2.91474 3.04337 0
M  V30 5849 H 533.18 -2.63456 1.88077 0
M  V30 5850 H 532.087 -1.06549 3.58606 0
M  V30 5851 H 533.42 -1.42072 4.7125 0
M  V30 5852 N 535.072 -1.5615 -0.213296 0
M  V30 5853 C 535.982 -1.96265 -1.28519 0
M  V30 5854 C 536.998 -0.86765 -1.50824 0
M  V30 5855 O 538.174 -1.17191 -1.63793 0
M  V30 5856 C 535.239 -2.27836 -2.61327 0
M  V30 5857 C 534.3 -3.50949 -2.47252 0
M  V30 5858 C 533.533 -3.81004 -3.73727 0
M  V30 5859 O 533.756 -3.12612 -4.77106 0
M  V30 5860 O 532.69 -4.74477 -3.70344 0
M  V30 5861 H 536.516 -2.87631 -0.974795 0
M  V30 5862 H 534.101 -1.43467 -0.416832 0
M  V30 5863 H 535.983 -2.49299 -3.39747 0
M  V30 5864 H 534.658 -1.39643 -2.9203 0
M  V30 5865 H 533.565 -3.34754 -1.67004 0
M  V30 5866 H 534.898 -4.39551 -2.21486 0
M  V30 5867 N 536.55 0.480323 -1.50102 0
M  V30 5868 C 537.497 1.57946 -1.6829 0
M  V30 5869 C 538.467 1.57611 -0.524223 0
M  V30 5870 O 539.652 1.75282 -0.753709 0
M  V30 5871 C 536.792 2.95978 -1.77457 0
M  V30 5872 C 535.905 3.06173 -3.04766 0
M  V30 5873 C 535.04 4.35063 -3.04784 0
M  V30 5874 C 534.079 4.38966 -4.26586 0
M  V30 5875 N 533.216 5.59314 -4.24396 0
M  V30 5876 H 538.056 1.41743 -2.62131 0
M  V30 5877 H 535.593 0.689304 -1.2995 0
M  V30 5878 H 537.551 3.76011 -1.80752 0
M  V30 5879 H 536.181 3.10837 -0.870637 0
M  V30 5880 H 535.233 2.19071 -3.10986 0
M  V30 5881 H 536.545 3.04916 -3.9475 0
M  V30 5882 H 535.699 5.23436 -3.06757 0
M  V30 5883 H 534.438 4.38915 -2.12614 0
M  V30 5884 H 533.443 3.48992 -4.24835 0
M  V30 5885 H 534.668 4.36813 -5.19972 0
M  V30 5886 H 532.614 5.63969 -3.35074 0
M  V30 5887 H 532.531 5.5976 -5.08138 0
M  V30 5888 H 533.799 6.49837 -4.30502 0
M  V30 5889 N 538.028 1.39524 0.732853 0
M  V30 5890 C 538.976 1.38563 1.86824 0
M  V30 5891 C 539.97 0.268467 1.67259 0
M  V30 5892 O 541.176 0.438613 1.74574 0
M  V30 5893 H 537.551 0.432737 0.615014 0
M  V30 5894 H 539.522 2.34328 1.84751 0
M  V30 5895 C 538.271 1.2481 3.24527 0
M  V30 5896 H 537.594 2.10044 3.40179 0
M  V30 5897 H 539.034 1.28194 4.04156 0
M  V30 5898 C 537.493 -0.0432825 3.36872 0
M  V30 5899 O 538.023 -1.01268 3.88726 0
M  V30 5900 N 536.229 -0.107055 2.90403 0
M  V30 5901 H 535.776 0.682512 2.48394 0
M  V30 5902 H 535.734 -0.970618 2.99042 0
M  V30 5903 N 539.506 -0.963266 1.24736 0
M  V30 5904 C 540.453 -2.05857 1.04363 0
M  V30 5905 C 541.423 -1.6604 -0.0444951 0
M  V30 5906 O 542.608 -1.90477 0.110999 0
M  V30 5907 C 539.748 -3.38745 0.659235 0
M  V30 5908 C 538.861 -3.9173 1.82131 0
M  V30 5909 C 537.996 -5.12906 1.38208 0
M  V30 5910 C 537.035 -5.58098 2.51382 0
M  V30 5911 N 536.172 -6.7049 2.08295 0
M  V30 5912 H 541.012 -2.22616 1.98107 0
M  V30 5913 H 538.549 -1.09103 0.986661 0
M  V30 5914 H 540.507 -4.15107 0.417371 0
M  V30 5915 H 539.137 -3.21898 -0.241201 0
M  V30 5916 H 538.189 -3.11966 2.17672 0
M  V30 5917 H 539.501 -4.21225 2.67153 0
M  V30 5918 H 538.655 -5.96657 1.09935 0
M  V30 5919 H 537.394 -4.85105 0.502456 0
M  V30 5920 H 536.399 -4.72917 2.80409 0
M  V30 5921 H 537.624 -5.87911 3.39909 0
M  V30 5922 H 535.57 -6.44416 1.22737 0
M  V30 5923 H 535.487 -6.99458 2.86869 0
M  V30 5924 H 536.755 -7.57672 1.83175 0
M  V30 5925 N 540.985 -1.06182 -1.16461 0
M  V30 5926 C 542.233 -0.776326 -1.86595 0
M  V30 5927 C 542.554 0.69921 -1.82033 0
M  V30 5928 O 541.824 1.50579 -1.2531 0
M  V30 5929 H 540.404 -0.284184 -0.690832 0
M  V30 5930 H 543.066 -1.34308 -1.41235 0
M  V30 5931 H 542.162 -1.10022 -2.92064 0
M  V30 5932 N 542.463 1.3308 -0.844243 0
M  V30 5933 C 543.411 2.31028 -0.269954 0
M  V30 5934 C 544.405 1.58381 0.600997 0
M  V30 5935 O 545.611 1.73203 0.48996 0
M  V30 5936 H 541.986 0.748866 -0.0685782 0
M  V30 5937 H 543.957 2.76967 -1.11049 0
M  V30 5938 C 542.706 3.43549 0.535676 0
M  V30 5939 H 542.029 3.99604 -0.125202 0
M  V30 5940 H 543.469 4.14267 0.903262 0
M  V30 5941 C 541.928 2.8988 1.71672 0
M  V30 5942 O 542.458 2.86511 2.81557 0
M  V30 5943 N 540.664 2.46416 1.54037 0
M  V30 5944 H 540.211 2.49356 0.64649 0
M  V30 5945 H 540.169 2.1086 2.33207 0
M  V30 5946 N 543.941 0.601185 1.45683 0
M  V30 5947 C 544.851 -0.123395 2.34275 0
M  V30 5948 C 545.867 -0.86702 1.5086 0
M  V30 5949 O 547.043 -0.826049 1.8368 0
M  V30 5950 C 544.108 -1.11237 3.2837 0
M  V30 5951 C 543.169 -0.371405 4.2769 0
M  V30 5952 C 542.402 -1.31327 5.1729 0
M  V30 5953 O 542.625 -2.55078 5.10188 0
M  V30 5954 O 541.559 -0.813811 5.96373 0
M  V30 5955 H 545.385 0.604483 2.97623 0
M  V30 5956 H 542.97 0.361477 1.44961 0
M  V30 5957 H 544.852 -1.68214 3.8637 0
M  V30 5958 H 543.527 -1.82139 2.67595 0
M  V30 5959 H 542.434 0.24067 3.73325 0
M  V30 5960 H 543.767 0.296998 4.91303 0
M  V30 5961 N 545.419 -1.53889 0.339982 0
M  V30 5962 C 546.659 -2.02765 -0.258011 0
M  V30 5963 C 547.023 -1.22249 -1.48051 0
M  V30 5964 O 548.224 -1.61007 -2.15245 0
M  V30 5965 C 546.495 -3.5286 -0.567872 0
M  V30 5966 S 548.054 -4.23647 -1.14318 0
M  V30 5967 H 544.872 -0.706814 -0.0770389 0
M  V30 5968 H 547.474 -1.89594 0.476917 0
M  V30 5969 H 546.178 -4.09073 0.329745 0
M  V30 5970 H 545.709 -3.70144 -1.33256 0
M  V30 5971 H 547.724 -4.32676 -2.42911 0
M  V30 5972 N 546.897 -0.0685191 -1.57451 0
M  V30 5973 C 548.144 0.601348 -1.93365 0
M  V30 5974 C 548.472 1.69816 -0.948294 0
M  V30 5975 O 547.727 1.95666 0.0366199 0
M  V30 5976 C 548.026 1.22051 -3.35914 0
M  V30 5977 C 547.692 0.250165 -4.50205 0
M  V30 5978 C 546.354 -0.0167954 -4.81197 0
M  V30 5979 C 548.706 -0.413867 -5.19554 0
M  V30 5980 C 546.034 -0.95493 -5.78876 0
M  V30 5981 C 548.386 -1.3403 -6.18238 0
M  V30 5982 C 547.05 -1.61576 -6.47649 0
M  V30 5983 H 546.32 0.220049 -0.707573 0
M  V30 5984 H 548.967 -0.138697 -1.90997 0
M  V30 5985 H 547.272 2.03622 -3.34732 0
M  V30 5986 H 548.969 1.74605 -3.6099 0
M  V30 5987 H 545.559 0.468421 -4.26033 0
M  V30 5988 H 549.743 -0.220733 -4.95809 0
M  V30 5989 H 544.999 -1.17563 -5.99991 0
M  V30 5990 H 549.173 -1.86081 -6.71079 0
M  V30 5991 H 546.8 -2.34431 -7.2315 0
M  V30 5992 N 548.375 1.56261 0.205012 0
M  V30 5993 C 549.307 1.90266 1.27795 0
M  V30 5994 C 550.32 0.792397 1.42214 0
M  V30 5995 O 551.509 1.07077 1.42817 0
M  V30 5996 C 548.609 2.11074 2.65143 0
M  V30 5997 C 547.782 3.42176 2.7246 0
M  V30 5998 C 546.841 3.52216 3.90936 0
M  V30 5999 O 545.867 4.25119 3.78501 0
M  V30 6000 N 547.069 2.84573 5.05963 0
M  V30 6001 H 549.834 2.82896 0.989434 0
M  V30 6002 H 547.395 1.57008 0.394981 0
M  V30 6003 H 549.387 2.15089 3.4281 0
M  V30 6004 H 547.957 1.2499 2.86524 0
M  V30 6005 H 547.177 3.50116 1.81142 0
M  V30 6006 H 548.465 4.28509 2.74331 0
M  V30 6007 H 547.863 2.25152 5.18963 0
M  V30 6008 H 546.42 2.94228 5.81613 0
M  V30 6009 N 549.853 -0.472356 1.50355 0
M  V30 6010 C 550.8 -1.57051 1.69126 0
M  V30 6011 C 551.77 -1.5733 0.532574 0
M  V30 6012 O 552.955 -1.7488 0.762994 0
M  V30 6013 C 550.095 -2.95033 1.79024 0
M  V30 6014 C 549.208 -3.04552 3.06386 0
M  V30 6015 C 548.343 -4.33441 3.07087 0
M  V30 6016 C 547.382 -4.36697 4.28908 0
M  V30 6017 N 546.519 -5.57056 4.27356 0
M  V30 6018 H 551.359 -1.40351 2.62879 0
M  V30 6019 H 548.896 -0.682403 1.30314 0
M  V30 6020 H 550.854 -3.75048 1.82744 0
M  V30 6021 H 549.484 -3.10371 0.887109 0
M  V30 6022 H 548.536 -2.17419 3.12143 0
M  V30 6023 H 549.848 -3.02818 3.96362 0
M  V30 6024 H 549.002 -5.21801 3.09529 0
M  V30 6025 H 547.741 -4.37782 2.14939 0
M  V30 6026 H 546.746 -3.46734 4.2668 0
M  V30 6027 H 547.971 -4.34049 5.22282 0
M  V30 6028 H 545.917 -5.62184 3.3806 0
M  V30 6029 H 545.834 -5.57058 5.111 0
M  V30 6030 H 547.102 -6.47545 4.33942 0
M  V30 6031 N 551.331 -1.39911 -0.725443 0
M  V30 6032 C 552.579 -1.37382 -1.48224 0
M  V30 6033 C 552.9 0.0264107 -1.94982 0
M  V30 6034 O 552.17 0.979408 -1.6966 0
M  V30 6035 H 550.75 -0.505596 -0.549892 0
M  V30 6036 H 553.412 -1.7487 -0.860608 0
M  V30 6037 H 552.508 -2.04254 -2.3598 0
M  V30 6038 N 552.809 0.956637 -1.25245 0
M  V30 6039 C 554.086 1.67716 -1.00651 0
M  V30 6040 C 554.466 2.0585 0.467866 0
M  V30 6041 O 553.814 1.77029 1.44475 0
M  V30 6042 C 554.024 2.90093 -1.94028 0
M  V30 6043 C 555.372 3.6209 -2.21756 0
M  V30 6044 O 556.396 3.00171 -1.9177 0
M  V30 6045 O 555.255 4.7358 -2.72735 0
M  V30 6046 H 552.349 0.733731 -0.381533 0
M  V30 6047 H 554.895 1.00974 -1.3639 0
M  V30 6048 H 553.667 2.58689 -2.93591 0
M  V30 6049 H 553.29 3.64566 -1.58674 0
M  V30 6050 N 554.287 1.06798 1.15896 0
M  V30 6051 C 555.517 0.807522 1.90165 0
M  V30 6052 C 555.925 -0.642417 1.7796 0
M  V30 6053 O 555.268 -1.45193 1.12537 0
M  V30 6054 C 555.33 1.12939 3.41299 0
M  V30 6055 C 554.994 2.57879 3.7729 0
M  V30 6056 C 555.991 3.56118 3.78782 0
M  V30 6057 C 553.676 2.93311 4.07767 0
M  V30 6058 C 555.67 4.87827 4.10248 0
M  V30 6059 C 553.357 4.25219 4.38899 0
M  V30 6060 C 554.355 5.22287 4.4012 0
M  V30 6061 O 554.043 6.51826 4.70508 0
M  V30 6062 H 553.775 0.291946 0.609708 0
M  V30 6063 H 556.329 1.42627 1.47806 0
M  V30 6064 H 554.559 0.45359 3.84031 0
M  V30 6065 H 556.248 0.852363 3.9685 0
M  V30 6066 H 557.014 3.30086 3.55342 0
M  V30 6067 H 552.893 2.18409 4.05979 0
M  V30 6068 H 556.437 5.63586 4.11116 0
M  V30 6069 H 552.334 4.51006 4.61805 0
M  V30 6070 H 553.102 6.56893 4.88298 0
M  V30 6071 N 555.766 -1.3263 0.851289 0
M  V30 6072 C 557.177 -1.79653 0.5081 0
M  V30 6073 C 557.528 -1.70327 -0.973815 0
M  V30 6074 O 556.653 -1.25986 -1.75944 0
M  V30 6075 C 557.248 -3.26196 0.915515 0
M  V30 6076 C 555.807 -3.71187 0.624277 0
M  V30 6077 C 554.954 -2.53804 1.11709 0
M  V30 6078 H 557.905 -1.19976 1.03882 0
M  V30 6079 H 557.926 -3.79801 0.230535 0
M  V30 6080 H 557.438 -3.32952 1.99411 0
M  V30 6081 H 555.539 -3.69948 -0.443737 0
M  V30 6082 H 555.652 -4.64132 1.18821 0
M  V30 6083 H 554.016 -2.48964 0.537484 0
M  V30 6084 H 554.799 -2.63315 2.20272 0
M  V30 6085 N 557.244 -0.608902 -1.45362 0
M  V30 6086 C 558.176 0.147318 -2.28726 0
M  V30 6087 C 559.189 0.830468 -1.40025 0
M  V30 6088 O 560.378 0.695636 -1.64387 0
M  V30 6089 C 557.478 1.22968 -3.15804 0
M  V30 6090 C 556.651 0.633391 -4.3279 0
M  V30 6091 C 555.71 1.60682 -5.01067 0
M  V30 6092 O 554.736 1.13261 -5.57818 0
M  V30 6093 N 555.938 2.94123 -5.00472 0
M  V30 6094 H 558.703 -0.568014 -2.94268 0
M  V30 6095 H 556.264 -0.448479 -1.55564 0
M  V30 6096 H 558.256 1.88072 -3.58345 0
M  V30 6097 H 556.826 1.84752 -2.52162 0
M  V30 6098 H 556.046 -0.195762 -3.93714 0
M  V30 6099 H 557.334 0.215255 -5.08344 0
M  V30 6100 H 556.732 3.3525 -4.55657 0
M  V30 6101 H 555.289 3.54646 -5.46872 0
M  V30 6102 N 558.722 1.53707 -0.348139 0
M  V30 6103 C 559.685 2.23812 0.494058 0
M  V30 6104 C 560.685 1.23989 1.02388 0
M  V30 6105 O 561.875 1.48395 0.912396 0
M  V30 6106 C 559.007 2.96133 1.68872 0
M  V30 6107 H 560.2 2.99663 -0.119141 0
M  V30 6108 H 557.753 1.55983 -0.0995539 0
M  V30 6109 H 558.488 2.24481 2.34049 0
M  V30 6110 H 558.273 3.69357 1.31596 0
M  V30 6111 H 559.763 3.49475 2.28597 0
M  V30 6112 N 560.2 0.0768682 1.57412 0
M  V30 6113 C 561.133 -0.924685 2.08626 0
M  V30 6114 C 562.111 -1.28792 0.992542 0
M  V30 6115 O 563.295 -1.39634 1.26628 0
M  V30 6116 C 560.422 -2.23131 2.54814 0
M  V30 6117 C 559.468 -2.01928 3.75669 0
M  V30 6118 S 560.301 -1.27397 5.20125 0
M  V30 6119 C 561.457 -2.59329 5.69648 0
M  V30 6120 H 561.69 -0.488928 2.93252 0
M  V30 6121 H 559.223 -0.136014 1.538 0
M  V30 6122 H 561.181 -2.98226 2.82084 0
M  V30 6123 H 559.842 -2.63831 1.70447 0
M  V30 6124 H 559.035 -2.98639 4.05993 0
M  V30 6125 H 558.637 -1.34967 3.48798 0
M  V30 6126 H 560.929 -3.55394 5.76803 0
M  V30 6127 H 561.872 -2.33608 6.68456 0
M  V30 6128 H 562.28 -2.66767 4.9749 0
M  V30 6129 N 561.678 -1.56367 -0.196722 0
M  V30 6130 C 562.625 -1.94417 -1.24382 0
M  V30 6131 C 563.595 -0.804543 -1.45315 0
M  V30 6132 O 564.78 -1.06256 -1.58475 0
M  V30 6133 C 561.92 -2.28757 -2.58388 0
M  V30 6134 C 561.033 -3.55775 -2.45047 0
M  V30 6135 C 560.168 -3.79445 -3.71746 0
M  V30 6136 C 559.207 -4.99894 -3.53231 0
M  V30 6137 N 558.344 -5.19826 -4.71938 0
M  V30 6138 H 563.184 -2.83691 -0.912338 0
M  V30 6139 H 560.721 -1.40392 -0.439135 0
M  V30 6140 H 562.679 -2.46682 -3.36457 0
M  V30 6141 H 561.309 -1.42625 -2.89582 0
M  V30 6142 H 560.361 -3.45905 -1.58284 0
M  V30 6143 H 561.673 -4.44 -2.27299 0
M  V30 6144 H 560.827 -3.97601 -4.58256 0
M  V30 6145 H 559.566 -2.89546 -3.92446 0
M  V30 6146 H 558.571 -4.81662 -2.65107 0
M  V30 6147 H 559.796 -5.913 -3.33978 0
M  V30 6148 H 557.742 -4.32875 -4.92905 0
M  V30 6149 H 557.659 -6.02228 -4.57009 0
M  V30 6150 H 558.927 -5.42439 -5.59803 0
M  V30 6151 N 563.156 0.464375 -1.50603 0
M  V30 6152 C 564.106 1.55929 -1.66343 0
M  V30 6153 C 565.09 1.52338 -0.517887 0
M  V30 6154 O 566.282 1.59248 -0.772601 0
M  V30 6155 C 563.411 2.94327 -1.7671 0
M  V30 6156 C 562.497 3.02777 -2.96962 0
M  V30 6157 N 562.888 2.81026 -4.20545 0
M  V30 6158 C 561.186 3.33919 -2.95659 0
M  V30 6159 C 561.887 2.94618 -5.01573 0
M  V30 6160 N 560.863 3.25112 -4.35664 0
M  V30 6161 H 564.665 1.37822 -2.59581 0
M  V30 6162 H 562.179 0.671227 -1.47879 0
M  V30 6163 H 564.176 3.73063 -1.86091 0
M  V30 6164 H 562.836 3.13476 -0.846353 0
M  V30 6165 H 563.847 2.56477 -4.49933 0
M  V30 6166 H 560.524 3.59013 -2.13111 0
M  V30 6167 H 561.914 2.81984 -6.09865 0
M  V30 6168 N 564.634 1.40294 0.718013 0
M  V30 6169 C 565.864 1.41544 1.50495 0
M  V30 6170 C 566.272 0.0127877 1.89196 0
M  V30 6171 O 565.615 -0.97305 1.55812 0
M  V30 6172 C 565.677 2.24021 2.81167 0
M  V30 6173 C 565.341 3.72463 2.64803 0
M  V30 6174 C 566.338 4.65154 2.32223 0
M  V30 6175 C 564.023 4.1625 2.81143 0
M  V30 6176 C 566.017 5.99618 2.16189 0
M  V30 6177 C 563.704 5.50784 2.64727 0
M  V30 6178 C 564.702 6.42283 2.32297 0
M  V30 6179 O 564.39 7.74337 2.16004 0
M  V30 6180 H 564.122 0.484819 0.471091 0
M  V30 6181 H 566.676 1.84948 0.893488 0
M  V30 6182 H 564.906 1.75393 3.44636 0
M  V30 6183 H 566.595 2.17243 3.42871 0
M  V30 6184 H 567.361 4.32622 2.19234 0
M  V30 6185 H 563.24 3.45352 3.05373 0
M  V30 6186 H 566.784 6.71 1.90799 0
M  V30 6187 H 562.681 5.82902 2.773 0
M  V30 6188 H 563.449 7.85244 2.30942 0
M  V30 6189 N 566.112 -0.949982 1.2575 0
M  V30 6190 C 567.34 -1.72972 1.13527 0
M  V30 6191 C 567.755 -1.8623 -0.310453 0
M  V30 6192 O 567.112 -1.36336 -1.2132 0
M  V30 6193 C 567.163 -3.14108 1.78936 0
M  V30 6194 O 566.884 -3.01493 3.17858 0
M  V30 6195 C 568.385 -4.08338 1.72554 0
M  V30 6196 H 565.605 -0.541864 0.395758 0
M  V30 6197 H 568.149 -1.19151 1.66202 0
M  V30 6198 H 566.304 -3.64858 1.30221 0
M  V30 6199 H 566.718 -3.90559 3.50092 0
M  V30 6200 H 568.192 -5.04963 2.22973 0
M  V30 6201 H 568.669 -4.33742 0.690251 0
M  V30 6202 H 569.275 -3.63506 2.2078 0
M  V30 6203 N 567.59 -1.07411 -1.15328 0
M  V30 6204 C 568.5 -0.706438 -2.23711 0
M  V30 6205 C 569.516 0.282586 -1.7169 0
M  V30 6206 O 570.692 0.129066 -2.00986 0
M  V30 6207 C 567.757 -0.11048 -3.46524 0
M  V30 6208 C 566.818 -1.15282 -4.13532 0
M  V30 6209 C 566.051 -0.585205 -5.30482 0
M  V30 6210 O 566.274 0.598549 -5.67251 0
M  V30 6211 O 565.208 -1.33039 -5.87013 0
M  V30 6212 H 569.034 -1.61031 -2.57493 0
M  V30 6213 H 566.619 -0.847113 -1.23062 0
M  V30 6214 H 568.501 0.21957 -4.20828 0
M  V30 6215 H 567.176 0.766703 -3.14489 0
M  V30 6216 H 566.083 -1.53523 -3.41147 0
M  V30 6217 H 567.416 -2.00192 -4.49649 0
M  V30 6218 N 569.068 1.32177 -0.85831 0
M  V30 6219 C 570.031 2.27086 -0.310588 0
M  V30 6220 C 571.031 1.51751 0.531806 0
M  V30 6221 O 572.221 1.70794 0.34279 0
M  V30 6222 C 569.353 3.36266 0.560179 0
M  V30 6223 H 570.546 2.77045 -1.1483 0
M  V30 6224 H 568.099 1.42911 -0.632942 0
M  V30 6225 H 568.834 2.9158 1.41956 0
M  V30 6226 H 568.619 3.92077 -0.0428473 0
M  V30 6227 H 570.109 4.06974 0.936056 0
M  V30 6228 N 570.547 0.616602 1.45037 0
M  V30 6229 C 571.796 0.112861 2.01384 0
M  V30 6230 C 572.109 -1.26758 1.48969 0
M  V30 6231 O 573.315 -1.86454 1.9735 0
M  V30 6232 C 571.771 0.151057 3.59583 0
M  V30 6233 C 571.379 1.53191 4.20995 0
M  V30 6234 C 573.123 -0.296974 4.2346 0
M  V30 6235 C 571.03 1.526 5.71373 0
M  V30 6236 H 569.96 0.0384254 0.75302 0
M  V30 6237 H 572.611 0.773262 1.66412 0
M  V30 6238 H 570.993 -0.57617 3.91786 0
M  V30 6239 H 572.167 2.28156 4.00352 0
M  V30 6240 H 570.482 1.92279 3.69348 0
M  V30 6241 H 573.079 -0.320712 5.33737 0
M  V30 6242 H 573.422 -1.32145 3.9477 0
M  V30 6243 H 573.955 0.377279 3.96007 0
M  V30 6244 H 570.694 2.52837 6.04776 0
M  V30 6245 H 570.214 0.819064 5.94181 0
M  V30 6246 H 571.893 1.25357 6.3474 0
M  V30 6247 N 572.025 -1.5352 0.356285 0
M  V30 6248 C 572.972 -2.25439 -0.494569 0
M  V30 6249 C 573.942 -1.25752 -1.08516 0
M  V30 6250 O 575.127 -1.54513 -1.1194 0
M  V30 6251 C 572.267 -3.04011 -1.63313 0
M  V30 6252 C 571.38 -4.18574 -1.06862 0
M  V30 6253 C 570.515 -4.84607 -2.17552 0
M  V30 6254 C 569.554 -5.91218 -1.58518 0
M  V30 6255 N 568.691 -6.50979 -2.63003 0
M  V30 6256 H 573.531 -2.97737 0.125244 0
M  V30 6257 H 571.068 -1.46916 0.0735789 0
M  V30 6258 H 573.026 -3.47834 -2.30363 0
M  V30 6259 H 571.656 -2.33986 -2.22374 0
M  V30 6260 H 570.708 -3.79303 -0.288672 0
M  V30 6261 H 572.02 -4.95215 -0.596924 0
M  V30 6262 H 571.174 -5.31566 -2.92442 0
M  V30 6263 H 569.913 -4.07418 -2.6807 0
M  V30 6264 H 568.918 -5.4363 -0.821391 0
M  V30 6265 H 570.143 -6.70322 -1.08836 0
M  V30 6266 H 568.089 -5.76648 -3.12751 0
M  V30 6267 H 568.006 -7.23131 -2.20493 0
M  V30 6268 H 569.274 -7.02589 -3.37623 0
M  V30 6269 N 573.503 -0.0852151 -1.57369 0
M  V30 6270 C 574.919 0.271436 -1.57275 0
M  V30 6271 C 575.119 1.69109 -1.09565 0
M  V30 6272 O 574.175 2.40549 -0.767611 0
M  V30 6273 C 575.488 0.0688638 -3.00621 0
M  V30 6274 C 577.036 0.137373 -3.12698 0
M  V30 6275 C 577.511 -0.0370832 -4.57985 0
M  V30 6276 N 579.002 0.0180794 -4.63196 0
M  V30 6277 C 579.737 -0.0922953 -5.73326 0
M  V30 6278 N 579.233 -0.256948 -6.92323 0
M  V30 6279 N 581.026 -0.0342702 -5.6209 0
M  V30 6280 H 573.177 -1.01288 -1.86693 0
M  V30 6281 H 575.44 -0.396138 -0.861266 0
M  V30 6282 H 575.146 -0.911277 -3.39689 0
M  V30 6283 H 575.02 0.815442 -3.6828 0
M  V30 6284 H 577.407 1.10801 -2.73509 0
M  V30 6285 H 577.488 -0.640532 -2.47651 0
M  V30 6286 H 577.132 -1.00455 -4.97867 0
M  V30 6287 H 577.062 0.760392 -5.21081 0
M  V30 6288 H 579.553 0.143202 -3.77629 0
M  V30 6289 H 579.866 -0.332949 -7.72082 0
M  V30 6290 H 578.211 -0.292487 -6.94384 0
M  V30 6291 H 581.402 0.0931605 -4.68007 0
M  V30 6292 H 581.575 -0.12374 -6.47882 0
M  V30 6293 N 574.981 1.5647 0.188427 0
M  V30 6294 C 575.929 1.95971 1.25293 0
M  V30 6295 C 576.923 0.846047 1.4676 0
M  V30 6296 O 578.129 1.03109 1.47542 0
M  V30 6297 H 574.504 0.623253 0.420784 0
M  V30 6298 H 576.475 2.84731 0.892792 0
M  V30 6299 C 575.224 2.32116 2.58877 0
M  V30 6300 H 574.547 3.17341 2.43176 0
M  V30 6301 H 575.987 2.63613 3.3209 0
M  V30 6302 C 574.446 1.15823 3.16365 0
M  V30 6303 O 574.976 0.436785 3.99318 0
M  V30 6304 N 573.182 0.933278 2.75206 0
M  V30 6305 H 572.729 1.52169 2.07852 0
M  V30 6306 H 572.687 0.156976 3.14008 0
M  V30 6307 N 576.459 -0.456382 1.50847 0
M  V30 6308 C 577.87 -1.03685 1.55262 0
M  V30 6309 C 578.221 -1.92779 0.364771 0
M  V30 6310 O 577.346 -2.10043 -0.52068 0
M  V30 6311 C 577.941 -1.88718 2.81374 0
M  V30 6312 C 576.5 -2.41847 2.88422 0
M  V30 6313 C 575.647 -1.20564 2.49719 0
M  V30 6314 H 578.598 -0.238399 1.56899 0
M  V30 6315 H 578.619 -2.73957 2.6406 0
M  V30 6316 H 578.131 -1.23847 3.67809 0
M  V30 6317 H 576.232 -3.10228 2.06372 0
M  V30 6318 H 576.345 -2.75947 3.9165 0
M  V30 6319 H 574.709 -1.54504 2.02486 0
M  V30 6320 H 575.492 -0.573326 3.38479 0
M  V30 6321 N 577.937 -1.40673 -0.710563 0
M  V30 6322 C 578.884 -1.41336 -1.82463 0
M  V30 6323 C 579.854 -0.269648 -1.63897 0
M  V30 6324 O 581.039 -0.468463 -1.8496 0
M  V30 6325 C 578.179 -1.28665 -3.20218 0
M  V30 6326 C 577.292 -2.52784 -3.5032 0
M  V30 6327 C 576.427 -2.32517 -4.77608 0
M  V30 6328 C 575.466 -3.52187 -5.0063 0
M  V30 6329 N 574.603 -3.31084 -6.19135 0
M  V30 6330 H 579.443 -2.36558 -1.8123 0
M  V30 6331 H 576.98 -1.17483 -0.885226 0
M  V30 6332 H 578.938 -1.19324 -3.99772 0
M  V30 6333 H 577.568 -0.370602 -3.20666 0
M  V30 6334 H 576.62 -2.72634 -2.65283 0
M  V30 6335 H 577.932 -3.41845 -3.63241 0
M  V30 6336 H 577.086 -2.20558 -5.65189 0
M  V30 6337 H 575.825 -1.40889 -4.66906 0
M  V30 6338 H 574.83 -3.64617 -4.11502 0
M  V30 6339 H 576.055 -4.44749 -5.13201 0
M  V30 6340 H 574.001 -2.42143 -6.09674 0
M  V30 6341 H 573.918 -4.13713 -6.32754 0
M  V30 6342 H 575.186 -3.22868 -7.0949 0
M  V30 6343 N 579.415 0.9433 -1.26252 0
M  V30 6344 C 580.692 1.66639 -1.02424 0
M  V30 6345 C 581.072 2.06335 0.446006 0
M  V30 6346 O 580.42 1.78551 1.42589 0
M  V30 6347 C 580.63 2.88019 -1.97094 0
M  V30 6348 C 581.978 3.59718 -2.25584 0
M  V30 6349 O 583.002 2.9812 -1.94943 0
M  V30 6350 O 581.861 4.7066 -2.77743 0
M  V30 6351 H 578.955 0.729643 -0.389294 0
M  V30 6352 H 581.501 0.995218 -1.37454 0
M  V30 6353 H 580.273 2.5556 -2.96319 0
M  V30 6354 H 579.896 3.62863 -1.62532 0
M  V30 6355 N 580.893 1.08022 1.14757 0
M  V30 6356 C 581.856 0.71048 2.1791 0
M  V30 6357 C 582.856 -0.252731 1.58801 0
M  V30 6358 O 584.046 -0.0327915 1.74169 0
M  V30 6359 C 581.178 0.0483203 3.40866 0
M  V30 6360 H 582.371 1.62384 2.52134 0
M  V30 6361 H 579.924 0.877595 1.29337 0
M  V30 6362 H 580.659 -0.876959 3.12218 0
M  V30 6363 H 580.444 0.741189 3.85031 0
M  V30 6364 H 581.934 -0.195471 4.17142 0
M  V30 6365 N 582.371 -1.3172 0.865308 0
M  V30 6366 C 583.318 -2.2863 0.315736 0
M  V30 6367 C 584.288 -1.55524 -0.583213 0
M  V30 6368 O 585.473 -1.83694 -0.51585 0
M  V30 6369 C 582.613 -3.41735 -0.480773 0
M  V30 6370 C 581.726 -4.297 0.445167 0
M  V30 6371 C 580.861 -5.29944 -0.365012 0
M  V30 6372 C 579.9 -6.09554 0.557651 0
M  V30 6373 N 579.037 -7.01768 -0.215994 0
M  V30 6374 H 583.877 -2.75026 1.14736 0
M  V30 6375 H 581.414 -1.35302 0.577209 0
M  V30 6376 H 583.372 -4.06045 -0.958306 0
M  V30 6377 H 582.002 -2.96461 -1.27714 0
M  V30 6378 H 581.054 -3.65875 1.04113 0
M  V30 6379 H 582.366 -4.85295 1.15284 0
M  V30 6380 H 581.52 -5.99908 -0.905255 0
M  V30 6381 H 580.259 -4.74994 -1.106 0
M  V30 6382 H 579.264 -5.38485 1.10969 0
M  V30 6383 H 580.489 -6.66591 1.29742 0
M  V30 6384 H 578.435 -6.49232 -0.939878 0
M  V30 6385 H 578.352 -7.54762 0.432431 0
M  V30 6386 H 579.62 -7.76002 -0.737618 0
M  V30 6387 N 583.85 -0.624285 -1.44708 0
M  V30 6388 C 584.779 0.0717025 -2.3339 0
M  V30 6389 C 585.76 0.841814 -1.47809 0
M  V30 6390 O 586.946 0.809056 -1.76544 0
M  V30 6391 C 584.076 1.05852 -3.30776 0
M  V30 6392 C 583.029 0.400503 -4.26122 0
M  V30 6393 C 582.356 1.49674 -5.13324 0
M  V30 6394 C 583.656 -0.688924 -5.17737 0
M  V30 6395 H 585.35 -0.668819 -2.91834 0
M  V30 6396 H 582.896 -0.32308 -1.40329 0
M  V30 6397 H 584.849 1.5541 -3.91696 0
M  V30 6398 H 583.572 1.82984 -2.70526 0
M  V30 6399 H 582.231 -0.0743687 -3.66525 0
M  V30 6400 H 581.88 2.25877 -4.49431 0
M  V30 6401 H 581.58 1.06188 -5.77926 0
M  V30 6402 H 583.104 1.99427 -5.77115 0
M  V30 6403 H 584.518 -0.276724 -5.72632 0
M  V30 6404 H 582.915 -1.04652 -5.90904 0
M  V30 6405 H 583.985 -1.55884 -4.5916 0
M  V30 6406 N 585.328 1.53329 -0.364422 0
M  V30 6407 C 586.558 2.05359 0.226096 0
M  V30 6408 C 586.966 1.23777 1.43094 0
M  V30 6409 O 586.309 0.271139 1.81688 0
M  V30 6410 C 586.371 3.52918 0.684794 0
M  V30 6411 C 586.035 4.55218 -0.403206 0
M  V30 6412 C 587.032 5.04583 -1.2527 0
M  V30 6413 C 584.717 4.99134 -0.563117 0
M  V30 6414 C 586.711 5.96463 -2.24745 0
M  V30 6415 C 584.398 5.9082 -1.56124 0
M  V30 6416 C 585.396 6.39375 -2.40184 0
M  V30 6417 O 585.084 7.29255 -3.38293 0
M  V30 6418 H 584.816 0.674588 0.0436772 0
M  V30 6419 H 587.37 1.98688 -0.520782 0
M  V30 6420 H 585.6 3.57122 1.48326 0
M  V30 6421 H 587.289 3.87812 1.19818 0
M  V30 6422 H 588.055 4.71403 -1.14034 0
M  V30 6423 H 583.934 4.60928 0.0813909 0
M  V30 6424 H 587.478 6.34285 -2.90393 0
M  V30 6425 H 583.375 6.23414 -1.67407 0
M  V30 6426 H 584.143 7.47249 -3.34009 0
M  V30 6427 N 586.806 0.0935595 1.57322 0
M  V30 6428 C 588.031 -0.582324 1.99057 0
M  V30 6429 C 588.456 -1.61025 0.972242 0
M  V30 6430 O 587.814 -1.81202 -0.0594622 0
M  V30 6431 C 587.862 -1.20799 3.39765 0
M  V30 6432 O 586.966 -2.32382 3.40694 0
M  V30 6433 H 586.307 -0.147884 0.647323 0
M  V30 6434 H 588.837 0.174516 2.03854 0
M  V30 6435 H 588.847 -1.54966 3.77425 0
M  V30 6436 H 587.522 -0.454914 4.13405 0
M  V30 6437 H 586.099 -1.99845 3.14827 0
M  V30 6438 N 588.284 -1.56567 -0.180126 0
M  V30 6439 C 589.232 -1.96632 -1.24251 0
M  V30 6440 C 590.226 -0.853818 -1.46309 0
M  V30 6441 O 591.432 -1.0389 -1.46993 0
M  V30 6442 H 587.807 -0.625476 -0.417473 0
M  V30 6443 H 589.778 -2.85201 -0.877679 0
M  V30 6444 C 588.527 -2.33486 -2.57642 0
M  V30 6445 H 587.85 -3.18626 -2.4149 0
M  V30 6446 H 589.29 -2.65371 -3.30688 0
M  V30 6447 C 587.749 -1.17499 -3.15746 0
M  V30 6448 O 588.279 -0.457956 -3.99081 0
M  V30 6449 N 586.485 -0.94786 -2.74707 0
M  V30 6450 H 586.032 -1.53269 -2.07042 0
M  V30 6451 H 585.99 -0.173626 -3.1392 0
M  V30 6452 N 589.762 0.448376 -1.51087 0
M  V30 6453 C 591.178 0.783984 -1.39017 0
M  V30 6454 C 591.378 1.96087 -0.463904 0
M  V30 6455 O 590.434 2.52357 0.0850534 0
M  V30 6456 C 591.747 1.07471 -2.80839 0
M  V30 6457 C 593.295 1.17981 -2.89913 0
M  V30 6458 C 593.77 1.50354 -4.32617 0
M  V30 6459 N 595.261 1.57301 -4.35673 0
M  V30 6460 C 595.996 1.839 -5.4311 0
M  V30 6461 N 595.492 2.08365 -6.60724 0
M  V30 6462 N 597.285 1.8559 -5.30578 0
M  V30 6463 H 589.436 -0.326881 -2.0987 0
M  V30 6464 H 591.699 -0.0838006 -0.944289 0
M  V30 6465 H 591.405 0.282768 -3.50561 0
M  V30 6466 H 591.279 2.00519 -3.19487 0
M  V30 6467 H 593.666 1.9624 -2.20395 0
M  V30 6468 H 593.747 0.228603 -2.54776 0
M  V30 6469 H 593.391 0.726273 -5.0268 0
M  V30 6470 H 593.321 2.46663 -4.65258 0
M  V30 6471 H 595.812 1.40342 -3.50874 0
M  V30 6472 H 596.125 2.27999 -7.38401 0
M  V30 6473 H 594.47 2.0571 -6.63859 0
M  V30 6474 H 597.661 1.65989 -4.37682 0
M  V30 6475 H 597.834 2.05983 -6.1439 0
M  V30 6476 N 591.24 1.41047 0.703093 0
M  V30 6477 C 592.203 1.42036 1.79884 0
M  V30 6478 C 593.203 0.312153 1.57741 0
M  V30 6479 O 594.393 0.571672 1.64553 0
M  V30 6480 C 591.525 1.22437 3.18154 0
M  V30 6481 H 592.718 2.39572 1.80403 0
M  V30 6482 H 590.271 1.27079 0.909977 0
M  V30 6483 H 591.006 0.257112 3.23279 0
M  V30 6484 H 590.791 2.02723 3.35627 0
M  V30 6485 H 592.281 1.25946 3.98155 0
M  V30 6486 N 592.718 -0.936591 1.26751 0
M  V30 6487 C 593.681 -2.01752 1.08761 0
M  V30 6488 C 594.681 -1.60763 0.0344435 0
M  V30 6489 O 595.871 -1.71963 0.278258 0
M  V30 6490 C 593.003 -3.34543 0.655271 0
M  V30 6491 H 594.196 -2.19143 2.04735 0
M  V30 6492 H 591.749 -1.11618 1.09413 0
M  V30 6493 H 592.484 -3.22851 -0.30626 0
M  V30 6494 H 592.269 -3.65647 1.41578 0
M  V30 6495 H 593.759 -4.13944 0.551378 0
M  V30 6496 N 594.196 -1.08629 -1.14182 0
M  V30 6497 C 595.436 -0.826884 -1.86928 0
M  V30 6498 C 595.8 0.635808 -1.81167 0
M  V30 6499 O 597.001 1.0108 -2.49071 0
M  V30 6500 C 595.272 -1.33721 -3.31442 0
M  V30 6501 S 596.831 -1.21045 -4.21774 0
M  V30 6502 H 593.649 -0.299286 -0.644941 0
M  V30 6503 H 596.251 -1.38802 -1.37674 0
M  V30 6504 H 594.955 -2.39617 -3.33184 0
M  V30 6505 H 594.486 -0.771839 -3.85754 0
M  V30 6506 H 596.501 -0.156168 -4.95954 0
M  V30 6507 N 595.674 1.31259 -0.872281 0
M  V30 6508 C 596.904 2.00504 -0.498183 0
M  V30 6509 C 597.312 1.65632 0.914479 0
M  V30 6510 O 596.655 0.882849 1.61095 0
M  V30 6511 C 596.717 3.5482 -0.578194 0
M  V30 6512 C 596.381 4.13172 -1.95289 0
M  V30 6513 C 597.378 4.30107 -2.92069 0
M  V30 6514 C 595.063 4.48846 -2.25483 0
M  V30 6515 C 597.057 4.81908 -4.17185 0
M  V30 6516 C 594.744 5.00349 -3.50847 0
M  V30 6517 C 595.742 5.16831 -4.46514 0
M  V30 6518 O 595.43 5.67228 -5.69656 0
M  V30 6519 H 595.162 0.648055 -0.192354 0
M  V30 6520 H 597.716 1.6841 -1.17589 0
M  V30 6521 H 595.946 3.86383 0.156438 0
M  V30 6522 H 597.635 4.05318 -0.217192 0
M  V30 6523 H 598.401 4.02862 -2.7005 0
M  V30 6524 H 594.28 4.35292 -1.51795 0
M  V30 6525 H 597.824 4.94688 -4.91863 0
M  V30 6526 H 593.721 5.27028 -3.72708 0
M  V30 6527 H 594.489 5.85592 -5.7186 0
M  V30 6528 N 597.152 0.631951 1.44375 0
M  V30 6529 C 598.38 0.143867 2.06399 0
M  V30 6530 C 598.795 -1.18188 1.47231 0
M  V30 6531 O 598.152 -1.72511 0.595498 0
M  V30 6532 C 598.203 0.0238253 3.61492 0
M  V30 6533 O 597.924 1.29715 4.18456 0
M  V30 6534 C 599.425 -0.492856 4.40552 0
M  V30 6535 H 596.645 0.0800542 0.666207 0
M  V30 6536 H 599.189 0.866586 1.85231 0
M  V30 6537 H 597.344 -0.649338 3.81919 0
M  V30 6538 H 597.758 1.14252 5.11905 0
M  V30 6539 H 599.232 -0.525861 5.49489 0
M  V30 6540 H 599.709 -1.52006 4.12057 0
M  V30 6541 H 600.315 0.147085 4.25046 0
M  V30 6542 N 598.631 -1.53133 0.372548 0
M  V30 6543 C 599.578 -2.25951 -0.470631 0
M  V30 6544 C 600.548 -1.26895 -1.07176 0
M  V30 6545 O 601.733 -1.55691 -1.10294 0
M  V30 6546 C 598.873 -3.05726 -1.6008 0
M  V30 6547 C 597.986 -4.19684 -1.02416 0
M  V30 6548 C 597.121 -4.86888 -2.124 0
M  V30 6549 C 596.16 -5.92866 -1.52238 0
M  V30 6550 N 595.297 -6.53732 -2.56084 0
M  V30 6551 H 600.137 -2.97587 0.156816 0
M  V30 6552 H 597.674 -1.4683 0.0891571 0
M  V30 6553 H 599.632 -3.50258 -2.26661 0
M  V30 6554 H 598.262 -2.36331 -2.1988 0
M  V30 6555 H 597.314 -3.79588 -0.248426 0
M  V30 6556 H 598.626 -4.95821 -0.544366 0
M  V30 6557 H 597.78 -5.34638 -2.86787 0
M  V30 6558 H 596.519 -4.10239 -2.63734 0
M  V30 6559 H 595.524 -5.4447 -0.763685 0
M  V30 6560 H 596.749 -6.71439 -1.0172 0
M  V30 6561 H 594.695 -5.79932 -3.06618 0
M  V30 6562 H 594.612 -7.25429 -2.12811 0
M  V30 6563 H 595.88 -7.0613 -3.30152 0
M  V30 6564 N 600.109 -0.101901 -1.5727 0
M  V30 6565 C 601.039 0.851544 -2.17419 0
M  V30 6566 C 602.02 1.28942 -1.10941 0
M  V30 6567 O 603.205 1.35509 -1.39107 0
M  V30 6568 C 600.335 2.10816 -2.75996 0
M  V30 6569 C 599.289 1.80867 -3.87906 0
M  V30 6570 C 598.615 3.13413 -4.33216 0
M  V30 6571 C 599.915 1.0903 -5.10793 0
M  V30 6572 H 601.609 0.350381 -2.97343 0
M  V30 6573 H 599.155 0.16709 -1.43027 0
M  V30 6574 H 601.108 2.77959 -3.16729 0
M  V30 6575 H 599.832 2.63227 -1.93337 0
M  V30 6576 H 598.491 1.16119 -3.47724 0
M  V30 6577 H 598.139 3.63725 -3.47438 0
M  V30 6578 H 597.839 2.94155 -5.08671 0
M  V30 6579 H 599.363 3.81704 -4.76586 0
M  V30 6580 H 600.777 1.66295 -5.48652 0
M  V30 6581 H 599.174 0.99927 -5.91722 0
M  V30 6582 H 600.244 0.0741704 -4.84843 0
M  V30 6583 N 601.587 1.56661 0.17182 0
M  V30 6584 C 602.517 1.99401 1.21498 0
M  V30 6585 C 603.498 0.869516 1.46197 0
M  V30 6586 O 604.683 1.13556 1.57539 0
M  V30 6587 C 601.813 2.35346 2.55401 0
M  V30 6588 C 600.767 3.5075 2.45272 0
M  V30 6589 C 600.093 3.72437 3.8366 0
M  V30 6590 C 601.393 4.84216 1.95787 0
M  V30 6591 H 603.087 2.86792 0.859699 0
M  V30 6592 H 600.633 1.37977 0.412103 0
M  V30 6593 H 602.586 2.63843 3.2858 0
M  V30 6594 H 601.31 1.44864 2.92715 0
M  V30 6595 H 599.969 3.2238 1.74547 0
M  V30 6596 H 599.617 2.79246 4.18367 0
M  V30 6597 H 599.317 4.50087 3.77751 0
M  V30 6598 H 600.841 4.03334 4.58426 0
M  V30 6599 H 602.255 5.11592 2.5874 0
M  V30 6600 H 600.652 5.65498 2.00827 0
M  V30 6601 H 601.722 4.76243 0.912159 0
M  V30 6602 N 603.065 -0.440357 1.51323 0
M  V30 6603 C 603.975 -1.55955 1.75258 0
M  V30 6604 C 604.991 -1.61933 0.636687 0
M  V30 6605 O 606.167 -1.79231 0.918593 0
M  V30 6606 C 603.232 -2.9196 1.86977 0
M  V30 6607 C 602.293 -2.96122 3.10822 0
M  V30 6608 C 601.526 -4.2564 3.21973 0
M  V30 6609 O 601.749 -5.17851 2.39137 0
M  V30 6610 O 600.683 -4.36025 4.14929 0
M  V30 6611 H 604.509 -1.38673 2.70191 0
M  V30 6612 H 602.094 -0.623055 1.35788 0
M  V30 6613 H 603.976 -3.72682 1.96688 0
M  V30 6614 H 602.651 -3.09375 0.952307 0
M  V30 6615 H 601.558 -2.14366 3.06591 0
M  V30 6616 H 602.891 -2.83651 4.02247 0
M  V30 6617 N 604.543 -1.41418 -0.695603 0
M  V30 6618 C 605.79 -1.40774 -1.45564 0
M  V30 6619 C 606.118 -0.0168604 -1.94493 0
M  V30 6620 O 605.373 0.971259 -1.69897 0
M  V30 6621 C 605.672 -2.36112 -2.68302 0
M  V30 6622 C 605.338 -3.82952 -2.38031 0
M  V30 6623 C 604 -4.22954 -2.29486 0
M  V30 6624 C 606.352 -4.75662 -2.13061 0
M  V30 6625 C 603.68 -5.53674 -1.94067 0
M  V30 6626 C 606.032 -6.06702 -1.79151 0
M  V30 6627 C 604.696 -6.45725 -1.69102 0
M  V30 6628 H 603.966 -0.515128 -0.532658 0
M  V30 6629 H 606.613 -1.74216 -0.795047 0
M  V30 6630 H 604.918 -1.95924 -3.39295 0
M  V30 6631 H 606.615 -2.32887 -3.26442 0
M  V30 6632 H 603.205 -3.5127 -2.45576 0
M  V30 6633 H 607.389 -4.45561 -2.18608 0
M  V30 6634 H 602.645 -5.8279 -1.8484 0
M  V30 6635 H 606.819 -6.78041 -1.5885 0
M  V30 6636 H 604.446 -7.46929 -1.41426 0
M  V30 6637 N 606.021 0.929856 -1.27246 0
M  V30 6638 C 606.953 2.03434 -1.0558 0
M  V30 6639 C 607.966 1.62795 -0.0125762 0
M  V30 6640 O 609.155 1.76685 -0.2539 0
M  V30 6641 C 606.255 3.33915 -0.57912 0
M  V30 6642 C 605.428 4.03259 -1.69415 0
M  V30 6643 C 604.487 5.12014 -1.21357 0
M  V30 6644 O 603.513 5.36097 -1.91282 0
M  V30 6645 N 604.715 5.8046 -0.0680622 0
M  V30 6646 H 607.48 2.22583 -2.00691 0
M  V30 6647 H 605.041 1.1001 -1.18783 0
M  V30 6648 H 607.033 4.03978 -0.241563 0
M  V30 6649 H 605.603 3.11355 0.278703 0
M  V30 6650 H 604.823 3.26958 -2.20209 0
M  V30 6651 H 606.111 4.46337 -2.44255 0
M  V30 6652 H 605.509 5.63345 0.515626 0
M  V30 6653 H 604.066 6.51461 0.210332 0
M  V30 6654 N 607.499 1.09233 1.13605 0
M  V30 6655 C 608.429 0.751738 2.21068 0
M  V30 6656 C 609.41 -0.269688 1.67948 0
M  V30 6657 O 610.595 -0.13819 1.93708 0
M  V30 6658 C 607.725 0.16935 3.46887 0
M  V30 6659 C 606.679 1.12007 4.13084 0
M  V30 6660 C 606.005 0.399483 5.33206 0
M  V30 6661 C 607.305 2.46168 4.6065 0
M  V30 6662 H 608.999 1.65024 2.49815 0
M  V30 6663 H 606.545 0.794905 1.20072 0
M  V30 6664 H 608.498 -0.0809824 4.21322 0
M  V30 6665 H 607.222 -0.764335 3.1753 0
M  V30 6666 H 605.881 1.35564 3.40614 0
M  V30 6667 H 605.529 -0.538277 5.00112 0
M  V30 6668 H 605.229 1.03337 5.78442 0
M  V30 6669 H 606.753 0.157403 6.10397 0
M  V30 6670 H 608.167 2.26829 5.26518 0
M  V30 6671 H 606.564 3.05326 5.1662 0
M  V30 6672 H 607.634 3.07076 3.75276 0
M  V30 6673 N 608.977 -1.30795 0.87923 0
M  V30 6674 C 609.94 -2.26563 0.346676 0
M  V30 6675 C 610.94 -1.52578 -0.507597 0
M  V30 6676 O 612.13 -1.71318 -0.315575 0
M  V30 6677 C 609.262 -3.37115 -0.506611 0
M  V30 6678 H 610.455 -2.75183 1.19223 0
M  V30 6679 H 608.008 -1.41886 0.655598 0
M  V30 6680 H 608.743 -2.93802 -1.37299 0
M  V30 6681 H 608.528 -3.91959 0.105218 0
M  V30 6682 H 610.018 -4.08412 -0.871192 0
M  V30 6683 N 610.455 -0.639598 -1.44038 0
M  V30 6684 C 611.385 0.0469443 -2.33453 0
M  V30 6685 C 612.366 0.82609 -1.48694 0
M  V30 6686 O 613.551 0.790285 -1.77393 0
M  V30 6687 C 610.681 1.02338 -3.3188 0
M  V30 6688 C 609.635 0.355284 -4.26523 0
M  V30 6689 C 608.961 1.44221 -5.14883 0
M  V30 6690 C 610.261 -0.743798 -5.16977 0
M  V30 6691 H 611.955 -0.699735 -2.91108 0
M  V30 6692 H 609.501 -0.337946 -1.39978 0
M  V30 6693 H 611.454 1.51247 -3.93322 0
M  V30 6694 H 610.178 1.80105 -2.72451 0
M  V30 6695 H 608.837 -0.113239 -3.66425 0
M  V30 6696 H 608.485 2.21097 -4.51802 0
M  V30 6697 H 608.185 1.00052 -5.79019 0
M  V30 6698 H 609.709 1.93295 -5.79197 0
M  V30 6699 H 611.123 -0.337444 -5.72306 0
M  V30 6700 H 609.52 -1.10914 -5.89761 0
M  V30 6701 H 610.59 -1.60745 -4.57481 0
M  V30 6702 N 611.933 1.52934 -0.380664 0
M  V30 6703 C 612.88 2.26197 0.458641 0
M  V30 6704 C 613.85 1.27462 1.06502 0
M  V30 6705 O 615.035 1.56274 1.09467 0
M  V30 6706 C 612.175 3.06571 1.58456 0
M  V30 6707 C 611.288 4.20222 1.00189 0
M  V30 6708 C 610.423 4.88007 2.09815 0
M  V30 6709 C 609.462 5.93665 1.49092 0
M  V30 6710 N 608.599 6.55081 2.52613 0
M  V30 6711 H 613.439 2.975 -0.172595 0
M  V30 6712 H 610.976 1.4678 -0.0969426 0
M  V30 6713 H 612.934 3.51455 2.24801 0
M  V30 6714 H 611.564 2.37494 2.18624 0
M  V30 6715 H 610.616 3.79714 0.228292 0
M  V30 6716 H 611.928 4.96102 0.518064 0
M  V30 6717 H 611.082 5.36151 2.83948 0
M  V30 6718 H 609.821 4.11632 2.61555 0
M  V30 6719 H 608.826 5.44868 0.7348 0
M  V30 6720 H 610.051 6.71969 0.981582 0
M  V30 6721 H 607.997 5.8155 3.03538 0
M  V30 6722 H 607.914 7.26548 2.08961 0
M  V30 6723 H 609.182 7.07871 3.26402 0
M  V30 6724 N 613.412 0.11024 1.57214 0
M  V30 6725 C 614.689 -0.592956 1.86396 0
M  V30 6726 C 615.069 -1.85379 1.00985 0
M  V30 6727 O 614.417 -2.28337 0.0863592 0
M  V30 6728 C 614.627 -0.893816 3.3736 0
M  V30 6729 C 615.975 -1.25069 4.05762 0
M  V30 6730 O 616.999 -0.984356 3.42329 0
M  V30 6731 O 615.858 -1.75017 5.17718 0
M  V30 6732 H 612.952 -0.29828 0.771335 0
M  V30 6733 H 615.498 0.144083 1.69087 0
M  V30 6734 H 614.27 2.6031e-05 3.913 0
M  V30 6735 H 613.893 -1.68631 3.60068 0
M  V30 6736 N 614.89 -1.56749 -0.16351 0
M  V30 6737 C 616.13 -1.84234 -0.885271 0
M  V30 6738 C 616.494 -0.692259 -1.79086 0
M  V30 6739 O 617.695 -0.847747 -2.55082 0
M  V30 6740 C 615.966 -3.16857 -1.65337 0
M  V30 6741 S 617.525 -3.65848 -2.42282 0
M  V30 6742 H 614.343 -0.646293 -0.296354 0
M  V30 6743 H 616.945 -1.94951 -0.146365 0
M  V30 6744 H 615.649 -3.98546 -0.979266 0
M  V30 6745 H 615.18 -3.09102 -2.4335 0
M  V30 6746 H 617.195 -3.33796 -3.67143 0
M  V30 6747 N 616.368 0.432326 -1.51554 0
M  V30 6748 C 617.278 1.55023 -1.76082 0
M  V30 6749 C 618.294 1.61593 -0.645265 0
M  V30 6750 O 619.47 1.78742 -0.928086 0
M  V30 6751 C 616.535 2.90964 -1.88523 0
M  V30 6752 C 615.596 2.9447 -3.12388 0
M  V30 6753 C 614.829 4.23926 -3.24225 0
M  V30 6754 O 615.052 5.16576 -2.4188 0
M  V30 6755 O 613.986 4.33818 -4.17235 0
M  V30 6756 H 617.812 1.37238 -2.70923 0
M  V30 6757 H 615.397 0.615845 -1.36117 0
M  V30 6758 H 617.279 3.71633 -1.98662 0
M  V30 6759 H 615.954 3.08865 -0.9687 0
M  V30 6760 H 614.861 2.12737 -3.07723 0
M  V30 6761 H 616.194 2.81514 -4.03746 0
M  V30 6762 N 617.846 1.41785 0.688094 0
M  V30 6763 C 618.756 1.46596 1.83158 0
M  V30 6764 C 619.772 0.355862 1.70322 0
M  V30 6765 O 620.948 0.604737 1.92106 0
M  V30 6766 C 618.013 1.35322 3.192 0
M  V30 6767 C 617.074 2.56711 3.4409 0
M  V30 6768 C 616.307 2.45965 4.73642 0
M  V30 6769 O 616.53 1.48827 5.50642 0
M  V30 6770 O 615.464 3.35859 4.99482 0
M  V30 6771 H 619.29 2.43083 1.82056 0
M  V30 6772 H 616.875 1.23404 0.842126 0
M  V30 6773 H 618.757 1.31347 4.00407 0
M  V30 6774 H 617.432 0.419536 3.2097 0
M  V30 6775 H 616.339 2.66262 2.62784 0
M  V30 6776 H 617.672 3.48933 3.47141 0
M  V30 6777 N 619.324 -0.923095 1.27737 0
M  V30 6778 C 620.564 -1.6858 1.15586 0
M  V30 6779 C 620.928 -1.89758 -0.292562 0
M  V30 6780 O 622.129 -2.6339 -0.536583 0
M  V30 6781 C 620.4 -3.01275 1.92271 0
M  V30 6782 S 621.959 -3.924 1.96387 0
M  V30 6783 H 618.777 -0.579069 0.412554 0
M  V30 6784 H 621.379 -1.09866 1.61709 0
M  V30 6785 H 620.083 -2.83556 2.96689 0
M  V30 6786 H 619.614 -3.6504 1.46661 0
M  V30 6787 H 621.629 -4.84667 1.06361 0
M  V30 6788 N 620.802 -1.09834 -1.13024 0
M  V30 6789 C 622.051 -0.831806 -1.83749 0
M  V30 6790 C 622.364 0.644763 -1.84668 0
M  V30 6791 O 623.57 1.02697 -2.51327 0
M  V30 6792 C 622.026 -1.43817 -3.29916 0
M  V30 6793 C 621.634 -2.94759 -3.37374 0
M  V30 6794 C 623.378 -1.25077 -4.05655 0
M  V30 6795 C 621.285 -3.48461 -4.77838 0
M  V30 6796 H 620.215 -0.30751 -0.688443 0
M  V30 6797 H 622.866 -1.32156 -1.27307 0
M  V30 6798 H 621.248 -0.876106 -3.86187 0
M  V30 6799 H 622.422 -3.57228 -2.91076 0
M  V30 6800 H 620.737 -3.12581 -2.75103 0
M  V30 6801 H 623.334 -1.62649 -5.09362 0
M  V30 6802 H 623.677 -0.191782 -4.15858 0
M  V30 6803 H 624.21 -1.78057 -3.55725 0
M  V30 6804 H 620.949 -4.53998 -4.72828 0
M  V30 6805 H 620.469 -2.90757 -5.24615 0
M  V30 6806 H 622.148 -3.45914 -5.46766 0
M  V30 6807 N 622.28 1.30327 -0.886154 0
M  V30 6808 C 623.212 2.27079 -0.311072 0
M  V30 6809 C 624.225 1.53758 0.53502 0
M  V30 6810 O 625.414 1.74947 0.354378 0
M  V30 6811 C 622.514 3.33965 0.576228 0
M  V30 6812 C 621.687 4.36735 -0.241064 0
M  V30 6813 C 620.746 5.23028 0.576916 0
M  V30 6814 O 619.772 5.692 -0.000802231 0
M  V30 6815 N 620.974 5.49016 1.88579 0
M  V30 6816 H 623.739 2.77065 -1.14259 0
M  V30 6817 H 621.3 1.43519 -0.749258 0
M  V30 6818 H 623.292 3.88618 1.12953 0
M  V30 6819 H 621.862 2.839 1.30842 0
M  V30 6820 H 621.082 3.81932 -0.975805 0
M  V30 6821 H 622.37 5.02451 -0.801272 0
M  V30 6822 H 621.768 5.13288 2.37806 0
M  V30 6823 H 620.325 6.06539 2.38651 0
M  V30 6824 N 623.758 0.647228 1.43697 0
M  V30 6825 C 624.688 -0.0345631 2.33474 0
M  V30 6826 C 625.669 -0.818193 1.4913 0
M  V30 6827 O 626.854 -0.780867 1.77809 0
M  V30 6828 C 623.984 -1.00576 3.32418 0
M  V30 6829 C 622.938 -0.33266 4.26705 0
M  V30 6830 C 622.264 -1.41489 5.1564 0
M  V30 6831 C 623.564 0.771204 5.16575 0
M  V30 6832 H 625.258 0.715163 2.90733 0
M  V30 6833 H 622.804 0.345364 1.39797 0
M  V30 6834 H 624.757 -1.49159 3.94119 0
M  V30 6835 H 623.481 -1.78657 2.73403 0
M  V30 6836 H 622.14 0.13267 3.6636 0
M  V30 6837 H 621.788 -2.18698 4.52968 0
M  V30 6838 H 621.488 -0.969799 5.79542 0
M  V30 6839 H 623.012 -1.9022 5.80214 0
M  V30 6840 H 624.426 0.36779 5.72119 0
M  V30 6841 H 622.823 1.1404 5.89165 0
M  V30 6842 H 623.893 1.63169 4.56622 0
M  V30 6843 N 625.236 -1.5273 0.388769 0
M  V30 6844 C 626.146 -2.30165 -0.453993 0
M  V30 6845 C 627.162 -1.37058 -1.07197 0
M  V30 6846 O 628.338 -1.70127 -1.0779 0
M  V30 6847 C 625.403 -3.09303 -1.56628 0
M  V30 6848 C 624.464 -4.18117 -0.973467 0
M  V30 6849 C 623.697 -4.93472 -2.03275 0
M  V30 6850 O 623.92 -4.68913 -3.24772 0
M  V30 6851 O 622.854 -5.78833 -1.65034 0
M  V30 6852 H 626.68 -3.03185 0.176816 0
M  V30 6853 H 624.265 -1.4862 0.152501 0
M  V30 6854 H 626.147 -3.58648 -2.21246 0
M  V30 6855 H 624.822 -2.39098 -2.18206 0
M  V30 6856 H 623.729 -3.7297 -0.290556 0
M  V30 6857 H 625.062 -4.90556 -0.401908 0
M  V30 6858 N 626.714 -0.118576 -1.57153 0
M  V30 6859 C 628.125 0.40687 -1.82213 0
M  V30 6860 C 628.476 1.66636 -1.03571 0
M  V30 6861 O 627.601 2.14682 -0.272171 0
M  V30 6862 C 628.196 0.744949 -3.30509 0
M  V30 6863 C 626.755 1.21503 -3.5625 0
M  V30 6864 C 625.902 0.223511 -2.76398 0
M  V30 6865 H 628.853 -0.343712 -1.54933 0
M  V30 6866 H 628.874 1.6024 -3.45114 0
M  V30 6867 H 628.386 -0.171911 -3.87719 0
M  V30 6868 H 626.487 2.1488 -3.04396 0
M  V30 6869 H 626.6 1.16065 -4.64829 0
M  V30 6870 H 624.964 0.71046 -2.44591 0
M  V30 6871 H 625.747 -0.686439 -3.36367 0
M  V30 6872 N 628.193 1.56834 0.155195 0
M  V30 6873 C 629.421 1.87049 0.884326 0
M  V30 6874 C 629.836 0.705839 1.7511 0
M  V30 6875 O 629.193 -0.324641 1.79589 0
M  V30 6876 C 629.244 3.1644 1.74781 0
M  V30 6877 O 628.965 4.28417 0.915978 0
M  V30 6878 C 630.466 3.60113 2.58522 0
M  V30 6879 H 627.686 0.620196 0.25612 0
M  V30 6880 H 630.23 2.03946 0.150445 0
M  V30 6881 H 628.385 3.01321 2.43484 0
M  V30 6882 H 628.799 5.02353 1.50803 0
M  V30 6883 H 630.273 4.53508 3.14698 0
M  V30 6884 H 630.75 2.85005 3.34169 0
M  V30 6885 H 631.356 3.77898 1.95124 0
M  V30 6886 N 629.671 -0.424282 1.51781 0
M  V30 6887 C 630.918 -1.1726 1.65095 0
M  V30 6888 C 631.246 -1.90881 0.373477 0
M  V30 6889 O 630.501 -1.84835 -0.642997 0
M  V30 6890 C 630.8 -2.20418 2.81337 0
M  V30 6891 C 630.466 -1.63715 4.20129 0
M  V30 6892 C 629.128 -1.47975 4.57883 0
M  V30 6893 C 631.48 -1.22157 5.06682 0
M  V30 6894 C 628.808 -0.891703 5.79884 0
M  V30 6895 C 631.16 -0.647767 6.29275 0
M  V30 6896 C 629.824 -0.477371 6.65791 0
M  V30 6897 H 629.094 -0.429085 0.604125 0
M  V30 6898 H 631.741 -0.461852 1.85847 0
M  V30 6899 H 630.046 -2.97581 2.54859 0
M  V30 6900 H 631.743 -2.78163 2.88836 0
M  V30 6901 H 628.333 -1.76946 3.90369 0
M  V30 6902 H 632.517 -1.33133 4.7811 0
M  V30 6903 H 627.773 -0.747563 6.06813 0
M  V30 6904 H 631.947 -0.317291 6.95677 0
M  V30 6905 H 629.574 -0.0195936 7.60197 0
M  V30 6906 N 631.149 -1.42148 -0.680565 0
M  V30 6907 C 632.398 -1.41604 -1.43636 0
M  V30 6908 C 632.711 -0.0337887 -1.95571 0
M  V30 6909 O 633.917 0.0942588 -2.71336 0
M  V30 6910 C 632.373 -2.49056 -2.59806 0
M  V30 6911 C 631.981 -3.9326 -2.14594 0
M  V30 6912 C 633.725 -2.5767 -3.37352 0
M  V30 6913 C 631.632 -4.92232 -3.27813 0
M  V30 6914 H 630.562 -0.526656 -0.539583 0
M  V30 6915 H 633.213 -1.68033 -0.737369 0
M  V30 6916 H 631.595 -2.15782 -3.32045 0
M  V30 6917 H 632.769 -4.35858 -1.49546 0
M  V30 6918 H 631.084 -3.88443 -1.50002 0
M  V30 6919 H 633.681 -3.28794 -4.21662 0
M  V30 6920 H 634.024 -1.61837 -3.83555 0
M  V30 6921 H 634.557 -2.90109 -2.72179 0
M  V30 6922 H 631.296 -5.89522 -2.86607 0
M  V30 6923 H 630.816 -4.5427 -3.91661 0
M  V30 6924 H 632.495 -5.13684 -3.93367 0
M  V30 6925 N 632.627 0.916307 -1.28225 0
M  V30 6926 C 633.574 2.01841 -1.11932 0
M  V30 6927 C 634.544 1.66091 -0.0171604 0
M  V30 6928 O 635.729 1.89934 -0.181617 0
M  V30 6929 C 632.869 3.36065 -0.784504 0
M  V30 6930 C 631.982 3.847 -1.96544 0
M  V30 6931 C 631.117 5.07423 -1.57149 0
M  V30 6932 C 630.156 5.48384 -2.71922 0
M  V30 6933 N 629.293 6.62298 -2.33037 0
M  V30 6934 H 634.133 2.1511 -2.06232 0
M  V30 6935 H 631.67 1.05366 -1.02647 0
M  V30 6936 H 633.628 4.13272 -0.571148 0
M  V30 6937 H 632.258 3.22571 0.121565 0
M  V30 6938 H 631.31 3.03673 -2.291 0
M  V30 6939 H 632.622 4.1102 -2.82603 0
M  V30 6940 H 631.776 5.92165 -1.32004 0
M  V30 6941 H 630.515 4.82906 -0.682153 0
M  V30 6942 H 629.52 4.62184 -2.97768 0
M  V30 6943 H 630.745 5.7489 -3.61494 0
M  V30 6944 H 628.691 6.39416 -1.4657 0
M  V30 6945 H 628.608 6.8833 -3.12631 0
M  V30 6946 H 629.876 7.50352 -2.11169 0
M  V30 6947 N 634.105 1.10431 1.1244 0
M  V30 6948 C 635.353 0.845045 1.83585 0
M  V30 6949 C 635.674 -0.631168 1.84503 0
M  V30 6950 O 634.944 -1.45825 1.30813 0
M  V30 6951 H 633.524 0.309628 0.679809 0
M  V30 6952 H 636.186 1.39458 1.36153 0
M  V30 6953 H 635.282 1.20786 2.8778 0
M  V30 6954 N 635.583 -1.29855 0.893053 0
M  V30 6955 C 636.813 -1.99686 0.530019 0
M  V30 6956 C 637.221 -1.67066 -0.888012 0
M  V30 6957 O 636.564 -0.908366 -1.5967 0
M  V30 6958 C 636.626 -3.53855 0.63457 0
M  V30 6959 C 636.29 -4.10013 2.01837 0
M  V30 6960 C 637.287 -4.25406 2.98874 0
M  V30 6961 C 634.972 -4.45202 2.32595 0
M  V30 6962 C 636.966 -4.7521 4.24799 0
M  V30 6963 C 634.653 -4.94704 3.58763 0
M  V30 6964 C 635.651 -5.09662 4.5468 0
M  V30 6965 O 635.339 -5.58093 5.78608 0
M  V30 6966 H 635.071 -0.644913 0.20264 0
M  V30 6967 H 637.625 -1.66518 1.20253 0
M  V30 6968 H 635.855 -3.86583 -0.0949477 0
M  V30 6969 H 637.544 -4.04922 0.281648 0
M  V30 6970 H 638.31 -3.98515 2.76425 0
M  V30 6971 H 634.189 -4.32822 1.58701 0
M  V30 6972 H 637.733 -4.86801 4.99671 0
M  V30 6973 H 633.63 -5.21032 3.81046 0
M  V30 6974 H 634.398 -5.7642 5.81104 0
M  V30 6975 N 637.061 -0.65484 -1.43351 0
M  V30 6976 C 638.289 -0.176685 -2.06144 0
M  V30 6977 C 638.704 1.15831 -1.49093 0
M  V30 6978 O 638.061 1.71542 -0.622868 0
M  V30 6979 C 638.112 -0.0813326 -3.61408 0
M  V30 6980 O 637.833 -1.36355 -4.1634 0
M  V30 6981 C 639.334 0.422706 -4.4128 0
M  V30 6982 H 636.554 -0.0906429 -0.66485 0
M  V30 6983 H 639.098 -0.895945 -1.83829 0
M  V30 6984 H 637.253 0.588496 -3.82904 0
M  V30 6985 H 637.667 -1.22381 -5.10023 0
M  V30 6986 H 639.141 0.438375 -5.50257 0
M  V30 6987 H 639.618 1.45432 -4.14423 0
M  V30 6988 H 640.224 -0.214687 -4.24758 0
M  V30 6989 N 638.539 1.52521 -0.396863 0
M  V30 6990 C 639.955 1.5953 -0.0471659 0
M  V30 6991 C 640.155 1.41044 1.43906 0
M  V30 6992 O 639.211 1.23122 2.20448 0
M  V30 6993 C 640.524 2.95972 -0.531113 0
M  V30 6994 C 642.072 3.09172 -0.488024 0
M  V30 6995 C 642.547 4.48075 -0.948281 0
M  V30 6996 N 644.038 4.54281 -0.9046 0
M  V30 6997 C 644.773 5.60007 -1.23205 0
M  V30 6998 N 644.269 6.73343 -1.63036 0
M  V30 6999 N 646.062 5.50151 -1.15282 0
M  V30 7000 H 638.213 1.62786 -1.36435 0
M  V30 7001 H 640.476 0.76514 -0.559701 0
M  V30 7002 H 640.182 3.14741 -1.56942 0
M  V30 7003 H 640.056 3.77143 0.0657922 0
M  V30 7004 H 642.443 2.90095 0.541211 0
M  V30 7005 H 642.524 2.29937 -1.12083 0
M  V30 7006 H 642.168 4.67894 -1.97578 0
M  V30 7007 H 642.098 5.25788 -0.292412 0
M  V30 7008 H 644.589 3.72918 -0.6116 0
M  V30 7009 H 644.902 7.49992 -1.86365 0
M  V30 7010 H 643.247 6.74655 -1.66929 0
M  V30 7011 H 646.438 4.6049 -0.840602 0
M  V30 7012 H 646.611 6.32444 -1.41133 0
M  V30 7013 N 640.017 0.126909 1.57088 0
M  V30 7014 C 640.964 -0.82036 2.15728 0
M  V30 7015 C 641.934 -1.25811 1.08447 0
M  V30 7016 O 643.119 -1.33422 1.36393 0
M  V30 7017 C 640.259 -2.06199 2.76724 0
M  V30 7018 C 639.372 -1.67188 3.98337 0
M  V30 7019 C 638.507 -2.86378 4.47393 0
M  V30 7020 C 637.546 -2.43644 5.61519 0
M  V30 7021 N 636.683 -3.55775 6.05284 0
M  V30 7022 H 641.523 -0.313472 2.96347 0
M  V30 7023 H 639.06 -0.14303 1.46403 0
M  V30 7024 H 641.018 -2.78959 3.10222 0
M  V30 7025 H 639.648 -2.54333 1.98782 0
M  V30 7026 H 638.7 -0.842714 3.70948 0
M  V30 7027 H 640.012 -1.31789 4.81075 0
M  V30 7028 H 639.166 -3.67353 4.82842 0
M  V30 7029 H 637.905 -3.25009 3.63621 0
M  V30 7030 H 636.91 -1.61104 5.25667 0
M  V30 7031 H 638.135 -2.06122 6.47063 0
M  V30 7032 H 636.081 -3.94065 5.24451 0
M  V30 7033 H 635.998 -3.24325 6.82898 0
M  V30 7034 H 637.266 -4.37166 6.45373 0
M  V30 7035 N 641.495 -1.56914 -0.146875 0
M  V30 7036 C 642.458 -1.97368 -1.16526 0
M  V30 7037 C 643.458 -0.860223 -1.35856 0
M  V30 7038 O 644.648 -1.12684 -1.32846 0
M  V30 7039 C 641.78 -2.28974 -2.52555 0
M  V30 7040 H 642.973 -2.88523 -0.818209 0
M  V30 7041 H 640.526 -1.5135 -0.390221 0
M  V30 7042 H 641.261 -1.40611 -2.92231 0
M  V30 7043 H 641.046 -3.10157 -2.39886 0
M  V30 7044 H 642.536 -2.61109 -3.25902 0
M  V30 7045 N 642.974 0.416227 -1.52004 0
M  V30 7046 C 643.937 1.48926 -1.74223 0
M  V30 7047 C 644.937 1.48693 -0.612119 0
M  V30 7048 O 646.127 1.50343 -0.879921 0
M  V30 7049 C 643.259 2.88372 -1.81809 0
M  V30 7050 H 644.452 1.3052 -2.70008 0
M  V30 7051 H 642.005 0.646271 -1.42313 0
M  V30 7052 H 642.74 3.12157 -0.879135 0
M  V30 7053 H 642.525 2.89944 -2.6396 0
M  V30 7054 H 644.015 3.66173 -2.00766 0
M  V30 7055 N 644.452 1.42507 0.673017 0
M  V30 7056 C 645.415 1.4582 1.76831 0
M  V30 7057 C 646.415 0.345542 1.57043 0
M  V30 7058 O 647.605 0.606447 1.63303 0
M  V30 7059 C 644.737 1.29158 3.15485 0
M  V30 7060 H 645.93 2.43345 1.7528 0
M  V30 7061 H 643.483 1.28981 0.882817 0
M  V30 7062 H 644.218 0.325626 3.22661 0
M  V30 7063 H 644.003 2.09797 3.31252 0
M  V30 7064 H 645.493 1.34363 3.95394 0
M  V30 7065 N 645.93 -0.909495 1.28709 0
M  V30 7066 C 646.86 -2.0291 1.15542 0
M  V30 7067 C 647.841 -1.7002 0.0521017 0
M  V30 7068 O 649.026 -1.92835 0.229849 0
M  V30 7069 C 646.156 -3.37458 0.820935 0
M  V30 7070 C 645.11 -3.84524 1.87949 0
M  V30 7071 C 644.436 -5.16086 1.39854 0
M  V30 7072 C 645.736 -4.05918 3.28676 0
M  V30 7073 H 647.43 -2.14183 2.09203 0
M  V30 7074 H 644.976 -1.02913 1.00722 0
M  V30 7075 H 646.929 -4.1528 0.715571 0
M  V30 7076 H 645.653 -3.26249 -0.151374 0
M  V30 7077 H 644.312 -3.08911 1.97408 0
M  V30 7078 H 643.96 -5.01284 0.41518 0
M  V30 7079 H 643.66 -5.48547 2.1064 0
M  V30 7080 H 645.184 -5.96459 1.30649 0
M  V30 7081 H 646.598 -4.74252 3.22115 0
M  V30 7082 H 644.995 -4.49717 3.97334 0
M  V30 7083 H 646.065 -3.10583 3.72379 0
M  V30 7084 N 647.408 -1.11026 -1.11852 0
M  V30 7085 C 648.318 -0.777252 -2.2135 0
M  V30 7086 C 649.334 0.227821 -1.72502 0
M  V30 7087 O 650.51 0.0650587 -2.01295 0
M  V30 7088 C 647.575 -0.220668 -3.45997 0
M  V30 7089 C 646.636 -1.2838 -4.09655 0
M  V30 7090 C 645.869 -0.753678 -5.28352 0
M  V30 7091 O 646.092 0.417779 -5.68868 0
M  V30 7092 O 645.026 -1.51647 -5.82483 0
M  V30 7093 H 648.852 -1.69141 -2.5224 0
M  V30 7094 H 646.437 -0.885836 -1.20305 0
M  V30 7095 H 648.319 0.0855756 -4.21313 0
M  V30 7096 H 646.994 0.666262 -3.16769 0
M  V30 7097 H 645.901 -1.64299 -3.3609 0
M  V30 7098 H 647.234 -2.14396 -4.43052 0
M  V30 7099 N 648.886 1.2938 -0.899927 0
M  V30 7100 C 649.849 2.25983 -0.382677 0
M  V30 7101 C 650.849 1.53366 0.483259 0
M  V30 7102 O 652.039 1.71798 0.28828 0
M  V30 7103 C 649.171 3.37878 0.452915 0
M  V30 7104 H 650.364 2.73252 -1.23586 0
M  V30 7105 H 647.917 1.40825 -0.678088 0
M  V30 7106 H 648.652 2.95949 1.32608 0
M  V30 7107 H 648.437 3.91742 -0.167562 0
M  V30 7108 H 649.927 4.09746 0.806107 0
M  V30 7109 N 650.364 0.662433 1.43002 0
M  V30 7110 C 651.297 -0.073459 2.28082 0
M  V30 7111 C 652.275 -0.820869 1.40358 0
M  V30 7112 O 653.459 -0.818545 1.698 0
M  V30 7113 C 650.586 -1.11097 3.19961 0
M  V30 7114 C 649.632 -0.460557 4.24006 0
M  V30 7115 S 650.465 0.772717 5.29896 0
M  V30 7116 C 651.621 -0.264028 6.25343 0
M  V30 7117 H 651.854 0.648227 2.90147 0
M  V30 7118 H 649.387 0.451566 1.47649 0
M  V30 7119 H 651.345 -1.70452 3.73439 0
M  V30 7120 H 650.006 -1.80503 2.57056 0
M  V30 7121 H 649.199 -1.24299 4.88432 0
M  V30 7122 H 648.801 0.0591038 3.73953 0
M  V30 7123 H 651.093 -1.12748 6.68052 0
M  V30 7124 H 652.036 0.345443 7.07257 0
M  V30 7125 H 652.444 -0.603964 5.6126 0
M  V30 7126 N 651.842 -1.52309 0.404946 0
M  V30 7127 C 652.789 -2.26898 -0.422597 0
M  V30 7128 C 653.759 -1.2914 -1.04461 0
M  V30 7129 O 654.944 -1.57996 -1.06967 0
M  V30 7130 C 652.084 -3.09053 -1.53559 0
M  V30 7131 C 651.197 -4.21762 -0.934908 0
M  V30 7132 C 650.332 -4.91283 -2.02025 0
M  V30 7133 C 649.371 -5.95962 -1.39628 0
M  V30 7134 N 648.508 -6.59017 -2.42159 0
M  V30 7135 H 653.348 -2.97188 0.219903 0
M  V30 7136 H 650.885 -1.46607 0.120282 0
M  V30 7137 H 652.843 -3.54987 -2.19181 0
M  V30 7138 H 651.473 -2.40942 -2.14818 0
M  V30 7139 H 650.525 -3.80029 -0.167854 0
M  V30 7140 H 651.837 -4.96864 -0.439073 0
M  V30 7141 H 650.991 -5.40601 -2.75383 0
M  V30 7142 H 649.73 -4.15741 -2.54973 0
M  V30 7143 H 648.735 -5.45968 -0.648023 0
M  V30 7144 H 649.96 -6.73445 -0.874553 0
M  V30 7145 H 647.906 -5.86306 -2.94247 0
M  V30 7146 H 647.823 -7.2978 -1.97376 0
M  V30 7147 H 649.091 -7.12974 -3.15099 0
M  V30 7148 N 653.32 -0.135238 -1.57019 0
M  V30 7149 C 654.597 0.563227 -1.87316 0
M  V30 7150 C 654.977 1.83749 -1.03921 0
M  V30 7151 O 654.325 2.2817 -0.122675 0
M  V30 7152 C 654.535 0.840031 -3.3874 0
M  V30 7153 C 655.883 1.18598 -4.077 0
M  V30 7154 O 656.907 0.92977 -3.43851 0
M  V30 7155 O 655.766 1.66758 -5.20436 0
M  V30 7156 H 652.86 0.285971 -0.775983 0
M  V30 7157 H 655.406 -0.170965 -1.68837 0
M  V30 7158 H 654.178 -0.0622785 -3.9125 0
M  V30 7159 H 653.801 1.62882 -3.62706 0
M  V30 7160 N 654.798 1.5699 0.138552 0
M  V30 7161 C 656.028 1.87704 0.863184 0
M  V30 7162 C 656.436 0.722411 1.74865 0
M  V30 7163 O 655.779 -0.316636 1.80951 0
M  V30 7164 C 655.841 3.13219 1.76449 0
M  V30 7165 C 655.505 4.44648 1.05532 0
M  V30 7166 C 656.502 5.18318 0.405252 0
M  V30 7167 C 654.187 4.91367 1.04231 0
M  V30 7168 C 656.181 6.36916 -0.24835 0
M  V30 7169 C 653.868 6.09887 0.384904 0
M  V30 7170 C 654.866 6.82508 -0.259292 0
M  V30 7171 O 654.554 7.98775 -0.906258 0
M  V30 7172 H 654.286 0.626255 0.254521 0
M  V30 7173 H 656.84 2.04966 0.133472 0
M  V30 7174 H 655.07 2.91988 2.53535 0
M  V30 7175 H 656.759 3.30111 2.36181 0
M  V30 7176 H 657.525 4.83289 0.407053 0
M  V30 7177 H 653.404 4.34759 1.53315 0
M  V30 7178 H 656.948 6.93538 -0.751755 0
M  V30 7179 H 652.845 6.44376 0.380799 0
M  V30 7180 H 653.613 8.14494 -0.80877 0
M  V30 7181 N 656.276 -0.40816 1.52223 0
M  V30 7182 C 657.504 -1.17672 1.70179 0
M  V30 7183 C 657.919 -1.84257 0.411696 0
M  V30 7184 O 657.276 -1.7192 -0.612354 0
M  V30 7185 C 657.327 -2.23911 2.83806 0
M  V30 7186 O 657.048 -1.60044 4.0782 0
M  V30 7187 C 658.549 -3.1364 3.13281 0
M  V30 7188 H 655.769 -0.353562 0.570293 0
M  V30 7189 H 658.313 -0.480083 1.98785 0
M  V30 7190 H 656.468 -2.89242 2.57717 0
M  V30 7191 H 656.882 -2.30484 4.71145 0
M  V30 7192 H 658.356 -3.84255 3.96298 0
M  V30 7193 H 658.833 -3.76066 2.26872 0
M  V30 7194 H 659.439 -2.53977 3.41139 0
M  V30 7195 N 657.755 -1.42862 -0.66545 0
M  V30 7196 C 658.702 -1.4707 -1.77874 0
M  V30 7197 C 659.672 -0.321654 -1.62956 0
M  V30 7198 O 660.857 -0.52707 -1.83376 0
M  V30 7199 C 657.997 -1.38788 -3.15962 0
M  V30 7200 C 657.11 -2.63801 -3.42101 0
M  V30 7201 C 656.245 -2.47594 -4.69969 0
M  V30 7202 C 655.284 -3.67936 -4.89172 0
M  V30 7203 N 654.421 -3.50614 -6.08288 0
M  V30 7204 H 659.261 -2.42204 -1.73613 0
M  V30 7205 H 656.798 -1.20239 -0.847401 0
M  V30 7206 H 658.756 -1.31982 -3.95773 0
M  V30 7207 H 657.386 -0.472431 -3.19324 0
M  V30 7208 H 656.438 -2.80935 -2.56475 0
M  V30 7209 H 657.75 -3.53228 -3.52181 0
M  V30 7210 H 656.904 -2.38427 -5.57886 0
M  V30 7211 H 655.643 -1.55672 -4.62188 0
M  V30 7212 H 654.648 -3.77525 -3.99694 0
M  V30 7213 H 655.873 -4.60851 -4.98792 0
M  V30 7214 H 653.819 -2.61417 -6.01662 0
M  V30 7215 H 653.736 -4.33634 -6.19272 0
M  V30 7216 H 655.004 -3.45276 -6.98859 0
M  V30 7217 N 659.233 0.902656 -1.29189 0
M  V30 7218 C 660.196 1.98797 -1.14071 0
M  V30 7219 C 661.196 1.60615 -0.0770549 0
M  V30 7220 O 662.386 1.71165 -0.323753 0
M  V30 7221 C 659.518 3.32688 -0.743739 0
M  V30 7222 H 660.711 2.13637 -2.10473 0
M  V30 7223 H 658.264 1.08678 -1.12334 0
M  V30 7224 H 658.999 3.23549 0.220554 0
M  V30 7225 H 658.784 3.61765 -1.51223 0
M  V30 7226 H 660.274 4.12337 -0.660935 0
M  V30 7227 N 660.711 1.11618 1.11262 0
M  V30 7228 C 661.644 0.719995 2.16544 0
M  V30 7229 C 662.622 -0.28471 1.60088 0
M  V30 7230 O 663.806 -0.180693 1.87632 0
M  V30 7231 C 660.933 0.0643302 3.38639 0
M  V30 7232 C 659.979 1.03448 4.13764 0
M  V30 7233 S 660.812 2.55789 4.70459 0
M  V30 7234 C 661.968 1.91529 5.95875 0
M  V30 7235 H 662.201 1.61181 2.49816 0
M  V30 7236 H 659.734 0.934401 1.22916 0
M  V30 7237 H 661.692 -0.307609 4.09346 0
M  V30 7238 H 660.353 -0.804471 3.03623 0
M  V30 7239 H 659.546 0.523188 5.01277 0
M  V30 7240 H 659.148 1.34893 3.48826 0
M  V30 7241 H 661.44 1.25286 6.65815 0
M  V30 7242 H 662.383 2.77047 6.51652 0
M  V30 7243 H 662.791 1.37468 5.47506 0
M  V30 7244 N 662.189 -1.289 0.906776 0
M  V30 7245 C 663.466 -1.90221 0.455537 0
M  V30 7246 C 663.846 -1.82251 -1.06527 0
M  V30 7247 O 663.194 -1.25385 -1.91026 0
M  V30 7248 C 663.404 -3.35015 0.97806 0
M  V30 7249 C 664.752 -4.12018 1.02598 0
M  V30 7250 O 665.776 -3.43947 0.926218 0
M  V30 7251 O 664.635 -5.33677 1.17689 0
M  V30 7252 H 661.729 -0.814505 0.143214 0
M  V30 7253 H 664.275 -1.37317 0.997104 0
M  V30 7254 H 663.047 -3.35006 2.02204 0
M  V30 7255 H 662.67 -3.95408 0.416914 0
M  V30 7256 N 663.667 -0.670007 -1.42649 0
M  V30 7257 C 664.913 -0.190568 -2.01903 0
M  V30 7258 C 665.246 1.19817 -1.52832 0
M  V30 7259 O 664.521 1.80342 -0.728485 0
M  V30 7260 C 664.804 -0.21991 -3.59428 0
M  V30 7261 C 664.657 -1.64376 -4.18689 0
M  V30 7262 C 665.976 0.434519 -4.3795 0
M  V30 7263 H 663.095 -0.0707219 -0.733599 0
M  V30 7264 H 665.737 -0.853883 -1.69732 0
M  V30 7265 H 663.887 0.344894 -3.86966 0
M  V30 7266 H 665.559 -2.26044 -4.02122 0
M  V30 7267 H 663.802 -2.18591 -3.747 0
M  V30 7268 H 664.473 -1.61601 -5.27815 0
M  V30 7269 H 666.949 -0.0462156 -4.16074 0
M  V30 7270 H 665.825 0.38333 -5.4756 0
M  V30 7271 H 666.086 1.51135 -4.15464 0
M  V30 7272 N 665.145 1.52092 -0.413018 0
M  V30 7273 C 666.375 2.05974 0.160648 0
M  V30 7274 C 666.783 1.28267 1.39084 0
M  V30 7275 O 666.126 0.328805 1.80733 0
M  V30 7276 C 666.188 3.54918 0.572169 0
M  V30 7277 C 665.852 4.53705 -0.547826 0
M  V30 7278 C 666.849 5.00342 -1.41259 0
M  V30 7279 C 664.534 4.97089 -0.721627 0
M  V30 7280 C 666.528 5.89011 -2.43607 0
M  V30 7281 C 664.215 5.85554 -1.74841 0
M  V30 7282 C 665.213 6.3141 -2.60403 0
M  V30 7283 O 664.901 7.18123 -3.61323 0
M  V30 7284 H 664.633 0.675636 0.0221936 0
M  V30 7285 H 667.187 1.96931 -0.58373 0
M  V30 7286 H 665.417 3.61661 1.36889 0
M  V30 7287 H 667.106 3.91428 1.0742 0
M  V30 7288 H 667.872 4.67537 -1.28974 0
M  V30 7289 H 663.751 4.60954 -0.0652911 0
M  V30 7290 H 667.295 6.24725 -3.10425 0
M  V30 7291 H 663.192 6.17773 -1.87156 0
M  V30 7292 H 663.96 7.36244 -3.57613 0
M  V30 7293 N 666.623 0.143563 1.56945 0
M  V30 7294 C 667.555 -0.828353 2.13708 0
M  V30 7295 C 668.568 -1.21313 1.08568 0
M  V30 7296 O 669.757 -1.1578 1.35857 0
M  V30 7297 C 666.857 -2.12248 2.64204 0
M  V30 7298 C 666.03 -1.90561 3.93707 0
M  V30 7299 C 665.089 -3.03931 4.29549 0
M  V30 7300 O 664.115 -2.75772 4.97934 0
M  V30 7301 N 665.317 -4.31016 3.88852 0
M  V30 7302 H 668.082 -0.343242 2.97728 0
M  V30 7303 H 665.643 -0.0401152 1.6185 0
M  V30 7304 H 667.635 -2.87132 2.85197 0
M  V30 7305 H 666.205 -2.52033 1.84928 0
M  V30 7306 H 665.425 -0.997327 3.81375 0
M  V30 7307 H 666.713 -1.73405 4.78339 0
M  V30 7308 H 666.111 -4.56762 3.33743 0
M  V30 7309 H 664.668 -5.02691 4.14903 0
M  V30 7310 N 668.101 -1.57061 -0.130224 0
M  V30 7311 C 669.048 -1.99517 -1.16024 0
M  V30 7312 C 670.018 -0.865452 -1.41771 0
M  V30 7313 O 671.203 -1.12882 -1.53826 0
M  V30 7314 C 668.343 -2.3951 -2.48453 0
M  V30 7315 C 667.456 -3.65848 -2.29737 0
M  V30 7316 C 666.591 -3.9487 -3.55318 0
M  V30 7317 C 665.63 -5.14426 -3.31711 0
M  V30 7318 N 664.767 -5.39375 -4.49466 0
M  V30 7319 H 669.607 -2.87305 -0.791194 0
M  V30 7320 H 667.144 -1.42129 -0.379195 0
M  V30 7321 H 669.102 -2.60731 -3.25692 0
M  V30 7322 H 667.732 -1.54779 -2.83272 0
M  V30 7323 H 666.784 -3.52307 -1.4347 0
M  V30 7324 H 668.096 -4.53241 -2.08263 0
M  V30 7325 H 667.25 -4.16679 -4.4098 0
M  V30 7326 H 665.989 -3.05931 -3.79813 0
M  V30 7327 H 664.994 -4.92473 -2.44439 0
M  V30 7328 H 666.219 -6.04933 -3.08598 0
M  V30 7329 H 664.165 -4.53391 -4.74102 0
M  V30 7330 H 664.082 -6.21069 -4.31055 0
M  V30 7331 H 665.35 -5.65694 -5.36293 0
M  V30 7332 N 669.579 0.400081 -1.52437 0
M  V30 7333 C 670.542 1.4707 -1.75793 0
M  V30 7334 C 671.542 1.48036 -0.627856 0
M  V30 7335 O 672.732 1.49401 -0.895817 0
M  V30 7336 C 669.864 2.86427 -1.84858 0
M  V30 7337 H 671.057 1.27649 -2.71377 0
M  V30 7338 H 668.61 0.631141 -1.42991 0
M  V30 7339 H 669.345 3.11207 -0.912194 0
M  V30 7340 H 669.13 2.87128 -2.6702 0
M  V30 7341 H 670.62 3.64023 -2.04638 0
M  V30 7342 N 671.057 1.43213 0.657864 0
M  V30 7343 C 671.987 1.50815 1.78262 0
M  V30 7344 C 672.968 0.363211 1.66177 0
M  V30 7345 O 674.153 0.579806 1.85343 0
M  V30 7346 C 671.283 1.42625 3.16663 0
M  V30 7347 C 670.237 2.5532 3.43505 0
M  V30 7348 C 669.563 2.32184 4.81658 0
M  V30 7349 C 670.863 3.97583 3.38711 0
M  V30 7350 H 672.557 2.44954 1.72157 0
M  V30 7351 H 670.103 1.17896 0.82683 0
M  V30 7352 H 672.056 1.46548 3.95097 0
M  V30 7353 H 670.78 0.449877 3.23487 0
M  V30 7354 H 669.439 2.50742 2.6744 0
M  V30 7355 H 669.087 1.32801 4.85153 0
M  V30 7356 H 668.787 3.07724 5.00579 0
M  V30 7357 H 670.311 2.37883 5.62356 0
M  V30 7358 H 671.725 4.03673 4.07089 0
M  V30 7359 H 670.122 4.73112 3.69168 0
M  V30 7360 H 671.192 4.23049 2.36976 0
M  V30 7361 N 672.536 -0.895792 1.29666 0
M  V30 7362 C 673.813 -1.62723 1.08538 0
M  V30 7363 C 674.193 -2.07848 -0.369119 0
M  V30 7364 O 673.541 -1.8372 -1.35864 0
M  V30 7365 C 673.751 -2.80505 2.07648 0
M  V30 7366 C 675.099 -3.51098 2.3878 0
M  V30 7367 O 676.123 -2.90679 2.05874 0
M  V30 7368 O 674.982 -4.60028 2.9502 0
M  V30 7369 H 672.076 -0.714692 0.416106 0
M  V30 7370 H 674.622 -0.943517 1.41053 0
M  V30 7371 H 673.394 -2.44386 3.05599 0
M  V30 7372 H 673.017 -3.5658 1.75887 0
M  V30 7373 N 674.014 -1.12206 -1.10668 0
M  V30 7374 C 674.944 -0.810086 -2.18997 0
M  V30 7375 C 675.925 0.225065 -1.68604 0
M  V30 7376 O 677.11 0.086783 -1.94006 0
M  V30 7377 C 674.24 -0.261262 -3.46316 0
M  V30 7378 C 673.194 -1.2292 -4.09969 0
M  V30 7379 C 672.52 -0.540713 -5.31959 0
M  V30 7380 C 673.82 -2.58295 -4.53962 0
M  V30 7381 H 675.514 -1.7159 -2.45352 0
M  V30 7382 H 673.06 -0.82646 -1.17922 0
M  V30 7383 H 675.013 -0.0307522 -4.21389 0
M  V30 7384 H 673.737 0.679879 -3.19445 0
M  V30 7385 H 672.396 -1.44548 -3.369 0
M  V30 7386 H 672.044 0.405492 -5.01363 0
M  V30 7387 H 671.744 -1.18637 -5.75499 0
M  V30 7388 H 673.268 -0.319184 -6.09765 0
M  V30 7389 H 674.682 -2.40709 -5.20319 0
M  V30 7390 H 673.079 -3.18916 -5.08343 0
M  V30 7391 H 674.149 -3.16918 -3.67002 0
M  V30 7392 N 675.492 1.28418 -0.913599 0
M  V30 7393 C 676.769 1.89977 -0.465619 0
M  V30 7394 C 677.149 1.82813 1.05559 0
M  V30 7395 O 676.497 1.26397 1.90358 0
M  V30 7396 C 676.707 3.34492 -0.995813 0
M  V30 7397 C 678.055 4.11468 -1.04782 0
M  V30 7398 O 679.079 3.43451 -0.944445 0
M  V30 7399 O 677.938 5.33046 -1.20518 0
M  V30 7400 H 675.032 0.813734 -0.147532 0
M  V30 7401 H 677.578 1.36786 -1.00437 0
M  V30 7402 H 676.35 3.33929 -2.03978 0
M  V30 7403 H 675.973 3.95181 -0.437878 0
M  V30 7404 N 676.97 0.677563 1.42291 0
M  V30 7405 C 678.195 0.207901 2.06355 0
M  V30 7406 C 678.62 -1.12723 1.50583 0
M  V30 7407 O 677.978 -1.70171 0.62543 0
M  V30 7408 C 678.026 0.156489 3.6026 0
M  V30 7409 O 677.13 -0.874162 4.03029 0
M  V30 7410 H 676.471 0.106056 0.655475 0
M  V30 7411 H 679.001 0.927354 1.82377 0
M  V30 7412 H 679.011 -0.0187258 4.07996 0
M  V30 7413 H 677.686 1.13101 4.00226 0
M  V30 7414 H 676.263 -0.669764 3.66836 0
M  V30 7415 N 678.448 -1.51871 0.421078 0
M  V30 7416 C 679.673 -2.0684 -0.152371 0
M  V30 7417 C 680.098 -1.28802 -1.37083 0
M  V30 7418 O 679.456 -0.321482 -1.78427 0
M  V30 7419 C 679.504 -3.57532 -0.469368 0
M  V30 7420 O 678.608 -3.81818 -1.55848 0
M  V30 7421 H 677.949 -0.663939 -0.00898586 0
M  V30 7422 H 680.479 -1.95674 0.597724 0
M  V30 7423 H 680.489 -4.01515 -0.724553 0
M  V30 7424 H 679.164 -4.13761 0.421276 0
M  V30 7425 H 677.741 -3.49709 -1.29453 0
M  V30 7426 N 679.926 -0.151884 -1.56866 0
M  V30 7427 C 681.166 0.500695 -1.98173 0
M  V30 7428 C 681.53 1.61715 -1.03499 0
M  V30 7429 O 682.731 2.33093 -1.33869 0
M  V30 7430 C 681.002 0.989333 -3.43434 0
M  V30 7431 S 682.561 1.64583 -4.06765 0
M  V30 7432 H 679.379 0.16173 -0.692361 0
M  V30 7433 H 681.981 -0.244754 -1.93962 0
M  V30 7434 H 680.685 0.166072 -4.10064 0
M  V30 7435 H 680.216 1.76929 -3.51368 0
M  V30 7436 H 682.231 2.93326 -4.00218 0
M  V30 7437 N 681.404 1.57128 0.121893 0
M  V30 7438 C 682.351 2.0013 1.14964 0
M  V30 7439 C 683.321 0.872959 1.4131 0
M  V30 7440 O 684.506 1.13696 1.53225 0
M  V30 7441 C 681.646 2.40824 2.4718 0
M  V30 7442 C 680.759 3.67061 2.27794 0
M  V30 7443 C 679.894 3.96749 3.53219 0
M  V30 7444 C 678.933 5.16178 3.28978 0
M  V30 7445 N 678.07 5.41751 4.46599 0
M  V30 7446 H 682.91 2.8772 0.775947 0
M  V30 7447 H 680.447 1.42328 0.371652 0
M  V30 7448 H 682.405 2.62454 3.24305 0
M  V30 7449 H 681.035 1.56279 2.82448 0
M  V30 7450 H 680.087 3.53063 1.416 0
M  V30 7451 H 681.399 4.5434 2.05857 0
M  V30 7452 H 680.553 4.19012 4.38764 0
M  V30 7453 H 679.292 3.07941 3.78185 0
M  V30 7454 H 678.297 4.93762 2.41824 0
M  V30 7455 H 679.522 6.06561 3.05386 0
M  V30 7456 H 677.468 4.55899 4.71691 0
M  V30 7457 H 677.385 6.23347 4.27756 0
M  V30 7458 H 678.653 5.68531 5.33285 0
M  V30 7459 N 682.882 -0.391992 1.52647 0
M  V30 7460 C 683.792 -1.503 1.80131 0
M  V30 7461 C 684.808 -1.59825 0.687882 0
M  V30 7462 O 685.984 -1.76218 0.975149 0
M  V30 7463 C 683.049 -2.85863 1.96171 0
M  V30 7464 C 682.11 -2.86084 3.20085 0
M  V30 7465 C 681.343 -4.15181 3.35351 0
M  V30 7466 O 681.566 -5.09981 2.55491 0
M  V30 7467 O 680.5 -4.22603 4.28591 0
M  V30 7468 H 684.326 -1.30007 2.74466 0
M  V30 7469 H 681.911 -0.579539 1.37701 0
M  V30 7470 H 683.793 -3.66236 2.08445 0
M  V30 7471 H 682.468 -3.06189 1.05025 0
M  V30 7472 H 681.375 -2.04504 3.13256 0
M  V30 7473 H 682.708 -2.7071 4.11068 0
M  V30 7474 N 684.36 -1.4356 -0.65026 0
M  V30 7475 C 685.323 -1.48615 -1.74489 0
M  V30 7476 C 686.323 -0.370483 -1.56474 0
M  V30 7477 O 687.513 -0.632351 -1.62317 0
M  V30 7478 C 684.645 -1.34161 -3.13391 0
M  V30 7479 H 685.838 -2.46103 -1.71387 0
M  V30 7480 H 683.391 -1.30369 -0.862186 0
M  V30 7481 H 684.126 -0.376918 -3.22102 0
M  V30 7482 H 683.911 -2.1504 -3.27872 0
M  V30 7483 H 685.401 -1.40637 -3.93206 0
M  V30 7484 N 685.838 0.888903 -1.30139 0
M  V30 7485 C 686.801 1.97576 -1.16174 0
M  V30 7486 C 687.801 1.60525 -0.094086 0
M  V30 7487 O 688.991 1.70812 -0.341889 0
M  V30 7488 C 686.123 3.3188 -0.778983 0
M  V30 7489 H 687.316 2.11393 -2.12728 0
M  V30 7490 H 684.869 1.0748 -1.1348 0
M  V30 7491 H 685.604 3.23765 0.186225 0
M  V30 7492 H 685.389 3.60141 -1.55051 0
M  V30 7493 H 686.879 4.11612 -0.704631 0
M  V30 7494 N 687.317 1.12792 1.10072 0
M  V30 7495 C 688.594 0.796867 1.78632 0
M  V30 7496 C 688.974 -0.712739 1.98704 0
M  V30 7497 O 688.322 -1.64773 1.5831 0
M  V30 7498 C 688.532 1.57622 3.11378 0
M  V30 7499 C 689.88 1.76463 3.86194 0
M  V30 7500 O 690.904 1.54165 3.2111 0
M  V30 7501 O 689.763 2.13623 5.03018 0
M  V30 7502 H 686.857 0.290248 0.774394 0
M  V30 7503 H 689.403 1.23215 1.16688 0
M  V30 7504 H 688.175 2.60246 2.92212 0
M  V30 7505 H 687.798 1.13543 3.81043 0
M  V30 7506 N 688.795 -1.27931 0.920396 0
M  V30 7507 C 690.043 -1.94304 0.555906 0
M  V30 7508 C 690.364 -1.72753 -0.904519 0
M  V30 7509 O 689.634 -1.07104 -1.64029 0
M  V30 7510 H 688.214 -0.719001 0.202599 0
M  V30 7511 H 690.876 -1.55785 1.1712 0
M  V30 7512 H 689.972 -3.02806 0.755981 0
M  V30 7513 N 690.273 -0.685099 -1.4193 0
M  V30 7514 C 691.503 -0.220052 -2.05425 0
M  V30 7515 C 691.911 1.13185 -1.51611 0
M  V30 7516 O 691.254 1.71631 -0.654875 0
M  V30 7517 C 691.316 -0.0888364 -3.5939 0
M  V30 7518 C 690.98 -1.37109 -4.35947 0
M  V30 7519 C 691.977 -2.30675 -4.65924 0
M  V30 7520 C 689.662 -1.62155 -4.75406 0
M  V30 7521 C 691.656 -3.47556 -5.34306 0
M  V30 7522 C 689.343 -2.79324 -5.43527 0
M  V30 7523 C 690.341 -3.71848 -5.72903 0
M  V30 7524 O 690.029 -4.86966 -6.39624 0
M  V30 7525 H 689.761 -0.102165 -0.668235 0
M  V30 7526 H 692.315 -0.935194 -1.82875 0
M  V30 7527 H 690.545 0.681981 -3.80639 0
M  V30 7528 H 692.234 0.337669 -4.04493 0
M  V30 7529 H 693 -2.12579 -4.3593 0
M  V30 7530 H 688.879 -0.910053 -4.51928 0
M  V30 7531 H 692.423 -4.19794 -5.57153 0
M  V30 7532 H 688.32 -2.97342 -5.72938 0
M  V30 7533 H 689.088 -4.86644 -6.58118 0
M  V30 7534 N 691.751 1.51645 -0.429126 0
M  V30 7535 C 692.683 2.25279 0.422124 0
M  V30 7536 C 693.696 1.28986 0.993299 0
M  V30 7537 O 694.885 1.54797 0.888836 0
M  V30 7538 C 691.985 2.98666 1.60162 0
M  V30 7539 C 691.158 4.2199 1.15078 0
M  V30 7540 C 690.217 4.78028 2.19946 0
M  V30 7541 O 689.243 5.40084 1.79716 0
M  V30 7542 N 690.445 4.61342 3.5234 0
M  V30 7543 H 693.21 2.98971 -0.208931 0
M  V30 7544 H 690.771 1.59838 -0.257568 0
M  V30 7545 H 692.763 3.33044 2.29922 0
M  V30 7546 H 691.333 2.28036 2.13818 0
M  V30 7547 H 690.553 3.932 0.280552 0
M  V30 7548 H 691.841 5.02037 0.826831 0
M  V30 7549 H 691.239 4.11894 3.87763 0
M  V30 7550 H 689.796 5.00104 4.18019 0
M  V30 7551 N 693.229 0.160201 1.56784 0
M  V30 7552 C 694.645 -0.196089 1.58391 0
M  V30 7553 C 694.845 -1.63689 1.17508 0
M  V30 7554 O 693.901 -2.36613 0.881506 0
M  V30 7555 C 695.214 0.0746449 3.00607 0
M  V30 7556 C 696.762 0.0119762 3.12998 0
M  V30 7557 C 697.237 0.255551 4.57286 0
M  V30 7558 N 698.728 0.202938 4.62755 0
M  V30 7559 C 699.463 0.365731 5.72232 0
M  V30 7560 N 698.959 0.586972 6.90309 0
M  V30 7561 N 700.752 0.302411 5.61286 0
M  V30 7562 H 692.903 1.1008 1.81648 0
M  V30 7563 H 695.166 0.436779 0.841384 0
M  V30 7564 H 694.872 1.07231 3.34954 0
M  V30 7565 H 694.746 -0.638802 3.71751 0
M  V30 7566 H 697.133 -0.976254 2.78484 0
M  V30 7567 H 697.214 0.75796 2.44313 0
M  V30 7568 H 696.858 1.24094 4.92507 0
M  V30 7569 H 696.788 -0.510912 5.24116 0
M  V30 7570 H 699.279 0.0371328 3.77882 0
M  V30 7571 H 699.592 0.700941 7.69615 0
M  V30 7572 H 697.937 0.623453 6.92198 0
M  V30 7573 H 701.128 0.130238 4.67919 0
M  V30 7574 H 701.301 0.432712 6.46554 0
M  V30 7575 N 694.707 -1.5719 -0.113559 0
M  V30 7576 C 695.947 -1.86958 -0.82621 0
M  V30 7577 C 696.311 -0.748884 -1.76793 0
M  V30 7578 O 697.512 -0.92847 -2.52256 0
M  V30 7579 C 695.783 -3.21957 -1.55173 0
M  V30 7580 S 697.342 -3.73371 -2.3052 0
M  V30 7581 H 694.16 -0.655394 -0.275643 0
M  V30 7582 H 696.762 -1.95318 -0.0842684 0
M  V30 7583 H 695.466 -4.01459 -0.851977 0
M  V30 7584 H 694.997 -3.16688 -2.33393 0
M  V30 7585 H 697.012 -3.45308 -3.56338 0
M  V30 7586 N 696.185 0.383891 -1.52853 0
M  V30 7587 C 697.118 1.49105 -1.72751 0
M  V30 7588 C 698.096 1.52077 -0.575438 0
M  V30 7589 O 699.28 1.70406 -0.805854 0
M  V30 7590 C 696.407 2.87551 -1.78975 0
M  V30 7591 C 695.453 3.02383 -3.00777 0
M  V30 7592 S 696.286 2.73048 -4.60657 0
M  V30 7593 C 697.442 4.13678 -4.69704 0
M  V30 7594 H 697.675 1.32002 -2.66388 0
M  V30 7595 H 695.208 0.577088 -1.4321 0
M  V30 7596 H 697.166 3.6733 -1.83246 0
M  V30 7597 H 695.827 3.01977 -0.864215 0
M  V30 7598 H 695.02 4.03733 -3.01688 0
M  V30 7599 H 694.622 2.30504 -2.94523 0
M  V30 7600 H 696.914 5.07676 -4.48633 0
M  V30 7601 H 697.857 4.1778 -5.71721 0
M  V30 7602 H 698.265 3.99825 -3.98497 0
M  V30 7603 N 697.663 1.43903 0.642637 0
M  V30 7604 C 698.596 1.44339 1.76753 0
M  V30 7605 C 699.574 0.303558 1.59741 0
M  V30 7606 O 700.758 0.498775 1.81781 0
M  V30 7607 C 697.885 1.26508 3.14187 0
M  V30 7608 C 696.931 2.43905 3.49875 0
M  V30 7609 S 697.764 4.0645 3.48653 0
M  V30 7610 C 698.92 3.91021 4.88726 0
M  V30 7611 H 699.153 2.39523 1.76113 0
M  V30 7612 H 696.686 1.31061 0.81623 0
M  V30 7613 H 698.644 1.16908 3.93501 0
M  V30 7614 H 697.305 0.328548 3.12377 0
M  V30 7615 H 696.498 2.27262 4.49853 0
M  V30 7616 H 696.1 2.50186 2.77998 0
M  V30 7617 H 698.392 3.54 5.77659 0
M  V30 7618 H 699.335 4.9079 5.10423 0
M  V30 7619 H 699.743 3.23287 4.62759 0
M  V30 7620 N 699.141 -0.881989 1.30609 0
M  V30 7621 C 700.104 -1.96957 1.1722 0
M  V30 7622 C 701.104 -1.60472 0.102598 0
M  V30 7623 O 702.294 -1.70628 0.350943 0
M  V30 7624 C 699.426 -3.31463 0.796572 0
M  V30 7625 H 700.619 -2.10262 2.13846 0
M  V30 7626 H 698.172 -1.06877 1.14048 0
M  V30 7627 H 698.907 -3.23859 -0.169053 0
M  V30 7628 H 698.692 -3.59314 1.56959 0
M  V30 7629 H 700.182 -4.11233 0.72645 0
M  V30 7630 N 700.619 -1.13374 -1.09472 0
M  V30 7631 C 701.551 -0.768466 -2.15933 0
M  V30 7632 C 702.564 0.209585 -1.61445 0
M  V30 7633 O 703.753 -0.010539 -1.78497 0
M  V30 7634 C 700.853 -0.118266 -3.38694 0
M  V30 7635 C 700.026 -1.12829 -4.22597 0
M  V30 7636 C 699.085 -0.503875 -5.23782 0
M  V30 7637 O 698.111 -1.16374 -5.57177 0
M  V30 7638 N 699.313 0.724288 -5.75964 0
M  V30 7639 H 702.078 -1.68457 -2.47876 0
M  V30 7640 H 699.639 -1.02668 -1.25183 0
M  V30 7641 H 701.631 0.311698 -4.03498 0
M  V30 7642 H 700.201 0.700769 -3.04644 0
M  V30 7643 H 699.421 -1.73556 -3.53938 0
M  V30 7644 H 700.709 -1.81095 -4.75481 0
M  V30 7645 H 700.107 1.27918 -5.51048 0
M  V30 7646 H 698.664 1.09692 -6.42504 0
M  V30 7647 N 702.098 1.27442 -0.927168 0
M  V30 7648 C 703.328 1.9821 -0.582775 0
M  V30 7649 C 703.736 1.69361 0.843406 0
M  V30 7650 O 703.079 0.950381 1.57205 0
M  V30 7651 C 703.141 3.52048 -0.728165 0
M  V30 7652 C 702.805 4.04518 -2.12637 0
M  V30 7653 C 703.802 4.17332 -3.10048 0
M  V30 7654 C 701.487 4.38879 -2.44317 0
M  V30 7655 C 703.481 4.6378 -4.37249 0
M  V30 7656 C 701.168 4.85018 -3.71753 0
M  V30 7657 C 702.166 4.97428 -4.68033 0
M  V30 7658 O 701.854 5.42556 -5.93202 0
M  V30 7659 H 701.586 0.639314 -0.219667 0
M  V30 7660 H 704.14 1.63272 -1.24626 0
M  V30 7661 H 702.37 3.86699 -0.00758143 0
M  V30 7662 H 704.059 4.04033 -0.388906 0
M  V30 7663 H 704.825 3.91046 -2.86894 0
M  V30 7664 H 700.704 4.28462 -1.70121 0
M  V30 7665 H 704.248 4.73382 -5.12402 0
M  V30 7666 H 700.145 5.10746 -3.94726 0
M  V30 7667 H 700.913 5.60811 -5.96182 0
M  V30 7668 N 703.576 0.692616 1.41565 0
M  V30 7669 C 704.524 0.0139952 2.32596 0
M  V30 7670 C 705.518 -0.771691 1.50802 0
M  V30 7671 O 706.724 -0.677646 1.66757 0
M  V30 7672 H 703.099 -0.0142745 0.751865 0
M  V30 7673 H 705.07 0.798851 2.87508 0
M  V30 7674 C 703.819 -0.910602 3.35564 0
M  V30 7675 H 703.142 -0.315446 3.98554 0
M  V30 7676 H 704.582 -1.3538 4.01806 0
M  V30 7677 C 703.041 -2.02539 2.6922 0
M  V30 7678 O 703.571 -3.11386 2.53775 0
M  V30 7679 N 701.777 -1.80227 2.27962 0
M  V30 7680 H 701.324 -0.917054 2.40724 0
M  V30 7681 H 701.282 -2.55001 1.83907 0
M  V30 7682 N 705.054 -1.51416 0.437162 0
M  V30 7683 C 706.47 -1.59349 0.0894459 0
M  V30 7684 C 706.67 -1.44809 -1.40116 0
M  V30 7685 O 705.726 -1.28924 -2.17106 0
M  V30 7686 C 707.039 -2.9446 0.609398 0
M  V30 7687 C 708.587 -3.07769 0.569824 0
M  V30 7688 C 709.062 -4.45404 1.06675 0
M  V30 7689 N 710.553 -4.51723 1.02473 0
M  V30 7690 C 711.288 -5.56544 1.3801 0
M  V30 7691 N 710.784 -6.68784 1.80831 0
M  V30 7692 N 712.577 -5.46901 1.29828 0
M  V30 7693 H 704.728 -1.59112 1.40703 0
M  V30 7694 H 706.991 -0.750031 0.579791 0
M  V30 7695 H 706.697 -3.1047 1.65231 0
M  V30 7696 H 706.571 -3.77184 0.0342236 0
M  V30 7697 H 708.958 -2.91428 -0.464107 0
M  V30 7698 H 709.039 -2.26885 1.1814 0
M  V30 7699 H 708.683 -4.62492 2.09914 0
M  V30 7700 H 708.613 -5.24827 0.431712 0
M  V30 7701 H 711.104 -3.71165 0.710258 0
M  V30 7702 H 711.417 -7.44787 2.06185 0
M  V30 7703 H 709.762 -6.69992 1.84757 0
M  V30 7704 H 712.953 -4.581 0.962397 0
M  V30 7705 H 713.126 -6.2848 1.57851 0
M  V30 7706 N 706.532 -0.168513 -1.56696 0
M  V30 7707 C 707.482 0.7751 -2.14421 0
M  V30 7708 C 708.466 1.19476 -1.07769 0
M  V30 7709 O 709.658 1.15759 -1.33898 0
M  V30 7710 C 706.787 2.00549 -2.7863 0
M  V30 7711 C 705.873 1.60795 -3.92436 0
M  V30 7712 N 706.264 0.919812 -4.97366 0
M  V30 7713 C 704.562 1.89917 -4.03544 0
M  V30 7714 C 705.263 0.724485 -5.77171 0
M  V30 7715 N 704.239 1.26505 -5.28675 0
M  V30 7716 H 708.041 0.240349 -2.92916 0
M  V30 7717 H 705.555 0.0322675 -1.62368 0
M  V30 7718 H 707.552 2.6917 -3.1836 0
M  V30 7719 H 706.212 2.54522 -2.01615 0
M  V30 7720 H 707.223 0.578169 -5.14663 0
M  V30 7721 H 703.9 2.45587 -3.37629 0
M  V30 7722 H 705.29 0.180521 -6.71657 0
M  V30 7723 N 708.01 1.57248 0.105221 0
M  V30 7724 C 709.287 1.76566 0.841647 0
M  V30 7725 C 709.667 0.747566 1.9742 0
M  V30 7726 O 709.015 -0.225886 2.27381 0
M  V30 7727 C 709.225 3.22016 1.3456 0
M  V30 7728 C 710.573 3.84911 1.79244 0
M  V30 7729 O 711.597 3.25703 1.44207 0
M  V30 7730 O 710.456 4.89008 2.43995 0
M  V30 7731 H 707.55 0.723443 0.400698 0
M  V30 7732 H 710.096 1.69472 0.0878893 0
M  V30 7733 H 708.868 3.87644 0.533685 0
M  V30 7734 H 708.491 3.33703 2.16167 0
M  V30 7735 N 709.488 -0.375779 1.53054 0
M  V30 7736 C 710.713 -1.14484 1.7294 0
M  V30 7737 C 711.138 -1.82572 0.452668 0
M  V30 7738 O 710.496 -1.71343 -0.592567 0
M  V30 7739 C 710.544 -2.15857 2.88857 0
M  V30 7740 O 709.648 -3.22725 2.56753 0
M  V30 7741 H 708.989 -0.332666 0.574656 0
M  V30 7742 H 711.519 -0.436025 1.999 0
M  V30 7743 H 711.529 -2.59631 3.14731 0
M  V30 7744 H 710.204 -1.65689 3.81471 0
M  V30 7745 H 708.781 -2.83996 2.41663 0
M  V30 7746 N 710.966 -1.44241 -0.634997 0
M  V30 7747 C 712.377 -1.41622 -1.21655 0
M  V30 7748 C 712.728 -0.129584 -1.95772 0
M  V30 7749 O 711.853 0.770225 -2.02229 0
M  V30 7750 C 712.448 -2.56557 -2.21278 0
M  V30 7751 C 711.007 -2.57145 -2.7487 0
M  V30 7752 C 710.154 -2.33354 -1.49804 0
M  V30 7753 H 713.105 -1.52878 -0.425905 0
M  V30 7754 H 713.126 -2.29089 -3.03807 0
M  V30 7755 H 712.638 -3.50186 -1.67306 0
M  V30 7756 H 710.739 -1.67447 -3.32855 0
M  V30 7757 H 710.852 -3.55507 -3.21172 0
M  V30 7758 H 709.216 -1.82372 -1.77799 0
M  V30 7759 H 709.999 -3.29092 -0.977402 0
M  V30 7760 N 712.444 0.87505 -1.31075 0
M  V30 7761 C 713.354 2.01441 -1.20244 0
M  V30 7762 C 714.37 1.73584 -0.120227 0
M  V30 7763 O 715.546 1.98559 -0.337063 0
M  V30 7764 C 712.611 3.34675 -0.905199 0
M  V30 7765 C 711.672 3.75889 -2.0738 0
M  V30 7766 C 710.905 5.02764 -1.79064 0
M  V30 7767 O 711.128 5.65795 -0.723318 0
M  V30 7768 O 710.062 5.40623 -2.64594 0
M  V30 7769 H 713.888 2.13509 -2.1598 0
M  V30 7770 H 711.473 1.00257 -1.10765 0
M  V30 7771 H 713.355 4.1458 -0.755057 0
M  V30 7772 H 712.03 3.23692 0.0221695 0
M  V30 7773 H 710.937 2.96645 -2.27931 0
M  V30 7774 H 712.27 3.91489 -2.98324 0
M  V30 7775 N 713.922 1.13953 1.08869 0
M  V30 7776 C 715.199 0.815768 1.77777 0
M  V30 7777 C 715.579 -0.691624 1.99449 0
M  V30 7778 O 714.927 -1.63085 1.60049 0
M  V30 7779 C 715.137 1.60916 3.09689 0
M  V30 7780 C 716.485 1.80549 3.84301 0
M  V30 7781 O 717.509 1.57562 3.19457 0
M  V30 7782 O 716.368 2.18946 5.00724 0
M  V30 7783 H 713.462 0.298445 0.771271 0
M  V30 7784 H 716.008 1.24446 1.15374 0
M  V30 7785 H 714.78 2.6333 2.89435 0
M  V30 7786 H 714.403 1.17578 3.79817 0
M  V30 7787 N 715.4 -1.26948 0.933913 0
M  V30 7788 C 716.646 -1.94374 0.57848 0
M  V30 7789 C 716.979 -1.73166 -0.879048 0
M  V30 7790 O 716.254 -1.06438 -1.62792 0
M  V30 7791 C 716.537 -3.4834 0.912739 0
M  V30 7792 C 716.39 -3.78866 2.42448 0
M  V30 7793 C 717.709 -4.38062 0.423003 0
M  V30 7794 H 714.828 -0.705959 0.211639 0
M  V30 7795 H 717.47 -1.49951 1.16682 0
M  V30 7796 H 715.62 -3.86309 0.412058 0
M  V30 7797 H 717.292 -3.50654 2.99733 0
M  V30 7798 H 715.535 -3.25198 2.87104 0
M  V30 7799 H 716.206 -4.86458 2.60887 0
M  V30 7800 H 718.682 -4.0728 0.852191 0
M  V30 7801 H 717.558 -5.44599 0.685776 0
M  V30 7802 H 717.819 -4.36886 -0.676994 0
M  V30 7803 N 716.879 -0.700114 -1.41195 0
M  V30 7804 C 717.826 -0.0376652 -2.30769 0
M  V30 7805 C 718.796 0.766544 -1.47354 0
M  V30 7806 O 719.981 0.73365 -1.76131 0
M  V30 7807 C 717.121 0.889452 -3.33441 0
M  V30 7808 C 716.234 0.076373 -4.31932 0
M  V30 7809 C 715.369 1.00155 -5.21673 0
M  V30 7810 C 714.408 0.181644 -6.1183 0
M  V30 7811 N 713.545 1.06087 -6.94039 0
M  V30 7812 H 718.385 -0.80726 -2.86858 0
M  V30 7813 H 715.922 -0.409798 -1.41277 0
M  V30 7814 H 717.88 1.44107 -3.91522 0
M  V30 7815 H 716.51 1.6254 -2.78892 0
M  V30 7816 H 715.562 -0.592223 -3.75762 0
M  V30 7817 H 716.874 -0.559076 -4.95657 0
M  V30 7818 H 716.028 1.62223 -5.8461 0
M  V30 7819 H 714.767 1.67085 -4.58186 0
M  V30 7820 H 713.772 -0.452085 -5.47938 0
M  V30 7821 H 714.997 -0.483925 -6.77374 0
M  V30 7822 H 712.943 1.7161 -6.33156 0
M  V30 7823 H 712.86 0.481094 -7.54468 0
M  V30 7824 H 714.128 1.66822 -7.6144 0
M  V30 7825 N 718.357 1.51182 -0.445186 0
M  V30 7826 C 719.773 1.59299 -0.0978954 0
M  V30 7827 C 719.973 1.4555 1.39346 0
M  V30 7828 O 719.029 1.30073 2.16419 0
M  V30 7829 C 720.342 2.94133 -0.625005 0
M  V30 7830 C 721.89 3.07463 -0.586137 0
M  V30 7831 C 722.365 4.44832 -1.09035 0
M  V30 7832 N 723.856 4.51173 -1.04867 0
M  V30 7833 C 724.591 5.55804 -1.40959 0
M  V30 7834 N 724.087 6.67816 -1.84375 0
M  V30 7835 N 725.88 5.46205 -1.32726 0
M  V30 7836 H 718.031 1.58363 -1.41544 0
M  V30 7837 H 720.294 0.746946 -0.58376 0
M  V30 7838 H 720 3.09589 -1.66876 0
M  V30 7839 H 719.874 3.77161 -0.0542262 0
M  V30 7840 H 722.261 2.9167 0.448646 0
M  V30 7841 H 722.342 2.26255 -1.19341 0
M  V30 7842 H 721.986 4.61372 -2.12364 0
M  V30 7843 H 721.916 5.24591 -0.459539 0
M  V30 7844 H 724.407 3.70783 -0.729932 0
M  V30 7845 H 724.72 7.43683 -2.10131 0
M  V30 7846 H 723.065 6.69003 -1.88308 0
M  V30 7847 H 726.256 4.57583 -0.986678 0
M  V30 7848 H 726.429 6.27634 -1.61182 0
M  V30 7849 N 719.835 0.176821 1.56605 0
M  V30 7850 C 721.251 -0.179278 1.5859 0
M  V30 7851 C 721.451 -1.62433 1.19238 0
M  V30 7852 O 720.507 -2.35665 0.906552 0
M  V30 7853 C 721.82 0.106524 3.00511 0
M  V30 7854 C 723.368 0.0451731 3.12967 0
M  V30 7855 C 723.843 0.304038 4.5699 0
M  V30 7856 N 725.334 0.252008 4.62514 0
M  V30 7857 C 726.069 0.426404 5.71812 0
M  V30 7858 N 725.565 0.660155 6.89648 0
M  V30 7859 N 727.358 0.361926 5.60934 0
M  V30 7860 H 719.509 1.12001 1.8047 0
M  V30 7861 H 721.772 0.445679 0.836704 0
M  V30 7862 H 721.478 1.10778 3.33798 0
M  V30 7863 H 721.352 -0.599337 3.72408 0
M  V30 7864 H 723.739 -0.946662 2.79504 0
M  V30 7865 H 723.82 0.78383 2.43495 0
M  V30 7866 H 723.464 1.29311 4.91163 0
M  V30 7867 H 723.394 -0.455294 5.24628 0
M  V30 7868 H 725.885 0.0772102 3.77821 0
M  V30 7869 H 726.198 0.782529 7.68828 0
M  V30 7870 H 724.543 0.696835 6.91498 0
M  V30 7871 H 727.734 0.17986 4.67754 0
M  V30 7872 H 727.907 0.501263 6.46058 0
M  V30 7873 N 721.313 -1.57302 -0.09688 0
M  V30 7874 C 722.276 -2.00976 -1.10188 0
M  V30 7875 C 723.276 -0.903009 -1.3305 0
M  V30 7876 O 724.466 -1.16853 -1.29194 0
M  V30 7877 C 721.598 -2.36893 -2.45142 0
M  V30 7878 H 722.791 -2.9098 -0.726003 0
M  V30 7879 H 720.344 -1.52515 -0.341872 0
M  V30 7880 H 721.079 -1.49837 -2.8761 0
M  V30 7881 H 720.864 -3.17632 -2.29897 0
M  V30 7882 H 722.354 -2.71345 -3.1743 0
M  V30 7883 N 722.791 0.367657 -1.53252 0
M  V30 7884 C 723.724 1.47264 -1.74323 0
M  V30 7885 C 724.702 1.51458 -0.591535 0
M  V30 7886 O 725.886 1.69542 -0.823883 0
M  V30 7887 C 723.013 2.85637 -1.82015 0
M  V30 7888 C 722.059 2.99176 -3.03967 0
M  V30 7889 S 722.892 2.68147 -4.63527 0
M  V30 7890 C 724.048 4.08673 -4.74065 0
M  V30 7891 H 724.281 1.29169 -2.67773 0
M  V30 7892 H 721.814 0.561866 -1.43814 0
M  V30 7893 H 723.772 3.65365 -1.87132 0
M  V30 7894 H 722.433 3.01043 -0.896195 0
M  V30 7895 H 721.626 4.00511 -3.05953 0
M  V30 7896 H 721.228 2.27367 -2.96952 0
M  V30 7897 H 723.52 5.02889 -4.53992 0
M  V30 7898 H 724.463 4.11693 -5.7612 0
M  V30 7899 H 724.871 3.95576 -4.02716 0
M  V30 7900 N 724.269 1.44576 0.627338 0
M  V30 7901 C 725.232 1.51372 1.72102 0
M  V30 7902 C 726.232 0.395329 1.55865 0
M  V30 7903 O 727.422 0.658094 1.61291 0
M  V30 7904 C 724.554 1.39129 3.11217 0
M  V30 7905 H 725.747 2.48798 1.6745 0
M  V30 7906 H 723.3 1.31724 0.841336 0
M  V30 7907 H 724.035 0.428114 3.21462 0
M  V30 7908 H 723.82 2.20229 3.24409 0
M  V30 7909 H 725.31 1.46874 3.90919 0
M  V30 7910 N 725.747 -0.868086 1.31537 0
M  V30 7911 C 727.024 -1.60384 1.11965 0
M  V30 7912 C 727.404 -2.08584 -0.324949 0
M  V30 7913 O 726.752 -1.86561 -1.31937 0
M  V30 7914 C 726.962 -2.76038 2.13551 0
M  V30 7915 C 728.31 -3.45954 2.46173 0
M  V30 7916 O 729.334 -2.86247 2.11993 0
M  V30 7917 O 728.193 -4.53666 3.04711 0
M  V30 7918 H 725.287 -0.705705 0.431172 0
M  V30 7919 H 727.833 -0.913385 1.43022 0
M  V30 7920 H 726.605 -2.37849 3.10714 0
M  V30 7921 H 726.228 -3.52769 1.83411 0
M  V30 7922 N 727.225 -1.14528 -1.08264 0
M  V30 7923 C 728.636 -0.925261 -1.6216 0
M  V30 7924 C 728.987 0.535587 -1.88748 0
M  V30 7925 O 728.112 1.4048 -1.64604 0
M  V30 7926 C 728.707 -1.67316 -2.94603 0
M  V30 7927 C 727.266 -1.49868 -3.45278 0
M  V30 7928 C 726.413 -1.69471 -2.19487 0
M  V30 7929 H 729.364 -1.29687 -0.914707 0
M  V30 7930 H 729.385 -1.13721 -3.63109 0
M  V30 7931 H 728.897 -2.73635 -2.75219 0
M  V30 7932 H 726.998 -0.459032 -3.69762 0
M  V30 7933 H 727.111 -2.2696 -4.21931 0
M  V30 7934 H 725.475 -1.12048 -2.2873 0
M  V30 7935 H 726.258 -2.77136 -2.0261 0
M  V30 7936 N 728.703 1.26451 -0.940633 0
M  V30 7937 C 729.613 2.30128 -0.455881 0
M  V30 7938 C 730.629 1.67536 0.469867 0
M  V30 7939 O 731.805 1.98344 0.349529 0
M  V30 7940 C 728.87 3.45634 0.271648 0
M  V30 7941 C 727.931 4.23709 -0.690594 0
M  V30 7942 C 727.164 5.337 0.00231047 0
M  V30 7943 O 727.387 5.57215 1.21935 0
M  V30 7944 O 726.321 5.98091 -0.676111 0
M  V30 7945 H 730.147 2.73655 -1.31707 0
M  V30 7946 H 727.732 1.3164 -0.706497 0
M  V30 7947 H 729.614 4.15853 0.681486 0
M  V30 7948 H 728.289 3.04138 1.10824 0
M  V30 7949 H 727.196 3.55974 -1.15037 0
M  V30 7950 H 728.529 4.68953 -1.49478 0
M  V30 7951 N 730.181 0.707592 1.40822 0
M  V30 7952 C 731.427 0.244031 2.01326 0
M  V30 7953 C 731.76 -1.15722 1.55955 0
M  V30 7954 O 731.035 -1.78347 0.776044 0
M  V30 7955 C 731.318 0.315128 3.58718 0
M  V30 7956 C 731.171 1.75419 4.14184 0
M  V30 7957 C 732.49 -0.318251 4.38948 0
M  V30 7958 H 729.609 0.0901471 0.731466 0
M  V30 7959 H 732.251 0.898584 1.67408 0
M  V30 7960 H 730.401 -0.242176 3.87744 0
M  V30 7961 H 732.073 2.36626 3.95987 0
M  V30 7962 H 730.316 2.28449 3.68773 0
M  V30 7963 H 730.987 1.75538 5.23345 0
M  V30 7964 H 733.463 0.156514 4.15806 0
M  V30 7965 H 732.339 -0.238019 5.48384 0
M  V30 7966 H 732.6 -1.40067 4.19325 0
M  V30 7967 N 731.66 -1.50943 0.453197 0
M  V30 7968 C 732.592 -2.25922 -0.38623 0
M  V30 7969 C 733.605 -1.3055 -0.972652 0
M  V30 7970 O 734.794 -1.56191 -0.864097 0
M  V30 7971 C 731.894 -3.01176 -1.5539 0
M  V30 7972 C 731.067 -4.23768 -1.0835 0
M  V30 7973 C 730.126 -4.81466 -2.12313 0
M  V30 7974 O 729.152 -5.42875 -1.71101 0
M  V30 7975 N 730.354 -4.66889 -3.44956 0
M  V30 7976 H 733.119 -2.98601 0.256468 0
M  V30 7977 H 730.68 -1.59408 0.282965 0
M  V30 7978 H 732.672 -3.36659 -2.24594 0
M  V30 7979 H 731.242 -2.31409 -2.10163 0
M  V30 7980 H 730.462 -3.93597 -0.217961 0
M  V30 7981 H 731.75 -5.03289 -0.746857 0
M  V30 7982 H 731.148 -4.18011 -3.81161 0
M  V30 7983 H 729.705 -5.06691 -4.1001 0
M  V30 7984 N 733.138 -0.185124 -1.56509 0
M  V30 7985 C 734.07 0.771401 -2.15829 0
M  V30 7986 C 735.083 1.18392 -1.11747 0
M  V30 7987 O 736.272 1.12137 -1.38879 0
M  V30 7988 C 733.372 2.05169 -2.69739 0
M  V30 7989 C 732.545 1.80056 -3.98621 0
M  V30 7990 C 731.604 2.92435 -4.37456 0
M  V30 7991 O 730.63 2.62473 -5.05071 0
M  V30 7992 N 731.832 4.20554 -4.00143 0
M  V30 7993 H 734.597 0.264184 -2.98533 0
M  V30 7994 H 732.158 -0.00281069 -1.619 0
M  V30 7995 H 734.15 2.7947 -2.92709 0
M  V30 7996 H 732.72 2.47041 -1.91545 0
M  V30 7997 H 731.94 0.895862 -3.83885 0
M  V30 7998 H 733.228 1.60662 -4.82768 0
M  V30 7999 H 732.626 4.47753 -3.45736 0
M  V30 8000 H 731.183 4.91514 -4.28085 0
M  V30 8001 N 734.616 1.57351 0.0885366 0
M  V30 8002 C 735.865 1.85604 0.789556 0
M  V30 8003 C 736.178 0.775352 1.79576 0
M  V30 8004 O 737.384 0.945206 2.54515 0
M  V30 8005 C 735.84 3.29175 1.45506 0
M  V30 8006 C 735.448 4.45331 0.488278 0
M  V30 8007 C 737.192 3.66646 2.13942 0
M  V30 8008 C 735.099 5.79937 1.15874 0
M  V30 8009 H 734.029 0.692346 0.298619 0
M  V30 8010 H 736.68 1.83451 0.0425821 0
M  V30 8011 H 735.062 3.25889 2.24972 0
M  V30 8012 H 736.236 4.59977 -0.275359 0
M  V30 8013 H 734.551 4.16301 -0.0907363 0
M  V30 8014 H 737.148 4.64498 2.6485 0
M  V30 8015 H 737.491 2.956 2.93132 0
M  V30 8016 H 738.024 3.71848 1.41328 0
M  V30 8017 H 734.763 6.54232 0.407508 0
M  V30 8018 H 734.283 5.69123 1.89364 0
M  V30 8019 H 735.962 6.24718 1.68336 0
M  V30 8020 N 736.094 -0.359525 1.53444 0
M  V30 8021 C 737.027 -1.46338 1.75101 0
M  V30 8022 C 738.005 -1.51142 0.599559 0
M  V30 8023 O 739.189 -1.69102 0.832862 0
M  V30 8024 C 736.316 -2.84667 1.83527 0
M  V30 8025 C 735.362 -2.9756 3.05549 0
M  V30 8026 S 736.195 -2.65685 4.64943 0
M  V30 8027 C 737.351 -4.06153 4.76225 0
M  V30 8028 H 737.584 -1.27747 2.68455 0
M  V30 8029 H 735.117 -0.554231 1.4411 0
M  V30 8030 H 737.075 -3.64368 1.89067 0
M  V30 8031 H 735.736 -3.00564 0.912147 0
M  V30 8032 H 734.929 -3.98883 3.08072 0
M  V30 8033 H 734.531 -2.25789 2.98153 0
M  V30 8034 H 736.823 -5.00475 4.56652 0
M  V30 8035 H 737.766 -4.08632 5.78295 0
M  V30 8036 H 738.174 -3.93435 4.04808 0
M  V30 8037 N 737.572 -1.44907 -0.619662 0
M  V30 8038 C 738.797 -1.52021 -1.41083 0
M  V30 8039 C 739.222 -0.14976 -1.87503 0
M  V30 8040 O 738.58 0.863303 -1.59426 0
M  V30 8041 C 738.628 -2.49911 -2.59955 0
M  V30 8042 O 737.732 -2.00857 -3.60181 0
M  V30 8043 H 737.073 -0.512912 -0.421684 0
M  V30 8044 H 739.603 -1.90149 -0.755282 0
M  V30 8045 H 739.613 -2.68323 -3.07354 0
M  V30 8046 H 738.288 -3.4945 -2.25516 0
M  V30 8047 H 736.865 -1.92265 -3.19513 0
M  V30 8048 N 739.05 0.861098 -1.31996 0
M  V30 8049 C 740.327 1.59788 -1.12814 0
M  V30 8050 C 740.707 2.08753 0.313882 0
M  V30 8051 O 740.055 1.87258 1.30946 0
M  V30 8052 C 740.265 2.74901 -2.15012 0
M  V30 8053 C 741.613 3.44643 -2.48004 0
M  V30 8054 O 742.637 2.85119 -2.13508 0
M  V30 8055 O 741.496 4.52044 -3.07113 0
M  V30 8056 H 738.59 0.703408 -0.434909 0
M  V30 8057 H 741.136 0.905788 -1.43505 0
M  V30 8058 H 739.908 2.36198 -3.11971 0
M  V30 8059 H 739.531 3.51792 -1.85279 0
M  V30 8060 N 740.528 1.15101 1.07655 0
M  V30 8061 C 741.939 0.933848 1.61667 0
M  V30 8062 C 742.29 -0.525569 1.8903 0
M  V30 8063 O 741.415 -1.39605 1.65346 0
M  V30 8064 C 742.01 1.68876 2.93711 0
M  V30 8065 C 740.569 1.51697 3.44478 0
M  V30 8066 C 739.716 1.70633 2.18586 0
M  V30 8067 H 742.667 1.30171 0.907816 0
M  V30 8068 H 742.688 1.15645 3.625 0
M  V30 8069 H 742.2 2.7509 2.73764 0
M  V30 8070 H 740.301 0.478635 3.69513 0
M  V30 8071 H 740.414 2.29194 4.20722 0
M  V30 8072 H 738.778 1.13259 2.28132 0
M  V30 8073 H 739.561 2.78206 2.01137 0
M  V30 8074 N 742.006 -1.2595 0.947325 0
M  V30 8075 C 742.969 -2.24407 0.466285 0
M  V30 8076 C 743.969 -1.55054 -0.426005 0
M  V30 8077 O 745.159 -1.7275 -0.224319 0
M  V30 8078 C 742.291 -3.39326 -0.327201 0
M  V30 8079 H 743.484 -2.68477 1.33642 0
M  V30 8080 H 741.037 -1.38211 0.729887 0
M  V30 8081 H 741.772 -3.00667 -1.21532 0
M  V30 8082 H 741.557 -3.9085 0.312839 0
M  V30 8083 H 743.047 -4.12455 -0.653477 0
M  V30 8084 N 743.484 -0.715051 -1.40445 0
M  V30 8085 C 744.417 -0.0112426 -2.28197 0
M  V30 8086 C 745.395 0.768211 -1.43308 0
M  V30 8087 O 746.579 0.754961 -1.72721 0
M  V30 8088 C 743.706 0.991453 -3.23864 0
M  V30 8089 C 742.752 0.302873 -4.25423 0
M  V30 8090 S 743.585 -0.968852 -5.26663 0
M  V30 8091 C 744.741 0.0317538 -6.25892 0
M  V30 8092 H 744.974 -0.755467 -2.87541 0
M  V30 8093 H 742.507 -0.506054 -1.45871 0
M  V30 8094 H 744.465 1.56475 -3.79507 0
M  V30 8095 H 743.126 1.70838 -2.63578 0
M  V30 8096 H 742.319 1.06086 -4.92709 0
M  V30 8097 H 741.921 -0.197853 -3.73476 0
M  V30 8098 H 744.213 0.878764 -6.71777 0
M  V30 8099 H 745.156 -0.607698 -7.05488 0
M  V30 8100 H 745.564 0.39524 -5.63115 0
M  V30 8101 N 744.962 1.50701 -0.461195 0
M  V30 8102 C 746.378 1.59187 -0.114786 0
M  V30 8103 C 746.578 1.4702 1.37794 0
M  V30 8104 O 745.634 1.32361 2.15027 0
M  V30 8105 C 746.947 2.93453 -0.656167 0
M  V30 8106 C 748.495 3.06824 -0.618715 0
M  V30 8107 C 748.97 4.4365 -1.13747 0
M  V30 8108 N 750.461 4.50035 -1.09646 0
M  V30 8109 C 751.196 5.54278 -1.46846 0
M  V30 8110 N 750.692 6.65822 -1.91448 0
M  V30 8111 N 752.485 5.44767 -1.38512 0
M  V30 8112 H 744.636 1.56853 -1.43216 0
M  V30 8113 H 746.899 0.740712 -0.59165 0
M  V30 8114 H 746.605 3.07802 -1.7015 0
M  V30 8115 H 746.479 3.77082 -0.0942261 0
M  V30 8116 H 748.866 2.92129 0.417685 0
M  V30 8117 H 748.947 2.24976 -1.21734 0
M  V30 8118 H 748.591 4.59093 -2.17245 0
M  V30 8119 H 748.521 5.24074 -0.515153 0
M  V30 8120 H 751.012 3.69988 -0.769217 0
M  V30 8121 H 751.325 7.41413 -2.18007 0
M  V30 8122 H 749.67 6.66968 -1.95393 0
M  V30 8123 H 752.861 4.56511 -1.03516 0
M  V30 8124 H 753.034 6.25889 -1.6783 0
M  V30 8125 N 746.441 0.193421 1.56409 0
M  V30 8126 C 747.371 -0.723334 2.22014 0
M  V30 8127 C 748.352 -1.22254 1.1827 0
M  V30 8128 O 749.537 -1.27168 1.46771 0
M  V30 8129 C 746.667 -1.94366 2.87818 0
M  V30 8130 C 745.621 -1.57943 3.97791 0
M  V30 8131 C 744.947 -2.87623 4.50752 0
M  V30 8132 C 746.247 -0.790639 5.16281 0
M  V30 8133 H 747.941 -0.176426 2.9888 0
M  V30 8134 H 745.487 -0.0834166 1.43758 0
M  V30 8135 H 747.44 -2.5902 3.32396 0
M  V30 8136 H 746.164 -2.51507 2.08355 0
M  V30 8137 H 744.823 -0.956482 3.53903 0
M  V30 8138 H 744.471 -3.4285 3.68053 0
M  V30 8139 H 744.171 -2.63998 5.24956 0
M  V30 8140 H 745.695 -3.53268 4.9803 0
M  V30 8141 H 747.109 -1.34024 5.57414 0
M  V30 8142 H 745.506 -0.65258 5.96541 0
M  V30 8143 H 746.576 0.208633 4.84451 0
M  V30 8144 N 747.919 -1.57396 -0.0801906 0
M  V30 8145 C 749.168 -1.8602 -0.779702 0
M  V30 8146 C 749.481 -0.784864 -1.79163 0
M  V30 8147 O 750.687 -0.958691 -2.54011 0
M  V30 8148 C 749.143 -3.29942 -1.43758 0
M  V30 8149 C 748.751 -4.45584 -0.464654 0
M  V30 8150 C 750.495 -3.67775 -2.11995 0
M  V30 8151 C 748.402 -5.80544 -1.12797 0
M  V30 8152 H 747.332 -0.69392 -0.294943 0
M  V30 8153 H 749.983 -1.83471 -0.0328527 0
M  V30 8154 H 748.365 -3.27078 -2.2324 0
M  V30 8155 H 749.539 -4.59824 0.299749 0
M  V30 8156 H 747.854 -4.16247 0.112813 0
M  V30 8157 H 750.451 -4.65896 -2.62383 0
M  V30 8158 H 750.794 -2.9715 -2.91561 0
M  V30 8159 H 751.327 -3.72593 -1.39354 0
M  V30 8160 H 748.066 -6.54439 -0.372807 0
M  V30 8161 H 747.586 -5.70119 -1.86344 0
M  V30 8162 H 749.265 -6.25602 -1.6502 0
M  V30 8163 N 749.397 0.351382 -1.53633 0
M  V30 8164 C 750.327 1.43688 -1.84055 0
M  V30 8165 C 751.308 1.55251 -0.695073 0
M  V30 8166 O 752.493 1.69587 -0.946257 0
M  V30 8167 C 749.623 2.80843 -2.04315 0
M  V30 8168 C 748.577 2.84094 -3.20117 0
M  V30 8169 C 747.903 4.2406 -3.25696 0
M  V30 8170 C 749.203 2.50334 -4.58399 0
M  V30 8171 H 750.897 1.18478 -2.74961 0
M  V30 8172 H 748.443 0.568509 -1.32303 0
M  V30 8173 H 750.396 3.56821 -2.2418 0
M  V30 8174 H 749.12 3.07471 -1.10132 0
M  V30 8175 H 747.779 2.10568 -3.00094 0
M  V30 8176 H 747.427 4.47785 -2.29123 0
M  V30 8177 H 747.127 4.27147 -4.03509 0
M  V30 8178 H 748.651 5.0189 -3.47762 0
M  V30 8179 H 750.065 3.16025 -4.78332 0
M  V30 8180 H 748.462 2.64717 -5.38558 0
M  V30 8181 H 749.532 1.45542 -4.62543 0
M  V30 8182 N 750.875 1.45233 0.611969 0
M  V30 8183 C 751.785 1.56098 1.7513 0
M  V30 8184 C 752.801 0.445646 1.68196 0
M  V30 8185 O 753.977 0.705718 1.88631 0
M  V30 8186 C 751.042 1.52052 3.11579 0
M  V30 8187 C 750.103 2.74589 3.29999 0
M  V30 8188 C 749.336 2.70726 4.59938 0
M  V30 8189 O 749.559 1.77806 5.41979 0
M  V30 8190 O 748.493 3.61864 4.80976 0
M  V30 8191 H 752.319 2.52392 1.68914 0
M  V30 8192 H 749.904 1.27695 0.775528 0
M  V30 8193 H 751.786 1.52387 3.92882 0
M  V30 8194 H 750.461 0.589085 3.18295 0
M  V30 8195 H 749.368 2.79817 2.48301 0
M  V30 8196 H 750.701 3.66843 3.28157 0
M  V30 8197 N 752.353 -0.854086 1.3245 0
M  V30 8198 C 753.285 -1.96932 1.17262 0
M  V30 8199 C 754.298 -1.62445 0.107469 0
M  V30 8200 O 755.487 -1.74904 0.356481 0
M  V30 8201 C 752.587 -3.29971 0.772817 0
M  V30 8202 C 751.76 -3.92695 1.92638 0
M  V30 8203 C 750.819 -5.04068 1.51003 0
M  V30 8204 O 749.845 -5.24032 2.22213 0
M  V30 8205 N 751.047 -5.79076 0.406371 0
M  V30 8206 H 753.812 -2.10503 2.13327 0
M  V30 8207 H 751.373 -1.02897 1.24995 0
M  V30 8208 H 753.365 -4.01883 0.476684 0
M  V30 8209 H 751.935 -3.1245 -0.0967 0
M  V30 8210 H 751.155 -3.13563 2.38897 0
M  V30 8211 H 752.443 -4.31337 2.69863 0
M  V30 8212 H 751.841 -5.65393 -0.186302 0
M  V30 8213 H 750.398 -6.51579 0.169846 0
M  V30 8214 N 753.831 -1.1567 -1.07043 0
M  V30 8215 C 754.764 -0.799867 -2.13723 0
M  V30 8216 C 755.742 0.225098 -1.61034 0
M  V30 8217 O 756.926 0.11093 -1.88173 0
M  V30 8218 C 754.053 -0.18997 -3.38167 0
M  V30 8219 C 753.099 -1.18733 -4.0964 0
M  V30 8220 S 753.932 -2.73074 -4.60642 0
M  V30 8221 C 755.088 -2.13512 -5.88356 0
M  V30 8222 H 755.321 -1.70342 -2.43661 0
M  V30 8223 H 752.854 -0.979377 -1.19363 0
M  V30 8224 H 754.812 0.155471 -4.10205 0
M  V30 8225 H 753.473 0.691229 -3.064 0
M  V30 8226 H 752.666 -0.708873 -4.9899 0
M  V30 8227 H 752.268 -1.47747 -3.43579 0
M  V30 8228 H 754.56 -1.49911 -6.60706 0
M  V30 8229 H 755.503 -3.01042 -6.40921 0
M  V30 8230 H 755.911 -1.57693 -5.42027 0
M  V30 8231 N 755.309 1.25446 -0.953992 0
M  V30 8232 C 756.241 2.25111 -0.431004 0
M  V30 8233 C 757.254 1.56377 0.452764 0
M  V30 8234 O 758.443 1.76579 0.261144 0
M  V30 8235 C 755.543 3.3655 0.39839 0
M  V30 8236 C 754.716 4.34843 -0.472229 0
M  V30 8237 C 753.775 5.25351 0.29886 0
M  V30 8238 O 752.801 5.68396 -0.302522 0
M  V30 8239 N 754.003 5.5824 1.59211 0
M  V30 8240 H 756.768 2.70619 -1.28785 0
M  V30 8241 H 754.329 1.39346 -0.824281 0
M  V30 8242 H 756.321 3.94059 0.921941 0
M  V30 8243 H 754.891 2.90436 1.15609 0
M  V30 8244 H 754.111 3.76222 -1.17689 0
M  V30 8245 H 755.399 4.97497 -1.06648 0
M  V30 8246 H 754.797 5.25172 2.10264 0
M  V30 8247 H 753.354 6.18336 2.06164 0
M  V30 8248 N 756.787 0.722489 1.40064 0
M  V30 8249 C 757.734 0.0743738 2.3068 0
M  V30 8250 C 758.704 -0.743004 1.48555 0
M  V30 8251 O 759.889 -0.705536 1.77276 0
M  V30 8252 C 757.029 -0.836292 3.34814 0
M  V30 8253 C 756.142 -0.00764663 4.31999 0
M  V30 8254 C 755.277 -0.918428 5.232 0
M  V30 8255 C 754.316 -0.0842838 6.12042 0
M  V30 8256 N 753.453 -0.950316 6.95639 0
M  V30 8257 H 758.293 0.852794 2.85537 0
M  V30 8258 H 755.83 0.432222 1.40607 0
M  V30 8259 H 757.788 -1.3786 3.93765 0
M  V30 8260 H 756.418 -1.58082 2.81443 0
M  V30 8261 H 755.47 0.651928 3.74772 0
M  V30 8262 H 756.782 0.63786 4.94705 0
M  V30 8263 H 755.936 -1.52902 5.87116 0
M  V30 8264 H 754.675 -1.59774 4.60786 0
M  V30 8265 H 753.68 0.5392 5.4715 0
M  V30 8266 H 754.905 0.591628 6.76518 0
M  V30 8267 H 752.851 -1.61515 6.35806 0
M  V30 8268 H 752.768 -0.361004 7.55138 0
M  V30 8269 H 754.036 -1.54687 7.63997 0
M  V30 8270 N 758.265 -1.50454 0.469181 0
M  V30 8271 C 759.542 -1.9504 -0.147955 0
M  V30 8272 C 759.922 -1.40946 -1.57154 0
M  V30 8273 O 759.27 -0.609663 -2.20217 0
M  V30 8274 C 759.48 -3.48875 -0.0932198 0
M  V30 8275 C 760.828 -4.23655 -0.283056 0
M  V30 8276 O 761.852 -3.55795 -0.169892 0
M  V30 8277 O 760.711 -5.44102 -0.511396 0
M  V30 8278 H 757.805 -0.819283 -0.11271 0
M  V30 8279 H 760.351 -1.6123 0.529446 0
M  V30 8280 H 759.123 -3.80791 0.900784 0
M  V30 8281 H 758.746 -3.89217 -0.812161 0
M  V30 8282 N 759.743 -0.201713 -1.56304 0
M  V30 8283 C 761.154 0.309711 -1.84113 0
M  V30 8284 C 761.505 1.60912 -1.12258 0
M  V30 8285 O 760.63 2.12937 -0.385587 0
M  V30 8286 C 761.225 0.568706 -3.33993 0
M  V30 8287 C 759.784 1.02448 -3.6219 0
M  V30 8288 C 758.931 0.0766842 -2.77194 0
M  V30 8289 H 761.882 -0.425356 -1.52893 0
M  V30 8290 H 761.903 1.41721 -3.53122 0
M  V30 8291 H 761.415 -0.37719 -3.86263 0
M  V30 8292 H 759.516 1.98443 -3.15359 0
M  V30 8293 H 759.629 0.912619 -4.70328 0
M  V30 8294 H 757.993 0.579809 -2.48013 0
M  V30 8295 H 758.776 -0.863774 -3.32256 0
M  V30 8296 N 761.222 1.57436 0.0718424 0
M  V30 8297 C 762.154 2.00412 1.1121 0
M  V30 8298 C 763.167 0.910074 1.34987 0
M  V30 8299 O 764.356 1.18796 1.33228 0
M  V30 8300 C 761.456 2.32786 2.46301 0
M  V30 8301 C 760.629 3.64036 2.4248 0
M  V30 8302 C 759.688 3.8408 3.59679 0
M  V30 8303 O 758.714 4.55667 3.4111 0
M  V30 8304 N 759.916 3.2643 4.80025 0
M  V30 8305 H 762.681 2.90264 0.746118 0
M  V30 8306 H 760.242 1.59791 0.260495 0
M  V30 8307 H 762.234 2.43368 3.23348 0
M  V30 8308 H 760.804 1.48824 2.74901 0
M  V30 8309 H 760.024 3.64208 1.50818 0
M  V30 8310 H 761.312 4.50217 2.37027 0
M  V30 8311 H 760.71 2.68325 4.98014 0
M  V30 8312 H 759.267 3.42461 5.54584 0
M  V30 8313 N 762.7 -0.34323 1.53817 0
M  V30 8314 C 763.663 -1.40444 1.8113 0
M  V30 8315 C 764.663 -1.45604 0.682366 0
M  V30 8316 O 765.853 -1.45974 0.950649 0
M  V30 8317 C 762.985 -2.79369 1.95361 0
M  V30 8318 H 764.178 -1.17489 2.75928 0
M  V30 8319 H 761.731 -0.577636 1.45234 0
M  V30 8320 H 762.466 -3.07607 1.02707 0
M  V30 8321 H 762.251 -2.7702 2.77493 0
M  V30 8322 H 763.741 -3.56178 2.18008 0
M  V30 8323 N 764.178 -1.45556 -0.604258 0
M  V30 8324 C 765.108 -1.57327 -1.72541 0
M  V30 8325 C 766.089 -0.424637 -1.64714 0
M  V30 8326 O 767.274 -0.648196 -1.83063 0
M  V30 8327 C 764.404 -1.54279 -3.11152 0
M  V30 8328 C 763.358 -2.67893 -3.33792 0
M  V30 8329 C 762.684 -2.499 -4.72709 0
M  V30 8330 C 763.984 -4.0988 -3.23722 0
M  V30 8331 H 765.678 -2.51175 -1.62947 0
M  V30 8332 H 763.224 -1.20884 -0.782504 0
M  V30 8333 H 765.177 -1.6111 -3.89386 0
M  V30 8334 H 763.901 -0.569627 -3.21594 0
M  V30 8335 H 762.56 -2.60495 -2.57949 0
M  V30 8336 H 762.208 -1.50715 -4.79889 0
M  V30 8337 H 761.908 -3.26091 -4.88813 0
M  V30 8338 H 763.432 -2.5859 -5.5314 0
M  V30 8339 H 764.846 -4.18503 -3.91826 0
M  V30 8340 H 763.243 -4.86487 -3.51355 0
M  V30 8341 H 764.313 -4.31553 -2.21111 0
M  V30 8342 N 765.656 0.84705 -1.32902 0
M  V30 8343 C 766.881 1.63925 -1.27056 0
M  V30 8344 C 767.306 1.87443 0.157136 0
M  V30 8345 O 766.664 1.43266 1.11106 0
M  V30 8346 C 766.712 2.97134 -2.04313 0
M  V30 8347 O 765.816 3.88049 -1.39614 0
M  V30 8348 H 765.157 0.499477 -0.437514 0
M  V30 8349 H 767.687 1.05443 -1.75336 0
M  V30 8350 H 767.697 3.46896 -2.14772 0
M  V30 8351 H 766.372 2.79339 -3.08128 0
M  V30 8352 H 764.949 3.46525 -1.3775 0
M  V30 8353 N 767.134 1.16236 1.06428 0
M  V30 8354 C 768.044 0.881976 2.1739 0
M  V30 8355 C 769.06 -0.145259 1.73393 0
M  V30 8356 O 770.236 0.0310558 2.01376 0
M  V30 8357 C 767.301 0.385496 3.4455 0
M  V30 8358 C 766.362 1.47779 4.03063 0
M  V30 8359 C 765.595 1.0049 5.24154 0
M  V30 8360 O 765.818 -0.145889 5.70213 0
M  V30 8361 O 764.752 1.79265 5.74585 0
M  V30 8362 H 768.578 1.80983 2.43883 0
M  V30 8363 H 766.163 0.942226 1.15942 0
M  V30 8364 H 768.045 0.115536 4.21242 0
M  V30 8365 H 766.72 -0.514369 3.19587 0
M  V30 8366 H 765.627 1.80147 3.27869 0
M  V30 8367 H 766.96 2.35291 4.32318 0
M  V30 8368 N 768.612 -1.24939 0.960631 0
M  V30 8369 C 769.562 -2.23388 0.456266 0
M  V30 8370 C 770.546 -1.54249 -0.45782 0
M  V30 8371 O 771.738 -1.7461 -0.289894 0
M  V30 8372 C 768.867 -3.42321 -0.259024 0
M  V30 8373 C 767.953 -4.18718 0.673478 0
M  V30 8374 N 768.344 -4.72394 1.8077 0
M  V30 8375 C 766.642 -4.43378 0.482859 0
M  V30 8376 C 767.343 -5.30316 2.3904 0
M  V30 8377 N 766.319 -5.17109 1.67629 0
M  V30 8378 H 770.121 -2.62499 1.32179 0
M  V30 8379 H 767.635 -1.40245 0.818851 0
M  V30 8380 H 769.632 -4.11997 -0.637527 0
M  V30 8381 H 768.292 -3.04732 -1.12108 0
M  V30 8382 H 769.303 -4.69345 2.18942 0
M  V30 8383 H 765.98 -4.16147 -0.335821 0
M  V30 8384 H 767.37 -5.82594 3.34715 0
M  V30 8385 N 770.09 -0.729906 -1.39679 0
M  V30 8386 C 771.02 -0.101618 -2.33279 0
M  V30 8387 C 772.001 0.729854 -1.53646 0
M  V30 8388 O 773.186 0.67587 -1.82059 0
M  V30 8389 C 770.316 0.81024 -3.37716 0
M  V30 8390 C 769.27 0.0833126 -4.27919 0
M  V30 8391 C 768.596 1.11185 -5.23012 0
M  V30 8392 C 769.896 -1.07107 -5.112 0
M  V30 8393 H 771.59 -0.883452 -2.86069 0
M  V30 8394 H 769.136 -0.426283 -1.37546 0
M  V30 8395 H 771.089 1.25927 -4.02145 0
M  V30 8396 H 769.813 1.62413 -2.83354 0
M  V30 8397 H 768.472 -0.346043 -3.64963 0
M  V30 8398 H 768.12 1.91917 -4.64948 0
M  V30 8399 H 767.82 0.63026 -5.8421 0
M  V30 8400 H 769.344 1.56068 -5.90318 0
M  V30 8401 H 770.758 -0.700726 -5.69002 0
M  V30 8402 H 769.155 -1.48196 -5.81514 0
M  V30 8403 H 770.225 -1.89513 -4.46332 0
M  V30 8404 N 771.568 1.50203 -0.477153 0
M  V30 8405 C 772.515 2.28656 0.31386 0
M  V30 8406 C 773.485 1.33977 0.981802 0
M  V30 8407 O 774.67 1.62919 0.993072 0
M  V30 8408 C 771.81 3.16027 1.38639 0
M  V30 8409 C 770.923 4.25743 0.732615 0
M  V30 8410 C 770.058 5.00363 1.78355 0
M  V30 8411 C 769.097 6.01945 1.11035 0
M  V30 8412 N 768.234 6.6982 2.10441 0
M  V30 8413 H 773.074 2.958 -0.361445 0
M  V30 8414 H 770.611 1.45867 -0.190093 0
M  V30 8415 H 772.569 3.6504 2.01994 0
M  V30 8416 H 771.199 2.50917 2.03077 0
M  V30 8417 H 770.251 3.80398 -0.0136546 0
M  V30 8418 H 771.563 4.98393 0.201513 0
M  V30 8419 H 770.717 5.53124 2.49276 0
M  V30 8420 H 769.456 4.27432 2.34847 0
M  V30 8421 H 768.461 5.48438 0.386797 0
M  V30 8422 H 769.686 6.76851 0.552248 0
M  V30 8423 H 767.632 5.99677 2.65939 0
M  V30 8424 H 767.549 7.38366 1.62332 0
M  V30 8425 H 768.817 7.27196 2.80724 0
M  V30 8426 N 773.046 0.209999 1.56195 0
M  V30 8427 C 773.994 -0.721416 2.2113 0
M  V30 8428 C 774.988 -1.20852 1.18706 0
M  V30 8429 O 776.194 -1.16968 1.36815 0
M  V30 8430 H 772.569 -0.251033 0.708863 0
M  V30 8431 H 774.54 -0.150193 2.98022 0
M  V30 8432 C 773.289 -1.92392 2.89621 0
M  V30 8433 H 772.612 -1.5582 3.68185 0
M  V30 8434 H 774.052 -2.55367 3.38473 0
M  V30 8435 C 772.511 -2.77208 1.91461 0
M  V30 8436 O 773.041 -3.75603 1.42426 0
M  V30 8437 N 771.247 -2.43006 1.59363 0
M  V30 8438 H 770.794 -1.63047 1.99433 0
M  V30 8439 H 770.752 -3.00036 0.939449 0
M  V30 8440 N 774.524 -1.57472 -0.0634922 0
M  V30 8441 C 775.935 -1.76303 -0.614337 0
M  V30 8442 C 776.286 -0.836578 -1.77471 0
M  V30 8443 O 775.411 -0.0227184 -2.16388 0
M  V30 8444 C 776.006 -3.19709 -1.12122 0
M  V30 8445 C 774.565 -3.39856 -1.61786 0
M  V30 8446 C 773.712 -2.71975 -0.540845 0
M  V30 8447 H 776.663 -1.57864 0.162702 0
M  V30 8448 H 776.684 -3.24326 -1.98979 0
M  V30 8449 H 776.196 -3.87114 -0.276472 0
M  V30 8450 H 774.297 -2.77578 -2.48558 0
M  V30 8451 H 774.41 -4.48338 -1.68908 0
M  V30 8452 H 772.774 -2.34763 -0.987854 0
M  V30 8453 H 773.557 -3.4204 0.293856 0
M  V30 8454 N 776.003 0.335068 -1.53997 0
M  V30 8455 C 777.249 1.07594 -1.71905 0
M  V30 8456 C 777.582 1.88039 -0.485264 0
M  V30 8457 O 776.857 1.87482 0.517752 0
M  V30 8458 C 777.14 2.01016 -2.98772 0
M  V30 8459 C 776.993 1.23977 -4.32377 0
M  V30 8460 C 778.312 3.0071 -3.21343 0
M  V30 8461 H 775.431 0.38976 -0.625505 0
M  V30 8462 H 778.073 0.353684 -1.86679 0
M  V30 8463 H 776.223 2.62603 -2.86307 0
M  V30 8464 H 777.895 0.649383 -4.56706 0
M  V30 8465 H 776.138 0.541878 -4.30402 0
M  V30 8466 H 776.809 1.92512 -5.17342 0
M  V30 8467 H 779.285 2.4924 -3.33194 0
M  V30 8468 H 778.161 3.63272 -4.11491 0
M  V30 8469 H 778.422 3.72549 -2.38033 0
M  V30 8470 N 777.481 1.45874 0.596531 0
M  V30 8471 C 778.73 1.49737 1.35135 0
M  V30 8472 C 779.043 0.147755 1.95041 0
M  V30 8473 O 780.249 0.0640984 2.71424 0
M  V30 8474 C 778.705 2.6378 2.44843 0
M  V30 8475 C 778.313 4.05102 1.91301 0
M  V30 8476 C 780.057 2.769 3.21755 0
M  V30 8477 C 777.964 5.10508 2.98557 0
M  V30 8478 H 776.894 0.557219 0.507959 0
M  V30 8479 H 779.545 1.72046 0.638147 0
M  V30 8480 H 777.927 2.34774 3.189 0
M  V30 8481 H 779.101 4.43836 1.2388 0
M  V30 8482 H 777.416 3.96528 1.271 0
M  V30 8483 H 780.013 3.52819 4.01775 0
M  V30 8484 H 780.356 1.83924 3.73467 0
M  V30 8485 H 780.889 3.05485 2.54802 0
M  V30 8486 H 777.628 6.0523 2.51749 0
M  V30 8487 H 777.148 4.76332 3.6451 0
M  V30 8488 H 778.827 5.35745 3.62748 0
M  V30 8489 N 778.959 -0.83999 1.33349 0
M  V30 8490 C 779.922 -1.93128 1.23426 0
M  V30 8491 C 780.922 -1.60065 0.153599 0
M  V30 8492 O 782.112 -1.69425 0.405049 0
M  V30 8493 C 779.244 -3.28761 0.901622 0
M  V30 8494 H 780.437 -2.03352 2.20427 0
M  V30 8495 H 777.99 -1.03194 1.17391 0
M  V30 8496 H 778.725 -3.24233 -0.0659337 0
M  V30 8497 H 778.51 -3.54138 1.68311 0
M  V30 8498 H 780 -4.08714 0.856913 0
M  V30 8499 N 780.437 -1.16799 -1.0581 0
M  V30 8500 C 781.369 -0.836774 -2.13379 0
M  V30 8501 C 782.382 0.158116 -1.6203 0
M  V30 8502 O 783.571 -0.0673211 -1.78373 0
M  V30 8503 C 780.671 -0.225959 -3.38146 0
M  V30 8504 C 779.844 -1.26217 -4.18794 0
M  V30 8505 C 778.903 -0.670257 -5.21914 0
M  V30 8506 O 777.929 -1.34042 -5.53192 0
M  V30 8507 N 779.131 0.540683 -5.77977 0
M  V30 8508 H 781.896 -1.76257 -2.42391 0
M  V30 8509 H 779.457 -1.06599 -1.21853 0
M  V30 8510 H 781.449 0.18317 -4.04285 0
M  V30 8511 H 780.019 0.603494 -3.06719 0
M  V30 8512 H 779.239 -1.84729 -3.48237 0
M  V30 8513 H 780.527 -1.9613 -4.69479 0
M  V30 8514 H 779.925 1.10322 -5.54838 0
M  V30 8515 H 778.482 0.891958 -6.45668 0
M  V30 8516 N 781.915 1.24427 -0.967243 0
M  V30 8517 C 782.862 2.25398 -0.496419 0
M  V30 8518 C 783.832 1.59667 0.457781 0
M  V30 8519 O 785.017 1.87213 0.368246 0
M  V30 8520 C 782.157 3.44474 0.207693 0
M  V30 8521 C 781.27 4.24804 -0.785221 0
M  V30 8522 C 780.405 5.31169 -0.0572631 0
M  V30 8523 C 779.444 6.03195 -1.04027 0
M  V30 8524 N 778.581 7.01265 -0.34235 0
M  V30 8525 H 783.421 2.65039 -1.36229 0
M  V30 8526 H 780.958 1.30288 -0.682902 0
M  V30 8527 H 782.916 4.12376 0.632612 0
M  V30 8528 H 781.546 3.05672 1.03752 0
M  V30 8529 H 780.598 3.56445 -1.32858 0
M  V30 8530 H 781.91 4.74599 -1.53483 0
M  V30 8531 H 781.064 6.05205 0.425674 0
M  V30 8532 H 779.803 4.8228 0.725047 0
M  V30 8533 H 778.808 5.27964 -1.53409 0
M  V30 8534 H 780.033 6.54173 -1.82302 0
M  V30 8535 H 777.979 6.54648 0.420993 0
M  V30 8536 H 777.896 7.48939 -1.03084 0
M  V30 8537 H 779.164 7.7941 0.118634 0
M  V30 8538 N 783.393 0.737304 1.3929 0
M  V30 8539 C 784.642 0.283129 1.99703 0
M  V30 8540 C 784.955 -1.13677 1.59176 0
M  V30 8541 O 786.161 -1.69058 2.12442 0
M  V30 8542 C 784.617 0.455262 3.57009 0
M  V30 8543 C 784.225 1.88319 4.06497 0
M  V30 8544 C 785.969 0.0629786 4.24453 0
M  V30 8545 C 783.876 2.00475 5.56385 0
M  V30 8546 H 782.806 0.102106 0.747054 0
M  V30 8547 H 785.457 0.911515 1.5926 0
M  V30 8548 H 783.839 -0.242057 3.9526 0
M  V30 8549 H 785.013 2.61265 3.79575 0
M  V30 8550 H 783.328 2.2289 3.51723 0
M  V30 8551 H 785.925 0.132787 5.34535 0
M  V30 8552 H 786.268 -0.982128 4.04549 0
M  V30 8553 H 786.801 0.71154 3.91385 0
M  V30 8554 H 783.54 3.03182 5.81172 0
M  V30 8555 H 783.06 1.31969 5.85102 0
M  V30 8556 H 784.739 1.787 6.21832 0
M  V30 8557 N 784.871 -1.49948 0.485112 0
M  V30 8558 C 785.803 -2.26691 -0.338222 0
M  V30 8559 C 786.816 -1.32584 -0.944742 0
M  V30 8560 O 788.005 -1.57989 -0.830772 0
M  V30 8561 C 785.105 -3.04405 -1.48966 0
M  V30 8562 C 784.278 -4.25971 -0.993371 0
M  V30 8563 C 783.337 -4.85861 -2.02052 0
M  V30 8564 O 782.363 -5.46382 -1.59547 0
M  V30 8565 N 783.565 -4.74101 -3.34975 0
M  V30 8566 H 786.33 -2.97989 0.319748 0
M  V30 8567 H 783.891 -1.58772 0.316714 0
M  V30 8568 H 785.883 -3.41348 -2.17403 0
M  V30 8569 H 784.453 -2.35815 -2.05207 0
M  V30 8570 H 783.673 -3.93971 -0.134424 0
M  V30 8571 H 784.961 -5.0476 -0.639934 0
M  V30 8572 H 784.359 -4.26002 -3.72208 0
M  V30 8573 H 782.916 -5.15274 -3.9917 0
M  V30 8574 N 786.349 -0.21828 -1.56081 0
M  V30 8575 C 787.296 0.693189 -2.20144 0
M  V30 8576 C 788.266 1.19274 -1.15598 0
M  V30 8577 O 789.451 1.25243 -1.4394 0
M  V30 8578 C 786.591 1.89715 -2.88275 0
M  V30 8579 C 785.704 1.4368 -4.07407 0
M  V30 8580 C 784.839 2.59807 -4.63329 0
M  V30 8581 C 783.878 2.10492 -5.74769 0
M  V30 8582 N 783.015 3.1988 -6.24997 0
M  V30 8583 H 787.855 0.14016 -2.9767 0
M  V30 8584 H 785.392 0.0574292 -1.46988 0
M  V30 8585 H 787.35 2.60398 -3.25958 0
M  V30 8586 H 785.98 2.42311 -2.13273 0
M  V30 8587 H 785.032 0.625007 -3.7523 0
M  V30 8588 H 786.344 1.03517 -4.8794 0
M  V30 8589 H 785.498 3.38577 -5.03438 0
M  V30 8590 H 784.237 3.03256 -3.81951 0
M  V30 8591 H 783.242 1.30182 -5.34165 0
M  V30 8592 H 784.467 1.68045 -6.5798 0
M  V30 8593 H 782.413 3.62817 -5.46534 0
M  V30 8594 H 782.33 2.83958 -7.00645 0
M  V30 8595 H 783.598 3.98796 -6.69763 0
M  V30 8596 N 787.827 1.57504 0.0551401 0
M  V30 8597 C 788.757 2.07864 1.06372 0
M  V30 8598 C 789.738 0.975565 1.39344 0
M  V30 8599 O 790.923 1.24929 1.48682 0
M  V30 8600 C 788.053 2.53643 2.3724 0
M  V30 8601 C 787.007 3.67978 2.18578 0
M  V30 8602 C 786.333 3.9987 3.54976 0
M  V30 8603 C 787.633 4.97405 1.59329 0
M  V30 8604 H 789.327 2.92379 0.644595 0
M  V30 8605 H 786.873 1.40654 0.308619 0
M  V30 8606 H 788.826 2.8749 3.08103 0
M  V30 8607 H 787.55 1.66177 2.81163 0
M  V30 8608 H 786.209 3.3444 1.50152 0
M  V30 8609 H 785.857 3.0951 3.965 0
M  V30 8610 H 785.557 4.76867 3.43324 0
M  V30 8611 H 787.081 4.36228 4.27244 0
M  V30 8612 H 788.495 5.29375 2.20078 0
M  V30 8613 H 786.892 5.78837 1.58327 0
M  V30 8614 H 787.962 4.81697 0.55638 0
M  V30 8615 N 789.305 -0.326896 1.54172 0
M  V30 8616 C 790.238 -1.42591 1.78166 0
M  V30 8617 C 791.216 -1.49837 0.631484 0
M  V30 8618 O 792.4 -1.67298 0.868544 0
M  V30 8619 C 789.527 -2.8071 1.89524 0
M  V30 8620 C 788.573 -2.91012 3.11792 0
M  V30 8621 S 789.406 -2.55763 4.70474 0
M  V30 8622 C 790.562 -3.9596 4.84733 0
M  V30 8623 H 790.795 -1.22024 2.71104 0
M  V30 8624 H 788.328 -0.523539 1.45253 0
M  V30 8625 H 790.286 -3.60276 1.96753 0
M  V30 8626 H 788.947 -2.98562 0.975696 0
M  V30 8627 H 788.14 -3.92258 3.16464 0
M  V30 8628 H 787.742 -2.19414 3.02876 0
M  V30 8629 H 790.034 -4.90676 4.67166 0
M  V30 8630 H 790.977 -3.96273 5.86833 0
M  V30 8631 H 791.385 -3.8476 4.13062 0
M  V30 8632 N 790.784 -1.46188 -0.588786 0
M  V30 8633 C 792.061 -1.41659 -1.34878 0
M  V30 8634 C 792.441 -0.0968913 -2.10878 0
M  V30 8635 O 791.789 0.921468 -2.09096 0
M  V30 8636 C 791.999 -2.6424 -2.27988 0
M  V30 8637 C 793.347 -3.1013 -2.90008 0
M  V30 8638 O 794.371 -2.64745 -2.38303 0
M  V30 8639 O 793.23 -3.88944 -3.83908 0
M  V30 8640 H 790.324 -0.563058 -0.605718 0
M  V30 8641 H 792.87 -1.58346 -0.610309 0
M  V30 8642 H 791.642 -3.51853 -1.71217 0
M  V30 8643 H 791.265 -2.49982 -3.09184 0
M  V30 8644 N 792.262 0.832906 -1.33792 0
M  V30 8645 C 793.508 1.59089 -1.25772 0
M  V30 8646 C 793.841 1.93414 0.174601 0
M  V30 8647 O 793.116 1.59195 1.11746 0
M  V30 8648 C 793.399 2.89699 -2.13885 0
M  V30 8649 C 793.252 2.62017 -3.65605 0
M  V30 8650 C 794.571 3.91182 -2.01654 0
M  V30 8651 H 791.69 0.577232 -0.458227 0
M  V30 8652 H 794.332 0.960227 -1.6395 0
M  V30 8653 H 792.482 3.4352 -1.81456 0
M  V30 8654 H 794.154 2.14582 -4.08353 0
M  V30 8655 H 792.397 1.95621 -3.87189 0
M  V30 8656 H 793.068 3.55112 -4.2261 0
M  V30 8657 H 795.544 3.46684 -2.30107 0
M  V30 8658 H 794.42 4.80391 -2.65548 0
M  V30 8659 H 794.681 4.30861 -0.990536 0
M  V30 8660 N 793.74 1.17359 1.05189 0
M  V30 8661 C 794.988 0.960087 1.77839 0
M  V30 8662 C 795.309 -0.512554 1.88143 0
M  V30 8663 O 794.579 -1.3721 1.39822 0
M  V30 8664 H 793.159 0.352234 0.658741 0
M  V30 8665 H 795.821 1.47834 1.27008 0
M  V30 8666 H 794.917 1.38843 2.79516 0
M  V30 8667 N 795.218 -1.23913 0.973828 0
M  V30 8668 C 796.148 -2.27453 0.527969 0
M  V30 8669 C 797.129 -1.6443 -0.435513 0
M  V30 8670 O 798.314 -1.9137 -0.330306 0
M  V30 8671 C 795.444 -3.4685 -0.176757 0
M  V30 8672 C 794.398 -4.22181 0.703352 0
M  V30 8673 C 793.724 -5.34534 -0.133215 0
M  V30 8674 C 795.024 -4.82865 1.99096 0
M  V30 8675 H 796.718 -2.65 1.3934 0
M  V30 8676 H 794.264 -1.27388 0.671446 0
M  V30 8677 H 796.217 -4.18424 -0.499934 0
M  V30 8678 H 794.941 -3.08346 -1.07659 0
M  V30 8679 H 793.6 -3.52416 1.00989 0
M  V30 8680 H 793.248 -4.92271 -1.03338 0
M  V30 8681 H 792.948 -5.85855 0.452494 0
M  V30 8682 H 794.472 -6.08933 -0.450924 0
M  V30 8683 H 795.886 -5.46481 1.73297 0
M  V30 8684 H 794.283 -5.44444 2.52389 0
M  V30 8685 H 795.353 -4.03977 2.68199 0
M  V30 8686 N 796.696 -0.74468 -1.38897 0
M  V30 8687 C 797.945 -0.293716 -1.9955 0
M  V30 8688 C 798.258 1.12831 -1.59777 0
M  V30 8689 O 799.464 1.67929 -2.13336 0
M  V30 8690 C 797.92 -0.474188 -3.56762 0
M  V30 8691 C 797.528 -1.90472 -4.05493 0
M  V30 8692 C 799.272 -0.0854875 -4.24414 0
M  V30 8693 C 797.179 -2.03423 -5.55314 0
M  V30 8694 H 796.109 -0.106066 -0.746502 0
M  V30 8695 H 798.76 -0.919948 -1.58774 0
M  V30 8696 H 797.142 0.221092 -3.95382 0
M  V30 8697 H 798.316 -2.63274 -3.78184 0
M  V30 8698 H 796.631 -2.24752 -3.50536 0
M  V30 8699 H 799.228 -0.161133 -5.34457 0
M  V30 8700 H 799.571 0.96066 -4.05064 0
M  V30 8701 H 800.104 -0.732286 -3.91002 0
M  V30 8702 H 796.843 -3.0626 -5.79556 0
M  V30 8703 H 796.363 -1.3507 -5.84394 0
M  V30 8704 H 798.042 -1.81996 -6.20876 0
M  V30 8705 N 798.174 1.49689 -0.493057 0
M  V30 8706 C 799.137 2.27502 0.278485 0
M  V30 8707 C 800.137 1.33184 0.901037 0
M  V30 8708 O 801.327 1.56415 0.766801 0
M  V30 8709 C 798.459 3.10881 1.39878 0
M  V30 8710 H 799.652 2.97163 -0.404219 0
M  V30 8711 H 797.205 1.54324 -0.247774 0
M  V30 8712 H 797.94 2.45767 2.11587 0
M  V30 8713 H 797.725 3.80219 0.957924 0
M  V30 8714 H 799.215 3.69673 1.94247 0
M  V30 8715 N 799.652 0.226554 1.55963 0
M  V30 8716 C 800.901 -0.40417 1.97609 0
M  V30 8717 C 801.214 -1.60541 1.1174 0
M  V30 8718 O 802.42 -2.30598 1.43307 0
M  V30 8719 C 800.876 -0.770466 3.51556 0
M  V30 8720 C 800.484 0.408244 4.46136 0
M  V30 8721 C 802.228 -1.36651 4.01904 0
M  V30 8722 C 800.135 0.0192347 5.91397 0
M  V30 8723 H 799.065 -0.15478 0.737943 0
M  V30 8724 H 801.716 0.323558 1.80625 0
M  V30 8725 H 800.098 -1.55575 3.6416 0
M  V30 8726 H 801.272 1.18575 4.45283 0
M  V30 8727 H 799.587 0.917859 4.06158 0
M  V30 8728 H 802.184 -1.67055 5.07934 0
M  V30 8729 H 802.527 -2.28403 3.48049 0
M  V30 8730 H 803.06 -0.644556 3.92543 0
M  V30 8731 H 799.799 0.90336 6.49245 0
M  V30 8732 H 799.319 -0.722485 5.95433 0
M  V30 8733 H 800.998 -0.405711 6.45727 0
M  V30 8734 N 801.13 -1.57531 -0.0467866 0
M  V30 8735 C 802.546 -1.54451 -0.402107 0
M  V30 8736 C 802.746 -0.950275 -1.77685 0
M  V30 8737 O 801.802 -0.563602 -2.4613 0
M  V30 8738 C 803.115 -2.9899 -0.320212 0
M  V30 8739 C 804.663 -3.10452 -0.398588 0
M  V30 8740 C 805.138 -4.56689 -0.346335 0
M  V30 8741 N 806.629 -4.6142 -0.405666 0
M  V30 8742 C 807.364 -5.72087 -0.387845 0
M  V30 8743 N 806.86 -6.92045 -0.32336 0
M  V30 8744 N 808.653 -5.60404 -0.436263 0
M  V30 8745 H 800.804 -1.94515 0.853087 0
M  V30 8746 H 803.067 -0.891397 0.322669 0
M  V30 8747 H 802.773 -3.46124 0.623794 0
M  V30 8748 H 802.647 -3.60164 -1.1208 0
M  V30 8749 H 805.034 -2.63276 -1.33302 0
M  V30 8750 H 805.115 -2.52142 0.431026 0
M  V30 8751 H 804.759 -5.04527 0.584356 0
M  V30 8752 H 804.689 -5.12889 -1.19382 0
M  V30 8753 H 807.18 -3.75105 -0.458737 0
M  V30 8754 H 807.493 -7.7216 -0.314375 0
M  V30 8755 H 805.838 -6.94396 -0.28967 0
M  V30 8756 H 809.029 -4.65586 -0.48451 0
M  V30 8757 H 809.202 -6.46645 -0.418907 0
M  V30 8758 O 802.647 0.18996 -1.60379 0
M  V30 8759 H 803.338 0.828364 -1.75094 0
M  V30 END ATOM
M  V30 BEGIN BOND
M  V30 END BOND
M  V30 END CTAB
M  END
$$$$
