drugbank_target|P31942 Heterogeneous nuclear ribonucleoprotein H3 (DB09130)
 OpenBabel12092121053D

  0  0  0     0  0            999 V3000
M  V30 BEGIN CTAB
M  V30 COUNTS 15385 16558 0 0 0
M  V30 BEGIN ATOM
M  V30 1 H -1.547 9.37743 -1.21644 0
M  V30 2 O -1.44 8.89599 -0.40059 0
M  V30 3 P 0 8.91 0 0
M  V30 4 O 0.22 10.1746 0.733838 0
M  V30 5 O 0.79 8.73346 -1.23964 0
M  V30 6 O 0.25 7.66872 0.971405 0
M  V30 7 C -0.69 7.42405 2.04668 0
M  V30 8 C 0.04 6.86059 3.24661 0
M  V30 9 O 0.25 5.42934 3.03695 0
M  V30 10 C 1.44 7.41287 3.50796 0
M  V30 11 O 1.83 7.27073 4.86816 0
M  V30 12 C 2.32 6.5273 2.63741 0
M  V30 13 C 1.61 5.1842 2.73198 0
M  V30 14 N 1.66 4.38762 1.4784 0
M  V30 15 H -1.178 8.36899 2.3252 0
M  V30 16 H -1.45 6.70391 1.71179 0
M  V30 17 H -0.582 7.03638 4.13219 0
M  V30 18 H 2.073 4.59931 3.54016 0
M  V30 19 H 2.353 6.88995 1.59871 0
M  V30 20 H 3.344 6.4684 3.0373 0
M  V30 21 H 1.51 8.47002 3.20749 0
M  V30 22 P 3.37998 7.20834 5.23717 0
M  V30 23 O 3.59998 7.79853 6.57286 0
M  V30 24 O 4.16998 7.79239 4.12957 0
M  V30 25 O 3.62998 5.63315 5.29344 0
M  V30 26 C 2.68998 4.80255 6.01876 0
M  V30 27 C 3.41998 3.64202 6.65911 0
M  V30 28 O 3.62998 2.60694 5.64732 0
M  V30 29 C 4.81998 3.93473 7.1943 0
M  V30 30 O 5.20998 3.02071 8.21205 0
M  V30 31 C 5.69998 3.73047 5.97036 0
M  V30 32 C 4.98998 2.58828 5.25741 0
M  V30 33 N 5.03998 2.68068 3.77503 0
M  V30 34 H 2.20098 5.40332 6.79951 0
M  V30 35 H 1.93098 4.41613 5.32378 0
M  V30 36 H 2.79798 3.26331 7.47797 0
M  V30 37 P 6.75996 2.75334 8.47391 0
M  V30 38 O 6.97996 2.44619 9.90336 0
M  V30 39 O 7.54996 3.87776 7.92294 0
M  V30 40 O 7.00996 1.4459 7.59357 0
M  V30 41 C 6.06996 0.347653 7.69315 0
M  V30 42 C 6.79996 -0.96767 7.52806 0
M  V30 43 O 7.00996 -1.21055 6.10208 0
M  V30 44 C 8.19996 -1.04557 8.13408 0
M  V30 45 O 8.58996 -2.38311 8.41922 0
M  V30 46 C 9.07996 -0.491279 7.02284 0
M  V30 47 C 8.36996 -0.996264 5.77469 0
M  V30 48 N 8.41996 -0.0501916 4.62973 0
M  V30 49 H 5.58196 0.374765 8.67791 0
M  V30 50 H 5.30996 0.443613 6.90476 0
M  V30 51 H 6.17796 -1.75559 7.96891 0
M  V30 52 H 8.83296 -1.94563 5.46818 0
M  V30 53 H 9.11296 0.608651 7.04676 0
M  V30 54 H 10.104 -0.889796 7.09039 0
M  V30 55 H 8.26996 -0.433128 9.04664 0
M  V30 56 P 10.1399 -2.75334 8.47391 0
M  V30 57 O 10.3599 -3.84128 9.44797 0
M  V30 58 O 10.9299 -1.51947 8.68712 0
M  V30 59 O 10.3899 -3.29363 6.99321 0
M  V30 60 C 9.44994 -4.24011 6.4274 0
M  V30 61 C 10.1799 -5.20775 5.52155 0
M  V30 62 O 10.3899 -4.56534 4.22446 0
M  V30 63 C 11.5799 -5.62629 5.96531 0
M  V30 64 O 11.9699 -6.87667 5.41053 0
M  V30 65 C 12.4599 -4.52537 5.39283 0
M  V30 66 C 11.7499 -4.20027 4.08623 0
M  V30 67 N 11.7999 -2.76189 3.71603 0
M  V30 68 H 8.96094 -4.797 7.24003 0
M  V30 69 H 8.69094 -3.69856 5.84513 0
M  V30 70 H 9.55794 -6.10356 5.41441 0
M  V30 71 P 13.5199 -7.20834 5.23717 0
M  V30 72 O 13.7399 -8.66274 5.38678 0
M  V30 73 O 14.3099 -6.33687 6.13629 0
M  V30 74 O 13.7699 -6.7751 3.72168 0
M  V30 75 C 12.8299 -7.20919 2.70795 0
M  V30 76 C 13.5599 -7.45864 1.40599 0
M  V30 77 O 13.7699 -6.17751 0.734343 0
M  V30 78 C 14.9599 -8.05906 1.51917 0
M  V30 79 O 15.3499 -8.74358 0.335205 0
M  V30 80 C 15.8399 -6.83093 1.70294 0
M  V30 81 C 15.1299 -5.79992 0.836974 0
M  V30 82 N 15.1799 -4.41864 1.38293 0
M  V30 83 H 12.3419 -8.13738 3.03804 0
M  V30 84 H 12.0699 -6.42974 2.55559 0
M  V30 85 H 12.9379 -8.12139 0.792866 0
M  V30 86 H 15.5929 -5.80178 -0.160643 0
M  V30 87 H 15.8729 -6.51379 2.75643 0
M  V30 88 H 16.8639 -7.01832 1.3448 0
M  V30 89 H 15.0299 -8.73771 2.38364 0
M  V30 90 P 16.8999 -8.91 1.09116e-15 0
M  V30 91 O 17.1199 -10.1726 -0.733694 0
M  V30 92 O 17.6899 -8.73148 1.23936 0
M  V30 93 O 17.1499 -7.66872 -0.971405 0
M  V30 94 C 16.2099 -7.42309 -2.04641 0
M  V30 95 C 16.9399 -6.86059 -3.24661 0
M  V30 96 O 17.1499 -5.42847 -3.03646 0
M  V30 97 C 18.3399 -7.41196 -3.50753 0
M  V30 98 O 18.7299 -7.27073 -4.86816 0
M  V30 99 C 19.2199 -6.5273 -2.63741 0
M  V30 100 C 18.5099 -5.1842 -2.73198 0
M  V30 101 N 18.5599 -4.38762 -1.4784 0
M  V30 102 H 15.7209 -8.36803 -2.32493 0
M  V30 103 H 15.4509 -6.70197 -1.71129 0
M  V30 104 H 16.3179 -7.03551 -4.13168 0
M  V30 105 P 20.2799 -7.20834 -5.23717 0
M  V30 106 O 20.4999 -7.80006 -6.57415 0
M  V30 107 O 21.0699 -7.79416 -4.13051 0
M  V30 108 O 20.5299 -5.63315 -5.29344 0
M  V30 109 C 19.5899 -4.80318 -6.01954 0
M  V30 110 C 20.3199 -3.64202 -6.65911 0
M  V30 111 O 20.5299 -2.60736 -5.64823 0
M  V30 112 C 21.7199 -3.93521 -7.19518 0
M  V30 113 O 22.1099 -3.02071 -8.21205 0
M  V30 114 C 22.5999 -3.73047 -5.97036 0
M  V30 115 C 21.8899 -2.58828 -5.25741 0
M  V30 116 N 21.9399 -2.68068 -3.77503 0
M  V30 117 H 19.1019 -5.40394 -6.8003 0
M  V30 118 H 18.8299 -4.41741 -5.32532 0
M  V30 119 H 19.6979 -3.26371 -7.47889 0
M  V30 120 H 22.3529 -1.64007 -5.56746 0
M  V30 121 H 22.6329 -4.63439 -5.3432 0
M  V30 122 H 23.6239 -3.44776 -6.25925 0
M  V30 123 H 21.7899 -4.96707 -7.57347 0
M  V30 124 P 23.6599 -2.75334 -8.47391 0
M  V30 125 O 23.8799 -2.44571 -9.90142 0
M  V30 126 O 24.4499 -3.87688 -7.92115 0
M  V30 127 O 23.9099 -1.4459 -7.59357 0
M  V30 128 C 22.9699 -0.347608 -7.69215 0
M  V30 129 C 23.6999 0.96767 -7.52806 0
M  V30 130 O 23.9099 1.21036 -6.1011 0
M  V30 131 C 25.0999 1.04544 -8.13308 0
M  V30 132 O 25.4899 2.38311 -8.41922 0
M  V30 133 C 25.9799 0.491279 -7.02284 0
M  V30 134 C 25.2699 0.996264 -5.77469 0
M  V30 135 N 25.3199 0.0501916 -4.62973 0
M  V30 136 H 22.4809 -0.374722 -8.67691 0
M  V30 137 H 22.2109 -0.443485 -6.90277 0
M  V30 138 H 23.0779 1.75537 -7.96793 0
M  V30 139 P 27.0398 2.75334 -8.47391 0
M  V30 140 O 27.2598 3.84128 -9.44797 0
M  V30 141 O 27.8298 1.51947 -8.68712 0
M  V30 142 O 27.2898 3.29363 -6.99321 0
M  V30 143 C 26.3498 4.24011 -6.4274 0
M  V30 144 C 27.0798 5.20775 -5.52155 0
M  V30 145 O 27.2898 4.56534 -4.22446 0
M  V30 146 C 28.4798 5.62629 -5.96531 0
M  V30 147 O 28.8698 6.87667 -5.41053 0
M  V30 148 C 29.3598 4.52537 -5.39283 0
M  V30 149 C 28.6498 4.20027 -4.08623 0
M  V30 150 N 28.6998 2.76189 -3.71603 0
M  V30 151 C 28.6198 1.64862 -4.52822 0
M  V30 152 N 28.6998 0.512671 -3.88633 0
M  V30 153 C 28.8398 0.888083 -2.54977 0
M  V30 154 C 28.9698 0.094668 -1.38677 0
M  V30 155 O 28.9898 -1.13053 -1.28163 0
M  V30 156 N 29.0898 0.890102 -0.232633 0
M  V30 157 C 29.0898 2.26958 -0.21772 0
M  V30 158 N 29.2198 2.84626 0.97925 0
M  V30 159 N 28.9598 3.0178 -1.31033 0
M  V30 160 C 28.8398 2.26781 -2.43843 0
M  V30 161 H 25.8608 4.797 -7.24003 0
M  V30 162 H 25.5908 3.69856 -5.84513 0
M  V30 163 H 26.4578 6.10356 -5.41441 0
M  V30 164 H 29.1128 4.79061 -3.27488 0
M  V30 165 H 29.3918 3.64906 -6.05785 0
M  V30 166 H 30.3838 4.8868 -5.2125 0
M  V30 167 H 28.5498 5.66726 -7.06352 0
M  V30 168 H 28.5008 1.71169 -5.60966 0
M  V30 169 H 29.1828 0.419134 0.644739 0
M  V30 170 H 29.2198 3.87332 1.06098 0
M  V30 171 H 29.3208 2.26417 1.82483 0
M  V30 172 P 30.4198 7.20834 -5.23717 0
M  V30 173 O 30.6398 8.66104 -5.38572 0
M  V30 174 O 31.2098 6.33544 -6.1349 0
M  V30 175 O 30.6698 6.7751 -3.72168 0
M  V30 176 C 29.7298 7.20825 -2.7076 0
M  V30 177 C 30.4598 7.45864 -1.40599 0
M  V30 178 O 30.6698 6.17651 -0.734225 0
M  V30 179 C 31.8598 8.05808 -1.51899 0
M  V30 180 O 32.2498 8.74358 -0.335205 0
M  V30 181 C 32.7398 6.83093 -1.70294 0
M  V30 182 C 32.0298 5.79992 -0.836974 0
M  V30 183 N 32.0798 4.41864 -1.38293 0
M  V30 184 H 29.2408 8.13644 -3.0377 0
M  V30 185 H 28.9708 6.42788 -2.55485 0
M  V30 186 H 29.8378 8.12039 -0.792769 0
M  V30 187 P 33.7998 8.91 -2.18232e-15 0
M  V30 188 O 34.0198 10.1726 0.733694 0
M  V30 189 O 34.5898 8.73148 -1.23936 0
M  V30 190 O 34.0498 7.66872 0.971405 0
M  V30 191 C 33.1098 7.42309 2.04641 0
M  V30 192 C 33.8398 6.86059 3.24661 0
M  V30 193 O 34.0498 5.42847 3.03646 0
M  V30 194 C 35.2398 7.41196 3.50753 0
M  V30 195 O 35.6298 7.27073 4.86816 0
M  V30 196 C 36.1198 6.5273 2.63741 0
M  V30 197 C 35.4098 5.1842 2.73198 0
M  V30 198 N 35.4598 4.38762 1.4784 0
M  V30 199 H 32.6208 8.36803 2.32493 0
M  V30 200 H 32.3508 6.70197 1.71129 0
M  V30 201 H 33.2178 7.03551 4.13168 0
M  V30 202 P 37.1798 7.20834 5.23717 0
M  V30 203 O 37.3998 7.79853 6.57286 0
M  V30 204 O 37.9698 7.79239 4.12957 0
M  V30 205 O 37.4298 5.63315 5.29344 0
M  V30 206 C 36.4898 4.80255 6.01876 0
M  V30 207 C 37.2198 3.64202 6.65911 0
M  V30 208 O 37.4298 2.60694 5.64732 0
M  V30 209 C 38.6198 3.93473 7.1943 0
M  V30 210 O 39.0098 3.02071 8.21205 0
M  V30 211 C 39.4998 3.73047 5.97036 0
M  V30 212 C 38.7898 2.58828 5.25741 0
M  V30 213 N 38.8398 2.68068 3.77503 0
M  V30 214 H 36.0008 5.40332 6.79951 0
M  V30 215 H 35.7308 4.41613 5.32378 0
M  V30 216 H 36.5978 3.26331 7.47797 0
M  V30 217 P 40.5598 2.75334 8.47391 0
M  V30 218 O 40.7798 2.44619 9.90336 0
M  V30 219 O 41.3498 3.87776 7.92294 0
M  V30 220 O 40.8098 1.4459 7.59357 0
M  V30 221 C 39.8698 0.347653 7.69315 0
M  V30 222 C 40.5998 -0.96767 7.52806 0
M  V30 223 O 40.8098 -1.21055 6.10208 0
M  V30 224 C 41.9998 -1.04557 8.13408 0
M  V30 225 O 42.3898 -2.38311 8.41922 0
M  V30 226 C 42.8798 -0.491279 7.02284 0
M  V30 227 C 42.1698 -0.996264 5.77469 0
M  V30 228 N 42.2198 -0.0501916 4.62973 0
M  V30 229 C 42.1398 1.31969 4.65661 0
M  V30 230 N 42.2098 1.86649 3.48119 0
M  V30 231 C 42.3598 0.792089 2.62406 0
M  V30 232 C 42.4898 0.705684 1.2207 0
M  V30 233 N 42.4998 1.76207 0.413762 0
M  V30 234 N 42.6098 -0.518981 0.685754 0
M  V30 235 C 42.5998 -1.57595 1.49174 0
M  V30 236 N 42.4798 -1.62909 2.80066 0
M  V30 237 C 42.3598 -0.388195 3.3073 0
M  V30 238 H 39.3818 0.374765 8.67791 0
M  V30 239 H 39.1098 0.443613 6.90476 0
M  V30 240 H 39.9778 -1.75559 7.96891 0
M  V30 241 H 42.6328 -1.94563 5.46818 0
M  V30 242 H 42.9128 0.608651 7.04676 0
M  V30 243 H 43.9038 -0.889796 7.09039 0
M  V30 244 H 42.0698 -0.433128 9.04664 0
M  V30 245 H 42.0288 1.89246 5.57664 0
M  V30 246 H 42.4098 2.71005 0.804694 0
M  V30 247 H 42.5988 1.63189 -0.603768 0
M  V30 248 H 42.7068 -2.53475 0.997614 0
M  V30 249 P 43.9397 -2.75334 8.47391 0
M  V30 250 O 44.1597 -3.84128 9.44797 0
M  V30 251 O 44.7297 -1.51947 8.68712 0
M  V30 252 O 44.1897 -3.29363 6.99321 0
M  V30 253 C 43.2497 -4.24011 6.4274 0
M  V30 254 C 43.9797 -5.20775 5.52155 0
M  V30 255 O 44.1897 -4.56534 4.22446 0
M  V30 256 C 45.3797 -5.62629 5.96531 0
M  V30 257 O 45.7697 -6.87667 5.41053 0
M  V30 258 C 46.2597 -4.52537 5.39283 0
M  V30 259 C 45.5497 -4.20027 4.08623 0
M  V30 260 N 45.5997 -2.76189 3.71603 0
M  V30 261 H 42.7607 -4.797 7.24003 0
M  V30 262 H 42.4907 -3.69856 5.84513 0
M  V30 263 H 43.3577 -6.10356 5.41441 0
M  V30 264 P 47.3197 -7.20834 5.23717 0
M  V30 265 O 47.5397 -8.66104 5.38572 0
M  V30 266 O 48.1097 -6.33544 6.1349 0
M  V30 267 O 47.5697 -6.7751 3.72168 0
M  V30 268 C 46.6297 -7.20825 2.7076 0
M  V30 269 C 47.3597 -7.45864 1.40599 0
M  V30 270 O 47.5697 -6.17651 0.734225 0
M  V30 271 C 48.7597 -8.05808 1.51899 0
M  V30 272 O 49.1497 -8.74358 0.335205 0
M  V30 273 C 49.6397 -6.83093 1.70294 0
M  V30 274 C 48.9297 -5.79992 0.836974 0
M  V30 275 N 48.9797 -4.41864 1.38293 0
M  V30 276 H 46.1407 -8.13644 3.0377 0
M  V30 277 H 45.8707 -6.42788 2.55485 0
M  V30 278 H 46.7377 -8.12039 0.792769 0
M  V30 279 P 50.6997 -8.91 3.27348e-15 0
M  V30 280 O 50.9197 -10.1726 -0.733694 0
M  V30 281 O 51.4897 -8.73148 1.23936 0
M  V30 282 O 50.9497 -7.66872 -0.971405 0
M  V30 283 C 50.0097 -7.42309 -2.04641 0
M  V30 284 C 50.7397 -6.86059 -3.24661 0
M  V30 285 O 50.9497 -5.42847 -3.03646 0
M  V30 286 C 52.1397 -7.41196 -3.50753 0
M  V30 287 O 52.5297 -7.27073 -4.86816 0
M  V30 288 C 53.0197 -6.5273 -2.63741 0
M  V30 289 C 52.3097 -5.1842 -2.73198 0
M  V30 290 N 52.3597 -4.38762 -1.4784 0
M  V30 291 C 52.2797 -4.81605 -0.168631 0
M  V30 292 N 52.3597 -3.85454 0.713363 0
M  V30 293 C 52.4997 -2.6994 -0.0566958 0
M  V30 294 C 52.6297 -1.34815 0.338502 0
M  V30 295 O 52.6497 -0.869548 1.47125 0
M  V30 296 N 52.7497 -0.496304 -0.77465 0
M  V30 297 C 52.7497 -0.908403 -2.09122 0
M  V30 298 N 52.8797 0.0517805 -3.00955 0
M  V30 299 N 52.6197 -2.17875 -2.46519 0
M  V30 300 C 52.4997 -3.01988 -1.4033 0
M  V30 301 H 49.5207 -8.36803 -2.32493 0
M  V30 302 H 49.2507 -6.70197 -1.71129 0
M  V30 303 H 50.1177 -7.03551 -4.13168 0
M  V30 304 H 52.7727 -4.59498 -3.54415 0
M  V30 305 H 53.0517 -6.88898 -1.59848 0
M  V30 306 H 54.0437 -6.46749 -3.03687 0
M  V30 307 H 52.2097 -8.46908 -3.20714 0
M  V30 308 H 52.1607 -5.86405 0.105564 0
M  V30 309 H 52.8427 0.483664 -0.597855 0
M  V30 310 H 52.8797 -0.187865 -4.0116 0
M  V30 311 H 52.9807 1.03585 -2.71726 0
M  V30 312 P 54.0797 -7.20834 -5.23717 0
M  V30 313 O 54.2997 -7.7993 -6.57351 0
M  V30 314 O 54.8697 -7.79328 -4.13004 0
M  V30 315 O 54.3297 -5.63315 -5.29344 0
M  V30 316 C 53.3897 -4.80193 -6.01798 0
M  V30 317 C 54.1197 -3.64202 -6.65911 0
M  V30 318 O 54.3297 -2.60694 -5.64732 0
M  V30 319 C 55.5197 -3.93473 -7.1943 0
M  V30 320 O 55.9097 -3.02071 -8.21205 0
M  V30 321 C 56.3997 -3.73047 -5.97036 0
M  V30 322 C 55.6897 -2.58828 -5.25741 0
M  V30 323 N 55.7397 -2.6801 -3.77422 0
M  V30 324 C 55.8897 -1.50443 -3.07133 0
M  V30 325 O 55.9797 -0.419406 -3.61576 0
M  V30 326 N 55.9297 -1.6403 -1.69677 0
M  V30 327 C 55.8397 -2.81206 -0.986255 0
M  V30 328 O 55.8897 -2.80892 0.249754 0
M  V30 329 C 55.6897 -3.99158 -1.80325 0
M  V30 330 C 55.5797 -5.29309 -1.06921 0
M  V30 331 C 55.6397 -3.89779 -3.1476 0
M  V30 332 H 52.8997 -5.40332 -6.79951 0
M  V30 333 H 52.6307 -4.41549 -5.32301 0
M  V30 334 H 53.4977 -3.26331 -7.47797 0
M  V30 335 H 56.1527 -1.6395 -5.56554 0
M  V30 336 H 56.4317 -4.63439 -5.3432 0
M  V30 337 H 57.4237 -3.44728 -6.25838 0
M  V30 338 H 55.5897 -4.96652 -7.57263 0
M  V30 339 H 55.5187 -4.80159 -3.74441 0
M  V30 340 H 56.5487 -5.81459 -1.09608 0
M  V30 341 H 54.8117 -5.9187 -1.54487 0
M  V30 342 H 55.2997 -5.10095 -0.0220288 0
M  V30 343 H 56.0357 -0.798962 -1.16664 0
M  V30 344 P 57.4597 -2.75334 -8.47391 0
M  V30 345 O 57.6797 -2.44571 -9.90142 0
M  V30 346 O 58.2497 -3.87688 -7.92115 0
M  V30 347 O 57.7097 -1.4459 -7.59357 0
M  V30 348 C 56.7697 -0.347608 -7.69215 0
M  V30 349 C 57.4997 0.96767 -7.52806 0
M  V30 350 O 57.7097 1.21036 -6.1011 0
M  V30 351 C 58.8997 1.04544 -8.13308 0
M  V30 352 O 59.2897 2.38311 -8.41922 0
M  V30 353 C 59.7797 0.491279 -7.02284 0
M  V30 354 C 59.0697 0.996264 -5.77469 0
M  V30 355 N 59.1197 0.0501916 -4.62973 0
M  V30 356 H 56.2807 -0.374722 -8.67691 0
M  V30 357 H 56.0107 -0.443485 -6.90277 0
M  V30 358 H 56.8777 1.75537 -7.96793 0
M  V30 359 P 60.8396 2.75334 -8.47391 0
M  V30 360 O 61.0596 3.84128 -9.44797 0
M  V30 361 O 61.6296 1.51947 -8.68712 0
M  V30 362 O 61.0896 3.29363 -6.99321 0
M  V30 363 C 60.1496 4.24011 -6.4274 0
M  V30 364 C 60.8796 5.20775 -5.52155 0
M  V30 365 O 61.0896 4.56534 -4.22446 0
M  V30 366 C 62.2796 5.62629 -5.96531 0
M  V30 367 O 62.6696 6.87667 -5.41053 0
M  V30 368 C 63.1596 4.52537 -5.39283 0
M  V30 369 C 62.4496 4.20027 -4.08623 0
M  V30 370 N 62.4996 2.76189 -3.71603 0
M  V30 371 C 62.4196 1.64862 -4.52822 0
M  V30 372 N 62.4996 0.512671 -3.88633 0
M  V30 373 C 62.6396 0.888083 -2.54977 0
M  V30 374 C 62.7696 0.094668 -1.38677 0
M  V30 375 N 62.8896 0.890102 -0.232633 0
M  V30 376 C 62.8896 2.26958 -0.21772 0
M  V30 377 N 63.0196 2.84626 0.97925 0
M  V30 378 N 62.7596 3.0178 -1.31033 0
M  V30 379 C 62.6396 2.26781 -2.43843 0
M  V30 380 H 59.6606 4.797 -7.24003 0
M  V30 381 H 59.3906 3.69856 -5.84513 0
M  V30 382 H 60.2576 6.10356 -5.41441 0
M  V30 383 P 64.2196 7.20834 -5.23717 0
M  V30 384 O 64.4396 8.66104 -5.38572 0
M  V30 385 O 65.0096 6.33544 -6.1349 0
M  V30 386 O 64.4696 6.7751 -3.72168 0
M  V30 387 C 63.5296 7.20825 -2.7076 0
M  V30 388 C 64.2596 7.45864 -1.40599 0
M  V30 389 O 64.4696 6.17651 -0.734225 0
M  V30 390 C 65.6596 8.05808 -1.51899 0
M  V30 391 O 66.0496 8.74358 -0.335205 0
M  V30 392 C 66.5396 6.83093 -1.70294 0
M  V30 393 C 65.8296 5.79992 -0.836974 0
M  V30 394 N 65.8796 4.41864 -1.38293 0
M  V30 395 H 63.0406 8.13644 -3.0377 0
M  V30 396 H 62.7706 6.42788 -2.55485 0
M  V30 397 H 63.6376 8.12039 -0.792769 0
M  V30 398 P 67.5996 8.91 -4.36464e-15 0
M  V30 399 O 67.8196 10.1726 0.733694 0
M  V30 400 O 68.3896 8.73148 -1.23936 0
M  V30 401 O 67.8496 7.66872 0.971405 0
M  V30 402 C 66.9096 7.42309 2.04641 0
M  V30 403 C 67.6396 6.86059 3.24661 0
M  V30 404 O 67.8496 5.42847 3.03646 0
M  V30 405 C 69.0396 7.41196 3.50753 0
M  V30 406 O 69.4296 7.27073 4.86816 0
M  V30 407 C 69.9196 6.5273 2.63741 0
M  V30 408 C 69.2096 5.1842 2.73198 0
M  V30 409 N 69.2596 4.38762 1.4784 0
M  V30 410 C 69.1796 4.81605 0.168631 0
M  V30 411 N 69.2596 3.85454 -0.713363 0
M  V30 412 C 69.3996 2.6994 0.0566958 0
M  V30 413 C 69.5296 1.34815 -0.338502 0
M  V30 414 N 69.6496 0.496304 0.77465 0
M  V30 415 C 69.6496 0.908403 2.09122 0
M  V30 416 N 69.7796 -0.0517805 3.00955 0
M  V30 417 N 69.5196 2.17875 2.46519 0
M  V30 418 C 69.3996 3.01988 1.4033 0
M  V30 419 H 66.4206 8.36803 2.32493 0
M  V30 420 H 66.1506 6.70197 1.71129 0
M  V30 421 H 67.0176 7.03551 4.13168 0
M  V30 422 P 70.9796 7.20834 5.23717 0
M  V30 423 O 71.1996 7.79853 6.57286 0
M  V30 424 O 71.7696 7.79239 4.12957 0
M  V30 425 O 71.2296 5.63315 5.29344 0
M  V30 426 C 70.2896 4.80255 6.01876 0
M  V30 427 C 71.0196 3.64202 6.65911 0
M  V30 428 O 71.2296 2.60694 5.64732 0
M  V30 429 C 72.4196 3.93473 7.1943 0
M  V30 430 O 72.8096 3.02071 8.21205 0
M  V30 431 C 73.2996 3.73047 5.97036 0
M  V30 432 C 72.5896 2.58828 5.25741 0
M  V30 433 N 72.6396 2.68068 3.77503 0
M  V30 434 C 72.5596 3.79715 2.96723 0
M  V30 435 N 72.6396 3.5377 1.68852 0
M  V30 436 C 72.7796 2.15054 1.63254 0
M  V30 437 C 72.9096 1.28964 0.518571 0
M  V30 438 O 72.9296 1.56826 -0.679156 0
M  V30 439 N 73.0296 -0.0538097 0.918425 0
M  V30 440 C 73.0296 -0.494275 2.22578 0
M  V30 441 N 73.1596 -1.81086 2.40434 0
M  V30 442 N 72.8996 0.313645 3.27502 0
M  V30 443 C 72.7796 1.61829 2.91033 0
M  V30 444 H 69.8006 5.40332 6.79951 0
M  V30 445 H 69.5306 4.41613 5.32378 0
M  V30 446 H 70.3976 3.26331 7.47797 0
M  V30 447 H 73.0526 1.63422 5.56814 0
M  V30 448 H 73.3316 4.63374 5.34244 0
M  V30 449 H 74.3236 3.44728 6.25838 0
M  V30 450 H 72.4896 4.96652 7.57263 0
M  V30 451 H 72.4406 4.80617 3.3614 0
M  V30 452 H 73.1226 -0.742702 0.199384 0
M  V30 453 H 73.1596 -2.20598 3.35588 0
M  V30 454 H 73.2606 -2.43518 1.58945 0
M  V30 455 P 74.3596 2.75334 8.47391 0
M  V30 456 O 74.5796 2.44571 9.90142 0
M  V30 457 O 75.1496 3.87688 7.92115 0
M  V30 458 O 74.6096 1.4459 7.59357 0
M  V30 459 C 73.6696 0.347608 7.69215 0
M  V30 460 C 74.3996 -0.96767 7.52806 0
M  V30 461 O 74.6096 -1.21036 6.1011 0
M  V30 462 C 75.7996 -1.04544 8.13308 0
M  V30 463 O 76.1896 -2.38311 8.41922 0
M  V30 464 C 76.6796 -0.491279 7.02284 0
M  V30 465 C 75.9696 -0.996264 5.77469 0
M  V30 466 N 76.0196 -0.0501916 4.62973 0
M  V30 467 H 73.1806 0.374722 8.67691 0
M  V30 468 H 72.9106 0.443485 6.90277 0
M  V30 469 H 73.7776 -1.75537 7.96793 0
M  V30 470 P 77.7395 -2.75334 8.47391 0
M  V30 471 O 77.9595 -3.84128 9.44797 0
M  V30 472 O 78.5295 -1.51947 8.68712 0
M  V30 473 O 77.9895 -3.29363 6.99321 0
M  V30 474 C 77.0495 -4.24011 6.4274 0
M  V30 475 C 77.7795 -5.20775 5.52155 0
M  V30 476 O 77.9895 -4.56534 4.22446 0
M  V30 477 C 79.1795 -5.62629 5.96531 0
M  V30 478 O 79.5695 -6.87667 5.41053 0
M  V30 479 C 80.0595 -4.52537 5.39283 0
M  V30 480 C 79.3495 -4.20027 4.08623 0
M  V30 481 N 79.3995 -2.76189 3.71603 0
M  V30 482 H 76.5605 -4.797 7.24003 0
M  V30 483 H 76.2905 -3.69856 5.84513 0
M  V30 484 H 77.1575 -6.10356 5.41441 0
M  V30 485 P 81.1195 -7.20834 5.23717 0
M  V30 486 O 81.3395 -8.66104 5.38572 0
M  V30 487 O 81.9095 -6.33544 6.1349 0
M  V30 488 O 81.3695 -6.7751 3.72168 0
M  V30 489 C 80.4295 -7.20825 2.7076 0
M  V30 490 C 81.1595 -7.45864 1.40599 0
M  V30 491 O 81.3695 -6.17651 0.734225 0
M  V30 492 C 82.5595 -8.05808 1.51899 0
M  V30 493 O 82.9495 -8.74358 0.335205 0
M  V30 494 C 83.4395 -6.83093 1.70294 0
M  V30 495 C 82.7295 -5.79992 0.836974 0
M  V30 496 N 82.7795 -4.41864 1.38293 0
M  V30 497 H 79.9405 -8.13644 3.0377 0
M  V30 498 H 79.6705 -6.42788 2.55485 0
M  V30 499 H 80.5375 -8.12039 0.792769 0
M  V30 500 P 84.4995 -8.91 5.4558e-15 0
M  V30 501 O 84.7195 -10.1726 -0.733694 0
M  V30 502 O 85.2895 -8.73148 1.23936 0
M  V30 503 O 84.7495 -7.66872 -0.971405 0
M  V30 504 C 83.8095 -7.42309 -2.04641 0
M  V30 505 C 84.5395 -6.86059 -3.24661 0
M  V30 506 O 84.7495 -5.42847 -3.03646 0
M  V30 507 C 85.9395 -7.41196 -3.50753 0
M  V30 508 O 86.3295 -7.27073 -4.86816 0
M  V30 509 C 86.8195 -6.5273 -2.63741 0
M  V30 510 C 86.1095 -5.1842 -2.73198 0
M  V30 511 N 86.1595 -4.38762 -1.4784 0
M  V30 512 C 86.0795 -4.81605 -0.168631 0
M  V30 513 N 86.1595 -3.85454 0.713363 0
M  V30 514 C 86.2995 -2.6994 -0.0566958 0
M  V30 515 C 86.4295 -1.34815 0.338502 0
M  V30 516 O 86.4495 -0.869548 1.47125 0
M  V30 517 N 86.5495 -0.496304 -0.77465 0
M  V30 518 C 86.5495 -0.908403 -2.09122 0
M  V30 519 N 86.6795 0.0517805 -3.00955 0
M  V30 520 N 86.4195 -2.17875 -2.46519 0
M  V30 521 C 86.2995 -3.01988 -1.4033 0
M  V30 522 H 83.3205 -8.36803 -2.32493 0
M  V30 523 H 83.0505 -6.70197 -1.71129 0
M  V30 524 H 83.9175 -7.03551 -4.13168 0
M  V30 525 H 86.5725 -4.59498 -3.54415 0
M  V30 526 H 86.8515 -6.88898 -1.59848 0
M  V30 527 H 87.8435 -6.46749 -3.03687 0
M  V30 528 H 86.0095 -8.46908 -3.20714 0
M  V30 529 H 85.9605 -5.86405 0.105564 0
M  V30 530 H 86.6425 0.483664 -0.597855 0
M  V30 531 H 86.6795 -0.187865 -4.0116 0
M  V30 532 H 86.7805 1.03585 -2.71726 0
M  V30 533 P 87.8795 -7.20834 -5.23717 0
M  V30 534 O 88.0995 -7.7993 -6.57351 0
M  V30 535 O 88.6695 -7.79328 -4.13004 0
M  V30 536 O 88.1295 -5.63315 -5.29344 0
M  V30 537 C 87.1895 -4.80255 -6.01876 0
M  V30 538 C 87.9195 -3.64202 -6.65911 0
M  V30 539 O 88.1295 -2.60694 -5.64732 0
M  V30 540 C 89.3195 -3.93473 -7.1943 0
M  V30 541 O 89.7095 -3.02071 -8.21205 0
M  V30 542 C 90.1995 -3.73047 -5.97036 0
M  V30 543 C 89.4895 -2.58828 -5.25741 0
M  V30 544 N 89.5395 -2.6801 -3.77422 0
M  V30 545 C 89.6895 -1.50173 -3.05038 0
M  V30 546 O 89.7795 -0.428832 -3.665 0
M  V30 547 N 89.7395 -1.70922 -1.55541 0
M  V30 548 C 89.6395 -2.7407 -1.06402 0
M  V30 549 N 89.6895 -2.74764 0.260931 0
M  V30 550 C 89.4895 -3.96781 -1.78296 0
M  V30 551 C 89.4395 -3.87909 -3.13891 0
M  V30 552 H 86.6995 -5.4027 -6.79873 0
M  V30 553 H 86.4305 -4.41549 -5.32301 0
M  V30 554 H 87.2975 -3.26371 -7.47889 0
M  V30 555 H 89.9525 -1.63978 -5.5665 0
M  V30 556 H 90.2315 -4.63439 -5.3432 0
M  V30 557 H 91.2235 -3.44728 -6.25838 0
M  V30 558 H 89.3895 -4.96652 -7.57263 0
M  V30 559 H 89.3175 -4.78425 -3.73088 0
M  V30 560 H 89.4195 -4.92593 -1.26997 0
M  V30 561 H 89.8075 -1.86285 0.77595 0
M  V30 562 H 89.6105 -3.63657 0.773896 0
M  V30 563 P 91.2595 -2.75334 -8.47391 0
M  V30 564 O 91.4795 -2.44571 -9.90142 0
M  V30 565 O 92.0495 -3.87688 -7.92115 0
M  V30 566 O 91.5095 -1.4459 -7.59357 0
M  V30 567 C 90.5695 -0.347608 -7.69215 0
M  V30 568 C 91.2995 0.96767 -7.52806 0
M  V30 569 O 91.5095 1.21036 -6.1011 0
M  V30 570 C 92.6995 1.04544 -8.13308 0
M  V30 571 O 93.0895 2.38311 -8.41922 0
M  V30 572 C 93.5795 0.491279 -7.02284 0
M  V30 573 C 92.8695 0.996264 -5.77469 0
M  V30 574 N 92.9195 0.0501916 -4.62973 0
M  V30 575 H 90.0805 -0.374722 -8.67691 0
M  V30 576 H 89.8105 -0.443485 -6.90277 0
M  V30 577 H 90.6775 1.75537 -7.96793 0
M  V30 578 P 94.6394 2.75334 -8.47391 0
M  V30 579 O 94.8594 3.84128 -9.44797 0
M  V30 580 O 95.4294 1.51947 -8.68712 0
M  V30 581 O 94.8894 3.29363 -6.99321 0
M  V30 582 C 93.9494 4.24011 -6.4274 0
M  V30 583 C 94.6794 5.20775 -5.52155 0
M  V30 584 O 94.8894 4.56534 -4.22446 0
M  V30 585 C 96.0794 5.62629 -5.96531 0
M  V30 586 O 96.4694 6.87667 -5.41053 0
M  V30 587 C 96.9594 4.52537 -5.39283 0
M  V30 588 C 96.2494 4.20027 -4.08623 0
M  V30 589 N 96.2994 2.76189 -3.71603 0
M  V30 590 H 93.4604 4.797 -7.24003 0
M  V30 591 H 93.1904 3.69856 -5.84513 0
M  V30 592 H 94.0574 6.10356 -5.41441 0
M  V30 593 P 98.0194 7.20834 -5.23717 0
M  V30 594 O 98.2394 8.66104 -5.38572 0
M  V30 595 O 98.8094 6.33544 -6.1349 0
M  V30 596 O 98.2694 6.7751 -3.72168 0
M  V30 597 C 97.3294 7.20825 -2.7076 0
M  V30 598 C 98.0594 7.45864 -1.40599 0
M  V30 599 O 98.2694 6.17651 -0.734225 0
M  V30 600 C 99.4594 8.05808 -1.51899 0
M  V30 601 O 99.8494 8.74358 -0.335205 0
M  V30 602 C 100.339 6.83093 -1.70294 0
M  V30 603 C 99.6294 5.79992 -0.836974 0
M  V30 604 N 99.6794 4.41864 -1.38293 0
M  V30 605 H 96.8404 8.13644 -3.0377 0
M  V30 606 H 96.5704 6.42788 -2.55485 0
M  V30 607 H 97.4374 8.12039 -0.792769 0
M  V30 608 P 101.399 8.91 -6.54696e-15 0
M  V30 609 O 101.619 10.1726 0.733694 0
M  V30 610 O 102.189 8.73148 -1.23936 0
M  V30 611 O 101.649 7.66872 0.971405 0
M  V30 612 C 100.709 7.42309 2.04641 0
M  V30 613 C 101.439 6.86059 3.24661 0
M  V30 614 O 101.649 5.42847 3.03646 0
M  V30 615 C 102.839 7.41196 3.50753 0
M  V30 616 O 103.229 7.27073 4.86816 0
M  V30 617 C 103.719 6.5273 2.63741 0
M  V30 618 C 103.009 5.1842 2.73198 0
M  V30 619 N 103.059 4.38762 1.4784 0
M  V30 620 H 100.22 8.36803 2.32493 0
M  V30 621 H 99.9504 6.70197 1.71129 0
M  V30 622 H 100.817 7.03551 4.13168 0
M  V30 623 P 104.779 7.20834 5.23717 0
M  V30 624 O 104.999 7.79853 6.57286 0
M  V30 625 O 105.569 7.79239 4.12957 0
M  V30 626 O 105.029 5.63315 5.29344 0
M  V30 627 C 104.089 4.80255 6.01876 0
M  V30 628 C 104.819 3.64202 6.65911 0
M  V30 629 O 105.029 2.60694 5.64732 0
M  V30 630 C 106.219 3.93473 7.1943 0
M  V30 631 O 106.609 3.02071 8.21205 0
M  V30 632 C 107.099 3.73047 5.97036 0
M  V30 633 C 106.389 2.58828 5.25741 0
M  V30 634 N 106.439 2.68068 3.77503 0
M  V30 635 H 103.6 5.40332 6.79951 0
M  V30 636 H 103.33 4.41613 5.32378 0
M  V30 637 H 104.197 3.26331 7.47797 0
M  V30 638 P 108.159 2.75334 8.47391 0
M  V30 639 O 108.379 2.44571 9.90142 0
M  V30 640 O 108.949 3.87688 7.92115 0
M  V30 641 O 108.409 1.4459 7.59357 0
M  V30 642 C 107.469 0.347608 7.69215 0
M  V30 643 C 108.199 -0.96767 7.52806 0
M  V30 644 O 108.409 -1.21036 6.1011 0
M  V30 645 C 109.599 -1.04544 8.13308 0
M  V30 646 O 109.989 -2.38311 8.41922 0
M  V30 647 C 110.479 -0.491279 7.02284 0
M  V30 648 C 109.769 -0.996264 5.77469 0
M  V30 649 N 109.819 -0.0501916 4.62973 0
M  V30 650 H 106.98 0.374722 8.67691 0
M  V30 651 H 106.71 0.443485 6.90277 0
M  V30 652 H 107.577 -1.75537 7.96793 0
M  V30 653 P 111.539 -2.75334 8.47391 0
M  V30 654 O 111.759 -3.84128 9.44797 0
M  V30 655 O 112.329 -1.51947 8.68712 0
M  V30 656 O 111.789 -3.29363 6.99321 0
M  V30 657 C 110.849 -4.24011 6.4274 0
M  V30 658 C 111.579 -5.20775 5.52155 0
M  V30 659 O 111.789 -4.56534 4.22446 0
M  V30 660 C 112.979 -5.62629 5.96531 0
M  V30 661 O 113.369 -6.87667 5.41053 0
M  V30 662 C 113.859 -4.52537 5.39283 0
M  V30 663 C 113.149 -4.20027 4.08623 0
M  V30 664 N 113.199 -2.76189 3.71603 0
M  V30 665 H 110.36 -4.797 7.24003 0
M  V30 666 H 110.09 -3.69856 5.84513 0
M  V30 667 H 110.957 -6.10356 5.41441 0
M  V30 668 P 114.919 -7.20834 5.23717 0
M  V30 669 O 115.139 -8.66104 5.38572 0
M  V30 670 O 115.709 -6.33544 6.1349 0
M  V30 671 O 115.169 -6.7751 3.72168 0
M  V30 672 C 114.229 -7.20825 2.7076 0
M  V30 673 C 114.959 -7.45864 1.40599 0
M  V30 674 O 115.169 -6.17651 0.734225 0
M  V30 675 C 116.359 -8.05808 1.51899 0
M  V30 676 O 116.749 -8.74358 0.335205 0
M  V30 677 C 117.239 -6.83093 1.70294 0
M  V30 678 C 116.529 -5.79992 0.836974 0
M  V30 679 N 116.579 -4.41864 1.38293 0
M  V30 680 H 113.74 -8.13644 3.0377 0
M  V30 681 H 113.47 -6.42788 2.55485 0
M  V30 682 H 114.337 -8.12039 0.792769 0
M  V30 683 P 118.299 -8.91 7.63812e-15 0
M  V30 684 O 118.519 -10.1726 -0.733694 0
M  V30 685 O 119.089 -8.73148 1.23936 0
M  V30 686 O 118.549 -7.66872 -0.971405 0
M  V30 687 C 117.609 -7.42309 -2.04641 0
M  V30 688 C 118.339 -6.86059 -3.24661 0
M  V30 689 O 118.549 -5.42847 -3.03646 0
M  V30 690 C 119.739 -7.41196 -3.50753 0
M  V30 691 O 120.129 -7.27073 -4.86816 0
M  V30 692 C 120.619 -6.5273 -2.63741 0
M  V30 693 C 119.909 -5.1842 -2.73198 0
M  V30 694 N 119.959 -4.38762 -1.4784 0
M  V30 695 H 117.12 -8.36803 -2.32493 0
M  V30 696 H 116.85 -6.70197 -1.71129 0
M  V30 697 H 117.717 -7.03551 -4.13168 0
M  V30 698 P 121.679 -7.20834 -5.23717 0
M  V30 699 O 121.899 -7.79853 -6.57286 0
M  V30 700 O 122.469 -7.79239 -4.12957 0
M  V30 701 O 121.929 -5.63315 -5.29344 0
M  V30 702 C 120.989 -4.80255 -6.01876 0
M  V30 703 C 121.719 -3.64202 -6.65911 0
M  V30 704 O 121.929 -2.60694 -5.64732 0
M  V30 705 C 123.119 -3.93473 -7.1943 0
M  V30 706 O 123.509 -3.02071 -8.21205 0
M  V30 707 C 123.999 -3.73047 -5.97036 0
M  V30 708 C 123.289 -2.58828 -5.25741 0
M  V30 709 N 123.339 -2.68068 -3.77503 0
M  V30 710 H 120.5 -5.40332 -6.79951 0
M  V30 711 H 120.23 -4.41613 -5.32378 0
M  V30 712 H 121.097 -3.26331 -7.47797 0
M  V30 713 P 125.059 -2.75334 -8.47391 0
M  V30 714 O 125.279 -2.44571 -9.90142 0
M  V30 715 O 125.849 -3.87688 -7.92115 0
M  V30 716 O 125.309 -1.4459 -7.59357 0
M  V30 717 C 124.369 -0.347608 -7.69215 0
M  V30 718 C 125.099 0.96767 -7.52806 0
M  V30 719 O 125.309 1.21036 -6.1011 0
M  V30 720 C 126.499 1.04544 -8.13308 0
M  V30 721 O 126.889 2.38311 -8.41922 0
M  V30 722 C 127.379 0.491279 -7.02284 0
M  V30 723 C 126.669 0.996264 -5.77469 0
M  V30 724 N 126.719 0.0501916 -4.62973 0
M  V30 725 C 126.639 -1.32786 -4.63244 0
M  V30 726 N 126.719 -1.86957 -3.44545 0
M  V30 727 C 126.859 -0.780241 -2.58481 0
M  V30 728 C 126.989 -0.738536 -1.17757 0
M  V30 729 O 127.009 -1.66794 -0.372349 0
M  V30 730 N 127.109 0.58337 -0.711393 0
M  V30 731 C 127.109 1.70816 -1.51017 0
M  V30 732 N 127.239 2.87826 -0.880757 0
M  V30 733 N 126.979 1.67126 -2.8339 0
M  V30 734 C 126.859 0.401421 -3.30572 0
M  V30 735 H 123.88 -0.374722 -8.67691 0
M  V30 736 H 123.61 -0.443485 -6.90277 0
M  V30 737 H 124.477 1.75537 -7.96793 0
M  V30 738 H 127.132 1.95076 -5.46529 0
M  V30 739 H 127.411 -0.608565 -7.04577 0
M  V30 740 H 128.403 0.889672 -7.08939 0
M  V30 741 H 126.569 0.43308 -9.04564 0
M  V30 742 H 126.52 -1.91249 -5.54442 0
M  V30 743 H 127.202 0.718054 0.275244 0
M  V30 744 H 127.239 3.75721 -1.41832 0
M  V30 745 H 127.34 2.90436 0.145468 0
M  V30 746 P 128.439 2.75334 -8.47391 0
M  V30 747 O 128.659 3.84128 -9.44797 0
M  V30 748 O 129.229 1.51947 -8.68712 0
M  V30 749 O 128.689 3.29363 -6.99321 0
M  V30 750 C 127.749 4.24011 -6.4274 0
M  V30 751 C 128.479 5.20775 -5.52155 0
M  V30 752 O 128.689 4.56534 -4.22446 0
M  V30 753 C 129.879 5.62629 -5.96531 0
M  V30 754 O 130.269 6.87667 -5.41053 0
M  V30 755 C 130.759 4.52537 -5.39283 0
M  V30 756 C 130.049 4.20027 -4.08623 0
M  V30 757 N 130.099 2.76189 -3.71603 0
M  V30 758 H 127.26 4.797 -7.24003 0
M  V30 759 H 126.99 3.69856 -5.84513 0
M  V30 760 H 127.857 6.10356 -5.41441 0
M  V30 761 P 131.819 7.20834 -5.23717 0
M  V30 762 O 132.039 8.66104 -5.38572 0
M  V30 763 O 132.609 6.33544 -6.1349 0
M  V30 764 O 132.069 6.7751 -3.72168 0
M  V30 765 C 131.129 7.20825 -2.7076 0
M  V30 766 C 131.859 7.45864 -1.40599 0
M  V30 767 O 132.069 6.17651 -0.734225 0
M  V30 768 C 133.259 8.05808 -1.51899 0
M  V30 769 O 133.649 8.74358 -0.335205 0
M  V30 770 C 134.139 6.83093 -1.70294 0
M  V30 771 C 133.429 5.79992 -0.836974 0
M  V30 772 N 133.479 4.41864 -1.38293 0
M  V30 773 H 130.64 8.13644 -3.0377 0
M  V30 774 H 130.37 6.42788 -2.55485 0
M  V30 775 H 131.237 8.12039 -0.792769 0
M  V30 776 P 135.199 8.91 -8.72928e-15 0
M  V30 777 O 135.419 10.1726 0.733694 0
M  V30 778 O 135.989 8.73148 -1.23936 0
M  V30 779 O 135.449 7.66872 0.971405 0
M  V30 780 C 134.509 7.42309 2.04641 0
M  V30 781 C 135.239 6.86059 3.24661 0
M  V30 782 O 135.449 5.42847 3.03646 0
M  V30 783 C 136.639 7.41196 3.50753 0
M  V30 784 O 137.029 7.27073 4.86816 0
M  V30 785 C 137.519 6.5273 2.63741 0
M  V30 786 C 136.809 5.1842 2.73198 0
M  V30 787 N 136.859 4.38762 1.4784 0
M  V30 788 H 134.02 8.36803 2.32493 0
M  V30 789 H 133.75 6.70197 1.71129 0
M  V30 790 H 134.617 7.03551 4.13168 0
M  V30 791 P 138.579 7.20834 5.23717 0
M  V30 792 O 138.799 7.79853 6.57286 0
M  V30 793 O 139.369 7.79239 4.12957 0
M  V30 794 O 138.829 5.63315 5.29344 0
M  V30 795 C 137.889 4.80255 6.01876 0
M  V30 796 C 138.619 3.64202 6.65911 0
M  V30 797 O 138.829 2.60694 5.64732 0
M  V30 798 C 140.019 3.93473 7.1943 0
M  V30 799 O 140.409 3.02071 8.21205 0
M  V30 800 C 140.899 3.73047 5.97036 0
M  V30 801 C 140.189 2.58828 5.25741 0
M  V30 802 N 140.239 2.68068 3.77503 0
M  V30 803 H 137.4 5.40332 6.79951 0
M  V30 804 H 137.13 4.41613 5.32378 0
M  V30 805 H 137.997 3.26331 7.47797 0
M  V30 806 P 141.959 2.75334 8.47391 0
M  V30 807 O 142.179 2.44571 9.90142 0
M  V30 808 O 142.749 3.87688 7.92115 0
M  V30 809 O 142.209 1.4459 7.59357 0
M  V30 810 C 141.269 0.347608 7.69215 0
M  V30 811 C 141.999 -0.96767 7.52806 0
M  V30 812 O 142.209 -1.21036 6.1011 0
M  V30 813 C 143.399 -1.04544 8.13308 0
M  V30 814 O 143.789 -2.38311 8.41922 0
M  V30 815 C 144.279 -0.491279 7.02284 0
M  V30 816 C 143.569 -0.996264 5.77469 0
M  V30 817 N 143.619 -0.0501916 4.62973 0
M  V30 818 H 140.78 0.374722 8.67691 0
M  V30 819 H 140.51 0.443485 6.90277 0
M  V30 820 H 141.377 -1.75537 7.96793 0
M  V30 821 P 145.339 -2.75334 8.47391 0
M  V30 822 O 145.559 -3.84128 9.44797 0
M  V30 823 O 146.129 -1.51947 8.68712 0
M  V30 824 O 145.589 -3.29363 6.99321 0
M  V30 825 C 144.649 -4.24011 6.4274 0
M  V30 826 C 145.379 -5.20775 5.52155 0
M  V30 827 O 145.589 -4.56534 4.22446 0
M  V30 828 C 146.779 -5.62629 5.96531 0
M  V30 829 O 147.169 -6.87667 5.41053 0
M  V30 830 C 147.659 -4.52537 5.39283 0
M  V30 831 C 146.949 -4.20027 4.08623 0
M  V30 832 N 146.999 -2.76189 3.71603 0
M  V30 833 H 144.16 -4.797 7.24003 0
M  V30 834 H 143.89 -3.69856 5.84513 0
M  V30 835 H 144.757 -6.10356 5.41441 0
M  V30 836 P 148.719 -7.20834 5.23717 0
M  V30 837 O 148.939 -8.66104 5.38572 0
M  V30 838 O 149.509 -6.33544 6.1349 0
M  V30 839 O 148.969 -6.7751 3.72168 0
M  V30 840 C 148.029 -7.20825 2.7076 0
M  V30 841 C 148.759 -7.45864 1.40599 0
M  V30 842 O 148.969 -6.17651 0.734225 0
M  V30 843 C 150.159 -8.05808 1.51899 0
M  V30 844 O 150.549 -8.74358 0.335205 0
M  V30 845 C 151.039 -6.83093 1.70294 0
M  V30 846 C 150.329 -5.79992 0.836974 0
M  V30 847 N 150.379 -4.41864 1.38293 0
M  V30 848 C 150.299 -3.99538 2.69438 0
M  V30 849 N 150.379 -2.69909 2.84277 0
M  V30 850 C 150.519 -2.21719 1.5408 0
M  V30 851 C 150.649 -0.891712 1.06628 0
M  V30 852 O 150.669 0.161298 1.70137 0
M  V30 853 N 150.769 -0.856846 -0.334985 0
M  V30 854 C 150.769 -1.9641 -1.15789 0
M  V30 855 N 150.899 -1.72708 -2.46522 0
M  V30 856 N 150.639 -3.21165 -0.713741 0
M  V30 857 C 150.519 -3.26797 0.639748 0
M  V30 858 H 147.54 -8.13644 3.0377 0
M  V30 859 H 147.27 -6.42788 2.55485 0
M  V30 860 H 148.137 -8.12039 0.792769 0
M  V30 861 H 150.792 -5.80061 -0.166416 0
M  V30 862 H 151.071 -6.51287 2.75604 0
M  V30 863 H 152.063 -7.01734 1.34462 0
M  V30 864 H 150.229 -8.73674 2.38337 0
M  V30 865 H 150.18 -4.68207 3.53221 0
M  V30 866 H 150.862 0.0398818 -0.767965 0
M  V30 867 H 150.899 -2.50995 -3.13503 0
M  V30 868 H 151 -0.759148 -2.80716 0
M  V30 869 P 152.099 -8.91 9.82044e-15 0
M  V30 870 O 152.319 -10.1726 -0.733694 0
M  V30 871 O 152.889 -8.73148 1.23936 0
M  V30 872 O 152.349 -7.66872 -0.971405 0
M  V30 873 C 151.409 -7.42309 -2.04641 0
M  V30 874 C 152.139 -6.86059 -3.24661 0
M  V30 875 O 152.349 -5.42847 -3.03646 0
M  V30 876 C 153.539 -7.41196 -3.50753 0
M  V30 877 O 153.929 -7.27073 -4.86816 0
M  V30 878 C 154.419 -6.5273 -2.63741 0
M  V30 879 C 153.709 -5.1842 -2.73198 0
M  V30 880 N 153.759 -4.38762 -1.4784 0
M  V30 881 H 150.92 -8.36803 -2.32493 0
M  V30 882 H 150.65 -6.70197 -1.71129 0
M  V30 883 H 151.517 -7.03551 -4.13168 0
M  V30 884 P 155.479 -7.20834 -5.23717 0
M  V30 885 O 155.699 -7.7993 -6.57351 0
M  V30 886 O 156.269 -7.79328 -4.13004 0
M  V30 887 O 155.729 -5.63315 -5.29344 0
M  V30 888 C 154.789 -4.80193 -6.01798 0
M  V30 889 C 155.519 -3.64202 -6.65911 0
M  V30 890 O 155.729 -2.60694 -5.64732 0
M  V30 891 C 156.919 -3.93473 -7.1943 0
M  V30 892 O 157.309 -3.02071 -8.21205 0
M  V30 893 C 157.799 -3.73047 -5.97036 0
M  V30 894 C 157.089 -2.58828 -5.25741 0
M  V30 895 N 157.139 -2.6801 -3.77422 0
M  V30 896 C 157.289 -1.50443 -3.07133 0
M  V30 897 O 157.379 -0.419406 -3.61576 0
M  V30 898 N 157.329 -1.6403 -1.69677 0
M  V30 899 C 157.239 -2.81206 -0.986255 0
M  V30 900 O 157.289 -2.80892 0.249754 0
M  V30 901 C 157.089 -3.99158 -1.80325 0
M  V30 902 C 156.979 -5.29309 -1.06921 0
M  V30 903 C 157.039 -3.89779 -3.1476 0
M  V30 904 H 154.299 -5.40332 -6.79951 0
M  V30 905 H 154.03 -4.41549 -5.32301 0
M  V30 906 H 154.897 -3.26331 -7.47797 0
M  V30 907 H 157.552 -1.6395 -5.56554 0
M  V30 908 H 157.831 -4.63439 -5.3432 0
M  V30 909 H 158.823 -3.44728 -6.25838 0
M  V30 910 H 156.989 -4.96652 -7.57263 0
M  V30 911 H 156.918 -4.80159 -3.74441 0
M  V30 912 H 157.948 -5.81459 -1.09608 0
M  V30 913 H 156.211 -5.9187 -1.54487 0
M  V30 914 H 156.699 -5.10095 -0.0220288 0
M  V30 915 H 157.435 -0.798962 -1.16664 0
M  V30 916 P 158.859 -2.75334 -8.47391 0
M  V30 917 O 159.079 -2.44571 -9.90142 0
M  V30 918 O 159.649 -3.87688 -7.92115 0
M  V30 919 O 159.109 -1.4459 -7.59357 0
M  V30 920 C 158.169 -0.347608 -7.69215 0
M  V30 921 C 158.899 0.96767 -7.52806 0
M  V30 922 O 159.109 1.21036 -6.1011 0
M  V30 923 C 160.299 1.04544 -8.13308 0
M  V30 924 O 160.689 2.38311 -8.41922 0
M  V30 925 C 161.179 0.491279 -7.02284 0
M  V30 926 C 160.469 0.996264 -5.77469 0
M  V30 927 N 160.519 0.0501916 -4.62973 0
M  V30 928 H 157.68 -0.374722 -8.67691 0
M  V30 929 H 157.41 -0.443485 -6.90277 0
M  V30 930 H 158.277 1.75537 -7.96793 0
M  V30 931 P 162.239 2.75334 -8.47391 0
M  V30 932 O 162.459 3.84166 -9.4489 0
M  V30 933 O 163.029 1.51964 -8.6881 0
M  V30 934 O 162.489 3.29363 -6.99321 0
M  V30 935 C 161.549 4.23956 -6.42656 0
M  V30 936 C 162.279 5.20775 -5.52155 0
M  V30 937 O 162.489 4.56534 -4.22446 0
M  V30 938 C 163.679 5.62629 -5.96531 0
M  V30 939 O 164.069 6.87667 -5.41053 0
M  V30 940 C 164.559 4.52537 -5.39283 0
M  V30 941 C 163.849 4.20027 -4.08623 0
M  V30 942 N 163.899 2.7613 -3.71522 0
M  V30 943 C 164.049 2.45612 -2.37989 0
M  V30 944 O 164.139 3.30919 -1.51621 0
M  V30 945 N 164.089 1.10684 -2.08435 0
M  V30 946 C 163.999 0.0690084 -2.9792 0
M  V30 947 O 164.049 -1.10553 -2.59426 0
M  V30 948 C 163.849 0.481522 -4.35345 0
M  V30 949 C 163.739 -0.618778 -5.36443 0
M  V30 950 C 163.799 1.78906 -4.67968 0
M  V30 951 H 161.059 4.797 -7.24003 0
M  V30 952 H 160.79 3.69802 -5.84429 0
M  V30 953 H 161.657 6.10356 -5.41441 0
M  V30 954 H 164.312 4.78651 -3.27911 0
M  V30 955 H 164.591 3.64957 -6.05871 0
M  V30 956 H 165.583 4.8868 -5.2125 0
M  V30 957 H 163.749 5.66726 -7.06352 0
M  V30 958 H 163.678 2.07737 -5.72367 0
M  V30 959 H 164.708 -0.754375 -5.86871 0
M  V30 960 H 162.971 -0.359721 -6.10641 0
M  V30 961 H 163.459 -1.55533 -4.8581 0
M  V30 962 H 164.195 0.862651 -1.12037 0
M  V30 963 P 165.619 7.20834 -5.23717 0
M  V30 964 O 165.839 8.66274 -5.38678 0
M  V30 965 O 166.409 6.33687 -6.13629 0
M  V30 966 O 165.869 6.7751 -3.72168 0
M  V30 967 C 164.929 7.20919 -2.70795 0
M  V30 968 C 165.659 7.45864 -1.40599 0
M  V30 969 O 165.869 6.17751 -0.734343 0
M  V30 970 C 167.059 8.05906 -1.51917 0
M  V30 971 O 167.449 8.74358 -0.335205 0
M  V30 972 C 167.939 6.83093 -1.70294 0
M  V30 973 C 167.229 5.79992 -0.836974 0
M  V30 974 N 167.279 4.41864 -1.38293 0
M  V30 975 H 164.441 8.13738 -3.03804 0
M  V30 976 H 164.169 6.42974 -2.55559 0
M  V30 977 H 165.037 8.12139 -0.792866 0
M  V30 978 H 167.692 5.80178 0.160643 0
M  V30 979 H 167.972 6.51379 -2.75643 0
M  V30 980 H 168.963 7.01832 -1.3448 0
M  V30 981 H 167.129 8.73771 -2.38364 0
M  V30 982 P 168.999 8.91 -1.09116e-14 0
M  V30 983 O 169.219 10.1726 0.733694 0
M  V30 984 O 169.789 8.73148 -1.23936 0
M  V30 985 O 169.249 7.66872 0.971405 0
M  V30 986 C 168.309 7.42309 2.04641 0
M  V30 987 C 169.039 6.86059 3.24661 0
M  V30 988 O 169.249 5.42847 3.03646 0
M  V30 989 C 170.439 7.41196 3.50753 0
M  V30 990 O 170.829 7.27073 4.86816 0
M  V30 991 C 171.319 6.5273 2.63741 0
M  V30 992 C 170.609 5.1842 2.73198 0
M  V30 993 N 170.659 4.38762 1.4784 0
M  V30 994 H 167.82 8.36803 2.32493 0
M  V30 995 H 167.55 6.70197 1.71129 0
M  V30 996 H 168.417 7.03551 4.13168 0
M  V30 997 P 172.379 7.20834 5.23717 0
M  V30 998 O 172.599 7.7993 6.57351 0
M  V30 999 O 173.169 7.79328 4.13004 0
M  V30 1000 O 172.629 5.63315 5.29344 0
M  V30 1001 C 171.689 4.80193 6.01798 0
M  V30 1002 C 172.419 3.64202 6.65911 0
M  V30 1003 O 172.629 2.60694 5.64732 0
M  V30 1004 C 173.819 3.93473 7.1943 0
M  V30 1005 O 174.209 3.02071 8.21205 0
M  V30 1006 C 174.699 3.73047 5.97036 0
M  V30 1007 C 173.989 2.58828 5.25741 0
M  V30 1008 N 174.039 2.6801 3.77422 0
M  V30 1009 C 174.189 1.50443 3.07133 0
M  V30 1010 O 174.279 0.419406 3.61576 0
M  V30 1011 N 174.229 1.6403 1.69677 0
M  V30 1012 C 174.139 2.81206 0.986255 0
M  V30 1013 C 173.989 3.99158 1.80325 0
M  V30 1014 C 173.939 3.89779 3.1476 0
M  V30 1015 H 171.199 5.40332 6.79951 0
M  V30 1016 H 170.93 4.41549 5.32301 0
M  V30 1017 H 171.797 3.26331 7.47797 0
M  V30 1018 H 174.452 1.6395 5.56554 0
M  V30 1019 H 174.731 4.63439 5.3432 0
M  V30 1020 H 175.723 3.44728 6.25838 0
M  V30 1021 H 173.889 4.96652 7.57263 0
M  V30 1022 H 173.818 4.80159 3.74441 0
M  V30 1023 P 175.759 2.75334 8.47391 0
M  V30 1024 O 175.979 2.44571 9.90142 0
M  V30 1025 O 176.549 3.87688 7.92115 0
M  V30 1026 O 176.009 1.4459 7.59357 0
M  V30 1027 C 175.069 0.347608 7.69215 0
M  V30 1028 C 175.799 -0.96767 7.52806 0
M  V30 1029 O 176.009 -1.21036 6.1011 0
M  V30 1030 C 177.199 -1.04544 8.13308 0
M  V30 1031 O 177.589 -2.38311 8.41922 0
M  V30 1032 C 178.079 -0.491279 7.02284 0
M  V30 1033 C 177.369 -0.996264 5.77469 0
M  V30 1034 N 177.419 -0.0501916 4.62973 0
M  V30 1035 H 174.58 0.374722 8.67691 0
M  V30 1036 H 174.31 0.443485 6.90277 0
M  V30 1037 H 175.177 -1.75537 7.96793 0
M  V30 1038 P 179.139 -2.75334 8.47391 0
M  V30 1039 O 179.359 -3.84128 9.44797 0
M  V30 1040 O 179.929 -1.51947 8.68712 0
M  V30 1041 O 179.389 -3.29363 6.99321 0
M  V30 1042 C 178.449 -4.24011 6.4274 0
M  V30 1043 C 179.179 -5.20775 5.52155 0
M  V30 1044 O 179.389 -4.56534 4.22446 0
M  V30 1045 C 180.579 -5.62629 5.96531 0
M  V30 1046 O 180.969 -6.87667 5.41053 0
M  V30 1047 C 181.459 -4.52537 5.39283 0
M  V30 1048 C 180.749 -4.20027 4.08623 0
M  V30 1049 N 180.799 -2.76189 3.71603 0
M  V30 1050 C 180.719 -1.64862 4.52822 0
M  V30 1051 N 180.799 -0.512671 3.88633 0
M  V30 1052 C 180.939 -0.888083 2.54977 0
M  V30 1053 C 181.069 -0.094668 1.38677 0
M  V30 1054 O 181.089 1.13053 1.28163 0
M  V30 1055 N 181.189 -0.890102 0.232633 0
M  V30 1056 C 181.189 -2.26958 0.21772 0
M  V30 1057 N 181.319 -2.84626 -0.97925 0
M  V30 1058 N 181.059 -3.0178 1.31033 0
M  V30 1059 C 180.939 -2.26781 2.43843 0
M  V30 1060 H 177.96 -4.797 7.24003 0
M  V30 1061 H 177.69 -3.69856 5.84513 0
M  V30 1062 H 178.557 -6.10356 5.41441 0
M  V30 1063 H 181.212 -4.79061 3.27488 0
M  V30 1064 H 181.491 -3.64906 6.05785 0
M  V30 1065 H 182.483 -4.8868 5.2125 0
M  V30 1066 H 180.649 -5.66726 7.06352 0
M  V30 1067 H 180.6 -1.71169 5.60966 0
M  V30 1068 H 181.282 -0.419134 -0.644739 0
M  V30 1069 H 181.319 -3.87332 -1.06098 0
M  V30 1070 H 181.42 -2.26417 -1.82483 0
M  V30 1071 P 182.519 -7.20834 5.23717 0
M  V30 1072 O 182.739 -8.66104 5.38572 0
M  V30 1073 O 183.309 -6.33544 6.1349 0
M  V30 1074 O 182.769 -6.7751 3.72168 0
M  V30 1075 C 181.829 -7.20825 2.7076 0
M  V30 1076 C 182.559 -7.45864 1.40599 0
M  V30 1077 O 182.769 -6.17651 0.734225 0
M  V30 1078 C 183.959 -8.05808 1.51899 0
M  V30 1079 O 184.349 -8.74358 0.335205 0
M  V30 1080 C 184.839 -6.83093 1.70294 0
M  V30 1081 C 184.129 -5.79992 0.836974 0
M  V30 1082 N 184.179 -4.41864 1.38293 0
M  V30 1083 C 184.099 -3.99538 2.69438 0
M  V30 1084 N 184.179 -2.69909 2.84277 0
M  V30 1085 C 184.319 -2.21719 1.5408 0
M  V30 1086 C 184.449 -0.891712 1.06628 0
M  V30 1087 N 184.569 -0.856846 -0.334985 0
M  V30 1088 C 184.569 -1.9641 -1.15789 0
M  V30 1089 N 184.699 -1.72708 -2.46522 0
M  V30 1090 N 184.439 -3.21165 -0.713741 0
M  V30 1091 C 184.319 -3.26797 0.639748 0
M  V30 1092 H 181.34 -8.13644 3.0377 0
M  V30 1093 H 181.07 -6.42788 2.55485 0
M  V30 1094 H 181.937 -8.12039 0.792769 0
M  V30 1095 P 185.899 -8.91 -8.29613e-14 0
M  V30 1096 O 186.119 -10.1726 -0.733694 0
M  V30 1097 O 186.689 -8.73148 1.23936 0
M  V30 1098 O 186.149 -7.66872 -0.971405 0
M  V30 1099 C 185.209 -7.42309 -2.04641 0
M  V30 1100 C 185.939 -6.86059 -3.24661 0
M  V30 1101 O 186.149 -5.42847 -3.03646 0
M  V30 1102 C 187.339 -7.41196 -3.50753 0
M  V30 1103 O 187.729 -7.27073 -4.86816 0
M  V30 1104 C 188.219 -6.5273 -2.63741 0
M  V30 1105 C 187.509 -5.1842 -2.73198 0
M  V30 1106 N 187.559 -4.38762 -1.4784 0
M  V30 1107 H 184.72 -8.36803 -2.32493 0
M  V30 1108 H 184.45 -6.70197 -1.71129 0
M  V30 1109 H 185.317 -7.03551 -4.13168 0
M  V30 1110 P 189.279 -7.20834 -5.23717 0
M  V30 1111 O 189.499 -7.7993 -6.57351 0
M  V30 1112 O 190.069 -7.79328 -4.13004 0
M  V30 1113 O 189.529 -5.63315 -5.29344 0
M  V30 1114 C 188.589 -4.80193 -6.01798 0
M  V30 1115 C 189.319 -3.64202 -6.65911 0
M  V30 1116 O 189.529 -2.60694 -5.64732 0
M  V30 1117 C 190.719 -3.93473 -7.1943 0
M  V30 1118 O 191.109 -3.02071 -8.21205 0
M  V30 1119 C 191.599 -3.73047 -5.97036 0
M  V30 1120 C 190.889 -2.58828 -5.25741 0
M  V30 1121 N 190.939 -2.6801 -3.77422 0
M  V30 1122 C 191.089 -1.50443 -3.07133 0
M  V30 1123 O 191.179 -0.419406 -3.61576 0
M  V30 1124 N 191.129 -1.6403 -1.69677 0
M  V30 1125 C 191.039 -2.81206 -0.986255 0
M  V30 1126 O 191.089 -2.80892 0.249754 0
M  V30 1127 C 190.889 -3.99158 -1.80325 0
M  V30 1128 C 190.779 -5.29309 -1.06921 0
M  V30 1129 C 190.839 -3.89779 -3.1476 0
M  V30 1130 H 188.099 -5.40332 -6.79951 0
M  V30 1131 H 187.83 -4.41549 -5.32301 0
M  V30 1132 H 188.697 -3.26331 -7.47797 0
M  V30 1133 H 191.352 -1.6395 -5.56554 0
M  V30 1134 H 191.631 -4.63439 -5.3432 0
M  V30 1135 H 192.623 -3.44728 -6.25838 0
M  V30 1136 H 190.789 -4.96652 -7.57263 0
M  V30 1137 H 190.718 -4.80159 -3.74441 0
M  V30 1138 H 191.748 -5.81459 -1.09608 0
M  V30 1139 H 190.011 -5.9187 -1.54487 0
M  V30 1140 H 190.499 -5.10095 -0.0220288 0
M  V30 1141 H 191.235 -0.798962 -1.16664 0
M  V30 1142 P 192.659 -2.75334 -8.47391 0
M  V30 1143 O 192.879 -2.44571 -9.90142 0
M  V30 1144 O 193.449 -3.87688 -7.92115 0
M  V30 1145 O 192.909 -1.4459 -7.59357 0
M  V30 1146 C 191.969 -0.347608 -7.69215 0
M  V30 1147 C 192.699 0.96767 -7.52806 0
M  V30 1148 O 192.909 1.21036 -6.1011 0
M  V30 1149 C 194.099 1.04544 -8.13308 0
M  V30 1150 O 194.489 2.38311 -8.41922 0
M  V30 1151 C 194.979 0.491279 -7.02284 0
M  V30 1152 C 194.269 0.996264 -5.77469 0
M  V30 1153 N 194.319 0.0501916 -4.62973 0
M  V30 1154 C 194.239 -1.32786 -4.63244 0
M  V30 1155 N 194.319 -1.86957 -3.44545 0
M  V30 1156 C 194.459 -0.780241 -2.58481 0
M  V30 1157 C 194.589 -0.738536 -1.17757 0
M  V30 1158 O 194.609 -1.66794 -0.372349 0
M  V30 1159 N 194.709 0.58337 -0.711393 0
M  V30 1160 C 194.709 1.70816 -1.51017 0
M  V30 1161 N 194.839 2.87826 -0.880757 0
M  V30 1162 N 194.579 1.67126 -2.8339 0
M  V30 1163 C 194.459 0.401421 -3.30572 0
M  V30 1164 H 191.48 -0.374722 -8.67691 0
M  V30 1165 H 191.21 -0.443485 -6.90277 0
M  V30 1166 H 192.077 1.75537 -7.96793 0
M  V30 1167 H 194.732 1.95076 -5.46529 0
M  V30 1168 H 195.011 -0.608565 -7.04577 0
M  V30 1169 H 196.003 0.889672 -7.08939 0
M  V30 1170 H 194.169 0.43308 -9.04564 0
M  V30 1171 H 194.12 -1.91249 -5.54442 0
M  V30 1172 H 194.802 0.718054 0.275244 0
M  V30 1173 H 194.839 3.75721 -1.41832 0
M  V30 1174 H 194.94 2.90436 0.145468 0
M  V30 1175 P 196.039 2.75334 -8.47391 0
M  V30 1176 O 196.259 3.84128 -9.44797 0
M  V30 1177 O 196.829 1.51947 -8.68712 0
M  V30 1178 O 196.289 3.29363 -6.99321 0
M  V30 1179 C 195.349 4.24011 -6.4274 0
M  V30 1180 C 196.079 5.20775 -5.52155 0
M  V30 1181 O 196.289 4.56534 -4.22446 0
M  V30 1182 C 197.479 5.62629 -5.96531 0
M  V30 1183 O 197.869 6.87667 -5.41053 0
M  V30 1184 C 198.359 4.52537 -5.39283 0
M  V30 1185 C 197.649 4.20027 -4.08623 0
M  V30 1186 N 197.699 2.76189 -3.71603 0
M  V30 1187 H 194.86 4.797 -7.24003 0
M  V30 1188 H 194.59 3.69856 -5.84513 0
M  V30 1189 H 195.457 6.10356 -5.41441 0
M  V30 1190 P 199.419 7.20834 -5.23717 0
M  V30 1191 O 199.639 8.66274 -5.38678 0
M  V30 1192 O 200.209 6.33687 -6.13629 0
M  V30 1193 O 199.669 6.7751 -3.72168 0
M  V30 1194 C 198.729 7.20919 -2.70795 0
M  V30 1195 C 199.459 7.45864 -1.40599 0
M  V30 1196 O 199.669 6.17751 -0.734343 0
M  V30 1197 C 200.859 8.05906 -1.51917 0
M  V30 1198 O 201.249 8.74358 -0.335205 0
M  V30 1199 C 201.739 6.83093 -1.70294 0
M  V30 1200 C 201.029 5.79992 -0.836974 0
M  V30 1201 N 201.079 4.41864 -1.38293 0
M  V30 1202 C 200.999 4.02089 -2.69407 0
M  V30 1203 N 201.069 2.73403 -2.85089 0
M  V30 1204 C 201.219 2.25086 -1.5642 0
M  V30 1205 C 201.349 0.942887 -1.04836 0
M  V30 1206 N 201.359 -0.150999 -1.80369 0
M  V30 1207 N 201.469 0.812565 0.28167 0
M  V30 1208 C 201.459 1.90572 1.03784 0
M  V30 1209 N 201.339 3.167 0.683905 0
M  V30 1210 C 201.219 3.26538 -0.652815 0
M  V30 1211 H 198.241 8.13738 -3.03804 0
M  V30 1212 H 197.969 6.42974 -2.55559 0
M  V30 1213 H 198.837 8.12139 -0.792866 0
M  V30 1214 H 201.492 5.80178 0.160643 0
M  V30 1215 H 201.772 6.51379 -2.75643 0
M  V30 1216 H 202.763 7.01832 -1.3448 0
M  V30 1217 H 200.929 8.73771 -2.38364 0
M  V30 1218 H 200.888 4.7189 -3.52311 0
M  V30 1219 H 201.269 -0.0721434 -2.82608 0
M  V30 1220 H 201.458 -1.0785 -1.36544 0
M  V30 1221 H 201.566 1.73207 2.10241 0
M  V30 1222 P 202.799 8.91 2.40144e-13 0
M  V30 1223 O 203.019 10.1726 0.733694 0
M  V30 1224 O 203.589 8.73148 -1.23936 0
M  V30 1225 O 203.049 7.66872 0.971405 0
M  V30 1226 C 202.109 7.42309 2.04641 0
M  V30 1227 C 202.839 6.86059 3.24661 0
M  V30 1228 O 203.049 5.42847 3.03646 0
M  V30 1229 C 204.239 7.41196 3.50753 0
M  V30 1230 O 204.629 7.27073 4.86816 0
M  V30 1231 C 205.119 6.5273 2.63741 0
M  V30 1232 C 204.409 5.1842 2.73198 0
M  V30 1233 N 204.459 4.38762 1.4784 0
M  V30 1234 H 201.62 8.36803 2.32493 0
M  V30 1235 H 201.35 6.70197 1.71129 0
M  V30 1236 H 202.217 7.03551 4.13168 0
M  V30 1237 P 206.179 7.20834 5.23717 0
M  V30 1238 O 206.399 7.79853 6.57286 0
M  V30 1239 O 206.969 7.79239 4.12957 0
M  V30 1240 O 206.429 5.63315 5.29344 0
M  V30 1241 C 205.489 4.80255 6.01876 0
M  V30 1242 C 206.219 3.64202 6.65911 0
M  V30 1243 O 206.429 2.60694 5.64732 0
M  V30 1244 C 207.619 3.93473 7.1943 0
M  V30 1245 O 208.009 3.02071 8.21205 0
M  V30 1246 C 208.499 3.73047 5.97036 0
M  V30 1247 C 207.789 2.58828 5.25741 0
M  V30 1248 N 207.839 2.68068 3.77503 0
M  V30 1249 H 205 5.40332 6.79951 0
M  V30 1250 H 204.73 4.41613 5.32378 0
M  V30 1251 H 205.597 3.26331 7.47797 0
M  V30 1252 P 209.559 2.75334 8.47391 0
M  V30 1253 O 209.779 2.44571 9.90142 0
M  V30 1254 O 210.349 3.87688 7.92115 0
M  V30 1255 O 209.809 1.4459 7.59357 0
M  V30 1256 C 208.869 0.347608 7.69215 0
M  V30 1257 C 209.599 -0.96767 7.52806 0
M  V30 1258 O 209.809 -1.21036 6.1011 0
M  V30 1259 C 210.999 -1.04544 8.13308 0
M  V30 1260 O 211.389 -2.38311 8.41922 0
M  V30 1261 C 211.879 -0.491279 7.02284 0
M  V30 1262 C 211.169 -0.996264 5.77469 0
M  V30 1263 N 211.219 -0.0501916 4.62973 0
M  V30 1264 H 208.38 0.374722 8.67691 0
M  V30 1265 H 208.11 0.443485 6.90277 0
M  V30 1266 H 208.977 -1.75537 7.96793 0
M  V30 1267 P 212.939 -2.75334 8.47391 0
M  V30 1268 O 213.159 -3.84128 9.44797 0
M  V30 1269 O 213.729 -1.51947 8.68712 0
M  V30 1270 O 213.189 -3.29363 6.99321 0
M  V30 1271 C 212.249 -4.24011 6.4274 0
M  V30 1272 C 212.979 -5.20775 5.52155 0
M  V30 1273 O 213.189 -4.56534 4.22446 0
M  V30 1274 C 214.379 -5.62629 5.96531 0
M  V30 1275 O 214.769 -6.87667 5.41053 0
M  V30 1276 C 215.259 -4.52537 5.39283 0
M  V30 1277 C 214.549 -4.20027 4.08623 0
M  V30 1278 N 214.599 -2.76189 3.71603 0
M  V30 1279 H 211.76 -4.797 7.24003 0
M  V30 1280 H 211.49 -3.69856 5.84513 0
M  V30 1281 H 212.357 -6.10356 5.41441 0
M  V30 1282 P 216.319 -7.20834 5.23717 0
M  V30 1283 O 216.539 -8.66274 5.38678 0
M  V30 1284 O 217.109 -6.33687 6.13629 0
M  V30 1285 O 216.569 -6.7751 3.72168 0
M  V30 1286 C 215.629 -7.20919 2.70795 0
M  V30 1287 C 216.359 -7.45864 1.40599 0
M  V30 1288 O 216.569 -6.17751 0.734343 0
M  V30 1289 C 217.759 -8.05906 1.51917 0
M  V30 1290 O 218.149 -8.74358 0.335205 0
M  V30 1291 C 218.639 -6.83093 1.70294 0
M  V30 1292 C 217.929 -5.79992 0.836974 0
M  V30 1293 N 217.979 -4.41864 1.38293 0
M  V30 1294 C 217.899 -4.02089 2.69407 0
M  V30 1295 N 217.969 -2.73403 2.85089 0
M  V30 1296 C 218.119 -2.25086 1.5642 0
M  V30 1297 C 218.249 -0.942887 1.04836 0
M  V30 1298 N 218.259 0.150999 1.80369 0
M  V30 1299 N 218.369 -0.812565 -0.28167 0
M  V30 1300 C 218.359 -1.90572 -1.03784 0
M  V30 1301 N 218.239 -3.167 -0.683905 0
M  V30 1302 C 218.119 -3.26538 0.652815 0
M  V30 1303 H 215.141 -8.13738 3.03804 0
M  V30 1304 H 214.869 -6.42974 2.55559 0
M  V30 1305 H 215.737 -8.12139 0.792866 0
M  V30 1306 H 218.392 -5.80178 -0.160643 0
M  V30 1307 H 218.672 -6.51379 2.75643 0
M  V30 1308 H 219.663 -7.01832 1.3448 0
M  V30 1309 H 217.829 -8.73771 2.38364 0
M  V30 1310 H 217.788 -4.7189 3.52311 0
M  V30 1311 H 218.169 0.0721434 2.82608 0
M  V30 1312 H 218.358 1.0785 1.36544 0
M  V30 1313 H 218.466 -1.73207 -2.10241 0
M  V30 1314 P 219.699 -8.91 -3.97326e-13 0
M  V30 1315 O 219.919 -10.1726 -0.733694 0
M  V30 1316 O 220.489 -8.73148 1.23936 0
M  V30 1317 O 219.949 -7.66872 -0.971405 0
M  V30 1318 C 219.009 -7.42309 -2.04641 0
M  V30 1319 C 219.739 -6.86059 -3.24661 0
M  V30 1320 O 219.949 -5.42847 -3.03646 0
M  V30 1321 C 221.139 -7.41196 -3.50753 0
M  V30 1322 O 221.529 -7.27073 -4.86816 0
M  V30 1323 C 222.019 -6.5273 -2.63741 0
M  V30 1324 C 221.309 -5.1842 -2.73198 0
M  V30 1325 N 221.359 -4.38762 -1.4784 0
M  V30 1326 H 218.52 -8.36803 -2.32493 0
M  V30 1327 H 218.25 -6.70197 -1.71129 0
M  V30 1328 H 219.117 -7.03551 -4.13168 0
M  V30 1329 P 223.079 -7.20834 -5.23717 0
M  V30 1330 O 223.299 -7.79853 -6.57286 0
M  V30 1331 O 223.869 -7.79239 -4.12957 0
M  V30 1332 O 223.329 -5.63315 -5.29344 0
M  V30 1333 C 222.389 -4.80255 -6.01876 0
M  V30 1334 C 223.119 -3.64202 -6.65911 0
M  V30 1335 O 223.329 -2.60694 -5.64732 0
M  V30 1336 C 224.519 -3.93473 -7.1943 0
M  V30 1337 O 224.909 -3.02071 -8.21205 0
M  V30 1338 C 225.399 -3.73047 -5.97036 0
M  V30 1339 C 224.689 -2.58828 -5.25741 0
M  V30 1340 N 224.739 -2.68068 -3.77503 0
M  V30 1341 H 221.9 -5.40332 -6.79951 0
M  V30 1342 H 221.63 -4.41613 -5.32378 0
M  V30 1343 H 222.497 -3.26331 -7.47797 0
M  V30 1344 P 226.459 -2.75334 -8.47391 0
M  V30 1345 O 226.679 -2.44571 -9.90142 0
M  V30 1346 O 227.249 -3.87688 -7.92115 0
M  V30 1347 O 226.709 -1.4459 -7.59357 0
M  V30 1348 C 225.769 -0.347608 -7.69215 0
M  V30 1349 C 226.499 0.96767 -7.52806 0
M  V30 1350 O 226.709 1.21036 -6.1011 0
M  V30 1351 C 227.899 1.04544 -8.13308 0
M  V30 1352 O 228.289 2.38311 -8.41922 0
M  V30 1353 C 228.779 0.491279 -7.02284 0
M  V30 1354 C 228.069 0.996264 -5.77469 0
M  V30 1355 N 228.119 0.0501916 -4.62973 0
M  V30 1356 H 225.28 -0.374722 -8.67691 0
M  V30 1357 H 225.01 -0.443485 -6.90277 0
M  V30 1358 H 225.877 1.75537 -7.96793 0
M  V30 1359 P 229.839 2.75334 -8.47391 0
M  V30 1360 O 230.059 3.84128 -9.44797 0
M  V30 1361 O 230.629 1.51947 -8.68712 0
M  V30 1362 O 230.089 3.29363 -6.99321 0
M  V30 1363 C 229.149 4.24011 -6.4274 0
M  V30 1364 C 229.879 5.20775 -5.52155 0
M  V30 1365 O 230.089 4.56534 -4.22446 0
M  V30 1366 C 231.279 5.62629 -5.96531 0
M  V30 1367 O 231.669 6.87667 -5.41053 0
M  V30 1368 C 232.159 4.52537 -5.39283 0
M  V30 1369 C 231.449 4.20027 -4.08623 0
M  V30 1370 N 231.499 2.76189 -3.71603 0
M  V30 1371 H 228.66 4.797 -7.24003 0
M  V30 1372 H 228.39 3.69856 -5.84513 0
M  V30 1373 H 229.257 6.10356 -5.41441 0
M  V30 1374 P 233.219 7.20834 -5.23717 0
M  V30 1375 O 233.439 8.66274 -5.38678 0
M  V30 1376 O 234.009 6.33687 -6.13629 0
M  V30 1377 O 233.469 6.7751 -3.72168 0
M  V30 1378 C 232.529 7.20919 -2.70795 0
M  V30 1379 C 233.259 7.45864 -1.40599 0
M  V30 1380 O 233.469 6.17751 -0.734343 0
M  V30 1381 C 234.659 8.05906 -1.51917 0
M  V30 1382 O 235.049 8.74358 -0.335205 0
M  V30 1383 C 235.539 6.83093 -1.70294 0
M  V30 1384 C 234.829 5.79992 -0.836974 0
M  V30 1385 N 234.879 4.41864 -1.38293 0
M  V30 1386 C 234.799 4.02089 -2.69407 0
M  V30 1387 N 234.869 2.73403 -2.85089 0
M  V30 1388 C 235.019 2.25086 -1.5642 0
M  V30 1389 C 235.149 0.942887 -1.04836 0
M  V30 1390 N 235.159 -0.150999 -1.80369 0
M  V30 1391 N 235.269 0.812565 0.28167 0
M  V30 1392 C 235.259 1.90572 1.03784 0
M  V30 1393 N 235.139 3.167 0.683905 0
M  V30 1394 C 235.019 3.26538 -0.652815 0
M  V30 1395 H 232.041 8.13738 -3.03804 0
M  V30 1396 H 231.769 6.42974 -2.55559 0
M  V30 1397 H 232.637 8.12139 -0.792866 0
M  V30 1398 H 235.292 5.80178 0.160643 0
M  V30 1399 H 235.572 6.51379 -2.75643 0
M  V30 1400 H 236.563 7.01832 -1.3448 0
M  V30 1401 H 234.729 8.73771 -2.38364 0
M  V30 1402 H 234.688 4.7189 -3.52311 0
M  V30 1403 H 235.069 -0.0721434 -2.82608 0
M  V30 1404 H 235.258 -1.0785 -1.36544 0
M  V30 1405 H 235.366 1.73207 2.10241 0
M  V30 1406 P 236.599 8.91 5.54508e-13 0
M  V30 1407 O 236.819 10.1726 0.733694 0
M  V30 1408 O 237.389 8.73148 -1.23936 0
M  V30 1409 O 236.849 7.66872 0.971405 0
M  V30 1410 C 235.909 7.42309 2.04641 0
M  V30 1411 C 236.639 6.86059 3.24661 0
M  V30 1412 O 236.849 5.42847 3.03646 0
M  V30 1413 C 238.039 7.41196 3.50753 0
M  V30 1414 O 238.429 7.27073 4.86816 0
M  V30 1415 C 238.919 6.5273 2.63741 0
M  V30 1416 C 238.209 5.1842 2.73198 0
M  V30 1417 N 238.259 4.38762 1.4784 0
M  V30 1418 H 235.42 8.36803 2.32493 0
M  V30 1419 H 235.15 6.70197 1.71129 0
M  V30 1420 H 236.017 7.03551 4.13168 0
M  V30 1421 P 239.979 7.20834 5.23717 0
M  V30 1422 O 240.199 7.79853 6.57286 0
M  V30 1423 O 240.769 7.79239 4.12957 0
M  V30 1424 O 240.229 5.63315 5.29344 0
M  V30 1425 C 239.289 4.80255 6.01876 0
M  V30 1426 C 240.019 3.64202 6.65911 0
M  V30 1427 O 240.229 2.60694 5.64732 0
M  V30 1428 C 241.419 3.93473 7.1943 0
M  V30 1429 O 241.809 3.02071 8.21205 0
M  V30 1430 C 242.299 3.73047 5.97036 0
M  V30 1431 C 241.589 2.58828 5.25741 0
M  V30 1432 N 241.639 2.68068 3.77503 0
M  V30 1433 H 238.8 5.40332 6.79951 0
M  V30 1434 H 238.53 4.41613 5.32378 0
M  V30 1435 H 239.397 3.26331 7.47797 0
M  V30 1436 P 243.359 2.75334 8.47391 0
M  V30 1437 O 243.579 2.44619 9.90336 0
M  V30 1438 O 244.149 3.87776 7.92294 0
M  V30 1439 O 243.609 1.4459 7.59357 0
M  V30 1440 C 242.669 0.347653 7.69315 0
M  V30 1441 C 243.399 -0.96767 7.52806 0
M  V30 1442 O 243.609 -1.21055 6.10208 0
M  V30 1443 C 244.799 -1.04557 8.13408 0
M  V30 1444 O 245.189 -2.38311 8.41922 0
M  V30 1445 C 245.679 -0.491279 7.02284 0
M  V30 1446 C 244.969 -0.996264 5.77469 0
M  V30 1447 N 245.019 -0.0501916 4.62973 0
M  V30 1448 C 244.939 1.31969 4.65661 0
M  V30 1449 N 245.009 1.86649 3.48119 0
M  V30 1450 C 245.159 0.792089 2.62406 0
M  V30 1451 C 245.289 0.705684 1.2207 0
M  V30 1452 N 245.299 1.76207 0.413762 0
M  V30 1453 N 245.409 -0.518981 0.685754 0
M  V30 1454 C 245.399 -1.57595 1.49174 0
M  V30 1455 N 245.279 -1.62909 2.80066 0
M  V30 1456 C 245.159 -0.388195 3.3073 0
M  V30 1457 H 242.181 0.374765 8.67791 0
M  V30 1458 H 241.909 0.443613 6.90476 0
M  V30 1459 H 242.777 -1.75559 7.96891 0
M  V30 1460 H 245.432 -1.94563 5.46818 0
M  V30 1461 H 245.712 0.608651 7.04676 0
M  V30 1462 H 246.703 -0.889796 7.09039 0
M  V30 1463 H 244.869 -0.433128 9.04664 0
M  V30 1464 H 244.828 1.89246 5.57664 0
M  V30 1465 H 245.209 2.71005 0.804694 0
M  V30 1466 H 245.398 1.63189 -0.603768 0
M  V30 1467 H 245.506 -2.53475 0.997614 0
M  V30 1468 P 246.739 -2.75334 8.47391 0
M  V30 1469 O 246.959 -3.84128 9.44797 0
M  V30 1470 O 247.529 -1.51947 8.68712 0
M  V30 1471 O 246.989 -3.29363 6.99321 0
M  V30 1472 C 246.049 -4.24011 6.4274 0
M  V30 1473 C 246.779 -5.20775 5.52155 0
M  V30 1474 O 246.989 -4.56534 4.22446 0
M  V30 1475 C 248.179 -5.62629 5.96531 0
M  V30 1476 O 248.569 -6.87667 5.41053 0
M  V30 1477 C 249.059 -4.52537 5.39283 0
M  V30 1478 C 248.349 -4.20027 4.08623 0
M  V30 1479 N 248.399 -2.76189 3.71603 0
M  V30 1480 H 245.56 -4.797 7.24003 0
M  V30 1481 H 245.29 -3.69856 5.84513 0
M  V30 1482 H 246.157 -6.10356 5.41441 0
M  V30 1483 P 250.119 -7.20834 5.23717 0
M  V30 1484 O 250.339 -8.66104 5.38572 0
M  V30 1485 O 250.909 -6.33544 6.1349 0
M  V30 1486 O 250.369 -6.7751 3.72168 0
M  V30 1487 C 249.429 -7.20825 2.7076 0
M  V30 1488 C 250.159 -7.45864 1.40599 0
M  V30 1489 O 250.369 -6.17651 0.734225 0
M  V30 1490 C 251.559 -8.05808 1.51899 0
M  V30 1491 O 251.949 -8.74358 0.335205 0
M  V30 1492 C 252.439 -6.83093 1.70294 0
M  V30 1493 C 251.729 -5.79992 0.836974 0
M  V30 1494 N 251.779 -4.41864 1.38293 0
M  V30 1495 C 251.699 -3.99538 2.69438 0
M  V30 1496 N 251.779 -2.69909 2.84277 0
M  V30 1497 C 251.919 -2.21719 1.5408 0
M  V30 1498 C 252.049 -0.891712 1.06628 0
M  V30 1499 O 252.069 0.161298 1.70137 0
M  V30 1500 N 252.169 -0.856846 -0.334985 0
M  V30 1501 C 252.169 -1.9641 -1.15789 0
M  V30 1502 N 252.299 -1.72708 -2.46522 0
M  V30 1503 N 252.039 -3.21165 -0.713741 0
M  V30 1504 C 251.919 -3.26797 0.639748 0
M  V30 1505 H 248.94 -8.13644 3.0377 0
M  V30 1506 H 248.67 -6.42788 2.55485 0
M  V30 1507 H 249.537 -8.12039 0.792769 0
M  V30 1508 H 252.192 -5.80061 -0.166416 0
M  V30 1509 H 252.471 -6.51287 2.75604 0
M  V30 1510 H 253.463 -7.01734 1.34462 0
M  V30 1511 H 251.629 -8.73674 2.38337 0
M  V30 1512 H 251.58 -4.68207 3.53221 0
M  V30 1513 H 252.262 0.0398818 -0.767965 0
M  V30 1514 H 252.299 -2.50995 -3.13503 0
M  V30 1515 H 252.4 -0.759148 -2.80716 0
M  V30 1516 P 253.498 -8.91 -7.1169e-13 0
M  V30 1517 O 253.718 -10.1726 -0.733694 0
M  V30 1518 O 254.288 -8.73148 1.23936 0
M  V30 1519 O 253.748 -7.66872 -0.971405 0
M  V30 1520 C 252.808 -7.42309 -2.04641 0
M  V30 1521 C 253.538 -6.86059 -3.24661 0
M  V30 1522 O 253.748 -5.42847 -3.03646 0
M  V30 1523 C 254.938 -7.41196 -3.50753 0
M  V30 1524 O 255.328 -7.27073 -4.86816 0
M  V30 1525 C 255.818 -6.5273 -2.63741 0
M  V30 1526 C 255.108 -5.1842 -2.73198 0
M  V30 1527 N 255.158 -4.38762 -1.4784 0
M  V30 1528 H 252.319 -8.36803 -2.32493 0
M  V30 1529 H 252.049 -6.70197 -1.71129 0
M  V30 1530 H 252.916 -7.03551 -4.13168 0
M  V30 1531 P 256.878 -7.20834 -5.23717 0
M  V30 1532 O 257.098 -7.80006 -6.57415 0
M  V30 1533 O 257.668 -7.79416 -4.13051 0
M  V30 1534 O 257.128 -5.63315 -5.29344 0
M  V30 1535 C 256.188 -4.80318 -6.01954 0
M  V30 1536 C 256.918 -3.64202 -6.65911 0
M  V30 1537 O 257.128 -2.60736 -5.64823 0
M  V30 1538 C 258.318 -3.93521 -7.19518 0
M  V30 1539 O 258.708 -3.02071 -8.21205 0
M  V30 1540 C 259.198 -3.73047 -5.97036 0
M  V30 1541 C 258.488 -2.58828 -5.25741 0
M  V30 1542 N 258.538 -2.68068 -3.77503 0
M  V30 1543 H 255.7 -5.40394 -6.8003 0
M  V30 1544 H 255.428 -4.41741 -5.32532 0
M  V30 1545 H 256.296 -3.26371 -7.47889 0
M  V30 1546 H 258.951 -1.64007 -5.56746 0
M  V30 1547 H 259.231 -4.63439 -5.3432 0
M  V30 1548 H 260.222 -3.44776 -6.25925 0
M  V30 1549 H 258.388 -4.96707 -7.57347 0
M  V30 1550 P 260.258 -2.75334 -8.47391 0
M  V30 1551 O 260.478 -2.44571 -9.90142 0
M  V30 1552 O 261.048 -3.87688 -7.92115 0
M  V30 1553 O 260.508 -1.4459 -7.59357 0
M  V30 1554 C 259.568 -0.347608 -7.69215 0
M  V30 1555 C 260.298 0.96767 -7.52806 0
M  V30 1556 O 260.508 1.21036 -6.1011 0
M  V30 1557 C 261.698 1.04544 -8.13308 0
M  V30 1558 O 262.088 2.38311 -8.41922 0
M  V30 1559 C 262.578 0.491279 -7.02284 0
M  V30 1560 C 261.868 0.996264 -5.77469 0
M  V30 1561 N 261.918 0.0501916 -4.62973 0
M  V30 1562 H 259.079 -0.374722 -8.67691 0
M  V30 1563 H 258.809 -0.443485 -6.90277 0
M  V30 1564 H 259.676 1.75537 -7.96793 0
M  V30 1565 P 263.638 2.75334 -8.47391 0
M  V30 1566 O 263.858 3.84128 -9.44797 0
M  V30 1567 O 264.428 1.51947 -8.68712 0
M  V30 1568 O 263.888 3.29363 -6.99321 0
M  V30 1569 C 262.948 4.24011 -6.4274 0
M  V30 1570 C 263.678 5.20775 -5.52155 0
M  V30 1571 O 263.888 4.56534 -4.22446 0
M  V30 1572 C 265.078 5.62629 -5.96531 0
M  V30 1573 O 265.468 6.87667 -5.41053 0
M  V30 1574 C 265.958 4.52537 -5.39283 0
M  V30 1575 C 265.248 4.20027 -4.08623 0
M  V30 1576 N 265.298 2.76189 -3.71603 0
M  V30 1577 H 262.459 4.797 -7.24003 0
M  V30 1578 H 262.189 3.69856 -5.84513 0
M  V30 1579 H 263.056 6.10356 -5.41441 0
M  V30 1580 P 267.018 7.20834 -5.23717 0
M  V30 1581 O 267.238 8.66104 -5.38572 0
M  V30 1582 O 267.808 6.33544 -6.1349 0
M  V30 1583 O 267.268 6.7751 -3.72168 0
M  V30 1584 C 266.328 7.20825 -2.7076 0
M  V30 1585 C 267.058 7.45864 -1.40599 0
M  V30 1586 O 267.268 6.17651 -0.734225 0
M  V30 1587 C 268.458 8.05808 -1.51899 0
M  V30 1588 O 268.848 8.74358 -0.335205 0
M  V30 1589 C 269.338 6.83093 -1.70294 0
M  V30 1590 C 268.628 5.79992 -0.836974 0
M  V30 1591 N 268.678 4.41864 -1.38293 0
M  V30 1592 C 268.598 3.99538 -2.69438 0
M  V30 1593 N 268.678 2.69909 -2.84277 0
M  V30 1594 C 268.818 2.21719 -1.5408 0
M  V30 1595 C 268.948 0.891712 -1.06628 0
M  V30 1596 N 269.068 0.856846 0.334985 0
M  V30 1597 C 269.068 1.9641 1.15789 0
M  V30 1598 N 269.198 1.72708 2.46522 0
M  V30 1599 N 268.938 3.21165 0.713741 0
M  V30 1600 C 268.818 3.26797 -0.639748 0
M  V30 1601 H 265.839 8.13644 -3.0377 0
M  V30 1602 H 265.569 6.42788 -2.55485 0
M  V30 1603 H 266.436 8.12039 -0.792769 0
M  V30 1604 P 270.398 8.91 8.68872e-13 0
M  V30 1605 O 270.618 10.1726 0.733694 0
M  V30 1606 O 271.188 8.73148 -1.23936 0
M  V30 1607 O 270.648 7.66872 0.971405 0
M  V30 1608 C 269.708 7.42309 2.04641 0
M  V30 1609 C 270.438 6.86059 3.24661 0
M  V30 1610 O 270.648 5.42847 3.03646 0
M  V30 1611 C 271.838 7.41196 3.50753 0
M  V30 1612 O 272.228 7.27073 4.86816 0
M  V30 1613 C 272.718 6.5273 2.63741 0
M  V30 1614 C 272.008 5.1842 2.73198 0
M  V30 1615 N 272.058 4.38762 1.4784 0
M  V30 1616 H 269.219 8.36803 2.32493 0
M  V30 1617 H 268.949 6.70197 1.71129 0
M  V30 1618 H 269.816 7.03551 4.13168 0
M  V30 1619 P 273.778 7.20834 5.23717 0
M  V30 1620 O 273.998 7.79853 6.57286 0
M  V30 1621 O 274.568 7.79239 4.12957 0
M  V30 1622 O 274.028 5.63315 5.29344 0
M  V30 1623 C 273.088 4.80255 6.01876 0
M  V30 1624 C 273.818 3.64202 6.65911 0
M  V30 1625 O 274.028 2.60694 5.64732 0
M  V30 1626 C 275.218 3.93473 7.1943 0
M  V30 1627 O 275.608 3.02071 8.21205 0
M  V30 1628 C 276.098 3.73047 5.97036 0
M  V30 1629 C 275.388 2.58828 5.25741 0
M  V30 1630 N 275.438 2.68068 3.77503 0
M  V30 1631 C 275.358 3.79715 2.96723 0
M  V30 1632 N 275.438 3.5377 1.68852 0
M  V30 1633 C 275.578 2.15054 1.63254 0
M  V30 1634 C 275.708 1.28964 0.518571 0
M  V30 1635 O 275.728 1.56826 -0.679156 0
M  V30 1636 N 275.828 -0.0538097 0.918425 0
M  V30 1637 C 275.828 -0.494275 2.22578 0
M  V30 1638 N 275.958 -1.81086 2.40434 0
M  V30 1639 N 275.698 0.313645 3.27502 0
M  V30 1640 C 275.578 1.61829 2.91033 0
M  V30 1641 H 272.599 5.40332 6.79951 0
M  V30 1642 H 272.329 4.41613 5.32378 0
M  V30 1643 H 273.196 3.26331 7.47797 0
M  V30 1644 H 275.851 1.63422 5.56814 0
M  V30 1645 H 276.13 4.63374 5.34244 0
M  V30 1646 H 277.122 3.44728 6.25838 0
M  V30 1647 H 275.288 4.96652 7.57263 0
M  V30 1648 H 275.239 4.80617 3.3614 0
M  V30 1649 H 275.921 -0.742702 0.199384 0
M  V30 1650 H 275.958 -2.20598 3.35588 0
M  V30 1651 H 276.059 -2.43518 1.58945 0
M  V30 1652 P 277.158 2.75334 8.47391 0
M  V30 1653 O 277.378 2.44619 9.90336 0
M  V30 1654 O 277.948 3.87776 7.92294 0
M  V30 1655 O 277.408 1.4459 7.59357 0
M  V30 1656 C 276.468 0.347653 7.69315 0
M  V30 1657 C 277.198 -0.96767 7.52806 0
M  V30 1658 O 277.408 -1.21055 6.10208 0
M  V30 1659 C 278.598 -1.04557 8.13408 0
M  V30 1660 O 278.988 -2.38311 8.41922 0
M  V30 1661 C 279.478 -0.491279 7.02284 0
M  V30 1662 C 278.768 -0.996264 5.77469 0
M  V30 1663 N 278.818 -0.0501916 4.62973 0
M  V30 1664 H 275.98 0.374765 8.67791 0
M  V30 1665 H 275.708 0.443613 6.90476 0
M  V30 1666 H 276.576 -1.75559 7.96891 0
M  V30 1667 H 279.231 -1.94563 5.46818 0
M  V30 1668 H 279.511 0.608651 7.04676 0
M  V30 1669 H 280.502 -0.889796 7.09039 0
M  V30 1670 H 278.668 -0.433128 9.04664 0
M  V30 1671 P 280.538 -2.75334 8.47391 0
M  V30 1672 O 280.758 -3.84128 9.44797 0
M  V30 1673 O 281.328 -1.51947 8.68712 0
M  V30 1674 O 280.788 -3.29363 6.99321 0
M  V30 1675 C 279.848 -4.24011 6.4274 0
M  V30 1676 C 280.578 -5.20775 5.52155 0
M  V30 1677 O 280.788 -4.56534 4.22446 0
M  V30 1678 C 281.978 -5.62629 5.96531 0
M  V30 1679 O 282.368 -6.87667 5.41053 0
M  V30 1680 C 282.858 -4.52537 5.39283 0
M  V30 1681 C 282.148 -4.20027 4.08623 0
M  V30 1682 N 282.198 -2.76189 3.71603 0
M  V30 1683 C 282.118 -1.64862 4.52822 0
M  V30 1684 N 282.198 -0.512671 3.88633 0
M  V30 1685 C 282.338 -0.888083 2.54977 0
M  V30 1686 C 282.468 -0.094668 1.38677 0
M  V30 1687 N 282.588 -0.890102 0.232633 0
M  V30 1688 C 282.588 -2.26958 0.21772 0
M  V30 1689 N 282.718 -2.84626 -0.97925 0
M  V30 1690 N 282.458 -3.0178 1.31033 0
M  V30 1691 C 282.338 -2.26781 2.43843 0
M  V30 1692 H 279.359 -4.797 7.24003 0
M  V30 1693 H 279.089 -3.69856 5.84513 0
M  V30 1694 H 279.956 -6.10356 5.41441 0
M  V30 1695 P 283.918 -7.20834 5.23717 0
M  V30 1696 O 284.138 -8.66189 5.38625 0
M  V30 1697 O 284.708 -6.33615 6.1356 0
M  V30 1698 O 284.168 -6.7751 3.72168 0
M  V30 1699 C 283.228 -7.20732 2.70725 0
M  V30 1700 C 283.958 -7.45864 1.40599 0
M  V30 1701 O 284.168 -6.17651 0.734225 0
M  V30 1702 C 285.358 -8.05808 1.51899 0
M  V30 1703 O 285.748 -8.74358 0.335205 0
M  V30 1704 C 286.238 -6.83093 1.70294 0
M  V30 1705 C 285.528 -5.79992 0.836974 0
M  V30 1706 N 285.578 -4.41769 1.38263 0
M  V30 1707 C 285.728 -3.38591 0.481702 0
M  V30 1708 O 285.818 -3.56839 -0.718452 0
M  V30 1709 N 285.768 -2.1206 1.03569 0
M  V30 1710 C 285.678 -1.80696 2.36966 0
M  V30 1711 C 285.528 -2.94845 3.23898 0
M  V30 1712 C 285.478 -4.19803 2.73435 0
M  V30 1713 H 282.738 -8.13644 3.0377 0
M  V30 1714 H 282.469 -6.42695 2.55448 0
M  V30 1715 H 283.336 -8.12039 0.792769 0
M  V30 1716 H 285.991 -5.79978 -0.160587 0
M  V30 1717 H 286.27 -6.51379 2.75643 0
M  V30 1718 H 287.262 -7.01734 1.34462 0
M  V30 1719 H 285.428 -8.73674 2.38337 0
M  V30 1720 H 285.357 -5.04492 3.4095 0
M  V30 1721 P 287.298 -8.91 -1.02605e-12 0
M  V30 1722 O 287.518 -10.1726 -0.733694 0
M  V30 1723 O 288.088 -8.73148 1.23936 0
M  V30 1724 O 287.548 -7.66872 -0.971405 0
M  V30 1725 C 286.608 -7.42309 -2.04641 0
M  V30 1726 C 287.338 -6.86059 -3.24661 0
M  V30 1727 O 287.548 -5.42847 -3.03646 0
M  V30 1728 C 288.738 -7.41196 -3.50753 0
M  V30 1729 O 289.128 -7.27073 -4.86816 0
M  V30 1730 C 289.618 -6.5273 -2.63741 0
M  V30 1731 C 288.908 -5.1842 -2.73198 0
M  V30 1732 N 288.958 -4.38762 -1.4784 0
M  V30 1733 H 286.119 -8.36803 -2.32493 0
M  V30 1734 H 285.849 -6.70197 -1.71129 0
M  V30 1735 H 286.716 -7.03551 -4.13168 0
M  V30 1736 P 290.678 -7.20834 -5.23717 0
M  V30 1737 O 290.898 -7.79853 -6.57286 0
M  V30 1738 O 291.468 -7.79239 -4.12957 0
M  V30 1739 O 290.928 -5.63315 -5.29344 0
M  V30 1740 C 289.988 -4.80255 -6.01876 0
M  V30 1741 C 290.718 -3.64202 -6.65911 0
M  V30 1742 O 290.928 -2.60694 -5.64732 0
M  V30 1743 C 292.118 -3.93473 -7.1943 0
M  V30 1744 O 292.508 -3.02071 -8.21205 0
M  V30 1745 C 292.998 -3.73047 -5.97036 0
M  V30 1746 C 292.288 -2.58828 -5.25741 0
M  V30 1747 N 292.338 -2.68068 -3.77503 0
M  V30 1748 H 289.499 -5.40332 -6.79951 0
M  V30 1749 H 289.229 -4.41613 -5.32378 0
M  V30 1750 H 290.096 -3.26331 -7.47797 0
M  V30 1751 P 294.058 -2.75334 -8.47391 0
M  V30 1752 O 294.278 -2.44571 -9.90142 0
M  V30 1753 O 294.848 -3.87688 -7.92115 0
M  V30 1754 O 294.308 -1.4459 -7.59357 0
M  V30 1755 C 293.368 -0.347608 -7.69215 0
M  V30 1756 C 294.098 0.96767 -7.52806 0
M  V30 1757 O 294.308 1.21036 -6.1011 0
M  V30 1758 C 295.498 1.04544 -8.13308 0
M  V30 1759 O 295.888 2.38311 -8.41922 0
M  V30 1760 C 296.378 0.491279 -7.02284 0
M  V30 1761 C 295.668 0.996264 -5.77469 0
M  V30 1762 N 295.718 0.0501916 -4.62973 0
M  V30 1763 H 292.879 -0.374722 -8.67691 0
M  V30 1764 H 292.609 -0.443485 -6.90277 0
M  V30 1765 H 293.476 1.75537 -7.96793 0
M  V30 1766 P 297.438 2.75334 -8.47391 0
M  V30 1767 O 297.658 3.84128 -9.44797 0
M  V30 1768 O 298.228 1.51947 -8.68712 0
M  V30 1769 O 297.688 3.29363 -6.99321 0
M  V30 1770 C 296.748 4.24011 -6.4274 0
M  V30 1771 C 297.478 5.20775 -5.52155 0
M  V30 1772 O 297.688 4.56534 -4.22446 0
M  V30 1773 C 298.878 5.62629 -5.96531 0
M  V30 1774 O 299.268 6.87667 -5.41053 0
M  V30 1775 C 299.758 4.52537 -5.39283 0
M  V30 1776 C 299.048 4.20027 -4.08623 0
M  V30 1777 N 299.098 2.76189 -3.71603 0
M  V30 1778 H 296.259 4.797 -7.24003 0
M  V30 1779 H 295.989 3.69856 -5.84513 0
M  V30 1780 H 296.856 6.10356 -5.41441 0
M  V30 1781 P 300.818 7.20834 -5.23717 0
M  V30 1782 O 301.038 8.66104 -5.38572 0
M  V30 1783 O 301.608 6.33544 -6.1349 0
M  V30 1784 O 301.068 6.7751 -3.72168 0
M  V30 1785 C 300.128 7.20825 -2.7076 0
M  V30 1786 C 300.858 7.45864 -1.40599 0
M  V30 1787 O 301.068 6.17651 -0.734225 0
M  V30 1788 C 302.258 8.05808 -1.51899 0
M  V30 1789 O 302.648 8.74358 -0.335205 0
M  V30 1790 C 303.138 6.83093 -1.70294 0
M  V30 1791 C 302.428 5.79992 -0.836974 0
M  V30 1792 N 302.478 4.41864 -1.38293 0
M  V30 1793 C 302.398 3.99538 -2.69438 0
M  V30 1794 N 302.478 2.69909 -2.84277 0
M  V30 1795 C 302.618 2.21719 -1.5408 0
M  V30 1796 C 302.748 0.891712 -1.06628 0
M  V30 1797 N 302.868 0.856846 0.334985 0
M  V30 1798 C 302.868 1.9641 1.15789 0
M  V30 1799 N 302.998 1.72708 2.46522 0
M  V30 1800 N 302.738 3.21165 0.713741 0
M  V30 1801 C 302.618 3.26797 -0.639748 0
M  V30 1802 H 299.639 8.13644 -3.0377 0
M  V30 1803 H 299.369 6.42788 -2.55485 0
M  V30 1804 H 300.236 8.12039 -0.792769 0
M  V30 1805 P 304.198 8.91 1.18324e-12 0
M  V30 1806 O 304.418 10.1726 0.733694 0
M  V30 1807 O 304.988 8.73148 -1.23936 0
M  V30 1808 O 304.448 7.66872 0.971405 0
M  V30 1809 C 303.508 7.42309 2.04641 0
M  V30 1810 C 304.238 6.86059 3.24661 0
M  V30 1811 O 304.448 5.42847 3.03646 0
M  V30 1812 C 305.638 7.41196 3.50753 0
M  V30 1813 O 306.028 7.27073 4.86816 0
M  V30 1814 C 306.518 6.5273 2.63741 0
M  V30 1815 C 305.808 5.1842 2.73198 0
M  V30 1816 N 305.858 4.38762 1.4784 0
M  V30 1817 H 303.019 8.36803 2.32493 0
M  V30 1818 H 302.749 6.70197 1.71129 0
M  V30 1819 H 303.616 7.03551 4.13168 0
M  V30 1820 P 307.578 7.20834 5.23717 0
M  V30 1821 O 307.798 7.79853 6.57286 0
M  V30 1822 O 308.368 7.79239 4.12957 0
M  V30 1823 O 307.828 5.63315 5.29344 0
M  V30 1824 C 306.888 4.80255 6.01876 0
M  V30 1825 C 307.618 3.64202 6.65911 0
M  V30 1826 O 307.828 2.60694 5.64732 0
M  V30 1827 C 309.018 3.93473 7.1943 0
M  V30 1828 O 309.408 3.02071 8.21205 0
M  V30 1829 C 309.898 3.73047 5.97036 0
M  V30 1830 C 309.188 2.58828 5.25741 0
M  V30 1831 N 309.238 2.68068 3.77503 0
M  V30 1832 H 306.399 5.40332 6.79951 0
M  V30 1833 H 306.129 4.41613 5.32378 0
M  V30 1834 H 306.996 3.26331 7.47797 0
M  V30 1835 P 310.958 2.75334 8.47391 0
M  V30 1836 O 311.178 2.44571 9.90142 0
M  V30 1837 O 311.748 3.87688 7.92115 0
M  V30 1838 O 311.208 1.4459 7.59357 0
M  V30 1839 C 310.268 0.347608 7.69215 0
M  V30 1840 C 310.998 -0.96767 7.52806 0
M  V30 1841 O 311.208 -1.21036 6.1011 0
M  V30 1842 C 312.398 -1.04544 8.13308 0
M  V30 1843 O 312.788 -2.38311 8.41922 0
M  V30 1844 C 313.278 -0.491279 7.02284 0
M  V30 1845 C 312.568 -0.996264 5.77469 0
M  V30 1846 N 312.618 -0.0501916 4.62973 0
M  V30 1847 C 312.538 1.32786 4.63244 0
M  V30 1848 N 312.618 1.86957 3.44545 0
M  V30 1849 C 312.758 0.780241 2.58481 0
M  V30 1850 C 312.888 0.738536 1.17757 0
M  V30 1851 N 313.008 -0.58337 0.711393 0
M  V30 1852 C 313.008 -1.70816 1.51017 0
M  V30 1853 N 313.138 -2.87826 0.880757 0
M  V30 1854 N 312.878 -1.67126 2.8339 0
M  V30 1855 C 312.758 -0.401421 3.30572 0
M  V30 1856 H 309.779 0.374722 8.67691 0
M  V30 1857 H 309.509 0.443485 6.90277 0
M  V30 1858 H 310.376 -1.75537 7.96793 0
M  V30 1859 P 314.338 -2.75334 8.47391 0
M  V30 1860 O 314.558 -3.84128 9.44797 0
M  V30 1861 O 315.128 -1.51947 8.68712 0
M  V30 1862 O 314.588 -3.29363 6.99321 0
M  V30 1863 C 313.648 -4.24011 6.4274 0
M  V30 1864 C 314.378 -5.20775 5.52155 0
M  V30 1865 O 314.588 -4.56534 4.22446 0
M  V30 1866 C 315.778 -5.62629 5.96531 0
M  V30 1867 O 316.168 -6.87667 5.41053 0
M  V30 1868 C 316.658 -4.52537 5.39283 0
M  V30 1869 C 315.948 -4.20027 4.08623 0
M  V30 1870 N 315.998 -2.76189 3.71603 0
M  V30 1871 H 313.159 -4.797 7.24003 0
M  V30 1872 H 312.889 -3.69856 5.84513 0
M  V30 1873 H 313.756 -6.10356 5.41441 0
M  V30 1874 P 317.718 -7.20834 5.23717 0
M  V30 1875 O 317.938 -8.66104 5.38572 0
M  V30 1876 O 318.508 -6.33544 6.1349 0
M  V30 1877 O 317.968 -6.7751 3.72168 0
M  V30 1878 C 317.028 -7.20825 2.7076 0
M  V30 1879 C 317.758 -7.45864 1.40599 0
M  V30 1880 O 317.968 -6.17651 0.734225 0
M  V30 1881 C 319.158 -8.05808 1.51899 0
M  V30 1882 O 319.548 -8.74358 0.335205 0
M  V30 1883 C 320.038 -6.83093 1.70294 0
M  V30 1884 C 319.328 -5.79992 0.836974 0
M  V30 1885 N 319.378 -4.41864 1.38293 0
M  V30 1886 H 316.539 -8.13644 3.0377 0
M  V30 1887 H 316.269 -6.42788 2.55485 0
M  V30 1888 H 317.136 -8.12039 0.792769 0
M  V30 1889 P 321.098 -8.91 -1.34042e-12 0
M  V30 1890 O 321.318 -10.1726 -0.733694 0
M  V30 1891 O 321.888 -8.73148 1.23936 0
M  V30 1892 O 321.348 -7.66872 -0.971405 0
M  V30 1893 C 320.408 -7.42309 -2.04641 0
M  V30 1894 C 321.138 -6.86059 -3.24661 0
M  V30 1895 O 321.348 -5.42847 -3.03646 0
M  V30 1896 C 322.538 -7.41196 -3.50753 0
M  V30 1897 O 322.928 -7.27073 -4.86816 0
M  V30 1898 C 323.418 -6.5273 -2.63741 0
M  V30 1899 C 322.708 -5.1842 -2.73198 0
M  V30 1900 N 322.758 -4.38762 -1.4784 0
M  V30 1901 H 319.919 -8.36803 -2.32493 0
M  V30 1902 H 319.649 -6.70197 -1.71129 0
M  V30 1903 H 320.516 -7.03551 -4.13168 0
M  V30 1904 P 324.478 -7.20834 -5.23717 0
M  V30 1905 O 324.698 -7.79853 -6.57286 0
M  V30 1906 O 325.268 -7.79239 -4.12957 0
M  V30 1907 O 324.728 -5.63315 -5.29344 0
M  V30 1908 C 323.788 -4.80255 -6.01876 0
M  V30 1909 C 324.518 -3.64202 -6.65911 0
M  V30 1910 O 324.728 -2.60694 -5.64732 0
M  V30 1911 C 325.918 -3.93473 -7.1943 0
M  V30 1912 O 326.308 -3.02071 -8.21205 0
M  V30 1913 C 326.798 -3.73047 -5.97036 0
M  V30 1914 C 326.088 -2.58828 -5.25741 0
M  V30 1915 N 326.138 -2.68068 -3.77503 0
M  V30 1916 H 323.299 -5.40332 -6.79951 0
M  V30 1917 H 323.029 -4.41613 -5.32378 0
M  V30 1918 H 323.896 -3.26331 -7.47797 0
M  V30 1919 P 327.858 -2.75334 -8.47391 0
M  V30 1920 O 328.078 -2.44571 -9.90142 0
M  V30 1921 O 328.648 -3.87688 -7.92115 0
M  V30 1922 O 328.108 -1.4459 -7.59357 0
M  V30 1923 C 327.168 -0.347608 -7.69215 0
M  V30 1924 C 327.898 0.96767 -7.52806 0
M  V30 1925 O 328.108 1.21036 -6.1011 0
M  V30 1926 C 329.298 1.04544 -8.13308 0
M  V30 1927 O 329.688 2.38311 -8.41922 0
M  V30 1928 C 330.178 0.491279 -7.02284 0
M  V30 1929 C 329.468 0.996264 -5.77469 0
M  V30 1930 N 329.518 0.0501916 -4.62973 0
M  V30 1931 C 329.438 -1.32786 -4.63244 0
M  V30 1932 N 329.518 -1.86957 -3.44545 0
M  V30 1933 C 329.658 -0.780241 -2.58481 0
M  V30 1934 C 329.788 -0.738536 -1.17757 0
M  V30 1935 O 329.808 -1.66794 -0.372349 0
M  V30 1936 N 329.908 0.58337 -0.711393 0
M  V30 1937 C 329.908 1.70816 -1.51017 0
M  V30 1938 N 330.038 2.87826 -0.880757 0
M  V30 1939 N 329.778 1.67126 -2.8339 0
M  V30 1940 C 329.658 0.401421 -3.30572 0
M  V30 1941 H 326.679 -0.374722 -8.67691 0
M  V30 1942 H 326.409 -0.443485 -6.90277 0
M  V30 1943 H 327.276 1.75537 -7.96793 0
M  V30 1944 H 329.931 1.95076 -5.46529 0
M  V30 1945 H 330.21 -0.608565 -7.04577 0
M  V30 1946 H 331.202 0.889672 -7.08939 0
M  V30 1947 H 329.368 0.43308 -9.04564 0
M  V30 1948 H 329.319 -1.91249 -5.54442 0
M  V30 1949 H 330.001 0.718054 0.275244 0
M  V30 1950 H 330.038 3.75721 -1.41832 0
M  V30 1951 H 330.139 2.90436 0.145468 0
M  V30 1952 P 331.238 2.75334 -8.47391 0
M  V30 1953 O 331.458 3.84128 -9.44797 0
M  V30 1954 O 332.028 1.51947 -8.68712 0
M  V30 1955 O 331.488 3.29363 -6.99321 0
M  V30 1956 C 330.548 4.24011 -6.4274 0
M  V30 1957 C 331.278 5.20775 -5.52155 0
M  V30 1958 O 331.488 4.56534 -4.22446 0
M  V30 1959 C 332.678 5.62629 -5.96531 0
M  V30 1960 O 333.068 6.87667 -5.41053 0
M  V30 1961 C 333.558 4.52537 -5.39283 0
M  V30 1962 C 332.848 4.20027 -4.08623 0
M  V30 1963 N 332.898 2.76189 -3.71603 0
M  V30 1964 H 330.059 4.797 -7.24003 0
M  V30 1965 H 329.789 3.69856 -5.84513 0
M  V30 1966 H 330.656 6.10356 -5.41441 0
M  V30 1967 P 334.618 7.20834 -5.23717 0
M  V30 1968 O 334.838 8.66189 -5.38625 0
M  V30 1969 O 335.408 6.33615 -6.1356 0
M  V30 1970 O 334.868 6.7751 -3.72168 0
M  V30 1971 C 333.928 7.20732 -2.70725 0
M  V30 1972 C 334.658 7.45864 -1.40599 0
M  V30 1973 O 334.868 6.17651 -0.734225 0
M  V30 1974 C 336.058 8.05808 -1.51899 0
M  V30 1975 O 336.448 8.74358 -0.335205 0
M  V30 1976 C 336.938 6.83093 -1.70294 0
M  V30 1977 C 336.228 5.79992 -0.836974 0
M  V30 1978 N 336.278 4.41769 -1.38263 0
M  V30 1979 C 336.428 3.38591 -0.481702 0
M  V30 1980 O 336.518 3.56839 0.718452 0
M  V30 1981 N 336.468 2.1206 -1.03569 0
M  V30 1982 C 336.378 1.80696 -2.36966 0
M  V30 1983 C 336.228 2.94845 -3.23898 0
M  V30 1984 C 336.178 4.19803 -2.73435 0
M  V30 1985 H 333.438 8.13644 -3.0377 0
M  V30 1986 H 333.169 6.42695 -2.55448 0
M  V30 1987 H 334.036 8.12039 -0.792769 0
M  V30 1988 H 336.691 5.79978 0.160587 0
M  V30 1989 H 336.97 6.51379 -2.75643 0
M  V30 1990 H 337.962 7.01734 -1.34462 0
M  V30 1991 H 336.128 8.73674 -2.38337 0
M  V30 1992 H 336.057 5.04492 -3.4095 0
M  V30 1993 P 337.998 8.91 1.4976e-12 0
M  V30 1994 O 338.218 10.1726 0.733694 0
M  V30 1995 O 338.788 8.73148 -1.23936 0
M  V30 1996 O 338.248 7.66872 0.971405 0
M  V30 1997 C 337.308 7.42309 2.04641 0
M  V30 1998 C 338.038 6.86059 3.24661 0
M  V30 1999 O 338.248 5.42847 3.03646 0
M  V30 2000 C 339.438 7.41196 3.50753 0
M  V30 2001 O 339.828 7.27073 4.86816 0
M  V30 2002 C 340.318 6.5273 2.63741 0
M  V30 2003 C 339.608 5.1842 2.73198 0
M  V30 2004 N 339.658 4.38762 1.4784 0
M  V30 2005 H 336.819 8.36803 2.32493 0
M  V30 2006 H 336.549 6.70197 1.71129 0
M  V30 2007 H 337.416 7.03551 4.13168 0
M  V30 2008 P 341.378 7.20834 5.23717 0
M  V30 2009 O 341.598 7.79853 6.57286 0
M  V30 2010 O 342.168 7.79239 4.12957 0
M  V30 2011 O 341.628 5.63315 5.29344 0
M  V30 2012 C 340.688 4.80255 6.01876 0
M  V30 2013 C 341.418 3.64202 6.65911 0
M  V30 2014 O 341.628 2.60694 5.64732 0
M  V30 2015 C 342.818 3.93473 7.1943 0
M  V30 2016 O 343.208 3.02071 8.21205 0
M  V30 2017 C 343.698 3.73047 5.97036 0
M  V30 2018 C 342.988 2.58828 5.25741 0
M  V30 2019 N 343.038 2.68068 3.77503 0
M  V30 2020 H 340.199 5.40332 6.79951 0
M  V30 2021 H 339.929 4.41613 5.32378 0
M  V30 2022 H 340.796 3.26331 7.47797 0
M  V30 2023 P 344.758 2.75334 8.47391 0
M  V30 2024 O 344.978 2.44571 9.90142 0
M  V30 2025 O 345.548 3.87688 7.92115 0
M  V30 2026 O 345.008 1.4459 7.59357 0
M  V30 2027 C 344.068 0.347608 7.69215 0
M  V30 2028 C 344.798 -0.96767 7.52806 0
M  V30 2029 O 345.008 -1.21036 6.1011 0
M  V30 2030 C 346.198 -1.04544 8.13308 0
M  V30 2031 O 346.588 -2.38311 8.41922 0
M  V30 2032 C 347.078 -0.491279 7.02284 0
M  V30 2033 C 346.368 -0.996264 5.77469 0
M  V30 2034 N 346.418 -0.0501916 4.62973 0
M  V30 2035 H 343.579 0.374722 8.67691 0
M  V30 2036 H 343.309 0.443485 6.90277 0
M  V30 2037 H 344.176 -1.75537 7.96793 0
M  V30 2038 P 348.138 -2.75334 8.47391 0
M  V30 2039 O 348.358 -3.84128 9.44797 0
M  V30 2040 O 348.928 -1.51947 8.68712 0
M  V30 2041 O 348.388 -3.29363 6.99321 0
M  V30 2042 C 347.448 -4.24011 6.4274 0
M  V30 2043 C 348.178 -5.20775 5.52155 0
M  V30 2044 O 348.388 -4.56534 4.22446 0
M  V30 2045 C 349.578 -5.62629 5.96531 0
M  V30 2046 O 349.968 -6.87667 5.41053 0
M  V30 2047 C 350.458 -4.52537 5.39283 0
M  V30 2048 C 349.748 -4.20027 4.08623 0
M  V30 2049 N 349.798 -2.76189 3.71603 0
M  V30 2050 C 349.718 -1.64862 4.52822 0
M  V30 2051 N 349.798 -0.512671 3.88633 0
M  V30 2052 C 349.938 -0.888083 2.54977 0
M  V30 2053 C 350.068 -0.094668 1.38677 0
M  V30 2054 N 350.188 -0.890102 0.232633 0
M  V30 2055 C 350.188 -2.26958 0.21772 0
M  V30 2056 N 350.318 -2.84626 -0.97925 0
M  V30 2057 N 350.058 -3.0178 1.31033 0
M  V30 2058 C 349.938 -2.26781 2.43843 0
M  V30 2059 H 346.959 -4.797 7.24003 0
M  V30 2060 H 346.689 -3.69856 5.84513 0
M  V30 2061 H 347.556 -6.10356 5.41441 0
M  V30 2062 P 351.518 -7.20834 5.23717 0
M  V30 2063 O 351.738 -8.66104 5.38572 0
M  V30 2064 O 352.308 -6.33544 6.1349 0
M  V30 2065 O 351.768 -6.7751 3.72168 0
M  V30 2066 C 350.828 -7.20825 2.7076 0
M  V30 2067 C 351.558 -7.45864 1.40599 0
M  V30 2068 O 351.768 -6.17651 0.734225 0
M  V30 2069 C 352.958 -8.05808 1.51899 0
M  V30 2070 O 353.348 -8.74358 0.335205 0
M  V30 2071 C 353.838 -6.83093 1.70294 0
M  V30 2072 C 353.128 -5.79992 0.836974 0
M  V30 2073 N 353.178 -4.41864 1.38293 0
M  V30 2074 C 353.098 -3.99538 2.69438 0
M  V30 2075 N 353.178 -2.69909 2.84277 0
M  V30 2076 C 353.318 -2.21719 1.5408 0
M  V30 2077 C 353.448 -0.891712 1.06628 0
M  V30 2078 N 353.568 -0.856846 -0.334985 0
M  V30 2079 C 353.568 -1.9641 -1.15789 0
M  V30 2080 N 353.698 -1.72708 -2.46522 0
M  V30 2081 N 353.438 -3.21165 -0.713741 0
M  V30 2082 C 353.318 -3.26797 0.639748 0
M  V30 2083 H 350.339 -8.13644 3.0377 0
M  V30 2084 H 350.069 -6.42788 2.55485 0
M  V30 2085 H 350.936 -8.12039 0.792769 0
M  V30 2086 P 354.898 -8.91 -1.65478e-12 0
M  V30 2087 O 355.118 -10.1726 -0.733694 0
M  V30 2088 O 355.688 -8.73148 1.23936 0
M  V30 2089 O 355.148 -7.66872 -0.971405 0
M  V30 2090 C 354.208 -7.42309 -2.04641 0
M  V30 2091 C 354.938 -6.86059 -3.24661 0
M  V30 2092 O 355.148 -5.42847 -3.03646 0
M  V30 2093 C 356.338 -7.41196 -3.50753 0
M  V30 2094 O 356.728 -7.27073 -4.86816 0
M  V30 2095 C 357.218 -6.5273 -2.63741 0
M  V30 2096 C 356.508 -5.1842 -2.73198 0
M  V30 2097 N 356.558 -4.38762 -1.4784 0
M  V30 2098 H 353.719 -8.36803 -2.32493 0
M  V30 2099 H 353.449 -6.70197 -1.71129 0
M  V30 2100 H 354.316 -7.03551 -4.13168 0
M  V30 2101 P 358.278 -7.20834 -5.23717 0
M  V30 2102 O 358.498 -7.79853 -6.57286 0
M  V30 2103 O 359.068 -7.79239 -4.12957 0
M  V30 2104 O 358.528 -5.63315 -5.29344 0
M  V30 2105 C 357.588 -4.80255 -6.01876 0
M  V30 2106 C 358.318 -3.64202 -6.65911 0
M  V30 2107 O 358.528 -2.60694 -5.64732 0
M  V30 2108 C 359.718 -3.93473 -7.1943 0
M  V30 2109 O 360.108 -3.02071 -8.21205 0
M  V30 2110 C 360.598 -3.73047 -5.97036 0
M  V30 2111 C 359.888 -2.58828 -5.25741 0
M  V30 2112 N 359.938 -2.68068 -3.77503 0
M  V30 2113 H 357.099 -5.40332 -6.79951 0
M  V30 2114 H 356.829 -4.41613 -5.32378 0
M  V30 2115 H 357.696 -3.26331 -7.47797 0
M  V30 2116 P 361.658 -2.75334 -8.47391 0
M  V30 2117 O 361.878 -2.44571 -9.90142 0
M  V30 2118 O 362.448 -3.87688 -7.92115 0
M  V30 2119 O 361.908 -1.4459 -7.59357 0
M  V30 2120 C 360.968 -0.347608 -7.69215 0
M  V30 2121 C 361.698 0.96767 -7.52806 0
M  V30 2122 O 361.908 1.21036 -6.1011 0
M  V30 2123 C 363.098 1.04544 -8.13308 0
M  V30 2124 O 363.488 2.38311 -8.41922 0
M  V30 2125 C 363.978 0.491279 -7.02284 0
M  V30 2126 C 363.268 0.996264 -5.77469 0
M  V30 2127 N 363.318 0.0501916 -4.62973 0
M  V30 2128 C 363.238 -1.32786 -4.63244 0
M  V30 2129 N 363.318 -1.86957 -3.44545 0
M  V30 2130 C 363.458 -0.780241 -2.58481 0
M  V30 2131 C 363.588 -0.738536 -1.17757 0
M  V30 2132 O 363.608 -1.66794 -0.372349 0
M  V30 2133 N 363.708 0.58337 -0.711393 0
M  V30 2134 C 363.708 1.70816 -1.51017 0
M  V30 2135 N 363.838 2.87826 -0.880757 0
M  V30 2136 N 363.578 1.67126 -2.8339 0
M  V30 2137 C 363.458 0.401421 -3.30572 0
M  V30 2138 H 360.479 -0.374722 -8.67691 0
M  V30 2139 H 360.209 -0.443485 -6.90277 0
M  V30 2140 H 361.076 1.75537 -7.96793 0
M  V30 2141 H 363.731 1.95076 -5.46529 0
M  V30 2142 H 364.01 -0.608565 -7.04577 0
M  V30 2143 H 365.002 0.889672 -7.08939 0
M  V30 2144 H 363.168 0.43308 -9.04564 0
M  V30 2145 H 363.119 -1.91249 -5.54442 0
M  V30 2146 H 363.801 0.718054 0.275244 0
M  V30 2147 H 363.838 3.75721 -1.41832 0
M  V30 2148 H 363.939 2.90436 0.145468 0
M  V30 2149 P 365.038 2.75334 -8.47391 0
M  V30 2150 O 365.258 3.84128 -9.44797 0
M  V30 2151 O 365.828 1.51947 -8.68712 0
M  V30 2152 O 365.288 3.29363 -6.99321 0
M  V30 2153 C 364.348 4.24011 -6.4274 0
M  V30 2154 C 365.078 5.20775 -5.52155 0
M  V30 2155 O 365.288 4.56534 -4.22446 0
M  V30 2156 C 366.478 5.62629 -5.96531 0
M  V30 2157 O 366.868 6.87667 -5.41053 0
M  V30 2158 C 367.358 4.52537 -5.39283 0
M  V30 2159 C 366.648 4.20027 -4.08623 0
M  V30 2160 N 366.698 2.76189 -3.71603 0
M  V30 2161 H 363.859 4.797 -7.24003 0
M  V30 2162 H 363.589 3.69856 -5.84513 0
M  V30 2163 H 364.456 6.10356 -5.41441 0
M  V30 2164 P 368.418 7.20834 -5.23717 0
M  V30 2165 O 368.638 8.66104 -5.38572 0
M  V30 2166 O 369.208 6.33544 -6.1349 0
M  V30 2167 O 368.668 6.7751 -3.72168 0
M  V30 2168 C 367.728 7.20825 -2.7076 0
M  V30 2169 C 368.458 7.45864 -1.40599 0
M  V30 2170 O 368.668 6.17651 -0.734225 0
M  V30 2171 C 369.858 8.05808 -1.51899 0
M  V30 2172 O 370.248 8.74358 -0.335205 0
M  V30 2173 C 370.738 6.83093 -1.70294 0
M  V30 2174 C 370.028 5.79992 -0.836974 0
M  V30 2175 N 370.078 4.41864 -1.38293 0
M  V30 2176 C 369.998 3.99538 -2.69438 0
M  V30 2177 N 370.078 2.69909 -2.84277 0
M  V30 2178 C 370.218 2.21719 -1.5408 0
M  V30 2179 C 370.348 0.891712 -1.06628 0
M  V30 2180 N 370.468 0.856846 0.334985 0
M  V30 2181 C 370.468 1.9641 1.15789 0
M  V30 2182 N 370.598 1.72708 2.46522 0
M  V30 2183 N 370.338 3.21165 0.713741 0
M  V30 2184 C 370.218 3.26797 -0.639748 0
M  V30 2185 H 367.239 8.13644 -3.0377 0
M  V30 2186 H 366.969 6.42788 -2.55485 0
M  V30 2187 H 367.836 8.12039 -0.792769 0
M  V30 2188 P 371.798 8.91 1.81197e-12 0
M  V30 2189 O 372.018 10.1726 0.733694 0
M  V30 2190 O 372.588 8.73148 -1.23936 0
M  V30 2191 O 372.048 7.66872 0.971405 0
M  V30 2192 C 371.108 7.42309 2.04641 0
M  V30 2193 C 371.838 6.86059 3.24661 0
M  V30 2194 O 372.048 5.42847 3.03646 0
M  V30 2195 C 373.238 7.41196 3.50753 0
M  V30 2196 O 373.628 7.27073 4.86816 0
M  V30 2197 C 374.118 6.5273 2.63741 0
M  V30 2198 C 373.408 5.1842 2.73198 0
M  V30 2199 N 373.458 4.38762 1.4784 0
M  V30 2200 H 370.619 8.36803 2.32493 0
M  V30 2201 H 370.349 6.70197 1.71129 0
M  V30 2202 H 371.216 7.03551 4.13168 0
M  V30 2203 P 375.178 7.20834 5.23717 0
M  V30 2204 O 375.398 7.79853 6.57286 0
M  V30 2205 O 375.968 7.79239 4.12957 0
M  V30 2206 O 375.428 5.63315 5.29344 0
M  V30 2207 C 374.488 4.80255 6.01876 0
M  V30 2208 C 375.218 3.64202 6.65911 0
M  V30 2209 O 375.428 2.60694 5.64732 0
M  V30 2210 C 376.618 3.93473 7.1943 0
M  V30 2211 O 377.008 3.02071 8.21205 0
M  V30 2212 C 377.498 3.73047 5.97036 0
M  V30 2213 C 376.788 2.58828 5.25741 0
M  V30 2214 N 376.838 2.68068 3.77503 0
M  V30 2215 C 376.758 3.79715 2.96723 0
M  V30 2216 N 376.838 3.5377 1.68852 0
M  V30 2217 C 376.978 2.15054 1.63254 0
M  V30 2218 C 377.108 1.28964 0.518571 0
M  V30 2219 O 377.128 1.56826 -0.679156 0
M  V30 2220 N 377.228 -0.0538097 0.918425 0
M  V30 2221 C 377.228 -0.494275 2.22578 0
M  V30 2222 N 377.358 -1.81086 2.40434 0
M  V30 2223 N 377.098 0.313645 3.27502 0
M  V30 2224 C 376.978 1.61829 2.91033 0
M  V30 2225 H 373.999 5.40332 6.79951 0
M  V30 2226 H 373.729 4.41613 5.32378 0
M  V30 2227 H 374.596 3.26331 7.47797 0
M  V30 2228 H 377.251 1.63422 5.56814 0
M  V30 2229 H 377.53 4.63374 5.34244 0
M  V30 2230 H 378.522 3.44728 6.25838 0
M  V30 2231 H 376.688 4.96652 7.57263 0
M  V30 2232 H 376.639 4.80617 3.3614 0
M  V30 2233 H 377.321 -0.742702 0.199384 0
M  V30 2234 H 377.358 -2.20598 3.35588 0
M  V30 2235 H 377.459 -2.43518 1.58945 0
M  V30 2236 P 378.558 2.75334 8.47391 0
M  V30 2237 O 378.778 2.44571 9.90142 0
M  V30 2238 O 379.348 3.87688 7.92115 0
M  V30 2239 O 378.808 1.4459 7.59357 0
M  V30 2240 C 377.868 0.347608 7.69215 0
M  V30 2241 C 378.598 -0.96767 7.52806 0
M  V30 2242 O 378.808 -1.21036 6.1011 0
M  V30 2243 C 379.998 -1.04544 8.13308 0
M  V30 2244 O 380.388 -2.38311 8.41922 0
M  V30 2245 C 380.878 -0.491279 7.02284 0
M  V30 2246 C 380.168 -0.996264 5.77469 0
M  V30 2247 N 380.218 -0.0501916 4.62973 0
M  V30 2248 H 377.379 0.374722 8.67691 0
M  V30 2249 H 377.109 0.443485 6.90277 0
M  V30 2250 H 377.976 -1.75537 7.96793 0
M  V30 2251 P 381.938 -2.75334 8.47391 0
M  V30 2252 O 382.158 -3.84166 9.4489 0
M  V30 2253 O 382.728 -1.51964 8.6881 0
M  V30 2254 O 382.188 -3.29363 6.99321 0
M  V30 2255 C 381.248 -4.23956 6.42656 0
M  V30 2256 C 381.978 -5.20775 5.52155 0
M  V30 2257 O 382.188 -4.56534 4.22446 0
M  V30 2258 C 383.378 -5.62629 5.96531 0
M  V30 2259 O 383.768 -6.87667 5.41053 0
M  V30 2260 C 384.258 -4.52537 5.39283 0
M  V30 2261 C 383.548 -4.20027 4.08623 0
M  V30 2262 N 383.598 -2.7613 3.71522 0
M  V30 2263 C 383.748 -2.45612 2.37989 0
M  V30 2264 O 383.838 -3.30919 1.51621 0
M  V30 2265 N 383.788 -1.10684 2.08435 0
M  V30 2266 C 383.698 -0.0690084 2.9792 0
M  V30 2267 C 383.548 -0.481522 4.35345 0
M  V30 2268 C 383.498 -1.78906 4.67968 0
M  V30 2269 H 380.758 -4.797 7.24003 0
M  V30 2270 H 380.489 -3.69802 5.84429 0
M  V30 2271 H 381.356 -6.10356 5.41441 0
M  V30 2272 H 384.011 -4.78651 3.27911 0
M  V30 2273 H 384.29 -3.64957 6.05871 0
M  V30 2274 H 385.282 -4.8868 5.2125 0
M  V30 2275 H 383.448 -5.66726 7.06352 0
M  V30 2276 H 383.377 -2.07737 5.72367 0
M  V30 2277 P 385.318 -7.20834 5.23717 0
M  V30 2278 O 385.538 -8.66104 5.38572 0
M  V30 2279 O 386.108 -6.33544 6.1349 0
M  V30 2280 O 385.568 -6.7751 3.72168 0
M  V30 2281 C 384.628 -7.20825 2.7076 0
M  V30 2282 C 385.358 -7.45864 1.40599 0
M  V30 2283 O 385.568 -6.17651 0.734225 0
M  V30 2284 C 386.758 -8.05808 1.51899 0
M  V30 2285 O 387.148 -8.74358 0.335205 0
M  V30 2286 C 387.638 -6.83093 1.70294 0
M  V30 2287 C 386.928 -5.79992 0.836974 0
M  V30 2288 N 386.978 -4.41864 1.38293 0
M  V30 2289 H 384.139 -8.13644 3.0377 0
M  V30 2290 H 383.869 -6.42788 2.55485 0
M  V30 2291 H 384.736 -8.12039 0.792769 0
M  V30 2292 P 388.698 -8.91 -1.96915e-12 0
M  V30 2293 O 388.918 -10.1726 -0.733694 0
M  V30 2294 O 389.488 -8.73148 1.23936 0
M  V30 2295 O 388.948 -7.66872 -0.971405 0
M  V30 2296 C 388.008 -7.42309 -2.04641 0
M  V30 2297 C 388.738 -6.86059 -3.24661 0
M  V30 2298 O 388.948 -5.42847 -3.03646 0
M  V30 2299 C 390.138 -7.41196 -3.50753 0
M  V30 2300 O 390.528 -7.27073 -4.86816 0
M  V30 2301 C 391.018 -6.5273 -2.63741 0
M  V30 2302 C 390.308 -5.1842 -2.73198 0
M  V30 2303 N 390.358 -4.38762 -1.4784 0
M  V30 2304 C 390.278 -4.81605 -0.168631 0
M  V30 2305 N 390.358 -3.85454 0.713363 0
M  V30 2306 C 390.498 -2.6994 -0.0566958 0
M  V30 2307 C 390.628 -1.34815 0.338502 0
M  V30 2308 N 390.748 -0.496304 -0.77465 0
M  V30 2309 C 390.748 -0.908403 -2.09122 0
M  V30 2310 N 390.878 0.0517805 -3.00955 0
M  V30 2311 N 390.618 -2.17875 -2.46519 0
M  V30 2312 C 390.498 -3.01988 -1.4033 0
M  V30 2313 H 387.519 -8.36803 -2.32493 0
M  V30 2314 H 387.249 -6.70197 -1.71129 0
M  V30 2315 H 388.116 -7.03551 -4.13168 0
M  V30 2316 P 392.078 -7.20834 -5.23717 0
M  V30 2317 O 392.298 -7.79853 -6.57286 0
M  V30 2318 O 392.868 -7.79239 -4.12957 0
M  V30 2319 O 392.328 -5.63315 -5.29344 0
M  V30 2320 C 391.388 -4.80255 -6.01876 0
M  V30 2321 C 392.118 -3.64202 -6.65911 0
M  V30 2322 O 392.328 -2.60694 -5.64732 0
M  V30 2323 C 393.518 -3.93473 -7.1943 0
M  V30 2324 O 393.908 -3.02071 -8.21205 0
M  V30 2325 C 394.398 -3.73047 -5.97036 0
M  V30 2326 C 393.688 -2.58828 -5.25741 0
M  V30 2327 N 393.738 -2.68068 -3.77503 0
M  V30 2328 H 390.899 -5.40332 -6.79951 0
M  V30 2329 H 390.629 -4.41613 -5.32378 0
M  V30 2330 H 391.496 -3.26331 -7.47797 0
M  V30 2331 P 395.458 -2.75334 -8.47391 0
M  V30 2332 O 395.678 -2.44571 -9.90142 0
M  V30 2333 O 396.248 -3.87688 -7.92115 0
M  V30 2334 O 395.708 -1.4459 -7.59357 0
M  V30 2335 C 394.768 -0.347608 -7.69215 0
M  V30 2336 C 395.498 0.96767 -7.52806 0
M  V30 2337 O 395.708 1.21036 -6.1011 0
M  V30 2338 C 396.898 1.04544 -8.13308 0
M  V30 2339 O 397.288 2.38311 -8.41922 0
M  V30 2340 C 397.778 0.491279 -7.02284 0
M  V30 2341 C 397.068 0.996264 -5.77469 0
M  V30 2342 N 397.118 0.0501916 -4.62973 0
M  V30 2343 H 394.279 -0.374722 -8.67691 0
M  V30 2344 H 394.009 -0.443485 -6.90277 0
M  V30 2345 H 394.876 1.75537 -7.96793 0
M  V30 2346 P 398.838 2.75334 -8.47391 0
M  V30 2347 O 399.058 3.84128 -9.44797 0
M  V30 2348 O 399.628 1.51947 -8.68712 0
M  V30 2349 O 399.088 3.29363 -6.99321 0
M  V30 2350 C 398.148 4.24011 -6.4274 0
M  V30 2351 C 398.878 5.20775 -5.52155 0
M  V30 2352 O 399.088 4.56534 -4.22446 0
M  V30 2353 C 400.278 5.62629 -5.96531 0
M  V30 2354 O 400.668 6.87667 -5.41053 0
M  V30 2355 C 401.158 4.52537 -5.39283 0
M  V30 2356 C 400.448 4.20027 -4.08623 0
M  V30 2357 N 400.498 2.76189 -3.71603 0
M  V30 2358 C 400.418 1.64862 -4.52822 0
M  V30 2359 N 400.498 0.512671 -3.88633 0
M  V30 2360 C 400.638 0.888083 -2.54977 0
M  V30 2361 C 400.768 0.094668 -1.38677 0
M  V30 2362 O 400.788 -1.13053 -1.28163 0
M  V30 2363 N 400.888 0.890102 -0.232633 0
M  V30 2364 C 400.888 2.26958 -0.21772 0
M  V30 2365 N 401.018 2.84626 0.97925 0
M  V30 2366 N 400.758 3.0178 -1.31033 0
M  V30 2367 C 400.638 2.26781 -2.43843 0
M  V30 2368 H 397.659 4.797 -7.24003 0
M  V30 2369 H 397.389 3.69856 -5.84513 0
M  V30 2370 H 398.256 6.10356 -5.41441 0
M  V30 2371 H 400.911 4.79061 -3.27488 0
M  V30 2372 H 401.19 3.64906 -6.05785 0
M  V30 2373 H 402.182 4.8868 -5.2125 0
M  V30 2374 H 400.348 5.66726 -7.06352 0
M  V30 2375 H 400.299 1.71169 -5.60966 0
M  V30 2376 H 400.981 0.419134 0.644739 0
M  V30 2377 H 401.018 3.87332 1.06098 0
M  V30 2378 H 401.119 2.26417 1.82483 0
M  V30 2379 P 402.218 7.20834 -5.23717 0
M  V30 2380 O 402.438 8.66104 -5.38572 0
M  V30 2381 O 403.008 6.33544 -6.1349 0
M  V30 2382 O 402.468 6.7751 -3.72168 0
M  V30 2383 C 401.528 7.20825 -2.7076 0
M  V30 2384 C 402.258 7.45864 -1.40599 0
M  V30 2385 O 402.468 6.17651 -0.734225 0
M  V30 2386 C 403.658 8.05808 -1.51899 0
M  V30 2387 O 404.048 8.74358 -0.335205 0
M  V30 2388 C 404.538 6.83093 -1.70294 0
M  V30 2389 C 403.828 5.79992 -0.836974 0
M  V30 2390 N 403.878 4.41864 -1.38293 0
M  V30 2391 C 403.798 3.99538 -2.69438 0
M  V30 2392 N 403.878 2.69909 -2.84277 0
M  V30 2393 C 404.018 2.21719 -1.5408 0
M  V30 2394 C 404.148 0.891712 -1.06628 0
M  V30 2395 O 404.168 -0.161298 -1.70137 0
M  V30 2396 N 404.268 0.856846 0.334985 0
M  V30 2397 C 404.268 1.9641 1.15789 0
M  V30 2398 N 404.398 1.72708 2.46522 0
M  V30 2399 N 404.138 3.21165 0.713741 0
M  V30 2400 C 404.018 3.26797 -0.639748 0
M  V30 2401 H 401.039 8.13644 -3.0377 0
M  V30 2402 H 400.769 6.42788 -2.55485 0
M  V30 2403 H 401.636 8.12039 -0.792769 0
M  V30 2404 H 404.291 5.80061 0.166416 0
M  V30 2405 H 404.57 6.51287 -2.75604 0
M  V30 2406 H 405.562 7.01734 -1.34462 0
M  V30 2407 H 403.728 8.73674 -2.38337 0
M  V30 2408 H 403.679 4.68207 -3.53221 0
M  V30 2409 H 404.361 -0.0398818 0.767965 0
M  V30 2410 H 404.398 2.50995 3.13503 0
M  V30 2411 H 404.499 0.759148 2.80716 0
M  V30 2412 P 405.598 8.91 2.12633e-12 0
M  V30 2413 O 405.818 10.1726 0.733694 0
M  V30 2414 O 406.388 8.73148 -1.23936 0
M  V30 2415 O 405.848 7.66872 0.971405 0
M  V30 2416 C 404.908 7.42309 2.04641 0
M  V30 2417 C 405.638 6.86059 3.24661 0
M  V30 2418 O 405.848 5.42847 3.03646 0
M  V30 2419 C 407.038 7.41196 3.50753 0
M  V30 2420 O 407.428 7.27073 4.86816 0
M  V30 2421 C 407.918 6.5273 2.63741 0
M  V30 2422 C 407.208 5.1842 2.73198 0
M  V30 2423 N 407.258 4.38762 1.4784 0
M  V30 2424 C 407.178 4.81605 0.168631 0
M  V30 2425 N 407.258 3.85454 -0.713363 0
M  V30 2426 C 407.398 2.6994 0.0566958 0
M  V30 2427 C 407.528 1.34815 -0.338502 0
M  V30 2428 N 407.648 0.496304 0.77465 0
M  V30 2429 C 407.648 0.908403 2.09122 0
M  V30 2430 N 407.778 -0.0517805 3.00955 0
M  V30 2431 N 407.518 2.17875 2.46519 0
M  V30 2432 C 407.398 3.01988 1.4033 0
M  V30 2433 H 404.419 8.36803 2.32493 0
M  V30 2434 H 404.149 6.70197 1.71129 0
M  V30 2435 H 405.016 7.03551 4.13168 0
M  V30 2436 P 408.978 7.20834 5.23717 0
M  V30 2437 O 409.198 7.79853 6.57286 0
M  V30 2438 O 409.768 7.79239 4.12957 0
M  V30 2439 O 409.228 5.63315 5.29344 0
M  V30 2440 C 408.288 4.80255 6.01876 0
M  V30 2441 C 409.018 3.64202 6.65911 0
M  V30 2442 O 409.228 2.60694 5.64732 0
M  V30 2443 C 410.418 3.93473 7.1943 0
M  V30 2444 O 410.808 3.02071 8.21205 0
M  V30 2445 C 411.298 3.73047 5.97036 0
M  V30 2446 C 410.588 2.58828 5.25741 0
M  V30 2447 N 410.638 2.68068 3.77503 0
M  V30 2448 C 410.558 3.79715 2.96723 0
M  V30 2449 N 410.638 3.5377 1.68852 0
M  V30 2450 C 410.778 2.15054 1.63254 0
M  V30 2451 C 410.908 1.28964 0.518571 0
M  V30 2452 O 410.928 1.56826 -0.679156 0
M  V30 2453 N 411.028 -0.0538097 0.918425 0
M  V30 2454 C 411.028 -0.494275 2.22578 0
M  V30 2455 N 411.158 -1.81086 2.40434 0
M  V30 2456 N 410.898 0.313645 3.27502 0
M  V30 2457 C 410.778 1.61829 2.91033 0
M  V30 2458 H 407.799 5.40332 6.79951 0
M  V30 2459 H 407.529 4.41613 5.32378 0
M  V30 2460 H 408.396 3.26331 7.47797 0
M  V30 2461 H 411.051 1.63422 5.56814 0
M  V30 2462 H 411.33 4.63374 5.34244 0
M  V30 2463 H 412.322 3.44728 6.25838 0
M  V30 2464 H 410.488 4.96652 7.57263 0
M  V30 2465 H 410.439 4.80617 3.3614 0
M  V30 2466 H 411.121 -0.742702 0.199384 0
M  V30 2467 H 411.158 -2.20598 3.35588 0
M  V30 2468 H 411.259 -2.43518 1.58945 0
M  V30 2469 P 412.358 2.75334 8.47391 0
M  V30 2470 O 412.578 2.44571 9.90142 0
M  V30 2471 O 413.148 3.87688 7.92115 0
M  V30 2472 O 412.608 1.4459 7.59357 0
M  V30 2473 C 411.668 0.347608 7.69215 0
M  V30 2474 C 412.398 -0.96767 7.52806 0
M  V30 2475 O 412.608 -1.21036 6.1011 0
M  V30 2476 C 413.798 -1.04544 8.13308 0
M  V30 2477 O 414.188 -2.38311 8.41922 0
M  V30 2478 C 414.678 -0.491279 7.02284 0
M  V30 2479 C 413.968 -0.996264 5.77469 0
M  V30 2480 N 414.018 -0.0501916 4.62973 0
M  V30 2481 C 413.938 1.32786 4.63244 0
M  V30 2482 N 414.018 1.86957 3.44545 0
M  V30 2483 C 414.158 0.780241 2.58481 0
M  V30 2484 C 414.288 0.738536 1.17757 0
M  V30 2485 O 414.308 1.66794 0.372349 0
M  V30 2486 N 414.408 -0.58337 0.711393 0
M  V30 2487 C 414.408 -1.70816 1.51017 0
M  V30 2488 N 414.538 -2.87826 0.880757 0
M  V30 2489 N 414.278 -1.67126 2.8339 0
M  V30 2490 C 414.158 -0.401421 3.30572 0
M  V30 2491 H 411.179 0.374722 8.67691 0
M  V30 2492 H 410.909 0.443485 6.90277 0
M  V30 2493 H 411.776 -1.75537 7.96793 0
M  V30 2494 H 414.431 -1.95076 5.46529 0
M  V30 2495 H 414.71 0.608565 7.04577 0
M  V30 2496 H 415.702 -0.889672 7.08939 0
M  V30 2497 H 413.868 -0.43308 9.04564 0
M  V30 2498 H 413.819 1.91249 5.54442 0
M  V30 2499 H 414.501 -0.718054 -0.275244 0
M  V30 2500 H 414.538 -3.75721 1.41832 0
M  V30 2501 H 414.639 -2.90436 -0.145468 0
M  V30 2502 P 415.738 -2.75334 8.47391 0
M  V30 2503 O 415.958 -3.84166 9.4489 0
M  V30 2504 O 416.528 -1.51964 8.6881 0
M  V30 2505 O 415.988 -3.29363 6.99321 0
M  V30 2506 C 415.048 -4.23956 6.42656 0
M  V30 2507 C 415.778 -5.20775 5.52155 0
M  V30 2508 O 415.988 -4.56534 4.22446 0
M  V30 2509 C 417.178 -5.62629 5.96531 0
M  V30 2510 O 417.568 -6.87667 5.41053 0
M  V30 2511 C 418.058 -4.52537 5.39283 0
M  V30 2512 C 417.348 -4.20027 4.08623 0
M  V30 2513 N 417.398 -2.7613 3.71522 0
M  V30 2514 C 417.548 -2.45612 2.37989 0
M  V30 2515 O 417.638 -3.30919 1.51621 0
M  V30 2516 N 417.588 -1.10684 2.08435 0
M  V30 2517 C 417.498 -0.0690084 2.9792 0
M  V30 2518 C 417.348 -0.481522 4.35345 0
M  V30 2519 C 417.298 -1.78906 4.67968 0
M  V30 2520 H 414.558 -4.797 7.24003 0
M  V30 2521 H 414.289 -3.69802 5.84429 0
M  V30 2522 H 415.156 -6.10356 5.41441 0
M  V30 2523 H 417.811 -4.78651 3.27911 0
M  V30 2524 H 418.09 -3.64957 6.05871 0
M  V30 2525 H 419.082 -4.8868 5.2125 0
M  V30 2526 H 417.248 -5.66726 7.06352 0
M  V30 2527 H 417.177 -2.07737 5.72367 0
M  V30 2528 P 419.118 -7.20834 5.23717 0
M  V30 2529 O 419.338 -8.66189 5.38625 0
M  V30 2530 O 419.908 -6.33615 6.1356 0
M  V30 2531 O 419.368 -6.7751 3.72168 0
M  V30 2532 C 418.428 -7.20732 2.70725 0
M  V30 2533 C 419.158 -7.45864 1.40599 0
M  V30 2534 O 419.368 -6.17651 0.734225 0
M  V30 2535 C 420.558 -8.05808 1.51899 0
M  V30 2536 O 420.948 -8.74358 0.335205 0
M  V30 2537 C 421.438 -6.83093 1.70294 0
M  V30 2538 C 420.728 -5.79992 0.836974 0
M  V30 2539 N 420.778 -4.41769 1.38263 0
M  V30 2540 C 420.928 -3.38591 0.481702 0
M  V30 2541 O 421.018 -3.56839 -0.718452 0
M  V30 2542 N 420.968 -2.1206 1.03569 0
M  V30 2543 C 420.878 -1.80696 2.36966 0
M  V30 2544 C 420.728 -2.94845 3.23898 0
M  V30 2545 C 420.678 -4.19803 2.73435 0
M  V30 2546 H 417.938 -8.13644 3.0377 0
M  V30 2547 H 417.669 -6.42695 2.55448 0
M  V30 2548 H 418.536 -8.12039 0.792769 0
M  V30 2549 H 421.191 -5.79978 -0.160587 0
M  V30 2550 H 421.47 -6.51379 2.75643 0
M  V30 2551 H 422.462 -7.01734 1.34462 0
M  V30 2552 H 420.628 -8.73674 2.38337 0
M  V30 2553 H 420.557 -5.04492 3.4095 0
M  V30 2554 P 422.497 -8.91 -2.28351e-12 0
M  V30 2555 O 422.717 -10.1726 -0.733694 0
M  V30 2556 O 423.287 -8.73148 1.23936 0
M  V30 2557 O 422.747 -7.66872 -0.971405 0
M  V30 2558 C 421.807 -7.42309 -2.04641 0
M  V30 2559 C 422.537 -6.86059 -3.24661 0
M  V30 2560 O 422.747 -5.42847 -3.03646 0
M  V30 2561 C 423.937 -7.41196 -3.50753 0
M  V30 2562 O 424.327 -7.27073 -4.86816 0
M  V30 2563 C 424.817 -6.5273 -2.63741 0
M  V30 2564 C 424.107 -5.1842 -2.73198 0
M  V30 2565 N 424.157 -4.38762 -1.4784 0
M  V30 2566 C 424.077 -4.81605 -0.168631 0
M  V30 2567 N 424.157 -3.85454 0.713363 0
M  V30 2568 C 424.297 -2.6994 -0.0566958 0
M  V30 2569 C 424.427 -1.34815 0.338502 0
M  V30 2570 O 424.447 -0.869548 1.47125 0
M  V30 2571 N 424.547 -0.496304 -0.77465 0
M  V30 2572 C 424.547 -0.908403 -2.09122 0
M  V30 2573 N 424.677 0.0517805 -3.00955 0
M  V30 2574 N 424.417 -2.17875 -2.46519 0
M  V30 2575 C 424.297 -3.01988 -1.4033 0
M  V30 2576 H 421.318 -8.36803 -2.32493 0
M  V30 2577 H 421.048 -6.70197 -1.71129 0
M  V30 2578 H 421.915 -7.03551 -4.13168 0
M  V30 2579 H 424.57 -4.59498 -3.54415 0
M  V30 2580 H 424.849 -6.88898 -1.59848 0
M  V30 2581 H 425.841 -6.46749 -3.03687 0
M  V30 2582 H 424.007 -8.46908 -3.20714 0
M  V30 2583 H 423.958 -5.86405 0.105564 0
M  V30 2584 H 424.64 0.483664 -0.597855 0
M  V30 2585 H 424.677 -0.187865 -4.0116 0
M  V30 2586 H 424.778 1.03585 -2.71726 0
M  V30 2587 P 425.877 -7.20834 -5.23717 0
M  V30 2588 O 426.097 -7.80006 -6.57415 0
M  V30 2589 O 426.667 -7.79416 -4.13051 0
M  V30 2590 O 426.127 -5.63315 -5.29344 0
M  V30 2591 C 425.187 -4.80318 -6.01954 0
M  V30 2592 C 425.917 -3.64202 -6.65911 0
M  V30 2593 O 426.127 -2.60736 -5.64823 0
M  V30 2594 C 427.317 -3.93521 -7.19518 0
M  V30 2595 O 427.707 -3.02071 -8.21205 0
M  V30 2596 C 428.197 -3.73047 -5.97036 0
M  V30 2597 C 427.487 -2.58828 -5.25741 0
M  V30 2598 N 427.537 -2.68068 -3.77503 0
M  V30 2599 C 427.457 -3.80474 -2.99159 0
M  V30 2600 N 427.527 -3.55622 -1.71925 0
M  V30 2601 C 427.677 -2.1832 -1.65733 0
M  V30 2602 C 427.807 -1.28842 -0.572777 0
M  V30 2603 N 427.817 -1.66875 0.70098 0
M  V30 2604 N 427.927 0.016788 -0.859836 0
M  V30 2605 C 427.917 0.398145 -2.13316 0
M  V30 2606 N 427.797 -0.328224 -3.22333 0
M  V30 2607 C 427.677 -1.62992 -2.90383 0
M  V30 2608 H 424.699 -5.40394 -6.8003 0
M  V30 2609 H 424.427 -4.41741 -5.32532 0
M  V30 2610 H 425.295 -3.26371 -7.47889 0
M  V30 2611 H 427.95 -1.64007 -5.56746 0
M  V30 2612 H 428.23 -4.63439 -5.3432 0
M  V30 2613 H 429.221 -3.44776 -6.25925 0
M  V30 2614 H 427.387 -4.96707 -7.57347 0
M  V30 2615 H 427.346 -4.8089 -3.39924 0
M  V30 2616 H 427.727 -2.66547 0.941919 0
M  V30 2617 H 427.916 -0.965341 1.44766 0
M  V30 2618 H 428.024 1.46427 -2.29697 0
M  V30 2619 P 429.257 -2.75334 -8.47391 0
M  V30 2620 O 429.477 -2.44571 -9.90142 0
M  V30 2621 O 430.047 -3.87688 -7.92115 0
M  V30 2622 O 429.507 -1.4459 -7.59357 0
M  V30 2623 C 428.567 -0.347608 -7.69215 0
M  V30 2624 C 429.297 0.96767 -7.52806 0
M  V30 2625 O 429.507 1.21036 -6.1011 0
M  V30 2626 C 430.697 1.04544 -8.13308 0
M  V30 2627 O 431.087 2.38311 -8.41922 0
M  V30 2628 C 431.577 0.491279 -7.02284 0
M  V30 2629 C 430.867 0.996264 -5.77469 0
M  V30 2630 N 430.917 0.0501916 -4.62973 0
M  V30 2631 C 430.837 -1.32786 -4.63244 0
M  V30 2632 N 430.917 -1.86957 -3.44545 0
M  V30 2633 C 431.057 -0.780241 -2.58481 0
M  V30 2634 C 431.187 -0.738536 -1.17757 0
M  V30 2635 O 431.207 -1.66794 -0.372349 0
M  V30 2636 N 431.307 0.58337 -0.711393 0
M  V30 2637 C 431.307 1.70816 -1.51017 0
M  V30 2638 N 431.437 2.87826 -0.880757 0
M  V30 2639 N 431.177 1.67126 -2.8339 0
M  V30 2640 C 431.057 0.401421 -3.30572 0
M  V30 2641 H 428.078 -0.374722 -8.67691 0
M  V30 2642 H 427.808 -0.443485 -6.90277 0
M  V30 2643 H 428.675 1.75537 -7.96793 0
M  V30 2644 H 431.33 1.95076 -5.46529 0
M  V30 2645 H 431.609 -0.608565 -7.04577 0
M  V30 2646 H 432.601 0.889672 -7.08939 0
M  V30 2647 H 430.767 0.43308 -9.04564 0
M  V30 2648 H 430.718 -1.91249 -5.54442 0
M  V30 2649 H 431.4 0.718054 0.275244 0
M  V30 2650 H 431.437 3.75721 -1.41832 0
M  V30 2651 H 431.538 2.90436 0.145468 0
M  V30 2652 P 432.637 2.75334 -8.47391 0
M  V30 2653 O 432.857 3.84128 -9.44797 0
M  V30 2654 O 433.427 1.51947 -8.68712 0
M  V30 2655 O 432.887 3.29363 -6.99321 0
M  V30 2656 C 431.947 4.24011 -6.4274 0
M  V30 2657 C 432.677 5.20775 -5.52155 0
M  V30 2658 O 432.887 4.56534 -4.22446 0
M  V30 2659 C 434.077 5.62629 -5.96531 0
M  V30 2660 O 434.467 6.87667 -5.41053 0
M  V30 2661 C 434.957 4.52537 -5.39283 0
M  V30 2662 C 434.247 4.20027 -4.08623 0
M  V30 2663 N 434.297 2.76189 -3.71603 0
M  V30 2664 C 434.217 1.64862 -4.52822 0
M  V30 2665 N 434.297 0.512671 -3.88633 0
M  V30 2666 C 434.437 0.888083 -2.54977 0
M  V30 2667 C 434.567 0.094668 -1.38677 0
M  V30 2668 N 434.687 0.890102 -0.232633 0
M  V30 2669 C 434.687 2.26958 -0.21772 0
M  V30 2670 N 434.817 2.84626 0.97925 0
M  V30 2671 N 434.557 3.0178 -1.31033 0
M  V30 2672 C 434.437 2.26781 -2.43843 0
M  V30 2673 H 431.458 4.797 -7.24003 0
M  V30 2674 H 431.188 3.69856 -5.84513 0
M  V30 2675 H 432.055 6.10356 -5.41441 0
M  V30 2676 P 436.017 7.20834 -5.23717 0
M  V30 2677 O 436.237 8.66104 -5.38572 0
M  V30 2678 O 436.807 6.33544 -6.1349 0
M  V30 2679 O 436.267 6.7751 -3.72168 0
M  V30 2680 C 435.327 7.20825 -2.7076 0
M  V30 2681 C 436.057 7.45864 -1.40599 0
M  V30 2682 O 436.267 6.17651 -0.734225 0
M  V30 2683 C 437.457 8.05808 -1.51899 0
M  V30 2684 O 437.847 8.74358 -0.335205 0
M  V30 2685 C 438.337 6.83093 -1.70294 0
M  V30 2686 C 437.627 5.79992 -0.836974 0
M  V30 2687 N 437.677 4.41864 -1.38293 0
M  V30 2688 C 437.597 3.99538 -2.69438 0
M  V30 2689 N 437.677 2.69909 -2.84277 0
M  V30 2690 C 437.817 2.21719 -1.5408 0
M  V30 2691 C 437.947 0.891712 -1.06628 0
M  V30 2692 O 437.967 -0.161298 -1.70137 0
M  V30 2693 N 438.067 0.856846 0.334985 0
M  V30 2694 C 438.067 1.9641 1.15789 0
M  V30 2695 N 438.197 1.72708 2.46522 0
M  V30 2696 N 437.937 3.21165 0.713741 0
M  V30 2697 C 437.817 3.26797 -0.639748 0
M  V30 2698 H 434.838 8.13644 -3.0377 0
M  V30 2699 H 434.568 6.42788 -2.55485 0
M  V30 2700 H 435.435 8.12039 -0.792769 0
M  V30 2701 H 438.09 5.80061 0.166416 0
M  V30 2702 H 438.369 6.51287 -2.75604 0
M  V30 2703 H 439.361 7.01734 -1.34462 0
M  V30 2704 H 437.527 8.73674 -2.38337 0
M  V30 2705 H 437.478 4.68207 -3.53221 0
M  V30 2706 H 438.16 -0.0398818 0.767965 0
M  V30 2707 H 438.197 2.50995 3.13503 0
M  V30 2708 H 438.298 0.759148 2.80716 0
M  V30 2709 P 439.397 8.91 2.44069e-12 0
M  V30 2710 O 439.617 10.1726 0.733694 0
M  V30 2711 O 440.187 8.73148 -1.23936 0
M  V30 2712 O 439.647 7.66872 0.971405 0
M  V30 2713 C 438.707 7.42309 2.04641 0
M  V30 2714 C 439.437 6.86059 3.24661 0
M  V30 2715 O 439.647 5.42847 3.03646 0
M  V30 2716 C 440.837 7.41196 3.50753 0
M  V30 2717 O 441.227 7.27073 4.86816 0
M  V30 2718 C 441.717 6.5273 2.63741 0
M  V30 2719 C 441.007 5.1842 2.73198 0
M  V30 2720 N 441.057 4.38762 1.4784 0
M  V30 2721 H 438.218 8.36803 2.32493 0
M  V30 2722 H 437.948 6.70197 1.71129 0
M  V30 2723 H 438.815 7.03551 4.13168 0
M  V30 2724 P 442.777 7.20834 5.23717 0
M  V30 2725 O 442.997 7.80006 6.57415 0
M  V30 2726 O 443.567 7.79416 4.13051 0
M  V30 2727 O 443.027 5.63315 5.29344 0
M  V30 2728 C 442.087 4.80318 6.01954 0
M  V30 2729 C 442.817 3.64202 6.65911 0
M  V30 2730 O 443.027 2.60736 5.64823 0
M  V30 2731 C 444.217 3.93521 7.19518 0
M  V30 2732 O 444.607 3.02071 8.21205 0
M  V30 2733 C 445.097 3.73047 5.97036 0
M  V30 2734 C 444.387 2.58828 5.25741 0
M  V30 2735 N 444.437 2.68068 3.77503 0
M  V30 2736 H 441.599 5.40394 6.8003 0
M  V30 2737 H 441.327 4.41741 5.32532 0
M  V30 2738 H 442.195 3.26371 7.47889 0
M  V30 2739 H 444.85 1.64007 5.56746 0
M  V30 2740 H 445.13 4.63439 5.3432 0
M  V30 2741 H 446.121 3.44776 6.25925 0
M  V30 2742 H 444.287 4.96707 7.57347 0
M  V30 2743 P 446.157 2.75334 8.47391 0
M  V30 2744 O 446.377 2.44595 9.90239 0
M  V30 2745 O 446.947 3.87732 7.92204 0
M  V30 2746 O 446.407 1.4459 7.59357 0
M  V30 2747 C 445.467 0.347563 7.69115 0
M  V30 2748 C 446.197 -0.96767 7.52806 0
M  V30 2749 O 446.407 -1.21036 6.1011 0
M  V30 2750 C 447.597 -1.04544 8.13308 0
M  V30 2751 O 447.987 -2.38311 8.41922 0
M  V30 2752 C 448.477 -0.491279 7.02284 0
M  V30 2753 C 447.767 -0.996264 5.77469 0
M  V30 2754 N 447.817 -0.0501808 4.62873 0
M  V30 2755 C 447.967 -0.588177 3.36904 0
M  V30 2756 O 448.057 -1.78598 3.17173 0
M  V30 2757 N 448.007 0.329694 2.33686 0
M  V30 2758 C 447.917 1.6953 2.45079 0
M  V30 2759 C 447.767 2.16933 3.80505 0
M  V30 2760 C 447.717 1.30326 4.83752 0
M  V30 2761 H 444.977 0.374722 8.67691 0
M  V30 2762 H 444.708 0.443421 6.90177 0
M  V30 2763 H 445.575 -1.75537 7.96793 0
M  V30 2764 H 448.23 -1.94496 5.46629 0
M  V30 2765 H 448.509 0.608651 7.04676 0
M  V30 2766 H 449.501 -0.889672 7.08939 0
M  V30 2767 H 447.667 -0.43308 9.04564 0
M  V30 2768 H 447.596 1.68366 5.8516 0
M  V30 2769 P 449.537 -2.75334 8.47391 0
M  V30 2770 O 449.757 -3.84128 9.44797 0
M  V30 2771 O 450.327 -1.51947 8.68712 0
M  V30 2772 O 449.787 -3.29363 6.99321 0
M  V30 2773 C 448.847 -4.24011 6.4274 0
M  V30 2774 C 449.577 -5.20775 5.52155 0
M  V30 2775 O 449.787 -4.56534 4.22446 0
M  V30 2776 C 450.977 -5.62629 5.96531 0
M  V30 2777 O 451.367 -6.87667 5.41053 0
M  V30 2778 C 451.857 -4.52537 5.39283 0
M  V30 2779 C 451.147 -4.20027 4.08623 0
M  V30 2780 N 451.197 -2.76189 3.71603 0
M  V30 2781 H 448.358 -4.797 7.24003 0
M  V30 2782 H 448.088 -3.69856 5.84513 0
M  V30 2783 H 448.955 -6.10356 5.41441 0
M  V30 2784 P 452.917 -7.20834 5.23717 0
M  V30 2785 O 453.137 -8.66104 5.38572 0
M  V30 2786 O 453.707 -6.33544 6.1349 0
M  V30 2787 O 453.167 -6.7751 3.72168 0
M  V30 2788 C 452.227 -7.20825 2.7076 0
M  V30 2789 C 452.957 -7.45864 1.40599 0
M  V30 2790 O 453.167 -6.17651 0.734225 0
M  V30 2791 C 454.357 -8.05808 1.51899 0
M  V30 2792 O 454.747 -8.74358 0.335205 0
M  V30 2793 C 455.237 -6.83093 1.70294 0
M  V30 2794 C 454.527 -5.79992 0.836974 0
M  V30 2795 N 454.577 -4.41864 1.38293 0
M  V30 2796 C 454.497 -3.99538 2.69438 0
M  V30 2797 N 454.577 -2.69909 2.84277 0
M  V30 2798 C 454.717 -2.21719 1.5408 0
M  V30 2799 C 454.847 -0.891712 1.06628 0
M  V30 2800 N 454.967 -0.856846 -0.334985 0
M  V30 2801 C 454.967 -1.9641 -1.15789 0
M  V30 2802 N 455.097 -1.72708 -2.46522 0
M  V30 2803 N 454.837 -3.21165 -0.713741 0
M  V30 2804 C 454.717 -3.26797 0.639748 0
M  V30 2805 H 451.738 -8.13644 3.0377 0
M  V30 2806 H 451.468 -6.42788 2.55485 0
M  V30 2807 H 452.335 -8.12039 0.792769 0
M  V30 2808 P 456.297 -8.91 -2.59788e-12 0
M  V30 2809 O 456.517 -10.1746 -0.733838 0
M  V30 2810 O 457.087 -8.73346 1.23964 0
M  V30 2811 O 456.547 -7.66872 -0.971405 0
M  V30 2812 C 455.607 -7.42405 -2.04668 0
M  V30 2813 C 456.337 -6.86059 -3.24661 0
M  V30 2814 O 456.547 -5.42934 -3.03695 0
M  V30 2815 C 457.737 -7.41287 -3.50796 0
M  V30 2816 O 458.127 -7.27073 -4.86816 0
M  V30 2817 C 458.617 -6.5273 -2.63741 0
M  V30 2818 C 457.907 -5.1842 -2.73198 0
M  V30 2819 N 457.957 -4.38762 -1.4784 0
M  V30 2820 H 455.119 -8.36899 -2.3252 0
M  V30 2821 H 454.847 -6.70391 -1.71179 0
M  V30 2822 H 455.715 -7.03638 -4.13219 0
M  V30 2823 H 458.37 -4.59931 -3.54016 0
M  V30 2824 H 458.65 -6.88995 -1.59871 0
M  V30 2825 H 459.641 -6.4684 -3.0373 0
M  V30 2826 H 457.807 -8.47002 -3.20749 0
M  V30 2827 P 459.677 -7.20834 -5.23717 0
M  V30 2828 O 459.897 -7.79853 -6.57286 0
M  V30 2829 O 460.467 -7.79239 -4.12957 0
M  V30 2830 O 459.927 -5.63315 -5.29344 0
M  V30 2831 C 458.987 -4.80255 -6.01876 0
M  V30 2832 C 459.717 -3.64202 -6.65911 0
M  V30 2833 O 459.927 -2.60694 -5.64732 0
M  V30 2834 C 461.117 -3.93473 -7.1943 0
M  V30 2835 O 461.507 -3.02071 -8.21205 0
M  V30 2836 C 461.997 -3.73047 -5.97036 0
M  V30 2837 C 461.287 -2.58828 -5.25741 0
M  V30 2838 N 461.337 -2.68068 -3.77503 0
M  V30 2839 C 461.257 -3.79715 -2.96723 0
M  V30 2840 N 461.337 -3.5377 -1.68852 0
M  V30 2841 C 461.477 -2.15054 -1.63254 0
M  V30 2842 C 461.607 -1.28964 -0.518571 0
M  V30 2843 N 461.727 0.0538097 -0.918425 0
M  V30 2844 C 461.727 0.494275 -2.22578 0
M  V30 2845 N 461.857 1.81086 -2.40434 0
M  V30 2846 N 461.597 -0.313645 -3.27502 0
M  V30 2847 C 461.477 -1.61829 -2.91033 0
M  V30 2848 H 458.498 -5.40332 -6.79951 0
M  V30 2849 H 458.228 -4.41613 -5.32378 0
M  V30 2850 H 459.095 -3.26331 -7.47797 0
M  V30 2851 P 463.057 -2.75334 -8.47391 0
M  V30 2852 O 463.277 -2.44571 -9.90142 0
M  V30 2853 O 463.847 -3.87688 -7.92115 0
M  V30 2854 O 463.307 -1.4459 -7.59357 0
M  V30 2855 C 462.367 -0.347608 -7.69215 0
M  V30 2856 C 463.097 0.96767 -7.52806 0
M  V30 2857 O 463.307 1.21036 -6.1011 0
M  V30 2858 C 464.497 1.04544 -8.13308 0
M  V30 2859 O 464.887 2.38311 -8.41922 0
M  V30 2860 C 465.377 0.491279 -7.02284 0
M  V30 2861 C 464.667 0.996264 -5.77469 0
M  V30 2862 N 464.717 0.0501916 -4.62973 0
M  V30 2863 C 464.637 -1.32786 -4.63244 0
M  V30 2864 N 464.717 -1.86957 -3.44545 0
M  V30 2865 C 464.857 -0.780241 -2.58481 0
M  V30 2866 C 464.987 -0.738536 -1.17757 0
M  V30 2867 N 465.107 0.58337 -0.711393 0
M  V30 2868 C 465.107 1.70816 -1.51017 0
M  V30 2869 N 465.237 2.87826 -0.880757 0
M  V30 2870 N 464.977 1.67126 -2.8339 0
M  V30 2871 C 464.857 0.401421 -3.30572 0
M  V30 2872 H 461.878 -0.374722 -8.67691 0
M  V30 2873 H 461.608 -0.443485 -6.90277 0
M  V30 2874 H 462.475 1.75537 -7.96793 0
M  V30 2875 P 466.437 2.75334 -8.47391 0
M  V30 2876 O 466.657 3.84128 -9.44797 0
M  V30 2877 O 467.227 1.51947 -8.68712 0
M  V30 2878 O 466.687 3.29363 -6.99321 0
M  V30 2879 C 465.747 4.24011 -6.4274 0
M  V30 2880 C 466.477 5.20775 -5.52155 0
M  V30 2881 O 466.687 4.56534 -4.22446 0
M  V30 2882 C 467.877 5.62629 -5.96531 0
M  V30 2883 O 468.267 6.87667 -5.41053 0
M  V30 2884 C 468.757 4.52537 -5.39283 0
M  V30 2885 C 468.047 4.20027 -4.08623 0
M  V30 2886 N 468.097 2.76189 -3.71603 0
M  V30 2887 C 468.017 1.64862 -4.52822 0
M  V30 2888 N 468.097 0.512671 -3.88633 0
M  V30 2889 C 468.237 0.888083 -2.54977 0
M  V30 2890 C 468.367 0.094668 -1.38677 0
M  V30 2891 O 468.387 -1.13053 -1.28163 0
M  V30 2892 N 468.487 0.890102 -0.232633 0
M  V30 2893 C 468.487 2.26958 -0.21772 0
M  V30 2894 N 468.617 2.84626 0.97925 0
M  V30 2895 N 468.357 3.0178 -1.31033 0
M  V30 2896 C 468.237 2.26781 -2.43843 0
M  V30 2897 H 465.258 4.797 -7.24003 0
M  V30 2898 H 464.988 3.69856 -5.84513 0
M  V30 2899 H 465.855 6.10356 -5.41441 0
M  V30 2900 H 468.51 4.79061 -3.27488 0
M  V30 2901 H 468.789 3.64906 -6.05785 0
M  V30 2902 H 469.781 4.8868 -5.2125 0
M  V30 2903 H 467.947 5.66726 -7.06352 0
M  V30 2904 H 467.898 1.71169 -5.60966 0
M  V30 2905 H 468.58 0.419134 0.644739 0
M  V30 2906 H 468.617 3.87332 1.06098 0
M  V30 2907 H 468.718 2.26417 1.82483 0
M  V30 2908 P 469.817 7.20834 -5.23717 0
M  V30 2909 O 470.037 8.66104 -5.38572 0
M  V30 2910 O 470.607 6.33544 -6.1349 0
M  V30 2911 O 470.067 6.7751 -3.72168 0
M  V30 2912 C 469.127 7.20825 -2.7076 0
M  V30 2913 C 469.857 7.45864 -1.40599 0
M  V30 2914 O 470.067 6.17651 -0.734225 0
M  V30 2915 C 471.257 8.05808 -1.51899 0
M  V30 2916 O 471.647 8.74358 -0.335205 0
M  V30 2917 C 472.137 6.83093 -1.70294 0
M  V30 2918 C 471.427 5.79992 -0.836974 0
M  V30 2919 N 471.477 4.41864 -1.38293 0
M  V30 2920 C 471.397 3.99538 -2.69438 0
M  V30 2921 N 471.477 2.69909 -2.84277 0
M  V30 2922 C 471.617 2.21719 -1.5408 0
M  V30 2923 C 471.747 0.891712 -1.06628 0
M  V30 2924 O 471.767 -0.161298 -1.70137 0
M  V30 2925 N 471.867 0.856846 0.334985 0
M  V30 2926 C 471.867 1.9641 1.15789 0
M  V30 2927 N 471.997 1.72708 2.46522 0
M  V30 2928 N 471.737 3.21165 0.713741 0
M  V30 2929 C 471.617 3.26797 -0.639748 0
M  V30 2930 H 468.638 8.13644 -3.0377 0
M  V30 2931 H 468.368 6.42788 -2.55485 0
M  V30 2932 H 469.235 8.12039 -0.792769 0
M  V30 2933 H 471.89 5.80061 0.166416 0
M  V30 2934 H 472.169 6.51287 -2.75604 0
M  V30 2935 H 473.161 7.01734 -1.34462 0
M  V30 2936 H 471.327 8.73674 -2.38337 0
M  V30 2937 H 471.278 4.68207 -3.53221 0
M  V30 2938 H 471.96 -0.0398818 0.767965 0
M  V30 2939 H 471.997 2.50995 3.13503 0
M  V30 2940 H 472.098 0.759148 2.80716 0
M  V30 2941 P 473.197 8.91 2.75506e-12 0
M  V30 2942 O 473.417 10.1726 0.733694 0
M  V30 2943 O 473.987 8.73148 -1.23936 0
M  V30 2944 O 473.447 7.66872 0.971405 0
M  V30 2945 C 472.507 7.42309 2.04641 0
M  V30 2946 C 473.237 6.86059 3.24661 0
M  V30 2947 O 473.447 5.42847 3.03646 0
M  V30 2948 C 474.637 7.41196 3.50753 0
M  V30 2949 O 475.027 7.27073 4.86816 0
M  V30 2950 C 475.517 6.5273 2.63741 0
M  V30 2951 C 474.807 5.1842 2.73198 0
M  V30 2952 N 474.857 4.38762 1.4784 0
M  V30 2953 H 472.018 8.36803 2.32493 0
M  V30 2954 H 471.748 6.70197 1.71129 0
M  V30 2955 H 472.615 7.03551 4.13168 0
M  V30 2956 P 476.577 7.20834 5.23717 0
M  V30 2957 O 476.797 7.79853 6.57286 0
M  V30 2958 O 477.367 7.79239 4.12957 0
M  V30 2959 O 476.827 5.63315 5.29344 0
M  V30 2960 C 475.887 4.80255 6.01876 0
M  V30 2961 C 476.617 3.64202 6.65911 0
M  V30 2962 O 476.827 2.60694 5.64732 0
M  V30 2963 C 478.017 3.93473 7.1943 0
M  V30 2964 O 478.407 3.02071 8.21205 0
M  V30 2965 C 478.897 3.73047 5.97036 0
M  V30 2966 C 478.187 2.58828 5.25741 0
M  V30 2967 N 478.237 2.68068 3.77503 0
M  V30 2968 C 478.157 3.79715 2.96723 0
M  V30 2969 N 478.237 3.5377 1.68852 0
M  V30 2970 C 478.377 2.15054 1.63254 0
M  V30 2971 C 478.507 1.28964 0.518571 0
M  V30 2972 O 478.527 1.56826 -0.679156 0
M  V30 2973 N 478.627 -0.0538097 0.918425 0
M  V30 2974 C 478.627 -0.494275 2.22578 0
M  V30 2975 N 478.757 -1.81086 2.40434 0
M  V30 2976 N 478.497 0.313645 3.27502 0
M  V30 2977 C 478.377 1.61829 2.91033 0
M  V30 2978 H 475.398 5.40332 6.79951 0
M  V30 2979 H 475.128 4.41613 5.32378 0
M  V30 2980 H 475.995 3.26331 7.47797 0
M  V30 2981 H 478.65 1.63422 5.56814 0
M  V30 2982 H 478.929 4.63374 5.34244 0
M  V30 2983 H 479.921 3.44728 6.25838 0
M  V30 2984 H 478.087 4.96652 7.57263 0
M  V30 2985 H 478.038 4.80617 3.3614 0
M  V30 2986 H 478.72 -0.742702 0.199384 0
M  V30 2987 H 478.757 -2.20598 3.35588 0
M  V30 2988 H 478.858 -2.43518 1.58945 0
M  V30 2989 P 479.957 2.75334 8.47391 0
M  V30 2990 O 480.177 2.44595 9.90239 0
M  V30 2991 O 480.747 3.87732 7.92204 0
M  V30 2992 O 480.207 1.4459 7.59357 0
M  V30 2993 C 479.267 0.347563 7.69115 0
M  V30 2994 C 479.997 -0.96767 7.52806 0
M  V30 2995 O 480.207 -1.21036 6.1011 0
M  V30 2996 C 481.397 -1.04544 8.13308 0
M  V30 2997 O 481.787 -2.38311 8.41922 0
M  V30 2998 C 482.277 -0.491279 7.02284 0
M  V30 2999 C 481.567 -0.996264 5.77469 0
M  V30 3000 N 481.617 -0.0501808 4.62873 0
M  V30 3001 C 481.767 -0.588177 3.36904 0
M  V30 3002 O 481.857 -1.78598 3.17173 0
M  V30 3003 N 481.807 0.329694 2.33686 0
M  V30 3004 C 481.717 1.6953 2.45079 0
M  V30 3005 C 481.567 2.16933 3.80505 0
M  V30 3006 C 481.517 1.30326 4.83752 0
M  V30 3007 H 478.777 0.374722 8.67691 0
M  V30 3008 H 478.508 0.443421 6.90177 0
M  V30 3009 H 479.375 -1.75537 7.96793 0
M  V30 3010 H 482.03 -1.94496 5.46629 0
M  V30 3011 H 482.309 0.608651 7.04676 0
M  V30 3012 H 483.301 -0.889672 7.08939 0
M  V30 3013 H 481.467 -0.43308 9.04564 0
M  V30 3014 H 481.396 1.68366 5.8516 0
M  V30 3015 P 483.337 -2.75334 8.47391 0
M  V30 3016 O 483.557 -3.84128 9.44797 0
M  V30 3017 O 484.127 -1.51947 8.68712 0
M  V30 3018 O 483.587 -3.29363 6.99321 0
M  V30 3019 C 482.647 -4.24011 6.4274 0
M  V30 3020 C 483.377 -5.20775 5.52155 0
M  V30 3021 O 483.587 -4.56534 4.22446 0
M  V30 3022 C 484.777 -5.62629 5.96531 0
M  V30 3023 O 485.167 -6.87667 5.41053 0
M  V30 3024 C 485.657 -4.52537 5.39283 0
M  V30 3025 C 484.947 -4.20027 4.08623 0
M  V30 3026 N 484.997 -2.76189 3.71603 0
M  V30 3027 H 482.158 -4.797 7.24003 0
M  V30 3028 H 481.888 -3.69856 5.84513 0
M  V30 3029 H 482.755 -6.10356 5.41441 0
M  V30 3030 P 486.717 -7.20834 5.23717 0
M  V30 3031 O 486.937 -8.66104 5.38572 0
M  V30 3032 O 487.507 -6.33544 6.1349 0
M  V30 3033 O 486.967 -6.7751 3.72168 0
M  V30 3034 C 486.027 -7.20825 2.7076 0
M  V30 3035 C 486.757 -7.45864 1.40599 0
M  V30 3036 O 486.967 -6.17651 0.734225 0
M  V30 3037 C 488.157 -8.05808 1.51899 0
M  V30 3038 O 488.547 -8.74358 0.335205 0
M  V30 3039 C 489.037 -6.83093 1.70294 0
M  V30 3040 C 488.327 -5.79992 0.836974 0
M  V30 3041 N 488.377 -4.41864 1.38293 0
M  V30 3042 C 488.297 -3.99538 2.69438 0
M  V30 3043 N 488.377 -2.69909 2.84277 0
M  V30 3044 C 488.517 -2.21719 1.5408 0
M  V30 3045 C 488.647 -0.891712 1.06628 0
M  V30 3046 O 488.667 0.161298 1.70137 0
M  V30 3047 N 488.767 -0.856846 -0.334985 0
M  V30 3048 C 488.767 -1.9641 -1.15789 0
M  V30 3049 N 488.897 -1.72708 -2.46522 0
M  V30 3050 N 488.637 -3.21165 -0.713741 0
M  V30 3051 C 488.517 -3.26797 0.639748 0
M  V30 3052 H 485.538 -8.13644 3.0377 0
M  V30 3053 H 485.268 -6.42788 2.55485 0
M  V30 3054 H 486.135 -8.12039 0.792769 0
M  V30 3055 H 488.79 -5.80061 -0.166416 0
M  V30 3056 H 489.069 -6.51287 2.75604 0
M  V30 3057 H 490.061 -7.01734 1.34462 0
M  V30 3058 H 488.227 -8.73674 2.38337 0
M  V30 3059 H 488.178 -4.68207 3.53221 0
M  V30 3060 H 488.86 0.0398818 -0.767965 0
M  V30 3061 H 488.897 -2.50995 -3.13503 0
M  V30 3062 H 488.998 -0.759148 -2.80716 0
M  V30 3063 P 490.097 -8.91 -2.91224e-12 0
M  V30 3064 O 490.317 -10.1726 -0.733694 0
M  V30 3065 O 490.887 -8.73148 1.23936 0
M  V30 3066 O 490.347 -7.66872 -0.971405 0
M  V30 3067 C 489.407 -7.42309 -2.04641 0
M  V30 3068 C 490.137 -6.86059 -3.24661 0
M  V30 3069 O 490.347 -5.42847 -3.03646 0
M  V30 3070 C 491.537 -7.41196 -3.50753 0
M  V30 3071 O 491.927 -7.27073 -4.86816 0
M  V30 3072 C 492.417 -6.5273 -2.63741 0
M  V30 3073 C 491.707 -5.1842 -2.73198 0
M  V30 3074 N 491.757 -4.38762 -1.4784 0
M  V30 3075 C 491.677 -4.81605 -0.168631 0
M  V30 3076 N 491.757 -3.85454 0.713363 0
M  V30 3077 C 491.897 -2.6994 -0.0566958 0
M  V30 3078 C 492.027 -1.34815 0.338502 0
M  V30 3079 O 492.047 -0.869548 1.47125 0
M  V30 3080 N 492.147 -0.496304 -0.77465 0
M  V30 3081 C 492.147 -0.908403 -2.09122 0
M  V30 3082 N 492.277 0.0517805 -3.00955 0
M  V30 3083 N 492.017 -2.17875 -2.46519 0
M  V30 3084 C 491.897 -3.01988 -1.4033 0
M  V30 3085 H 488.918 -8.36803 -2.32493 0
M  V30 3086 H 488.648 -6.70197 -1.71129 0
M  V30 3087 H 489.515 -7.03551 -4.13168 0
M  V30 3088 H 492.17 -4.59498 -3.54415 0
M  V30 3089 H 492.449 -6.88898 -1.59848 0
M  V30 3090 H 493.441 -6.46749 -3.03687 0
M  V30 3091 H 491.607 -8.46908 -3.20714 0
M  V30 3092 H 491.558 -5.86405 0.105564 0
M  V30 3093 H 492.24 0.483664 -0.597855 0
M  V30 3094 H 492.277 -0.187865 -4.0116 0
M  V30 3095 H 492.378 1.03585 -2.71726 0
M  V30 3096 P 493.477 -7.20834 -5.23717 0
M  V30 3097 O 493.697 -7.7993 -6.57351 0
M  V30 3098 O 494.267 -7.79328 -4.13004 0
M  V30 3099 O 493.727 -5.63315 -5.29344 0
M  V30 3100 C 492.787 -4.80193 -6.01798 0
M  V30 3101 C 493.517 -3.64202 -6.65911 0
M  V30 3102 O 493.727 -2.60694 -5.64732 0
M  V30 3103 C 494.917 -3.93473 -7.1943 0
M  V30 3104 O 495.307 -3.02071 -8.21205 0
M  V30 3105 C 495.797 -3.73047 -5.97036 0
M  V30 3106 C 495.087 -2.58828 -5.25741 0
M  V30 3107 N 495.137 -2.6801 -3.77422 0
M  V30 3108 C 495.287 -1.50443 -3.07133 0
M  V30 3109 O 495.377 -0.419406 -3.61576 0
M  V30 3110 N 495.327 -1.6403 -1.69677 0
M  V30 3111 C 495.237 -2.81206 -0.986255 0
M  V30 3112 C 495.087 -3.99158 -1.80325 0
M  V30 3113 C 495.037 -3.89779 -3.1476 0
M  V30 3114 H 492.297 -5.40332 -6.79951 0
M  V30 3115 H 492.028 -4.41549 -5.32301 0
M  V30 3116 H 492.895 -3.26331 -7.47797 0
M  V30 3117 H 495.55 -1.6395 -5.56554 0
M  V30 3118 H 495.829 -4.63439 -5.3432 0
M  V30 3119 H 496.821 -3.44728 -6.25838 0
M  V30 3120 H 494.987 -4.96652 -7.57263 0
M  V30 3121 H 494.916 -4.80159 -3.74441 0
M  V30 3122 P 496.857 -2.75334 -8.47391 0
M  V30 3123 O 497.077 -2.44571 -9.90142 0
M  V30 3124 O 497.647 -3.87688 -7.92115 0
M  V30 3125 O 497.107 -1.4459 -7.59357 0
M  V30 3126 C 496.167 -0.347608 -7.69215 0
M  V30 3127 C 496.897 0.96767 -7.52806 0
M  V30 3128 O 497.107 1.21036 -6.1011 0
M  V30 3129 C 498.297 1.04544 -8.13308 0
M  V30 3130 O 498.687 2.38311 -8.41922 0
M  V30 3131 C 499.177 0.491279 -7.02284 0
M  V30 3132 C 498.467 0.996264 -5.77469 0
M  V30 3133 N 498.517 0.0501916 -4.62973 0
M  V30 3134 C 498.437 -1.32786 -4.63244 0
M  V30 3135 N 498.517 -1.86957 -3.44545 0
M  V30 3136 C 498.657 -0.780241 -2.58481 0
M  V30 3137 C 498.787 -0.738536 -1.17757 0
M  V30 3138 O 498.807 -1.66794 -0.372349 0
M  V30 3139 N 498.907 0.58337 -0.711393 0
M  V30 3140 C 498.907 1.70816 -1.51017 0
M  V30 3141 N 499.037 2.87826 -0.880757 0
M  V30 3142 N 498.777 1.67126 -2.8339 0
M  V30 3143 C 498.657 0.401421 -3.30572 0
M  V30 3144 H 495.678 -0.374722 -8.67691 0
M  V30 3145 H 495.408 -0.443485 -6.90277 0
M  V30 3146 H 496.275 1.75537 -7.96793 0
M  V30 3147 H 498.93 1.95076 -5.46529 0
M  V30 3148 H 499.209 -0.608565 -7.04577 0
M  V30 3149 H 500.201 0.889672 -7.08939 0
M  V30 3150 H 498.367 0.43308 -9.04564 0
M  V30 3151 H 498.318 -1.91249 -5.54442 0
M  V30 3152 H 499 0.718054 0.275244 0
M  V30 3153 H 499.037 3.75721 -1.41832 0
M  V30 3154 H 499.138 2.90436 0.145468 0
M  V30 3155 P 500.237 2.75334 -8.47391 0
M  V30 3156 O 500.457 3.84128 -9.44797 0
M  V30 3157 O 501.027 1.51947 -8.68712 0
M  V30 3158 O 500.487 3.29363 -6.99321 0
M  V30 3159 C 499.547 4.24011 -6.4274 0
M  V30 3160 C 500.277 5.20775 -5.52155 0
M  V30 3161 O 500.487 4.56534 -4.22446 0
M  V30 3162 C 501.677 5.62629 -5.96531 0
M  V30 3163 O 502.067 6.87667 -5.41053 0
M  V30 3164 C 502.557 4.52537 -5.39283 0
M  V30 3165 C 501.847 4.20027 -4.08623 0
M  V30 3166 N 501.897 2.76189 -3.71603 0
M  V30 3167 C 501.817 1.64862 -4.52822 0
M  V30 3168 N 501.897 0.512671 -3.88633 0
M  V30 3169 C 502.037 0.888083 -2.54977 0
M  V30 3170 C 502.167 0.094668 -1.38677 0
M  V30 3171 O 502.187 -1.13053 -1.28163 0
M  V30 3172 N 502.287 0.890102 -0.232633 0
M  V30 3173 C 502.287 2.26958 -0.21772 0
M  V30 3174 N 502.417 2.84626 0.97925 0
M  V30 3175 N 502.157 3.0178 -1.31033 0
M  V30 3176 C 502.037 2.26781 -2.43843 0
M  V30 3177 H 499.058 4.797 -7.24003 0
M  V30 3178 H 498.788 3.69856 -5.84513 0
M  V30 3179 H 499.655 6.10356 -5.41441 0
M  V30 3180 H 502.31 4.79061 -3.27488 0
M  V30 3181 H 502.589 3.64906 -6.05785 0
M  V30 3182 H 503.581 4.8868 -5.2125 0
M  V30 3183 H 501.747 5.66726 -7.06352 0
M  V30 3184 H 501.698 1.71169 -5.60966 0
M  V30 3185 H 502.38 0.419134 0.644739 0
M  V30 3186 H 502.417 3.87332 1.06098 0
M  V30 3187 H 502.518 2.26417 1.82483 0
M  V30 3188 P 503.617 7.20834 -5.23717 0
M  V30 3189 O 503.837 8.66104 -5.38572 0
M  V30 3190 O 504.407 6.33544 -6.1349 0
M  V30 3191 O 503.867 6.7751 -3.72168 0
M  V30 3192 C 502.927 7.20825 -2.7076 0
M  V30 3193 C 503.657 7.45864 -1.40599 0
M  V30 3194 O 503.867 6.17651 -0.734225 0
M  V30 3195 C 505.057 8.05808 -1.51899 0
M  V30 3196 O 505.447 8.74358 -0.335205 0
M  V30 3197 C 505.937 6.83093 -1.70294 0
M  V30 3198 C 505.227 5.79992 -0.836974 0
M  V30 3199 N 505.277 4.41864 -1.38293 0
M  V30 3200 H 502.438 8.13644 -3.0377 0
M  V30 3201 H 502.168 6.42788 -2.55485 0
M  V30 3202 H 503.035 8.12039 -0.792769 0
M  V30 3203 P 506.997 8.91 3.06942e-12 0
M  V30 3204 O 507.217 10.1726 0.733694 0
M  V30 3205 O 507.787 8.73148 -1.23936 0
M  V30 3206 O 507.247 7.66872 0.971405 0
M  V30 3207 C 506.307 7.42309 2.04641 0
M  V30 3208 C 507.037 6.86059 3.24661 0
M  V30 3209 O 507.247 5.42847 3.03646 0
M  V30 3210 C 508.437 7.41196 3.50753 0
M  V30 3211 O 508.827 7.27073 4.86816 0
M  V30 3212 C 509.317 6.5273 2.63741 0
M  V30 3213 C 508.607 5.1842 2.73198 0
M  V30 3214 N 508.657 4.38762 1.4784 0
M  V30 3215 H 505.818 8.36803 2.32493 0
M  V30 3216 H 505.548 6.70197 1.71129 0
M  V30 3217 H 506.415 7.03551 4.13168 0
M  V30 3218 P 510.377 7.20834 5.23717 0
M  V30 3219 O 510.597 7.79853 6.57286 0
M  V30 3220 O 511.167 7.79239 4.12957 0
M  V30 3221 O 510.627 5.63315 5.29344 0
M  V30 3222 C 509.687 4.80255 6.01876 0
M  V30 3223 C 510.417 3.64202 6.65911 0
M  V30 3224 O 510.627 2.60694 5.64732 0
M  V30 3225 C 511.817 3.93473 7.1943 0
M  V30 3226 O 512.207 3.02071 8.21205 0
M  V30 3227 C 512.697 3.73047 5.97036 0
M  V30 3228 C 511.987 2.58828 5.25741 0
M  V30 3229 N 512.037 2.68068 3.77503 0
M  V30 3230 H 509.198 5.40332 6.79951 0
M  V30 3231 H 508.928 4.41613 5.32378 0
M  V30 3232 H 509.795 3.26331 7.47797 0
M  V30 3233 P 513.757 2.75334 8.47391 0
M  V30 3234 O 513.977 2.44595 9.90239 0
M  V30 3235 O 514.547 3.87732 7.92204 0
M  V30 3236 O 514.007 1.4459 7.59357 0
M  V30 3237 C 513.067 0.347563 7.69115 0
M  V30 3238 C 513.797 -0.96767 7.52806 0
M  V30 3239 O 514.007 -1.21036 6.1011 0
M  V30 3240 C 515.197 -1.04544 8.13308 0
M  V30 3241 O 515.587 -2.38311 8.41922 0
M  V30 3242 C 516.077 -0.491279 7.02284 0
M  V30 3243 C 515.367 -0.996264 5.77469 0
M  V30 3244 N 515.417 -0.0501808 4.62873 0
M  V30 3245 C 515.567 -0.588177 3.36904 0
M  V30 3246 O 515.657 -1.78598 3.17173 0
M  V30 3247 N 515.607 0.329694 2.33686 0
M  V30 3248 C 515.517 1.6953 2.45079 0
M  V30 3249 C 515.367 2.16933 3.80505 0
M  V30 3250 C 515.317 1.30326 4.83752 0
M  V30 3251 H 512.577 0.374722 8.67691 0
M  V30 3252 H 512.308 0.443421 6.90177 0
M  V30 3253 H 513.175 -1.75537 7.96793 0
M  V30 3254 H 515.83 -1.94496 5.46629 0
M  V30 3255 H 516.109 0.608651 7.04676 0
M  V30 3256 H 517.101 -0.889672 7.08939 0
M  V30 3257 H 515.267 -0.43308 9.04564 0
M  V30 3258 H 515.196 1.68366 5.8516 0
M  V30 3259 P 517.137 -2.75334 8.47391 0
M  V30 3260 O 517.357 -3.84128 9.44797 0
M  V30 3261 O 517.927 -1.51947 8.68712 0
M  V30 3262 O 517.387 -3.29363 6.99321 0
M  V30 3263 C 516.447 -4.24011 6.4274 0
M  V30 3264 C 517.177 -5.20775 5.52155 0
M  V30 3265 O 517.387 -4.56534 4.22446 0
M  V30 3266 C 518.577 -5.62629 5.96531 0
M  V30 3267 O 518.967 -6.87667 5.41053 0
M  V30 3268 C 519.457 -4.52537 5.39283 0
M  V30 3269 C 518.747 -4.20027 4.08623 0
M  V30 3270 N 518.797 -2.76189 3.71603 0
M  V30 3271 C 518.717 -1.64862 4.52822 0
M  V30 3272 N 518.797 -0.512671 3.88633 0
M  V30 3273 C 518.937 -0.888083 2.54977 0
M  V30 3274 C 519.067 -0.094668 1.38677 0
M  V30 3275 O 519.087 1.13053 1.28163 0
M  V30 3276 N 519.187 -0.890102 0.232633 0
M  V30 3277 C 519.187 -2.26958 0.21772 0
M  V30 3278 N 519.317 -2.84626 -0.97925 0
M  V30 3279 N 519.057 -3.0178 1.31033 0
M  V30 3280 C 518.937 -2.26781 2.43843 0
M  V30 3281 H 515.958 -4.797 7.24003 0
M  V30 3282 H 515.688 -3.69856 5.84513 0
M  V30 3283 H 516.555 -6.10356 5.41441 0
M  V30 3284 H 519.21 -4.79061 3.27488 0
M  V30 3285 H 519.489 -3.64906 6.05785 0
M  V30 3286 H 520.481 -4.8868 5.2125 0
M  V30 3287 H 518.647 -5.66726 7.06352 0
M  V30 3288 H 518.598 -1.71169 5.60966 0
M  V30 3289 H 519.28 -0.419134 -0.644739 0
M  V30 3290 H 519.317 -3.87332 -1.06098 0
M  V30 3291 H 519.418 -2.26417 -1.82483 0
M  V30 3292 P 520.517 -7.20834 5.23717 0
M  V30 3293 O 520.737 -8.66104 5.38572 0
M  V30 3294 O 521.307 -6.33544 6.1349 0
M  V30 3295 O 520.767 -6.7751 3.72168 0
M  V30 3296 C 519.827 -7.20825 2.7076 0
M  V30 3297 C 520.557 -7.45864 1.40599 0
M  V30 3298 O 520.767 -6.17651 0.734225 0
M  V30 3299 C 521.957 -8.05808 1.51899 0
M  V30 3300 O 522.347 -8.74358 0.335205 0
M  V30 3301 C 522.837 -6.83093 1.70294 0
M  V30 3302 C 522.127 -5.79992 0.836974 0
M  V30 3303 N 522.177 -4.41864 1.38293 0
M  V30 3304 C 522.097 -3.99538 2.69438 0
M  V30 3305 N 522.177 -2.69909 2.84277 0
M  V30 3306 C 522.317 -2.21719 1.5408 0
M  V30 3307 C 522.447 -0.891712 1.06628 0
M  V30 3308 O 522.467 0.161298 1.70137 0
M  V30 3309 N 522.567 -0.856846 -0.334985 0
M  V30 3310 C 522.567 -1.9641 -1.15789 0
M  V30 3311 N 522.697 -1.72708 -2.46522 0
M  V30 3312 N 522.437 -3.21165 -0.713741 0
M  V30 3313 C 522.317 -3.26797 0.639748 0
M  V30 3314 H 519.338 -8.13644 3.0377 0
M  V30 3315 H 519.068 -6.42788 2.55485 0
M  V30 3316 H 519.935 -8.12039 0.792769 0
M  V30 3317 H 522.59 -5.80061 -0.166416 0
M  V30 3318 H 522.869 -6.51287 2.75604 0
M  V30 3319 H 523.861 -7.01734 1.34462 0
M  V30 3320 H 522.027 -8.73674 2.38337 0
M  V30 3321 H 521.978 -4.68207 3.53221 0
M  V30 3322 H 522.66 0.0398818 -0.767965 0
M  V30 3323 H 522.697 -2.50995 -3.13503 0
M  V30 3324 H 522.798 -0.759148 -2.80716 0
M  V30 3325 P 523.897 -8.91 -3.22661e-12 0
M  V30 3326 O 524.117 -10.1736 -0.733766 0
M  V30 3327 O 524.687 -8.73247 1.2395 0
M  V30 3328 O 524.147 -7.66872 -0.971405 0
M  V30 3329 C 523.207 -7.42212 -2.04614 0
M  V30 3330 C 523.937 -6.86059 -3.24661 0
M  V30 3331 O 524.147 -5.42847 -3.03646 0
M  V30 3332 C 525.337 -7.41196 -3.50753 0
M  V30 3333 O 525.727 -7.27073 -4.86816 0
M  V30 3334 C 526.217 -6.5273 -2.63741 0
M  V30 3335 C 525.507 -5.1842 -2.73198 0
M  V30 3336 N 525.557 -4.38668 -1.47808 0
M  V30 3337 C 525.707 -3.02239 -1.60048 0
M  V30 3338 O 525.797 -2.46459 -2.67869 0
M  V30 3339 N 525.747 -2.32436 -0.408571 0
M  V30 3340 C 525.657 -2.85471 0.854993 0
M  V30 3341 C 525.507 -4.28918 0.887335 0
M  V30 3342 C 525.457 -5.00349 -0.255399 0
M  V30 3343 H 522.717 -8.36803 -2.32493 0
M  V30 3344 H 522.448 -6.701 -1.71105 0
M  V30 3345 H 523.315 -7.03551 -4.13168 0
M  V30 3346 H 525.97 -4.59773 -3.53894 0
M  V30 3347 H 526.249 -6.88995 -1.59871 0
M  V30 3348 H 527.241 -6.46749 -3.03687 0
M  V30 3349 H 525.407 -8.46908 -3.20714 0
M  V30 3350 H 525.336 -6.08548 -0.206986 0
M  V30 3351 P 527.277 -7.20834 -5.23717 0
M  V30 3352 O 527.497 -7.79853 -6.57286 0
M  V30 3353 O 528.067 -7.79239 -4.12957 0
M  V30 3354 O 527.527 -5.63315 -5.29344 0
M  V30 3355 C 526.587 -4.80255 -6.01876 0
M  V30 3356 C 527.317 -3.64202 -6.65911 0
M  V30 3357 O 527.527 -2.60694 -5.64732 0
M  V30 3358 C 528.717 -3.93473 -7.1943 0
M  V30 3359 O 529.107 -3.02071 -8.21205 0
M  V30 3360 C 529.597 -3.73047 -5.97036 0
M  V30 3361 C 528.887 -2.58828 -5.25741 0
M  V30 3362 N 528.937 -2.68068 -3.77503 0
M  V30 3363 H 526.098 -5.40332 -6.79951 0
M  V30 3364 H 525.828 -4.41613 -5.32378 0
M  V30 3365 H 526.695 -3.26331 -7.47797 0
M  V30 3366 P 530.657 -2.75334 -8.47391 0
M  V30 3367 O 530.877 -2.44571 -9.90142 0
M  V30 3368 O 531.447 -3.87688 -7.92115 0
M  V30 3369 O 530.907 -1.4459 -7.59357 0
M  V30 3370 C 529.967 -0.347608 -7.69215 0
M  V30 3371 C 530.697 0.96767 -7.52806 0
M  V30 3372 O 530.907 1.21036 -6.1011 0
M  V30 3373 C 532.097 1.04544 -8.13308 0
M  V30 3374 O 532.487 2.38311 -8.41922 0
M  V30 3375 C 532.977 0.491279 -7.02284 0
M  V30 3376 C 532.267 0.996264 -5.77469 0
M  V30 3377 N 532.317 0.0501916 -4.62973 0
M  V30 3378 H 529.478 -0.374722 -8.67691 0
M  V30 3379 H 529.208 -0.443485 -6.90277 0
M  V30 3380 H 530.075 1.75537 -7.96793 0
M  V30 3381 P 534.037 2.75334 -8.47391 0
M  V30 3382 O 534.257 3.84166 -9.4489 0
M  V30 3383 O 534.827 1.51964 -8.6881 0
M  V30 3384 O 534.287 3.29363 -6.99321 0
M  V30 3385 C 533.347 4.23956 -6.42656 0
M  V30 3386 C 534.077 5.20775 -5.52155 0
M  V30 3387 O 534.287 4.56534 -4.22446 0
M  V30 3388 C 535.477 5.62629 -5.96531 0
M  V30 3389 O 535.867 6.87667 -5.41053 0
M  V30 3390 C 536.357 4.52537 -5.39283 0
M  V30 3391 C 535.647 4.20027 -4.08623 0
M  V30 3392 N 535.697 2.7613 -3.71522 0
M  V30 3393 C 535.847 2.45612 -2.37989 0
M  V30 3394 O 535.937 3.30919 -1.51621 0
M  V30 3395 N 535.887 1.10684 -2.08435 0
M  V30 3396 C 535.797 0.0690084 -2.9792 0
M  V30 3397 C 535.647 0.481522 -4.35345 0
M  V30 3398 C 535.597 1.78906 -4.67968 0
M  V30 3399 H 532.857 4.797 -7.24003 0
M  V30 3400 H 532.588 3.69802 -5.84429 0
M  V30 3401 H 533.455 6.10356 -5.41441 0
M  V30 3402 H 536.11 4.78651 -3.27911 0
M  V30 3403 H 536.389 3.64957 -6.05871 0
M  V30 3404 H 537.381 4.8868 -5.2125 0
M  V30 3405 H 535.547 5.66726 -7.06352 0
M  V30 3406 H 535.476 2.07737 -5.72367 0
M  V30 3407 P 537.417 7.20834 -5.23717 0
M  V30 3408 O 537.637 8.66104 -5.38572 0
M  V30 3409 O 538.207 6.33544 -6.1349 0
M  V30 3410 O 537.667 6.7751 -3.72168 0
M  V30 3411 C 536.727 7.20825 -2.7076 0
M  V30 3412 C 537.457 7.45864 -1.40599 0
M  V30 3413 O 537.667 6.17651 -0.734225 0
M  V30 3414 C 538.857 8.05808 -1.51899 0
M  V30 3415 O 539.247 8.74358 -0.335205 0
M  V30 3416 C 539.737 6.83093 -1.70294 0
M  V30 3417 C 539.027 5.79992 -0.836974 0
M  V30 3418 N 539.077 4.41864 -1.38293 0
M  V30 3419 C 538.997 3.99538 -2.69438 0
M  V30 3420 N 539.077 2.69909 -2.84277 0
M  V30 3421 C 539.217 2.21719 -1.5408 0
M  V30 3422 C 539.347 0.891712 -1.06628 0
M  V30 3423 O 539.367 -0.161298 -1.70137 0
M  V30 3424 N 539.467 0.856846 0.334985 0
M  V30 3425 C 539.467 1.9641 1.15789 0
M  V30 3426 N 539.597 1.72708 2.46522 0
M  V30 3427 N 539.337 3.21165 0.713741 0
M  V30 3428 C 539.217 3.26797 -0.639748 0
M  V30 3429 H 536.238 8.13644 -3.0377 0
M  V30 3430 H 535.968 6.42788 -2.55485 0
M  V30 3431 H 536.835 8.12039 -0.792769 0
M  V30 3432 H 539.49 5.80061 0.166416 0
M  V30 3433 H 539.769 6.51287 -2.75604 0
M  V30 3434 H 540.761 7.01734 -1.34462 0
M  V30 3435 H 538.927 8.73674 -2.38337 0
M  V30 3436 H 538.878 4.68207 -3.53221 0
M  V30 3437 H 539.56 -0.0398818 0.767965 0
M  V30 3438 H 539.597 2.50995 3.13503 0
M  V30 3439 H 539.698 0.759148 2.80716 0
M  V30 3440 P 540.797 8.91 3.38379e-12 0
M  V30 3441 O 541.017 10.1736 0.733766 0
M  V30 3442 O 541.587 8.73247 -1.2395 0
M  V30 3443 O 541.047 7.66872 0.971405 0
M  V30 3444 C 540.107 7.42212 2.04614 0
M  V30 3445 C 540.837 6.86059 3.24661 0
M  V30 3446 O 541.047 5.42847 3.03646 0
M  V30 3447 C 542.237 7.41196 3.50753 0
M  V30 3448 O 542.627 7.27073 4.86816 0
M  V30 3449 C 543.117 6.5273 2.63741 0
M  V30 3450 C 542.407 5.1842 2.73198 0
M  V30 3451 N 542.457 4.38668 1.47808 0
M  V30 3452 C 542.607 3.02239 1.60048 0
M  V30 3453 O 542.697 2.46459 2.67869 0
M  V30 3454 N 542.647 2.32436 0.408571 0
M  V30 3455 C 542.557 2.85471 -0.854993 0
M  V30 3456 C 542.407 4.28918 -0.887335 0
M  V30 3457 C 542.357 5.00349 0.255399 0
M  V30 3458 H 539.617 8.36803 2.32493 0
M  V30 3459 H 539.348 6.701 1.71105 0
M  V30 3460 H 540.215 7.03551 4.13168 0
M  V30 3461 H 542.87 4.59773 3.53894 0
M  V30 3462 H 543.149 6.88995 1.59871 0
M  V30 3463 H 544.141 6.46749 3.03687 0
M  V30 3464 H 542.307 8.46908 3.20714 0
M  V30 3465 H 542.236 6.08548 0.206986 0
M  V30 3466 P 544.177 7.20834 5.23717 0
M  V30 3467 O 544.397 7.79853 6.57286 0
M  V30 3468 O 544.967 7.79239 4.12957 0
M  V30 3469 O 544.427 5.63315 5.29344 0
M  V30 3470 C 543.487 4.80255 6.01876 0
M  V30 3471 C 544.217 3.64202 6.65911 0
M  V30 3472 O 544.427 2.60694 5.64732 0
M  V30 3473 C 545.617 3.93473 7.1943 0
M  V30 3474 O 546.007 3.02071 8.21205 0
M  V30 3475 C 546.497 3.73047 5.97036 0
M  V30 3476 C 545.787 2.58828 5.25741 0
M  V30 3477 N 545.837 2.68068 3.77503 0
M  V30 3478 C 545.757 3.79715 2.96723 0
M  V30 3479 N 545.837 3.5377 1.68852 0
M  V30 3480 C 545.977 2.15054 1.63254 0
M  V30 3481 C 546.107 1.28964 0.518571 0
M  V30 3482 O 546.127 1.56826 -0.679156 0
M  V30 3483 N 546.227 -0.0538097 0.918425 0
M  V30 3484 C 546.227 -0.494275 2.22578 0
M  V30 3485 N 546.357 -1.81086 2.40434 0
M  V30 3486 N 546.097 0.313645 3.27502 0
M  V30 3487 C 545.977 1.61829 2.91033 0
M  V30 3488 H 542.998 5.40332 6.79951 0
M  V30 3489 H 542.728 4.41613 5.32378 0
M  V30 3490 H 543.595 3.26331 7.47797 0
M  V30 3491 H 546.25 1.63422 5.56814 0
M  V30 3492 H 546.529 4.63374 5.34244 0
M  V30 3493 H 547.521 3.44728 6.25838 0
M  V30 3494 H 545.687 4.96652 7.57263 0
M  V30 3495 H 545.638 4.80617 3.3614 0
M  V30 3496 H 546.32 -0.742702 0.199384 0
M  V30 3497 H 546.357 -2.20598 3.35588 0
M  V30 3498 H 546.458 -2.43518 1.58945 0
M  V30 3499 P 547.557 2.75334 8.47391 0
M  V30 3500 O 547.777 2.44571 9.90142 0
M  V30 3501 O 548.347 3.87688 7.92115 0
M  V30 3502 O 547.807 1.4459 7.59357 0
M  V30 3503 C 546.867 0.347608 7.69215 0
M  V30 3504 C 547.597 -0.96767 7.52806 0
M  V30 3505 O 547.807 -1.21036 6.1011 0
M  V30 3506 C 548.997 -1.04544 8.13308 0
M  V30 3507 O 549.387 -2.38311 8.41922 0
M  V30 3508 C 549.877 -0.491279 7.02284 0
M  V30 3509 C 549.167 -0.996264 5.77469 0
M  V30 3510 N 549.217 -0.0501916 4.62973 0
M  V30 3511 H 546.378 0.374722 8.67691 0
M  V30 3512 H 546.108 0.443485 6.90277 0
M  V30 3513 H 546.975 -1.75537 7.96793 0
M  V30 3514 P 550.937 -2.75334 8.47391 0
M  V30 3515 O 551.157 -3.84128 9.44797 0
M  V30 3516 O 551.727 -1.51947 8.68712 0
M  V30 3517 O 551.187 -3.29363 6.99321 0
M  V30 3518 C 550.247 -4.24011 6.4274 0
M  V30 3519 C 550.977 -5.20775 5.52155 0
M  V30 3520 O 551.187 -4.56534 4.22446 0
M  V30 3521 C 552.377 -5.62629 5.96531 0
M  V30 3522 O 552.767 -6.87667 5.41053 0
M  V30 3523 C 553.257 -4.52537 5.39283 0
M  V30 3524 C 552.547 -4.20027 4.08623 0
M  V30 3525 N 552.597 -2.76189 3.71603 0
M  V30 3526 H 549.758 -4.797 7.24003 0
M  V30 3527 H 549.488 -3.69856 5.84513 0
M  V30 3528 H 550.355 -6.10356 5.41441 0
M  V30 3529 P 554.317 -7.20834 5.23717 0
M  V30 3530 O 554.537 -8.66104 5.38572 0
M  V30 3531 O 555.107 -6.33544 6.1349 0
M  V30 3532 O 554.567 -6.7751 3.72168 0
M  V30 3533 C 553.627 -7.20825 2.7076 0
M  V30 3534 C 554.357 -7.45864 1.40599 0
M  V30 3535 O 554.567 -6.17651 0.734225 0
M  V30 3536 C 555.757 -8.05808 1.51899 0
M  V30 3537 O 556.147 -8.74358 0.335205 0
M  V30 3538 C 556.637 -6.83093 1.70294 0
M  V30 3539 C 555.927 -5.79992 0.836974 0
M  V30 3540 N 555.977 -4.41864 1.38293 0
M  V30 3541 C 555.897 -3.99538 2.69438 0
M  V30 3542 N 555.977 -2.69909 2.84277 0
M  V30 3543 C 556.117 -2.21719 1.5408 0
M  V30 3544 C 556.247 -0.891712 1.06628 0
M  V30 3545 O 556.267 0.161298 1.70137 0
M  V30 3546 N 556.367 -0.856846 -0.334985 0
M  V30 3547 C 556.367 -1.9641 -1.15789 0
M  V30 3548 N 556.497 -1.72708 -2.46522 0
M  V30 3549 N 556.237 -3.21165 -0.713741 0
M  V30 3550 C 556.117 -3.26797 0.639748 0
M  V30 3551 H 553.138 -8.13644 3.0377 0
M  V30 3552 H 552.868 -6.42788 2.55485 0
M  V30 3553 H 553.735 -8.12039 0.792769 0
M  V30 3554 H 556.39 -5.80061 -0.166416 0
M  V30 3555 H 556.669 -6.51287 2.75604 0
M  V30 3556 H 557.661 -7.01734 1.34462 0
M  V30 3557 H 555.827 -8.73674 2.38337 0
M  V30 3558 H 555.778 -4.68207 3.53221 0
M  V30 3559 H 556.46 0.0398818 -0.767965 0
M  V30 3560 H 556.497 -2.50995 -3.13503 0
M  V30 3561 H 556.598 -0.759148 -2.80716 0
M  V30 3562 P 557.697 -8.91 -3.54097e-12 0
M  V30 3563 O 557.917 -10.1726 -0.733694 0
M  V30 3564 O 558.487 -8.73148 1.23936 0
M  V30 3565 O 557.947 -7.66872 -0.971405 0
M  V30 3566 C 557.007 -7.42309 -2.04641 0
M  V30 3567 C 557.737 -6.86059 -3.24661 0
M  V30 3568 O 557.947 -5.42847 -3.03646 0
M  V30 3569 C 559.137 -7.41196 -3.50753 0
M  V30 3570 O 559.527 -7.27073 -4.86816 0
M  V30 3571 C 560.017 -6.5273 -2.63741 0
M  V30 3572 C 559.307 -5.1842 -2.73198 0
M  V30 3573 N 559.357 -4.38762 -1.4784 0
M  V30 3574 H 556.518 -8.36803 -2.32493 0
M  V30 3575 H 556.248 -6.70197 -1.71129 0
M  V30 3576 H 557.115 -7.03551 -4.13168 0
M  V30 3577 P 561.077 -7.20834 -5.23717 0
M  V30 3578 O 561.297 -7.79853 -6.57286 0
M  V30 3579 O 561.867 -7.79239 -4.12957 0
M  V30 3580 O 561.327 -5.63315 -5.29344 0
M  V30 3581 C 560.387 -4.80255 -6.01876 0
M  V30 3582 C 561.117 -3.64202 -6.65911 0
M  V30 3583 O 561.327 -2.60694 -5.64732 0
M  V30 3584 C 562.517 -3.93473 -7.1943 0
M  V30 3585 O 562.907 -3.02071 -8.21205 0
M  V30 3586 C 563.397 -3.73047 -5.97036 0
M  V30 3587 C 562.687 -2.58828 -5.25741 0
M  V30 3588 N 562.737 -2.68068 -3.77503 0
M  V30 3589 H 559.898 -5.40332 -6.79951 0
M  V30 3590 H 559.628 -4.41613 -5.32378 0
M  V30 3591 H 560.495 -3.26331 -7.47797 0
M  V30 3592 P 564.457 -2.75334 -8.47391 0
M  V30 3593 O 564.677 -2.44571 -9.90142 0
M  V30 3594 O 565.247 -3.87688 -7.92115 0
M  V30 3595 O 564.707 -1.4459 -7.59357 0
M  V30 3596 C 563.767 -0.347608 -7.69215 0
M  V30 3597 C 564.497 0.96767 -7.52806 0
M  V30 3598 O 564.707 1.21036 -6.1011 0
M  V30 3599 C 565.897 1.04544 -8.13308 0
M  V30 3600 O 566.287 2.38311 -8.41922 0
M  V30 3601 C 566.777 0.491279 -7.02284 0
M  V30 3602 C 566.067 0.996264 -5.77469 0
M  V30 3603 N 566.117 0.0501916 -4.62973 0
M  V30 3604 H 563.278 -0.374722 -8.67691 0
M  V30 3605 H 563.008 -0.443485 -6.90277 0
M  V30 3606 H 563.875 1.75537 -7.96793 0
M  V30 3607 P 567.837 2.75334 -8.47391 0
M  V30 3608 O 568.057 3.84128 -9.44797 0
M  V30 3609 O 568.627 1.51947 -8.68712 0
M  V30 3610 O 568.087 3.29363 -6.99321 0
M  V30 3611 C 567.147 4.24011 -6.4274 0
M  V30 3612 C 567.877 5.20775 -5.52155 0
M  V30 3613 O 568.087 4.56534 -4.22446 0
M  V30 3614 C 569.277 5.62629 -5.96531 0
M  V30 3615 O 569.667 6.87667 -5.41053 0
M  V30 3616 C 570.157 4.52537 -5.39283 0
M  V30 3617 C 569.447 4.20027 -4.08623 0
M  V30 3618 N 569.497 2.76189 -3.71603 0
M  V30 3619 C 569.417 1.64862 -4.52822 0
M  V30 3620 N 569.497 0.512671 -3.88633 0
M  V30 3621 C 569.637 0.888083 -2.54977 0
M  V30 3622 C 569.767 0.094668 -1.38677 0
M  V30 3623 N 569.887 0.890102 -0.232633 0
M  V30 3624 C 569.887 2.26958 -0.21772 0
M  V30 3625 N 570.017 2.84626 0.97925 0
M  V30 3626 N 569.757 3.0178 -1.31033 0
M  V30 3627 C 569.637 2.26781 -2.43843 0
M  V30 3628 H 566.658 4.797 -7.24003 0
M  V30 3629 H 566.388 3.69856 -5.84513 0
M  V30 3630 H 567.255 6.10356 -5.41441 0
M  V30 3631 P 571.217 7.20834 -5.23717 0
M  V30 3632 O 571.437 8.66274 -5.38678 0
M  V30 3633 O 572.007 6.33687 -6.13629 0
M  V30 3634 O 571.467 6.7751 -3.72168 0
M  V30 3635 C 570.527 7.20919 -2.70795 0
M  V30 3636 C 571.257 7.45864 -1.40599 0
M  V30 3637 O 571.467 6.17751 -0.734343 0
M  V30 3638 C 572.657 8.05906 -1.51917 0
M  V30 3639 O 573.047 8.74358 -0.335205 0
M  V30 3640 C 573.537 6.83093 -1.70294 0
M  V30 3641 C 572.827 5.79992 -0.836974 0
M  V30 3642 N 572.877 4.41864 -1.38293 0
M  V30 3643 H 570.039 8.13738 -3.03804 0
M  V30 3644 H 569.767 6.42974 -2.55559 0
M  V30 3645 H 570.635 8.12139 -0.792866 0
M  V30 3646 H 573.29 5.80178 0.160643 0
M  V30 3647 H 573.57 6.51379 -2.75643 0
M  V30 3648 H 574.561 7.01832 -1.3448 0
M  V30 3649 H 572.727 8.73771 -2.38364 0
M  V30 3650 P 574.597 8.91 3.69815e-12 0
M  V30 3651 O 574.817 10.1726 0.733694 0
M  V30 3652 O 575.387 8.73148 -1.23936 0
M  V30 3653 O 574.847 7.66872 0.971405 0
M  V30 3654 C 573.907 7.42309 2.04641 0
M  V30 3655 C 574.637 6.86059 3.24661 0
M  V30 3656 O 574.847 5.42847 3.03646 0
M  V30 3657 C 576.037 7.41196 3.50753 0
M  V30 3658 O 576.427 7.27073 4.86816 0
M  V30 3659 C 576.917 6.5273 2.63741 0
M  V30 3660 C 576.207 5.1842 2.73198 0
M  V30 3661 N 576.257 4.38762 1.4784 0
M  V30 3662 C 576.177 4.81605 0.168631 0
M  V30 3663 N 576.257 3.85454 -0.713363 0
M  V30 3664 C 576.397 2.6994 0.0566958 0
M  V30 3665 C 576.527 1.34815 -0.338502 0
M  V30 3666 N 576.647 0.496304 0.77465 0
M  V30 3667 C 576.647 0.908403 2.09122 0
M  V30 3668 N 576.777 -0.0517805 3.00955 0
M  V30 3669 N 576.517 2.17875 2.46519 0
M  V30 3670 C 576.397 3.01988 1.4033 0
M  V30 3671 H 573.418 8.36803 2.32493 0
M  V30 3672 H 573.148 6.70197 1.71129 0
M  V30 3673 H 574.015 7.03551 4.13168 0
M  V30 3674 P 577.977 7.20834 5.23717 0
M  V30 3675 O 578.197 7.79853 6.57286 0
M  V30 3676 O 578.767 7.79239 4.12957 0
M  V30 3677 O 578.227 5.63315 5.29344 0
M  V30 3678 C 577.287 4.80255 6.01876 0
M  V30 3679 C 578.017 3.64202 6.65911 0
M  V30 3680 O 578.227 2.60694 5.64732 0
M  V30 3681 C 579.417 3.93473 7.1943 0
M  V30 3682 O 579.807 3.02071 8.21205 0
M  V30 3683 C 580.297 3.73047 5.97036 0
M  V30 3684 C 579.587 2.58828 5.25741 0
M  V30 3685 N 579.637 2.68068 3.77503 0
M  V30 3686 H 576.798 5.40332 6.79951 0
M  V30 3687 H 576.528 4.41613 5.32378 0
M  V30 3688 H 577.395 3.26331 7.47797 0
M  V30 3689 P 581.357 2.75334 8.47391 0
M  V30 3690 O 581.577 2.44571 9.90142 0
M  V30 3691 O 582.147 3.87688 7.92115 0
M  V30 3692 O 581.607 1.4459 7.59357 0
M  V30 3693 C 580.667 0.347608 7.69215 0
M  V30 3694 C 581.397 -0.96767 7.52806 0
M  V30 3695 O 581.607 -1.21036 6.1011 0
M  V30 3696 C 582.797 -1.04544 8.13308 0
M  V30 3697 O 583.187 -2.38311 8.41922 0
M  V30 3698 C 583.677 -0.491279 7.02284 0
M  V30 3699 C 582.967 -0.996264 5.77469 0
M  V30 3700 N 583.017 -0.0501916 4.62973 0
M  V30 3701 C 582.937 1.32786 4.63244 0
M  V30 3702 N 583.017 1.86957 3.44545 0
M  V30 3703 C 583.157 0.780241 2.58481 0
M  V30 3704 C 583.287 0.738536 1.17757 0
M  V30 3705 O 583.307 1.66794 0.372349 0
M  V30 3706 N 583.407 -0.58337 0.711393 0
M  V30 3707 C 583.407 -1.70816 1.51017 0
M  V30 3708 N 583.537 -2.87826 0.880757 0
M  V30 3709 N 583.277 -1.67126 2.8339 0
M  V30 3710 C 583.157 -0.401421 3.30572 0
M  V30 3711 H 580.178 0.374722 8.67691 0
M  V30 3712 H 579.908 0.443485 6.90277 0
M  V30 3713 H 580.775 -1.75537 7.96793 0
M  V30 3714 H 583.43 -1.95076 5.46529 0
M  V30 3715 H 583.709 0.608565 7.04577 0
M  V30 3716 H 584.701 -0.889672 7.08939 0
M  V30 3717 H 582.867 -0.43308 9.04564 0
M  V30 3718 H 582.818 1.91249 5.54442 0
M  V30 3719 H 583.5 -0.718054 -0.275244 0
M  V30 3720 H 583.537 -3.75721 1.41832 0
M  V30 3721 H 583.638 -2.90436 -0.145468 0
M  V30 3722 P 584.737 -2.75334 8.47391 0
M  V30 3723 O 584.957 -3.84128 9.44797 0
M  V30 3724 O 585.527 -1.51947 8.68712 0
M  V30 3725 O 584.987 -3.29363 6.99321 0
M  V30 3726 C 584.047 -4.24011 6.4274 0
M  V30 3727 C 584.777 -5.20775 5.52155 0
M  V30 3728 O 584.987 -4.56534 4.22446 0
M  V30 3729 C 586.177 -5.62629 5.96531 0
M  V30 3730 O 586.567 -6.87667 5.41053 0
M  V30 3731 C 587.057 -4.52537 5.39283 0
M  V30 3732 C 586.347 -4.20027 4.08623 0
M  V30 3733 N 586.397 -2.76189 3.71603 0
M  V30 3734 C 586.317 -1.64862 4.52822 0
M  V30 3735 N 586.397 -0.512671 3.88633 0
M  V30 3736 C 586.537 -0.888083 2.54977 0
M  V30 3737 C 586.667 -0.094668 1.38677 0
M  V30 3738 N 586.787 -0.890102 0.232633 0
M  V30 3739 C 586.787 -2.26958 0.21772 0
M  V30 3740 N 586.917 -2.84626 -0.97925 0
M  V30 3741 N 586.657 -3.0178 1.31033 0
M  V30 3742 C 586.537 -2.26781 2.43843 0
M  V30 3743 H 583.558 -4.797 7.24003 0
M  V30 3744 H 583.288 -3.69856 5.84513 0
M  V30 3745 H 584.155 -6.10356 5.41441 0
M  V30 3746 P 588.117 -7.20834 5.23717 0
M  V30 3747 O 588.337 -8.66104 5.38572 0
M  V30 3748 O 588.907 -6.33544 6.1349 0
M  V30 3749 O 588.367 -6.7751 3.72168 0
M  V30 3750 C 587.427 -7.20825 2.7076 0
M  V30 3751 C 588.157 -7.45864 1.40599 0
M  V30 3752 O 588.367 -6.17651 0.734225 0
M  V30 3753 C 589.557 -8.05808 1.51899 0
M  V30 3754 O 589.947 -8.74358 0.335205 0
M  V30 3755 C 590.437 -6.83093 1.70294 0
M  V30 3756 C 589.727 -5.79992 0.836974 0
M  V30 3757 N 589.777 -4.41864 1.38293 0
M  V30 3758 C 589.697 -3.99538 2.69438 0
M  V30 3759 N 589.777 -2.69909 2.84277 0
M  V30 3760 C 589.917 -2.21719 1.5408 0
M  V30 3761 C 590.047 -0.891712 1.06628 0
M  V30 3762 O 590.067 0.161298 1.70137 0
M  V30 3763 N 590.167 -0.856846 -0.334985 0
M  V30 3764 C 590.167 -1.9641 -1.15789 0
M  V30 3765 N 590.297 -1.72708 -2.46522 0
M  V30 3766 N 590.037 -3.21165 -0.713741 0
M  V30 3767 C 589.917 -3.26797 0.639748 0
M  V30 3768 H 586.938 -8.13644 3.0377 0
M  V30 3769 H 586.668 -6.42788 2.55485 0
M  V30 3770 H 587.535 -8.12039 0.792769 0
M  V30 3771 H 590.19 -5.80061 -0.166416 0
M  V30 3772 H 590.469 -6.51287 2.75604 0
M  V30 3773 H 591.461 -7.01734 1.34462 0
M  V30 3774 H 589.627 -8.73674 2.38337 0
M  V30 3775 H 589.578 -4.68207 3.53221 0
M  V30 3776 H 590.26 0.0398818 -0.767965 0
M  V30 3777 H 590.297 -2.50995 -3.13503 0
M  V30 3778 H 590.398 -0.759148 -2.80716 0
M  V30 3779 P 591.496 -8.91 -3.85533e-12 0
M  V30 3780 O 591.716 -10.1746 -0.733838 0
M  V30 3781 O 592.286 -8.73346 1.23964 0
M  V30 3782 O 591.746 -7.66872 -0.971405 0
M  V30 3783 C 590.806 -7.42405 -2.04668 0
M  V30 3784 C 591.536 -6.86059 -3.24661 0
M  V30 3785 O 591.746 -5.42934 -3.03695 0
M  V30 3786 C 592.937 -7.41287 -3.50796 0
M  V30 3787 O 593.327 -7.27073 -4.86816 0
M  V30 3788 C 593.817 -6.5273 -2.63741 0
M  V30 3789 C 593.106 -5.1842 -2.73198 0
M  V30 3790 N 593.156 -4.38762 -1.4784 0
M  V30 3791 H 590.318 -8.36899 -2.3252 0
M  V30 3792 H 590.046 -6.70391 -1.71179 0
M  V30 3793 H 590.914 -7.03638 -4.13219 0
M  V30 3794 H 593.569 -4.59931 -3.54016 0
M  V30 3795 H 593.849 -6.88995 -1.59871 0
M  V30 3796 H 594.841 -6.4684 -3.0373 0
M  V30 3797 H 593.006 -8.47002 -3.20749 0
M  V30 3798 P 594.876 -7.20834 -5.23717 0
M  V30 3799 O 595.096 -7.79853 -6.57286 0
M  V30 3800 O 595.666 -7.79239 -4.12957 0
M  V30 3801 O 595.126 -5.63315 -5.29344 0
M  V30 3802 C 594.186 -4.80255 -6.01876 0
M  V30 3803 C 594.916 -3.64202 -6.65911 0
M  V30 3804 O 595.126 -2.60694 -5.64732 0
M  V30 3805 C 596.316 -3.93473 -7.1943 0
M  V30 3806 O 596.706 -3.02071 -8.21205 0
M  V30 3807 C 597.196 -3.73047 -5.97036 0
M  V30 3808 C 596.486 -2.58828 -5.25741 0
M  V30 3809 N 596.536 -2.68068 -3.77503 0
M  V30 3810 C 596.456 -3.79715 -2.96723 0
M  V30 3811 N 596.536 -3.5377 -1.68852 0
M  V30 3812 C 596.676 -2.15054 -1.63254 0
M  V30 3813 C 596.806 -1.28964 -0.518571 0
M  V30 3814 O 596.826 -1.56826 0.679156 0
M  V30 3815 N 596.926 0.0538097 -0.918425 0
M  V30 3816 C 596.926 0.494275 -2.22578 0
M  V30 3817 N 597.056 1.81086 -2.40434 0
M  V30 3818 N 596.796 -0.313645 -3.27502 0
M  V30 3819 C 596.676 -1.61829 -2.91033 0
M  V30 3820 H 593.697 -5.40332 -6.79951 0
M  V30 3821 H 593.427 -4.41613 -5.32378 0
M  V30 3822 H 594.294 -3.26331 -7.47797 0
M  V30 3823 H 596.949 -1.63422 -5.56814 0
M  V30 3824 H 597.228 -4.63374 -5.34244 0
M  V30 3825 H 598.22 -3.44728 -6.25838 0
M  V30 3826 H 596.386 -4.96652 -7.57263 0
M  V30 3827 H 596.337 -4.80617 -3.3614 0
M  V30 3828 H 597.019 0.742702 -0.199384 0
M  V30 3829 H 597.056 2.20598 -3.35588 0
M  V30 3830 H 597.157 2.43518 -1.58945 0
M  V30 3831 P 598.256 -2.75334 -8.47391 0
M  V30 3832 O 598.476 -2.44571 -9.90142 0
M  V30 3833 O 599.046 -3.87688 -7.92115 0
M  V30 3834 O 598.506 -1.4459 -7.59357 0
M  V30 3835 C 597.566 -0.347608 -7.69215 0
M  V30 3836 C 598.296 0.96767 -7.52806 0
M  V30 3837 O 598.506 1.21036 -6.1011 0
M  V30 3838 C 599.696 1.04544 -8.13308 0
M  V30 3839 O 600.086 2.38311 -8.41922 0
M  V30 3840 C 600.576 0.491279 -7.02284 0
M  V30 3841 C 599.866 0.996264 -5.77469 0
M  V30 3842 N 599.916 0.0501916 -4.62973 0
M  V30 3843 C 599.836 -1.32786 -4.63244 0
M  V30 3844 N 599.916 -1.86957 -3.44545 0
M  V30 3845 C 600.056 -0.780241 -2.58481 0
M  V30 3846 C 600.186 -0.738536 -1.17757 0
M  V30 3847 O 600.206 -1.66794 -0.372349 0
M  V30 3848 N 600.306 0.58337 -0.711393 0
M  V30 3849 C 600.306 1.70816 -1.51017 0
M  V30 3850 N 600.436 2.87826 -0.880757 0
M  V30 3851 N 600.176 1.67126 -2.8339 0
M  V30 3852 C 600.056 0.401421 -3.30572 0
M  V30 3853 H 597.077 -0.374722 -8.67691 0
M  V30 3854 H 596.807 -0.443485 -6.90277 0
M  V30 3855 H 597.674 1.75537 -7.96793 0
M  V30 3856 H 600.329 1.95076 -5.46529 0
M  V30 3857 H 600.608 -0.608565 -7.04577 0
M  V30 3858 H 601.6 0.889672 -7.08939 0
M  V30 3859 H 599.766 0.43308 -9.04564 0
M  V30 3860 H 599.717 -1.91249 -5.54442 0
M  V30 3861 H 600.399 0.718054 0.275244 0
M  V30 3862 H 600.436 3.75721 -1.41832 0
M  V30 3863 H 600.537 2.90436 0.145468 0
M  V30 3864 P 601.636 2.75334 -8.47391 0
M  V30 3865 O 601.856 3.84204 -9.44982 0
M  V30 3866 O 602.426 1.51982 -8.68909 0
M  V30 3867 O 601.886 3.29363 -6.99321 0
M  V30 3868 C 600.946 4.24066 -6.42823 0
M  V30 3869 C 601.676 5.20775 -5.52155 0
M  V30 3870 O 601.886 4.56607 -4.22514 0
M  V30 3871 C 603.076 5.62697 -5.96604 0
M  V30 3872 O 603.466 6.87667 -5.41053 0
M  V30 3873 C 603.956 4.52537 -5.39283 0
M  V30 3874 C 603.246 4.20027 -4.08623 0
M  V30 3875 N 603.296 2.76189 -3.71603 0
M  V30 3876 H 600.458 4.79756 -7.24086 0
M  V30 3877 H 600.186 3.69963 -5.84682 0
M  V30 3878 H 601.054 6.10431 -5.41508 0
M  V30 3879 H 603.709 4.78816 -3.28024 0
M  V30 3880 H 603.989 3.64957 -6.05871 0
M  V30 3881 H 604.98 4.88748 -5.21323 0
M  V30 3882 H 603.146 5.66789 -7.0643 0
M  V30 3883 P 605.016 7.20834 -5.23717 0
M  V30 3884 O 605.236 8.66104 -5.38572 0
M  V30 3885 O 605.806 6.33544 -6.1349 0
M  V30 3886 O 605.266 6.7751 -3.72168 0
M  V30 3887 C 604.326 7.20825 -2.7076 0
M  V30 3888 C 605.056 7.45864 -1.40599 0
M  V30 3889 O 605.266 6.17651 -0.734225 0
M  V30 3890 C 606.456 8.05808 -1.51899 0
M  V30 3891 O 606.846 8.74358 -0.335205 0
M  V30 3892 C 607.336 6.83093 -1.70294 0
M  V30 3893 C 606.626 5.79992 -0.836974 0
M  V30 3894 N 606.676 4.41864 -1.38293 0
M  V30 3895 C 606.596 3.99538 -2.69438 0
M  V30 3896 N 606.676 2.69909 -2.84277 0
M  V30 3897 C 606.816 2.21719 -1.5408 0
M  V30 3898 C 606.946 0.891712 -1.06628 0
M  V30 3899 O 606.966 -0.161298 -1.70137 0
M  V30 3900 N 607.066 0.856846 0.334985 0
M  V30 3901 C 607.066 1.9641 1.15789 0
M  V30 3902 N 607.196 1.72708 2.46522 0
M  V30 3903 N 606.936 3.21165 0.713741 0
M  V30 3904 C 606.816 3.26797 -0.639748 0
M  V30 3905 H 603.837 8.13644 -3.0377 0
M  V30 3906 H 603.567 6.42788 -2.55485 0
M  V30 3907 H 604.434 8.12039 -0.792769 0
M  V30 3908 H 607.089 5.80061 0.166416 0
M  V30 3909 H 607.368 6.51287 -2.75604 0
M  V30 3910 H 608.36 7.01734 -1.34462 0
M  V30 3911 H 606.526 8.73674 -2.38337 0
M  V30 3912 H 606.477 4.68207 -3.53221 0
M  V30 3913 H 607.159 -0.0398818 0.767965 0
M  V30 3914 H 607.196 2.50995 3.13503 0
M  V30 3915 H 607.297 0.759148 2.80716 0
M  V30 3916 P 608.396 8.91 4.01252e-12 0
M  V30 3917 O 608.616 10.1736 0.733766 0
M  V30 3918 O 609.186 8.73247 -1.2395 0
M  V30 3919 O 608.646 7.66872 0.971405 0
M  V30 3920 C 607.706 7.42212 2.04614 0
M  V30 3921 C 608.436 6.86059 3.24661 0
M  V30 3922 O 608.646 5.42847 3.03646 0
M  V30 3923 C 609.836 7.41196 3.50753 0
M  V30 3924 O 610.226 7.27073 4.86816 0
M  V30 3925 C 610.716 6.5273 2.63741 0
M  V30 3926 C 610.006 5.1842 2.73198 0
M  V30 3927 N 610.056 4.38668 1.47808 0
M  V30 3928 C 610.206 3.02239 1.60048 0
M  V30 3929 O 610.296 2.46459 2.67869 0
M  V30 3930 N 610.246 2.32436 0.408571 0
M  V30 3931 C 610.156 2.85471 -0.854993 0
M  V30 3932 C 610.006 4.28918 -0.887335 0
M  V30 3933 C 609.956 5.00349 0.255399 0
M  V30 3934 H 607.216 8.36803 2.32493 0
M  V30 3935 H 606.947 6.701 1.71105 0
M  V30 3936 H 607.814 7.03551 4.13168 0
M  V30 3937 H 610.469 4.59773 3.53894 0
M  V30 3938 H 610.748 6.88995 1.59871 0
M  V30 3939 H 611.74 6.46749 3.03687 0
M  V30 3940 H 609.906 8.46908 3.20714 0
M  V30 3941 H 609.835 6.08548 0.206986 0
M  V30 3942 P 611.776 7.20834 5.23717 0
M  V30 3943 O 611.996 7.79853 6.57286 0
M  V30 3944 O 612.566 7.79239 4.12957 0
M  V30 3945 O 612.026 5.63315 5.29344 0
M  V30 3946 C 611.086 4.80255 6.01876 0
M  V30 3947 C 611.816 3.64202 6.65911 0
M  V30 3948 O 612.026 2.60694 5.64732 0
M  V30 3949 C 613.216 3.93473 7.1943 0
M  V30 3950 O 613.606 3.02071 8.21205 0
M  V30 3951 C 614.096 3.73047 5.97036 0
M  V30 3952 C 613.386 2.58828 5.25741 0
M  V30 3953 N 613.436 2.68068 3.77503 0
M  V30 3954 C 613.356 3.79715 2.96723 0
M  V30 3955 N 613.436 3.5377 1.68852 0
M  V30 3956 C 613.576 2.15054 1.63254 0
M  V30 3957 C 613.706 1.28964 0.518571 0
M  V30 3958 O 613.726 1.56826 -0.679156 0
M  V30 3959 N 613.826 -0.0538097 0.918425 0
M  V30 3960 C 613.826 -0.494275 2.22578 0
M  V30 3961 N 613.956 -1.81086 2.40434 0
M  V30 3962 N 613.696 0.313645 3.27502 0
M  V30 3963 C 613.576 1.61829 2.91033 0
M  V30 3964 H 610.597 5.40332 6.79951 0
M  V30 3965 H 610.327 4.41613 5.32378 0
M  V30 3966 H 611.194 3.26331 7.47797 0
M  V30 3967 H 613.849 1.63422 5.56814 0
M  V30 3968 H 614.128 4.63374 5.34244 0
M  V30 3969 H 615.12 3.44728 6.25838 0
M  V30 3970 H 613.286 4.96652 7.57263 0
M  V30 3971 H 613.237 4.80617 3.3614 0
M  V30 3972 H 613.919 -0.742702 0.199384 0
M  V30 3973 H 613.956 -2.20598 3.35588 0
M  V30 3974 H 614.057 -2.43518 1.58945 0
M  V30 3975 P 615.156 2.75334 8.47391 0
M  V30 3976 O 615.376 2.44571 9.90142 0
M  V30 3977 O 615.946 3.87688 7.92115 0
M  V30 3978 O 615.406 1.4459 7.59357 0
M  V30 3979 C 614.466 0.347608 7.69215 0
M  V30 3980 C 615.196 -0.96767 7.52806 0
M  V30 3981 O 615.406 -1.21036 6.1011 0
M  V30 3982 C 616.596 -1.04544 8.13308 0
M  V30 3983 O 616.986 -2.38311 8.41922 0
M  V30 3984 C 617.476 -0.491279 7.02284 0
M  V30 3985 C 616.766 -0.996264 5.77469 0
M  V30 3986 N 616.816 -0.0501916 4.62973 0
M  V30 3987 C 616.736 1.32786 4.63244 0
M  V30 3988 N 616.816 1.86957 3.44545 0
M  V30 3989 C 616.956 0.780241 2.58481 0
M  V30 3990 C 617.086 0.738536 1.17757 0
M  V30 3991 O 617.106 1.66794 0.372349 0
M  V30 3992 N 617.206 -0.58337 0.711393 0
M  V30 3993 C 617.206 -1.70816 1.51017 0
M  V30 3994 N 617.336 -2.87826 0.880757 0
M  V30 3995 N 617.076 -1.67126 2.8339 0
M  V30 3996 C 616.956 -0.401421 3.30572 0
M  V30 3997 H 613.977 0.374722 8.67691 0
M  V30 3998 H 613.707 0.443485 6.90277 0
M  V30 3999 H 614.574 -1.75537 7.96793 0
M  V30 4000 H 617.229 -1.95076 5.46529 0
M  V30 4001 H 617.508 0.608565 7.04577 0
M  V30 4002 H 618.5 -0.889672 7.08939 0
M  V30 4003 H 616.666 -0.43308 9.04564 0
M  V30 4004 H 616.617 1.91249 5.54442 0
M  V30 4005 H 617.299 -0.718054 -0.275244 0
M  V30 4006 H 617.336 -3.75721 1.41832 0
M  V30 4007 H 617.437 -2.90436 -0.145468 0
M  V30 4008 P 618.536 -2.75334 8.47391 0
M  V30 4009 O 618.756 -3.84204 9.44982 0
M  V30 4010 O 619.326 -1.51982 8.68909 0
M  V30 4011 O 618.786 -3.29363 6.99321 0
M  V30 4012 C 617.846 -4.24066 6.42823 0
M  V30 4013 C 618.576 -5.20775 5.52155 0
M  V30 4014 O 618.786 -4.56607 4.22514 0
M  V30 4015 C 619.976 -5.62697 5.96604 0
M  V30 4016 O 620.366 -6.87667 5.41053 0
M  V30 4017 C 620.856 -4.52537 5.39283 0
M  V30 4018 C 620.146 -4.20027 4.08623 0
M  V30 4019 N 620.196 -2.76189 3.71603 0
M  V30 4020 C 620.116 -1.66944 4.54297 0
M  V30 4021 N 620.186 -0.536169 3.91344 0
M  V30 4022 C 620.336 -0.901569 2.58849 0
M  V30 4023 C 620.466 -0.146599 1.40236 0
M  V30 4024 N 620.476 1.18234 1.37046 0
M  V30 4025 N 620.586 -0.822941 0.249738 0
M  V30 4026 C 620.576 -2.15179 0.280525 0
M  V30 4027 N 620.456 -2.96414 1.30822 0
M  V30 4028 C 620.336 -2.25804 2.44748 0
M  V30 4029 H 617.358 -4.79756 7.24086 0
M  V30 4030 H 617.086 -3.69963 5.84682 0
M  V30 4031 H 617.954 -6.10431 5.41508 0
M  V30 4032 H 620.609 -4.78816 3.28024 0
M  V30 4033 H 620.889 -3.64957 6.05871 0
M  V30 4034 H 621.88 -4.88748 5.21323 0
M  V30 4035 H 620.046 -5.66789 7.0643 0
M  V30 4036 H 620.005 -1.74684 5.62396 0
M  V30 4037 H 620.386 1.71949 2.24394 0
M  V30 4038 H 620.575 1.67511 0.470742 0
M  V30 4039 H 620.683 -2.63704 -0.6828 0
M  V30 4040 P 621.916 -7.20834 5.23717 0
M  V30 4041 O 622.136 -8.66104 5.38572 0
M  V30 4042 O 622.706 -6.33544 6.1349 0
M  V30 4043 O 622.166 -6.7751 3.72168 0
M  V30 4044 C 621.226 -7.20825 2.7076 0
M  V30 4045 C 621.956 -7.45864 1.40599 0
M  V30 4046 O 622.166 -6.17651 0.734225 0
M  V30 4047 C 623.356 -8.05808 1.51899 0
M  V30 4048 O 623.746 -8.74358 0.335205 0
M  V30 4049 C 624.236 -6.83093 1.70294 0
M  V30 4050 C 623.526 -5.79992 0.836974 0
M  V30 4051 N 623.576 -4.41864 1.38293 0
M  V30 4052 C 623.496 -3.99538 2.69438 0
M  V30 4053 N 623.576 -2.69909 2.84277 0
M  V30 4054 C 623.716 -2.21719 1.5408 0
M  V30 4055 C 623.846 -0.891712 1.06628 0
M  V30 4056 O 623.866 0.161298 1.70137 0
M  V30 4057 N 623.966 -0.856846 -0.334985 0
M  V30 4058 C 623.966 -1.9641 -1.15789 0
M  V30 4059 N 624.096 -1.72708 -2.46522 0
M  V30 4060 N 623.836 -3.21165 -0.713741 0
M  V30 4061 C 623.716 -3.26797 0.639748 0
M  V30 4062 H 620.737 -8.13644 3.0377 0
M  V30 4063 H 620.467 -6.42788 2.55485 0
M  V30 4064 H 621.334 -8.12039 0.792769 0
M  V30 4065 H 623.989 -5.80061 -0.166416 0
M  V30 4066 H 624.268 -6.51287 2.75604 0
M  V30 4067 H 625.26 -7.01734 1.34462 0
M  V30 4068 H 623.426 -8.73674 2.38337 0
M  V30 4069 H 623.377 -4.68207 3.53221 0
M  V30 4070 H 624.059 0.0398818 -0.767965 0
M  V30 4071 H 624.096 -2.50995 -3.13503 0
M  V30 4072 H 624.197 -0.759148 -2.80716 0
M  V30 4073 P 625.296 -8.91 -4.1697e-12 0
M  V30 4074 O 625.516 -10.1726 -0.733694 0
M  V30 4075 O 626.086 -8.73148 1.23936 0
M  V30 4076 O 625.546 -7.66872 -0.971405 0
M  V30 4077 C 624.606 -7.42309 -2.04641 0
M  V30 4078 C 625.336 -6.86059 -3.24661 0
M  V30 4079 O 625.546 -5.42847 -3.03646 0
M  V30 4080 C 626.736 -7.41196 -3.50753 0
M  V30 4081 O 627.126 -7.27073 -4.86816 0
M  V30 4082 C 627.616 -6.5273 -2.63741 0
M  V30 4083 C 626.906 -5.1842 -2.73198 0
M  V30 4084 N 626.956 -4.38762 -1.4784 0
M  V30 4085 H 624.117 -8.36803 -2.32493 0
M  V30 4086 H 623.847 -6.70197 -1.71129 0
M  V30 4087 H 624.714 -7.03551 -4.13168 0
M  V30 4088 P 628.676 -7.20834 -5.23717 0
M  V30 4089 O 628.896 -7.80006 -6.57415 0
M  V30 4090 O 629.466 -7.79416 -4.13051 0
M  V30 4091 O 628.926 -5.63315 -5.29344 0
M  V30 4092 C 627.986 -4.80318 -6.01954 0
M  V30 4093 C 628.716 -3.64202 -6.65911 0
M  V30 4094 O 628.926 -2.60736 -5.64823 0
M  V30 4095 C 630.116 -3.93521 -7.19518 0
M  V30 4096 O 630.506 -3.02071 -8.21205 0
M  V30 4097 C 630.996 -3.73047 -5.97036 0
M  V30 4098 C 630.286 -2.58828 -5.25741 0
M  V30 4099 N 630.336 -2.68068 -3.77503 0
M  V30 4100 C 630.256 -3.80474 -2.99159 0
M  V30 4101 N 630.326 -3.55622 -1.71925 0
M  V30 4102 C 630.476 -2.1832 -1.65733 0
M  V30 4103 C 630.606 -1.28842 -0.572777 0
M  V30 4104 N 630.616 -1.66875 0.70098 0
M  V30 4105 N 630.726 0.016788 -0.859836 0
M  V30 4106 C 630.716 0.398145 -2.13316 0
M  V30 4107 N 630.596 -0.328224 -3.22333 0
M  V30 4108 C 630.476 -1.62992 -2.90383 0
M  V30 4109 H 627.498 -5.40394 -6.8003 0
M  V30 4110 H 627.226 -4.41741 -5.32532 0
M  V30 4111 H 628.094 -3.26371 -7.47889 0
M  V30 4112 H 630.749 -1.64007 -5.56746 0
M  V30 4113 H 631.029 -4.63439 -5.3432 0
M  V30 4114 H 632.02 -3.44776 -6.25925 0
M  V30 4115 H 630.186 -4.96707 -7.57347 0
M  V30 4116 H 630.145 -4.8089 -3.39924 0
M  V30 4117 H 630.526 -2.66547 0.941919 0
M  V30 4118 H 630.715 -0.965341 1.44766 0
M  V30 4119 H 630.823 1.46427 -2.29697 0
M  V30 4120 P 632.056 -2.75334 -8.47391 0
M  V30 4121 O 632.276 -2.44571 -9.90142 0
M  V30 4122 O 632.846 -3.87688 -7.92115 0
M  V30 4123 O 632.306 -1.4459 -7.59357 0
M  V30 4124 C 631.366 -0.347608 -7.69215 0
M  V30 4125 C 632.096 0.96767 -7.52806 0
M  V30 4126 O 632.306 1.21036 -6.1011 0
M  V30 4127 C 633.496 1.04544 -8.13308 0
M  V30 4128 O 633.886 2.38311 -8.41922 0
M  V30 4129 C 634.376 0.491279 -7.02284 0
M  V30 4130 C 633.666 0.996264 -5.77469 0
M  V30 4131 N 633.716 0.0501916 -4.62973 0
M  V30 4132 H 630.877 -0.374722 -8.67691 0
M  V30 4133 H 630.607 -0.443485 -6.90277 0
M  V30 4134 H 631.474 1.75537 -7.96793 0
M  V30 4135 P 635.436 2.75334 -8.47391 0
M  V30 4136 O 635.656 3.84128 -9.44797 0
M  V30 4137 O 636.226 1.51947 -8.68712 0
M  V30 4138 O 635.686 3.29363 -6.99321 0
M  V30 4139 C 634.746 4.24011 -6.4274 0
M  V30 4140 C 635.476 5.20775 -5.52155 0
M  V30 4141 O 635.686 4.56534 -4.22446 0
M  V30 4142 C 636.876 5.62629 -5.96531 0
M  V30 4143 O 637.266 6.87667 -5.41053 0
M  V30 4144 C 637.756 4.52537 -5.39283 0
M  V30 4145 C 637.046 4.20027 -4.08623 0
M  V30 4146 N 637.096 2.76189 -3.71603 0
M  V30 4147 H 634.257 4.797 -7.24003 0
M  V30 4148 H 633.987 3.69856 -5.84513 0
M  V30 4149 H 634.854 6.10356 -5.41441 0
M  V30 4150 P 638.816 7.20834 -5.23717 0
M  V30 4151 O 639.036 8.66104 -5.38572 0
M  V30 4152 O 639.606 6.33544 -6.1349 0
M  V30 4153 O 639.066 6.7751 -3.72168 0
M  V30 4154 C 638.126 7.20825 -2.7076 0
M  V30 4155 C 638.856 7.45864 -1.40599 0
M  V30 4156 O 639.066 6.17651 -0.734225 0
M  V30 4157 C 640.256 8.05808 -1.51899 0
M  V30 4158 O 640.646 8.74358 -0.335205 0
M  V30 4159 C 641.136 6.83093 -1.70294 0
M  V30 4160 C 640.426 5.79992 -0.836974 0
M  V30 4161 N 640.476 4.41864 -1.38293 0
M  V30 4162 C 640.396 3.99538 -2.69438 0
M  V30 4163 N 640.476 2.69909 -2.84277 0
M  V30 4164 C 640.616 2.21719 -1.5408 0
M  V30 4165 C 640.746 0.891712 -1.06628 0
M  V30 4166 O 640.766 -0.161298 -1.70137 0
M  V30 4167 N 640.866 0.856846 0.334985 0
M  V30 4168 C 640.866 1.9641 1.15789 0
M  V30 4169 N 640.996 1.72708 2.46522 0
M  V30 4170 N 640.736 3.21165 0.713741 0
M  V30 4171 C 640.616 3.26797 -0.639748 0
M  V30 4172 H 637.637 8.13644 -3.0377 0
M  V30 4173 H 637.367 6.42788 -2.55485 0
M  V30 4174 H 638.234 8.12039 -0.792769 0
M  V30 4175 H 640.889 5.80061 0.166416 0
M  V30 4176 H 641.168 6.51287 -2.75604 0
M  V30 4177 H 642.16 7.01734 -1.34462 0
M  V30 4178 H 640.326 8.73674 -2.38337 0
M  V30 4179 H 640.277 4.68207 -3.53221 0
M  V30 4180 H 640.959 -0.0398818 0.767965 0
M  V30 4181 H 640.996 2.50995 3.13503 0
M  V30 4182 H 641.097 0.759148 2.80716 0
M  V30 4183 P 642.196 8.91 4.32688e-12 0
M  V30 4184 O 642.416 10.1726 0.733694 0
M  V30 4185 O 642.986 8.73148 -1.23936 0
M  V30 4186 O 642.446 7.66872 0.971405 0
M  V30 4187 C 641.506 7.42309 2.04641 0
M  V30 4188 C 642.236 6.86059 3.24661 0
M  V30 4189 O 642.446 5.42847 3.03646 0
M  V30 4190 C 643.636 7.41196 3.50753 0
M  V30 4191 O 644.026 7.27073 4.86816 0
M  V30 4192 C 644.516 6.5273 2.63741 0
M  V30 4193 C 643.806 5.1842 2.73198 0
M  V30 4194 N 643.856 4.38762 1.4784 0
M  V30 4195 H 641.017 8.36803 2.32493 0
M  V30 4196 H 640.747 6.70197 1.71129 0
M  V30 4197 H 641.614 7.03551 4.13168 0
M  V30 4198 P 645.576 7.20834 5.23717 0
M  V30 4199 O 645.796 7.80006 6.57415 0
M  V30 4200 O 646.366 7.79416 4.13051 0
M  V30 4201 O 645.826 5.63315 5.29344 0
M  V30 4202 C 644.886 4.80318 6.01954 0
M  V30 4203 C 645.616 3.64202 6.65911 0
M  V30 4204 O 645.826 2.60736 5.64823 0
M  V30 4205 C 647.016 3.93521 7.19518 0
M  V30 4206 O 647.406 3.02071 8.21205 0
M  V30 4207 C 647.896 3.73047 5.97036 0
M  V30 4208 C 647.186 2.58828 5.25741 0
M  V30 4209 N 647.236 2.68068 3.77503 0
M  V30 4210 H 644.398 5.40394 6.8003 0
M  V30 4211 H 644.126 4.41741 5.32532 0
M  V30 4212 H 644.994 3.26371 7.47889 0
M  V30 4213 H 647.649 1.64007 5.56746 0
M  V30 4214 H 647.929 4.63439 5.3432 0
M  V30 4215 H 648.92 3.44776 6.25925 0
M  V30 4216 H 647.086 4.96707 7.57347 0
M  V30 4217 P 648.956 2.75334 8.47391 0
M  V30 4218 O 649.176 2.44571 9.90142 0
M  V30 4219 O 649.746 3.87688 7.92115 0
M  V30 4220 O 649.206 1.4459 7.59357 0
M  V30 4221 C 648.266 0.347608 7.69215 0
M  V30 4222 C 648.996 -0.96767 7.52806 0
M  V30 4223 O 649.206 -1.21036 6.1011 0
M  V30 4224 C 650.396 -1.04544 8.13308 0
M  V30 4225 O 650.786 -2.38311 8.41922 0
M  V30 4226 C 651.276 -0.491279 7.02284 0
M  V30 4227 C 650.566 -0.996264 5.77469 0
M  V30 4228 N 650.616 -0.0501916 4.62973 0
M  V30 4229 C 650.536 1.32786 4.63244 0
M  V30 4230 N 650.616 1.86957 3.44545 0
M  V30 4231 C 650.756 0.780241 2.58481 0
M  V30 4232 C 650.886 0.738536 1.17757 0
M  V30 4233 O 650.906 1.66794 0.372349 0
M  V30 4234 N 651.006 -0.58337 0.711393 0
M  V30 4235 C 651.006 -1.70816 1.51017 0
M  V30 4236 N 651.136 -2.87826 0.880757 0
M  V30 4237 N 650.876 -1.67126 2.8339 0
M  V30 4238 C 650.756 -0.401421 3.30572 0
M  V30 4239 H 647.777 0.374722 8.67691 0
M  V30 4240 H 647.507 0.443485 6.90277 0
M  V30 4241 H 648.374 -1.75537 7.96793 0
M  V30 4242 H 651.029 -1.95076 5.46529 0
M  V30 4243 H 651.308 0.608565 7.04577 0
M  V30 4244 H 652.3 -0.889672 7.08939 0
M  V30 4245 H 650.466 -0.43308 9.04564 0
M  V30 4246 H 650.417 1.91249 5.54442 0
M  V30 4247 H 651.099 -0.718054 -0.275244 0
M  V30 4248 H 651.136 -3.75721 1.41832 0
M  V30 4249 H 651.237 -2.90436 -0.145468 0
M  V30 4250 P 652.336 -2.75334 8.47391 0
M  V30 4251 O 652.556 -3.84128 9.44797 0
M  V30 4252 O 653.126 -1.51947 8.68712 0
M  V30 4253 O 652.586 -3.29363 6.99321 0
M  V30 4254 C 651.646 -4.24011 6.4274 0
M  V30 4255 C 652.376 -5.20775 5.52155 0
M  V30 4256 O 652.586 -4.56534 4.22446 0
M  V30 4257 C 653.776 -5.62629 5.96531 0
M  V30 4258 O 654.166 -6.87667 5.41053 0
M  V30 4259 C 654.656 -4.52537 5.39283 0
M  V30 4260 C 653.946 -4.20027 4.08623 0
M  V30 4261 N 653.996 -2.76189 3.71603 0
M  V30 4262 C 653.916 -1.64862 4.52822 0
M  V30 4263 N 653.996 -0.512671 3.88633 0
M  V30 4264 C 654.136 -0.888083 2.54977 0
M  V30 4265 C 654.266 -0.094668 1.38677 0
M  V30 4266 O 654.286 1.13053 1.28163 0
M  V30 4267 N 654.386 -0.890102 0.232633 0
M  V30 4268 C 654.386 -2.26958 0.21772 0
M  V30 4269 N 654.516 -2.84626 -0.97925 0
M  V30 4270 N 654.256 -3.0178 1.31033 0
M  V30 4271 C 654.136 -2.26781 2.43843 0
M  V30 4272 H 651.157 -4.797 7.24003 0
M  V30 4273 H 650.887 -3.69856 5.84513 0
M  V30 4274 H 651.754 -6.10356 5.41441 0
M  V30 4275 H 654.409 -4.79061 3.27488 0
M  V30 4276 H 654.688 -3.64906 6.05785 0
M  V30 4277 H 655.68 -4.8868 5.2125 0
M  V30 4278 H 653.846 -5.66726 7.06352 0
M  V30 4279 H 653.797 -1.71169 5.60966 0
M  V30 4280 H 654.479 -0.419134 -0.644739 0
M  V30 4281 H 654.516 -3.87332 -1.06098 0
M  V30 4282 H 654.617 -2.26417 -1.82483 0
M  V30 4283 P 655.716 -7.20834 5.23717 0
M  V30 4284 O 655.936 -8.66274 5.38678 0
M  V30 4285 O 656.506 -6.33687 6.13629 0
M  V30 4286 O 655.966 -6.7751 3.72168 0
M  V30 4287 C 655.026 -7.20919 2.70795 0
M  V30 4288 C 655.756 -7.45864 1.40599 0
M  V30 4289 O 655.966 -6.17751 0.734343 0
M  V30 4290 C 657.156 -8.05906 1.51917 0
M  V30 4291 O 657.546 -8.74358 0.335205 0
M  V30 4292 C 658.036 -6.83093 1.70294 0
M  V30 4293 C 657.326 -5.79992 0.836974 0
M  V30 4294 N 657.376 -4.41864 1.38293 0
M  V30 4295 H 654.538 -8.13738 3.03804 0
M  V30 4296 H 654.266 -6.42974 2.55559 0
M  V30 4297 H 655.134 -8.12139 0.792866 0
M  V30 4298 H 657.789 -5.80178 -0.160643 0
M  V30 4299 H 658.069 -6.51379 2.75643 0
M  V30 4300 H 659.06 -7.01832 1.3448 0
M  V30 4301 H 657.226 -8.73771 2.38364 0
M  V30 4302 P 659.096 -8.91 -4.48406e-12 0
M  V30 4303 O 659.316 -10.1726 -0.733694 0
M  V30 4304 O 659.886 -8.73148 1.23936 0
M  V30 4305 O 659.346 -7.66872 -0.971405 0
M  V30 4306 C 658.406 -7.42309 -2.04641 0
M  V30 4307 C 659.136 -6.86059 -3.24661 0
M  V30 4308 O 659.346 -5.42847 -3.03646 0
M  V30 4309 C 660.536 -7.41196 -3.50753 0
M  V30 4310 O 660.926 -7.27073 -4.86816 0
M  V30 4311 C 661.416 -6.5273 -2.63741 0
M  V30 4312 C 660.706 -5.1842 -2.73198 0
M  V30 4313 N 660.756 -4.38762 -1.4784 0
M  V30 4314 H 657.917 -8.36803 -2.32493 0
M  V30 4315 H 657.647 -6.70197 -1.71129 0
M  V30 4316 H 658.514 -7.03551 -4.13168 0
M  V30 4317 P 662.476 -7.20834 -5.23717 0
M  V30 4318 O 662.696 -7.79853 -6.57286 0
M  V30 4319 O 663.266 -7.79239 -4.12957 0
M  V30 4320 O 662.726 -5.63315 -5.29344 0
M  V30 4321 C 661.786 -4.80255 -6.01876 0
M  V30 4322 C 662.516 -3.64202 -6.65911 0
M  V30 4323 O 662.726 -2.60694 -5.64732 0
M  V30 4324 C 663.916 -3.93473 -7.1943 0
M  V30 4325 O 664.306 -3.02071 -8.21205 0
M  V30 4326 C 664.796 -3.73047 -5.97036 0
M  V30 4327 C 664.086 -2.58828 -5.25741 0
M  V30 4328 N 664.136 -2.68068 -3.77503 0
M  V30 4329 H 661.297 -5.40332 -6.79951 0
M  V30 4330 H 661.027 -4.41613 -5.32378 0
M  V30 4331 H 661.894 -3.26331 -7.47797 0
M  V30 4332 P 665.856 -2.75334 -8.47391 0
M  V30 4333 O 666.076 -2.44619 -9.90336 0
M  V30 4334 O 666.646 -3.87776 -7.92294 0
M  V30 4335 O 666.106 -1.4459 -7.59357 0
M  V30 4336 C 665.166 -0.347653 -7.69315 0
M  V30 4337 C 665.896 0.96767 -7.52806 0
M  V30 4338 O 666.106 1.21055 -6.10208 0
M  V30 4339 C 667.296 1.04557 -8.13408 0
M  V30 4340 O 667.686 2.38311 -8.41922 0
M  V30 4341 C 668.176 0.491279 -7.02284 0
M  V30 4342 C 667.466 0.996264 -5.77469 0
M  V30 4343 N 667.516 0.0501916 -4.62973 0
M  V30 4344 H 664.678 -0.374765 -8.67791 0
M  V30 4345 H 664.406 -0.443613 -6.90476 0
M  V30 4346 H 665.274 1.75559 -7.96891 0
M  V30 4347 H 667.929 1.94563 -5.46818 0
M  V30 4348 H 668.209 -0.608651 -7.04676 0
M  V30 4349 H 669.2 0.889796 -7.09039 0
M  V30 4350 H 667.366 0.433128 -9.04664 0
M  V30 4351 P 669.236 2.75334 -8.47391 0
M  V30 4352 O 669.456 3.84204 -9.44982 0
M  V30 4353 O 670.026 1.51982 -8.68909 0
M  V30 4354 O 669.486 3.29363 -6.99321 0
M  V30 4355 C 668.546 4.24066 -6.42823 0
M  V30 4356 C 669.276 5.20775 -5.52155 0
M  V30 4357 O 669.486 4.56607 -4.22514 0
M  V30 4358 C 670.676 5.62697 -5.96604 0
M  V30 4359 O 671.066 6.87667 -5.41053 0
M  V30 4360 C 671.556 4.52537 -5.39283 0
M  V30 4361 C 670.846 4.20027 -4.08623 0
M  V30 4362 N 670.896 2.76189 -3.71603 0
M  V30 4363 H 668.058 4.79756 -7.24086 0
M  V30 4364 H 667.786 3.69963 -5.84682 0
M  V30 4365 H 668.654 6.10431 -5.41508 0
M  V30 4366 H 671.309 4.78816 -3.28024 0
M  V30 4367 H 671.589 3.64957 -6.05871 0
M  V30 4368 H 672.58 4.88748 -5.21323 0
M  V30 4369 H 670.746 5.66789 -7.0643 0
M  V30 4370 P 672.616 7.20834 -5.23717 0
M  V30 4371 O 672.836 8.66104 -5.38572 0
M  V30 4372 O 673.406 6.33544 -6.1349 0
M  V30 4373 O 672.866 6.7751 -3.72168 0
M  V30 4374 C 671.926 7.20825 -2.7076 0
M  V30 4375 C 672.656 7.45864 -1.40599 0
M  V30 4376 O 672.866 6.17651 -0.734225 0
M  V30 4377 C 674.056 8.05808 -1.51899 0
M  V30 4378 O 674.446 8.74358 -0.335205 0
M  V30 4379 C 674.936 6.83093 -1.70294 0
M  V30 4380 C 674.226 5.79992 -0.836974 0
M  V30 4381 N 674.276 4.41864 -1.38293 0
M  V30 4382 C 674.196 3.99538 -2.69438 0
M  V30 4383 N 674.276 2.69909 -2.84277 0
M  V30 4384 C 674.416 2.21719 -1.5408 0
M  V30 4385 C 674.546 0.891712 -1.06628 0
M  V30 4386 N 674.666 0.856846 0.334985 0
M  V30 4387 C 674.666 1.9641 1.15789 0
M  V30 4388 N 674.796 1.72708 2.46522 0
M  V30 4389 N 674.536 3.21165 0.713741 0
M  V30 4390 C 674.416 3.26797 -0.639748 0
M  V30 4391 H 671.437 8.13644 -3.0377 0
M  V30 4392 H 671.167 6.42788 -2.55485 0
M  V30 4393 H 672.034 8.12039 -0.792769 0
M  V30 4394 P 675.996 8.91 4.64125e-12 0
M  V30 4395 O 676.216 10.1726 0.733694 0
M  V30 4396 O 676.786 8.73148 -1.23936 0
M  V30 4397 O 676.246 7.66872 0.971405 0
M  V30 4398 C 675.306 7.42309 2.04641 0
M  V30 4399 C 676.036 6.86059 3.24661 0
M  V30 4400 O 676.246 5.42847 3.03646 0
M  V30 4401 C 677.436 7.41196 3.50753 0
M  V30 4402 O 677.826 7.27073 4.86816 0
M  V30 4403 C 678.316 6.5273 2.63741 0
M  V30 4404 C 677.606 5.1842 2.73198 0
M  V30 4405 N 677.656 4.38762 1.4784 0
M  V30 4406 C 677.576 4.81605 0.168631 0
M  V30 4407 N 677.656 3.85454 -0.713363 0
M  V30 4408 C 677.796 2.6994 0.0566958 0
M  V30 4409 C 677.926 1.34815 -0.338502 0
M  V30 4410 O 677.946 0.869548 -1.47125 0
M  V30 4411 N 678.046 0.496304 0.77465 0
M  V30 4412 C 678.046 0.908403 2.09122 0
M  V30 4413 N 678.176 -0.0517805 3.00955 0
M  V30 4414 N 677.916 2.17875 2.46519 0
M  V30 4415 C 677.796 3.01988 1.4033 0
M  V30 4416 H 674.817 8.36803 2.32493 0
M  V30 4417 H 674.547 6.70197 1.71129 0
M  V30 4418 H 675.414 7.03551 4.13168 0
M  V30 4419 H 678.069 4.59498 3.54415 0
M  V30 4420 H 678.348 6.88898 1.59848 0
M  V30 4421 H 679.34 6.46749 3.03687 0
M  V30 4422 H 677.506 8.46908 3.20714 0
M  V30 4423 H 677.457 5.86405 -0.105564 0
M  V30 4424 H 678.139 -0.483664 0.597855 0
M  V30 4425 H 678.176 0.187865 4.0116 0
M  V30 4426 H 678.277 -1.03585 2.71726 0
M  V30 4427 P 679.376 7.20834 5.23717 0
M  V30 4428 O 679.596 7.79853 6.57286 0
M  V30 4429 O 680.166 7.79239 4.12957 0
M  V30 4430 O 679.626 5.63315 5.29344 0
M  V30 4431 C 678.686 4.80255 6.01876 0
M  V30 4432 C 679.416 3.64202 6.65911 0
M  V30 4433 O 679.626 2.60694 5.64732 0
M  V30 4434 C 680.816 3.93473 7.1943 0
M  V30 4435 O 681.206 3.02071 8.21205 0
M  V30 4436 C 681.696 3.73047 5.97036 0
M  V30 4437 C 680.986 2.58828 5.25741 0
M  V30 4438 N 681.036 2.68068 3.77503 0
M  V30 4439 H 678.197 5.40332 6.79951 0
M  V30 4440 H 677.927 4.41613 5.32378 0
M  V30 4441 H 678.794 3.26331 7.47797 0
M  V30 4442 P 682.756 2.75334 8.47391 0
M  V30 4443 O 682.976 2.44571 9.90142 0
M  V30 4444 O 683.546 3.87688 7.92115 0
M  V30 4445 O 683.006 1.4459 7.59357 0
M  V30 4446 C 682.066 0.347608 7.69215 0
M  V30 4447 C 682.796 -0.96767 7.52806 0
M  V30 4448 O 683.006 -1.21036 6.1011 0
M  V30 4449 C 684.196 -1.04544 8.13308 0
M  V30 4450 O 684.586 -2.38311 8.41922 0
M  V30 4451 C 685.076 -0.491279 7.02284 0
M  V30 4452 C 684.366 -0.996264 5.77469 0
M  V30 4453 N 684.416 -0.0501916 4.62973 0
M  V30 4454 H 681.577 0.374722 8.67691 0
M  V30 4455 H 681.307 0.443485 6.90277 0
M  V30 4456 H 682.174 -1.75537 7.96793 0
M  V30 4457 P 686.136 -2.75334 8.47391 0
M  V30 4458 O 686.356 -3.84128 9.44797 0
M  V30 4459 O 686.926 -1.51947 8.68712 0
M  V30 4460 O 686.386 -3.29363 6.99321 0
M  V30 4461 C 685.446 -4.24011 6.4274 0
M  V30 4462 C 686.176 -5.20775 5.52155 0
M  V30 4463 O 686.386 -4.56534 4.22446 0
M  V30 4464 C 687.576 -5.62629 5.96531 0
M  V30 4465 O 687.966 -6.87667 5.41053 0
M  V30 4466 C 688.456 -4.52537 5.39283 0
M  V30 4467 C 687.746 -4.20027 4.08623 0
M  V30 4468 N 687.796 -2.76189 3.71603 0
M  V30 4469 H 684.957 -4.797 7.24003 0
M  V30 4470 H 684.687 -3.69856 5.84513 0
M  V30 4471 H 685.554 -6.10356 5.41441 0
M  V30 4472 P 689.516 -7.20834 5.23717 0
M  V30 4473 O 689.736 -8.66104 5.38572 0
M  V30 4474 O 690.306 -6.33544 6.1349 0
M  V30 4475 O 689.766 -6.7751 3.72168 0
M  V30 4476 C 688.826 -7.20825 2.7076 0
M  V30 4477 C 689.556 -7.45864 1.40599 0
M  V30 4478 O 689.766 -6.17651 0.734225 0
M  V30 4479 C 690.956 -8.05808 1.51899 0
M  V30 4480 O 691.346 -8.74358 0.335205 0
M  V30 4481 C 691.836 -6.83093 1.70294 0
M  V30 4482 C 691.126 -5.79992 0.836974 0
M  V30 4483 N 691.176 -4.41864 1.38293 0
M  V30 4484 C 691.096 -3.99538 2.69438 0
M  V30 4485 N 691.176 -2.69909 2.84277 0
M  V30 4486 C 691.316 -2.21719 1.5408 0
M  V30 4487 C 691.446 -0.891712 1.06628 0
M  V30 4488 N 691.566 -0.856846 -0.334985 0
M  V30 4489 C 691.566 -1.9641 -1.15789 0
M  V30 4490 N 691.696 -1.72708 -2.46522 0
M  V30 4491 N 691.436 -3.21165 -0.713741 0
M  V30 4492 C 691.316 -3.26797 0.639748 0
M  V30 4493 H 688.337 -8.13644 3.0377 0
M  V30 4494 H 688.067 -6.42788 2.55485 0
M  V30 4495 H 688.934 -8.12039 0.792769 0
M  V30 4496 P 692.896 -8.91 -4.67181e-12 0
M  V30 4497 O 693.116 -10.1746 -0.733838 0
M  V30 4498 O 693.686 -8.73346 1.23964 0
M  V30 4499 O 693.146 -7.66872 -0.971405 0
M  V30 4500 C 692.206 -7.42405 -2.04668 0
M  V30 4501 C 692.936 -6.86059 -3.24661 0
M  V30 4502 O 693.146 -5.42934 -3.03695 0
M  V30 4503 C 694.336 -7.41287 -3.50796 0
M  V30 4504 O 694.726 -7.27073 -4.86816 0
M  V30 4505 C 695.216 -6.5273 -2.63741 0
M  V30 4506 C 694.506 -5.1842 -2.73198 0
M  V30 4507 N 694.556 -4.38762 -1.4784 0
M  V30 4508 C 694.476 -4.83651 -0.183876 0
M  V30 4509 N 694.546 -3.88759 0.699393 0
M  V30 4510 C 694.696 -2.7404 -0.0575568 0
M  V30 4511 C 694.826 -1.37902 0.293928 0
M  V30 4512 N 694.836 -0.938021 1.54797 0
M  V30 4513 N 694.946 -0.491817 -0.70549 0
M  V30 4514 C 694.936 -0.931735 -1.95979 0
M  V30 4515 N 694.816 -2.16017 -2.41481 0
M  V30 4516 C 694.696 -3.02547 -1.39121 0
M  V30 4517 H 691.718 -8.36899 -2.3252 0
M  V30 4518 H 691.446 -6.70391 -1.71179 0
M  V30 4519 H 692.314 -7.03638 -4.13219 0
M  V30 4520 H 694.969 -4.59931 -3.54016 0
M  V30 4521 H 695.249 -6.88995 -1.59871 0
M  V30 4522 H 696.24 -6.4684 -3.0373 0
M  V30 4523 H 694.406 -8.47002 -3.20749 0
M  V30 4524 H 694.365 -5.8885 0.0765548 0
M  V30 4525 H 694.746 -1.60276 2.32875 0
M  V30 4526 H 694.935 0.0699355 1.73859 0
M  V30 4527 H 695.043 -0.165507 -2.71897 0
M  V30 4528 P 696.276 -7.20834 -5.23717 0
M  V30 4529 O 696.496 -7.7993 -6.57351 0
M  V30 4530 O 697.066 -7.79328 -4.13004 0
M  V30 4531 O 696.526 -5.63315 -5.29344 0
M  V30 4532 C 695.586 -4.80193 -6.01798 0
M  V30 4533 C 696.316 -3.64202 -6.65911 0
M  V30 4534 O 696.526 -2.60694 -5.64732 0
M  V30 4535 C 697.716 -3.93473 -7.1943 0
M  V30 4536 O 698.106 -3.02071 -8.21205 0
M  V30 4537 C 698.596 -3.73047 -5.97036 0
M  V30 4538 C 697.886 -2.58828 -5.25741 0
M  V30 4539 N 697.936 -2.6801 -3.77422 0
M  V30 4540 C 698.086 -1.50443 -3.07133 0
M  V30 4541 O 698.176 -0.419406 -3.61576 0
M  V30 4542 N 698.126 -1.6403 -1.69677 0
M  V30 4543 C 698.036 -2.81206 -0.986255 0
M  V30 4544 O 698.086 -2.80892 0.249754 0
M  V30 4545 C 697.886 -3.99158 -1.80325 0
M  V30 4546 C 697.776 -5.29309 -1.06921 0
M  V30 4547 C 697.836 -3.89779 -3.1476 0
M  V30 4548 H 695.096 -5.40332 -6.79951 0
M  V30 4549 H 694.827 -4.41549 -5.32301 0
M  V30 4550 H 695.694 -3.26331 -7.47797 0
M  V30 4551 H 698.349 -1.6395 -5.56554 0
M  V30 4552 H 698.628 -4.63439 -5.3432 0
M  V30 4553 H 699.62 -3.44728 -6.25838 0
M  V30 4554 H 697.786 -4.96652 -7.57263 0
M  V30 4555 H 697.715 -4.80159 -3.74441 0
M  V30 4556 H 698.745 -5.81459 -1.09608 0
M  V30 4557 H 697.008 -5.9187 -1.54487 0
M  V30 4558 H 697.496 -5.10095 -0.0220288 0
M  V30 4559 H 698.232 -0.798962 -1.16664 0
M  V30 4560 P 699.656 -2.75334 -8.47391 0
M  V30 4561 O 699.876 -2.44571 -9.90142 0
M  V30 4562 O 700.446 -3.87688 -7.92115 0
M  V30 4563 O 699.906 -1.4459 -7.59357 0
M  V30 4564 C 698.966 -0.347608 -7.69215 0
M  V30 4565 C 699.696 0.96767 -7.52806 0
M  V30 4566 O 699.906 1.21036 -6.1011 0
M  V30 4567 C 701.096 1.04544 -8.13308 0
M  V30 4568 O 701.486 2.38311 -8.41922 0
M  V30 4569 C 701.976 0.491279 -7.02284 0
M  V30 4570 C 701.266 0.996264 -5.77469 0
M  V30 4571 N 701.316 0.0501916 -4.62973 0
M  V30 4572 H 698.477 -0.374722 -8.67691 0
M  V30 4573 H 698.207 -0.443485 -6.90277 0
M  V30 4574 H 699.074 1.75537 -7.96793 0
M  V30 4575 P 703.036 2.75334 -8.47391 0
M  V30 4576 O 703.256 3.84128 -9.44797 0
M  V30 4577 O 703.826 1.51947 -8.68712 0
M  V30 4578 O 703.286 3.29363 -6.99321 0
M  V30 4579 C 702.346 4.24011 -6.4274 0
M  V30 4580 C 703.076 5.20775 -5.52155 0
M  V30 4581 O 703.286 4.56534 -4.22446 0
M  V30 4582 C 704.476 5.62629 -5.96531 0
M  V30 4583 O 704.866 6.87667 -5.41053 0
M  V30 4584 C 705.356 4.52537 -5.39283 0
M  V30 4585 C 704.646 4.20027 -4.08623 0
M  V30 4586 N 704.696 2.76189 -3.71603 0
M  V30 4587 H 701.857 4.797 -7.24003 0
M  V30 4588 H 701.587 3.69856 -5.84513 0
M  V30 4589 H 702.454 6.10356 -5.41441 0
M  V30 4590 P 706.416 7.20834 -5.23717 0
M  V30 4591 O 706.636 8.66104 -5.38572 0
M  V30 4592 O 707.206 6.33544 -6.1349 0
M  V30 4593 O 706.666 6.7751 -3.72168 0
M  V30 4594 C 705.726 7.20825 -2.7076 0
M  V30 4595 C 706.456 7.45864 -1.40599 0
M  V30 4596 O 706.666 6.17651 -0.734225 0
M  V30 4597 C 707.856 8.05808 -1.51899 0
M  V30 4598 O 708.246 8.74358 -0.335205 0
M  V30 4599 C 708.736 6.83093 -1.70294 0
M  V30 4600 C 708.026 5.79992 -0.836974 0
M  V30 4601 N 708.076 4.41864 -1.38293 0
M  V30 4602 H 705.237 8.13644 -3.0377 0
M  V30 4603 H 704.967 6.42788 -2.55485 0
M  V30 4604 H 705.834 8.12039 -0.792769 0
M  V30 4605 P 709.796 8.91 4.82899e-12 0
M  V30 4606 O 710.016 10.1726 0.733694 0
M  V30 4607 O 710.586 8.73148 -1.23936 0
M  V30 4608 O 710.046 7.66872 0.971405 0
M  V30 4609 C 709.106 7.42309 2.04641 0
M  V30 4610 C 709.836 6.86059 3.24661 0
M  V30 4611 O 710.046 5.42847 3.03646 0
M  V30 4612 C 711.236 7.41196 3.50753 0
M  V30 4613 O 711.626 7.27073 4.86816 0
M  V30 4614 C 712.116 6.5273 2.63741 0
M  V30 4615 C 711.406 5.1842 2.73198 0
M  V30 4616 N 711.456 4.38762 1.4784 0
M  V30 4617 H 708.617 8.36803 2.32493 0
M  V30 4618 H 708.347 6.70197 1.71129 0
M  V30 4619 H 709.214 7.03551 4.13168 0
M  V30 4620 P 713.176 7.20834 5.23717 0
M  V30 4621 O 713.396 7.80006 6.57415 0
M  V30 4622 O 713.966 7.79416 4.13051 0
M  V30 4623 O 713.426 5.63315 5.29344 0
M  V30 4624 C 712.486 4.80318 6.01954 0
M  V30 4625 C 713.216 3.64202 6.65911 0
M  V30 4626 O 713.426 2.60736 5.64823 0
M  V30 4627 C 714.616 3.93521 7.19518 0
M  V30 4628 O 715.006 3.02071 8.21205 0
M  V30 4629 C 715.496 3.73047 5.97036 0
M  V30 4630 C 714.786 2.58828 5.25741 0
M  V30 4631 N 714.836 2.68068 3.77503 0
M  V30 4632 C 714.756 3.80474 2.99159 0
M  V30 4633 N 714.826 3.55622 1.71925 0
M  V30 4634 C 714.976 2.1832 1.65733 0
M  V30 4635 C 715.106 1.28842 0.572777 0
M  V30 4636 N 715.116 1.66875 -0.70098 0
M  V30 4637 N 715.226 -0.016788 0.859836 0
M  V30 4638 C 715.216 -0.398145 2.13316 0
M  V30 4639 N 715.096 0.328224 3.22333 0
M  V30 4640 C 714.976 1.62992 2.90383 0
M  V30 4641 H 711.998 5.40394 6.8003 0
M  V30 4642 H 711.726 4.41741 5.32532 0
M  V30 4643 H 712.594 3.26371 7.47889 0
M  V30 4644 H 715.249 1.64007 5.56746 0
M  V30 4645 H 715.529 4.63439 5.3432 0
M  V30 4646 H 716.52 3.44776 6.25925 0
M  V30 4647 H 714.686 4.96707 7.57347 0
M  V30 4648 H 714.645 4.8089 3.39924 0
M  V30 4649 H 715.026 2.66547 -0.941919 0
M  V30 4650 H 715.215 0.965341 -1.44766 0
M  V30 4651 H 715.323 -1.46427 2.29697 0
M  V30 4652 P 716.556 2.75334 8.47391 0
M  V30 4653 O 716.776 2.44571 9.90142 0
M  V30 4654 O 717.346 3.87688 7.92115 0
M  V30 4655 O 716.806 1.4459 7.59357 0
M  V30 4656 C 715.866 0.347608 7.69215 0
M  V30 4657 C 716.596 -0.96767 7.52806 0
M  V30 4658 O 716.806 -1.21036 6.1011 0
M  V30 4659 C 717.996 -1.04544 8.13308 0
M  V30 4660 O 718.386 -2.38311 8.41922 0
M  V30 4661 C 718.876 -0.491279 7.02284 0
M  V30 4662 C 718.166 -0.996264 5.77469 0
M  V30 4663 N 718.216 -0.0501916 4.62973 0
M  V30 4664 H 715.377 0.374722 8.67691 0
M  V30 4665 H 715.107 0.443485 6.90277 0
M  V30 4666 H 715.974 -1.75537 7.96793 0
M  V30 4667 P 719.936 -2.75334 8.47391 0
M  V30 4668 O 720.156 -3.84128 9.44797 0
M  V30 4669 O 720.726 -1.51947 8.68712 0
M  V30 4670 O 720.186 -3.29363 6.99321 0
M  V30 4671 C 719.246 -4.24011 6.4274 0
M  V30 4672 C 719.976 -5.20775 5.52155 0
M  V30 4673 O 720.186 -4.56534 4.22446 0
M  V30 4674 C 721.376 -5.62629 5.96531 0
M  V30 4675 O 721.766 -6.87667 5.41053 0
M  V30 4676 C 722.256 -4.52537 5.39283 0
M  V30 4677 C 721.546 -4.20027 4.08623 0
M  V30 4678 N 721.596 -2.76189 3.71603 0
M  V30 4679 H 718.757 -4.797 7.24003 0
M  V30 4680 H 718.487 -3.69856 5.84513 0
M  V30 4681 H 719.354 -6.10356 5.41441 0
M  V30 4682 P 723.316 -7.20834 5.23717 0
M  V30 4683 O 723.536 -8.66104 5.38572 0
M  V30 4684 O 724.106 -6.33544 6.1349 0
M  V30 4685 O 723.566 -6.7751 3.72168 0
M  V30 4686 C 722.626 -7.20825 2.7076 0
M  V30 4687 C 723.356 -7.45864 1.40599 0
M  V30 4688 O 723.566 -6.17651 0.734225 0
M  V30 4689 C 724.756 -8.05808 1.51899 0
M  V30 4690 O 725.146 -8.74358 0.335205 0
M  V30 4691 C 725.636 -6.83093 1.70294 0
M  V30 4692 C 724.926 -5.79992 0.836974 0
M  V30 4693 N 724.976 -4.41864 1.38293 0
M  V30 4694 H 722.137 -8.13644 3.0377 0
M  V30 4695 H 721.867 -6.42788 2.55485 0
M  V30 4696 H 722.734 -8.12039 0.792769 0
M  V30 4697 P 726.696 -8.91 -4.98617e-12 0
M  V30 4698 O 726.916 -10.1726 -0.733694 0
M  V30 4699 O 727.486 -8.73148 1.23936 0
M  V30 4700 O 726.946 -7.66872 -0.971405 0
M  V30 4701 C 726.006 -7.42309 -2.04641 0
M  V30 4702 C 726.736 -6.86059 -3.24661 0
M  V30 4703 O 726.946 -5.42847 -3.03646 0
M  V30 4704 C 728.136 -7.41196 -3.50753 0
M  V30 4705 O 728.526 -7.27073 -4.86816 0
M  V30 4706 C 729.016 -6.5273 -2.63741 0
M  V30 4707 C 728.306 -5.1842 -2.73198 0
M  V30 4708 N 728.356 -4.38762 -1.4784 0
M  V30 4709 H 725.517 -8.36803 -2.32493 0
M  V30 4710 H 725.247 -6.70197 -1.71129 0
M  V30 4711 H 726.114 -7.03551 -4.13168 0
M  V30 4712 P 730.076 -7.20834 -5.23717 0
M  V30 4713 O 730.296 -7.79853 -6.57286 0
M  V30 4714 O 730.866 -7.79239 -4.12957 0
M  V30 4715 O 730.326 -5.63315 -5.29344 0
M  V30 4716 C 729.386 -4.80255 -6.01876 0
M  V30 4717 C 730.116 -3.64202 -6.65911 0
M  V30 4718 O 730.326 -2.60694 -5.64732 0
M  V30 4719 C 731.516 -3.93473 -7.1943 0
M  V30 4720 O 731.906 -3.02071 -8.21205 0
M  V30 4721 C 732.396 -3.73047 -5.97036 0
M  V30 4722 C 731.686 -2.58828 -5.25741 0
M  V30 4723 N 731.736 -2.68068 -3.77503 0
M  V30 4724 H 728.897 -5.40332 -6.79951 0
M  V30 4725 H 728.627 -4.41613 -5.32378 0
M  V30 4726 H 729.494 -3.26331 -7.47797 0
M  V30 4727 P 733.456 -2.75334 -8.47391 0
M  V30 4728 O 733.676 -2.44571 -9.90142 0
M  V30 4729 O 734.246 -3.87688 -7.92115 0
M  V30 4730 O 733.706 -1.4459 -7.59357 0
M  V30 4731 C 732.766 -0.347608 -7.69215 0
M  V30 4732 C 733.496 0.96767 -7.52806 0
M  V30 4733 O 733.706 1.21036 -6.1011 0
M  V30 4734 C 734.896 1.04544 -8.13308 0
M  V30 4735 O 735.286 2.38311 -8.41922 0
M  V30 4736 C 735.776 0.491279 -7.02284 0
M  V30 4737 C 735.066 0.996264 -5.77469 0
M  V30 4738 N 735.116 0.0501916 -4.62973 0
M  V30 4739 H 732.277 -0.374722 -8.67691 0
M  V30 4740 H 732.007 -0.443485 -6.90277 0
M  V30 4741 H 732.874 1.75537 -7.96793 0
M  V30 4742 P 736.836 2.75334 -8.47391 0
M  V30 4743 O 737.056 3.84128 -9.44797 0
M  V30 4744 O 737.626 1.51947 -8.68712 0
M  V30 4745 O 737.086 3.29363 -6.99321 0
M  V30 4746 C 736.146 4.24011 -6.4274 0
M  V30 4747 C 736.876 5.20775 -5.52155 0
M  V30 4748 O 737.086 4.56534 -4.22446 0
M  V30 4749 C 738.276 5.62629 -5.96531 0
M  V30 4750 O 738.666 6.87667 -5.41053 0
M  V30 4751 C 739.156 4.52537 -5.39283 0
M  V30 4752 C 738.446 4.20027 -4.08623 0
M  V30 4753 N 738.496 2.76189 -3.71603 0
M  V30 4754 H 735.657 4.797 -7.24003 0
M  V30 4755 H 735.387 3.69856 -5.84513 0
M  V30 4756 H 736.254 6.10356 -5.41441 0
M  V30 4757 P 740.216 7.20834 -5.23717 0
M  V30 4758 O 740.436 8.66104 -5.38572 0
M  V30 4759 O 741.006 6.33544 -6.1349 0
M  V30 4760 O 740.466 6.7751 -3.72168 0
M  V30 4761 C 739.526 7.20825 -2.7076 0
M  V30 4762 C 740.256 7.45864 -1.40599 0
M  V30 4763 O 740.466 6.17651 -0.734225 0
M  V30 4764 C 741.656 8.05808 -1.51899 0
M  V30 4765 O 742.046 8.74358 -0.335205 0
M  V30 4766 C 742.536 6.83093 -1.70294 0
M  V30 4767 C 741.826 5.79992 -0.836974 0
M  V30 4768 N 741.876 4.41864 -1.38293 0
M  V30 4769 H 739.037 8.13644 -3.0377 0
M  V30 4770 H 738.767 6.42788 -2.55485 0
M  V30 4771 H 739.634 8.12039 -0.792769 0
M  V30 4772 P 743.596 8.91 5.14336e-12 0
M  V30 4773 O 743.816 10.1726 0.733694 0
M  V30 4774 O 744.386 8.73148 -1.23936 0
M  V30 4775 O 743.846 7.66872 0.971405 0
M  V30 4776 C 742.906 7.42309 2.04641 0
M  V30 4777 C 743.636 6.86059 3.24661 0
M  V30 4778 O 743.846 5.42847 3.03646 0
M  V30 4779 C 745.036 7.41196 3.50753 0
M  V30 4780 O 745.426 7.27073 4.86816 0
M  V30 4781 C 745.916 6.5273 2.63741 0
M  V30 4782 C 745.206 5.1842 2.73198 0
M  V30 4783 N 745.256 4.38762 1.4784 0
M  V30 4784 H 742.417 8.36803 2.32493 0
M  V30 4785 H 742.147 6.70197 1.71129 0
M  V30 4786 H 743.014 7.03551 4.13168 0
M  V30 4787 P 746.976 7.20834 5.23717 0
M  V30 4788 O 747.196 7.79853 6.57286 0
M  V30 4789 O 747.766 7.79239 4.12957 0
M  V30 4790 O 747.226 5.63315 5.29344 0
M  V30 4791 C 746.286 4.80255 6.01876 0
M  V30 4792 C 747.016 3.64202 6.65911 0
M  V30 4793 O 747.226 2.60694 5.64732 0
M  V30 4794 C 748.416 3.93473 7.1943 0
M  V30 4795 O 748.806 3.02071 8.21205 0
M  V30 4796 C 749.296 3.73047 5.97036 0
M  V30 4797 C 748.586 2.58828 5.25741 0
M  V30 4798 N 748.636 2.68068 3.77503 0
M  V30 4799 C 748.556 3.79715 2.96723 0
M  V30 4800 N 748.636 3.5377 1.68852 0
M  V30 4801 C 748.776 2.15054 1.63254 0
M  V30 4802 C 748.906 1.28964 0.518571 0
M  V30 4803 N 749.026 -0.0538097 0.918425 0
M  V30 4804 C 749.026 -0.494275 2.22578 0
M  V30 4805 N 749.156 -1.81086 2.40434 0
M  V30 4806 N 748.896 0.313645 3.27502 0
M  V30 4807 C 748.776 1.61829 2.91033 0
M  V30 4808 H 745.797 5.40332 6.79951 0
M  V30 4809 H 745.527 4.41613 5.32378 0
M  V30 4810 H 746.394 3.26331 7.47797 0
M  V30 4811 P 750.356 2.75334 8.47391 0
M  V30 4812 O 750.576 2.44571 9.90142 0
M  V30 4813 O 751.146 3.87688 7.92115 0
M  V30 4814 O 750.606 1.4459 7.59357 0
M  V30 4815 C 749.666 0.347608 7.69215 0
M  V30 4816 C 750.396 -0.96767 7.52806 0
M  V30 4817 O 750.606 -1.21036 6.1011 0
M  V30 4818 C 751.796 -1.04544 8.13308 0
M  V30 4819 O 752.186 -2.38311 8.41922 0
M  V30 4820 C 752.676 -0.491279 7.02284 0
M  V30 4821 C 751.966 -0.996264 5.77469 0
M  V30 4822 N 752.016 -0.0501916 4.62973 0
M  V30 4823 H 749.177 0.374722 8.67691 0
M  V30 4824 H 748.907 0.443485 6.90277 0
M  V30 4825 H 749.774 -1.75537 7.96793 0
M  V30 4826 P 753.736 -2.75334 8.47391 0
M  V30 4827 O 753.956 -3.84204 9.44982 0
M  V30 4828 O 754.526 -1.51982 8.68909 0
M  V30 4829 O 753.986 -3.29363 6.99321 0
M  V30 4830 C 753.046 -4.24066 6.42823 0
M  V30 4831 C 753.776 -5.20775 5.52155 0
M  V30 4832 O 753.986 -4.56607 4.22514 0
M  V30 4833 C 755.176 -5.62697 5.96604 0
M  V30 4834 O 755.566 -6.87667 5.41053 0
M  V30 4835 C 756.056 -4.52537 5.39283 0
M  V30 4836 C 755.346 -4.20027 4.08623 0
M  V30 4837 N 755.396 -2.76189 3.71603 0
M  V30 4838 H 752.558 -4.79756 7.24086 0
M  V30 4839 H 752.286 -3.69963 5.84682 0
M  V30 4840 H 753.154 -6.10431 5.41508 0
M  V30 4841 H 755.809 -4.78816 3.28024 0
M  V30 4842 H 756.089 -3.64957 6.05871 0
M  V30 4843 H 757.08 -4.88748 5.21323 0
M  V30 4844 H 755.246 -5.66789 7.0643 0
M  V30 4845 P 757.116 -7.20834 5.23717 0
M  V30 4846 O 757.336 -8.66104 5.38572 0
M  V30 4847 O 757.906 -6.33544 6.1349 0
M  V30 4848 O 757.366 -6.7751 3.72168 0
M  V30 4849 C 756.426 -7.20825 2.7076 0
M  V30 4850 C 757.156 -7.45864 1.40599 0
M  V30 4851 O 757.366 -6.17651 0.734225 0
M  V30 4852 C 758.556 -8.05808 1.51899 0
M  V30 4853 O 758.946 -8.74358 0.335205 0
M  V30 4854 C 759.436 -6.83093 1.70294 0
M  V30 4855 C 758.726 -5.79992 0.836974 0
M  V30 4856 N 758.776 -4.41864 1.38293 0
M  V30 4857 H 755.937 -8.13644 3.0377 0
M  V30 4858 H 755.667 -6.42788 2.55485 0
M  V30 4859 H 756.534 -8.12039 0.792769 0
M  V30 4860 P 760.496 -8.91 -5.30054e-12 0
M  V30 4861 O 760.716 -10.1726 -0.733694 0
M  V30 4862 O 761.286 -8.73148 1.23936 0
M  V30 4863 O 760.746 -7.66872 -0.971405 0
M  V30 4864 C 759.806 -7.42309 -2.04641 0
M  V30 4865 C 760.536 -6.86059 -3.24661 0
M  V30 4866 O 760.746 -5.42847 -3.03646 0
M  V30 4867 C 761.936 -7.41196 -3.50753 0
M  V30 4868 O 762.326 -7.27073 -4.86816 0
M  V30 4869 C 762.816 -6.5273 -2.63741 0
M  V30 4870 C 762.106 -5.1842 -2.73198 0
M  V30 4871 N 762.156 -4.38762 -1.4784 0
M  V30 4872 H 759.317 -8.36803 -2.32493 0
M  V30 4873 H 759.047 -6.70197 -1.71129 0
M  V30 4874 H 759.914 -7.03551 -4.13168 0
M  V30 4875 P 763.875 -7.20834 -5.23717 0
M  V30 4876 O 764.095 -7.79853 -6.57286 0
M  V30 4877 O 764.665 -7.79239 -4.12957 0
M  V30 4878 O 764.125 -5.63315 -5.29344 0
M  V30 4879 C 763.185 -4.80255 -6.01876 0
M  V30 4880 C 763.915 -3.64202 -6.65911 0
M  V30 4881 O 764.125 -2.60694 -5.64732 0
M  V30 4882 C 765.315 -3.93473 -7.1943 0
M  V30 4883 O 765.705 -3.02071 -8.21205 0
M  V30 4884 C 766.195 -3.73047 -5.97036 0
M  V30 4885 C 765.485 -2.58828 -5.25741 0
M  V30 4886 N 765.535 -2.68068 -3.77503 0
M  V30 4887 H 762.696 -5.40332 -6.79951 0
M  V30 4888 H 762.426 -4.41613 -5.32378 0
M  V30 4889 H 763.293 -3.26331 -7.47797 0
M  V30 4890 P 767.255 -2.75334 -8.47391 0
M  V30 4891 O 767.475 -2.44571 -9.90142 0
M  V30 4892 O 768.045 -3.87688 -7.92115 0
M  V30 4893 O 767.505 -1.4459 -7.59357 0
M  V30 4894 C 766.565 -0.347608 -7.69215 0
M  V30 4895 C 767.295 0.96767 -7.52806 0
M  V30 4896 O 767.505 1.21036 -6.1011 0
M  V30 4897 C 768.695 1.04544 -8.13308 0
M  V30 4898 O 769.085 2.38311 -8.41922 0
M  V30 4899 C 769.575 0.491279 -7.02284 0
M  V30 4900 C 768.865 0.996264 -5.77469 0
M  V30 4901 N 768.915 0.0501916 -4.62973 0
M  V30 4902 C 768.835 -1.32786 -4.63244 0
M  V30 4903 N 768.915 -1.86957 -3.44545 0
M  V30 4904 C 769.055 -0.780241 -2.58481 0
M  V30 4905 C 769.185 -0.738536 -1.17757 0
M  V30 4906 O 769.205 -1.66794 -0.372349 0
M  V30 4907 N 769.305 0.58337 -0.711393 0
M  V30 4908 C 769.305 1.70816 -1.51017 0
M  V30 4909 N 769.435 2.87826 -0.880757 0
M  V30 4910 N 769.175 1.67126 -2.8339 0
M  V30 4911 C 769.055 0.401421 -3.30572 0
M  V30 4912 H 766.076 -0.374722 -8.67691 0
M  V30 4913 H 765.806 -0.443485 -6.90277 0
M  V30 4914 H 766.673 1.75537 -7.96793 0
M  V30 4915 H 769.328 1.95076 -5.46529 0
M  V30 4916 H 769.607 -0.608565 -7.04577 0
M  V30 4917 H 770.599 0.889672 -7.08939 0
M  V30 4918 H 768.765 0.43308 -9.04564 0
M  V30 4919 H 768.716 -1.91249 -5.54442 0
M  V30 4920 H 769.398 0.718054 0.275244 0
M  V30 4921 H 769.435 3.75721 -1.41832 0
M  V30 4922 H 769.536 2.90436 0.145468 0
M  V30 4923 P 770.635 2.75334 -8.47391 0
M  V30 4924 O 770.855 3.84204 -9.44982 0
M  V30 4925 O 771.425 1.51982 -8.68909 0
M  V30 4926 O 770.885 3.29363 -6.99321 0
M  V30 4927 C 769.945 4.24066 -6.42823 0
M  V30 4928 C 770.675 5.20775 -5.52155 0
M  V30 4929 O 770.885 4.56607 -4.22514 0
M  V30 4930 C 772.075 5.62697 -5.96604 0
M  V30 4931 O 772.465 6.87667 -5.41053 0
M  V30 4932 C 772.955 4.52537 -5.39283 0
M  V30 4933 C 772.245 4.20027 -4.08623 0
M  V30 4934 N 772.295 2.76189 -3.71603 0
M  V30 4935 C 772.215 1.66944 -4.54297 0
M  V30 4936 N 772.285 0.536169 -3.91344 0
M  V30 4937 C 772.435 0.901569 -2.58849 0
M  V30 4938 C 772.565 0.146599 -1.40236 0
M  V30 4939 N 772.575 -1.18234 -1.37046 0
M  V30 4940 N 772.685 0.822941 -0.249738 0
M  V30 4941 C 772.675 2.15179 -0.280525 0
M  V30 4942 N 772.555 2.96414 -1.30822 0
M  V30 4943 C 772.435 2.25804 -2.44748 0
M  V30 4944 H 769.457 4.79756 -7.24086 0
M  V30 4945 H 769.185 3.69963 -5.84682 0
M  V30 4946 H 770.053 6.10431 -5.41508 0
M  V30 4947 H 772.708 4.78816 -3.28024 0
M  V30 4948 H 772.988 3.64957 -6.05871 0
M  V30 4949 H 773.979 4.88748 -5.21323 0
M  V30 4950 H 772.145 5.66789 -7.0643 0
M  V30 4951 H 772.104 1.74684 -5.62396 0
M  V30 4952 H 772.485 -1.71949 -2.24394 0
M  V30 4953 H 772.674 -1.67511 -0.470742 0
M  V30 4954 H 772.782 2.63704 0.6828 0
M  V30 4955 P 774.015 7.20834 -5.23717 0
M  V30 4956 O 774.235 8.66104 -5.38572 0
M  V30 4957 O 774.805 6.33544 -6.1349 0
M  V30 4958 O 774.265 6.7751 -3.72168 0
M  V30 4959 C 773.325 7.20825 -2.7076 0
M  V30 4960 C 774.055 7.45864 -1.40599 0
M  V30 4961 O 774.265 6.17651 -0.734225 0
M  V30 4962 C 775.455 8.05808 -1.51899 0
M  V30 4963 O 775.845 8.74358 -0.335205 0
M  V30 4964 C 776.335 6.83093 -1.70294 0
M  V30 4965 C 775.625 5.79992 -0.836974 0
M  V30 4966 N 775.675 4.41864 -1.38293 0
M  V30 4967 H 772.836 8.13644 -3.0377 0
M  V30 4968 H 772.566 6.42788 -2.55485 0
M  V30 4969 H 773.433 8.12039 -0.792769 0
M  V30 4970 P 777.395 8.91 5.45772e-12 0
M  V30 4971 O 777.615 10.1726 0.733694 0
M  V30 4972 O 778.185 8.73148 -1.23936 0
M  V30 4973 O 777.645 7.66872 0.971405 0
M  V30 4974 C 776.705 7.42309 2.04641 0
M  V30 4975 C 777.435 6.86059 3.24661 0
M  V30 4976 O 777.645 5.42847 3.03646 0
M  V30 4977 C 778.835 7.41196 3.50753 0
M  V30 4978 O 779.225 7.27073 4.86816 0
M  V30 4979 C 779.715 6.5273 2.63741 0
M  V30 4980 C 779.005 5.1842 2.73198 0
M  V30 4981 N 779.055 4.38762 1.4784 0
M  V30 4982 C 778.975 4.81605 0.168631 0
M  V30 4983 N 779.055 3.85454 -0.713363 0
M  V30 4984 C 779.195 2.6994 0.0566958 0
M  V30 4985 C 779.325 1.34815 -0.338502 0
M  V30 4986 O 779.345 0.869548 -1.47125 0
M  V30 4987 N 779.445 0.496304 0.77465 0
M  V30 4988 C 779.445 0.908403 2.09122 0
M  V30 4989 N 779.575 -0.0517805 3.00955 0
M  V30 4990 N 779.315 2.17875 2.46519 0
M  V30 4991 C 779.195 3.01988 1.4033 0
M  V30 4992 H 776.216 8.36803 2.32493 0
M  V30 4993 H 775.946 6.70197 1.71129 0
M  V30 4994 H 776.813 7.03551 4.13168 0
M  V30 4995 H 779.468 4.59498 3.54415 0
M  V30 4996 H 779.747 6.88898 1.59848 0
M  V30 4997 H 780.739 6.46749 3.03687 0
M  V30 4998 H 778.905 8.46908 3.20714 0
M  V30 4999 H 778.856 5.86405 -0.105564 0
M  V30 5000 H 779.538 -0.483664 0.597855 0
M  V30 5001 H 779.575 0.187865 4.0116 0
M  V30 5002 H 779.676 -1.03585 2.71726 0
M  V30 5003 P 780.775 7.20834 5.23717 0
M  V30 5004 O 780.995 7.79853 6.57286 0
M  V30 5005 O 781.565 7.79239 4.12957 0
M  V30 5006 O 781.025 5.63315 5.29344 0
M  V30 5007 C 780.085 4.80255 6.01876 0
M  V30 5008 C 780.815 3.64202 6.65911 0
M  V30 5009 O 781.025 2.60694 5.64732 0
M  V30 5010 C 782.215 3.93473 7.1943 0
M  V30 5011 O 782.605 3.02071 8.21205 0
M  V30 5012 C 783.095 3.73047 5.97036 0
M  V30 5013 C 782.385 2.58828 5.25741 0
M  V30 5014 N 782.435 2.68068 3.77503 0
M  V30 5015 C 782.355 3.79715 2.96723 0
M  V30 5016 N 782.435 3.5377 1.68852 0
M  V30 5017 C 782.575 2.15054 1.63254 0
M  V30 5018 C 782.705 1.28964 0.518571 0
M  V30 5019 N 782.825 -0.0538097 0.918425 0
M  V30 5020 C 782.825 -0.494275 2.22578 0
M  V30 5021 N 782.955 -1.81086 2.40434 0
M  V30 5022 N 782.695 0.313645 3.27502 0
M  V30 5023 C 782.575 1.61829 2.91033 0
M  V30 5024 H 779.596 5.40332 6.79951 0
M  V30 5025 H 779.326 4.41613 5.32378 0
M  V30 5026 H 780.193 3.26331 7.47797 0
M  V30 5027 P 784.155 2.75334 8.47391 0
M  V30 5028 O 784.375 2.44619 9.90336 0
M  V30 5029 O 784.945 3.87776 7.92294 0
M  V30 5030 O 784.405 1.4459 7.59357 0
M  V30 5031 C 783.465 0.347653 7.69315 0
M  V30 5032 C 784.195 -0.96767 7.52806 0
M  V30 5033 O 784.405 -1.21055 6.10208 0
M  V30 5034 C 785.595 -1.04557 8.13408 0
M  V30 5035 O 785.985 -2.38311 8.41922 0
M  V30 5036 C 786.475 -0.491279 7.02284 0
M  V30 5037 C 785.765 -0.996264 5.77469 0
M  V30 5038 N 785.815 -0.0501916 4.62973 0
M  V30 5039 C 785.735 1.31969 4.65661 0
M  V30 5040 N 785.805 1.86649 3.48119 0
M  V30 5041 C 785.955 0.792089 2.62406 0
M  V30 5042 C 786.085 0.705684 1.2207 0
M  V30 5043 N 786.095 1.76207 0.413762 0
M  V30 5044 N 786.205 -0.518981 0.685754 0
M  V30 5045 C 786.195 -1.57595 1.49174 0
M  V30 5046 N 786.075 -1.62909 2.80066 0
M  V30 5047 C 785.955 -0.388195 3.3073 0
M  V30 5048 H 782.977 0.374765 8.67791 0
M  V30 5049 H 782.705 0.443613 6.90476 0
M  V30 5050 H 783.573 -1.75559 7.96891 0
M  V30 5051 H 786.228 -1.94563 5.46818 0
M  V30 5052 H 786.508 0.608651 7.04676 0
M  V30 5053 H 787.499 -0.889796 7.09039 0
M  V30 5054 H 785.665 -0.433128 9.04664 0
M  V30 5055 H 785.624 1.89246 5.57664 0
M  V30 5056 H 786.005 2.71005 0.804694 0
M  V30 5057 H 786.194 1.63189 -0.603768 0
M  V30 5058 H 786.302 -2.53475 0.997614 0
M  V30 5059 P 787.535 -2.75334 8.47391 0
M  V30 5060 O 787.755 -3.84166 9.4489 0
M  V30 5061 O 788.325 -1.51964 8.6881 0
M  V30 5062 O 787.785 -3.29363 6.99321 0
M  V30 5063 C 786.845 -4.23956 6.42656 0
M  V30 5064 C 787.575 -5.20775 5.52155 0
M  V30 5065 O 787.785 -4.56534 4.22446 0
M  V30 5066 C 788.975 -5.62629 5.96531 0
M  V30 5067 O 789.365 -6.87667 5.41053 0
M  V30 5068 C 789.855 -4.52537 5.39283 0
M  V30 5069 C 789.145 -4.20027 4.08623 0
M  V30 5070 N 789.195 -2.7613 3.71522 0
M  V30 5071 C 789.345 -2.45612 2.37989 0
M  V30 5072 O 789.435 -3.30919 1.51621 0
M  V30 5073 N 789.385 -1.10684 2.08435 0
M  V30 5074 C 789.295 -0.0690084 2.9792 0
M  V30 5075 O 789.345 1.10553 2.59426 0
M  V30 5076 C 789.145 -0.481522 4.35345 0
M  V30 5077 C 789.035 0.618778 5.36443 0
M  V30 5078 C 789.095 -1.78906 4.67968 0
M  V30 5079 H 786.355 -4.797 7.24003 0
M  V30 5080 H 786.086 -3.69802 5.84429 0
M  V30 5081 H 786.953 -6.10356 5.41441 0
M  V30 5082 H 789.608 -4.78651 3.27911 0
M  V30 5083 H 789.887 -3.64957 6.05871 0
M  V30 5084 H 790.879 -4.8868 5.2125 0
M  V30 5085 H 789.045 -5.66726 7.06352 0
M  V30 5086 H 788.974 -2.07737 5.72367 0
M  V30 5087 H 790.004 0.754375 5.86871 0
M  V30 5088 H 788.267 0.359721 6.10641 0
M  V30 5089 H 788.755 1.55533 4.8581 0
M  V30 5090 H 789.491 -0.862651 1.12037 0
M  V30 5091 P 790.915 -7.20834 5.23717 0
M  V30 5092 O 791.135 -8.66104 5.38572 0
M  V30 5093 O 791.705 -6.33544 6.1349 0
M  V30 5094 O 791.165 -6.7751 3.72168 0
M  V30 5095 C 790.225 -7.20825 2.7076 0
M  V30 5096 C 790.955 -7.45864 1.40599 0
M  V30 5097 O 791.165 -6.17651 0.734225 0
M  V30 5098 C 792.355 -8.05808 1.51899 0
M  V30 5099 O 792.745 -8.74358 0.335205 0
M  V30 5100 C 793.235 -6.83093 1.70294 0
M  V30 5101 C 792.525 -5.79992 0.836974 0
M  V30 5102 N 792.575 -4.41864 1.38293 0
M  V30 5103 C 792.495 -3.99538 2.69438 0
M  V30 5104 N 792.575 -2.69909 2.84277 0
M  V30 5105 C 792.715 -2.21719 1.5408 0
M  V30 5106 C 792.845 -0.891712 1.06628 0
M  V30 5107 O 792.865 0.161298 1.70137 0
M  V30 5108 N 792.965 -0.856846 -0.334985 0
M  V30 5109 C 792.965 -1.9641 -1.15789 0
M  V30 5110 N 793.095 -1.72708 -2.46522 0
M  V30 5111 N 792.835 -3.21165 -0.713741 0
M  V30 5112 C 792.715 -3.26797 0.639748 0
M  V30 5113 H 789.736 -8.13644 3.0377 0
M  V30 5114 H 789.466 -6.42788 2.55485 0
M  V30 5115 H 790.333 -8.12039 0.792769 0
M  V30 5116 H 792.988 -5.80061 -0.166416 0
M  V30 5117 H 793.267 -6.51287 2.75604 0
M  V30 5118 H 794.259 -7.01734 1.34462 0
M  V30 5119 H 792.425 -8.73674 2.38337 0
M  V30 5120 H 792.376 -4.68207 3.53221 0
M  V30 5121 H 793.058 0.0398818 -0.767965 0
M  V30 5122 H 793.095 -2.50995 -3.13503 0
M  V30 5123 H 793.196 -0.759148 -2.80716 0
M  V30 5124 P 794.295 -8.91 -5.6149e-12 0
M  V30 5125 O 794.515 -10.1726 -0.733694 0
M  V30 5126 O 795.085 -8.73148 1.23936 0
M  V30 5127 O 794.545 -7.66872 -0.971405 0
M  V30 5128 C 793.605 -7.42309 -2.04641 0
M  V30 5129 C 794.335 -6.86059 -3.24661 0
M  V30 5130 O 794.545 -5.42847 -3.03646 0
M  V30 5131 C 795.735 -7.41196 -3.50753 0
M  V30 5132 O 796.125 -7.27073 -4.86816 0
M  V30 5133 C 796.615 -6.5273 -2.63741 0
M  V30 5134 C 795.905 -5.1842 -2.73198 0
M  V30 5135 N 795.955 -4.38762 -1.4784 0
M  V30 5136 H 793.116 -8.36803 -2.32493 0
M  V30 5137 H 792.846 -6.70197 -1.71129 0
M  V30 5138 H 793.713 -7.03551 -4.13168 0
M  V30 5139 P 797.675 -7.20834 -5.23717 0
M  V30 5140 O 797.895 -7.80006 -6.57415 0
M  V30 5141 O 798.465 -7.79416 -4.13051 0
M  V30 5142 O 797.925 -5.63315 -5.29344 0
M  V30 5143 C 796.985 -4.80318 -6.01954 0
M  V30 5144 C 797.715 -3.64202 -6.65911 0
M  V30 5145 O 797.925 -2.60736 -5.64823 0
M  V30 5146 C 799.115 -3.93521 -7.19518 0
M  V30 5147 O 799.505 -3.02071 -8.21205 0
M  V30 5148 C 799.995 -3.73047 -5.97036 0
M  V30 5149 C 799.285 -2.58828 -5.25741 0
M  V30 5150 N 799.335 -2.68068 -3.77503 0
M  V30 5151 C 799.255 -3.80474 -2.99159 0
M  V30 5152 N 799.325 -3.55622 -1.71925 0
M  V30 5153 C 799.475 -2.1832 -1.65733 0
M  V30 5154 C 799.605 -1.28842 -0.572777 0
M  V30 5155 N 799.615 -1.66875 0.70098 0
M  V30 5156 N 799.725 0.016788 -0.859836 0
M  V30 5157 C 799.715 0.398145 -2.13316 0
M  V30 5158 N 799.595 -0.328224 -3.22333 0
M  V30 5159 C 799.475 -1.62992 -2.90383 0
M  V30 5160 H 796.497 -5.40394 -6.8003 0
M  V30 5161 H 796.225 -4.41741 -5.32532 0
M  V30 5162 H 797.093 -3.26371 -7.47889 0
M  V30 5163 H 799.748 -1.64007 -5.56746 0
M  V30 5164 H 800.028 -4.63439 -5.3432 0
M  V30 5165 H 801.019 -3.44776 -6.25925 0
M  V30 5166 H 799.185 -4.96707 -7.57347 0
M  V30 5167 H 799.144 -4.8089 -3.39924 0
M  V30 5168 H 799.525 -2.66547 0.941919 0
M  V30 5169 H 799.714 -0.965341 1.44766 0
M  V30 5170 H 799.822 1.46427 -2.29697 0
M  V30 5171 P 801.055 -2.75334 -8.47391 0
M  V30 5172 O 801.275 -2.44571 -9.90142 0
M  V30 5173 O 801.845 -3.87688 -7.92115 0
M  V30 5174 O 801.305 -1.4459 -7.59357 0
M  V30 5175 C 800.365 -0.347608 -7.69215 0
M  V30 5176 C 801.095 0.96767 -7.52806 0
M  V30 5177 O 801.305 1.21036 -6.1011 0
M  V30 5178 C 802.495 1.04544 -8.13308 0
M  V30 5179 O 802.885 2.38311 -8.41922 0
M  V30 5180 C 803.375 0.491279 -7.02284 0
M  V30 5181 C 802.665 0.996264 -5.77469 0
M  V30 5182 N 802.715 0.0501916 -4.62973 0
M  V30 5183 H 799.876 -0.374722 -8.67691 0
M  V30 5184 H 799.606 -0.443485 -6.90277 0
M  V30 5185 H 800.473 1.75537 -7.96793 0
M  V30 5186 P 804.435 2.75334 -8.47391 0
M  V30 5187 O 804.655 3.84128 -9.44797 0
M  V30 5188 O 805.225 1.51947 -8.68712 0
M  V30 5189 O 804.685 3.29363 -6.99321 0
M  V30 5190 C 803.745 4.24011 -6.4274 0
M  V30 5191 C 804.475 5.20775 -5.52155 0
M  V30 5192 O 804.685 4.56534 -4.22446 0
M  V30 5193 C 805.875 5.62629 -5.96531 0
M  V30 5194 O 806.265 6.87667 -5.41053 0
M  V30 5195 C 806.755 4.52537 -5.39283 0
M  V30 5196 C 806.045 4.20027 -4.08623 0
M  V30 5197 N 806.095 2.76189 -3.71603 0
M  V30 5198 H 803.256 4.797 -7.24003 0
M  V30 5199 H 802.986 3.69856 -5.84513 0
M  V30 5200 H 803.853 6.10356 -5.41441 0
M  V30 5201 P 807.815 7.20834 -5.23717 0
M  V30 5202 O 808.035 8.66104 -5.38572 0
M  V30 5203 O 808.605 6.33544 -6.1349 0
M  V30 5204 O 808.065 6.7751 -3.72168 0
M  V30 5205 C 807.125 7.20825 -2.7076 0
M  V30 5206 C 807.855 7.45864 -1.40599 0
M  V30 5207 O 808.065 6.17651 -0.734225 0
M  V30 5208 C 809.255 8.05808 -1.51899 0
M  V30 5209 O 809.645 8.74358 -0.335205 0
M  V30 5210 C 810.135 6.83093 -1.70294 0
M  V30 5211 C 809.425 5.79992 -0.836974 0
M  V30 5212 N 809.475 4.41864 -1.38293 0
M  V30 5213 H 806.636 8.13644 -3.0377 0
M  V30 5214 H 806.366 6.42788 -2.55485 0
M  V30 5215 H 807.233 8.12039 -0.792769 0
M  V30 5216 P 811.195 8.91 5.77209e-12 0
M  V30 5217 O 811.415 10.1726 0.733694 0
M  V30 5218 O 811.985 8.73148 -1.23936 0
M  V30 5219 O 811.445 7.66872 0.971405 0
M  V30 5220 C 810.505 7.42309 2.04641 0
M  V30 5221 C 811.235 6.86059 3.24661 0
M  V30 5222 O 811.445 5.42847 3.03646 0
M  V30 5223 C 812.635 7.41196 3.50753 0
M  V30 5224 O 813.025 7.27073 4.86816 0
M  V30 5225 C 813.515 6.5273 2.63741 0
M  V30 5226 C 812.805 5.1842 2.73198 0
M  V30 5227 N 812.855 4.38762 1.4784 0
M  V30 5228 H 810.016 8.36803 2.32493 0
M  V30 5229 H 809.746 6.70197 1.71129 0
M  V30 5230 H 810.613 7.03551 4.13168 0
M  V30 5231 P 814.575 7.20834 5.23717 0
M  V30 5232 O 814.795 7.79853 6.57286 0
M  V30 5233 O 815.365 7.79239 4.12957 0
M  V30 5234 O 814.825 5.63315 5.29344 0
M  V30 5235 C 813.885 4.80255 6.01876 0
M  V30 5236 C 814.615 3.64202 6.65911 0
M  V30 5237 O 814.825 2.60694 5.64732 0
M  V30 5238 C 816.015 3.93473 7.1943 0
M  V30 5239 O 816.405 3.02071 8.21205 0
M  V30 5240 C 816.895 3.73047 5.97036 0
M  V30 5241 C 816.185 2.58828 5.25741 0
M  V30 5242 N 816.235 2.68068 3.77503 0
M  V30 5243 H 813.396 5.40332 6.79951 0
M  V30 5244 H 813.126 4.41613 5.32378 0
M  V30 5245 H 813.993 3.26331 7.47797 0
M  V30 5246 P 817.955 2.75334 8.47391 0
M  V30 5247 O 818.175 2.44595 9.90239 0
M  V30 5248 O 818.745 3.87732 7.92204 0
M  V30 5249 O 818.205 1.4459 7.59357 0
M  V30 5250 C 817.265 0.347563 7.69115 0
M  V30 5251 C 817.995 -0.96767 7.52806 0
M  V30 5252 O 818.205 -1.21036 6.1011 0
M  V30 5253 C 819.395 -1.04544 8.13308 0
M  V30 5254 O 819.785 -2.38311 8.41922 0
M  V30 5255 C 820.275 -0.491279 7.02284 0
M  V30 5256 C 819.565 -0.996264 5.77469 0
M  V30 5257 N 819.615 -0.0501808 4.62873 0
M  V30 5258 C 819.765 -0.588177 3.36904 0
M  V30 5259 O 819.855 -1.78598 3.17173 0
M  V30 5260 N 819.805 0.329694 2.33686 0
M  V30 5261 C 819.715 1.6953 2.45079 0
M  V30 5262 O 819.765 2.41926 1.44899 0
M  V30 5263 C 819.565 2.16933 3.80505 0
M  V30 5264 C 819.455 3.65373 3.97621 0
M  V30 5265 C 819.515 1.30326 4.83752 0
M  V30 5266 H 816.775 0.374722 8.67691 0
M  V30 5267 H 816.506 0.443421 6.90177 0
M  V30 5268 H 817.373 -1.75537 7.96793 0
M  V30 5269 H 820.028 -1.94496 5.46629 0
M  V30 5270 H 820.307 0.608651 7.04676 0
M  V30 5271 H 821.299 -0.889672 7.08939 0
M  V30 5272 H 819.465 -0.43308 9.04564 0
M  V30 5273 H 819.394 1.68366 5.8516 0
M  V30 5274 H 820.424 4.05985 4.30448 0
M  V30 5275 H 818.687 3.88028 4.72875 0
M  V30 5276 H 819.175 4.11381 3.01609 0
M  V30 5277 H 819.911 -0.0393617 1.41345 0
M  V30 5278 P 821.335 -2.75334 8.47391 0
M  V30 5279 O 821.555 -3.84204 9.44982 0
M  V30 5280 O 822.125 -1.51982 8.68909 0
M  V30 5281 O 821.585 -3.29363 6.99321 0
M  V30 5282 C 820.645 -4.24066 6.42823 0
M  V30 5283 C 821.375 -5.20775 5.52155 0
M  V30 5284 O 821.585 -4.56607 4.22514 0
M  V30 5285 C 822.775 -5.62697 5.96604 0
M  V30 5286 O 823.165 -6.87667 5.41053 0
M  V30 5287 C 823.655 -4.52537 5.39283 0
M  V30 5288 C 822.945 -4.20027 4.08623 0
M  V30 5289 N 822.995 -2.76189 3.71603 0
M  V30 5290 H 820.157 -4.79756 7.24086 0
M  V30 5291 H 819.885 -3.69963 5.84682 0
M  V30 5292 H 820.753 -6.10431 5.41508 0
M  V30 5293 H 823.408 -4.78816 3.28024 0
M  V30 5294 H 823.688 -3.64957 6.05871 0
M  V30 5295 H 824.679 -4.88748 5.21323 0
M  V30 5296 H 822.845 -5.66789 7.0643 0
M  V30 5297 P 824.715 -7.20834 5.23717 0
M  V30 5298 O 824.935 -8.66104 5.38572 0
M  V30 5299 O 825.505 -6.33544 6.1349 0
M  V30 5300 O 824.965 -6.7751 3.72168 0
M  V30 5301 C 824.025 -7.20825 2.7076 0
M  V30 5302 C 824.755 -7.45864 1.40599 0
M  V30 5303 O 824.965 -6.17651 0.734225 0
M  V30 5304 C 826.155 -8.05808 1.51899 0
M  V30 5305 O 826.545 -8.74358 0.335205 0
M  V30 5306 C 827.035 -6.83093 1.70294 0
M  V30 5307 C 826.325 -5.79992 0.836974 0
M  V30 5308 N 826.375 -4.41864 1.38293 0
M  V30 5309 H 823.536 -8.13644 3.0377 0
M  V30 5310 H 823.266 -6.42788 2.55485 0
M  V30 5311 H 824.133 -8.12039 0.792769 0
M  V30 5312 P 828.095 -8.91 -5.92927e-12 0
M  V30 5313 O 828.315 -10.1726 -0.733694 0
M  V30 5314 O 828.885 -8.73148 1.23936 0
M  V30 5315 O 828.345 -7.66872 -0.971405 0
M  V30 5316 C 827.405 -7.42309 -2.04641 0
M  V30 5317 C 828.135 -6.86059 -3.24661 0
M  V30 5318 O 828.345 -5.42847 -3.03646 0
M  V30 5319 C 829.535 -7.41196 -3.50753 0
M  V30 5320 O 829.925 -7.27073 -4.86816 0
M  V30 5321 C 830.415 -6.5273 -2.63741 0
M  V30 5322 C 829.705 -5.1842 -2.73198 0
M  V30 5323 N 829.755 -4.38762 -1.4784 0
M  V30 5324 H 826.916 -8.36803 -2.32493 0
M  V30 5325 H 826.646 -6.70197 -1.71129 0
M  V30 5326 H 827.513 -7.03551 -4.13168 0
M  V30 5327 P 831.475 -7.20834 -5.23717 0
M  V30 5328 O 831.695 -7.80006 -6.57415 0
M  V30 5329 O 832.265 -7.79416 -4.13051 0
M  V30 5330 O 831.725 -5.63315 -5.29344 0
M  V30 5331 C 830.785 -4.80318 -6.01954 0
M  V30 5332 C 831.515 -3.64202 -6.65911 0
M  V30 5333 O 831.725 -2.60736 -5.64823 0
M  V30 5334 C 832.915 -3.93521 -7.19518 0
M  V30 5335 O 833.305 -3.02071 -8.21205 0
M  V30 5336 C 833.795 -3.73047 -5.97036 0
M  V30 5337 C 833.085 -2.58828 -5.25741 0
M  V30 5338 N 833.135 -2.68068 -3.77503 0
M  V30 5339 C 833.055 -3.80474 -2.99159 0
M  V30 5340 N 833.125 -3.55622 -1.71925 0
M  V30 5341 C 833.275 -2.1832 -1.65733 0
M  V30 5342 C 833.405 -1.28842 -0.572777 0
M  V30 5343 N 833.415 -1.66875 0.70098 0
M  V30 5344 N 833.525 0.016788 -0.859836 0
M  V30 5345 C 833.515 0.398145 -2.13316 0
M  V30 5346 N 833.395 -0.328224 -3.22333 0
M  V30 5347 C 833.275 -1.62992 -2.90383 0
M  V30 5348 H 830.297 -5.40394 -6.8003 0
M  V30 5349 H 830.025 -4.41741 -5.32532 0
M  V30 5350 H 830.893 -3.26371 -7.47889 0
M  V30 5351 H 833.548 -1.64007 -5.56746 0
M  V30 5352 H 833.828 -4.63439 -5.3432 0
M  V30 5353 H 834.819 -3.44776 -6.25925 0
M  V30 5354 H 832.985 -4.96707 -7.57347 0
M  V30 5355 H 832.944 -4.8089 -3.39924 0
M  V30 5356 H 833.325 -2.66547 0.941919 0
M  V30 5357 H 833.514 -0.965341 1.44766 0
M  V30 5358 H 833.622 1.46427 -2.29697 0
M  V30 5359 P 834.855 -2.75334 -8.47391 0
M  V30 5360 O 835.075 -2.44571 -9.90142 0
M  V30 5361 O 835.645 -3.87688 -7.92115 0
M  V30 5362 O 835.105 -1.4459 -7.59357 0
M  V30 5363 C 834.165 -0.347608 -7.69215 0
M  V30 5364 C 834.895 0.96767 -7.52806 0
M  V30 5365 O 835.105 1.21036 -6.1011 0
M  V30 5366 C 836.295 1.04544 -8.13308 0
M  V30 5367 O 836.685 2.38311 -8.41922 0
M  V30 5368 C 837.175 0.491279 -7.02284 0
M  V30 5369 C 836.465 0.996264 -5.77469 0
M  V30 5370 N 836.515 0.0501916 -4.62973 0
M  V30 5371 H 833.676 -0.374722 -8.67691 0
M  V30 5372 H 833.406 -0.443485 -6.90277 0
M  V30 5373 H 834.273 1.75537 -7.96793 0
M  V30 5374 P 838.235 2.75334 -8.47391 0
M  V30 5375 O 838.455 3.84204 -9.44982 0
M  V30 5376 O 839.025 1.51982 -8.68909 0
M  V30 5377 O 838.485 3.29363 -6.99321 0
M  V30 5378 C 837.545 4.24066 -6.42823 0
M  V30 5379 C 838.275 5.20775 -5.52155 0
M  V30 5380 O 838.485 4.56607 -4.22514 0
M  V30 5381 C 839.675 5.62697 -5.96604 0
M  V30 5382 O 840.065 6.87667 -5.41053 0
M  V30 5383 C 840.555 4.52537 -5.39283 0
M  V30 5384 C 839.845 4.20027 -4.08623 0
M  V30 5385 N 839.895 2.76189 -3.71603 0
M  V30 5386 C 839.815 1.66944 -4.54297 0
M  V30 5387 N 839.885 0.536169 -3.91344 0
M  V30 5388 C 840.035 0.901569 -2.58849 0
M  V30 5389 C 840.165 0.146599 -1.40236 0
M  V30 5390 N 840.175 -1.18234 -1.37046 0
M  V30 5391 N 840.285 0.822941 -0.249738 0
M  V30 5392 C 840.275 2.15179 -0.280525 0
M  V30 5393 N 840.155 2.96414 -1.30822 0
M  V30 5394 C 840.035 2.25804 -2.44748 0
M  V30 5395 H 837.057 4.79756 -7.24086 0
M  V30 5396 H 836.785 3.69963 -5.84682 0
M  V30 5397 H 837.653 6.10431 -5.41508 0
M  V30 5398 H 840.308 4.78816 -3.28024 0
M  V30 5399 H 840.588 3.64957 -6.05871 0
M  V30 5400 H 841.579 4.88748 -5.21323 0
M  V30 5401 H 839.745 5.66789 -7.0643 0
M  V30 5402 H 839.704 1.74684 -5.62396 0
M  V30 5403 H 840.085 -1.71949 -2.24394 0
M  V30 5404 H 840.274 -1.67511 -0.470742 0
M  V30 5405 H 840.382 2.63704 0.6828 0
M  V30 5406 P 841.615 7.20834 -5.23717 0
M  V30 5407 O 841.835 8.66274 -5.38678 0
M  V30 5408 O 842.405 6.33687 -6.13629 0
M  V30 5409 O 841.865 6.7751 -3.72168 0
M  V30 5410 C 840.925 7.20919 -2.70795 0
M  V30 5411 C 841.655 7.45864 -1.40599 0
M  V30 5412 O 841.865 6.17751 -0.734343 0
M  V30 5413 C 843.055 8.05906 -1.51917 0
M  V30 5414 O 843.445 8.74358 -0.335205 0
M  V30 5415 C 843.935 6.83093 -1.70294 0
M  V30 5416 C 843.225 5.79992 -0.836974 0
M  V30 5417 N 843.275 4.41864 -1.38293 0
M  V30 5418 C 843.195 4.02089 -2.69407 0
M  V30 5419 N 843.265 2.73403 -2.85089 0
M  V30 5420 C 843.415 2.25086 -1.5642 0
M  V30 5421 C 843.545 0.942887 -1.04836 0
M  V30 5422 N 843.555 -0.150999 -1.80369 0
M  V30 5423 N 843.665 0.812565 0.28167 0
M  V30 5424 C 843.655 1.90572 1.03784 0
M  V30 5425 N 843.535 3.167 0.683905 0
M  V30 5426 C 843.415 3.26538 -0.652815 0
M  V30 5427 H 840.437 8.13738 -3.03804 0
M  V30 5428 H 840.165 6.42974 -2.55559 0
M  V30 5429 H 841.033 8.12139 -0.792866 0
M  V30 5430 H 843.688 5.80178 0.160643 0
M  V30 5431 H 843.968 6.51379 -2.75643 0
M  V30 5432 H 844.959 7.01832 -1.3448 0
M  V30 5433 H 843.125 8.73771 -2.38364 0
M  V30 5434 H 843.084 4.7189 -3.52311 0
M  V30 5435 H 843.465 -0.0721434 -2.82608 0
M  V30 5436 H 843.654 -1.0785 -1.36544 0
M  V30 5437 H 843.762 1.73207 2.10241 0
M  V30 5438 P 844.995 8.91 6.08645e-12 0
M  V30 5439 O 845.215 10.1746 0.733838 0
M  V30 5440 O 845.785 8.73346 -1.23964 0
M  V30 5441 O 845.245 7.66872 0.971405 0
M  V30 5442 C 844.305 7.42405 2.04668 0
M  V30 5443 C 845.035 6.86059 3.24661 0
M  V30 5444 O 845.245 5.42934 3.03695 0
M  V30 5445 C 846.435 7.41287 3.50796 0
M  V30 5446 O 846.825 7.27073 4.86816 0
M  V30 5447 C 847.315 6.5273 2.63741 0
M  V30 5448 C 846.605 5.1842 2.73198 0
M  V30 5449 N 846.655 4.38762 1.4784 0
M  V30 5450 H 843.817 8.36899 2.3252 0
M  V30 5451 H 843.545 6.70391 1.71179 0
M  V30 5452 H 844.413 7.03638 4.13219 0
M  V30 5453 H 847.068 4.59931 3.54016 0
M  V30 5454 H 847.348 6.88995 1.59871 0
M  V30 5455 H 848.339 6.4684 3.0373 0
M  V30 5456 H 846.505 8.47002 3.20749 0
M  V30 5457 P 848.375 7.20834 5.23717 0
M  V30 5458 O 848.595 7.79853 6.57286 0
M  V30 5459 O 849.165 7.79239 4.12957 0
M  V30 5460 O 848.625 5.63315 5.29344 0
M  V30 5461 C 847.685 4.80255 6.01876 0
M  V30 5462 C 848.415 3.64202 6.65911 0
M  V30 5463 O 848.625 2.60694 5.64732 0
M  V30 5464 C 849.815 3.93473 7.1943 0
M  V30 5465 O 850.205 3.02071 8.21205 0
M  V30 5466 C 850.695 3.73047 5.97036 0
M  V30 5467 C 849.985 2.58828 5.25741 0
M  V30 5468 N 850.035 2.68068 3.77503 0
M  V30 5469 H 847.196 5.40332 6.79951 0
M  V30 5470 H 846.926 4.41613 5.32378 0
M  V30 5471 H 847.793 3.26331 7.47797 0
M  V30 5472 P 851.755 2.75334 8.47391 0
M  V30 5473 O 851.975 2.44571 9.90142 0
M  V30 5474 O 852.545 3.87688 7.92115 0
M  V30 5475 O 852.005 1.4459 7.59357 0
M  V30 5476 C 851.065 0.347608 7.69215 0
M  V30 5477 C 851.795 -0.96767 7.52806 0
M  V30 5478 O 852.005 -1.21036 6.1011 0
M  V30 5479 C 853.195 -1.04544 8.13308 0
M  V30 5480 O 853.585 -2.38311 8.41922 0
M  V30 5481 C 854.075 -0.491279 7.02284 0
M  V30 5482 C 853.365 -0.996264 5.77469 0
M  V30 5483 N 853.415 -0.0501916 4.62973 0
M  V30 5484 H 850.576 0.374722 8.67691 0
M  V30 5485 H 850.306 0.443485 6.90277 0
M  V30 5486 H 851.173 -1.75537 7.96793 0
M  V30 5487 P 855.135 -2.75334 8.47391 0
M  V30 5488 O 855.355 -3.84128 9.44797 0
M  V30 5489 O 855.925 -1.51947 8.68712 0
M  V30 5490 O 855.385 -3.29363 6.99321 0
M  V30 5491 C 854.445 -4.24011 6.4274 0
M  V30 5492 C 855.175 -5.20775 5.52155 0
M  V30 5493 O 855.385 -4.56534 4.22446 0
M  V30 5494 C 856.575 -5.62629 5.96531 0
M  V30 5495 O 856.965 -6.87667 5.41053 0
M  V30 5496 C 857.455 -4.52537 5.39283 0
M  V30 5497 C 856.745 -4.20027 4.08623 0
M  V30 5498 N 856.795 -2.76189 3.71603 0
M  V30 5499 H 853.956 -4.797 7.24003 0
M  V30 5500 H 853.686 -3.69856 5.84513 0
M  V30 5501 H 854.553 -6.10356 5.41441 0
M  V30 5502 P 858.515 -7.20834 5.23717 0
M  V30 5503 O 858.735 -8.66104 5.38572 0
M  V30 5504 O 859.305 -6.33544 6.1349 0
M  V30 5505 O 858.765 -6.7751 3.72168 0
M  V30 5506 C 857.825 -7.20825 2.7076 0
M  V30 5507 C 858.555 -7.45864 1.40599 0
M  V30 5508 O 858.765 -6.17651 0.734225 0
M  V30 5509 C 859.955 -8.05808 1.51899 0
M  V30 5510 O 860.345 -8.74358 0.335205 0
M  V30 5511 C 860.835 -6.83093 1.70294 0
M  V30 5512 C 860.125 -5.79992 0.836974 0
M  V30 5513 N 860.175 -4.41864 1.38293 0
M  V30 5514 H 857.336 -8.13644 3.0377 0
M  V30 5515 H 857.066 -6.42788 2.55485 0
M  V30 5516 H 857.933 -8.12039 0.792769 0
M  V30 5517 P 861.895 -8.91 -6.24363e-12 0
M  V30 5518 O 862.115 -10.1726 -0.733694 0
M  V30 5519 O 862.685 -8.73148 1.23936 0
M  V30 5520 O 862.145 -7.66872 -0.971405 0
M  V30 5521 C 861.205 -7.42309 -2.04641 0
M  V30 5522 C 861.935 -6.86059 -3.24661 0
M  V30 5523 O 862.145 -5.42847 -3.03646 0
M  V30 5524 C 863.335 -7.41196 -3.50753 0
M  V30 5525 O 863.725 -7.27073 -4.86816 0
M  V30 5526 C 864.215 -6.5273 -2.63741 0
M  V30 5527 C 863.505 -5.1842 -2.73198 0
M  V30 5528 N 863.555 -4.38762 -1.4784 0
M  V30 5529 H 860.716 -8.36803 -2.32493 0
M  V30 5530 H 860.446 -6.70197 -1.71129 0
M  V30 5531 H 861.313 -7.03551 -4.13168 0
M  V30 5532 P 865.275 -7.20834 -5.23717 0
M  V30 5533 O 865.495 -7.79853 -6.57286 0
M  V30 5534 O 866.065 -7.79239 -4.12957 0
M  V30 5535 O 865.525 -5.63315 -5.29344 0
M  V30 5536 C 864.585 -4.80255 -6.01876 0
M  V30 5537 C 865.315 -3.64202 -6.65911 0
M  V30 5538 O 865.525 -2.60694 -5.64732 0
M  V30 5539 C 866.715 -3.93473 -7.1943 0
M  V30 5540 O 867.105 -3.02071 -8.21205 0
M  V30 5541 C 867.595 -3.73047 -5.97036 0
M  V30 5542 C 866.885 -2.58828 -5.25741 0
M  V30 5543 N 866.935 -2.68068 -3.77503 0
M  V30 5544 H 864.096 -5.40332 -6.79951 0
M  V30 5545 H 863.826 -4.41613 -5.32378 0
M  V30 5546 H 864.693 -3.26331 -7.47797 0
M  V30 5547 P 868.655 -2.75334 -8.47391 0
M  V30 5548 O 868.875 -2.44619 -9.90336 0
M  V30 5549 O 869.445 -3.87776 -7.92294 0
M  V30 5550 O 868.905 -1.4459 -7.59357 0
M  V30 5551 C 867.965 -0.347653 -7.69315 0
M  V30 5552 C 868.695 0.96767 -7.52806 0
M  V30 5553 O 868.905 1.21055 -6.10208 0
M  V30 5554 C 870.095 1.04557 -8.13408 0
M  V30 5555 O 870.485 2.38311 -8.41922 0
M  V30 5556 C 870.975 0.491279 -7.02284 0
M  V30 5557 C 870.265 0.996264 -5.77469 0
M  V30 5558 N 870.315 0.0501916 -4.62973 0
M  V30 5559 H 867.477 -0.374765 -8.67791 0
M  V30 5560 H 867.205 -0.443613 -6.90476 0
M  V30 5561 H 868.073 1.75559 -7.96891 0
M  V30 5562 H 870.728 1.94563 -5.46818 0
M  V30 5563 H 871.008 -0.608651 -7.04676 0
M  V30 5564 H 871.999 0.889796 -7.09039 0
M  V30 5565 H 870.165 0.433128 -9.04664 0
M  V30 5566 P 872.035 2.75334 -8.47391 0
M  V30 5567 O 872.255 3.84128 -9.44797 0
M  V30 5568 O 872.825 1.51947 -8.68712 0
M  V30 5569 O 872.285 3.29363 -6.99321 0
M  V30 5570 C 871.345 4.24011 -6.4274 0
M  V30 5571 C 872.075 5.20775 -5.52155 0
M  V30 5572 O 872.285 4.56534 -4.22446 0
M  V30 5573 C 873.475 5.62629 -5.96531 0
M  V30 5574 O 873.865 6.87667 -5.41053 0
M  V30 5575 C 874.355 4.52537 -5.39283 0
M  V30 5576 C 873.645 4.20027 -4.08623 0
M  V30 5577 N 873.695 2.76189 -3.71603 0
M  V30 5578 H 870.856 4.797 -7.24003 0
M  V30 5579 H 870.586 3.69856 -5.84513 0
M  V30 5580 H 871.453 6.10356 -5.41441 0
M  V30 5581 P 875.415 7.20834 -5.23717 0
M  V30 5582 O 875.635 8.66274 -5.38678 0
M  V30 5583 O 876.205 6.33687 -6.13629 0
M  V30 5584 O 875.665 6.7751 -3.72168 0
M  V30 5585 C 874.725 7.20919 -2.70795 0
M  V30 5586 C 875.455 7.45864 -1.40599 0
M  V30 5587 O 875.665 6.17751 -0.734343 0
M  V30 5588 C 876.855 8.05906 -1.51917 0
M  V30 5589 O 877.245 8.74358 -0.335205 0
M  V30 5590 C 877.735 6.83093 -1.70294 0
M  V30 5591 C 877.025 5.79992 -0.836974 0
M  V30 5592 N 877.075 4.41864 -1.38293 0
M  V30 5593 H 874.237 8.13738 -3.03804 0
M  V30 5594 H 873.965 6.42974 -2.55559 0
M  V30 5595 H 874.833 8.12139 -0.792866 0
M  V30 5596 H 877.488 5.80178 0.160643 0
M  V30 5597 H 877.768 6.51379 -2.75643 0
M  V30 5598 H 878.759 7.01832 -1.3448 0
M  V30 5599 H 876.925 8.73771 -2.38364 0
M  V30 5600 P 878.795 8.91 6.40081e-12 0
M  V30 5601 O 879.015 10.1726 0.733694 0
M  V30 5602 O 879.585 8.73148 -1.23936 0
M  V30 5603 O 879.045 7.66872 0.971405 0
M  V30 5604 C 878.105 7.42309 2.04641 0
M  V30 5605 C 878.835 6.86059 3.24661 0
M  V30 5606 O 879.045 5.42847 3.03646 0
M  V30 5607 C 880.235 7.41196 3.50753 0
M  V30 5608 O 880.625 7.27073 4.86816 0
M  V30 5609 C 881.115 6.5273 2.63741 0
M  V30 5610 C 880.405 5.1842 2.73198 0
M  V30 5611 N 880.455 4.38762 1.4784 0
M  V30 5612 C 880.375 4.81605 0.168631 0
M  V30 5613 N 880.455 3.85454 -0.713363 0
M  V30 5614 C 880.595 2.6994 0.0566958 0
M  V30 5615 C 880.725 1.34815 -0.338502 0
M  V30 5616 N 880.845 0.496304 0.77465 0
M  V30 5617 C 880.845 0.908403 2.09122 0
M  V30 5618 N 880.975 -0.0517805 3.00955 0
M  V30 5619 N 880.715 2.17875 2.46519 0
M  V30 5620 C 880.595 3.01988 1.4033 0
M  V30 5621 H 877.616 8.36803 2.32493 0
M  V30 5622 H 877.346 6.70197 1.71129 0
M  V30 5623 H 878.213 7.03551 4.13168 0
M  V30 5624 P 882.175 7.20834 5.23717 0
M  V30 5625 O 882.395 7.7993 6.57351 0
M  V30 5626 O 882.965 7.79328 4.13004 0
M  V30 5627 O 882.425 5.63315 5.29344 0
M  V30 5628 C 881.485 4.80193 6.01798 0
M  V30 5629 C 882.215 3.64202 6.65911 0
M  V30 5630 O 882.425 2.60694 5.64732 0
M  V30 5631 C 883.615 3.93473 7.1943 0
M  V30 5632 O 884.005 3.02071 8.21205 0
M  V30 5633 C 884.495 3.73047 5.97036 0
M  V30 5634 C 883.785 2.58828 5.25741 0
M  V30 5635 N 883.835 2.6801 3.77422 0
M  V30 5636 C 883.985 1.50443 3.07133 0
M  V30 5637 O 884.075 0.419406 3.61576 0
M  V30 5638 N 884.025 1.6403 1.69677 0
M  V30 5639 C 883.935 2.81206 0.986255 0
M  V30 5640 C 883.785 3.99158 1.80325 0
M  V30 5641 C 883.735 3.89779 3.1476 0
M  V30 5642 H 880.995 5.40332 6.79951 0
M  V30 5643 H 880.726 4.41549 5.32301 0
M  V30 5644 H 881.593 3.26331 7.47797 0
M  V30 5645 H 884.248 1.6395 5.56554 0
M  V30 5646 H 884.527 4.63439 5.3432 0
M  V30 5647 H 885.519 3.44728 6.25838 0
M  V30 5648 H 883.685 4.96652 7.57263 0
M  V30 5649 H 883.614 4.80159 3.74441 0
M  V30 5650 P 885.555 2.75334 8.47391 0
M  V30 5651 O 885.775 2.44571 9.90142 0
M  V30 5652 O 886.345 3.87688 7.92115 0
M  V30 5653 O 885.805 1.4459 7.59357 0
M  V30 5654 C 884.865 0.347608 7.69215 0
M  V30 5655 C 885.595 -0.96767 7.52806 0
M  V30 5656 O 885.805 -1.21036 6.1011 0
M  V30 5657 C 886.995 -1.04544 8.13308 0
M  V30 5658 O 887.385 -2.38311 8.41922 0
M  V30 5659 C 887.875 -0.491279 7.02284 0
M  V30 5660 C 887.165 -0.996264 5.77469 0
M  V30 5661 N 887.215 -0.0501916 4.62973 0
M  V30 5662 H 884.376 0.374722 8.67691 0
M  V30 5663 H 884.106 0.443485 6.90277 0
M  V30 5664 H 884.973 -1.75537 7.96793 0
M  V30 5665 P 888.935 -2.75334 8.47391 0
M  V30 5666 O 889.155 -3.84128 9.44797 0
M  V30 5667 O 889.725 -1.51947 8.68712 0
M  V30 5668 O 889.185 -3.29363 6.99321 0
M  V30 5669 C 888.245 -4.24011 6.4274 0
M  V30 5670 C 888.975 -5.20775 5.52155 0
M  V30 5671 O 889.185 -4.56534 4.22446 0
M  V30 5672 C 890.375 -5.62629 5.96531 0
M  V30 5673 O 890.765 -6.87667 5.41053 0
M  V30 5674 C 891.255 -4.52537 5.39283 0
M  V30 5675 C 890.545 -4.20027 4.08623 0
M  V30 5676 N 890.595 -2.76189 3.71603 0
M  V30 5677 H 887.756 -4.797 7.24003 0
M  V30 5678 H 887.486 -3.69856 5.84513 0
M  V30 5679 H 888.353 -6.10356 5.41441 0
M  V30 5680 P 892.315 -7.20834 5.23717 0
M  V30 5681 O 892.535 -8.66104 5.38572 0
M  V30 5682 O 893.105 -6.33544 6.1349 0
M  V30 5683 O 892.565 -6.7751 3.72168 0
M  V30 5684 C 891.625 -7.20825 2.7076 0
M  V30 5685 C 892.355 -7.45864 1.40599 0
M  V30 5686 O 892.565 -6.17651 0.734225 0
M  V30 5687 C 893.755 -8.05808 1.51899 0
M  V30 5688 O 894.145 -8.74358 0.335205 0
M  V30 5689 C 894.635 -6.83093 1.70294 0
M  V30 5690 C 893.925 -5.79992 0.836974 0
M  V30 5691 N 893.975 -4.41864 1.38293 0
M  V30 5692 H 891.136 -8.13644 3.0377 0
M  V30 5693 H 890.866 -6.42788 2.55485 0
M  V30 5694 H 891.733 -8.12039 0.792769 0
M  V30 5695 P 895.695 -8.91 -6.558e-12 0
M  V30 5696 O 895.915 -10.1726 -0.733694 0
M  V30 5697 O 896.485 -8.73148 1.23936 0
M  V30 5698 O 895.945 -7.66872 -0.971405 0
M  V30 5699 C 895.005 -7.42309 -2.04641 0
M  V30 5700 C 895.735 -6.86059 -3.24661 0
M  V30 5701 O 895.945 -5.42847 -3.03646 0
M  V30 5702 C 897.135 -7.41196 -3.50753 0
M  V30 5703 O 897.525 -7.27073 -4.86816 0
M  V30 5704 C 898.015 -6.5273 -2.63741 0
M  V30 5705 C 897.305 -5.1842 -2.73198 0
M  V30 5706 N 897.355 -4.38762 -1.4784 0
M  V30 5707 H 894.516 -8.36803 -2.32493 0
M  V30 5708 H 894.246 -6.70197 -1.71129 0
M  V30 5709 H 895.113 -7.03551 -4.13168 0
M  V30 5710 P 899.075 -7.20834 -5.23717 0
M  V30 5711 O 899.295 -7.79853 -6.57286 0
M  V30 5712 O 899.865 -7.79239 -4.12957 0
M  V30 5713 O 899.325 -5.63315 -5.29344 0
M  V30 5714 C 898.385 -4.80255 -6.01876 0
M  V30 5715 C 899.115 -3.64202 -6.65911 0
M  V30 5716 O 899.325 -2.60694 -5.64732 0
M  V30 5717 C 900.515 -3.93473 -7.1943 0
M  V30 5718 O 900.905 -3.02071 -8.21205 0
M  V30 5719 C 901.395 -3.73047 -5.97036 0
M  V30 5720 C 900.685 -2.58828 -5.25741 0
M  V30 5721 N 900.735 -2.68068 -3.77503 0
M  V30 5722 H 897.896 -5.40332 -6.79951 0
M  V30 5723 H 897.626 -4.41613 -5.32378 0
M  V30 5724 H 898.493 -3.26331 -7.47797 0
M  V30 5725 P 902.455 -2.75334 -8.47391 0
M  V30 5726 O 902.675 -2.44571 -9.90142 0
M  V30 5727 O 903.245 -3.87688 -7.92115 0
M  V30 5728 O 902.705 -1.4459 -7.59357 0
M  V30 5729 C 901.765 -0.347608 -7.69215 0
M  V30 5730 C 902.495 0.96767 -7.52806 0
M  V30 5731 O 902.705 1.21036 -6.1011 0
M  V30 5732 C 903.895 1.04544 -8.13308 0
M  V30 5733 O 904.285 2.38311 -8.41922 0
M  V30 5734 C 904.775 0.491279 -7.02284 0
M  V30 5735 C 904.065 0.996264 -5.77469 0
M  V30 5736 N 904.115 0.0501916 -4.62973 0
M  V30 5737 H 901.276 -0.374722 -8.67691 0
M  V30 5738 H 901.006 -0.443485 -6.90277 0
M  V30 5739 H 901.873 1.75537 -7.96793 0
M  V30 5740 P 905.835 2.75334 -8.47391 0
M  V30 5741 O 906.055 3.84128 -9.44797 0
M  V30 5742 O 906.625 1.51947 -8.68712 0
M  V30 5743 O 906.085 3.29363 -6.99321 0
M  V30 5744 C 905.145 4.24011 -6.4274 0
M  V30 5745 C 905.875 5.20775 -5.52155 0
M  V30 5746 O 906.085 4.56534 -4.22446 0
M  V30 5747 C 907.275 5.62629 -5.96531 0
M  V30 5748 O 907.665 6.87667 -5.41053 0
M  V30 5749 C 908.155 4.52537 -5.39283 0
M  V30 5750 C 907.445 4.20027 -4.08623 0
M  V30 5751 N 907.495 2.76189 -3.71603 0
M  V30 5752 H 904.656 4.797 -7.24003 0
M  V30 5753 H 904.386 3.69856 -5.84513 0
M  V30 5754 H 905.253 6.10356 -5.41441 0
M  V30 5755 P 909.215 7.20834 -5.23717 0
M  V30 5756 O 909.435 8.66189 -5.38625 0
M  V30 5757 O 910.005 6.33615 -6.1356 0
M  V30 5758 O 909.465 6.7751 -3.72168 0
M  V30 5759 C 908.525 7.20732 -2.70725 0
M  V30 5760 C 909.255 7.45864 -1.40599 0
M  V30 5761 O 909.465 6.17651 -0.734225 0
M  V30 5762 C 910.655 8.05808 -1.51899 0
M  V30 5763 O 911.045 8.74358 -0.335205 0
M  V30 5764 C 911.535 6.83093 -1.70294 0
M  V30 5765 C 910.825 5.79992 -0.836974 0
M  V30 5766 N 910.875 4.41769 -1.38263 0
M  V30 5767 C 911.025 3.38591 -0.481702 0
M  V30 5768 O 911.115 3.56839 0.718452 0
M  V30 5769 N 911.065 2.1206 -1.03569 0
M  V30 5770 C 910.975 1.80696 -2.36966 0
M  V30 5771 O 911.025 0.630473 -2.74862 0
M  V30 5772 C 910.825 2.94845 -3.23898 0
M  V30 5773 C 910.715 2.65253 -4.70362 0
M  V30 5774 C 910.775 4.19803 -2.73435 0
M  V30 5775 H 908.035 8.13644 -3.0377 0
M  V30 5776 H 907.766 6.42695 -2.55448 0
M  V30 5777 H 908.633 8.12039 -0.792769 0
M  V30 5778 H 911.288 5.79978 0.160587 0
M  V30 5779 H 911.567 6.51379 -2.75643 0
M  V30 5780 H 912.559 7.01734 -1.34462 0
M  V30 5781 H 910.725 8.73674 -2.38337 0
M  V30 5782 H 910.654 5.04492 -3.4095 0
M  V30 5783 H 911.684 2.83924 -5.1913 0
M  V30 5784 H 909.947 3.29824 -5.15163 0
M  V30 5785 H 910.435 1.59723 -4.84449 0
M  V30 5786 H 911.171 1.35644 -0.399345 0
M  V30 5787 P 912.595 8.91 6.71518e-12 0
M  V30 5788 O 912.815 10.1726 0.733694 0
M  V30 5789 O 913.385 8.73148 -1.23936 0
M  V30 5790 O 912.845 7.66872 0.971405 0
M  V30 5791 C 911.905 7.42309 2.04641 0
M  V30 5792 C 912.635 6.86059 3.24661 0
M  V30 5793 O 912.845 5.42847 3.03646 0
M  V30 5794 C 914.035 7.41196 3.50753 0
M  V30 5795 O 914.425 7.27073 4.86816 0
M  V30 5796 C 914.915 6.5273 2.63741 0
M  V30 5797 C 914.205 5.1842 2.73198 0
M  V30 5798 N 914.255 4.38762 1.4784 0
M  V30 5799 H 911.416 8.36803 2.32493 0
M  V30 5800 H 911.146 6.70197 1.71129 0
M  V30 5801 H 912.013 7.03551 4.13168 0
M  V30 5802 P 915.975 7.20834 5.23717 0
M  V30 5803 O 916.195 7.79853 6.57286 0
M  V30 5804 O 916.765 7.79239 4.12957 0
M  V30 5805 O 916.225 5.63315 5.29344 0
M  V30 5806 C 915.285 4.80255 6.01876 0
M  V30 5807 C 916.015 3.64202 6.65911 0
M  V30 5808 O 916.225 2.60694 5.64732 0
M  V30 5809 C 917.415 3.93473 7.1943 0
M  V30 5810 O 917.805 3.02071 8.21205 0
M  V30 5811 C 918.295 3.73047 5.97036 0
M  V30 5812 C 917.585 2.58828 5.25741 0
M  V30 5813 N 917.635 2.68068 3.77503 0
M  V30 5814 C 917.555 3.79715 2.96723 0
M  V30 5815 N 917.635 3.5377 1.68852 0
M  V30 5816 C 917.775 2.15054 1.63254 0
M  V30 5817 C 917.905 1.28964 0.518571 0
M  V30 5818 O 917.925 1.56826 -0.679156 0
M  V30 5819 N 918.025 -0.0538097 0.918425 0
M  V30 5820 C 918.025 -0.494275 2.22578 0
M  V30 5821 N 918.155 -1.81086 2.40434 0
M  V30 5822 N 917.895 0.313645 3.27502 0
M  V30 5823 C 917.775 1.61829 2.91033 0
M  V30 5824 H 914.796 5.40332 6.79951 0
M  V30 5825 H 914.526 4.41613 5.32378 0
M  V30 5826 H 915.393 3.26331 7.47797 0
M  V30 5827 H 918.048 1.63422 5.56814 0
M  V30 5828 H 918.327 4.63374 5.34244 0
M  V30 5829 H 919.319 3.44728 6.25838 0
M  V30 5830 H 917.485 4.96652 7.57263 0
M  V30 5831 H 917.436 4.80617 3.3614 0
M  V30 5832 H 918.118 -0.742702 0.199384 0
M  V30 5833 H 918.155 -2.20598 3.35588 0
M  V30 5834 H 918.256 -2.43518 1.58945 0
M  V30 5835 P 919.355 2.75334 8.47391 0
M  V30 5836 O 919.575 2.44571 9.90142 0
M  V30 5837 O 920.145 3.87688 7.92115 0
M  V30 5838 O 919.605 1.4459 7.59357 0
M  V30 5839 C 918.665 0.347608 7.69215 0
M  V30 5840 C 919.395 -0.96767 7.52806 0
M  V30 5841 O 919.605 -1.21036 6.1011 0
M  V30 5842 C 920.795 -1.04544 8.13308 0
M  V30 5843 O 921.185 -2.38311 8.41922 0
M  V30 5844 C 921.675 -0.491279 7.02284 0
M  V30 5845 C 920.965 -0.996264 5.77469 0
M  V30 5846 N 921.015 -0.0501916 4.62973 0
M  V30 5847 C 920.935 1.32786 4.63244 0
M  V30 5848 N 921.015 1.86957 3.44545 0
M  V30 5849 C 921.155 0.780241 2.58481 0
M  V30 5850 C 921.285 0.738536 1.17757 0
M  V30 5851 O 921.305 1.66794 0.372349 0
M  V30 5852 N 921.405 -0.58337 0.711393 0
M  V30 5853 C 921.405 -1.70816 1.51017 0
M  V30 5854 N 921.535 -2.87826 0.880757 0
M  V30 5855 N 921.275 -1.67126 2.8339 0
M  V30 5856 C 921.155 -0.401421 3.30572 0
M  V30 5857 H 918.176 0.374722 8.67691 0
M  V30 5858 H 917.906 0.443485 6.90277 0
M  V30 5859 H 918.773 -1.75537 7.96793 0
M  V30 5860 H 921.428 -1.95076 5.46529 0
M  V30 5861 H 921.707 0.608565 7.04577 0
M  V30 5862 H 922.699 -0.889672 7.08939 0
M  V30 5863 H 920.865 -0.43308 9.04564 0
M  V30 5864 H 920.816 1.91249 5.54442 0
M  V30 5865 H 921.498 -0.718054 -0.275244 0
M  V30 5866 H 921.535 -3.75721 1.41832 0
M  V30 5867 H 921.636 -2.90436 -0.145468 0
M  V30 5868 P 922.735 -2.75334 8.47391 0
M  V30 5869 O 922.955 -3.84128 9.44797 0
M  V30 5870 O 923.525 -1.51947 8.68712 0
M  V30 5871 O 922.985 -3.29363 6.99321 0
M  V30 5872 C 922.045 -4.24011 6.4274 0
M  V30 5873 C 922.775 -5.20775 5.52155 0
M  V30 5874 O 922.985 -4.56534 4.22446 0
M  V30 5875 C 924.175 -5.62629 5.96531 0
M  V30 5876 O 924.565 -6.87667 5.41053 0
M  V30 5877 C 925.055 -4.52537 5.39283 0
M  V30 5878 C 924.345 -4.20027 4.08623 0
M  V30 5879 N 924.395 -2.76189 3.71603 0
M  V30 5880 C 924.315 -1.64862 4.52822 0
M  V30 5881 N 924.395 -0.512671 3.88633 0
M  V30 5882 C 924.535 -0.888083 2.54977 0
M  V30 5883 C 924.665 -0.094668 1.38677 0
M  V30 5884 O 924.685 1.13053 1.28163 0
M  V30 5885 N 924.785 -0.890102 0.232633 0
M  V30 5886 C 924.785 -2.26958 0.21772 0
M  V30 5887 N 924.915 -2.84626 -0.97925 0
M  V30 5888 N 924.655 -3.0178 1.31033 0
M  V30 5889 C 924.535 -2.26781 2.43843 0
M  V30 5890 H 921.556 -4.797 7.24003 0
M  V30 5891 H 921.286 -3.69856 5.84513 0
M  V30 5892 H 922.153 -6.10356 5.41441 0
M  V30 5893 H 924.808 -4.79061 3.27488 0
M  V30 5894 H 925.087 -3.64906 6.05785 0
M  V30 5895 H 926.079 -4.8868 5.2125 0
M  V30 5896 H 924.245 -5.66726 7.06352 0
M  V30 5897 H 924.196 -1.71169 5.60966 0
M  V30 5898 H 924.878 -0.419134 -0.644739 0
M  V30 5899 H 924.915 -3.87332 -1.06098 0
M  V30 5900 H 925.016 -2.26417 -1.82483 0
M  V30 5901 P 926.115 -7.20834 5.23717 0
M  V30 5902 O 926.335 -8.66104 5.38572 0
M  V30 5903 O 926.905 -6.33544 6.1349 0
M  V30 5904 O 926.365 -6.7751 3.72168 0
M  V30 5905 C 925.425 -7.20825 2.7076 0
M  V30 5906 C 926.155 -7.45864 1.40599 0
M  V30 5907 O 926.365 -6.17651 0.734225 0
M  V30 5908 C 927.555 -8.05808 1.51899 0
M  V30 5909 O 927.945 -8.74358 0.335205 0
M  V30 5910 C 928.435 -6.83093 1.70294 0
M  V30 5911 C 927.725 -5.79992 0.836974 0
M  V30 5912 N 927.775 -4.41864 1.38293 0
M  V30 5913 H 924.936 -8.13644 3.0377 0
M  V30 5914 H 924.666 -6.42788 2.55485 0
M  V30 5915 H 925.533 -8.12039 0.792769 0
M  V30 5916 P 929.495 -8.91 -6.87236e-12 0
M  V30 5917 O 929.715 -10.1726 -0.733694 0
M  V30 5918 O 930.285 -8.73148 1.23936 0
M  V30 5919 O 929.745 -7.66872 -0.971405 0
M  V30 5920 C 928.805 -7.42309 -2.04641 0
M  V30 5921 C 929.535 -6.86059 -3.24661 0
M  V30 5922 O 929.745 -5.42847 -3.03646 0
M  V30 5923 C 930.935 -7.41196 -3.50753 0
M  V30 5924 O 931.325 -7.27073 -4.86816 0
M  V30 5925 C 931.815 -6.5273 -2.63741 0
M  V30 5926 C 931.105 -5.1842 -2.73198 0
M  V30 5927 N 931.155 -4.38762 -1.4784 0
M  V30 5928 C 931.075 -4.81605 -0.168631 0
M  V30 5929 N 931.155 -3.85454 0.713363 0
M  V30 5930 C 931.295 -2.6994 -0.0566958 0
M  V30 5931 C 931.425 -1.34815 0.338502 0
M  V30 5932 O 931.445 -0.869548 1.47125 0
M  V30 5933 N 931.545 -0.496304 -0.77465 0
M  V30 5934 C 931.545 -0.908403 -2.09122 0
M  V30 5935 N 931.675 0.0517805 -3.00955 0
M  V30 5936 N 931.415 -2.17875 -2.46519 0
M  V30 5937 C 931.295 -3.01988 -1.4033 0
M  V30 5938 H 928.316 -8.36803 -2.32493 0
M  V30 5939 H 928.046 -6.70197 -1.71129 0
M  V30 5940 H 928.913 -7.03551 -4.13168 0
M  V30 5941 H 931.568 -4.59498 -3.54415 0
M  V30 5942 H 931.847 -6.88898 -1.59848 0
M  V30 5943 H 932.839 -6.46749 -3.03687 0
M  V30 5944 H 931.005 -8.46908 -3.20714 0
M  V30 5945 H 930.956 -5.86405 0.105564 0
M  V30 5946 H 931.638 0.483664 -0.597855 0
M  V30 5947 H 931.675 -0.187865 -4.0116 0
M  V30 5948 H 931.776 1.03585 -2.71726 0
M  V30 5949 P 932.874 -7.20834 -5.23717 0
M  V30 5950 O 933.094 -7.80006 -6.57415 0
M  V30 5951 O 933.664 -7.79416 -4.13051 0
M  V30 5952 O 933.124 -5.63315 -5.29344 0
M  V30 5953 C 932.184 -4.80318 -6.01954 0
M  V30 5954 C 932.914 -3.64202 -6.65911 0
M  V30 5955 O 933.124 -2.60736 -5.64823 0
M  V30 5956 C 934.314 -3.93521 -7.19518 0
M  V30 5957 O 934.704 -3.02071 -8.21205 0
M  V30 5958 C 935.194 -3.73047 -5.97036 0
M  V30 5959 C 934.484 -2.58828 -5.25741 0
M  V30 5960 N 934.534 -2.68068 -3.77503 0
M  V30 5961 H 931.696 -5.40394 -6.8003 0
M  V30 5962 H 931.424 -4.41741 -5.32532 0
M  V30 5963 H 932.292 -3.26371 -7.47889 0
M  V30 5964 H 934.947 -1.64007 -5.56746 0
M  V30 5965 H 935.227 -4.63439 -5.3432 0
M  V30 5966 H 936.218 -3.44776 -6.25925 0
M  V30 5967 H 934.384 -4.96707 -7.57347 0
M  V30 5968 P 936.254 -2.75334 -8.47391 0
M  V30 5969 O 936.474 -2.44571 -9.90142 0
M  V30 5970 O 937.044 -3.87688 -7.92115 0
M  V30 5971 O 936.504 -1.4459 -7.59357 0
M  V30 5972 C 935.564 -0.347608 -7.69215 0
M  V30 5973 C 936.294 0.96767 -7.52806 0
M  V30 5974 O 936.504 1.21036 -6.1011 0
M  V30 5975 C 937.694 1.04544 -8.13308 0
M  V30 5976 O 938.084 2.38311 -8.41922 0
M  V30 5977 C 938.574 0.491279 -7.02284 0
M  V30 5978 C 937.864 0.996264 -5.77469 0
M  V30 5979 N 937.914 0.0501916 -4.62973 0
M  V30 5980 C 937.834 -1.32786 -4.63244 0
M  V30 5981 N 937.914 -1.86957 -3.44545 0
M  V30 5982 C 938.054 -0.780241 -2.58481 0
M  V30 5983 C 938.184 -0.738536 -1.17757 0
M  V30 5984 O 938.204 -1.66794 -0.372349 0
M  V30 5985 N 938.304 0.58337 -0.711393 0
M  V30 5986 C 938.304 1.70816 -1.51017 0
M  V30 5987 N 938.434 2.87826 -0.880757 0
M  V30 5988 N 938.174 1.67126 -2.8339 0
M  V30 5989 C 938.054 0.401421 -3.30572 0
M  V30 5990 H 935.075 -0.374722 -8.67691 0
M  V30 5991 H 934.805 -0.443485 -6.90277 0
M  V30 5992 H 935.672 1.75537 -7.96793 0
M  V30 5993 H 938.327 1.95076 -5.46529 0
M  V30 5994 H 938.606 -0.608565 -7.04577 0
M  V30 5995 H 939.598 0.889672 -7.08939 0
M  V30 5996 H 937.764 0.43308 -9.04564 0
M  V30 5997 H 937.715 -1.91249 -5.54442 0
M  V30 5998 H 938.397 0.718054 0.275244 0
M  V30 5999 H 938.434 3.75721 -1.41832 0
M  V30 6000 H 938.535 2.90436 0.145468 0
M  V30 6001 P 939.634 2.75334 -8.47391 0
M  V30 6002 O 939.854 3.84128 -9.44797 0
M  V30 6003 O 940.424 1.51947 -8.68712 0
M  V30 6004 O 939.884 3.29363 -6.99321 0
M  V30 6005 C 938.944 4.24011 -6.4274 0
M  V30 6006 C 939.674 5.20775 -5.52155 0
M  V30 6007 O 939.884 4.56534 -4.22446 0
M  V30 6008 C 941.074 5.62629 -5.96531 0
M  V30 6009 O 941.464 6.87667 -5.41053 0
M  V30 6010 C 941.954 4.52537 -5.39283 0
M  V30 6011 C 941.244 4.20027 -4.08623 0
M  V30 6012 N 941.294 2.76189 -3.71603 0
M  V30 6013 C 941.214 1.64862 -4.52822 0
M  V30 6014 N 941.294 0.512671 -3.88633 0
M  V30 6015 C 941.434 0.888083 -2.54977 0
M  V30 6016 C 941.564 0.094668 -1.38677 0
M  V30 6017 O 941.584 -1.13053 -1.28163 0
M  V30 6018 N 941.684 0.890102 -0.232633 0
M  V30 6019 C 941.684 2.26958 -0.21772 0
M  V30 6020 N 941.814 2.84626 0.97925 0
M  V30 6021 N 941.554 3.0178 -1.31033 0
M  V30 6022 C 941.434 2.26781 -2.43843 0
M  V30 6023 H 938.455 4.797 -7.24003 0
M  V30 6024 H 938.185 3.69856 -5.84513 0
M  V30 6025 H 939.052 6.10356 -5.41441 0
M  V30 6026 H 941.707 4.79061 -3.27488 0
M  V30 6027 H 941.986 3.64906 -6.05785 0
M  V30 6028 H 942.978 4.8868 -5.2125 0
M  V30 6029 H 941.144 5.66726 -7.06352 0
M  V30 6030 H 941.095 1.71169 -5.60966 0
M  V30 6031 H 941.777 0.419134 0.644739 0
M  V30 6032 H 941.814 3.87332 1.06098 0
M  V30 6033 H 941.915 2.26417 1.82483 0
M  V30 6034 P 943.014 7.20834 -5.23717 0
M  V30 6035 O 943.234 8.66104 -5.38572 0
M  V30 6036 O 943.804 6.33544 -6.1349 0
M  V30 6037 O 943.264 6.7751 -3.72168 0
M  V30 6038 C 942.324 7.20825 -2.7076 0
M  V30 6039 C 943.054 7.45864 -1.40599 0
M  V30 6040 O 943.264 6.17651 -0.734225 0
M  V30 6041 C 944.454 8.05808 -1.51899 0
M  V30 6042 O 944.844 8.74358 -0.335205 0
M  V30 6043 C 945.334 6.83093 -1.70294 0
M  V30 6044 C 944.624 5.79992 -0.836974 0
M  V30 6045 N 944.674 4.41864 -1.38293 0
M  V30 6046 H 941.835 8.13644 -3.0377 0
M  V30 6047 H 941.565 6.42788 -2.55485 0
M  V30 6048 H 942.432 8.12039 -0.792769 0
M  V30 6049 P 946.394 8.91 7.02954e-12 0
M  V30 6050 O 946.614 10.1726 0.733694 0
M  V30 6051 O 947.184 8.73148 -1.23936 0
M  V30 6052 O 946.644 7.66872 0.971405 0
M  V30 6053 C 945.704 7.42309 2.04641 0
M  V30 6054 C 946.434 6.86059 3.24661 0
M  V30 6055 O 946.644 5.42847 3.03646 0
M  V30 6056 C 947.834 7.41196 3.50753 0
M  V30 6057 O 948.224 7.27073 4.86816 0
M  V30 6058 C 948.714 6.5273 2.63741 0
M  V30 6059 C 948.004 5.1842 2.73198 0
M  V30 6060 N 948.054 4.38762 1.4784 0
M  V30 6061 C 947.974 4.81605 0.168631 0
M  V30 6062 N 948.054 3.85454 -0.713363 0
M  V30 6063 C 948.194 2.6994 0.0566958 0
M  V30 6064 C 948.324 1.34815 -0.338502 0
M  V30 6065 O 948.344 0.869548 -1.47125 0
M  V30 6066 N 948.444 0.496304 0.77465 0
M  V30 6067 C 948.444 0.908403 2.09122 0
M  V30 6068 N 948.574 -0.0517805 3.00955 0
M  V30 6069 N 948.314 2.17875 2.46519 0
M  V30 6070 C 948.194 3.01988 1.4033 0
M  V30 6071 H 945.215 8.36803 2.32493 0
M  V30 6072 H 944.945 6.70197 1.71129 0
M  V30 6073 H 945.812 7.03551 4.13168 0
M  V30 6074 H 948.467 4.59498 3.54415 0
M  V30 6075 H 948.746 6.88898 1.59848 0
M  V30 6076 H 949.738 6.46749 3.03687 0
M  V30 6077 H 947.904 8.46908 3.20714 0
M  V30 6078 H 947.855 5.86405 -0.105564 0
M  V30 6079 H 948.537 -0.483664 0.597855 0
M  V30 6080 H 948.574 0.187865 4.0116 0
M  V30 6081 H 948.675 -1.03585 2.71726 0
M  V30 6082 P 949.774 7.20834 5.23717 0
M  V30 6083 O 949.994 7.80006 6.57415 0
M  V30 6084 O 950.564 7.79416 4.13051 0
M  V30 6085 O 950.024 5.63315 5.29344 0
M  V30 6086 C 949.084 4.80318 6.01954 0
M  V30 6087 C 949.814 3.64202 6.65911 0
M  V30 6088 O 950.024 2.60736 5.64823 0
M  V30 6089 C 951.214 3.93521 7.19518 0
M  V30 6090 O 951.604 3.02071 8.21205 0
M  V30 6091 C 952.094 3.73047 5.97036 0
M  V30 6092 C 951.384 2.58828 5.25741 0
M  V30 6093 N 951.434 2.68068 3.77503 0
M  V30 6094 H 948.596 5.40394 6.8003 0
M  V30 6095 H 948.324 4.41741 5.32532 0
M  V30 6096 H 949.192 3.26371 7.47889 0
M  V30 6097 H 951.847 1.64007 5.56746 0
M  V30 6098 H 952.127 4.63439 5.3432 0
M  V30 6099 H 953.118 3.44776 6.25925 0
M  V30 6100 H 951.284 4.96707 7.57347 0
M  V30 6101 P 953.154 2.75334 8.47391 0
M  V30 6102 O 953.374 2.44571 9.90142 0
M  V30 6103 O 953.944 3.87688 7.92115 0
M  V30 6104 O 953.404 1.4459 7.59357 0
M  V30 6105 C 952.464 0.347608 7.69215 0
M  V30 6106 C 953.194 -0.96767 7.52806 0
M  V30 6107 O 953.404 -1.21036 6.1011 0
M  V30 6108 C 954.594 -1.04544 8.13308 0
M  V30 6109 O 954.984 -2.38311 8.41922 0
M  V30 6110 C 955.474 -0.491279 7.02284 0
M  V30 6111 C 954.764 -0.996264 5.77469 0
M  V30 6112 N 954.814 -0.0501916 4.62973 0
M  V30 6113 C 954.734 1.32786 4.63244 0
M  V30 6114 N 954.814 1.86957 3.44545 0
M  V30 6115 C 954.954 0.780241 2.58481 0
M  V30 6116 C 955.084 0.738536 1.17757 0
M  V30 6117 O 955.104 1.66794 0.372349 0
M  V30 6118 N 955.204 -0.58337 0.711393 0
M  V30 6119 C 955.204 -1.70816 1.51017 0
M  V30 6120 N 955.334 -2.87826 0.880757 0
M  V30 6121 N 955.074 -1.67126 2.8339 0
M  V30 6122 C 954.954 -0.401421 3.30572 0
M  V30 6123 H 951.975 0.374722 8.67691 0
M  V30 6124 H 951.705 0.443485 6.90277 0
M  V30 6125 H 952.572 -1.75537 7.96793 0
M  V30 6126 H 955.227 -1.95076 5.46529 0
M  V30 6127 H 955.506 0.608565 7.04577 0
M  V30 6128 H 956.498 -0.889672 7.08939 0
M  V30 6129 H 954.664 -0.43308 9.04564 0
M  V30 6130 H 954.615 1.91249 5.54442 0
M  V30 6131 H 955.297 -0.718054 -0.275244 0
M  V30 6132 H 955.334 -3.75721 1.41832 0
M  V30 6133 H 955.435 -2.90436 -0.145468 0
M  V30 6134 P 956.534 -2.75334 8.47391 0
M  V30 6135 O 956.754 -3.84128 9.44797 0
M  V30 6136 O 957.324 -1.51947 8.68712 0
M  V30 6137 O 956.784 -3.29363 6.99321 0
M  V30 6138 C 955.844 -4.24011 6.4274 0
M  V30 6139 C 956.574 -5.20775 5.52155 0
M  V30 6140 O 956.784 -4.56534 4.22446 0
M  V30 6141 C 957.974 -5.62629 5.96531 0
M  V30 6142 O 958.364 -6.87667 5.41053 0
M  V30 6143 C 958.854 -4.52537 5.39283 0
M  V30 6144 C 958.144 -4.20027 4.08623 0
M  V30 6145 N 958.194 -2.76189 3.71603 0
M  V30 6146 C 958.114 -1.64862 4.52822 0
M  V30 6147 N 958.194 -0.512671 3.88633 0
M  V30 6148 C 958.334 -0.888083 2.54977 0
M  V30 6149 C 958.464 -0.094668 1.38677 0
M  V30 6150 O 958.484 1.13053 1.28163 0
M  V30 6151 N 958.584 -0.890102 0.232633 0
M  V30 6152 C 958.584 -2.26958 0.21772 0
M  V30 6153 N 958.714 -2.84626 -0.97925 0
M  V30 6154 N 958.454 -3.0178 1.31033 0
M  V30 6155 C 958.334 -2.26781 2.43843 0
M  V30 6156 H 955.355 -4.797 7.24003 0
M  V30 6157 H 955.085 -3.69856 5.84513 0
M  V30 6158 H 955.952 -6.10356 5.41441 0
M  V30 6159 H 958.607 -4.79061 3.27488 0
M  V30 6160 H 958.886 -3.64906 6.05785 0
M  V30 6161 H 959.878 -4.8868 5.2125 0
M  V30 6162 H 958.044 -5.66726 7.06352 0
M  V30 6163 H 957.995 -1.71169 5.60966 0
M  V30 6164 H 958.677 -0.419134 -0.644739 0
M  V30 6165 H 958.714 -3.87332 -1.06098 0
M  V30 6166 H 958.815 -2.26417 -1.82483 0
M  V30 6167 P 959.914 -7.20834 5.23717 0
M  V30 6168 O 960.134 -8.66189 5.38625 0
M  V30 6169 O 960.704 -6.33615 6.1356 0
M  V30 6170 O 960.164 -6.7751 3.72168 0
M  V30 6171 C 959.224 -7.20732 2.70725 0
M  V30 6172 C 959.954 -7.45864 1.40599 0
M  V30 6173 O 960.164 -6.17651 0.734225 0
M  V30 6174 C 961.354 -8.05808 1.51899 0
M  V30 6175 O 961.744 -8.74358 0.335205 0
M  V30 6176 C 962.234 -6.83093 1.70294 0
M  V30 6177 C 961.524 -5.79992 0.836974 0
M  V30 6178 N 961.574 -4.41769 1.38263 0
M  V30 6179 C 961.724 -3.38591 0.481702 0
M  V30 6180 O 961.814 -3.56839 -0.718452 0
M  V30 6181 N 961.764 -2.1206 1.03569 0
M  V30 6182 C 961.674 -1.80696 2.36966 0
M  V30 6183 C 961.524 -2.94845 3.23898 0
M  V30 6184 C 961.474 -4.19803 2.73435 0
M  V30 6185 H 958.734 -8.13644 3.0377 0
M  V30 6186 H 958.465 -6.42695 2.55448 0
M  V30 6187 H 959.332 -8.12039 0.792769 0
M  V30 6188 H 961.987 -5.79978 -0.160587 0
M  V30 6189 H 962.266 -6.51379 2.75643 0
M  V30 6190 H 963.258 -7.01734 1.34462 0
M  V30 6191 H 961.424 -8.73674 2.38337 0
M  V30 6192 H 961.353 -5.04492 3.4095 0
M  V30 6193 P 963.294 -8.91 -7.18673e-12 0
M  V30 6194 O 963.514 -10.1726 -0.733694 0
M  V30 6195 O 964.084 -8.73148 1.23936 0
M  V30 6196 O 963.544 -7.66872 -0.971405 0
M  V30 6197 C 962.604 -7.42309 -2.04641 0
M  V30 6198 C 963.334 -6.86059 -3.24661 0
M  V30 6199 O 963.544 -5.42847 -3.03646 0
M  V30 6200 C 964.734 -7.41196 -3.50753 0
M  V30 6201 O 965.124 -7.27073 -4.86816 0
M  V30 6202 C 965.614 -6.5273 -2.63741 0
M  V30 6203 C 964.904 -5.1842 -2.73198 0
M  V30 6204 N 964.954 -4.38762 -1.4784 0
M  V30 6205 C 964.874 -4.81605 -0.168631 0
M  V30 6206 N 964.954 -3.85454 0.713363 0
M  V30 6207 C 965.094 -2.6994 -0.0566958 0
M  V30 6208 C 965.224 -1.34815 0.338502 0
M  V30 6209 O 965.244 -0.869548 1.47125 0
M  V30 6210 N 965.344 -0.496304 -0.77465 0
M  V30 6211 C 965.344 -0.908403 -2.09122 0
M  V30 6212 N 965.474 0.0517805 -3.00955 0
M  V30 6213 N 965.214 -2.17875 -2.46519 0
M  V30 6214 C 965.094 -3.01988 -1.4033 0
M  V30 6215 H 962.115 -8.36803 -2.32493 0
M  V30 6216 H 961.845 -6.70197 -1.71129 0
M  V30 6217 H 962.712 -7.03551 -4.13168 0
M  V30 6218 H 965.367 -4.59498 -3.54415 0
M  V30 6219 H 965.646 -6.88898 -1.59848 0
M  V30 6220 H 966.638 -6.46749 -3.03687 0
M  V30 6221 H 964.804 -8.46908 -3.20714 0
M  V30 6222 H 964.755 -5.86405 0.105564 0
M  V30 6223 H 965.437 0.483664 -0.597855 0
M  V30 6224 H 965.474 -0.187865 -4.0116 0
M  V30 6225 H 965.575 1.03585 -2.71726 0
M  V30 6226 P 966.674 -7.20834 -5.23717 0
M  V30 6227 O 966.894 -7.79853 -6.57286 0
M  V30 6228 O 967.464 -7.79239 -4.12957 0
M  V30 6229 O 966.924 -5.63315 -5.29344 0
M  V30 6230 C 965.984 -4.80255 -6.01876 0
M  V30 6231 C 966.714 -3.64202 -6.65911 0
M  V30 6232 O 966.924 -2.60694 -5.64732 0
M  V30 6233 C 968.114 -3.93473 -7.1943 0
M  V30 6234 O 968.504 -3.02071 -8.21205 0
M  V30 6235 C 968.994 -3.73047 -5.97036 0
M  V30 6236 C 968.284 -2.58828 -5.25741 0
M  V30 6237 N 968.334 -2.68068 -3.77503 0
M  V30 6238 C 968.254 -3.79715 -2.96723 0
M  V30 6239 N 968.334 -3.5377 -1.68852 0
M  V30 6240 C 968.474 -2.15054 -1.63254 0
M  V30 6241 C 968.604 -1.28964 -0.518571 0
M  V30 6242 N 968.724 0.0538097 -0.918425 0
M  V30 6243 C 968.724 0.494275 -2.22578 0
M  V30 6244 N 968.854 1.81086 -2.40434 0
M  V30 6245 N 968.594 -0.313645 -3.27502 0
M  V30 6246 C 968.474 -1.61829 -2.91033 0
M  V30 6247 H 965.495 -5.40332 -6.79951 0
M  V30 6248 H 965.225 -4.41613 -5.32378 0
M  V30 6249 H 966.092 -3.26331 -7.47797 0
M  V30 6250 P 970.054 -2.75334 -8.47391 0
M  V30 6251 O 970.274 -2.44571 -9.90142 0
M  V30 6252 O 970.844 -3.87688 -7.92115 0
M  V30 6253 O 970.304 -1.4459 -7.59357 0
M  V30 6254 C 969.364 -0.347608 -7.69215 0
M  V30 6255 C 970.094 0.96767 -7.52806 0
M  V30 6256 O 970.304 1.21036 -6.1011 0
M  V30 6257 C 971.494 1.04544 -8.13308 0
M  V30 6258 O 971.884 2.38311 -8.41922 0
M  V30 6259 C 972.374 0.491279 -7.02284 0
M  V30 6260 C 971.664 0.996264 -5.77469 0
M  V30 6261 N 971.714 0.0501916 -4.62973 0
M  V30 6262 H 968.875 -0.374722 -8.67691 0
M  V30 6263 H 968.605 -0.443485 -6.90277 0
M  V30 6264 H 969.472 1.75537 -7.96793 0
M  V30 6265 P 973.434 2.75334 -8.47391 0
M  V30 6266 O 973.654 3.84128 -9.44797 0
M  V30 6267 O 974.224 1.51947 -8.68712 0
M  V30 6268 O 973.684 3.29363 -6.99321 0
M  V30 6269 C 972.744 4.24011 -6.4274 0
M  V30 6270 C 973.474 5.20775 -5.52155 0
M  V30 6271 O 973.684 4.56534 -4.22446 0
M  V30 6272 C 974.874 5.62629 -5.96531 0
M  V30 6273 O 975.264 6.87667 -5.41053 0
M  V30 6274 C 975.754 4.52537 -5.39283 0
M  V30 6275 C 975.044 4.20027 -4.08623 0
M  V30 6276 N 975.094 2.76189 -3.71603 0
M  V30 6277 C 975.014 1.64862 -4.52822 0
M  V30 6278 N 975.094 0.512671 -3.88633 0
M  V30 6279 C 975.234 0.888083 -2.54977 0
M  V30 6280 C 975.364 0.094668 -1.38677 0
M  V30 6281 O 975.384 -1.13053 -1.28163 0
M  V30 6282 N 975.484 0.890102 -0.232633 0
M  V30 6283 C 975.484 2.26958 -0.21772 0
M  V30 6284 N 975.614 2.84626 0.97925 0
M  V30 6285 N 975.354 3.0178 -1.31033 0
M  V30 6286 C 975.234 2.26781 -2.43843 0
M  V30 6287 H 972.255 4.797 -7.24003 0
M  V30 6288 H 971.985 3.69856 -5.84513 0
M  V30 6289 H 972.852 6.10356 -5.41441 0
M  V30 6290 H 975.507 4.79061 -3.27488 0
M  V30 6291 H 975.786 3.64906 -6.05785 0
M  V30 6292 H 976.778 4.8868 -5.2125 0
M  V30 6293 H 974.944 5.66726 -7.06352 0
M  V30 6294 H 974.895 1.71169 -5.60966 0
M  V30 6295 H 975.577 0.419134 0.644739 0
M  V30 6296 H 975.614 3.87332 1.06098 0
M  V30 6297 H 975.715 2.26417 1.82483 0
M  V30 6298 P 976.814 7.20834 -5.23717 0
M  V30 6299 O 977.034 8.66274 -5.38678 0
M  V30 6300 O 977.604 6.33687 -6.13629 0
M  V30 6301 O 977.064 6.7751 -3.72168 0
M  V30 6302 C 976.124 7.20919 -2.70795 0
M  V30 6303 C 976.854 7.45864 -1.40599 0
M  V30 6304 O 977.064 6.17751 -0.734343 0
M  V30 6305 C 978.254 8.05906 -1.51917 0
M  V30 6306 O 978.644 8.74358 -0.335205 0
M  V30 6307 C 979.134 6.83093 -1.70294 0
M  V30 6308 C 978.424 5.79992 -0.836974 0
M  V30 6309 N 978.474 4.41864 -1.38293 0
M  V30 6310 H 975.636 8.13738 -3.03804 0
M  V30 6311 H 975.364 6.42974 -2.55559 0
M  V30 6312 H 976.232 8.12139 -0.792866 0
M  V30 6313 H 978.887 5.80178 0.160643 0
M  V30 6314 H 979.167 6.51379 -2.75643 0
M  V30 6315 H 980.158 7.01832 -1.3448 0
M  V30 6316 H 978.324 8.73771 -2.38364 0
M  V30 6317 P 980.194 8.91 7.34391e-12 0
M  V30 6318 O 980.414 10.1726 0.733694 0
M  V30 6319 O 980.984 8.73148 -1.23936 0
M  V30 6320 O 980.444 7.66872 0.971405 0
M  V30 6321 C 979.504 7.42309 2.04641 0
M  V30 6322 C 980.234 6.86059 3.24661 0
M  V30 6323 O 980.444 5.42847 3.03646 0
M  V30 6324 C 981.634 7.41196 3.50753 0
M  V30 6325 O 982.024 7.27073 4.86816 0
M  V30 6326 C 982.514 6.5273 2.63741 0
M  V30 6327 C 981.804 5.1842 2.73198 0
M  V30 6328 N 981.854 4.38762 1.4784 0
M  V30 6329 H 979.015 8.36803 2.32493 0
M  V30 6330 H 978.745 6.70197 1.71129 0
M  V30 6331 H 979.612 7.03551 4.13168 0
M  V30 6332 P 983.574 7.20834 5.23717 0
M  V30 6333 O 983.794 7.79853 6.57286 0
M  V30 6334 O 984.364 7.79239 4.12957 0
M  V30 6335 O 983.824 5.63315 5.29344 0
M  V30 6336 C 982.884 4.80255 6.01876 0
M  V30 6337 C 983.614 3.64202 6.65911 0
M  V30 6338 O 983.824 2.60694 5.64732 0
M  V30 6339 C 985.014 3.93473 7.1943 0
M  V30 6340 O 985.404 3.02071 8.21205 0
M  V30 6341 C 985.894 3.73047 5.97036 0
M  V30 6342 C 985.184 2.58828 5.25741 0
M  V30 6343 N 985.234 2.68068 3.77503 0
M  V30 6344 H 982.395 5.40332 6.79951 0
M  V30 6345 H 982.125 4.41613 5.32378 0
M  V30 6346 H 982.992 3.26331 7.47797 0
M  V30 6347 P 986.954 2.75334 8.47391 0
M  V30 6348 O 987.174 2.44571 9.90142 0
M  V30 6349 O 987.744 3.87688 7.92115 0
M  V30 6350 O 987.204 1.4459 7.59357 0
M  V30 6351 C 986.264 0.347608 7.69215 0
M  V30 6352 C 986.994 -0.96767 7.52806 0
M  V30 6353 O 987.204 -1.21036 6.1011 0
M  V30 6354 C 988.394 -1.04544 8.13308 0
M  V30 6355 O 988.784 -2.38311 8.41922 0
M  V30 6356 C 989.274 -0.491279 7.02284 0
M  V30 6357 C 988.564 -0.996264 5.77469 0
M  V30 6358 N 988.614 -0.0501916 4.62973 0
M  V30 6359 H 985.775 0.374722 8.67691 0
M  V30 6360 H 985.505 0.443485 6.90277 0
M  V30 6361 H 986.372 -1.75537 7.96793 0
M  V30 6362 P 990.334 -2.75334 8.47391 0
M  V30 6363 O 990.554 -3.84128 9.44797 0
M  V30 6364 O 991.124 -1.51947 8.68712 0
M  V30 6365 O 990.584 -3.29363 6.99321 0
M  V30 6366 C 989.644 -4.24011 6.4274 0
M  V30 6367 C 990.374 -5.20775 5.52155 0
M  V30 6368 O 990.584 -4.56534 4.22446 0
M  V30 6369 C 991.774 -5.62629 5.96531 0
M  V30 6370 O 992.164 -6.87667 5.41053 0
M  V30 6371 C 992.654 -4.52537 5.39283 0
M  V30 6372 C 991.944 -4.20027 4.08623 0
M  V30 6373 N 991.994 -2.76189 3.71603 0
M  V30 6374 C 991.914 -1.64862 4.52822 0
M  V30 6375 N 991.994 -0.512671 3.88633 0
M  V30 6376 C 992.134 -0.888083 2.54977 0
M  V30 6377 C 992.264 -0.094668 1.38677 0
M  V30 6378 O 992.284 1.13053 1.28163 0
M  V30 6379 N 992.384 -0.890102 0.232633 0
M  V30 6380 C 992.384 -2.26958 0.21772 0
M  V30 6381 N 992.514 -2.84626 -0.97925 0
M  V30 6382 N 992.254 -3.0178 1.31033 0
M  V30 6383 C 992.134 -2.26781 2.43843 0
M  V30 6384 H 989.155 -4.797 7.24003 0
M  V30 6385 H 988.885 -3.69856 5.84513 0
M  V30 6386 H 989.752 -6.10356 5.41441 0
M  V30 6387 H 992.407 -4.79061 3.27488 0
M  V30 6388 H 992.686 -3.64906 6.05785 0
M  V30 6389 H 993.678 -4.8868 5.2125 0
M  V30 6390 H 991.844 -5.66726 7.06352 0
M  V30 6391 H 991.795 -1.71169 5.60966 0
M  V30 6392 H 992.477 -0.419134 -0.644739 0
M  V30 6393 H 992.514 -3.87332 -1.06098 0
M  V30 6394 H 992.615 -2.26417 -1.82483 0
M  V30 6395 P 993.714 -7.20834 5.23717 0
M  V30 6396 O 993.934 -8.66104 5.38572 0
M  V30 6397 O 994.504 -6.33544 6.1349 0
M  V30 6398 O 993.964 -6.7751 3.72168 0
M  V30 6399 C 993.024 -7.20825 2.7076 0
M  V30 6400 C 993.754 -7.45864 1.40599 0
M  V30 6401 O 993.964 -6.17651 0.734225 0
M  V30 6402 C 995.154 -8.05808 1.51899 0
M  V30 6403 O 995.544 -8.74358 0.335205 0
M  V30 6404 C 996.034 -6.83093 1.70294 0
M  V30 6405 C 995.324 -5.79992 0.836974 0
M  V30 6406 N 995.374 -4.41864 1.38293 0
M  V30 6407 C 995.294 -3.99538 2.69438 0
M  V30 6408 N 995.374 -2.69909 2.84277 0
M  V30 6409 C 995.514 -2.21719 1.5408 0
M  V30 6410 C 995.644 -0.891712 1.06628 0
M  V30 6411 O 995.664 0.161298 1.70137 0
M  V30 6412 N 995.764 -0.856846 -0.334985 0
M  V30 6413 C 995.764 -1.9641 -1.15789 0
M  V30 6414 N 995.894 -1.72708 -2.46522 0
M  V30 6415 N 995.634 -3.21165 -0.713741 0
M  V30 6416 C 995.514 -3.26797 0.639748 0
M  V30 6417 H 992.535 -8.13644 3.0377 0
M  V30 6418 H 992.265 -6.42788 2.55485 0
M  V30 6419 H 993.132 -8.12039 0.792769 0
M  V30 6420 H 995.787 -5.80061 -0.166416 0
M  V30 6421 H 996.066 -6.51287 2.75604 0
M  V30 6422 H 997.058 -7.01734 1.34462 0
M  V30 6423 H 995.224 -8.73674 2.38337 0
M  V30 6424 H 995.175 -4.68207 3.53221 0
M  V30 6425 H 995.857 0.0398818 -0.767965 0
M  V30 6426 H 995.894 -2.50995 -3.13503 0
M  V30 6427 H 995.995 -0.759148 -2.80716 0
M  V30 6428 P 997.094 -8.91 -7.50109e-12 0
M  V30 6429 O 997.314 -10.1736 -0.733766 0
M  V30 6430 O 997.884 -8.73247 1.2395 0
M  V30 6431 O 997.344 -7.66872 -0.971405 0
M  V30 6432 C 996.404 -7.42212 -2.04614 0
M  V30 6433 C 997.134 -6.86059 -3.24661 0
M  V30 6434 O 997.344 -5.42847 -3.03646 0
M  V30 6435 C 998.534 -7.41196 -3.50753 0
M  V30 6436 O 998.924 -7.27073 -4.86816 0
M  V30 6437 C 999.414 -6.5273 -2.63741 0
M  V30 6438 C 998.704 -5.1842 -2.73198 0
M  V30 6439 N 998.754 -4.38668 -1.47808 0
M  V30 6440 C 998.904 -3.02239 -1.60048 0
M  V30 6441 O 998.994 -2.46459 -2.67869 0
M  V30 6442 N 998.944 -2.32436 -0.408571 0
M  V30 6443 C 998.854 -2.85471 0.854993 0
M  V30 6444 C 998.704 -4.28918 0.887335 0
M  V30 6445 C 998.654 -5.00349 -0.255399 0
M  V30 6446 H 995.914 -8.36803 -2.32493 0
M  V30 6447 H 995.645 -6.701 -1.71105 0
M  V30 6448 H 996.512 -7.03551 -4.13168 0
M  V30 6449 H 999.167 -4.59773 -3.53894 0
M  V30 6450 H 999.446 -6.88995 -1.59871 0
M  V30 6451 H 1000.44 -6.46749 -3.03687 0
M  V30 6452 H 998.604 -8.46908 -3.20714 0
M  V30 6453 H 998.533 -6.08548 -0.206986 0
M  V30 6454 P 1000.47 -7.20834 -5.23717 0
M  V30 6455 O 1000.69 -7.79853 -6.57286 0
M  V30 6456 O 1001.26 -7.79239 -4.12957 0
M  V30 6457 O 1000.72 -5.63315 -5.29344 0
M  V30 6458 C 999.784 -4.80255 -6.01876 0
M  V30 6459 C 1000.51 -3.64202 -6.65911 0
M  V30 6460 O 1000.72 -2.60694 -5.64732 0
M  V30 6461 C 1001.91 -3.93473 -7.1943 0
M  V30 6462 O 1002.3 -3.02071 -8.21205 0
M  V30 6463 C 1002.79 -3.73047 -5.97036 0
M  V30 6464 C 1002.08 -2.58828 -5.25741 0
M  V30 6465 N 1002.13 -2.68068 -3.77503 0
M  V30 6466 C 1002.05 -3.79715 -2.96723 0
M  V30 6467 N 1002.13 -3.5377 -1.68852 0
M  V30 6468 C 1002.27 -2.15054 -1.63254 0
M  V30 6469 C 1002.4 -1.28964 -0.518571 0
M  V30 6470 O 1002.42 -1.56826 0.679156 0
M  V30 6471 N 1002.52 0.0538097 -0.918425 0
M  V30 6472 C 1002.52 0.494275 -2.22578 0
M  V30 6473 N 1002.65 1.81086 -2.40434 0
M  V30 6474 N 1002.39 -0.313645 -3.27502 0
M  V30 6475 C 1002.27 -1.61829 -2.91033 0
M  V30 6476 H 999.295 -5.40332 -6.79951 0
M  V30 6477 H 999.025 -4.41613 -5.32378 0
M  V30 6478 H 999.892 -3.26331 -7.47797 0
M  V30 6479 H 1002.55 -1.63422 -5.56814 0
M  V30 6480 H 1002.83 -4.63374 -5.34244 0
M  V30 6481 H 1003.82 -3.44728 -6.25838 0
M  V30 6482 H 1001.98 -4.96652 -7.57263 0
M  V30 6483 H 1001.94 -4.80617 -3.3614 0
M  V30 6484 H 1002.62 0.742702 -0.199384 0
M  V30 6485 H 1002.65 2.20598 -3.35588 0
M  V30 6486 H 1002.76 2.43518 -1.58945 0
M  V30 6487 P 1003.85 -2.75334 -8.47391 0
M  V30 6488 O 1004.07 -2.44571 -9.90142 0
M  V30 6489 O 1004.64 -3.87688 -7.92115 0
M  V30 6490 O 1004.1 -1.4459 -7.59357 0
M  V30 6491 C 1003.16 -0.347608 -7.69215 0
M  V30 6492 C 1003.89 0.96767 -7.52806 0
M  V30 6493 O 1004.1 1.21036 -6.1011 0
M  V30 6494 C 1005.29 1.04544 -8.13308 0
M  V30 6495 O 1005.68 2.38311 -8.41922 0
M  V30 6496 C 1006.17 0.491279 -7.02284 0
M  V30 6497 C 1005.46 0.996264 -5.77469 0
M  V30 6498 N 1005.51 0.0501916 -4.62973 0
M  V30 6499 H 1002.68 -0.374722 -8.67691 0
M  V30 6500 H 1002.41 -0.443485 -6.90277 0
M  V30 6501 H 1003.27 1.75537 -7.96793 0
M  V30 6502 P 1007.23 2.75334 -8.47391 0
M  V30 6503 O 1007.45 3.84128 -9.44797 0
M  V30 6504 O 1008.02 1.51947 -8.68712 0
M  V30 6505 O 1007.48 3.29363 -6.99321 0
M  V30 6506 C 1006.54 4.24011 -6.4274 0
M  V30 6507 C 1007.27 5.20775 -5.52155 0
M  V30 6508 O 1007.48 4.56534 -4.22446 0
M  V30 6509 C 1008.67 5.62629 -5.96531 0
M  V30 6510 O 1009.06 6.87667 -5.41053 0
M  V30 6511 C 1009.55 4.52537 -5.39283 0
M  V30 6512 C 1008.84 4.20027 -4.08623 0
M  V30 6513 N 1008.89 2.76189 -3.71603 0
M  V30 6514 H 1006.06 4.797 -7.24003 0
M  V30 6515 H 1005.79 3.69856 -5.84513 0
M  V30 6516 H 1006.65 6.10356 -5.41441 0
M  V30 6517 P 1010.61 7.20834 -5.23717 0
M  V30 6518 O 1010.83 8.66104 -5.38572 0
M  V30 6519 O 1011.4 6.33544 -6.1349 0
M  V30 6520 O 1010.86 6.7751 -3.72168 0
M  V30 6521 C 1009.92 7.20825 -2.7076 0
M  V30 6522 C 1010.65 7.45864 -1.40599 0
M  V30 6523 O 1010.86 6.17651 -0.734225 0
M  V30 6524 C 1012.05 8.05808 -1.51899 0
M  V30 6525 O 1012.44 8.74358 -0.335205 0
M  V30 6526 C 1012.93 6.83093 -1.70294 0
M  V30 6527 C 1012.22 5.79992 -0.836974 0
M  V30 6528 N 1012.27 4.41864 -1.38293 0
M  V30 6529 C 1012.19 3.99538 -2.69438 0
M  V30 6530 N 1012.27 2.69909 -2.84277 0
M  V30 6531 C 1012.41 2.21719 -1.5408 0
M  V30 6532 C 1012.54 0.891712 -1.06628 0
M  V30 6533 O 1012.56 -0.161298 -1.70137 0
M  V30 6534 N 1012.66 0.856846 0.334985 0
M  V30 6535 C 1012.66 1.9641 1.15789 0
M  V30 6536 N 1012.79 1.72708 2.46522 0
M  V30 6537 N 1012.53 3.21165 0.713741 0
M  V30 6538 C 1012.41 3.26797 -0.639748 0
M  V30 6539 H 1009.44 8.13644 -3.0377 0
M  V30 6540 H 1009.17 6.42788 -2.55485 0
M  V30 6541 H 1010.03 8.12039 -0.792769 0
M  V30 6542 H 1012.69 5.80061 0.166416 0
M  V30 6543 H 1012.97 6.51287 -2.75604 0
M  V30 6544 H 1013.96 7.01734 -1.34462 0
M  V30 6545 H 1012.12 8.73674 -2.38337 0
M  V30 6546 H 1012.08 4.68207 -3.53221 0
M  V30 6547 H 1012.76 -0.0398818 0.767965 0
M  V30 6548 H 1012.79 2.50995 3.13503 0
M  V30 6549 H 1012.9 0.759148 2.80716 0
M  V30 6550 P 1013.99 8.91 7.65827e-12 0
M  V30 6551 O 1014.21 10.1726 0.733694 0
M  V30 6552 O 1014.78 8.73148 -1.23936 0
M  V30 6553 O 1014.24 7.66872 0.971405 0
M  V30 6554 C 1013.3 7.42309 2.04641 0
M  V30 6555 C 1014.03 6.86059 3.24661 0
M  V30 6556 O 1014.24 5.42847 3.03646 0
M  V30 6557 C 1015.43 7.41196 3.50753 0
M  V30 6558 O 1015.82 7.27073 4.86816 0
M  V30 6559 C 1016.31 6.5273 2.63741 0
M  V30 6560 C 1015.6 5.1842 2.73198 0
M  V30 6561 N 1015.65 4.38762 1.4784 0
M  V30 6562 C 1015.57 4.81605 0.168631 0
M  V30 6563 N 1015.65 3.85454 -0.713363 0
M  V30 6564 C 1015.79 2.6994 0.0566958 0
M  V30 6565 C 1015.92 1.34815 -0.338502 0
M  V30 6566 N 1016.04 0.496304 0.77465 0
M  V30 6567 C 1016.04 0.908403 2.09122 0
M  V30 6568 N 1016.17 -0.0517805 3.00955 0
M  V30 6569 N 1015.91 2.17875 2.46519 0
M  V30 6570 C 1015.79 3.01988 1.4033 0
M  V30 6571 H 1012.82 8.36803 2.32493 0
M  V30 6572 H 1012.55 6.70197 1.71129 0
M  V30 6573 H 1013.41 7.03551 4.13168 0
M  V30 6574 P 1017.37 7.20834 5.23717 0
M  V30 6575 O 1017.59 7.80006 6.57415 0
M  V30 6576 O 1018.16 7.79416 4.13051 0
M  V30 6577 O 1017.62 5.63315 5.29344 0
M  V30 6578 C 1016.68 4.80318 6.01954 0
M  V30 6579 C 1017.41 3.64202 6.65911 0
M  V30 6580 O 1017.62 2.60736 5.64823 0
M  V30 6581 C 1018.81 3.93521 7.19518 0
M  V30 6582 O 1019.2 3.02071 8.21205 0
M  V30 6583 C 1019.69 3.73047 5.97036 0
M  V30 6584 C 1018.98 2.58828 5.25741 0
M  V30 6585 N 1019.03 2.68068 3.77503 0
M  V30 6586 H 1016.2 5.40394 6.8003 0
M  V30 6587 H 1015.92 4.41741 5.32532 0
M  V30 6588 H 1016.79 3.26371 7.47889 0
M  V30 6589 H 1019.45 1.64007 5.56746 0
M  V30 6590 H 1019.73 4.63439 5.3432 0
M  V30 6591 H 1020.72 3.44776 6.25925 0
M  V30 6592 H 1018.88 4.96707 7.57347 0
M  V30 6593 P 1020.75 2.75334 8.47391 0
M  V30 6594 O 1020.97 2.44571 9.90142 0
M  V30 6595 O 1021.54 3.87688 7.92115 0
M  V30 6596 O 1021 1.4459 7.59357 0
M  V30 6597 C 1020.06 0.347608 7.69215 0
M  V30 6598 C 1020.79 -0.96767 7.52806 0
M  V30 6599 O 1021 -1.21036 6.1011 0
M  V30 6600 C 1022.19 -1.04544 8.13308 0
M  V30 6601 O 1022.58 -2.38311 8.41922 0
M  V30 6602 C 1023.07 -0.491279 7.02284 0
M  V30 6603 C 1022.36 -0.996264 5.77469 0
M  V30 6604 N 1022.41 -0.0501916 4.62973 0
M  V30 6605 C 1022.33 1.32786 4.63244 0
M  V30 6606 N 1022.41 1.86957 3.44545 0
M  V30 6607 C 1022.55 0.780241 2.58481 0
M  V30 6608 C 1022.68 0.738536 1.17757 0
M  V30 6609 O 1022.7 1.66794 0.372349 0
M  V30 6610 N 1022.8 -0.58337 0.711393 0
M  V30 6611 C 1022.8 -1.70816 1.51017 0
M  V30 6612 N 1022.93 -2.87826 0.880757 0
M  V30 6613 N 1022.67 -1.67126 2.8339 0
M  V30 6614 C 1022.55 -0.401421 3.30572 0
M  V30 6615 H 1019.57 0.374722 8.67691 0
M  V30 6616 H 1019.3 0.443485 6.90277 0
M  V30 6617 H 1020.17 -1.75537 7.96793 0
M  V30 6618 H 1022.83 -1.95076 5.46529 0
M  V30 6619 H 1023.11 0.608565 7.04577 0
M  V30 6620 H 1024.1 -0.889672 7.08939 0
M  V30 6621 H 1022.26 -0.43308 9.04564 0
M  V30 6622 H 1022.21 1.91249 5.54442 0
M  V30 6623 H 1022.9 -0.718054 -0.275244 0
M  V30 6624 H 1022.93 -3.75721 1.41832 0
M  V30 6625 H 1023.03 -2.90436 -0.145468 0
M  V30 6626 P 1024.13 -2.75334 8.47391 0
M  V30 6627 O 1024.35 -3.84204 9.44982 0
M  V30 6628 O 1024.92 -1.51982 8.68909 0
M  V30 6629 O 1024.38 -3.29363 6.99321 0
M  V30 6630 C 1023.44 -4.24066 6.42823 0
M  V30 6631 C 1024.17 -5.20775 5.52155 0
M  V30 6632 O 1024.38 -4.56607 4.22514 0
M  V30 6633 C 1025.57 -5.62697 5.96604 0
M  V30 6634 O 1025.96 -6.87667 5.41053 0
M  V30 6635 C 1026.45 -4.52537 5.39283 0
M  V30 6636 C 1025.74 -4.20027 4.08623 0
M  V30 6637 N 1025.79 -2.76189 3.71603 0
M  V30 6638 H 1022.96 -4.79756 7.24086 0
M  V30 6639 H 1022.68 -3.69963 5.84682 0
M  V30 6640 H 1023.55 -6.10431 5.41508 0
M  V30 6641 H 1026.21 -4.78816 3.28024 0
M  V30 6642 H 1026.49 -3.64957 6.05871 0
M  V30 6643 H 1027.48 -4.88748 5.21323 0
M  V30 6644 H 1025.64 -5.66789 7.0643 0
M  V30 6645 P 1027.51 -7.20834 5.23717 0
M  V30 6646 O 1027.73 -8.66104 5.38572 0
M  V30 6647 O 1028.3 -6.33544 6.1349 0
M  V30 6648 O 1027.76 -6.7751 3.72168 0
M  V30 6649 C 1026.82 -7.20825 2.7076 0
M  V30 6650 C 1027.55 -7.45864 1.40599 0
M  V30 6651 O 1027.76 -6.17651 0.734225 0
M  V30 6652 C 1028.95 -8.05808 1.51899 0
M  V30 6653 O 1029.34 -8.74358 0.335205 0
M  V30 6654 C 1029.83 -6.83093 1.70294 0
M  V30 6655 C 1029.12 -5.79992 0.836974 0
M  V30 6656 N 1029.17 -4.41864 1.38293 0
M  V30 6657 C 1029.09 -3.99538 2.69438 0
M  V30 6658 N 1029.17 -2.69909 2.84277 0
M  V30 6659 C 1029.31 -2.21719 1.5408 0
M  V30 6660 C 1029.44 -0.891712 1.06628 0
M  V30 6661 O 1029.46 0.161298 1.70137 0
M  V30 6662 N 1029.56 -0.856846 -0.334985 0
M  V30 6663 C 1029.56 -1.9641 -1.15789 0
M  V30 6664 N 1029.69 -1.72708 -2.46522 0
M  V30 6665 N 1029.43 -3.21165 -0.713741 0
M  V30 6666 C 1029.31 -3.26797 0.639748 0
M  V30 6667 H 1026.33 -8.13644 3.0377 0
M  V30 6668 H 1026.06 -6.42788 2.55485 0
M  V30 6669 H 1026.93 -8.12039 0.792769 0
M  V30 6670 H 1029.59 -5.80061 -0.166416 0
M  V30 6671 H 1029.87 -6.51287 2.75604 0
M  V30 6672 H 1030.86 -7.01734 1.34462 0
M  V30 6673 H 1029.02 -8.73674 2.38337 0
M  V30 6674 H 1028.97 -4.68207 3.53221 0
M  V30 6675 H 1029.66 0.0398818 -0.767965 0
M  V30 6676 H 1029.69 -2.50995 -3.13503 0
M  V30 6677 H 1029.79 -0.759148 -2.80716 0
M  V30 6678 P 1030.89 -8.91 -7.81545e-12 0
M  V30 6679 O 1031.11 -10.1726 -0.733694 0
M  V30 6680 O 1031.68 -8.73148 1.23936 0
M  V30 6681 O 1031.14 -7.66872 -0.971405 0
M  V30 6682 C 1030.2 -7.42309 -2.04641 0
M  V30 6683 C 1030.93 -6.86059 -3.24661 0
M  V30 6684 O 1031.14 -5.42847 -3.03646 0
M  V30 6685 C 1032.33 -7.41196 -3.50753 0
M  V30 6686 O 1032.72 -7.27073 -4.86816 0
M  V30 6687 C 1033.21 -6.5273 -2.63741 0
M  V30 6688 C 1032.5 -5.1842 -2.73198 0
M  V30 6689 N 1032.55 -4.38762 -1.4784 0
M  V30 6690 H 1029.71 -8.36803 -2.32493 0
M  V30 6691 H 1029.44 -6.70197 -1.71129 0
M  V30 6692 H 1030.31 -7.03551 -4.13168 0
M  V30 6693 P 1034.27 -7.20834 -5.23717 0
M  V30 6694 O 1034.49 -7.79853 -6.57286 0
M  V30 6695 O 1035.06 -7.79239 -4.12957 0
M  V30 6696 O 1034.52 -5.63315 -5.29344 0
M  V30 6697 C 1033.58 -4.80255 -6.01876 0
M  V30 6698 C 1034.31 -3.64202 -6.65911 0
M  V30 6699 O 1034.52 -2.60694 -5.64732 0
M  V30 6700 C 1035.71 -3.93473 -7.1943 0
M  V30 6701 O 1036.1 -3.02071 -8.21205 0
M  V30 6702 C 1036.59 -3.73047 -5.97036 0
M  V30 6703 C 1035.88 -2.58828 -5.25741 0
M  V30 6704 N 1035.93 -2.68068 -3.77503 0
M  V30 6705 H 1033.09 -5.40332 -6.79951 0
M  V30 6706 H 1032.82 -4.41613 -5.32378 0
M  V30 6707 H 1033.69 -3.26331 -7.47797 0
M  V30 6708 P 1037.65 -2.75334 -8.47391 0
M  V30 6709 O 1037.87 -2.44595 -9.90239 0
M  V30 6710 O 1038.44 -3.87732 -7.92204 0
M  V30 6711 O 1037.9 -1.4459 -7.59357 0
M  V30 6712 C 1036.96 -0.347563 -7.69115 0
M  V30 6713 C 1037.69 0.96767 -7.52806 0
M  V30 6714 O 1037.9 1.21036 -6.1011 0
M  V30 6715 C 1039.09 1.04544 -8.13308 0
M  V30 6716 O 1039.48 2.38311 -8.41922 0
M  V30 6717 C 1039.97 0.491279 -7.02284 0
M  V30 6718 C 1039.26 0.996264 -5.77469 0
M  V30 6719 N 1039.31 0.0501808 -4.62873 0
M  V30 6720 C 1039.46 0.588177 -3.36904 0
M  V30 6721 O 1039.55 1.78598 -3.17173 0
M  V30 6722 N 1039.5 -0.329694 -2.33686 0
M  V30 6723 C 1039.41 -1.6953 -2.45079 0
M  V30 6724 C 1039.26 -2.16933 -3.80505 0
M  V30 6725 C 1039.21 -1.30326 -4.83752 0
M  V30 6726 H 1036.47 -0.374722 -8.67691 0
M  V30 6727 H 1036.2 -0.443421 -6.90177 0
M  V30 6728 H 1037.07 1.75537 -7.96793 0
M  V30 6729 H 1039.73 1.94496 -5.46629 0
M  V30 6730 H 1040.01 -0.608651 -7.04676 0
M  V30 6731 H 1041 0.889672 -7.08939 0
M  V30 6732 H 1039.16 0.43308 -9.04564 0
M  V30 6733 H 1039.09 -1.68366 -5.8516 0
M  V30 6734 P 1041.03 2.75334 -8.47391 0
M  V30 6735 O 1041.25 3.84128 -9.44797 0
M  V30 6736 O 1041.82 1.51947 -8.68712 0
M  V30 6737 O 1041.28 3.29363 -6.99321 0
M  V30 6738 C 1040.34 4.24011 -6.4274 0
M  V30 6739 C 1041.07 5.20775 -5.52155 0
M  V30 6740 O 1041.28 4.56534 -4.22446 0
M  V30 6741 C 1042.47 5.62629 -5.96531 0
M  V30 6742 O 1042.86 6.87667 -5.41053 0
M  V30 6743 C 1043.35 4.52537 -5.39283 0
M  V30 6744 C 1042.64 4.20027 -4.08623 0
M  V30 6745 N 1042.69 2.76189 -3.71603 0
M  V30 6746 H 1039.85 4.797 -7.24003 0
M  V30 6747 H 1039.58 3.69856 -5.84513 0
M  V30 6748 H 1040.45 6.10356 -5.41441 0
M  V30 6749 P 1044.41 7.20834 -5.23717 0
M  V30 6750 O 1044.63 8.66104 -5.38572 0
M  V30 6751 O 1045.2 6.33544 -6.1349 0
M  V30 6752 O 1044.66 6.7751 -3.72168 0
M  V30 6753 C 1043.72 7.20825 -2.7076 0
M  V30 6754 C 1044.45 7.45864 -1.40599 0
M  V30 6755 O 1044.66 6.17651 -0.734225 0
M  V30 6756 C 1045.85 8.05808 -1.51899 0
M  V30 6757 O 1046.24 8.74358 -0.335205 0
M  V30 6758 C 1046.73 6.83093 -1.70294 0
M  V30 6759 C 1046.02 5.79992 -0.836974 0
M  V30 6760 N 1046.07 4.41864 -1.38293 0
M  V30 6761 C 1045.99 3.99538 -2.69438 0
M  V30 6762 N 1046.07 2.69909 -2.84277 0
M  V30 6763 C 1046.21 2.21719 -1.5408 0
M  V30 6764 C 1046.34 0.891712 -1.06628 0
M  V30 6765 O 1046.36 -0.161298 -1.70137 0
M  V30 6766 N 1046.46 0.856846 0.334985 0
M  V30 6767 C 1046.46 1.9641 1.15789 0
M  V30 6768 N 1046.59 1.72708 2.46522 0
M  V30 6769 N 1046.33 3.21165 0.713741 0
M  V30 6770 C 1046.21 3.26797 -0.639748 0
M  V30 6771 H 1043.23 8.13644 -3.0377 0
M  V30 6772 H 1042.96 6.42788 -2.55485 0
M  V30 6773 H 1043.83 8.12039 -0.792769 0
M  V30 6774 H 1046.49 5.80061 0.166416 0
M  V30 6775 H 1046.77 6.51287 -2.75604 0
M  V30 6776 H 1047.76 7.01734 -1.34462 0
M  V30 6777 H 1045.92 8.73674 -2.38337 0
M  V30 6778 H 1045.87 4.68207 -3.53221 0
M  V30 6779 H 1046.56 -0.0398818 0.767965 0
M  V30 6780 H 1046.59 2.50995 3.13503 0
M  V30 6781 H 1046.69 0.759148 2.80716 0
M  V30 6782 P 1047.79 8.91 7.97264e-12 0
M  V30 6783 O 1048.01 10.1726 0.733694 0
M  V30 6784 O 1048.58 8.73148 -1.23936 0
M  V30 6785 O 1048.04 7.66872 0.971405 0
M  V30 6786 C 1047.1 7.42309 2.04641 0
M  V30 6787 C 1047.83 6.86059 3.24661 0
M  V30 6788 O 1048.04 5.42847 3.03646 0
M  V30 6789 C 1049.23 7.41196 3.50753 0
M  V30 6790 O 1049.62 7.27073 4.86816 0
M  V30 6791 C 1050.11 6.5273 2.63741 0
M  V30 6792 C 1049.4 5.1842 2.73198 0
M  V30 6793 N 1049.45 4.38762 1.4784 0
M  V30 6794 C 1049.37 4.81605 0.168631 0
M  V30 6795 N 1049.45 3.85454 -0.713363 0
M  V30 6796 C 1049.59 2.6994 0.0566958 0
M  V30 6797 C 1049.72 1.34815 -0.338502 0
M  V30 6798 O 1049.74 0.869548 -1.47125 0
M  V30 6799 N 1049.84 0.496304 0.77465 0
M  V30 6800 C 1049.84 0.908403 2.09122 0
M  V30 6801 N 1049.97 -0.0517805 3.00955 0
M  V30 6802 N 1049.71 2.17875 2.46519 0
M  V30 6803 C 1049.59 3.01988 1.4033 0
M  V30 6804 H 1046.61 8.36803 2.32493 0
M  V30 6805 H 1046.34 6.70197 1.71129 0
M  V30 6806 H 1047.21 7.03551 4.13168 0
M  V30 6807 H 1049.87 4.59498 3.54415 0
M  V30 6808 H 1050.15 6.88898 1.59848 0
M  V30 6809 H 1051.14 6.46749 3.03687 0
M  V30 6810 H 1049.3 8.46908 3.20714 0
M  V30 6811 H 1049.25 5.86405 -0.105564 0
M  V30 6812 H 1049.94 -0.483664 0.597855 0
M  V30 6813 H 1049.97 0.187865 4.0116 0
M  V30 6814 H 1050.07 -1.03585 2.71726 0
M  V30 6815 P 1051.17 7.20834 5.23717 0
M  V30 6816 O 1051.39 7.7993 6.57351 0
M  V30 6817 O 1051.96 7.79328 4.13004 0
M  V30 6818 O 1051.42 5.63315 5.29344 0
M  V30 6819 C 1050.48 4.80193 6.01798 0
M  V30 6820 C 1051.21 3.64202 6.65911 0
M  V30 6821 O 1051.42 2.60694 5.64732 0
M  V30 6822 C 1052.61 3.93473 7.1943 0
M  V30 6823 O 1053 3.02071 8.21205 0
M  V30 6824 C 1053.49 3.73047 5.97036 0
M  V30 6825 C 1052.78 2.58828 5.25741 0
M  V30 6826 N 1052.83 2.6801 3.77422 0
M  V30 6827 C 1052.98 1.50443 3.07133 0
M  V30 6828 O 1053.07 0.419406 3.61576 0
M  V30 6829 N 1053.02 1.6403 1.69677 0
M  V30 6830 C 1052.93 2.81206 0.986255 0
M  V30 6831 C 1052.78 3.99158 1.80325 0
M  V30 6832 C 1052.73 3.89779 3.1476 0
M  V30 6833 H 1049.99 5.40332 6.79951 0
M  V30 6834 H 1049.72 4.41549 5.32301 0
M  V30 6835 H 1050.59 3.26331 7.47797 0
M  V30 6836 H 1053.25 1.6395 5.56554 0
M  V30 6837 H 1053.53 4.63439 5.3432 0
M  V30 6838 H 1054.52 3.44728 6.25838 0
M  V30 6839 H 1052.68 4.96652 7.57263 0
M  V30 6840 H 1052.61 4.80159 3.74441 0
M  V30 6841 P 1054.55 2.75334 8.47391 0
M  V30 6842 O 1054.77 2.44571 9.90142 0
M  V30 6843 O 1055.34 3.87688 7.92115 0
M  V30 6844 O 1054.8 1.4459 7.59357 0
M  V30 6845 C 1053.86 0.347608 7.69215 0
M  V30 6846 C 1054.59 -0.96767 7.52806 0
M  V30 6847 O 1054.8 -1.21036 6.1011 0
M  V30 6848 C 1055.99 -1.04544 8.13308 0
M  V30 6849 O 1056.38 -2.38311 8.41922 0
M  V30 6850 C 1056.87 -0.491279 7.02284 0
M  V30 6851 C 1056.16 -0.996264 5.77469 0
M  V30 6852 N 1056.21 -0.0501916 4.62973 0
M  V30 6853 C 1056.13 1.32786 4.63244 0
M  V30 6854 N 1056.21 1.86957 3.44545 0
M  V30 6855 C 1056.35 0.780241 2.58481 0
M  V30 6856 C 1056.48 0.738536 1.17757 0
M  V30 6857 O 1056.5 1.66794 0.372349 0
M  V30 6858 N 1056.6 -0.58337 0.711393 0
M  V30 6859 C 1056.6 -1.70816 1.51017 0
M  V30 6860 N 1056.73 -2.87826 0.880757 0
M  V30 6861 N 1056.47 -1.67126 2.8339 0
M  V30 6862 C 1056.35 -0.401421 3.30572 0
M  V30 6863 H 1053.37 0.374722 8.67691 0
M  V30 6864 H 1053.1 0.443485 6.90277 0
M  V30 6865 H 1053.97 -1.75537 7.96793 0
M  V30 6866 H 1056.63 -1.95076 5.46529 0
M  V30 6867 H 1056.91 0.608565 7.04577 0
M  V30 6868 H 1057.9 -0.889672 7.08939 0
M  V30 6869 H 1056.06 -0.43308 9.04564 0
M  V30 6870 H 1056.01 1.91249 5.54442 0
M  V30 6871 H 1056.7 -0.718054 -0.275244 0
M  V30 6872 H 1056.73 -3.75721 1.41832 0
M  V30 6873 H 1056.83 -2.90436 -0.145468 0
M  V30 6874 P 1057.93 -2.75334 8.47391 0
M  V30 6875 O 1058.15 -3.84166 9.4489 0
M  V30 6876 O 1058.72 -1.51964 8.6881 0
M  V30 6877 O 1058.18 -3.29363 6.99321 0
M  V30 6878 C 1057.24 -4.23956 6.42656 0
M  V30 6879 C 1057.97 -5.20775 5.52155 0
M  V30 6880 O 1058.18 -4.56534 4.22446 0
M  V30 6881 C 1059.37 -5.62629 5.96531 0
M  V30 6882 O 1059.76 -6.87667 5.41053 0
M  V30 6883 C 1060.25 -4.52537 5.39283 0
M  V30 6884 C 1059.54 -4.20027 4.08623 0
M  V30 6885 N 1059.59 -2.7613 3.71522 0
M  V30 6886 C 1059.74 -2.45612 2.37989 0
M  V30 6887 O 1059.83 -3.30919 1.51621 0
M  V30 6888 N 1059.78 -1.10684 2.08435 0
M  V30 6889 C 1059.69 -0.0690084 2.9792 0
M  V30 6890 O 1059.74 1.10553 2.59426 0
M  V30 6891 C 1059.54 -0.481522 4.35345 0
M  V30 6892 C 1059.43 0.618778 5.36443 0
M  V30 6893 C 1059.49 -1.78906 4.67968 0
M  V30 6894 H 1056.75 -4.797 7.24003 0
M  V30 6895 H 1056.48 -3.69802 5.84429 0
M  V30 6896 H 1057.35 -6.10356 5.41441 0
M  V30 6897 H 1060.01 -4.78651 3.27911 0
M  V30 6898 H 1060.29 -3.64957 6.05871 0
M  V30 6899 H 1061.28 -4.8868 5.2125 0
M  V30 6900 H 1059.44 -5.66726 7.06352 0
M  V30 6901 H 1059.37 -2.07737 5.72367 0
M  V30 6902 H 1060.4 0.754375 5.86871 0
M  V30 6903 H 1058.67 0.359721 6.10641 0
M  V30 6904 H 1059.15 1.55533 4.8581 0
M  V30 6905 H 1059.89 -0.862651 1.12037 0
M  V30 6906 P 1061.31 -7.20834 5.23717 0
M  V30 6907 O 1061.53 -8.66104 5.38572 0
M  V30 6908 O 1062.1 -6.33544 6.1349 0
M  V30 6909 O 1061.56 -6.7751 3.72168 0
M  V30 6910 C 1060.62 -7.20825 2.7076 0
M  V30 6911 C 1061.35 -7.45864 1.40599 0
M  V30 6912 O 1061.56 -6.17651 0.734225 0
M  V30 6913 C 1062.75 -8.05808 1.51899 0
M  V30 6914 O 1063.14 -8.74358 0.335205 0
M  V30 6915 C 1063.63 -6.83093 1.70294 0
M  V30 6916 C 1062.92 -5.79992 0.836974 0
M  V30 6917 N 1062.97 -4.41864 1.38293 0
M  V30 6918 H 1060.13 -8.13644 3.0377 0
M  V30 6919 H 1059.86 -6.42788 2.55485 0
M  V30 6920 H 1060.73 -8.12039 0.792769 0
M  V30 6921 P 1064.69 -8.91 -8.12982e-12 0
M  V30 6922 O 1064.91 -10.1726 -0.733694 0
M  V30 6923 O 1065.48 -8.73148 1.23936 0
M  V30 6924 O 1064.94 -7.66872 -0.971405 0
M  V30 6925 C 1064 -7.42309 -2.04641 0
M  V30 6926 C 1064.73 -6.86059 -3.24661 0
M  V30 6927 O 1064.94 -5.42847 -3.03646 0
M  V30 6928 C 1066.13 -7.41196 -3.50753 0
M  V30 6929 O 1066.52 -7.27073 -4.86816 0
M  V30 6930 C 1067.01 -6.5273 -2.63741 0
M  V30 6931 C 1066.3 -5.1842 -2.73198 0
M  V30 6932 N 1066.35 -4.38762 -1.4784 0
M  V30 6933 H 1063.51 -8.36803 -2.32493 0
M  V30 6934 H 1063.24 -6.70197 -1.71129 0
M  V30 6935 H 1064.11 -7.03551 -4.13168 0
M  V30 6936 P 1068.07 -7.20834 -5.23717 0
M  V30 6937 O 1068.29 -7.79853 -6.57286 0
M  V30 6938 O 1068.86 -7.79239 -4.12957 0
M  V30 6939 O 1068.32 -5.63315 -5.29344 0
M  V30 6940 C 1067.38 -4.80255 -6.01876 0
M  V30 6941 C 1068.11 -3.64202 -6.65911 0
M  V30 6942 O 1068.32 -2.60694 -5.64732 0
M  V30 6943 C 1069.51 -3.93473 -7.1943 0
M  V30 6944 O 1069.9 -3.02071 -8.21205 0
M  V30 6945 C 1070.39 -3.73047 -5.97036 0
M  V30 6946 C 1069.68 -2.58828 -5.25741 0
M  V30 6947 N 1069.73 -2.68068 -3.77503 0
M  V30 6948 C 1069.65 -3.79715 -2.96723 0
M  V30 6949 N 1069.73 -3.5377 -1.68852 0
M  V30 6950 C 1069.87 -2.15054 -1.63254 0
M  V30 6951 C 1070 -1.28964 -0.518571 0
M  V30 6952 O 1070.02 -1.56826 0.679156 0
M  V30 6953 N 1070.12 0.0538097 -0.918425 0
M  V30 6954 C 1070.12 0.494275 -2.22578 0
M  V30 6955 N 1070.25 1.81086 -2.40434 0
M  V30 6956 N 1069.99 -0.313645 -3.27502 0
M  V30 6957 C 1069.87 -1.61829 -2.91033 0
M  V30 6958 H 1066.89 -5.40332 -6.79951 0
M  V30 6959 H 1066.62 -4.41613 -5.32378 0
M  V30 6960 H 1067.49 -3.26331 -7.47797 0
M  V30 6961 H 1070.15 -1.63422 -5.56814 0
M  V30 6962 H 1070.43 -4.63374 -5.34244 0
M  V30 6963 H 1071.42 -3.44728 -6.25838 0
M  V30 6964 H 1069.58 -4.96652 -7.57263 0
M  V30 6965 H 1069.53 -4.80617 -3.3614 0
M  V30 6966 H 1070.22 0.742702 -0.199384 0
M  V30 6967 H 1070.25 2.20598 -3.35588 0
M  V30 6968 H 1070.35 2.43518 -1.58945 0
M  V30 6969 P 1071.45 -2.75334 -8.47391 0
M  V30 6970 O 1071.67 -2.44571 -9.90142 0
M  V30 6971 O 1072.24 -3.87688 -7.92115 0
M  V30 6972 O 1071.7 -1.4459 -7.59357 0
M  V30 6973 C 1070.76 -0.347608 -7.69215 0
M  V30 6974 C 1071.49 0.96767 -7.52806 0
M  V30 6975 O 1071.7 1.21036 -6.1011 0
M  V30 6976 C 1072.89 1.04544 -8.13308 0
M  V30 6977 O 1073.28 2.38311 -8.41922 0
M  V30 6978 C 1073.77 0.491279 -7.02284 0
M  V30 6979 C 1073.06 0.996264 -5.77469 0
M  V30 6980 N 1073.11 0.0501916 -4.62973 0
M  V30 6981 H 1070.27 -0.374722 -8.67691 0
M  V30 6982 H 1070 -0.443485 -6.90277 0
M  V30 6983 H 1070.87 1.75537 -7.96793 0
M  V30 6984 P 1074.83 2.75334 -8.47391 0
M  V30 6985 O 1075.05 3.84128 -9.44797 0
M  V30 6986 O 1075.62 1.51947 -8.68712 0
M  V30 6987 O 1075.08 3.29363 -6.99321 0
M  V30 6988 C 1074.14 4.24011 -6.4274 0
M  V30 6989 C 1074.87 5.20775 -5.52155 0
M  V30 6990 O 1075.08 4.56534 -4.22446 0
M  V30 6991 C 1076.27 5.62629 -5.96531 0
M  V30 6992 O 1076.66 6.87667 -5.41053 0
M  V30 6993 C 1077.15 4.52537 -5.39283 0
M  V30 6994 C 1076.44 4.20027 -4.08623 0
M  V30 6995 N 1076.49 2.76189 -3.71603 0
M  V30 6996 C 1076.41 1.64862 -4.52822 0
M  V30 6997 N 1076.49 0.512671 -3.88633 0
M  V30 6998 C 1076.63 0.888083 -2.54977 0
M  V30 6999 C 1076.76 0.094668 -1.38677 0
M  V30 7000 O 1076.78 -1.13053 -1.28163 0
M  V30 7001 N 1076.88 0.890102 -0.232633 0
M  V30 7002 C 1076.88 2.26958 -0.21772 0
M  V30 7003 N 1077.01 2.84626 0.97925 0
M  V30 7004 N 1076.75 3.0178 -1.31033 0
M  V30 7005 C 1076.63 2.26781 -2.43843 0
M  V30 7006 H 1073.65 4.797 -7.24003 0
M  V30 7007 H 1073.38 3.69856 -5.84513 0
M  V30 7008 H 1074.25 6.10356 -5.41441 0
M  V30 7009 H 1076.91 4.79061 -3.27488 0
M  V30 7010 H 1077.19 3.64906 -6.05785 0
M  V30 7011 H 1078.18 4.8868 -5.2125 0
M  V30 7012 H 1076.34 5.66726 -7.06352 0
M  V30 7013 H 1076.29 1.71169 -5.60966 0
M  V30 7014 H 1076.98 0.419134 0.644739 0
M  V30 7015 H 1077.01 3.87332 1.06098 0
M  V30 7016 H 1077.11 2.26417 1.82483 0
M  V30 7017 P 1078.21 7.20834 -5.23717 0
M  V30 7018 O 1078.43 8.66104 -5.38572 0
M  V30 7019 O 1079 6.33544 -6.1349 0
M  V30 7020 O 1078.46 6.7751 -3.72168 0
M  V30 7021 C 1077.52 7.20825 -2.7076 0
M  V30 7022 C 1078.25 7.45864 -1.40599 0
M  V30 7023 O 1078.46 6.17651 -0.734225 0
M  V30 7024 C 1079.65 8.05808 -1.51899 0
M  V30 7025 O 1080.04 8.74358 -0.335205 0
M  V30 7026 C 1080.53 6.83093 -1.70294 0
M  V30 7027 C 1079.82 5.79992 -0.836974 0
M  V30 7028 N 1079.87 4.41864 -1.38293 0
M  V30 7029 C 1079.79 3.99538 -2.69438 0
M  V30 7030 N 1079.87 2.69909 -2.84277 0
M  V30 7031 C 1080.01 2.21719 -1.5408 0
M  V30 7032 C 1080.14 0.891712 -1.06628 0
M  V30 7033 O 1080.16 -0.161298 -1.70137 0
M  V30 7034 N 1080.26 0.856846 0.334985 0
M  V30 7035 C 1080.26 1.9641 1.15789 0
M  V30 7036 N 1080.39 1.72708 2.46522 0
M  V30 7037 N 1080.13 3.21165 0.713741 0
M  V30 7038 C 1080.01 3.26797 -0.639748 0
M  V30 7039 H 1077.03 8.13644 -3.0377 0
M  V30 7040 H 1076.76 6.42788 -2.55485 0
M  V30 7041 H 1077.63 8.12039 -0.792769 0
M  V30 7042 H 1080.29 5.80061 0.166416 0
M  V30 7043 H 1080.57 6.51287 -2.75604 0
M  V30 7044 H 1081.56 7.01734 -1.34462 0
M  V30 7045 H 1079.72 8.73674 -2.38337 0
M  V30 7046 H 1079.67 4.68207 -3.53221 0
M  V30 7047 H 1080.36 -0.0398818 0.767965 0
M  V30 7048 H 1080.39 2.50995 3.13503 0
M  V30 7049 H 1080.49 0.759148 2.80716 0
M  V30 7050 P 1081.59 8.91 8.287e-12 0
M  V30 7051 O 1081.81 10.1736 0.733766 0
M  V30 7052 O 1082.38 8.73247 -1.2395 0
M  V30 7053 O 1081.84 7.66872 0.971405 0
M  V30 7054 C 1080.9 7.42212 2.04614 0
M  V30 7055 C 1081.63 6.86059 3.24661 0
M  V30 7056 O 1081.84 5.42847 3.03646 0
M  V30 7057 C 1083.03 7.41196 3.50753 0
M  V30 7058 O 1083.42 7.27073 4.86816 0
M  V30 7059 C 1083.91 6.5273 2.63741 0
M  V30 7060 C 1083.2 5.1842 2.73198 0
M  V30 7061 N 1083.25 4.38668 1.47808 0
M  V30 7062 C 1083.4 3.02239 1.60048 0
M  V30 7063 O 1083.49 2.46459 2.67869 0
M  V30 7064 N 1083.44 2.32436 0.408571 0
M  V30 7065 C 1083.35 2.85471 -0.854993 0
M  V30 7066 C 1083.2 4.28918 -0.887335 0
M  V30 7067 C 1083.15 5.00349 0.255399 0
M  V30 7068 H 1080.41 8.36803 2.32493 0
M  V30 7069 H 1080.14 6.701 1.71105 0
M  V30 7070 H 1081.01 7.03551 4.13168 0
M  V30 7071 H 1083.67 4.59773 3.53894 0
M  V30 7072 H 1083.95 6.88995 1.59871 0
M  V30 7073 H 1084.94 6.46749 3.03687 0
M  V30 7074 H 1083.1 8.46908 3.20714 0
M  V30 7075 H 1083.03 6.08548 0.206986 0
M  V30 7076 P 1084.97 7.20834 5.23717 0
M  V30 7077 O 1085.19 7.79853 6.57286 0
M  V30 7078 O 1085.76 7.79239 4.12957 0
M  V30 7079 O 1085.22 5.63315 5.29344 0
M  V30 7080 C 1084.28 4.80255 6.01876 0
M  V30 7081 C 1085.01 3.64202 6.65911 0
M  V30 7082 O 1085.22 2.60694 5.64732 0
M  V30 7083 C 1086.41 3.93473 7.1943 0
M  V30 7084 O 1086.8 3.02071 8.21205 0
M  V30 7085 C 1087.29 3.73047 5.97036 0
M  V30 7086 C 1086.58 2.58828 5.25741 0
M  V30 7087 N 1086.63 2.68068 3.77503 0
M  V30 7088 C 1086.55 3.79715 2.96723 0
M  V30 7089 N 1086.63 3.5377 1.68852 0
M  V30 7090 C 1086.77 2.15054 1.63254 0
M  V30 7091 C 1086.9 1.28964 0.518571 0
M  V30 7092 O 1086.92 1.56826 -0.679156 0
M  V30 7093 N 1087.02 -0.0538097 0.918425 0
M  V30 7094 C 1087.02 -0.494275 2.22578 0
M  V30 7095 N 1087.15 -1.81086 2.40434 0
M  V30 7096 N 1086.89 0.313645 3.27502 0
M  V30 7097 C 1086.77 1.61829 2.91033 0
M  V30 7098 H 1083.79 5.40332 6.79951 0
M  V30 7099 H 1083.52 4.41613 5.32378 0
M  V30 7100 H 1084.39 3.26331 7.47797 0
M  V30 7101 H 1087.05 1.63422 5.56814 0
M  V30 7102 H 1087.33 4.63374 5.34244 0
M  V30 7103 H 1088.32 3.44728 6.25838 0
M  V30 7104 H 1086.48 4.96652 7.57263 0
M  V30 7105 H 1086.43 4.80617 3.3614 0
M  V30 7106 H 1087.12 -0.742702 0.199384 0
M  V30 7107 H 1087.15 -2.20598 3.35588 0
M  V30 7108 H 1087.25 -2.43518 1.58945 0
M  V30 7109 P 1088.35 2.75334 8.47391 0
M  V30 7110 O 1088.57 2.44571 9.90142 0
M  V30 7111 O 1089.14 3.87688 7.92115 0
M  V30 7112 O 1088.6 1.4459 7.59357 0
M  V30 7113 C 1087.66 0.347608 7.69215 0
M  V30 7114 C 1088.39 -0.96767 7.52806 0
M  V30 7115 O 1088.6 -1.21036 6.1011 0
M  V30 7116 C 1089.79 -1.04544 8.13308 0
M  V30 7117 O 1090.18 -2.38311 8.41922 0
M  V30 7118 C 1090.67 -0.491279 7.02284 0
M  V30 7119 C 1089.96 -0.996264 5.77469 0
M  V30 7120 N 1090.01 -0.0501916 4.62973 0
M  V30 7121 C 1089.93 1.32786 4.63244 0
M  V30 7122 N 1090.01 1.86957 3.44545 0
M  V30 7123 C 1090.15 0.780241 2.58481 0
M  V30 7124 C 1090.28 0.738536 1.17757 0
M  V30 7125 N 1090.4 -0.58337 0.711393 0
M  V30 7126 C 1090.4 -1.70816 1.51017 0
M  V30 7127 N 1090.53 -2.87826 0.880757 0
M  V30 7128 N 1090.27 -1.67126 2.8339 0
M  V30 7129 C 1090.15 -0.401421 3.30572 0
M  V30 7130 H 1087.17 0.374722 8.67691 0
M  V30 7131 H 1086.9 0.443485 6.90277 0
M  V30 7132 H 1087.77 -1.75537 7.96793 0
M  V30 7133 P 1091.73 -2.75334 8.47391 0
M  V30 7134 O 1091.95 -3.84128 9.44797 0
M  V30 7135 O 1092.52 -1.51947 8.68712 0
M  V30 7136 O 1091.98 -3.29363 6.99321 0
M  V30 7137 C 1091.04 -4.24011 6.4274 0
M  V30 7138 C 1091.77 -5.20775 5.52155 0
M  V30 7139 O 1091.98 -4.56534 4.22446 0
M  V30 7140 C 1093.17 -5.62629 5.96531 0
M  V30 7141 O 1093.56 -6.87667 5.41053 0
M  V30 7142 C 1094.05 -4.52537 5.39283 0
M  V30 7143 C 1093.34 -4.20027 4.08623 0
M  V30 7144 N 1093.39 -2.76189 3.71603 0
M  V30 7145 C 1093.31 -1.64862 4.52822 0
M  V30 7146 N 1093.39 -0.512671 3.88633 0
M  V30 7147 C 1093.53 -0.888083 2.54977 0
M  V30 7148 C 1093.66 -0.094668 1.38677 0
M  V30 7149 O 1093.68 1.13053 1.28163 0
M  V30 7150 N 1093.78 -0.890102 0.232633 0
M  V30 7151 C 1093.78 -2.26958 0.21772 0
M  V30 7152 N 1093.91 -2.84626 -0.97925 0
M  V30 7153 N 1093.65 -3.0178 1.31033 0
M  V30 7154 C 1093.53 -2.26781 2.43843 0
M  V30 7155 H 1090.55 -4.797 7.24003 0
M  V30 7156 H 1090.28 -3.69856 5.84513 0
M  V30 7157 H 1091.15 -6.10356 5.41441 0
M  V30 7158 H 1093.81 -4.79061 3.27488 0
M  V30 7159 H 1094.09 -3.64906 6.05785 0
M  V30 7160 H 1095.08 -4.8868 5.2125 0
M  V30 7161 H 1093.24 -5.66726 7.06352 0
M  V30 7162 H 1093.19 -1.71169 5.60966 0
M  V30 7163 H 1093.88 -0.419134 -0.644739 0
M  V30 7164 H 1093.91 -3.87332 -1.06098 0
M  V30 7165 H 1094.01 -2.26417 -1.82483 0
M  V30 7166 P 1095.11 -7.20834 5.23717 0
M  V30 7167 O 1095.33 -8.66104 5.38572 0
M  V30 7168 O 1095.9 -6.33544 6.1349 0
M  V30 7169 O 1095.36 -6.7751 3.72168 0
M  V30 7170 C 1094.42 -7.20825 2.7076 0
M  V30 7171 C 1095.15 -7.45864 1.40599 0
M  V30 7172 O 1095.36 -6.17651 0.734225 0
M  V30 7173 C 1096.55 -8.05808 1.51899 0
M  V30 7174 O 1096.94 -8.74358 0.335205 0
M  V30 7175 C 1097.43 -6.83093 1.70294 0
M  V30 7176 C 1096.72 -5.79992 0.836974 0
M  V30 7177 N 1096.77 -4.41864 1.38293 0
M  V30 7178 C 1096.69 -3.99538 2.69438 0
M  V30 7179 N 1096.77 -2.69909 2.84277 0
M  V30 7180 C 1096.91 -2.21719 1.5408 0
M  V30 7181 C 1097.04 -0.891712 1.06628 0
M  V30 7182 O 1097.06 0.161298 1.70137 0
M  V30 7183 N 1097.16 -0.856846 -0.334985 0
M  V30 7184 C 1097.16 -1.9641 -1.15789 0
M  V30 7185 N 1097.29 -1.72708 -2.46522 0
M  V30 7186 N 1097.03 -3.21165 -0.713741 0
M  V30 7187 C 1096.91 -3.26797 0.639748 0
M  V30 7188 H 1093.93 -8.13644 3.0377 0
M  V30 7189 H 1093.66 -6.42788 2.55485 0
M  V30 7190 H 1094.53 -8.12039 0.792769 0
M  V30 7191 H 1097.19 -5.80061 -0.166416 0
M  V30 7192 H 1097.47 -6.51287 2.75604 0
M  V30 7193 H 1098.46 -7.01734 1.34462 0
M  V30 7194 H 1096.62 -8.73674 2.38337 0
M  V30 7195 H 1096.57 -4.68207 3.53221 0
M  V30 7196 H 1097.26 0.0398818 -0.767965 0
M  V30 7197 H 1097.29 -2.50995 -3.13503 0
M  V30 7198 H 1097.39 -0.759148 -2.80716 0
M  V30 7199 P 1098.49 -8.91 -8.44418e-12 0
M  V30 7200 O 1098.71 -10.1726 -0.733694 0
M  V30 7201 O 1099.28 -8.73148 1.23936 0
M  V30 7202 O 1098.74 -7.66872 -0.971405 0
M  V30 7203 C 1097.8 -7.42309 -2.04641 0
M  V30 7204 C 1098.53 -6.86059 -3.24661 0
M  V30 7205 O 1098.74 -5.42847 -3.03646 0
M  V30 7206 C 1099.93 -7.41196 -3.50753 0
M  V30 7207 O 1100.32 -7.27073 -4.86816 0
M  V30 7208 C 1100.81 -6.5273 -2.63741 0
M  V30 7209 C 1100.1 -5.1842 -2.73198 0
M  V30 7210 N 1100.15 -4.38762 -1.4784 0
M  V30 7211 C 1100.07 -4.81605 -0.168631 0
M  V30 7212 N 1100.15 -3.85454 0.713363 0
M  V30 7213 C 1100.29 -2.6994 -0.0566958 0
M  V30 7214 C 1100.42 -1.34815 0.338502 0
M  V30 7215 O 1100.44 -0.869548 1.47125 0
M  V30 7216 N 1100.54 -0.496304 -0.77465 0
M  V30 7217 C 1100.54 -0.908403 -2.09122 0
M  V30 7218 N 1100.67 0.0517805 -3.00955 0
M  V30 7219 N 1100.41 -2.17875 -2.46519 0
M  V30 7220 C 1100.29 -3.01988 -1.4033 0
M  V30 7221 H 1097.31 -8.36803 -2.32493 0
M  V30 7222 H 1097.04 -6.70197 -1.71129 0
M  V30 7223 H 1097.91 -7.03551 -4.13168 0
M  V30 7224 H 1100.57 -4.59498 -3.54415 0
M  V30 7225 H 1100.85 -6.88898 -1.59848 0
M  V30 7226 H 1101.84 -6.46749 -3.03687 0
M  V30 7227 H 1100 -8.46908 -3.20714 0
M  V30 7228 H 1099.95 -5.86405 0.105564 0
M  V30 7229 H 1100.64 0.483664 -0.597855 0
M  V30 7230 H 1100.67 -0.187865 -4.0116 0
M  V30 7231 H 1100.77 1.03585 -2.71726 0
M  V30 7232 P 1101.87 -7.20834 -5.23717 0
M  V30 7233 O 1102.09 -7.79853 -6.57286 0
M  V30 7234 O 1102.66 -7.79239 -4.12957 0
M  V30 7235 O 1102.12 -5.63315 -5.29344 0
M  V30 7236 C 1101.18 -4.80255 -6.01876 0
M  V30 7237 C 1101.91 -3.64202 -6.65911 0
M  V30 7238 O 1102.12 -2.60694 -5.64732 0
M  V30 7239 C 1103.31 -3.93473 -7.1943 0
M  V30 7240 O 1103.7 -3.02071 -8.21205 0
M  V30 7241 C 1104.19 -3.73047 -5.97036 0
M  V30 7242 C 1103.48 -2.58828 -5.25741 0
M  V30 7243 N 1103.53 -2.68068 -3.77503 0
M  V30 7244 C 1103.45 -3.79715 -2.96723 0
M  V30 7245 N 1103.53 -3.5377 -1.68852 0
M  V30 7246 C 1103.67 -2.15054 -1.63254 0
M  V30 7247 C 1103.8 -1.28964 -0.518571 0
M  V30 7248 O 1103.82 -1.56826 0.679156 0
M  V30 7249 N 1103.92 0.0538097 -0.918425 0
M  V30 7250 C 1103.92 0.494275 -2.22578 0
M  V30 7251 N 1104.05 1.81086 -2.40434 0
M  V30 7252 N 1103.79 -0.313645 -3.27502 0
M  V30 7253 C 1103.67 -1.61829 -2.91033 0
M  V30 7254 H 1100.69 -5.40332 -6.79951 0
M  V30 7255 H 1100.42 -4.41613 -5.32378 0
M  V30 7256 H 1101.29 -3.26331 -7.47797 0
M  V30 7257 H 1103.95 -1.63422 -5.56814 0
M  V30 7258 H 1104.23 -4.63374 -5.34244 0
M  V30 7259 H 1105.22 -3.44728 -6.25838 0
M  V30 7260 H 1103.38 -4.96652 -7.57263 0
M  V30 7261 H 1103.33 -4.80617 -3.3614 0
M  V30 7262 H 1104.02 0.742702 -0.199384 0
M  V30 7263 H 1104.05 2.20598 -3.35588 0
M  V30 7264 H 1104.15 2.43518 -1.58945 0
M  V30 7265 P 1105.25 -2.75334 -8.47391 0
M  V30 7266 O 1105.47 -2.44571 -9.90142 0
M  V30 7267 O 1106.04 -3.87688 -7.92115 0
M  V30 7268 O 1105.5 -1.4459 -7.59357 0
M  V30 7269 C 1104.56 -0.347608 -7.69215 0
M  V30 7270 C 1105.29 0.96767 -7.52806 0
M  V30 7271 O 1105.5 1.21036 -6.1011 0
M  V30 7272 C 1106.69 1.04544 -8.13308 0
M  V30 7273 O 1107.08 2.38311 -8.41922 0
M  V30 7274 C 1107.57 0.491279 -7.02284 0
M  V30 7275 C 1106.86 0.996264 -5.77469 0
M  V30 7276 N 1106.91 0.0501916 -4.62973 0
M  V30 7277 H 1104.07 -0.374722 -8.67691 0
M  V30 7278 H 1103.8 -0.443485 -6.90277 0
M  V30 7279 H 1104.67 1.75537 -7.96793 0
M  V30 7280 P 1108.63 2.75334 -8.47391 0
M  V30 7281 O 1108.85 3.84128 -9.44797 0
M  V30 7282 O 1109.42 1.51947 -8.68712 0
M  V30 7283 O 1108.88 3.29363 -6.99321 0
M  V30 7284 C 1107.94 4.24011 -6.4274 0
M  V30 7285 C 1108.67 5.20775 -5.52155 0
M  V30 7286 O 1108.88 4.56534 -4.22446 0
M  V30 7287 C 1110.07 5.62629 -5.96531 0
M  V30 7288 O 1110.46 6.87667 -5.41053 0
M  V30 7289 C 1110.95 4.52537 -5.39283 0
M  V30 7290 C 1110.24 4.20027 -4.08623 0
M  V30 7291 N 1110.29 2.76189 -3.71603 0
M  V30 7292 C 1110.21 1.64862 -4.52822 0
M  V30 7293 N 1110.29 0.512671 -3.88633 0
M  V30 7294 C 1110.43 0.888083 -2.54977 0
M  V30 7295 C 1110.56 0.094668 -1.38677 0
M  V30 7296 O 1110.58 -1.13053 -1.28163 0
M  V30 7297 N 1110.68 0.890102 -0.232633 0
M  V30 7298 C 1110.68 2.26958 -0.21772 0
M  V30 7299 N 1110.81 2.84626 0.97925 0
M  V30 7300 N 1110.55 3.0178 -1.31033 0
M  V30 7301 C 1110.43 2.26781 -2.43843 0
M  V30 7302 H 1107.45 4.797 -7.24003 0
M  V30 7303 H 1107.18 3.69856 -5.84513 0
M  V30 7304 H 1108.05 6.10356 -5.41441 0
M  V30 7305 H 1110.71 4.79061 -3.27488 0
M  V30 7306 H 1110.99 3.64906 -6.05785 0
M  V30 7307 H 1111.98 4.8868 -5.2125 0
M  V30 7308 H 1110.14 5.66726 -7.06352 0
M  V30 7309 H 1110.09 1.71169 -5.60966 0
M  V30 7310 H 1110.78 0.419134 0.644739 0
M  V30 7311 H 1110.81 3.87332 1.06098 0
M  V30 7312 H 1110.91 2.26417 1.82483 0
M  V30 7313 P 1112.01 7.20834 -5.23717 0
M  V30 7314 O 1112.23 8.66104 -5.38572 0
M  V30 7315 O 1112.8 6.33544 -6.1349 0
M  V30 7316 O 1112.26 6.7751 -3.72168 0
M  V30 7317 C 1111.32 7.20825 -2.7076 0
M  V30 7318 C 1112.05 7.45864 -1.40599 0
M  V30 7319 O 1112.26 6.17651 -0.734225 0
M  V30 7320 C 1113.45 8.05808 -1.51899 0
M  V30 7321 O 1113.84 8.74358 -0.335205 0
M  V30 7322 C 1114.33 6.83093 -1.70294 0
M  V30 7323 C 1113.62 5.79992 -0.836974 0
M  V30 7324 N 1113.67 4.41864 -1.38293 0
M  V30 7325 C 1113.59 3.99538 -2.69438 0
M  V30 7326 N 1113.67 2.69909 -2.84277 0
M  V30 7327 C 1113.81 2.21719 -1.5408 0
M  V30 7328 C 1113.94 0.891712 -1.06628 0
M  V30 7329 O 1113.96 -0.161298 -1.70137 0
M  V30 7330 N 1114.06 0.856846 0.334985 0
M  V30 7331 C 1114.06 1.9641 1.15789 0
M  V30 7332 N 1114.19 1.72708 2.46522 0
M  V30 7333 N 1113.93 3.21165 0.713741 0
M  V30 7334 C 1113.81 3.26797 -0.639748 0
M  V30 7335 H 1110.83 8.13644 -3.0377 0
M  V30 7336 H 1110.56 6.42788 -2.55485 0
M  V30 7337 H 1111.43 8.12039 -0.792769 0
M  V30 7338 H 1114.09 5.80061 0.166416 0
M  V30 7339 H 1114.37 6.51287 -2.75604 0
M  V30 7340 H 1115.36 7.01734 -1.34462 0
M  V30 7341 H 1113.52 8.73674 -2.38337 0
M  V30 7342 H 1113.47 4.68207 -3.53221 0
M  V30 7343 H 1114.16 -0.0398818 0.767965 0
M  V30 7344 H 1114.19 2.50995 3.13503 0
M  V30 7345 H 1114.29 0.759148 2.80716 0
M  V30 7346 P 1115.39 8.91 8.60137e-12 0
M  V30 7347 O 1115.61 10.1736 0.733766 0
M  V30 7348 O 1116.18 8.73247 -1.2395 0
M  V30 7349 O 1115.64 7.66872 0.971405 0
M  V30 7350 C 1114.7 7.42212 2.04614 0
M  V30 7351 C 1115.43 6.86059 3.24661 0
M  V30 7352 O 1115.64 5.42847 3.03646 0
M  V30 7353 C 1116.83 7.41196 3.50753 0
M  V30 7354 O 1117.22 7.27073 4.86816 0
M  V30 7355 C 1117.71 6.5273 2.63741 0
M  V30 7356 C 1117 5.1842 2.73198 0
M  V30 7357 N 1117.05 4.38668 1.47808 0
M  V30 7358 C 1117.2 3.02239 1.60048 0
M  V30 7359 O 1117.29 2.46459 2.67869 0
M  V30 7360 N 1117.24 2.32436 0.408571 0
M  V30 7361 C 1117.15 2.85471 -0.854993 0
M  V30 7362 C 1117 4.28918 -0.887335 0
M  V30 7363 C 1116.95 5.00349 0.255399 0
M  V30 7364 H 1114.21 8.36803 2.32493 0
M  V30 7365 H 1113.94 6.701 1.71105 0
M  V30 7366 H 1114.81 7.03551 4.13168 0
M  V30 7367 H 1117.47 4.59773 3.53894 0
M  V30 7368 H 1117.75 6.88995 1.59871 0
M  V30 7369 H 1118.74 6.46749 3.03687 0
M  V30 7370 H 1116.9 8.46908 3.20714 0
M  V30 7371 H 1116.83 6.08548 0.206986 0
M  V30 7372 P 1118.77 7.20834 5.23717 0
M  V30 7373 O 1118.99 7.7993 6.57351 0
M  V30 7374 O 1119.56 7.79328 4.13004 0
M  V30 7375 O 1119.02 5.63315 5.29344 0
M  V30 7376 C 1118.08 4.80193 6.01798 0
M  V30 7377 C 1118.81 3.64202 6.65911 0
M  V30 7378 O 1119.02 2.60694 5.64732 0
M  V30 7379 C 1120.21 3.93473 7.1943 0
M  V30 7380 O 1120.6 3.02071 8.21205 0
M  V30 7381 C 1121.09 3.73047 5.97036 0
M  V30 7382 C 1120.38 2.58828 5.25741 0
M  V30 7383 N 1120.43 2.6801 3.77422 0
M  V30 7384 C 1120.58 1.50443 3.07133 0
M  V30 7385 O 1120.67 0.419406 3.61576 0
M  V30 7386 N 1120.62 1.6403 1.69677 0
M  V30 7387 C 1120.53 2.81206 0.986255 0
M  V30 7388 C 1120.38 3.99158 1.80325 0
M  V30 7389 C 1120.33 3.89779 3.1476 0
M  V30 7390 H 1117.59 5.40332 6.79951 0
M  V30 7391 H 1117.32 4.41549 5.32301 0
M  V30 7392 H 1118.19 3.26331 7.47797 0
M  V30 7393 H 1120.85 1.6395 5.56554 0
M  V30 7394 H 1121.13 4.63439 5.3432 0
M  V30 7395 H 1122.12 3.44728 6.25838 0
M  V30 7396 H 1120.28 4.96652 7.57263 0
M  V30 7397 H 1120.21 4.80159 3.74441 0
M  V30 7398 P 1122.15 2.75334 8.47391 0
M  V30 7399 O 1122.37 2.44571 9.90142 0
M  V30 7400 O 1122.94 3.87688 7.92115 0
M  V30 7401 O 1122.4 1.4459 7.59357 0
M  V30 7402 C 1121.46 0.347608 7.69215 0
M  V30 7403 C 1122.19 -0.96767 7.52806 0
M  V30 7404 O 1122.4 -1.21036 6.1011 0
M  V30 7405 C 1123.59 -1.04544 8.13308 0
M  V30 7406 O 1123.98 -2.38311 8.41922 0
M  V30 7407 C 1124.47 -0.491279 7.02284 0
M  V30 7408 C 1123.76 -0.996264 5.77469 0
M  V30 7409 N 1123.81 -0.0501916 4.62973 0
M  V30 7410 C 1123.73 1.32786 4.63244 0
M  V30 7411 N 1123.81 1.86957 3.44545 0
M  V30 7412 C 1123.95 0.780241 2.58481 0
M  V30 7413 C 1124.08 0.738536 1.17757 0
M  V30 7414 O 1124.1 1.66794 0.372349 0
M  V30 7415 N 1124.2 -0.58337 0.711393 0
M  V30 7416 C 1124.2 -1.70816 1.51017 0
M  V30 7417 N 1124.33 -2.87826 0.880757 0
M  V30 7418 N 1124.07 -1.67126 2.8339 0
M  V30 7419 C 1123.95 -0.401421 3.30572 0
M  V30 7420 H 1120.97 0.374722 8.67691 0
M  V30 7421 H 1120.7 0.443485 6.90277 0
M  V30 7422 H 1121.57 -1.75537 7.96793 0
M  V30 7423 H 1124.23 -1.95076 5.46529 0
M  V30 7424 H 1124.51 0.608565 7.04577 0
M  V30 7425 H 1125.5 -0.889672 7.08939 0
M  V30 7426 H 1123.66 -0.43308 9.04564 0
M  V30 7427 H 1123.61 1.91249 5.54442 0
M  V30 7428 H 1124.3 -0.718054 -0.275244 0
M  V30 7429 H 1124.33 -3.75721 1.41832 0
M  V30 7430 H 1124.43 -2.90436 -0.145468 0
M  V30 7431 P 1125.53 -2.75334 8.47391 0
M  V30 7432 O 1125.75 -3.84128 9.44797 0
M  V30 7433 O 1126.32 -1.51947 8.68712 0
M  V30 7434 O 1125.78 -3.29363 6.99321 0
M  V30 7435 C 1124.84 -4.24011 6.4274 0
M  V30 7436 C 1125.57 -5.20775 5.52155 0
M  V30 7437 O 1125.78 -4.56534 4.22446 0
M  V30 7438 C 1126.97 -5.62629 5.96531 0
M  V30 7439 O 1127.36 -6.87667 5.41053 0
M  V30 7440 C 1127.85 -4.52537 5.39283 0
M  V30 7441 C 1127.14 -4.20027 4.08623 0
M  V30 7442 N 1127.19 -2.76189 3.71603 0
M  V30 7443 H 1124.35 -4.797 7.24003 0
M  V30 7444 H 1124.08 -3.69856 5.84513 0
M  V30 7445 H 1124.95 -6.10356 5.41441 0
M  V30 7446 P 1128.91 -7.20834 5.23717 0
M  V30 7447 O 1129.13 -8.66104 5.38572 0
M  V30 7448 O 1129.7 -6.33544 6.1349 0
M  V30 7449 O 1129.16 -6.7751 3.72168 0
M  V30 7450 C 1128.22 -7.20825 2.7076 0
M  V30 7451 C 1128.95 -7.45864 1.40599 0
M  V30 7452 O 1129.16 -6.17651 0.734225 0
M  V30 7453 C 1130.35 -8.05808 1.51899 0
M  V30 7454 O 1130.74 -8.74358 0.335205 0
M  V30 7455 C 1131.23 -6.83093 1.70294 0
M  V30 7456 C 1130.52 -5.79992 0.836974 0
M  V30 7457 N 1130.57 -4.41864 1.38293 0
M  V30 7458 C 1130.49 -3.99538 2.69438 0
M  V30 7459 N 1130.57 -2.69909 2.84277 0
M  V30 7460 C 1130.71 -2.21719 1.5408 0
M  V30 7461 C 1130.84 -0.891712 1.06628 0
M  V30 7462 O 1130.86 0.161298 1.70137 0
M  V30 7463 N 1130.96 -0.856846 -0.334985 0
M  V30 7464 C 1130.96 -1.9641 -1.15789 0
M  V30 7465 N 1131.09 -1.72708 -2.46522 0
M  V30 7466 N 1130.83 -3.21165 -0.713741 0
M  V30 7467 C 1130.71 -3.26797 0.639748 0
M  V30 7468 H 1127.73 -8.13644 3.0377 0
M  V30 7469 H 1127.46 -6.42788 2.55485 0
M  V30 7470 H 1128.33 -8.12039 0.792769 0
M  V30 7471 H 1130.99 -5.80061 -0.166416 0
M  V30 7472 H 1131.27 -6.51287 2.75604 0
M  V30 7473 H 1132.26 -7.01734 1.34462 0
M  V30 7474 H 1130.42 -8.73674 2.38337 0
M  V30 7475 H 1130.37 -4.68207 3.53221 0
M  V30 7476 H 1131.06 0.0398818 -0.767965 0
M  V30 7477 H 1131.09 -2.50995 -3.13503 0
M  V30 7478 H 1131.19 -0.759148 -2.80716 0
M  V30 7479 P 1132.29 -8.91 -8.75855e-12 0
M  V30 7480 O 1132.51 -10.1726 -0.733694 0
M  V30 7481 O 1133.08 -8.73148 1.23936 0
M  V30 7482 O 1132.54 -7.66872 -0.971405 0
M  V30 7483 C 1131.6 -7.42309 -2.04641 0
M  V30 7484 C 1132.33 -6.86059 -3.24661 0
M  V30 7485 O 1132.54 -5.42847 -3.03646 0
M  V30 7486 C 1133.73 -7.41196 -3.50753 0
M  V30 7487 O 1134.12 -7.27073 -4.86816 0
M  V30 7488 C 1134.61 -6.5273 -2.63741 0
M  V30 7489 C 1133.9 -5.1842 -2.73198 0
M  V30 7490 N 1133.95 -4.38762 -1.4784 0
M  V30 7491 C 1133.87 -4.81605 -0.168631 0
M  V30 7492 N 1133.95 -3.85454 0.713363 0
M  V30 7493 C 1134.09 -2.6994 -0.0566958 0
M  V30 7494 C 1134.22 -1.34815 0.338502 0
M  V30 7495 O 1134.24 -0.869548 1.47125 0
M  V30 7496 N 1134.34 -0.496304 -0.77465 0
M  V30 7497 C 1134.34 -0.908403 -2.09122 0
M  V30 7498 N 1134.47 0.0517805 -3.00955 0
M  V30 7499 N 1134.21 -2.17875 -2.46519 0
M  V30 7500 C 1134.09 -3.01988 -1.4033 0
M  V30 7501 H 1131.11 -8.36803 -2.32493 0
M  V30 7502 H 1130.84 -6.70197 -1.71129 0
M  V30 7503 H 1131.71 -7.03551 -4.13168 0
M  V30 7504 H 1134.37 -4.59498 -3.54415 0
M  V30 7505 H 1134.65 -6.88898 -1.59848 0
M  V30 7506 H 1135.64 -6.46749 -3.03687 0
M  V30 7507 H 1133.8 -8.46908 -3.20714 0
M  V30 7508 H 1133.75 -5.86405 0.105564 0
M  V30 7509 H 1134.44 0.483664 -0.597855 0
M  V30 7510 H 1134.47 -0.187865 -4.0116 0
M  V30 7511 H 1134.57 1.03585 -2.71726 0
M  V30 7512 P 1135.67 -7.20834 -5.23717 0
M  V30 7513 O 1135.89 -7.80006 -6.57415 0
M  V30 7514 O 1136.46 -7.79416 -4.13051 0
M  V30 7515 O 1135.92 -5.63315 -5.29344 0
M  V30 7516 C 1134.98 -4.80318 -6.01954 0
M  V30 7517 C 1135.71 -3.64202 -6.65911 0
M  V30 7518 O 1135.92 -2.60736 -5.64823 0
M  V30 7519 C 1137.11 -3.93521 -7.19518 0
M  V30 7520 O 1137.5 -3.02071 -8.21205 0
M  V30 7521 C 1137.99 -3.73047 -5.97036 0
M  V30 7522 C 1137.28 -2.58828 -5.25741 0
M  V30 7523 N 1137.33 -2.68068 -3.77503 0
M  V30 7524 H 1134.5 -5.40394 -6.8003 0
M  V30 7525 H 1134.22 -4.41741 -5.32532 0
M  V30 7526 H 1135.09 -3.26371 -7.47889 0
M  V30 7527 H 1137.75 -1.64007 -5.56746 0
M  V30 7528 H 1138.03 -4.63439 -5.3432 0
M  V30 7529 H 1139.02 -3.44776 -6.25925 0
M  V30 7530 H 1137.18 -4.96707 -7.57347 0
M  V30 7531 P 1139.05 -2.75334 -8.47391 0
M  V30 7532 O 1139.27 -2.44571 -9.90142 0
M  V30 7533 O 1139.84 -3.87688 -7.92115 0
M  V30 7534 O 1139.3 -1.4459 -7.59357 0
M  V30 7535 C 1138.36 -0.347608 -7.69215 0
M  V30 7536 C 1139.09 0.96767 -7.52806 0
M  V30 7537 O 1139.3 1.21036 -6.1011 0
M  V30 7538 C 1140.49 1.04544 -8.13308 0
M  V30 7539 O 1140.88 2.38311 -8.41922 0
M  V30 7540 C 1141.37 0.491279 -7.02284 0
M  V30 7541 C 1140.66 0.996264 -5.77469 0
M  V30 7542 N 1140.71 0.0501916 -4.62973 0
M  V30 7543 H 1137.87 -0.374722 -8.67691 0
M  V30 7544 H 1137.6 -0.443485 -6.90277 0
M  V30 7545 H 1138.47 1.75537 -7.96793 0
M  V30 7546 P 1142.43 2.75334 -8.47391 0
M  V30 7547 O 1142.65 3.84128 -9.44797 0
M  V30 7548 O 1143.22 1.51947 -8.68712 0
M  V30 7549 O 1142.68 3.29363 -6.99321 0
M  V30 7550 C 1141.74 4.24011 -6.4274 0
M  V30 7551 C 1142.47 5.20775 -5.52155 0
M  V30 7552 O 1142.68 4.56534 -4.22446 0
M  V30 7553 C 1143.87 5.62629 -5.96531 0
M  V30 7554 O 1144.26 6.87667 -5.41053 0
M  V30 7555 C 1144.75 4.52537 -5.39283 0
M  V30 7556 C 1144.04 4.20027 -4.08623 0
M  V30 7557 N 1144.09 2.76189 -3.71603 0
M  V30 7558 C 1144.01 1.64862 -4.52822 0
M  V30 7559 N 1144.09 0.512671 -3.88633 0
M  V30 7560 C 1144.23 0.888083 -2.54977 0
M  V30 7561 C 1144.36 0.094668 -1.38677 0
M  V30 7562 O 1144.38 -1.13053 -1.28163 0
M  V30 7563 N 1144.48 0.890102 -0.232633 0
M  V30 7564 C 1144.48 2.26958 -0.21772 0
M  V30 7565 N 1144.61 2.84626 0.97925 0
M  V30 7566 N 1144.35 3.0178 -1.31033 0
M  V30 7567 C 1144.23 2.26781 -2.43843 0
M  V30 7568 H 1141.25 4.797 -7.24003 0
M  V30 7569 H 1140.98 3.69856 -5.84513 0
M  V30 7570 H 1141.85 6.10356 -5.41441 0
M  V30 7571 H 1144.51 4.79061 -3.27488 0
M  V30 7572 H 1144.79 3.64906 -6.05785 0
M  V30 7573 H 1145.78 4.8868 -5.2125 0
M  V30 7574 H 1143.94 5.66726 -7.06352 0
M  V30 7575 H 1143.89 1.71169 -5.60966 0
M  V30 7576 H 1144.58 0.419134 0.644739 0
M  V30 7577 H 1144.61 3.87332 1.06098 0
M  V30 7578 H 1144.71 2.26417 1.82483 0
M  V30 7579 P 1145.81 7.20834 -5.23717 0
M  V30 7580 O 1146.03 8.66104 -5.38572 0
M  V30 7581 O 1146.6 6.33544 -6.1349 0
M  V30 7582 O 1146.06 6.7751 -3.72168 0
M  V30 7583 C 1145.12 7.20825 -2.7076 0
M  V30 7584 C 1145.85 7.45864 -1.40599 0
M  V30 7585 O 1146.06 6.17651 -0.734225 0
M  V30 7586 C 1147.25 8.05808 -1.51899 0
M  V30 7587 O 1147.64 8.74358 -0.335205 0
M  V30 7588 C 1148.13 6.83093 -1.70294 0
M  V30 7589 C 1147.42 5.79992 -0.836974 0
M  V30 7590 N 1147.47 4.41864 -1.38293 0
M  V30 7591 C 1147.39 3.99538 -2.69438 0
M  V30 7592 N 1147.47 2.69909 -2.84277 0
M  V30 7593 C 1147.61 2.21719 -1.5408 0
M  V30 7594 C 1147.74 0.891712 -1.06628 0
M  V30 7595 O 1147.76 -0.161298 -1.70137 0
M  V30 7596 N 1147.86 0.856846 0.334985 0
M  V30 7597 C 1147.86 1.9641 1.15789 0
M  V30 7598 N 1147.99 1.72708 2.46522 0
M  V30 7599 N 1147.73 3.21165 0.713741 0
M  V30 7600 C 1147.61 3.26797 -0.639748 0
M  V30 7601 H 1144.63 8.13644 -3.0377 0
M  V30 7602 H 1144.36 6.42788 -2.55485 0
M  V30 7603 H 1145.23 8.12039 -0.792769 0
M  V30 7604 H 1147.89 5.80061 0.166416 0
M  V30 7605 H 1148.17 6.51287 -2.75604 0
M  V30 7606 H 1149.16 7.01734 -1.34462 0
M  V30 7607 H 1147.32 8.73674 -2.38337 0
M  V30 7608 H 1147.27 4.68207 -3.53221 0
M  V30 7609 H 1147.96 -0.0398818 0.767965 0
M  V30 7610 H 1147.99 2.50995 3.13503 0
M  V30 7611 H 1148.09 0.759148 2.80716 0
M  V30 7612 P 1149.19 8.91 8.91573e-12 0
M  V30 7613 O 1149.41 10.1726 0.733694 0
M  V30 7614 O 1149.98 8.73148 -1.23936 0
M  V30 7615 O 1149.44 7.66872 0.971405 0
M  V30 7616 C 1148.5 7.42309 2.04641 0
M  V30 7617 C 1149.23 6.86059 3.24661 0
M  V30 7618 O 1149.44 5.42847 3.03646 0
M  V30 7619 C 1150.63 7.41196 3.50753 0
M  V30 7620 O 1151.02 7.27073 4.86816 0
M  V30 7621 C 1151.51 6.5273 2.63741 0
M  V30 7622 C 1150.8 5.1842 2.73198 0
M  V30 7623 N 1150.85 4.38762 1.4784 0
M  V30 7624 C 1150.77 4.81605 0.168631 0
M  V30 7625 N 1150.85 3.85454 -0.713363 0
M  V30 7626 C 1150.99 2.6994 0.0566958 0
M  V30 7627 C 1151.12 1.34815 -0.338502 0
M  V30 7628 O 1151.14 0.869548 -1.47125 0
M  V30 7629 N 1151.24 0.496304 0.77465 0
M  V30 7630 C 1151.24 0.908403 2.09122 0
M  V30 7631 N 1151.37 -0.0517805 3.00955 0
M  V30 7632 N 1151.11 2.17875 2.46519 0
M  V30 7633 C 1150.99 3.01988 1.4033 0
M  V30 7634 H 1148.01 8.36803 2.32493 0
M  V30 7635 H 1147.74 6.70197 1.71129 0
M  V30 7636 H 1148.61 7.03551 4.13168 0
M  V30 7637 H 1151.27 4.59498 3.54415 0
M  V30 7638 H 1151.55 6.88898 1.59848 0
M  V30 7639 H 1152.54 6.46749 3.03687 0
M  V30 7640 H 1150.7 8.46908 3.20714 0
M  V30 7641 H 1150.65 5.86405 -0.105564 0
M  V30 7642 H 1151.34 -0.483664 0.597855 0
M  V30 7643 H 1151.37 0.187865 4.0116 0
M  V30 7644 H 1151.47 -1.03585 2.71726 0
M  V30 7645 P 1152.57 7.20834 5.23717 0
M  V30 7646 O 1152.79 7.80006 6.57415 0
M  V30 7647 O 1153.36 7.79416 4.13051 0
M  V30 7648 O 1152.82 5.63315 5.29344 0
M  V30 7649 C 1151.88 4.80318 6.01954 0
M  V30 7650 C 1152.61 3.64202 6.65911 0
M  V30 7651 O 1152.82 2.60736 5.64823 0
M  V30 7652 C 1154.01 3.93521 7.19518 0
M  V30 7653 O 1154.4 3.02071 8.21205 0
M  V30 7654 C 1154.89 3.73047 5.97036 0
M  V30 7655 C 1154.18 2.58828 5.25741 0
M  V30 7656 N 1154.23 2.68068 3.77503 0
M  V30 7657 H 1151.4 5.40394 6.8003 0
M  V30 7658 H 1151.12 4.41741 5.32532 0
M  V30 7659 H 1151.99 3.26371 7.47889 0
M  V30 7660 H 1154.65 1.64007 5.56746 0
M  V30 7661 H 1154.93 4.63439 5.3432 0
M  V30 7662 H 1155.92 3.44776 6.25925 0
M  V30 7663 H 1154.08 4.96707 7.57347 0
M  V30 7664 P 1155.95 2.75334 8.47391 0
M  V30 7665 O 1156.17 2.44571 9.90142 0
M  V30 7666 O 1156.74 3.87688 7.92115 0
M  V30 7667 O 1156.2 1.4459 7.59357 0
M  V30 7668 C 1155.26 0.347608 7.69215 0
M  V30 7669 C 1155.99 -0.96767 7.52806 0
M  V30 7670 O 1156.2 -1.21036 6.1011 0
M  V30 7671 C 1157.39 -1.04544 8.13308 0
M  V30 7672 O 1157.78 -2.38311 8.41922 0
M  V30 7673 C 1158.27 -0.491279 7.02284 0
M  V30 7674 C 1157.56 -0.996264 5.77469 0
M  V30 7675 N 1157.61 -0.0501916 4.62973 0
M  V30 7676 C 1157.53 1.32786 4.63244 0
M  V30 7677 N 1157.61 1.86957 3.44545 0
M  V30 7678 C 1157.75 0.780241 2.58481 0
M  V30 7679 C 1157.88 0.738536 1.17757 0
M  V30 7680 N 1158 -0.58337 0.711393 0
M  V30 7681 C 1158 -1.70816 1.51017 0
M  V30 7682 N 1158.13 -2.87826 0.880757 0
M  V30 7683 N 1157.87 -1.67126 2.8339 0
M  V30 7684 C 1157.75 -0.401421 3.30572 0
M  V30 7685 H 1154.77 0.374722 8.67691 0
M  V30 7686 H 1154.5 0.443485 6.90277 0
M  V30 7687 H 1155.37 -1.75537 7.96793 0
M  V30 7688 P 1159.33 -2.75334 8.47391 0
M  V30 7689 O 1159.55 -3.84128 9.44797 0
M  V30 7690 O 1160.12 -1.51947 8.68712 0
M  V30 7691 O 1159.58 -3.29363 6.99321 0
M  V30 7692 C 1158.64 -4.24011 6.4274 0
M  V30 7693 C 1159.37 -5.20775 5.52155 0
M  V30 7694 O 1159.58 -4.56534 4.22446 0
M  V30 7695 C 1160.77 -5.62629 5.96531 0
M  V30 7696 O 1161.16 -6.87667 5.41053 0
M  V30 7697 C 1161.65 -4.52537 5.39283 0
M  V30 7698 C 1160.94 -4.20027 4.08623 0
M  V30 7699 N 1160.99 -2.76189 3.71603 0
M  V30 7700 C 1160.91 -1.64862 4.52822 0
M  V30 7701 N 1160.99 -0.512671 3.88633 0
M  V30 7702 C 1161.13 -0.888083 2.54977 0
M  V30 7703 C 1161.26 -0.094668 1.38677 0
M  V30 7704 O 1161.28 1.13053 1.28163 0
M  V30 7705 N 1161.38 -0.890102 0.232633 0
M  V30 7706 C 1161.38 -2.26958 0.21772 0
M  V30 7707 N 1161.51 -2.84626 -0.97925 0
M  V30 7708 N 1161.25 -3.0178 1.31033 0
M  V30 7709 C 1161.13 -2.26781 2.43843 0
M  V30 7710 H 1158.15 -4.797 7.24003 0
M  V30 7711 H 1157.88 -3.69856 5.84513 0
M  V30 7712 H 1158.75 -6.10356 5.41441 0
M  V30 7713 H 1161.41 -4.79061 3.27488 0
M  V30 7714 H 1161.69 -3.64906 6.05785 0
M  V30 7715 H 1162.68 -4.8868 5.2125 0
M  V30 7716 H 1160.84 -5.66726 7.06352 0
M  V30 7717 H 1160.79 -1.71169 5.60966 0
M  V30 7718 H 1161.48 -0.419134 -0.644739 0
M  V30 7719 H 1161.51 -3.87332 -1.06098 0
M  V30 7720 H 1161.61 -2.26417 -1.82483 0
M  V30 7721 P 1162.71 -7.20834 5.23717 0
M  V30 7722 O 1162.93 -8.66274 5.38678 0
M  V30 7723 O 1163.5 -6.33687 6.13629 0
M  V30 7724 O 1162.96 -6.7751 3.72168 0
M  V30 7725 C 1162.02 -7.20919 2.70795 0
M  V30 7726 C 1162.75 -7.45864 1.40599 0
M  V30 7727 O 1162.96 -6.17751 0.734343 0
M  V30 7728 C 1164.15 -8.05906 1.51917 0
M  V30 7729 O 1164.54 -8.74358 0.335205 0
M  V30 7730 C 1165.03 -6.83093 1.70294 0
M  V30 7731 C 1164.32 -5.79992 0.836974 0
M  V30 7732 N 1164.37 -4.41864 1.38293 0
M  V30 7733 H 1161.54 -8.13738 3.03804 0
M  V30 7734 H 1161.26 -6.42974 2.55559 0
M  V30 7735 H 1162.13 -8.12139 0.792866 0
M  V30 7736 H 1164.79 -5.80178 -0.160643 0
M  V30 7737 H 1165.07 -6.51379 2.75643 0
M  V30 7738 H 1166.06 -7.01832 1.3448 0
M  V30 7739 H 1164.22 -8.73771 2.38364 0
M  V30 7740 P 1166.09 -8.91 -9.07291e-12 0
M  V30 7741 O 1166.31 -10.1736 -0.733766 0
M  V30 7742 O 1166.88 -8.73247 1.2395 0
M  V30 7743 O 1166.34 -7.66872 -0.971405 0
M  V30 7744 C 1165.4 -7.42212 -2.04614 0
M  V30 7745 C 1166.13 -6.86059 -3.24661 0
M  V30 7746 O 1166.34 -5.42847 -3.03646 0
M  V30 7747 C 1167.53 -7.41196 -3.50753 0
M  V30 7748 O 1167.92 -7.27073 -4.86816 0
M  V30 7749 C 1168.41 -6.5273 -2.63741 0
M  V30 7750 C 1167.7 -5.1842 -2.73198 0
M  V30 7751 N 1167.75 -4.38668 -1.47808 0
M  V30 7752 C 1167.9 -3.02239 -1.60048 0
M  V30 7753 O 1167.99 -2.46459 -2.67869 0
M  V30 7754 N 1167.94 -2.32436 -0.408571 0
M  V30 7755 C 1167.85 -2.85471 0.854993 0
M  V30 7756 C 1167.7 -4.28918 0.887335 0
M  V30 7757 C 1167.65 -5.00349 -0.255399 0
M  V30 7758 H 1164.91 -8.36803 -2.32493 0
M  V30 7759 H 1164.64 -6.701 -1.71105 0
M  V30 7760 H 1165.51 -7.03551 -4.13168 0
M  V30 7761 H 1168.17 -4.59773 -3.53894 0
M  V30 7762 H 1168.45 -6.88995 -1.59871 0
M  V30 7763 H 1169.44 -6.46749 -3.03687 0
M  V30 7764 H 1167.6 -8.46908 -3.20714 0
M  V30 7765 H 1167.53 -6.08548 -0.206986 0
M  V30 7766 H 1167.79 -6.36132 -5.14416 0
M  V30 7767 H 1171.81 9.0732 2.85239 0
M  V30 7768 O 1171.69 8.67639 2.00036 0
M  V30 7769 P 1170.25 8.7635 1.60911 0
M  V30 7770 O 1170.03 10.1388 1.11561 0
M  V30 7771 O 1169.46 8.36503 2.79617 0
M  V30 7772 O 1170 7.71806 0.42951 0
M  V30 7773 C 1170.94 7.67148 -0.673689 0
M  V30 7774 C 1170.21 7.33374 -1.95559 0
M  V30 7775 O 1170 5.88721 -2.00726 0
M  V30 7776 C 1168.81 7.92526 -2.10483 0
M  V30 7777 O 1168.42 8.02971 -3.47653 0
M  V30 7778 C 1167.93 6.89602 -1.41652 0
M  V30 7779 C 1168.64 5.59201 -1.75185 0
M  V30 7780 N 1168.59 4.58235 -0.662552 0
M  V30 7781 C 1168.67 4.7683 0.704049 0
M  V30 7782 N 1168.59 3.66233 1.39775 0
M  V30 7783 C 1168.45 2.66526 0.431739 0
M  V30 7784 C 1168.32 1.26394 0.575992 0
M  V30 7785 N 1168.2 0.62859 -0.67177 0
M  V30 7786 C 1168.2 1.27134 -1.89385 0
M  V30 7787 N 1168.07 0.492035 -2.96951 0
M  V30 7788 N 1168.33 2.58978 -2.02907 0
M  V30 7789 C 1168.45 3.22433 -0.832218 0
M  V30 7790 H 1171.43 8.65116 -0.777161 0
M  V30 7791 H 1171.7 6.90173 -0.474152 0
M  V30 7792 H 1170.84 7.66548 -2.79458 0
M  V30 7793 P 1166.87 8.03563 -3.84925 0
M  V30 7794 O 1166.65 8.85821 -5.0569 0
M  V30 7795 O 1166.08 8.41101 -2.65469 0
M  V30 7796 O 1166.62 6.4965 -4.18908 0
M  V30 7797 C 1167.56 5.81037 -5.05421 0
M  V30 7798 C 1166.83 4.78366 -5.89277 0
M  V30 7799 O 1166.62 3.58302 -5.08433 0
M  V30 7800 C 1165.43 5.17448 -6.36119 0
M  V30 7801 O 1165.04 4.45271 -7.53232 0
M  V30 7802 C 1164.55 4.74639 -5.19936 0
M  V30 7803 C 1165.26 3.49432 -4.70418 0
M  V30 7804 N 1165.21 3.31776 -3.22945 0
M  V30 7805 H 1168.05 6.54213 -5.71376 0
M  V30 7806 H 1168.32 5.30492 -4.44033 0
M  V30 7807 H 1167.46 4.55889 -6.76652 0
M  V30 7808 P 1163.49 4.23843 -7.83734 0
M  V30 7809 O 1163.27 4.19407 -9.29784 0
M  V30 7810 O 1162.7 5.24426 -7.09156 0
M  V30 7811 O 1163.24 2.79386 -7.20852 0
M  V30 7812 C 1164.18 1.7299 -7.50419 0
M  V30 7813 C 1163.45 0.41401 -7.5797 0
M  V30 7814 O 1163.24 -0.089787 -6.22035 0
M  V30 7815 C 1162.05 0.447224 -8.1878 0
M  V30 7816 O 1161.66 -0.825159 -8.71201 0
M  V30 7817 C 1161.17 0.783801 -6.99623 0
M  V30 7818 C 1161.88 0.0619192 -5.85967 0
M  V30 7819 N 1161.83 0.7859 -4.56281 0
M  V30 7820 C 1161.68 0.0359258 -3.39981 0
M  V30 7821 O 1161.59 -1.19723 -3.49038 0
M  V30 7822 N 1161.63 0.869151 -2.14025 0
M  V30 7823 C 1161.73 2.01207 -2.14363 0
M  V30 7824 N 1161.68 2.58978 -0.954287 0
M  V30 7825 C 1161.88 2.80817 -3.32215 0
M  V30 7826 C 1161.93 2.13785 -4.50884 0
M  V30 7827 H 1164.67 1.93401 -8.46693 0
M  V30 7828 H 1164.94 1.68181 -6.71046 0
M  V30 7829 H 1164.08 -0.289076 -8.15488 0
M  V30 7830 H 1161.42 -0.927166 -5.72947 0
M  V30 7831 H 1161.14 1.87 -6.82132 0
M  V30 7832 H 1160.15 0.404009 -7.13457 0
M  V30 7833 H 1161.98 1.20599 -8.97534 0
M  V30 7834 H 1162.06 2.70295 -5.43162 0
M  V30 7835 H 1161.95 3.89465 -3.27406 0
M  V30 7836 H 1161.57 2.01616 -0.107046 0
M  V30 7837 H 1161.76 3.61403 -0.873101 0
M  V30 7838 P 1160.11 -1.17771 -8.83182 0
M  V30 7839 O 1159.89 -2.07206 -9.98732 0
M  V30 7840 O 1159.32 0.0743816 -8.81969 0
M  V30 7841 O 1159.86 -1.97652 -7.47304 0
M  V30 7842 C 1160.8 -3.01055 -7.08599 0
M  V30 7843 C 1160.07 -4.12613 -6.37049 0
M  V30 7844 O 1159.86 -3.72827 -4.97879 0
M  V30 7845 C 1158.67 -4.45719 -6.88164 0
M  V30 7846 O 1158.28 -5.7877 -6.5624 0
M  V30 7847 C 1157.79 -3.47768 -6.11991 0
M  V30 7848 C 1158.5 -3.39356 -4.77615 0
M  V30 7849 N 1158.45 -2.04571 -4.15244 0
M  V30 7850 C 1158.3 -1.98587 -2.78314 0
M  V30 7851 O 1158.21 -2.98134 -2.08835 0
M  V30 7852 N 1158.26 -0.714467 -2.24925 0
M  V30 7853 C 1158.35 0.470001 -2.94169 0
M  V30 7854 C 1158.5 0.312541 -4.36783 0
M  V30 7855 C 1158.55 -0.914512 -4.92583 0
M  V30 7856 H 1161.29 -3.41169 -7.98575 0
M  V30 7857 H 1161.56 -2.58295 -6.41556 0
M  V30 7858 H 1160.7 -5.02657 -6.42673 0
M  V30 7859 H 1158.04 -4.11637 -4.08885 0
M  V30 7860 H 1157.76 -2.49626 -6.61679 0
M  V30 7861 H 1156.77 -3.86566 -6.00778 0
M  V30 7862 H 1158.6 -4.29943 -7.96918 0
M  V30 7863 H 1158.68 -1.00937 -6.00374 0
M  V30 7864 P 1156.73 -6.144 -6.45285 0
M  V30 7865 O 1156.51 -7.54673 -6.86199 0
M  V30 7866 O 1155.94 -5.12391 -7.179 0
M  V30 7867 O 1156.48 -5.99158 -4.88404 0
M  V30 7868 C 1157.42 -6.60234 -3.96415 0
M  V30 7869 C 1156.69 -7.08259 -2.72856 0
M  V30 7870 O 1156.48 -5.9427 -1.83651 0
M  V30 7871 C 1155.29 -7.64886 -2.9555 0
M  V30 7872 O 1154.9 -8.53963 -1.90717 0
M  V30 7873 C 1154.41 -6.4116 -2.90739 0
M  V30 7874 C 1155.12 -5.55375 -1.86963 0
M  V30 7875 N 1155.07 -4.09664 -2.15742 0
M  V30 7876 H 1157.91 -7.45574 -4.45629 0
M  V30 7877 H 1158.18 -5.86232 -3.67314 0
M  V30 7878 H 1157.32 -7.84412 -2.24479 0
M  V30 7879 P 1153.35 -8.7635 -1.60911 0
M  V30 7880 O 1153.13 -10.1388 -1.11561 0
M  V30 7881 O 1152.56 -8.36503 -2.79617 0
M  V30 7882 O 1153.1 -7.71906 -0.429565 0
M  V30 7883 C 1154.04 -7.67148 0.673689 0
M  V30 7884 C 1153.31 -7.33666 1.94851 0
M  V30 7885 O 1153.1 -5.88816 2.00759 0
M  V30 7886 C 1151.91 -7.92526 2.10483 0
M  V30 7887 O 1151.52 -8.03063 3.47693 0
M  V30 7888 C 1151.03 -6.89602 1.41652 0
M  V30 7889 C 1151.74 -5.59201 1.75185 0
M  V30 7890 N 1151.69 -4.58235 0.662552 0
M  V30 7891 C 1151.54 -3.24451 1.01643 0
M  V30 7892 O 1151.45 -2.94958 2.21722 0
M  V30 7893 N 1151.49 -2.30408 -0.165238 0
M  V30 7894 C 1151.59 -2.66048 -1.25118 0
M  V30 7895 N 1151.54 -1.70787 -2.16813 0
M  V30 7896 C 1151.74 -4.02732 -1.64413 0
M  V30 7897 C 1151.79 -4.9488 -0.63991 0
M  V30 7898 H 1154.53 -8.65017 0.777072 0
M  V30 7899 H 1154.8 -6.90173 0.474152 0
M  V30 7900 H 1153.94 -7.66642 2.79492 0
M  V30 7901 H 1151.28 -5.16254 2.65229 0
M  V30 7902 H 1151 -7.06532 0.329431 0
M  V30 7903 H 1150.01 -6.91023 1.82047 0
M  V30 7904 H 1151.84 -8.90873 1.62657 0
M  V30 7905 H 1151.92 -6.00104 -0.892197 0
M  V30 7906 H 1151.81 -4.31733 -2.69229 0
M  V30 7907 H 1151.43 -0.724835 -1.8844 0
M  V30 7908 H 1151.62 -1.94716 -3.16734 0
M  V30 7909 P 1149.97 -8.03563 3.84925 0
M  V30 7910 O 1149.75 -8.85821 5.0569 0
M  V30 7911 O 1149.18 -8.41101 2.65469 0
M  V30 7912 O 1149.72 -6.49734 4.18962 0
M  V30 7913 C 1150.66 -5.81037 5.05421 0
M  V30 7914 C 1149.93 -4.79018 5.88876 0
M  V30 7915 O 1149.72 -3.58359 5.08515 0
M  V30 7916 C 1148.53 -5.17448 6.36119 0
M  V30 7917 O 1148.14 -4.45322 7.53318 0
M  V30 7918 C 1147.65 -4.74639 5.19936 0
M  V30 7919 C 1148.36 -3.49432 4.70418 0
M  V30 7920 N 1148.31 -3.31776 3.22945 0
M  V30 7921 C 1148.16 -2.02742 2.72939 0
M  V30 7922 O 1148.07 -1.08301 3.52749 0
M  V30 7923 N 1148.11 -1.96117 1.22063 0
M  V30 7924 C 1148.21 -2.8878 0.551566 0
M  V30 7925 N 1148.16 -2.65609 -0.750198 0
M  V30 7926 C 1148.36 -4.22457 1.03707 0
M  V30 7927 C 1148.41 -4.37979 2.39113 0
M  V30 7928 H 1151.15 -6.54138 5.7131 0
M  V30 7929 H 1151.42 -5.30492 4.44033 0
M  V30 7930 H 1150.56 -4.55945 6.76735 0
M  V30 7931 H 1147.9 -2.6176 5.18021 0
M  V30 7932 H 1147.62 -5.52233 4.41941 0
M  V30 7933 H 1146.63 -4.52045 5.53452 0
M  V30 7934 H 1148.46 -6.25124 6.55234 0
M  V30 7935 H 1148.54 -5.37936 2.80552 0
M  V30 7936 H 1148.43 -5.07528 0.359553 0
M  V30 7937 H 1148.05 -1.69403 -1.09847 0
M  V30 7938 H 1148.24 -3.43701 -1.41792 0
M  V30 7939 P 1146.59 -4.23843 7.83734 0
M  V30 7940 O 1146.37 -4.19407 9.29784 0
M  V30 7941 O 1145.8 -5.24426 7.09156 0
M  V30 7942 O 1146.34 -2.79386 7.20852 0
M  V30 7943 C 1147.28 -1.7299 7.50419 0
M  V30 7944 C 1146.55 -0.41401 7.5797 0
M  V30 7945 O 1146.34 0.089787 6.22035 0
M  V30 7946 C 1145.15 -0.447224 8.1878 0
M  V30 7947 O 1144.76 0.825159 8.71201 0
M  V30 7948 C 1144.27 -0.783801 6.99623 0
M  V30 7949 C 1144.98 -0.0619192 5.85967 0
M  V30 7950 N 1144.93 -0.7859 4.56281 0
M  V30 7951 C 1144.78 -0.0359258 3.39981 0
M  V30 7952 O 1144.69 1.19723 3.49038 0
M  V30 7953 N 1144.73 -0.869151 2.14025 0
M  V30 7954 C 1144.83 -2.01207 2.14363 0
M  V30 7955 N 1144.78 -2.58978 0.954287 0
M  V30 7956 C 1144.98 -2.80817 3.32215 0
M  V30 7957 C 1145.03 -2.13785 4.50884 0
M  V30 7958 H 1147.77 -1.93401 8.46693 0
M  V30 7959 H 1148.04 -1.68181 6.71046 0
M  V30 7960 H 1147.18 0.289076 8.15488 0
M  V30 7961 H 1144.52 0.927166 5.72947 0
M  V30 7962 H 1144.24 -1.87 6.82132 0
M  V30 7963 H 1143.25 -0.404009 7.13457 0
M  V30 7964 H 1145.08 -1.20599 8.97534 0
M  V30 7965 H 1145.16 -2.70295 5.43162 0
M  V30 7966 H 1145.05 -3.89465 3.27406 0
M  V30 7967 H 1144.67 -2.01616 0.107046 0
M  V30 7968 H 1144.86 -3.61403 0.873101 0
M  V30 7969 P 1143.21 1.17771 8.83182 0
M  V30 7970 O 1142.99 2.07206 9.98732 0
M  V30 7971 O 1142.42 -0.0743816 8.81969 0
M  V30 7972 O 1142.96 1.97652 7.47304 0
M  V30 7973 C 1143.9 3.01133 7.08783 0
M  V30 7974 C 1143.17 4.12613 6.37049 0
M  V30 7975 O 1142.96 3.72827 4.97879 0
M  V30 7976 C 1141.77 4.45085 6.88694 0
M  V30 7977 O 1141.38 5.7877 6.5624 0
M  V30 7978 C 1140.89 3.47817 6.12078 0
M  V30 7979 C 1141.6 3.39414 4.77697 0
M  V30 7980 N 1141.55 2.04199 4.15538 0
M  V30 7981 H 1144.39 3.41248 7.98759 0
M  V30 7982 H 1144.66 2.57728 6.42 0
M  V30 7983 H 1143.8 5.02657 6.42673 0
M  V30 7984 H 1141.14 4.11708 4.08956 0
M  V30 7985 H 1140.86 2.49626 6.61679 0
M  V30 7986 H 1139.87 3.8662 6.00862 0
M  V30 7987 H 1141.7 4.29991 7.97006 0
M  V30 7988 P 1139.83 6.144 6.45285 0
M  V30 7989 O 1139.61 7.54673 6.86199 0
M  V30 7990 O 1139.04 5.12391 7.179 0
M  V30 7991 O 1139.58 5.99158 4.88404 0
M  V30 7992 C 1140.52 6.60234 3.96415 0
M  V30 7993 C 1139.79 7.08259 2.72856 0
M  V30 7994 O 1139.58 5.9427 1.83651 0
M  V30 7995 C 1138.39 7.64886 2.9555 0
M  V30 7996 O 1138 8.53963 1.90717 0
M  V30 7997 C 1137.51 6.4116 2.90739 0
M  V30 7998 C 1138.22 5.55375 1.86963 0
M  V30 7999 N 1138.17 4.09664 2.15742 0
M  V30 8000 H 1141.01 7.45574 4.45629 0
M  V30 8001 H 1141.28 5.86232 3.67314 0
M  V30 8002 H 1140.42 7.84412 2.24479 0
M  V30 8003 P 1136.45 8.7635 1.60911 0
M  V30 8004 O 1136.23 10.1388 1.11561 0
M  V30 8005 O 1135.66 8.36503 2.79617 0
M  V30 8006 O 1136.2 7.71906 0.429565 0
M  V30 8007 C 1137.14 7.67148 -0.673689 0
M  V30 8008 C 1136.41 7.33666 -1.94851 0
M  V30 8009 O 1136.2 5.88816 -2.00759 0
M  V30 8010 C 1135.01 7.92526 -2.10483 0
M  V30 8011 O 1134.62 8.03063 -3.47693 0
M  V30 8012 C 1134.13 6.89602 -1.41652 0
M  V30 8013 C 1134.84 5.59201 -1.75185 0
M  V30 8014 N 1134.79 4.58235 -0.662552 0
M  V30 8015 C 1134.64 3.24451 -1.01643 0
M  V30 8016 O 1134.55 2.94958 -2.21722 0
M  V30 8017 N 1134.59 2.30408 0.165238 0
M  V30 8018 C 1134.69 2.66048 1.25118 0
M  V30 8019 N 1134.64 1.70787 2.16813 0
M  V30 8020 C 1134.84 4.02732 1.64413 0
M  V30 8021 C 1134.89 4.9488 0.63991 0
M  V30 8022 H 1137.63 8.65017 -0.777072 0
M  V30 8023 H 1137.9 6.90173 -0.474152 0
M  V30 8024 H 1137.04 7.66642 -2.79492 0
M  V30 8025 H 1134.38 5.16254 -2.65229 0
M  V30 8026 H 1134.1 7.06532 -0.329431 0
M  V30 8027 H 1133.11 6.91023 -1.82047 0
M  V30 8028 H 1134.94 8.90873 -1.62657 0
M  V30 8029 H 1135.02 6.00104 0.892197 0
M  V30 8030 H 1134.91 4.31733 2.69229 0
M  V30 8031 H 1134.53 0.724835 1.8844 0
M  V30 8032 H 1134.72 1.94716 3.16734 0
M  V30 8033 P 1133.07 8.03563 -3.84925 0
M  V30 8034 O 1132.85 8.85821 -5.0569 0
M  V30 8035 O 1132.28 8.41101 -2.65469 0
M  V30 8036 O 1132.82 6.49734 -4.18962 0
M  V30 8037 C 1133.76 5.81037 -5.05421 0
M  V30 8038 C 1133.03 4.79018 -5.88876 0
M  V30 8039 O 1132.82 3.58359 -5.08515 0
M  V30 8040 C 1131.63 5.17448 -6.36119 0
M  V30 8041 O 1131.24 4.45322 -7.53318 0
M  V30 8042 C 1130.75 4.74639 -5.19936 0
M  V30 8043 C 1131.46 3.49432 -4.70418 0
M  V30 8044 N 1131.41 3.31776 -3.22945 0
M  V30 8045 C 1131.26 2.02742 -2.72939 0
M  V30 8046 O 1131.17 1.08301 -3.52749 0
M  V30 8047 N 1131.21 1.96117 -1.22063 0
M  V30 8048 C 1131.31 2.8878 -0.551566 0
M  V30 8049 N 1131.26 2.65609 0.750198 0
M  V30 8050 C 1131.46 4.22457 -1.03707 0
M  V30 8051 C 1131.51 4.37979 -2.39113 0
M  V30 8052 H 1134.25 6.54138 -5.7131 0
M  V30 8053 H 1134.52 5.30492 -4.44033 0
M  V30 8054 H 1133.66 4.55945 -6.76735 0
M  V30 8055 H 1131 2.6176 -5.18021 0
M  V30 8056 H 1130.72 5.52233 -4.41941 0
M  V30 8057 H 1129.73 4.52045 -5.53452 0
M  V30 8058 H 1131.56 6.25124 -6.55234 0
M  V30 8059 H 1131.64 5.37936 -2.80552 0
M  V30 8060 H 1131.53 5.07528 -0.359553 0
M  V30 8061 H 1131.15 1.69403 1.09847 0
M  V30 8062 H 1131.34 3.43701 1.41792 0
M  V30 8063 P 1129.69 4.23843 -7.83734 0
M  V30 8064 O 1129.47 4.19407 -9.29784 0
M  V30 8065 O 1128.9 5.24426 -7.09156 0
M  V30 8066 O 1129.44 2.7935 -7.20758 0
M  V30 8067 C 1130.38 1.7299 -7.50419 0
M  V30 8068 C 1129.65 0.406376 -7.57911 0
M  V30 8069 O 1129.44 -0.0897726 -6.21935 0
M  V30 8070 C 1128.25 0.447224 -8.1878 0
M  V30 8071 O 1127.86 -0.825065 -8.71101 0
M  V30 8072 C 1127.37 0.783801 -6.99623 0
M  V30 8073 C 1128.08 0.0619192 -5.85967 0
M  V30 8074 N 1128.03 0.7859 -4.56281 0
M  V30 8075 H 1130.87 1.93423 -8.4679 0
M  V30 8076 H 1131.14 1.68181 -6.71046 0
M  V30 8077 H 1130.28 -0.289041 -8.15388 0
M  V30 8078 P 1126.31 -1.17771 -8.83182 0
M  V30 8079 O 1126.09 -2.07206 -9.98732 0
M  V30 8080 O 1125.52 0.0743816 -8.81969 0
M  V30 8081 O 1126.06 -1.97678 -7.474 0
M  V30 8082 C 1127 -3.01133 -7.08783 0
M  V30 8083 C 1126.27 -4.1203 -6.37546 0
M  V30 8084 O 1126.06 -3.72887 -4.9796 0
M  V30 8085 C 1124.87 -4.45085 -6.88694 0
M  V30 8086 O 1124.48 -5.78836 -6.56315 0
M  V30 8087 C 1123.99 -3.47817 -6.12078 0
M  V30 8088 C 1124.7 -3.39414 -4.77697 0
M  V30 8089 N 1124.65 -2.04615 -4.15333 0
M  V30 8090 C 1124.5 -1.96929 -2.77162 0
M  V30 8091 O 1124.41 -3.02017 -2.12006 0
M  V30 8092 N 1124.45 -0.55485 -2.24237 0
M  V30 8093 C 1124.55 0.367808 -2.9169 0
M  V30 8094 N 1124.5 1.53426 -2.29427 0
M  V30 8095 C 1124.7 0.319148 -4.33828 0
M  V30 8096 C 1124.75 -0.920672 -4.90433 0
M  V30 8097 H 1127.49 -3.41209 -7.98667 0
M  V30 8098 H 1127.76 -2.5837 -6.41742 0
M  V30 8099 H 1126.9 -5.02718 -6.42752 0
M  V30 8100 H 1124.24 -4.11779 -4.09026 0
M  V30 8101 H 1123.96 -2.49661 -6.61772 0
M  V30 8102 H 1122.97 -3.86674 -6.00946 0
M  V30 8103 H 1124.8 -4.29991 -7.97006 0
M  V30 8104 H 1124.88 -1.00589 -5.98303 0
M  V30 8105 H 1124.77 1.22639 -4.93799 0
M  V30 8106 H 1124.39 1.56819 -1.27167 0
M  V30 8107 H 1124.58 2.41062 -2.83063 0
M  V30 8108 P 1122.93 -6.144 -6.45285 0
M  V30 8109 O 1122.71 -7.54673 -6.86199 0
M  V30 8110 O 1122.14 -5.12391 -7.179 0
M  V30 8111 O 1122.68 -5.99158 -4.88404 0
M  V30 8112 C 1123.62 -6.60234 -3.96415 0
M  V30 8113 C 1122.89 -7.08259 -2.72856 0
M  V30 8114 O 1122.68 -5.9427 -1.83651 0
M  V30 8115 C 1121.49 -7.64886 -2.9555 0
M  V30 8116 O 1121.1 -8.53963 -1.90717 0
M  V30 8117 C 1120.61 -6.4116 -2.90739 0
M  V30 8118 C 1121.32 -5.55375 -1.86963 0
M  V30 8119 N 1121.27 -4.09664 -2.15742 0
M  V30 8120 C 1121.35 -3.44381 -3.37233 0
M  V30 8121 N 1121.27 -2.14131 -3.28347 0
M  V30 8122 C 1121.13 -1.90247 -1.91588 0
M  V30 8123 C 1121 -0.683992 -1.20892 0
M  V30 8124 N 1120.88 -0.903396 0.173998 0
M  V30 8125 C 1120.88 -2.14171 0.784879 0
M  V30 8126 N 1120.75 -2.1435 2.11317 0
M  V30 8127 N 1121.01 -3.28784 0.119316 0
M  V30 8128 C 1121.13 -3.0977 -1.22194 0
M  V30 8129 H 1124.11 -7.45574 -4.45629 0
M  V30 8130 H 1124.38 -5.86232 -3.67314 0
M  V30 8131 H 1123.52 -7.84412 -2.24479 0
M  V30 8132 P 1119.55 -8.7635 -1.60911 0
M  V30 8133 O 1119.33 -10.1388 -1.11561 0
M  V30 8134 O 1118.76 -8.36503 -2.79617 0
M  V30 8135 O 1119.3 -7.71806 -0.42951 0
M  V30 8136 C 1120.24 -7.67148 0.673689 0
M  V30 8137 C 1119.51 -7.33374 1.95559 0
M  V30 8138 O 1119.3 -5.88721 2.00726 0
M  V30 8139 C 1118.11 -7.92526 2.10483 0
M  V30 8140 O 1117.72 -8.02971 3.47653 0
M  V30 8141 C 1117.23 -6.89602 1.41652 0
M  V30 8142 C 1117.94 -5.59201 1.75185 0
M  V30 8143 N 1117.89 -4.58235 0.662552 0
M  V30 8144 C 1117.97 -4.7683 -0.704049 0
M  V30 8145 N 1117.89 -3.66233 -1.39775 0
M  V30 8146 C 1117.75 -2.66526 -0.431739 0
M  V30 8147 C 1117.62 -1.26394 -0.575992 0
M  V30 8148 N 1117.5 -0.62859 0.67177 0
M  V30 8149 C 1117.5 -1.27134 1.89385 0
M  V30 8150 N 1117.37 -0.492035 2.96951 0
M  V30 8151 N 1117.63 -2.58978 2.02907 0
M  V30 8152 C 1117.75 -3.22433 0.832218 0
M  V30 8153 H 1120.73 -8.65116 0.777161 0
M  V30 8154 H 1121 -6.90173 0.474152 0
M  V30 8155 H 1120.14 -7.66548 2.79458 0
M  V30 8156 P 1116.17 -8.03563 3.84925 0
M  V30 8157 O 1115.95 -8.85821 5.0569 0
M  V30 8158 O 1115.38 -8.41101 2.65469 0
M  V30 8159 O 1115.92 -6.49734 4.18962 0
M  V30 8160 C 1116.86 -5.81037 5.05421 0
M  V30 8161 C 1116.13 -4.79018 5.88876 0
M  V30 8162 O 1115.92 -3.58359 5.08515 0
M  V30 8163 C 1114.73 -5.17448 6.36119 0
M  V30 8164 O 1114.34 -4.45322 7.53318 0
M  V30 8165 C 1113.85 -4.74639 5.19936 0
M  V30 8166 C 1114.56 -3.49432 4.70418 0
M  V30 8167 N 1114.51 -3.31776 3.22945 0
M  V30 8168 C 1114.36 -2.02742 2.72939 0
M  V30 8169 O 1114.27 -1.08301 3.52749 0
M  V30 8170 N 1114.31 -1.96117 1.22063 0
M  V30 8171 C 1114.41 -2.8878 0.551566 0
M  V30 8172 N 1114.36 -2.65609 -0.750198 0
M  V30 8173 C 1114.56 -4.22457 1.03707 0
M  V30 8174 C 1114.61 -4.37979 2.39113 0
M  V30 8175 H 1117.35 -6.54138 5.7131 0
M  V30 8176 H 1117.62 -5.30492 4.44033 0
M  V30 8177 H 1116.76 -4.55945 6.76735 0
M  V30 8178 H 1114.1 -2.6176 5.18021 0
M  V30 8179 H 1113.82 -5.52233 4.41941 0
M  V30 8180 H 1112.83 -4.52045 5.53452 0
M  V30 8181 H 1114.66 -6.25124 6.55234 0
M  V30 8182 H 1114.74 -5.37936 2.80552 0
M  V30 8183 H 1114.63 -5.07528 0.359553 0
M  V30 8184 H 1114.25 -1.69403 -1.09847 0
M  V30 8185 H 1114.44 -3.43701 -1.41792 0
M  V30 8186 P 1112.79 -4.23843 7.83734 0
M  V30 8187 O 1112.57 -4.19407 9.29784 0
M  V30 8188 O 1112 -5.24426 7.09156 0
M  V30 8189 O 1112.54 -2.79386 7.20852 0
M  V30 8190 C 1113.48 -1.7299 7.50419 0
M  V30 8191 C 1112.75 -0.41401 7.5797 0
M  V30 8192 O 1112.54 0.089787 6.22035 0
M  V30 8193 C 1111.35 -0.447224 8.1878 0
M  V30 8194 O 1110.96 0.825159 8.71201 0
M  V30 8195 C 1110.47 -0.783801 6.99623 0
M  V30 8196 C 1111.18 -0.0619192 5.85967 0
M  V30 8197 N 1111.13 -0.7859 4.56281 0
M  V30 8198 C 1110.98 -0.0359258 3.39981 0
M  V30 8199 O 1110.89 1.19723 3.49038 0
M  V30 8200 N 1110.93 -0.869151 2.14025 0
M  V30 8201 C 1111.03 -2.01207 2.14363 0
M  V30 8202 N 1110.98 -2.58978 0.954287 0
M  V30 8203 C 1111.18 -2.80817 3.32215 0
M  V30 8204 C 1111.23 -2.13785 4.50884 0
M  V30 8205 H 1113.97 -1.93401 8.46693 0
M  V30 8206 H 1114.24 -1.68181 6.71046 0
M  V30 8207 H 1113.38 0.289076 8.15488 0
M  V30 8208 H 1110.72 0.927166 5.72947 0
M  V30 8209 H 1110.44 -1.87 6.82132 0
M  V30 8210 H 1109.45 -0.404009 7.13457 0
M  V30 8211 H 1111.28 -1.20599 8.97534 0
M  V30 8212 H 1111.36 -2.70295 5.43162 0
M  V30 8213 H 1111.25 -3.89465 3.27406 0
M  V30 8214 H 1110.87 -2.01616 0.107046 0
M  V30 8215 H 1111.06 -3.61403 0.873101 0
M  V30 8216 P 1109.41 1.17771 8.83182 0
M  V30 8217 O 1109.19 2.07206 9.98732 0
M  V30 8218 O 1108.62 -0.0743816 8.81969 0
M  V30 8219 O 1109.16 1.97652 7.47304 0
M  V30 8220 C 1110.1 3.01133 7.08783 0
M  V30 8221 C 1109.37 4.12613 6.37049 0
M  V30 8222 O 1109.16 3.72827 4.97879 0
M  V30 8223 C 1107.97 4.45085 6.88694 0
M  V30 8224 O 1107.58 5.7877 6.5624 0
M  V30 8225 C 1107.09 3.47817 6.12078 0
M  V30 8226 C 1107.8 3.39414 4.77697 0
M  V30 8227 N 1107.75 2.04199 4.15538 0
M  V30 8228 H 1110.59 3.41248 7.98759 0
M  V30 8229 H 1110.86 2.57728 6.42 0
M  V30 8230 H 1110 5.02657 6.42673 0
M  V30 8231 H 1107.34 4.11708 4.08956 0
M  V30 8232 H 1107.06 2.49626 6.61679 0
M  V30 8233 H 1106.07 3.8662 6.00862 0
M  V30 8234 H 1107.9 4.29991 7.97006 0
M  V30 8235 P 1106.03 6.144 6.45285 0
M  V30 8236 O 1105.81 7.54673 6.86199 0
M  V30 8237 O 1105.24 5.12391 7.179 0
M  V30 8238 O 1105.78 5.99236 4.88467 0
M  V30 8239 C 1106.72 6.60234 3.96415 0
M  V30 8240 C 1105.99 7.08079 2.736 0
M  V30 8241 O 1105.78 5.94365 1.8368 0
M  V30 8242 C 1104.59 7.64886 2.9555 0
M  V30 8243 O 1104.2 8.5406 1.90739 0
M  V30 8244 C 1103.71 6.4116 2.90739 0
M  V30 8245 C 1104.42 5.55375 1.86963 0
M  V30 8246 N 1104.37 4.09664 2.15742 0
M  V30 8247 C 1104.22 3.22231 1.08477 0
M  V30 8248 O 1104.13 3.68951 -0.0600489 0
M  V30 8249 N 1104.17 1.76692 1.48799 0
M  V30 8250 C 1104.27 1.41695 2.57602 0
M  V30 8251 N 1104.22 0.107296 2.75791 0
M  V30 8252 C 1104.42 2.29178 3.69733 0
M  V30 8253 C 1104.47 3.62753 3.42653 0
M  V30 8254 H 1107.21 7.45488 4.45578 0
M  V30 8255 H 1107.48 5.86232 3.67314 0
M  V30 8256 H 1106.62 7.84508 2.24507 0
M  V30 8257 H 1103.96 5.73556 0.888715 0
M  V30 8258 H 1103.68 5.9096 3.88638 0
M  V30 8259 H 1102.69 6.66053 2.58894 0
M  V30 8260 H 1104.52 8.16339 3.92049 0
M  V30 8261 H 1104.6 4.33052 4.24913 0
M  V30 8262 H 1104.49 1.9103 4.71577 0
M  V30 8263 H 1104.11 -0.521221 1.95056 0
M  V30 8264 H 1104.3 -0.286429 3.70695 0
M  V30 8265 P 1102.65 8.7635 1.60911 0
M  V30 8266 O 1102.43 10.1388 1.11561 0
M  V30 8267 O 1101.86 8.36503 2.79617 0
M  V30 8268 O 1102.4 7.71906 0.429565 0
M  V30 8269 C 1103.34 7.67148 -0.673689 0
M  V30 8270 C 1102.61 7.33666 -1.94851 0
M  V30 8271 O 1102.4 5.88816 -2.00759 0
M  V30 8272 C 1101.21 7.92526 -2.10483 0
M  V30 8273 O 1100.82 8.03063 -3.47693 0
M  V30 8274 C 1100.33 6.89602 -1.41652 0
M  V30 8275 C 1101.04 5.59201 -1.75185 0
M  V30 8276 N 1100.99 4.58235 -0.662552 0
M  V30 8277 C 1100.84 3.24451 -1.01643 0
M  V30 8278 O 1100.75 2.94958 -2.21722 0
M  V30 8279 N 1100.79 2.30408 0.165238 0
M  V30 8280 C 1100.89 2.66048 1.25118 0
M  V30 8281 N 1100.84 1.70787 2.16813 0
M  V30 8282 C 1101.04 4.02732 1.64413 0
M  V30 8283 C 1101.09 4.9488 0.63991 0
M  V30 8284 H 1103.83 8.65017 -0.777072 0
M  V30 8285 H 1104.1 6.90173 -0.474152 0
M  V30 8286 H 1103.24 7.66642 -2.79492 0
M  V30 8287 H 1100.58 5.16254 -2.65229 0
M  V30 8288 H 1100.3 7.06532 -0.329431 0
M  V30 8289 H 1099.31 6.91023 -1.82047 0
M  V30 8290 H 1101.14 8.90873 -1.62657 0
M  V30 8291 H 1101.22 6.00104 0.892197 0
M  V30 8292 H 1101.11 4.31733 2.69229 0
M  V30 8293 H 1100.73 0.724835 1.8844 0
M  V30 8294 H 1100.92 1.94716 3.16734 0
M  V30 8295 P 1099.27 8.03563 -3.84925 0
M  V30 8296 O 1099.05 8.85821 -5.0569 0
M  V30 8297 O 1098.48 8.41101 -2.65469 0
M  V30 8298 O 1099.02 6.49734 -4.18962 0
M  V30 8299 C 1099.96 5.81037 -5.05421 0
M  V30 8300 C 1099.23 4.79018 -5.88876 0
M  V30 8301 O 1099.02 3.58359 -5.08515 0
M  V30 8302 C 1097.83 5.17448 -6.36119 0
M  V30 8303 O 1097.44 4.45322 -7.53318 0
M  V30 8304 C 1096.95 4.74639 -5.19936 0
M  V30 8305 C 1097.66 3.49432 -4.70418 0
M  V30 8306 N 1097.61 3.31776 -3.22945 0
M  V30 8307 C 1097.46 2.02742 -2.72939 0
M  V30 8308 O 1097.37 1.08301 -3.52749 0
M  V30 8309 N 1097.41 1.96117 -1.22063 0
M  V30 8310 C 1097.51 2.8878 -0.551566 0
M  V30 8311 N 1097.46 2.65609 0.750198 0
M  V30 8312 C 1097.66 4.22457 -1.03707 0
M  V30 8313 C 1097.71 4.37979 -2.39113 0
M  V30 8314 H 1100.45 6.54138 -5.7131 0
M  V30 8315 H 1100.72 5.30492 -4.44033 0
M  V30 8316 H 1099.86 4.55945 -6.76735 0
M  V30 8317 H 1097.2 2.6176 -5.18021 0
M  V30 8318 H 1096.92 5.52233 -4.41941 0
M  V30 8319 H 1095.93 4.52045 -5.53452 0
M  V30 8320 H 1097.76 6.25124 -6.55234 0
M  V30 8321 H 1097.84 5.37936 -2.80552 0
M  V30 8322 H 1097.73 5.07528 -0.359553 0
M  V30 8323 H 1097.35 1.69403 1.09847 0
M  V30 8324 H 1097.54 3.43701 1.41792 0
M  V30 8325 P 1095.89 4.23843 -7.83734 0
M  V30 8326 O 1095.67 4.19407 -9.29784 0
M  V30 8327 O 1095.1 5.24426 -7.09156 0
M  V30 8328 O 1095.64 2.79386 -7.20852 0
M  V30 8329 C 1096.58 1.7299 -7.50419 0
M  V30 8330 C 1095.85 0.41401 -7.5797 0
M  V30 8331 O 1095.64 -0.089787 -6.22035 0
M  V30 8332 C 1094.45 0.447224 -8.1878 0
M  V30 8333 O 1094.06 -0.825159 -8.71201 0
M  V30 8334 C 1093.57 0.783801 -6.99623 0
M  V30 8335 C 1094.28 0.0619192 -5.85967 0
M  V30 8336 N 1094.23 0.7859 -4.56281 0
M  V30 8337 C 1094.08 0.0359258 -3.39981 0
M  V30 8338 O 1093.99 -1.19723 -3.49038 0
M  V30 8339 N 1094.03 0.869151 -2.14025 0
M  V30 8340 C 1094.13 2.01207 -2.14363 0
M  V30 8341 N 1094.08 2.58978 -0.954287 0
M  V30 8342 C 1094.28 2.80817 -3.32215 0
M  V30 8343 C 1094.33 2.13785 -4.50884 0
M  V30 8344 H 1097.07 1.93401 -8.46693 0
M  V30 8345 H 1097.34 1.68181 -6.71046 0
M  V30 8346 H 1096.48 -0.289076 -8.15488 0
M  V30 8347 H 1093.82 -0.927166 -5.72947 0
M  V30 8348 H 1093.54 1.87 -6.82132 0
M  V30 8349 H 1092.55 0.404009 -7.13457 0
M  V30 8350 H 1094.38 1.20599 -8.97534 0
M  V30 8351 H 1094.46 2.70295 -5.43162 0
M  V30 8352 H 1094.35 3.89465 -3.27406 0
M  V30 8353 H 1093.97 2.01616 -0.107046 0
M  V30 8354 H 1094.16 3.61403 -0.873101 0
M  V30 8355 P 1092.51 -1.17771 -8.83182 0
M  V30 8356 O 1092.29 -2.07206 -9.98732 0
M  V30 8357 O 1091.72 0.0743816 -8.81969 0
M  V30 8358 O 1092.26 -1.97652 -7.47304 0
M  V30 8359 C 1093.2 -3.01055 -7.08599 0
M  V30 8360 C 1092.47 -4.12613 -6.37049 0
M  V30 8361 O 1092.26 -3.72827 -4.97879 0
M  V30 8362 C 1091.07 -4.45719 -6.88164 0
M  V30 8363 O 1090.68 -5.7877 -6.5624 0
M  V30 8364 C 1090.19 -3.47768 -6.11991 0
M  V30 8365 C 1090.9 -3.39356 -4.77615 0
M  V30 8366 N 1090.85 -2.04571 -4.15244 0
M  V30 8367 C 1090.7 -1.98587 -2.78314 0
M  V30 8368 O 1090.61 -2.98134 -2.08835 0
M  V30 8369 N 1090.66 -0.714467 -2.24925 0
M  V30 8370 C 1090.75 0.470001 -2.94169 0
M  V30 8371 C 1090.9 0.312541 -4.36783 0
M  V30 8372 C 1090.95 -0.914512 -4.92583 0
M  V30 8373 H 1093.69 -3.41169 -7.98575 0
M  V30 8374 H 1093.96 -2.58295 -6.41556 0
M  V30 8375 H 1093.1 -5.02657 -6.42673 0
M  V30 8376 H 1090.44 -4.11637 -4.08885 0
M  V30 8377 H 1090.16 -2.49626 -6.61679 0
M  V30 8378 H 1089.17 -3.86566 -6.00778 0
M  V30 8379 H 1091 -4.29943 -7.96918 0
M  V30 8380 H 1091.08 -1.00937 -6.00374 0
M  V30 8381 P 1089.13 -6.144 -6.45285 0
M  V30 8382 O 1088.91 -7.54673 -6.86199 0
M  V30 8383 O 1088.34 -5.12391 -7.179 0
M  V30 8384 O 1088.88 -5.99236 -4.88467 0
M  V30 8385 C 1089.82 -6.60234 -3.96415 0
M  V30 8386 C 1089.09 -7.08079 -2.736 0
M  V30 8387 O 1088.88 -5.94365 -1.8368 0
M  V30 8388 C 1087.69 -7.64886 -2.9555 0
M  V30 8389 O 1087.3 -8.5406 -1.90739 0
M  V30 8390 C 1086.81 -6.4116 -2.90739 0
M  V30 8391 C 1087.52 -5.55375 -1.86963 0
M  V30 8392 N 1087.47 -4.09664 -2.15742 0
M  V30 8393 C 1087.32 -3.22231 -1.08477 0
M  V30 8394 O 1087.23 -3.68951 0.0600489 0
M  V30 8395 N 1087.27 -1.76692 -1.48799 0
M  V30 8396 C 1087.37 -1.41695 -2.57602 0
M  V30 8397 N 1087.32 -0.107296 -2.75791 0
M  V30 8398 C 1087.52 -2.29178 -3.69733 0
M  V30 8399 C 1087.57 -3.62753 -3.42653 0
M  V30 8400 H 1090.31 -7.45488 -4.45578 0
M  V30 8401 H 1090.58 -5.86232 -3.67314 0
M  V30 8402 H 1089.72 -7.84508 -2.24507 0
M  V30 8403 H 1087.06 -5.73556 -0.888715 0
M  V30 8404 H 1086.78 -5.9096 -3.88638 0
M  V30 8405 H 1085.79 -6.66053 -2.58894 0
M  V30 8406 H 1087.62 -8.16339 -3.92049 0
M  V30 8407 H 1087.7 -4.33052 -4.24913 0
M  V30 8408 H 1087.59 -1.9103 -4.71577 0
M  V30 8409 H 1087.21 0.521221 -1.95056 0
M  V30 8410 H 1087.4 0.286429 -3.70695 0
M  V30 8411 P 1085.75 -8.7635 -1.60911 0
M  V30 8412 O 1085.53 -10.1388 -1.11561 0
M  V30 8413 O 1084.96 -8.36503 -2.79617 0
M  V30 8414 O 1085.5 -7.71806 -0.42951 0
M  V30 8415 C 1086.44 -7.67148 0.673689 0
M  V30 8416 C 1085.71 -7.33374 1.95559 0
M  V30 8417 O 1085.5 -5.88721 2.00726 0
M  V30 8418 C 1084.31 -7.92526 2.10483 0
M  V30 8419 O 1083.92 -8.02971 3.47653 0
M  V30 8420 C 1083.43 -6.89602 1.41652 0
M  V30 8421 C 1084.14 -5.59201 1.75185 0
M  V30 8422 N 1084.09 -4.58235 0.662552 0
M  V30 8423 C 1084.17 -4.7683 -0.704049 0
M  V30 8424 N 1084.09 -3.66233 -1.39775 0
M  V30 8425 C 1083.95 -2.66526 -0.431739 0
M  V30 8426 C 1083.82 -1.26394 -0.575992 0
M  V30 8427 N 1083.7 -0.62859 0.67177 0
M  V30 8428 C 1083.7 -1.27134 1.89385 0
M  V30 8429 N 1083.57 -0.492035 2.96951 0
M  V30 8430 N 1083.83 -2.58978 2.02907 0
M  V30 8431 C 1083.95 -3.22433 0.832218 0
M  V30 8432 H 1086.93 -8.65116 0.777161 0
M  V30 8433 H 1087.2 -6.90173 0.474152 0
M  V30 8434 H 1086.34 -7.66548 2.79458 0
M  V30 8435 P 1082.37 -8.03563 3.84925 0
M  V30 8436 O 1082.15 -8.85821 5.0569 0
M  V30 8437 O 1081.58 -8.41101 2.65469 0
M  V30 8438 O 1082.12 -6.49734 4.18962 0
M  V30 8439 C 1083.06 -5.81037 5.05421 0
M  V30 8440 C 1082.33 -4.79018 5.88876 0
M  V30 8441 O 1082.12 -3.58359 5.08515 0
M  V30 8442 C 1080.93 -5.17448 6.36119 0
M  V30 8443 O 1080.54 -4.45322 7.53318 0
M  V30 8444 C 1080.05 -4.74639 5.19936 0
M  V30 8445 C 1080.76 -3.49432 4.70418 0
M  V30 8446 N 1080.71 -3.31776 3.22945 0
M  V30 8447 C 1080.56 -2.02742 2.72939 0
M  V30 8448 O 1080.47 -1.08301 3.52749 0
M  V30 8449 N 1080.51 -1.96117 1.22063 0
M  V30 8450 C 1080.61 -2.8878 0.551566 0
M  V30 8451 N 1080.56 -2.65609 -0.750198 0
M  V30 8452 C 1080.76 -4.22457 1.03707 0
M  V30 8453 C 1080.81 -4.37979 2.39113 0
M  V30 8454 H 1083.55 -6.54138 5.7131 0
M  V30 8455 H 1083.82 -5.30492 4.44033 0
M  V30 8456 H 1082.96 -4.55945 6.76735 0
M  V30 8457 H 1080.3 -2.6176 5.18021 0
M  V30 8458 H 1080.02 -5.52233 4.41941 0
M  V30 8459 H 1079.03 -4.52045 5.53452 0
M  V30 8460 H 1080.86 -6.25124 6.55234 0
M  V30 8461 H 1080.94 -5.37936 2.80552 0
M  V30 8462 H 1080.83 -5.07528 0.359553 0
M  V30 8463 H 1080.45 -1.69403 -1.09847 0
M  V30 8464 H 1080.64 -3.43701 -1.41792 0
M  V30 8465 P 1078.99 -4.23843 7.83734 0
M  V30 8466 O 1078.77 -4.19407 9.29784 0
M  V30 8467 O 1078.2 -5.24426 7.09156 0
M  V30 8468 O 1078.74 -2.79386 7.20852 0
M  V30 8469 C 1079.68 -1.7299 7.50419 0
M  V30 8470 C 1078.95 -0.41401 7.5797 0
M  V30 8471 O 1078.74 0.089787 6.22035 0
M  V30 8472 C 1077.55 -0.447224 8.1878 0
M  V30 8473 O 1077.16 0.825159 8.71201 0
M  V30 8474 C 1076.67 -0.783801 6.99623 0
M  V30 8475 C 1077.38 -0.0619192 5.85967 0
M  V30 8476 N 1077.33 -0.7859 4.56281 0
M  V30 8477 C 1077.18 -0.0359258 3.39981 0
M  V30 8478 O 1077.09 1.19723 3.49038 0
M  V30 8479 N 1077.13 -0.869151 2.14025 0
M  V30 8480 C 1077.23 -2.01207 2.14363 0
M  V30 8481 N 1077.18 -2.58978 0.954287 0
M  V30 8482 C 1077.38 -2.80817 3.32215 0
M  V30 8483 C 1077.43 -2.13785 4.50884 0
M  V30 8484 H 1080.17 -1.93401 8.46693 0
M  V30 8485 H 1080.44 -1.68181 6.71046 0
M  V30 8486 H 1079.58 0.289076 8.15488 0
M  V30 8487 H 1076.92 0.927166 5.72947 0
M  V30 8488 H 1076.64 -1.87 6.82132 0
M  V30 8489 H 1075.65 -0.404009 7.13457 0
M  V30 8490 H 1077.48 -1.20599 8.97534 0
M  V30 8491 H 1077.56 -2.70295 5.43162 0
M  V30 8492 H 1077.45 -3.89465 3.27406 0
M  V30 8493 H 1077.07 -2.01616 0.107046 0
M  V30 8494 H 1077.26 -3.61403 0.873101 0
M  V30 8495 P 1075.61 1.17771 8.83182 0
M  V30 8496 O 1075.39 2.07206 9.98732 0
M  V30 8497 O 1074.82 -0.0743816 8.81969 0
M  V30 8498 O 1075.36 1.97652 7.47304 0
M  V30 8499 C 1076.3 3.01133 7.08783 0
M  V30 8500 C 1075.57 4.12613 6.37049 0
M  V30 8501 O 1075.36 3.72827 4.97879 0
M  V30 8502 C 1074.17 4.45085 6.88694 0
M  V30 8503 O 1073.78 5.7877 6.5624 0
M  V30 8504 C 1073.29 3.47817 6.12078 0
M  V30 8505 C 1074 3.39414 4.77697 0
M  V30 8506 N 1073.95 2.04615 4.15333 0
M  V30 8507 H 1076.79 3.41248 7.98759 0
M  V30 8508 H 1077.06 2.5837 6.41742 0
M  V30 8509 H 1076.2 5.02657 6.42673 0
M  V30 8510 P 1072.23 6.144 6.45285 0
M  V30 8511 O 1072.01 7.54673 6.86199 0
M  V30 8512 O 1071.44 5.12391 7.179 0
M  V30 8513 O 1071.98 5.99236 4.88467 0
M  V30 8514 C 1072.92 6.60234 3.96415 0
M  V30 8515 C 1072.19 7.08079 2.736 0
M  V30 8516 O 1071.98 5.94365 1.8368 0
M  V30 8517 C 1070.79 7.64886 2.9555 0
M  V30 8518 O 1070.4 8.5406 1.90739 0
M  V30 8519 C 1069.91 6.4116 2.90739 0
M  V30 8520 C 1070.62 5.55375 1.86963 0
M  V30 8521 N 1070.57 4.09664 2.15742 0
M  V30 8522 C 1070.42 3.22231 1.08477 0
M  V30 8523 O 1070.33 3.68951 -0.0600489 0
M  V30 8524 N 1070.37 1.76692 1.48799 0
M  V30 8525 C 1070.47 1.41695 2.57602 0
M  V30 8526 N 1070.42 0.107296 2.75791 0
M  V30 8527 C 1070.62 2.29178 3.69733 0
M  V30 8528 C 1070.67 3.62753 3.42653 0
M  V30 8529 H 1073.41 7.45488 4.45578 0
M  V30 8530 H 1073.68 5.86232 3.67314 0
M  V30 8531 H 1072.82 7.84508 2.24507 0
M  V30 8532 H 1070.16 5.73556 0.888715 0
M  V30 8533 H 1069.88 5.9096 3.88638 0
M  V30 8534 H 1068.89 6.66053 2.58894 0
M  V30 8535 H 1070.72 8.16339 3.92049 0
M  V30 8536 H 1070.8 4.33052 4.24913 0
M  V30 8537 H 1070.69 1.9103 4.71577 0
M  V30 8538 H 1070.31 -0.521221 1.95056 0
M  V30 8539 H 1070.5 -0.286429 3.70695 0
M  V30 8540 P 1068.85 8.7635 1.60911 0
M  V30 8541 O 1068.63 10.1388 1.11561 0
M  V30 8542 O 1068.06 8.36503 2.79617 0
M  V30 8543 O 1068.6 7.71806 0.42951 0
M  V30 8544 C 1069.54 7.67148 -0.673689 0
M  V30 8545 C 1068.81 7.33374 -1.95559 0
M  V30 8546 O 1068.6 5.88721 -2.00726 0
M  V30 8547 C 1067.41 7.92526 -2.10483 0
M  V30 8548 O 1067.02 8.02971 -3.47653 0
M  V30 8549 C 1066.53 6.89602 -1.41652 0
M  V30 8550 C 1067.24 5.59201 -1.75185 0
M  V30 8551 N 1067.19 4.58301 -0.657969 0
M  V30 8552 H 1070.03 8.65116 -0.777161 0
M  V30 8553 H 1070.3 6.9022 -0.46725 0
M  V30 8554 H 1069.44 7.66548 -2.79458 0
M  V30 8555 H 1066.78 5.16165 -2.65183 0
M  V30 8556 H 1066.5 7.06433 -0.329384 0
M  V30 8557 H 1065.51 6.90926 -1.82021 0
M  V30 8558 H 1067.34 8.90873 -1.62657 0
M  V30 8559 P 1065.47 8.03563 -3.84925 0
M  V30 8560 O 1065.25 8.85821 -5.0569 0
M  V30 8561 O 1064.68 8.41101 -2.65469 0
M  V30 8562 O 1065.22 6.4965 -4.18908 0
M  V30 8563 C 1066.16 5.81037 -5.05421 0
M  V30 8564 C 1065.43 4.78366 -5.89277 0
M  V30 8565 O 1065.22 3.58302 -5.08433 0
M  V30 8566 C 1064.03 5.17448 -6.36119 0
M  V30 8567 O 1063.64 4.45271 -7.53232 0
M  V30 8568 C 1063.15 4.74639 -5.19936 0
M  V30 8569 C 1063.86 3.49432 -4.70418 0
M  V30 8570 N 1063.81 3.31776 -3.22945 0
M  V30 8571 H 1066.65 6.54213 -5.71376 0
M  V30 8572 H 1066.92 5.30492 -4.44033 0
M  V30 8573 H 1066.06 4.55889 -6.76652 0
M  V30 8574 P 1062.09 4.23843 -7.83734 0
M  V30 8575 O 1061.87 4.19407 -9.29784 0
M  V30 8576 O 1061.3 5.24426 -7.09156 0
M  V30 8577 O 1061.84 2.7935 -7.20758 0
M  V30 8578 C 1062.78 1.7299 -7.50419 0
M  V30 8579 C 1062.05 0.406376 -7.57911 0
M  V30 8580 O 1061.84 -0.0897726 -6.21935 0
M  V30 8581 C 1060.65 0.447224 -8.1878 0
M  V30 8582 O 1060.26 -0.825065 -8.71101 0
M  V30 8583 C 1059.77 0.783801 -6.99623 0
M  V30 8584 C 1060.48 0.0619192 -5.85967 0
M  V30 8585 N 1060.43 0.790462 -4.56202 0
M  V30 8586 C 1060.51 2.13895 -4.34171 0
M  V30 8587 N 1060.44 2.46449 -3.08687 0
M  V30 8588 C 1060.29 1.2525 -2.43697 0
M  V30 8589 C 1060.16 0.914535 -1.07318 0
M  V30 8590 N 1060.15 1.80782 -0.0887348 0
M  V30 8591 N 1060.04 -0.386745 -0.768133 0
M  V30 8592 C 1060.05 -1.28096 -1.75159 0
M  V30 8593 N 1060.17 -1.09708 -3.04861 0
M  V30 8594 C 1060.29 0.214857 -3.32306 0
M  V30 8595 H 1063.27 1.93423 -8.4679 0
M  V30 8596 H 1063.54 1.68852 -6.70877 0
M  V30 8597 H 1062.68 -0.289041 -8.15388 0
M  V30 8598 H 1060.02 -0.927006 -5.72848 0
M  V30 8599 H 1059.74 1.86973 -6.82036 0
M  V30 8600 H 1058.75 0.403953 -7.13357 0
M  V30 8601 H 1060.58 1.20599 -8.97534 0
M  V30 8602 H 1060.63 2.86846 -5.14318 0
M  V30 8603 H 1060.24 2.81082 -0.302037 0
M  V30 8604 H 1060.06 1.49688 0.889064 0
M  V30 8605 H 1059.95 -2.31317 -1.43855 0
M  V30 8606 P 1058.71 -1.17771 -8.83182 0
M  V30 8607 O 1058.49 -2.07206 -9.98732 0
M  V30 8608 O 1057.92 0.0743816 -8.81969 0
M  V30 8609 O 1058.46 -1.97678 -7.474 0
M  V30 8610 C 1059.4 -3.01133 -7.08783 0
M  V30 8611 C 1058.67 -4.1203 -6.37546 0
M  V30 8612 O 1058.46 -3.72887 -4.9796 0
M  V30 8613 C 1057.27 -4.45085 -6.88694 0
M  V30 8614 O 1056.88 -5.78836 -6.56315 0
M  V30 8615 C 1056.39 -3.47817 -6.12078 0
M  V30 8616 C 1057.1 -3.39414 -4.77697 0
M  V30 8617 N 1057.05 -2.04615 -4.15333 0
M  V30 8618 C 1056.9 -1.96929 -2.77162 0
M  V30 8619 O 1056.81 -3.02017 -2.12006 0
M  V30 8620 N 1056.85 -0.55485 -2.24237 0
M  V30 8621 C 1056.95 0.367808 -2.9169 0
M  V30 8622 N 1056.9 1.53426 -2.29427 0
M  V30 8623 C 1057.1 0.319148 -4.33828 0
M  V30 8624 C 1057.15 -0.920672 -4.90433 0
M  V30 8625 H 1059.89 -3.41209 -7.98667 0
M  V30 8626 H 1060.16 -2.5837 -6.41742 0
M  V30 8627 H 1059.3 -5.02718 -6.42752 0
M  V30 8628 H 1056.64 -4.11779 -4.09026 0
M  V30 8629 H 1056.36 -2.49661 -6.61772 0
M  V30 8630 H 1055.37 -3.86674 -6.00946 0
M  V30 8631 H 1057.2 -4.29991 -7.97006 0
M  V30 8632 H 1057.28 -1.00589 -5.98303 0
M  V30 8633 H 1057.17 1.22639 -4.93799 0
M  V30 8634 H 1056.79 1.56819 -1.27167 0
M  V30 8635 H 1056.98 2.41062 -2.83063 0
M  V30 8636 P 1055.33 -6.144 -6.45285 0
M  V30 8637 O 1055.11 -7.54673 -6.86199 0
M  V30 8638 O 1054.54 -5.12391 -7.179 0
M  V30 8639 O 1055.08 -5.99158 -4.88404 0
M  V30 8640 C 1056.02 -6.60234 -3.96415 0
M  V30 8641 C 1055.29 -7.08259 -2.72856 0
M  V30 8642 O 1055.08 -5.9427 -1.83651 0
M  V30 8643 C 1053.89 -7.64886 -2.9555 0
M  V30 8644 O 1053.5 -8.53963 -1.90717 0
M  V30 8645 C 1053.01 -6.4116 -2.90739 0
M  V30 8646 C 1053.72 -5.55375 -1.86963 0
M  V30 8647 N 1053.67 -4.09664 -2.15742 0
M  V30 8648 C 1053.75 -3.44381 -3.37233 0
M  V30 8649 N 1053.67 -2.14131 -3.28347 0
M  V30 8650 C 1053.53 -1.90247 -1.91588 0
M  V30 8651 C 1053.4 -0.683992 -1.20892 0
M  V30 8652 N 1053.28 -0.903396 0.173998 0
M  V30 8653 C 1053.28 -2.14171 0.784879 0
M  V30 8654 N 1053.15 -2.1435 2.11317 0
M  V30 8655 N 1053.41 -3.28784 0.119316 0
M  V30 8656 C 1053.53 -3.0977 -1.22194 0
M  V30 8657 H 1056.51 -7.45574 -4.45629 0
M  V30 8658 H 1056.78 -5.86232 -3.67314 0
M  V30 8659 H 1055.92 -7.84412 -2.24479 0
M  V30 8660 P 1051.95 -8.7635 -1.60911 0
M  V30 8661 O 1051.73 -10.1388 -1.11561 0
M  V30 8662 O 1051.16 -8.36503 -2.79617 0
M  V30 8663 O 1051.7 -7.71906 -0.429565 0
M  V30 8664 C 1052.64 -7.67148 0.673689 0
M  V30 8665 C 1051.91 -7.33666 1.94851 0
M  V30 8666 O 1051.7 -5.88816 2.00759 0
M  V30 8667 C 1050.51 -7.92526 2.10483 0
M  V30 8668 O 1050.12 -8.03063 3.47693 0
M  V30 8669 C 1049.63 -6.89602 1.41652 0
M  V30 8670 C 1050.34 -5.59201 1.75185 0
M  V30 8671 N 1050.29 -4.58235 0.662552 0
M  V30 8672 C 1050.14 -3.24451 1.01643 0
M  V30 8673 O 1050.05 -2.94958 2.21722 0
M  V30 8674 N 1050.09 -2.30408 -0.165238 0
M  V30 8675 C 1050.19 -2.66048 -1.25118 0
M  V30 8676 N 1050.14 -1.70787 -2.16813 0
M  V30 8677 C 1050.34 -4.02732 -1.64413 0
M  V30 8678 C 1050.39 -4.9488 -0.63991 0
M  V30 8679 H 1053.13 -8.65017 0.777072 0
M  V30 8680 H 1053.4 -6.90173 0.474152 0
M  V30 8681 H 1052.54 -7.66642 2.79492 0
M  V30 8682 H 1049.88 -5.16254 2.65229 0
M  V30 8683 H 1049.6 -7.06532 0.329431 0
M  V30 8684 H 1048.61 -6.91023 1.82047 0
M  V30 8685 H 1050.44 -8.90873 1.62657 0
M  V30 8686 H 1050.52 -6.00104 -0.892197 0
M  V30 8687 H 1050.41 -4.31733 -2.69229 0
M  V30 8688 H 1050.03 -0.724835 -1.8844 0
M  V30 8689 H 1050.22 -1.94716 -3.16734 0
M  V30 8690 P 1048.57 -8.03563 3.84925 0
M  V30 8691 O 1048.35 -8.85821 5.0569 0
M  V30 8692 O 1047.78 -8.41101 2.65469 0
M  V30 8693 O 1048.32 -6.49734 4.18962 0
M  V30 8694 C 1049.26 -5.81037 5.05421 0
M  V30 8695 C 1048.53 -4.79018 5.88876 0
M  V30 8696 O 1048.32 -3.58359 5.08515 0
M  V30 8697 C 1047.13 -5.17448 6.36119 0
M  V30 8698 O 1046.74 -4.45322 7.53318 0
M  V30 8699 C 1046.25 -4.74639 5.19936 0
M  V30 8700 C 1046.96 -3.49432 4.70418 0
M  V30 8701 N 1046.91 -3.31776 3.22945 0
M  V30 8702 C 1046.76 -2.02742 2.72939 0
M  V30 8703 O 1046.67 -1.08301 3.52749 0
M  V30 8704 N 1046.71 -1.96117 1.22063 0
M  V30 8705 C 1046.81 -2.8878 0.551566 0
M  V30 8706 N 1046.76 -2.65609 -0.750198 0
M  V30 8707 C 1046.96 -4.22457 1.03707 0
M  V30 8708 C 1047.01 -4.37979 2.39113 0
M  V30 8709 H 1049.75 -6.54138 5.7131 0
M  V30 8710 H 1050.02 -5.30492 4.44033 0
M  V30 8711 H 1049.16 -4.55945 6.76735 0
M  V30 8712 H 1046.5 -2.6176 5.18021 0
M  V30 8713 H 1046.22 -5.52233 4.41941 0
M  V30 8714 H 1045.23 -4.52045 5.53452 0
M  V30 8715 H 1047.06 -6.25124 6.55234 0
M  V30 8716 H 1047.14 -5.37936 2.80552 0
M  V30 8717 H 1047.03 -5.07528 0.359553 0
M  V30 8718 H 1046.65 -1.69403 -1.09847 0
M  V30 8719 H 1046.84 -3.43701 -1.41792 0
M  V30 8720 P 1045.19 -4.23843 7.83734 0
M  V30 8721 O 1044.97 -4.19407 9.29784 0
M  V30 8722 O 1044.4 -5.24426 7.09156 0
M  V30 8723 O 1044.94 -2.7935 7.20758 0
M  V30 8724 C 1045.88 -1.7299 7.50419 0
M  V30 8725 C 1045.15 -0.406376 7.57911 0
M  V30 8726 O 1044.94 0.0897726 6.21935 0
M  V30 8727 C 1043.75 -0.447224 8.1878 0
M  V30 8728 O 1043.36 0.825065 8.71101 0
M  V30 8729 C 1042.87 -0.783801 6.99623 0
M  V30 8730 C 1043.58 -0.0619192 5.85967 0
M  V30 8731 N 1043.53 -0.790462 4.56202 0
M  V30 8732 H 1046.37 -1.93423 8.4679 0
M  V30 8733 H 1046.64 -1.68852 6.70877 0
M  V30 8734 H 1045.78 0.289041 8.15388 0
M  V30 8735 H 1043.12 0.927006 5.72848 0
M  V30 8736 H 1042.84 -1.86973 6.82036 0
M  V30 8737 H 1041.85 -0.403953 7.13357 0
M  V30 8738 H 1043.68 -1.20599 8.97534 0
M  V30 8739 P 1041.81 1.17771 8.83182 0
M  V30 8740 O 1041.59 2.07206 9.98732 0
M  V30 8741 O 1041.02 -0.0743816 8.81969 0
M  V30 8742 O 1041.56 1.97652 7.47304 0
M  V30 8743 C 1042.5 3.01133 7.08783 0
M  V30 8744 C 1041.77 4.12613 6.37049 0
M  V30 8745 O 1041.56 3.72827 4.97879 0
M  V30 8746 C 1040.37 4.45085 6.88694 0
M  V30 8747 O 1039.98 5.7877 6.5624 0
M  V30 8748 C 1039.49 3.47817 6.12078 0
M  V30 8749 C 1040.2 3.39414 4.77697 0
M  V30 8750 N 1040.15 2.04615 4.15333 0
M  V30 8751 C 1040.23 0.803897 4.75249 0
M  V30 8752 N 1040.15 -0.197615 3.91502 0
M  V30 8753 C 1040.01 0.413002 2.66823 0
M  V30 8754 C 1039.88 -0.157221 1.38007 0
M  V30 8755 N 1039.76 0.833136 0.390236 0
M  V30 8756 C 1039.76 2.19402 0.623885 0
M  V30 8757 N 1039.63 2.97622 -0.449677 0
M  V30 8758 N 1039.89 2.73005 1.83601 0
M  V30 8759 C 1040.01 1.78786 2.80935 0
M  V30 8760 H 1042.99 3.41248 7.98759 0
M  V30 8761 H 1043.26 2.5837 6.41742 0
M  V30 8762 H 1042.4 5.02657 6.42673 0
M  V30 8763 P 1038.43 6.144 6.45285 0
M  V30 8764 O 1038.21 7.54673 6.86199 0
M  V30 8765 O 1037.64 5.12391 7.179 0
M  V30 8766 O 1038.18 5.99158 4.88404 0
M  V30 8767 C 1039.12 6.60234 3.96415 0
M  V30 8768 C 1038.39 7.08259 2.72856 0
M  V30 8769 O 1038.18 5.9427 1.83651 0
M  V30 8770 C 1036.99 7.64886 2.9555 0
M  V30 8771 O 1036.6 8.53963 1.90717 0
M  V30 8772 C 1036.11 6.4116 2.90739 0
M  V30 8773 C 1036.82 5.55375 1.86963 0
M  V30 8774 N 1036.77 4.09664 2.15742 0
M  V30 8775 H 1039.61 7.45574 4.45629 0
M  V30 8776 H 1039.88 5.86232 3.67314 0
M  V30 8777 H 1039.02 7.84412 2.24479 0
M  V30 8778 P 1035.05 8.7635 1.60911 0
M  V30 8779 O 1034.83 10.1388 1.11561 0
M  V30 8780 O 1034.26 8.36503 2.79617 0
M  V30 8781 O 1034.8 7.71806 0.42951 0
M  V30 8782 C 1035.74 7.67148 -0.673689 0
M  V30 8783 C 1035.01 7.33374 -1.95559 0
M  V30 8784 O 1034.8 5.88721 -2.00726 0
M  V30 8785 C 1033.61 7.92526 -2.10483 0
M  V30 8786 O 1033.22 8.02971 -3.47653 0
M  V30 8787 C 1032.73 6.89602 -1.41652 0
M  V30 8788 C 1033.44 5.59201 -1.75185 0
M  V30 8789 N 1033.39 4.58235 -0.662552 0
M  V30 8790 H 1036.23 8.65116 -0.777161 0
M  V30 8791 H 1036.5 6.90173 -0.474152 0
M  V30 8792 H 1035.64 7.66548 -2.79458 0
M  V30 8793 P 1031.67 8.03563 -3.84925 0
M  V30 8794 O 1031.45 8.85821 -5.0569 0
M  V30 8795 O 1030.88 8.41101 -2.65469 0
M  V30 8796 O 1031.42 6.49734 -4.18962 0
M  V30 8797 C 1032.36 5.81037 -5.05421 0
M  V30 8798 C 1031.63 4.79018 -5.88876 0
M  V30 8799 O 1031.42 3.58359 -5.08515 0
M  V30 8800 C 1030.23 5.17448 -6.36119 0
M  V30 8801 O 1029.84 4.45322 -7.53318 0
M  V30 8802 C 1029.35 4.74639 -5.19936 0
M  V30 8803 C 1030.06 3.49432 -4.70418 0
M  V30 8804 N 1030.01 3.31776 -3.22945 0
M  V30 8805 C 1029.86 2.02742 -2.72939 0
M  V30 8806 O 1029.77 1.08301 -3.52749 0
M  V30 8807 N 1029.81 1.96117 -1.22063 0
M  V30 8808 C 1029.91 2.8878 -0.551566 0
M  V30 8809 N 1029.86 2.65609 0.750198 0
M  V30 8810 C 1030.06 4.22457 -1.03707 0
M  V30 8811 C 1030.11 4.37979 -2.39113 0
M  V30 8812 H 1032.85 6.54138 -5.7131 0
M  V30 8813 H 1033.12 5.30492 -4.44033 0
M  V30 8814 H 1032.26 4.55945 -6.76735 0
M  V30 8815 H 1029.6 2.6176 -5.18021 0
M  V30 8816 H 1029.32 5.52233 -4.41941 0
M  V30 8817 H 1028.33 4.52045 -5.53452 0
M  V30 8818 H 1030.16 6.25124 -6.55234 0
M  V30 8819 H 1030.24 5.37936 -2.80552 0
M  V30 8820 H 1030.13 5.07528 -0.359553 0
M  V30 8821 H 1029.75 1.69403 1.09847 0
M  V30 8822 H 1029.94 3.43701 1.41792 0
M  V30 8823 P 1028.29 4.23843 -7.83734 0
M  V30 8824 O 1028.07 4.19407 -9.29784 0
M  V30 8825 O 1027.5 5.24426 -7.09156 0
M  V30 8826 O 1028.04 2.7935 -7.20758 0
M  V30 8827 C 1028.98 1.7299 -7.50419 0
M  V30 8828 C 1028.25 0.406376 -7.57911 0
M  V30 8829 O 1028.04 -0.0897726 -6.21935 0
M  V30 8830 C 1026.85 0.447224 -8.1878 0
M  V30 8831 O 1026.46 -0.825065 -8.71101 0
M  V30 8832 C 1025.97 0.783801 -6.99623 0
M  V30 8833 C 1026.68 0.0619192 -5.85967 0
M  V30 8834 N 1026.63 0.7859 -4.56281 0
M  V30 8835 H 1029.47 1.93423 -8.4679 0
M  V30 8836 H 1029.74 1.68181 -6.71046 0
M  V30 8837 H 1028.88 -0.289041 -8.15388 0
M  V30 8838 P 1024.91 -1.17771 -8.83182 0
M  V30 8839 O 1024.69 -2.07206 -9.98732 0
M  V30 8840 O 1024.12 0.0743816 -8.81969 0
M  V30 8841 O 1024.66 -1.97678 -7.474 0
M  V30 8842 C 1025.6 -3.01133 -7.08783 0
M  V30 8843 C 1024.87 -4.1203 -6.37546 0
M  V30 8844 O 1024.66 -3.72887 -4.9796 0
M  V30 8845 C 1023.47 -4.45085 -6.88694 0
M  V30 8846 O 1023.08 -5.78836 -6.56315 0
M  V30 8847 C 1022.59 -3.47817 -6.12078 0
M  V30 8848 C 1023.3 -3.39414 -4.77697 0
M  V30 8849 N 1023.25 -2.04615 -4.15333 0
M  V30 8850 C 1023.1 -1.96929 -2.77162 0
M  V30 8851 O 1023.01 -3.02017 -2.12006 0
M  V30 8852 N 1023.05 -0.55485 -2.24237 0
M  V30 8853 C 1023.15 0.367808 -2.9169 0
M  V30 8854 N 1023.1 1.53426 -2.29427 0
M  V30 8855 C 1023.3 0.319148 -4.33828 0
M  V30 8856 C 1023.35 -0.920672 -4.90433 0
M  V30 8857 H 1026.09 -3.41209 -7.98667 0
M  V30 8858 H 1026.36 -2.5837 -6.41742 0
M  V30 8859 H 1025.5 -5.02718 -6.42752 0
M  V30 8860 H 1022.84 -4.11779 -4.09026 0
M  V30 8861 H 1022.56 -2.49661 -6.61772 0
M  V30 8862 H 1021.57 -3.86674 -6.00946 0
M  V30 8863 H 1023.4 -4.29991 -7.97006 0
M  V30 8864 H 1023.48 -1.00589 -5.98303 0
M  V30 8865 H 1023.37 1.22639 -4.93799 0
M  V30 8866 H 1022.99 1.56819 -1.27167 0
M  V30 8867 H 1023.18 2.41062 -2.83063 0
M  V30 8868 P 1021.53 -6.144 -6.45285 0
M  V30 8869 O 1021.31 -7.54673 -6.86199 0
M  V30 8870 O 1020.74 -5.12391 -7.179 0
M  V30 8871 O 1021.28 -5.99158 -4.88404 0
M  V30 8872 C 1022.22 -6.60234 -3.96415 0
M  V30 8873 C 1021.49 -7.08259 -2.72856 0
M  V30 8874 O 1021.28 -5.9427 -1.83651 0
M  V30 8875 C 1020.09 -7.64886 -2.9555 0
M  V30 8876 O 1019.7 -8.53963 -1.90717 0
M  V30 8877 C 1019.21 -6.4116 -2.90739 0
M  V30 8878 C 1019.92 -5.55375 -1.86963 0
M  V30 8879 N 1019.87 -4.09664 -2.15742 0
M  V30 8880 H 1022.71 -7.45574 -4.45629 0
M  V30 8881 H 1022.98 -5.86232 -3.67314 0
M  V30 8882 H 1022.12 -7.84412 -2.24479 0
M  V30 8883 P 1018.15 -8.7635 -1.60911 0
M  V30 8884 O 1017.93 -10.1388 -1.11561 0
M  V30 8885 O 1017.36 -8.36503 -2.79617 0
M  V30 8886 O 1017.9 -7.71806 -0.42951 0
M  V30 8887 C 1018.84 -7.66948 0.673514 0
M  V30 8888 C 1018.11 -7.33374 1.95559 0
M  V30 8889 O 1017.9 -5.88721 2.00726 0
M  V30 8890 C 1016.71 -7.92218 2.1125 0
M  V30 8891 O 1016.32 -8.02971 3.47653 0
M  V30 8892 C 1015.83 -6.89504 1.41631 0
M  V30 8893 C 1016.54 -5.59106 1.75155 0
M  V30 8894 N 1016.49 -4.58136 0.662409 0
M  V30 8895 C 1016.34 -3.26059 1.02863 0
M  V30 8896 O 1016.25 -2.90743 2.19009 0
M  V30 8897 N 1016.3 -2.35995 -0.0155585 0
M  V30 8898 C 1016.39 -2.65248 -1.35603 0
M  V30 8899 C 1016.54 -4.05747 -1.64698 0
M  V30 8900 C 1016.59 -4.96734 -0.652411 0
M  V30 8901 H 1019.34 -8.64917 0.776982 0
M  V30 8902 H 1019.6 -6.89974 0.474015 0
M  V30 8903 H 1018.74 -7.66548 2.79458 0
M  V30 8904 H 1016.08 -5.16076 2.65138 0
M  V30 8905 H 1015.8 -7.06433 0.329384 0
M  V30 8906 H 1014.81 -6.90829 1.81996 0
M  V30 8907 H 1016.65 -8.90774 1.62639 0
M  V30 8908 H 1016.72 -6.02181 -0.895285 0
M  V30 8909 P 1014.77 -8.03563 3.84925 0
M  V30 8910 O 1014.55 -8.85821 5.0569 0
M  V30 8911 O 1013.98 -8.41101 2.65469 0
M  V30 8912 O 1014.52 -6.49734 4.18962 0
M  V30 8913 C 1015.46 -5.81037 5.05421 0
M  V30 8914 C 1014.73 -4.79018 5.88876 0
M  V30 8915 O 1014.52 -3.58359 5.08515 0
M  V30 8916 C 1013.33 -5.17448 6.36119 0
M  V30 8917 O 1012.94 -4.45322 7.53318 0
M  V30 8918 C 1012.45 -4.74639 5.19936 0
M  V30 8919 C 1013.16 -3.49432 4.70418 0
M  V30 8920 N 1013.11 -3.31776 3.22945 0
M  V30 8921 C 1012.96 -2.02742 2.72939 0
M  V30 8922 O 1012.87 -1.08301 3.52749 0
M  V30 8923 N 1012.91 -1.96117 1.22063 0
M  V30 8924 C 1013.01 -2.8878 0.551566 0
M  V30 8925 N 1012.96 -2.65609 -0.750198 0
M  V30 8926 C 1013.16 -4.22457 1.03707 0
M  V30 8927 C 1013.21 -4.37979 2.39113 0
M  V30 8928 H 1015.95 -6.54138 5.7131 0
M  V30 8929 H 1016.22 -5.30492 4.44033 0
M  V30 8930 H 1015.36 -4.55945 6.76735 0
M  V30 8931 H 1012.7 -2.6176 5.18021 0
M  V30 8932 H 1012.42 -5.52233 4.41941 0
M  V30 8933 H 1011.43 -4.52045 5.53452 0
M  V30 8934 H 1013.27 -6.25124 6.55234 0
M  V30 8935 H 1013.34 -5.37936 2.80552 0
M  V30 8936 H 1013.24 -5.07528 0.359553 0
M  V30 8937 H 1012.85 -1.69403 -1.09847 0
M  V30 8938 H 1013.04 -3.43701 -1.41792 0
M  V30 8939 P 1011.39 -4.23843 7.83734 0
M  V30 8940 O 1011.17 -4.19407 9.29784 0
M  V30 8941 O 1010.6 -5.24426 7.09156 0
M  V30 8942 O 1011.14 -2.7935 7.20758 0
M  V30 8943 C 1012.08 -1.7299 7.50419 0
M  V30 8944 C 1011.35 -0.406376 7.57911 0
M  V30 8945 O 1011.14 0.0897726 6.21935 0
M  V30 8946 C 1009.95 -0.447224 8.1878 0
M  V30 8947 O 1009.56 0.825065 8.71101 0
M  V30 8948 C 1009.07 -0.783801 6.99623 0
M  V30 8949 C 1009.78 -0.0619192 5.85967 0
M  V30 8950 N 1009.73 -0.7859 4.56281 0
M  V30 8951 H 1012.57 -1.93423 8.4679 0
M  V30 8952 H 1012.85 -1.68181 6.71046 0
M  V30 8953 H 1011.98 0.289041 8.15388 0
M  V30 8954 P 1008.01 1.17771 8.83182 0
M  V30 8955 O 1007.79 2.07206 9.98732 0
M  V30 8956 O 1007.22 -0.0743816 8.81969 0
M  V30 8957 O 1007.76 1.97652 7.47304 0
M  V30 8958 C 1008.7 3.01133 7.08783 0
M  V30 8959 C 1007.97 4.12613 6.37049 0
M  V30 8960 O 1007.76 3.72827 4.97879 0
M  V30 8961 C 1006.57 4.45085 6.88694 0
M  V30 8962 O 1006.18 5.7877 6.5624 0
M  V30 8963 C 1005.69 3.47817 6.12078 0
M  V30 8964 C 1006.4 3.39414 4.77697 0
M  V30 8965 N 1006.35 2.04199 4.15538 0
M  V30 8966 H 1009.19 3.41248 7.98759 0
M  V30 8967 H 1009.47 2.57728 6.42 0
M  V30 8968 H 1008.6 5.02657 6.42673 0
M  V30 8969 H 1005.94 4.11708 4.08956 0
M  V30 8970 H 1005.66 2.49626 6.61679 0
M  V30 8971 H 1004.67 3.8662 6.00862 0
M  V30 8972 H 1006.51 4.29991 7.97006 0
M  V30 8973 P 1004.63 6.144 6.45285 0
M  V30 8974 O 1004.41 7.54673 6.86199 0
M  V30 8975 O 1003.84 5.12391 7.179 0
M  V30 8976 O 1004.38 5.99236 4.88467 0
M  V30 8977 C 1005.32 6.60234 3.96415 0
M  V30 8978 C 1004.59 7.08079 2.736 0
M  V30 8979 O 1004.38 5.94365 1.8368 0
M  V30 8980 C 1003.19 7.64886 2.9555 0
M  V30 8981 O 1002.8 8.5406 1.90739 0
M  V30 8982 C 1002.31 6.4116 2.90739 0
M  V30 8983 C 1003.02 5.55375 1.86963 0
M  V30 8984 N 1002.97 4.09664 2.15742 0
M  V30 8985 C 1002.82 3.22231 1.08477 0
M  V30 8986 O 1002.73 3.68951 -0.0600489 0
M  V30 8987 N 1002.77 1.76692 1.48799 0
M  V30 8988 C 1002.87 1.41695 2.57602 0
M  V30 8989 N 1002.82 0.107296 2.75791 0
M  V30 8990 C 1003.02 2.29178 3.69733 0
M  V30 8991 C 1003.07 3.62753 3.42653 0
M  V30 8992 H 1005.81 7.45488 4.45578 0
M  V30 8993 H 1006.08 5.86232 3.67314 0
M  V30 8994 H 1005.22 7.84508 2.24507 0
M  V30 8995 H 1002.56 5.73556 0.888715 0
M  V30 8996 H 1002.28 5.9096 3.88638 0
M  V30 8997 H 1001.29 6.66053 2.58894 0
M  V30 8998 H 1003.13 8.16339 3.92049 0
M  V30 8999 H 1003.2 4.33052 4.24913 0
M  V30 9000 H 1003.1 1.9103 4.71577 0
M  V30 9001 H 1002.71 -0.521221 1.95056 0
M  V30 9002 H 1002.9 -0.286429 3.70695 0
M  V30 9003 P 1001.25 8.7635 1.60911 0
M  V30 9004 O 1001.03 10.1388 1.11561 0
M  V30 9005 O 1000.46 8.36503 2.79617 0
M  V30 9006 O 1001 7.71806 0.42951 0
M  V30 9007 C 1001.94 7.67148 -0.673689 0
M  V30 9008 C 1001.21 7.33374 -1.95559 0
M  V30 9009 O 1001 5.88721 -2.00726 0
M  V30 9010 C 999.814 7.92526 -2.10483 0
M  V30 9011 O 999.424 8.02971 -3.47653 0
M  V30 9012 C 998.934 6.89602 -1.41652 0
M  V30 9013 C 999.644 5.59201 -1.75185 0
M  V30 9014 N 999.594 4.58235 -0.662552 0
M  V30 9015 C 999.674 4.7683 0.704049 0
M  V30 9016 N 999.594 3.66233 1.39775 0
M  V30 9017 C 999.454 2.66526 0.431739 0
M  V30 9018 C 999.324 1.26394 0.575992 0
M  V30 9019 N 999.204 0.62859 -0.67177 0
M  V30 9020 C 999.204 1.27134 -1.89385 0
M  V30 9021 N 999.074 0.492035 -2.96951 0
M  V30 9022 N 999.334 2.58978 -2.02907 0
M  V30 9023 C 999.454 3.22433 -0.832218 0
M  V30 9024 H 1002.43 8.65116 -0.777161 0
M  V30 9025 H 1002.71 6.90173 -0.474152 0
M  V30 9026 H 1001.84 7.66548 -2.79458 0
M  V30 9027 P 997.874 8.03563 -3.84925 0
M  V30 9028 O 997.654 8.85821 -5.0569 0
M  V30 9029 O 997.084 8.41101 -2.65469 0
M  V30 9030 O 997.624 6.49734 -4.18962 0
M  V30 9031 C 998.564 5.81037 -5.05421 0
M  V30 9032 C 997.834 4.79018 -5.88876 0
M  V30 9033 O 997.624 3.58359 -5.08515 0
M  V30 9034 C 996.434 5.17448 -6.36119 0
M  V30 9035 O 996.044 4.45322 -7.53318 0
M  V30 9036 C 995.554 4.74639 -5.19936 0
M  V30 9037 C 996.264 3.49432 -4.70418 0
M  V30 9038 N 996.214 3.31776 -3.22945 0
M  V30 9039 C 996.064 2.02742 -2.72939 0
M  V30 9040 O 995.974 1.08301 -3.52749 0
M  V30 9041 N 996.014 1.96117 -1.22063 0
M  V30 9042 C 996.114 2.8878 -0.551566 0
M  V30 9043 N 996.064 2.65609 0.750198 0
M  V30 9044 C 996.264 4.22457 -1.03707 0
M  V30 9045 C 996.314 4.37979 -2.39113 0
M  V30 9046 H 999.054 6.54138 -5.7131 0
M  V30 9047 H 999.324 5.30492 -4.44033 0
M  V30 9048 H 998.457 4.55945 -6.76735 0
M  V30 9049 H 995.802 2.6176 -5.18021 0
M  V30 9050 H 995.522 5.52233 -4.41941 0
M  V30 9051 H 994.531 4.52045 -5.53452 0
M  V30 9052 H 996.365 6.25124 -6.55234 0
M  V30 9053 H 996.437 5.37936 -2.80552 0
M  V30 9054 H 996.335 5.07528 -0.359553 0
M  V30 9055 H 995.947 1.69403 1.09847 0
M  V30 9056 H 996.143 3.43701 1.41792 0
M  V30 9057 P 994.494 4.23843 -7.83734 0
M  V30 9058 O 994.274 4.19407 -9.29784 0
M  V30 9059 O 993.704 5.24426 -7.09156 0
M  V30 9060 O 994.244 2.79386 -7.20852 0
M  V30 9061 C 995.184 1.7299 -7.50419 0
M  V30 9062 C 994.454 0.41401 -7.5797 0
M  V30 9063 O 994.244 -0.089787 -6.22035 0
M  V30 9064 C 993.054 0.447224 -8.1878 0
M  V30 9065 O 992.664 -0.825159 -8.71201 0
M  V30 9066 C 992.174 0.783801 -6.99623 0
M  V30 9067 C 992.884 0.0619192 -5.85967 0
M  V30 9068 N 992.834 0.7859 -4.56281 0
M  V30 9069 C 992.684 0.0359258 -3.39981 0
M  V30 9070 O 992.594 -1.19723 -3.49038 0
M  V30 9071 N 992.634 0.869151 -2.14025 0
M  V30 9072 C 992.734 2.01207 -2.14363 0
M  V30 9073 N 992.684 2.58978 -0.954287 0
M  V30 9074 C 992.884 2.80817 -3.32215 0
M  V30 9075 C 992.934 2.13785 -4.50884 0
M  V30 9076 H 995.674 1.93401 -8.46693 0
M  V30 9077 H 995.944 1.68181 -6.71046 0
M  V30 9078 H 995.077 -0.289076 -8.15488 0
M  V30 9079 H 992.422 -0.927166 -5.72947 0
M  V30 9080 H 992.142 1.87 -6.82132 0
M  V30 9081 H 991.151 0.404009 -7.13457 0
M  V30 9082 H 992.985 1.20599 -8.97534 0
M  V30 9083 H 993.057 2.70295 -5.43162 0
M  V30 9084 H 992.955 3.89465 -3.27406 0
M  V30 9085 H 992.567 2.01616 -0.107046 0
M  V30 9086 H 992.763 3.61403 -0.873101 0
M  V30 9087 P 991.114 -1.17771 -8.83182 0
M  V30 9088 O 990.894 -2.07206 -9.98732 0
M  V30 9089 O 990.324 0.0743816 -8.81969 0
M  V30 9090 O 990.864 -1.97652 -7.47304 0
M  V30 9091 C 991.804 -3.01133 -7.08783 0
M  V30 9092 C 991.074 -4.12613 -6.37049 0
M  V30 9093 O 990.864 -3.72827 -4.97879 0
M  V30 9094 C 989.674 -4.45085 -6.88694 0
M  V30 9095 O 989.284 -5.7877 -6.5624 0
M  V30 9096 C 988.794 -3.47817 -6.12078 0
M  V30 9097 C 989.504 -3.39414 -4.77697 0
M  V30 9098 N 989.454 -2.04615 -4.15333 0
M  V30 9099 H 992.293 -3.41248 -7.98759 0
M  V30 9100 H 992.565 -2.5837 -6.41742 0
M  V30 9101 H 991.697 -5.02657 -6.42673 0
M  V30 9102 P 987.734 -6.144 -6.45285 0
M  V30 9103 O 987.514 -7.54673 -6.86199 0
M  V30 9104 O 986.944 -5.12391 -7.179 0
M  V30 9105 O 987.484 -5.99158 -4.88404 0
M  V30 9106 C 988.424 -6.60234 -3.96415 0
M  V30 9107 C 987.694 -7.08259 -2.72856 0
M  V30 9108 O 987.484 -5.9427 -1.83651 0
M  V30 9109 C 986.294 -7.64886 -2.9555 0
M  V30 9110 O 985.904 -8.53963 -1.90717 0
M  V30 9111 C 985.414 -6.4116 -2.90739 0
M  V30 9112 C 986.124 -5.55375 -1.86963 0
M  V30 9113 N 986.074 -4.09664 -2.15742 0
M  V30 9114 H 988.913 -7.45574 -4.45629 0
M  V30 9115 H 989.185 -5.86232 -3.67314 0
M  V30 9116 H 988.317 -7.84412 -2.24479 0
M  V30 9117 P 984.354 -8.7635 -1.60911 0
M  V30 9118 O 984.134 -10.1388 -1.11561 0
M  V30 9119 O 983.564 -8.36503 -2.79617 0
M  V30 9120 O 984.104 -7.71806 -0.42951 0
M  V30 9121 C 985.044 -7.67148 0.673689 0
M  V30 9122 C 984.314 -7.33374 1.95559 0
M  V30 9123 O 984.104 -5.88721 2.00726 0
M  V30 9124 C 982.914 -7.92526 2.10483 0
M  V30 9125 O 982.524 -8.02971 3.47653 0
M  V30 9126 C 982.034 -6.89602 1.41652 0
M  V30 9127 C 982.744 -5.59201 1.75185 0
M  V30 9128 N 982.694 -4.58301 0.657969 0
M  V30 9129 H 985.533 -8.65116 0.777161 0
M  V30 9130 H 985.805 -6.9022 0.46725 0
M  V30 9131 H 984.937 -7.66548 2.79458 0
M  V30 9132 H 982.282 -5.16165 2.65183 0
M  V30 9133 H 982.002 -7.06433 0.329384 0
M  V30 9134 H 981.011 -6.90926 1.82021 0
M  V30 9135 H 982.845 -8.90873 1.62657 0
M  V30 9136 P 980.974 -8.03563 3.84925 0
M  V30 9137 O 980.754 -8.85821 5.0569 0
M  V30 9138 O 980.184 -8.41101 2.65469 0
M  V30 9139 O 980.724 -6.4965 4.18908 0
M  V30 9140 C 981.664 -5.81037 5.05421 0
M  V30 9141 C 980.934 -4.78366 5.89277 0
M  V30 9142 O 980.724 -3.58302 5.08433 0
M  V30 9143 C 979.534 -5.17448 6.36119 0
M  V30 9144 O 979.144 -4.45271 7.53232 0
M  V30 9145 C 978.654 -4.74639 5.19936 0
M  V30 9146 C 979.364 -3.49432 4.70418 0
M  V30 9147 N 979.314 -3.31776 3.22945 0
M  V30 9148 H 982.153 -6.54213 5.71376 0
M  V30 9149 H 982.425 -5.30492 4.44033 0
M  V30 9150 H 981.557 -4.55889 6.76652 0
M  V30 9151 P 977.594 -4.23843 7.83734 0
M  V30 9152 O 977.374 -4.19407 9.29784 0
M  V30 9153 O 976.804 -5.24426 7.09156 0
M  V30 9154 O 977.344 -2.79386 7.20852 0
M  V30 9155 C 978.284 -1.7299 7.50419 0
M  V30 9156 C 977.554 -0.41401 7.5797 0
M  V30 9157 O 977.344 0.089787 6.22035 0
M  V30 9158 C 976.154 -0.447224 8.1878 0
M  V30 9159 O 975.764 0.825159 8.71201 0
M  V30 9160 C 975.274 -0.783801 6.99623 0
M  V30 9161 C 975.984 -0.0619192 5.85967 0
M  V30 9162 N 975.934 -0.7859 4.56281 0
M  V30 9163 C 975.784 -0.0359258 3.39981 0
M  V30 9164 O 975.694 1.19723 3.49038 0
M  V30 9165 N 975.734 -0.869151 2.14025 0
M  V30 9166 C 975.834 -2.01207 2.14363 0
M  V30 9167 N 975.784 -2.58978 0.954287 0
M  V30 9168 C 975.984 -2.80817 3.32215 0
M  V30 9169 C 976.034 -2.13785 4.50884 0
M  V30 9170 H 978.774 -1.93401 8.46693 0
M  V30 9171 H 979.044 -1.68181 6.71046 0
M  V30 9172 H 978.177 0.289076 8.15488 0
M  V30 9173 H 975.522 0.927166 5.72947 0
M  V30 9174 H 975.242 -1.87 6.82132 0
M  V30 9175 H 974.251 -0.404009 7.13457 0
M  V30 9176 H 976.085 -1.20599 8.97534 0
M  V30 9177 H 976.157 -2.70295 5.43162 0
M  V30 9178 H 976.055 -3.89465 3.27406 0
M  V30 9179 H 975.667 -2.01616 0.107046 0
M  V30 9180 H 975.863 -3.61403 0.873101 0
M  V30 9181 P 974.214 1.17771 8.83182 0
M  V30 9182 O 973.994 2.07206 9.98732 0
M  V30 9183 O 973.424 -0.0743816 8.81969 0
M  V30 9184 O 973.964 1.97652 7.47304 0
M  V30 9185 C 974.904 3.01133 7.08783 0
M  V30 9186 C 974.174 4.12613 6.37049 0
M  V30 9187 O 973.964 3.72827 4.97879 0
M  V30 9188 C 972.774 4.45085 6.88694 0
M  V30 9189 O 972.384 5.7877 6.5624 0
M  V30 9190 C 971.894 3.47817 6.12078 0
M  V30 9191 C 972.604 3.39414 4.77697 0
M  V30 9192 N 972.554 2.04199 4.15538 0
M  V30 9193 H 975.393 3.41248 7.98759 0
M  V30 9194 H 975.665 2.57728 6.42 0
M  V30 9195 H 974.797 5.02657 6.42673 0
M  V30 9196 H 972.142 4.11708 4.08956 0
M  V30 9197 H 971.862 2.49626 6.61679 0
M  V30 9198 H 970.871 3.8662 6.00862 0
M  V30 9199 H 972.705 4.29991 7.97006 0
M  V30 9200 P 970.834 6.144 6.45285 0
M  V30 9201 O 970.614 7.54673 6.86199 0
M  V30 9202 O 970.044 5.12391 7.179 0
M  V30 9203 O 970.584 5.99158 4.88404 0
M  V30 9204 C 971.524 6.60062 3.96313 0
M  V30 9205 C 970.794 7.08259 2.72856 0
M  V30 9206 O 970.584 5.9427 1.83651 0
M  V30 9207 C 969.394 7.65087 2.94749 0
M  V30 9208 O 969.004 8.53963 1.90717 0
M  V30 9209 C 968.514 6.41069 2.90698 0
M  V30 9210 C 969.224 5.5528 1.86931 0
M  V30 9211 N 969.174 4.09575 2.15696 0
M  V30 9212 C 969.024 3.24249 1.08435 0
M  V30 9213 O 968.934 3.63946 -0.0628747 0
M  V30 9214 N 968.984 1.90009 1.39973 0
M  V30 9215 C 969.074 1.34884 2.65614 0
M  V30 9216 C 969.224 2.3145 3.71736 0
M  V30 9217 C 969.274 3.63518 3.44754 0
M  V30 9218 H 972.015 7.45402 4.45526 0
M  V30 9219 H 972.284 5.86062 3.67208 0
M  V30 9220 H 971.417 7.84412 2.24479 0
M  V30 9221 H 968.762 5.73358 0.888409 0
M  V30 9222 H 968.483 5.90877 3.88583 0
M  V30 9223 H 967.491 6.65867 2.58821 0
M  V30 9224 H 969.325 8.16248 3.92006 0
M  V30 9225 H 969.396 4.34551 4.26383 0
M  V30 9226 P 967.454 8.7635 1.60911 0
M  V30 9227 O 967.234 10.1388 1.11561 0
M  V30 9228 O 966.664 8.36503 2.79617 0
M  V30 9229 O 967.204 7.71906 0.429565 0
M  V30 9230 C 968.144 7.67148 -0.673689 0
M  V30 9231 C 967.414 7.33666 -1.94851 0
M  V30 9232 O 967.204 5.88816 -2.00759 0
M  V30 9233 C 966.014 7.92526 -2.10483 0
M  V30 9234 O 965.624 8.03063 -3.47693 0
M  V30 9235 C 965.134 6.89602 -1.41652 0
M  V30 9236 C 965.844 5.59201 -1.75185 0
M  V30 9237 N 965.794 4.58235 -0.662552 0
M  V30 9238 C 965.644 3.24451 -1.01643 0
M  V30 9239 O 965.554 2.94958 -2.21722 0
M  V30 9240 N 965.594 2.30408 0.165238 0
M  V30 9241 C 965.694 2.66048 1.25118 0
M  V30 9242 N 965.644 1.70787 2.16813 0
M  V30 9243 C 965.844 4.02732 1.64413 0
M  V30 9244 C 965.894 4.9488 0.63991 0
M  V30 9245 H 968.634 8.65017 -0.777072 0
M  V30 9246 H 968.904 6.90173 -0.474152 0
M  V30 9247 H 968.037 7.66642 -2.79492 0
M  V30 9248 H 965.382 5.16254 -2.65229 0
M  V30 9249 H 965.102 7.06532 -0.329431 0
M  V30 9250 H 964.111 6.91023 -1.82047 0
M  V30 9251 H 965.945 8.90873 -1.62657 0
M  V30 9252 H 966.017 6.00104 0.892197 0
M  V30 9253 H 965.915 4.31733 2.69229 0
M  V30 9254 H 965.527 0.724835 1.8844 0
M  V30 9255 H 965.723 1.94716 3.16734 0
M  V30 9256 P 964.074 8.03563 -3.84925 0
M  V30 9257 O 963.854 8.85821 -5.0569 0
M  V30 9258 O 963.284 8.41101 -2.65469 0
M  V30 9259 O 963.824 6.4965 -4.18908 0
M  V30 9260 C 964.764 5.81037 -5.05421 0
M  V30 9261 C 964.034 4.78366 -5.89277 0
M  V30 9262 O 963.824 3.58302 -5.08433 0
M  V30 9263 C 962.634 5.17448 -6.36119 0
M  V30 9264 O 962.244 4.45271 -7.53232 0
M  V30 9265 C 961.754 4.74639 -5.19936 0
M  V30 9266 C 962.464 3.49432 -4.70418 0
M  V30 9267 N 962.414 3.31776 -3.22945 0
M  V30 9268 C 962.494 4.27147 -2.23315 0
M  V30 9269 N 962.414 3.78447 -1.02186 0
M  V30 9270 C 962.274 2.41001 -1.21732 0
M  V30 9271 C 962.144 1.36111 -0.27694 0
M  V30 9272 N 962.024 0.113683 -0.912949 0
M  V30 9273 C 962.024 -0.0846396 -2.27943 0
M  V30 9274 N 961.894 -1.34737 -2.6916 0
M  V30 9275 N 962.154 0.902521 -3.16379 0
M  V30 9276 C 962.274 2.11937 -2.56849 0
M  V30 9277 H 965.253 6.54213 -5.71376 0
M  V30 9278 H 965.525 5.30492 -4.44033 0
M  V30 9279 H 964.657 4.55889 -6.76652 0
M  V30 9280 P 960.694 4.23843 -7.83734 0
M  V30 9281 O 960.474 4.19407 -9.29784 0
M  V30 9282 O 959.904 5.24426 -7.09156 0
M  V30 9283 O 960.444 2.79386 -7.20852 0
M  V30 9284 C 961.384 1.7299 -7.50419 0
M  V30 9285 C 960.654 0.41401 -7.5797 0
M  V30 9286 O 960.444 -0.089787 -6.22035 0
M  V30 9287 C 959.254 0.447224 -8.1878 0
M  V30 9288 O 958.864 -0.825159 -8.71201 0
M  V30 9289 C 958.374 0.783801 -6.99623 0
M  V30 9290 C 959.084 0.0619192 -5.85967 0
M  V30 9291 N 959.034 0.7859 -4.56281 0
M  V30 9292 C 958.884 0.0359258 -3.39981 0
M  V30 9293 O 958.794 -1.19723 -3.49038 0
M  V30 9294 N 958.834 0.869151 -2.14025 0
M  V30 9295 C 958.934 2.01207 -2.14363 0
M  V30 9296 N 958.884 2.58978 -0.954287 0
M  V30 9297 C 959.084 2.80817 -3.32215 0
M  V30 9298 C 959.134 2.13785 -4.50884 0
M  V30 9299 H 961.874 1.93401 -8.46693 0
M  V30 9300 H 962.144 1.68181 -6.71046 0
M  V30 9301 H 961.277 -0.289076 -8.15488 0
M  V30 9302 H 958.622 -0.927166 -5.72947 0
M  V30 9303 H 958.342 1.87 -6.82132 0
M  V30 9304 H 957.351 0.404009 -7.13457 0
M  V30 9305 H 959.185 1.20599 -8.97534 0
M  V30 9306 H 959.257 2.70295 -5.43162 0
M  V30 9307 H 959.155 3.89465 -3.27406 0
M  V30 9308 H 958.767 2.01616 -0.107046 0
M  V30 9309 H 958.963 3.61403 -0.873101 0
M  V30 9310 P 957.314 -1.17771 -8.83182 0
M  V30 9311 O 957.094 -2.07206 -9.98732 0
M  V30 9312 O 956.524 0.0743816 -8.81969 0
M  V30 9313 O 957.064 -1.97678 -7.474 0
M  V30 9314 C 958.004 -3.01133 -7.08783 0
M  V30 9315 C 957.274 -4.1203 -6.37546 0
M  V30 9316 O 957.064 -3.72887 -4.9796 0
M  V30 9317 C 955.874 -4.45085 -6.88694 0
M  V30 9318 O 955.484 -5.78836 -6.56315 0
M  V30 9319 C 954.994 -3.47817 -6.12078 0
M  V30 9320 C 955.704 -3.39414 -4.77697 0
M  V30 9321 N 955.654 -2.04615 -4.15333 0
M  V30 9322 C 955.504 -1.96929 -2.77162 0
M  V30 9323 O 955.414 -3.02017 -2.12006 0
M  V30 9324 N 955.454 -0.55485 -2.24237 0
M  V30 9325 C 955.554 0.367808 -2.9169 0
M  V30 9326 N 955.504 1.53426 -2.29427 0
M  V30 9327 C 955.704 0.319148 -4.33828 0
M  V30 9328 C 955.754 -0.920672 -4.90433 0
M  V30 9329 H 958.494 -3.41209 -7.98667 0
M  V30 9330 H 958.764 -2.5837 -6.41742 0
M  V30 9331 H 957.897 -5.02718 -6.42752 0
M  V30 9332 H 955.242 -4.11779 -4.09026 0
M  V30 9333 H 954.962 -2.49661 -6.61772 0
M  V30 9334 H 953.971 -3.86674 -6.00946 0
M  V30 9335 H 955.805 -4.29991 -7.97006 0
M  V30 9336 H 955.877 -1.00589 -5.98303 0
M  V30 9337 H 955.775 1.22639 -4.93799 0
M  V30 9338 H 955.387 1.56819 -1.27167 0
M  V30 9339 H 955.583 2.41062 -2.83063 0
M  V30 9340 P 953.934 -6.144 -6.45285 0
M  V30 9341 O 953.714 -7.54673 -6.86199 0
M  V30 9342 O 953.144 -5.12391 -7.179 0
M  V30 9343 O 953.684 -5.99158 -4.88404 0
M  V30 9344 C 954.624 -6.60234 -3.96415 0
M  V30 9345 C 953.894 -7.08259 -2.72856 0
M  V30 9346 O 953.684 -5.9427 -1.83651 0
M  V30 9347 C 952.494 -7.64886 -2.9555 0
M  V30 9348 O 952.104 -8.53963 -1.90717 0
M  V30 9349 C 951.614 -6.4116 -2.90739 0
M  V30 9350 C 952.324 -5.55375 -1.86963 0
M  V30 9351 N 952.274 -4.09664 -2.15742 0
M  V30 9352 H 955.113 -7.45574 -4.45629 0
M  V30 9353 H 955.385 -5.86232 -3.67314 0
M  V30 9354 H 954.517 -7.84412 -2.24479 0
M  V30 9355 P 950.554 -8.7635 -1.60911 0
M  V30 9356 O 950.334 -10.1388 -1.11561 0
M  V30 9357 O 949.764 -8.36503 -2.79617 0
M  V30 9358 O 950.304 -7.71906 -0.429565 0
M  V30 9359 C 951.244 -7.67148 0.673689 0
M  V30 9360 C 950.514 -7.33666 1.94851 0
M  V30 9361 O 950.304 -5.88816 2.00759 0
M  V30 9362 C 949.114 -7.92526 2.10483 0
M  V30 9363 O 948.724 -8.03063 3.47693 0
M  V30 9364 C 948.234 -6.89602 1.41652 0
M  V30 9365 C 948.944 -5.59201 1.75185 0
M  V30 9366 N 948.894 -4.58235 0.662552 0
M  V30 9367 C 948.744 -3.24451 1.01643 0
M  V30 9368 O 948.654 -2.94958 2.21722 0
M  V30 9369 N 948.694 -2.30408 -0.165238 0
M  V30 9370 C 948.794 -2.66048 -1.25118 0
M  V30 9371 N 948.744 -1.70787 -2.16813 0
M  V30 9372 C 948.944 -4.02732 -1.64413 0
M  V30 9373 C 948.994 -4.9488 -0.63991 0
M  V30 9374 H 951.734 -8.65017 0.777072 0
M  V30 9375 H 952.004 -6.90173 0.474152 0
M  V30 9376 H 951.137 -7.66642 2.79492 0
M  V30 9377 H 948.482 -5.16254 2.65229 0
M  V30 9378 H 948.202 -7.06532 0.329431 0
M  V30 9379 H 947.211 -6.91023 1.82047 0
M  V30 9380 H 949.045 -8.90873 1.62657 0
M  V30 9381 H 949.117 -6.00104 -0.892197 0
M  V30 9382 H 949.015 -4.31733 -2.69229 0
M  V30 9383 H 948.627 -0.724835 -1.8844 0
M  V30 9384 H 948.823 -1.94716 -3.16734 0
M  V30 9385 P 947.174 -8.03563 3.84925 0
M  V30 9386 O 946.954 -8.85821 5.0569 0
M  V30 9387 O 946.384 -8.41101 2.65469 0
M  V30 9388 O 946.924 -6.4965 4.18908 0
M  V30 9389 C 947.864 -5.81037 5.05421 0
M  V30 9390 C 947.134 -4.78366 5.89277 0
M  V30 9391 O 946.924 -3.58302 5.08433 0
M  V30 9392 C 945.734 -5.17448 6.36119 0
M  V30 9393 O 945.344 -4.45271 7.53232 0
M  V30 9394 C 944.854 -4.74639 5.19936 0
M  V30 9395 C 945.564 -3.49432 4.70418 0
M  V30 9396 N 945.514 -3.32099 3.22613 0
M  V30 9397 H 948.353 -6.54213 5.71376 0
M  V30 9398 H 948.625 -5.30936 4.43503 0
M  V30 9399 H 947.757 -4.55889 6.76652 0
M  V30 9400 H 945.102 -2.61715 5.17932 0
M  V30 9401 H 944.822 -5.52155 4.41878 0
M  V30 9402 H 943.831 -4.51981 5.53374 0
M  V30 9403 H 945.665 -6.25124 6.55234 0
M  V30 9404 P 943.794 -4.23843 7.83734 0
M  V30 9405 O 943.574 -4.19407 9.29784 0
M  V30 9406 O 943.004 -5.24426 7.09156 0
M  V30 9407 O 943.544 -2.79386 7.20852 0
M  V30 9408 C 944.484 -1.7299 7.50419 0
M  V30 9409 C 943.754 -0.41401 7.5797 0
M  V30 9410 O 943.544 0.089787 6.22035 0
M  V30 9411 C 942.354 -0.447224 8.1878 0
M  V30 9412 O 941.964 0.825159 8.71201 0
M  V30 9413 C 941.474 -0.783801 6.99623 0
M  V30 9414 C 942.184 -0.0619192 5.85967 0
M  V30 9415 N 942.134 -0.7859 4.56281 0
M  V30 9416 C 941.984 -0.0359258 3.39981 0
M  V30 9417 O 941.894 1.19723 3.49038 0
M  V30 9418 N 941.934 -0.869151 2.14025 0
M  V30 9419 C 942.034 -2.01207 2.14363 0
M  V30 9420 N 941.984 -2.58978 0.954287 0
M  V30 9421 C 942.184 -2.80817 3.32215 0
M  V30 9422 C 942.234 -2.13785 4.50884 0
M  V30 9423 H 944.974 -1.93401 8.46693 0
M  V30 9424 H 945.244 -1.68181 6.71046 0
M  V30 9425 H 944.377 0.289076 8.15488 0
M  V30 9426 H 941.722 0.927166 5.72947 0
M  V30 9427 H 941.442 -1.87 6.82132 0
M  V30 9428 H 940.451 -0.404009 7.13457 0
M  V30 9429 H 942.285 -1.20599 8.97534 0
M  V30 9430 H 942.357 -2.70295 5.43162 0
M  V30 9431 H 942.255 -3.89465 3.27406 0
M  V30 9432 H 941.867 -2.01616 0.107046 0
M  V30 9433 H 942.063 -3.61403 0.873101 0
M  V30 9434 P 940.414 1.17771 8.83182 0
M  V30 9435 O 940.194 2.07206 9.98732 0
M  V30 9436 O 939.624 -0.0743816 8.81969 0
M  V30 9437 O 940.164 1.97678 7.474 0
M  V30 9438 C 941.104 3.01133 7.08783 0
M  V30 9439 C 940.374 4.1203 6.37546 0
M  V30 9440 O 940.164 3.72887 4.9796 0
M  V30 9441 C 938.974 4.45085 6.88694 0
M  V30 9442 O 938.584 5.78836 6.56315 0
M  V30 9443 C 938.094 3.47817 6.12078 0
M  V30 9444 C 938.804 3.39414 4.77697 0
M  V30 9445 N 938.754 2.04615 4.15333 0
M  V30 9446 C 938.604 1.96929 2.77162 0
M  V30 9447 O 938.514 3.02017 2.12006 0
M  V30 9448 N 938.554 0.55485 2.24237 0
M  V30 9449 C 938.654 -0.367808 2.9169 0
M  V30 9450 N 938.604 -1.53426 2.29427 0
M  V30 9451 C 938.804 -0.319148 4.33828 0
M  V30 9452 C 938.854 0.920672 4.90433 0
M  V30 9453 H 941.594 3.41209 7.98667 0
M  V30 9454 H 941.864 2.5837 6.41742 0
M  V30 9455 H 940.997 5.02718 6.42752 0
M  V30 9456 H 938.342 4.11779 4.09026 0
M  V30 9457 H 938.062 2.49661 6.61772 0
M  V30 9458 H 937.071 3.86674 6.00946 0
M  V30 9459 H 938.905 4.29991 7.97006 0
M  V30 9460 H 938.977 1.00589 5.98303 0
M  V30 9461 H 938.875 -1.22639 4.93799 0
M  V30 9462 H 938.487 -1.56819 1.27167 0
M  V30 9463 H 938.683 -2.41062 2.83063 0
M  V30 9464 P 937.034 6.144 6.45285 0
M  V30 9465 O 936.814 7.54673 6.86199 0
M  V30 9466 O 936.244 5.12391 7.179 0
M  V30 9467 O 936.784 5.99158 4.88404 0
M  V30 9468 C 937.724 6.60234 3.96415 0
M  V30 9469 C 936.994 7.08259 2.72856 0
M  V30 9470 O 936.784 5.9427 1.83651 0
M  V30 9471 C 935.594 7.64886 2.9555 0
M  V30 9472 O 935.204 8.53963 1.90717 0
M  V30 9473 C 934.714 6.4116 2.90739 0
M  V30 9474 C 935.424 5.55375 1.86963 0
M  V30 9475 N 935.374 4.09664 2.15742 0
M  V30 9476 H 938.213 7.45574 4.45629 0
M  V30 9477 H 938.485 5.86232 3.67314 0
M  V30 9478 H 937.617 7.84412 2.24479 0
M  V30 9479 P 933.655 8.7635 1.60911 0
M  V30 9480 O 933.435 10.1388 1.11561 0
M  V30 9481 O 932.865 8.36503 2.79617 0
M  V30 9482 O 933.405 7.71906 0.429565 0
M  V30 9483 C 934.345 7.67148 -0.673689 0
M  V30 9484 C 933.615 7.33666 -1.94851 0
M  V30 9485 O 933.405 5.88816 -2.00759 0
M  V30 9486 C 932.215 7.92526 -2.10483 0
M  V30 9487 O 931.825 8.03063 -3.47693 0
M  V30 9488 C 931.335 6.89602 -1.41652 0
M  V30 9489 C 932.045 5.59201 -1.75185 0
M  V30 9490 N 931.995 4.58235 -0.662552 0
M  V30 9491 C 931.845 3.24451 -1.01643 0
M  V30 9492 O 931.755 2.94958 -2.21722 0
M  V30 9493 N 931.795 2.30408 0.165238 0
M  V30 9494 C 931.895 2.66048 1.25118 0
M  V30 9495 N 931.845 1.70787 2.16813 0
M  V30 9496 C 932.045 4.02732 1.64413 0
M  V30 9497 C 932.095 4.9488 0.63991 0
M  V30 9498 H 934.835 8.65017 -0.777072 0
M  V30 9499 H 935.105 6.90173 -0.474152 0
M  V30 9500 H 934.238 7.66642 -2.79492 0
M  V30 9501 H 931.583 5.16254 -2.65229 0
M  V30 9502 H 931.303 7.06532 -0.329431 0
M  V30 9503 H 930.312 6.91023 -1.82047 0
M  V30 9504 H 932.146 8.90873 -1.62657 0
M  V30 9505 H 932.218 6.00104 0.892197 0
M  V30 9506 H 932.116 4.31733 2.69229 0
M  V30 9507 H 931.728 0.724835 1.8844 0
M  V30 9508 H 931.924 1.94716 3.16734 0
M  V30 9509 P 930.275 8.03563 -3.84925 0
M  V30 9510 O 930.055 8.85821 -5.0569 0
M  V30 9511 O 929.485 8.41101 -2.65469 0
M  V30 9512 O 930.025 6.4965 -4.18908 0
M  V30 9513 C 930.965 5.81037 -5.05421 0
M  V30 9514 C 930.235 4.78366 -5.89277 0
M  V30 9515 O 930.025 3.58302 -5.08433 0
M  V30 9516 C 928.835 5.17448 -6.36119 0
M  V30 9517 O 928.445 4.45271 -7.53232 0
M  V30 9518 C 927.955 4.74639 -5.19936 0
M  V30 9519 C 928.665 3.49432 -4.70418 0
M  V30 9520 N 928.615 3.32099 -3.22613 0
M  V30 9521 H 931.454 6.54213 -5.71376 0
M  V30 9522 H 931.726 5.30936 -4.43503 0
M  V30 9523 H 930.858 4.55889 -6.76652 0
M  V30 9524 H 928.203 2.61715 -5.17932 0
M  V30 9525 H 927.923 5.52155 -4.41878 0
M  V30 9526 H 926.932 4.51981 -5.53374 0
M  V30 9527 H 928.766 6.25124 -6.55234 0
M  V30 9528 P 926.895 4.23843 -7.83734 0
M  V30 9529 O 926.675 4.19407 -9.29784 0
M  V30 9530 O 926.105 5.24426 -7.09156 0
M  V30 9531 O 926.645 2.79386 -7.20852 0
M  V30 9532 C 927.585 1.7299 -7.50419 0
M  V30 9533 C 926.855 0.41401 -7.5797 0
M  V30 9534 O 926.645 -0.089787 -6.22035 0
M  V30 9535 C 925.455 0.447224 -8.1878 0
M  V30 9536 O 925.065 -0.825159 -8.71201 0
M  V30 9537 C 924.575 0.783801 -6.99623 0
M  V30 9538 C 925.285 0.0619192 -5.85967 0
M  V30 9539 N 925.235 0.7859 -4.56281 0
M  V30 9540 C 925.085 0.0359258 -3.39981 0
M  V30 9541 O 924.995 -1.19723 -3.49038 0
M  V30 9542 N 925.035 0.869151 -2.14025 0
M  V30 9543 C 925.135 2.01207 -2.14363 0
M  V30 9544 N 925.085 2.58978 -0.954287 0
M  V30 9545 C 925.285 2.80817 -3.32215 0
M  V30 9546 C 925.335 2.13785 -4.50884 0
M  V30 9547 H 928.075 1.93401 -8.46693 0
M  V30 9548 H 928.345 1.68181 -6.71046 0
M  V30 9549 H 927.478 -0.289076 -8.15488 0
M  V30 9550 H 924.823 -0.927166 -5.72947 0
M  V30 9551 H 924.543 1.87 -6.82132 0
M  V30 9552 H 923.552 0.404009 -7.13457 0
M  V30 9553 H 925.386 1.20599 -8.97534 0
M  V30 9554 H 925.458 2.70295 -5.43162 0
M  V30 9555 H 925.356 3.89465 -3.27406 0
M  V30 9556 H 924.968 2.01616 -0.107046 0
M  V30 9557 H 925.164 3.61403 -0.873101 0
M  V30 9558 P 923.515 -1.17771 -8.83182 0
M  V30 9559 O 923.295 -2.07206 -9.98732 0
M  V30 9560 O 922.725 0.0743816 -8.81969 0
M  V30 9561 O 923.265 -1.97678 -7.474 0
M  V30 9562 C 924.205 -3.01133 -7.08783 0
M  V30 9563 C 923.475 -4.1203 -6.37546 0
M  V30 9564 O 923.265 -3.72887 -4.9796 0
M  V30 9565 C 922.075 -4.45085 -6.88694 0
M  V30 9566 O 921.685 -5.78836 -6.56315 0
M  V30 9567 C 921.195 -3.47817 -6.12078 0
M  V30 9568 C 921.905 -3.39414 -4.77697 0
M  V30 9569 N 921.855 -2.04615 -4.15333 0
M  V30 9570 C 921.705 -1.96929 -2.77162 0
M  V30 9571 O 921.615 -3.02017 -2.12006 0
M  V30 9572 N 921.655 -0.55485 -2.24237 0
M  V30 9573 C 921.755 0.367808 -2.9169 0
M  V30 9574 N 921.705 1.53426 -2.29427 0
M  V30 9575 C 921.905 0.319148 -4.33828 0
M  V30 9576 C 921.955 -0.920672 -4.90433 0
M  V30 9577 H 924.695 -3.41209 -7.98667 0
M  V30 9578 H 924.965 -2.5837 -6.41742 0
M  V30 9579 H 924.098 -5.02718 -6.42752 0
M  V30 9580 H 921.443 -4.11779 -4.09026 0
M  V30 9581 H 921.163 -2.49661 -6.61772 0
M  V30 9582 H 920.172 -3.86674 -6.00946 0
M  V30 9583 H 922.006 -4.29991 -7.97006 0
M  V30 9584 H 922.078 -1.00589 -5.98303 0
M  V30 9585 H 921.976 1.22639 -4.93799 0
M  V30 9586 H 921.588 1.56819 -1.27167 0
M  V30 9587 H 921.784 2.41062 -2.83063 0
M  V30 9588 P 920.135 -6.144 -6.45285 0
M  V30 9589 O 919.915 -7.54673 -6.86199 0
M  V30 9590 O 919.345 -5.12391 -7.179 0
M  V30 9591 O 919.885 -5.99236 -4.88467 0
M  V30 9592 C 920.825 -6.60234 -3.96415 0
M  V30 9593 C 920.095 -7.08079 -2.736 0
M  V30 9594 O 919.885 -5.94365 -1.8368 0
M  V30 9595 C 918.695 -7.64886 -2.9555 0
M  V30 9596 O 918.305 -8.5406 -1.90739 0
M  V30 9597 C 917.815 -6.4116 -2.90739 0
M  V30 9598 C 918.525 -5.55375 -1.86963 0
M  V30 9599 N 918.475 -4.09664 -2.15742 0
M  V30 9600 C 918.325 -3.22231 -1.08477 0
M  V30 9601 O 918.235 -3.68951 0.0600489 0
M  V30 9602 N 918.275 -1.76692 -1.48799 0
M  V30 9603 C 918.375 -1.41695 -2.57602 0
M  V30 9604 N 918.325 -0.107296 -2.75791 0
M  V30 9605 C 918.525 -2.29178 -3.69733 0
M  V30 9606 C 918.575 -3.62753 -3.42653 0
M  V30 9607 H 921.315 -7.45488 -4.45578 0
M  V30 9608 H 921.585 -5.86232 -3.67314 0
M  V30 9609 H 920.718 -7.84508 -2.24507 0
M  V30 9610 H 918.063 -5.73556 -0.888715 0
M  V30 9611 H 917.783 -5.9096 -3.88638 0
M  V30 9612 H 916.792 -6.66053 -2.58894 0
M  V30 9613 H 918.626 -8.16339 -3.92049 0
M  V30 9614 H 918.698 -4.33052 -4.24913 0
M  V30 9615 H 918.596 -1.9103 -4.71577 0
M  V30 9616 H 918.208 0.521221 -1.95056 0
M  V30 9617 H 918.404 0.286429 -3.70695 0
M  V30 9618 P 916.755 -8.7635 -1.60911 0
M  V30 9619 O 916.535 -10.1388 -1.11561 0
M  V30 9620 O 915.965 -8.36503 -2.79617 0
M  V30 9621 O 916.505 -7.71806 -0.42951 0
M  V30 9622 C 917.445 -7.67148 0.673689 0
M  V30 9623 C 916.715 -7.33374 1.95559 0
M  V30 9624 O 916.505 -5.88721 2.00726 0
M  V30 9625 C 915.315 -7.92526 2.10483 0
M  V30 9626 O 914.925 -8.02971 3.47653 0
M  V30 9627 C 914.435 -6.89602 1.41652 0
M  V30 9628 C 915.145 -5.59201 1.75185 0
M  V30 9629 N 915.095 -4.58235 0.662552 0
M  V30 9630 H 917.934 -8.65116 0.777161 0
M  V30 9631 H 918.206 -6.90173 0.474152 0
M  V30 9632 H 917.338 -7.66548 2.79458 0
M  V30 9633 P 913.375 -8.03563 3.84925 0
M  V30 9634 O 913.155 -8.85821 5.0569 0
M  V30 9635 O 912.585 -8.41101 2.65469 0
M  V30 9636 O 913.125 -6.4965 4.18908 0
M  V30 9637 C 914.065 -5.81037 5.05421 0
M  V30 9638 C 913.335 -4.78366 5.89277 0
M  V30 9639 O 913.125 -3.58302 5.08433 0
M  V30 9640 C 911.935 -5.17448 6.36119 0
M  V30 9641 O 911.545 -4.45271 7.53232 0
M  V30 9642 C 911.055 -4.74639 5.19936 0
M  V30 9643 C 911.765 -3.49432 4.70418 0
M  V30 9644 N 911.715 -3.32099 3.22613 0
M  V30 9645 C 911.795 -4.28245 2.25527 0
M  V30 9646 N 911.725 -3.80823 1.04874 0
M  V30 9647 C 911.575 -2.44571 1.23535 0
M  V30 9648 C 911.445 -1.37068 0.330675 0
M  V30 9649 N 911.435 -1.51472 -0.990824 0
M  V30 9650 N 911.325 -0.138614 0.848756 0
M  V30 9651 C 911.335 0.00675923 2.16999 0
M  V30 9652 N 911.455 -0.904372 3.11122 0
M  V30 9653 C 911.575 -2.12707 2.56212 0
M  V30 9654 H 914.554 -6.54213 5.71376 0
M  V30 9655 H 914.826 -5.30936 4.43503 0
M  V30 9656 H 913.958 -4.55889 6.76652 0
M  V30 9657 H 911.303 -2.61715 5.17932 0
M  V30 9658 H 911.023 -5.52155 4.41878 0
M  V30 9659 H 910.032 -4.51981 5.53374 0
M  V30 9660 H 911.866 -6.25124 6.55234 0
M  V30 9661 H 911.907 -5.34372 2.47488 0
M  V30 9662 H 911.526 -2.45153 -1.4078 0
M  V30 9663 H 911.337 -0.688422 -1.59911 0
M  V30 9664 H 911.229 1.02584 2.52346 0
M  V30 9665 P 909.995 -4.23843 7.83734 0
M  V30 9666 O 909.775 -4.19407 9.29784 0
M  V30 9667 O 909.205 -5.24426 7.09156 0
M  V30 9668 O 909.745 -2.7935 7.20758 0
M  V30 9669 C 910.685 -1.7299 7.50419 0
M  V30 9670 C 909.955 -0.406376 7.57911 0
M  V30 9671 O 909.745 0.0897726 6.21935 0
M  V30 9672 C 908.555 -0.447224 8.1878 0
M  V30 9673 O 908.165 0.825065 8.71101 0
M  V30 9674 C 907.675 -0.783801 6.99623 0
M  V30 9675 C 908.385 -0.0619192 5.85967 0
M  V30 9676 N 908.335 -0.790462 4.56202 0
M  V30 9677 H 911.174 -1.93423 8.4679 0
M  V30 9678 H 911.446 -1.68852 6.70877 0
M  V30 9679 H 910.578 0.289041 8.15388 0
M  V30 9680 H 907.923 0.927006 5.72848 0
M  V30 9681 H 907.643 -1.86973 6.82036 0
M  V30 9682 H 906.652 -0.403953 7.13357 0
M  V30 9683 H 908.486 -1.20599 8.97534 0
M  V30 9684 P 906.615 1.17771 8.83182 0
M  V30 9685 O 906.395 2.07206 9.98732 0
M  V30 9686 O 905.825 -0.0743816 8.81969 0
M  V30 9687 O 906.365 1.97652 7.47304 0
M  V30 9688 C 907.305 3.01133 7.08783 0
M  V30 9689 C 906.575 4.12613 6.37049 0
M  V30 9690 O 906.365 3.72827 4.97879 0
M  V30 9691 C 905.175 4.45085 6.88694 0
M  V30 9692 O 904.785 5.7877 6.5624 0
M  V30 9693 C 904.295 3.47817 6.12078 0
M  V30 9694 C 905.005 3.39414 4.77697 0
M  V30 9695 N 904.955 2.04615 4.15333 0
M  V30 9696 H 907.794 3.41248 7.98759 0
M  V30 9697 H 908.066 2.5837 6.41742 0
M  V30 9698 H 907.198 5.02657 6.42673 0
M  V30 9699 P 903.235 6.144 6.45285 0
M  V30 9700 O 903.015 7.54673 6.86199 0
M  V30 9701 O 902.445 5.12391 7.179 0
M  V30 9702 O 902.985 5.99158 4.88404 0
M  V30 9703 C 903.925 6.60234 3.96415 0
M  V30 9704 C 903.195 7.08259 2.72856 0
M  V30 9705 O 902.985 5.9427 1.83651 0
M  V30 9706 C 901.795 7.64886 2.9555 0
M  V30 9707 O 901.405 8.53963 1.90717 0
M  V30 9708 C 900.915 6.4116 2.90739 0
M  V30 9709 C 901.625 5.55375 1.86963 0
M  V30 9710 N 901.575 4.09664 2.15742 0
M  V30 9711 H 904.414 7.45574 4.45629 0
M  V30 9712 H 904.686 5.86232 3.67314 0
M  V30 9713 H 903.818 7.84412 2.24479 0
M  V30 9714 P 899.855 8.7635 1.60911 0
M  V30 9715 O 899.635 10.1388 1.11561 0
M  V30 9716 O 899.065 8.36503 2.79617 0
M  V30 9717 O 899.605 7.71806 0.42951 0
M  V30 9718 C 900.545 7.67148 -0.673689 0
M  V30 9719 C 899.815 7.33374 -1.95559 0
M  V30 9720 O 899.605 5.88721 -2.00726 0
M  V30 9721 C 898.415 7.92526 -2.10483 0
M  V30 9722 O 898.025 8.02971 -3.47653 0
M  V30 9723 C 897.535 6.89602 -1.41652 0
M  V30 9724 C 898.245 5.59201 -1.75185 0
M  V30 9725 N 898.195 4.58235 -0.662552 0
M  V30 9726 H 901.034 8.65116 -0.777161 0
M  V30 9727 H 901.306 6.90173 -0.474152 0
M  V30 9728 H 900.438 7.66548 -2.79458 0
M  V30 9729 P 896.475 8.03563 -3.84925 0
M  V30 9730 O 896.255 8.85821 -5.0569 0
M  V30 9731 O 895.685 8.41101 -2.65469 0
M  V30 9732 O 896.225 6.4965 -4.18908 0
M  V30 9733 C 897.165 5.81037 -5.05421 0
M  V30 9734 C 896.435 4.78366 -5.89277 0
M  V30 9735 O 896.225 3.58302 -5.08433 0
M  V30 9736 C 895.035 5.17448 -6.36119 0
M  V30 9737 O 894.645 4.45271 -7.53232 0
M  V30 9738 C 894.155 4.74639 -5.19936 0
M  V30 9739 C 894.865 3.49432 -4.70418 0
M  V30 9740 N 894.815 3.31776 -3.22945 0
M  V30 9741 H 897.654 6.54213 -5.71376 0
M  V30 9742 H 897.926 5.30492 -4.44033 0
M  V30 9743 H 897.058 4.55889 -6.76652 0
M  V30 9744 P 893.095 4.23843 -7.83734 0
M  V30 9745 O 892.875 4.19407 -9.29784 0
M  V30 9746 O 892.305 5.24426 -7.09156 0
M  V30 9747 O 892.845 2.7935 -7.20758 0
M  V30 9748 C 893.785 1.7299 -7.50419 0
M  V30 9749 C 893.055 0.406376 -7.57911 0
M  V30 9750 O 892.845 -0.0897726 -6.21935 0
M  V30 9751 C 891.655 0.447224 -8.1878 0
M  V30 9752 O 891.265 -0.825065 -8.71101 0
M  V30 9753 C 890.775 0.783801 -6.99623 0
M  V30 9754 C 891.485 0.0619192 -5.85967 0
M  V30 9755 N 891.435 0.7859 -4.56281 0
M  V30 9756 H 894.274 1.93423 -8.4679 0
M  V30 9757 H 894.546 1.68181 -6.71046 0
M  V30 9758 H 893.678 -0.289041 -8.15388 0
M  V30 9759 P 889.715 -1.17771 -8.83182 0
M  V30 9760 O 889.495 -2.07206 -9.98732 0
M  V30 9761 O 888.925 0.0743816 -8.81969 0
M  V30 9762 O 889.465 -1.97652 -7.47304 0
M  V30 9763 C 890.405 -3.01133 -7.08783 0
M  V30 9764 C 889.675 -4.12613 -6.37049 0
M  V30 9765 O 889.465 -3.72827 -4.97879 0
M  V30 9766 C 888.275 -4.45085 -6.88694 0
M  V30 9767 O 887.885 -5.7877 -6.5624 0
M  V30 9768 C 887.395 -3.47817 -6.12078 0
M  V30 9769 C 888.105 -3.39414 -4.77697 0
M  V30 9770 N 888.055 -2.04615 -4.15333 0
M  V30 9771 H 890.894 -3.41248 -7.98759 0
M  V30 9772 H 891.166 -2.5837 -6.41742 0
M  V30 9773 H 890.298 -5.02657 -6.42673 0
M  V30 9774 P 886.335 -6.144 -6.45285 0
M  V30 9775 O 886.115 -7.54673 -6.86199 0
M  V30 9776 O 885.545 -5.12391 -7.179 0
M  V30 9777 O 886.085 -5.99158 -4.88404 0
M  V30 9778 C 887.025 -6.60234 -3.96415 0
M  V30 9779 C 886.295 -7.08259 -2.72856 0
M  V30 9780 O 886.085 -5.9427 -1.83651 0
M  V30 9781 C 884.895 -7.64886 -2.9555 0
M  V30 9782 O 884.505 -8.53963 -1.90717 0
M  V30 9783 C 884.015 -6.4116 -2.90739 0
M  V30 9784 C 884.725 -5.55375 -1.86963 0
M  V30 9785 N 884.675 -4.09664 -2.15742 0
M  V30 9786 C 884.755 -3.44381 -3.37233 0
M  V30 9787 N 884.675 -2.14131 -3.28347 0
M  V30 9788 C 884.535 -1.90247 -1.91588 0
M  V30 9789 C 884.405 -0.683992 -1.20892 0
M  V30 9790 N 884.285 -0.903396 0.173998 0
M  V30 9791 C 884.285 -2.14171 0.784879 0
M  V30 9792 N 884.155 -2.1435 2.11317 0
M  V30 9793 N 884.415 -3.28784 0.119316 0
M  V30 9794 C 884.535 -3.0977 -1.22194 0
M  V30 9795 H 887.514 -7.45574 -4.45629 0
M  V30 9796 H 887.786 -5.86232 -3.67314 0
M  V30 9797 H 886.918 -7.84412 -2.24479 0
M  V30 9798 P 882.955 -8.7635 -1.60911 0
M  V30 9799 O 882.735 -10.1388 -1.11561 0
M  V30 9800 O 882.165 -8.36503 -2.79617 0
M  V30 9801 O 882.705 -7.71806 -0.42951 0
M  V30 9802 C 883.645 -7.66948 0.673514 0
M  V30 9803 C 882.915 -7.33374 1.95559 0
M  V30 9804 O 882.705 -5.88721 2.00726 0
M  V30 9805 C 881.515 -7.92218 2.1125 0
M  V30 9806 O 881.125 -8.02971 3.47653 0
M  V30 9807 C 880.635 -6.89504 1.41631 0
M  V30 9808 C 881.345 -5.59106 1.75155 0
M  V30 9809 N 881.295 -4.58136 0.662409 0
M  V30 9810 C 881.145 -3.26059 1.02863 0
M  V30 9811 O 881.055 -2.90743 2.19009 0
M  V30 9812 N 881.105 -2.35995 -0.0155585 0
M  V30 9813 C 881.195 -2.65248 -1.35603 0
M  V30 9814 C 881.345 -4.05747 -1.64698 0
M  V30 9815 C 881.395 -4.96734 -0.652411 0
M  V30 9816 H 884.136 -8.64917 0.776982 0
M  V30 9817 H 884.405 -6.89974 0.474015 0
M  V30 9818 H 883.538 -7.66548 2.79458 0
M  V30 9819 H 880.883 -5.16076 2.65138 0
M  V30 9820 H 880.604 -7.06433 0.329384 0
M  V30 9821 H 879.612 -6.90829 1.81996 0
M  V30 9822 H 881.446 -8.90774 1.62639 0
M  V30 9823 H 881.517 -6.02181 -0.895285 0
M  V30 9824 P 879.575 -8.03563 3.84925 0
M  V30 9825 O 879.355 -8.85821 5.0569 0
M  V30 9826 O 878.785 -8.41101 2.65469 0
M  V30 9827 O 879.325 -6.4965 4.18908 0
M  V30 9828 C 880.265 -5.81037 5.05421 0
M  V30 9829 C 879.535 -4.78366 5.89277 0
M  V30 9830 O 879.325 -3.58302 5.08433 0
M  V30 9831 C 878.135 -5.17448 6.36119 0
M  V30 9832 O 877.745 -4.45271 7.53232 0
M  V30 9833 C 877.255 -4.74639 5.19936 0
M  V30 9834 C 877.965 -3.49432 4.70418 0
M  V30 9835 N 877.915 -3.31776 3.22945 0
M  V30 9836 H 880.754 -6.54213 5.71376 0
M  V30 9837 H 881.026 -5.30492 4.44033 0
M  V30 9838 H 880.158 -4.55889 6.76652 0
M  V30 9839 P 876.195 -4.23843 7.83734 0
M  V30 9840 O 875.975 -4.19407 9.29784 0
M  V30 9841 O 875.405 -5.24426 7.09156 0
M  V30 9842 O 875.945 -2.7935 7.20758 0
M  V30 9843 C 876.885 -1.7299 7.50419 0
M  V30 9844 C 876.155 -0.406376 7.57911 0
M  V30 9845 O 875.945 0.0897726 6.21935 0
M  V30 9846 C 874.755 -0.447224 8.1878 0
M  V30 9847 O 874.365 0.825065 8.71101 0
M  V30 9848 C 873.875 -0.783801 6.99623 0
M  V30 9849 C 874.585 -0.0619192 5.85967 0
M  V30 9850 N 874.535 -0.7859 4.56281 0
M  V30 9851 H 877.374 -1.93423 8.4679 0
M  V30 9852 H 877.646 -1.68181 6.71046 0
M  V30 9853 H 876.778 0.289041 8.15388 0
M  V30 9854 P 872.815 1.17771 8.83182 0
M  V30 9855 O 872.595 2.07206 9.98732 0
M  V30 9856 O 872.025 -0.0743816 8.81969 0
M  V30 9857 O 872.565 1.97652 7.47304 0
M  V30 9858 C 873.505 3.01133 7.08783 0
M  V30 9859 C 872.775 4.12613 6.37049 0
M  V30 9860 O 872.565 3.72827 4.97879 0
M  V30 9861 C 871.375 4.45085 6.88694 0
M  V30 9862 O 870.985 5.7877 6.5624 0
M  V30 9863 C 870.495 3.47817 6.12078 0
M  V30 9864 C 871.205 3.39414 4.77697 0
M  V30 9865 N 871.155 2.04615 4.15333 0
M  V30 9866 H 873.994 3.41248 7.98759 0
M  V30 9867 H 874.266 2.5837 6.41742 0
M  V30 9868 H 873.398 5.02657 6.42673 0
M  V30 9869 P 869.435 6.144 6.45285 0
M  V30 9870 O 869.215 7.54673 6.86199 0
M  V30 9871 O 868.645 5.12391 7.179 0
M  V30 9872 O 869.185 5.99158 4.88404 0
M  V30 9873 C 870.125 6.60234 3.96415 0
M  V30 9874 C 869.395 7.08259 2.72856 0
M  V30 9875 O 869.185 5.9427 1.83651 0
M  V30 9876 C 867.995 7.64886 2.9555 0
M  V30 9877 O 867.605 8.53963 1.90717 0
M  V30 9878 C 867.115 6.4116 2.90739 0
M  V30 9879 C 867.825 5.55375 1.86963 0
M  V30 9880 N 867.775 4.09664 2.15742 0
M  V30 9881 H 870.614 7.45574 4.45629 0
M  V30 9882 H 870.886 5.86232 3.67314 0
M  V30 9883 H 870.018 7.84412 2.24479 0
M  V30 9884 P 866.055 8.7635 1.60911 0
M  V30 9885 O 865.835 10.1388 1.11561 0
M  V30 9886 O 865.265 8.36503 2.79617 0
M  V30 9887 O 865.805 7.71806 0.42951 0
M  V30 9888 C 866.745 7.67148 -0.673689 0
M  V30 9889 C 866.015 7.33374 -1.95559 0
M  V30 9890 O 865.805 5.88721 -2.00726 0
M  V30 9891 C 864.615 7.92526 -2.10483 0
M  V30 9892 O 864.225 8.02971 -3.47653 0
M  V30 9893 C 863.735 6.89602 -1.41652 0
M  V30 9894 C 864.445 5.59201 -1.75185 0
M  V30 9895 N 864.395 4.58235 -0.662552 0
M  V30 9896 H 867.234 8.65116 -0.777161 0
M  V30 9897 H 867.506 6.90173 -0.474152 0
M  V30 9898 H 866.638 7.66548 -2.79458 0
M  V30 9899 P 862.675 8.03563 -3.84925 0
M  V30 9900 O 862.455 8.85821 -5.0569 0
M  V30 9901 O 861.885 8.41101 -2.65469 0
M  V30 9902 O 862.425 6.4965 -4.18908 0
M  V30 9903 C 863.365 5.81037 -5.05421 0
M  V30 9904 C 862.635 4.78366 -5.89277 0
M  V30 9905 O 862.425 3.58302 -5.08433 0
M  V30 9906 C 861.235 5.17448 -6.36119 0
M  V30 9907 O 860.845 4.45271 -7.53232 0
M  V30 9908 C 860.355 4.74639 -5.19936 0
M  V30 9909 C 861.065 3.49432 -4.70418 0
M  V30 9910 N 861.015 3.32099 -3.22613 0
M  V30 9911 H 863.854 6.54213 -5.71376 0
M  V30 9912 H 864.126 5.30936 -4.43503 0
M  V30 9913 H 863.258 4.55889 -6.76652 0
M  V30 9914 H 860.603 2.61715 -5.17932 0
M  V30 9915 H 860.323 5.52155 -4.41878 0
M  V30 9916 H 859.332 4.51981 -5.53374 0
M  V30 9917 H 861.166 6.25124 -6.55234 0
M  V30 9918 P 859.295 4.23843 -7.83734 0
M  V30 9919 O 859.075 4.19407 -9.29784 0
M  V30 9920 O 858.505 5.24426 -7.09156 0
M  V30 9921 O 859.045 2.7935 -7.20758 0
M  V30 9922 C 859.985 1.7299 -7.50419 0
M  V30 9923 C 859.255 0.406376 -7.57911 0
M  V30 9924 O 859.045 -0.0897726 -6.21935 0
M  V30 9925 C 857.855 0.447224 -8.1878 0
M  V30 9926 O 857.465 -0.825065 -8.71101 0
M  V30 9927 C 856.975 0.783801 -6.99623 0
M  V30 9928 C 857.685 0.0619192 -5.85967 0
M  V30 9929 N 857.635 0.790462 -4.56202 0
M  V30 9930 H 860.474 1.93423 -8.4679 0
M  V30 9931 H 860.746 1.68852 -6.70877 0
M  V30 9932 H 859.878 -0.289041 -8.15388 0
M  V30 9933 H 857.223 -0.927006 -5.72848 0
M  V30 9934 H 856.943 1.86973 -6.82036 0
M  V30 9935 H 855.952 0.403953 -7.13357 0
M  V30 9936 H 857.786 1.20599 -8.97534 0
M  V30 9937 P 855.915 -1.17771 -8.83182 0
M  V30 9938 O 855.695 -2.07206 -9.98732 0
M  V30 9939 O 855.125 0.0743816 -8.81969 0
M  V30 9940 O 855.665 -1.97652 -7.47304 0
M  V30 9941 C 856.605 -3.01133 -7.08783 0
M  V30 9942 C 855.875 -4.12613 -6.37049 0
M  V30 9943 O 855.665 -3.72827 -4.97879 0
M  V30 9944 C 854.475 -4.45085 -6.88694 0
M  V30 9945 O 854.085 -5.7877 -6.5624 0
M  V30 9946 C 853.595 -3.47817 -6.12078 0
M  V30 9947 C 854.305 -3.39414 -4.77697 0
M  V30 9948 N 854.255 -2.04199 -4.15538 0
M  V30 9949 H 857.094 -3.41248 -7.98759 0
M  V30 9950 H 857.366 -2.57728 -6.42 0
M  V30 9951 H 856.498 -5.02657 -6.42673 0
M  V30 9952 H 853.843 -4.11708 -4.08956 0
M  V30 9953 H 853.563 -2.49626 -6.61679 0
M  V30 9954 H 852.572 -3.8662 -6.00862 0
M  V30 9955 H 854.406 -4.29991 -7.97006 0
M  V30 9956 P 852.535 -6.144 -6.45285 0
M  V30 9957 O 852.315 -7.54673 -6.86199 0
M  V30 9958 O 851.745 -5.12391 -7.179 0
M  V30 9959 O 852.285 -5.99158 -4.88404 0
M  V30 9960 C 853.225 -6.60234 -3.96415 0
M  V30 9961 C 852.495 -7.08259 -2.72856 0
M  V30 9962 O 852.285 -5.9427 -1.83651 0
M  V30 9963 C 851.095 -7.64886 -2.9555 0
M  V30 9964 O 850.705 -8.53963 -1.90717 0
M  V30 9965 C 850.215 -6.4116 -2.90739 0
M  V30 9966 C 850.925 -5.55375 -1.86963 0
M  V30 9967 N 850.875 -4.09448 -2.16152 0
M  V30 9968 H 853.714 -7.45574 -4.45629 0
M  V30 9969 H 853.986 -5.85864 -3.679 0
M  V30 9970 H 853.118 -7.84412 -2.24479 0
M  V30 9971 H 850.463 -5.73457 -0.888562 0
M  V30 9972 H 850.183 -5.90877 -3.88583 0
M  V30 9973 H 849.192 -6.6596 -2.58858 0
M  V30 9974 H 851.026 -8.16339 -3.92049 0
M  V30 9975 P 849.155 -8.7635 -1.60911 0
M  V30 9976 O 848.935 -10.1388 -1.11561 0
M  V30 9977 O 848.365 -8.36503 -2.79617 0
M  V30 9978 O 848.905 -7.71806 -0.42951 0
M  V30 9979 C 849.845 -7.67148 0.673689 0
M  V30 9980 C 849.115 -7.33374 1.95559 0
M  V30 9981 O 848.905 -5.88721 2.00726 0
M  V30 9982 C 847.715 -7.92526 2.10483 0
M  V30 9983 O 847.325 -8.02971 3.47653 0
M  V30 9984 C 846.835 -6.89602 1.41652 0
M  V30 9985 C 847.545 -5.59201 1.75185 0
M  V30 9986 N 847.495 -4.58235 0.662552 0
M  V30 9987 H 850.334 -8.65116 0.777161 0
M  V30 9988 H 850.606 -6.90173 0.474152 0
M  V30 9989 H 849.738 -7.66548 2.79458 0
M  V30 9990 P 845.775 -8.03563 3.84925 0
M  V30 9991 O 845.555 -8.85821 5.0569 0
M  V30 9992 O 844.985 -8.41101 2.65469 0
M  V30 9993 O 845.525 -6.4965 4.18908 0
M  V30 9994 C 846.465 -5.80886 5.05289 0
M  V30 9995 C 845.735 -4.78366 5.89277 0
M  V30 9996 O 845.525 -3.58302 5.08433 0
M  V30 9997 C 844.335 -5.16748 6.36559 0
M  V30 9998 O 843.945 -4.45271 7.53232 0
M  V30 9999 C 843.455 -4.74572 5.19863 0
M  V30 10000 C 844.165 -3.49373 4.70338 0
M  V30 10001 N 844.115 -3.31704 3.22876 0
M  V30 10002 C 843.965 -2.03326 2.74871 0
M  V30 10003 O 843.875 -1.06486 3.48076 0
M  V30 10004 N 843.925 -1.91838 1.37456 0
M  V30 10005 C 844.015 -2.94295 0.462035 0
M  V30 10006 O 843.965 -2.71763 -0.752928 0
M  V30 10007 C 844.165 -4.25064 1.05249 0
M  V30 10008 C 844.275 -5.39815 0.095697 0
M  V30 10009 C 844.215 -4.40214 2.39192 0
M  V30 10010 H 846.956 -6.54063 5.71245 0
M  V30 10011 H 847.225 -5.30339 4.43905 0
M  V30 10012 H 846.358 -4.55889 6.76652 0
M  V30 10013 H 843.703 -2.6167 5.17842 0
M  V30 10014 H 843.424 -5.52155 4.41878 0
M  V30 10015 H 842.432 -4.51918 5.53297 0
M  V30 10016 H 844.266 -6.25055 6.55162 0
M  V30 10017 H 844.337 -5.39798 2.81523 0
M  V30 10018 H 843.307 -5.91593 0.0279582 0
M  V30 10019 H 845.044 -6.10038 0.450573 0
M  V30 10020 H 844.556 -5.02007 -0.89937 0
M  V30 10021 H 843.82 -0.995326 1.00435 0
M  V30 10022 P 842.395 -4.23843 7.83734 0
M  V30 10023 O 842.175 -4.19407 9.29784 0
M  V30 10024 O 841.605 -5.24426 7.09156 0
M  V30 10025 O 842.145 -2.7935 7.20758 0
M  V30 10026 C 843.085 -1.72945 7.50224 0
M  V30 10027 C 842.355 -0.406376 7.57911 0
M  V30 10028 O 842.145 0.0897726 6.21935 0
M  V30 10029 C 840.955 -0.438983 8.18724 0
M  V30 10030 O 840.565 0.825065 8.71101 0
M  V30 10031 C 840.075 -0.783689 6.99524 0
M  V30 10032 C 840.785 -0.0619086 5.85867 0
M  V30 10033 N 840.735 -0.78573 4.56183 0
M  V30 10034 C 840.585 -0.0292889 3.41887 0
M  V30 10035 O 840.495 1.18445 3.4419 0
M  V30 10036 N 840.545 -0.744061 2.23964 0
M  V30 10037 C 840.635 -2.10932 2.10362 0
M  V30 10038 O 840.585 -2.64117 0.98825 0
M  V30 10039 C 840.785 -2.8202 3.34994 0
M  V30 10040 C 840.895 -4.31095 3.25037 0
M  V30 10041 C 840.835 -2.15547 4.52261 0
M  V30 10042 H 843.576 -1.93379 8.46595 0
M  V30 10043 H 843.845 -1.68132 6.70852 0
M  V30 10044 H 842.978 0.289041 8.15388 0
M  V30 10045 H 840.323 0.926847 5.72749 0
M  V30 10046 H 840.044 -1.86973 6.82036 0
M  V30 10047 H 839.052 -0.403896 7.13257 0
M  V30 10048 H 840.886 -1.20585 8.97435 0
M  V30 10049 H 840.957 -2.71231 5.45042 0
M  V30 10050 H 839.927 -4.76966 3.49992 0
M  V30 10051 H 841.664 -4.67047 3.95024 0
M  V30 10052 H 841.176 -4.58996 2.22312 0
M  V30 10053 H 840.44 -0.214893 1.39758 0
M  V30 10054 P 839.015 1.17771 8.83182 0
M  V30 10055 O 838.795 2.07206 9.98732 0
M  V30 10056 O 838.225 -0.0743816 8.81969 0
M  V30 10057 O 838.765 1.97652 7.47304 0
M  V30 10058 C 839.705 3.01133 7.08783 0
M  V30 10059 C 838.975 4.12613 6.37049 0
M  V30 10060 O 838.765 3.72827 4.97879 0
M  V30 10061 C 837.575 4.45085 6.88694 0
M  V30 10062 O 837.185 5.7877 6.5624 0
M  V30 10063 C 836.695 3.47817 6.12078 0
M  V30 10064 C 837.405 3.39414 4.77697 0
M  V30 10065 N 837.355 2.04615 4.15333 0
M  V30 10066 H 840.194 3.41248 7.98759 0
M  V30 10067 H 840.466 2.5837 6.41742 0
M  V30 10068 H 839.598 5.02657 6.42673 0
M  V30 10069 P 835.635 6.144 6.45285 0
M  V30 10070 O 835.415 7.54673 6.86199 0
M  V30 10071 O 834.845 5.12391 7.179 0
M  V30 10072 O 835.385 5.99158 4.88404 0
M  V30 10073 C 836.325 6.60062 3.96313 0
M  V30 10074 C 835.595 7.08259 2.72856 0
M  V30 10075 O 835.385 5.9427 1.83651 0
M  V30 10076 C 834.195 7.65087 2.94749 0
M  V30 10077 O 833.805 8.53963 1.90717 0
M  V30 10078 C 833.315 6.41069 2.90698 0
M  V30 10079 C 834.025 5.5528 1.86931 0
M  V30 10080 N 833.975 4.09575 2.15696 0
M  V30 10081 C 833.825 3.24249 1.08435 0
M  V30 10082 O 833.735 3.63946 -0.0628747 0
M  V30 10083 N 833.785 1.90009 1.39973 0
M  V30 10084 C 833.875 1.34884 2.65614 0
M  V30 10085 O 833.825 0.123716 2.81728 0
M  V30 10086 C 834.025 2.3145 3.71736 0
M  V30 10087 C 834.135 1.75913 5.10438 0
M  V30 10088 C 834.075 3.63518 3.44754 0
M  V30 10089 H 836.816 7.45402 4.45526 0
M  V30 10090 H 837.085 5.86062 3.67208 0
M  V30 10091 H 836.218 7.84412 2.24479 0
M  V30 10092 H 833.563 5.73358 0.888409 0
M  V30 10093 H 833.284 5.90877 3.88583 0
M  V30 10094 H 832.292 6.65867 2.58821 0
M  V30 10095 H 834.126 8.16248 3.92006 0
M  V30 10096 H 834.197 4.34551 4.26383 0
M  V30 10097 H 833.167 1.85471 5.61775 0
M  V30 10098 H 834.904 2.31364 5.66257 0
M  V30 10099 H 834.416 0.695936 5.05229 0
M  V30 10100 H 833.68 1.26277 0.63625 0
M  V30 10101 P 832.255 8.7635 1.60911 0
M  V30 10102 O 832.035 10.1388 1.11561 0
M  V30 10103 O 831.465 8.36503 2.79617 0
M  V30 10104 O 832.005 7.71806 0.42951 0
M  V30 10105 C 832.945 7.67148 -0.673689 0
M  V30 10106 C 832.215 7.33374 -1.95559 0
M  V30 10107 O 832.005 5.88721 -2.00726 0
M  V30 10108 C 830.815 7.92526 -2.10483 0
M  V30 10109 O 830.425 8.02971 -3.47653 0
M  V30 10110 C 829.935 6.89602 -1.41652 0
M  V30 10111 C 830.645 5.59201 -1.75185 0
M  V30 10112 N 830.595 4.58301 -0.657969 0
M  V30 10113 H 833.434 8.65116 -0.777161 0
M  V30 10114 H 833.706 6.9022 -0.46725 0
M  V30 10115 H 832.838 7.66548 -2.79458 0
M  V30 10116 H 830.183 5.16165 -2.65183 0
M  V30 10117 H 829.903 7.06433 -0.329384 0
M  V30 10118 H 828.912 6.90926 -1.82021 0
M  V30 10119 H 830.746 8.90873 -1.62657 0
M  V30 10120 P 828.875 8.03563 -3.84925 0
M  V30 10121 O 828.655 8.85821 -5.0569 0
M  V30 10122 O 828.085 8.41101 -2.65469 0
M  V30 10123 O 828.625 6.4965 -4.18908 0
M  V30 10124 C 829.565 5.81037 -5.05421 0
M  V30 10125 C 828.835 4.78366 -5.89277 0
M  V30 10126 O 828.625 3.58302 -5.08433 0
M  V30 10127 C 827.435 5.17448 -6.36119 0
M  V30 10128 O 827.045 4.45271 -7.53232 0
M  V30 10129 C 826.555 4.74639 -5.19936 0
M  V30 10130 C 827.265 3.49432 -4.70418 0
M  V30 10131 N 827.215 3.31776 -3.22945 0
M  V30 10132 H 830.054 6.54213 -5.71376 0
M  V30 10133 H 830.326 5.30492 -4.44033 0
M  V30 10134 H 829.458 4.55889 -6.76652 0
M  V30 10135 P 825.495 4.23843 -7.83734 0
M  V30 10136 O 825.275 4.19407 -9.29784 0
M  V30 10137 O 824.705 5.24426 -7.09156 0
M  V30 10138 O 825.245 2.7935 -7.20758 0
M  V30 10139 C 826.185 1.7299 -7.50419 0
M  V30 10140 C 825.455 0.406376 -7.57911 0
M  V30 10141 O 825.245 -0.0897726 -6.21935 0
M  V30 10142 C 824.055 0.447224 -8.1878 0
M  V30 10143 O 823.665 -0.825065 -8.71101 0
M  V30 10144 C 823.175 0.783801 -6.99623 0
M  V30 10145 C 823.885 0.0619192 -5.85967 0
M  V30 10146 N 823.835 0.7859 -4.56281 0
M  V30 10147 H 826.674 1.93423 -8.4679 0
M  V30 10148 H 826.946 1.68181 -6.71046 0
M  V30 10149 H 826.078 -0.289041 -8.15388 0
M  V30 10150 P 822.115 -1.17771 -8.83182 0
M  V30 10151 O 821.895 -2.07206 -9.98732 0
M  V30 10152 O 821.325 0.0743816 -8.81969 0
M  V30 10153 O 821.865 -1.97652 -7.47304 0
M  V30 10154 C 822.805 -3.01133 -7.08783 0
M  V30 10155 C 822.075 -4.12613 -6.37049 0
M  V30 10156 O 821.865 -3.72827 -4.97879 0
M  V30 10157 C 820.675 -4.45085 -6.88694 0
M  V30 10158 O 820.285 -5.7877 -6.5624 0
M  V30 10159 C 819.795 -3.47817 -6.12078 0
M  V30 10160 C 820.505 -3.39414 -4.77697 0
M  V30 10161 N 820.455 -2.04199 -4.15538 0
M  V30 10162 C 820.535 -0.821545 -4.76977 0
M  V30 10163 N 820.465 0.1794 -3.94592 0
M  V30 10164 C 820.315 -0.419121 -2.70776 0
M  V30 10165 C 820.185 0.109072 -1.40577 0
M  V30 10166 N 820.175 1.4104 -1.1344 0
M  V30 10167 N 820.065 -0.764381 -0.39411 0
M  V30 10168 C 820.075 -2.06587 -0.664135 0
M  V30 10169 N 820.195 -2.67948 -1.82153 0
M  V30 10170 C 820.315 -1.77942 -2.8147 0
M  V30 10171 H 823.294 -3.41248 -7.98759 0
M  V30 10172 H 823.566 -2.57728 -6.42 0
M  V30 10173 H 822.698 -5.02657 -6.42673 0
M  V30 10174 H 820.043 -4.11708 -4.08956 0
M  V30 10175 H 819.763 -2.49626 -6.61679 0
M  V30 10176 H 818.772 -3.8662 -6.00862 0
M  V30 10177 H 820.606 -4.29991 -7.97006 0
M  V30 10178 H 820.647 -0.702451 -5.84696 0
M  V30 10179 H 820.266 2.09647 -1.89651 0
M  V30 10180 H 820.077 1.73358 -0.160575 0
M  V30 10181 H 819.969 -2.71695 0.195838 0
M  V30 10182 P 818.735 -6.144 -6.45285 0
M  V30 10183 O 818.515 -7.54673 -6.86199 0
M  V30 10184 O 817.945 -5.12391 -7.179 0
M  V30 10185 O 818.485 -5.99158 -4.88404 0
M  V30 10186 C 819.425 -6.60234 -3.96415 0
M  V30 10187 C 818.695 -7.08259 -2.72856 0
M  V30 10188 O 818.485 -5.9427 -1.83651 0
M  V30 10189 C 817.295 -7.64886 -2.9555 0
M  V30 10190 O 816.905 -8.53963 -1.90717 0
M  V30 10191 C 816.415 -6.4116 -2.90739 0
M  V30 10192 C 817.125 -5.55375 -1.86963 0
M  V30 10193 N 817.075 -4.09664 -2.15742 0
M  V30 10194 H 819.914 -7.45574 -4.45629 0
M  V30 10195 H 820.186 -5.86232 -3.67314 0
M  V30 10196 H 819.318 -7.84412 -2.24479 0
M  V30 10197 P 815.355 -8.7635 -1.60911 0
M  V30 10198 O 815.135 -10.1388 -1.11561 0
M  V30 10199 O 814.565 -8.36503 -2.79617 0
M  V30 10200 O 815.105 -7.71806 -0.42951 0
M  V30 10201 C 816.045 -7.67148 0.673689 0
M  V30 10202 C 815.315 -7.33374 1.95559 0
M  V30 10203 O 815.105 -5.88721 2.00726 0
M  V30 10204 C 813.915 -7.92526 2.10483 0
M  V30 10205 O 813.525 -8.02971 3.47653 0
M  V30 10206 C 813.035 -6.89602 1.41652 0
M  V30 10207 C 813.745 -5.59201 1.75185 0
M  V30 10208 N 813.695 -4.58235 0.662552 0
M  V30 10209 H 816.534 -8.65116 0.777161 0
M  V30 10210 H 816.806 -6.90173 0.474152 0
M  V30 10211 H 815.938 -7.66548 2.79458 0
M  V30 10212 P 811.975 -8.03563 3.84925 0
M  V30 10213 O 811.755 -8.85821 5.0569 0
M  V30 10214 O 811.185 -8.41101 2.65469 0
M  V30 10215 O 811.725 -6.4965 4.18908 0
M  V30 10216 C 812.665 -5.81037 5.05421 0
M  V30 10217 C 811.935 -4.78366 5.89277 0
M  V30 10218 O 811.725 -3.58302 5.08433 0
M  V30 10219 C 810.535 -5.17448 6.36119 0
M  V30 10220 O 810.145 -4.45271 7.53232 0
M  V30 10221 C 809.655 -4.74639 5.19936 0
M  V30 10222 C 810.365 -3.49432 4.70418 0
M  V30 10223 N 810.315 -3.31776 3.22945 0
M  V30 10224 H 813.154 -6.54213 5.71376 0
M  V30 10225 H 813.426 -5.30492 4.44033 0
M  V30 10226 H 812.558 -4.55889 6.76652 0
M  V30 10227 P 808.595 -4.23843 7.83734 0
M  V30 10228 O 808.375 -4.19407 9.29784 0
M  V30 10229 O 807.805 -5.24426 7.09156 0
M  V30 10230 O 808.345 -2.7935 7.20758 0
M  V30 10231 C 809.285 -1.7299 7.50419 0
M  V30 10232 C 808.555 -0.406376 7.57911 0
M  V30 10233 O 808.345 0.0897726 6.21935 0
M  V30 10234 C 807.155 -0.447224 8.1878 0
M  V30 10235 O 806.765 0.825065 8.71101 0
M  V30 10236 C 806.275 -0.783801 6.99623 0
M  V30 10237 C 806.985 -0.0619192 5.85967 0
M  V30 10238 N 806.935 -0.7859 4.56281 0
M  V30 10239 H 809.774 -1.93423 8.4679 0
M  V30 10240 H 810.046 -1.68181 6.71046 0
M  V30 10241 H 809.178 0.289041 8.15388 0
M  V30 10242 P 805.215 1.17771 8.83182 0
M  V30 10243 O 804.995 2.07206 9.98732 0
M  V30 10244 O 804.425 -0.0743816 8.81969 0
M  V30 10245 O 804.965 1.97652 7.47304 0
M  V30 10246 C 805.905 3.01133 7.08783 0
M  V30 10247 C 805.175 4.12613 6.37049 0
M  V30 10248 O 804.965 3.72827 4.97879 0
M  V30 10249 C 803.775 4.45085 6.88694 0
M  V30 10250 O 803.385 5.7877 6.5624 0
M  V30 10251 C 802.895 3.47817 6.12078 0
M  V30 10252 C 803.605 3.39414 4.77697 0
M  V30 10253 N 803.555 2.04199 4.15538 0
M  V30 10254 H 806.394 3.41248 7.98759 0
M  V30 10255 H 806.666 2.57728 6.42 0
M  V30 10256 H 805.798 5.02657 6.42673 0
M  V30 10257 H 803.143 4.11708 4.08956 0
M  V30 10258 H 802.863 2.49626 6.61679 0
M  V30 10259 H 801.872 3.8662 6.00862 0
M  V30 10260 H 803.706 4.29991 7.97006 0
M  V30 10261 P 801.835 6.144 6.45285 0
M  V30 10262 O 801.615 7.54673 6.86199 0
M  V30 10263 O 801.045 5.12391 7.179 0
M  V30 10264 O 801.585 5.99158 4.88404 0
M  V30 10265 C 802.525 6.60062 3.96313 0
M  V30 10266 C 801.795 7.08259 2.72856 0
M  V30 10267 O 801.585 5.9427 1.83651 0
M  V30 10268 C 800.395 7.65087 2.94749 0
M  V30 10269 O 800.005 8.53963 1.90717 0
M  V30 10270 C 799.515 6.41069 2.90698 0
M  V30 10271 C 800.225 5.5528 1.86931 0
M  V30 10272 N 800.175 4.09575 2.15696 0
M  V30 10273 C 800.025 3.24249 1.08435 0
M  V30 10274 O 799.935 3.63946 -0.0628747 0
M  V30 10275 N 799.985 1.90009 1.39973 0
M  V30 10276 C 800.075 1.34884 2.65614 0
M  V30 10277 O 800.025 0.123716 2.81728 0
M  V30 10278 C 800.225 2.3145 3.71736 0
M  V30 10279 C 800.335 1.75913 5.10438 0
M  V30 10280 C 800.275 3.63518 3.44754 0
M  V30 10281 H 803.016 7.45402 4.45526 0
M  V30 10282 H 803.285 5.86062 3.67208 0
M  V30 10283 H 802.418 7.84412 2.24479 0
M  V30 10284 H 799.763 5.73358 0.888409 0
M  V30 10285 H 799.484 5.90877 3.88583 0
M  V30 10286 H 798.492 6.65867 2.58821 0
M  V30 10287 H 800.326 8.16248 3.92006 0
M  V30 10288 H 800.397 4.34551 4.26383 0
M  V30 10289 H 799.367 1.85471 5.61775 0
M  V30 10290 H 801.104 2.31364 5.66257 0
M  V30 10291 H 800.616 0.695936 5.05229 0
M  V30 10292 H 799.88 1.26277 0.63625 0
M  V30 10293 P 798.455 8.7635 1.60911 0
M  V30 10294 O 798.235 10.1388 1.11561 0
M  V30 10295 O 797.665 8.36503 2.79617 0
M  V30 10296 O 798.205 7.71806 0.42951 0
M  V30 10297 C 799.145 7.67148 -0.673689 0
M  V30 10298 C 798.415 7.33374 -1.95559 0
M  V30 10299 O 798.205 5.88721 -2.00726 0
M  V30 10300 C 797.015 7.92526 -2.10483 0
M  V30 10301 O 796.625 8.02971 -3.47653 0
M  V30 10302 C 796.135 6.89602 -1.41652 0
M  V30 10303 C 796.845 5.59201 -1.75185 0
M  V30 10304 N 796.795 4.58235 -0.662552 0
M  V30 10305 H 799.634 8.65116 -0.777161 0
M  V30 10306 H 799.906 6.90173 -0.474152 0
M  V30 10307 H 799.038 7.66548 -2.79458 0
M  V30 10308 P 795.075 8.03563 -3.84925 0
M  V30 10309 O 794.855 8.85821 -5.0569 0
M  V30 10310 O 794.285 8.41101 -2.65469 0
M  V30 10311 O 794.825 6.49734 -4.18962 0
M  V30 10312 C 795.765 5.81037 -5.05421 0
M  V30 10313 C 795.035 4.79018 -5.88876 0
M  V30 10314 O 794.825 3.58359 -5.08515 0
M  V30 10315 C 793.635 5.17448 -6.36119 0
M  V30 10316 O 793.245 4.45322 -7.53318 0
M  V30 10317 C 792.755 4.74639 -5.19936 0
M  V30 10318 C 793.465 3.49432 -4.70418 0
M  V30 10319 N 793.415 3.31776 -3.22945 0
M  V30 10320 C 793.265 2.02742 -2.72939 0
M  V30 10321 O 793.175 1.08301 -3.52749 0
M  V30 10322 N 793.215 1.96117 -1.22063 0
M  V30 10323 C 793.315 2.8878 -0.551566 0
M  V30 10324 N 793.265 2.65609 0.750198 0
M  V30 10325 C 793.465 4.22457 -1.03707 0
M  V30 10326 C 793.515 4.37979 -2.39113 0
M  V30 10327 H 796.255 6.54138 -5.7131 0
M  V30 10328 H 796.525 5.30492 -4.44033 0
M  V30 10329 H 795.658 4.55945 -6.76735 0
M  V30 10330 H 793.003 2.6176 -5.18021 0
M  V30 10331 H 792.723 5.52233 -4.41941 0
M  V30 10332 H 791.732 4.52045 -5.53452 0
M  V30 10333 H 793.566 6.25124 -6.55234 0
M  V30 10334 H 793.638 5.37936 -2.80552 0
M  V30 10335 H 793.536 5.07528 -0.359553 0
M  V30 10336 H 793.148 1.69403 1.09847 0
M  V30 10337 H 793.344 3.43701 1.41792 0
M  V30 10338 P 791.695 4.23843 -7.83734 0
M  V30 10339 O 791.475 4.19407 -9.29784 0
M  V30 10340 O 790.905 5.24426 -7.09156 0
M  V30 10341 O 791.445 2.7935 -7.20758 0
M  V30 10342 C 792.385 1.7299 -7.50419 0
M  V30 10343 C 791.655 0.406376 -7.57911 0
M  V30 10344 O 791.445 -0.0897726 -6.21935 0
M  V30 10345 C 790.255 0.447224 -8.1878 0
M  V30 10346 O 789.865 -0.825065 -8.71101 0
M  V30 10347 C 789.375 0.783801 -6.99623 0
M  V30 10348 C 790.085 0.0619192 -5.85967 0
M  V30 10349 N 790.035 0.790462 -4.56202 0
M  V30 10350 C 790.115 2.13895 -4.34171 0
M  V30 10351 N 790.045 2.46449 -3.08687 0
M  V30 10352 C 789.895 1.2525 -2.43697 0
M  V30 10353 C 789.765 0.914535 -1.07318 0
M  V30 10354 N 789.755 1.80782 -0.0887348 0
M  V30 10355 N 789.645 -0.386745 -0.768133 0
M  V30 10356 C 789.655 -1.28096 -1.75159 0
M  V30 10357 N 789.775 -1.09708 -3.04861 0
M  V30 10358 C 789.895 0.214857 -3.32306 0
M  V30 10359 H 792.874 1.93423 -8.4679 0
M  V30 10360 H 793.146 1.68852 -6.70877 0
M  V30 10361 H 792.278 -0.289041 -8.15388 0
M  V30 10362 H 789.623 -0.927006 -5.72848 0
M  V30 10363 H 789.343 1.86973 -6.82036 0
M  V30 10364 H 788.352 0.403953 -7.13357 0
M  V30 10365 H 790.186 1.20599 -8.97534 0
M  V30 10366 H 790.227 2.86846 -5.14318 0
M  V30 10367 H 789.846 2.81082 -0.302037 0
M  V30 10368 H 789.657 1.49688 0.889064 0
M  V30 10369 H 789.549 -2.31317 -1.43855 0
M  V30 10370 P 788.315 -1.17771 -8.83182 0
M  V30 10371 O 788.095 -2.07206 -9.98732 0
M  V30 10372 O 787.525 0.0743816 -8.81969 0
M  V30 10373 O 788.065 -1.97652 -7.47304 0
M  V30 10374 C 789.005 -3.01055 -7.08599 0
M  V30 10375 C 788.275 -4.12613 -6.37049 0
M  V30 10376 O 788.065 -3.72827 -4.97879 0
M  V30 10377 C 786.875 -4.45719 -6.88164 0
M  V30 10378 O 786.485 -5.7877 -6.5624 0
M  V30 10379 C 785.995 -3.47768 -6.11991 0
M  V30 10380 C 786.705 -3.39356 -4.77615 0
M  V30 10381 N 786.655 -2.04571 -4.15244 0
M  V30 10382 C 786.505 -1.98587 -2.78314 0
M  V30 10383 O 786.415 -2.98134 -2.08835 0
M  V30 10384 N 786.465 -0.714467 -2.24925 0
M  V30 10385 C 786.555 0.470001 -2.94169 0
M  V30 10386 O 786.505 1.55587 -2.35195 0
M  V30 10387 C 786.705 0.312541 -4.36783 0
M  V30 10388 C 786.815 1.57711 -5.16352 0
M  V30 10389 C 786.755 -0.914512 -4.92583 0
M  V30 10390 H 789.496 -3.41169 -7.98575 0
M  V30 10391 H 789.765 -2.58295 -6.41556 0
M  V30 10392 H 788.898 -5.02657 -6.42673 0
M  V30 10393 H 786.243 -4.11637 -4.08885 0
M  V30 10394 H 785.964 -2.49626 -6.61679 0
M  V30 10395 H 784.972 -3.86566 -6.00778 0
M  V30 10396 H 786.806 -4.29943 -7.96918 0
M  V30 10397 H 786.877 -1.00937 -6.00374 0
M  V30 10398 H 785.847 1.80153 -5.63503 0
M  V30 10399 H 787.584 1.4566 -5.94104 0
M  V30 10400 H 787.096 2.40664 -4.49645 0
M  V30 10401 H 786.36 -0.647622 -1.25697 0
M  V30 10402 P 784.935 -6.144 -6.45285 0
M  V30 10403 O 784.715 -7.54673 -6.86199 0
M  V30 10404 O 784.145 -5.12391 -7.179 0
M  V30 10405 O 784.685 -5.99158 -4.88404 0
M  V30 10406 C 785.625 -6.60062 -3.96313 0
M  V30 10407 C 784.895 -7.08259 -2.72856 0
M  V30 10408 O 784.685 -5.9427 -1.83651 0
M  V30 10409 C 783.495 -7.65087 -2.94749 0
M  V30 10410 O 783.105 -8.53963 -1.90717 0
M  V30 10411 C 782.615 -6.41069 -2.90698 0
M  V30 10412 C 783.325 -5.5528 -1.86931 0
M  V30 10413 N 783.275 -4.09575 -2.15696 0
M  V30 10414 C 783.125 -3.24249 -1.08435 0
M  V30 10415 O 783.035 -3.63946 0.0628747 0
M  V30 10416 N 783.085 -1.90009 -1.39973 0
M  V30 10417 C 783.175 -1.34884 -2.65614 0
M  V30 10418 C 783.325 -2.3145 -3.71736 0
M  V30 10419 C 783.375 -3.63518 -3.44754 0
M  V30 10420 H 786.116 -7.45402 -4.45526 0
M  V30 10421 H 786.385 -5.86062 -3.67208 0
M  V30 10422 H 785.518 -7.84412 -2.24479 0
M  V30 10423 H 782.863 -5.73358 -0.888409 0
M  V30 10424 H 782.584 -5.90877 -3.88583 0
M  V30 10425 H 781.592 -6.65867 -2.58821 0
M  V30 10426 H 783.426 -8.16248 -3.92006 0
M  V30 10427 H 783.497 -4.34551 -4.26383 0
M  V30 10428 P 781.555 -8.7635 -1.60911 0
M  V30 10429 O 781.335 -10.1388 -1.11561 0
M  V30 10430 O 780.765 -8.36503 -2.79617 0
M  V30 10431 O 781.305 -7.71906 -0.429565 0
M  V30 10432 C 782.245 -7.67148 0.673689 0
M  V30 10433 C 781.515 -7.33666 1.94851 0
M  V30 10434 O 781.305 -5.88816 2.00759 0
M  V30 10435 C 780.115 -7.92526 2.10483 0
M  V30 10436 O 779.725 -8.03063 3.47693 0
M  V30 10437 C 779.235 -6.89602 1.41652 0
M  V30 10438 C 779.945 -5.59201 1.75185 0
M  V30 10439 N 779.895 -4.58235 0.662552 0
M  V30 10440 C 779.745 -3.24451 1.01643 0
M  V30 10441 O 779.655 -2.94958 2.21722 0
M  V30 10442 N 779.695 -2.30408 -0.165238 0
M  V30 10443 C 779.795 -2.66048 -1.25118 0
M  V30 10444 N 779.745 -1.70787 -2.16813 0
M  V30 10445 C 779.945 -4.02732 -1.64413 0
M  V30 10446 C 779.995 -4.9488 -0.63991 0
M  V30 10447 H 782.735 -8.65017 0.777072 0
M  V30 10448 H 783.005 -6.90173 0.474152 0
M  V30 10449 H 782.138 -7.66642 2.79492 0
M  V30 10450 H 779.483 -5.16254 2.65229 0
M  V30 10451 H 779.203 -7.06532 0.329431 0
M  V30 10452 H 778.212 -6.91023 1.82047 0
M  V30 10453 H 780.046 -8.90873 1.62657 0
M  V30 10454 H 780.118 -6.00104 -0.892197 0
M  V30 10455 H 780.016 -4.31733 -2.69229 0
M  V30 10456 H 779.628 -0.724835 -1.8844 0
M  V30 10457 H 779.824 -1.94716 -3.16734 0
M  V30 10458 P 778.175 -8.03563 3.84925 0
M  V30 10459 O 777.955 -8.85821 5.0569 0
M  V30 10460 O 777.385 -8.41101 2.65469 0
M  V30 10461 O 777.925 -6.4965 4.18908 0
M  V30 10462 C 778.865 -5.81037 5.05421 0
M  V30 10463 C 778.135 -4.78366 5.89277 0
M  V30 10464 O 777.925 -3.58302 5.08433 0
M  V30 10465 C 776.735 -5.17448 6.36119 0
M  V30 10466 O 776.345 -4.45271 7.53232 0
M  V30 10467 C 775.855 -4.74639 5.19936 0
M  V30 10468 C 776.565 -3.49432 4.70418 0
M  V30 10469 N 776.515 -3.32099 3.22613 0
M  V30 10470 H 779.354 -6.54213 5.71376 0
M  V30 10471 H 779.626 -5.30936 4.43503 0
M  V30 10472 H 778.758 -4.55889 6.76652 0
M  V30 10473 H 776.103 -2.61715 5.17932 0
M  V30 10474 H 775.823 -5.52155 4.41878 0
M  V30 10475 H 774.832 -4.51981 5.53374 0
M  V30 10476 H 776.666 -6.25124 6.55234 0
M  V30 10477 P 774.795 -4.23843 7.83734 0
M  V30 10478 O 774.575 -4.19407 9.29784 0
M  V30 10479 O 774.005 -5.24426 7.09156 0
M  V30 10480 O 774.545 -2.7935 7.20758 0
M  V30 10481 C 775.485 -1.72945 7.50224 0
M  V30 10482 C 774.755 -0.406376 7.57911 0
M  V30 10483 O 774.545 0.0897726 6.21935 0
M  V30 10484 C 773.355 -0.438983 8.18724 0
M  V30 10485 O 772.965 0.825065 8.71101 0
M  V30 10486 C 772.475 -0.783689 6.99524 0
M  V30 10487 C 773.185 -0.0619086 5.85867 0
M  V30 10488 N 773.135 -0.78573 4.56183 0
M  V30 10489 C 772.985 -0.0292889 3.41887 0
M  V30 10490 O 772.895 1.18445 3.4419 0
M  V30 10491 N 772.945 -0.744061 2.23964 0
M  V30 10492 C 773.035 -2.10932 2.10362 0
M  V30 10493 O 772.985 -2.64117 0.98825 0
M  V30 10494 C 773.185 -2.8202 3.34994 0
M  V30 10495 C 773.295 -4.31095 3.25037 0
M  V30 10496 C 773.235 -2.15547 4.52261 0
M  V30 10497 H 775.976 -1.93379 8.46595 0
M  V30 10498 H 776.245 -1.68132 6.70852 0
M  V30 10499 H 775.378 0.289041 8.15388 0
M  V30 10500 H 772.723 0.926847 5.72749 0
M  V30 10501 H 772.444 -1.86973 6.82036 0
M  V30 10502 H 771.452 -0.403896 7.13257 0
M  V30 10503 H 773.286 -1.20585 8.97435 0
M  V30 10504 H 773.357 -2.71231 5.45042 0
M  V30 10505 H 772.327 -4.76966 3.49992 0
M  V30 10506 H 774.064 -4.67047 3.95024 0
M  V30 10507 H 773.576 -4.58996 2.22312 0
M  V30 10508 H 772.84 -0.214893 1.39758 0
M  V30 10509 P 771.415 1.17771 8.83182 0
M  V30 10510 O 771.195 2.07206 9.98732 0
M  V30 10511 O 770.625 -0.0743816 8.81969 0
M  V30 10512 O 771.165 1.97678 7.474 0
M  V30 10513 C 772.105 3.01133 7.08783 0
M  V30 10514 C 771.375 4.1203 6.37546 0
M  V30 10515 O 771.165 3.72887 4.9796 0
M  V30 10516 C 769.975 4.45085 6.88694 0
M  V30 10517 O 769.585 5.78836 6.56315 0
M  V30 10518 C 769.095 3.47817 6.12078 0
M  V30 10519 C 769.805 3.39414 4.77697 0
M  V30 10520 N 769.755 2.04615 4.15333 0
M  V30 10521 C 769.605 1.96929 2.77162 0
M  V30 10522 O 769.515 3.02017 2.12006 0
M  V30 10523 N 769.555 0.55485 2.24237 0
M  V30 10524 C 769.655 -0.367808 2.9169 0
M  V30 10525 N 769.605 -1.53426 2.29427 0
M  V30 10526 C 769.805 -0.319148 4.33828 0
M  V30 10527 C 769.855 0.920672 4.90433 0
M  V30 10528 H 772.595 3.41209 7.98667 0
M  V30 10529 H 772.865 2.5837 6.41742 0
M  V30 10530 H 771.998 5.02718 6.42752 0
M  V30 10531 H 769.343 4.11779 4.09026 0
M  V30 10532 H 769.063 2.49661 6.61772 0
M  V30 10533 H 768.072 3.86674 6.00946 0
M  V30 10534 H 769.906 4.29991 7.97006 0
M  V30 10535 H 769.978 1.00589 5.98303 0
M  V30 10536 H 769.876 -1.22639 4.93799 0
M  V30 10537 H 769.488 -1.56819 1.27167 0
M  V30 10538 H 769.684 -2.41062 2.83063 0
M  V30 10539 P 768.035 6.144 6.45285 0
M  V30 10540 O 767.815 7.54673 6.86199 0
M  V30 10541 O 767.245 5.12391 7.179 0
M  V30 10542 O 767.785 5.99158 4.88404 0
M  V30 10543 C 768.725 6.60234 3.96415 0
M  V30 10544 C 767.995 7.08259 2.72856 0
M  V30 10545 O 767.785 5.9427 1.83651 0
M  V30 10546 C 766.595 7.64886 2.9555 0
M  V30 10547 O 766.205 8.53963 1.90717 0
M  V30 10548 C 765.715 6.4116 2.90739 0
M  V30 10549 C 766.425 5.55375 1.86963 0
M  V30 10550 N 766.375 4.09664 2.15742 0
M  V30 10551 H 769.214 7.45574 4.45629 0
M  V30 10552 H 769.486 5.86232 3.67314 0
M  V30 10553 H 768.618 7.84412 2.24479 0
M  V30 10554 P 764.656 8.7635 1.60911 0
M  V30 10555 O 764.436 10.1388 1.11561 0
M  V30 10556 O 763.866 8.36503 2.79617 0
M  V30 10557 O 764.406 7.71806 0.42951 0
M  V30 10558 C 765.346 7.67148 -0.673689 0
M  V30 10559 C 764.616 7.33374 -1.95559 0
M  V30 10560 O 764.406 5.88721 -2.00726 0
M  V30 10561 C 763.216 7.92526 -2.10483 0
M  V30 10562 O 762.826 8.02971 -3.47653 0
M  V30 10563 C 762.336 6.89602 -1.41652 0
M  V30 10564 C 763.046 5.59201 -1.75185 0
M  V30 10565 N 762.996 4.58301 -0.657969 0
M  V30 10566 H 765.835 8.65116 -0.777161 0
M  V30 10567 H 766.107 6.9022 -0.46725 0
M  V30 10568 H 765.239 7.66548 -2.79458 0
M  V30 10569 H 762.584 5.16165 -2.65183 0
M  V30 10570 H 762.304 7.06433 -0.329384 0
M  V30 10571 H 761.313 6.90926 -1.82021 0
M  V30 10572 H 763.147 8.90873 -1.62657 0
M  V30 10573 P 761.276 8.03563 -3.84925 0
M  V30 10574 O 761.056 8.85821 -5.0569 0
M  V30 10575 O 760.486 8.41101 -2.65469 0
M  V30 10576 O 761.026 6.4965 -4.18908 0
M  V30 10577 C 761.966 5.81037 -5.05421 0
M  V30 10578 C 761.236 4.78366 -5.89277 0
M  V30 10579 O 761.026 3.58302 -5.08433 0
M  V30 10580 C 759.836 5.17448 -6.36119 0
M  V30 10581 O 759.446 4.45271 -7.53232 0
M  V30 10582 C 758.956 4.74639 -5.19936 0
M  V30 10583 C 759.666 3.49432 -4.70418 0
M  V30 10584 N 759.616 3.31776 -3.22945 0
M  V30 10585 H 762.455 6.54213 -5.71376 0
M  V30 10586 H 762.727 5.30492 -4.44033 0
M  V30 10587 H 761.859 4.55889 -6.76652 0
M  V30 10588 P 757.896 4.23843 -7.83734 0
M  V30 10589 O 757.676 4.19407 -9.29784 0
M  V30 10590 O 757.106 5.24426 -7.09156 0
M  V30 10591 O 757.646 2.7935 -7.20758 0
M  V30 10592 C 758.586 1.7299 -7.50419 0
M  V30 10593 C 757.856 0.406376 -7.57911 0
M  V30 10594 O 757.646 -0.0897726 -6.21935 0
M  V30 10595 C 756.456 0.447224 -8.1878 0
M  V30 10596 O 756.066 -0.825065 -8.71101 0
M  V30 10597 C 755.576 0.783801 -6.99623 0
M  V30 10598 C 756.286 0.0619192 -5.85967 0
M  V30 10599 N 756.236 0.7859 -4.56281 0
M  V30 10600 H 759.075 1.93423 -8.4679 0
M  V30 10601 H 759.347 1.68181 -6.71046 0
M  V30 10602 H 758.479 -0.289041 -8.15388 0
M  V30 10603 P 754.516 -1.17771 -8.83182 0
M  V30 10604 O 754.296 -2.07206 -9.98732 0
M  V30 10605 O 753.726 0.0743816 -8.81969 0
M  V30 10606 O 754.266 -1.97652 -7.47304 0
M  V30 10607 C 755.206 -3.01133 -7.08783 0
M  V30 10608 C 754.476 -4.12613 -6.37049 0
M  V30 10609 O 754.266 -3.72827 -4.97879 0
M  V30 10610 C 753.076 -4.45085 -6.88694 0
M  V30 10611 O 752.686 -5.7877 -6.5624 0
M  V30 10612 C 752.196 -3.47817 -6.12078 0
M  V30 10613 C 752.906 -3.39414 -4.77697 0
M  V30 10614 N 752.856 -2.04615 -4.15333 0
M  V30 10615 H 755.695 -3.41248 -7.98759 0
M  V30 10616 H 755.967 -2.5837 -6.41742 0
M  V30 10617 H 755.099 -5.02657 -6.42673 0
M  V30 10618 P 751.136 -6.144 -6.45285 0
M  V30 10619 O 750.916 -7.54673 -6.86199 0
M  V30 10620 O 750.346 -5.12391 -7.179 0
M  V30 10621 O 750.886 -5.99158 -4.88404 0
M  V30 10622 C 751.826 -6.60062 -3.96313 0
M  V30 10623 C 751.096 -7.08259 -2.72856 0
M  V30 10624 O 750.886 -5.9427 -1.83651 0
M  V30 10625 C 749.696 -7.65087 -2.94749 0
M  V30 10626 O 749.306 -8.53963 -1.90717 0
M  V30 10627 C 748.816 -6.41069 -2.90698 0
M  V30 10628 C 749.526 -5.5528 -1.86931 0
M  V30 10629 N 749.476 -4.09575 -2.15696 0
M  V30 10630 C 749.326 -3.24249 -1.08435 0
M  V30 10631 O 749.236 -3.63946 0.0628747 0
M  V30 10632 N 749.286 -1.90009 -1.39973 0
M  V30 10633 C 749.376 -1.34884 -2.65614 0
M  V30 10634 C 749.526 -2.3145 -3.71736 0
M  V30 10635 C 749.576 -3.63518 -3.44754 0
M  V30 10636 H 752.317 -7.45402 -4.45526 0
M  V30 10637 H 752.586 -5.86062 -3.67208 0
M  V30 10638 H 751.719 -7.84412 -2.24479 0
M  V30 10639 H 749.064 -5.73358 -0.888409 0
M  V30 10640 H 748.785 -5.90877 -3.88583 0
M  V30 10641 H 747.793 -6.65867 -2.58821 0
M  V30 10642 H 749.627 -8.16248 -3.92006 0
M  V30 10643 H 749.698 -4.34551 -4.26383 0
M  V30 10644 P 747.756 -8.7635 -1.60911 0
M  V30 10645 O 747.536 -10.1388 -1.11561 0
M  V30 10646 O 746.966 -8.36503 -2.79617 0
M  V30 10647 O 747.506 -7.71806 -0.42951 0
M  V30 10648 C 748.446 -7.67148 0.673689 0
M  V30 10649 C 747.716 -7.33374 1.95559 0
M  V30 10650 O 747.506 -5.88721 2.00726 0
M  V30 10651 C 746.316 -7.92526 2.10483 0
M  V30 10652 O 745.926 -8.02971 3.47653 0
M  V30 10653 C 745.436 -6.89602 1.41652 0
M  V30 10654 C 746.146 -5.59201 1.75185 0
M  V30 10655 N 746.096 -4.58235 0.662552 0
M  V30 10656 H 748.935 -8.65116 0.777161 0
M  V30 10657 H 749.207 -6.90173 0.474152 0
M  V30 10658 H 748.339 -7.66548 2.79458 0
M  V30 10659 P 744.376 -8.03563 3.84925 0
M  V30 10660 O 744.156 -8.85821 5.0569 0
M  V30 10661 O 743.586 -8.41101 2.65469 0
M  V30 10662 O 744.126 -6.4965 4.18908 0
M  V30 10663 C 745.066 -5.81037 5.05421 0
M  V30 10664 C 744.336 -4.78366 5.89277 0
M  V30 10665 O 744.126 -3.58302 5.08433 0
M  V30 10666 C 742.936 -5.17448 6.36119 0
M  V30 10667 O 742.546 -4.45271 7.53232 0
M  V30 10668 C 742.056 -4.74639 5.19936 0
M  V30 10669 C 742.766 -3.49432 4.70418 0
M  V30 10670 N 742.716 -3.31776 3.22945 0
M  V30 10671 H 745.555 -6.54213 5.71376 0
M  V30 10672 H 745.827 -5.30492 4.44033 0
M  V30 10673 H 744.959 -4.55889 6.76652 0
M  V30 10674 P 740.996 -4.23843 7.83734 0
M  V30 10675 O 740.776 -4.19407 9.29784 0
M  V30 10676 O 740.206 -5.24426 7.09156 0
M  V30 10677 O 740.746 -2.7935 7.20758 0
M  V30 10678 C 741.686 -1.7299 7.50419 0
M  V30 10679 C 740.956 -0.406376 7.57911 0
M  V30 10680 O 740.746 0.0897726 6.21935 0
M  V30 10681 C 739.556 -0.447224 8.1878 0
M  V30 10682 O 739.166 0.825065 8.71101 0
M  V30 10683 C 738.676 -0.783801 6.99623 0
M  V30 10684 C 739.386 -0.0619192 5.85967 0
M  V30 10685 N 739.336 -0.7859 4.56281 0
M  V30 10686 H 742.175 -1.93423 8.4679 0
M  V30 10687 H 742.447 -1.68181 6.71046 0
M  V30 10688 H 741.579 0.289041 8.15388 0
M  V30 10689 P 737.616 1.17771 8.83182 0
M  V30 10690 O 737.396 2.07206 9.98732 0
M  V30 10691 O 736.826 -0.0743816 8.81969 0
M  V30 10692 O 737.366 1.97652 7.47304 0
M  V30 10693 C 738.306 3.01133 7.08783 0
M  V30 10694 C 737.576 4.12613 6.37049 0
M  V30 10695 O 737.366 3.72827 4.97879 0
M  V30 10696 C 736.176 4.45085 6.88694 0
M  V30 10697 O 735.786 5.7877 6.5624 0
M  V30 10698 C 735.296 3.47817 6.12078 0
M  V30 10699 C 736.006 3.39414 4.77697 0
M  V30 10700 N 735.956 2.04615 4.15333 0
M  V30 10701 H 738.795 3.41248 7.98759 0
M  V30 10702 H 739.067 2.5837 6.41742 0
M  V30 10703 H 738.199 5.02657 6.42673 0
M  V30 10704 P 734.236 6.144 6.45285 0
M  V30 10705 O 734.016 7.54673 6.86199 0
M  V30 10706 O 733.446 5.12391 7.179 0
M  V30 10707 O 733.986 5.99158 4.88404 0
M  V30 10708 C 734.926 6.60234 3.96415 0
M  V30 10709 C 734.196 7.08259 2.72856 0
M  V30 10710 O 733.986 5.9427 1.83651 0
M  V30 10711 C 732.796 7.64886 2.9555 0
M  V30 10712 O 732.406 8.53963 1.90717 0
M  V30 10713 C 731.916 6.4116 2.90739 0
M  V30 10714 C 732.626 5.55375 1.86963 0
M  V30 10715 N 732.576 4.09664 2.15742 0
M  V30 10716 H 735.415 7.45574 4.45629 0
M  V30 10717 H 735.687 5.86232 3.67314 0
M  V30 10718 H 734.819 7.84412 2.24479 0
M  V30 10719 P 730.856 8.7635 1.60911 0
M  V30 10720 O 730.636 10.1388 1.11561 0
M  V30 10721 O 730.066 8.36503 2.79617 0
M  V30 10722 O 730.606 7.71806 0.42951 0
M  V30 10723 C 731.546 7.67148 -0.673689 0
M  V30 10724 C 730.816 7.33374 -1.95559 0
M  V30 10725 O 730.606 5.88721 -2.00726 0
M  V30 10726 C 729.416 7.92526 -2.10483 0
M  V30 10727 O 729.026 8.02971 -3.47653 0
M  V30 10728 C 728.536 6.89602 -1.41652 0
M  V30 10729 C 729.246 5.59201 -1.75185 0
M  V30 10730 N 729.196 4.58301 -0.657969 0
M  V30 10731 H 732.035 8.65116 -0.777161 0
M  V30 10732 H 732.307 6.9022 -0.46725 0
M  V30 10733 H 731.439 7.66548 -2.79458 0
M  V30 10734 H 728.784 5.16165 -2.65183 0
M  V30 10735 H 728.504 7.06433 -0.329384 0
M  V30 10736 H 727.513 6.90926 -1.82021 0
M  V30 10737 H 729.347 8.90873 -1.62657 0
M  V30 10738 P 727.476 8.03563 -3.84925 0
M  V30 10739 O 727.256 8.85821 -5.0569 0
M  V30 10740 O 726.686 8.41101 -2.65469 0
M  V30 10741 O 727.226 6.4965 -4.18908 0
M  V30 10742 C 728.166 5.81037 -5.05421 0
M  V30 10743 C 727.436 4.78366 -5.89277 0
M  V30 10744 O 727.226 3.58302 -5.08433 0
M  V30 10745 C 726.036 5.17448 -6.36119 0
M  V30 10746 O 725.646 4.45271 -7.53232 0
M  V30 10747 C 725.156 4.74639 -5.19936 0
M  V30 10748 C 725.866 3.49432 -4.70418 0
M  V30 10749 N 725.816 3.31776 -3.22945 0
M  V30 10750 H 728.655 6.54213 -5.71376 0
M  V30 10751 H 728.927 5.30492 -4.44033 0
M  V30 10752 H 728.059 4.55889 -6.76652 0
M  V30 10753 P 724.096 4.23843 -7.83734 0
M  V30 10754 O 723.876 4.19407 -9.29784 0
M  V30 10755 O 723.306 5.24426 -7.09156 0
M  V30 10756 O 723.846 2.7935 -7.20758 0
M  V30 10757 C 724.786 1.7299 -7.50419 0
M  V30 10758 C 724.056 0.406376 -7.57911 0
M  V30 10759 O 723.846 -0.0897726 -6.21935 0
M  V30 10760 C 722.656 0.447224 -8.1878 0
M  V30 10761 O 722.266 -0.825065 -8.71101 0
M  V30 10762 C 721.776 0.783801 -6.99623 0
M  V30 10763 C 722.486 0.0619192 -5.85967 0
M  V30 10764 N 722.436 0.7859 -4.56281 0
M  V30 10765 H 725.275 1.93423 -8.4679 0
M  V30 10766 H 725.547 1.68181 -6.71046 0
M  V30 10767 H 724.679 -0.289041 -8.15388 0
M  V30 10768 P 720.716 -1.17771 -8.83182 0
M  V30 10769 O 720.496 -2.07206 -9.98732 0
M  V30 10770 O 719.926 0.0743816 -8.81969 0
M  V30 10771 O 720.466 -1.97652 -7.47304 0
M  V30 10772 C 721.406 -3.01133 -7.08783 0
M  V30 10773 C 720.676 -4.12613 -6.37049 0
M  V30 10774 O 720.466 -3.72827 -4.97879 0
M  V30 10775 C 719.276 -4.45085 -6.88694 0
M  V30 10776 O 718.886 -5.7877 -6.5624 0
M  V30 10777 C 718.396 -3.47817 -6.12078 0
M  V30 10778 C 719.106 -3.39414 -4.77697 0
M  V30 10779 N 719.056 -2.04615 -4.15333 0
M  V30 10780 H 721.895 -3.41248 -7.98759 0
M  V30 10781 H 722.167 -2.5837 -6.41742 0
M  V30 10782 H 721.299 -5.02657 -6.42673 0
M  V30 10783 P 717.336 -6.144 -6.45285 0
M  V30 10784 O 717.116 -7.54673 -6.86199 0
M  V30 10785 O 716.546 -5.12391 -7.179 0
M  V30 10786 O 717.086 -5.99158 -4.88404 0
M  V30 10787 C 718.026 -6.60062 -3.96313 0
M  V30 10788 C 717.296 -7.08259 -2.72856 0
M  V30 10789 O 717.086 -5.9427 -1.83651 0
M  V30 10790 C 715.896 -7.65087 -2.94749 0
M  V30 10791 O 715.506 -8.53963 -1.90717 0
M  V30 10792 C 715.016 -6.41069 -2.90698 0
M  V30 10793 C 715.726 -5.5528 -1.86931 0
M  V30 10794 N 715.676 -4.09575 -2.15696 0
M  V30 10795 C 715.526 -3.24249 -1.08435 0
M  V30 10796 O 715.436 -3.63946 0.0628747 0
M  V30 10797 N 715.486 -1.90009 -1.39973 0
M  V30 10798 C 715.576 -1.34884 -2.65614 0
M  V30 10799 O 715.526 -0.123716 -2.81728 0
M  V30 10800 C 715.726 -2.3145 -3.71736 0
M  V30 10801 C 715.836 -1.75913 -5.10438 0
M  V30 10802 C 715.776 -3.63518 -3.44754 0
M  V30 10803 H 718.517 -7.45402 -4.45526 0
M  V30 10804 H 718.786 -5.86062 -3.67208 0
M  V30 10805 H 717.919 -7.84412 -2.24479 0
M  V30 10806 H 715.264 -5.73358 -0.888409 0
M  V30 10807 H 714.985 -5.90877 -3.88583 0
M  V30 10808 H 713.993 -6.65867 -2.58821 0
M  V30 10809 H 715.827 -8.16248 -3.92006 0
M  V30 10810 H 715.898 -4.34551 -4.26383 0
M  V30 10811 H 714.868 -1.85471 -5.61775 0
M  V30 10812 H 716.605 -2.31364 -5.66257 0
M  V30 10813 H 716.117 -0.695936 -5.05229 0
M  V30 10814 H 715.381 -1.26277 -0.63625 0
M  V30 10815 P 713.956 -8.7635 -1.60911 0
M  V30 10816 O 713.736 -10.1388 -1.11561 0
M  V30 10817 O 713.166 -8.36503 -2.79617 0
M  V30 10818 O 713.706 -7.71806 -0.42951 0
M  V30 10819 C 714.646 -7.67148 0.673689 0
M  V30 10820 C 713.916 -7.33374 1.95559 0
M  V30 10821 O 713.706 -5.88721 2.00726 0
M  V30 10822 C 712.516 -7.92526 2.10483 0
M  V30 10823 O 712.126 -8.02971 3.47653 0
M  V30 10824 C 711.636 -6.89602 1.41652 0
M  V30 10825 C 712.346 -5.59201 1.75185 0
M  V30 10826 N 712.296 -4.58235 0.662552 0
M  V30 10827 H 715.135 -8.65116 0.777161 0
M  V30 10828 H 715.407 -6.90173 0.474152 0
M  V30 10829 H 714.539 -7.66548 2.79458 0
M  V30 10830 P 710.576 -8.03563 3.84925 0
M  V30 10831 O 710.356 -8.85821 5.0569 0
M  V30 10832 O 709.786 -8.41101 2.65469 0
M  V30 10833 O 710.326 -6.4965 4.18908 0
M  V30 10834 C 711.266 -5.81037 5.05421 0
M  V30 10835 C 710.536 -4.78366 5.89277 0
M  V30 10836 O 710.326 -3.58302 5.08433 0
M  V30 10837 C 709.136 -5.17448 6.36119 0
M  V30 10838 O 708.746 -4.45271 7.53232 0
M  V30 10839 C 708.256 -4.74639 5.19936 0
M  V30 10840 C 708.966 -3.49432 4.70418 0
M  V30 10841 N 708.916 -3.32099 3.22613 0
M  V30 10842 H 711.755 -6.54213 5.71376 0
M  V30 10843 H 712.027 -5.30936 4.43503 0
M  V30 10844 H 711.159 -4.55889 6.76652 0
M  V30 10845 H 708.504 -2.61715 5.17932 0
M  V30 10846 H 708.224 -5.52155 4.41878 0
M  V30 10847 H 707.233 -4.51981 5.53374 0
M  V30 10848 H 709.067 -6.25124 6.55234 0
M  V30 10849 P 707.196 -4.23843 7.83734 0
M  V30 10850 O 706.976 -4.19407 9.29784 0
M  V30 10851 O 706.406 -5.24426 7.09156 0
M  V30 10852 O 706.946 -2.7935 7.20758 0
M  V30 10853 C 707.886 -1.7299 7.50419 0
M  V30 10854 C 707.156 -0.406376 7.57911 0
M  V30 10855 O 706.946 0.0897726 6.21935 0
M  V30 10856 C 705.756 -0.447224 8.1878 0
M  V30 10857 O 705.366 0.825065 8.71101 0
M  V30 10858 C 704.876 -0.783801 6.99623 0
M  V30 10859 C 705.586 -0.0619192 5.85967 0
M  V30 10860 N 705.536 -0.7859 4.56281 0
M  V30 10861 H 708.375 -1.93423 8.4679 0
M  V30 10862 H 708.647 -1.68181 6.71046 0
M  V30 10863 H 707.779 0.289041 8.15388 0
M  V30 10864 P 703.816 1.17771 8.83182 0
M  V30 10865 O 703.596 2.07206 9.98732 0
M  V30 10866 O 703.026 -0.0743816 8.81969 0
M  V30 10867 O 703.566 1.97652 7.47304 0
M  V30 10868 C 704.506 3.01133 7.08783 0
M  V30 10869 C 703.776 4.12613 6.37049 0
M  V30 10870 O 703.566 3.72827 4.97879 0
M  V30 10871 C 702.376 4.45085 6.88694 0
M  V30 10872 O 701.986 5.7877 6.5624 0
M  V30 10873 C 701.496 3.47817 6.12078 0
M  V30 10874 C 702.206 3.39414 4.77697 0
M  V30 10875 N 702.156 2.04615 4.15333 0
M  V30 10876 H 704.995 3.41248 7.98759 0
M  V30 10877 H 705.267 2.5837 6.41742 0
M  V30 10878 H 704.399 5.02657 6.42673 0
M  V30 10879 P 700.436 6.144 6.45285 0
M  V30 10880 O 700.216 7.54673 6.86199 0
M  V30 10881 O 699.646 5.12391 7.179 0
M  V30 10882 O 700.186 5.99158 4.88404 0
M  V30 10883 C 701.126 6.60234 3.96415 0
M  V30 10884 C 700.396 7.08259 2.72856 0
M  V30 10885 O 700.186 5.9427 1.83651 0
M  V30 10886 C 698.996 7.64886 2.9555 0
M  V30 10887 O 698.606 8.53963 1.90717 0
M  V30 10888 C 698.116 6.4116 2.90739 0
M  V30 10889 C 698.826 5.55375 1.86963 0
M  V30 10890 N 698.776 4.09448 2.16152 0
M  V30 10891 C 698.856 3.46824 3.37593 0
M  V30 10892 N 698.786 2.17422 3.29777 0
M  V30 10893 C 698.636 1.93065 1.94427 0
M  V30 10894 C 698.506 0.738053 1.20141 0
M  V30 10895 N 698.496 -0.474256 1.74676 0
M  V30 10896 N 698.386 0.850049 -0.13045 0
M  V30 10897 C 698.396 2.06169 -0.676992 0
M  V30 10898 N 698.516 3.23842 -0.101312 0
M  V30 10899 C 698.636 3.09402 1.23122 0
M  V30 10900 H 701.615 7.45574 4.45629 0
M  V30 10901 H 701.887 5.85864 3.679 0
M  V30 10902 H 701.019 7.84412 2.24479 0
M  V30 10903 H 698.364 5.73457 0.888562 0
M  V30 10904 H 698.084 5.90877 3.88583 0
M  V30 10905 H 697.093 6.6596 2.58858 0
M  V30 10906 H 698.927 8.16339 3.92049 0
M  V30 10907 H 698.968 4.00505 4.3174 0
M  V30 10908 H 698.587 -0.581337 2.76658 0
M  V30 10909 H 698.398 -1.30811 1.14888 0
M  V30 10910 H 698.29 2.08295 -1.75542 0
M  V30 10911 P 697.056 8.7635 1.60911 0
M  V30 10912 O 696.836 10.1388 1.11561 0
M  V30 10913 O 696.266 8.36503 2.79617 0
M  V30 10914 O 696.806 7.71806 0.42951 0
M  V30 10915 C 697.746 7.66948 -0.673514 0
M  V30 10916 C 697.016 7.33374 -1.95559 0
M  V30 10917 O 696.806 5.88721 -2.00726 0
M  V30 10918 C 695.616 7.92218 -2.1125 0
M  V30 10919 O 695.226 8.02971 -3.47653 0
M  V30 10920 C 694.736 6.89504 -1.41631 0
M  V30 10921 C 695.446 5.59106 -1.75155 0
M  V30 10922 N 695.396 4.58136 -0.662409 0
M  V30 10923 C 695.246 3.26059 -1.02863 0
M  V30 10924 O 695.156 2.90743 -2.19009 0
M  V30 10925 N 695.206 2.35995 0.0155585 0
M  V30 10926 C 695.296 2.65248 1.35603 0
M  V30 10927 O 695.246 1.75605 2.20651 0
M  V30 10928 C 695.446 4.05747 1.64698 0
M  V30 10929 C 695.556 4.42345 3.09553 0
M  V30 10930 C 695.496 4.96734 0.652411 0
M  V30 10931 H 698.237 8.64917 -0.776982 0
M  V30 10932 H 698.506 6.89974 -0.474015 0
M  V30 10933 H 697.639 7.66548 -2.79458 0
M  V30 10934 H 694.984 5.16076 -2.65138 0
M  V30 10935 H 694.705 7.06433 -0.329384 0
M  V30 10936 H 693.713 6.90829 -1.81996 0
M  V30 10937 H 695.547 8.90774 -1.62639 0
M  V30 10938 H 695.618 6.02181 0.895285 0
M  V30 10939 H 694.588 4.80252 3.45468 0
M  V30 10940 H 696.325 5.20015 3.22119 0
M  V30 10941 H 695.837 3.53269 3.67833 0
M  V30 10942 H 695.101 1.39558 -0.227499 0
M  V30 10943 P 693.676 8.03563 -3.84925 0
M  V30 10944 O 693.456 8.85821 -5.0569 0
M  V30 10945 O 692.886 8.41101 -2.65469 0
M  V30 10946 O 693.426 6.4965 -4.18908 0
M  V30 10947 C 694.366 5.80886 -5.05289 0
M  V30 10948 C 693.636 4.78366 -5.89277 0
M  V30 10949 O 693.426 3.58302 -5.08433 0
M  V30 10950 C 692.236 5.16748 -6.36559 0
M  V30 10951 O 691.846 4.45271 -7.53232 0
M  V30 10952 C 691.356 4.74572 -5.19863 0
M  V30 10953 C 692.066 3.49373 -4.70338 0
M  V30 10954 N 692.016 3.31704 -3.22876 0
M  V30 10955 C 691.866 2.03326 -2.74871 0
M  V30 10956 O 691.776 1.06486 -3.48076 0
M  V30 10957 N 691.826 1.91838 -1.37456 0
M  V30 10958 C 691.916 2.94295 -0.462035 0
M  V30 10959 C 692.066 4.25064 -1.05249 0
M  V30 10960 C 692.116 4.40214 -2.39192 0
M  V30 10961 H 694.857 6.54063 -5.71245 0
M  V30 10962 H 695.126 5.30339 -4.43905 0
M  V30 10963 H 694.259 4.55889 -6.76652 0
M  V30 10964 H 691.604 2.6167 -5.17842 0
M  V30 10965 H 691.325 5.52155 -4.41878 0
M  V30 10966 H 690.333 4.51918 -5.53297 0
M  V30 10967 H 692.167 6.25055 -6.55162 0
M  V30 10968 H 692.238 5.39798 -2.81523 0
M  V30 10969 P 690.296 4.23843 -7.83734 0
M  V30 10970 O 690.076 4.19407 -9.29784 0
M  V30 10971 O 689.506 5.24426 -7.09156 0
M  V30 10972 O 690.046 2.7935 -7.20758 0
M  V30 10973 C 690.986 1.7299 -7.50419 0
M  V30 10974 C 690.256 0.406376 -7.57911 0
M  V30 10975 O 690.046 -0.0897726 -6.21935 0
M  V30 10976 C 688.856 0.447224 -8.1878 0
M  V30 10977 O 688.466 -0.825065 -8.71101 0
M  V30 10978 C 687.976 0.783801 -6.99623 0
M  V30 10979 C 688.686 0.0619192 -5.85967 0
M  V30 10980 N 688.636 0.7859 -4.56281 0
M  V30 10981 H 691.475 1.93423 -8.4679 0
M  V30 10982 H 691.747 1.68181 -6.71046 0
M  V30 10983 H 690.879 -0.289041 -8.15388 0
M  V30 10984 P 686.916 -1.17771 -8.83182 0
M  V30 10985 O 686.696 -2.07206 -9.98732 0
M  V30 10986 O 686.126 0.0743816 -8.81969 0
M  V30 10987 O 686.666 -1.97652 -7.47304 0
M  V30 10988 C 687.606 -3.01133 -7.08783 0
M  V30 10989 C 686.876 -4.12613 -6.37049 0
M  V30 10990 O 686.666 -3.72827 -4.97879 0
M  V30 10991 C 685.476 -4.45085 -6.88694 0
M  V30 10992 O 685.086 -5.7877 -6.5624 0
M  V30 10993 C 684.596 -3.47817 -6.12078 0
M  V30 10994 C 685.306 -3.39414 -4.77697 0
M  V30 10995 N 685.256 -2.04615 -4.15333 0
M  V30 10996 H 688.095 -3.41248 -7.98759 0
M  V30 10997 H 688.367 -2.5837 -6.41742 0
M  V30 10998 H 687.499 -5.02657 -6.42673 0
M  V30 10999 P 683.536 -6.144 -6.45285 0
M  V30 11000 O 683.316 -7.54673 -6.86199 0
M  V30 11001 O 682.746 -5.12391 -7.179 0
M  V30 11002 O 683.286 -5.99158 -4.88404 0
M  V30 11003 C 684.226 -6.60234 -3.96415 0
M  V30 11004 C 683.496 -7.08259 -2.72856 0
M  V30 11005 O 683.286 -5.9427 -1.83651 0
M  V30 11006 C 682.096 -7.64886 -2.9555 0
M  V30 11007 O 681.706 -8.53963 -1.90717 0
M  V30 11008 C 681.216 -6.4116 -2.90739 0
M  V30 11009 C 681.926 -5.55375 -1.86963 0
M  V30 11010 N 681.876 -4.09664 -2.15742 0
M  V30 11011 H 684.715 -7.45574 -4.45629 0
M  V30 11012 H 684.987 -5.86232 -3.67314 0
M  V30 11013 H 684.119 -7.84412 -2.24479 0
M  V30 11014 P 680.156 -8.7635 -1.60911 0
M  V30 11015 O 679.936 -10.1388 -1.11561 0
M  V30 11016 O 679.366 -8.36503 -2.79617 0
M  V30 11017 O 679.906 -7.71906 -0.429565 0
M  V30 11018 C 680.846 -7.67148 0.673689 0
M  V30 11019 C 680.116 -7.33666 1.94851 0
M  V30 11020 O 679.906 -5.88816 2.00759 0
M  V30 11021 C 678.716 -7.92526 2.10483 0
M  V30 11022 O 678.326 -8.03063 3.47693 0
M  V30 11023 C 677.836 -6.89602 1.41652 0
M  V30 11024 C 678.546 -5.59201 1.75185 0
M  V30 11025 N 678.496 -4.58235 0.662552 0
M  V30 11026 C 678.346 -3.24451 1.01643 0
M  V30 11027 O 678.256 -2.94958 2.21722 0
M  V30 11028 N 678.296 -2.30408 -0.165238 0
M  V30 11029 C 678.396 -2.66048 -1.25118 0
M  V30 11030 N 678.346 -1.70787 -2.16813 0
M  V30 11031 C 678.546 -4.02732 -1.64413 0
M  V30 11032 C 678.596 -4.9488 -0.63991 0
M  V30 11033 H 681.336 -8.65017 0.777072 0
M  V30 11034 H 681.606 -6.90173 0.474152 0
M  V30 11035 H 680.739 -7.66642 2.79492 0
M  V30 11036 H 678.084 -5.16254 2.65229 0
M  V30 11037 H 677.804 -7.06532 0.329431 0
M  V30 11038 H 676.813 -6.91023 1.82047 0
M  V30 11039 H 678.647 -8.90873 1.62657 0
M  V30 11040 H 678.719 -6.00104 -0.892197 0
M  V30 11041 H 678.617 -4.31733 -2.69229 0
M  V30 11042 H 678.229 -0.724835 -1.8844 0
M  V30 11043 H 678.425 -1.94716 -3.16734 0
M  V30 11044 P 676.776 -8.03563 3.84925 0
M  V30 11045 O 676.556 -8.85821 5.0569 0
M  V30 11046 O 675.986 -8.41101 2.65469 0
M  V30 11047 O 676.526 -6.4965 4.18908 0
M  V30 11048 C 677.466 -5.80886 5.05289 0
M  V30 11049 C 676.736 -4.78366 5.89277 0
M  V30 11050 O 676.526 -3.58302 5.08433 0
M  V30 11051 C 675.336 -5.16748 6.36559 0
M  V30 11052 O 674.946 -4.45271 7.53232 0
M  V30 11053 C 674.456 -4.74572 5.19863 0
M  V30 11054 C 675.166 -3.49373 4.70338 0
M  V30 11055 N 675.116 -3.31704 3.22876 0
M  V30 11056 C 674.966 -2.03326 2.74871 0
M  V30 11057 O 674.876 -1.06486 3.48076 0
M  V30 11058 N 674.926 -1.91838 1.37456 0
M  V30 11059 C 675.016 -2.94295 0.462035 0
M  V30 11060 C 675.166 -4.25064 1.05249 0
M  V30 11061 C 675.216 -4.40214 2.39192 0
M  V30 11062 H 677.957 -6.54063 5.71245 0
M  V30 11063 H 678.226 -5.30339 4.43905 0
M  V30 11064 H 677.359 -4.55889 6.76652 0
M  V30 11065 H 674.704 -2.6167 5.17842 0
M  V30 11066 H 674.425 -5.52155 4.41878 0
M  V30 11067 H 673.433 -4.51918 5.53297 0
M  V30 11068 H 675.267 -6.25055 6.55162 0
M  V30 11069 H 675.338 -5.39798 2.81523 0
M  V30 11070 P 673.396 -4.23843 7.83734 0
M  V30 11071 O 673.176 -4.19407 9.29784 0
M  V30 11072 O 672.606 -5.24426 7.09156 0
M  V30 11073 O 673.146 -2.7935 7.20758 0
M  V30 11074 C 674.086 -1.7299 7.50419 0
M  V30 11075 C 673.356 -0.406376 7.57911 0
M  V30 11076 O 673.146 0.0897726 6.21935 0
M  V30 11077 C 671.956 -0.447224 8.1878 0
M  V30 11078 O 671.566 0.825065 8.71101 0
M  V30 11079 C 671.076 -0.783801 6.99623 0
M  V30 11080 C 671.786 -0.0619192 5.85967 0
M  V30 11081 N 671.736 -0.7859 4.56281 0
M  V30 11082 H 674.575 -1.93423 8.4679 0
M  V30 11083 H 674.847 -1.68181 6.71046 0
M  V30 11084 H 673.979 0.289041 8.15388 0
M  V30 11085 P 670.016 1.17771 8.83182 0
M  V30 11086 O 669.796 2.07206 9.98732 0
M  V30 11087 O 669.226 -0.0743816 8.81969 0
M  V30 11088 O 669.766 1.97652 7.47304 0
M  V30 11089 C 670.706 3.01133 7.08783 0
M  V30 11090 C 669.976 4.12613 6.37049 0
M  V30 11091 O 669.766 3.72827 4.97879 0
M  V30 11092 C 668.576 4.45085 6.88694 0
M  V30 11093 O 668.186 5.7877 6.5624 0
M  V30 11094 C 667.696 3.47817 6.12078 0
M  V30 11095 C 668.406 3.39414 4.77697 0
M  V30 11096 N 668.356 2.04615 4.15333 0
M  V30 11097 H 671.195 3.41248 7.98759 0
M  V30 11098 H 671.467 2.5837 6.41742 0
M  V30 11099 H 670.599 5.02657 6.42673 0
M  V30 11100 P 666.636 6.144 6.45285 0
M  V30 11101 O 666.416 7.54673 6.86199 0
M  V30 11102 O 665.846 5.12391 7.179 0
M  V30 11103 O 666.386 5.99158 4.88404 0
M  V30 11104 C 667.326 6.60234 3.96415 0
M  V30 11105 C 666.596 7.08259 2.72856 0
M  V30 11106 O 666.386 5.9427 1.83651 0
M  V30 11107 C 665.196 7.64886 2.9555 0
M  V30 11108 O 664.806 8.53963 1.90717 0
M  V30 11109 C 664.316 6.4116 2.90739 0
M  V30 11110 C 665.026 5.55375 1.86963 0
M  V30 11111 N 664.976 4.09664 2.15742 0
M  V30 11112 H 667.815 7.45574 4.45629 0
M  V30 11113 H 668.087 5.86232 3.67314 0
M  V30 11114 H 667.219 7.84412 2.24479 0
M  V30 11115 P 663.256 8.7635 1.60911 0
M  V30 11116 O 663.036 10.1388 1.11561 0
M  V30 11117 O 662.466 8.36503 2.79617 0
M  V30 11118 O 663.006 7.71806 0.42951 0
M  V30 11119 C 663.946 7.67148 -0.673689 0
M  V30 11120 C 663.216 7.33374 -1.95559 0
M  V30 11121 O 663.006 5.88721 -2.00726 0
M  V30 11122 C 661.816 7.92526 -2.10483 0
M  V30 11123 O 661.426 8.02971 -3.47653 0
M  V30 11124 C 660.936 6.89602 -1.41652 0
M  V30 11125 C 661.646 5.59201 -1.75185 0
M  V30 11126 N 661.596 4.58235 -0.662552 0
M  V30 11127 H 664.435 8.65116 -0.777161 0
M  V30 11128 H 664.707 6.90173 -0.474152 0
M  V30 11129 H 663.839 7.66548 -2.79458 0
M  V30 11130 P 659.876 8.03563 -3.84925 0
M  V30 11131 O 659.656 8.85821 -5.0569 0
M  V30 11132 O 659.086 8.41101 -2.65469 0
M  V30 11133 O 659.626 6.4965 -4.18908 0
M  V30 11134 C 660.566 5.81037 -5.05421 0
M  V30 11135 C 659.836 4.78366 -5.89277 0
M  V30 11136 O 659.626 3.58302 -5.08433 0
M  V30 11137 C 658.436 5.17448 -6.36119 0
M  V30 11138 O 658.046 4.45271 -7.53232 0
M  V30 11139 C 657.556 4.74639 -5.19936 0
M  V30 11140 C 658.266 3.49432 -4.70418 0
M  V30 11141 N 658.216 3.31776 -3.22945 0
M  V30 11142 H 661.055 6.54213 -5.71376 0
M  V30 11143 H 661.327 5.30492 -4.44033 0
M  V30 11144 H 660.459 4.55889 -6.76652 0
M  V30 11145 P 656.496 4.23843 -7.83734 0
M  V30 11146 O 656.276 4.19407 -9.29784 0
M  V30 11147 O 655.706 5.24426 -7.09156 0
M  V30 11148 O 656.246 2.79386 -7.20852 0
M  V30 11149 C 657.186 1.7299 -7.50419 0
M  V30 11150 C 656.456 0.41401 -7.5797 0
M  V30 11151 O 656.246 -0.089787 -6.22035 0
M  V30 11152 C 655.056 0.447224 -8.1878 0
M  V30 11153 O 654.666 -0.825159 -8.71201 0
M  V30 11154 C 654.176 0.783801 -6.99623 0
M  V30 11155 C 654.886 0.0619192 -5.85967 0
M  V30 11156 N 654.836 0.7859 -4.56281 0
M  V30 11157 C 654.686 0.0359258 -3.39981 0
M  V30 11158 O 654.596 -1.19723 -3.49038 0
M  V30 11159 N 654.636 0.869151 -2.14025 0
M  V30 11160 C 654.736 2.01207 -2.14363 0
M  V30 11161 N 654.686 2.58978 -0.954287 0
M  V30 11162 C 654.886 2.80817 -3.32215 0
M  V30 11163 C 654.936 2.13785 -4.50884 0
M  V30 11164 H 657.676 1.93401 -8.46693 0
M  V30 11165 H 657.946 1.68181 -6.71046 0
M  V30 11166 H 657.079 -0.289076 -8.15488 0
M  V30 11167 H 654.424 -0.927166 -5.72947 0
M  V30 11168 H 654.144 1.87 -6.82132 0
M  V30 11169 H 653.153 0.404009 -7.13457 0
M  V30 11170 H 654.987 1.20599 -8.97534 0
M  V30 11171 H 655.059 2.70295 -5.43162 0
M  V30 11172 H 654.957 3.89465 -3.27406 0
M  V30 11173 H 654.569 2.01616 -0.107046 0
M  V30 11174 H 654.765 3.61403 -0.873101 0
M  V30 11175 P 653.116 -1.17771 -8.83182 0
M  V30 11176 O 652.896 -2.07206 -9.98732 0
M  V30 11177 O 652.326 0.0743816 -8.81969 0
M  V30 11178 O 652.866 -1.97678 -7.474 0
M  V30 11179 C 653.806 -3.01133 -7.08783 0
M  V30 11180 C 653.076 -4.1203 -6.37546 0
M  V30 11181 O 652.866 -3.72887 -4.9796 0
M  V30 11182 C 651.676 -4.45085 -6.88694 0
M  V30 11183 O 651.286 -5.78836 -6.56315 0
M  V30 11184 C 650.796 -3.47817 -6.12078 0
M  V30 11185 C 651.506 -3.39414 -4.77697 0
M  V30 11186 N 651.456 -2.04615 -4.15333 0
M  V30 11187 C 651.306 -1.96929 -2.77162 0
M  V30 11188 O 651.216 -3.02017 -2.12006 0
M  V30 11189 N 651.256 -0.55485 -2.24237 0
M  V30 11190 C 651.356 0.367808 -2.9169 0
M  V30 11191 N 651.306 1.53426 -2.29427 0
M  V30 11192 C 651.506 0.319148 -4.33828 0
M  V30 11193 C 651.556 -0.920672 -4.90433 0
M  V30 11194 H 654.296 -3.41209 -7.98667 0
M  V30 11195 H 654.566 -2.5837 -6.41742 0
M  V30 11196 H 653.699 -5.02718 -6.42752 0
M  V30 11197 H 651.044 -4.11779 -4.09026 0
M  V30 11198 H 650.764 -2.49661 -6.61772 0
M  V30 11199 H 649.773 -3.86674 -6.00946 0
M  V30 11200 H 651.607 -4.29991 -7.97006 0
M  V30 11201 H 651.679 -1.00589 -5.98303 0
M  V30 11202 H 651.577 1.22639 -4.93799 0
M  V30 11203 H 651.189 1.56819 -1.27167 0
M  V30 11204 H 651.385 2.41062 -2.83063 0
M  V30 11205 P 649.736 -6.144 -6.45285 0
M  V30 11206 O 649.516 -7.54673 -6.86199 0
M  V30 11207 O 648.946 -5.12391 -7.179 0
M  V30 11208 O 649.486 -5.99158 -4.88404 0
M  V30 11209 C 650.426 -6.60234 -3.96415 0
M  V30 11210 C 649.696 -7.08259 -2.72856 0
M  V30 11211 O 649.486 -5.9427 -1.83651 0
M  V30 11212 C 648.296 -7.64886 -2.9555 0
M  V30 11213 O 647.906 -8.53963 -1.90717 0
M  V30 11214 C 647.416 -6.4116 -2.90739 0
M  V30 11215 C 648.126 -5.55375 -1.86963 0
M  V30 11216 N 648.076 -4.09664 -2.15742 0
M  V30 11217 H 650.915 -7.45574 -4.45629 0
M  V30 11218 H 651.187 -5.86232 -3.67314 0
M  V30 11219 H 650.319 -7.84412 -2.24479 0
M  V30 11220 P 646.356 -8.7635 -1.60911 0
M  V30 11221 O 646.136 -10.1388 -1.11561 0
M  V30 11222 O 645.566 -8.36503 -2.79617 0
M  V30 11223 O 646.106 -7.71806 -0.42951 0
M  V30 11224 C 647.046 -7.67148 0.673689 0
M  V30 11225 C 646.316 -7.33374 1.95559 0
M  V30 11226 O 646.106 -5.88721 2.00726 0
M  V30 11227 C 644.916 -7.92526 2.10483 0
M  V30 11228 O 644.526 -8.02971 3.47653 0
M  V30 11229 C 644.036 -6.89602 1.41652 0
M  V30 11230 C 644.746 -5.59201 1.75185 0
M  V30 11231 N 644.696 -4.58235 0.662552 0
M  V30 11232 H 647.535 -8.65116 0.777161 0
M  V30 11233 H 647.807 -6.90173 0.474152 0
M  V30 11234 H 646.939 -7.66548 2.79458 0
M  V30 11235 P 642.976 -8.03563 3.84925 0
M  V30 11236 O 642.756 -8.85821 5.0569 0
M  V30 11237 O 642.186 -8.41101 2.65469 0
M  V30 11238 O 642.726 -6.49734 4.18962 0
M  V30 11239 C 643.666 -5.81037 5.05421 0
M  V30 11240 C 642.936 -4.79018 5.88876 0
M  V30 11241 O 642.726 -3.58359 5.08515 0
M  V30 11242 C 641.536 -5.17448 6.36119 0
M  V30 11243 O 641.146 -4.45322 7.53318 0
M  V30 11244 C 640.656 -4.74639 5.19936 0
M  V30 11245 C 641.366 -3.49432 4.70418 0
M  V30 11246 N 641.316 -3.31776 3.22945 0
M  V30 11247 C 641.166 -2.02742 2.72939 0
M  V30 11248 O 641.076 -1.08301 3.52749 0
M  V30 11249 N 641.116 -1.96117 1.22063 0
M  V30 11250 C 641.216 -2.8878 0.551566 0
M  V30 11251 N 641.166 -2.65609 -0.750198 0
M  V30 11252 C 641.366 -4.22457 1.03707 0
M  V30 11253 C 641.416 -4.37979 2.39113 0
M  V30 11254 H 644.156 -6.54138 5.7131 0
M  V30 11255 H 644.426 -5.30492 4.44033 0
M  V30 11256 H 643.559 -4.55945 6.76735 0
M  V30 11257 H 640.904 -2.6176 5.18021 0
M  V30 11258 H 640.624 -5.52233 4.41941 0
M  V30 11259 H 639.633 -4.52045 5.53452 0
M  V30 11260 H 641.467 -6.25124 6.55234 0
M  V30 11261 H 641.539 -5.37936 2.80552 0
M  V30 11262 H 641.437 -5.07528 0.359553 0
M  V30 11263 H 641.049 -1.69403 -1.09847 0
M  V30 11264 H 641.245 -3.43701 -1.41792 0
M  V30 11265 P 639.596 -4.23843 7.83734 0
M  V30 11266 O 639.376 -4.19407 9.29784 0
M  V30 11267 O 638.806 -5.24426 7.09156 0
M  V30 11268 O 639.346 -2.7935 7.20758 0
M  V30 11269 C 640.286 -1.7299 7.50419 0
M  V30 11270 C 639.556 -0.406376 7.57911 0
M  V30 11271 O 639.346 0.0897726 6.21935 0
M  V30 11272 C 638.156 -0.447224 8.1878 0
M  V30 11273 O 637.766 0.825065 8.71101 0
M  V30 11274 C 637.276 -0.783801 6.99623 0
M  V30 11275 C 637.986 -0.0619192 5.85967 0
M  V30 11276 N 637.936 -0.790462 4.56202 0
M  V30 11277 H 640.775 -1.93423 8.4679 0
M  V30 11278 H 641.047 -1.68852 6.70877 0
M  V30 11279 H 640.179 0.289041 8.15388 0
M  V30 11280 H 637.524 0.927006 5.72848 0
M  V30 11281 H 637.244 -1.86973 6.82036 0
M  V30 11282 H 636.253 -0.403953 7.13357 0
M  V30 11283 H 638.087 -1.20599 8.97534 0
M  V30 11284 P 636.216 1.17771 8.83182 0
M  V30 11285 O 635.996 2.07206 9.98732 0
M  V30 11286 O 635.426 -0.0743816 8.81969 0
M  V30 11287 O 635.966 1.97652 7.47304 0
M  V30 11288 C 636.906 3.01133 7.08783 0
M  V30 11289 C 636.176 4.12613 6.37049 0
M  V30 11290 O 635.966 3.72827 4.97879 0
M  V30 11291 C 634.776 4.45085 6.88694 0
M  V30 11292 O 634.386 5.7877 6.5624 0
M  V30 11293 C 633.896 3.47817 6.12078 0
M  V30 11294 C 634.606 3.39414 4.77697 0
M  V30 11295 N 634.556 2.04199 4.15538 0
M  V30 11296 H 637.395 3.41248 7.98759 0
M  V30 11297 H 637.667 2.57728 6.42 0
M  V30 11298 H 636.799 5.02657 6.42673 0
M  V30 11299 H 634.144 4.11708 4.08956 0
M  V30 11300 H 633.864 2.49626 6.61679 0
M  V30 11301 H 632.873 3.8662 6.00862 0
M  V30 11302 H 634.707 4.29991 7.97006 0
M  V30 11303 P 632.836 6.144 6.45285 0
M  V30 11304 O 632.616 7.54673 6.86199 0
M  V30 11305 O 632.046 5.12391 7.179 0
M  V30 11306 O 632.586 5.99158 4.88404 0
M  V30 11307 C 633.526 6.60062 3.96313 0
M  V30 11308 C 632.796 7.08259 2.72856 0
M  V30 11309 O 632.586 5.9427 1.83651 0
M  V30 11310 C 631.396 7.65087 2.94749 0
M  V30 11311 O 631.006 8.53963 1.90717 0
M  V30 11312 C 630.516 6.41069 2.90698 0
M  V30 11313 C 631.226 5.5528 1.86931 0
M  V30 11314 N 631.176 4.09575 2.15696 0
M  V30 11315 C 631.026 3.24249 1.08435 0
M  V30 11316 O 630.936 3.63946 -0.0628747 0
M  V30 11317 N 630.986 1.90009 1.39973 0
M  V30 11318 C 631.076 1.34884 2.65614 0
M  V30 11319 O 631.026 0.123716 2.81728 0
M  V30 11320 C 631.226 2.3145 3.71736 0
M  V30 11321 C 631.336 1.75913 5.10438 0
M  V30 11322 C 631.276 3.63518 3.44754 0
M  V30 11323 H 634.017 7.45402 4.45526 0
M  V30 11324 H 634.286 5.86062 3.67208 0
M  V30 11325 H 633.419 7.84412 2.24479 0
M  V30 11326 H 630.764 5.73358 0.888409 0
M  V30 11327 H 630.485 5.90877 3.88583 0
M  V30 11328 H 629.493 6.65867 2.58821 0
M  V30 11329 H 631.327 8.16248 3.92006 0
M  V30 11330 H 631.398 4.34551 4.26383 0
M  V30 11331 H 630.368 1.85471 5.61775 0
M  V30 11332 H 632.105 2.31364 5.66257 0
M  V30 11333 H 631.617 0.695936 5.05229 0
M  V30 11334 H 630.881 1.26277 0.63625 0
M  V30 11335 P 629.456 8.7635 1.60911 0
M  V30 11336 O 629.236 10.1388 1.11561 0
M  V30 11337 O 628.666 8.36503 2.79617 0
M  V30 11338 O 629.206 7.71806 0.42951 0
M  V30 11339 C 630.146 7.67148 -0.673689 0
M  V30 11340 C 629.416 7.33374 -1.95559 0
M  V30 11341 O 629.206 5.88721 -2.00726 0
M  V30 11342 C 628.016 7.92526 -2.10483 0
M  V30 11343 O 627.626 8.02971 -3.47653 0
M  V30 11344 C 627.136 6.89602 -1.41652 0
M  V30 11345 C 627.846 5.59201 -1.75185 0
M  V30 11346 N 627.796 4.58301 -0.657969 0
M  V30 11347 H 630.635 8.65116 -0.777161 0
M  V30 11348 H 630.907 6.9022 -0.46725 0
M  V30 11349 H 630.039 7.66548 -2.79458 0
M  V30 11350 H 627.384 5.16165 -2.65183 0
M  V30 11351 H 627.104 7.06433 -0.329384 0
M  V30 11352 H 626.113 6.90926 -1.82021 0
M  V30 11353 H 627.947 8.90873 -1.62657 0
M  V30 11354 P 626.076 8.03563 -3.84925 0
M  V30 11355 O 625.856 8.85821 -5.0569 0
M  V30 11356 O 625.286 8.41101 -2.65469 0
M  V30 11357 O 625.826 6.49734 -4.18962 0
M  V30 11358 C 626.766 5.81037 -5.05421 0
M  V30 11359 C 626.036 4.79018 -5.88876 0
M  V30 11360 O 625.826 3.58359 -5.08515 0
M  V30 11361 C 624.636 5.17448 -6.36119 0
M  V30 11362 O 624.246 4.45322 -7.53318 0
M  V30 11363 C 623.756 4.74639 -5.19936 0
M  V30 11364 C 624.466 3.49432 -4.70418 0
M  V30 11365 N 624.416 3.31776 -3.22945 0
M  V30 11366 C 624.266 2.02742 -2.72939 0
M  V30 11367 O 624.176 1.08301 -3.52749 0
M  V30 11368 N 624.216 1.96117 -1.22063 0
M  V30 11369 C 624.316 2.8878 -0.551566 0
M  V30 11370 N 624.266 2.65609 0.750198 0
M  V30 11371 C 624.466 4.22457 -1.03707 0
M  V30 11372 C 624.516 4.37979 -2.39113 0
M  V30 11373 H 627.256 6.54138 -5.7131 0
M  V30 11374 H 627.526 5.30492 -4.44033 0
M  V30 11375 H 626.659 4.55945 -6.76735 0
M  V30 11376 H 624.004 2.6176 -5.18021 0
M  V30 11377 H 623.724 5.52233 -4.41941 0
M  V30 11378 H 622.733 4.52045 -5.53452 0
M  V30 11379 H 624.567 6.25124 -6.55234 0
M  V30 11380 H 624.639 5.37936 -2.80552 0
M  V30 11381 H 624.537 5.07528 -0.359553 0
M  V30 11382 H 624.149 1.69403 1.09847 0
M  V30 11383 H 624.345 3.43701 1.41792 0
M  V30 11384 P 622.696 4.23843 -7.83734 0
M  V30 11385 O 622.476 4.19407 -9.29784 0
M  V30 11386 O 621.906 5.24426 -7.09156 0
M  V30 11387 O 622.446 2.7935 -7.20758 0
M  V30 11388 C 623.386 1.72945 -7.50224 0
M  V30 11389 C 622.656 0.406376 -7.57911 0
M  V30 11390 O 622.446 -0.0897726 -6.21935 0
M  V30 11391 C 621.256 0.438983 -8.18724 0
M  V30 11392 O 620.866 -0.825065 -8.71101 0
M  V30 11393 C 620.376 0.783689 -6.99524 0
M  V30 11394 C 621.086 0.0619086 -5.85867 0
M  V30 11395 N 621.036 0.78573 -4.56183 0
M  V30 11396 C 620.886 0.0292889 -3.41887 0
M  V30 11397 O 620.796 -1.18445 -3.4419 0
M  V30 11398 N 620.846 0.744061 -2.23964 0
M  V30 11399 C 620.936 2.10932 -2.10362 0
M  V30 11400 O 620.886 2.64117 -0.98825 0
M  V30 11401 C 621.086 2.8202 -3.34994 0
M  V30 11402 C 621.196 4.31095 -3.25037 0
M  V30 11403 C 621.136 2.15547 -4.52261 0
M  V30 11404 H 623.877 1.93379 -8.46595 0
M  V30 11405 H 624.146 1.68132 -6.70852 0
M  V30 11406 H 623.279 -0.289041 -8.15388 0
M  V30 11407 H 620.624 -0.926847 -5.72749 0
M  V30 11408 H 620.345 1.86973 -6.82036 0
M  V30 11409 H 619.353 0.403896 -7.13257 0
M  V30 11410 H 621.187 1.20585 -8.97435 0
M  V30 11411 H 621.258 2.71231 -5.45042 0
M  V30 11412 H 620.228 4.76966 -3.49992 0
M  V30 11413 H 621.965 4.67047 -3.95024 0
M  V30 11414 H 621.477 4.58996 -2.22312 0
M  V30 11415 H 620.741 0.214893 -1.39758 0
M  V30 11416 P 619.316 -1.17771 -8.83182 0
M  V30 11417 O 619.096 -2.07206 -9.98732 0
M  V30 11418 O 618.526 0.0743816 -8.81969 0
M  V30 11419 O 619.066 -1.97678 -7.474 0
M  V30 11420 C 620.006 -3.01133 -7.08783 0
M  V30 11421 C 619.276 -4.1203 -6.37546 0
M  V30 11422 O 619.066 -3.72887 -4.9796 0
M  V30 11423 C 617.876 -4.45085 -6.88694 0
M  V30 11424 O 617.486 -5.78836 -6.56315 0
M  V30 11425 C 616.996 -3.47817 -6.12078 0
M  V30 11426 C 617.706 -3.39414 -4.77697 0
M  V30 11427 N 617.656 -2.04615 -4.15333 0
M  V30 11428 C 617.506 -1.96929 -2.77162 0
M  V30 11429 O 617.416 -3.02017 -2.12006 0
M  V30 11430 N 617.456 -0.55485 -2.24237 0
M  V30 11431 C 617.556 0.367808 -2.9169 0
M  V30 11432 N 617.506 1.53426 -2.29427 0
M  V30 11433 C 617.706 0.319148 -4.33828 0
M  V30 11434 C 617.756 -0.920672 -4.90433 0
M  V30 11435 H 620.496 -3.41209 -7.98667 0
M  V30 11436 H 620.766 -2.5837 -6.41742 0
M  V30 11437 H 619.899 -5.02718 -6.42752 0
M  V30 11438 H 617.244 -4.11779 -4.09026 0
M  V30 11439 H 616.964 -2.49661 -6.61772 0
M  V30 11440 H 615.973 -3.86674 -6.00946 0
M  V30 11441 H 617.807 -4.29991 -7.97006 0
M  V30 11442 H 617.879 -1.00589 -5.98303 0
M  V30 11443 H 617.777 1.22639 -4.93799 0
M  V30 11444 H 617.389 1.56819 -1.27167 0
M  V30 11445 H 617.585 2.41062 -2.83063 0
M  V30 11446 P 615.936 -6.144 -6.45285 0
M  V30 11447 O 615.716 -7.54673 -6.86199 0
M  V30 11448 O 615.146 -5.12391 -7.179 0
M  V30 11449 O 615.686 -5.99236 -4.88467 0
M  V30 11450 C 616.626 -6.60234 -3.96415 0
M  V30 11451 C 615.896 -7.08079 -2.736 0
M  V30 11452 O 615.686 -5.94365 -1.8368 0
M  V30 11453 C 614.496 -7.64886 -2.9555 0
M  V30 11454 O 614.106 -8.5406 -1.90739 0
M  V30 11455 C 613.616 -6.4116 -2.90739 0
M  V30 11456 C 614.326 -5.55375 -1.86963 0
M  V30 11457 N 614.276 -4.09664 -2.15742 0
M  V30 11458 C 614.126 -3.22231 -1.08477 0
M  V30 11459 O 614.036 -3.68951 0.0600489 0
M  V30 11460 N 614.076 -1.76692 -1.48799 0
M  V30 11461 C 614.176 -1.41695 -2.57602 0
M  V30 11462 N 614.126 -0.107296 -2.75791 0
M  V30 11463 C 614.326 -2.29178 -3.69733 0
M  V30 11464 C 614.376 -3.62753 -3.42653 0
M  V30 11465 H 617.116 -7.45488 -4.45578 0
M  V30 11466 H 617.386 -5.86232 -3.67314 0
M  V30 11467 H 616.519 -7.84508 -2.24507 0
M  V30 11468 H 613.864 -5.73556 -0.888715 0
M  V30 11469 H 613.584 -5.9096 -3.88638 0
M  V30 11470 H 612.593 -6.66053 -2.58894 0
M  V30 11471 H 614.427 -8.16339 -3.92049 0
M  V30 11472 H 614.499 -4.33052 -4.24913 0
M  V30 11473 H 614.397 -1.9103 -4.71577 0
M  V30 11474 H 614.009 0.521221 -1.95056 0
M  V30 11475 H 614.205 0.286429 -3.70695 0
M  V30 11476 P 612.556 -8.7635 -1.60911 0
M  V30 11477 O 612.336 -10.1388 -1.11561 0
M  V30 11478 O 611.766 -8.36503 -2.79617 0
M  V30 11479 O 612.306 -7.71806 -0.42951 0
M  V30 11480 C 613.246 -7.67148 0.673689 0
M  V30 11481 C 612.516 -7.33374 1.95559 0
M  V30 11482 O 612.306 -5.88721 2.00726 0
M  V30 11483 C 611.116 -7.92526 2.10483 0
M  V30 11484 O 610.726 -8.02971 3.47653 0
M  V30 11485 C 610.236 -6.89602 1.41652 0
M  V30 11486 C 610.946 -5.59201 1.75185 0
M  V30 11487 N 610.896 -4.58235 0.662552 0
M  V30 11488 C 610.976 -4.7683 -0.704049 0
M  V30 11489 N 610.896 -3.66233 -1.39775 0
M  V30 11490 C 610.756 -2.66526 -0.431739 0
M  V30 11491 C 610.626 -1.26394 -0.575992 0
M  V30 11492 N 610.506 -0.62859 0.67177 0
M  V30 11493 C 610.506 -1.27134 1.89385 0
M  V30 11494 N 610.376 -0.492035 2.96951 0
M  V30 11495 N 610.636 -2.58978 2.02907 0
M  V30 11496 C 610.756 -3.22433 0.832218 0
M  V30 11497 H 613.735 -8.65116 0.777161 0
M  V30 11498 H 614.007 -6.90173 0.474152 0
M  V30 11499 H 613.139 -7.66548 2.79458 0
M  V30 11500 P 609.176 -8.03563 3.84925 0
M  V30 11501 O 608.956 -8.85821 5.0569 0
M  V30 11502 O 608.386 -8.41101 2.65469 0
M  V30 11503 O 608.926 -6.49734 4.18962 0
M  V30 11504 C 609.866 -5.81037 5.05421 0
M  V30 11505 C 609.136 -4.79018 5.88876 0
M  V30 11506 O 608.926 -3.58359 5.08515 0
M  V30 11507 C 607.736 -5.17448 6.36119 0
M  V30 11508 O 607.346 -4.45322 7.53318 0
M  V30 11509 C 606.856 -4.74639 5.19936 0
M  V30 11510 C 607.566 -3.49432 4.70418 0
M  V30 11511 N 607.516 -3.31776 3.22945 0
M  V30 11512 C 607.366 -2.02742 2.72939 0
M  V30 11513 O 607.276 -1.08301 3.52749 0
M  V30 11514 N 607.316 -1.96117 1.22063 0
M  V30 11515 C 607.416 -2.8878 0.551566 0
M  V30 11516 N 607.366 -2.65609 -0.750198 0
M  V30 11517 C 607.566 -4.22457 1.03707 0
M  V30 11518 C 607.616 -4.37979 2.39113 0
M  V30 11519 H 610.356 -6.54138 5.7131 0
M  V30 11520 H 610.626 -5.30492 4.44033 0
M  V30 11521 H 609.759 -4.55945 6.76735 0
M  V30 11522 H 607.104 -2.6176 5.18021 0
M  V30 11523 H 606.824 -5.52233 4.41941 0
M  V30 11524 H 605.833 -4.52045 5.53452 0
M  V30 11525 H 607.667 -6.25124 6.55234 0
M  V30 11526 H 607.739 -5.37936 2.80552 0
M  V30 11527 H 607.637 -5.07528 0.359553 0
M  V30 11528 H 607.249 -1.69403 -1.09847 0
M  V30 11529 H 607.445 -3.43701 -1.41792 0
M  V30 11530 P 605.796 -4.23843 7.83734 0
M  V30 11531 O 605.576 -4.19407 9.29784 0
M  V30 11532 O 605.006 -5.24426 7.09156 0
M  V30 11533 O 605.546 -2.7935 7.20758 0
M  V30 11534 C 606.486 -1.7299 7.50419 0
M  V30 11535 C 605.756 -0.406376 7.57911 0
M  V30 11536 O 605.546 0.0897726 6.21935 0
M  V30 11537 C 604.356 -0.447224 8.1878 0
M  V30 11538 O 603.966 0.825065 8.71101 0
M  V30 11539 C 603.476 -0.783801 6.99623 0
M  V30 11540 C 604.186 -0.0619192 5.85967 0
M  V30 11541 N 604.136 -0.7859 4.56281 0
M  V30 11542 H 606.975 -1.93423 8.4679 0
M  V30 11543 H 607.247 -1.68181 6.71046 0
M  V30 11544 H 606.379 0.289041 8.15388 0
M  V30 11545 P 602.416 1.17771 8.83182 0
M  V30 11546 O 602.196 2.07206 9.98732 0
M  V30 11547 O 601.626 -0.0743816 8.81969 0
M  V30 11548 O 602.166 1.97678 7.474 0
M  V30 11549 C 603.106 3.01133 7.08783 0
M  V30 11550 C 602.376 4.1203 6.37546 0
M  V30 11551 O 602.166 3.72887 4.9796 0
M  V30 11552 C 600.976 4.45085 6.88694 0
M  V30 11553 O 600.586 5.78836 6.56315 0
M  V30 11554 C 600.096 3.47817 6.12078 0
M  V30 11555 C 600.806 3.39414 4.77697 0
M  V30 11556 N 600.756 2.04615 4.15333 0
M  V30 11557 C 600.606 1.96929 2.77162 0
M  V30 11558 O 600.516 3.02017 2.12006 0
M  V30 11559 N 600.556 0.55485 2.24237 0
M  V30 11560 C 600.656 -0.367808 2.9169 0
M  V30 11561 N 600.606 -1.53426 2.29427 0
M  V30 11562 C 600.806 -0.319148 4.33828 0
M  V30 11563 C 600.856 0.920672 4.90433 0
M  V30 11564 H 603.596 3.41209 7.98667 0
M  V30 11565 H 603.866 2.5837 6.41742 0
M  V30 11566 H 602.999 5.02718 6.42752 0
M  V30 11567 H 600.344 4.11779 4.09026 0
M  V30 11568 H 600.064 2.49661 6.61772 0
M  V30 11569 H 599.073 3.86674 6.00946 0
M  V30 11570 H 600.907 4.29991 7.97006 0
M  V30 11571 H 600.979 1.00589 5.98303 0
M  V30 11572 H 600.877 -1.22639 4.93799 0
M  V30 11573 H 600.489 -1.56819 1.27167 0
M  V30 11574 H 600.685 -2.41062 2.83063 0
M  V30 11575 P 599.036 6.144 6.45285 0
M  V30 11576 O 598.816 7.54673 6.86199 0
M  V30 11577 O 598.246 5.12391 7.179 0
M  V30 11578 O 598.786 5.99236 4.88467 0
M  V30 11579 C 599.726 6.60234 3.96415 0
M  V30 11580 C 598.996 7.08079 2.736 0
M  V30 11581 O 598.786 5.94365 1.8368 0
M  V30 11582 C 597.596 7.64886 2.9555 0
M  V30 11583 O 597.206 8.5406 1.90739 0
M  V30 11584 C 596.716 6.4116 2.90739 0
M  V30 11585 C 597.426 5.55375 1.86963 0
M  V30 11586 N 597.376 4.09664 2.15742 0
M  V30 11587 C 597.226 3.22231 1.08477 0
M  V30 11588 O 597.136 3.68951 -0.0600489 0
M  V30 11589 N 597.176 1.76692 1.48799 0
M  V30 11590 C 597.276 1.41695 2.57602 0
M  V30 11591 N 597.226 0.107296 2.75791 0
M  V30 11592 C 597.426 2.29178 3.69733 0
M  V30 11593 C 597.476 3.62753 3.42653 0
M  V30 11594 H 600.216 7.45488 4.45578 0
M  V30 11595 H 600.486 5.86232 3.67314 0
M  V30 11596 H 599.619 7.84508 2.24507 0
M  V30 11597 H 596.964 5.73556 0.888715 0
M  V30 11598 H 596.684 5.9096 3.88638 0
M  V30 11599 H 595.693 6.66053 2.58894 0
M  V30 11600 H 597.527 8.16339 3.92049 0
M  V30 11601 H 597.599 4.33052 4.24913 0
M  V30 11602 H 597.497 1.9103 4.71577 0
M  V30 11603 H 597.109 -0.521221 1.95056 0
M  V30 11604 H 597.305 -0.286429 3.70695 0
M  V30 11605 P 595.656 8.7635 1.60911 0
M  V30 11606 O 595.437 10.1388 1.11561 0
M  V30 11607 O 594.866 8.36503 2.79617 0
M  V30 11608 O 595.406 7.71806 0.42951 0
M  V30 11609 C 596.346 7.67148 -0.673689 0
M  V30 11610 C 595.616 7.33374 -1.95559 0
M  V30 11611 O 595.406 5.88721 -2.00726 0
M  V30 11612 C 594.216 7.92526 -2.10483 0
M  V30 11613 O 593.827 8.02971 -3.47653 0
M  V30 11614 C 593.337 6.89602 -1.41652 0
M  V30 11615 C 594.046 5.59201 -1.75185 0
M  V30 11616 N 593.996 4.58235 -0.662552 0
M  V30 11617 H 596.836 8.65116 -0.777161 0
M  V30 11618 H 597.107 6.90173 -0.474152 0
M  V30 11619 H 596.24 7.66548 -2.79458 0
M  V30 11620 P 592.277 8.03563 -3.84925 0
M  V30 11621 O 592.057 8.85821 -5.0569 0
M  V30 11622 O 591.487 8.41101 -2.65469 0
M  V30 11623 O 592.027 6.49734 -4.18962 0
M  V30 11624 C 592.967 5.81037 -5.05421 0
M  V30 11625 C 592.237 4.79018 -5.88876 0
M  V30 11626 O 592.027 3.58359 -5.08515 0
M  V30 11627 C 590.837 5.17448 -6.36119 0
M  V30 11628 O 590.447 4.45322 -7.53318 0
M  V30 11629 C 589.957 4.74639 -5.19936 0
M  V30 11630 C 590.667 3.49432 -4.70418 0
M  V30 11631 N 590.617 3.31776 -3.22945 0
M  V30 11632 C 590.467 2.02742 -2.72939 0
M  V30 11633 O 590.377 1.08301 -3.52749 0
M  V30 11634 N 590.417 1.96117 -1.22063 0
M  V30 11635 C 590.517 2.8878 -0.551566 0
M  V30 11636 N 590.467 2.65609 0.750198 0
M  V30 11637 C 590.667 4.22457 -1.03707 0
M  V30 11638 C 590.717 4.37979 -2.39113 0
M  V30 11639 H 593.457 6.54138 -5.7131 0
M  V30 11640 H 593.727 5.30492 -4.44033 0
M  V30 11641 H 592.86 4.55945 -6.76735 0
M  V30 11642 H 590.205 2.6176 -5.18021 0
M  V30 11643 H 589.925 5.52233 -4.41941 0
M  V30 11644 H 588.934 4.52045 -5.53452 0
M  V30 11645 H 590.768 6.25124 -6.55234 0
M  V30 11646 H 590.84 5.37936 -2.80552 0
M  V30 11647 H 590.738 5.07528 -0.359553 0
M  V30 11648 H 590.35 1.69403 1.09847 0
M  V30 11649 H 590.546 3.43701 1.41792 0
M  V30 11650 P 588.897 4.23843 -7.83734 0
M  V30 11651 O 588.677 4.19407 -9.29784 0
M  V30 11652 O 588.107 5.24426 -7.09156 0
M  V30 11653 O 588.647 2.7935 -7.20758 0
M  V30 11654 C 589.587 1.72945 -7.50224 0
M  V30 11655 C 588.857 0.406376 -7.57911 0
M  V30 11656 O 588.647 -0.0897726 -6.21935 0
M  V30 11657 C 587.457 0.438983 -8.18724 0
M  V30 11658 O 587.067 -0.825065 -8.71101 0
M  V30 11659 C 586.577 0.783689 -6.99524 0
M  V30 11660 C 587.287 0.0619086 -5.85867 0
M  V30 11661 N 587.237 0.78573 -4.56183 0
M  V30 11662 C 587.087 0.0292889 -3.41887 0
M  V30 11663 O 586.997 -1.18445 -3.4419 0
M  V30 11664 N 587.047 0.744061 -2.23964 0
M  V30 11665 C 587.137 2.10932 -2.10362 0
M  V30 11666 C 587.287 2.8202 -3.34994 0
M  V30 11667 C 587.337 2.15547 -4.52261 0
M  V30 11668 H 590.078 1.93379 -8.46595 0
M  V30 11669 H 590.347 1.68132 -6.70852 0
M  V30 11670 H 589.48 -0.289041 -8.15388 0
M  V30 11671 H 586.825 -0.926847 -5.72749 0
M  V30 11672 H 586.546 1.86973 -6.82036 0
M  V30 11673 H 585.554 0.403896 -7.13257 0
M  V30 11674 H 587.388 1.20585 -8.97435 0
M  V30 11675 H 587.459 2.71231 -5.45042 0
M  V30 11676 P 585.517 -1.17771 -8.83182 0
M  V30 11677 O 585.297 -2.07206 -9.98732 0
M  V30 11678 O 584.727 0.0743816 -8.81969 0
M  V30 11679 O 585.267 -1.97678 -7.474 0
M  V30 11680 C 586.207 -3.01133 -7.08783 0
M  V30 11681 C 585.477 -4.1203 -6.37546 0
M  V30 11682 O 585.267 -3.72887 -4.9796 0
M  V30 11683 C 584.077 -4.45085 -6.88694 0
M  V30 11684 O 583.687 -5.78836 -6.56315 0
M  V30 11685 C 583.197 -3.47817 -6.12078 0
M  V30 11686 C 583.907 -3.39414 -4.77697 0
M  V30 11687 N 583.857 -2.04615 -4.15333 0
M  V30 11688 C 583.707 -1.96929 -2.77162 0
M  V30 11689 O 583.617 -3.02017 -2.12006 0
M  V30 11690 N 583.657 -0.55485 -2.24237 0
M  V30 11691 C 583.757 0.367808 -2.9169 0
M  V30 11692 N 583.707 1.53426 -2.29427 0
M  V30 11693 C 583.907 0.319148 -4.33828 0
M  V30 11694 C 583.957 -0.920672 -4.90433 0
M  V30 11695 H 586.697 -3.41209 -7.98667 0
M  V30 11696 H 586.967 -2.5837 -6.41742 0
M  V30 11697 H 586.1 -5.02718 -6.42752 0
M  V30 11698 H 583.445 -4.11779 -4.09026 0
M  V30 11699 H 583.165 -2.49661 -6.61772 0
M  V30 11700 H 582.174 -3.86674 -6.00946 0
M  V30 11701 H 584.008 -4.29991 -7.97006 0
M  V30 11702 H 584.08 -1.00589 -5.98303 0
M  V30 11703 H 583.978 1.22639 -4.93799 0
M  V30 11704 H 583.59 1.56819 -1.27167 0
M  V30 11705 H 583.786 2.41062 -2.83063 0
M  V30 11706 P 582.137 -6.144 -6.45285 0
M  V30 11707 O 581.917 -7.54673 -6.86199 0
M  V30 11708 O 581.347 -5.12391 -7.179 0
M  V30 11709 O 581.887 -5.99158 -4.88404 0
M  V30 11710 C 582.827 -6.60234 -3.96415 0
M  V30 11711 C 582.097 -7.08259 -2.72856 0
M  V30 11712 O 581.887 -5.9427 -1.83651 0
M  V30 11713 C 580.697 -7.64886 -2.9555 0
M  V30 11714 O 580.307 -8.53963 -1.90717 0
M  V30 11715 C 579.817 -6.4116 -2.90739 0
M  V30 11716 C 580.527 -5.55375 -1.86963 0
M  V30 11717 N 580.477 -4.09448 -2.16152 0
M  V30 11718 H 583.316 -7.45574 -4.45629 0
M  V30 11719 H 583.588 -5.85864 -3.679 0
M  V30 11720 H 582.72 -7.84412 -2.24479 0
M  V30 11721 H 580.065 -5.73457 -0.888562 0
M  V30 11722 H 579.785 -5.90877 -3.88583 0
M  V30 11723 H 578.794 -6.6596 -2.58858 0
M  V30 11724 H 580.628 -8.16339 -3.92049 0
M  V30 11725 P 578.757 -8.7635 -1.60911 0
M  V30 11726 O 578.537 -10.1388 -1.11561 0
M  V30 11727 O 577.967 -8.36503 -2.79617 0
M  V30 11728 O 578.507 -7.71806 -0.42951 0
M  V30 11729 C 579.447 -7.66948 0.673514 0
M  V30 11730 C 578.717 -7.33374 1.95559 0
M  V30 11731 O 578.507 -5.88721 2.00726 0
M  V30 11732 C 577.317 -7.92218 2.1125 0
M  V30 11733 O 576.927 -8.02971 3.47653 0
M  V30 11734 C 576.437 -6.89504 1.41631 0
M  V30 11735 C 577.147 -5.59106 1.75155 0
M  V30 11736 N 577.097 -4.58136 0.662409 0
M  V30 11737 C 576.947 -3.26059 1.02863 0
M  V30 11738 O 576.857 -2.90743 2.19009 0
M  V30 11739 N 576.907 -2.35995 -0.0155585 0
M  V30 11740 C 576.997 -2.65248 -1.35603 0
M  V30 11741 C 577.147 -4.05747 -1.64698 0
M  V30 11742 C 577.197 -4.96734 -0.652411 0
M  V30 11743 H 579.938 -8.64917 0.776982 0
M  V30 11744 H 580.207 -6.89974 0.474015 0
M  V30 11745 H 579.34 -7.66548 2.79458 0
M  V30 11746 H 576.685 -5.16076 2.65138 0
M  V30 11747 H 576.406 -7.06433 0.329384 0
M  V30 11748 H 575.414 -6.90829 1.81996 0
M  V30 11749 H 577.248 -8.90774 1.62639 0
M  V30 11750 H 577.319 -6.02181 -0.895285 0
M  V30 11751 P 575.377 -8.03563 3.84925 0
M  V30 11752 O 575.157 -8.85821 5.0569 0
M  V30 11753 O 574.587 -8.41101 2.65469 0
M  V30 11754 O 575.127 -6.4965 4.18908 0
M  V30 11755 C 576.067 -5.81037 5.05421 0
M  V30 11756 C 575.337 -4.78366 5.89277 0
M  V30 11757 O 575.127 -3.58302 5.08433 0
M  V30 11758 C 573.937 -5.17448 6.36119 0
M  V30 11759 O 573.547 -4.45271 7.53232 0
M  V30 11760 C 573.057 -4.74639 5.19936 0
M  V30 11761 C 573.767 -3.49432 4.70418 0
M  V30 11762 N 573.717 -3.31776 3.22945 0
M  V30 11763 H 576.556 -6.54213 5.71376 0
M  V30 11764 H 576.828 -5.30492 4.44033 0
M  V30 11765 H 575.96 -4.55889 6.76652 0
M  V30 11766 P 571.997 -4.23843 7.83734 0
M  V30 11767 O 571.777 -4.19407 9.29784 0
M  V30 11768 O 571.207 -5.24426 7.09156 0
M  V30 11769 O 571.747 -2.7935 7.20758 0
M  V30 11770 C 572.687 -1.72945 7.50224 0
M  V30 11771 C 571.957 -0.406376 7.57911 0
M  V30 11772 O 571.747 0.0897726 6.21935 0
M  V30 11773 C 570.557 -0.438983 8.18724 0
M  V30 11774 O 570.167 0.825065 8.71101 0
M  V30 11775 C 569.677 -0.783689 6.99524 0
M  V30 11776 C 570.387 -0.0619086 5.85867 0
M  V30 11777 N 570.337 -0.78573 4.56183 0
M  V30 11778 C 570.187 -0.0292889 3.41887 0
M  V30 11779 O 570.097 1.18445 3.4419 0
M  V30 11780 N 570.147 -0.744061 2.23964 0
M  V30 11781 C 570.237 -2.10932 2.10362 0
M  V30 11782 C 570.387 -2.8202 3.34994 0
M  V30 11783 C 570.437 -2.15547 4.52261 0
M  V30 11784 H 573.178 -1.93379 8.46595 0
M  V30 11785 H 573.447 -1.68132 6.70852 0
M  V30 11786 H 572.58 0.289041 8.15388 0
M  V30 11787 H 569.925 0.926847 5.72749 0
M  V30 11788 H 569.646 -1.86973 6.82036 0
M  V30 11789 H 568.654 -0.403896 7.13257 0
M  V30 11790 H 570.488 -1.20585 8.97435 0
M  V30 11791 H 570.559 -2.71231 5.45042 0
M  V30 11792 P 568.617 1.17771 8.83182 0
M  V30 11793 O 568.397 2.07206 9.98732 0
M  V30 11794 O 567.827 -0.0743816 8.81969 0
M  V30 11795 O 568.367 1.97652 7.47304 0
M  V30 11796 C 569.307 3.01133 7.08783 0
M  V30 11797 C 568.577 4.12613 6.37049 0
M  V30 11798 O 568.367 3.72827 4.97879 0
M  V30 11799 C 567.177 4.45085 6.88694 0
M  V30 11800 O 566.787 5.7877 6.5624 0
M  V30 11801 C 566.297 3.47817 6.12078 0
M  V30 11802 C 567.007 3.39414 4.77697 0
M  V30 11803 N 566.957 2.04199 4.15538 0
M  V30 11804 H 569.796 3.41248 7.98759 0
M  V30 11805 H 570.068 2.57728 6.42 0
M  V30 11806 H 569.2 5.02657 6.42673 0
M  V30 11807 H 566.545 4.11708 4.08956 0
M  V30 11808 H 566.265 2.49626 6.61679 0
M  V30 11809 H 565.274 3.8662 6.00862 0
M  V30 11810 H 567.108 4.29991 7.97006 0
M  V30 11811 P 565.237 6.144 6.45285 0
M  V30 11812 O 565.017 7.54673 6.86199 0
M  V30 11813 O 564.447 5.12391 7.179 0
M  V30 11814 O 564.987 5.99158 4.88404 0
M  V30 11815 C 565.927 6.60234 3.96415 0
M  V30 11816 C 565.197 7.08259 2.72856 0
M  V30 11817 O 564.987 5.9427 1.83651 0
M  V30 11818 C 563.797 7.64886 2.9555 0
M  V30 11819 O 563.407 8.53963 1.90717 0
M  V30 11820 C 562.917 6.4116 2.90739 0
M  V30 11821 C 563.627 5.55375 1.86963 0
M  V30 11822 N 563.577 4.09448 2.16152 0
M  V30 11823 H 566.416 7.45574 4.45629 0
M  V30 11824 H 566.688 5.85864 3.679 0
M  V30 11825 H 565.82 7.84412 2.24479 0
M  V30 11826 H 563.165 5.73457 0.888562 0
M  V30 11827 H 562.885 5.90877 3.88583 0
M  V30 11828 H 561.894 6.6596 2.58858 0
M  V30 11829 H 563.728 8.16339 3.92049 0
M  V30 11830 P 561.857 8.7635 1.60911 0
M  V30 11831 O 561.637 10.1388 1.11561 0
M  V30 11832 O 561.067 8.36503 2.79617 0
M  V30 11833 O 561.607 7.71806 0.42951 0
M  V30 11834 C 562.547 7.67148 -0.673689 0
M  V30 11835 C 561.817 7.33374 -1.95559 0
M  V30 11836 O 561.607 5.88721 -2.00726 0
M  V30 11837 C 560.417 7.92526 -2.10483 0
M  V30 11838 O 560.027 8.02971 -3.47653 0
M  V30 11839 C 559.537 6.89602 -1.41652 0
M  V30 11840 C 560.247 5.59201 -1.75185 0
M  V30 11841 N 560.197 4.58235 -0.662552 0
M  V30 11842 H 563.036 8.65116 -0.777161 0
M  V30 11843 H 563.308 6.90173 -0.474152 0
M  V30 11844 H 562.44 7.66548 -2.79458 0
M  V30 11845 P 558.477 8.03563 -3.84925 0
M  V30 11846 O 558.257 8.85821 -5.0569 0
M  V30 11847 O 557.687 8.41101 -2.65469 0
M  V30 11848 O 558.227 6.49734 -4.18962 0
M  V30 11849 C 559.167 5.81037 -5.05421 0
M  V30 11850 C 558.437 4.79018 -5.88876 0
M  V30 11851 O 558.227 3.58359 -5.08515 0
M  V30 11852 C 557.037 5.17448 -6.36119 0
M  V30 11853 O 556.647 4.45322 -7.53318 0
M  V30 11854 C 556.157 4.74639 -5.19936 0
M  V30 11855 C 556.867 3.49432 -4.70418 0
M  V30 11856 N 556.817 3.31776 -3.22945 0
M  V30 11857 C 556.667 2.02742 -2.72939 0
M  V30 11858 O 556.577 1.08301 -3.52749 0
M  V30 11859 N 556.617 1.96117 -1.22063 0
M  V30 11860 C 556.717 2.8878 -0.551566 0
M  V30 11861 N 556.667 2.65609 0.750198 0
M  V30 11862 C 556.867 4.22457 -1.03707 0
M  V30 11863 C 556.917 4.37979 -2.39113 0
M  V30 11864 H 559.657 6.54138 -5.7131 0
M  V30 11865 H 559.927 5.30492 -4.44033 0
M  V30 11866 H 559.06 4.55945 -6.76735 0
M  V30 11867 H 556.405 2.6176 -5.18021 0
M  V30 11868 H 556.125 5.52233 -4.41941 0
M  V30 11869 H 555.134 4.52045 -5.53452 0
M  V30 11870 H 556.968 6.25124 -6.55234 0
M  V30 11871 H 557.04 5.37936 -2.80552 0
M  V30 11872 H 556.938 5.07528 -0.359553 0
M  V30 11873 H 556.55 1.69403 1.09847 0
M  V30 11874 H 556.746 3.43701 1.41792 0
M  V30 11875 P 555.097 4.23843 -7.83734 0
M  V30 11876 O 554.877 4.19407 -9.29784 0
M  V30 11877 O 554.307 5.24426 -7.09156 0
M  V30 11878 O 554.847 2.7935 -7.20758 0
M  V30 11879 C 555.787 1.7299 -7.50419 0
M  V30 11880 C 555.057 0.406376 -7.57911 0
M  V30 11881 O 554.847 -0.0897726 -6.21935 0
M  V30 11882 C 553.657 0.447224 -8.1878 0
M  V30 11883 O 553.267 -0.825065 -8.71101 0
M  V30 11884 C 552.777 0.783801 -6.99623 0
M  V30 11885 C 553.487 0.0619192 -5.85967 0
M  V30 11886 N 553.437 0.790462 -4.56202 0
M  V30 11887 H 556.276 1.93423 -8.4679 0
M  V30 11888 H 556.548 1.68852 -6.70877 0
M  V30 11889 H 555.68 -0.289041 -8.15388 0
M  V30 11890 H 553.025 -0.927006 -5.72848 0
M  V30 11891 H 552.745 1.86973 -6.82036 0
M  V30 11892 H 551.754 0.403953 -7.13357 0
M  V30 11893 H 553.588 1.20599 -8.97534 0
M  V30 11894 P 551.717 -1.17771 -8.83182 0
M  V30 11895 O 551.497 -2.07206 -9.98732 0
M  V30 11896 O 550.927 0.0743816 -8.81969 0
M  V30 11897 O 551.467 -1.97652 -7.47304 0
M  V30 11898 C 552.407 -3.01133 -7.08783 0
M  V30 11899 C 551.677 -4.12613 -6.37049 0
M  V30 11900 O 551.467 -3.72827 -4.97879 0
M  V30 11901 C 550.277 -4.45085 -6.88694 0
M  V30 11902 O 549.887 -5.7877 -6.5624 0
M  V30 11903 C 549.397 -3.47817 -6.12078 0
M  V30 11904 C 550.107 -3.39414 -4.77697 0
M  V30 11905 N 550.057 -2.04615 -4.15333 0
M  V30 11906 H 552.896 -3.41248 -7.98759 0
M  V30 11907 H 553.168 -2.5837 -6.41742 0
M  V30 11908 H 552.3 -5.02657 -6.42673 0
M  V30 11909 P 548.337 -6.144 -6.45285 0
M  V30 11910 O 548.117 -7.54673 -6.86199 0
M  V30 11911 O 547.547 -5.12391 -7.179 0
M  V30 11912 O 548.087 -5.99236 -4.88467 0
M  V30 11913 C 549.027 -6.60234 -3.96415 0
M  V30 11914 C 548.297 -7.08079 -2.736 0
M  V30 11915 O 548.087 -5.94365 -1.8368 0
M  V30 11916 C 546.897 -7.64886 -2.9555 0
M  V30 11917 O 546.507 -8.5406 -1.90739 0
M  V30 11918 C 546.017 -6.4116 -2.90739 0
M  V30 11919 C 546.727 -5.55375 -1.86963 0
M  V30 11920 N 546.677 -4.09664 -2.15742 0
M  V30 11921 C 546.527 -3.22231 -1.08477 0
M  V30 11922 O 546.437 -3.68951 0.0600489 0
M  V30 11923 N 546.477 -1.76692 -1.48799 0
M  V30 11924 C 546.577 -1.41695 -2.57602 0
M  V30 11925 N 546.527 -0.107296 -2.75791 0
M  V30 11926 C 546.727 -2.29178 -3.69733 0
M  V30 11927 C 546.777 -3.62753 -3.42653 0
M  V30 11928 H 549.517 -7.45488 -4.45578 0
M  V30 11929 H 549.787 -5.86232 -3.67314 0
M  V30 11930 H 548.92 -7.84508 -2.24507 0
M  V30 11931 H 546.265 -5.73556 -0.888715 0
M  V30 11932 H 545.985 -5.9096 -3.88638 0
M  V30 11933 H 544.994 -6.66053 -2.58894 0
M  V30 11934 H 546.828 -8.16339 -3.92049 0
M  V30 11935 H 546.9 -4.33052 -4.24913 0
M  V30 11936 H 546.798 -1.9103 -4.71577 0
M  V30 11937 H 546.41 0.521221 -1.95056 0
M  V30 11938 H 546.606 0.286429 -3.70695 0
M  V30 11939 P 544.957 -8.7635 -1.60911 0
M  V30 11940 O 544.737 -10.1388 -1.11561 0
M  V30 11941 O 544.167 -8.36503 -2.79617 0
M  V30 11942 O 544.707 -7.71806 -0.42951 0
M  V30 11943 C 545.647 -7.67148 0.673689 0
M  V30 11944 C 544.917 -7.33374 1.95559 0
M  V30 11945 O 544.707 -5.88721 2.00726 0
M  V30 11946 C 543.517 -7.92526 2.10483 0
M  V30 11947 O 543.127 -8.02971 3.47653 0
M  V30 11948 C 542.637 -6.89602 1.41652 0
M  V30 11949 C 543.347 -5.59201 1.75185 0
M  V30 11950 N 543.297 -4.58235 0.662552 0
M  V30 11951 C 543.377 -4.7683 -0.704049 0
M  V30 11952 N 543.297 -3.66233 -1.39775 0
M  V30 11953 C 543.157 -2.66526 -0.431739 0
M  V30 11954 C 543.027 -1.26394 -0.575992 0
M  V30 11955 N 542.907 -0.62859 0.67177 0
M  V30 11956 C 542.907 -1.27134 1.89385 0
M  V30 11957 N 542.777 -0.492035 2.96951 0
M  V30 11958 N 543.037 -2.58978 2.02907 0
M  V30 11959 C 543.157 -3.22433 0.832218 0
M  V30 11960 H 546.136 -8.65116 0.777161 0
M  V30 11961 H 546.408 -6.90173 0.474152 0
M  V30 11962 H 545.54 -7.66548 2.79458 0
M  V30 11963 P 541.577 -8.03563 3.84925 0
M  V30 11964 O 541.357 -8.85821 5.0569 0
M  V30 11965 O 540.787 -8.41101 2.65469 0
M  V30 11966 O 541.327 -6.49734 4.18962 0
M  V30 11967 C 542.267 -5.81037 5.05421 0
M  V30 11968 C 541.537 -4.79018 5.88876 0
M  V30 11969 O 541.327 -3.58359 5.08515 0
M  V30 11970 C 540.137 -5.17448 6.36119 0
M  V30 11971 O 539.747 -4.45322 7.53318 0
M  V30 11972 C 539.257 -4.74639 5.19936 0
M  V30 11973 C 539.967 -3.49432 4.70418 0
M  V30 11974 N 539.917 -3.31776 3.22945 0
M  V30 11975 C 539.767 -2.02742 2.72939 0
M  V30 11976 O 539.677 -1.08301 3.52749 0
M  V30 11977 N 539.717 -1.96117 1.22063 0
M  V30 11978 C 539.817 -2.8878 0.551566 0
M  V30 11979 N 539.767 -2.65609 -0.750198 0
M  V30 11980 C 539.967 -4.22457 1.03707 0
M  V30 11981 C 540.017 -4.37979 2.39113 0
M  V30 11982 H 542.757 -6.54138 5.7131 0
M  V30 11983 H 543.027 -5.30492 4.44033 0
M  V30 11984 H 542.16 -4.55945 6.76735 0
M  V30 11985 H 539.505 -2.6176 5.18021 0
M  V30 11986 H 539.225 -5.52233 4.41941 0
M  V30 11987 H 538.234 -4.52045 5.53452 0
M  V30 11988 H 540.068 -6.25124 6.55234 0
M  V30 11989 H 540.14 -5.37936 2.80552 0
M  V30 11990 H 540.038 -5.07528 0.359553 0
M  V30 11991 H 539.65 -1.69403 -1.09847 0
M  V30 11992 H 539.846 -3.43701 -1.41792 0
M  V30 11993 P 538.197 -4.23843 7.83734 0
M  V30 11994 O 537.977 -4.19407 9.29784 0
M  V30 11995 O 537.407 -5.24426 7.09156 0
M  V30 11996 O 537.947 -2.7935 7.20758 0
M  V30 11997 C 538.887 -1.7299 7.50419 0
M  V30 11998 C 538.157 -0.406376 7.57911 0
M  V30 11999 O 537.947 0.0897726 6.21935 0
M  V30 12000 C 536.757 -0.447224 8.1878 0
M  V30 12001 O 536.367 0.825065 8.71101 0
M  V30 12002 C 535.877 -0.783801 6.99623 0
M  V30 12003 C 536.587 -0.0619192 5.85967 0
M  V30 12004 N 536.537 -0.7859 4.56281 0
M  V30 12005 C 536.617 -2.14308 4.31736 0
M  V30 12006 N 536.537 -2.46106 3.05116 0
M  V30 12007 C 536.397 -1.23422 2.4014 0
M  V30 12008 C 536.267 -0.938381 1.02409 0
M  V30 12009 N 536.147 0.444647 0.805413 0
M  V30 12010 C 536.147 1.40829 1.79435 0
M  V30 12011 N 536.017 2.67213 1.38558 0
M  V30 12012 N 536.277 1.12947 3.09005 0
M  V30 12013 C 536.397 -0.204887 3.32369 0
M  V30 12014 H 539.376 -1.93423 8.4679 0
M  V30 12015 H 539.648 -1.68181 6.71046 0
M  V30 12016 H 538.78 0.289041 8.15388 0
M  V30 12017 P 534.817 1.17771 8.83182 0
M  V30 12018 O 534.597 2.07206 9.98732 0
M  V30 12019 O 534.027 -0.0743816 8.81969 0
M  V30 12020 O 534.567 1.97652 7.47304 0
M  V30 12021 C 535.507 3.01133 7.08783 0
M  V30 12022 C 534.777 4.12613 6.37049 0
M  V30 12023 O 534.567 3.72827 4.97879 0
M  V30 12024 C 533.377 4.45085 6.88694 0
M  V30 12025 O 532.987 5.7877 6.5624 0
M  V30 12026 C 532.497 3.47817 6.12078 0
M  V30 12027 C 533.207 3.39414 4.77697 0
M  V30 12028 N 533.157 2.04615 4.15333 0
M  V30 12029 H 535.996 3.41248 7.98759 0
M  V30 12030 H 536.268 2.5837 6.41742 0
M  V30 12031 H 535.4 5.02657 6.42673 0
M  V30 12032 P 531.437 6.144 6.45285 0
M  V30 12033 O 531.217 7.54673 6.86199 0
M  V30 12034 O 530.647 5.12391 7.179 0
M  V30 12035 O 531.187 5.99158 4.88404 0
M  V30 12036 C 532.127 6.60234 3.96415 0
M  V30 12037 C 531.397 7.08259 2.72856 0
M  V30 12038 O 531.187 5.9427 1.83651 0
M  V30 12039 C 529.997 7.64886 2.9555 0
M  V30 12040 O 529.607 8.53963 1.90717 0
M  V30 12041 C 529.117 6.4116 2.90739 0
M  V30 12042 C 529.827 5.55375 1.86963 0
M  V30 12043 N 529.777 4.09664 2.15742 0
M  V30 12044 H 532.616 7.45574 4.45629 0
M  V30 12045 H 532.888 5.86232 3.67314 0
M  V30 12046 H 532.02 7.84412 2.24479 0
M  V30 12047 P 528.057 8.7635 1.60911 0
M  V30 12048 O 527.837 10.1388 1.11561 0
M  V30 12049 O 527.267 8.36503 2.79617 0
M  V30 12050 O 527.807 7.71806 0.42951 0
M  V30 12051 C 528.747 7.67148 -0.673689 0
M  V30 12052 C 528.017 7.33374 -1.95559 0
M  V30 12053 O 527.807 5.88721 -2.00726 0
M  V30 12054 C 526.617 7.92526 -2.10483 0
M  V30 12055 O 526.227 8.02971 -3.47653 0
M  V30 12056 C 525.737 6.89602 -1.41652 0
M  V30 12057 C 526.447 5.59201 -1.75185 0
M  V30 12058 N 526.397 4.58235 -0.662552 0
M  V30 12059 C 526.477 4.7683 0.704049 0
M  V30 12060 N 526.397 3.66233 1.39775 0
M  V30 12061 C 526.257 2.66526 0.431739 0
M  V30 12062 C 526.127 1.26394 0.575992 0
M  V30 12063 N 526.007 0.62859 -0.67177 0
M  V30 12064 C 526.007 1.27134 -1.89385 0
M  V30 12065 N 525.877 0.492035 -2.96951 0
M  V30 12066 N 526.137 2.58978 -2.02907 0
M  V30 12067 C 526.257 3.22433 -0.832218 0
M  V30 12068 H 529.236 8.65116 -0.777161 0
M  V30 12069 H 529.508 6.90173 -0.474152 0
M  V30 12070 H 528.64 7.66548 -2.79458 0
M  V30 12071 P 524.677 8.03563 -3.84925 0
M  V30 12072 O 524.457 8.85821 -5.0569 0
M  V30 12073 O 523.887 8.41101 -2.65469 0
M  V30 12074 O 524.427 6.49734 -4.18962 0
M  V30 12075 C 525.367 5.81037 -5.05421 0
M  V30 12076 C 524.637 4.79018 -5.88876 0
M  V30 12077 O 524.427 3.58359 -5.08515 0
M  V30 12078 C 523.237 5.17448 -6.36119 0
M  V30 12079 O 522.847 4.45322 -7.53318 0
M  V30 12080 C 522.357 4.74639 -5.19936 0
M  V30 12081 C 523.067 3.49432 -4.70418 0
M  V30 12082 N 523.017 3.31776 -3.22945 0
M  V30 12083 C 522.867 2.02742 -2.72939 0
M  V30 12084 O 522.777 1.08301 -3.52749 0
M  V30 12085 N 522.817 1.96117 -1.22063 0
M  V30 12086 C 522.917 2.8878 -0.551566 0
M  V30 12087 N 522.867 2.65609 0.750198 0
M  V30 12088 C 523.067 4.22457 -1.03707 0
M  V30 12089 C 523.117 4.37979 -2.39113 0
M  V30 12090 H 525.857 6.54138 -5.7131 0
M  V30 12091 H 526.127 5.30492 -4.44033 0
M  V30 12092 H 525.26 4.55945 -6.76735 0
M  V30 12093 H 522.605 2.6176 -5.18021 0
M  V30 12094 H 522.325 5.52233 -4.41941 0
M  V30 12095 H 521.334 4.52045 -5.53452 0
M  V30 12096 H 523.168 6.25124 -6.55234 0
M  V30 12097 H 523.24 5.37936 -2.80552 0
M  V30 12098 H 523.138 5.07528 -0.359553 0
M  V30 12099 H 522.75 1.69403 1.09847 0
M  V30 12100 H 522.946 3.43701 1.41792 0
M  V30 12101 P 521.297 4.23843 -7.83734 0
M  V30 12102 O 521.077 4.19407 -9.29784 0
M  V30 12103 O 520.507 5.24426 -7.09156 0
M  V30 12104 O 521.047 2.79386 -7.20852 0
M  V30 12105 C 521.987 1.7299 -7.50419 0
M  V30 12106 C 521.257 0.41401 -7.5797 0
M  V30 12107 O 521.047 -0.089787 -6.22035 0
M  V30 12108 C 519.857 0.447224 -8.1878 0
M  V30 12109 O 519.467 -0.825159 -8.71201 0
M  V30 12110 C 518.977 0.783801 -6.99623 0
M  V30 12111 C 519.687 0.0619192 -5.85967 0
M  V30 12112 N 519.637 0.7859 -4.56281 0
M  V30 12113 C 519.487 0.0359258 -3.39981 0
M  V30 12114 O 519.397 -1.19723 -3.49038 0
M  V30 12115 N 519.437 0.869151 -2.14025 0
M  V30 12116 C 519.537 2.01207 -2.14363 0
M  V30 12117 N 519.487 2.58978 -0.954287 0
M  V30 12118 C 519.687 2.80817 -3.32215 0
M  V30 12119 C 519.737 2.13785 -4.50884 0
M  V30 12120 H 522.477 1.93401 -8.46693 0
M  V30 12121 H 522.747 1.68181 -6.71046 0
M  V30 12122 H 521.88 -0.289076 -8.15488 0
M  V30 12123 H 519.225 -0.927166 -5.72947 0
M  V30 12124 H 518.945 1.87 -6.82132 0
M  V30 12125 H 517.954 0.404009 -7.13457 0
M  V30 12126 H 519.788 1.20599 -8.97534 0
M  V30 12127 H 519.86 2.70295 -5.43162 0
M  V30 12128 H 519.758 3.89465 -3.27406 0
M  V30 12129 H 519.37 2.01616 -0.107046 0
M  V30 12130 H 519.566 3.61403 -0.873101 0
M  V30 12131 P 517.917 -1.17771 -8.83182 0
M  V30 12132 O 517.697 -2.07206 -9.98732 0
M  V30 12133 O 517.127 0.0743816 -8.81969 0
M  V30 12134 O 517.667 -1.97652 -7.47304 0
M  V30 12135 C 518.607 -3.01133 -7.08783 0
M  V30 12136 C 517.877 -4.12613 -6.37049 0
M  V30 12137 O 517.667 -3.72827 -4.97879 0
M  V30 12138 C 516.477 -4.45085 -6.88694 0
M  V30 12139 O 516.087 -5.7877 -6.5624 0
M  V30 12140 C 515.597 -3.47817 -6.12078 0
M  V30 12141 C 516.307 -3.39414 -4.77697 0
M  V30 12142 N 516.257 -2.04615 -4.15333 0
M  V30 12143 C 516.337 -0.803897 -4.75249 0
M  V30 12144 N 516.257 0.197615 -3.91502 0
M  V30 12145 C 516.117 -0.413002 -2.66823 0
M  V30 12146 C 515.987 0.157221 -1.38007 0
M  V30 12147 N 515.867 -0.833136 -0.390236 0
M  V30 12148 C 515.867 -2.19402 -0.623885 0
M  V30 12149 N 515.737 -2.97622 0.449677 0
M  V30 12150 N 515.997 -2.73005 -1.83601 0
M  V30 12151 C 516.117 -1.78786 -2.80935 0
M  V30 12152 H 519.096 -3.41248 -7.98759 0
M  V30 12153 H 519.368 -2.5837 -6.41742 0
M  V30 12154 H 518.5 -5.02657 -6.42673 0
M  V30 12155 P 514.537 -6.144 -6.45285 0
M  V30 12156 O 514.317 -7.54673 -6.86199 0
M  V30 12157 O 513.747 -5.12391 -7.179 0
M  V30 12158 O 514.287 -5.99158 -4.88404 0
M  V30 12159 C 515.227 -6.60234 -3.96415 0
M  V30 12160 C 514.497 -7.08259 -2.72856 0
M  V30 12161 O 514.287 -5.9427 -1.83651 0
M  V30 12162 C 513.097 -7.64886 -2.9555 0
M  V30 12163 O 512.707 -8.53963 -1.90717 0
M  V30 12164 C 512.217 -6.4116 -2.90739 0
M  V30 12165 C 512.927 -5.55375 -1.86963 0
M  V30 12166 N 512.877 -4.09448 -2.16152 0
M  V30 12167 H 515.716 -7.45574 -4.45629 0
M  V30 12168 H 515.988 -5.85864 -3.679 0
M  V30 12169 H 515.12 -7.84412 -2.24479 0
M  V30 12170 H 512.465 -5.73457 -0.888562 0
M  V30 12171 H 512.185 -5.90877 -3.88583 0
M  V30 12172 H 511.194 -6.6596 -2.58858 0
M  V30 12173 H 513.028 -8.16339 -3.92049 0
M  V30 12174 P 511.157 -8.7635 -1.60911 0
M  V30 12175 O 510.937 -10.1388 -1.11561 0
M  V30 12176 O 510.367 -8.36503 -2.79617 0
M  V30 12177 O 510.907 -7.71806 -0.42951 0
M  V30 12178 C 511.847 -7.67148 0.673689 0
M  V30 12179 C 511.117 -7.33374 1.95559 0
M  V30 12180 O 510.907 -5.88721 2.00726 0
M  V30 12181 C 509.717 -7.92526 2.10483 0
M  V30 12182 O 509.327 -8.02971 3.47653 0
M  V30 12183 C 508.837 -6.89602 1.41652 0
M  V30 12184 C 509.547 -5.59201 1.75185 0
M  V30 12185 N 509.497 -4.58301 0.657969 0
M  V30 12186 H 512.336 -8.65116 0.777161 0
M  V30 12187 H 512.608 -6.9022 0.46725 0
M  V30 12188 H 511.74 -7.66548 2.79458 0
M  V30 12189 H 509.085 -5.16165 2.65183 0
M  V30 12190 H 508.805 -7.06433 0.329384 0
M  V30 12191 H 507.814 -6.90926 1.82021 0
M  V30 12192 H 509.648 -8.90873 1.62657 0
M  V30 12193 P 507.777 -8.03563 3.84925 0
M  V30 12194 O 507.557 -8.85821 5.0569 0
M  V30 12195 O 506.987 -8.41101 2.65469 0
M  V30 12196 O 507.527 -6.4965 4.18908 0
M  V30 12197 C 508.467 -5.81037 5.05421 0
M  V30 12198 C 507.737 -4.78366 5.89277 0
M  V30 12199 O 507.527 -3.58302 5.08433 0
M  V30 12200 C 506.337 -5.17448 6.36119 0
M  V30 12201 O 505.947 -4.45271 7.53232 0
M  V30 12202 C 505.457 -4.74639 5.19936 0
M  V30 12203 C 506.167 -3.49432 4.70418 0
M  V30 12204 N 506.117 -3.31776 3.22945 0
M  V30 12205 H 508.956 -6.54213 5.71376 0
M  V30 12206 H 509.228 -5.30492 4.44033 0
M  V30 12207 H 508.36 -4.55889 6.76652 0
M  V30 12208 P 504.397 -4.23843 7.83734 0
M  V30 12209 O 504.177 -4.19407 9.29784 0
M  V30 12210 O 503.607 -5.24426 7.09156 0
M  V30 12211 O 504.147 -2.79386 7.20852 0
M  V30 12212 C 505.087 -1.7299 7.50419 0
M  V30 12213 C 504.357 -0.41401 7.5797 0
M  V30 12214 O 504.147 0.089787 6.22035 0
M  V30 12215 C 502.957 -0.447224 8.1878 0
M  V30 12216 O 502.567 0.825159 8.71201 0
M  V30 12217 C 502.077 -0.783801 6.99623 0
M  V30 12218 C 502.787 -0.0619192 5.85967 0
M  V30 12219 N 502.737 -0.7859 4.56281 0
M  V30 12220 C 502.587 -0.0359258 3.39981 0
M  V30 12221 O 502.497 1.19723 3.49038 0
M  V30 12222 N 502.537 -0.869151 2.14025 0
M  V30 12223 C 502.637 -2.01207 2.14363 0
M  V30 12224 N 502.587 -2.58978 0.954287 0
M  V30 12225 C 502.787 -2.80817 3.32215 0
M  V30 12226 C 502.837 -2.13785 4.50884 0
M  V30 12227 H 505.577 -1.93401 8.46693 0
M  V30 12228 H 505.847 -1.68181 6.71046 0
M  V30 12229 H 504.98 0.289076 8.15488 0
M  V30 12230 H 502.325 0.927166 5.72947 0
M  V30 12231 H 502.045 -1.87 6.82132 0
M  V30 12232 H 501.054 -0.404009 7.13457 0
M  V30 12233 H 502.888 -1.20599 8.97534 0
M  V30 12234 H 502.96 -2.70295 5.43162 0
M  V30 12235 H 502.858 -3.89465 3.27406 0
M  V30 12236 H 502.47 -2.01616 0.107046 0
M  V30 12237 H 502.666 -3.61403 0.873101 0
M  V30 12238 P 501.017 1.17771 8.83182 0
M  V30 12239 O 500.797 2.07206 9.98732 0
M  V30 12240 O 500.227 -0.0743816 8.81969 0
M  V30 12241 O 500.767 1.97678 7.474 0
M  V30 12242 C 501.707 3.01133 7.08783 0
M  V30 12243 C 500.977 4.1203 6.37546 0
M  V30 12244 O 500.767 3.72887 4.9796 0
M  V30 12245 C 499.577 4.45085 6.88694 0
M  V30 12246 O 499.187 5.78836 6.56315 0
M  V30 12247 C 498.697 3.47817 6.12078 0
M  V30 12248 C 499.407 3.39414 4.77697 0
M  V30 12249 N 499.357 2.04615 4.15333 0
M  V30 12250 C 499.207 1.96929 2.77162 0
M  V30 12251 O 499.117 3.02017 2.12006 0
M  V30 12252 N 499.157 0.55485 2.24237 0
M  V30 12253 C 499.257 -0.367808 2.9169 0
M  V30 12254 N 499.207 -1.53426 2.29427 0
M  V30 12255 C 499.407 -0.319148 4.33828 0
M  V30 12256 C 499.457 0.920672 4.90433 0
M  V30 12257 H 502.197 3.41209 7.98667 0
M  V30 12258 H 502.467 2.5837 6.41742 0
M  V30 12259 H 501.6 5.02718 6.42752 0
M  V30 12260 H 498.945 4.11779 4.09026 0
M  V30 12261 H 498.665 2.49661 6.61772 0
M  V30 12262 H 497.674 3.86674 6.00946 0
M  V30 12263 H 499.508 4.29991 7.97006 0
M  V30 12264 H 499.58 1.00589 5.98303 0
M  V30 12265 H 499.478 -1.22639 4.93799 0
M  V30 12266 H 499.09 -1.56819 1.27167 0
M  V30 12267 H 499.286 -2.41062 2.83063 0
M  V30 12268 P 497.637 6.144 6.45285 0
M  V30 12269 O 497.417 7.54673 6.86199 0
M  V30 12270 O 496.847 5.12391 7.179 0
M  V30 12271 O 497.387 5.99158 4.88404 0
M  V30 12272 C 498.327 6.60234 3.96415 0
M  V30 12273 C 497.597 7.08259 2.72856 0
M  V30 12274 O 497.387 5.9427 1.83651 0
M  V30 12275 C 496.197 7.64886 2.9555 0
M  V30 12276 O 495.807 8.53963 1.90717 0
M  V30 12277 C 495.317 6.4116 2.90739 0
M  V30 12278 C 496.027 5.55375 1.86963 0
M  V30 12279 N 495.977 4.09664 2.15742 0
M  V30 12280 C 496.057 3.44381 3.37233 0
M  V30 12281 N 495.977 2.14131 3.28347 0
M  V30 12282 C 495.837 1.90247 1.91588 0
M  V30 12283 C 495.707 0.683992 1.20892 0
M  V30 12284 N 495.587 0.903396 -0.173998 0
M  V30 12285 C 495.587 2.14171 -0.784879 0
M  V30 12286 N 495.457 2.1435 -2.11317 0
M  V30 12287 N 495.717 3.28784 -0.119316 0
M  V30 12288 C 495.837 3.0977 1.22194 0
M  V30 12289 H 498.816 7.45574 4.45629 0
M  V30 12290 H 499.088 5.86232 3.67314 0
M  V30 12291 H 498.22 7.84412 2.24479 0
M  V30 12292 P 494.257 8.7635 1.60911 0
M  V30 12293 O 494.037 10.1388 1.11561 0
M  V30 12294 O 493.467 8.36503 2.79617 0
M  V30 12295 O 494.007 7.71906 0.429565 0
M  V30 12296 C 494.947 7.67148 -0.673689 0
M  V30 12297 C 494.217 7.33666 -1.94851 0
M  V30 12298 O 494.007 5.88816 -2.00759 0
M  V30 12299 C 492.817 7.92526 -2.10483 0
M  V30 12300 O 492.427 8.03063 -3.47693 0
M  V30 12301 C 491.937 6.89602 -1.41652 0
M  V30 12302 C 492.647 5.59201 -1.75185 0
M  V30 12303 N 492.597 4.58235 -0.662552 0
M  V30 12304 C 492.447 3.24451 -1.01643 0
M  V30 12305 O 492.357 2.94958 -2.21722 0
M  V30 12306 N 492.397 2.30408 0.165238 0
M  V30 12307 C 492.497 2.66048 1.25118 0
M  V30 12308 N 492.447 1.70787 2.16813 0
M  V30 12309 C 492.647 4.02732 1.64413 0
M  V30 12310 C 492.697 4.9488 0.63991 0
M  V30 12311 H 495.437 8.65017 -0.777072 0
M  V30 12312 H 495.707 6.90173 -0.474152 0
M  V30 12313 H 494.84 7.66642 -2.79492 0
M  V30 12314 H 492.185 5.16254 -2.65229 0
M  V30 12315 H 491.905 7.06532 -0.329431 0
M  V30 12316 H 490.914 6.91023 -1.82047 0
M  V30 12317 H 492.748 8.90873 -1.62657 0
M  V30 12318 H 492.82 6.00104 0.892197 0
M  V30 12319 H 492.718 4.31733 2.69229 0
M  V30 12320 H 492.33 0.724835 1.8844 0
M  V30 12321 H 492.526 1.94716 3.16734 0
M  V30 12322 P 490.877 8.03563 -3.84925 0
M  V30 12323 O 490.657 8.85821 -5.0569 0
M  V30 12324 O 490.087 8.41101 -2.65469 0
M  V30 12325 O 490.627 6.49734 -4.18962 0
M  V30 12326 C 491.567 5.81037 -5.05421 0
M  V30 12327 C 490.837 4.79018 -5.88876 0
M  V30 12328 O 490.627 3.58359 -5.08515 0
M  V30 12329 C 489.437 5.17448 -6.36119 0
M  V30 12330 O 489.047 4.45322 -7.53318 0
M  V30 12331 C 488.557 4.74639 -5.19936 0
M  V30 12332 C 489.267 3.49432 -4.70418 0
M  V30 12333 N 489.217 3.31776 -3.22945 0
M  V30 12334 C 489.067 2.02742 -2.72939 0
M  V30 12335 O 488.977 1.08301 -3.52749 0
M  V30 12336 N 489.017 1.96117 -1.22063 0
M  V30 12337 C 489.117 2.8878 -0.551566 0
M  V30 12338 N 489.067 2.65609 0.750198 0
M  V30 12339 C 489.267 4.22457 -1.03707 0
M  V30 12340 C 489.317 4.37979 -2.39113 0
M  V30 12341 H 492.057 6.54138 -5.7131 0
M  V30 12342 H 492.327 5.30492 -4.44033 0
M  V30 12343 H 491.46 4.55945 -6.76735 0
M  V30 12344 H 488.805 2.6176 -5.18021 0
M  V30 12345 H 488.525 5.52233 -4.41941 0
M  V30 12346 H 487.534 4.52045 -5.53452 0
M  V30 12347 H 489.368 6.25124 -6.55234 0
M  V30 12348 H 489.44 5.37936 -2.80552 0
M  V30 12349 H 489.338 5.07528 -0.359553 0
M  V30 12350 H 488.95 1.69403 1.09847 0
M  V30 12351 H 489.146 3.43701 1.41792 0
M  V30 12352 P 487.497 4.23843 -7.83734 0
M  V30 12353 O 487.277 4.19407 -9.29784 0
M  V30 12354 O 486.707 5.24426 -7.09156 0
M  V30 12355 O 487.247 2.7935 -7.20758 0
M  V30 12356 C 488.187 1.7299 -7.50419 0
M  V30 12357 C 487.457 0.406376 -7.57911 0
M  V30 12358 O 487.247 -0.0897726 -6.21935 0
M  V30 12359 C 486.057 0.447224 -8.1878 0
M  V30 12360 O 485.667 -0.825065 -8.71101 0
M  V30 12361 C 485.177 0.783801 -6.99623 0
M  V30 12362 C 485.887 0.0619192 -5.85967 0
M  V30 12363 N 485.837 0.790462 -4.56202 0
M  V30 12364 H 488.676 1.93423 -8.4679 0
M  V30 12365 H 488.948 1.68852 -6.70877 0
M  V30 12366 H 488.08 -0.289041 -8.15388 0
M  V30 12367 H 485.425 -0.927006 -5.72848 0
M  V30 12368 H 485.145 1.86973 -6.82036 0
M  V30 12369 H 484.154 0.403953 -7.13357 0
M  V30 12370 H 485.988 1.20599 -8.97534 0
M  V30 12371 P 484.117 -1.17771 -8.83182 0
M  V30 12372 O 483.897 -2.07206 -9.98732 0
M  V30 12373 O 483.327 0.0743816 -8.81969 0
M  V30 12374 O 483.867 -1.97652 -7.47304 0
M  V30 12375 C 484.807 -3.01133 -7.08783 0
M  V30 12376 C 484.077 -4.12613 -6.37049 0
M  V30 12377 O 483.867 -3.72827 -4.97879 0
M  V30 12378 C 482.677 -4.45085 -6.88694 0
M  V30 12379 O 482.287 -5.7877 -6.5624 0
M  V30 12380 C 481.797 -3.47817 -6.12078 0
M  V30 12381 C 482.507 -3.39414 -4.77697 0
M  V30 12382 N 482.457 -2.04615 -4.15333 0
M  V30 12383 C 482.537 -0.803897 -4.75249 0
M  V30 12384 N 482.457 0.197615 -3.91502 0
M  V30 12385 C 482.317 -0.413002 -2.66823 0
M  V30 12386 C 482.187 0.157221 -1.38007 0
M  V30 12387 N 482.067 -0.833136 -0.390236 0
M  V30 12388 C 482.067 -2.19402 -0.623885 0
M  V30 12389 N 481.937 -2.97622 0.449677 0
M  V30 12390 N 482.197 -2.73005 -1.83601 0
M  V30 12391 C 482.317 -1.78786 -2.80935 0
M  V30 12392 H 485.296 -3.41248 -7.98759 0
M  V30 12393 H 485.568 -2.5837 -6.41742 0
M  V30 12394 H 484.7 -5.02657 -6.42673 0
M  V30 12395 P 480.737 -6.144 -6.45285 0
M  V30 12396 O 480.517 -7.54673 -6.86199 0
M  V30 12397 O 479.947 -5.12391 -7.179 0
M  V30 12398 O 480.487 -5.99236 -4.88467 0
M  V30 12399 C 481.427 -6.60234 -3.96415 0
M  V30 12400 C 480.697 -7.08079 -2.736 0
M  V30 12401 O 480.487 -5.94365 -1.8368 0
M  V30 12402 C 479.297 -7.64886 -2.9555 0
M  V30 12403 O 478.907 -8.5406 -1.90739 0
M  V30 12404 C 478.417 -6.4116 -2.90739 0
M  V30 12405 C 479.127 -5.55375 -1.86963 0
M  V30 12406 N 479.077 -4.09664 -2.15742 0
M  V30 12407 C 478.927 -3.22231 -1.08477 0
M  V30 12408 O 478.837 -3.68951 0.0600489 0
M  V30 12409 N 478.877 -1.76692 -1.48799 0
M  V30 12410 C 478.977 -1.41695 -2.57602 0
M  V30 12411 N 478.927 -0.107296 -2.75791 0
M  V30 12412 C 479.127 -2.29178 -3.69733 0
M  V30 12413 C 479.177 -3.62753 -3.42653 0
M  V30 12414 H 481.917 -7.45488 -4.45578 0
M  V30 12415 H 482.187 -5.86232 -3.67314 0
M  V30 12416 H 481.32 -7.84508 -2.24507 0
M  V30 12417 H 478.665 -5.73556 -0.888715 0
M  V30 12418 H 478.385 -5.9096 -3.88638 0
M  V30 12419 H 477.394 -6.66053 -2.58894 0
M  V30 12420 H 479.228 -8.16339 -3.92049 0
M  V30 12421 H 479.3 -4.33052 -4.24913 0
M  V30 12422 H 479.198 -1.9103 -4.71577 0
M  V30 12423 H 478.81 0.521221 -1.95056 0
M  V30 12424 H 479.006 0.286429 -3.70695 0
M  V30 12425 P 477.357 -8.7635 -1.60911 0
M  V30 12426 O 477.137 -10.1388 -1.11561 0
M  V30 12427 O 476.567 -8.36503 -2.79617 0
M  V30 12428 O 477.107 -7.71806 -0.42951 0
M  V30 12429 C 478.047 -7.67148 0.673689 0
M  V30 12430 C 477.317 -7.33374 1.95559 0
M  V30 12431 O 477.107 -5.88721 2.00726 0
M  V30 12432 C 475.917 -7.92526 2.10483 0
M  V30 12433 O 475.527 -8.02971 3.47653 0
M  V30 12434 C 475.037 -6.89602 1.41652 0
M  V30 12435 C 475.747 -5.59201 1.75185 0
M  V30 12436 N 475.697 -4.58301 0.657969 0
M  V30 12437 H 478.536 -8.65116 0.777161 0
M  V30 12438 H 478.808 -6.9022 0.46725 0
M  V30 12439 H 477.94 -7.66548 2.79458 0
M  V30 12440 H 475.285 -5.16165 2.65183 0
M  V30 12441 H 475.005 -7.06433 0.329384 0
M  V30 12442 H 474.014 -6.90926 1.82021 0
M  V30 12443 H 475.848 -8.90873 1.62657 0
M  V30 12444 P 473.977 -8.03563 3.84925 0
M  V30 12445 O 473.757 -8.85821 5.0569 0
M  V30 12446 O 473.187 -8.41101 2.65469 0
M  V30 12447 O 473.727 -6.49734 4.18962 0
M  V30 12448 C 474.667 -5.81037 5.05421 0
M  V30 12449 C 473.937 -4.79018 5.88876 0
M  V30 12450 O 473.727 -3.58359 5.08515 0
M  V30 12451 C 472.537 -5.17448 6.36119 0
M  V30 12452 O 472.147 -4.45322 7.53318 0
M  V30 12453 C 471.657 -4.74639 5.19936 0
M  V30 12454 C 472.367 -3.49432 4.70418 0
M  V30 12455 N 472.317 -3.31776 3.22945 0
M  V30 12456 C 472.167 -2.02742 2.72939 0
M  V30 12457 O 472.077 -1.08301 3.52749 0
M  V30 12458 N 472.117 -1.96117 1.22063 0
M  V30 12459 C 472.217 -2.8878 0.551566 0
M  V30 12460 N 472.167 -2.65609 -0.750198 0
M  V30 12461 C 472.367 -4.22457 1.03707 0
M  V30 12462 C 472.417 -4.37979 2.39113 0
M  V30 12463 H 475.157 -6.54138 5.7131 0
M  V30 12464 H 475.427 -5.30492 4.44033 0
M  V30 12465 H 474.56 -4.55945 6.76735 0
M  V30 12466 H 471.905 -2.6176 5.18021 0
M  V30 12467 H 471.625 -5.52233 4.41941 0
M  V30 12468 H 470.634 -4.52045 5.53452 0
M  V30 12469 H 472.468 -6.25124 6.55234 0
M  V30 12470 H 472.54 -5.37936 2.80552 0
M  V30 12471 H 472.438 -5.07528 0.359553 0
M  V30 12472 H 472.05 -1.69403 -1.09847 0
M  V30 12473 H 472.246 -3.43701 -1.41792 0
M  V30 12474 P 470.597 -4.23843 7.83734 0
M  V30 12475 O 470.377 -4.19407 9.29784 0
M  V30 12476 O 469.807 -5.24426 7.09156 0
M  V30 12477 O 470.347 -2.79386 7.20852 0
M  V30 12478 C 471.287 -1.7299 7.50419 0
M  V30 12479 C 470.557 -0.41401 7.5797 0
M  V30 12480 O 470.347 0.089787 6.22035 0
M  V30 12481 C 469.157 -0.447224 8.1878 0
M  V30 12482 O 468.767 0.825159 8.71201 0
M  V30 12483 C 468.277 -0.783801 6.99623 0
M  V30 12484 C 468.987 -0.0619192 5.85967 0
M  V30 12485 N 468.937 -0.7859 4.56281 0
M  V30 12486 C 468.787 -0.0359258 3.39981 0
M  V30 12487 O 468.697 1.19723 3.49038 0
M  V30 12488 N 468.737 -0.869151 2.14025 0
M  V30 12489 C 468.837 -2.01207 2.14363 0
M  V30 12490 N 468.787 -2.58978 0.954287 0
M  V30 12491 C 468.987 -2.80817 3.32215 0
M  V30 12492 C 469.037 -2.13785 4.50884 0
M  V30 12493 H 471.777 -1.93401 8.46693 0
M  V30 12494 H 472.047 -1.68181 6.71046 0
M  V30 12495 H 471.18 0.289076 8.15488 0
M  V30 12496 H 468.525 0.927166 5.72947 0
M  V30 12497 H 468.245 -1.87 6.82132 0
M  V30 12498 H 467.254 -0.404009 7.13457 0
M  V30 12499 H 469.088 -1.20599 8.97534 0
M  V30 12500 H 469.16 -2.70295 5.43162 0
M  V30 12501 H 469.058 -3.89465 3.27406 0
M  V30 12502 H 468.67 -2.01616 0.107046 0
M  V30 12503 H 468.866 -3.61403 0.873101 0
M  V30 12504 P 467.217 1.17771 8.83182 0
M  V30 12505 O 466.997 2.07206 9.98732 0
M  V30 12506 O 466.427 -0.0743816 8.81969 0
M  V30 12507 O 466.967 1.97652 7.47304 0
M  V30 12508 C 467.907 3.01055 7.08599 0
M  V30 12509 C 467.177 4.12613 6.37049 0
M  V30 12510 O 466.967 3.72827 4.97879 0
M  V30 12511 C 465.777 4.45719 6.88164 0
M  V30 12512 O 465.387 5.7877 6.5624 0
M  V30 12513 C 464.897 3.47768 6.11991 0
M  V30 12514 C 465.607 3.39356 4.77615 0
M  V30 12515 N 465.557 2.04571 4.15244 0
M  V30 12516 C 465.407 1.98587 2.78314 0
M  V30 12517 O 465.317 2.98134 2.08835 0
M  V30 12518 N 465.367 0.714467 2.24925 0
M  V30 12519 C 465.457 -0.470001 2.94169 0
M  V30 12520 C 465.607 -0.312541 4.36783 0
M  V30 12521 C 465.657 0.914512 4.92583 0
M  V30 12522 H 468.398 3.41169 7.98575 0
M  V30 12523 H 468.667 2.58295 6.41556 0
M  V30 12524 H 467.8 5.02657 6.42673 0
M  V30 12525 H 465.145 4.11637 4.08885 0
M  V30 12526 H 464.866 2.49626 6.61679 0
M  V30 12527 H 463.874 3.86566 6.00778 0
M  V30 12528 H 465.708 4.29943 7.96918 0
M  V30 12529 H 465.779 1.00937 6.00374 0
M  V30 12530 P 463.837 6.144 6.45285 0
M  V30 12531 O 463.617 7.54673 6.86199 0
M  V30 12532 O 463.047 5.12391 7.179 0
M  V30 12533 O 463.587 5.99158 4.88404 0
M  V30 12534 C 464.527 6.60062 3.96313 0
M  V30 12535 C 463.797 7.08259 2.72856 0
M  V30 12536 O 463.587 5.9427 1.83651 0
M  V30 12537 C 462.397 7.65087 2.94749 0
M  V30 12538 O 462.007 8.53963 1.90717 0
M  V30 12539 C 461.517 6.41069 2.90698 0
M  V30 12540 C 462.227 5.5528 1.86931 0
M  V30 12541 N 462.177 4.09575 2.15696 0
M  V30 12542 C 462.027 3.24249 1.08435 0
M  V30 12543 O 461.937 3.63946 -0.0628747 0
M  V30 12544 N 461.987 1.90009 1.39973 0
M  V30 12545 C 462.077 1.34884 2.65614 0
M  V30 12546 C 462.227 2.3145 3.71736 0
M  V30 12547 C 462.277 3.63518 3.44754 0
M  V30 12548 H 465.018 7.45402 4.45526 0
M  V30 12549 H 465.287 5.86062 3.67208 0
M  V30 12550 H 464.42 7.84412 2.24479 0
M  V30 12551 H 461.765 5.73358 0.888409 0
M  V30 12552 H 461.486 5.90877 3.88583 0
M  V30 12553 H 460.494 6.65867 2.58821 0
M  V30 12554 H 462.328 8.16248 3.92006 0
M  V30 12555 H 462.399 4.34551 4.26383 0
M  V30 12556 P 460.457 8.7635 1.60911 0
M  V30 12557 O 460.237 10.1388 1.11561 0
M  V30 12558 O 459.667 8.36503 2.79617 0
M  V30 12559 O 460.207 7.71806 0.42951 0
M  V30 12560 C 461.147 7.67148 -0.673689 0
M  V30 12561 C 460.417 7.33374 -1.95559 0
M  V30 12562 O 460.207 5.88721 -2.00726 0
M  V30 12563 C 459.017 7.92526 -2.10483 0
M  V30 12564 O 458.627 8.02971 -3.47653 0
M  V30 12565 C 458.137 6.89602 -1.41652 0
M  V30 12566 C 458.847 5.59201 -1.75185 0
M  V30 12567 N 458.797 4.58235 -0.662552 0
M  V30 12568 H 461.636 8.65116 -0.777161 0
M  V30 12569 H 461.908 6.90173 -0.474152 0
M  V30 12570 H 461.04 7.66548 -2.79458 0
M  V30 12571 P 457.077 8.03563 -3.84925 0
M  V30 12572 O 456.857 8.85821 -5.0569 0
M  V30 12573 O 456.287 8.41101 -2.65469 0
M  V30 12574 O 456.827 6.4965 -4.18908 0
M  V30 12575 C 457.767 5.80886 -5.05289 0
M  V30 12576 C 457.037 4.78366 -5.89277 0
M  V30 12577 O 456.827 3.58302 -5.08433 0
M  V30 12578 C 455.637 5.16748 -6.36559 0
M  V30 12579 O 455.247 4.45271 -7.53232 0
M  V30 12580 C 454.757 4.74572 -5.19863 0
M  V30 12581 C 455.467 3.49373 -4.70338 0
M  V30 12582 N 455.417 3.31704 -3.22876 0
M  V30 12583 C 455.267 2.03326 -2.74871 0
M  V30 12584 O 455.177 1.06486 -3.48076 0
M  V30 12585 N 455.227 1.91838 -1.37456 0
M  V30 12586 C 455.317 2.94295 -0.462035 0
M  V30 12587 C 455.467 4.25064 -1.05249 0
M  V30 12588 C 455.517 4.40214 -2.39192 0
M  V30 12589 H 458.258 6.54063 -5.71245 0
M  V30 12590 H 458.527 5.30339 -4.43905 0
M  V30 12591 H 457.66 4.55889 -6.76652 0
M  V30 12592 H 455.005 2.6167 -5.17842 0
M  V30 12593 H 454.726 5.52155 -4.41878 0
M  V30 12594 H 453.734 4.51918 -5.53297 0
M  V30 12595 H 455.568 6.25055 -6.55162 0
M  V30 12596 H 455.639 5.39798 -2.81523 0
M  V30 12597 P 453.697 4.23843 -7.83734 0
M  V30 12598 O 453.477 4.19407 -9.29784 0
M  V30 12599 O 452.907 5.24426 -7.09156 0
M  V30 12600 O 453.447 2.7935 -7.20758 0
M  V30 12601 C 454.387 1.7299 -7.50419 0
M  V30 12602 C 453.657 0.406376 -7.57911 0
M  V30 12603 O 453.447 -0.0897726 -6.21935 0
M  V30 12604 C 452.257 0.447224 -8.1878 0
M  V30 12605 O 451.867 -0.825065 -8.71101 0
M  V30 12606 C 451.377 0.783801 -6.99623 0
M  V30 12607 C 452.087 0.0619192 -5.85967 0
M  V30 12608 N 452.037 0.790462 -4.56202 0
M  V30 12609 H 454.876 1.93423 -8.4679 0
M  V30 12610 H 455.148 1.68852 -6.70877 0
M  V30 12611 H 454.28 -0.289041 -8.15388 0
M  V30 12612 H 451.625 -0.927006 -5.72848 0
M  V30 12613 H 451.345 1.86973 -6.82036 0
M  V30 12614 H 450.354 0.403953 -7.13357 0
M  V30 12615 H 452.188 1.20599 -8.97534 0
M  V30 12616 P 450.317 -1.17771 -8.83182 0
M  V30 12617 O 450.097 -2.07206 -9.98732 0
M  V30 12618 O 449.527 0.0743816 -8.81969 0
M  V30 12619 O 450.067 -1.97652 -7.47304 0
M  V30 12620 C 451.007 -3.01133 -7.08783 0
M  V30 12621 C 450.277 -4.12613 -6.37049 0
M  V30 12622 O 450.067 -3.72827 -4.97879 0
M  V30 12623 C 448.877 -4.45085 -6.88694 0
M  V30 12624 O 448.487 -5.7877 -6.5624 0
M  V30 12625 C 447.997 -3.47817 -6.12078 0
M  V30 12626 C 448.707 -3.39414 -4.77697 0
M  V30 12627 N 448.657 -2.04615 -4.15333 0
M  V30 12628 C 448.737 -0.803897 -4.75249 0
M  V30 12629 N 448.657 0.197615 -3.91502 0
M  V30 12630 C 448.517 -0.413002 -2.66823 0
M  V30 12631 C 448.387 0.157221 -1.38007 0
M  V30 12632 N 448.267 -0.833136 -0.390236 0
M  V30 12633 C 448.267 -2.19402 -0.623885 0
M  V30 12634 N 448.137 -2.97622 0.449677 0
M  V30 12635 N 448.397 -2.73005 -1.83601 0
M  V30 12636 C 448.517 -1.78786 -2.80935 0
M  V30 12637 H 451.496 -3.41248 -7.98759 0
M  V30 12638 H 451.768 -2.5837 -6.41742 0
M  V30 12639 H 450.9 -5.02657 -6.42673 0
M  V30 12640 P 446.937 -6.144 -6.45285 0
M  V30 12641 O 446.717 -7.54673 -6.86199 0
M  V30 12642 O 446.147 -5.12391 -7.179 0
M  V30 12643 O 446.687 -5.99158 -4.88404 0
M  V30 12644 C 447.627 -6.60234 -3.96415 0
M  V30 12645 C 446.897 -7.08259 -2.72856 0
M  V30 12646 O 446.687 -5.9427 -1.83651 0
M  V30 12647 C 445.497 -7.64886 -2.9555 0
M  V30 12648 O 445.107 -8.53963 -1.90717 0
M  V30 12649 C 444.617 -6.4116 -2.90739 0
M  V30 12650 C 445.327 -5.55375 -1.86963 0
M  V30 12651 N 445.277 -4.09664 -2.15742 0
M  V30 12652 H 448.116 -7.45574 -4.45629 0
M  V30 12653 H 448.388 -5.86232 -3.67314 0
M  V30 12654 H 447.52 -7.84412 -2.24479 0
M  V30 12655 P 443.557 -8.7635 -1.60911 0
M  V30 12656 O 443.337 -10.1388 -1.11561 0
M  V30 12657 O 442.767 -8.36503 -2.79617 0
M  V30 12658 O 443.307 -7.71806 -0.42951 0
M  V30 12659 C 444.247 -7.67148 0.673689 0
M  V30 12660 C 443.517 -7.33374 1.95559 0
M  V30 12661 O 443.307 -5.88721 2.00726 0
M  V30 12662 C 442.117 -7.92526 2.10483 0
M  V30 12663 O 441.727 -8.02971 3.47653 0
M  V30 12664 C 441.237 -6.89602 1.41652 0
M  V30 12665 C 441.947 -5.59201 1.75185 0
M  V30 12666 N 441.897 -4.58301 0.657969 0
M  V30 12667 H 444.736 -8.65116 0.777161 0
M  V30 12668 H 445.008 -6.9022 0.46725 0
M  V30 12669 H 444.14 -7.66548 2.79458 0
M  V30 12670 H 441.485 -5.16165 2.65183 0
M  V30 12671 H 441.205 -7.06433 0.329384 0
M  V30 12672 H 440.214 -6.90926 1.82021 0
M  V30 12673 H 442.048 -8.90873 1.62657 0
M  V30 12674 P 440.177 -8.03563 3.84925 0
M  V30 12675 O 439.957 -8.85821 5.0569 0
M  V30 12676 O 439.387 -8.41101 2.65469 0
M  V30 12677 O 439.927 -6.49734 4.18962 0
M  V30 12678 C 440.867 -5.81037 5.05421 0
M  V30 12679 C 440.137 -4.79018 5.88876 0
M  V30 12680 O 439.927 -3.58359 5.08515 0
M  V30 12681 C 438.737 -5.17448 6.36119 0
M  V30 12682 O 438.347 -4.45322 7.53318 0
M  V30 12683 C 437.857 -4.74639 5.19936 0
M  V30 12684 C 438.567 -3.49432 4.70418 0
M  V30 12685 N 438.517 -3.31776 3.22945 0
M  V30 12686 C 438.367 -2.02742 2.72939 0
M  V30 12687 O 438.277 -1.08301 3.52749 0
M  V30 12688 N 438.317 -1.96117 1.22063 0
M  V30 12689 C 438.417 -2.8878 0.551566 0
M  V30 12690 N 438.367 -2.65609 -0.750198 0
M  V30 12691 C 438.567 -4.22457 1.03707 0
M  V30 12692 C 438.617 -4.37979 2.39113 0
M  V30 12693 H 441.357 -6.54138 5.7131 0
M  V30 12694 H 441.627 -5.30492 4.44033 0
M  V30 12695 H 440.76 -4.55945 6.76735 0
M  V30 12696 H 438.105 -2.6176 5.18021 0
M  V30 12697 H 437.825 -5.52233 4.41941 0
M  V30 12698 H 436.834 -4.52045 5.53452 0
M  V30 12699 H 438.668 -6.25124 6.55234 0
M  V30 12700 H 438.74 -5.37936 2.80552 0
M  V30 12701 H 438.638 -5.07528 0.359553 0
M  V30 12702 H 438.25 -1.69403 -1.09847 0
M  V30 12703 H 438.446 -3.43701 -1.41792 0
M  V30 12704 P 436.797 -4.23843 7.83734 0
M  V30 12705 O 436.577 -4.19407 9.29784 0
M  V30 12706 O 436.007 -5.24426 7.09156 0
M  V30 12707 O 436.547 -2.7935 7.20758 0
M  V30 12708 C 437.487 -1.72945 7.50224 0
M  V30 12709 C 436.757 -0.406376 7.57911 0
M  V30 12710 O 436.547 0.0897726 6.21935 0
M  V30 12711 C 435.357 -0.438983 8.18724 0
M  V30 12712 O 434.967 0.825065 8.71101 0
M  V30 12713 C 434.477 -0.783689 6.99524 0
M  V30 12714 C 435.187 -0.0619086 5.85867 0
M  V30 12715 N 435.137 -0.78573 4.56183 0
M  V30 12716 C 434.987 -0.0292889 3.41887 0
M  V30 12717 O 434.897 1.18445 3.4419 0
M  V30 12718 N 434.947 -0.744061 2.23964 0
M  V30 12719 C 435.037 -2.10932 2.10362 0
M  V30 12720 C 435.187 -2.8202 3.34994 0
M  V30 12721 C 435.237 -2.15547 4.52261 0
M  V30 12722 H 437.978 -1.93379 8.46595 0
M  V30 12723 H 438.247 -1.68132 6.70852 0
M  V30 12724 H 437.38 0.289041 8.15388 0
M  V30 12725 H 434.725 0.926847 5.72749 0
M  V30 12726 H 434.446 -1.86973 6.82036 0
M  V30 12727 H 433.454 -0.403896 7.13257 0
M  V30 12728 H 435.288 -1.20585 8.97435 0
M  V30 12729 H 435.359 -2.71231 5.45042 0
M  V30 12730 P 433.417 1.17771 8.83182 0
M  V30 12731 O 433.197 2.07206 9.98732 0
M  V30 12732 O 432.627 -0.0743816 8.81969 0
M  V30 12733 O 433.167 1.97678 7.474 0
M  V30 12734 C 434.107 3.01133 7.08783 0
M  V30 12735 C 433.377 4.1203 6.37546 0
M  V30 12736 O 433.167 3.72887 4.9796 0
M  V30 12737 C 431.977 4.45085 6.88694 0
M  V30 12738 O 431.587 5.78836 6.56315 0
M  V30 12739 C 431.097 3.47817 6.12078 0
M  V30 12740 C 431.807 3.39414 4.77697 0
M  V30 12741 N 431.757 2.04615 4.15333 0
M  V30 12742 C 431.607 1.96929 2.77162 0
M  V30 12743 O 431.517 3.02017 2.12006 0
M  V30 12744 N 431.557 0.55485 2.24237 0
M  V30 12745 C 431.657 -0.367808 2.9169 0
M  V30 12746 N 431.607 -1.53426 2.29427 0
M  V30 12747 C 431.807 -0.319148 4.33828 0
M  V30 12748 C 431.857 0.920672 4.90433 0
M  V30 12749 H 434.597 3.41209 7.98667 0
M  V30 12750 H 434.867 2.5837 6.41742 0
M  V30 12751 H 434 5.02718 6.42752 0
M  V30 12752 H 431.345 4.11779 4.09026 0
M  V30 12753 H 431.065 2.49661 6.61772 0
M  V30 12754 H 430.074 3.86674 6.00946 0
M  V30 12755 H 431.908 4.29991 7.97006 0
M  V30 12756 H 431.98 1.00589 5.98303 0
M  V30 12757 H 431.878 -1.22639 4.93799 0
M  V30 12758 H 431.49 -1.56819 1.27167 0
M  V30 12759 H 431.686 -2.41062 2.83063 0
M  V30 12760 P 430.037 6.144 6.45285 0
M  V30 12761 O 429.817 7.54673 6.86199 0
M  V30 12762 O 429.247 5.12391 7.179 0
M  V30 12763 O 429.787 5.99158 4.88404 0
M  V30 12764 C 430.727 6.60062 3.96313 0
M  V30 12765 C 429.997 7.08259 2.72856 0
M  V30 12766 O 429.787 5.9427 1.83651 0
M  V30 12767 C 428.597 7.65087 2.94749 0
M  V30 12768 O 428.207 8.53963 1.90717 0
M  V30 12769 C 427.717 6.41069 2.90698 0
M  V30 12770 C 428.427 5.5528 1.86931 0
M  V30 12771 N 428.377 4.09575 2.15696 0
M  V30 12772 C 428.227 3.24249 1.08435 0
M  V30 12773 O 428.137 3.63946 -0.0628747 0
M  V30 12774 N 428.187 1.90009 1.39973 0
M  V30 12775 C 428.277 1.34884 2.65614 0
M  V30 12776 O 428.227 0.123716 2.81728 0
M  V30 12777 C 428.427 2.3145 3.71736 0
M  V30 12778 C 428.537 1.75913 5.10438 0
M  V30 12779 C 428.477 3.63518 3.44754 0
M  V30 12780 H 431.218 7.45402 4.45526 0
M  V30 12781 H 431.487 5.86062 3.67208 0
M  V30 12782 H 430.62 7.84412 2.24479 0
M  V30 12783 H 427.965 5.73358 0.888409 0
M  V30 12784 H 427.686 5.90877 3.88583 0
M  V30 12785 H 426.694 6.65867 2.58821 0
M  V30 12786 H 428.528 8.16248 3.92006 0
M  V30 12787 H 428.599 4.34551 4.26383 0
M  V30 12788 H 427.569 1.85471 5.61775 0
M  V30 12789 H 429.306 2.31364 5.66257 0
M  V30 12790 H 428.818 0.695936 5.05229 0
M  V30 12791 H 428.082 1.26277 0.63625 0
M  V30 12792 P 426.657 8.7635 1.60911 0
M  V30 12793 O 426.437 10.1388 1.11561 0
M  V30 12794 O 425.867 8.36503 2.79617 0
M  V30 12795 O 426.407 7.71906 0.429565 0
M  V30 12796 C 427.347 7.67148 -0.673689 0
M  V30 12797 C 426.617 7.33666 -1.94851 0
M  V30 12798 O 426.407 5.88816 -2.00759 0
M  V30 12799 C 425.217 7.92526 -2.10483 0
M  V30 12800 O 424.827 8.03063 -3.47693 0
M  V30 12801 C 424.337 6.89602 -1.41652 0
M  V30 12802 C 425.047 5.59201 -1.75185 0
M  V30 12803 N 424.997 4.58235 -0.662552 0
M  V30 12804 C 424.847 3.24451 -1.01643 0
M  V30 12805 O 424.757 2.94958 -2.21722 0
M  V30 12806 N 424.797 2.30408 0.165238 0
M  V30 12807 C 424.897 2.66048 1.25118 0
M  V30 12808 N 424.847 1.70787 2.16813 0
M  V30 12809 C 425.047 4.02732 1.64413 0
M  V30 12810 C 425.097 4.9488 0.63991 0
M  V30 12811 H 427.837 8.65017 -0.777072 0
M  V30 12812 H 428.107 6.90173 -0.474152 0
M  V30 12813 H 427.24 7.66642 -2.79492 0
M  V30 12814 H 424.585 5.16254 -2.65229 0
M  V30 12815 H 424.305 7.06532 -0.329431 0
M  V30 12816 H 423.314 6.91023 -1.82047 0
M  V30 12817 H 425.148 8.90873 -1.62657 0
M  V30 12818 H 425.22 6.00104 0.892197 0
M  V30 12819 H 425.118 4.31733 2.69229 0
M  V30 12820 H 424.73 0.724835 1.8844 0
M  V30 12821 H 424.926 1.94716 3.16734 0
M  V30 12822 P 423.278 8.03563 -3.84925 0
M  V30 12823 O 423.058 8.85821 -5.0569 0
M  V30 12824 O 422.488 8.41101 -2.65469 0
M  V30 12825 O 423.028 6.4965 -4.18908 0
M  V30 12826 C 423.968 5.81037 -5.05421 0
M  V30 12827 C 423.238 4.78366 -5.89277 0
M  V30 12828 O 423.028 3.58302 -5.08433 0
M  V30 12829 C 421.838 5.17448 -6.36119 0
M  V30 12830 O 421.448 4.45271 -7.53232 0
M  V30 12831 C 420.958 4.74639 -5.19936 0
M  V30 12832 C 421.668 3.49432 -4.70418 0
M  V30 12833 N 421.618 3.31776 -3.22945 0
M  V30 12834 C 421.698 4.27147 -2.23315 0
M  V30 12835 N 421.618 3.78447 -1.02186 0
M  V30 12836 C 421.478 2.41001 -1.21732 0
M  V30 12837 C 421.348 1.36111 -0.27694 0
M  V30 12838 N 421.228 0.113683 -0.912949 0
M  V30 12839 C 421.228 -0.0846396 -2.27943 0
M  V30 12840 N 421.098 -1.34737 -2.6916 0
M  V30 12841 N 421.358 0.902521 -3.16379 0
M  V30 12842 C 421.478 2.11937 -2.56849 0
M  V30 12843 H 424.457 6.54213 -5.71376 0
M  V30 12844 H 424.729 5.30492 -4.44033 0
M  V30 12845 H 423.861 4.55889 -6.76652 0
M  V30 12846 P 419.898 4.23843 -7.83734 0
M  V30 12847 O 419.678 4.19407 -9.29784 0
M  V30 12848 O 419.108 5.24426 -7.09156 0
M  V30 12849 O 419.648 2.7935 -7.20758 0
M  V30 12850 C 420.588 1.7299 -7.50419 0
M  V30 12851 C 419.858 0.406376 -7.57911 0
M  V30 12852 O 419.648 -0.0897726 -6.21935 0
M  V30 12853 C 418.458 0.447224 -8.1878 0
M  V30 12854 O 418.068 -0.825065 -8.71101 0
M  V30 12855 C 417.578 0.783801 -6.99623 0
M  V30 12856 C 418.288 0.0619192 -5.85967 0
M  V30 12857 N 418.238 0.7859 -4.56281 0
M  V30 12858 C 418.318 2.14308 -4.31736 0
M  V30 12859 N 418.238 2.46106 -3.05116 0
M  V30 12860 C 418.098 1.23422 -2.4014 0
M  V30 12861 C 417.968 0.938381 -1.02409 0
M  V30 12862 N 417.848 -0.444647 -0.805413 0
M  V30 12863 C 417.848 -1.40829 -1.79435 0
M  V30 12864 N 417.718 -2.67213 -1.38558 0
M  V30 12865 N 417.978 -1.12947 -3.09005 0
M  V30 12866 C 418.098 0.204887 -3.32369 0
M  V30 12867 H 421.077 1.93423 -8.4679 0
M  V30 12868 H 421.349 1.68181 -6.71046 0
M  V30 12869 H 420.481 -0.289041 -8.15388 0
M  V30 12870 P 416.518 -1.17771 -8.83182 0
M  V30 12871 O 416.298 -2.07206 -9.98732 0
M  V30 12872 O 415.728 0.0743816 -8.81969 0
M  V30 12873 O 416.268 -1.97678 -7.474 0
M  V30 12874 C 417.208 -3.01133 -7.08783 0
M  V30 12875 C 416.478 -4.1203 -6.37546 0
M  V30 12876 O 416.268 -3.72887 -4.9796 0
M  V30 12877 C 415.078 -4.45085 -6.88694 0
M  V30 12878 O 414.688 -5.78836 -6.56315 0
M  V30 12879 C 414.198 -3.47817 -6.12078 0
M  V30 12880 C 414.908 -3.39414 -4.77697 0
M  V30 12881 N 414.858 -2.04615 -4.15333 0
M  V30 12882 C 414.708 -1.96929 -2.77162 0
M  V30 12883 O 414.618 -3.02017 -2.12006 0
M  V30 12884 N 414.658 -0.55485 -2.24237 0
M  V30 12885 C 414.758 0.367808 -2.9169 0
M  V30 12886 N 414.708 1.53426 -2.29427 0
M  V30 12887 C 414.908 0.319148 -4.33828 0
M  V30 12888 C 414.958 -0.920672 -4.90433 0
M  V30 12889 H 417.698 -3.41209 -7.98667 0
M  V30 12890 H 417.968 -2.5837 -6.41742 0
M  V30 12891 H 417.101 -5.02718 -6.42752 0
M  V30 12892 H 414.446 -4.11779 -4.09026 0
M  V30 12893 H 414.166 -2.49661 -6.61772 0
M  V30 12894 H 413.175 -3.86674 -6.00946 0
M  V30 12895 H 415.009 -4.29991 -7.97006 0
M  V30 12896 H 415.081 -1.00589 -5.98303 0
M  V30 12897 H 414.979 1.22639 -4.93799 0
M  V30 12898 H 414.591 1.56819 -1.27167 0
M  V30 12899 H 414.787 2.41062 -2.83063 0
M  V30 12900 P 413.138 -6.144 -6.45285 0
M  V30 12901 O 412.918 -7.54673 -6.86199 0
M  V30 12902 O 412.348 -5.12391 -7.179 0
M  V30 12903 O 412.888 -5.99236 -4.88467 0
M  V30 12904 C 413.828 -6.60234 -3.96415 0
M  V30 12905 C 413.098 -7.08079 -2.736 0
M  V30 12906 O 412.888 -5.94365 -1.8368 0
M  V30 12907 C 411.698 -7.64886 -2.9555 0
M  V30 12908 O 411.308 -8.5406 -1.90739 0
M  V30 12909 C 410.818 -6.4116 -2.90739 0
M  V30 12910 C 411.528 -5.55375 -1.86963 0
M  V30 12911 N 411.478 -4.09664 -2.15742 0
M  V30 12912 C 411.328 -3.22231 -1.08477 0
M  V30 12913 O 411.238 -3.68951 0.0600489 0
M  V30 12914 N 411.278 -1.76692 -1.48799 0
M  V30 12915 C 411.378 -1.41695 -2.57602 0
M  V30 12916 N 411.328 -0.107296 -2.75791 0
M  V30 12917 C 411.528 -2.29178 -3.69733 0
M  V30 12918 C 411.578 -3.62753 -3.42653 0
M  V30 12919 H 414.318 -7.45488 -4.45578 0
M  V30 12920 H 414.588 -5.86232 -3.67314 0
M  V30 12921 H 413.721 -7.84508 -2.24507 0
M  V30 12922 H 411.066 -5.73556 -0.888715 0
M  V30 12923 H 410.786 -5.9096 -3.88638 0
M  V30 12924 H 409.795 -6.66053 -2.58894 0
M  V30 12925 H 411.629 -8.16339 -3.92049 0
M  V30 12926 H 411.701 -4.33052 -4.24913 0
M  V30 12927 H 411.599 -1.9103 -4.71577 0
M  V30 12928 H 411.211 0.521221 -1.95056 0
M  V30 12929 H 411.407 0.286429 -3.70695 0
M  V30 12930 P 409.758 -8.7635 -1.60911 0
M  V30 12931 O 409.538 -10.1388 -1.11561 0
M  V30 12932 O 408.968 -8.36503 -2.79617 0
M  V30 12933 O 409.508 -7.71806 -0.42951 0
M  V30 12934 C 410.448 -7.66948 0.673514 0
M  V30 12935 C 409.718 -7.33374 1.95559 0
M  V30 12936 O 409.508 -5.88721 2.00726 0
M  V30 12937 C 408.318 -7.92218 2.1125 0
M  V30 12938 O 407.928 -8.02971 3.47653 0
M  V30 12939 C 407.438 -6.89504 1.41631 0
M  V30 12940 C 408.148 -5.59106 1.75155 0
M  V30 12941 N 408.098 -4.58136 0.662409 0
M  V30 12942 C 407.948 -3.26059 1.02863 0
M  V30 12943 O 407.858 -2.90743 2.19009 0
M  V30 12944 N 407.908 -2.35995 -0.0155585 0
M  V30 12945 C 407.998 -2.65248 -1.35603 0
M  V30 12946 C 408.148 -4.05747 -1.64698 0
M  V30 12947 C 408.198 -4.96734 -0.652411 0
M  V30 12948 H 410.939 -8.64917 0.776982 0
M  V30 12949 H 411.208 -6.89974 0.474015 0
M  V30 12950 H 410.341 -7.66548 2.79458 0
M  V30 12951 H 407.686 -5.16076 2.65138 0
M  V30 12952 H 407.407 -7.06433 0.329384 0
M  V30 12953 H 406.415 -6.90829 1.81996 0
M  V30 12954 H 408.249 -8.90774 1.62639 0
M  V30 12955 H 408.32 -6.02181 -0.895285 0
M  V30 12956 P 406.378 -8.03563 3.84925 0
M  V30 12957 O 406.158 -8.85821 5.0569 0
M  V30 12958 O 405.588 -8.41101 2.65469 0
M  V30 12959 O 406.128 -6.49734 4.18962 0
M  V30 12960 C 407.068 -5.81037 5.05421 0
M  V30 12961 C 406.338 -4.79018 5.88876 0
M  V30 12962 O 406.128 -3.58359 5.08515 0
M  V30 12963 C 404.938 -5.17448 6.36119 0
M  V30 12964 O 404.548 -4.45322 7.53318 0
M  V30 12965 C 404.058 -4.74639 5.19936 0
M  V30 12966 C 404.768 -3.49432 4.70418 0
M  V30 12967 N 404.718 -3.31776 3.22945 0
M  V30 12968 C 404.568 -2.02742 2.72939 0
M  V30 12969 O 404.478 -1.08301 3.52749 0
M  V30 12970 N 404.518 -1.96117 1.22063 0
M  V30 12971 C 404.618 -2.8878 0.551566 0
M  V30 12972 N 404.568 -2.65609 -0.750198 0
M  V30 12973 C 404.768 -4.22457 1.03707 0
M  V30 12974 C 404.818 -4.37979 2.39113 0
M  V30 12975 H 407.558 -6.54138 5.7131 0
M  V30 12976 H 407.828 -5.30492 4.44033 0
M  V30 12977 H 406.961 -4.55945 6.76735 0
M  V30 12978 H 404.306 -2.6176 5.18021 0
M  V30 12979 H 404.026 -5.52233 4.41941 0
M  V30 12980 H 403.035 -4.52045 5.53452 0
M  V30 12981 H 404.869 -6.25124 6.55234 0
M  V30 12982 H 404.941 -5.37936 2.80552 0
M  V30 12983 H 404.839 -5.07528 0.359553 0
M  V30 12984 H 404.451 -1.69403 -1.09847 0
M  V30 12985 H 404.647 -3.43701 -1.41792 0
M  V30 12986 P 402.998 -4.23843 7.83734 0
M  V30 12987 O 402.778 -4.19407 9.29784 0
M  V30 12988 O 402.208 -5.24426 7.09156 0
M  V30 12989 O 402.748 -2.79386 7.20852 0
M  V30 12990 C 403.688 -1.7299 7.50419 0
M  V30 12991 C 402.958 -0.41401 7.5797 0
M  V30 12992 O 402.748 0.089787 6.22035 0
M  V30 12993 C 401.558 -0.447224 8.1878 0
M  V30 12994 O 401.168 0.825159 8.71201 0
M  V30 12995 C 400.678 -0.783801 6.99623 0
M  V30 12996 C 401.388 -0.0619192 5.85967 0
M  V30 12997 N 401.338 -0.7859 4.56281 0
M  V30 12998 C 401.188 -0.0359258 3.39981 0
M  V30 12999 O 401.098 1.19723 3.49038 0
M  V30 13000 N 401.138 -0.869151 2.14025 0
M  V30 13001 C 401.238 -2.01207 2.14363 0
M  V30 13002 N 401.188 -2.58978 0.954287 0
M  V30 13003 C 401.388 -2.80817 3.32215 0
M  V30 13004 C 401.438 -2.13785 4.50884 0
M  V30 13005 H 404.178 -1.93401 8.46693 0
M  V30 13006 H 404.448 -1.68181 6.71046 0
M  V30 13007 H 403.581 0.289076 8.15488 0
M  V30 13008 H 400.926 0.927166 5.72947 0
M  V30 13009 H 400.646 -1.87 6.82132 0
M  V30 13010 H 399.655 -0.404009 7.13457 0
M  V30 13011 H 401.489 -1.20599 8.97534 0
M  V30 13012 H 401.561 -2.70295 5.43162 0
M  V30 13013 H 401.459 -3.89465 3.27406 0
M  V30 13014 H 401.071 -2.01616 0.107046 0
M  V30 13015 H 401.267 -3.61403 0.873101 0
M  V30 13016 P 399.618 1.17771 8.83182 0
M  V30 13017 O 399.398 2.07206 9.98732 0
M  V30 13018 O 398.828 -0.0743816 8.81969 0
M  V30 13019 O 399.368 1.97652 7.47304 0
M  V30 13020 C 400.308 3.01133 7.08783 0
M  V30 13021 C 399.578 4.12613 6.37049 0
M  V30 13022 O 399.368 3.72827 4.97879 0
M  V30 13023 C 398.178 4.45085 6.88694 0
M  V30 13024 O 397.788 5.7877 6.5624 0
M  V30 13025 C 397.298 3.47817 6.12078 0
M  V30 13026 C 398.008 3.39414 4.77697 0
M  V30 13027 N 397.958 2.04615 4.15333 0
M  V30 13028 H 400.797 3.41248 7.98759 0
M  V30 13029 H 401.069 2.5837 6.41742 0
M  V30 13030 H 400.201 5.02657 6.42673 0
M  V30 13031 P 396.238 6.144 6.45285 0
M  V30 13032 O 396.018 7.54673 6.86199 0
M  V30 13033 O 395.448 5.12391 7.179 0
M  V30 13034 O 395.988 5.99158 4.88404 0
M  V30 13035 C 396.928 6.60234 3.96415 0
M  V30 13036 C 396.198 7.08259 2.72856 0
M  V30 13037 O 395.988 5.9427 1.83651 0
M  V30 13038 C 394.798 7.64886 2.9555 0
M  V30 13039 O 394.408 8.53963 1.90717 0
M  V30 13040 C 393.918 6.4116 2.90739 0
M  V30 13041 C 394.628 5.55375 1.86963 0
M  V30 13042 N 394.578 4.09664 2.15742 0
M  V30 13043 H 397.417 7.45574 4.45629 0
M  V30 13044 H 397.689 5.86232 3.67314 0
M  V30 13045 H 396.821 7.84412 2.24479 0
M  V30 13046 P 392.858 8.7635 1.60911 0
M  V30 13047 O 392.638 10.1388 1.11561 0
M  V30 13048 O 392.068 8.36503 2.79617 0
M  V30 13049 O 392.608 7.71806 0.42951 0
M  V30 13050 C 393.548 7.66948 -0.673514 0
M  V30 13051 C 392.818 7.33374 -1.95559 0
M  V30 13052 O 392.608 5.88721 -2.00726 0
M  V30 13053 C 391.418 7.92218 -2.1125 0
M  V30 13054 O 391.028 8.02971 -3.47653 0
M  V30 13055 C 390.538 6.89504 -1.41631 0
M  V30 13056 C 391.248 5.59106 -1.75155 0
M  V30 13057 N 391.198 4.58136 -0.662409 0
M  V30 13058 C 391.048 3.26059 -1.02863 0
M  V30 13059 O 390.958 2.90743 -2.19009 0
M  V30 13060 N 391.008 2.35995 0.0155585 0
M  V30 13061 C 391.098 2.65248 1.35603 0
M  V30 13062 C 391.248 4.05747 1.64698 0
M  V30 13063 C 391.298 4.96734 0.652411 0
M  V30 13064 H 394.039 8.64917 -0.776982 0
M  V30 13065 H 394.308 6.89974 -0.474015 0
M  V30 13066 H 393.441 7.66548 -2.79458 0
M  V30 13067 H 390.786 5.16076 -2.65138 0
M  V30 13068 H 390.507 7.06433 -0.329384 0
M  V30 13069 H 389.515 6.90829 -1.81996 0
M  V30 13070 H 391.349 8.90774 -1.62639 0
M  V30 13071 H 391.42 6.02181 0.895285 0
M  V30 13072 P 389.478 8.03563 -3.84925 0
M  V30 13073 O 389.258 8.85821 -5.0569 0
M  V30 13074 O 388.688 8.41101 -2.65469 0
M  V30 13075 O 389.228 6.4965 -4.18908 0
M  V30 13076 C 390.168 5.81037 -5.05421 0
M  V30 13077 C 389.438 4.78366 -5.89277 0
M  V30 13078 O 389.228 3.58302 -5.08433 0
M  V30 13079 C 388.038 5.17448 -6.36119 0
M  V30 13080 O 387.648 4.45271 -7.53232 0
M  V30 13081 C 387.158 4.74639 -5.19936 0
M  V30 13082 C 387.868 3.49432 -4.70418 0
M  V30 13083 N 387.818 3.32099 -3.22613 0
M  V30 13084 H 390.657 6.54213 -5.71376 0
M  V30 13085 H 390.929 5.30936 -4.43503 0
M  V30 13086 H 390.061 4.55889 -6.76652 0
M  V30 13087 H 387.406 2.61715 -5.17932 0
M  V30 13088 H 387.126 5.52155 -4.41878 0
M  V30 13089 H 386.135 4.51981 -5.53374 0
M  V30 13090 H 387.969 6.25124 -6.55234 0
M  V30 13091 P 386.098 4.23843 -7.83734 0
M  V30 13092 O 385.878 4.19407 -9.29784 0
M  V30 13093 O 385.308 5.24426 -7.09156 0
M  V30 13094 O 385.848 2.7935 -7.20758 0
M  V30 13095 C 386.788 1.7299 -7.50419 0
M  V30 13096 C 386.058 0.406376 -7.57911 0
M  V30 13097 O 385.848 -0.0897726 -6.21935 0
M  V30 13098 C 384.658 0.447224 -8.1878 0
M  V30 13099 O 384.268 -0.825065 -8.71101 0
M  V30 13100 C 383.778 0.783801 -6.99623 0
M  V30 13101 C 384.488 0.0619192 -5.85967 0
M  V30 13102 N 384.438 0.7859 -4.56281 0
M  V30 13103 C 384.518 2.14308 -4.31736 0
M  V30 13104 N 384.438 2.46106 -3.05116 0
M  V30 13105 C 384.298 1.23422 -2.4014 0
M  V30 13106 C 384.168 0.938381 -1.02409 0
M  V30 13107 N 384.048 -0.444647 -0.805413 0
M  V30 13108 C 384.048 -1.40829 -1.79435 0
M  V30 13109 N 383.918 -2.67213 -1.38558 0
M  V30 13110 N 384.178 -1.12947 -3.09005 0
M  V30 13111 C 384.298 0.204887 -3.32369 0
M  V30 13112 H 387.277 1.93423 -8.4679 0
M  V30 13113 H 387.549 1.68181 -6.71046 0
M  V30 13114 H 386.681 -0.289041 -8.15388 0
M  V30 13115 P 382.718 -1.17771 -8.83182 0
M  V30 13116 O 382.498 -2.07206 -9.98732 0
M  V30 13117 O 381.928 0.0743816 -8.81969 0
M  V30 13118 O 382.468 -1.97652 -7.47304 0
M  V30 13119 C 383.408 -3.01133 -7.08783 0
M  V30 13120 C 382.678 -4.12613 -6.37049 0
M  V30 13121 O 382.468 -3.72827 -4.97879 0
M  V30 13122 C 381.278 -4.45085 -6.88694 0
M  V30 13123 O 380.888 -5.7877 -6.5624 0
M  V30 13124 C 380.398 -3.47817 -6.12078 0
M  V30 13125 C 381.108 -3.39414 -4.77697 0
M  V30 13126 N 381.058 -2.04615 -4.15333 0
M  V30 13127 H 383.897 -3.41248 -7.98759 0
M  V30 13128 H 384.169 -2.5837 -6.41742 0
M  V30 13129 H 383.301 -5.02657 -6.42673 0
M  V30 13130 P 379.338 -6.144 -6.45285 0
M  V30 13131 O 379.118 -7.54673 -6.86199 0
M  V30 13132 O 378.548 -5.12391 -7.179 0
M  V30 13133 O 379.088 -5.99236 -4.88467 0
M  V30 13134 C 380.028 -6.60234 -3.96415 0
M  V30 13135 C 379.298 -7.08079 -2.736 0
M  V30 13136 O 379.088 -5.94365 -1.8368 0
M  V30 13137 C 377.898 -7.64886 -2.9555 0
M  V30 13138 O 377.508 -8.5406 -1.90739 0
M  V30 13139 C 377.018 -6.4116 -2.90739 0
M  V30 13140 C 377.728 -5.55375 -1.86963 0
M  V30 13141 N 377.678 -4.09664 -2.15742 0
M  V30 13142 C 377.528 -3.22231 -1.08477 0
M  V30 13143 O 377.438 -3.68951 0.0600489 0
M  V30 13144 N 377.478 -1.76692 -1.48799 0
M  V30 13145 C 377.578 -1.41695 -2.57602 0
M  V30 13146 N 377.528 -0.107296 -2.75791 0
M  V30 13147 C 377.728 -2.29178 -3.69733 0
M  V30 13148 C 377.778 -3.62753 -3.42653 0
M  V30 13149 H 380.518 -7.45488 -4.45578 0
M  V30 13150 H 380.788 -5.86232 -3.67314 0
M  V30 13151 H 379.921 -7.84508 -2.24507 0
M  V30 13152 H 377.266 -5.73556 -0.888715 0
M  V30 13153 H 376.986 -5.9096 -3.88638 0
M  V30 13154 H 375.995 -6.66053 -2.58894 0
M  V30 13155 H 377.829 -8.16339 -3.92049 0
M  V30 13156 H 377.901 -4.33052 -4.24913 0
M  V30 13157 H 377.799 -1.9103 -4.71577 0
M  V30 13158 H 377.411 0.521221 -1.95056 0
M  V30 13159 H 377.607 0.286429 -3.70695 0
M  V30 13160 P 375.958 -8.7635 -1.60911 0
M  V30 13161 O 375.738 -10.1388 -1.11561 0
M  V30 13162 O 375.168 -8.36503 -2.79617 0
M  V30 13163 O 375.708 -7.71806 -0.42951 0
M  V30 13164 C 376.648 -7.67148 0.673689 0
M  V30 13165 C 375.918 -7.33374 1.95559 0
M  V30 13166 O 375.708 -5.88721 2.00726 0
M  V30 13167 C 374.518 -7.92526 2.10483 0
M  V30 13168 O 374.128 -8.02971 3.47653 0
M  V30 13169 C 373.638 -6.89602 1.41652 0
M  V30 13170 C 374.348 -5.59201 1.75185 0
M  V30 13171 N 374.298 -4.58235 0.662552 0
M  V30 13172 H 377.137 -8.65116 0.777161 0
M  V30 13173 H 377.409 -6.90173 0.474152 0
M  V30 13174 H 376.541 -7.66548 2.79458 0
M  V30 13175 P 372.578 -8.03563 3.84925 0
M  V30 13176 O 372.358 -8.85821 5.0569 0
M  V30 13177 O 371.788 -8.41101 2.65469 0
M  V30 13178 O 372.328 -6.4965 4.18908 0
M  V30 13179 C 373.268 -5.80886 5.05289 0
M  V30 13180 C 372.538 -4.78366 5.89277 0
M  V30 13181 O 372.328 -3.58302 5.08433 0
M  V30 13182 C 371.138 -5.16748 6.36559 0
M  V30 13183 O 370.748 -4.45271 7.53232 0
M  V30 13184 C 370.258 -4.74572 5.19863 0
M  V30 13185 C 370.968 -3.49373 4.70338 0
M  V30 13186 N 370.918 -3.31704 3.22876 0
M  V30 13187 C 370.768 -2.03326 2.74871 0
M  V30 13188 O 370.678 -1.06486 3.48076 0
M  V30 13189 N 370.728 -1.91838 1.37456 0
M  V30 13190 C 370.818 -2.94295 0.462035 0
M  V30 13191 C 370.968 -4.25064 1.05249 0
M  V30 13192 C 371.018 -4.40214 2.39192 0
M  V30 13193 H 373.759 -6.54063 5.71245 0
M  V30 13194 H 374.028 -5.30339 4.43905 0
M  V30 13195 H 373.161 -4.55889 6.76652 0
M  V30 13196 H 370.506 -2.6167 5.17842 0
M  V30 13197 H 370.227 -5.52155 4.41878 0
M  V30 13198 H 369.235 -4.51918 5.53297 0
M  V30 13199 H 371.069 -6.25055 6.55162 0
M  V30 13200 H 371.14 -5.39798 2.81523 0
M  V30 13201 P 369.198 -4.23843 7.83734 0
M  V30 13202 O 368.978 -4.19407 9.29784 0
M  V30 13203 O 368.408 -5.24426 7.09156 0
M  V30 13204 O 368.948 -2.7935 7.20758 0
M  V30 13205 C 369.888 -1.7299 7.50419 0
M  V30 13206 C 369.158 -0.406376 7.57911 0
M  V30 13207 O 368.948 0.0897726 6.21935 0
M  V30 13208 C 367.758 -0.447224 8.1878 0
M  V30 13209 O 367.368 0.825065 8.71101 0
M  V30 13210 C 366.878 -0.783801 6.99623 0
M  V30 13211 C 367.588 -0.0619192 5.85967 0
M  V30 13212 N 367.538 -0.7859 4.56281 0
M  V30 13213 H 370.377 -1.93423 8.4679 0
M  V30 13214 H 370.649 -1.68181 6.71046 0
M  V30 13215 H 369.781 0.289041 8.15388 0
M  V30 13216 P 365.818 1.17771 8.83182 0
M  V30 13217 O 365.598 2.07206 9.98732 0
M  V30 13218 O 365.028 -0.0743816 8.81969 0
M  V30 13219 O 365.568 1.97678 7.474 0
M  V30 13220 C 366.508 3.01133 7.08783 0
M  V30 13221 C 365.778 4.1203 6.37546 0
M  V30 13222 O 365.568 3.72887 4.9796 0
M  V30 13223 C 364.378 4.45085 6.88694 0
M  V30 13224 O 363.988 5.78836 6.56315 0
M  V30 13225 C 363.498 3.47817 6.12078 0
M  V30 13226 C 364.208 3.39414 4.77697 0
M  V30 13227 N 364.158 2.04615 4.15333 0
M  V30 13228 C 364.008 1.96929 2.77162 0
M  V30 13229 O 363.918 3.02017 2.12006 0
M  V30 13230 N 363.958 0.55485 2.24237 0
M  V30 13231 C 364.058 -0.367808 2.9169 0
M  V30 13232 N 364.008 -1.53426 2.29427 0
M  V30 13233 C 364.208 -0.319148 4.33828 0
M  V30 13234 C 364.258 0.920672 4.90433 0
M  V30 13235 H 366.998 3.41209 7.98667 0
M  V30 13236 H 367.268 2.5837 6.41742 0
M  V30 13237 H 366.401 5.02718 6.42752 0
M  V30 13238 H 363.746 4.11779 4.09026 0
M  V30 13239 H 363.466 2.49661 6.61772 0
M  V30 13240 H 362.475 3.86674 6.00946 0
M  V30 13241 H 364.309 4.29991 7.97006 0
M  V30 13242 H 364.381 1.00589 5.98303 0
M  V30 13243 H 364.279 -1.22639 4.93799 0
M  V30 13244 H 363.891 -1.56819 1.27167 0
M  V30 13245 H 364.087 -2.41062 2.83063 0
M  V30 13246 P 362.438 6.144 6.45285 0
M  V30 13247 O 362.218 7.54673 6.86199 0
M  V30 13248 O 361.648 5.12391 7.179 0
M  V30 13249 O 362.188 5.99158 4.88404 0
M  V30 13250 C 363.128 6.60234 3.96415 0
M  V30 13251 C 362.398 7.08259 2.72856 0
M  V30 13252 O 362.188 5.9427 1.83651 0
M  V30 13253 C 360.998 7.64886 2.9555 0
M  V30 13254 O 360.608 8.53963 1.90717 0
M  V30 13255 C 360.118 6.4116 2.90739 0
M  V30 13256 C 360.828 5.55375 1.86963 0
M  V30 13257 N 360.778 4.09664 2.15742 0
M  V30 13258 H 363.617 7.45574 4.45629 0
M  V30 13259 H 363.889 5.86232 3.67314 0
M  V30 13260 H 363.021 7.84412 2.24479 0
M  V30 13261 P 359.058 8.7635 1.60911 0
M  V30 13262 O 358.838 10.1388 1.11561 0
M  V30 13263 O 358.268 8.36503 2.79617 0
M  V30 13264 O 358.808 7.71806 0.42951 0
M  V30 13265 C 359.748 7.67148 -0.673689 0
M  V30 13266 C 359.018 7.33374 -1.95559 0
M  V30 13267 O 358.808 5.88721 -2.00726 0
M  V30 13268 C 357.618 7.92526 -2.10483 0
M  V30 13269 O 357.228 8.02971 -3.47653 0
M  V30 13270 C 356.738 6.89602 -1.41652 0
M  V30 13271 C 357.448 5.59201 -1.75185 0
M  V30 13272 N 357.398 4.58235 -0.662552 0
M  V30 13273 H 360.237 8.65116 -0.777161 0
M  V30 13274 H 360.509 6.90173 -0.474152 0
M  V30 13275 H 359.641 7.66548 -2.79458 0
M  V30 13276 P 355.678 8.03563 -3.84925 0
M  V30 13277 O 355.458 8.85821 -5.0569 0
M  V30 13278 O 354.888 8.41101 -2.65469 0
M  V30 13279 O 355.428 6.4965 -4.18908 0
M  V30 13280 C 356.368 5.80886 -5.05289 0
M  V30 13281 C 355.638 4.78366 -5.89277 0
M  V30 13282 O 355.428 3.58302 -5.08433 0
M  V30 13283 C 354.238 5.16748 -6.36559 0
M  V30 13284 O 353.848 4.45271 -7.53232 0
M  V30 13285 C 353.358 4.74572 -5.19863 0
M  V30 13286 C 354.068 3.49373 -4.70338 0
M  V30 13287 N 354.018 3.31704 -3.22876 0
M  V30 13288 C 353.868 2.03326 -2.74871 0
M  V30 13289 O 353.778 1.06486 -3.48076 0
M  V30 13290 N 353.828 1.91838 -1.37456 0
M  V30 13291 C 353.918 2.94295 -0.462035 0
M  V30 13292 C 354.068 4.25064 -1.05249 0
M  V30 13293 C 354.118 4.40214 -2.39192 0
M  V30 13294 H 356.859 6.54063 -5.71245 0
M  V30 13295 H 357.128 5.30339 -4.43905 0
M  V30 13296 H 356.261 4.55889 -6.76652 0
M  V30 13297 H 353.606 2.6167 -5.17842 0
M  V30 13298 H 353.327 5.52155 -4.41878 0
M  V30 13299 H 352.335 4.51918 -5.53297 0
M  V30 13300 H 354.169 6.25055 -6.55162 0
M  V30 13301 H 354.24 5.39798 -2.81523 0
M  V30 13302 P 352.298 4.23843 -7.83734 0
M  V30 13303 O 352.078 4.19407 -9.29784 0
M  V30 13304 O 351.508 5.24426 -7.09156 0
M  V30 13305 O 352.048 2.7935 -7.20758 0
M  V30 13306 C 352.988 1.72945 -7.50224 0
M  V30 13307 C 352.258 0.406376 -7.57911 0
M  V30 13308 O 352.048 -0.0897726 -6.21935 0
M  V30 13309 C 350.858 0.438983 -8.18724 0
M  V30 13310 O 350.468 -0.825065 -8.71101 0
M  V30 13311 C 349.978 0.783689 -6.99524 0
M  V30 13312 C 350.688 0.0619086 -5.85867 0
M  V30 13313 N 350.638 0.78573 -4.56183 0
M  V30 13314 C 350.488 0.0292889 -3.41887 0
M  V30 13315 O 350.398 -1.18445 -3.4419 0
M  V30 13316 N 350.448 0.744061 -2.23964 0
M  V30 13317 C 350.538 2.10932 -2.10362 0
M  V30 13318 C 350.688 2.8202 -3.34994 0
M  V30 13319 C 350.738 2.15547 -4.52261 0
M  V30 13320 H 353.479 1.93379 -8.46595 0
M  V30 13321 H 353.748 1.68132 -6.70852 0
M  V30 13322 H 352.881 -0.289041 -8.15388 0
M  V30 13323 H 350.226 -0.926847 -5.72749 0
M  V30 13324 H 349.947 1.86973 -6.82036 0
M  V30 13325 H 348.955 0.403896 -7.13257 0
M  V30 13326 H 350.789 1.20585 -8.97435 0
M  V30 13327 H 350.86 2.71231 -5.45042 0
M  V30 13328 P 348.918 -1.17771 -8.83182 0
M  V30 13329 O 348.698 -2.07206 -9.98732 0
M  V30 13330 O 348.128 0.0743816 -8.81969 0
M  V30 13331 O 348.668 -1.97652 -7.47304 0
M  V30 13332 C 349.608 -3.01133 -7.08783 0
M  V30 13333 C 348.878 -4.12613 -6.37049 0
M  V30 13334 O 348.668 -3.72827 -4.97879 0
M  V30 13335 C 347.478 -4.45085 -6.88694 0
M  V30 13336 O 347.088 -5.7877 -6.5624 0
M  V30 13337 C 346.598 -3.47817 -6.12078 0
M  V30 13338 C 347.308 -3.39414 -4.77697 0
M  V30 13339 N 347.258 -2.04615 -4.15333 0
M  V30 13340 H 350.097 -3.41248 -7.98759 0
M  V30 13341 H 350.369 -2.5837 -6.41742 0
M  V30 13342 H 349.501 -5.02657 -6.42673 0
M  V30 13343 P 345.538 -6.144 -6.45285 0
M  V30 13344 O 345.318 -7.54673 -6.86199 0
M  V30 13345 O 344.748 -5.12391 -7.179 0
M  V30 13346 O 345.288 -5.99158 -4.88404 0
M  V30 13347 C 346.228 -6.60234 -3.96415 0
M  V30 13348 C 345.498 -7.08259 -2.72856 0
M  V30 13349 O 345.288 -5.9427 -1.83651 0
M  V30 13350 C 344.098 -7.64886 -2.9555 0
M  V30 13351 O 343.708 -8.53963 -1.90717 0
M  V30 13352 C 343.218 -6.4116 -2.90739 0
M  V30 13353 C 343.928 -5.55375 -1.86963 0
M  V30 13354 N 343.878 -4.09664 -2.15742 0
M  V30 13355 H 346.717 -7.45574 -4.45629 0
M  V30 13356 H 346.989 -5.86232 -3.67314 0
M  V30 13357 H 346.121 -7.84412 -2.24479 0
M  V30 13358 P 342.158 -8.7635 -1.60911 0
M  V30 13359 O 341.938 -10.1388 -1.11561 0
M  V30 13360 O 341.368 -8.36503 -2.79617 0
M  V30 13361 O 341.908 -7.71806 -0.42951 0
M  V30 13362 C 342.848 -7.67148 0.673689 0
M  V30 13363 C 342.118 -7.33374 1.95559 0
M  V30 13364 O 341.908 -5.88721 2.00726 0
M  V30 13365 C 340.718 -7.92526 2.10483 0
M  V30 13366 O 340.328 -8.02971 3.47653 0
M  V30 13367 C 339.838 -6.89602 1.41652 0
M  V30 13368 C 340.548 -5.59201 1.75185 0
M  V30 13369 N 340.498 -4.58301 0.657969 0
M  V30 13370 H 343.337 -8.65116 0.777161 0
M  V30 13371 H 343.609 -6.9022 0.46725 0
M  V30 13372 H 342.741 -7.66548 2.79458 0
M  V30 13373 H 340.086 -5.16165 2.65183 0
M  V30 13374 H 339.806 -7.06433 0.329384 0
M  V30 13375 H 338.815 -6.90926 1.82021 0
M  V30 13376 H 340.649 -8.90873 1.62657 0
M  V30 13377 P 338.778 -8.03563 3.84925 0
M  V30 13378 O 338.558 -8.85821 5.0569 0
M  V30 13379 O 337.988 -8.41101 2.65469 0
M  V30 13380 O 338.528 -6.4965 4.18908 0
M  V30 13381 C 339.468 -5.81037 5.05421 0
M  V30 13382 C 338.738 -4.78366 5.89277 0
M  V30 13383 O 338.528 -3.58302 5.08433 0
M  V30 13384 C 337.338 -5.17448 6.36119 0
M  V30 13385 O 336.948 -4.45271 7.53232 0
M  V30 13386 C 336.458 -4.74639 5.19936 0
M  V30 13387 C 337.168 -3.49432 4.70418 0
M  V30 13388 N 337.118 -3.31776 3.22945 0
M  V30 13389 C 337.198 -4.27147 2.23315 0
M  V30 13390 N 337.118 -3.78447 1.02186 0
M  V30 13391 C 336.978 -2.41001 1.21732 0
M  V30 13392 C 336.848 -1.36111 0.27694 0
M  V30 13393 N 336.728 -0.113683 0.912949 0
M  V30 13394 C 336.728 0.0846396 2.27943 0
M  V30 13395 N 336.598 1.34737 2.6916 0
M  V30 13396 N 336.858 -0.902521 3.16379 0
M  V30 13397 C 336.978 -2.11937 2.56849 0
M  V30 13398 H 339.957 -6.54213 5.71376 0
M  V30 13399 H 340.229 -5.30492 4.44033 0
M  V30 13400 H 339.361 -4.55889 6.76652 0
M  V30 13401 P 335.398 -4.23843 7.83734 0
M  V30 13402 O 335.178 -4.19407 9.29784 0
M  V30 13403 O 334.608 -5.24426 7.09156 0
M  V30 13404 O 335.148 -2.7935 7.20758 0
M  V30 13405 C 336.088 -1.7299 7.50419 0
M  V30 13406 C 335.358 -0.406376 7.57911 0
M  V30 13407 O 335.148 0.0897726 6.21935 0
M  V30 13408 C 333.958 -0.447224 8.1878 0
M  V30 13409 O 333.568 0.825065 8.71101 0
M  V30 13410 C 333.078 -0.783801 6.99623 0
M  V30 13411 C 333.788 -0.0619192 5.85967 0
M  V30 13412 N 333.738 -0.7859 4.56281 0
M  V30 13413 H 336.577 -1.93423 8.4679 0
M  V30 13414 H 336.849 -1.68181 6.71046 0
M  V30 13415 H 335.981 0.289041 8.15388 0
M  V30 13416 P 332.018 1.17771 8.83182 0
M  V30 13417 O 331.798 2.07206 9.98732 0
M  V30 13418 O 331.228 -0.0743816 8.81969 0
M  V30 13419 O 331.768 1.97678 7.474 0
M  V30 13420 C 332.708 3.01133 7.08783 0
M  V30 13421 C 331.978 4.1203 6.37546 0
M  V30 13422 O 331.768 3.72887 4.9796 0
M  V30 13423 C 330.578 4.45085 6.88694 0
M  V30 13424 O 330.188 5.78836 6.56315 0
M  V30 13425 C 329.698 3.47817 6.12078 0
M  V30 13426 C 330.408 3.39414 4.77697 0
M  V30 13427 N 330.358 2.04615 4.15333 0
M  V30 13428 C 330.208 1.96929 2.77162 0
M  V30 13429 O 330.118 3.02017 2.12006 0
M  V30 13430 N 330.158 0.55485 2.24237 0
M  V30 13431 C 330.258 -0.367808 2.9169 0
M  V30 13432 N 330.208 -1.53426 2.29427 0
M  V30 13433 C 330.408 -0.319148 4.33828 0
M  V30 13434 C 330.458 0.920672 4.90433 0
M  V30 13435 H 333.198 3.41209 7.98667 0
M  V30 13436 H 333.468 2.5837 6.41742 0
M  V30 13437 H 332.601 5.02718 6.42752 0
M  V30 13438 H 329.946 4.11779 4.09026 0
M  V30 13439 H 329.666 2.49661 6.61772 0
M  V30 13440 H 328.675 3.86674 6.00946 0
M  V30 13441 H 330.509 4.29991 7.97006 0
M  V30 13442 H 330.581 1.00589 5.98303 0
M  V30 13443 H 330.479 -1.22639 4.93799 0
M  V30 13444 H 330.091 -1.56819 1.27167 0
M  V30 13445 H 330.287 -2.41062 2.83063 0
M  V30 13446 P 328.638 6.144 6.45285 0
M  V30 13447 O 328.418 7.54673 6.86199 0
M  V30 13448 O 327.848 5.12391 7.179 0
M  V30 13449 O 328.388 5.99158 4.88404 0
M  V30 13450 C 329.328 6.60234 3.96415 0
M  V30 13451 C 328.598 7.08259 2.72856 0
M  V30 13452 O 328.388 5.9427 1.83651 0
M  V30 13453 C 327.198 7.64886 2.9555 0
M  V30 13454 O 326.808 8.53963 1.90717 0
M  V30 13455 C 326.318 6.4116 2.90739 0
M  V30 13456 C 327.028 5.55375 1.86963 0
M  V30 13457 N 326.978 4.09448 2.16152 0
M  V30 13458 H 329.817 7.45574 4.45629 0
M  V30 13459 H 330.089 5.85864 3.679 0
M  V30 13460 H 329.221 7.84412 2.24479 0
M  V30 13461 H 326.566 5.73457 0.888562 0
M  V30 13462 H 326.286 5.90877 3.88583 0
M  V30 13463 H 325.295 6.6596 2.58858 0
M  V30 13464 H 327.129 8.16339 3.92049 0
M  V30 13465 P 325.258 8.7635 1.60911 0
M  V30 13466 O 325.038 10.1388 1.11561 0
M  V30 13467 O 324.468 8.36503 2.79617 0
M  V30 13468 O 325.008 7.71806 0.42951 0
M  V30 13469 C 325.948 7.67148 -0.673689 0
M  V30 13470 C 325.218 7.33374 -1.95559 0
M  V30 13471 O 325.008 5.88721 -2.00726 0
M  V30 13472 C 323.818 7.92526 -2.10483 0
M  V30 13473 O 323.428 8.02971 -3.47653 0
M  V30 13474 C 322.938 6.89602 -1.41652 0
M  V30 13475 C 323.648 5.59201 -1.75185 0
M  V30 13476 N 323.598 4.58235 -0.662552 0
M  V30 13477 H 326.437 8.65116 -0.777161 0
M  V30 13478 H 326.709 6.90173 -0.474152 0
M  V30 13479 H 325.841 7.66548 -2.79458 0
M  V30 13480 P 321.878 8.03563 -3.84925 0
M  V30 13481 O 321.658 8.85821 -5.0569 0
M  V30 13482 O 321.088 8.41101 -2.65469 0
M  V30 13483 O 321.628 6.4965 -4.18908 0
M  V30 13484 C 322.568 5.81037 -5.05421 0
M  V30 13485 C 321.838 4.78366 -5.89277 0
M  V30 13486 O 321.628 3.58302 -5.08433 0
M  V30 13487 C 320.438 5.17448 -6.36119 0
M  V30 13488 O 320.048 4.45271 -7.53232 0
M  V30 13489 C 319.558 4.74639 -5.19936 0
M  V30 13490 C 320.268 3.49432 -4.70418 0
M  V30 13491 N 320.218 3.31776 -3.22945 0
M  V30 13492 H 323.057 6.54213 -5.71376 0
M  V30 13493 H 323.329 5.30492 -4.44033 0
M  V30 13494 H 322.461 4.55889 -6.76652 0
M  V30 13495 P 318.498 4.23843 -7.83734 0
M  V30 13496 O 318.278 4.19407 -9.29784 0
M  V30 13497 O 317.708 5.24426 -7.09156 0
M  V30 13498 O 318.248 2.7935 -7.20758 0
M  V30 13499 C 319.188 1.7299 -7.50419 0
M  V30 13500 C 318.458 0.406376 -7.57911 0
M  V30 13501 O 318.248 -0.0897726 -6.21935 0
M  V30 13502 C 317.058 0.447224 -8.1878 0
M  V30 13503 O 316.668 -0.825065 -8.71101 0
M  V30 13504 C 316.178 0.783801 -6.99623 0
M  V30 13505 C 316.888 0.0619192 -5.85967 0
M  V30 13506 N 316.838 0.790462 -4.56202 0
M  V30 13507 H 319.677 1.93423 -8.4679 0
M  V30 13508 H 319.949 1.68852 -6.70877 0
M  V30 13509 H 319.081 -0.289041 -8.15388 0
M  V30 13510 H 316.426 -0.927006 -5.72848 0
M  V30 13511 H 316.146 1.86973 -6.82036 0
M  V30 13512 H 315.155 0.403953 -7.13357 0
M  V30 13513 H 316.989 1.20599 -8.97534 0
M  V30 13514 P 315.118 -1.17771 -8.83182 0
M  V30 13515 O 314.898 -2.07206 -9.98732 0
M  V30 13516 O 314.328 0.0743816 -8.81969 0
M  V30 13517 O 314.868 -1.97652 -7.47304 0
M  V30 13518 C 315.808 -3.01055 -7.08599 0
M  V30 13519 C 315.078 -4.12613 -6.37049 0
M  V30 13520 O 314.868 -3.72827 -4.97879 0
M  V30 13521 C 313.678 -4.45719 -6.88164 0
M  V30 13522 O 313.288 -5.7877 -6.5624 0
M  V30 13523 C 312.798 -3.47768 -6.11991 0
M  V30 13524 C 313.508 -3.39356 -4.77615 0
M  V30 13525 N 313.458 -2.04571 -4.15244 0
M  V30 13526 C 313.308 -1.98587 -2.78314 0
M  V30 13527 O 313.218 -2.98134 -2.08835 0
M  V30 13528 N 313.268 -0.714467 -2.24925 0
M  V30 13529 C 313.358 0.470001 -2.94169 0
M  V30 13530 C 313.508 0.312541 -4.36783 0
M  V30 13531 C 313.558 -0.914512 -4.92583 0
M  V30 13532 H 316.299 -3.41169 -7.98575 0
M  V30 13533 H 316.568 -2.58295 -6.41556 0
M  V30 13534 H 315.701 -5.02657 -6.42673 0
M  V30 13535 H 313.046 -4.11637 -4.08885 0
M  V30 13536 H 312.767 -2.49626 -6.61679 0
M  V30 13537 H 311.775 -3.86566 -6.00778 0
M  V30 13538 H 313.609 -4.29943 -7.96918 0
M  V30 13539 H 313.68 -1.00937 -6.00374 0
M  V30 13540 P 311.738 -6.144 -6.45285 0
M  V30 13541 O 311.518 -7.54673 -6.86199 0
M  V30 13542 O 310.948 -5.12391 -7.179 0
M  V30 13543 O 311.488 -5.99158 -4.88404 0
M  V30 13544 C 312.428 -6.60234 -3.96415 0
M  V30 13545 C 311.698 -7.08259 -2.72856 0
M  V30 13546 O 311.488 -5.9427 -1.83651 0
M  V30 13547 C 310.298 -7.64886 -2.9555 0
M  V30 13548 O 309.908 -8.53963 -1.90717 0
M  V30 13549 C 309.418 -6.4116 -2.90739 0
M  V30 13550 C 310.128 -5.55375 -1.86963 0
M  V30 13551 N 310.078 -4.09448 -2.16152 0
M  V30 13552 H 312.917 -7.45574 -4.45629 0
M  V30 13553 H 313.189 -5.85864 -3.679 0
M  V30 13554 H 312.321 -7.84412 -2.24479 0
M  V30 13555 H 309.666 -5.73457 -0.888562 0
M  V30 13556 H 309.386 -5.90877 -3.88583 0
M  V30 13557 H 308.395 -6.6596 -2.58858 0
M  V30 13558 H 310.229 -8.16339 -3.92049 0
M  V30 13559 P 308.358 -8.7635 -1.60911 0
M  V30 13560 O 308.138 -10.1388 -1.11561 0
M  V30 13561 O 307.568 -8.36503 -2.79617 0
M  V30 13562 O 308.108 -7.71806 -0.42951 0
M  V30 13563 C 309.048 -7.67148 0.673689 0
M  V30 13564 C 308.318 -7.33374 1.95559 0
M  V30 13565 O 308.108 -5.88721 2.00726 0
M  V30 13566 C 306.918 -7.92526 2.10483 0
M  V30 13567 O 306.528 -8.02971 3.47653 0
M  V30 13568 C 306.038 -6.89602 1.41652 0
M  V30 13569 C 306.748 -5.59201 1.75185 0
M  V30 13570 N 306.698 -4.58301 0.657969 0
M  V30 13571 H 309.537 -8.65116 0.777161 0
M  V30 13572 H 309.809 -6.9022 0.46725 0
M  V30 13573 H 308.941 -7.66548 2.79458 0
M  V30 13574 H 306.286 -5.16165 2.65183 0
M  V30 13575 H 306.006 -7.06433 0.329384 0
M  V30 13576 H 305.015 -6.90926 1.82021 0
M  V30 13577 H 306.849 -8.90873 1.62657 0
M  V30 13578 P 304.978 -8.03563 3.84925 0
M  V30 13579 O 304.758 -8.85821 5.0569 0
M  V30 13580 O 304.188 -8.41101 2.65469 0
M  V30 13581 O 304.728 -6.4965 4.18908 0
M  V30 13582 C 305.668 -5.80886 5.05289 0
M  V30 13583 C 304.938 -4.78366 5.89277 0
M  V30 13584 O 304.728 -3.58302 5.08433 0
M  V30 13585 C 303.538 -5.16748 6.36559 0
M  V30 13586 O 303.148 -4.45271 7.53232 0
M  V30 13587 C 302.658 -4.74572 5.19863 0
M  V30 13588 C 303.368 -3.49373 4.70338 0
M  V30 13589 N 303.318 -3.31704 3.22876 0
M  V30 13590 C 303.168 -2.03326 2.74871 0
M  V30 13591 O 303.078 -1.06486 3.48076 0
M  V30 13592 N 303.128 -1.91838 1.37456 0
M  V30 13593 C 303.218 -2.94295 0.462035 0
M  V30 13594 C 303.368 -4.25064 1.05249 0
M  V30 13595 C 303.418 -4.40214 2.39192 0
M  V30 13596 H 306.159 -6.54063 5.71245 0
M  V30 13597 H 306.428 -5.30339 4.43905 0
M  V30 13598 H 305.561 -4.55889 6.76652 0
M  V30 13599 H 302.906 -2.6167 5.17842 0
M  V30 13600 H 302.627 -5.52155 4.41878 0
M  V30 13601 H 301.635 -4.51918 5.53297 0
M  V30 13602 H 303.469 -6.25055 6.55162 0
M  V30 13603 H 303.54 -5.39798 2.81523 0
M  V30 13604 P 301.598 -4.23843 7.83734 0
M  V30 13605 O 301.378 -4.19407 9.29784 0
M  V30 13606 O 300.808 -5.24426 7.09156 0
M  V30 13607 O 301.348 -2.7935 7.20758 0
M  V30 13608 C 302.288 -1.7299 7.50419 0
M  V30 13609 C 301.558 -0.406376 7.57911 0
M  V30 13610 O 301.348 0.0897726 6.21935 0
M  V30 13611 C 300.158 -0.447224 8.1878 0
M  V30 13612 O 299.768 0.825065 8.71101 0
M  V30 13613 C 299.278 -0.783801 6.99623 0
M  V30 13614 C 299.988 -0.0619192 5.85967 0
M  V30 13615 N 299.938 -0.7859 4.56281 0
M  V30 13616 H 302.777 -1.93423 8.4679 0
M  V30 13617 H 303.049 -1.68181 6.71046 0
M  V30 13618 H 302.181 0.289041 8.15388 0
M  V30 13619 P 298.218 1.17771 8.83182 0
M  V30 13620 O 297.998 2.07206 9.98732 0
M  V30 13621 O 297.428 -0.0743816 8.81969 0
M  V30 13622 O 297.968 1.97652 7.47304 0
M  V30 13623 C 298.908 3.01133 7.08783 0
M  V30 13624 C 298.178 4.12613 6.37049 0
M  V30 13625 O 297.968 3.72827 4.97879 0
M  V30 13626 C 296.778 4.45085 6.88694 0
M  V30 13627 O 296.388 5.7877 6.5624 0
M  V30 13628 C 295.898 3.47817 6.12078 0
M  V30 13629 C 296.608 3.39414 4.77697 0
M  V30 13630 N 296.558 2.04615 4.15333 0
M  V30 13631 H 299.397 3.41248 7.98759 0
M  V30 13632 H 299.669 2.5837 6.41742 0
M  V30 13633 H 298.801 5.02657 6.42673 0
M  V30 13634 P 294.838 6.144 6.45285 0
M  V30 13635 O 294.618 7.54673 6.86199 0
M  V30 13636 O 294.048 5.12391 7.179 0
M  V30 13637 O 294.588 5.99158 4.88404 0
M  V30 13638 C 295.528 6.60234 3.96415 0
M  V30 13639 C 294.798 7.08259 2.72856 0
M  V30 13640 O 294.588 5.9427 1.83651 0
M  V30 13641 C 293.398 7.64886 2.9555 0
M  V30 13642 O 293.008 8.53963 1.90717 0
M  V30 13643 C 292.518 6.4116 2.90739 0
M  V30 13644 C 293.228 5.55375 1.86963 0
M  V30 13645 N 293.178 4.09664 2.15742 0
M  V30 13646 H 296.017 7.45574 4.45629 0
M  V30 13647 H 296.289 5.86232 3.67314 0
M  V30 13648 H 295.421 7.84412 2.24479 0
M  V30 13649 P 291.458 8.7635 1.60911 0
M  V30 13650 O 291.238 10.1388 1.11561 0
M  V30 13651 O 290.668 8.36503 2.79617 0
M  V30 13652 O 291.208 7.71806 0.42951 0
M  V30 13653 C 292.148 7.67148 -0.673689 0
M  V30 13654 C 291.418 7.33374 -1.95559 0
M  V30 13655 O 291.208 5.88721 -2.00726 0
M  V30 13656 C 290.018 7.92526 -2.10483 0
M  V30 13657 O 289.628 8.02971 -3.47653 0
M  V30 13658 C 289.138 6.89602 -1.41652 0
M  V30 13659 C 289.848 5.59201 -1.75185 0
M  V30 13660 N 289.798 4.58235 -0.662552 0
M  V30 13661 H 292.637 8.65116 -0.777161 0
M  V30 13662 H 292.909 6.90173 -0.474152 0
M  V30 13663 H 292.041 7.66548 -2.79458 0
M  V30 13664 P 288.078 8.03563 -3.84925 0
M  V30 13665 O 287.858 8.85821 -5.0569 0
M  V30 13666 O 287.288 8.41101 -2.65469 0
M  V30 13667 O 287.828 6.4965 -4.18908 0
M  V30 13668 C 288.768 5.81037 -5.05421 0
M  V30 13669 C 288.038 4.78366 -5.89277 0
M  V30 13670 O 287.828 3.58302 -5.08433 0
M  V30 13671 C 286.638 5.17448 -6.36119 0
M  V30 13672 O 286.248 4.45271 -7.53232 0
M  V30 13673 C 285.758 4.74639 -5.19936 0
M  V30 13674 C 286.468 3.49432 -4.70418 0
M  V30 13675 N 286.418 3.31776 -3.22945 0
M  V30 13676 C 286.498 4.27147 -2.23315 0
M  V30 13677 N 286.418 3.78447 -1.02186 0
M  V30 13678 C 286.278 2.41001 -1.21732 0
M  V30 13679 C 286.148 1.36111 -0.27694 0
M  V30 13680 N 286.028 0.113683 -0.912949 0
M  V30 13681 C 286.028 -0.0846396 -2.27943 0
M  V30 13682 N 285.898 -1.34737 -2.6916 0
M  V30 13683 N 286.158 0.902521 -3.16379 0
M  V30 13684 C 286.278 2.11937 -2.56849 0
M  V30 13685 H 289.257 6.54213 -5.71376 0
M  V30 13686 H 289.529 5.30492 -4.44033 0
M  V30 13687 H 288.661 4.55889 -6.76652 0
M  V30 13688 P 284.698 4.23843 -7.83734 0
M  V30 13689 O 284.478 4.19407 -9.29784 0
M  V30 13690 O 283.908 5.24426 -7.09156 0
M  V30 13691 O 284.448 2.7935 -7.20758 0
M  V30 13692 C 285.388 1.72945 -7.50224 0
M  V30 13693 C 284.658 0.406376 -7.57911 0
M  V30 13694 O 284.448 -0.0897726 -6.21935 0
M  V30 13695 C 283.258 0.438983 -8.18724 0
M  V30 13696 O 282.868 -0.825065 -8.71101 0
M  V30 13697 C 282.378 0.783689 -6.99524 0
M  V30 13698 C 283.088 0.0619086 -5.85867 0
M  V30 13699 N 283.038 0.78573 -4.56183 0
M  V30 13700 C 282.888 0.0292889 -3.41887 0
M  V30 13701 O 282.798 -1.18445 -3.4419 0
M  V30 13702 N 282.848 0.744061 -2.23964 0
M  V30 13703 C 282.938 2.10932 -2.10362 0
M  V30 13704 C 283.088 2.8202 -3.34994 0
M  V30 13705 C 283.138 2.15547 -4.52261 0
M  V30 13706 H 285.879 1.93379 -8.46595 0
M  V30 13707 H 286.148 1.68132 -6.70852 0
M  V30 13708 H 285.281 -0.289041 -8.15388 0
M  V30 13709 H 282.626 -0.926847 -5.72749 0
M  V30 13710 H 282.347 1.86973 -6.82036 0
M  V30 13711 H 281.355 0.403896 -7.13257 0
M  V30 13712 H 283.189 1.20585 -8.97435 0
M  V30 13713 H 283.26 2.71231 -5.45042 0
M  V30 13714 P 281.318 -1.17771 -8.83182 0
M  V30 13715 O 281.098 -2.07206 -9.98732 0
M  V30 13716 O 280.528 0.0743816 -8.81969 0
M  V30 13717 O 281.068 -1.97652 -7.47304 0
M  V30 13718 C 282.008 -3.01133 -7.08783 0
M  V30 13719 C 281.278 -4.12613 -6.37049 0
M  V30 13720 O 281.068 -3.72827 -4.97879 0
M  V30 13721 C 279.878 -4.45085 -6.88694 0
M  V30 13722 O 279.488 -5.7877 -6.5624 0
M  V30 13723 C 278.998 -3.47817 -6.12078 0
M  V30 13724 C 279.708 -3.39414 -4.77697 0
M  V30 13725 N 279.658 -2.04615 -4.15333 0
M  V30 13726 H 282.497 -3.41248 -7.98759 0
M  V30 13727 H 282.769 -2.5837 -6.41742 0
M  V30 13728 H 281.901 -5.02657 -6.42673 0
M  V30 13729 P 277.938 -6.144 -6.45285 0
M  V30 13730 O 277.718 -7.54673 -6.86199 0
M  V30 13731 O 277.148 -5.12391 -7.179 0
M  V30 13732 O 277.688 -5.99236 -4.88467 0
M  V30 13733 C 278.628 -6.60234 -3.96415 0
M  V30 13734 C 277.898 -7.08079 -2.736 0
M  V30 13735 O 277.688 -5.94365 -1.8368 0
M  V30 13736 C 276.498 -7.64886 -2.9555 0
M  V30 13737 O 276.108 -8.5406 -1.90739 0
M  V30 13738 C 275.618 -6.4116 -2.90739 0
M  V30 13739 C 276.328 -5.55375 -1.86963 0
M  V30 13740 N 276.278 -4.09664 -2.15742 0
M  V30 13741 C 276.128 -3.22231 -1.08477 0
M  V30 13742 O 276.038 -3.68951 0.0600489 0
M  V30 13743 N 276.078 -1.76692 -1.48799 0
M  V30 13744 C 276.178 -1.41695 -2.57602 0
M  V30 13745 N 276.128 -0.107296 -2.75791 0
M  V30 13746 C 276.328 -2.29178 -3.69733 0
M  V30 13747 C 276.378 -3.62753 -3.42653 0
M  V30 13748 H 279.118 -7.45488 -4.45578 0
M  V30 13749 H 279.388 -5.86232 -3.67314 0
M  V30 13750 H 278.521 -7.84508 -2.24507 0
M  V30 13751 H 275.866 -5.73556 -0.888715 0
M  V30 13752 H 275.586 -5.9096 -3.88638 0
M  V30 13753 H 274.595 -6.66053 -2.58894 0
M  V30 13754 H 276.429 -8.16339 -3.92049 0
M  V30 13755 H 276.501 -4.33052 -4.24913 0
M  V30 13756 H 276.399 -1.9103 -4.71577 0
M  V30 13757 H 276.011 0.521221 -1.95056 0
M  V30 13758 H 276.207 0.286429 -3.70695 0
M  V30 13759 P 274.558 -8.7635 -1.60911 0
M  V30 13760 O 274.338 -10.1388 -1.11561 0
M  V30 13761 O 273.768 -8.36503 -2.79617 0
M  V30 13762 O 274.308 -7.71806 -0.42951 0
M  V30 13763 C 275.248 -7.67148 0.673689 0
M  V30 13764 C 274.518 -7.33374 1.95559 0
M  V30 13765 O 274.308 -5.88721 2.00726 0
M  V30 13766 C 273.118 -7.92526 2.10483 0
M  V30 13767 O 272.728 -8.02971 3.47653 0
M  V30 13768 C 272.238 -6.89602 1.41652 0
M  V30 13769 C 272.948 -5.59201 1.75185 0
M  V30 13770 N 272.898 -4.58235 0.662552 0
M  V30 13771 H 275.737 -8.65116 0.777161 0
M  V30 13772 H 276.009 -6.90173 0.474152 0
M  V30 13773 H 275.141 -7.66548 2.79458 0
M  V30 13774 P 271.178 -8.03563 3.84925 0
M  V30 13775 O 270.958 -8.85821 5.0569 0
M  V30 13776 O 270.388 -8.41101 2.65469 0
M  V30 13777 O 270.928 -6.4965 4.18908 0
M  V30 13778 C 271.868 -5.80886 5.05289 0
M  V30 13779 C 271.138 -4.78366 5.89277 0
M  V30 13780 O 270.928 -3.58302 5.08433 0
M  V30 13781 C 269.738 -5.16748 6.36559 0
M  V30 13782 O 269.348 -4.45271 7.53232 0
M  V30 13783 C 268.858 -4.74572 5.19863 0
M  V30 13784 C 269.568 -3.49373 4.70338 0
M  V30 13785 N 269.518 -3.31704 3.22876 0
M  V30 13786 C 269.368 -2.03326 2.74871 0
M  V30 13787 O 269.278 -1.06486 3.48076 0
M  V30 13788 N 269.328 -1.91838 1.37456 0
M  V30 13789 C 269.418 -2.94295 0.462035 0
M  V30 13790 C 269.568 -4.25064 1.05249 0
M  V30 13791 C 269.618 -4.40214 2.39192 0
M  V30 13792 H 272.359 -6.54063 5.71245 0
M  V30 13793 H 272.628 -5.30339 4.43905 0
M  V30 13794 H 271.761 -4.55889 6.76652 0
M  V30 13795 H 269.106 -2.6167 5.17842 0
M  V30 13796 H 268.827 -5.52155 4.41878 0
M  V30 13797 H 267.835 -4.51918 5.53297 0
M  V30 13798 H 269.669 -6.25055 6.55162 0
M  V30 13799 H 269.74 -5.39798 2.81523 0
M  V30 13800 P 267.798 -4.23843 7.83734 0
M  V30 13801 O 267.578 -4.19407 9.29784 0
M  V30 13802 O 267.008 -5.24426 7.09156 0
M  V30 13803 O 267.548 -2.7935 7.20758 0
M  V30 13804 C 268.488 -1.7299 7.50419 0
M  V30 13805 C 267.758 -0.406376 7.57911 0
M  V30 13806 O 267.548 0.0897726 6.21935 0
M  V30 13807 C 266.358 -0.447224 8.1878 0
M  V30 13808 O 265.968 0.825065 8.71101 0
M  V30 13809 C 265.478 -0.783801 6.99623 0
M  V30 13810 C 266.188 -0.0619192 5.85967 0
M  V30 13811 N 266.138 -0.7859 4.56281 0
M  V30 13812 H 268.977 -1.93423 8.4679 0
M  V30 13813 H 269.249 -1.68181 6.71046 0
M  V30 13814 H 268.381 0.289041 8.15388 0
M  V30 13815 P 264.418 1.17771 8.83182 0
M  V30 13816 O 264.198 2.07206 9.98732 0
M  V30 13817 O 263.628 -0.0743816 8.81969 0
M  V30 13818 O 264.168 1.97652 7.47304 0
M  V30 13819 C 265.108 3.01133 7.08783 0
M  V30 13820 C 264.378 4.12613 6.37049 0
M  V30 13821 O 264.168 3.72827 4.97879 0
M  V30 13822 C 262.978 4.45085 6.88694 0
M  V30 13823 O 262.588 5.7877 6.5624 0
M  V30 13824 C 262.098 3.47817 6.12078 0
M  V30 13825 C 262.808 3.39414 4.77697 0
M  V30 13826 N 262.758 2.04199 4.15538 0
M  V30 13827 H 265.597 3.41248 7.98759 0
M  V30 13828 H 265.869 2.57728 6.42 0
M  V30 13829 H 265.001 5.02657 6.42673 0
M  V30 13830 H 262.346 4.11708 4.08956 0
M  V30 13831 H 262.066 2.49626 6.61679 0
M  V30 13832 H 261.075 3.8662 6.00862 0
M  V30 13833 H 262.909 4.29991 7.97006 0
M  V30 13834 P 261.038 6.144 6.45285 0
M  V30 13835 O 260.818 7.54673 6.86199 0
M  V30 13836 O 260.248 5.12391 7.179 0
M  V30 13837 O 260.788 5.99158 4.88404 0
M  V30 13838 C 261.728 6.60234 3.96415 0
M  V30 13839 C 260.998 7.08259 2.72856 0
M  V30 13840 O 260.788 5.9427 1.83651 0
M  V30 13841 C 259.598 7.64886 2.9555 0
M  V30 13842 O 259.208 8.53963 1.90717 0
M  V30 13843 C 258.718 6.4116 2.90739 0
M  V30 13844 C 259.428 5.55375 1.86963 0
M  V30 13845 N 259.378 4.09664 2.15742 0
M  V30 13846 H 262.217 7.45574 4.45629 0
M  V30 13847 H 262.489 5.86232 3.67314 0
M  V30 13848 H 261.621 7.84412 2.24479 0
M  V30 13849 P 257.658 8.7635 1.60911 0
M  V30 13850 O 257.438 10.1388 1.11561 0
M  V30 13851 O 256.868 8.36503 2.79617 0
M  V30 13852 O 257.408 7.71806 0.42951 0
M  V30 13853 C 258.348 7.67148 -0.673689 0
M  V30 13854 C 257.618 7.33374 -1.95559 0
M  V30 13855 O 257.408 5.88721 -2.00726 0
M  V30 13856 C 256.218 7.92526 -2.10483 0
M  V30 13857 O 255.828 8.02971 -3.47653 0
M  V30 13858 C 255.338 6.89602 -1.41652 0
M  V30 13859 C 256.048 5.59201 -1.75185 0
M  V30 13860 N 255.998 4.58301 -0.657969 0
M  V30 13861 H 258.837 8.65116 -0.777161 0
M  V30 13862 H 259.109 6.9022 -0.46725 0
M  V30 13863 H 258.241 7.66548 -2.79458 0
M  V30 13864 H 255.586 5.16165 -2.65183 0
M  V30 13865 H 255.306 7.06433 -0.329384 0
M  V30 13866 H 254.315 6.90926 -1.82021 0
M  V30 13867 H 256.149 8.90873 -1.62657 0
M  V30 13868 P 254.279 8.03563 -3.84925 0
M  V30 13869 O 254.059 8.85821 -5.0569 0
M  V30 13870 O 253.489 8.41101 -2.65469 0
M  V30 13871 O 254.029 6.49734 -4.18962 0
M  V30 13872 C 254.969 5.81037 -5.05421 0
M  V30 13873 C 254.239 4.79018 -5.88876 0
M  V30 13874 O 254.029 3.58359 -5.08515 0
M  V30 13875 C 252.839 5.17448 -6.36119 0
M  V30 13876 O 252.449 4.45322 -7.53318 0
M  V30 13877 C 251.959 4.74639 -5.19936 0
M  V30 13878 C 252.669 3.49432 -4.70418 0
M  V30 13879 N 252.619 3.31776 -3.22945 0
M  V30 13880 C 252.469 2.02742 -2.72939 0
M  V30 13881 O 252.379 1.08301 -3.52749 0
M  V30 13882 N 252.419 1.96117 -1.22063 0
M  V30 13883 C 252.519 2.8878 -0.551566 0
M  V30 13884 N 252.469 2.65609 0.750198 0
M  V30 13885 C 252.669 4.22457 -1.03707 0
M  V30 13886 C 252.719 4.37979 -2.39113 0
M  V30 13887 H 255.459 6.54138 -5.7131 0
M  V30 13888 H 255.729 5.30492 -4.44033 0
M  V30 13889 H 254.862 4.55945 -6.76735 0
M  V30 13890 H 252.207 2.6176 -5.18021 0
M  V30 13891 H 251.927 5.52233 -4.41941 0
M  V30 13892 H 250.936 4.52045 -5.53452 0
M  V30 13893 H 252.77 6.25124 -6.55234 0
M  V30 13894 H 252.842 5.37936 -2.80552 0
M  V30 13895 H 252.74 5.07528 -0.359553 0
M  V30 13896 H 252.352 1.69403 1.09847 0
M  V30 13897 H 252.548 3.43701 1.41792 0
M  V30 13898 P 250.899 4.23843 -7.83734 0
M  V30 13899 O 250.679 4.19407 -9.29784 0
M  V30 13900 O 250.109 5.24426 -7.09156 0
M  V30 13901 O 250.649 2.7935 -7.20758 0
M  V30 13902 C 251.589 1.7299 -7.50419 0
M  V30 13903 C 250.859 0.406376 -7.57911 0
M  V30 13904 O 250.649 -0.0897726 -6.21935 0
M  V30 13905 C 249.459 0.447224 -8.1878 0
M  V30 13906 O 249.069 -0.825065 -8.71101 0
M  V30 13907 C 248.579 0.783801 -6.99623 0
M  V30 13908 C 249.289 0.0619192 -5.85967 0
M  V30 13909 N 249.239 0.7859 -4.56281 0
M  V30 13910 H 252.078 1.93423 -8.4679 0
M  V30 13911 H 252.35 1.68181 -6.71046 0
M  V30 13912 H 251.482 -0.289041 -8.15388 0
M  V30 13913 P 247.519 -1.17771 -8.83182 0
M  V30 13914 O 247.299 -2.07206 -9.98732 0
M  V30 13915 O 246.729 0.0743816 -8.81969 0
M  V30 13916 O 247.269 -1.97652 -7.47304 0
M  V30 13917 C 248.209 -3.01055 -7.08599 0
M  V30 13918 C 247.479 -4.12613 -6.37049 0
M  V30 13919 O 247.269 -3.72827 -4.97879 0
M  V30 13920 C 246.079 -4.45719 -6.88164 0
M  V30 13921 O 245.689 -5.7877 -6.5624 0
M  V30 13922 C 245.199 -3.47768 -6.11991 0
M  V30 13923 C 245.909 -3.39356 -4.77615 0
M  V30 13924 N 245.859 -2.04571 -4.15244 0
M  V30 13925 C 245.709 -1.98587 -2.78314 0
M  V30 13926 O 245.619 -2.98134 -2.08835 0
M  V30 13927 N 245.669 -0.714467 -2.24925 0
M  V30 13928 C 245.759 0.470001 -2.94169 0
M  V30 13929 O 245.709 1.55587 -2.35195 0
M  V30 13930 C 245.909 0.312541 -4.36783 0
M  V30 13931 C 246.019 1.57711 -5.16352 0
M  V30 13932 C 245.959 -0.914512 -4.92583 0
M  V30 13933 H 248.7 -3.41169 -7.98575 0
M  V30 13934 H 248.969 -2.58295 -6.41556 0
M  V30 13935 H 248.102 -5.02657 -6.42673 0
M  V30 13936 H 245.447 -4.11637 -4.08885 0
M  V30 13937 H 245.168 -2.49626 -6.61679 0
M  V30 13938 H 244.176 -3.86566 -6.00778 0
M  V30 13939 H 246.01 -4.29943 -7.96918 0
M  V30 13940 H 246.081 -1.00937 -6.00374 0
M  V30 13941 H 245.051 1.80153 -5.63503 0
M  V30 13942 H 246.788 1.4566 -5.94104 0
M  V30 13943 H 246.3 2.40664 -4.49645 0
M  V30 13944 H 245.564 -0.647622 -1.25697 0
M  V30 13945 P 244.139 -6.144 -6.45285 0
M  V30 13946 O 243.919 -7.54673 -6.86199 0
M  V30 13947 O 243.349 -5.12391 -7.179 0
M  V30 13948 O 243.889 -5.99158 -4.88404 0
M  V30 13949 C 244.829 -6.60234 -3.96415 0
M  V30 13950 C 244.099 -7.08259 -2.72856 0
M  V30 13951 O 243.889 -5.9427 -1.83651 0
M  V30 13952 C 242.699 -7.64886 -2.9555 0
M  V30 13953 O 242.309 -8.53963 -1.90717 0
M  V30 13954 C 241.819 -6.4116 -2.90739 0
M  V30 13955 C 242.529 -5.55375 -1.86963 0
M  V30 13956 N 242.479 -4.09664 -2.15742 0
M  V30 13957 H 245.318 -7.45574 -4.45629 0
M  V30 13958 H 245.59 -5.86232 -3.67314 0
M  V30 13959 H 244.722 -7.84412 -2.24479 0
M  V30 13960 P 240.759 -8.7635 -1.60911 0
M  V30 13961 O 240.539 -10.1388 -1.11561 0
M  V30 13962 O 239.969 -8.36503 -2.79617 0
M  V30 13963 O 240.509 -7.71806 -0.42951 0
M  V30 13964 C 241.449 -7.67148 0.673689 0
M  V30 13965 C 240.719 -7.33374 1.95559 0
M  V30 13966 O 240.509 -5.88721 2.00726 0
M  V30 13967 C 239.319 -7.92526 2.10483 0
M  V30 13968 O 238.929 -8.02971 3.47653 0
M  V30 13969 C 238.439 -6.89602 1.41652 0
M  V30 13970 C 239.149 -5.59201 1.75185 0
M  V30 13971 N 239.099 -4.58235 0.662552 0
M  V30 13972 H 241.938 -8.65116 0.777161 0
M  V30 13973 H 242.21 -6.90173 0.474152 0
M  V30 13974 H 241.342 -7.66548 2.79458 0
M  V30 13975 P 237.379 -8.03563 3.84925 0
M  V30 13976 O 237.159 -8.85821 5.0569 0
M  V30 13977 O 236.589 -8.41101 2.65469 0
M  V30 13978 O 237.129 -6.4965 4.18908 0
M  V30 13979 C 238.069 -5.80886 5.05289 0
M  V30 13980 C 237.339 -4.78366 5.89277 0
M  V30 13981 O 237.129 -3.58302 5.08433 0
M  V30 13982 C 235.939 -5.16748 6.36559 0
M  V30 13983 O 235.549 -4.45271 7.53232 0
M  V30 13984 C 235.059 -4.74572 5.19863 0
M  V30 13985 C 235.769 -3.49373 4.70338 0
M  V30 13986 N 235.719 -3.31704 3.22876 0
M  V30 13987 C 235.569 -2.03326 2.74871 0
M  V30 13988 O 235.479 -1.06486 3.48076 0
M  V30 13989 N 235.529 -1.91838 1.37456 0
M  V30 13990 C 235.619 -2.94295 0.462035 0
M  V30 13991 O 235.569 -2.71763 -0.752928 0
M  V30 13992 C 235.769 -4.25064 1.05249 0
M  V30 13993 C 235.879 -5.39815 0.095697 0
M  V30 13994 C 235.819 -4.40214 2.39192 0
M  V30 13995 H 238.56 -6.54063 5.71245 0
M  V30 13996 H 238.829 -5.30339 4.43905 0
M  V30 13997 H 237.962 -4.55889 6.76652 0
M  V30 13998 H 235.307 -2.6167 5.17842 0
M  V30 13999 H 235.028 -5.52155 4.41878 0
M  V30 14000 H 234.036 -4.51918 5.53297 0
M  V30 14001 H 235.87 -6.25055 6.55162 0
M  V30 14002 H 235.941 -5.39798 2.81523 0
M  V30 14003 H 234.911 -5.91593 0.0279582 0
M  V30 14004 H 236.648 -6.10038 0.450573 0
M  V30 14005 H 236.16 -5.02007 -0.89937 0
M  V30 14006 H 235.424 -0.995326 1.00435 0
M  V30 14007 P 233.999 -4.23843 7.83734 0
M  V30 14008 O 233.779 -4.19407 9.29784 0
M  V30 14009 O 233.209 -5.24426 7.09156 0
M  V30 14010 O 233.749 -2.7935 7.20758 0
M  V30 14011 C 234.689 -1.7299 7.50419 0
M  V30 14012 C 233.959 -0.406376 7.57911 0
M  V30 14013 O 233.749 0.0897726 6.21935 0
M  V30 14014 C 232.559 -0.447224 8.1878 0
M  V30 14015 O 232.169 0.825065 8.71101 0
M  V30 14016 C 231.679 -0.783801 6.99623 0
M  V30 14017 C 232.389 -0.0619192 5.85967 0
M  V30 14018 N 232.339 -0.7859 4.56281 0
M  V30 14019 H 235.178 -1.93423 8.4679 0
M  V30 14020 H 235.45 -1.68181 6.71046 0
M  V30 14021 H 234.582 0.289041 8.15388 0
M  V30 14022 P 230.619 1.17771 8.83182 0
M  V30 14023 O 230.399 2.07206 9.98732 0
M  V30 14024 O 229.829 -0.0743816 8.81969 0
M  V30 14025 O 230.369 1.97652 7.47304 0
M  V30 14026 C 231.309 3.01133 7.08783 0
M  V30 14027 C 230.579 4.12613 6.37049 0
M  V30 14028 O 230.369 3.72827 4.97879 0
M  V30 14029 C 229.179 4.45085 6.88694 0
M  V30 14030 O 228.789 5.7877 6.5624 0
M  V30 14031 C 228.299 3.47817 6.12078 0
M  V30 14032 C 229.009 3.39414 4.77697 0
M  V30 14033 N 228.959 2.04615 4.15333 0
M  V30 14034 H 231.798 3.41248 7.98759 0
M  V30 14035 H 232.07 2.5837 6.41742 0
M  V30 14036 H 231.202 5.02657 6.42673 0
M  V30 14037 P 227.239 6.144 6.45285 0
M  V30 14038 O 227.019 7.54673 6.86199 0
M  V30 14039 O 226.449 5.12391 7.179 0
M  V30 14040 O 226.989 5.99158 4.88404 0
M  V30 14041 C 227.929 6.60234 3.96415 0
M  V30 14042 C 227.199 7.08259 2.72856 0
M  V30 14043 O 226.989 5.9427 1.83651 0
M  V30 14044 C 225.799 7.64886 2.9555 0
M  V30 14045 O 225.409 8.53963 1.90717 0
M  V30 14046 C 224.919 6.4116 2.90739 0
M  V30 14047 C 225.629 5.55375 1.86963 0
M  V30 14048 N 225.579 4.09448 2.16152 0
M  V30 14049 H 228.418 7.45574 4.45629 0
M  V30 14050 H 228.69 5.85864 3.679 0
M  V30 14051 H 227.822 7.84412 2.24479 0
M  V30 14052 H 225.167 5.73457 0.888562 0
M  V30 14053 H 224.887 5.90877 3.88583 0
M  V30 14054 H 223.896 6.6596 2.58858 0
M  V30 14055 H 225.73 8.16339 3.92049 0
M  V30 14056 P 223.859 8.7635 1.60911 0
M  V30 14057 O 223.639 10.1388 1.11561 0
M  V30 14058 O 223.069 8.36503 2.79617 0
M  V30 14059 O 223.609 7.71806 0.42951 0
M  V30 14060 C 224.549 7.67148 -0.673689 0
M  V30 14061 C 223.819 7.33374 -1.95559 0
M  V30 14062 O 223.609 5.88721 -2.00726 0
M  V30 14063 C 222.419 7.92526 -2.10483 0
M  V30 14064 O 222.029 8.02971 -3.47653 0
M  V30 14065 C 221.539 6.89602 -1.41652 0
M  V30 14066 C 222.249 5.59201 -1.75185 0
M  V30 14067 N 222.199 4.58301 -0.657969 0
M  V30 14068 H 225.038 8.65116 -0.777161 0
M  V30 14069 H 225.31 6.9022 -0.46725 0
M  V30 14070 H 224.442 7.66548 -2.79458 0
M  V30 14071 H 221.787 5.16165 -2.65183 0
M  V30 14072 H 221.507 7.06433 -0.329384 0
M  V30 14073 H 220.516 6.90926 -1.82021 0
M  V30 14074 H 222.35 8.90873 -1.62657 0
M  V30 14075 P 220.479 8.03563 -3.84925 0
M  V30 14076 O 220.259 8.85821 -5.0569 0
M  V30 14077 O 219.689 8.41101 -2.65469 0
M  V30 14078 O 220.229 6.4965 -4.18908 0
M  V30 14079 C 221.169 5.80886 -5.05289 0
M  V30 14080 C 220.439 4.78366 -5.89277 0
M  V30 14081 O 220.229 3.58302 -5.08433 0
M  V30 14082 C 219.039 5.16748 -6.36559 0
M  V30 14083 O 218.649 4.45271 -7.53232 0
M  V30 14084 C 218.159 4.74572 -5.19863 0
M  V30 14085 C 218.869 3.49373 -4.70338 0
M  V30 14086 N 218.819 3.31704 -3.22876 0
M  V30 14087 C 218.669 2.03326 -2.74871 0
M  V30 14088 O 218.579 1.06486 -3.48076 0
M  V30 14089 N 218.629 1.91838 -1.37456 0
M  V30 14090 C 218.719 2.94295 -0.462035 0
M  V30 14091 O 218.669 2.71763 0.752928 0
M  V30 14092 C 218.869 4.25064 -1.05249 0
M  V30 14093 C 218.979 5.39815 -0.095697 0
M  V30 14094 C 218.919 4.40214 -2.39192 0
M  V30 14095 H 221.66 6.54063 -5.71245 0
M  V30 14096 H 221.929 5.30339 -4.43905 0
M  V30 14097 H 221.062 4.55889 -6.76652 0
M  V30 14098 H 218.407 2.6167 -5.17842 0
M  V30 14099 H 218.128 5.52155 -4.41878 0
M  V30 14100 H 217.136 4.51918 -5.53297 0
M  V30 14101 H 218.97 6.25055 -6.55162 0
M  V30 14102 H 219.041 5.39798 -2.81523 0
M  V30 14103 H 218.011 5.91593 -0.0279582 0
M  V30 14104 H 219.748 6.10038 -0.450573 0
M  V30 14105 H 219.26 5.02007 0.89937 0
M  V30 14106 H 218.524 0.995326 -1.00435 0
M  V30 14107 P 217.099 4.23843 -7.83734 0
M  V30 14108 O 216.879 4.19407 -9.29784 0
M  V30 14109 O 216.309 5.24426 -7.09156 0
M  V30 14110 O 216.849 2.7935 -7.20758 0
M  V30 14111 C 217.789 1.7299 -7.50419 0
M  V30 14112 C 217.059 0.406376 -7.57911 0
M  V30 14113 O 216.849 -0.0897726 -6.21935 0
M  V30 14114 C 215.659 0.447224 -8.1878 0
M  V30 14115 O 215.269 -0.825065 -8.71101 0
M  V30 14116 C 214.779 0.783801 -6.99623 0
M  V30 14117 C 215.489 0.0619192 -5.85967 0
M  V30 14118 N 215.439 0.7859 -4.56281 0
M  V30 14119 H 218.278 1.93423 -8.4679 0
M  V30 14120 H 218.55 1.68181 -6.71046 0
M  V30 14121 H 217.682 -0.289041 -8.15388 0
M  V30 14122 P 213.719 -1.17771 -8.83182 0
M  V30 14123 O 213.499 -2.07206 -9.98732 0
M  V30 14124 O 212.929 0.0743816 -8.81969 0
M  V30 14125 O 213.469 -1.97652 -7.47304 0
M  V30 14126 C 214.409 -3.01133 -7.08783 0
M  V30 14127 C 213.679 -4.12613 -6.37049 0
M  V30 14128 O 213.469 -3.72827 -4.97879 0
M  V30 14129 C 212.279 -4.45085 -6.88694 0
M  V30 14130 O 211.889 -5.7877 -6.5624 0
M  V30 14131 C 211.399 -3.47817 -6.12078 0
M  V30 14132 C 212.109 -3.39414 -4.77697 0
M  V30 14133 N 212.059 -2.04615 -4.15333 0
M  V30 14134 H 214.898 -3.41248 -7.98759 0
M  V30 14135 H 215.17 -2.5837 -6.41742 0
M  V30 14136 H 214.302 -5.02657 -6.42673 0
M  V30 14137 P 210.339 -6.144 -6.45285 0
M  V30 14138 O 210.119 -7.54673 -6.86199 0
M  V30 14139 O 209.549 -5.12391 -7.179 0
M  V30 14140 O 210.089 -5.99158 -4.88404 0
M  V30 14141 C 211.029 -6.60234 -3.96415 0
M  V30 14142 C 210.299 -7.08259 -2.72856 0
M  V30 14143 O 210.089 -5.9427 -1.83651 0
M  V30 14144 C 208.899 -7.64886 -2.9555 0
M  V30 14145 O 208.509 -8.53963 -1.90717 0
M  V30 14146 C 208.019 -6.4116 -2.90739 0
M  V30 14147 C 208.729 -5.55375 -1.86963 0
M  V30 14148 N 208.679 -4.09664 -2.15742 0
M  V30 14149 H 211.518 -7.45574 -4.45629 0
M  V30 14150 H 211.79 -5.86232 -3.67314 0
M  V30 14151 H 210.922 -7.84412 -2.24479 0
M  V30 14152 P 206.959 -8.7635 -1.60911 0
M  V30 14153 O 206.739 -10.1388 -1.11561 0
M  V30 14154 O 206.169 -8.36503 -2.79617 0
M  V30 14155 O 206.709 -7.71806 -0.42951 0
M  V30 14156 C 207.649 -7.67148 0.673689 0
M  V30 14157 C 206.919 -7.33374 1.95559 0
M  V30 14158 O 206.709 -5.88721 2.00726 0
M  V30 14159 C 205.519 -7.92526 2.10483 0
M  V30 14160 O 205.129 -8.02971 3.47653 0
M  V30 14161 C 204.639 -6.89602 1.41652 0
M  V30 14162 C 205.349 -5.59201 1.75185 0
M  V30 14163 N 205.299 -4.58235 0.662552 0
M  V30 14164 H 208.138 -8.65116 0.777161 0
M  V30 14165 H 208.41 -6.90173 0.474152 0
M  V30 14166 H 207.542 -7.66548 2.79458 0
M  V30 14167 P 203.579 -8.03563 3.84925 0
M  V30 14168 O 203.359 -8.85821 5.0569 0
M  V30 14169 O 202.789 -8.41101 2.65469 0
M  V30 14170 O 203.329 -6.4965 4.18908 0
M  V30 14171 C 204.269 -5.80886 5.05289 0
M  V30 14172 C 203.539 -4.78366 5.89277 0
M  V30 14173 O 203.329 -3.58302 5.08433 0
M  V30 14174 C 202.139 -5.16748 6.36559 0
M  V30 14175 O 201.749 -4.45271 7.53232 0
M  V30 14176 C 201.259 -4.74572 5.19863 0
M  V30 14177 C 201.969 -3.49373 4.70338 0
M  V30 14178 N 201.919 -3.31704 3.22876 0
M  V30 14179 C 201.769 -2.03326 2.74871 0
M  V30 14180 O 201.679 -1.06486 3.48076 0
M  V30 14181 N 201.729 -1.91838 1.37456 0
M  V30 14182 C 201.819 -2.94295 0.462035 0
M  V30 14183 O 201.769 -2.71763 -0.752928 0
M  V30 14184 C 201.969 -4.25064 1.05249 0
M  V30 14185 C 202.079 -5.39815 0.095697 0
M  V30 14186 C 202.019 -4.40214 2.39192 0
M  V30 14187 H 204.76 -6.54063 5.71245 0
M  V30 14188 H 205.029 -5.30339 4.43905 0
M  V30 14189 H 204.162 -4.55889 6.76652 0
M  V30 14190 H 201.507 -2.6167 5.17842 0
M  V30 14191 H 201.228 -5.52155 4.41878 0
M  V30 14192 H 200.236 -4.51918 5.53297 0
M  V30 14193 H 202.07 -6.25055 6.55162 0
M  V30 14194 H 202.141 -5.39798 2.81523 0
M  V30 14195 H 201.111 -5.91593 0.0279582 0
M  V30 14196 H 202.848 -6.10038 0.450573 0
M  V30 14197 H 202.36 -5.02007 -0.89937 0
M  V30 14198 H 201.624 -0.995326 1.00435 0
M  V30 14199 P 200.199 -4.23843 7.83734 0
M  V30 14200 O 199.979 -4.19407 9.29784 0
M  V30 14201 O 199.409 -5.24426 7.09156 0
M  V30 14202 O 199.949 -2.7935 7.20758 0
M  V30 14203 C 200.889 -1.7299 7.50419 0
M  V30 14204 C 200.159 -0.406376 7.57911 0
M  V30 14205 O 199.949 0.0897726 6.21935 0
M  V30 14206 C 198.759 -0.447224 8.1878 0
M  V30 14207 O 198.369 0.825065 8.71101 0
M  V30 14208 C 197.879 -0.783801 6.99623 0
M  V30 14209 C 198.589 -0.0619192 5.85967 0
M  V30 14210 N 198.539 -0.7859 4.56281 0
M  V30 14211 H 201.378 -1.93423 8.4679 0
M  V30 14212 H 201.65 -1.68181 6.71046 0
M  V30 14213 H 200.782 0.289041 8.15388 0
M  V30 14214 P 196.819 1.17771 8.83182 0
M  V30 14215 O 196.599 2.07206 9.98732 0
M  V30 14216 O 196.029 -0.0743816 8.81969 0
M  V30 14217 O 196.569 1.97678 7.474 0
M  V30 14218 C 197.509 3.01133 7.08783 0
M  V30 14219 C 196.779 4.1203 6.37546 0
M  V30 14220 O 196.569 3.72887 4.9796 0
M  V30 14221 C 195.379 4.45085 6.88694 0
M  V30 14222 O 194.989 5.78836 6.56315 0
M  V30 14223 C 194.499 3.47817 6.12078 0
M  V30 14224 C 195.209 3.39414 4.77697 0
M  V30 14225 N 195.159 2.04615 4.15333 0
M  V30 14226 C 195.009 1.96929 2.77162 0
M  V30 14227 O 194.919 3.02017 2.12006 0
M  V30 14228 N 194.959 0.55485 2.24237 0
M  V30 14229 C 195.059 -0.367808 2.9169 0
M  V30 14230 N 195.009 -1.53426 2.29427 0
M  V30 14231 C 195.209 -0.319148 4.33828 0
M  V30 14232 C 195.259 0.920672 4.90433 0
M  V30 14233 H 197.999 3.41209 7.98667 0
M  V30 14234 H 198.269 2.5837 6.41742 0
M  V30 14235 H 197.402 5.02718 6.42752 0
M  V30 14236 H 194.747 4.11779 4.09026 0
M  V30 14237 H 194.467 2.49661 6.61772 0
M  V30 14238 H 193.476 3.86674 6.00946 0
M  V30 14239 H 195.31 4.29991 7.97006 0
M  V30 14240 H 195.382 1.00589 5.98303 0
M  V30 14241 H 195.28 -1.22639 4.93799 0
M  V30 14242 H 194.892 -1.56819 1.27167 0
M  V30 14243 H 195.088 -2.41062 2.83063 0
M  V30 14244 P 193.439 6.144 6.45285 0
M  V30 14245 O 193.219 7.54673 6.86199 0
M  V30 14246 O 192.649 5.12391 7.179 0
M  V30 14247 O 193.189 5.99158 4.88404 0
M  V30 14248 C 194.129 6.60234 3.96415 0
M  V30 14249 C 193.399 7.08259 2.72856 0
M  V30 14250 O 193.189 5.9427 1.83651 0
M  V30 14251 C 191.999 7.64886 2.9555 0
M  V30 14252 O 191.609 8.53963 1.90717 0
M  V30 14253 C 191.119 6.4116 2.90739 0
M  V30 14254 C 191.829 5.55375 1.86963 0
M  V30 14255 N 191.779 4.09448 2.16152 0
M  V30 14256 C 191.859 3.46824 3.37593 0
M  V30 14257 N 191.789 2.17422 3.29777 0
M  V30 14258 C 191.639 1.93065 1.94427 0
M  V30 14259 C 191.509 0.738053 1.20141 0
M  V30 14260 N 191.499 -0.474256 1.74676 0
M  V30 14261 N 191.389 0.850049 -0.13045 0
M  V30 14262 C 191.399 2.06169 -0.676992 0
M  V30 14263 N 191.519 3.23842 -0.101312 0
M  V30 14264 C 191.639 3.09402 1.23122 0
M  V30 14265 H 194.618 7.45574 4.45629 0
M  V30 14266 H 194.89 5.85864 3.679 0
M  V30 14267 H 194.022 7.84412 2.24479 0
M  V30 14268 H 191.367 5.73457 0.888562 0
M  V30 14269 H 191.087 5.90877 3.88583 0
M  V30 14270 H 190.096 6.6596 2.58858 0
M  V30 14271 H 191.93 8.16339 3.92049 0
M  V30 14272 H 191.971 4.00505 4.3174 0
M  V30 14273 H 191.59 -0.581337 2.76658 0
M  V30 14274 H 191.401 -1.30811 1.14888 0
M  V30 14275 H 191.293 2.08295 -1.75542 0
M  V30 14276 P 190.059 8.7635 1.60911 0
M  V30 14277 O 189.839 10.1388 1.11561 0
M  V30 14278 O 189.269 8.36503 2.79617 0
M  V30 14279 O 189.809 7.71806 0.42951 0
M  V30 14280 C 190.749 7.67148 -0.673689 0
M  V30 14281 C 190.019 7.33374 -1.95559 0
M  V30 14282 O 189.809 5.88721 -2.00726 0
M  V30 14283 C 188.619 7.92526 -2.10483 0
M  V30 14284 O 188.229 8.02971 -3.47653 0
M  V30 14285 C 187.739 6.89602 -1.41652 0
M  V30 14286 C 188.449 5.59201 -1.75185 0
M  V30 14287 N 188.399 4.58301 -0.657969 0
M  V30 14288 H 191.238 8.65116 -0.777161 0
M  V30 14289 H 191.51 6.9022 -0.46725 0
M  V30 14290 H 190.642 7.66548 -2.79458 0
M  V30 14291 H 187.987 5.16165 -2.65183 0
M  V30 14292 H 187.707 7.06433 -0.329384 0
M  V30 14293 H 186.716 6.90926 -1.82021 0
M  V30 14294 H 188.55 8.90873 -1.62657 0
M  V30 14295 P 186.679 8.03563 -3.84925 0
M  V30 14296 O 186.459 8.85821 -5.0569 0
M  V30 14297 O 185.889 8.41101 -2.65469 0
M  V30 14298 O 186.429 6.4965 -4.18908 0
M  V30 14299 C 187.369 5.80886 -5.05289 0
M  V30 14300 C 186.639 4.78366 -5.89277 0
M  V30 14301 O 186.429 3.58302 -5.08433 0
M  V30 14302 C 185.239 5.16748 -6.36559 0
M  V30 14303 O 184.849 4.45271 -7.53232 0
M  V30 14304 C 184.359 4.74572 -5.19863 0
M  V30 14305 C 185.069 3.49373 -4.70338 0
M  V30 14306 N 185.019 3.31704 -3.22876 0
M  V30 14307 C 184.869 2.03326 -2.74871 0
M  V30 14308 O 184.779 1.06486 -3.48076 0
M  V30 14309 N 184.829 1.91838 -1.37456 0
M  V30 14310 C 184.919 2.94295 -0.462035 0
M  V30 14311 C 185.069 4.25064 -1.05249 0
M  V30 14312 C 185.119 4.40214 -2.39192 0
M  V30 14313 H 187.86 6.54063 -5.71245 0
M  V30 14314 H 188.129 5.30339 -4.43905 0
M  V30 14315 H 187.262 4.55889 -6.76652 0
M  V30 14316 H 184.607 2.6167 -5.17842 0
M  V30 14317 H 184.328 5.52155 -4.41878 0
M  V30 14318 H 183.336 4.51918 -5.53297 0
M  V30 14319 H 185.17 6.25055 -6.55162 0
M  V30 14320 H 185.241 5.39798 -2.81523 0
M  V30 14321 P 183.299 4.23843 -7.83734 0
M  V30 14322 O 183.079 4.19407 -9.29784 0
M  V30 14323 O 182.509 5.24426 -7.09156 0
M  V30 14324 O 183.049 2.79386 -7.20852 0
M  V30 14325 C 183.989 1.7299 -7.50419 0
M  V30 14326 C 183.259 0.41401 -7.5797 0
M  V30 14327 O 183.049 -0.089787 -6.22035 0
M  V30 14328 C 181.859 0.447224 -8.1878 0
M  V30 14329 O 181.469 -0.825159 -8.71201 0
M  V30 14330 C 180.979 0.783801 -6.99623 0
M  V30 14331 C 181.689 0.0619192 -5.85967 0
M  V30 14332 N 181.639 0.7859 -4.56281 0
M  V30 14333 C 181.489 0.0359258 -3.39981 0
M  V30 14334 O 181.399 -1.19723 -3.49038 0
M  V30 14335 N 181.439 0.869151 -2.14025 0
M  V30 14336 C 181.539 2.01207 -2.14363 0
M  V30 14337 N 181.489 2.58978 -0.954287 0
M  V30 14338 C 181.689 2.80817 -3.32215 0
M  V30 14339 C 181.739 2.13785 -4.50884 0
M  V30 14340 H 184.479 1.93401 -8.46693 0
M  V30 14341 H 184.749 1.68181 -6.71046 0
M  V30 14342 H 183.882 -0.289076 -8.15488 0
M  V30 14343 H 181.227 -0.927166 -5.72947 0
M  V30 14344 H 180.947 1.87 -6.82132 0
M  V30 14345 H 179.956 0.404009 -7.13457 0
M  V30 14346 H 181.79 1.20599 -8.97534 0
M  V30 14347 H 181.862 2.70295 -5.43162 0
M  V30 14348 H 181.76 3.89465 -3.27406 0
M  V30 14349 H 181.372 2.01616 -0.107046 0
M  V30 14350 H 181.568 3.61403 -0.873101 0
M  V30 14351 P 179.919 -1.17771 -8.83182 0
M  V30 14352 O 179.699 -2.07206 -9.98732 0
M  V30 14353 O 179.129 0.0743816 -8.81969 0
M  V30 14354 O 179.669 -1.97652 -7.47304 0
M  V30 14355 C 180.609 -3.01133 -7.08783 0
M  V30 14356 C 179.879 -4.12613 -6.37049 0
M  V30 14357 O 179.669 -3.72827 -4.97879 0
M  V30 14358 C 178.479 -4.45085 -6.88694 0
M  V30 14359 O 178.089 -5.7877 -6.5624 0
M  V30 14360 C 177.599 -3.47817 -6.12078 0
M  V30 14361 C 178.309 -3.39414 -4.77697 0
M  V30 14362 N 178.259 -2.04615 -4.15333 0
M  V30 14363 H 181.098 -3.41248 -7.98759 0
M  V30 14364 H 181.37 -2.5837 -6.41742 0
M  V30 14365 H 180.502 -5.02657 -6.42673 0
M  V30 14366 P 176.539 -6.144 -6.45285 0
M  V30 14367 O 176.319 -7.54673 -6.86199 0
M  V30 14368 O 175.749 -5.12391 -7.179 0
M  V30 14369 O 176.289 -5.99158 -4.88404 0
M  V30 14370 C 177.229 -6.60234 -3.96415 0
M  V30 14371 C 176.499 -7.08259 -2.72856 0
M  V30 14372 O 176.289 -5.9427 -1.83651 0
M  V30 14373 C 175.099 -7.64886 -2.9555 0
M  V30 14374 O 174.709 -8.53963 -1.90717 0
M  V30 14375 C 174.219 -6.4116 -2.90739 0
M  V30 14376 C 174.929 -5.55375 -1.86963 0
M  V30 14377 N 174.879 -4.09664 -2.15742 0
M  V30 14378 C 174.959 -3.44381 -3.37233 0
M  V30 14379 N 174.879 -2.14131 -3.28347 0
M  V30 14380 C 174.739 -1.90247 -1.91588 0
M  V30 14381 C 174.609 -0.683992 -1.20892 0
M  V30 14382 N 174.489 -0.903396 0.173998 0
M  V30 14383 C 174.489 -2.14171 0.784879 0
M  V30 14384 N 174.359 -2.1435 2.11317 0
M  V30 14385 N 174.619 -3.28784 0.119316 0
M  V30 14386 C 174.739 -3.0977 -1.22194 0
M  V30 14387 H 177.718 -7.45574 -4.45629 0
M  V30 14388 H 177.99 -5.86232 -3.67314 0
M  V30 14389 H 177.122 -7.84412 -2.24479 0
M  V30 14390 P 173.159 -8.7635 -1.60911 0
M  V30 14391 O 172.939 -10.1388 -1.11561 0
M  V30 14392 O 172.369 -8.36503 -2.79617 0
M  V30 14393 O 172.909 -7.71806 -0.42951 0
M  V30 14394 C 173.849 -7.67148 0.673689 0
M  V30 14395 C 173.119 -7.33374 1.95559 0
M  V30 14396 O 172.909 -5.88721 2.00726 0
M  V30 14397 C 171.719 -7.92526 2.10483 0
M  V30 14398 O 171.329 -8.02971 3.47653 0
M  V30 14399 C 170.839 -6.89602 1.41652 0
M  V30 14400 C 171.549 -5.59201 1.75185 0
M  V30 14401 N 171.499 -4.58301 0.657969 0
M  V30 14402 H 174.338 -8.65116 0.777161 0
M  V30 14403 H 174.61 -6.9022 0.46725 0
M  V30 14404 H 173.742 -7.66548 2.79458 0
M  V30 14405 H 171.087 -5.16165 2.65183 0
M  V30 14406 H 170.807 -7.06433 0.329384 0
M  V30 14407 H 169.816 -6.90926 1.82021 0
M  V30 14408 H 171.65 -8.90873 1.62657 0
M  V30 14409 P 169.779 -8.03563 3.84925 0
M  V30 14410 O 169.559 -8.85821 5.0569 0
M  V30 14411 O 168.989 -8.41101 2.65469 0
M  V30 14412 O 169.529 -6.4965 4.18908 0
M  V30 14413 C 170.469 -5.81037 5.05421 0
M  V30 14414 C 169.739 -4.78366 5.89277 0
M  V30 14415 O 169.529 -3.58302 5.08433 0
M  V30 14416 C 168.339 -5.17448 6.36119 0
M  V30 14417 O 167.949 -4.45271 7.53232 0
M  V30 14418 C 167.459 -4.74639 5.19936 0
M  V30 14419 C 168.169 -3.49432 4.70418 0
M  V30 14420 N 168.119 -3.31776 3.22945 0
M  V30 14421 H 170.958 -6.54213 5.71376 0
M  V30 14422 H 171.23 -5.30492 4.44033 0
M  V30 14423 H 170.362 -4.55889 6.76652 0
M  V30 14424 P 166.399 -4.23843 7.83734 0
M  V30 14425 O 166.179 -4.19407 9.29784 0
M  V30 14426 O 165.609 -5.24426 7.09156 0
M  V30 14427 O 166.149 -2.7935 7.20758 0
M  V30 14428 C 167.089 -1.7299 7.50419 0
M  V30 14429 C 166.359 -0.406376 7.57911 0
M  V30 14430 O 166.149 0.0897726 6.21935 0
M  V30 14431 C 164.959 -0.447224 8.1878 0
M  V30 14432 O 164.569 0.825065 8.71101 0
M  V30 14433 C 164.079 -0.783801 6.99623 0
M  V30 14434 C 164.789 -0.0619192 5.85967 0
M  V30 14435 N 164.739 -0.790462 4.56202 0
M  V30 14436 C 164.819 -2.13895 4.34171 0
M  V30 14437 N 164.749 -2.46449 3.08687 0
M  V30 14438 C 164.599 -1.2525 2.43697 0
M  V30 14439 C 164.469 -0.914535 1.07318 0
M  V30 14440 N 164.459 -1.80782 0.0887348 0
M  V30 14441 N 164.349 0.386745 0.768133 0
M  V30 14442 C 164.359 1.28096 1.75159 0
M  V30 14443 N 164.479 1.09708 3.04861 0
M  V30 14444 C 164.599 -0.214857 3.32306 0
M  V30 14445 H 167.578 -1.93423 8.4679 0
M  V30 14446 H 167.85 -1.68852 6.70877 0
M  V30 14447 H 166.982 0.289041 8.15388 0
M  V30 14448 H 164.327 0.927006 5.72848 0
M  V30 14449 H 164.047 -1.86973 6.82036 0
M  V30 14450 H 163.056 -0.403953 7.13357 0
M  V30 14451 H 164.89 -1.20599 8.97534 0
M  V30 14452 H 164.931 -2.86846 5.14318 0
M  V30 14453 H 164.55 -2.81082 0.302037 0
M  V30 14454 H 164.361 -1.49688 -0.889064 0
M  V30 14455 H 164.253 2.31317 1.43855 0
M  V30 14456 P 163.019 1.17771 8.83182 0
M  V30 14457 O 162.799 2.07206 9.98732 0
M  V30 14458 O 162.229 -0.0743816 8.81969 0
M  V30 14459 O 162.769 1.97652 7.47304 0
M  V30 14460 C 163.709 3.01133 7.08783 0
M  V30 14461 C 162.979 4.12613 6.37049 0
M  V30 14462 O 162.769 3.72827 4.97879 0
M  V30 14463 C 161.579 4.45085 6.88694 0
M  V30 14464 O 161.189 5.7877 6.5624 0
M  V30 14465 C 160.699 3.47817 6.12078 0
M  V30 14466 C 161.409 3.39414 4.77697 0
M  V30 14467 N 161.359 2.04615 4.15333 0
M  V30 14468 H 164.198 3.41248 7.98759 0
M  V30 14469 H 164.47 2.5837 6.41742 0
M  V30 14470 H 163.602 5.02657 6.42673 0
M  V30 14471 P 159.639 6.144 6.45285 0
M  V30 14472 O 159.419 7.54673 6.86199 0
M  V30 14473 O 158.849 5.12391 7.179 0
M  V30 14474 O 159.389 5.99158 4.88404 0
M  V30 14475 C 160.329 6.60234 3.96415 0
M  V30 14476 C 159.599 7.08259 2.72856 0
M  V30 14477 O 159.389 5.9427 1.83651 0
M  V30 14478 C 158.199 7.64886 2.9555 0
M  V30 14479 O 157.809 8.53963 1.90717 0
M  V30 14480 C 157.319 6.4116 2.90739 0
M  V30 14481 C 158.029 5.55375 1.86963 0
M  V30 14482 N 157.979 4.09448 2.16152 0
M  V30 14483 C 158.059 3.46824 3.37593 0
M  V30 14484 N 157.989 2.17422 3.29777 0
M  V30 14485 C 157.839 1.93065 1.94427 0
M  V30 14486 C 157.709 0.738053 1.20141 0
M  V30 14487 N 157.699 -0.474256 1.74676 0
M  V30 14488 N 157.589 0.850049 -0.13045 0
M  V30 14489 C 157.599 2.06169 -0.676992 0
M  V30 14490 N 157.719 3.23842 -0.101312 0
M  V30 14491 C 157.839 3.09402 1.23122 0
M  V30 14492 H 160.818 7.45574 4.45629 0
M  V30 14493 H 161.09 5.85864 3.679 0
M  V30 14494 H 160.222 7.84412 2.24479 0
M  V30 14495 H 157.567 5.73457 0.888562 0
M  V30 14496 H 157.287 5.90877 3.88583 0
M  V30 14497 H 156.296 6.6596 2.58858 0
M  V30 14498 H 158.13 8.16339 3.92049 0
M  V30 14499 H 158.171 4.00505 4.3174 0
M  V30 14500 H 157.79 -0.581337 2.76658 0
M  V30 14501 H 157.601 -1.30811 1.14888 0
M  V30 14502 H 157.493 2.08295 -1.75542 0
M  V30 14503 P 156.259 8.7635 1.60911 0
M  V30 14504 O 156.039 10.1388 1.11561 0
M  V30 14505 O 155.469 8.36503 2.79617 0
M  V30 14506 O 156.009 7.71806 0.42951 0
M  V30 14507 C 156.949 7.67148 -0.673689 0
M  V30 14508 C 156.219 7.33374 -1.95559 0
M  V30 14509 O 156.009 5.88721 -2.00726 0
M  V30 14510 C 154.819 7.92526 -2.10483 0
M  V30 14511 O 154.429 8.02971 -3.47653 0
M  V30 14512 C 153.939 6.89602 -1.41652 0
M  V30 14513 C 154.649 5.59201 -1.75185 0
M  V30 14514 N 154.599 4.58235 -0.662552 0
M  V30 14515 H 157.438 8.65116 -0.777161 0
M  V30 14516 H 157.71 6.90173 -0.474152 0
M  V30 14517 H 156.842 7.66548 -2.79458 0
M  V30 14518 P 152.879 8.03563 -3.84925 0
M  V30 14519 O 152.659 8.85821 -5.0569 0
M  V30 14520 O 152.089 8.41101 -2.65469 0
M  V30 14521 O 152.629 6.49734 -4.18962 0
M  V30 14522 C 153.569 5.81037 -5.05421 0
M  V30 14523 C 152.839 4.79018 -5.88876 0
M  V30 14524 O 152.629 3.58359 -5.08515 0
M  V30 14525 C 151.439 5.17448 -6.36119 0
M  V30 14526 O 151.049 4.45322 -7.53318 0
M  V30 14527 C 150.559 4.74639 -5.19936 0
M  V30 14528 C 151.269 3.49432 -4.70418 0
M  V30 14529 N 151.219 3.31776 -3.22945 0
M  V30 14530 C 151.069 2.02742 -2.72939 0
M  V30 14531 O 150.979 1.08301 -3.52749 0
M  V30 14532 N 151.019 1.96117 -1.22063 0
M  V30 14533 C 151.119 2.8878 -0.551566 0
M  V30 14534 N 151.069 2.65609 0.750198 0
M  V30 14535 C 151.269 4.22457 -1.03707 0
M  V30 14536 C 151.319 4.37979 -2.39113 0
M  V30 14537 H 154.059 6.54138 -5.7131 0
M  V30 14538 H 154.329 5.30492 -4.44033 0
M  V30 14539 H 153.462 4.55945 -6.76735 0
M  V30 14540 H 150.807 2.6176 -5.18021 0
M  V30 14541 H 150.527 5.52233 -4.41941 0
M  V30 14542 H 149.536 4.52045 -5.53452 0
M  V30 14543 H 151.37 6.25124 -6.55234 0
M  V30 14544 H 151.442 5.37936 -2.80552 0
M  V30 14545 H 151.34 5.07528 -0.359553 0
M  V30 14546 H 150.952 1.69403 1.09847 0
M  V30 14547 H 151.148 3.43701 1.41792 0
M  V30 14548 P 149.499 4.23843 -7.83734 0
M  V30 14549 O 149.279 4.19407 -9.29784 0
M  V30 14550 O 148.709 5.24426 -7.09156 0
M  V30 14551 O 149.249 2.7935 -7.20758 0
M  V30 14552 C 150.189 1.7299 -7.50419 0
M  V30 14553 C 149.459 0.406376 -7.57911 0
M  V30 14554 O 149.249 -0.0897726 -6.21935 0
M  V30 14555 C 148.059 0.447224 -8.1878 0
M  V30 14556 O 147.669 -0.825065 -8.71101 0
M  V30 14557 C 147.179 0.783801 -6.99623 0
M  V30 14558 C 147.889 0.0619192 -5.85967 0
M  V30 14559 N 147.839 0.7859 -4.56281 0
M  V30 14560 H 150.678 1.93423 -8.4679 0
M  V30 14561 H 150.95 1.68181 -6.71046 0
M  V30 14562 H 150.082 -0.289041 -8.15388 0
M  V30 14563 P 146.119 -1.17771 -8.83182 0
M  V30 14564 O 145.899 -2.07206 -9.98732 0
M  V30 14565 O 145.329 0.0743816 -8.81969 0
M  V30 14566 O 145.869 -1.97652 -7.47304 0
M  V30 14567 C 146.809 -3.01133 -7.08783 0
M  V30 14568 C 146.079 -4.12613 -6.37049 0
M  V30 14569 O 145.869 -3.72827 -4.97879 0
M  V30 14570 C 144.679 -4.45085 -6.88694 0
M  V30 14571 O 144.289 -5.7877 -6.5624 0
M  V30 14572 C 143.799 -3.47817 -6.12078 0
M  V30 14573 C 144.509 -3.39414 -4.77697 0
M  V30 14574 N 144.459 -2.04615 -4.15333 0
M  V30 14575 H 147.298 -3.41248 -7.98759 0
M  V30 14576 H 147.57 -2.5837 -6.41742 0
M  V30 14577 H 146.702 -5.02657 -6.42673 0
M  V30 14578 P 142.739 -6.144 -6.45285 0
M  V30 14579 O 142.519 -7.54673 -6.86199 0
M  V30 14580 O 141.949 -5.12391 -7.179 0
M  V30 14581 O 142.489 -5.99158 -4.88404 0
M  V30 14582 C 143.429 -6.60234 -3.96415 0
M  V30 14583 C 142.699 -7.08259 -2.72856 0
M  V30 14584 O 142.489 -5.9427 -1.83651 0
M  V30 14585 C 141.299 -7.64886 -2.9555 0
M  V30 14586 O 140.909 -8.53963 -1.90717 0
M  V30 14587 C 140.419 -6.4116 -2.90739 0
M  V30 14588 C 141.129 -5.55375 -1.86963 0
M  V30 14589 N 141.079 -4.09664 -2.15742 0
M  V30 14590 H 143.918 -7.45574 -4.45629 0
M  V30 14591 H 144.19 -5.86232 -3.67314 0
M  V30 14592 H 143.322 -7.84412 -2.24479 0
M  V30 14593 P 139.359 -8.7635 -1.60911 0
M  V30 14594 O 139.139 -10.1388 -1.11561 0
M  V30 14595 O 138.569 -8.36503 -2.79617 0
M  V30 14596 O 139.109 -7.71806 -0.42951 0
M  V30 14597 C 140.049 -7.67148 0.673689 0
M  V30 14598 C 139.319 -7.33374 1.95559 0
M  V30 14599 O 139.109 -5.88721 2.00726 0
M  V30 14600 C 137.919 -7.92526 2.10483 0
M  V30 14601 O 137.529 -8.02971 3.47653 0
M  V30 14602 C 137.039 -6.89602 1.41652 0
M  V30 14603 C 137.749 -5.59201 1.75185 0
M  V30 14604 N 137.699 -4.58235 0.662552 0
M  V30 14605 H 140.538 -8.65116 0.777161 0
M  V30 14606 H 140.81 -6.90173 0.474152 0
M  V30 14607 H 139.942 -7.66548 2.79458 0
M  V30 14608 P 135.979 -8.03563 3.84925 0
M  V30 14609 O 135.759 -8.85821 5.0569 0
M  V30 14610 O 135.189 -8.41101 2.65469 0
M  V30 14611 O 135.729 -6.4965 4.18908 0
M  V30 14612 C 136.669 -5.81037 5.05421 0
M  V30 14613 C 135.939 -4.78366 5.89277 0
M  V30 14614 O 135.729 -3.58302 5.08433 0
M  V30 14615 C 134.539 -5.17448 6.36119 0
M  V30 14616 O 134.149 -4.45271 7.53232 0
M  V30 14617 C 133.659 -4.74639 5.19936 0
M  V30 14618 C 134.369 -3.49432 4.70418 0
M  V30 14619 N 134.319 -3.31776 3.22945 0
M  V30 14620 H 137.158 -6.54213 5.71376 0
M  V30 14621 H 137.43 -5.30492 4.44033 0
M  V30 14622 H 136.562 -4.55889 6.76652 0
M  V30 14623 P 132.599 -4.23843 7.83734 0
M  V30 14624 O 132.379 -4.19407 9.29784 0
M  V30 14625 O 131.809 -5.24426 7.09156 0
M  V30 14626 O 132.349 -2.7935 7.20758 0
M  V30 14627 C 133.289 -1.7299 7.50419 0
M  V30 14628 C 132.559 -0.406376 7.57911 0
M  V30 14629 O 132.349 0.0897726 6.21935 0
M  V30 14630 C 131.159 -0.447224 8.1878 0
M  V30 14631 O 130.769 0.825065 8.71101 0
M  V30 14632 C 130.279 -0.783801 6.99623 0
M  V30 14633 C 130.989 -0.0619192 5.85967 0
M  V30 14634 N 130.939 -0.7859 4.56281 0
M  V30 14635 H 133.778 -1.93423 8.4679 0
M  V30 14636 H 134.05 -1.68181 6.71046 0
M  V30 14637 H 133.182 0.289041 8.15388 0
M  V30 14638 P 129.219 1.17771 8.83182 0
M  V30 14639 O 128.999 2.07206 9.98732 0
M  V30 14640 O 128.429 -0.0743816 8.81969 0
M  V30 14641 O 128.969 1.97678 7.474 0
M  V30 14642 C 129.909 3.01133 7.08783 0
M  V30 14643 C 129.179 4.1203 6.37546 0
M  V30 14644 O 128.969 3.72887 4.9796 0
M  V30 14645 C 127.779 4.45085 6.88694 0
M  V30 14646 O 127.389 5.78836 6.56315 0
M  V30 14647 C 126.899 3.47817 6.12078 0
M  V30 14648 C 127.609 3.39414 4.77697 0
M  V30 14649 N 127.559 2.04615 4.15333 0
M  V30 14650 C 127.409 1.96929 2.77162 0
M  V30 14651 O 127.319 3.02017 2.12006 0
M  V30 14652 N 127.359 0.55485 2.24237 0
M  V30 14653 C 127.459 -0.367808 2.9169 0
M  V30 14654 N 127.409 -1.53426 2.29427 0
M  V30 14655 C 127.609 -0.319148 4.33828 0
M  V30 14656 C 127.659 0.920672 4.90433 0
M  V30 14657 H 130.399 3.41209 7.98667 0
M  V30 14658 H 130.669 2.5837 6.41742 0
M  V30 14659 H 129.802 5.02718 6.42752 0
M  V30 14660 H 127.147 4.11779 4.09026 0
M  V30 14661 H 126.867 2.49661 6.61772 0
M  V30 14662 H 125.876 3.86674 6.00946 0
M  V30 14663 H 127.71 4.29991 7.97006 0
M  V30 14664 H 127.782 1.00589 5.98303 0
M  V30 14665 H 127.68 -1.22639 4.93799 0
M  V30 14666 H 127.292 -1.56819 1.27167 0
M  V30 14667 H 127.488 -2.41062 2.83063 0
M  V30 14668 P 125.839 6.144 6.45285 0
M  V30 14669 O 125.619 7.54673 6.86199 0
M  V30 14670 O 125.049 5.12391 7.179 0
M  V30 14671 O 125.589 5.99158 4.88404 0
M  V30 14672 C 126.529 6.60234 3.96415 0
M  V30 14673 C 125.799 7.08259 2.72856 0
M  V30 14674 O 125.589 5.9427 1.83651 0
M  V30 14675 C 124.399 7.64886 2.9555 0
M  V30 14676 O 124.009 8.53963 1.90717 0
M  V30 14677 C 123.519 6.4116 2.90739 0
M  V30 14678 C 124.229 5.55375 1.86963 0
M  V30 14679 N 124.179 4.09664 2.15742 0
M  V30 14680 H 127.018 7.45574 4.45629 0
M  V30 14681 H 127.29 5.86232 3.67314 0
M  V30 14682 H 126.422 7.84412 2.24479 0
M  V30 14683 P 122.459 8.7635 1.60911 0
M  V30 14684 O 122.239 10.1388 1.11561 0
M  V30 14685 O 121.669 8.36503 2.79617 0
M  V30 14686 O 122.209 7.71806 0.42951 0
M  V30 14687 C 123.149 7.67148 -0.673689 0
M  V30 14688 C 122.419 7.33374 -1.95559 0
M  V30 14689 O 122.209 5.88721 -2.00726 0
M  V30 14690 C 121.019 7.92526 -2.10483 0
M  V30 14691 O 120.629 8.02971 -3.47653 0
M  V30 14692 C 120.139 6.89602 -1.41652 0
M  V30 14693 C 120.849 5.59201 -1.75185 0
M  V30 14694 N 120.799 4.58235 -0.662552 0
M  V30 14695 H 123.638 8.65116 -0.777161 0
M  V30 14696 H 123.91 6.90173 -0.474152 0
M  V30 14697 H 123.042 7.66548 -2.79458 0
M  V30 14698 P 119.079 8.03563 -3.84925 0
M  V30 14699 O 118.859 8.85821 -5.0569 0
M  V30 14700 O 118.289 8.41101 -2.65469 0
M  V30 14701 O 118.829 6.4965 -4.18908 0
M  V30 14702 C 119.769 5.81037 -5.05421 0
M  V30 14703 C 119.039 4.78366 -5.89277 0
M  V30 14704 O 118.829 3.58302 -5.08433 0
M  V30 14705 C 117.639 5.17448 -6.36119 0
M  V30 14706 O 117.249 4.45271 -7.53232 0
M  V30 14707 C 116.759 4.74639 -5.19936 0
M  V30 14708 C 117.469 3.49432 -4.70418 0
M  V30 14709 N 117.419 3.31776 -3.22945 0
M  V30 14710 H 120.258 6.54213 -5.71376 0
M  V30 14711 H 120.53 5.30492 -4.44033 0
M  V30 14712 H 119.662 4.55889 -6.76652 0
M  V30 14713 P 115.699 4.23843 -7.83734 0
M  V30 14714 O 115.479 4.19407 -9.29784 0
M  V30 14715 O 114.909 5.24426 -7.09156 0
M  V30 14716 O 115.449 2.7935 -7.20758 0
M  V30 14717 C 116.389 1.7299 -7.50419 0
M  V30 14718 C 115.659 0.406376 -7.57911 0
M  V30 14719 O 115.449 -0.0897726 -6.21935 0
M  V30 14720 C 114.259 0.447224 -8.1878 0
M  V30 14721 O 113.869 -0.825065 -8.71101 0
M  V30 14722 C 113.379 0.783801 -6.99623 0
M  V30 14723 C 114.089 0.0619192 -5.85967 0
M  V30 14724 N 114.039 0.7859 -4.56281 0
M  V30 14725 H 116.878 1.93423 -8.4679 0
M  V30 14726 H 117.15 1.68181 -6.71046 0
M  V30 14727 H 116.282 -0.289041 -8.15388 0
M  V30 14728 P 112.319 -1.17771 -8.83182 0
M  V30 14729 O 112.099 -2.07206 -9.98732 0
M  V30 14730 O 111.529 0.0743816 -8.81969 0
M  V30 14731 O 112.069 -1.97652 -7.47304 0
M  V30 14732 C 113.009 -3.01133 -7.08783 0
M  V30 14733 C 112.279 -4.12613 -6.37049 0
M  V30 14734 O 112.069 -3.72827 -4.97879 0
M  V30 14735 C 110.879 -4.45085 -6.88694 0
M  V30 14736 O 110.489 -5.7877 -6.5624 0
M  V30 14737 C 109.999 -3.47817 -6.12078 0
M  V30 14738 C 110.709 -3.39414 -4.77697 0
M  V30 14739 N 110.659 -2.04615 -4.15333 0
M  V30 14740 H 113.498 -3.41248 -7.98759 0
M  V30 14741 H 113.77 -2.5837 -6.41742 0
M  V30 14742 H 112.902 -5.02657 -6.42673 0
M  V30 14743 P 108.939 -6.144 -6.45285 0
M  V30 14744 O 108.719 -7.54673 -6.86199 0
M  V30 14745 O 108.149 -5.12391 -7.179 0
M  V30 14746 O 108.689 -5.99158 -4.88404 0
M  V30 14747 C 109.629 -6.60234 -3.96415 0
M  V30 14748 C 108.899 -7.08259 -2.72856 0
M  V30 14749 O 108.689 -5.9427 -1.83651 0
M  V30 14750 C 107.499 -7.64886 -2.9555 0
M  V30 14751 O 107.109 -8.53963 -1.90717 0
M  V30 14752 C 106.619 -6.4116 -2.90739 0
M  V30 14753 C 107.329 -5.55375 -1.86963 0
M  V30 14754 N 107.279 -4.09664 -2.15742 0
M  V30 14755 H 110.118 -7.45574 -4.45629 0
M  V30 14756 H 110.39 -5.86232 -3.67314 0
M  V30 14757 H 109.522 -7.84412 -2.24479 0
M  V30 14758 P 105.559 -8.7635 -1.60911 0
M  V30 14759 O 105.339 -10.1388 -1.11561 0
M  V30 14760 O 104.769 -8.36503 -2.79617 0
M  V30 14761 O 105.309 -7.71806 -0.42951 0
M  V30 14762 C 106.249 -7.67148 0.673689 0
M  V30 14763 C 105.519 -7.33374 1.95559 0
M  V30 14764 O 105.309 -5.88721 2.00726 0
M  V30 14765 C 104.119 -7.92526 2.10483 0
M  V30 14766 O 103.729 -8.02971 3.47653 0
M  V30 14767 C 103.239 -6.89602 1.41652 0
M  V30 14768 C 103.949 -5.59201 1.75185 0
M  V30 14769 N 103.899 -4.58235 0.662552 0
M  V30 14770 H 106.738 -8.65116 0.777161 0
M  V30 14771 H 107.01 -6.90173 0.474152 0
M  V30 14772 H 106.142 -7.66548 2.79458 0
M  V30 14773 P 102.179 -8.03563 3.84925 0
M  V30 14774 O 101.959 -8.85821 5.0569 0
M  V30 14775 O 101.389 -8.41101 2.65469 0
M  V30 14776 O 101.929 -6.4965 4.18908 0
M  V30 14777 C 102.869 -5.81037 5.05421 0
M  V30 14778 C 102.139 -4.78366 5.89277 0
M  V30 14779 O 101.929 -3.58302 5.08433 0
M  V30 14780 C 100.739 -5.17448 6.36119 0
M  V30 14781 O 100.349 -4.45271 7.53232 0
M  V30 14782 C 99.8594 -4.74639 5.19936 0
M  V30 14783 C 100.569 -3.49432 4.70418 0
M  V30 14784 N 100.519 -3.31776 3.22945 0
M  V30 14785 H 103.358 -6.54213 5.71376 0
M  V30 14786 H 103.63 -5.30492 4.44033 0
M  V30 14787 H 102.762 -4.55889 6.76652 0
M  V30 14788 P 98.7994 -4.23843 7.83734 0
M  V30 14789 O 98.5794 -4.19407 9.29784 0
M  V30 14790 O 98.0094 -5.24426 7.09156 0
M  V30 14791 O 98.5494 -2.7935 7.20758 0
M  V30 14792 C 99.4894 -1.7299 7.50419 0
M  V30 14793 C 98.7594 -0.406376 7.57911 0
M  V30 14794 O 98.5494 0.0897726 6.21935 0
M  V30 14795 C 97.3594 -0.447224 8.1878 0
M  V30 14796 O 96.9694 0.825065 8.71101 0
M  V30 14797 C 96.4794 -0.783801 6.99623 0
M  V30 14798 C 97.1894 -0.0619192 5.85967 0
M  V30 14799 N 97.1394 -0.790462 4.56202 0
M  V30 14800 H 99.9784 -1.93423 8.4679 0
M  V30 14801 H 100.25 -1.68852 6.70877 0
M  V30 14802 H 99.3824 0.289041 8.15388 0
M  V30 14803 H 96.7274 0.927006 5.72848 0
M  V30 14804 H 96.4474 -1.86973 6.82036 0
M  V30 14805 H 95.4564 -0.403953 7.13357 0
M  V30 14806 H 97.2904 -1.20599 8.97534 0
M  V30 14807 P 95.4195 1.17771 8.83182 0
M  V30 14808 O 95.1995 2.07206 9.98732 0
M  V30 14809 O 94.6295 -0.0743816 8.81969 0
M  V30 14810 O 95.1695 1.97652 7.47304 0
M  V30 14811 C 96.1095 3.01133 7.08783 0
M  V30 14812 C 95.3795 4.12613 6.37049 0
M  V30 14813 O 95.1695 3.72827 4.97879 0
M  V30 14814 C 93.9795 4.45085 6.88694 0
M  V30 14815 O 93.5895 5.7877 6.5624 0
M  V30 14816 C 93.0995 3.47817 6.12078 0
M  V30 14817 C 93.8095 3.39414 4.77697 0
M  V30 14818 N 93.7595 2.04199 4.15538 0
M  V30 14819 H 96.5985 3.41248 7.98759 0
M  V30 14820 H 96.8705 2.57728 6.42 0
M  V30 14821 H 96.0025 5.02657 6.42673 0
M  V30 14822 H 93.3475 4.11708 4.08956 0
M  V30 14823 H 93.0675 2.49626 6.61679 0
M  V30 14824 H 92.0765 3.8662 6.00862 0
M  V30 14825 H 93.9105 4.29991 7.97006 0
M  V30 14826 P 92.0395 6.144 6.45285 0
M  V30 14827 O 91.8195 7.54673 6.86199 0
M  V30 14828 O 91.2495 5.12391 7.179 0
M  V30 14829 O 91.7895 5.99158 4.88404 0
M  V30 14830 C 92.7295 6.60234 3.96415 0
M  V30 14831 C 91.9995 7.08259 2.72856 0
M  V30 14832 O 91.7895 5.9427 1.83651 0
M  V30 14833 C 90.5995 7.64886 2.9555 0
M  V30 14834 O 90.2095 8.53963 1.90717 0
M  V30 14835 C 89.7195 6.4116 2.90739 0
M  V30 14836 C 90.4295 5.55375 1.86963 0
M  V30 14837 N 90.3795 4.09664 2.15742 0
M  V30 14838 C 90.4595 3.44381 3.37233 0
M  V30 14839 N 90.3795 2.14131 3.28347 0
M  V30 14840 C 90.2395 1.90247 1.91588 0
M  V30 14841 C 90.1095 0.683992 1.20892 0
M  V30 14842 O 90.0895 -0.46618 1.64523 0
M  V30 14843 N 89.9895 0.903396 -0.173998 0
M  V30 14844 C 89.9895 2.14171 -0.784879 0
M  V30 14845 N 89.8595 2.1435 -2.11317 0
M  V30 14846 N 90.1195 3.28784 -0.119316 0
M  V30 14847 C 90.2395 3.0977 1.22194 0
M  V30 14848 H 93.2185 7.45574 4.45629 0
M  V30 14849 H 93.4905 5.86232 3.67314 0
M  V30 14850 H 92.6225 7.84412 2.24479 0
M  V30 14851 H 89.9675 5.73556 0.888715 0
M  V30 14852 H 89.6875 5.9096 3.88638 0
M  V30 14853 H 88.6965 6.66053 2.58894 0
M  V30 14854 H 90.5305 8.16429 3.92093 0
M  V30 14855 H 90.5795 3.96785 4.32043 0
M  V30 14856 H 89.8975 0.0999567 -0.761467 0
M  V30 14857 H 89.8605 3.03436 -2.63076 0
M  V30 14858 H 89.7595 1.25228 -2.62233 0
M  V30 14859 P 88.6595 8.7635 1.60911 0
M  V30 14860 O 88.4395 10.1388 1.11561 0
M  V30 14861 O 87.8695 8.36503 2.79617 0
M  V30 14862 O 88.4095 7.71906 0.429565 0
M  V30 14863 C 89.3495 7.67148 -0.673689 0
M  V30 14864 C 88.6195 7.33666 -1.94851 0
M  V30 14865 O 88.4095 5.88816 -2.00759 0
M  V30 14866 C 87.2195 7.92526 -2.10483 0
M  V30 14867 O 86.8295 8.03063 -3.47693 0
M  V30 14868 C 86.3395 6.89602 -1.41652 0
M  V30 14869 C 87.0495 5.59201 -1.75185 0
M  V30 14870 N 86.9995 4.58235 -0.662552 0
M  V30 14871 C 86.8495 3.24451 -1.01643 0
M  V30 14872 O 86.7595 2.94958 -2.21722 0
M  V30 14873 N 86.7995 2.30408 0.165238 0
M  V30 14874 C 86.8995 2.66048 1.25118 0
M  V30 14875 N 86.8495 1.70787 2.16813 0
M  V30 14876 C 87.0495 4.02732 1.64413 0
M  V30 14877 C 87.0995 4.9488 0.63991 0
M  V30 14878 H 89.8395 8.65017 -0.777072 0
M  V30 14879 H 90.1095 6.90173 -0.474152 0
M  V30 14880 H 89.2425 7.66642 -2.79492 0
M  V30 14881 H 86.5875 5.16254 -2.65229 0
M  V30 14882 H 86.3075 7.06532 -0.329431 0
M  V30 14883 H 85.3165 6.91023 -1.82047 0
M  V30 14884 H 87.1505 8.90873 -1.62657 0
M  V30 14885 H 87.2225 6.00104 0.892197 0
M  V30 14886 H 87.1205 4.31733 2.69229 0
M  V30 14887 H 86.7325 0.724835 1.8844 0
M  V30 14888 H 86.9285 1.94716 3.16734 0
M  V30 14889 P 85.2795 8.03563 -3.84925 0
M  V30 14890 O 85.0595 8.85821 -5.0569 0
M  V30 14891 O 84.4895 8.41101 -2.65469 0
M  V30 14892 O 85.0295 6.4965 -4.18908 0
M  V30 14893 C 85.9695 5.81037 -5.05421 0
M  V30 14894 C 85.2395 4.78366 -5.89277 0
M  V30 14895 O 85.0295 3.58302 -5.08433 0
M  V30 14896 C 83.8395 5.17448 -6.36119 0
M  V30 14897 O 83.4495 4.45271 -7.53232 0
M  V30 14898 C 82.9595 4.74639 -5.19936 0
M  V30 14899 C 83.6695 3.49432 -4.70418 0
M  V30 14900 N 83.6195 3.31776 -3.22945 0
M  V30 14901 H 86.4585 6.54213 -5.71376 0
M  V30 14902 H 86.7305 5.30492 -4.44033 0
M  V30 14903 H 85.8625 4.55889 -6.76652 0
M  V30 14904 P 81.8995 4.23843 -7.83734 0
M  V30 14905 O 81.6795 4.19407 -9.29784 0
M  V30 14906 O 81.1095 5.24426 -7.09156 0
M  V30 14907 O 81.6495 2.7935 -7.20758 0
M  V30 14908 C 82.5895 1.7299 -7.50419 0
M  V30 14909 C 81.8595 0.406376 -7.57911 0
M  V30 14910 O 81.6495 -0.0897726 -6.21935 0
M  V30 14911 C 80.4595 0.447224 -8.1878 0
M  V30 14912 O 80.0695 -0.825065 -8.71101 0
M  V30 14913 C 79.5795 0.783801 -6.99623 0
M  V30 14914 C 80.2895 0.0619192 -5.85967 0
M  V30 14915 N 80.2395 0.7859 -4.56281 0
M  V30 14916 H 83.0785 1.93423 -8.4679 0
M  V30 14917 H 83.3505 1.68181 -6.71046 0
M  V30 14918 H 82.4825 -0.289041 -8.15388 0
M  V30 14919 P 78.5196 -1.17771 -8.83182 0
M  V30 14920 O 78.2996 -2.07206 -9.98732 0
M  V30 14921 O 77.7296 0.0743816 -8.81969 0
M  V30 14922 O 78.2696 -1.97652 -7.47304 0
M  V30 14923 C 79.2096 -3.01133 -7.08783 0
M  V30 14924 C 78.4796 -4.12613 -6.37049 0
M  V30 14925 O 78.2696 -3.72827 -4.97879 0
M  V30 14926 C 77.0796 -4.45085 -6.88694 0
M  V30 14927 O 76.6896 -5.7877 -6.5624 0
M  V30 14928 C 76.1996 -3.47817 -6.12078 0
M  V30 14929 C 76.9096 -3.39414 -4.77697 0
M  V30 14930 N 76.8596 -2.04615 -4.15333 0
M  V30 14931 H 79.6986 -3.41248 -7.98759 0
M  V30 14932 H 79.9706 -2.5837 -6.41742 0
M  V30 14933 H 79.1026 -5.02657 -6.42673 0
M  V30 14934 P 75.1396 -6.144 -6.45285 0
M  V30 14935 O 74.9196 -7.54673 -6.86199 0
M  V30 14936 O 74.3496 -5.12391 -7.179 0
M  V30 14937 O 74.8896 -5.99236 -4.88467 0
M  V30 14938 C 75.8296 -6.60234 -3.96415 0
M  V30 14939 C 75.0996 -7.08079 -2.736 0
M  V30 14940 O 74.8896 -5.94365 -1.8368 0
M  V30 14941 C 73.6996 -7.64886 -2.9555 0
M  V30 14942 O 73.3096 -8.5406 -1.90739 0
M  V30 14943 C 72.8196 -6.4116 -2.90739 0
M  V30 14944 C 73.5296 -5.55375 -1.86963 0
M  V30 14945 N 73.4796 -4.09664 -2.15742 0
M  V30 14946 C 73.3296 -3.22231 -1.08477 0
M  V30 14947 O 73.2396 -3.68951 0.0600489 0
M  V30 14948 N 73.2796 -1.76692 -1.48799 0
M  V30 14949 C 73.3796 -1.41695 -2.57602 0
M  V30 14950 N 73.3296 -0.107296 -2.75791 0
M  V30 14951 C 73.5296 -2.29178 -3.69733 0
M  V30 14952 C 73.5796 -3.62753 -3.42653 0
M  V30 14953 H 76.3196 -7.45488 -4.45578 0
M  V30 14954 H 76.5896 -5.86232 -3.67314 0
M  V30 14955 H 75.7226 -7.84508 -2.24507 0
M  V30 14956 H 73.0676 -5.73556 -0.888715 0
M  V30 14957 H 72.7876 -5.9096 -3.88638 0
M  V30 14958 H 71.7966 -6.66053 -2.58894 0
M  V30 14959 H 73.6306 -8.16339 -3.92049 0
M  V30 14960 H 73.7026 -4.33052 -4.24913 0
M  V30 14961 H 73.6006 -1.9103 -4.71577 0
M  V30 14962 H 73.2126 0.521221 -1.95056 0
M  V30 14963 H 73.4086 0.286429 -3.70695 0
M  V30 14964 P 71.7596 -8.7635 -1.60911 0
M  V30 14965 O 71.5396 -10.1388 -1.11561 0
M  V30 14966 O 70.9696 -8.36503 -2.79617 0
M  V30 14967 O 71.5096 -7.71806 -0.42951 0
M  V30 14968 C 72.4496 -7.66948 0.673514 0
M  V30 14969 C 71.7196 -7.33374 1.95559 0
M  V30 14970 O 71.5096 -5.88721 2.00726 0
M  V30 14971 C 70.3196 -7.92218 2.1125 0
M  V30 14972 O 69.9296 -8.02971 3.47653 0
M  V30 14973 C 69.4396 -6.89504 1.41631 0
M  V30 14974 C 70.1496 -5.59106 1.75155 0
M  V30 14975 N 70.0996 -4.58136 0.662409 0
M  V30 14976 C 69.9496 -3.26059 1.02863 0
M  V30 14977 O 69.8596 -2.90743 2.19009 0
M  V30 14978 N 69.9096 -2.35995 -0.0155585 0
M  V30 14979 C 69.9996 -2.65248 -1.35603 0
M  V30 14980 C 70.1496 -4.05747 -1.64698 0
M  V30 14981 C 70.1996 -4.96734 -0.652411 0
M  V30 14982 H 72.9406 -8.64917 0.776982 0
M  V30 14983 H 73.2096 -6.89974 0.474015 0
M  V30 14984 H 72.3426 -7.66548 2.79458 0
M  V30 14985 H 69.6876 -5.16076 2.65138 0
M  V30 14986 H 69.4086 -7.06433 0.329384 0
M  V30 14987 H 68.4166 -6.90829 1.81996 0
M  V30 14988 H 70.2506 -8.90774 1.62639 0
M  V30 14989 H 70.3216 -6.02181 -0.895285 0
M  V30 14990 P 68.3796 -8.03563 3.84925 0
M  V30 14991 O 68.1596 -8.85821 5.0569 0
M  V30 14992 O 67.5896 -8.41101 2.65469 0
M  V30 14993 O 68.1296 -6.4965 4.18908 0
M  V30 14994 C 69.0696 -5.81037 5.05421 0
M  V30 14995 C 68.3396 -4.78366 5.89277 0
M  V30 14996 O 68.1296 -3.58302 5.08433 0
M  V30 14997 C 66.9396 -5.17448 6.36119 0
M  V30 14998 O 66.5496 -4.45271 7.53232 0
M  V30 14999 C 66.0596 -4.74639 5.19936 0
M  V30 15000 C 66.7696 -3.49432 4.70418 0
M  V30 15001 N 66.7196 -3.31776 3.22945 0
M  V30 15002 H 69.5586 -6.54213 5.71376 0
M  V30 15003 H 69.8306 -5.30492 4.44033 0
M  V30 15004 H 68.9626 -4.55889 6.76652 0
M  V30 15005 P 64.9996 -4.23843 7.83734 0
M  V30 15006 O 64.7796 -4.19407 9.29784 0
M  V30 15007 O 64.2096 -5.24426 7.09156 0
M  V30 15008 O 64.7496 -2.7935 7.20758 0
M  V30 15009 C 65.6896 -1.72945 7.50224 0
M  V30 15010 C 64.9596 -0.406376 7.57911 0
M  V30 15011 O 64.7496 0.0897726 6.21935 0
M  V30 15012 C 63.5596 -0.438983 8.18724 0
M  V30 15013 O 63.1696 0.825065 8.71101 0
M  V30 15014 C 62.6796 -0.783689 6.99524 0
M  V30 15015 C 63.3896 -0.0619086 5.85867 0
M  V30 15016 N 63.3396 -0.78573 4.56183 0
M  V30 15017 C 63.1896 -0.0292889 3.41887 0
M  V30 15018 O 63.0996 1.18445 3.4419 0
M  V30 15019 N 63.1496 -0.744061 2.23964 0
M  V30 15020 C 63.2396 -2.10932 2.10362 0
M  V30 15021 C 63.3896 -2.8202 3.34994 0
M  V30 15022 C 63.4396 -2.15547 4.52261 0
M  V30 15023 H 66.1806 -1.93379 8.46595 0
M  V30 15024 H 66.4496 -1.68132 6.70852 0
M  V30 15025 H 65.5826 0.289041 8.15388 0
M  V30 15026 H 62.9276 0.926847 5.72749 0
M  V30 15027 H 62.6486 -1.86973 6.82036 0
M  V30 15028 H 61.6566 -0.403896 7.13257 0
M  V30 15029 H 63.4906 -1.20585 8.97435 0
M  V30 15030 H 63.5616 -2.71231 5.45042 0
M  V30 15031 P 61.6197 1.17771 8.83182 0
M  V30 15032 O 61.3997 2.07206 9.98732 0
M  V30 15033 O 60.8297 -0.0743816 8.81969 0
M  V30 15034 O 61.3697 1.97652 7.47304 0
M  V30 15035 C 62.3097 3.01133 7.08783 0
M  V30 15036 C 61.5797 4.12613 6.37049 0
M  V30 15037 O 61.3697 3.72827 4.97879 0
M  V30 15038 C 60.1797 4.45085 6.88694 0
M  V30 15039 O 59.7897 5.7877 6.5624 0
M  V30 15040 C 59.2997 3.47817 6.12078 0
M  V30 15041 C 60.0097 3.39414 4.77697 0
M  V30 15042 N 59.9597 2.04615 4.15333 0
M  V30 15043 H 62.7987 3.41248 7.98759 0
M  V30 15044 H 63.0707 2.5837 6.41742 0
M  V30 15045 H 62.2027 5.02657 6.42673 0
M  V30 15046 P 58.2397 6.144 6.45285 0
M  V30 15047 O 58.0197 7.54673 6.86199 0
M  V30 15048 O 57.4497 5.12391 7.179 0
M  V30 15049 O 57.9897 5.99158 4.88404 0
M  V30 15050 C 58.9297 6.60234 3.96415 0
M  V30 15051 C 58.1997 7.08259 2.72856 0
M  V30 15052 O 57.9897 5.9427 1.83651 0
M  V30 15053 C 56.7997 7.64886 2.9555 0
M  V30 15054 O 56.4097 8.53963 1.90717 0
M  V30 15055 C 55.9197 6.4116 2.90739 0
M  V30 15056 C 56.6297 5.55375 1.86963 0
M  V30 15057 N 56.5797 4.09448 2.16152 0
M  V30 15058 C 56.6597 3.46824 3.37593 0
M  V30 15059 N 56.5897 2.17422 3.29777 0
M  V30 15060 C 56.4397 1.93065 1.94427 0
M  V30 15061 C 56.3097 0.738053 1.20141 0
M  V30 15062 N 56.2997 -0.474256 1.74676 0
M  V30 15063 N 56.1897 0.850049 -0.13045 0
M  V30 15064 C 56.1997 2.06169 -0.676992 0
M  V30 15065 N 56.3197 3.23842 -0.101312 0
M  V30 15066 C 56.4397 3.09402 1.23122 0
M  V30 15067 H 59.4187 7.45574 4.45629 0
M  V30 15068 H 59.6907 5.85864 3.679 0
M  V30 15069 H 58.8227 7.84412 2.24479 0
M  V30 15070 H 56.1677 5.73457 0.888562 0
M  V30 15071 H 55.8877 5.90877 3.88583 0
M  V30 15072 H 54.8967 6.6596 2.58858 0
M  V30 15073 H 56.7307 8.16339 3.92049 0
M  V30 15074 H 56.7717 4.00505 4.3174 0
M  V30 15075 H 56.3907 -0.581337 2.76658 0
M  V30 15076 H 56.2017 -1.30811 1.14888 0
M  V30 15077 H 56.0937 2.08295 -1.75542 0
M  V30 15078 P 54.8597 8.7635 1.60911 0
M  V30 15079 O 54.6397 10.1388 1.11561 0
M  V30 15080 O 54.0697 8.36503 2.79617 0
M  V30 15081 O 54.6097 7.71906 0.429565 0
M  V30 15082 C 55.5497 7.67148 -0.673689 0
M  V30 15083 C 54.8197 7.33666 -1.94851 0
M  V30 15084 O 54.6097 5.88816 -2.00759 0
M  V30 15085 C 53.4197 7.92526 -2.10483 0
M  V30 15086 O 53.0297 8.03063 -3.47693 0
M  V30 15087 C 52.5397 6.89602 -1.41652 0
M  V30 15088 C 53.2497 5.59201 -1.75185 0
M  V30 15089 N 53.1997 4.58235 -0.662552 0
M  V30 15090 C 53.0497 3.24451 -1.01643 0
M  V30 15091 O 52.9597 2.94958 -2.21722 0
M  V30 15092 N 52.9997 2.30408 0.165238 0
M  V30 15093 C 53.0997 2.66048 1.25118 0
M  V30 15094 N 53.0497 1.70787 2.16813 0
M  V30 15095 C 53.2497 4.02732 1.64413 0
M  V30 15096 C 53.2997 4.9488 0.63991 0
M  V30 15097 H 56.0397 8.65017 -0.777072 0
M  V30 15098 H 56.3097 6.90173 -0.474152 0
M  V30 15099 H 55.4427 7.66642 -2.79492 0
M  V30 15100 H 52.7877 5.16254 -2.65229 0
M  V30 15101 H 52.5077 7.06532 -0.329431 0
M  V30 15102 H 51.5167 6.91023 -1.82047 0
M  V30 15103 H 53.3507 8.90873 -1.62657 0
M  V30 15104 H 53.4227 6.00104 0.892197 0
M  V30 15105 H 53.3207 4.31733 2.69229 0
M  V30 15106 H 52.9327 0.724835 1.8844 0
M  V30 15107 H 53.1287 1.94716 3.16734 0
M  V30 15108 P 51.4797 8.03563 -3.84925 0
M  V30 15109 O 51.2597 8.85821 -5.0569 0
M  V30 15110 O 50.6897 8.41101 -2.65469 0
M  V30 15111 O 51.2297 6.4965 -4.18908 0
M  V30 15112 C 52.1697 5.81037 -5.05421 0
M  V30 15113 C 51.4397 4.78366 -5.89277 0
M  V30 15114 O 51.2297 3.58302 -5.08433 0
M  V30 15115 C 50.0397 5.17448 -6.36119 0
M  V30 15116 O 49.6497 4.45271 -7.53232 0
M  V30 15117 C 49.1597 4.74639 -5.19936 0
M  V30 15118 C 49.8697 3.49432 -4.70418 0
M  V30 15119 N 49.8197 3.32099 -3.22613 0
M  V30 15120 H 52.6587 6.54213 -5.71376 0
M  V30 15121 H 52.9307 5.30936 -4.43503 0
M  V30 15122 H 52.0627 4.55889 -6.76652 0
M  V30 15123 H 49.4077 2.61715 -5.17932 0
M  V30 15124 H 49.1277 5.52155 -4.41878 0
M  V30 15125 H 48.1367 4.51981 -5.53374 0
M  V30 15126 H 49.9707 6.25124 -6.55234 0
M  V30 15127 P 48.0997 4.23843 -7.83734 0
M  V30 15128 O 47.8797 4.19407 -9.29784 0
M  V30 15129 O 47.3097 5.24426 -7.09156 0
M  V30 15130 O 47.8497 2.7935 -7.20758 0
M  V30 15131 C 48.7897 1.7299 -7.50419 0
M  V30 15132 C 48.0597 0.406376 -7.57911 0
M  V30 15133 O 47.8497 -0.0897726 -6.21935 0
M  V30 15134 C 46.6597 0.447224 -8.1878 0
M  V30 15135 O 46.2697 -0.825065 -8.71101 0
M  V30 15136 C 45.7797 0.783801 -6.99623 0
M  V30 15137 C 46.4897 0.0619192 -5.85967 0
M  V30 15138 N 46.4397 0.790462 -4.56202 0
M  V30 15139 H 49.2787 1.93423 -8.4679 0
M  V30 15140 H 49.5507 1.68852 -6.70877 0
M  V30 15141 H 48.6827 -0.289041 -8.15388 0
M  V30 15142 H 46.0277 -0.927006 -5.72848 0
M  V30 15143 H 45.7477 1.86973 -6.82036 0
M  V30 15144 H 44.7567 0.403953 -7.13357 0
M  V30 15145 H 46.5907 1.20599 -8.97534 0
M  V30 15146 P 44.7198 -1.17771 -8.83182 0
M  V30 15147 O 44.4998 -2.07206 -9.98732 0
M  V30 15148 O 43.9298 0.0743816 -8.81969 0
M  V30 15149 O 44.4698 -1.97652 -7.47304 0
M  V30 15150 C 45.4098 -3.01055 -7.08599 0
M  V30 15151 C 44.6798 -4.12613 -6.37049 0
M  V30 15152 O 44.4698 -3.72827 -4.97879 0
M  V30 15153 C 43.2798 -4.45719 -6.88164 0
M  V30 15154 O 42.8898 -5.7877 -6.5624 0
M  V30 15155 C 42.3998 -3.47768 -6.11991 0
M  V30 15156 C 43.1098 -3.39356 -4.77615 0
M  V30 15157 N 43.0598 -2.04571 -4.15244 0
M  V30 15158 C 42.9098 -1.98587 -2.78314 0
M  V30 15159 O 42.8198 -2.98134 -2.08835 0
M  V30 15160 N 42.8698 -0.714467 -2.24925 0
M  V30 15161 C 42.9598 0.470001 -2.94169 0
M  V30 15162 O 42.9098 1.55587 -2.35195 0
M  V30 15163 C 43.1098 0.312541 -4.36783 0
M  V30 15164 C 43.2198 1.57711 -5.16352 0
M  V30 15165 C 43.1598 -0.914512 -4.92583 0
M  V30 15166 H 45.9008 -3.41169 -7.98575 0
M  V30 15167 H 46.1698 -2.58295 -6.41556 0
M  V30 15168 H 45.3028 -5.02657 -6.42673 0
M  V30 15169 H 42.6478 -4.11637 -4.08885 0
M  V30 15170 H 42.3688 -2.49626 -6.61679 0
M  V30 15171 H 41.3768 -3.86566 -6.00778 0
M  V30 15172 H 43.2108 -4.29943 -7.96918 0
M  V30 15173 H 43.2818 -1.00937 -6.00374 0
M  V30 15174 H 42.2518 1.80153 -5.63503 0
M  V30 15175 H 43.9888 1.4566 -5.94104 0
M  V30 15176 H 43.5008 2.40664 -4.49645 0
M  V30 15177 H 42.7648 -0.647622 -1.25697 0
M  V30 15178 P 41.3398 -6.144 -6.45285 0
M  V30 15179 O 41.1198 -7.54673 -6.86199 0
M  V30 15180 O 40.5498 -5.12391 -7.179 0
M  V30 15181 O 41.0898 -5.99158 -4.88404 0
M  V30 15182 C 42.0298 -6.60234 -3.96415 0
M  V30 15183 C 41.2998 -7.08259 -2.72856 0
M  V30 15184 O 41.0898 -5.9427 -1.83651 0
M  V30 15185 C 39.8998 -7.64886 -2.9555 0
M  V30 15186 O 39.5098 -8.53963 -1.90717 0
M  V30 15187 C 39.0198 -6.4116 -2.90739 0
M  V30 15188 C 39.7298 -5.55375 -1.86963 0
M  V30 15189 N 39.6798 -4.09448 -2.16152 0
M  V30 15190 H 42.5188 -7.45574 -4.45629 0
M  V30 15191 H 42.7908 -5.85864 -3.679 0
M  V30 15192 H 41.9228 -7.84412 -2.24479 0
M  V30 15193 H 39.2678 -5.73457 -0.888562 0
M  V30 15194 H 38.9878 -5.90877 -3.88583 0
M  V30 15195 H 37.9968 -6.6596 -2.58858 0
M  V30 15196 H 39.8308 -8.16339 -3.92049 0
M  V30 15197 P 37.9598 -8.7635 -1.60911 0
M  V30 15198 O 37.7398 -10.1388 -1.11561 0
M  V30 15199 O 37.1698 -8.36503 -2.79617 0
M  V30 15200 O 37.7098 -7.71806 -0.42951 0
M  V30 15201 C 38.6498 -7.67148 0.673689 0
M  V30 15202 C 37.9198 -7.33374 1.95559 0
M  V30 15203 O 37.7098 -5.88721 2.00726 0
M  V30 15204 C 36.5198 -7.92526 2.10483 0
M  V30 15205 O 36.1298 -8.02971 3.47653 0
M  V30 15206 C 35.6398 -6.89602 1.41652 0
M  V30 15207 C 36.3498 -5.59201 1.75185 0
M  V30 15208 N 36.2998 -4.58235 0.662552 0
M  V30 15209 H 39.1388 -8.65116 0.777161 0
M  V30 15210 H 39.4108 -6.90173 0.474152 0
M  V30 15211 H 38.5428 -7.66548 2.79458 0
M  V30 15212 P 34.5798 -8.03563 3.84925 0
M  V30 15213 O 34.3598 -8.85821 5.0569 0
M  V30 15214 O 33.7898 -8.41101 2.65469 0
M  V30 15215 O 34.3298 -6.4965 4.18908 0
M  V30 15216 C 35.2698 -5.81037 5.05421 0
M  V30 15217 C 34.5398 -4.78366 5.89277 0
M  V30 15218 O 34.3298 -3.58302 5.08433 0
M  V30 15219 C 33.1398 -5.17448 6.36119 0
M  V30 15220 O 32.7498 -4.45271 7.53232 0
M  V30 15221 C 32.2598 -4.74639 5.19936 0
M  V30 15222 C 32.9698 -3.49432 4.70418 0
M  V30 15223 N 32.9198 -3.31776 3.22945 0
M  V30 15224 H 35.7588 -6.54213 5.71376 0
M  V30 15225 H 36.0308 -5.30492 4.44033 0
M  V30 15226 H 35.1628 -4.55889 6.76652 0
M  V30 15227 P 31.1998 -4.23843 7.83734 0
M  V30 15228 O 30.9798 -4.19407 9.29784 0
M  V30 15229 O 30.4098 -5.24426 7.09156 0
M  V30 15230 O 30.9498 -2.79386 7.20852 0
M  V30 15231 C 31.8898 -1.7299 7.50419 0
M  V30 15232 C 31.1598 -0.41401 7.5797 0
M  V30 15233 O 30.9498 0.089787 6.22035 0
M  V30 15234 C 29.7598 -0.447224 8.1878 0
M  V30 15235 O 29.3698 0.825159 8.71201 0
M  V30 15236 C 28.8798 -0.783801 6.99623 0
M  V30 15237 C 29.5898 -0.0619192 5.85967 0
M  V30 15238 N 29.5398 -0.7859 4.56281 0
M  V30 15239 C 29.3898 -0.0359258 3.39981 0
M  V30 15240 O 29.2998 1.19723 3.49038 0
M  V30 15241 N 29.3398 -0.869151 2.14025 0
M  V30 15242 C 29.4398 -2.01207 2.14363 0
M  V30 15243 N 29.3898 -2.58978 0.954287 0
M  V30 15244 C 29.5898 -2.80817 3.32215 0
M  V30 15245 C 29.6398 -2.13785 4.50884 0
M  V30 15246 H 32.3798 -1.93401 8.46693 0
M  V30 15247 H 32.6498 -1.68181 6.71046 0
M  V30 15248 H 31.7828 0.289076 8.15488 0
M  V30 15249 H 29.1278 0.927166 5.72947 0
M  V30 15250 H 28.8478 -1.87 6.82132 0
M  V30 15251 H 27.8568 -0.404009 7.13457 0
M  V30 15252 H 29.6908 -1.20599 8.97534 0
M  V30 15253 H 29.7628 -2.70295 5.43162 0
M  V30 15254 H 29.6608 -3.89465 3.27406 0
M  V30 15255 H 29.2728 -2.01616 0.107046 0
M  V30 15256 H 29.4688 -3.61403 0.873101 0
M  V30 15257 P 27.8199 1.17771 8.83182 0
M  V30 15258 O 27.5999 2.07206 9.98732 0
M  V30 15259 O 27.0299 -0.0743816 8.81969 0
M  V30 15260 O 27.5699 1.97652 7.47304 0
M  V30 15261 C 28.5099 3.01133 7.08783 0
M  V30 15262 C 27.7799 4.12613 6.37049 0
M  V30 15263 O 27.5699 3.72827 4.97879 0
M  V30 15264 C 26.3799 4.45085 6.88694 0
M  V30 15265 O 25.9899 5.7877 6.5624 0
M  V30 15266 C 25.4999 3.47817 6.12078 0
M  V30 15267 C 26.2099 3.39414 4.77697 0
M  V30 15268 N 26.1599 2.04615 4.15333 0
M  V30 15269 H 28.9989 3.41248 7.98759 0
M  V30 15270 H 29.2709 2.5837 6.41742 0
M  V30 15271 H 28.4029 5.02657 6.42673 0
M  V30 15272 P 24.4399 6.144 6.45285 0
M  V30 15273 O 24.2199 7.54673 6.86199 0
M  V30 15274 O 23.6499 5.12391 7.179 0
M  V30 15275 O 24.1899 5.99158 4.88404 0
M  V30 15276 C 25.1299 6.60234 3.96415 0
M  V30 15277 C 24.3999 7.08259 2.72856 0
M  V30 15278 O 24.1899 5.9427 1.83651 0
M  V30 15279 C 22.9999 7.64886 2.9555 0
M  V30 15280 O 22.6099 8.53963 1.90717 0
M  V30 15281 C 22.1199 6.4116 2.90739 0
M  V30 15282 C 22.8299 5.55375 1.86963 0
M  V30 15283 N 22.7799 4.09664 2.15742 0
M  V30 15284 H 25.6189 7.45574 4.45629 0
M  V30 15285 H 25.8909 5.86232 3.67314 0
M  V30 15286 H 25.0229 7.84412 2.24479 0
M  V30 15287 P 21.0599 8.7635 1.60911 0
M  V30 15288 O 20.8399 10.1388 1.11561 0
M  V30 15289 O 20.2699 8.36503 2.79617 0
M  V30 15290 O 20.8099 7.71806 0.42951 0
M  V30 15291 C 21.7499 7.67148 -0.673689 0
M  V30 15292 C 21.0199 7.33374 -1.95559 0
M  V30 15293 O 20.8099 5.88721 -2.00726 0
M  V30 15294 C 19.6199 7.92526 -2.10483 0
M  V30 15295 O 19.2299 8.02971 -3.47653 0
M  V30 15296 C 18.7399 6.89602 -1.41652 0
M  V30 15297 C 19.4499 5.59201 -1.75185 0
M  V30 15298 N 19.3999 4.58301 -0.657969 0
M  V30 15299 H 22.2389 8.65116 -0.777161 0
M  V30 15300 H 22.5109 6.9022 -0.46725 0
M  V30 15301 H 21.6429 7.66548 -2.79458 0
M  V30 15302 H 18.9879 5.16165 -2.65183 0
M  V30 15303 H 18.7079 7.06433 -0.329384 0
M  V30 15304 H 17.7169 6.90926 -1.82021 0
M  V30 15305 H 19.5509 8.90873 -1.62657 0
M  V30 15306 P 17.6799 8.03563 -3.84925 0
M  V30 15307 O 17.4599 8.85821 -5.0569 0
M  V30 15308 O 16.8899 8.41101 -2.65469 0
M  V30 15309 O 17.4299 6.4965 -4.18908 0
M  V30 15310 C 18.3699 5.81037 -5.05421 0
M  V30 15311 C 17.6399 4.78366 -5.89277 0
M  V30 15312 O 17.4299 3.58302 -5.08433 0
M  V30 15313 C 16.2399 5.17448 -6.36119 0
M  V30 15314 O 15.8499 4.45271 -7.53232 0
M  V30 15315 C 15.3599 4.74639 -5.19936 0
M  V30 15316 C 16.0699 3.49432 -4.70418 0
M  V30 15317 N 16.0199 3.31776 -3.22945 0
M  V30 15318 H 18.8589 6.54213 -5.71376 0
M  V30 15319 H 19.1309 5.30492 -4.44033 0
M  V30 15320 H 18.2629 4.55889 -6.76652 0
M  V30 15321 P 14.2999 4.23843 -7.83734 0
M  V30 15322 O 14.0799 4.19407 -9.29784 0
M  V30 15323 O 13.5099 5.24426 -7.09156 0
M  V30 15324 O 14.0499 2.7935 -7.20758 0
M  V30 15325 C 14.9899 1.7299 -7.50419 0
M  V30 15326 C 14.2599 0.406376 -7.57911 0
M  V30 15327 O 14.0499 -0.0897726 -6.21935 0
M  V30 15328 C 12.8599 0.447224 -8.1878 0
M  V30 15329 O 12.4699 -0.825065 -8.71101 0
M  V30 15330 C 11.9799 0.783801 -6.99623 0
M  V30 15331 C 12.6899 0.0619192 -5.85967 0
M  V30 15332 N 12.6399 0.7859 -4.56281 0
M  V30 15333 H 15.4789 1.93423 -8.4679 0
M  V30 15334 H 15.7509 1.68181 -6.71046 0
M  V30 15335 H 14.8829 -0.289041 -8.15388 0
M  V30 15336 P 10.92 -1.17771 -8.83182 0
M  V30 15337 O 10.7 -2.07206 -9.98732 0
M  V30 15338 O 10.13 0.0743816 -8.81969 0
M  V30 15339 O 10.67 -1.97652 -7.47304 0
M  V30 15340 C 11.61 -3.01133 -7.08783 0
M  V30 15341 C 10.88 -4.12613 -6.37049 0
M  V30 15342 O 10.67 -3.72827 -4.97879 0
M  V30 15343 C 9.47996 -4.45085 -6.88694 0
M  V30 15344 O 9.08996 -5.7877 -6.5624 0
M  V30 15345 C 8.59996 -3.47817 -6.12078 0
M  V30 15346 C 9.30996 -3.39414 -4.77697 0
M  V30 15347 N 9.25996 -2.04615 -4.15333 0
M  V30 15348 H 12.099 -3.41248 -7.98759 0
M  V30 15349 H 12.371 -2.5837 -6.41742 0
M  V30 15350 H 11.503 -5.02657 -6.42673 0
M  V30 15351 P 7.53998 -6.144 -6.45285 0
M  V30 15352 O 7.31998 -7.54673 -6.86199 0
M  V30 15353 O 6.74998 -5.12391 -7.179 0
M  V30 15354 O 7.28998 -5.99158 -4.88404 0
M  V30 15355 C 8.22998 -6.60234 -3.96415 0
M  V30 15356 C 7.49998 -7.08259 -2.72856 0
M  V30 15357 O 7.28998 -5.9427 -1.83651 0
M  V30 15358 C 6.09998 -7.64886 -2.9555 0
M  V30 15359 O 5.70998 -8.53963 -1.90717 0
M  V30 15360 C 5.21998 -6.4116 -2.90739 0
M  V30 15361 C 5.92998 -5.55375 -1.86963 0
M  V30 15362 N 5.87998 -4.09448 -2.16152 0
M  V30 15363 H 8.71898 -7.45574 -4.45629 0
M  V30 15364 H 8.99098 -5.85864 -3.679 0
M  V30 15365 H 8.12298 -7.84412 -2.24479 0
M  V30 15366 H 5.46798 -5.73457 -0.888562 0
M  V30 15367 H 5.18798 -5.90877 -3.88583 0
M  V30 15368 H 4.19698 -6.6596 -2.58858 0
M  V30 15369 H 6.03098 -8.16339 -3.92049 0
M  V30 15370 P 4.16 -8.7635 -1.60911 0
M  V30 15371 O 3.94 -10.1388 -1.11561 0
M  V30 15372 O 3.37 -8.36503 -2.79617 0
M  V30 15373 O 3.91 -7.71806 -0.42951 0
M  V30 15374 C 4.85 -7.67148 0.673689 0
M  V30 15375 C 4.12 -7.33374 1.95559 0
M  V30 15376 O 3.91 -5.88721 2.00726 0
M  V30 15377 C 2.72 -7.92526 2.10483 0
M  V30 15378 O 2.33 -8.02971 3.47653 0
M  V30 15379 C 1.84 -6.89602 1.41652 0
M  V30 15380 C 2.55 -5.59201 1.75185 0
M  V30 15381 N 2.5 -4.58235 0.662552 0
M  V30 15382 H 5.339 -8.65116 0.777161 0
M  V30 15383 H 5.611 -6.90173 0.474152 0
M  V30 15384 H 4.743 -7.66548 2.79458 0
M  V30 15385 H 1.613 -8.66322 3.55694 0
M  V30 END ATOM
M  V30 BEGIN BOND
M  V30 END BOND
M  V30 END CTAB
M  END
$$$$
