drugbank_target|P31995 Low affinity immunoglobulin gamma Fc region receptor II-c (DB00005; DB00028; DB00087; DB00111; DB00112)
 OpenBabel12092120043D

  0  0  0     0  0            999 V3000
M  V30 BEGIN CTAB
M  V30 COUNTS 4962 5032 0 0 0
M  V30 BEGIN ATOM
M  V30 1 H -0.908 1.98254 -0.117106 0
M  V30 2 N 0 1.576 0 0
M  V30 3 C 0.933 2.03868 1.02534 0
M  V30 4 C 1.911 0.928543 1.3348 0
M  V30 5 O 3.095 1.19667 1.45644 0
M  V30 6 C 0.222 2.43627 2.35294 0
M  V30 7 C -0.732 3.65373 2.2001 0
M  V30 8 S 0.101 5.13292 1.52614 0
M  V30 9 C 1.257 5.56322 2.86805 0
M  V30 10 H 1.49 2.90518 0.631377 0
M  V30 11 H -0.977 1.52953 0.210867 0
M  V30 12 H 0.981 2.67203 3.11629 0
M  V30 13 H -0.358 1.57376 2.7183 0
M  V30 14 H -1.165 3.90944 3.18086 0
M  V30 15 H -1.563 3.418 1.51819 0
M  V30 16 H 0.729 5.58782 3.83104 0
M  V30 17 H 1.672 6.56266 2.65933 0
M  V30 18 H 2.08 4.83886 2.90714 0
M  V30 19 N 1.4781 -0.272755 1.55222 0
M  V30 20 C 2.7261 -1.00234 1.75492 0
M  V30 21 C 3.0471 -1.8681 0.5592 0
M  V30 22 O 2.3171 -1.91215 -0.425882 0
M  V30 23 H 0.8971 -0.373076 0.647166 0
M  V30 24 H 3.5591 -0.296926 1.92625 0
M  V30 25 H 2.6551 -1.63913 2.65592 0
M  V30 26 N 2.9562 -1.48159 -0.537278 0
M  V30 27 C 4.2052 -1.5506 -1.28993 0
M  V30 28 C 4.5182 -0.226211 -1.94288 0
M  V30 29 O 5.7242 -0.173395 -2.70946 0
M  V30 30 C 4.1802 -2.73429 -2.34018 0
M  V30 31 C 3.7882 -4.1248 -1.74825 0
M  V30 32 C 5.5322 -2.89638 -3.10339 0
M  V30 33 C 3.4392 -5.22121 -2.77747 0
M  V30 34 H 2.3692 -0.577231 -0.485098 0
M  V30 35 H 5.0202 -1.74478 -0.568317 0
M  V30 36 H 3.4022 -2.47431 -3.09182 0
M  V30 37 H 4.5762 -4.48466 -1.05899 0
M  V30 38 H 2.8912 -4.01327 -1.11022 0
M  V30 39 H 5.4882 -3.68718 -3.87235 0
M  V30 40 H 5.8312 -1.9882 -3.65754 0
M  V30 41 H 6.3642 -3.15502 -2.42288 0
M  V30 42 H 3.1032 -6.1488 -2.27161 0
M  V30 43 H 2.6232 -4.90631 -3.45024 0
M  V30 44 H 4.3022 -5.49924 -3.4087 0
M  V30 45 N 4.4343 0.785586 -1.36625 0
M  V30 46 C 5.3643 1.91259 -1.33949 0
M  V30 47 C 6.3453 1.68795 -0.210325 0
M  V30 48 O 7.5303 1.89854 -0.408561 0
M  V30 49 C 4.6603 3.28339 -1.13186 0
M  V30 50 C 3.6143 3.65335 -2.22967 0
M  V30 51 C 2.9403 5.00806 -1.87342 0
M  V30 52 C 4.2403 3.7352 -3.65075 0
M  V30 53 H 5.9343 1.93755 -2.28253 0
M  V30 54 H 3.4803 0.930788 -1.09874 0
M  V30 55 H 5.4333 4.06804 -1.09948 0
M  V30 56 H 4.1573 3.2624 -0.153332 0
M  V30 57 H 2.8163 2.89169 -2.25337 0
M  V30 58 H 2.4643 4.95233 -0.880545 0
M  V30 59 H 2.1643 5.26529 -2.60846 0
M  V30 60 H 3.6883 5.81687 -1.85667 0
M  V30 61 H 5.1023 4.42168 -3.64911 0
M  V30 62 H 3.4993 4.10731 -4.37516 0
M  V30 63 H 4.5693 2.74527 -3.99703 0
M  V30 64 N 5.9124 1.20967 1.01018 0
M  V30 65 C 7.1374 1.0503 1.78839 0
M  V30 66 C 7.5624 -0.395752 1.8389 0
M  V30 67 O 6.9204 -1.28529 1.27867 0
M  V30 68 C 6.9684 1.64602 3.2084 0
M  V30 69 O 6.0724 0.887988 4.02726 0
M  V30 70 H 5.4134 0.369987 0.551367 0
M  V30 71 H 7.9434 1.60399 1.27018 0
M  V30 72 H 7.9534 1.68607 3.71532 0
M  V30 73 H 6.6284 2.69841 3.16479 0
M  V30 74 H 5.2054 0.922648 3.61305 0
M  V30 75 N 7.3905 -1.2043 1.01659 0
M  V30 76 C 8.6375 -1.89797 0.705917 0
M  V30 77 C 8.9655 -1.78848 -0.764439 0
M  V30 78 O 8.2205 -1.16694 -1.57102 0
M  V30 79 C 8.5195 -3.40464 1.08714 0
M  V30 80 C 8.1855 -3.71614 2.5537 0
M  V30 81 C 6.8475 -3.79826 2.95441 0
M  V30 82 C 9.1995 -3.85915 3.50313 0
M  V30 83 C 6.5275 -3.99797 4.29394 0
M  V30 84 C 8.8795 -4.07396 4.83954 0
M  V30 85 C 7.5435 -4.13837 5.23732 0
M  V30 86 H 6.8135 -0.694518 0.258313 0
M  V30 87 H 9.4605 -1.42691 1.27717 0
M  V30 88 H 7.7655 -3.89385 0.434309 0
M  V30 89 H 9.4625 -3.92433 0.824461 0
M  V30 90 H 6.0525 -3.65822 2.23321 0
M  V30 91 H 10.2365 -3.78926 3.20513 0
M  V30 92 H 5.4925 -4.03018 4.59768 0
M  V30 93 H 9.6665 -4.17404 5.57447 0
M  V30 94 H 7.2935 -4.29064 6.27541 0
M  V30 95 N 8.8686 -0.792821 -1.36206 0
M  V30 96 C 9.7986 -0.207853 -2.32573 0
M  V30 97 C 10.7796 0.659055 -1.56813 0
M  V30 98 O 11.9646 0.592176 -1.84951 0
M  V30 99 C 9.0946 0.655449 -3.41059 0
M  V30 100 C 8.0486 -0.111842 -4.27854 0
M  V30 101 C 7.3746 0.872274 -5.27537 0
M  V30 102 C 8.6746 -1.30299 -5.05786 0
M  V30 103 H 10.3686 -1.01294 -2.81744 0
M  V30 104 H 7.9146 -0.48854 -1.3546 0
M  V30 105 H 9.8676 1.07464 -4.07467 0
M  V30 106 H 8.5916 1.49328 -2.90463 0
M  V30 107 H 7.2506 -0.512053 -3.63006 0
M  V30 108 H 6.8986 1.70523 -4.73214 0
M  V30 109 H 6.5986 0.363291 -5.86476 0
M  V30 110 H 8.1226 1.28996 -5.96818 0
M  V30 111 H 9.5366 -0.959379 -5.65216 0
M  V30 112 H 7.9336 -1.7455 -5.74154 0
M  V30 113 H 9.0036 -2.09663 -4.37229 0
M  V30 114 N 10.3467 1.47872 -0.545128 0
M  V30 115 C 11.7577 1.86384 -0.108581 0
M  V30 116 C 12.1087 1.45309 1.31832 0
M  V30 117 O 11.2337 0.850641 1.9898 0
M  V30 118 C 11.8287 3.38265 -0.190274 0
M  V30 119 C 10.3877 3.75914 0.191164 0
M  V30 120 C 9.5347 2.71926 -0.543273 0
M  V30 121 H 12.4857 1.39561 -0.755537 0
M  V30 122 H 12.5067 3.75831 0.594217 0
M  V30 123 H 12.0187 3.6813 -1.2289 0
M  V30 124 H 10.1197 3.51665 1.23136 0
M  V30 125 H 10.2327 4.78836 -0.158987 0
M  V30 126 H 8.5967 2.54697 0.0122495 0
M  V30 127 H 9.3797 3.04634 -1.58282 0
M  V30 128 N 11.8248 0.280983 1.55075 0
M  V30 129 C 13.0708 -0.33461 2.00021 0
M  V30 130 C 13.4038 -1.55063 1.16915 0
M  V30 131 O 12.6788 -1.93006 0.240646 0
M  V30 132 C 12.9618 -0.711007 3.53011 0
M  V30 133 C 12.8148 0.512766 4.46868 0
M  V30 134 C 14.1338 -1.54522 4.12081 0
M  V30 135 H 11.2528 -0.120147 0.727141 0
M  V30 136 H 13.8948 0.389097 1.85973 0
M  V30 137 H 12.0448 -1.32761 3.65112 0
M  V30 138 H 13.7168 1.15131 4.46702 0
M  V30 139 H 11.9598 1.14975 4.18286 0
M  V30 140 H 12.6308 0.205556 5.51617 0
M  V30 141 H 15.1068 -1.02442 4.03293 0
M  V30 142 H 13.9828 -1.77739 5.19327 0
M  V30 143 H 14.2438 -2.52813 3.62682 0
M  V30 144 N 13.3029 -1.57598 0.00835791 0
M  V30 145 C 14.2329 -2.1198 -0.979113 0
M  V30 146 C 15.2139 -1.03091 -1.35301 0
M  V30 147 O 16.3989 -1.30818 -1.43528 0
M  V30 148 C 13.5289 -2.62995 -2.26828 0
M  V30 149 C 12.4829 -3.76485 -2.03576 0
M  V30 150 C 11.8089 -4.13846 -3.38579 0
M  V30 151 C 13.1089 -5.0342 -1.39161 0
M  V30 152 H 14.8029 -2.94738 -0.526281 0
M  V30 153 H 12.3489 -1.41783 -0.251704 0
M  V30 154 H 14.3019 -2.99669 -2.96271 0
M  V30 155 H 13.0259 -1.7737 -2.7424 0
M  V30 156 H 11.6849 -3.40217 -1.36557 0
M  V30 157 H 11.3329 -3.25232 -3.83709 0
M  V30 158 H 11.0329 -4.90312 -3.23834 0
M  V30 159 H 12.5569 -4.53086 -4.09323 0
M  V30 160 H 13.9709 -5.37812 -1.98573 0
M  V30 161 H 12.3679 -5.84746 -1.34878 0
M  V30 162 H 13.4379 -4.83548 -0.361868 0
M  V30 163 N 14.781 0.264519 -1.55364 0
M  V30 164 C 15.744 1.31046 -1.88042 0
M  V30 165 C 16.744 1.41943 -0.755569 0
M  V30 166 O 17.934 1.40947 -1.02369 0
M  V30 167 C 15.066 2.69067 -2.09323 0
M  V30 168 H 16.259 1.03297 -2.81549 0
M  V30 169 H 13.812 0.502989 -1.47986 0
M  V30 170 H 14.547 3.01982 -1.18226 0
M  V30 171 H 14.332 2.62542 -2.91229 0
M  V30 172 H 15.822 3.44623 -2.35848 0
M  V30 173 N 16.2591 1.48442 0.529413 0
M  V30 174 C 17.4871 1.60151 1.30994 0
M  V30 175 C 17.9021 0.261985 1.86973 0
M  V30 176 O 17.2591 -0.748805 1.66431 0
M  V30 177 C 17.3101 2.64854 2.46038 0
M  V30 178 O 17.0311 3.93608 1.92365 0
M  V30 179 C 18.5321 2.87007 3.37849 0
M  V30 180 H 15.7521 0.539971 0.398338 0
M  V30 181 H 18.2961 1.94273 0.638597 0
M  V30 182 H 16.4511 2.33589 3.09055 0
M  V30 183 H 16.8651 4.51055 2.67675 0
M  V30 184 H 18.3391 3.64068 4.14919 0
M  V30 185 H 18.8161 1.95852 3.93114 0
M  V30 186 H 19.4221 3.19579 2.80623 0
M  V30 187 N 17.7372 -0.778329 1.37039 0
M  V30 188 C 18.6472 -1.92253 1.34446 0
M  V30 189 C 19.6632 -1.72267 0.244991 0
M  V30 190 O 20.8392 -1.95615 0.479258 0
M  V30 191 C 17.9042 -3.27282 1.144 0
M  V30 192 C 16.9652 -3.59969 2.33925 0
M  V30 193 C 16.1982 -4.88555 2.14825 0
M  V30 194 O 16.4212 -5.59113 1.12912 0
M  V30 195 O 15.3552 -5.20153 3.02861 0
M  V30 196 H 19.1812 -1.97392 2.30803 0
M  V30 197 H 16.7662 -0.920154 1.17701 0
M  V30 198 H 18.6482 -4.08062 1.05182 0
M  V30 199 H 17.3232 -3.23011 0.211124 0
M  V30 200 H 16.2302 -2.7945 2.48714 0
M  V30 201 H 17.5632 -3.68976 3.25757 0
M  V30 202 N 19.2153 -1.21501 -1.00376 0
M  V30 203 C 20.4403 -1.05977 -1.78279 0
M  V30 204 C 20.8653 0.385994 -1.84097 0
M  V30 205 O 20.2233 1.27849 -1.28547 0
M  V30 206 C 20.2713 -1.66302 -3.19963 0
M  V30 207 O 19.3753 -0.909333 -4.0225 0
M  V30 208 H 18.7163 -0.372906 -0.549397 0
M  V30 209 H 21.2463 -1.6107 -1.26165 0
M  V30 210 H 21.2563 -1.70574 -3.70632 0
M  V30 211 H 19.9313 -2.71515 -3.15043 0
M  V30 212 H 18.5083 -0.941795 -3.60811 0
M  V30 213 N 20.6934 1.19889 -1.02296 0
M  V30 214 C 21.9704 1.85148 -0.630832 0
M  V30 215 C 22.3504 1.91385 0.890782 0
M  V30 216 O 21.6984 1.42642 1.78509 0
M  V30 217 C 21.9084 3.24442 -1.28602 0
M  V30 218 C 23.2564 4.00663 -1.4055 0
M  V30 219 O 24.2804 3.33818 -1.24273 0
M  V30 220 O 23.1394 5.20387 -1.66913 0
M  V30 221 H 20.2334 0.797613 -0.218499 0
M  V30 222 H 22.7794 1.27427 -1.12074 0
M  V30 223 H 21.5514 3.14704 -2.32545 0
M  V30 224 H 21.1744 3.89802 -0.7836 0
M  V30 225 N 22.1715 0.800033 1.35784 0
M  V30 226 C 23.4175 0.38701 1.99684 0
M  V30 227 C 23.7725 -1.03268 1.62338 0
M  V30 228 O 23.0655 -1.70543 0.87325 0
M  V30 229 C 23.2595 0.500276 3.53881 0
M  V30 230 C 23.0885 1.92942 4.06206 0
M  V30 231 C 21.8585 2.55637 4.35865 0
M  V30 232 C 24.0565 2.89307 4.25213 0
M  V30 233 N 22.0385 3.9003 4.74078 0
M  V30 234 C 23.4095 4.08556 4.66349 0
M  V30 235 C 25.4645 2.86225 4.07406 0
M  V30 236 C 24.1675 5.25146 4.91543 0
M  V30 237 C 26.1935 4.02011 4.33752 0
M  V30 238 C 25.5555 5.20007 4.75155 0
M  V30 239 H 21.6545 0.189252 0.758754 0
M  V30 240 H 24.2385 1.03988 1.64604 0
M  V30 241 H 22.4095 -0.122568 3.88207 0
M  V30 242 H 24.1415 0.0624733 4.04652 0
M  V30 243 H 20.8965 2.07039 4.25948 0
M  V30 244 H 21.3205 4.59205 4.97454 0
M  V30 245 H 25.9625 1.96154 3.74544 0
M  V30 246 H 23.6805 6.15794 5.23281 0
M  V30 247 H 27.2665 4.00999 4.21534 0
M  V30 248 H 26.1465 6.08113 4.95145 0
M  V30 249 N 23.6496 -1.47581 0.552962 0
M  V30 250 C 24.6126 -2.28439 -0.186605 0
M  V30 251 C 25.6126 -1.36706 -0.84665 0
M  V30 252 O 26.8026 -1.59378 -0.703164 0
M  V30 253 C 23.9346 -3.16264 -1.2724 0
M  V30 254 H 25.1276 -2.95294 0.523609 0
M  V30 255 H 22.6806 -1.532 0.309745 0
M  V30 256 H 23.4156 -2.54091 -2.01514 0
M  V30 257 H 23.2006 -3.83769 -0.803968 0
M  V30 258 H 24.6906 -3.77198 -1.79196 0
M  V30 259 N 25.1277 -0.289203 -1.54924 0
M  V30 260 C 26.4047 0.376032 -1.91951 0
M  V30 261 C 26.7847 1.72622 -1.21511 0
M  V30 262 O 26.1327 2.25853 -0.346767 0
M  V30 263 C 26.3427 0.502378 -3.45365 0
M  V30 264 C 27.6907 0.778741 -4.17398 0
M  V30 265 O 28.7147 0.586647 -3.51336 0
M  V30 266 O 27.5737 1.14698 -5.34328 0
M  V30 267 H 24.6677 0.208167 -0.800372 0
M  V30 268 H 27.2137 -0.336394 -1.66332 0
M  V30 269 H 25.9857 -0.447255 -3.88736 0
M  V30 270 H 25.6087 1.26373 -3.76982 0
M  V30 271 N 26.6058 1.57591 -0.0167156 0
M  V30 272 C 27.8458 1.93145 0.668902 0
M  V30 273 C 28.2098 0.892406 1.7 0
M  V30 274 O 29.4108 1.13373 2.43721 0
M  V30 275 C 27.6818 3.33678 1.28039 0
M  V30 276 S 29.2408 3.91142 1.9888 0
M  V30 277 H 26.0588 0.67593 0.220545 0
M  V30 278 H 28.6608 1.95347 -0.0774105 0
M  V30 279 H 27.3648 4.07126 0.517339 0
M  V30 280 H 26.8958 3.3489 2.06427 0
M  V30 281 H 28.9108 3.73571 3.26587 0
M  V30 282 N 28.0839 -0.256276 1.55502 0
M  V30 283 C 29.0309 -1.31714 1.89526 0
M  V30 284 C 30.0009 -1.4828 0.748479 0
M  V30 285 O 31.1859 -1.62416 1.00128 0
M  V30 286 C 28.3259 -2.66933 2.18725 0
M  V30 287 C 27.4389 -2.58452 3.4616 0
M  V30 288 C 26.5739 -3.85961 3.64976 0
M  V30 289 C 25.6129 -3.72059 4.86044 0
M  V30 290 N 24.7499 -4.9144 5.01429 0
M  V30 291 H 29.5899 -1.01998 2.80001 0
M  V30 292 H 27.1269 -0.492413 1.38613 0
M  V30 293 H 29.0849 -3.4563 2.33657 0
M  V30 294 H 27.7149 -2.94816 1.31466 0
M  V30 295 H 26.7669 -1.71374 3.3961 0
M  V30 296 H 28.0789 -2.44085 4.34999 0
M  V30 297 H 27.2329 -4.73101 3.79816 0
M  V30 298 H 25.9719 -4.03215 2.74353 0
M  V30 299 H 24.9769 -2.83302 4.7119 0
M  V30 300 H 26.2019 -3.56309 5.78118 0
M  V30 301 H 24.1479 -5.09072 4.13741 0
M  V30 302 H 24.0649 -4.79668 5.84341 0
M  V30 303 H 25.3329 -5.80104 5.20672 0
M  V30 304 N 29.562 -1.4872 -0.521534 0
M  V30 305 C 30.787 -1.61101 -1.30618 0
M  V30 306 C 31.212 -0.274611 -1.86085 0
M  V30 307 O 30.57 0.754937 -1.64834 0
M  V30 308 C 30.618 -2.66709 -2.4269 0
M  V30 309 O 29.722 -2.24456 -3.45967 0
M  V30 310 H 29.063 -0.539921 -0.386499 0
M  V30 311 H 31.593 -1.94767 -0.626645 0
M  V30 312 H 31.603 -2.88245 -2.88754 0
M  V30 313 H 30.278 -3.63727 -2.01682 0
M  V30 314 H 28.855 -2.13168 -3.05964 0
M  V30 315 N 31.0401 0.771051 -1.3745 0
M  V30 316 C 32.4511 1.34737 -1.29239 0
M  V30 317 C 32.8021 1.96109 0.0596908 0
M  V30 318 O 31.9271 1.93865 0.961534 0
M  V30 319 C 32.5221 2.44973 -2.34037 0
M  V30 320 C 31.0811 2.98372 -2.29458 0
M  V30 321 C 30.2281 1.71595 -2.17831 0
M  V30 322 H 33.1791 0.571256 -1.48062 0
M  V30 323 H 33.2001 3.24471 -1.98744 0
M  V30 324 H 32.7121 2.00276 -3.32432 0
M  V30 325 H 30.8131 3.47443 -1.34589 0
M  V30 326 H 30.9261 3.53939 -3.229 0
M  V30 327 H 29.2901 1.94547 -1.64388 0
M  V30 328 H 30.0731 1.29001 -3.18141 0
M  V30 329 N 32.5182 1.22032 0.997298 0
M  V30 330 C 33.4502 0.944263 2.08845 0
M  V30 331 C 34.4632 -0.0754663 1.62625 0
M  V30 332 O 35.6522 0.157994 1.77799 0
M  V30 333 C 32.7522 0.397723 3.36558 0
M  V30 334 C 31.9252 1.47362 4.11829 0
M  V30 335 C 30.9842 0.934951 5.17827 0
M  V30 336 O 30.0102 1.62016 5.45655 0
M  V30 337 N 31.2122 -0.245895 5.79979 0
M  V30 338 H 33.9772 1.88363 2.33109 0
M  V30 339 H 31.5382 1.12661 1.16272 0
M  V30 340 H 33.5302 0.0227771 4.04694 0
M  V30 341 H 32.1002 -0.446646 3.09393 0
M  V30 342 H 31.3202 2.02208 3.38386 0
M  V30 343 H 32.6082 2.19764 4.58891 0
M  V30 344 H 32.0062 -0.819475 5.59733 0
M  V30 345 H 30.5632 -0.562272 6.4937 0
M  V30 346 N 33.9963 -1.19345 1.0293 0
M  V30 347 C 35.4073 -1.70725 0.755633 0
M  V30 348 C 35.7583 -1.82326 -0.724676 0
M  V30 349 O 34.8833 -1.49471 -1.56484 0
M  V30 350 C 35.4783 -3.10084 1.36503 0
M  V30 351 C 34.0373 -3.58723 1.13994 0
M  V30 352 C 33.1843 -2.35577 1.46283 0
M  V30 353 H 36.1353 -1.0418 1.19718 0
M  V30 354 H 36.1563 -3.72787 0.762217 0
M  V30 355 H 35.6683 -3.01609 2.44241 0
M  V30 356 H 33.7693 -3.72512 0.0807901 0
M  V30 357 H 33.8823 -4.42816 1.82894 0
M  V30 358 H 32.2463 -2.38935 0.88217 0
M  V30 359 H 33.0293 -2.29731 2.55105 0
M  V30 360 N 35.4744 -0.807222 -1.35358 0
M  V30 361 C 36.7204 -0.397594 -1.99476 0
M  V30 362 C 37.0754 1.02405 -1.62883 0
M  V30 363 O 36.3684 1.70077 -0.882282 0
M  V30 364 C 36.5624 -0.519036 -3.53611 0
M  V30 365 C 36.3914 -1.95094 -4.05177 0
M  V30 366 C 35.1614 -2.57945 -4.34503 0
M  V30 367 C 37.3594 -2.91558 -4.23673 0
M  V30 368 N 35.3414 -3.92539 -4.72003 0
M  V30 369 C 36.7124 -4.11024 -4.64176 0
M  V30 370 C 38.7674 -2.88381 -4.05883 0
M  V30 371 C 37.4704 -5.27745 -4.88751 0
M  V30 372 C 39.4964 -4.04306 -4.31614 0
M  V30 373 C 38.8584 -5.22519 -4.72391 0
M  V30 374 H 34.9574 -0.193274 -0.75774 0
M  V30 375 H 37.5414 -1.0486 -1.6405 0
M  V30 376 H 35.7124 0.101979 -3.88266 0
M  V30 377 H 37.4444 -0.0839321 -4.04613 0
M  V30 378 H 34.1994 -2.09295 -4.24844 0
M  V30 379 H 34.6234 -4.61836 -4.95011 0
M  V30 380 H 39.2654 -1.98137 -3.73499 0
M  V30 381 H 36.9834 -6.1856 -5.20008 0
M  V30 382 H 40.5694 -4.03229 -4.19402 0
M  V30 383 H 39.4494 -6.1073 -4.91913 0
M  V30 384 N 36.9525 1.47285 -0.560781 0
M  V30 385 C 38.2005 2.02064 -0.0379868 0
M  V30 386 C 38.5215 1.43711 1.31803 0
M  V30 387 O 37.7915 0.61362 1.86042 0
M  V30 388 H 36.3715 0.746918 -0.0110531 0
M  V30 389 H 39.0335 1.80648 -0.731598 0
M  V30 390 H 38.1295 3.12064 0.0474463 0
M  V30 391 N 38.4306 0.297415 1.54768 0
M  V30 392 C 39.3806 -0.595275 2.20092 0
M  V30 393 C 40.3646 -1.10163 1.17273 0
M  V30 394 O 41.5566 -1.043 1.43006 0
M  V30 395 C 38.6856 -1.7684 2.94249 0
M  V30 396 C 37.7716 -1.27818 4.0438 0
M  V30 397 N 38.1626 -0.505695 5.03266 0
M  V30 398 C 36.4606 -1.55923 4.17857 0
M  V30 399 C 37.1616 -0.245094 5.81183 0
M  V30 400 N 36.1376 -0.823881 5.3732 0
M  V30 401 H 39.9396 0.00250837 2.939 0
M  V30 402 H 37.4536 0.102007 1.62079 0
M  V30 403 H 39.4506 -2.41944 3.39513 0
M  V30 404 H 38.1106 -2.36992 2.21957 0
M  V30 405 H 39.1216 -0.150928 5.1768 0
M  V30 406 H 35.7986 -2.16849 3.56767 0
M  V30 407 H 37.1886 0.375084 6.70852 0
M  V30 408 N 39.9087 -1.5758 0.0250728 0
M  V30 409 C 40.8417 -2.05473 -0.992777 0
M  V30 410 C 41.8197 -0.949661 -1.31986 0
M  V30 411 O 43.0037 -1.21969 -1.43722 0
M  V30 412 C 40.1307 -2.4734 -2.31389 0
M  V30 413 C 39.1767 -3.68827 -2.1417 0
M  V30 414 S 40.0097 -5.15655 -1.44429 0
M  V30 415 C 41.1657 -5.60814 -2.77918 0
M  V30 416 H 41.3987 -2.91486 -0.585078 0
M  V30 417 H 38.9317 -1.53269 -0.186507 0
M  V30 418 H 40.8897 -2.72127 -3.07339 0
M  V30 419 H 39.5507 -1.6168 -2.69292 0
M  V30 420 H 38.7437 -3.95955 -3.11826 0
M  V30 421 H 38.3457 -3.44172 -1.46362 0
M  V30 422 H 40.6377 -5.64806 -3.74166 0
M  V30 423 H 41.5807 -6.60414 -2.55459 0
M  V30 424 H 41.9887 -4.8845 -2.82979 0
M  V30 425 N 41.3868 0.248026 -1.55636 0
M  V30 426 C 42.3168 1.31079 -1.93237 0
M  V30 427 C 43.2978 1.50264 -0.797174 0
M  V30 428 O 44.4828 1.62891 -1.05737 0
M  V30 429 C 41.6128 2.66575 -2.22609 0
M  V30 430 C 40.5668 2.62087 -3.3837 0
M  V30 431 C 39.8928 4.01369 -3.53281 0
M  V30 432 C 41.1928 2.19171 -4.7409 0
M  V30 433 H 42.8868 0.998556 -2.82257 0
M  V30 434 H 40.4328 0.47891 -1.35803 0
M  V30 435 H 42.3858 3.41057 -2.47503 0
M  V30 436 H 41.1098 2.99432 -1.30414 0
M  V30 437 H 39.7688 1.90063 -3.13483 0
M  V30 438 H 39.4168 4.31489 -2.58508 0
M  V30 439 H 39.1168 3.99254 -4.31127 0
M  V30 440 H 40.6408 4.77552 -3.80495 0
M  V30 441 H 42.0548 2.83384 -4.98363 0
M  V30 442 H 40.4518 2.2817 -5.5503 0
M  V30 443 H 41.5218 1.14336 -4.71227 0
M  V30 444 N 42.8649 1.48995 0.513639 0
M  V30 445 C 43.7949 1.67636 1.62544 0
M  V30 446 C 44.7759 0.525087 1.61793 0
M  V30 447 O 45.9609 0.759502 1.78732 0
M  V30 448 C 43.0909 1.73114 3.01079 0
M  V30 449 C 42.0449 2.87905 3.16693 0
M  V30 450 C 41.3709 2.78486 4.56453 0
M  V30 451 C 42.6709 4.29005 2.97913 0
M  V30 452 H 44.3649 2.60716 1.47198 0
M  V30 453 H 41.9109 1.25465 0.706714 0
M  V30 454 H 43.8639 1.84742 3.78746 0
M  V30 455 H 42.5879 0.766241 3.17484 0
M  V30 456 H 41.2469 2.75859 2.41448 0
M  V30 457 H 40.8949 1.7993 4.69717 0
M  V30 458 H 40.5949 3.55523 4.67843 0
M  V30 459 H 42.1189 2.92104 5.36197 0
M  V30 460 H 43.5329 4.41798 3.65359 0
M  V30 461 H 41.9299 5.07166 3.20785 0
M  V30 462 H 42.9999 4.44329 1.94165 0
M  V30 463 N 44.343 -0.763751 1.37857 0
M  V30 464 C 45.589 -1.52396 1.3471 0
M  V30 465 C 45.944 -1.92288 -0.0656435 0
M  V30 466 O 45.237 -1.6181 -1.02606 0
M  V30 467 C 45.431 -2.79499 2.22745 0
M  V30 468 C 45.26 -2.52031 3.72438 0
M  V30 469 C 44.03 -2.45759 4.4151 0
M  V30 470 C 46.228 -2.19489 4.65112 0
M  V30 471 N 44.21 -2.1046 5.76697 0
M  V30 472 C 45.581 -1.94396 5.88736 0
M  V30 473 C 47.636 -2.05712 4.53417 0
M  V30 474 C 46.339 -1.56917 7.01975 0
M  V30 475 C 48.365 -1.69634 5.66549 0
M  V30 476 C 47.727 -1.45407 6.89229 0
M  V30 477 H 43.826 -0.55765 0.548225 0
M  V30 478 H 46.41 -0.890302 1.73152 0
M  V30 479 H 44.581 -3.4069 1.86507 0
M  V30 480 H 46.313 -3.45465 2.10798 0
M  V30 481 H 43.068 -2.61885 3.94605 0
M  V30 482 H 43.492 -1.95484 6.48163 0
M  V30 483 H 48.134 -2.23123 3.59133 0
M  V30 484 H 45.852 -1.38246 7.96187 0
M  V30 485 H 49.438 -1.59621 5.59475 0
M  V30 486 H 48.318 -1.17904 7.75286 0
M  V30 487 N 45.8211 -1.22559 -0.990812 0
M  V30 488 C 47.0491 -1.07779 -1.76611 0
M  V30 489 C 47.4641 0.371513 -1.85109 0
M  V30 490 O 46.8211 1.25737 -1.32274 0
M  V30 491 C 46.8721 -1.68512 -3.19822 0
M  V30 492 O 46.5931 -3.07774 -3.1178 0
M  V30 493 C 48.0941 -1.59035 -4.13791 0
M  V30 494 H 45.3141 -0.377729 -0.554583 0
M  V30 495 H 47.8581 -1.62195 -1.24551 0
M  V30 496 H 46.0131 -1.18154 -3.68942 0
M  V30 497 H 46.4271 -3.37062 -4.01858 0
M  V30 498 H 47.9011 -2.0625 -5.1202 0
M  V30 499 H 48.3781 -0.547273 -4.35777 0
M  V30 500 H 48.9841 -2.08709 -3.70568 0
M  V30 501 N 47.2992 1.18797 -1.03562 0
M  V30 502 C 48.2622 2.20464 -0.626769 0
M  V30 503 C 49.2622 1.57721 0.313173 0
M  V30 504 O 50.4522 1.73917 0.0992615 0
M  V30 505 C 47.5842 3.40802 0.0818498 0
M  V30 506 H 48.7772 2.58149 -1.5264 0
M  V30 507 H 46.3302 1.32593 -0.827578 0
M  V30 508 H 47.0652 3.08642 0.995518 0
M  V30 509 H 46.8502 3.8758 -0.593652 0
M  V30 510 H 48.3402 4.16092 0.354584 0
M  V30 511 N 48.7773 0.814389 1.34928 0
M  V30 512 C 50.0233 0.399013 1.98836 0
M  V30 513 C 50.3563 -1.03314 1.64438 0
M  V30 514 O 49.6313 -1.71811 0.911659 0
M  V30 515 C 49.9143 0.591629 3.55207 0
M  V30 516 C 49.7673 2.06928 3.99376 0
M  V30 517 C 51.0863 0.022199 4.40094 0
M  V30 518 H 48.2053 0.146451 0.722303 0
M  V30 519 H 50.8473 1.02537 1.59957 0
M  V30 520 H 48.9973 0.0584441 3.88456 0
M  V30 521 H 50.6693 2.66544 3.76499 0
M  V30 522 H 48.9123 2.56287 3.49999 0
M  V30 523 H 49.5833 2.1549 5.08201 0
M  V30 524 H 52.0593 0.477643 4.13349 0
M  V30 525 H 50.9353 0.186832 5.48582 0
M  V30 526 H 51.1963 -1.07215 4.28902 0
M  V30 527 N 50.2554 -1.46986 0.568584 0
M  V30 528 C 51.1854 -2.32946 -0.160753 0
M  V30 529 C 52.1664 -1.44487 -0.897631 0
M  V30 530 O 53.3514 -1.73327 -0.875867 0
M  V30 531 C 50.4814 -3.26494 -1.18403 0
M  V30 532 C 49.4354 -4.24282 -0.562895 0
M  V30 533 C 48.7614 -5.07236 -1.69163 0
M  V30 534 C 50.0614 -5.19989 0.490761 0
M  V30 535 H 51.7554 -2.94175 0.556916 0
M  V30 536 H 49.3014 -1.4146 0.26927 0
M  V30 537 H 51.2544 -3.85477 -1.70251 0
M  V30 538 H 49.9784 -2.63343 -1.93179 0
M  V30 539 H 48.6374 -3.66541 -0.0656164 0
M  V30 540 H 48.2854 -4.4048 -2.42871 0
M  V30 541 H 47.9854 -5.7345 -1.28174 0
M  V30 542 H 49.5094 -5.6908 -2.21314 0
M  V30 543 H 50.9234 -5.73271 0.0579047 0
M  V30 544 H 49.3204 -5.94469 0.820165 0
M  V30 545 H 50.3904 -4.64777 1.3824 0
M  V30 546 N 51.7335 -0.305618 -1.54608 0
M  V30 547 C 52.9805 0.302298 -2.00231 0
M  V30 548 C 53.3085 1.5354 -1.19398 0
M  V30 549 O 52.5635 1.93973 -0.259423 0
M  V30 550 C 52.8625 0.698983 -3.50498 0
M  V30 551 C 52.5285 -0.432903 -4.48817 0
M  V30 552 C 51.1905 -0.743622 -4.75419 0
M  V30 553 C 53.5425 -1.19409 -5.07337 0
M  V30 554 C 50.8705 -1.81857 -5.57804 0
M  V30 555 C 53.2225 -2.25899 -5.90891 0
M  V30 556 C 51.8865 -2.57572 -6.15803 0
M  V30 557 H 51.1565 0.110619 -0.732697 0
M  V30 558 H 53.8035 -0.425674 -1.86709 0
M  V30 559 H 52.1085 1.50711 -3.61654 0
M  V30 560 H 53.8055 1.1806 -3.83227 0
M  V30 561 H 50.3955 -0.18063 -4.28219 0
M  V30 562 H 54.5795 -0.967295 -4.86782 0
M  V30 563 H 49.8355 -2.06864 -5.75341 0
M  V30 564 H 54.0095 -2.85335 -6.35261 0
M  V30 565 H 51.6365 -3.40998 -6.7943 0
M  V30 566 N 53.2116 1.57565 -0.0334293 0
M  V30 567 C 54.1416 2.13511 0.945265 0
M  V30 568 C 55.1226 1.05231 1.33643 0
M  V30 569 O 56.3076 1.33084 1.41429 0
M  V30 570 C 53.4376 2.6657 2.22616 0
M  V30 571 C 52.3916 3.79676 1.97561 0
M  V30 572 C 51.7176 4.1918 3.31952 0
M  V30 573 C 53.0176 5.0557 1.31135 0
M  V30 574 H 54.7116 2.95538 0.479325 0
M  V30 575 H 52.2576 1.42166 0.229115 0
M  V30 576 H 54.2106 3.04344 2.91466 0
M  V30 577 H 52.9346 1.8171 2.71384 0
M  V30 578 H 51.5936 3.42347 1.31127 0
M  V30 579 H 51.2416 3.31296 3.78487 0
M  V30 580 H 50.9416 4.95402 3.15992 0
M  V30 581 H 52.4656 4.59541 4.02063 0
M  V30 582 H 53.8796 5.40903 1.89992 0
M  V30 583 H 52.2766 5.86818 1.25559 0
M  V30 584 H 53.3466 4.84062 0.284894 0
M  V30 585 N 54.6897 -0.239769 1.55765 0
M  V30 586 C 55.6527 -1.28038 1.90103 0
M  V30 587 C 56.6527 -1.40723 0.778055 0
M  V30 588 O 57.8427 -1.39301 1.04599 0
M  V30 589 C 54.9747 -2.65702 2.13577 0
M  V30 590 H 56.1677 -0.988048 2.83157 0
M  V30 591 H 53.7207 -0.479382 1.48767 0
M  V30 592 H 54.4557 -3.00063 1.23015 0
M  V30 593 H 54.2407 -2.57875 2.95369 0
M  V30 594 H 55.7307 -3.40828 2.41301 0
M  V30 595 N 56.1678 -1.49265 -0.50573 0
M  V30 596 C 57.5788 -1.51769 -1.08734 0
M  V30 597 C 57.9298 -0.301192 -1.93874 0
M  V30 598 O 57.0548 0.589456 -2.08217 0
M  V30 599 C 57.6498 -2.75017 -1.97867 0
M  V30 600 C 56.2088 -2.80314 -2.51199 0
M  V30 601 C 55.3558 -2.4562 -1.28709 0
M  V30 602 H 58.3068 -1.56031 -0.289855 0
M  V30 603 H 58.3278 -2.5491 -2.82491 0
M  V30 604 H 57.8398 -3.63539 -1.35873 0
M  V30 605 H 55.9408 -1.96061 -3.16845 0
M  V30 606 H 56.0538 -3.82366 -2.88675 0
M  V30 607 H 54.4178 -1.97297 -1.61078 0
M  V30 608 H 55.2008 -3.36411 -0.6843 0
M  V30 609 N 57.6459 0.756429 -1.3826 0
M  V30 610 C 58.8919 1.51772 -1.34511 0
M  V30 611 C 59.2249 1.94089 0.0656691 0
M  V30 612 O 58.4999 1.65221 1.02626 0
M  V30 613 C 58.7829 2.77226 -2.29821 0
M  V30 614 C 58.6359 2.41065 -3.79747 0
M  V30 615 C 59.9549 3.79236 -2.23312 0
M  V30 616 H 57.0739 0.550578 -0.489931 0
M  V30 617 H 59.7159 0.866607 -1.69086 0
M  V30 618 H 57.8659 3.32784 -2.00467 0
M  V30 619 H 59.5379 1.91303 -4.19763 0
M  V30 620 H 57.7809 1.7356 -3.97567 0
M  V30 621 H 58.4519 3.3081 -4.41892 0
M  V30 622 H 60.9279 3.3321 -2.49219 0
M  V30 623 H 59.8039 4.64714 -2.92116 0
M  V30 624 H 60.0649 4.24615 -1.23102 0
M  V30 625 N 59.124 1.23083 0.984299 0
M  V30 626 C 60.087 1.00979 2.05757 0
M  V30 627 C 61.087 -0.0269573 1.60777 0
M  V30 628 O 62.277 0.212403 1.729 0
M  V30 629 C 59.409 0.527072 3.36801 0
M  V30 630 H 60.602 1.9622 2.26799 0
M  V30 631 H 58.155 1.05072 1.15714 0
M  V30 632 H 58.89 -0.429294 3.21446 0
M  V30 633 H 58.675 1.27515 3.70786 0
M  V30 634 H 60.165 0.392942 4.15747 0
M  V30 635 N 60.6021 -1.18246 1.0419 0
M  V30 636 C 61.8501 -1.87886 0.744543 0
M  V30 637 C 62.1711 -1.8082 -0.730006 0
M  V30 638 O 61.4411 -1.22736 -1.52685 0
M  V30 639 H 60.0211 -0.695556 0.272417 0
M  V30 640 H 62.6831 -1.43494 1.31892 0
M  V30 641 H 61.7791 -2.9389 1.05049 0
M  V30 642 N 62.0802 -0.821533 -1.34494 0
M  V30 643 C 63.3082 -0.421884 -2.02553 0
M  V30 644 C 63.7232 0.971745 -1.61872 0
M  V30 645 O 63.0802 1.62864 -0.823496 0
M  V30 646 C 63.1312 -0.51285 -3.57844 0
M  V30 647 O 62.8522 -1.85155 -3.97051 0
M  V30 648 C 64.3532 -0.107921 -4.43169 0
M  V30 649 H 61.5732 -0.169482 -0.649243 0
M  V30 650 H 64.1172 -1.1093 -1.71798 0
M  V30 651 H 62.2722 0.126474 -3.87193 0
M  V30 652 H 62.6862 -1.82482 -4.91732 0
M  V30 653 H 64.1602 -0.222657 -5.51551 0
M  V30 654 H 64.6372 0.948401 -4.28838 0
M  V30 655 H 65.2432 -0.720989 -4.19144 0
M  V30 656 N 63.5583 1.46682 -0.576371 0
M  V30 657 C 64.9693 1.86112 -0.148091 0
M  V30 658 C 65.3203 1.48073 1.2872 0
M  V30 659 O 64.4453 0.892656 1.97131 0
M  V30 660 C 65.0403 3.37786 -0.261982 0
M  V30 661 C 63.5993 3.76235 0.111384 0
M  V30 662 C 62.7463 2.70713 -0.60083 0
M  V30 663 H 65.6973 1.37927 -0.78497 0
M  V30 664 H 65.7183 3.77007 0.514364 0
M  V30 665 H 65.2303 3.6544 -1.30671 0
M  V30 666 H 63.3313 3.54198 1.15649 0
M  V30 667 H 63.4443 4.78391 -0.26052 0
M  V30 668 H 61.8083 2.54666 -0.0417783 0
M  V30 669 H 62.5913 3.01208 -1.64708 0
M  V30 670 N 65.0364 0.313813 1.54444 0
M  V30 671 C 65.9994 -0.54379 2.22656 0
M  V30 672 C 66.9994 -1.05124 1.21678 0
M  V30 673 O 68.1894 -0.945225 1.46325 0
M  V30 674 C 65.3214 -1.75427 2.92298 0
M  V30 675 H 66.5144 0.0523599 2.99854 0
M  V30 676 H 64.0674 0.0647834 1.56166 0
M  V30 677 H 64.8024 -2.38991 2.19211 0
M  V30 678 H 64.5874 -1.39791 3.66334 0
M  V30 679 H 66.0774 -2.36325 3.44297 0
M  V30 680 N 66.5145 -1.57545 0.0417849 0
M  V30 681 C 67.4775 -2.09885 -0.92093 0
M  V30 682 C 68.4775 -1.01648 -1.24596 0
M  V30 683 O 69.6675 -1.27759 -1.1842 0
M  V30 684 C 66.7995 -2.57527 -2.23367 0
M  V30 685 H 67.9925 -2.96236 -0.467382 0
M  V30 686 H 65.5455 -1.5493 -0.206467 0
M  V30 687 H 66.2805 -1.74542 -2.73323 0
M  V30 688 H 66.0655 -3.36613 -2.01083 0
M  V30 689 H 67.5555 -2.98201 -2.92346 0
M  V30 690 N 67.9926 0.231505 -1.5589 0
M  V30 691 C 69.4036 0.799327 -1.68724 0
M  V30 692 C 69.7546 1.85398 -0.642022 0
M  V30 693 O 68.8796 2.1539 0.208784 0
M  V30 694 C 69.4746 1.45664 -3.05888 0
M  V30 695 C 68.0336 1.97197 -3.20609 0
M  V30 696 C 67.1806 0.828552 -2.64632 0
M  V30 697 H 70.1316 0.00702616 -1.58698 0
M  V30 698 H 70.1526 2.32517 -3.01191 0
M  V30 699 H 69.6646 0.688808 -3.81939 0
M  V30 700 H 67.7656 2.76813 -2.4941 0
M  V30 701 H 67.8786 2.15878 -4.27707 0
M  V30 702 H 66.2426 1.23321 -2.22854 0
M  V30 703 H 67.0256 0.0735544 -3.43221 0
M  V30 704 N 69.4707 1.49531 0.497807 0
M  V30 705 C 70.8817 1.52344 1.07927 0
M  V30 706 C 71.2327 0.311469 1.93712 0
M  V30 707 O 70.3577 -0.578405 2.08527 0
M  V30 708 C 70.9527 2.76062 1.96405 0
M  V30 709 C 69.5117 2.81643 2.49709 0
M  V30 710 C 68.6587 2.46299 1.27404 0
M  V30 711 H 71.6097 1.56182 0.281576 0
M  V30 712 H 71.6307 2.56405 2.81135 0
M  V30 713 H 71.1427 3.64254 1.33943 0
M  V30 714 H 69.2437 1.97739 3.15801 0
M  V30 715 H 69.3567 3.83891 2.86643 0
M  V30 716 H 67.7207 1.98148 1.60029 0
M  V30 717 H 68.5037 3.36769 0.66645 0
M  V30 718 N 70.9488 -0.749086 1.3866 0
M  V30 719 C 71.8958 -1.86291 1.36251 0
M  V30 720 C 72.8658 -1.64578 0.224347 0
M  V30 721 O 74.0508 -1.86181 0.417279 0
M  V30 722 C 71.1908 -3.23644 1.19786 0
M  V30 723 C 70.3038 -3.57158 2.43027 0
M  V30 724 C 69.4388 -4.83838 2.19258 0
M  V30 725 C 68.4778 -5.10152 3.38247 0
M  V30 726 N 67.6148 -6.28029 3.13884 0
M  V30 727 H 72.4548 -1.87685 2.3147 0
M  V30 728 H 69.9918 -0.917287 1.14997 0
M  V30 729 H 71.9498 -4.0291 1.08254 0
M  V30 730 H 70.5798 -3.21566 0.282031 0
M  V30 731 H 69.6318 -2.72701 2.65214 0
M  V30 732 H 70.9438 -3.7253 3.31697 0
M  V30 733 H 70.0978 -5.71057 2.04888 0
M  V30 734 H 68.8368 -4.70614 1.2796 0
M  V30 735 H 67.8418 -4.21401 3.53131 0
M  V30 736 H 69.0668 -5.25271 4.30427 0
M  V30 737 H 67.0128 -6.1612 2.25238 0
M  V30 738 H 66.9298 -6.43922 3.96106 0
M  V30 739 H 68.1978 -7.18124 3.03179 0
M  V30 740 N 72.4269 -1.23603 -0.977757 0
M  V30 741 C 73.3899 -1.02069 -2.05218 0
M  V30 742 C 74.3899 0.0184305 -1.60789 0
M  V30 743 O 75.5799 -0.221569 -1.72785 0
M  V30 744 C 72.7119 -0.544926 -3.36517 0
M  V30 745 H 73.9049 -1.9742 -2.25755 0
M  V30 746 H 71.4579 -1.05684 -1.15155 0
M  V30 747 H 72.1929 0.412241 -3.21669 0
M  V30 748 H 71.9779 -1.2948 -3.70105 0
M  V30 749 H 73.4679 -0.414985 -4.15533 0
M  V30 750 N 73.905 1.17692 -1.04816 0
M  V30 751 C 75.151 1.88137 -0.75711 0
M  V30 752 C 75.484 1.80604 0.713841 0
M  V30 753 O 74.759 1.21146 1.52164 0
M  V30 754 C 75.042 3.38318 -1.2334 0
M  V30 755 C 74.895 3.54622 -2.76701 0
M  V30 756 C 76.214 4.32214 -0.829415 0
M  V30 757 H 73.333 0.683163 -0.27651 0
M  V30 758 H 75.975 1.38424 -1.30149 0
M  V30 759 H 74.125 3.80787 -0.770286 0
M  V30 760 H 75.797 3.21194 -3.31107 0
M  V30 761 H 74.04 2.97026 -3.16161 0
M  V30 762 H 74.711 4.60028 -3.05088 0
M  V30 763 H 77.187 3.97565 -1.22805 0
M  V30 764 H 76.063 5.35838 -1.19033 0
M  V30 765 H 76.324 4.41294 0.266891 0
M  V30 766 N 75.3831 0.828654 1.34056 0
M  V30 767 C 76.3131 0.269443 2.3194 0
M  V30 768 C 77.2941 -0.617247 1.58506 0
M  V30 769 O 78.4791 -0.542931 1.86456 0
M  V30 770 C 75.6091 -0.564793 3.42677 0
M  V30 771 C 74.5631 0.225241 4.27407 0
M  V30 772 C 73.8891 -0.7321 5.29664 0
M  V30 773 C 75.1891 1.43663 5.02154 0
M  V30 774 H 76.8831 1.08728 2.7896 0
M  V30 775 H 74.4291 0.524283 1.34117 0
M  V30 776 H 76.3821 -0.966233 4.10173 0
M  V30 777 H 75.1061 -1.41574 2.9432 0
M  V30 778 H 73.7651 0.608117 3.61521 0
M  V30 779 H 73.4131 -1.57916 4.77568 0
M  V30 780 H 73.1131 -0.20767 5.87233 0
M  V30 781 H 74.6371 -1.13128 6.00029 0
M  V30 782 H 76.0511 1.1089 5.62473 0
M  V30 783 H 74.4481 1.89711 5.69324 0
M  V30 784 H 75.5181 2.21181 4.31517 0
M  V30 785 N 76.8612 -1.46375 0.584142 0
M  V30 786 C 77.8082 -2.30323 -0.148286 0
M  V30 787 C 78.7782 -1.40703 -0.882713 0
M  V30 788 O 79.9632 -1.69651 -0.873099 0
M  V30 789 C 77.1032 -3.25196 -1.15507 0
M  V30 790 C 76.2162 -4.29915 -0.423943 0
M  V30 791 C 75.3512 -5.11914 -1.41838 0
M  V30 792 C 74.3902 -6.08381 -0.673736 0
M  V30 793 N 73.5272 -6.83242 -1.6163 0
M  V30 794 H 78.3672 -2.92427 0.573644 0
M  V30 795 H 75.9042 -1.44118 0.294703 0
M  V30 796 H 77.8622 -3.78646 -1.75166 0
M  V30 797 H 76.4922 -2.64898 -1.8447 0
M  V30 798 H 75.5442 -3.7931 0.287714 0
M  V30 799 H 76.8562 -4.98549 0.158128 0
M  V30 800 H 76.0102 -5.69648 -2.08773 0
M  V30 801 H 74.7492 -4.43243 -2.03438 0
M  V30 802 H 73.7542 -5.49799 0.00938483 0
M  V30 803 H 74.9792 -6.79071 -0.0631082 0
M  V30 804 H 72.9252 -6.1728 -2.22038 0
M  V30 805 H 72.8422 -7.48144 -1.08707 0
M  V30 806 H 74.1102 -7.45534 -2.27596 0
M  V30 807 N 78.3393 -0.321999 -1.54275 0
M  V30 808 C 79.2693 0.537411 -2.27231 0
M  V30 809 C 80.2503 1.12064 -1.27968 0
M  V30 810 O 81.4353 1.14606 -1.56777 0
M  V30 811 C 78.5653 1.69919 -3.02894 0
M  V30 812 C 77.5193 1.24534 -4.09482 0
M  V30 813 C 76.8453 2.49394 -4.72977 0
M  V30 814 C 78.1453 0.361335 -5.21049 0
M  V30 815 H 79.8393 -0.0711406 -2.99315 0
M  V30 816 H 77.3853 -0.0356555 -1.43956 0
M  V30 817 H 79.3383 2.30668 -3.52662 0
M  V30 818 H 78.0623 2.33431 -2.28424 0
M  V30 819 H 76.7213 0.660782 -3.60596 0
M  V30 820 H 76.3693 3.11265 -3.95124 0
M  V30 821 H 76.0693 2.19718 -5.44975 0
M  V30 822 H 77.5933 3.10908 -5.25517 0
M  V30 823 H 79.0073 0.875072 -5.66582 0
M  V30 824 H 77.4043 0.157428 -5.99893 0
M  V30 825 H 78.4743 -0.60822 -4.8107 0
M  V30 826 N 79.8174 1.5752 -0.0501392 0
M  V30 827 C 80.7274 2.14952 0.939827 0
M  V30 828 C 81.7434 1.10706 1.34239 0
M  V30 829 O 82.9194 1.42869 1.41952 0
M  V30 830 C 79.9844 2.68232 2.19665 0
M  V30 831 C 79.0454 3.87272 1.85253 0
M  V30 832 C 78.2784 4.38002 3.04943 0
M  V30 833 O 78.5014 3.87811 4.18281 0
M  V30 834 O 77.4354 5.29602 2.86017 0
M  V30 835 H 81.2614 2.9986 0.481392 0
M  V30 836 H 78.8464 1.4841 0.171699 0
M  V30 837 H 80.7284 3.02475 2.93406 0
M  V30 838 H 79.4034 1.86395 2.64648 0
M  V30 839 H 78.3104 3.5792 1.0883 0
M  V30 840 H 79.6434 4.70336 1.4507 0
M  V30 841 N 81.2955 -0.223234 1.56011 0
M  V30 842 C 82.7065 -0.790368 1.69145 0
M  V30 843 C 83.0575 -1.85055 0.651845 0
M  V30 844 O 82.1825 -2.15498 -0.197359 0
M  V30 845 C 82.7775 -1.4404 3.06656 0
M  V30 846 C 81.3365 -1.95494 3.2165 0
M  V30 847 C 80.4835 -0.814506 2.65068 0
M  V30 848 H 83.4345 0.00139011 1.587 0
M  V30 849 H 83.4555 -2.30916 3.0242 0
M  V30 850 H 82.9675 -0.668543 3.82298 0
M  V30 851 H 81.0685 -2.75487 2.50874 0
M  V30 852 H 81.1815 -2.13607 4.28846 0
M  V30 853 H 79.5455 -1.22137 2.23505 0
M  V30 854 H 80.3285 -0.0553515 3.43255 0
M  V30 855 N 82.7736 -1.49793 -0.48987 0
M  V30 856 C 83.7056 -1.63413 -1.60713 0
M  V30 857 C 84.7186 -0.516329 -1.54395 0
M  V30 858 O 85.9076 -0.788812 -1.60125 0
M  V30 859 C 83.0076 -1.58516 -2.99543 0
M  V30 860 C 82.1806 -2.86016 -3.30928 0
M  V30 861 C 81.2396 -2.74018 -4.49222 0
M  V30 862 O 80.2656 -3.47964 -4.50455 0
M  V30 863 N 81.4676 -1.86309 -5.4979 0
M  V30 864 H 84.2326 -2.59777 -1.49452 0
M  V30 865 H 81.7936 -1.47022 -0.677955 0
M  V30 866 H 83.7856 -1.48128 -3.76617 0
M  V30 867 H 82.3556 -0.69965 -3.0467 0
M  V30 868 H 81.5756 -3.10672 -2.42645 0
M  V30 869 H 82.8636 -3.70521 -3.487 0
M  V30 870 H 82.2616 -1.2551 -5.51601 0
M  V30 871 H 80.8186 -1.81837 -6.25922 0
M  V30 872 N 84.2517 0.741722 -1.39055 0
M  V30 873 C 85.4977 1.50234 -1.37118 0
M  V30 874 C 85.8527 1.92368 0.0350439 0
M  V30 875 O 85.1457 1.63422 1.00019 0
M  V30 876 C 85.3397 2.7592 -2.27163 0
M  V30 877 C 85.1687 2.46074 -3.76401 0
M  V30 878 C 83.9387 2.38704 -4.45364 0
M  V30 879 C 86.1367 2.12062 -4.68545 0
M  V30 880 N 84.1187 2.01258 -5.79973 0
M  V30 881 C 85.4897 1.85005 -5.91754 0
M  V30 882 C 87.5447 1.98473 -4.56632 0
M  V30 883 C 86.2477 1.4573 -7.04383 0
M  V30 884 C 88.2737 1.60599 -5.69176 0
M  V30 885 C 87.6357 1.34423 -6.91455 0
M  V30 886 H 83.7347 0.548858 -0.557027 0
M  V30 887 H 86.3187 0.862642 -1.74547 0
M  V30 888 H 84.4897 3.3768 -1.91904 0
M  V30 889 H 86.2217 3.42068 -2.16267 0
M  V30 890 H 82.9767 2.55574 -3.98721 0
M  V30 891 H 83.4007 1.85147 -6.51191 0
M  V30 892 H 88.0427 2.17381 -3.62637 0
M  V30 893 H 85.7607 1.25562 -7.98286 0
M  V30 894 H 89.3467 1.507 -5.61944 0
M  V30 895 H 88.2267 1.05555 -7.77064 0
M  V30 896 N 85.7298 1.2412 0.971189 0
M  V30 897 C 86.9788 1.07284 1.70801 0
M  V30 898 C 87.2918 -0.388902 1.91695 0
M  V30 899 O 88.4978 -0.677379 2.62914 0
M  V30 900 C 86.9538 1.87145 3.07416 0
M  V30 901 C 86.5618 3.37707 2.94377 0
M  V30 902 C 88.3058 1.78828 3.84995 0
M  V30 903 C 86.2128 4.09925 4.26281 0
M  V30 904 H 85.1428 0.397854 0.64049 0
M  V30 905 H 87.7938 1.4817 1.0825 0
M  V30 906 H 86.1758 1.39071 3.70777 0
M  V30 907 H 87.3498 3.93335 2.4005 0
M  V30 908 H 85.6648 3.46938 2.30267 0
M  V30 909 H 88.2618 2.30089 4.82662 0
M  V30 910 H 88.6048 0.75284 4.09436 0
M  V30 911 H 89.1378 2.24563 3.28354 0
M  V30 912 H 85.8768 5.13813 4.07033 0
M  V30 913 H 85.3968 3.59083 4.80437 0
M  V30 914 H 87.0758 4.1673 4.94919 0
M  V30 915 N 87.2079 -1.17134 1.05439 0
M  V30 916 C 88.1559 -2.23289 0.651511 0
M  V30 917 C 89.1499 -1.66186 -0.328411 0
M  V30 918 O 90.3559 -1.78949 -0.194206 0
M  V30 919 H 86.7309 -0.726938 0.192523 0
M  V30 920 H 88.7019 -2.54565 1.55689 0
M  V30 921 C 87.4509 -3.47671 0.0448436 0
M  V30 922 H 86.7739 -3.91918 0.78996 0
M  V30 923 H 88.2139 -4.2353 -0.19964 0
M  V30 924 C 86.6729 -3.14453 -1.20918 0
M  V30 925 O 87.2029 -3.29459 -2.29825 0
M  V30 926 N 85.4089 -2.68657 -1.10779 0
M  V30 927 H 84.9559 -2.56646 -0.221526 0
M  V30 928 H 84.9139 -2.46804 -1.9477 0
M  V30 929 N 88.686 -0.835752 -1.33615 0
M  V30 930 C 89.932 -0.430596 -1.98176 0
M  V30 931 C 90.265 1.00684 -1.66061 0
M  V30 932 O 89.54 1.70339 -0.938877 0
M  V30 933 C 89.823 -0.648065 -3.5422 0
M  V30 934 C 89.676 -2.13255 -3.96033 0
M  V30 935 C 90.995 -0.0922113 -4.40003 0
M  V30 936 H 88.114 -0.157924 -0.719881 0
M  V30 937 H 90.756 -1.05069 -1.58305 0
M  V30 938 H 88.906 -0.120237 -3.88314 0
M  V30 939 H 90.578 -2.725 -3.72211 0
M  V30 940 H 88.821 -2.61823 -3.45878 0
M  V30 941 H 89.492 -2.23547 -5.04708 0
M  V30 942 H 91.968 -0.543343 -4.12537 0
M  V30 943 H 90.844 -0.274083 -5.48215 0
M  V30 944 H 91.105 1.00378 -4.30554 0
M  V30 945 N 90.1641 1.46063 -0.591896 0
M  V30 946 C 91.0941 2.33172 0.123673 0
M  V30 947 C 92.0751 1.45897 0.87453 0
M  V30 948 O 93.2601 1.74698 0.848181 0
M  V30 949 C 90.3901 3.28336 1.13194 0
M  V30 950 C 89.3441 4.25124 0.495324 0
M  V30 951 C 88.6701 5.09863 1.61071 0
M  V30 952 C 89.9701 5.19143 -0.573425 0
M  V30 953 H 91.6641 2.93252 -0.603646 0
M  V30 954 H 89.2101 1.41014 -0.291741 0
M  V30 955 H 91.1631 3.88137 1.64097 0
M  V30 956 H 89.8871 2.66383 1.88965 0
M  V30 957 H 88.5461 3.66599 0.00729452 0
M  V30 958 H 88.1941 4.44288 2.35832 0
M  V30 959 H 87.8941 5.75417 1.19035 0
M  V30 960 H 89.4181 5.72529 2.12233 0
M  V30 961 H 90.8321 5.73106 -0.1491 0
M  V30 962 H 89.2291 5.93089 -0.914636 0
M  V30 963 H 90.2991 4.62519 -1.45617 0
M  V30 964 N 91.6422 0.330177 1.54103 0
M  V30 965 C 92.5742 -0.566902 2.22079 0
M  V30 966 C 93.5872 -1.07462 1.22294 0
M  V30 967 O 94.7762 -0.987065 1.48726 0
M  V30 968 C 91.8762 -1.79138 2.87685 0
M  V30 969 C 91.0492 -1.42123 4.13666 0
M  V30 970 C 90.1082 -2.50394 4.62806 0
M  V30 971 O 89.1342 -2.14261 5.27334 0
M  V30 972 N 90.3362 -3.81433 4.37595 0
M  V30 973 H 93.1012 0.0151844 2.99696 0
M  V30 974 H 90.6622 0.153681 1.61169 0
M  V30 975 H 92.6542 -2.50975 3.1748 0
M  V30 976 H 91.2242 -2.28115 2.13734 0
M  V30 977 H 90.4442 -0.534201 3.90564 0
M  V30 978 H 91.7322 -1.14971 4.9564 0
M  V30 979 H 91.1302 -4.13584 3.8596 0
M  V30 980 H 89.6872 -4.4948 4.72029 0
M  V30 981 N 93.1203 -1.57491 0.0584922 0
M  V30 982 C 94.0303 -2.15448 -0.928414 0
M  V30 983 C 95.0463 -1.11416 -1.3365 0
M  V30 984 O 96.2223 -1.4362 -1.41193 0
M  V30 985 C 93.2873 -2.69393 -2.18239 0
M  V30 986 C 92.3483 -3.88249 -1.83196 0
M  V30 987 C 91.5813 -4.39613 -3.02616 0
M  V30 988 O 91.8043 -3.90023 -4.16219 0
M  V30 989 O 90.7383 -5.31111 -2.83204 0
M  V30 990 H 94.5643 -3.00112 -0.465483 0
M  V30 991 H 92.1493 -1.48499 -0.163826 0
M  V30 992 H 94.0313 -3.04026 -2.91798 0
M  V30 993 H 92.7063 -1.87796 -2.63656 0
M  V30 994 H 91.6133 -3.58492 -1.06931 0
M  V30 995 H 92.9463 -4.71098 -1.42573 0
M  V30 996 N 94.5984 0.214957 -1.56127 0
M  V30 997 C 95.8754 0.963093 -1.70247 0
M  V30 998 C 96.2554 2.02166 -0.60764 0
M  V30 999 O 95.6034 2.25244 0.384385 0
M  V30 1000 C 95.8134 1.56756 -3.11815 0
M  V30 1001 C 97.1614 2.0573 -3.7143 0
M  V30 1002 O 98.1854 1.66637 -3.14818 0
M  V30 1003 O 97.0444 2.77603 -4.70743 0
M  V30 1004 H 94.1384 0.450321 -0.693643 0
M  V30 1005 H 96.6844 0.206219 -1.68442 0
M  V30 1006 H 95.4564 0.803533 -3.82961 0
M  V30 1007 H 95.0794 2.3898 -3.17765 0
M  V30 1008 N 96.0765 1.50051 0.48192 0
M  V30 1009 C 97.3015 1.64508 1.26301 0
M  V30 1010 C 97.7265 0.323851 1.85291 0
M  V30 1011 O 97.0845 -0.710969 1.66778 0
M  V30 1012 C 97.1325 2.7305 2.35533 0
M  V30 1013 O 96.2365 2.3355 3.39895 0
M  V30 1014 H 95.5775 0.549978 0.372048 0
M  V30 1015 H 98.1075 1.9636 0.574786 0
M  V30 1016 H 98.1175 2.95799 2.8101 0
M  V30 1017 H 96.7925 3.68946 1.91967 0
M  V30 1018 H 95.3695 2.21205 3.00204 0
M  V30 1019 N 97.5546 -0.734337 1.39446 0
M  V30 1020 C 98.8006 -1.49613 1.36908 0
M  V30 1021 C 99.1336 -1.94169 -0.0347829 0
M  V30 1022 O 98.4086 -1.66833 -0.999847 0
M  V30 1023 C 98.6916 -2.73534 2.34203 0
M  V30 1024 C 98.5446 -2.34993 3.83534 0
M  V30 1025 C 99.8636 -3.75635 2.29317 0
M  V30 1026 H 96.9826 -0.542714 0.498629 0
M  V30 1027 H 99.6246 -0.839597 1.70443 0
M  V30 1028 H 97.7746 -3.29553 2.05736 0
M  V30 1029 H 99.4466 -1.84601 4.22753 0
M  V30 1030 H 97.6896 -1.67213 4.00278 0
M  V30 1031 H 98.3606 -3.23738 4.47099 0
M  V30 1032 H 100.837 -3.29203 2.54489 0
M  V30 1033 H 99.7126 -4.60008 2.99472 0
M  V30 1034 H 99.9736 -4.22603 1.29842 0
M  V30 1035 N 99.0327 -1.24633 -0.964593 0
M  V30 1036 C 100.261 -1.11501 -1.74285 0
M  V30 1037 C 100.676 0.332165 -1.85855 0
M  V30 1038 O 100.033 1.22903 -1.34911 0
M  V30 1039 C 100.084 -1.75258 -3.16175 0
M  V30 1040 O 99.8047 -3.14318 -3.05182 0
M  V30 1041 C 101.306 -1.67776 -4.10324 0
M  V30 1042 H 98.5257 -0.389407 -0.546446 0
M  V30 1043 H 101.07 -1.64801 -1.21083 0
M  V30 1044 H 99.2247 -1.25954 -3.66353 0
M  V30 1045 H 99.6387 -3.4551 -3.94618 0
M  V30 1046 H 101.113 -2.17064 -5.0753 0
M  V30 1047 H 101.59 -0.639584 -4.34518 0
M  V30 1048 H 102.196 -2.16522 -3.66058 0
M  V30 1049 N 100.511 1.16574 -1.06058 0
M  V30 1050 C 101.441 2.23057 -0.690488 0
M  V30 1051 C 102.422 1.67141 0.315901 0
M  V30 1052 O 103.607 1.93253 0.191556 0
M  V30 1053 C 100.737 3.47222 -0.073625 0
M  V30 1054 C 99.6908 4.16016 -1.00573 0
M  V30 1055 C 99.0168 5.34104 -0.252289 0
M  V30 1056 C 100.317 4.67264 -2.33371 0
M  V30 1057 H 102.011 2.54271 -1.58072 0
M  V30 1058 H 99.5568 1.22218 -0.76149 0
M  V30 1059 H 101.51 4.20939 0.19714 0
M  V30 1060 H 100.234 3.15302 0.85161 0
M  V30 1061 H 98.8928 3.44223 -1.2612 0
M  V30 1062 H 98.5408 4.98437 0.675988 0
M  V30 1063 H 98.2408 5.81072 -0.873455 0
M  V30 1064 H 99.7648 6.10599 0.0109857 0
M  V30 1065 H 101.179 5.32573 -2.12223 0
M  V30 1066 H 99.5758 5.24843 -2.90963 0
M  V30 1067 H 100.646 3.83602 -2.96611 0
M  V30 1068 N 101.989 0.842826 1.3317 0
M  V30 1069 C 103.217 0.454055 2.01856 0
M  V30 1070 C 103.632 -0.94587 1.63397 0
M  V30 1071 O 102.989 -1.61534 0.849302 0
M  V30 1072 C 103.04 0.569715 3.56982 0
M  V30 1073 O 102.761 1.91448 3.94055 0
M  V30 1074 C 104.262 0.178412 4.42941 0
M  V30 1075 H 101.482 0.17979 0.646465 0
M  V30 1076 H 104.026 1.1365 1.70012 0
M  V30 1077 H 102.181 -0.0648587 3.87346 0
M  V30 1078 H 102.595 1.90282 4.88767 0
M  V30 1079 H 104.069 0.310376 5.51127 0
M  V30 1080 H 104.546 -0.880056 4.30293 0
M  V30 1081 H 105.152 0.787579 4.17944 0
M  V30 1082 N 103.467 -1.45747 0.599634 0
M  V30 1083 C 104.707 -2.04181 0.0946309 0
M  V30 1084 C 105.071 -1.45895 -1.24815 0
M  V30 1085 O 106.272 -1.95633 -1.8434 0
M  V30 1086 C 104.543 -3.57368 0.047581 0
M  V30 1087 S 106.102 -4.36997 -0.397387 0
M  V30 1088 H 102.92 -0.70953 0.0456954 0
M  V30 1089 H 105.522 -1.78564 0.795946 0
M  V30 1090 H 104.226 -3.97303 1.02852 0
M  V30 1091 H 103.757 -3.87549 -0.675977 0
M  V30 1092 H 105.772 -4.68012 -1.64862 0
M  V30 1093 N 104.945 -0.338344 -1.53925 0
M  V30 1094 C 106.361 0.0137736 -1.59594 0
M  V30 1095 C 106.561 1.49186 -1.35447 0
M  V30 1096 O 105.617 2.24987 -1.14616 0
M  V30 1097 C 106.93 -0.41773 -2.97784 0
M  V30 1098 C 108.478 -0.369633 -3.1081 0
M  V30 1099 C 108.953 -0.776524 -4.51369 0
M  V30 1100 N 110.444 -0.730506 -4.57403 0
M  V30 1101 C 111.179 -1.01736 -5.64303 0
M  V30 1102 N 110.675 -1.3721 -6.79077 0
M  V30 1103 N 112.468 -0.941942 -5.54151 0
M  V30 1104 H 104.619 -1.3012 -1.67876 0
M  V30 1105 H 106.882 -0.530082 -0.78595 0
M  V30 1106 H 106.588 -1.44811 -3.20504 0
M  V30 1107 H 106.462 0.209729 -3.76616 0
M  V30 1108 H 108.849 0.651568 -2.87817 0
M  V30 1109 H 108.93 -1.03223 -2.34049 0
M  V30 1110 H 108.574 -1.79571 -4.75096 0
M  V30 1111 H 108.504 -0.0914649 -5.26521 0
M  V30 1112 H 110.995 -0.468783 -3.74981 0
M  V30 1113 H 111.308 -1.57597 -7.5656 0
M  V30 1114 H 109.653 -1.4105 -6.80536 0
M  V30 1115 H 112.844 -0.664184 -4.63364 0
M  V30 1116 H 113.017 -1.16884 -6.37371 0
M  V30 1117 N 106.423 1.57458 -0.0668435 0
M  V30 1118 C 107.671 1.92919 0.602214 0
M  V30 1119 C 107.992 0.947215 1.70449 0
M  V30 1120 O 107.262 -0.00544117 1.95899 0
M  V30 1121 H 105.842 0.71217 0.22544 0
M  V30 1122 H 108.504 1.94508 -0.123535 0
M  V30 1123 H 107.6 2.94589 1.03073 0
M  V30 1124 N 107.901 -0.206675 1.56239 0
M  V30 1125 C 109.129 -0.945345 1.8404 0
M  V30 1126 C 109.544 -1.77336 0.647885 0
M  V30 1127 O 108.901 -1.78425 -0.383511 0
M  V30 1128 C 108.952 -1.8509 3.10522 0
M  V30 1129 O 108.673 -1.05634 4.25174 0
M  V30 1130 C 110.174 -2.70222 3.51418 0
M  V30 1131 H 107.394 -0.276372 0.61144 0
M  V30 1132 H 109.938 -0.217417 2.03341 0
M  V30 1133 H 108.093 -2.53259 2.93153 0
M  V30 1134 H 108.507 -1.67238 4.97124 0
M  V30 1135 H 109.981 -3.29438 4.42916 0
M  V30 1136 H 110.458 -3.43358 2.73864 0
M  V30 1137 H 111.064 -2.07443 3.71278 0
M  V30 1138 N 109.379 -1.50304 -0.473955 0
M  V30 1139 C 110.329 -1.65347 -1.56985 0
M  V30 1140 C 111.313 -0.508176 -1.52664 0
M  V30 1141 O 112.505 -0.762446 -1.59737 0
M  V30 1142 C 109.634 -1.74832 -2.95447 0
M  V30 1143 C 108.72 -2.95028 -3.04662 0
M  V30 1144 N 109.111 -4.18747 -2.83698 0
M  V30 1145 C 107.409 -2.93527 -3.35795 0
M  V30 1146 C 108.11 -4.99687 -2.97805 0
M  V30 1147 N 107.086 -4.33585 -3.2788 0
M  V30 1148 H 110.888 -2.58698 -1.39472 0
M  V30 1149 H 108.402 -1.47449 -0.680629 0
M  V30 1150 H 110.399 -1.83712 -3.7424 0
M  V30 1151 H 109.059 -0.826376 -3.14008 0
M  V30 1152 H 110.07 -4.48291 -2.59337 0
M  V30 1153 H 106.747 -2.10821 -3.60362 0
M  V30 1154 H 108.137 -6.08057 -2.85861 0
M  V30 1155 N 110.857 0.726932 -1.39834 0
M  V30 1156 C 112.082 1.52121 -1.40976 0
M  V30 1157 C 112.507 1.88098 -0.00826029 0
M  V30 1158 O 111.865 1.52479 0.980807 0
M  V30 1159 C 111.913 2.78021 -2.29644 0
M  V30 1160 O 111.017 3.74272 -1.73188 0
M  V30 1161 H 110.358 0.45908 -0.479731 0
M  V30 1162 H 112.888 0.896207 -1.83927 0
M  V30 1163 H 112.898 3.26671 -2.44438 0
M  V30 1164 H 111.573 2.51169 -3.31492 0
M  V30 1165 H 110.15 3.33073 -1.6768 0
M  V30 1166 N 112.336 1.25143 0.95797 0
M  V30 1167 C 113.747 1.08851 1.51685 0
M  V30 1168 C 114.098 -0.33687 1.93286 0
M  V30 1169 O 113.223 -1.22644 1.7829 0
M  V30 1170 C 113.818 1.96978 2.75654 0
M  V30 1171 C 112.377 1.84881 3.27866 0
M  V30 1172 C 111.524 1.91329 2.0072 0
M  V30 1173 H 114.475 1.38478 0.77522 0
M  V30 1174 H 114.496 1.5078 3.4935 0
M  V30 1175 H 114.008 3.00712 2.45345 0
M  V30 1176 H 112.109 0.840182 3.63004 0
M  V30 1177 H 112.222 2.6951 3.96107 0
M  V30 1178 H 110.586 1.35174 2.15871 0
M  V30 1179 H 111.369 2.96661 1.72764 0
M  V30 1180 N 113.814 -1.1601 1.06675 0
M  V30 1181 C 114.724 -2.24156 0.692179 0
M  V30 1182 C 115.74 -1.71507 -0.293513 0
M  V30 1183 O 116.916 -2.009 -0.141861 0
M  V30 1184 C 113.981 -3.46587 0.0884131 0
M  V30 1185 C 113.042 -4.14257 1.12646 0
M  V30 1186 C 112.275 -5.30844 0.551416 0
M  V30 1187 O 112.498 -5.66858 -0.634656 0
M  V30 1188 O 111.432 -5.87848 1.29298 0
M  V30 1189 H 115.258 -2.58513 1.59388 0
M  V30 1190 H 112.843 -1.23599 0.83926 0
M  V30 1191 H 114.725 -4.20679 -0.246361 0
M  V30 1192 H 113.4 -3.13994 -0.786712 0
M  V30 1193 H 112.307 -3.42118 1.51348 0
M  V30 1194 H 113.64 -4.50914 1.97325 0
M  V30 1195 N 115.292 -0.849877 -1.32721 0
M  V30 1196 C 116.517 -0.463856 -2.02146 0
M  V30 1197 C 116.942 0.930449 -1.63476 0
M  V30 1198 O 116.3 1.61033 -0.832952 0
M  V30 1199 C 116.348 -0.604955 -3.55489 0
M  V30 1200 O 115.452 0.36425 -4.10788 0
M  V30 1201 H 114.793 -0.187046 -0.637111 0
M  V30 1202 H 117.323 -1.14775 -1.69375 0
M  V30 1203 H 117.333 -0.490696 -4.05038 0
M  V30 1204 H 116.008 -1.62174 -3.82978 0
M  V30 1205 H 114.585 0.206628 -3.72327 0
M  V30 1206 N 116.77 1.45427 -0.607355 0
M  V30 1207 C 118.047 1.9557 -0.0344566 0
M  V30 1208 C 118.427 1.54979 1.43334 0
M  V30 1209 O 117.775 0.812241 2.13576 0
M  V30 1210 C 117.985 3.48226 -0.232321 0
M  V30 1211 C 119.333 4.2445 -0.113001 0
M  V30 1212 O 120.357 3.55829 -0.162431 0
M  V30 1213 O 119.216 5.465 0.00209442 0
M  V30 1214 H 116.31 0.826222 0.0358667 0
M  V30 1215 H 118.856 1.55594 -0.6774 0
M  V30 1216 H 117.628 3.70739 -1.25174 0
M  V30 1217 H 117.251 3.95092 0.445896 0
M  V30 1218 N 118.248 0.346503 1.53744 0
M  V30 1219 C 119.473 -0.253074 2.0585 0
M  V30 1220 C 119.898 -1.43202 1.21962 0
M  V30 1221 O 119.256 -1.79783 0.234073 0
M  V30 1222 C 119.304 -0.643193 3.54817 0
M  V30 1223 O 118.408 -1.74286 3.73762 0
M  V30 1224 H 117.749 -0.0413583 0.662711 0
M  V30 1225 H 120.279 0.501574 1.98357 0
M  V30 1226 H 120.289 -0.919526 3.97503 0
M  V30 1227 H 118.964 0.218966 4.15323 0
M  V30 1228 H 117.541 -1.46356 3.42979 0
M  V30 1229 N 119.726 -1.57421 0.075193 0
M  V30 1230 C 120.975 -1.92794 -0.592731 0
M  V30 1231 C 121.288 -0.957478 -1.70563 0
M  V30 1232 O 122.494 -1.20417 -2.43335 0
M  V30 1233 C 120.95 -3.42495 -1.10569 0
M  V30 1234 C 120.558 -4.47994 -0.0236121 0
M  V30 1235 C 122.302 -3.86864 -1.74748 0
M  V30 1236 C 120.209 -5.88829 -0.550803 0
M  V30 1237 H 119.139 -0.719591 -0.225177 0
M  V30 1238 H 121.79 -1.82902 0.147978 0
M  V30 1239 H 120.172 -3.47471 -1.89947 0
M  V30 1240 H 121.346 -4.54637 0.751099 0
M  V30 1241 H 119.661 -4.13113 0.522159 0
M  V30 1242 H 122.258 -4.8947 -2.15229 0
M  V30 1243 H 122.601 -3.24417 -2.60882 0
M  V30 1244 H 123.134 -3.84504 -1.01986 0
M  V30 1245 H 119.873 -6.54929 0.273457 0
M  V30 1246 H 119.393 -5.85698 -1.29296 0
M  V30 1247 H 121.072 -6.38811 -1.02613 0
M  V30 1248 N 121.204 0.198386 -1.56346 0
M  V30 1249 C 122.136 1.26987 -1.90806 0
M  V30 1250 C 123.149 1.41877 -0.798419 0
M  V30 1251 O 124.338 1.42362 -1.07682 0
M  V30 1252 C 121.438 2.64246 -2.12196 0
M  V30 1253 C 120.611 2.71007 -3.43328 0
M  V30 1254 C 119.67 3.89439 -3.5387 0
M  V30 1255 O 118.696 3.76695 -4.26719 0
M  V30 1256 N 119.898 5.04752 -2.86715 0
M  V30 1257 H 122.663 0.977433 -2.83313 0
M  V30 1258 H 120.224 0.388322 -1.57174 0
M  V30 1259 H 122.216 3.41896 -2.1654 0
M  V30 1260 H 120.786 2.85992 -1.26204 0
M  V30 1261 H 120.006 1.79657 -3.50881 0
M  V30 1262 H 121.294 2.72512 -4.29668 0
M  V30 1263 H 120.692 5.18004 -2.2735 0
M  V30 1264 H 119.249 5.8036 -2.96691 0
M  V30 1265 N 122.682 1.50554 0.465978 0
M  V30 1266 C 123.928 1.63006 1.21658 0
M  V30 1267 C 124.283 0.328613 1.89573 0
M  V30 1268 O 123.576 -0.673813 1.79361 0
M  V30 1269 C 123.77 2.75152 2.28093 0
M  V30 1270 C 123.599 4.16075 1.7062 0
M  V30 1271 C 122.369 4.82408 1.50368 0
M  V30 1272 C 124.567 5.00145 1.1983 0
M  V30 1273 N 122.549 6.07532 0.881924 0
M  V30 1274 C 123.92 6.16035 0.700083 0
M  V30 1275 C 125.975 4.85882 1.08733 0
M  V30 1276 C 124.678 7.19228 0.101835 0
M  V30 1277 C 126.704 5.89257 0.503016 0
M  V30 1278 C 126.066 7.04398 0.0152005 0
M  V30 1279 H 122.165 0.650596 0.433877 0
M  V30 1280 H 124.749 1.8769 0.517746 0
M  V30 1281 H 122.92 2.52181 2.95397 0
M  V30 1282 H 124.652 2.76935 2.95109 0
M  V30 1283 H 121.407 4.39788 1.75737 0
M  V30 1284 H 121.831 6.7443 0.589312 0
M  V30 1285 H 126.473 3.97144 1.4504 0
M  V30 1286 H 124.191 8.07637 -0.273426 0
M  V30 1287 H 127.777 5.80286 0.419451 0
M  V30 1288 H 126.657 7.83021 -0.429856 0
M  V30 1289 N 124.16 -0.719506 1.40217 0
M  V30 1290 C 125.407 -1.47933 1.38283 0
M  V30 1291 C 125.735 -1.94493 -0.0161536 0
M  V30 1292 O 124.99 -1.68224 -0.999956 0
M  V30 1293 C 125.289 -2.72271 2.31524 0
M  V30 1294 C 124.955 -2.44496 3.78857 0
M  V30 1295 C 123.617 -2.36631 4.18998 0
M  V30 1296 C 125.969 -2.21104 4.71977 0
M  V30 1297 C 123.297 -2.03437 5.503 0
M  V30 1298 C 125.649 -1.89423 6.03574 0
M  V30 1299 C 124.313 -1.80038 6.42762 0
M  V30 1300 H 123.583 -0.541325 0.506012 0
M  V30 1301 H 126.23 -0.824502 1.72842 0
M  V30 1302 H 124.535 -3.42572 1.90137 0
M  V30 1303 H 126.232 -3.30348 2.27313 0
M  V30 1304 H 122.822 -2.51503 3.47051 0
M  V30 1305 H 127.006 -2.26139 4.41786 0
M  V30 1306 H 122.262 -1.94705 5.79569 0
M  V30 1307 H 126.436 -1.70336 6.75247 0
M  V30 1308 H 124.063 -1.54083 7.44421 0
M  V30 1309 N 125.638 -1.25649 -0.95132 0
M  V30 1310 C 126.588 -1.03004 -2.03406 0
M  V30 1311 C 127.572 0.034187 -1.60864 0
M  V30 1312 O 128.764 -0.181549 -1.76066 0
M  V30 1313 C 125.893 -0.654255 -3.37008 0
M  V30 1314 C 124.979 -1.75542 -3.86065 0
M  V30 1315 N 125.37 -2.99113 -4.07879 0
M  V30 1316 C 123.668 -1.63669 -4.14884 0
M  V30 1317 C 124.369 -3.70611 -4.48356 0
M  V30 1318 N 123.345 -2.98247 -4.54477 0
M  V30 1319 H 127.147 -1.96813 -2.1827 0
M  V30 1320 H 124.661 -1.16017 -1.13639 0
M  V30 1321 H 126.658 -0.473206 -4.14206 0
M  V30 1322 H 125.318 0.276468 -3.23521 0
M  V30 1323 H 126.329 -3.35124 -3.94857 0
M  V30 1324 H 123.006 -0.775161 -4.10241 0
M  V30 1325 H 124.396 -4.76695 -4.73509 0
M  V30 1326 N 127.117 1.15442 -1.07289 0
M  V30 1327 C 128.065 2.22225 -0.686952 0
M  V30 1328 C 129.059 1.66688 0.30193 0
M  V30 1329 O 130.265 1.79236 0.165712 0
M  V30 1330 H 126.64 0.723783 -0.204064 0
M  V30 1331 H 128.611 2.52056 -1.5972 0
M  V30 1332 C 127.36 3.47556 -0.100149 0
M  V30 1333 H 126.683 3.90612 -0.852211 0
M  V30 1334 H 128.123 4.23794 0.132235 0
M  V30 1335 C 126.582 3.16337 1.159 0
M  V30 1336 O 127.112 3.33074 2.24555 0
M  V30 1337 N 125.318 2.70385 1.06491 0
M  V30 1338 H 124.865 2.56966 0.180668 0
M  V30 1339 H 124.823 2.49871 1.90819 0
M  V30 1340 N 128.595 0.856903 1.32268 0
M  V30 1341 C 129.843 0.460474 1.96784 0
M  V30 1342 C 130.164 -0.987701 1.68135 0
M  V30 1343 O 129.434 -1.69058 0.989765 0
M  V30 1344 H 128.014 0.167289 0.728027 0
M  V30 1345 H 130.676 1.09383 1.61312 0
M  V30 1346 H 129.772 0.60739 3.06133 0
M  V30 1347 N 130.073 -1.45103 0.615059 0
M  V30 1348 C 131.021 -2.32331 -0.111791 0
M  V30 1349 C 132.015 -1.46409 -0.852102 0
M  V30 1350 O 133.221 -1.62849 -0.766821 0
M  V30 1351 H 129.596 -0.749993 -0.0549072 0
M  V30 1352 H 131.567 -2.91407 0.642225 0
M  V30 1353 C 130.316 -3.3015 -1.09071 0
M  V30 1354 H 129.639 -3.96265 -0.530485 0
M  V30 1355 H 131.079 -3.93898 -1.56908 0
M  V30 1356 C 129.538 -2.57875 -2.168 0
M  V30 1357 O 130.068 -2.36567 -3.24652 0
M  V30 1358 N 128.274 -2.17884 -1.92289 0
M  V30 1359 H 127.821 -2.35413 -1.04587 0
M  V30 1360 H 127.779 -1.6985 -2.64572 0
M  V30 1361 N 131.551 -0.354651 -1.53558 0
M  V30 1362 C 132.481 0.489091 -2.2832 0
M  V30 1363 C 133.462 1.09324 -1.30316 0
M  V30 1364 O 134.647 1.11255 -1.59173 0
M  V30 1365 C 131.777 1.63456 -3.0643 0
M  V30 1366 C 130.731 1.1582 -4.12031 0
M  V30 1367 C 130.057 2.39305 -4.7816 0
M  V30 1368 C 131.357 0.250731 -5.21698 0
M  V30 1369 H 133.051 -0.134614 -2.99097 0
M  V30 1370 H 130.597 -0.0661826 -1.43848 0
M  V30 1371 H 132.55 2.23136 -3.57475 0
M  V30 1372 H 131.274 2.28533 -2.33325 0
M  V30 1373 H 129.933 0.584146 -3.61916 0
M  V30 1374 H 129.581 3.02814 -4.01637 0
M  V30 1375 H 129.281 2.08109 -5.49513 0
M  V30 1376 H 130.805 2.99691 -5.31994 0
M  V30 1377 H 132.219 0.754695 -5.68311 0
M  V30 1378 H 130.616 0.0301468 -6.00092 0
M  V30 1379 H 131.686 -0.710125 -4.79672 0
M  V30 1380 N 133.029 1.57378 -0.0835403 0
M  V30 1381 C 134.278 1.93106 0.582498 0
M  V30 1382 C 134.591 0.96651 1.70053 0
M  V30 1383 O 135.797 1.21705 2.42693 0
M  V30 1384 C 134.253 3.43076 1.08751 0
M  V30 1385 C 133.861 4.48 -0.000146404 0
M  V30 1386 C 135.605 3.87785 1.72694 0
M  V30 1387 C 133.512 5.89113 0.519568 0
M  V30 1388 H 132.442 0.720775 0.221358 0
M  V30 1389 H 135.093 1.82821 -0.157675 0
M  V30 1390 H 133.475 3.48474 1.88101 0
M  V30 1391 H 134.649 4.54233 -0.775199 0
M  V30 1392 H 132.964 4.1283 -0.54406 0
M  V30 1393 H 135.561 4.90604 2.1263 0
M  V30 1394 H 135.904 3.25796 2.59158 0
M  V30 1395 H 136.437 3.8504 0.999457 0
M  V30 1396 H 133.176 6.54775 -0.308186 0
M  V30 1397 H 132.696 5.86376 1.26188 0
M  V30 1398 H 134.375 6.39346 0.992237 0
M  V30 1399 N 134.507 -0.190092 1.56449 0
M  V30 1400 C 135.918 -0.754312 1.70784 0
M  V30 1401 C 136.269 -1.83631 0.690951 0
M  V30 1402 O 135.394 -2.15868 -0.151604 0
M  V30 1403 C 135.989 -1.37503 3.09642 0
M  V30 1404 C 134.548 -1.88628 3.25725 0
M  V30 1405 C 133.695 -0.758098 2.66736 0
M  V30 1406 H 136.646 0.0350524 1.58661 0
M  V30 1407 H 136.667 -2.2445 3.0725 0
M  V30 1408 H 136.179 -0.587302 3.83631 0
M  V30 1409 H 134.28 -2.70103 2.56661 0
M  V30 1410 H 134.393 -2.04462 4.3328 0
M  V30 1411 H 132.757 -1.17369 2.26046 0
M  V30 1412 H 133.54 0.0174705 3.43296 0
M  V30 1413 N 135.985 -1.50799 -0.457987 0
M  V30 1414 C 137.213 -1.66218 -1.23203 0
M  V30 1415 C 137.628 -0.350894 -1.85511 0
M  V30 1416 O 136.985 0.668546 -1.69814 0
M  V30 1417 C 137.036 -2.76291 -2.33121 0
M  V30 1418 O 136.757 -4.02338 -1.73366 0
M  V30 1419 C 138.258 -3.028 -3.2377 0
M  V30 1420 H 135.478 -0.558361 -0.372121 0
M  V30 1421 H 138.022 -1.97099 -0.545179 0
M  V30 1422 H 136.177 -2.48068 -2.97558 0
M  V30 1423 H 136.591 -4.63312 -2.4585 0
M  V30 1424 H 138.065 -3.8345 -3.97077 0
M  V30 1425 H 138.542 -2.14385 -3.83322 0
M  V30 1426 H 139.148 -3.32604 -2.65056 0
M  V30 1427 N 137.463 0.71206 -1.40597 0
M  V30 1428 C 138.413 1.81783 -1.37619 0
M  V30 1429 C 139.397 1.58896 -0.253162 0
M  V30 1430 O 140.589 1.70009 -0.492547 0
M  V30 1431 C 137.718 3.19944 -1.24462 0
M  V30 1432 C 136.804 3.48582 -2.4156 0
M  V30 1433 N 137.195 3.48016 -3.67041 0
M  V30 1434 C 135.493 3.79056 -2.35016 0
M  V30 1435 C 136.194 3.75096 -4.44609 0
M  V30 1436 N 135.17 3.94022 -3.74497 0
M  V30 1437 H 138.972 1.79683 -2.32575 0
M  V30 1438 H 136.486 0.91134 -1.34419 0
M  V30 1439 H 138.483 3.99133 -1.20411 0
M  V30 1440 H 137.143 3.23267 -0.304762 0
M  V30 1441 H 138.154 3.28782 -4.00153 0
M  V30 1442 H 134.831 3.89848 -1.49415 0
M  V30 1443 H 136.221 3.80934 -5.53479 0
M  V30 1444 N 138.941 1.26152 0.944643 0
M  V30 1445 C 140.169 1.14259 1.72489 0
M  V30 1446 C 140.584 -0.302555 1.8636 0
M  V30 1447 O 139.941 -1.20741 1.36849 0
M  V30 1448 C 139.992 1.80266 3.13347 0
M  V30 1449 O 139.713 3.19133 3.00143 0
M  V30 1450 C 141.214 1.74283 4.07603 0
M  V30 1451 H 138.434 0.398051 0.540181 0
M  V30 1452 H 140.978 1.66706 1.18446 0
M  V30 1453 H 139.133 1.31766 3.64303 0
M  V30 1454 H 139.547 3.51744 3.89071 0
M  V30 1455 H 141.021 2.25111 5.04013 0
M  V30 1456 H 141.498 0.708631 4.33446 0
M  V30 1457 H 142.104 2.22319 3.62567 0
M  V30 1458 N 140.419 -1.14872 1.07899 0
M  V30 1459 C 141.351 -2.19425 0.662231 0
M  V30 1460 C 142.364 -1.60231 -0.288079 0
M  V30 1461 O 143.553 -1.78336 -0.076534 0
M  V30 1462 C 140.653 -3.38867 -0.0470695 0
M  V30 1463 C 139.826 -4.27597 0.920831 0
M  V30 1464 C 138.885 -5.25616 0.247805 0
M  V30 1465 O 137.911 -5.62189 0.890599 0
M  V30 1466 N 139.113 -5.71746 -1.00435 0
M  V30 1467 H 141.878 -2.55797 1.56166 0
M  V30 1468 H 139.439 -1.30042 0.964404 0
M  V30 1469 H 141.431 -4.01497 -0.50813 0
M  V30 1470 H 140.001 -3.00864 -0.848523 0
M  V30 1471 H 139.221 -3.61982 1.56087 0
M  V30 1472 H 140.509 -4.83748 1.57688 0
M  V30 1473 H 139.907 -5.44153 -1.54642 0
M  V30 1474 H 138.464 -6.36389 -1.40899 0
M  V30 1475 N 141.898 -0.863906 -1.31812 0
M  V30 1476 C 143.309 -0.52522 -1.7916 0
M  V30 1477 C 143.66 0.957518 -1.71248 0
M  V30 1478 O 142.785 1.74734 -1.27659 0
M  V30 1479 C 143.38 -0.9466 -3.25307 0
M  V30 1480 C 141.939 -0.659668 -3.70574 0
M  V30 1481 C 141.086 -1.14126 -2.52726 0
M  V30 1482 H 144.037 -1.05022 -1.1898 0
M  V30 1483 H 144.058 -0.266766 -3.79564 0
M  V30 1484 H 143.57 -2.02579 -3.31034 0
M  V30 1485 H 141.671 0.408416 -3.70355 0
M  V30 1486 H 141.784 -1.23245 -4.62977 0
M  V30 1487 H 140.148 -0.561216 -2.4844 0
M  V30 1488 H 140.931 -2.22775 -2.61201 0
M  V30 1489 N 143.376 1.44774 -0.622745 0
M  V30 1490 C 144.601 2.06999 -0.128968 0
M  V30 1491 C 145.026 1.4617 1.1839 0
M  V30 1492 O 144.384 0.560007 1.72434 0
M  V30 1493 C 144.432 3.60595 -0.0188351 0
M  V30 1494 O 143.536 3.99398 1.02739 0
M  V30 1495 H 142.877 0.659047 -0.0809544 0
M  V30 1496 H 145.407 1.85784 -0.85705 0
M  V30 1497 H 145.417 4.07627 0.174476 0
M  V30 1498 H 144.092 4.04252 -0.977384 0
M  V30 1499 H 142.669 3.64011 0.809326 0
M  V30 1500 N 144.854 0.36279 1.53368 0
M  V30 1501 C 146.084 -0.228281 2.05335 0
M  V30 1502 C 146.492 -1.43226 1.23625 0
M  V30 1503 O 145.835 -1.81717 0.269206 0
M  V30 1504 C 145.897 -0.688549 3.52845 0
M  V30 1505 C 145.561 0.398362 4.5526 0
M  V30 1506 C 146.558 1.24732 5.04716 0
M  V30 1507 C 144.243 0.557805 4.99193 0
M  V30 1508 C 146.237 2.2411 5.96702 0
M  V30 1509 C 143.924 1.55495 5.90986 0
M  V30 1510 C 144.922 2.39503 6.39631 0
M  V30 1511 O 144.61 3.37517 7.29615 0
M  V30 1512 H 144.342 -0.044395 0.674541 0
M  V30 1513 H 146.896 0.518668 1.98744 0
M  V30 1514 H 145.126 -1.48706 3.56964 0
M  V30 1515 H 146.815 -1.20231 3.87685 0
M  V30 1516 H 147.581 1.13532 4.71525 0
M  V30 1517 H 143.46 -0.0862959 4.60919 0
M  V30 1518 H 147.004 2.89718 6.34594 0
M  V30 1519 H 142.901 1.66744 6.23592 0
M  V30 1520 H 143.669 3.33213 7.47604 0
M  V30 1521 N 146.332 -1.57332 0.0918853 0
M  V30 1522 C 147.748 -1.57389 -0.264766 0
M  V30 1523 C 147.948 -1.10281 -1.68643 0
M  V30 1524 O 147.004 -0.777801 -2.40222 0
M  V30 1525 C 148.317 -3.00648 -0.0561195 0
M  V30 1526 C 149.865 -3.12754 -0.124116 0
M  V30 1527 C 150.34 -4.57965 0.0564972 0
M  V30 1528 N 151.831 -4.632 0.00155611 0
M  V30 1529 C 152.566 -5.73281 0.116598 0
M  V30 1530 N 152.062 -6.92208 0.286294 0
M  V30 1531 N 153.855 -5.6207 0.0580973 0
M  V30 1532 H 146.006 -1.86262 1.02079 0
M  V30 1533 H 148.269 -0.859579 0.399786 0
M  V30 1534 H 147.975 -3.393 0.925669 0
M  V30 1535 H 147.849 -3.68623 -0.799823 0
M  V30 1536 H 150.236 -2.73976 -1.09641 0
M  V30 1537 H 150.317 -2.47377 0.651024 0
M  V30 1538 H 149.961 -4.97436 1.02564 0
M  V30 1539 H 149.891 -5.21399 -0.738297 0
M  V30 1540 H 152.382 -3.77686 -0.127192 0
M  V30 1541 H 152.695 -7.71934 0.365676 0
M  V30 1542 H 151.04 -6.94254 0.32192 0
M  V30 1543 H 154.231 -4.68043 -0.0733204 0
M  V30 1544 H 154.404 -6.47824 0.151203 0
M  V30 1545 N 147.81 0.181792 -1.56548 0
M  V30 1546 C 149.057 0.900097 -1.81396 0
M  V30 1547 C 149.385 1.82695 -0.667281 0
M  V30 1548 O 148.64 1.92614 0.346146 0
M  V30 1549 C 148.939 1.73728 -3.12335 0
M  V30 1550 C 148.605 0.960255 -4.40556 0
M  V30 1551 C 147.267 0.745766 -4.75386 0
M  V30 1552 C 149.619 0.414477 -5.19549 0
M  V30 1553 C 146.947 -0.0257694 -5.86694 0
M  V30 1554 C 149.299 -0.343916 -6.31664 0
M  V30 1555 C 147.963 -0.569301 -6.65068 0
M  V30 1556 H 147.233 0.329369 -0.663775 0
M  V30 1557 H 149.88 0.165647 -1.90782 0
M  V30 1558 H 148.185 2.54081 -2.98245 0
M  V30 1559 H 149.882 2.29591 -3.28769 0
M  V30 1560 H 146.472 1.13746 -4.13231 0
M  V30 1561 H 150.656 0.567554 -4.93044 0
M  V30 1562 H 145.912 -0.210233 -6.11038 0
M  V30 1563 H 150.086 -0.774133 -6.92084 0
M  V30 1564 H 147.713 -1.16903 -7.51158 0
M  V30 1565 N 149.288 1.51039 0.449983 0
M  V30 1566 C 150.235 1.71439 1.54523 0
M  V30 1567 C 151.205 0.555871 1.56522 0
M  V30 1568 O 152.39 0.788871 1.73728 0
M  V30 1569 C 149.53 1.83384 2.92343 0
M  V30 1570 C 148.643 3.10873 2.9997 0
M  V30 1571 C 147.778 3.13488 4.28834 0
M  V30 1572 C 146.817 4.35343 4.30282 0
M  V30 1573 N 145.954 4.35579 5.5065 0
M  V30 1574 H 150.794 2.64934 1.36433 0
M  V30 1575 H 148.331 1.31312 0.662982 0
M  V30 1576 H 150.289 1.88291 3.72293 0
M  V30 1577 H 148.919 0.933086 3.0902 0
M  V30 1578 H 147.971 3.15336 2.12761 0
M  V30 1579 H 149.283 4.00814 2.96901 0
M  V30 1580 H 148.437 3.17241 5.17149 0
M  V30 1581 H 147.176 2.21414 4.34543 0
M  V30 1582 H 146.181 4.3178 3.40362 0
M  V30 1583 H 147.406 5.28668 4.26248 0
M  V30 1584 H 145.352 3.46369 5.57104 0
M  V30 1585 H 145.269 5.19313 5.49409 0
M  V30 1586 H 146.537 4.43507 6.41032 0
M  V30 1587 N 150.766 -0.704594 1.40972 0
M  V30 1588 C 151.729 -1.80035 1.41845 0
M  V30 1589 C 152.729 -1.57774 0.310474 0
M  V30 1590 O 153.919 -1.64613 0.56992 0
M  V30 1591 C 151.051 -3.18284 1.22098 0
M  V30 1592 H 152.244 -1.80658 2.3938 0
M  V30 1593 H 149.797 -0.911329 1.26982 0
M  V30 1594 H 150.532 -3.23306 0.253672 0
M  V30 1595 H 150.317 -3.35843 2.02366 0
M  V30 1596 H 151.807 -3.98289 1.25522 0
M  V30 1597 N 152.244 -1.26651 -0.937939 0
M  V30 1598 C 153.192 -1.08308 -2.05845 0
M  V30 1599 C 154.186 -0.0090757 -1.69398 0
M  V30 1600 O 155.392 -0.166007 -1.79233 0
M  V30 1601 H 151.767 -0.333416 -0.674046 0
M  V30 1602 H 153.738 -2.03261 -2.18467 0
M  V30 1603 C 152.487 -0.736229 -3.39816 0
M  V30 1604 H 151.81 -1.55453 -3.6834 0
M  V30 1605 H 153.25 -0.64769 -4.19024 0
M  V30 1606 C 151.709 0.558824 -3.32233 0
M  V30 1607 O 152.239 1.59621 -3.68624 0
M  V30 1608 N 150.445 0.550657 -2.85335 0
M  V30 1609 H 149.992 -0.293943 -2.55917 0
M  V30 1610 H 149.95 1.41726 -2.80644 0
M  V30 1611 N 153.722 1.14298 -1.08507 0
M  V30 1612 C 154.67 2.21483 -0.710483 0
M  V30 1613 C 155.664 1.66998 0.284234 0
M  V30 1614 O 156.87 1.79401 0.146692 0
M  V30 1615 H 153.245 0.721578 -0.211729 0
M  V30 1616 H 155.216 2.50348 -1.62384 0
M  V30 1617 C 153.965 3.4743 -0.137007 0
M  V30 1618 H 153.288 3.89686 -0.893592 0
M  V30 1619 H 154.728 4.2391 0.0872789 0
M  V30 1620 C 153.187 3.17548 1.12538 0
M  V30 1621 O 153.717 3.35437 2.21009 0
M  V30 1622 N 151.923 2.71499 1.03617 0
M  V30 1623 H 151.47 2.57143 0.153403 0
M  V30 1624 H 151.428 2.51881 1.88158 0
M  V30 1625 N 155.201 0.870884 1.31352 0
M  V30 1626 C 156.149 0.316445 2.30437 0
M  V30 1627 C 157.143 -0.568965 1.59559 0
M  V30 1628 O 158.349 -0.454964 1.74155 0
M  V30 1629 H 154.724 0.0836521 0.747333 0
M  V30 1630 H 156.695 1.16606 2.74673 0
M  V30 1631 C 155.444 -0.46635 3.44558 0
M  V30 1632 H 154.767 0.205687 3.99271 0
M  V30 1633 H 156.207 -0.819614 4.16003 0
M  V30 1634 C 154.666 -1.65797 2.9328 0
M  V30 1635 O 155.196 -2.75728 2.92125 0
M  V30 1636 N 153.402 -1.49041 2.4947 0
M  V30 1637 H 152.949 -0.59612 2.50608 0
M  V30 1638 H 152.907 -2.28911 2.15516 0
M  V30 1639 N 156.679 -1.44442 0.630414 0
M  V30 1640 C 157.956 -1.9549 0.0655657 0
M  V30 1641 C 158.336 -1.5724 -1.40851 0
M  V30 1642 O 157.684 -0.846116 -2.12257 0
M  V30 1643 C 157.894 -3.47812 0.287691 0
M  V30 1644 C 159.242 -4.24216 0.180513 0
M  V30 1645 O 160.266 -3.55526 0.219019 0
M  V30 1646 O 159.125 -5.46434 0.0848493 0
M  V30 1647 H 156.219 -0.826688 -0.0227177 0
M  V30 1648 H 158.765 -1.54496 0.702068 0
M  V30 1649 H 157.537 -3.687 1.31056 0
M  V30 1650 H 157.16 -3.95751 -0.382984 0
M  V30 1651 N 158.157 -0.370918 -1.53173 0
M  V30 1652 C 159.382 0.220293 -2.06227 0
M  V30 1653 C 159.807 1.41243 -1.24225 0
M  V30 1654 O 159.165 1.79387 -0.262645 0
M  V30 1655 C 159.213 0.586663 -3.55796 0
M  V30 1656 O 158.317 1.68317 -3.76488 0
M  V30 1657 H 157.658 0.0308099 -0.663285 0
M  V30 1658 H 160.188 -0.533068 -1.97534 0
M  V30 1659 H 160.198 0.85617 -3.98916 0
M  V30 1660 H 158.873 -0.285013 -4.14922 0
M  V30 1661 H 157.45 1.40881 -3.45264 0
M  V30 1662 N 159.635 1.57281 -0.100228 0
M  V30 1663 C 160.883 1.94153 0.561157 0
M  V30 1664 C 161.204 0.983157 1.68401 0
M  V30 1665 O 160.474 0.0361132 1.95867 0
M  V30 1666 H 159.054 0.716791 0.210283 0
M  V30 1667 H 161.716 1.94202 -0.164765 0
M  V30 1668 H 160.812 2.96709 0.968008 0
M  V30 1669 N 161.113 -0.173488 1.56642 0
M  V30 1670 C 162.023 -1.23482 1.99473 0
M  V30 1671 C 163.039 -1.48567 0.905752 0
M  V30 1672 O 164.215 -1.60758 1.21321 0
M  V30 1673 C 161.28 -2.55444 2.34413 0
M  V30 1674 C 160.341 -2.38241 3.57127 0
M  V30 1675 C 159.574 -3.63909 3.90392 0
M  V30 1676 O 159.797 -4.68996 3.24653 0
M  V30 1677 O 158.731 -3.58149 4.83749 0
M  V30 1678 H 162.557 -0.901279 2.90018 0
M  V30 1679 H 160.142 -0.380185 1.44482 0
M  V30 1680 H 162.024 -3.33292 2.57865 0
M  V30 1681 H 160.699 -2.88382 1.4703 0
M  V30 1682 H 159.606 -1.58431 3.38896 0
M  V30 1683 H 160.939 -2.10228 4.45045 0
M  V30 1684 N 162.591 -1.51276 -0.441967 0
M  V30 1685 C 163.821 -1.67273 -1.21257 0
M  V30 1686 C 164.229 -0.367624 -1.85594 0
M  V30 1687 O 163.572 0.663349 -1.71305 0
M  V30 1688 C 163.634 -2.72807 -2.34129 0
M  V30 1689 C 163.298 -4.1554 -1.90198 0
M  V30 1690 C 164.295 -5.00471 -1.40801 0
M  V30 1691 C 161.98 -4.61616 -1.9803 0
M  V30 1692 C 163.974 -6.29536 -0.998174 0
M  V30 1693 C 161.661 -5.90679 -1.56658 0
M  V30 1694 C 162.659 -6.74466 -1.07633 0
M  V30 1695 O 162.347 -8.01116 -0.668459 0
M  V30 1696 H 162.079 -0.564614 -0.371734 0
M  V30 1697 H 164.633 -1.9843 -0.530521 0
M  V30 1698 H 162.863 -2.36954 -3.05597 0
M  V30 1699 H 164.552 -2.77729 -2.96009 0
M  V30 1700 H 165.318 -4.66079 -1.34148 0
M  V30 1701 H 161.197 -3.96526 -2.35135 0
M  V30 1702 H 164.741 -6.94885 -0.61482 0
M  V30 1703 H 160.638 -6.24586 -1.62979 0
M  V30 1704 H 161.406 -8.14633 -0.794722 0
M  V30 1705 N 164.069 0.697108 -1.41344 0
M  V30 1706 C 165.297 1.48593 -1.43972 0
M  V30 1707 C 165.712 1.88747 -0.0445612 0
M  V30 1708 O 165.069 1.56682 0.935785 0
M  V30 1709 C 165.12 2.74946 -2.34706 0
M  V30 1710 O 164.841 2.36484 -3.68791 0
M  V30 1711 C 166.342 3.687 -2.46121 0
M  V30 1712 H 163.562 0.457964 -0.490418 0
M  V30 1713 H 166.106 0.858429 -1.8561 0
M  V30 1714 H 164.261 3.33937 -1.9638 0
M  V30 1715 H 164.675 3.17918 -4.17167 0
M  V30 1716 H 166.149 4.54145 -3.13777 0
M  V30 1717 H 166.626 4.13081 -1.49199 0
M  V30 1718 H 167.232 3.15613 -2.85076 0
M  V30 1719 N 165.547 1.27147 0.931209 0
M  V30 1720 C 166.787 1.14511 1.69312 0
M  V30 1721 C 167.151 -0.304638 1.89568 0
M  V30 1722 O 168.352 -0.553343 2.63043 0
M  V30 1723 C 166.623 1.90349 3.02493 0
M  V30 1724 S 168.182 1.93884 3.93642 0
M  V30 1725 H 165 0.408858 0.581684 0
M  V30 1726 H 167.602 1.61006 1.10893 0
M  V30 1727 H 166.306 2.94877 2.85439 0
M  V30 1728 H 165.837 1.44333 3.65966 0
M  V30 1729 H 167.852 1.03273 4.85334 0
M  V30 1730 N 167.025 -1.13721 1.09112 0
M  V30 1731 C 167.957 -2.1871 0.685467 0
M  V30 1732 C 168.97 -1.60527 -0.271068 0
M  V30 1733 O 170.159 -1.78407 -0.0576148 0
M  V30 1734 C 167.259 -3.38898 -0.0111255 0
M  V30 1735 C 166.432 -4.26597 0.966131 0
M  V30 1736 C 165.491 -5.25324 0.303539 0
M  V30 1737 O 164.517 -5.61213 0.950177 0
M  V30 1738 N 165.719 -5.72779 -0.943651 0
M  V30 1739 H 168.484 -2.54126 1.58871 0
M  V30 1740 H 166.045 -1.29012 0.978143 0
M  V30 1741 H 168.037 -4.02014 -0.465517 0
M  V30 1742 H 166.607 -3.01747 -0.816565 0
M  V30 1743 H 165.827 -3.60306 1.59917 0
M  V30 1744 H 167.115 -4.82048 1.6281 0
M  V30 1745 H 166.513 -5.45762 -1.48862 0
M  V30 1746 H 165.07 -6.37847 -1.34142 0
M  V30 1747 N 168.503 -0.877838 -1.30888 0
M  V30 1748 C 169.731 -0.507414 -2.00581 0
M  V30 1749 C 170.146 0.902216 -1.65848 0
M  V30 1750 O 169.503 1.59225 -0.891831 0
M  V30 1751 C 169.554 -0.664162 -3.55347 0
M  V30 1752 O 169.275 -2.01829 -3.8884 0
M  V30 1753 C 170.776 -0.295787 -4.42312 0
M  V30 1754 H 167.996 -0.196866 -0.641471 0
M  V30 1755 H 170.54 -1.18117 -1.66939 0
M  V30 1756 H 168.695 -0.0378619 -3.87381 0
M  V30 1757 H 169.109 -2.03174 -4.8355 0
M  V30 1758 H 170.583 -0.456388 -5.5011 0
M  V30 1759 H 171.06 0.765663 -4.32475 0
M  V30 1760 H 171.666 -0.898113 -4.15709 0
M  V30 1761 N 169.982 1.44106 -0.638065 0
M  V30 1762 C 171.23 2.01579 -0.145043 0
M  V30 1763 C 171.551 1.50496 1.24 0
M  V30 1764 O 170.821 0.711374 1.82527 0
M  V30 1765 H 169.401 0.745282 -0.05063 0
M  V30 1766 H 172.063 1.76516 -0.826327 0
M  V30 1767 H 171.159 3.11877 -0.118039 0
M  V30 1768 N 171.46 0.379036 1.52974 0
M  V30 1769 C 172.392 -0.495963 2.2377 0
M  V30 1770 C 173.405 -1.03517 1.25651 0
M  V30 1771 O 174.594 -0.939249 1.51791 0
M  V30 1772 C 171.694 -1.69894 2.93239 0
M  V30 1773 C 170.867 -1.2889 4.17979 0
M  V30 1774 C 169.926 -2.35543 4.70538 0
M  V30 1775 O 168.952 -1.97375 5.33883 0
M  V30 1776 N 170.154 -3.67318 4.49508 0
M  V30 1777 H 172.919 0.110523 2.99496 0
M  V30 1778 H 170.48 0.204878 1.60598 0
M  V30 1779 H 172.472 -2.40747 3.25304 0
M  V30 1780 H 171.042 -2.212 2.20883 0
M  V30 1781 H 170.262 -0.409676 3.92065 0
M  V30 1782 H 171.55 -0.991443 4.99047 0
M  V30 1783 H 170.948 -4.01095 3.98923 0
M  V30 1784 H 169.505 -4.34235 4.8609 0
M  V30 1785 N 172.938 -1.57226 0.108567 0
M  V30 1786 C 174.166 -1.99179 -0.559954 0
M  V30 1787 C 174.581 -0.988022 -1.60884 0
M  V30 1788 O 173.938 0.0205512 -1.82488 0
M  V30 1789 C 173.989 -3.41159 -1.19552 0
M  V30 1790 O 173.71 -4.37694 -0.188577 0
M  V30 1791 C 175.211 -3.98188 -1.94837 0
M  V30 1792 H 172.431 -0.654228 -0.149088 0
M  V30 1793 H 174.975 -2.03598 0.19183 0
M  V30 1794 H 173.13 -3.37711 -1.89815 0
M  V30 1795 H 173.544 -5.20469 -0.649014 0
M  V30 1796 H 175.018 -4.99644 -2.34648 0
M  V30 1797 H 175.495 -3.3675 -2.81951 0
M  V30 1798 H 176.101 -4.0515 -1.2936 0
M  V30 1799 N 174.416 0.165178 -1.56732 0
M  V30 1800 C 175.641 0.900253 -1.86843 0
M  V30 1801 C 176.066 1.74766 -0.695596 0
M  V30 1802 O 175.424 1.77786 0.35522 0
M  V30 1803 C 175.472 1.74777 -3.15413 0
M  V30 1804 O 174.576 2.85007 -2.98068 0
M  V30 1805 H 173.917 0.251832 -0.614391 0
M  V30 1806 H 176.447 0.161468 -2.03962 0
M  V30 1807 H 176.457 2.14646 -3.46974 0
M  V30 1808 H 175.132 1.12537 -4.00385 0
M  V30 1809 H 173.709 2.48676 -2.77875 0
M  V30 1810 N 175.894 1.51508 0.433938 0
M  V30 1811 C 176.824 1.76016 1.53429 0
M  V30 1812 C 177.805 0.610112 1.58782 0
M  V30 1813 O 178.99 0.853177 1.74455 0
M  V30 1814 C 176.12 1.88831 2.9148 0
M  V30 1815 C 175.074 3.04288 3.00987 0
M  V30 1816 C 174.4 3.0229 4.4105 0
M  V30 1817 C 175.7 4.44193 2.74754 0
M  V30 1818 H 177.394 2.68152 1.33171 0
M  V30 1819 H 174.94 1.29035 0.639214 0
M  V30 1820 H 176.893 2.04559 3.6842 0
M  V30 1821 H 175.617 0.933455 3.12976 0
M  V30 1822 H 174.276 2.8827 2.26486 0
M  V30 1823 H 173.924 2.04576 4.59519 0
M  V30 1824 H 173.624 3.79822 4.4834 0
M  V30 1825 H 175.148 3.20116 5.1996 0
M  V30 1826 H 176.562 4.60544 3.41426 0
M  V30 1827 H 174.959 5.23457 2.9345 0
M  V30 1828 H 176.029 4.53996 1.70339 0
M  V30 1829 N 177.372 -0.689602 1.41712 0
M  V30 1830 C 178.597 -1.48329 1.44959 0
M  V30 1831 C 179.022 -1.8801 0.0581283 0
M  V30 1832 O 178.38 -1.55026 -0.940035 0
M  V30 1833 C 178.428 -2.71835 2.36935 0
M  V30 1834 O 177.532 -3.69549 1.8305 0
M  V30 1835 H 176.873 -0.446199 0.491734 0
M  V30 1836 H 179.403 -0.847127 1.86239 0
M  V30 1837 H 179.413 -3.20076 2.53013 0
M  V30 1838 H 178.088 -2.42291 3.38035 0
M  V30 1839 H 176.665 -3.2851 1.76452 0
M  V30 1840 N 178.85 -1.27639 -0.924453 0
M  V30 1841 C 180.127 -1.04887 -1.651 0
M  V30 1842 C 180.507 0.415327 -2.06974 0
M  V30 1843 O 179.855 1.39923 -1.80648 0
M  V30 1844 C 180.065 -2.01348 -2.85061 0
M  V30 1845 C 181.413 -2.30899 -3.56329 0
M  V30 1846 O 182.437 -1.99348 -2.95193 0
M  V30 1847 O 181.296 -2.84699 -4.66485 0
M  V30 1848 H 178.39 -0.400083 -0.723784 0
M  V30 1849 H 180.936 -1.38916 -0.974703 0
M  V30 1850 H 179.708 -3.0008 -2.51133 0
M  V30 1851 H 179.331 -1.679 -3.6041 0
M  V30 1852 N 180.328 1.1314 -1.09713 0
M  V30 1853 C 181.739 1.66029 -0.853885 0
M  V30 1854 C 182.09 1.86241 0.617142 0
M  V30 1855 O 181.215 1.5834 1.47503 0
M  V30 1856 C 181.81 3.01599 -1.5435 0
M  V30 1857 C 180.369 3.51467 -1.34714 0
M  V30 1858 C 179.516 2.26648 -1.59769 0
M  V30 1859 H 182.467 0.970226 -1.25588 0
M  V30 1860 H 182.488 3.67709 -0.978267 0
M  V30 1861 H 182 2.86856 -2.6141 0
M  V30 1862 H 180.101 3.71408 -0.297838 0
M  V30 1863 H 180.214 4.314 -2.08401 0
M  V30 1864 H 178.578 2.33385 -1.01998 0
M  V30 1865 H 179.361 2.14467 -2.68065 0
M  V30 1866 N 181.806 0.884767 1.30421 0
M  V30 1867 C 183.052 0.503851 1.96441 0
M  V30 1868 C 183.385 -0.944518 1.69684 0
M  V30 1869 O 182.66 -1.66737 1.00145 0
M  V30 1870 C 182.943 0.779085 3.51571 0
M  V30 1871 C 182.796 2.27807 3.87846 0
M  V30 1872 C 184.115 0.255452 4.39358 0
M  V30 1873 H 181.234 0.184533 0.713524 0
M  V30 1874 H 183.876 1.10872 1.54297 0
M  V30 1875 H 182.026 0.264274 3.876 0
M  V30 1876 H 183.698 2.86127 3.61841 0
M  V30 1877 H 181.941 2.74479 3.35922 0
M  V30 1878 H 182.612 2.42125 4.96064 0
M  V30 1879 H 185.088 0.696079 4.10236 0
M  V30 1880 H 183.964 0.477361 5.4682 0
M  V30 1881 H 184.225 -0.843293 4.33983 0
M  V30 1882 N 183.284 -1.43765 0.645699 0
M  V30 1883 C 184.234 -2.27884 -0.0726442 0
M  V30 1884 C 185.218 -1.39483 -0.802086 0
M  V30 1885 O 186.41 -1.63174 -0.685791 0
M  V30 1886 C 183.539 -3.27055 -1.04356 0
M  V30 1887 C 182.625 -4.22944 -0.312985 0
M  V30 1888 N 183.016 -5.01391 0.666386 0
M  V30 1889 C 181.314 -4.42528 -0.55546 0
M  V30 1890 C 182.015 -5.71217 1.09935 0
M  V30 1891 N 180.991 -5.41856 0.435137 0
M  V30 1892 H 184.793 -2.85949 0.678988 0
M  V30 1893 H 182.307 -1.55378 0.472368 0
M  V30 1894 H 184.304 -3.86089 -1.57292 0
M  V30 1895 H 182.964 -2.70551 -1.79534 0
M  V30 1896 H 183.975 -5.07252 1.04481 0
M  V30 1897 H 180.652 -3.97104 -1.28899 0
M  V30 1898 H 182.042 -6.44202 1.90929 0
M  V30 1899 N 184.763 -0.387143 -1.52771 0
M  V30 1900 C 185.693 0.440551 -2.29306 0
M  V30 1901 C 186.674 1.06535 -1.32606 0
M  V30 1902 O 187.859 1.07853 -1.61497 0
M  V30 1903 C 184.989 1.56919 -3.09829 0
M  V30 1904 C 183.943 1.07054 -4.14395 0
M  V30 1905 C 183.269 2.29109 -4.83129 0
M  V30 1906 C 184.569 0.140015 -5.22112 0
M  V30 1907 H 186.263 -0.198026 -2.98744 0
M  V30 1908 H 183.809 -0.09668 -1.43675 0
M  V30 1909 H 185.762 2.15503 -3.62128 0
M  V30 1910 H 184.486 2.23532 -2.3812 0
M  V30 1911 H 183.145 0.507247 -3.63074 0
M  V30 1912 H 182.793 2.94227 -4.0797 0
M  V30 1913 H 182.493 1.96406 -5.53804 0
M  V30 1914 H 184.017 2.88339 -5.38231 0
M  V30 1915 H 185.431 0.633978 -5.69784 0
M  V30 1916 H 183.828 -0.0971485 -6.00021 0
M  V30 1917 H 184.898 -0.811711 -4.78058 0
M  V30 1918 N 186.241 1.57166 -0.116904 0
M  V30 1919 C 187.469 1.99473 0.549383 0
M  V30 1920 C 187.884 0.996541 1.60357 0
M  V30 1921 O 187.241 -0.0108731 1.82497 0
M  V30 1922 C 187.292 3.41788 1.17741 0
M  V30 1923 O 187.013 4.37788 0.165362 0
M  V30 1924 C 188.514 3.99216 1.92722 0
M  V30 1925 H 185.734 0.655009 0.145616 0
M  V30 1926 H 188.278 2.03494 -0.202625 0
M  V30 1927 H 186.433 3.38713 1.88021 0
M  V30 1928 H 186.847 5.20806 0.621403 0
M  V30 1929 H 188.321 5.00882 2.31995 0
M  V30 1930 H 188.798 3.3824 2.80161 0
M  V30 1931 H 189.404 4.0583 1.27209 0
M  V30 1932 N 187.719 -0.156864 1.56817 0
M  V30 1933 C 188.965 -0.872416 1.83076 0
M  V30 1934 C 189.298 -1.81261 0.697001 0
M  V30 1935 O 188.573 -1.92171 -0.30008 0
M  V30 1936 C 188.856 -1.65551 3.19789 0
M  V30 1937 C 188.709 -0.737467 4.43713 0
M  V30 1938 C 190.028 -2.62012 3.53606 0
M  V30 1939 H 187.147 -0.315715 0.665953 0
M  V30 1940 H 189.789 -0.138004 1.89498 0
M  V30 1941 H 187.939 -2.28159 3.14445 0
M  V30 1942 H 189.611 -0.123143 4.61136 0
M  V30 1943 H 187.854 -0.0464067 4.33775 0
M  V30 1944 H 188.525 -1.32122 5.35955 0
M  V30 1945 H 191.001 -2.09525 3.59497 0
M  V30 1946 H 189.877 -3.13861 4.50314 0
M  V30 1947 H 190.138 -3.42902 2.79053 0
M  V30 1948 N 189.197 -1.51736 -0.425897 0
M  V30 1949 C 190.127 -1.76827 -1.52494 0
M  V30 1950 C 191.108 -0.618524 -1.58456 0
M  V30 1951 O 192.293 -0.862416 -1.74 0
M  V30 1952 C 189.423 -1.90374 -2.90474 0
M  V30 1953 C 188.377 -3.0588 -2.99369 0
M  V30 1954 C 187.703 -3.04625 -4.3944 0
M  V30 1955 C 189.003 -4.45644 -2.72394 0
M  V30 1956 H 190.697 -2.68855 -1.31748 0
M  V30 1957 H 188.243 -1.29372 -0.632362 0
M  V30 1958 H 190.196 -2.0651 -3.6733 0
M  V30 1959 H 188.92 -0.95004 -3.12477 0
M  V30 1960 H 187.579 -2.89467 -2.24954 0
M  V30 1961 H 187.227 -2.0701 -4.58428 0
M  V30 1962 H 186.927 -3.82195 -4.46319 0
M  V30 1963 H 188.451 -3.22869 -5.18255 0
M  V30 1964 H 189.865 -4.62348 -3.38979 0
M  V30 1965 H 188.262 -5.25006 -2.9067 0
M  V30 1966 H 189.332 -4.54893 -1.67929 0
M  V30 1967 N 190.675 0.682077 -1.42076 0
M  V30 1968 C 191.9 1.47558 -1.45744 0
M  V30 1969 C 192.325 1.87977 -0.0680981 0
M  V30 1970 O 191.683 1.55522 0.9318 0
M  V30 1971 C 191.731 2.70575 -2.38373 0
M  V30 1972 O 190.835 3.68573 -1.85007 0
M  V30 1973 H 190.176 0.443585 -0.494093 0
M  V30 1974 H 192.706 0.837238 -1.86686 0
M  V30 1975 H 192.716 3.18729 -2.54707 0
M  V30 1976 H 191.391 2.40495 -3.39315 0
M  V30 1977 H 189.968 3.2757 -1.78192 0
M  V30 1978 N 192.153 1.28127 0.917671 0
M  V30 1979 C 193.063 1.13556 2.05286 0
M  V30 1980 C 194.079 0.0630914 1.73886 0
M  V30 1981 O 195.255 0.271598 1.9956 0
M  V30 1982 C 192.32 0.794676 3.3747 0
M  V30 1983 C 191.381 1.94909 3.82504 0
M  V30 1984 C 190.614 1.62437 5.0838 0
M  V30 1985 O 190.837 0.536905 5.67867 0
M  V30 1986 O 189.771 2.46677 5.4903 0
M  V30 1987 H 193.597 2.08844 2.20495 0
M  V30 1988 H 191.182 1.07409 1.03845 0
M  V30 1989 H 193.064 0.618344 4.16839 0
M  V30 1990 H 191.739 -0.128581 3.23445 0
M  V30 1991 H 190.646 2.18055 3.03978 0
M  V30 1992 H 191.979 2.85291 4.01086 0
M  V30 1993 N 193.631 -1.12557 1.10312 0
M  V30 1994 C 194.877 -1.84515 0.855901 0
M  V30 1995 C 195.232 -1.82409 -0.611936 0
M  V30 1996 O 194.525 -1.25778 -1.44535 0
M  V30 1997 C 194.719 -3.31462 1.33669 0
M  V30 1998 C 194.548 -3.47879 2.84974 0
M  V30 1999 C 193.318 -3.61589 3.52961 0
M  V30 2000 C 195.516 -3.43152 3.83081 0
M  V30 2001 N 193.498 -3.66359 4.926 0
M  V30 2002 C 194.869 -3.54401 5.08724 0
M  V30 2003 C 196.924 -3.2661 3.75807 0
M  V30 2004 C 195.627 -3.50815 6.2795 0
M  V30 2005 C 197.653 -3.24335 4.94531 0
M  V30 2006 C 197.015 -3.36144 6.19021 0
M  V30 2007 H 193.114 -0.690967 0.366182 0
M  V30 2008 H 195.698 -1.34763 1.40524 0
M  V30 2009 H 193.869 -3.7976 0.814686 0
M  V30 2010 H 195.601 -3.91272 1.03385 0
M  V30 2011 H 192.356 -3.63652 3.03404 0
M  V30 2012 H 192.78 -3.72411 5.65366 0
M  V30 2013 H 197.422 -3.16375 2.80476 0
M  V30 2014 H 195.14 -3.5982 7.23571 0
M  V30 2015 H 198.726 -3.12719 4.9061 0
M  V30 2016 H 197.606 -3.34357 7.09348 0
M  V30 2017 N 195.109 -0.891671 -1.2995 0
M  V30 2018 C 196.039 -0.379797 -2.30391 0
M  V30 2019 C 197.02 0.540919 -1.6127 0
M  V30 2020 O 198.205 0.453352 -1.88834 0
M  V30 2021 C 195.335 0.400654 -3.44981 0
M  V30 2022 C 194.289 -0.428905 -4.25846 0
M  V30 2023 C 193.615 0.478557 -5.32554 0
M  V30 2024 C 194.915 -1.67458 -4.94727 0
M  V30 2025 H 196.609 -1.21914 -2.73454 0
M  V30 2026 H 194.155 -0.587675 -1.31462 0
M  V30 2027 H 196.108 0.769434 -4.14316 0
M  V30 2028 H 194.832 1.27371 -3.0074 0
M  V30 2029 H 193.491 -0.779911 -3.58208 0
M  V30 2030 H 193.139 1.34951 -4.84559 0
M  V30 2031 H 192.839 -0.0727433 -5.87555 0
M  V30 2032 H 194.363 0.843705 -6.04743 0
M  V30 2033 H 195.777 -1.376 -5.56542 0
M  V30 2034 H 194.174 -2.16659 -5.59624 0
M  V30 2035 H 195.244 -2.41518 -4.20473 0
M  V30 2036 N 196.587 1.43421 -0.653314 0
M  V30 2037 C 197.833 2.02111 -0.166992 0
M  V30 2038 C 198.166 1.51423 1.21592 0
M  V30 2039 O 197.441 0.707389 1.8118 0
M  V30 2040 C 197.724 3.5966 -0.177948 0
M  V30 2041 C 197.577 4.20579 -1.59478 0
M  V30 2042 C 198.896 4.37413 0.4856 0
M  V30 2043 H 196.015 0.734374 -0.0621557 0
M  V30 2044 H 198.657 1.70717 -0.834016 0
M  V30 2045 H 196.807 3.86537 0.390032 0
M  V30 2046 H 198.479 4.04732 -2.21336 0
M  V30 2047 H 196.722 3.77226 -2.14204 0
M  V30 2048 H 197.393 5.29665 -1.5543 0
M  V30 2049 H 199.869 4.161 0.00234528 0
M  V30 2050 H 198.745 5.47075 0.447207 0
M  V30 2051 H 199.006 4.13672 1.55974 0
M  V30 2052 N 198.065 0.39524 1.52563 0
M  V30 2053 C 198.995 -0.428384 2.29537 0
M  V30 2054 C 199.976 -1.05831 1.33169 0
M  V30 2055 O 201.161 -1.06995 1.62067 0
M  V30 2056 C 198.291 -1.55274 3.10656 0
M  V30 2057 C 197.245 -1.04855 4.14957 0
M  V30 2058 C 196.571 -2.26543 4.84337 0
M  V30 2059 C 197.871 -0.112324 5.22179 0
M  V30 2060 H 199.565 0.213867 2.98635 0
M  V30 2061 H 197.111 0.104298 1.43622 0
M  V30 2062 H 199.064 -2.1358 3.63265 0
M  V30 2063 H 197.788 -2.22266 2.39302 0
M  V30 2064 H 196.447 -0.487985 3.63338 0
M  V30 2065 H 196.095 -2.92059 4.09525 0
M  V30 2066 H 195.795 -1.93466 5.54837 0
M  V30 2067 H 197.319 -2.85481 5.39753 0
M  V30 2068 H 198.733 -0.603752 5.70112 0
M  V30 2069 H 197.13 0.128968 5.99961 0
M  V30 2070 H 198.2 0.837052 4.77621 0
M  V30 2071 N 199.544 -1.57102 0.125237 0
M  V30 2072 C 200.476 -2.12726 -0.853237 0
M  V30 2073 C 201.489 -1.07145 -1.22571 0
M  V30 2074 O 202.678 -1.34497 -1.17358 0
M  V30 2075 C 199.778 -2.61709 -2.15317 0
M  V30 2076 C 198.951 -3.91456 -1.95143 0
M  V30 2077 C 198.01 -4.25973 -3.08923 0
M  V30 2078 O 197.036 -4.94682 -2.81564 0
M  V30 2079 N 198.238 -3.83795 -4.35524 0
M  V30 2080 H 201.003 -2.97307 -0.377964 0
M  V30 2081 H 198.564 -1.61792 -0.0590011 0
M  V30 2082 H 200.556 -2.81826 -2.90441 0
M  V30 2083 H 199.126 -1.81974 -2.54174 0
M  V30 2084 H 198.346 -3.80185 -1.04177 0
M  V30 2085 H 199.634 -4.76283 -1.78976 0
M  V30 2086 H 199.032 -3.2839 -4.60626 0
M  V30 2087 H 197.589 -4.09008 -5.07499 0
M  V30 2088 N 201.022 0.148545 -1.56898 0
M  V30 2089 C 202.25 0.876389 -1.87422 0
M  V30 2090 C 202.665 1.74809 -0.713256 0
M  V30 2091 O 202.022 1.79725 0.317025 0
M  V30 2092 C 202.073 1.73438 -3.17178 0
M  V30 2093 O 201.794 0.897809 -4.28802 0
M  V30 2094 C 203.295 2.56993 -3.61205 0
M  V30 2095 H 200.515 0.253489 -0.621277 0
M  V30 2096 H 203.059 0.141798 -2.04008 0
M  V30 2097 H 201.214 2.42205 -3.0235 0
M  V30 2098 H 201.628 1.48672 -5.02988 0
M  V30 2099 H 203.102 3.12773 -4.54838 0
M  V30 2100 H 203.579 3.32958 -2.86419 0
M  V30 2101 H 204.185 1.9352 -3.78722 0
M  V30 2102 N 202.5 1.5196 0.417844 0
M  V30 2103 C 203.911 1.57851 0.997 0
M  V30 2104 C 204.262 0.413714 1.91789 0
M  V30 2105 O 203.387 -0.467057 2.113 0
M  V30 2106 C 203.982 2.86085 1.81496 0
M  V30 2107 C 202.541 2.94483 2.34428 0
M  V30 2108 C 201.688 2.52707 1.14169 0
M  V30 2109 H 204.639 1.57455 0.198392 0
M  V30 2110 H 204.66 2.70947 2.67148 0
M  V30 2111 H 204.172 3.70842 1.14446 0
M  V30 2112 H 202.273 2.142 3.04875 0
M  V30 2113 H 202.386 3.98546 2.65891 0
M  V30 2114 H 200.75 2.06353 1.49301 0
M  V30 2115 H 201.533 3.39828 0.486999 0
M  V30 2116 N 203.978 -0.674533 1.42435 0
M  V30 2117 C 204.928 -1.7807 1.4239 0
M  V30 2118 C 205.912 -1.58169 0.295202 0
M  V30 2119 O 207.104 -1.68643 0.537449 0
M  V30 2120 C 204.233 -3.16532 1.32901 0
M  V30 2121 C 203.319 -3.42055 2.50717 0
M  V30 2122 N 203.71 -3.38162 3.76139 0
M  V30 2123 C 202.008 -3.72692 2.44983 0
M  V30 2124 C 202.709 -3.63177 4.54398 0
M  V30 2125 N 201.685 -3.83954 3.84812 0
M  V30 2126 H 205.487 -1.73454 2.37257 0
M  V30 2127 H 203.001 -0.875381 1.36788 0
M  V30 2128 H 204.998 -3.958 1.30951 0
M  V30 2129 H 203.658 -3.22345 0.390363 0
M  V30 2130 H 204.669 -3.18057 4.0873 0
M  V30 2131 H 201.346 -3.85749 1.59699 0
M  V30 2132 H 202.736 -3.66125 5.63384 0
M  V30 2133 N 205.456 -1.28612 -0.910864 0
M  V30 2134 C 206.386 -1.15326 -2.03032 0
M  V30 2135 C 207.367 -0.0502924 -1.70026 0
M  V30 2136 O 208.552 -0.227797 -1.92859 0
M  V30 2137 C 205.682 -0.817343 -3.37545 0
M  V30 2138 C 204.636 -1.8754 -3.84724 0
M  V30 2139 C 203.962 -1.39305 -5.16235 0
M  V30 2140 C 205.262 -3.28244 -4.06267 0
M  V30 2141 H 206.956 -2.08975 -2.14406 0
M  V30 2142 H 204.502 -1.00612 -1.03021 0
M  V30 2143 H 206.455 -0.711151 -4.15356 0
M  V30 2144 H 205.179 0.154846 -3.26233 0
M  V30 2145 H 203.838 -1.97079 -3.09121 0
M  V30 2146 H 203.486 -0.409846 -5.01328 0
M  V30 2147 H 203.186 -2.10057 -5.48771 0
M  V30 2148 H 204.71 -1.30014 -5.96598 0
M  V30 2149 H 206.124 -3.21611 -4.74594 0
M  V30 2150 H 204.521 -3.96855 -4.5014 0
M  V30 2151 H 205.591 -3.72048 -3.10979 0
M  V30 2152 N 206.934 1.1197 -1.10907 0
M  V30 2153 C 207.844 2.21433 -0.774896 0
M  V30 2154 C 208.86 1.72478 0.229657 0
M  V30 2155 O 210.036 2.01288 0.0672008 0
M  V30 2156 C 207.101 3.4602 -0.216986 0
M  V30 2157 C 206.162 4.09791 -1.27944 0
M  V30 2158 C 205.395 5.28431 -0.748055 0
M  V30 2159 O 205.618 5.68823 0.423833 0
M  V30 2160 O 204.552 5.82644 -1.51027 0
M  V30 2161 H 208.378 2.5242 -1.68873 0
M  V30 2162 H 205.963 1.20399 -0.884555 0
M  V30 2163 H 207.845 4.21304 0.090059 0
M  V30 2164 H 206.52 3.16698 0.669633 0
M  V30 2165 H 205.427 3.36265 -1.63941 0
M  V30 2166 H 206.76 4.4328 -2.13925 0
M  V30 2167 N 208.412 0.89855 1.29475 0
M  V30 2168 C 209.659 0.523882 1.95606 0
M  V30 2169 C 209.987 -0.929608 1.70847 0
M  V30 2170 O 209.242 -1.67401 1.01367 0
M  V30 2171 C 209.541 0.761398 3.49195 0
M  V30 2172 C 209.207 2.19207 3.94029 0
M  V30 2173 C 207.869 2.58326 4.05982 0
M  V30 2174 C 210.221 3.12379 4.17216 0
M  V30 2175 C 207.549 3.898 4.38489 0
M  V30 2176 C 209.901 4.43401 4.51197 0
M  V30 2177 C 208.565 4.82394 4.61359 0
M  V30 2178 H 207.835 0.191702 0.715773 0
M  V30 2179 H 210.482 1.13699 1.54094 0
M  V30 2180 H 208.787 0.0653622 3.91745 0
M  V30 2181 H 210.484 0.450904 3.98457 0
M  V30 2182 H 207.074 1.87846 3.85242 0
M  V30 2183 H 211.258 2.83371 4.07449 0
M  V30 2184 H 206.514 4.19734 4.44559 0
M  V30 2185 H 210.688 5.15623 4.68087 0
M  V30 2186 H 208.315 5.84306 4.86303 0
M  V30 2187 N 209.89 -1.43072 0.660911 0
M  V30 2188 C 210.822 -2.29108 -0.0647641 0
M  V30 2189 C 211.835 -1.42928 -0.779448 0
M  V30 2190 O 213.024 -1.66788 -0.635921 0
M  V30 2191 C 210.124 -3.20032 -1.11503 0
M  V30 2192 C 209.297 -4.34792 -0.476955 0
M  V30 2193 C 208.356 -5.06534 -1.42513 0
M  V30 2194 O 207.382 -5.61538 -0.930771 0
M  V30 2195 N 208.584 -5.1075 -2.75889 0
M  V30 2196 H 211.349 -2.92029 0.673731 0
M  V30 2197 H 208.91 -1.53846 0.50427 0
M  V30 2198 H 210.902 -3.64892 -1.75032 0
M  V30 2199 H 209.472 -2.58658 -1.75541 0
M  V30 2200 H 208.692 -3.92752 0.337572 0
M  V30 2201 H 209.98 -5.0879 -0.0318525 0
M  V30 2202 H 209.378 -4.67447 -3.18606 0
M  V30 2203 H 207.935 -5.59302 -3.347 0
M  V30 2204 N 211.368 -0.403325 -1.52352 0
M  V30 2205 C 212.278 0.432009 -2.30588 0
M  V30 2206 C 213.294 1.05884 -1.38075 0
M  V30 2207 O 214.47 1.06161 -1.71148 0
M  V30 2208 C 211.535 1.53669 -3.10784 0
M  V30 2209 C 210.596 0.933525 -4.19027 0
M  V30 2210 C 209.829 1.98557 -4.9539 0
M  V30 2211 O 210.052 3.20283 -4.71991 0
M  V30 2212 O 208.986 1.59504 -5.80381 0
M  V30 2213 H 212.812 -0.205739 -3.03002 0
M  V30 2214 H 210.397 -0.166675 -1.48467 0
M  V30 2215 H 212.279 2.17814 -3.60742 0
M  V30 2216 H 210.954 2.15915 -2.41169 0
M  V30 2217 H 209.861 0.254954 -3.7323 0
M  V30 2218 H 211.194 0.35508 -4.90918 0
M  V30 2219 N 212.846 1.57033 -0.133567 0
M  V30 2220 C 214.094 1.953 0.519848 0
M  V30 2221 C 214.415 1.01866 1.66278 0
M  V30 2222 O 213.685 0.0776513 1.95746 0
M  V30 2223 H 212.265 0.721091 0.195032 0
M  V30 2224 H 214.927 1.93809 -0.205921 0
M  V30 2225 H 214.023 2.98695 0.904854 0
M  V30 2226 N 214.325 -0.140222 1.56975 0
M  V30 2227 C 215.235 -1.19223 2.02047 0
M  V30 2228 C 216.251 -1.46612 0.937062 0
M  V30 2229 O 217.427 -1.58148 1.24704 0
M  V30 2230 C 214.492 -2.50414 2.39778 0
M  V30 2231 C 213.553 -2.30612 3.621 0
M  V30 2232 C 212.786 -3.55547 3.98023 0
M  V30 2233 O 213.009 -4.62004 3.34528 0
M  V30 2234 O 211.943 -3.47808 4.91237 0
M  V30 2235 H 215.769 -0.839559 2.91865 0
M  V30 2236 H 213.354 -0.349453 1.45256 0
M  V30 2237 H 215.236 -3.27747 2.64877 0
M  V30 2238 H 213.911 -2.85198 1.53114 0
M  V30 2239 H 212.818 -1.51207 3.4218 0
M  V30 2240 H 214.151 -2.00741 4.49404 0
M  V30 2241 N 215.803 -1.52179 -0.40978 0
M  V30 2242 C 217.031 -1.70054 -1.17853 0
M  V30 2243 C 217.446 -0.409735 -1.843 0
M  V30 2244 O 216.803 0.614183 -1.71855 0
M  V30 2245 C 216.854 -2.83568 -2.24213 0
M  V30 2246 O 216.575 -4.0765 -1.60478 0
M  V30 2247 C 218.076 -3.12947 -3.13973 0
M  V30 2248 H 215.296 -0.569917 -0.354169 0
M  V30 2249 H 217.84 -1.98734 -0.482198 0
M  V30 2250 H 215.995 -2.57409 -2.89516 0
M  V30 2251 H 216.409 -4.70899 -2.30986 0
M  V30 2252 H 217.883 -3.95889 -3.84677 0
M  V30 2253 H 218.36 -2.26472 -3.76307 0
M  V30 2254 H 218.966 -3.40868 -2.5434 0
M  V30 2255 N 217.281 0.66697 -1.42791 0
M  V30 2256 C 218.53 1.42278 -1.42968 0
M  V30 2257 C 218.843 1.9553 -0.0524489 0
M  V30 2258 O 220.049 2.71414 0.068363 0
M  V30 2259 C 218.505 2.57418 -2.51524 0
M  V30 2260 C 218.113 2.10832 -3.9529 0
M  V30 2261 C 219.857 3.34878 -2.60877 0
M  V30 2262 C 217.764 3.23101 -4.95338 0
M  V30 2263 H 216.694 0.534533 -0.531781 0
M  V30 2264 H 219.345 0.721302 -1.68729 0
M  V30 2265 H 217.727 3.29971 -2.18941 0
M  V30 2266 H 218.901 1.4538 -4.37266 0
M  V30 2267 H 217.216 1.46289 -3.89857 0
M  V30 2268 H 219.813 4.18505 -3.32802 0
M  V30 2269 H 220.156 3.81993 -1.6549 0
M  V30 2270 H 220.689 2.69398 -2.92693 0
M  V30 2271 H 217.428 2.80969 -5.9223 0
M  V30 2272 H 216.948 3.87309 -4.57987 0
M  V30 2273 H 218.627 3.88447 -5.17415 0
M  V30 2274 N 218.759 1.29093 0.90403 0
M  V30 2275 C 220.005 1.16986 1.65656 0
M  V30 2276 C 220.338 -0.278925 1.92186 0
M  V30 2277 O 219.613 -1.2019 1.5292 0
M  V30 2278 C 219.896 1.97908 3.0084 0
M  V30 2279 C 219.749 3.50903 2.81403 0
M  V30 2280 C 221.068 1.80208 4.01513 0
M  V30 2281 H 218.187 0.426346 0.601164 0
M  V30 2282 H 220.829 1.58518 1.04747 0
M  V30 2283 H 218.979 1.62616 3.52829 0
M  V30 2284 H 220.651 3.96153 2.36348 0
M  V30 2285 H 218.894 3.76045 2.1627 0
M  V30 2286 H 219.565 4.02791 3.77443 0
M  V30 2287 H 222.041 2.11025 3.58619 0
M  V30 2288 H 220.917 2.39184 4.94047 0
M  V30 2289 H 221.178 0.756119 4.35586 0
M  V30 2290 N 220.237 -1.11381 1.11499 0
M  V30 2291 C 221.167 -2.19509 0.796125 0
M  V30 2292 C 222.148 -1.68458 -0.235796 0
M  V30 2293 O 223.333 -1.93947 -0.0991344 0
M  V30 2294 C 220.463 -3.46475 0.239205 0
M  V30 2295 C 219.417 -4.10744 1.20307 0
M  V30 2296 C 218.743 -5.32293 0.50683 0
M  V30 2297 C 220.043 -4.55597 2.55399 0
M  V30 2298 H 221.737 -2.46439 1.70024 0
M  V30 2299 H 219.283 -1.18446 0.818935 0
M  V30 2300 H 221.236 -4.214 0.00392006 0
M  V30 2301 H 219.96 -3.19006 -0.700206 0
M  V30 2302 H 218.619 -3.37813 1.42399 0
M  V30 2303 H 218.267 -5.01095 -0.437408 0
M  V30 2304 H 217.967 -5.76243 1.1497 0
M  V30 2305 H 219.491 -6.09956 0.280351 0
M  V30 2306 H 220.905 -5.21841 2.37391 0
M  V30 2307 H 219.302 -5.10363 3.15673 0
M  V30 2308 H 220.372 -3.69013 3.14575 0
M  V30 2309 N 221.715 -0.905404 -1.28997 0
M  V30 2310 C 223.131 -0.60233 -1.47798 0
M  V30 2311 C 223.331 0.854645 -1.82478 0
M  V30 2312 O 222.387 1.63439 -1.92468 0
M  V30 2313 C 223.7 -1.53306 -2.58685 0
M  V30 2314 C 225.248 -1.53887 -2.72558 0
M  V30 2315 C 225.723 -2.45602 -3.86579 0
M  V30 2316 N 227.214 -2.43681 -3.93921 0
M  V30 2317 C 227.949 -3.11347 -4.81509 0
M  V30 2318 N 227.445 -3.88313 -5.73746 0
M  V30 2319 N 229.238 -3.00476 -4.75048 0
M  V30 2320 H 221.389 -1.84765 -1.04764 0
M  V30 2321 H 223.652 -0.792025 -0.520961 0
M  V30 2322 H 223.358 -2.57141 -2.39941 0
M  V30 2323 H 223.232 -1.25787 -3.55609 0
M  V30 2324 H 225.619 -0.507941 -2.90696 0
M  V30 2325 H 225.7 -1.85447 -1.76191 0
M  V30 2326 H 225.344 -3.48792 -3.69197 0
M  V30 2327 H 225.274 -2.11349 -4.82327 0
M  V30 2328 H 227.765 -1.87767 -3.27951 0
M  V30 2329 H 228.078 -4.36985 -6.37389 0
M  V30 2330 H 226.423 -3.92419 -5.73614 0
M  V30 2331 H 229.614 -2.39858 -4.01977 0
M  V30 2332 H 229.787 -3.53485 -5.43095 0
M  V30 2333 N 223.193 1.4272 -0.668489 0
M  V30 2334 C 224.433 2.03497 -0.19194 0
M  V30 2335 C 224.797 1.51684 1.17712 0
M  V30 2336 O 225.998 2.04205 1.74796 0
M  V30 2337 C 224.269 3.56734 -0.218032 0
M  V30 2338 S 225.828 4.38395 0.188438 0
M  V30 2339 H 222.646 0.706542 -0.0794959 0
M  V30 2340 H 225.248 1.74563 -0.880235 0
M  V30 2341 H 223.952 3.91943 -1.2169 0
M  V30 2342 H 223.483 3.90333 0.490303 0
M  V30 2343 H 225.498 4.75345 1.42345 0
M  V30 2344 N 224.671 0.411399 1.52136 0
M  V30 2345 C 225.621 -0.430376 2.23901 0
M  V30 2346 C 226.605 -1.0116 1.25121 0
M  V30 2347 O 227.797 -0.934044 1.50348 0
M  V30 2348 C 224.926 -1.54527 3.06556 0
M  V30 2349 C 224.012 -0.9747 4.12747 0
M  V30 2350 N 224.403 -0.130991 5.0563 0
M  V30 2351 C 222.701 -1.24497 4.28271 0
M  V30 2352 C 223.402 0.186689 5.814 0
M  V30 2353 N 222.378 -0.42304 5.41951 0
M  V30 2354 H 226.18 0.220509 2.93072 0
M  V30 2355 H 223.694 0.221952 1.60876 0
M  V30 2356 H 225.691 -2.16093 3.56524 0
M  V30 2357 H 224.351 -2.19875 2.38925 0
M  V30 2358 H 225.362 0.23349 5.17373 0
M  V30 2359 H 222.039 -1.89787 3.7187 0
M  V30 2360 H 223.429 0.871673 6.66222 0
M  V30 2361 N 226.149 -1.5696 0.141893 0
M  V30 2362 C 227.374 -2.00754 -0.520838 0
M  V30 2363 C 227.799 -1.0213 -1.57959 0
M  V30 2364 O 227.157 0.00371324 -1.813 0
M  V30 2365 C 227.205 -3.43318 -1.10294 0
M  V30 2366 O 226.309 -3.47679 -2.21795 0
M  V30 2367 H 225.65 -0.651564 -0.127908 0
M  V30 2368 H 228.18 -2.03221 0.23712 0
M  V30 2369 H 228.19 -3.82012 -1.43287 0
M  V30 2370 H 226.865 -4.14608 -0.327574 0
M  V30 2371 H 225.442 -3.20824 -1.9007 0
M  V30 2372 N 227.627 0.131896 -1.57047 0
M  V30 2373 C 228.873 0.838268 -1.85323 0
M  V30 2374 C 229.228 1.78098 -0.727937 0
M  V30 2375 O 228.521 1.89645 0.27304 0
M  V30 2376 C 228.715 1.63703 -3.17704 0
M  V30 2377 C 228.544 0.773167 -4.43004 0
M  V30 2378 C 227.314 0.432956 -5.03442 0
M  V30 2379 C 229.512 0.0966216 -5.14209 0
M  V30 2380 N 227.494 -0.442924 -6.123 0
M  V30 2381 C 228.865 -0.638778 -6.16701 0
M  V30 2382 C 230.92 0.018861 -4.97896 0
M  V30 2383 C 229.623 -1.44462 -7.04644 0
M  V30 2384 C 231.649 -0.773762 -5.86316 0
M  V30 2385 C 231.011 -1.4974 -6.883 0
M  V30 2386 H 227.11 0.284086 -0.728573 0
M  V30 2387 H 229.694 0.102731 -1.94429 0
M  V30 2388 H 227.865 2.3437 -3.09718 0
M  V30 2389 H 229.597 2.28774 -3.33833 0
M  V30 2390 H 226.352 0.772237 -4.67262 0
M  V30 2391 H 226.776 -0.872332 -6.71356 0
M  V30 2392 H 231.418 0.56397 -4.19022 0
M  V30 2393 H 229.136 -2.00093 -7.82936 0
M  V30 2394 H 232.722 -0.83612 -5.75761 0
M  V30 2395 H 231.602 -2.10087 -7.55535 0
M  V30 2396 N 229.106 1.52395 0.401703 0
M  V30 2397 C 230.053 1.76268 1.48991 0
M  V30 2398 C 231.023 0.605386 1.54675 0
M  V30 2399 O 232.208 0.843742 1.7113 0
M  V30 2400 C 229.348 1.92592 2.86361 0
M  V30 2401 C 228.461 3.20259 2.89928 0
M  V30 2402 C 227.596 3.26972 4.18644 0
M  V30 2403 C 226.635 4.48812 4.16214 0
M  V30 2404 N 225.772 4.52877 5.36514 0
M  V30 2405 H 230.612 2.6914 1.27935 0
M  V30 2406 H 228.149 1.33355 0.620871 0
M  V30 2407 H 230.107 2.0004 3.66115 0
M  V30 2408 H 228.737 1.03093 3.05895 0
M  V30 2409 H 227.789 3.21945 2.02621 0
M  V30 2410 H 229.101 4.10056 2.83999 0
M  V30 2411 H 228.255 3.33533 5.06794 0
M  V30 2412 H 226.994 2.35126 4.27278 0
M  V30 2413 H 225.999 4.4239 3.26453 0
M  V30 2414 H 227.224 5.41961 4.09213 0
M  V30 2415 H 225.17 3.63917 5.45802 0
M  V30 2416 H 225.087 5.36529 5.32609 0
M  V30 2417 H 226.355 4.63676 6.26597 0
M  V30 2418 N 230.584 -0.659388 1.43143 0
M  V30 2419 C 231.861 -1.41627 1.34912 0
M  V30 2420 C 232.241 -2.11099 -0.00607785 0
M  V30 2421 O 231.589 -2.04353 -1.02236 0
M  V30 2422 C 231.799 -2.40604 2.52805 0
M  V30 2423 C 233.147 -3.04789 2.95616 0
M  V30 2424 O 234.171 -2.50932 2.52807 0
M  V30 2425 O 233.03 -4.02421 3.69756 0
M  V30 2426 H 230.124 -0.63246 0.532844 0
M  V30 2427 H 232.67 -0.686814 1.5518 0
M  V30 2428 H 231.442 -1.88174 3.43083 0
M  V30 2429 H 231.065 -3.21009 2.34604 0
M  V30 2430 N 232.062 -1.29571 -0.897171 0
M  V30 2431 C 233.009 -1.14916 -2.00158 0
M  V30 2432 C 233.979 -0.0418149 -1.66047 0
M  V30 2433 O 235.164 -0.209793 -1.89643 0
M  V30 2434 C 232.304 -0.834307 -3.34863 0
M  V30 2435 C 231.417 -2.02234 -3.8174 0
M  V30 2436 C 230.552 -1.64664 -5.05034 0
M  V30 2437 C 229.591 -2.80033 -5.44286 0
M  V30 2438 N 228.728 -2.42843 -6.58765 0
M  V30 2439 H 233.568 -2.09403 -2.12025 0
M  V30 2440 H 231.105 -1.042 -1.0383 0
M  V30 2441 H 233.063 -0.632436 -4.12379 0
M  V30 2442 H 231.693 0.0736656 -3.22716 0
M  V30 2443 H 230.745 -2.33583 -3.00238 0
M  V30 2444 H 232.057 -2.88673 -4.06779 0
M  V30 2445 H 231.211 -1.4078 -5.9014 0
M  V30 2446 H 229.95 -0.753766 -4.8184 0
M  V30 2447 H 228.955 -3.04596 -4.57713 0
M  V30 2448 H 230.18 -3.69989 -5.6946 0
M  V30 2449 H 228.126 -1.56046 -6.3717 0
M  V30 2450 H 228.043 -3.22815 -6.83613 0
M  V30 2451 H 229.311 -2.22285 -7.47134 0
M  V30 2452 N 233.54 1.10788 -1.12088 0
M  V30 2453 C 234.951 1.64181 -0.88891 0
M  V30 2454 C 235.302 1.87508 0.577498 0
M  V30 2455 O 234.427 1.61434 1.44112 0
M  V30 2456 C 235.022 2.98257 -1.60712 0
M  V30 2457 C 233.581 3.4853 -1.42139 0
M  V30 2458 C 232.728 2.23208 -1.6454 0
M  V30 2459 H 235.679 0.943368 -1.27618 0
M  V30 2460 H 235.7 3.65552 -1.05604 0
M  V30 2461 H 235.212 2.81246 -2.67436 0
M  V30 2462 H 233.313 3.70692 -0.376552 0
M  V30 2463 H 233.426 4.26882 -2.17505 0
M  V30 2464 H 231.79 2.31169 -1.06925 0
M  V30 2465 H 232.573 2.08733 -2.72554 0
M  V30 2466 N 235.018 0.912232 1.28515 0
M  V30 2467 C 235.948 0.416403 2.29757 0
M  V30 2468 C 236.929 -0.515194 1.6211 0
M  V30 2469 O 238.114 -0.423253 1.89532 0
M  V30 2470 C 235.244 -0.34572 3.45575 0
M  V30 2471 C 234.198 0.496599 4.25109 0
M  V30 2472 C 233.524 -0.393771 5.33248 0
M  V30 2473 C 234.824 1.75307 4.92001 0
M  V30 2474 H 236.518 1.26249 2.7148 0
M  V30 2475 H 234.064 0.608515 1.30511 0
M  V30 2476 H 236.017 -0.703422 4.15488 0
M  V30 2477 H 234.741 -1.2257 3.02728 0
M  V30 2478 H 233.4 0.8368 3.56922 0
M  V30 2479 H 233.048 -1.27225 4.86644 0
M  V30 2480 H 232.748 0.166209 5.87365 0
M  V30 2481 H 234.272 -0.747389 6.06009 0
M  V30 2482 H 235.686 1.46437 5.54283 0
M  V30 2483 H 234.083 2.25534 5.56106 0
M  V30 2484 H 235.153 2.48176 4.16577 0
M  V30 2485 N 236.496 -1.42363 0.676048 0
M  V30 2486 C 237.742 -2.0182 0.199125 0
M  V30 2487 C 238.075 -1.53339 -1.19168 0
M  V30 2488 O 237.35 -0.736124 -1.80032 0
M  V30 2489 C 237.633 -3.59331 0.235144 0
M  V30 2490 C 237.486 -4.17989 1.66149 0
M  V30 2491 C 238.805 -4.3813 -0.41595 0
M  V30 2492 H 235.924 -0.733293 0.0738311 0
M  V30 2493 H 238.566 -1.69368 0.86107 0
M  V30 2494 H 236.716 -3.87109 -0.328487 0
M  V30 2495 H 238.388 -4.0116 2.27747 0
M  V30 2496 H 236.631 -3.7377 2.20178 0
M  V30 2497 H 237.302 -5.27126 1.63837 0
M  V30 2498 H 239.778 -4.16051 0.0638529 0
M  V30 2499 H 238.654 -5.47717 -0.360115 0
M  V30 2500 H 238.915 -4.16101 -1.49373 0
M  V30 2501 N 237.974 -0.419461 -1.51915 0
M  V30 2502 C 238.921 0.400927 -2.27291 0
M  V30 2503 C 239.891 1.03224 -1.30131 0
M  V30 2504 O 241.076 1.05455 -1.59009 0
M  V30 2505 C 238.216 1.50603 -3.10504 0
M  V30 2506 C 237.329 0.89462 -4.22635 0
M  V30 2507 C 236.464 1.97328 -4.93189 0
M  V30 2508 C 235.503 1.33935 -5.97267 0
M  V30 2509 N 234.64 2.3586 -6.61298 0
M  V30 2510 H 239.48 -0.248251 -2.96964 0
M  V30 2511 H 237.017 -0.134266 -1.46486 0
M  V30 2512 H 238.975 2.15783 -3.57062 0
M  V30 2513 H 237.605 2.12509 -2.42981 0
M  V30 2514 H 236.657 0.131583 -3.80172 0
M  V30 2515 H 237.969 0.391641 -4.9726 0
M  V30 2516 H 237.123 2.70211 -5.43204 0
M  V30 2517 H 235.862 2.50994 -4.18155 0
M  V30 2518 H 234.867 0.595896 -5.46561 0
M  V30 2519 H 236.092 0.810252 -6.74249 0
M  V30 2520 H 234.038 2.88639 -5.89087 0
M  V30 2521 H 233.955 1.90403 -7.3163 0
M  V30 2522 H 235.223 3.08282 -7.15949 0
M  V30 2523 N 239.452 1.56882 -0.150215 0
M  V30 2524 C 240.698 1.96518 0.500834 0
M  V30 2525 C 241.031 1.03527 1.64304 0
M  V30 2526 O 240.306 0.0782751 1.94342 0
M  V30 2527 C 240.589 3.45822 1.00395 0
M  V30 2528 C 240.442 4.49591 -0.136983 0
M  V30 2529 C 241.761 3.97704 1.88467 0
M  V30 2530 H 238.88 0.714535 0.18058 0
M  V30 2531 H 241.522 1.88577 -0.232091 0
M  V30 2532 H 239.672 3.5272 1.62851 0
M  V30 2533 H 241.344 4.5477 -0.77343 0
M  V30 2534 H 239.587 4.26441 -0.795652 0
M  V30 2535 H 240.258 5.51402 0.256815 0
M  V30 2536 H 242.734 3.93304 1.35834 0
M  V30 2537 H 241.61 5.0263 2.20578 0
M  V30 2538 H 241.871 3.40252 2.82279 0
M  V30 2539 N 240.93 -0.123565 1.57115 0
M  V30 2540 C 242.158 -0.846461 1.88793 0
M  V30 2541 C 242.573 -1.73652 0.740976 0
M  V30 2542 O 241.93 -1.80207 -0.288393 0
M  V30 2543 C 241.981 -1.6837 3.19897 0
M  V30 2544 O 241.702 -0.829477 4.30176 0
M  V30 2545 C 243.203 -2.51214 3.65248 0
M  V30 2546 H 240.423 -0.243573 0.625231 0
M  V30 2547 H 242.967 -0.109324 2.04208 0
M  V30 2548 H 241.122 -2.37364 3.06165 0
M  V30 2549 H 241.536 -1.40651 5.0529 0
M  V30 2550 H 243.01 -3.05497 4.59756 0
M  V30 2551 H 243.487 -3.28359 2.9168 0
M  V30 2552 H 244.093 -1.8747 3.81752 0
M  V30 2553 N 242.408 -1.52605 -0.393616 0
M  V30 2554 C 243.655 -1.67424 -1.1391 0
M  V30 2555 C 243.983 -0.411859 -1.90089 0
M  V30 2556 O 243.238 0.605626 -1.86093 0
M  V30 2557 C 243.537 -2.85721 -2.14705 0
M  V30 2558 C 243.203 -4.23342 -1.55218 0
M  V30 2559 C 241.865 -4.60771 -1.3872 0
M  V30 2560 C 244.217 -5.09041 -1.11924 0
M  V30 2561 C 241.545 -5.81563 -0.774689 0
M  V30 2562 C 243.897 -6.30452 -0.520853 0
M  V30 2563 C 242.561 -6.66617 -0.343134 0
M  V30 2564 H 241.831 -0.612648 -0.416826 0
M  V30 2565 H 244.478 -1.8674 -0.424315 0
M  V30 2566 H 242.783 -2.60803 -2.92385 0
M  V30 2567 H 244.48 -2.94382 -2.72288 0
M  V30 2568 H 241.07 -3.93855 -1.69045 0
M  V30 2569 H 245.254 -4.80695 -1.23473 0
M  V30 2570 H 240.51 -6.08196 -0.625154 0
M  V30 2571 H 244.684 -6.96175 -0.177065 0
M  V30 2572 H 242.311 -7.60083 0.133571 0
M  V30 2573 N 243.887 0.651787 -1.4349 0
M  V30 2574 C 245.134 1.41167 -1.45183 0
M  V30 2575 C 245.462 1.94349 -0.0766601 0
M  V30 2576 O 244.717 1.72804 0.918555 0
M  V30 2577 C 245.016 2.60914 -2.44251 0
M  V30 2578 C 244.682 2.26142 -3.9009 0
M  V30 2579 C 243.344 2.16371 -4.2981 0
M  V30 2580 C 245.696 1.98334 -4.81989 0
M  V30 2581 C 243.024 1.7695 -5.5938 0
M  V30 2582 C 245.376 1.6041 -6.11924 0
M  V30 2583 C 244.04 1.49166 -6.5062 0
M  V30 2584 H 243.31 0.516566 -0.531263 0
M  V30 2585 H 245.957 0.741099 -1.76579 0
M  V30 2586 H 244.262 3.3311 -2.06265 0
M  V30 2587 H 245.959 3.19127 -2.42815 0
M  V30 2588 H 242.549 2.34658 -3.58655 0
M  V30 2589 H 246.733 2.04803 -4.52072 0
M  V30 2590 H 241.989 1.66831 -5.88198 0
M  V30 2591 H 246.163 1.37925 -6.82605 0
M  V30 2592 H 243.79 1.1839 -7.50925 0
M  V30 2593 N 245.365 1.30045 0.890287 0
M  V30 2594 C 246.297 1.11786 2.00091 0
M  V30 2595 C 247.31 0.0626307 1.62679 0
M  V30 2596 O 248.499 0.308112 1.75821 0
M  V30 2597 C 245.599 0.681527 3.31977 0
M  V30 2598 C 244.772 1.81735 3.97858 0
M  V30 2599 C 243.831 1.37045 5.08041 0
M  V30 2600 O 242.857 2.07677 5.29961 0
M  V30 2601 N 244.059 0.246525 5.79976 0
M  V30 2602 H 246.824 2.07441 2.16306 0
M  V30 2603 H 244.385 1.2211 1.06305 0
M  V30 2604 H 246.377 0.365675 4.03045 0
M  V30 2605 H 244.947 -0.182828 3.12065 0
M  V30 2606 H 244.167 2.30159 3.20032 0
M  V30 2607 H 245.455 2.57865 4.38615 0
M  V30 2608 H 244.853 -0.34215 5.64664 0
M  V30 2609 H 243.41 -0.00990438 6.51799 0
M  V30 2610 N 246.843 -1.10192 1.12674 0
M  V30 2611 C 247.791 -2.18694 0.792196 0
M  V30 2612 C 248.785 -1.67938 -0.222058 0
M  V30 2613 O 249.991 -1.79822 -0.0800074 0
M  V30 2614 H 246.366 -0.713223 0.238364 0
M  V30 2615 H 248.337 -2.44149 1.71564 0
M  V30 2616 C 247.086 -3.46682 0.265859 0
M  V30 2617 H 246.409 -3.86101 1.03761 0
M  V30 2618 H 247.849 -4.23942 0.0701128 0
M  V30 2619 C 246.308 -3.21506 -1.00675 0
M  V30 2620 O 246.838 -3.43408 -2.08408 0
M  V30 2621 N 245.044 -2.75158 -0.934692 0
M  V30 2622 H 244.591 -2.57535 -0.0578604 0
M  V30 2623 H 244.549 -2.58691 -1.7868 0
M  V30 2624 N 248.321 -0.919034 -1.28029 0
M  V30 2625 C 249.569 -0.553838 -1.94363 0
M  V30 2626 C 249.89 0.906357 -1.72656 0
M  V30 2627 O 249.16 1.64143 -1.0693 0
M  V30 2628 H 247.74 -0.201834 -0.719216 0
M  V30 2629 H 250.402 -1.16954 -1.55909 0
M  V30 2630 H 249.498 -0.752758 -3.02886 0
M  V30 2631 N 249.799 1.42003 -0.683588 0
M  V30 2632 C 250.746 2.30798 -0.0107309 0
M  V30 2633 C 251.716 1.4645 0.783688 0
M  V30 2634 O 252.901 1.75263 0.754156 0
M  V30 2635 C 250.041 3.3238 0.928306 0
M  V30 2636 C 249.154 4.31814 0.126776 0
M  V30 2637 C 248.289 5.20468 1.06236 0
M  V30 2638 C 247.328 6.11577 0.253035 0
M  V30 2639 N 246.465 6.92754 1.14179 0
M  V30 2640 H 251.305 2.8778 -0.773727 0
M  V30 2641 H 248.842 1.41745 -0.393283 0
M  V30 2642 H 250.8 3.89813 1.48666 0
M  V30 2643 H 249.43 2.76976 1.65783 0
M  V30 2644 H 248.482 3.76427 -0.54833 0
M  V30 2645 H 249.794 4.96276 -0.501192 0
M  V30 2646 H 248.948 5.82677 1.69035 0
M  V30 2647 H 247.687 4.56204 1.7242 0
M  V30 2648 H 246.692 5.48428 -0.388108 0
M  V30 2649 H 247.917 6.77892 -0.404839 0
M  V30 2650 H 245.863 6.3111 1.78987 0
M  V30 2651 H 245.78 7.53855 0.569111 0
M  V30 2652 H 247.048 7.59441 1.75697 0
M  V30 2653 N 251.277 0.427512 1.51691 0
M  V30 2654 C 252.502 -0.143601 2.06902 0
M  V30 2655 C 252.927 -1.36536 1.29382 0
M  V30 2656 O 252.285 -1.78289 0.329043 0
M  V30 2657 C 252.333 -0.454207 3.57728 0
M  V30 2658 O 251.437 -1.54228 3.82475 0
M  V30 2659 H 250.778 -0.00617128 0.663971 0
M  V30 2660 H 253.308 0.606014 1.95419 0
M  V30 2661 H 253.318 -0.707525 4.01818 0
M  V30 2662 H 251.993 0.438812 4.13579 0
M  V30 2663 H 250.57 -1.2797 3.50254 0
M  V30 2664 N 252.755 -1.56801 0.158532 0
M  V30 2665 C 253.702 -2.17337 -0.776729 0
M  V30 2666 C 254.672 -1.1096 -1.23601 0
M  V30 2667 O 255.857 -1.39054 -1.30647 0
M  V30 2668 C 252.997 -2.80822 -2.00582 0
M  V30 2669 C 252.11 -4.01624 -1.59129 0
M  V30 2670 C 251.245 -4.53072 -2.77306 0
M  V30 2671 C 250.284 -5.66314 -2.32282 0
M  V30 2672 N 249.421 -6.12329 -3.43508 0
M  V30 2673 H 254.261 -2.96918 -0.253701 0
M  V30 2674 H 251.798 -1.46661 -0.113504 0
M  V30 2675 H 253.756 -3.15779 -2.72652 0
M  V30 2676 H 252.386 -2.03866 -2.50277 0
M  V30 2677 H 251.438 -3.72571 -0.767806 0
M  V30 2678 H 252.75 -4.83633 -1.2207 0
M  V30 2679 H 251.904 -4.90145 -3.57551 0
M  V30 2680 H 250.643 -3.70095 -3.17617 0
M  V30 2681 H 249.648 -5.28806 -1.5048 0
M  V30 2682 H 250.873 -6.51085 -1.93043 0
M  V30 2683 H 248.819 -5.32284 -3.83418 0
M  V30 2684 H 248.736 -6.89293 -3.105 0
M  V30 2685 H 250.004 -6.5405 -4.24075 0
M  V30 2686 N 254.233 0.115231 -1.57178 0
M  V30 2687 C 255.18 1.14115 -2.00615 0
M  V30 2688 C 256.15 1.40939 -0.878941 0
M  V30 2689 O 257.335 1.52741 -1.14345 0
M  V30 2690 C 254.475 2.46156 -2.4187 0
M  V30 2691 C 253.588 2.26236 -3.68024 0
M  V30 2692 C 252.723 3.51534 -3.98243 0
M  V30 2693 C 251.762 3.26787 -5.17568 0
M  V30 2694 N 250.899 4.44298 -5.43639 0
M  V30 2695 H 255.739 0.763743 -2.88047 0
M  V30 2696 H 253.276 0.365615 -1.42484 0
M  V30 2697 H 255.234 3.23189 -2.63827 0
M  V30 2698 H 253.864 2.81783 -1.57475 0
M  V30 2699 H 252.916 1.40102 -3.5366 0
M  V30 2700 H 254.228 2.03929 -4.55208 0
M  V30 2701 H 253.382 4.36984 -4.20868 0
M  V30 2702 H 252.121 3.76876 -3.09541 0
M  V30 2703 H 251.126 2.39729 -4.94783 0
M  V30 2704 H 252.351 3.02812 -6.0785 0
M  V30 2705 H 250.297 4.69754 -4.57895 0
M  V30 2706 H 250.214 4.25109 -6.25154 0
M  V30 2707 H 251.482 5.3087 -5.70786 0
M  V30 2708 N 255.711 1.52812 0.385517 0
M  V30 2709 C 256.958 1.68026 1.1302 0
M  V30 2710 C 257.286 0.421934 1.89868 0
M  V30 2711 O 256.541 -0.595749 1.86412 0
M  V30 2712 C 256.84 2.86856 2.13187 0
M  V30 2713 C 256.506 4.24159 1.5297 0
M  V30 2714 C 255.168 4.61501 1.36274 0
M  V30 2715 C 257.52 5.09627 1.09223 0
M  V30 2716 C 254.848 5.81966 0.743837 0
M  V30 2717 C 257.2 6.30719 0.487411 0
M  V30 2718 C 255.864 6.6679 0.307777 0
M  V30 2719 H 255.134 0.614849 0.413571 0
M  V30 2720 H 257.781 1.86962 0.414405 0
M  V30 2721 H 256.086 2.6235 2.90998 0
M  V30 2722 H 257.783 2.95821 2.70722 0
M  V30 2723 H 254.373 3.94746 1.66954 0
M  V30 2724 H 258.557 4.81343 1.20922 0
M  V30 2725 H 253.813 6.08519 0.592891 0
M  V30 2726 H 257.987 6.96259 0.140143 0
M  V30 2727 H 255.614 7.60001 -0.173879 0
M  V30 2728 N 257.189 -0.644168 1.43834 0
M  V30 2729 C 258.414 -1.43642 1.49605 0
M  V30 2730 C 258.839 -1.8773 0.117913 0
M  V30 2731 O 258.197 -1.57938 -0.890239 0
M  V30 2732 C 258.245 -2.6416 2.45463 0
M  V30 2733 O 257.349 -3.63538 1.94714 0
M  V30 2734 H 256.69 -0.430329 0.50568 0
M  V30 2735 H 259.22 -0.787448 1.8884 0
M  V30 2736 H 259.23 -3.11864 2.63068 0
M  V30 2737 H 257.905 -2.31414 3.45572 0
M  V30 2738 H 256.482 -3.2273 1.86814 0
M  V30 2739 N 258.668 -1.30515 -0.883378 0
M  V30 2740 C 260.084 -1.08881 -1.16692 0
M  V30 2741 C 260.284 0.149409 -2.00945 0
M  V30 2742 O 259.34 0.84257 -2.38027 0
M  V30 2743 C 260.653 -2.35319 -1.87204 0
M  V30 2744 C 262.201 -2.40799 -1.99962 0
M  V30 2745 C 262.676 -3.67083 -2.73887 0
M  V30 2746 N 264.167 -3.679 -2.81432 0
M  V30 2747 C 264.902 -4.62303 -3.3921 0
M  V30 2748 N 264.398 -5.67052 -3.98025 0
M  V30 2749 N 266.191 -4.49845 -3.3704 0
M  V30 2750 H 258.342 -2.09951 -0.321633 0
M  V30 2751 H 260.605 -0.92556 -0.205043 0
M  V30 2752 H 260.311 -3.25689 -1.3274 0
M  V30 2753 H 260.185 -2.44089 -2.87577 0
M  V30 2754 H 262.572 -1.50907 -2.53597 0
M  V30 2755 H 262.653 -2.36003 -0.98673 0
M  V30 2756 H 262.297 -4.57334 -2.20925 0
M  V30 2757 H 262.227 -3.69141 -3.75556 0
M  V30 2758 H 264.718 -2.92171 -2.39676 0
M  V30 2759 H 265.031 -6.35184 -4.40183 0
M  V30 2760 H 263.376 -5.70842 -3.96439 0
M  V30 2761 H 266.567 -3.67194 -2.90321 0
M  V30 2762 H 266.74 -5.23597 -3.81772 0
M  V30 2763 N 260.146 1.09593 -1.13257 0
M  V30 2764 C 261.371 1.8604 -0.916732 0
M  V30 2765 C 261.796 1.80504 0.529146 0
M  V30 2766 O 261.154 1.18127 1.37534 0
M  V30 2767 C 261.202 3.32017 -1.40703 0
M  V30 2768 O 260.306 4.08141 -0.591153 0
M  V30 2769 H 259.647 0.576943 -0.328683 0
M  V30 2770 H 262.177 1.38405 -1.50682 0
M  V30 2771 H 262.187 3.82865 -1.4099 0
M  V30 2772 H 260.862 3.35361 -2.45979 0
M  V30 2773 H 259.439 3.67084 -0.656005 0
M  V30 2774 N 261.624 0.925811 1.2754 0
M  V30 2775 C 262.901 0.483726 1.89524 0
M  V30 2776 C 263.281 -1.03809 1.83812 0
M  V30 2777 O 262.629 -1.89143 1.28207 0
M  V30 2778 C 262.839 1.02769 3.33526 0
M  V30 2779 C 264.187 1.08703 4.10449 0
M  V30 2780 O 265.211 0.977175 3.42534 0
M  V30 2781 O 264.07 1.25599 5.31871 0
M  V30 2782 H 261.164 0.15529 0.812289 0
M  V30 2783 H 263.71 1.01738 1.35822 0
M  V30 2784 H 262.482 2.07155 3.31967 0
M  V30 2785 H 262.105 0.475567 3.94746 0
M  V30 2786 N 263.102 -1.41638 0.69111 0
M  V30 2787 C 264.513 -1.84346 0.295517 0
M  V30 2788 C 264.864 -1.57833 -1.16547 0
M  V30 2789 O 263.989 -1.04648 -1.89414 0
M  V30 2790 C 264.584 -3.34636 0.529575 0
M  V30 2791 C 263.143 -3.7593 0.187944 0
M  V30 2792 C 262.29 -2.65082 0.814052 0
M  V30 2793 H 265.241 -1.31253 0.892092 0
M  V30 2794 H 265.262 -3.79903 -0.213148 0
M  V30 2795 H 264.774 -3.53901 1.59297 0
M  V30 2796 H 262.875 -3.62268 -0.871367 0
M  V30 2797 H 262.988 -4.74808 0.63985 0
M  V30 2798 H 261.352 -2.53528 0.244017 0
M  V30 2799 H 262.135 -2.87167 1.88123 0
M  V30 2800 N 264.58 -0.43555 -1.51462 0
M  V30 2801 C 265.528 0.391205 -2.29287 0
M  V30 2802 C 266.522 1.02247 -1.35062 0
M  V30 2803 O 267.728 0.957646 -1.52411 0
M  V30 2804 H 264.103 0.144968 -0.737895 0
M  V30 2805 H 266.074 -0.286051 -2.97026 0
M  V30 2806 C 264.823 1.48096 -3.14583 0
M  V30 2807 H 264.146 1.00457 -3.86973 0
M  V30 2808 H 265.586 2.03273 -3.72097 0
M  V30 2809 C 264.045 2.46321 -2.29843 0
M  V30 2810 O 264.575 3.50815 -1.95682 0
M  V30 2811 N 262.781 2.17166 -1.931 0
M  V30 2812 H 262.328 1.32218 -2.21079 0
M  V30 2813 H 262.286 2.83127 -1.36698 0
M  V30 2814 N 266.058 1.56714 -0.166846 0
M  V30 2815 C 267.305 1.96747 0.479252 0
M  V30 2816 C 267.633 1.05263 1.63554 0
M  V30 2817 O 266.888 0.0858098 1.95512 0
M  V30 2818 C 267.187 3.42889 1.00806 0
M  V30 2819 C 266.853 4.50889 -0.0318574 0
M  V30 2820 C 265.515 4.8015 -0.317675 0
M  V30 2821 C 267.867 5.15949 -0.737956 0
M  V30 2822 C 265.195 5.71772 -1.31506 0
M  V30 2823 C 267.547 6.08647 -1.72429 0
M  V30 2824 C 266.211 6.36277 -2.0176 0
M  V30 2825 H 265.481 0.719949 0.175371 0
M  V30 2826 H 268.128 1.89756 -0.257864 0
M  V30 2827 H 266.433 3.4681 1.82291 0
M  V30 2828 H 268.13 3.71203 1.51689 0
M  V30 2829 H 264.72 4.28128 0.201088 0
M  V30 2830 H 268.904 4.93458 -0.530351 0
M  V30 2831 H 264.16 5.91465 -1.54853 0
M  V30 2832 H 268.334 6.58129 -2.27682 0
M  V30 2833 H 265.961 7.07075 -2.79194 0
M  V30 2834 N 267.536 -0.106894 1.57237 0
M  V30 2835 C 268.761 -0.830287 1.90055 0
M  V30 2836 C 269.186 -1.72064 0.75998 0
M  V30 2837 O 268.544 -1.78982 -0.288991 0
M  V30 2838 C 268.592 -1.6295 3.21683 0
M  V30 2839 O 267.696 -2.73748 3.08441 0
M  V30 2840 H 267.037 -0.228855 0.623315 0
M  V30 2841 H 269.567 -0.085658 2.04421 0
M  V30 2842 H 269.577 -2.01621 3.54701 0
M  V30 2843 H 268.252 -0.975989 4.04286 0
M  V30 2844 H 266.829 -2.38192 2.86913 0
M  V30 2845 N 269.014 -1.53014 -0.377408 0
M  V30 2846 C 270.263 -1.67845 -1.11853 0
M  V30 2847 C 270.576 -0.430625 -1.90801 0
M  V30 2848 O 271.782 -0.459261 -2.67587 0
M  V30 2849 C 270.238 -2.96668 -2.03756 0
M  V30 2850 C 269.846 -4.28671 -1.30175 0
M  V30 2851 C 271.59 -3.20865 -2.77932 0
M  V30 2852 C 269.497 -5.48591 -2.20911 0
M  V30 2853 H 268.427 -0.625343 -0.421263 0
M  V30 2854 H 271.078 -1.79514 -0.380409 0
M  V30 2855 H 269.46 -2.78773 -2.8125 0
M  V30 2856 H 270.634 -4.57157 -0.578259 0
M  V30 2857 H 268.949 -4.10825 -0.679108 0
M  V30 2858 H 271.546 -4.07642 -3.46024 0
M  V30 2859 H 271.889 -2.36424 -3.4265 0
M  V30 2860 H 272.422 -3.39379 -2.07525 0
M  V30 2861 H 269.161 -6.35474 -1.6079 0
M  V30 2862 H 268.681 -5.244 -2.91144 0
M  V30 2863 H 270.36 -5.8292 -2.80736 0
M  V30 2864 N 270.492 0.636531 -1.44174 0
M  V30 2865 C 271.903 1.21806 -1.41493 0
M  V30 2866 C 272.254 1.95785 -0.1275 0
M  V30 2867 O 271.379 2.02147 0.772376 0
M  V30 2868 C 271.974 2.21551 -2.56321 0
M  V30 2869 C 270.533 2.75143 -2.56853 0
M  V30 2870 C 269.68 1.50052 -2.33195 0
M  V30 2871 H 272.631 0.427531 -1.52833 0
M  V30 2872 H 272.652 3.0405 -2.28765 0
M  V30 2873 H 272.164 1.67679 -3.50008 0
M  V30 2874 H 270.265 3.33033 -1.67093 0
M  V30 2875 H 270.378 3.2155 -3.55165 0
M  V30 2876 H 268.742 1.77993 -1.82183 0
M  V30 2877 H 269.525 0.980903 -3.28988 0
M  V30 2878 N 271.97 1.30982 0.876444 0
M  V30 2879 C 272.902 1.13902 1.98894 0
M  V30 2880 C 273.915 0.0798815 1.62604 0
M  V30 2881 O 275.104 0.326743 1.75484 0
M  V30 2882 C 272.204 0.716699 3.31235 0
M  V30 2883 C 271.377 1.85945 3.95908 0
M  V30 2884 C 270.436 1.42426 5.06558 0
M  V30 2885 O 269.462 2.13287 5.27729 0
M  V30 2886 N 270.664 0.308025 5.79682 0
M  V30 2887 H 273.429 2.09724 2.14094 0
M  V30 2888 H 270.99 1.2323 1.05004 0
M  V30 2889 H 272.982 0.408403 4.02634 0
M  V30 2890 H 271.552 -0.149719 3.12241 0
M  V30 2891 H 270.772 2.33541 3.17573 0
M  V30 2892 H 272.06 2.62503 4.35855 0
M  V30 2893 H 271.458 -0.282241 5.64995 0
M  V30 2894 H 270.015 0.0592282 6.51773 0
M  V30 2895 N 273.449 -1.08991 1.13837 0
M  V30 2896 C 274.412 -2.13925 0.822715 0
M  V30 2897 C 275.412 -1.599 -0.1699 0
M  V30 2898 O 276.602 -1.74104 0.0577251 0
M  V30 2899 C 273.734 -3.40155 0.225318 0
M  V30 2900 H 274.927 -2.43358 1.75262 0
M  V30 2901 H 272.48 -1.24603 0.943594 0
M  V30 2902 H 273.215 -3.16352 -0.713594 0
M  V30 2903 H 273 -3.80661 0.940193 0
M  V30 2904 H 274.49 -4.17594 0.0214784 0
M  V30 2905 N 274.927 -0.932562 -1.27047 0
M  V30 2906 C 275.875 -0.42603 -2.28665 0
M  V30 2907 C 276.869 0.49219 -1.62092 0
M  V30 2908 O 278.075 0.371355 -1.76128 0
M  V30 2909 H 274.45 -0.119213 -0.742491 0
M  V30 2910 H 276.421 -1.29579 -2.68797 0
M  V30 2911 C 275.17 0.301426 -3.46391 0
M  V30 2912 H 274.493 -0.39595 -3.97834 0
M  V30 2913 H 275.933 0.6202 -4.1944 0
M  V30 2914 C 274.392 1.51616 -3.00856 0
M  V30 2915 O 274.922 2.61476 -3.04948 0
M  V30 2916 N 273.128 1.36969 -2.56296 0
M  V30 2917 H 272.675 0.475873 -2.53166 0
M  V30 2918 H 272.633 2.18368 -2.26192 0
M  V30 2919 N 276.405 1.4127 -0.698611 0
M  V30 2920 C 277.355 2.27997 -0.0119836 0
M  V30 2921 C 278.339 1.42363 0.749765 0
M  V30 2922 O 279.531 1.65607 0.624758 0
M  V30 2923 C 276.66 3.30702 0.921458 0
M  V30 2924 C 275.746 4.23814 0.155796 0
M  V30 2925 N 276.137 4.98572 -0.852015 0
M  V30 2926 C 274.435 4.44284 0.390836 0
M  V30 2927 C 275.136 5.66744 -1.3106 0
M  V30 2928 N 274.112 5.39867 -0.635944 0
M  V30 2929 H 277.914 2.83232 -0.784649 0
M  V30 2930 H 275.428 1.53518 -0.529711 0
M  V30 2931 H 277.425 3.91661 1.42854 0
M  V30 2932 H 276.085 2.77028 1.69369 0
M  V30 2933 H 277.096 5.03024 -1.23235 0
M  V30 2934 H 273.773 4.01614 1.14071 0
M  V30 2935 H 275.163 6.36672 -2.14707 0
M  V30 2936 N 277.883 0.443576 1.51229 0
M  V30 2937 C 279.108 -0.121648 2.07043 0
M  V30 2938 C 279.533 -1.35156 1.30823 0
M  V30 2939 O 278.891 -1.7793 0.347934 0
M  V30 2940 C 278.939 -0.41624 3.5819 0
M  V30 2941 O 278.043 -1.50163 3.8409 0
M  V30 2942 H 277.384 0.000871367 0.663999 0
M  V30 2943 H 279.914 0.626706 1.94765 0
M  V30 2944 H 279.924 -0.664867 4.02546 0
M  V30 2945 H 278.599 0.482653 4.1309 0
M  V30 2946 H 277.176 -1.24248 3.51592 0
M  V30 2947 N 279.361 -1.56624 0.175154 0
M  V30 2948 C 280.311 -2.14747 -0.766004 0
M  V30 2949 C 281.295 -1.08275 -1.19018 0
M  V30 2950 O 282.487 -1.34388 -1.15191 0
M  V30 2951 C 279.616 -2.79478 -1.99366 0
M  V30 2952 C 278.702 -3.93114 -1.5913 0
M  V30 2953 N 279.093 -4.97752 -0.89872 0
M  V30 2954 C 277.391 -4.04345 -1.88204 0
M  V30 2955 C 278.092 -5.77473 -0.700012 0
M  V30 2956 N 277.068 -5.29207 -1.24263 0
M  V30 2957 H 280.87 -2.93015 -0.22793 0
M  V30 2958 H 278.384 -1.6238 -0.0253843 0
M  V30 2959 H 280.381 -3.19498 -2.67818 0
M  V30 2960 H 279.041 -2.02692 -2.53665 0
M  V30 2961 H 280.052 -5.14903 -0.556347 0
M  V30 2962 H 276.729 -3.38667 -2.44153 0
M  V30 2963 H 278.119 -6.71728 -0.152047 0
M  V30 2964 N 280.839 0.0985539 -1.57292 0
M  V30 2965 C 282.064 0.820196 -1.90493 0
M  V30 2966 C 282.489 1.71658 -0.769094 0
M  V30 2967 O 281.847 1.79133 0.279495 0
M  V30 2968 C 281.895 1.61242 -3.22542 0
M  V30 2969 O 280.999 2.72108 -3.09888 0
M  V30 2970 H 280.34 0.225547 -0.62452 0
M  V30 2971 H 282.87 0.0748159 -2.04463 0
M  V30 2972 H 282.88 1.99737 -3.55766 0
M  V30 2973 H 281.555 0.954535 -4.04798 0
M  V30 2974 H 280.132 2.36667 -2.88172 0
M  V30 2975 N 282.317 1.53212 0.369288 0
M  V30 2976 C 283.565 1.68881 1.11012 0
M  V30 2977 C 283.886 0.441285 1.89941 0
M  V30 2978 O 283.156 -0.544623 1.88177 0
M  V30 2979 H 281.736 0.622569 0.412816 0
M  V30 2980 H 284.398 1.90391 0.416802 0
M  V30 2981 H 283.494 2.54822 1.80201 0
M  V30 2982 N 283.795 -0.628877 1.44509 0
M  V30 2983 C 285.072 -1.38733 1.37886 0
M  V30 2984 C 285.452 -2.11065 0.0387008 0
M  V30 2985 O 284.8 -2.06476 -0.97878 0
M  V30 2986 C 285.01 -2.35188 2.57852 0
M  V30 2987 C 286.358 -2.9845 3.02014 0
M  V30 2988 O 287.382 -2.45513 2.58073 0
M  V30 2989 O 286.241 -3.94487 3.78209 0
M  V30 2990 H 283.335 -0.621015 0.54614 0
M  V30 2991 H 285.881 -0.653744 1.56602 0
M  V30 2992 H 284.653 -1.80855 3.46998 0
M  V30 2993 H 284.276 -3.1596 2.4136 0
M  V30 2994 N 285.273 -1.31445 -0.869486 0
M  V30 2995 C 286.503 -1.23942 -1.65294 0
M  V30 2996 C 286.911 0.197561 -1.88166 0
M  V30 2997 O 286.254 1.14019 -1.44033 0
M  V30 2998 C 286.316 -1.91385 -3.04322 0
M  V30 2999 C 285.98 -3.40726 -3.04557 0
M  V30 3000 C 286.977 -4.36464 -2.82481 0
M  V30 3001 C 284.662 -3.82425 -3.25663 0
M  V30 3002 C 286.656 -5.71876 -2.8149 0
M  V30 3003 C 284.343 -5.1795 -3.243 0
M  V30 3004 C 285.341 -6.12486 -3.02241 0
M  V30 3005 O 285.029 -7.45534 -3.00724 0
M  V30 3006 H 284.761 -0.429459 -0.522054 0
M  V30 3007 H 287.315 -1.73873 -1.0935 0
M  V30 3008 H 285.545 -1.36004 -3.61994 0
M  V30 3009 H 287.234 -1.77791 -3.64891 0
M  V30 3010 H 288 -4.05576 -2.65956 0
M  V30 3011 H 283.879 -3.09274 -3.41863 0
M  V30 3012 H 287.423 -6.45638 -2.64191 0
M  V30 3013 H 283.32 -5.48473 -3.40365 0
M  V30 3014 H 284.088 -7.54713 -3.16782 0
M  V30 3015 N 286.751 1.08385 -1.14413 0
M  V30 3016 C 287.701 2.13509 -0.79987 0
M  V30 3017 C 288.685 1.5951 0.211059 0
M  V30 3018 O 289.877 1.76995 0.0133694 0
M  V30 3019 C 287.006 3.42162 -0.279297 0
M  V30 3020 C 286.092 4.03042 -1.31976 0
M  V30 3021 N 286.483 4.38327 -2.52395 0
M  V30 3022 C 284.781 4.30379 -1.17004 0
M  V30 3023 C 285.482 4.86428 -3.19003 0
M  V30 3024 N 284.458 4.84547 -2.46405 0
M  V30 3025 H 288.26 2.38609 -1.7159 0
M  V30 3026 H 285.774 1.2572 -1.02802 0
M  V30 3027 H 287.771 4.16898 -0.0143688 0
M  V30 3028 H 286.431 3.18511 0.630923 0
M  V30 3029 H 287.442 4.29349 -2.89621 0
M  V30 3030 H 284.119 4.16281 -0.318854 0
M  V30 3031 H 285.509 5.23107 -4.21674 0
M  V30 3032 N 288.23 0.939286 1.26551 0
M  V30 3033 C 289.47 0.5933 1.956 0
M  V30 3034 C 289.834 -0.851515 1.72085 0
M  V30 3035 O 291.035 -1.30634 2.34921 0
M  V30 3036 C 289.306 0.923996 3.45249 0
M  V30 3037 S 290.865 0.688269 4.33369 0
M  V30 3038 H 287.683 0.218591 0.676564 0
M  V30 3039 H 290.285 1.2102 1.5354 0
M  V30 3040 H 288.989 1.97297 3.59864 0
M  V30 3041 H 288.52 0.296746 3.92279 0
M  V30 3042 H 290.535 -0.448434 4.9417 0
M  V30 3043 N 289.708 -1.40897 0.706093 0
M  V30 3044 C 290.936 -2.05373 0.250887 0
M  V30 3045 C 291.351 -1.53172 -1.10381 0
M  V30 3046 O 290.708 -0.684305 -1.69185 0
M  V30 3047 C 290.759 -3.6088 0.211571 0
M  V30 3048 O 290.48 -4.11153 1.51276 0
M  V30 3049 C 291.981 -4.42517 -0.263346 0
M  V30 3050 H 289.201 -0.66115 0.114552 0
M  V30 3051 H 291.745 -1.80479 0.961635 0
M  V30 3052 H 289.9 -3.84777 -0.450073 0
M  V30 3053 H 290.314 -5.05279 1.40689 0
M  V30 3054 H 291.788 -5.51479 -0.239718 0
M  V30 3055 H 292.265 -4.19396 -1.30397 0
M  V30 3056 H 292.871 -4.23708 0.367677 0
M  V30 3057 N 291.186 -0.45159 -1.50991 0
M  V30 3058 C 292.434 0.109857 -2.01801 0
M  V30 3059 C 292.755 1.41958 -1.3369 0
M  V30 3060 O 292.025 1.9003 -0.475951 0
M  V30 3061 H 290.605 0.0435884 -0.745727 0
M  V30 3062 H 293.267 -0.597557 -1.85514 0
M  V30 3063 H 292.363 0.275489 -3.10882 0
M  V30 3064 N 292.664 1.56529 -0.183458 0
M  V30 3065 C 293.612 2.19873 0.758845 0
M  V30 3066 C 294.606 1.16638 1.22849 0
M  V30 3067 O 295.812 1.3481 1.19274 0
M  V30 3068 H 292.187 0.7045 0.263029 0
M  V30 3069 H 294.158 2.97724 0.200755 0
M  V30 3070 C 292.907 2.86314 1.9728 0
M  V30 3071 H 292.23 3.65487 1.62047 0
M  V30 3072 H 293.67 3.3409 2.61075 0
M  V30 3073 C 292.129 1.86729 2.80418 0
M  V30 3074 O 292.659 1.36031 3.77966 0
M  V30 3075 N 290.865 1.55216 2.45675 0
M  V30 3076 H 290.412 1.96636 1.66409 0
M  V30 3077 H 290.37 0.888388 3.01588 0
M  V30 3078 N 294.142 -0.090211 1.57342 0
M  V30 3079 C 295.391 -0.791531 1.8552 0
M  V30 3080 C 295.704 -1.79659 0.773441 0
M  V30 3081 O 296.91 -2.54616 0.942497 0
M  V30 3082 C 295.366 -1.45856 3.2902 0
M  V30 3083 C 294.974 -0.493017 4.45279 0
M  V30 3084 C 296.718 -2.14332 3.66418 0
M  V30 3085 C 294.625 -1.16491 5.79814 0
M  V30 3086 H 293.555 -0.299356 0.692027 0
M  V30 3087 H 296.206 -0.0445343 1.83446 0
M  V30 3088 H 294.588 -2.25318 3.2565 0
M  V30 3089 H 295.762 0.270464 4.60006 0
M  V30 3090 H 294.077 0.0863061 4.16311 0
M  V30 3091 H 296.674 -2.65344 4.64216 0
M  V30 3092 H 297.017 -2.93447 2.95287 0
M  V30 3093 H 297.55 -1.41724 3.71698 0
M  V30 3094 H 294.289 -0.41447 6.54188 0
M  V30 3095 H 293.809 -1.8997 5.68921 0
M  V30 3096 H 295.488 -1.69001 6.24538 0
M  V30 3097 N 295.62 -1.53406 -0.361157 0
M  V30 3098 C 296.868 -1.69467 -1.10115 0
M  V30 3099 C 297.189 -0.451352 -1.89705 0
M  V30 3100 O 296.459 0.534636 -1.88463 0
M  V30 3101 H 295.039 -0.624749 -0.409508 0
M  V30 3102 H 297.701 -1.90609 -0.406699 0
M  V30 3103 H 296.797 -2.55774 -1.78847 0
M  V30 3104 N 297.098 0.621204 -1.44841 0
M  V30 3105 C 298.328 1.40548 -1.51426 0
M  V30 3106 C 298.736 1.88673 -0.141083 0
M  V30 3107 O 298.079 1.62053 0.865128 0
M  V30 3108 C 298.141 2.65325 -2.42576 0
M  V30 3109 C 297.805 2.3893 -3.89566 0
M  V30 3110 C 298.802 2.00138 -4.79834 0
M  V30 3111 C 296.487 2.52263 -4.3436 0
M  V30 3112 C 298.481 1.75021 -6.129 0
M  V30 3113 C 296.168 2.2676 -5.67471 0
M  V30 3114 C 297.166 1.88199 -6.56559 0
M  V30 3115 O 296.854 1.62986 -7.87204 0
M  V30 3116 H 296.586 0.437122 -0.515655 0
M  V30 3117 H 299.14 0.765987 -1.90583 0
M  V30 3118 H 297.37 3.31947 -1.98364 0
M  V30 3119 H 299.059 3.27347 -2.39998 0
M  V30 3120 H 299.825 1.89386 -4.46495 0
M  V30 3121 H 295.704 2.81246 -3.65269 0
M  V30 3122 H 299.248 1.44848 -6.82396 0
M  V30 3123 H 295.145 2.37125 -6.00368 0
M  V30 3124 H 295.913 1.7715 -7.991 0
M  V30 3125 N 298.576 1.31904 0.862503 0
M  V30 3126 C 299.804 1.24998 1.64873 0
M  V30 3127 C 300.219 -0.183425 1.87907 0
M  V30 3128 O 299.576 -1.11794 1.44251 0
M  V30 3129 C 299.627 1.99829 3.01248 0
M  V30 3130 O 299.348 3.37575 2.79239 0
M  V30 3131 C 300.849 1.99852 3.95694 0
M  V30 3132 H 298.069 0.431599 0.513773 0
M  V30 3133 H 300.613 1.73901 1.07604 0
M  V30 3134 H 298.768 1.54668 3.55185 0
M  V30 3135 H 299.182 3.75776 3.65914 0
M  V30 3136 H 300.656 2.56709 4.88676 0
M  V30 3137 H 301.133 0.982852 4.28062 0
M  V30 3138 H 301.739 2.44926 3.47694 0
M  V30 3139 N 300.054 -1.07777 1.14986 0
M  V30 3140 C 300.984 -2.16865 0.865557 0
M  V30 3141 C 301.965 -1.69123 -0.182083 0
M  V30 3142 O 303.15 -1.94164 -0.0373815 0
M  V30 3143 C 300.28 -3.45539 0.349313 0
M  V30 3144 C 299.234 -4.06708 1.33313 0
M  V30 3145 C 298.56 -5.30411 0.675918 0
M  V30 3146 C 299.86 -4.47241 2.69764 0
M  V30 3147 H 301.554 -2.40905 1.77778 0
M  V30 3148 H 299.1 -1.15781 0.856203 0
M  V30 3149 H 301.053 -4.21174 0.137983 0
M  V30 3150 H 299.777 -3.21072 -0.598362 0
M  V30 3151 H 298.436 -3.33112 1.53075 0
M  V30 3152 H 298.084 -5.02232 -0.277767 0
M  V30 3153 H 297.784 -5.72293 1.33244 0
M  V30 3154 H 299.308 -6.08755 0.474262 0
M  V30 3155 H 300.722 -5.14025 2.53873 0
M  V30 3156 H 299.119 -5.00062 3.3175 0
M  V30 3157 H 300.189 -3.58818 3.26156 0
M  V30 3158 N 301.532 -0.945985 -1.26051 0
M  V30 3159 C 302.762 -0.612136 -1.97323 0
M  V30 3160 C 303.17 0.818171 -1.70595 0
M  V30 3161 O 302.513 1.55777 -0.973613 0
M  V30 3162 C 302.575 -0.780347 -3.50929 0
M  V30 3163 C 302.239 -2.18619 -4.01317 0
M  V30 3164 C 303.236 -3.16209 -4.12683 0
M  V30 3165 C 300.921 -2.50805 -4.35203 0
M  V30 3166 C 302.915 -4.44085 -4.57238 0
M  V30 3167 C 300.602 -3.78912 -4.79446 0
M  V30 3168 C 301.6 -4.75365 -4.90425 0
M  V30 3169 O 301.288 -6.01191 -5.3369 0
M  V30 3170 H 301.02 -0.229134 -0.635982 0
M  V30 3171 H 303.574 -1.27036 -1.61404 0
M  V30 3172 H 301.804 -0.0649864 -3.86645 0
M  V30 3173 H 303.493 -0.448842 -4.03411 0
M  V30 3174 H 304.259 -2.92668 -3.86744 0
M  V30 3175 H 300.138 -1.76463 -4.2589 0
M  V30 3176 H 303.682 -5.19373 -4.65723 0
M  V30 3177 H 299.579 -4.02265 -5.0483 0
M  V30 3178 H 300.347 -6.04442 -5.51899 0
M  V30 3179 N 303.011 1.40521 -0.713556 0
M  V30 3180 C 304.236 2.05759 -0.26035 0
M  V30 3181 C 304.661 1.53403 1.08854 0
M  V30 3182 O 304.019 0.668535 1.68524 0
M  V30 3183 C 304.067 3.59745 -0.248122 0
M  V30 3184 O 303.171 4.05123 0.77131 0
M  V30 3185 H 302.512 0.652564 -0.122703 0
M  V30 3186 H 305.042 1.79958 -0.973467 0
M  V30 3187 H 305.052 4.07911 -0.0851129 0
M  V30 3188 H 303.727 3.97218 -1.2325 0
M  V30 3189 H 302.304 3.68422 0.57619 0
M  V30 3190 N 304.489 0.459591 1.5075 0
M  V30 3191 C 305.714 -0.0996819 2.0716 0
M  V30 3192 C 306.139 -1.33761 1.32249 0
M  V30 3193 O 305.497 -1.77551 0.366786 0
M  V30 3194 C 305.545 -0.378226 3.58611 0
M  V30 3195 O 304.649 -1.46081 3.85661 0
M  V30 3196 H 303.99 0.00791392 0.663953 0
M  V30 3197 H 306.52 0.647329 1.9409 0
M  V30 3198 H 306.53 -0.622135 4.03229 0
M  V30 3199 H 305.205 0.526439 4.12555 0
M  V30 3200 H 303.782 -1.20511 3.5289 0
M  V30 3201 N 305.967 -1.56429 0.191757 0
M  V30 3202 C 306.914 -2.18936 -0.730454 0
M  V30 3203 C 307.884 -1.13557 -1.21219 0
M  V30 3204 O 309.069 -1.41794 -1.27668 0
M  V30 3205 C 306.209 -2.85013 -1.9458 0
M  V30 3206 C 305.322 -4.04909 -1.50574 0
M  V30 3207 C 304.457 -4.58853 -2.67634 0
M  V30 3208 C 303.496 -5.71114 -2.20217 0
M  V30 3209 N 302.633 -6.19478 -3.30442 0
M  V30 3210 H 307.473 -2.97389 -0.190664 0
M  V30 3211 H 305.01 -1.46869 -0.0823694 0
M  V30 3212 H 306.968 -3.21492 -2.65893 0
M  V30 3213 H 305.598 -2.09129 -2.45896 0
M  V30 3214 H 304.65 -3.74115 -0.688605 0
M  V30 3215 H 305.962 -4.86113 -1.11784 0
M  V30 3216 H 305.116 -4.97619 -3.47074 0
M  V30 3217 H 303.855 -3.76749 -3.09696 0
M  V30 3218 H 302.86 -5.31879 -1.3923 0
M  V30 3219 H 304.085 -6.55033 -1.79189 0
M  V30 3220 H 302.031 -5.40297 -3.72041 0
M  V30 3221 H 301.948 -6.95725 -2.9581 0
M  V30 3222 H 303.216 -6.62898 -4.10106 0
M  V30 3223 N 307.445 0.0818655 -1.57387 0
M  V30 3224 C 308.856 0.634871 -1.75574 0
M  V30 3225 C 309.207 1.78435 -0.815809 0
M  V30 3226 O 308.332 2.164 0.0025366 0
M  V30 3227 C 308.927 1.15845 -3.18379 0
M  V30 3228 C 307.486 1.65741 -3.37945 0
M  V30 3229 C 306.633 0.572549 -2.71325 0
M  V30 3230 H 309.584 -0.144268 -1.58043 0
M  V30 3231 H 309.605 2.02751 -3.21982 0
M  V30 3232 H 309.117 0.321631 -3.86765 0
M  V30 3233 H 307.218 2.51781 -2.74658 0
M  V30 3234 H 307.331 1.74129 -4.46336 0
M  V30 3235 H 305.695 1.01518 -2.33594 0
M  V30 3236 H 306.478 -0.253918 -3.4236 0
M  V30 3237 N 308.923 1.53595 0.353017 0
M  V30 3238 C 310.169 1.70638 1.09593 0
M  V30 3239 C 310.502 0.463286 1.88593 0
M  V30 3240 O 309.777 -0.539597 1.86865 0
M  V30 3241 C 310.06 2.96406 2.04489 0
M  V30 3242 C 309.913 4.30901 1.29014 0
M  V30 3243 C 311.232 3.17812 3.0444 0
M  V30 3244 H 308.351 0.620913 0.397034 0
M  V30 3245 H 310.993 1.86254 0.375446 0
M  V30 3246 H 309.143 2.83223 2.65927 0
M  V30 3247 H 310.815 4.55917 0.702638 0
M  V30 3248 H 309.058 4.29741 0.592071 0
M  V30 3249 H 309.729 5.1506 1.98537 0
M  V30 3250 H 312.205 3.30263 2.53112 0
M  V30 3251 H 311.081 4.07223 3.6805 0
M  V30 3252 H 311.342 2.33669 3.75301 0
M  V30 3253 N 310.401 -0.613514 1.45168 0
M  V30 3254 C 311.629 -1.39946 1.5239 0
M  V30 3255 C 312.044 -1.88167 0.154531 0
M  V30 3256 O 311.401 -1.61872 -0.842843 0
M  V30 3257 C 311.452 -2.60795 2.50337 0
M  V30 3258 O 311.173 -2.1458 3.81952 0
M  V30 3259 C 312.674 -3.53723 2.67198 0
M  V30 3260 H 309.894 -0.428593 0.516284 0
M  V30 3261 H 312.438 -0.748753 1.903 0
M  V30 3262 H 310.593 -3.21919 2.15515 0
M  V30 3263 H 311.007 -2.93055 4.34993 0
M  V30 3264 H 312.481 -4.35079 3.39721 0
M  V30 3265 H 312.958 -4.0368 1.73029 0
M  V30 3266 H 313.564 -2.98456 3.02992 0
M  V30 3267 N 311.879 -1.3236 -0.855495 0
M  V30 3268 C 313.128 -1.22226 -1.60448 0
M  V30 3269 C 313.441 0.214733 -1.94418 0
M  V30 3270 O 314.647 0.437917 -2.67945 0
M  V30 3271 C 313.103 -2.14063 -2.89318 0
M  V30 3272 C 312.711 -3.62839 -2.62777 0
M  V30 3273 C 314.455 -2.12764 -3.67331 0
M  V30 3274 C 312.362 -4.4664 -3.87643 0
M  V30 3275 H 311.292 -0.453904 -0.602069 0
M  V30 3276 H 313.943 -1.57314 -0.944698 0
M  V30 3277 H 312.325 -1.71889 -3.5675 0
M  V30 3278 H 313.499 -4.1335 -2.03662 0
M  V30 3279 H 311.814 -3.66261 -1.98096 0
M  V30 3280 H 314.411 -2.72611 -4.59987 0
M  V30 3281 H 314.754 -1.11841 -4.00995 0
M  V30 3282 H 315.287 -2.53214 -3.06802 0
M  V30 3283 H 312.026 -5.48373 -3.5912 0
M  V30 3284 H 311.546 -4.0088 -4.46156 0
M  V30 3285 H 313.225 -4.59597 -4.55389 0
M  V30 3286 N 313.357 1.07166 -1.15556 0
M  V30 3287 C 314.585 1.83514 -0.955519 0
M  V30 3288 C 315 1.82163 0.49621 0
M  V30 3289 O 314.357 1.23441 1.34419 0
M  V30 3290 C 314.408 3.30515 -1.46432 0
M  V30 3291 O 314.129 3.31937 -2.85918 0
M  V30 3292 C 315.63 4.23625 -1.30603 0
M  V30 3293 H 312.85 0.578926 -0.339244 0
M  V30 3294 H 315.394 1.35265 -1.53374 0
M  V30 3295 H 313.549 3.76106 -0.928584 0
M  V30 3296 H 313.963 4.23794 -3.09029 0
M  V30 3297 H 315.437 5.24831 -1.71047 0
M  V30 3298 H 315.914 4.38485 -0.250441 0
M  V30 3299 H 316.52 3.83871 -1.83094 0
M  V30 3300 N 314.835 0.952656 1.25548 0
M  V30 3301 C 316.081 0.607272 1.93494 0
M  V30 3302 C 316.414 -0.853245 1.74452 0
M  V30 3303 O 315.689 -1.61194 1.08843 0
M  V30 3304 C 315.972 0.96435 3.46947 0
M  V30 3305 C 315.825 2.48045 3.75225 0
M  V30 3306 C 317.144 0.487987 4.37386 0
M  V30 3307 H 314.263 0.222096 0.702739 0
M  V30 3308 H 316.905 1.18895 1.48203 0
M  V30 3309 H 315.055 0.469361 3.85654 0
M  V30 3310 H 316.727 3.04905 3.46166 0
M  V30 3311 H 314.97 2.919 3.209 0
M  V30 3312 H 315.641 2.6808 4.82532 0
M  V30 3313 H 318.117 0.912558 4.0597 0
M  V30 3314 H 316.993 0.766547 5.43521 0
M  V30 3315 H 317.254 -0.612063 4.37843 0
M  V30 3316 N 316.313 -1.40141 0.720998 0
M  V30 3317 C 317.245 -2.29177 0.0324669 0
M  V30 3318 C 318.258 -1.46105 -0.718126 0
M  V30 3319 O 319.447 -1.69335 -0.564608 0
M  V30 3320 C 316.547 -3.24473 -0.978292 0
M  V30 3321 C 315.72 -4.36423 -0.292115 0
M  V30 3322 C 314.779 -5.12122 -1.20901 0
M  V30 3323 O 313.805 -5.64981 -0.691766 0
M  V30 3324 N 315.007 -5.21992 -2.53978 0
M  V30 3325 H 317.772 -2.88909 0.796984 0
M  V30 3326 H 315.333 -1.51569 0.569068 0
M  V30 3327 H 317.325 -3.71987 -1.59398 0
M  V30 3328 H 315.895 -2.65871 -1.64413 0
M  V30 3329 H 315.115 -3.90967 0.503847 0
M  V30 3330 H 316.403 -5.08467 0.183971 0
M  V30 3331 H 315.801 -4.8054 -2.98493 0
M  V30 3332 H 314.358 -5.72995 -3.10677 0
M  V30 3333 N 317.792 -0.46758 -1.50504 0
M  V30 3334 C 318.755 0.317059 -2.26996 0
M  V30 3335 C 319.755 0.923513 -1.31635 0
M  V30 3336 O 320.945 0.793239 -1.55091 0
M  V30 3337 C 318.077 1.45134 -3.08462 0
M  V30 3338 H 319.27 -0.353723 -2.97807 0
M  V30 3339 H 316.823 -0.221545 -1.54722 0
M  V30 3340 H 317.558 2.15728 -2.4214 0
M  V30 3341 H 317.343 1.02232 -3.78538 0
M  V30 3342 H 318.833 2.00493 -3.66323 0
M  V30 3343 N 319.27 1.56325 -0.20005 0
M  V30 3344 C 320.681 1.8408 0.31167 0
M  V30 3345 C 321.032 1.12087 1.61031 0
M  V30 3346 O 320.157 0.38332 2.12978 0
M  V30 3347 C 320.752 3.33932 0.57226 0
M  V30 3348 C 319.311 3.6208 1.02834 0
M  V30 3349 C 318.458 2.77186 0.079634 0
M  V30 3350 H 321.409 1.52939 -0.423729 0
M  V30 3351 H 321.43 3.52971 1.42096 0
M  V30 3352 H 320.942 3.86303 -0.37308 0
M  V30 3353 H 319.043 3.15147 1.98778 0
M  V30 3354 H 319.156 4.7023 0.917624 0
M  V30 3355 H 317.52 2.47951 0.582448 0
M  V30 3356 H 318.303 3.32347 -0.860238 0
M  V30 3357 N 320.748 -0.0735177 1.57428 0
M  V30 3358 C 321.973 -0.789787 1.91774 0
M  V30 3359 C 322.398 -1.70413 0.796306 0
M  V30 3360 O 321.756 -1.79555 -0.250961 0
M  V30 3361 C 321.804 -1.5609 3.25067 0
M  V30 3362 O 320.908 -2.67144 3.14178 0
M  V30 3363 H 320.249 -0.215582 0.628029 0
M  V30 3364 H 322.779 -0.0422781 2.04556 0
M  V30 3365 H 322.789 -1.94052 3.58898 0
M  V30 3366 H 321.464 -0.890015 4.06265 0
M  V30 3367 H 320.041 -2.32052 2.91901 0
M  V30 3368 N 322.226 -1.5378 -0.344866 0
M  V30 3369 C 323.451 -1.75211 -1.10977 0
M  V30 3370 C 323.876 -0.48936 -1.81623 0
M  V30 3371 O 323.234 0.557925 -1.72502 0
M  V30 3372 C 323.282 -2.93147 -2.09993 0
M  V30 3373 O 322.386 -2.63203 -3.17487 0
M  V30 3374 H 321.727 -0.581241 -0.321021 0
M  V30 3375 H 324.257 -2.00738 -0.395661 0
M  V30 3376 H 324.267 -3.19898 -2.53237 0
M  V30 3377 H 322.942 -3.84731 -1.5797 0
M  V30 3378 H 321.519 -2.47336 -2.79069 0
M  V30 3379 N 323.704 0.605807 -1.45491 0
M  V30 3380 C 324.929 1.39625 -1.53361 0
M  V30 3381 C 325.354 1.87351 -0.167645 0
M  V30 3382 O 324.712 1.60243 0.848051 0
M  V30 3383 C 324.76 2.57559 -2.5238 0
M  V30 3384 O 323.864 3.58248 -2.04285 0
M  V30 3385 H 323.205 0.416771 -0.516912 0
M  V30 3386 H 325.735 0.737103 -1.90861 0
M  V30 3387 H 325.745 3.0478 -2.71244 0
M  V30 3388 H 324.42 2.22171 -3.51586 0
M  V30 3389 H 322.997 3.17664 -1.95305 0
M  V30 3390 N 325.182 1.32811 0.848464 0
M  V30 3391 C 326.593 1.21315 1.41914 0
M  V30 3392 C 326.944 -0.171847 1.95446 0
M  V30 3393 O 326.069 -1.07093 1.88043 0
M  V30 3394 C 326.664 2.19631 2.57968 0
M  V30 3395 C 325.223 2.12003 3.11017 0
M  V30 3396 C 324.37 2.07651 1.83783 0
M  V30 3397 H 327.321 1.44549 0.655071 0
M  V30 3398 H 327.342 1.79845 3.35315 0
M  V30 3399 H 326.854 3.20423 2.18976 0
M  V30 3400 H 324.955 1.14481 3.54577 0
M  V30 3401 H 325.068 3.02111 3.71841 0
M  V30 3402 H 323.432 1.52983 2.03638 0
M  V30 3403 H 324.215 3.10235 1.47 0
M  V30 3404 N 326.66 -1.06551 1.16123 0
M  V30 3405 C 327.593 -2.13382 0.80892 0
M  V30 3406 C 328.571 -1.61128 -0.21827 0
M  V30 3407 O 329.755 -1.88219 -0.102952 0
M  V30 3408 C 326.882 -3.38083 0.204303 0
M  V30 3409 C 325.928 -4.09133 1.20469 0
M  V30 3410 S 326.761 -4.5948 2.75024 0
M  V30 3411 C 327.917 -5.87446 2.16005 0
M  V30 3412 H 328.15 -2.42937 1.71373 0
M  V30 3413 H 325.683 -1.18947 0.984428 0
M  V30 3414 H 327.641 -4.10268 -0.138081 0
M  V30 3415 H 326.302 -3.0669 -0.678234 0
M  V30 3416 H 325.495 -4.98685 0.730019 0
M  V30 3417 H 325.097 -3.4295 1.49202 0
M  V30 3418 H 327.389 -6.60065 1.5271 0
M  V30 3419 H 328.332 -6.39639 3.03756 0
M  V30 3420 H 328.74 -5.41354 1.59989 0
M  V30 3421 N 328.138 -0.959301 -1.25041 0
M  V30 3422 C 329.386 -0.615393 -1.92503 0
M  V30 3423 C 329.707 0.850969 -1.75452 0
M  V30 3424 O 328.977 1.60658 -1.12098 0
M  V30 3425 H 327.557 -0.224613 -0.712431 0
M  V30 3426 H 330.219 -1.21855 -1.5211 0
M  V30 3427 H 329.315 -0.848738 -3.00338 0
M  V30 3428 N 329.616 1.39756 -0.72842 0
M  V30 3429 C 330.865 1.99879 -0.270407 0
M  V30 3430 C 331.178 1.58449 1.14688 0
M  V30 3431 O 332.384 2.11362 1.70407 0
M  V30 3432 C 330.84 3.57292 -0.43252 0
M  V30 3433 C 330.448 4.07688 -1.85727 0
M  V30 3434 C 332.192 4.24485 -0.0359507 0
M  V30 3435 C 330.099 5.5765 -1.96928 0
M  V30 3436 H 329.029 0.747689 -0.0973472 0
M  V30 3437 H 331.68 1.59837 -0.901355 0
M  V30 3438 H 330.062 3.95097 0.267219 0
M  V30 3439 H 331.236 3.81231 -2.58843 0
M  V30 3440 H 329.551 3.53135 -2.20646 0
M  V30 3441 H 332.148 5.34609 -0.0987484 0
M  V30 3442 H 332.491 4.03915 1.00787 0
M  V30 3443 H 333.024 3.9183 -0.686604 0
M  V30 3444 H 329.763 5.8309 -2.99476 0
M  V30 3445 H 329.283 5.8593 -1.28241 0
M  V30 3446 H 330.962 6.22957 -1.74737 0
M  V30 3447 N 331.094 0.475555 1.50254 0
M  V30 3448 C 332.343 -0.0795996 2.01543 0
M  V30 3449 C 332.656 -1.4038 1.36209 0
M  V30 3450 O 333.862 -2.04415 1.7868 0
M  V30 3451 C 332.318 -0.192363 3.59386 0
M  V30 3452 C 331.926 1.12367 4.33679 0
M  V30 3453 C 333.67 -0.699238 4.18701 0
M  V30 3454 C 331.577 0.974453 5.83317 0
M  V30 3455 H 330.507 -0.0335228 0.753254 0
M  V30 3456 H 333.158 0.611128 1.73025 0
M  V30 3457 H 331.54 -0.946974 3.84511 0
M  V30 3458 H 332.714 1.88958 4.20276 0
M  V30 3459 H 331.029 1.562 3.85993 0
M  V30 3460 H 333.626 -0.827978 5.28251 0
M  V30 3461 H 333.969 -1.69171 3.80377 0
M  V30 3462 H 334.502 -0.00188807 3.978 0
M  V30 3463 H 331.241 1.94042 6.26121 0
M  V30 3464 H 330.761 0.248998 5.99283 0
M  V30 3465 H 332.44 0.642867 6.43798 0
M  V30 3466 N 332.573 -1.56217 0.208337 0
M  V30 3467 C 333.819 -1.98242 -0.427552 0
M  V30 3468 C 334.152 -1.09554 -1.60348 0
M  V30 3469 O 333.427 -0.15035 -1.93918 0
M  V30 3470 C 333.71 -3.4931 -0.874907 0
M  V30 3471 C 333.563 -4.48773 0.303751 0
M  V30 3472 C 334.882 -4.04424 -1.73577 0
M  V30 3473 H 332.001 -0.720744 -0.153936 0
M  V30 3474 H 334.643 -1.87586 0.30192 0
M  V30 3475 H 332.793 -3.58522 -1.49648 0
M  V30 3476 H 334.465 -4.51586 0.941682 0
M  V30 3477 H 332.708 -4.23194 0.953375 0
M  V30 3478 H 333.379 -5.51976 -0.0519883 0
M  V30 3479 H 335.855 -3.98075 -1.21143 0
M  V30 3480 H 334.731 -5.1047 -2.01771 0
M  V30 3481 H 334.992 -3.50494 -2.69456 0
M  V30 3482 N 334.051 0.0651679 -1.57465 0
M  V30 3483 C 335.014 1.06117 -2.03155 0
M  V30 3484 C 336.014 1.31204 -0.929632 0
M  V30 3485 O 337.204 1.26813 -1.19432 0
M  V30 3486 C 334.336 2.4032 -2.41783 0
M  V30 3487 H 335.529 0.667231 -2.92383 0
M  V30 3488 H 333.082 0.311075 -1.53173 0
M  V30 3489 H 333.817 2.84532 -1.55601 0
M  V30 3490 H 333.602 2.23451 -3.22199 0
M  V30 3491 H 335.092 3.11898 -2.77685 0
M  V30 3492 N 335.529 1.53961 0.336706 0
M  V30 3493 C 336.775 1.7179 1.07777 0
M  V30 3494 C 337.108 0.483263 1.88091 0
M  V30 3495 O 336.383 -0.519747 1.87427 0
M  V30 3496 C 336.666 2.98558 2.01334 0
M  V30 3497 C 336.519 4.32245 1.24437 0
M  V30 3498 C 337.838 3.21023 3.01052 0
M  V30 3499 H 334.957 0.625089 0.390426 0
M  V30 3500 H 337.599 1.86641 0.35567 0
M  V30 3501 H 335.749 2.86028 2.62908 0
M  V30 3502 H 337.421 4.56637 0.654243 0
M  V30 3503 H 335.664 4.30344 0.546458 0
M  V30 3504 H 336.335 5.17137 1.93063 0
M  V30 3505 H 338.811 3.32929 2.49595 0
M  V30 3506 H 337.687 4.11104 3.6371 0
M  V30 3507 H 337.948 2.37637 3.72802 0
M  V30 3508 N 337.007 -0.598083 1.45811 0
M  V30 3509 C 338.253 -1.35882 1.50545 0
M  V30 3510 C 338.586 -1.93616 0.150445 0
M  V30 3511 O 337.861 -1.75604 -0.83628 0
M  V30 3512 C 338.144 -2.49966 2.59208 0
M  V30 3513 C 337.997 -1.97367 4.04186 0
M  V30 3514 C 339.316 -3.52068 2.64076 0
M  V30 3515 H 336.435 -0.492717 0.548087 0
M  V30 3516 H 339.077 -0.673319 1.77669 0
M  V30 3517 H 337.227 -3.08443 2.3621 0
M  V30 3518 H 338.899 -1.43466 4.38423 0
M  V30 3519 H 337.142 -1.283 4.14393 0
M  V30 3520 H 337.813 -2.79649 4.75921 0
M  V30 3521 H 340.289 -3.03448 2.84708 0
M  V30 3522 H 339.165 -4.2937 3.41954 0
M  V30 3523 H 339.426 -4.08304 1.69531 0
M  V30 3524 N 338.485 -1.33259 -0.841409 0
M  V30 3525 C 339.713 -1.27605 -1.62864 0
M  V30 3526 C 340.128 0.153507 -1.88175 0
M  V30 3527 O 339.485 1.09485 -1.46011 0
M  V30 3528 C 339.536 -2.04596 -2.98031 0
M  V30 3529 O 339.257 -3.41975 -2.73834 0
M  V30 3530 C 340.758 -2.06122 -3.92465 0
M  V30 3531 H 337.978 -0.439718 -0.506842 0
M  V30 3532 H 340.522 -1.75591 -1.04824 0
M  V30 3533 H 338.677 -1.60299 -3.5268 0
M  V30 3534 H 339.091 -3.81549 -3.59889 0
M  V30 3535 H 340.565 -2.64451 -4.84531 0
M  V30 3536 H 341.042 -1.05083 -4.26444 0
M  V30 3537 H 341.648 -2.50427 -3.43753 0
M  V30 3538 N 339.963 1.05934 -1.16686 0
M  V30 3539 C 341.211 1.78447 -0.948744 0
M  V30 3540 C 341.532 1.87813 0.524523 0
M  V30 3541 O 340.802 1.38945 1.38098 0
M  V30 3542 H 339.382 0.660971 -0.348033 0
M  V30 3543 H 342.044 1.27947 -1.47022 0
M  V30 3544 H 341.14 2.80394 -1.37061 0
M  V30 3545 N 341.441 0.965919 1.2453 0
M  V30 3546 C 342.69 0.622437 1.91856 0
M  V30 3547 C 343.003 -0.846006 1.76358 0
M  V30 3548 O 344.209 -1.29993 2.38357 0
M  V30 3549 C 342.665 1.0626 3.43856 0
M  V30 3550 C 342.273 2.55437 3.68043 0
M  V30 3551 C 344.017 0.792183 4.17043 0
M  V30 3552 C 341.924 2.93196 5.13605 0
M  V30 3553 H 340.854 0.229092 0.718354 0
M  V30 3554 H 343.505 1.17189 1.41206 0
M  V30 3555 H 341.887 0.441476 3.93531 0
M  V30 3556 H 343.061 3.22665 3.28974 0
M  V30 3557 H 341.376 2.8007 3.08139 0
M  V30 3558 H 343.973 1.05031 5.24283 0
M  V30 3559 H 344.316 -0.271584 4.15413 0
M  V30 3560 H 344.849 1.37419 3.73311 0
M  V30 3561 H 341.588 3.98636 5.20355 0
M  V30 3562 H 341.108 2.30651 5.53679 0
M  V30 3563 H 342.787 2.83004 5.81823 0
M  V30 3564 N 342.919 -1.39368 0.735821 0
M  V30 3565 C 343.882 -2.2896 0.104874 0
M  V30 3566 C 344.882 -1.46347 -0.666274 0
M  V30 3567 O 346.072 -1.67014 -0.49517 0
M  V30 3568 C 343.204 -3.29857 -0.860656 0
M  V30 3569 H 344.397 -2.86259 0.894205 0
M  V30 3570 H 341.95 -1.48029 0.501704 0
M  V30 3571 H 342.685 -2.77615 -1.67631 0
M  V30 3572 H 342.47 -3.9087 -0.310327 0
M  V30 3573 H 343.96 -3.96893 -1.29867 0
M  V30 3574 N 344.397 -0.483516 -1.5 0
M  V30 3575 C 345.643 0.0672592 -2.02688 0
M  V30 3576 C 345.976 1.38247 -1.36387 0
M  V30 3577 O 345.251 1.88131 -0.493675 0
M  V30 3578 C 345.534 0.238109 -3.59312 0
M  V30 3579 C 345.387 -1.099 -4.36168 0
M  V30 3580 C 346.706 0.986916 -4.28892 0
M  V30 3581 H 343.825 0.0229696 -0.736642 0
M  V30 3582 H 346.467 -0.631527 -1.79197 0
M  V30 3583 H 344.617 0.8333 -3.79458 0
M  V30 3584 H 346.289 -1.73172 -4.27562 0
M  V30 3585 H 344.532 -1.69261 -3.99416 0
M  V30 3586 H 345.203 -0.932954 -5.44059 0
M  V30 3587 H 347.679 0.482302 -4.13295 0
M  V30 3588 H 346.555 1.07527 -5.38265 0
M  V30 3589 H 346.816 2.0265 -3.92919 0
M  V30 3590 N 345.875 1.56104 -0.216619 0
M  V30 3591 C 346.838 2.18819 0.681962 0
M  V30 3592 C 347.838 1.14866 1.12528 0
M  V30 3593 O 349.028 1.40128 1.03488 0
M  V30 3594 C 346.16 2.80756 1.93362 0
M  V30 3595 H 347.353 2.99595 0.135254 0
M  V30 3596 H 344.906 1.56265 0.0330003 0
M  V30 3597 H 345.641 2.03837 2.52232 0
M  V30 3598 H 345.426 3.56876 1.62426 0
M  V30 3599 H 346.916 3.28844 2.57393 0
M  V30 3600 N 347.353 -0.0568162 1.57498 0
M  V30 3601 C 348.316 -1.05038 2.03715 0
M  V30 3602 C 349.316 -1.30709 0.936577 0
M  V30 3603 O 350.506 -1.26178 1.20103 0
M  V30 3604 C 347.638 -2.39034 2.43055 0
M  V30 3605 H 348.831 -0.651715 2.92733 0
M  V30 3606 H 346.384 -0.302947 1.53336 0
M  V30 3607 H 347.119 -2.83703 1.57108 0
M  V30 3608 H 346.904 -2.21739 3.2338 0
M  V30 3609 H 348.394 -3.10421 2.79336 0
M  V30 3610 N 348.832 -1.54138 -0.328536 0
M  V30 3611 C 350.081 -1.71318 -1.06456 0
M  V30 3612 C 350.394 -0.491109 -1.89334 0
M  V30 3613 O 351.6 -0.54416 -2.65991 0
M  V30 3614 C 350.056 -3.03 -1.94214 0
M  V30 3615 C 349.664 -4.32595 -1.16471 0
M  V30 3616 C 351.408 -3.29544 -2.67583 0
M  V30 3617 C 349.315 -5.55341 -2.03347 0
M  V30 3618 H 348.245 -0.638429 -0.401155 0
M  V30 3619 H 350.896 -1.80633 -0.323106 0
M  V30 3620 H 349.278 -2.87579 -2.72239 0
M  V30 3621 H 350.452 -4.58766 -0.432525 0
M  V30 3622 H 348.767 -4.12777 -0.548063 0
M  V30 3623 H 351.364 -4.18444 -3.3288 0
M  V30 3624 H 351.707 -2.47206 -3.34955 0
M  V30 3625 H 352.24 -3.45809 -1.96623 0
M  V30 3626 H 348.979 -6.40268 -1.40491 0
M  V30 3627 H 348.499 -5.33397 -2.74313 0
M  V30 3628 H 350.178 -5.91557 -2.62049 0
M  V30 3629 N 350.31 0.590341 -1.46126 0
M  V30 3630 C 351.556 1.35082 -1.51264 0
M  V30 3631 C 351.889 1.93534 -0.160711 0
M  V30 3632 O 351.164 1.76045 0.826956 0
M  V30 3633 C 351.447 2.48588 -2.6053 0
M  V30 3634 C 351.3 1.95221 -4.05227 0
M  V30 3635 C 352.619 3.50662 -2.6594 0
M  V30 3636 H 349.738 0.489803 -0.550692 0
M  V30 3637 H 352.38 0.663887 -1.78024 0
M  V30 3638 H 350.53 3.07186 -2.37843 0
M  V30 3639 H 352.202 1.41139 -4.39178 0
M  V30 3640 H 350.445 1.26101 -4.15068 0
M  V30 3641 H 351.116 2.77121 -4.77397 0
M  V30 3642 H 353.592 3.01934 -2.86313 0
M  V30 3643 H 352.468 4.27551 -3.44226 0
M  V30 3644 H 352.729 4.07399 -1.71694 0
M  V30 3645 N 351.788 1.33704 0.83433 0
M  V30 3646 C 352.751 1.24244 1.92603 0
M  V30 3647 C 353.751 0.160383 1.59998 0
M  V30 3648 O 354.941 0.412228 1.69252 0
M  V30 3649 C 352.073 0.91555 3.28376 0
M  V30 3650 H 353.266 2.21287 2.02416 0
M  V30 3651 H 350.819 1.17827 1.02696 0
M  V30 3652 H 351.554 -0.0521886 3.24258 0
M  V30 3653 H 351.339 1.69811 3.53422 0
M  V30 3654 H 352.829 0.874231 4.08347 0
M  V30 3655 N 353.266 -1.05314 1.17247 0
M  V30 3656 C 354.229 -2.112 0.890357 0
M  V30 3657 C 355.229 -1.60359 -0.118943 0
M  V30 3658 O 356.419 -1.73833 0.113086 0
M  V30 3659 C 353.551 -3.39266 0.333422 0
M  V30 3660 H 354.744 -2.37659 1.82916 0
M  V30 3661 H 352.297 -1.21538 0.982758 0
M  V30 3662 H 353.032 -3.18462 -0.612587 0
M  V30 3663 H 352.817 -3.77477 1.06082 0
M  V30 3664 H 354.307 -4.17315 0.154322 0
M  V30 3665 N 354.744 -0.972509 -1.24016 0
M  V30 3666 C 355.99 -0.637978 -1.92504 0
M  V30 3667 C 356.323 0.825383 -1.75787 0
M  V30 3668 O 355.598 1.59442 -1.11393 0
M  V30 3669 C 355.881 -1.01942 -3.45369 0
M  V30 3670 C 355.734 -2.53983 -3.71231 0
M  V30 3671 C 357.053 -0.55751 -4.36555 0
M  V30 3672 H 354.172 -0.233248 -0.699117 0
M  V30 3673 H 356.814 -1.21238 -1.46292 0
M  V30 3674 H 354.964 -0.530656 -3.84859 0
M  V30 3675 H 356.636 -3.10374 -3.41271 0
M  V30 3676 H 354.879 -2.96968 -3.16216 0
M  V30 3677 H 355.55 -2.75723 -4.78206 0
M  V30 3678 H 358.026 -0.977029 -4.04467 0
M  V30 3679 H 356.902 -0.85292 -5.42233 0
M  V30 3680 H 357.163 0.542328 -4.38761 0
M  V30 3681 N 356.222 1.38976 -0.743202 0
M  V30 3682 C 357.468 2.0064 -0.295189 0
M  V30 3683 C 357.801 1.5885 1.11716 0
M  V30 3684 O 357.076 0.821181 1.76315 0
M  V30 3685 C 357.359 3.578 -0.406318 0
M  V30 3686 C 357.212 4.09586 -1.85903 0
M  V30 3687 C 358.531 4.39616 0.206439 0
M  V30 3688 H 355.65 0.728935 -0.108733 0
M  V30 3689 H 358.292 1.65067 -0.940897 0
M  V30 3690 H 356.442 3.88235 0.143419 0
M  V30 3691 H 358.114 3.89837 -2.46627 0
M  V30 3692 H 356.357 3.6284 -2.3776 0
M  V30 3693 H 357.028 5.18708 -1.888 0
M  V30 3694 H 359.504 4.15273 -0.262283 0
M  V30 3695 H 358.38 5.48812 0.0983819 0
M  V30 3696 H 358.641 4.22754 1.2935 0
M  V30 3697 N 357.7 0.491464 1.49741 0
M  V30 3698 C 358.663 -0.280906 2.27472 0
M  V30 3699 C 359.663 -0.902454 1.33088 0
M  V30 3700 O 360.853 -0.768465 1.56334 0
M  V30 3701 C 357.985 -1.40209 3.10732 0
M  V30 3702 H 359.178 0.401056 2.97206 0
M  V30 3703 H 356.731 0.246131 1.5435 0
M  V30 3704 H 357.466 -2.11849 2.45541 0
M  V30 3705 H 357.251 -0.961969 3.80117 0
M  V30 3706 H 358.741 -1.9464 3.69466 0
M  V30 3707 N 359.178 -1.55987 0.224894 0
M  V30 3708 C 360.108 -2.23426 -0.678457 0
M  V30 3709 C 361.089 -1.20709 -1.19847 0
M  V30 3710 O 362.274 -1.49304 -1.24186 0
M  V30 3711 C 359.404 -2.91676 -1.88527 0
M  V30 3712 C 358.358 -4.00893 -1.49896 0
M  V30 3713 C 357.684 -4.56455 -2.78483 0
M  V30 3714 C 358.984 -5.17769 -0.686461 0
M  V30 3715 H 360.678 -2.99175 -0.116173 0
M  V30 3716 H 358.224 -1.43897 -0.054436 0
M  V30 3717 H 360.177 -3.37547 -2.5227 0
M  V30 3718 H 358.901 -2.1338 -2.47258 0
M  V30 3719 H 357.56 -3.55758 -0.884985 0
M  V30 3720 H 357.208 -3.74886 -3.35365 0
M  V30 3721 H 356.908 -5.30169 -2.53368 0
M  V30 3722 H 358.432 -5.05047 -3.43162 0
M  V30 3723 H 359.846 -5.60001 -1.22767 0
M  V30 3724 H 358.243 -5.97735 -0.532259 0
M  V30 3725 H 359.313 -4.83932 0.306196 0
M  V30 3726 N 360.656 0.0484629 -1.57525 0
M  V30 3727 C 361.905 0.742065 -1.87553 0
M  V30 3728 C 362.218 1.77545 -0.820802 0
M  V30 3729 O 363.424 2.52027 -1.00967 0
M  V30 3730 C 361.88 1.37081 -3.32771 0
M  V30 3731 C 361.488 0.374786 -4.4643 0
M  V30 3732 C 363.232 2.04542 -3.71972 0
M  V30 3733 C 361.139 1.01077 -5.82698 0
M  V30 3734 H 360.069 0.280903 -0.699721 0
M  V30 3735 H 362.72 -0.00411877 -1.835 0
M  V30 3736 H 361.102 2.16605 -3.31509 0
M  V30 3737 H 362.276 -0.392331 -4.59127 0
M  V30 3738 H 360.591 -0.196653 -4.15935 0
M  V30 3739 H 363.188 2.52943 -4.71088 0
M  V30 3740 H 363.531 2.85515 -3.02964 0
M  V30 3741 H 364.064 1.31819 -3.75325 0
M  V30 3742 H 360.803 0.240878 -6.55057 0
M  V30 3743 H 360.323 1.74819 -5.73758 0
M  V30 3744 H 362.002 1.52383 -6.28799 0
M  V30 3745 N 362.134 1.5431 0.320358 0
M  V30 3746 C 363.364 1.7638 1.07582 0
M  V30 3747 C 363.772 0.513944 1.82086 0
M  V30 3748 O 363.115 -0.525123 1.76035 0
M  V30 3749 C 363.177 2.9055 2.1171 0
M  V30 3750 C 362.841 4.2934 1.56575 0
M  V30 3751 C 363.838 5.10077 1.00586 0
M  V30 3752 C 361.523 4.75893 1.60722 0
M  V30 3753 C 363.517 6.35477 0.494756 0
M  V30 3754 C 361.204 6.0126 1.09224 0
M  V30 3755 C 362.202 6.80886 0.53696 0
M  V30 3756 O 361.89 8.03894 0.0297371 0
M  V30 3757 H 361.622 0.592369 0.325692 0
M  V30 3758 H 364.176 2.02019 0.37116 0
M  V30 3759 H 362.406 2.60489 2.85801 0
M  V30 3760 H 364.095 3.00373 2.73003 0
M  V30 3761 H 364.861 4.75265 0.966869 0
M  V30 3762 H 360.74 4.13957 2.02882 0
M  V30 3763 H 364.284 6.97574 0.0606842 0
M  V30 3764 H 360.181 6.35562 1.12831 0
M  V30 3765 H 360.949 8.18372 0.14486 0
M  V30 3766 N 363.613 -0.582584 1.46437 0
M  V30 3767 C 364.853 -1.35184 1.53312 0
M  V30 3768 C 365.217 -1.9115 0.180508 0
M  V30 3769 O 366.418 -2.68514 0.124017 0
M  V30 3770 C 364.689 -2.45089 2.60127 0
M  V30 3771 S 366.248 -3.32439 2.86408 0
M  V30 3772 H 363.066 -0.460559 0.54167 0
M  V30 3773 H 365.668 -0.669709 1.83671 0
M  V30 3774 H 364.372 -2.02366 3.57038 0
M  V30 3775 H 363.903 -3.18074 2.315 0
M  V30 3776 H 365.918 -4.43924 2.21688 0
M  V30 3777 N 365.091 -1.34144 -0.827227 0
M  V30 3778 C 366.507 -1.13732 -1.11969 0
M  V30 3779 C 366.707 0.0640463 -2.01398 0
M  V30 3780 O 365.763 0.740856 -2.41387 0
M  V30 3781 C 367.076 -2.43047 -1.77055 0
M  V30 3782 C 368.624 -2.49063 -1.89569 0
M  V30 3783 C 369.099 -3.78369 -2.58072 0
M  V30 3784 N 370.59 -3.79505 -2.65575 0
M  V30 3785 C 371.325 -4.76274 -3.19297 0
M  V30 3786 N 370.821 -5.83424 -3.73616 0
M  V30 3787 N 372.614 -4.63735 -3.17658 0
M  V30 3788 H 364.765 -2.11126 -0.232296 0
M  V30 3789 H 367.028 -0.933424 -0.165602 0
M  V30 3790 H 366.734 -3.31025 -1.18807 0
M  V30 3791 H 366.608 -2.56066 -2.76966 0
M  V30 3792 H 368.995 -1.61527 -2.46968 0
M  V30 3793 H 369.076 -2.39975 -0.885745 0
M  V30 3794 H 368.72 -4.66293 -2.01329 0
M  V30 3795 H 368.65 -3.84737 -3.59562 0
M  V30 3796 H 371.141 -3.02074 -2.27068 0
M  V30 3797 H 371.454 -6.53282 -4.12846 0
M  V30 3798 H 369.799 -5.87143 -3.71871 0
M  V30 3799 H 372.99 -3.79177 -2.74486 0
M  V30 3800 H 373.163 -5.39318 -3.59221 0
M  V30 3801 N 366.569 1.04691 -1.17803 0
M  V30 3802 C 367.516 2.12557 -0.899343 0
M  V30 3803 C 368.486 1.65339 0.158771 0
M  V30 3804 O 369.671 1.90789 0.0204797 0
M  V30 3805 C 366.811 3.42481 -0.424315 0
M  V30 3806 C 365.924 4.03346 -1.54713 0
M  V30 3807 C 365.059 5.21208 -1.02546 0
M  V30 3808 C 364.098 5.74089 -2.12339 0
M  V30 3809 N 363.235 6.83247 -1.61612 0
M  V30 3810 H 368.075 2.35734 -1.823 0
M  V30 3811 H 365.612 1.1564 -0.909159 0
M  V30 3812 H 367.57 4.16996 -0.130421 0
M  V30 3813 H 366.2 3.19471 0.462377 0
M  V30 3814 H 365.252 3.2622 -1.95664 0
M  V30 3815 H 366.564 4.38628 -2.37501 0
M  V30 3816 H 365.718 6.02812 -0.685718 0
M  V30 3817 H 364.457 4.87414 -0.167084 0
M  V30 3818 H 363.462 4.91111 -2.47165 0
M  V30 3819 H 364.687 6.0993 -2.98601 0
M  V30 3820 H 362.633 6.5134 -0.780533 0
M  V30 3821 H 362.55 7.17559 -2.38003 0
M  V30 3822 H 363.818 7.68491 -1.30545 0
M  V30 3823 N 368.047 0.979072 1.23499 0
M  V30 3824 C 368.994 0.517904 2.24914 0
M  V30 3825 C 369.964 -0.442525 1.60097 0
M  V30 3826 O 371.149 -0.350365 1.87556 0
M  V30 3827 C 368.289 -0.174813 3.44657 0
M  V30 3828 C 367.402 0.825721 4.24035 0
M  V30 3829 C 366.537 0.107946 5.3109 0
M  V30 3830 C 365.576 1.09778 6.02175 0
M  V30 3831 N 364.713 0.40925 7.00906 0
M  V30 3832 H 369.553 1.38751 2.63727 0
M  V30 3833 H 367.09 0.695303 1.2963 0
M  V30 3834 H 369.048 -0.593233 4.12961 0
M  V30 3835 H 367.678 -1.0083 3.06648 0
M  V30 3836 H 366.73 1.36253 3.55161 0
M  V30 3837 H 368.042 1.58005 4.73113 0
M  V30 3838 H 367.196 -0.367904 6.05583 0
M  V30 3839 H 365.935 -0.678994 4.8295 0
M  V30 3840 H 364.94 1.5844 5.26476 0
M  V30 3841 H 366.165 1.88536 6.52404 0
M  V30 3842 H 364.111 -0.358506 6.5502 0
M  V30 3843 H 364.028 1.10226 7.47921 0
M  V30 3844 H 365.296 -0.0442557 7.79487 0
M  V30 3845 N 369.525 -1.3858 0.750561 0
M  V30 3846 C 370.941 -1.53759 0.427824 0
M  V30 3847 C 371.141 -1.71401 -1.05943 0
M  V30 3848 O 370.197 -1.72331 -1.84549 0
M  V30 3849 C 371.51 -2.74642 1.22443 0
M  V30 3850 C 373.058 -2.88489 1.2142 0
M  V30 3851 C 373.533 -4.12329 1.9937 0
M  V30 3852 N 375.024 -4.194 1.96616 0
M  V30 3853 C 375.759 -5.14209 2.53727 0
M  V30 3854 N 375.255 -6.14709 3.19539 0
M  V30 3855 N 377.048 -5.06537 2.43673 0
M  V30 3856 H 369.199 -1.25377 1.71447 0
M  V30 3857 H 371.462 -0.608844 0.726645 0
M  V30 3858 H 371.168 -2.68 2.27747 0
M  V30 3859 H 371.042 -3.67745 0.839273 0
M  V30 3860 H 373.429 -2.94614 0.169232 0
M  V30 3861 H 373.51 -1.96406 1.63885 0
M  V30 3862 H 373.154 -4.06966 3.03877 0
M  V30 3863 H 373.084 -5.03486 1.54302 0
M  V30 3864 H 375.575 -3.47421 1.48684 0
M  V30 3865 H 375.888 -6.8354 3.60545 0
M  V30 3866 H 374.233 -6.1505 3.23633 0
M  V30 3867 H 377.424 -4.26962 1.91889 0
M  V30 3868 H 377.597 -5.80245 2.88479 0
M  V30 3869 N 371.003 -0.499398 -1.49478 0
M  V30 3870 C 372.252 0.0475259 -2.01644 0
M  V30 3871 C 372.565 1.38195 -1.38425 0
M  V30 3872 O 373.771 2.01547 -1.8191 0
M  V30 3873 C 372.227 0.135164 -3.59646 0
M  V30 3874 C 371.835 -1.19252 -4.31837 0
M  V30 3875 C 373.579 0.632538 -4.19761 0
M  V30 3876 C 371.486 -1.06713 -5.81693 0
M  V30 3877 H 370.416 0.0215349 -0.753692 0
M  V30 3878 H 373.067 -0.638577 -1.7203 0
M  V30 3879 H 371.449 0.885681 -3.85969 0
M  V30 3880 H 372.623 -1.9562 -4.17216 0
M  V30 3881 H 370.938 -1.62321 -3.83459 0
M  V30 3882 H 373.535 0.743833 -5.29501 0
M  V30 3883 H 373.878 1.63098 -3.83021 0
M  V30 3884 H 374.411 -0.0613987 -3.97753 0
M  V30 3885 H 371.15 -2.03979 -6.22955 0
M  V30 3886 H 370.67 -0.344307 -5.98811 0
M  V30 3887 H 372.349 -0.745208 -6.42694 0
M  V30 3888 N 372.481 1.55866 -0.233164 0
M  V30 3889 C 373.706 2.03449 0.402906 0
M  V30 3890 C 374.131 1.11166 1.51736 0
M  V30 3891 O 373.489 0.101996 1.81013 0
M  V30 3892 C 373.537 3.49165 0.9009 0
M  V30 3893 O 372.641 3.60019 2.01147 0
M  V30 3894 H 371.982 0.657913 0.0897025 0
M  V30 3895 H 374.512 2.01493 -0.355201 0
M  V30 3896 H 374.522 3.89716 1.2077 0
M  V30 3897 H 373.197 4.15813 0.0852889 0
M  V30 3898 H 371.774 3.3136 1.71042 0
M  V30 3899 N 373.959 -0.0401083 1.57549 0
M  V30 3900 C 374.922 -1.02871 2.04817 0
M  V30 3901 C 375.922 -1.29708 0.950388 0
M  V30 3902 O 377.112 -1.24897 1.21435 0
M  V30 3903 C 374.244 -2.36443 2.45576 0
M  V30 3904 H 375.437 -0.620631 2.93408 0
M  V30 3905 H 372.99 -0.286667 1.53649 0
M  V30 3906 H 373.725 -2.82021 1.60108 0
M  V30 3907 H 373.51 -2.18296 3.25713 0
M  V30 3908 H 375 -3.07441 2.82612 0
M  V30 3909 N 375.437 -1.54477 -0.31217 0
M  V30 3910 C 376.385 -1.85395 -1.40469 0
M  V30 3911 C 377.379 -0.726749 -1.53019 0
M  V30 3912 O 378.585 -0.910582 -1.55269 0
M  V30 3913 H 374.96 -0.587845 -0.46898 0
M  V30 3914 H 376.931 -2.76736 -1.11623 0
M  V30 3915 C 375.68 -2.10811 -2.76503 0
M  V30 3916 H 375.003 -2.97014 -2.67625 0
M  V30 3917 H 376.443 -2.3639 -3.51988 0
M  V30 3918 C 374.902 -0.903165 -3.24568 0
M  V30 3919 O 375.432 -0.118085 -4.01526 0
M  V30 3920 N 373.638 -0.711634 -2.81752 0
M  V30 3921 H 373.185 -1.35171 -2.19286 0
M  V30 3922 H 373.143 0.0930473 -3.14262 0
M  V30 3923 N 376.915 0.57481 -1.46744 0
M  V30 3924 C 378.14 1.36341 -1.56288 0
M  V30 3925 C 378.565 1.86954 -0.207347 0
M  V30 3926 O 377.923 1.62006 0.813871 0
M  V30 3927 C 377.971 2.52147 -2.57787 0
M  V30 3928 O 377.075 3.53834 -2.11838 0
M  V30 3929 H 376.416 0.405713 -0.525636 0
M  V30 3930 H 378.946 0.696453 -1.92382 0
M  V30 3931 H 378.956 2.98958 -2.77648 0
M  V30 3932 H 377.631 2.14663 -3.5622 0
M  V30 3933 H 376.208 3.1345 -2.01999 0
M  V30 3934 N 378.394 1.34581 0.820102 0
M  V30 3935 C 379.622 1.3018 1.60813 0
M  V30 3936 C 380.037 -0.123551 1.88395 0
M  V30 3937 O 379.394 -1.07148 1.47735 0
M  V30 3938 C 379.445 2.09312 2.94739 0
M  V30 3939 O 379.166 3.46288 2.68358 0
M  V30 3940 C 380.667 2.1234 3.89136 0
M  V30 3941 H 377.887 0.447726 0.499782 0
M  V30 3942 H 380.431 1.77237 1.02017 0
M  V30 3943 H 378.586 1.65889 3.50085 0
M  V30 3944 H 379 3.87227 3.53774 0
M  V30 3945 H 380.474 2.72126 4.80262 0
M  V30 3946 H 380.951 1.11854 4.24718 0
M  V30 3947 H 381.557 2.55864 3.39726 0
M  V30 3948 N 379.872 -1.04064 1.18357 0
M  V30 3949 C 381.149 -1.74252 0.888581 0
M  V30 3950 C 381.529 -2.02138 -0.60856 0
M  V30 3951 O 380.877 -1.66656 -1.56327 0
M  V30 3952 C 381.087 -3.0277 1.73584 0
M  V30 3953 C 382.435 -3.76506 1.96286 0
M  V30 3954 O 383.459 -3.12668 1.70637 0
M  V30 3955 O 382.318 -4.91243 2.39464 0
M  V30 3956 H 379.412 -0.758271 0.330082 0
M  V30 3957 H 381.958 -1.1013 1.2911 0
M  V30 3958 H 380.73 -2.78299 2.75073 0
M  V30 3959 H 380.353 -3.74631 1.33183 0
M  V30 3960 N 381.35 -0.985608 -1.22978 0
M  V30 3961 C 382.761 -0.693593 -1.73338 0
M  V30 3962 C 383.112 0.789935 -1.79595 0
M  V30 3963 O 382.237 1.61771 -1.43733 0
M  V30 3964 C 382.832 -1.25235 -3.14804 0
M  V30 3965 C 381.391 -1.00987 -3.626 0
M  V30 3966 C 380.538 -1.37695 -2.40698 0
M  V30 3967 H 383.489 -1.15884 -1.08428 0
M  V30 3968 H 383.51 -0.627329 -3.75293 0
M  V30 3969 H 383.022 -2.33209 -3.10218 0
M  V30 3970 H 381.123 0.0535565 -3.72562 0
M  V30 3971 H 381.236 -1.66812 -4.49122 0
M  V30 3972 H 379.6 -0.795459 -2.4196 0
M  V30 3973 H 380.383 -2.46657 -2.38779 0
M  V30 3974 N 382.828 1.3818 -0.7579 0
M  V30 3975 C 384.074 2.00316 -0.316453 0
M  V30 3976 C 384.407 1.60026 1.10025 0
M  V30 3977 O 383.682 0.839835 1.75434 0
M  V30 3978 C 383.965 3.57349 -0.444245 0
M  V30 3979 C 383.818 4.07591 -1.90236 0
M  V30 3980 C 385.137 4.3981 0.1598 0
M  V30 3981 H 382.256 0.727741 -0.116459 0
M  V30 3982 H 384.898 1.6406 -0.958352 0
M  V30 3983 H 383.048 3.88365 0.102233 0
M  V30 3984 H 384.72 3.87199 -2.50748 0
M  V30 3985 H 382.963 3.60297 -2.41595 0
M  V30 3986 H 383.634 5.16677 -1.94291 0
M  V30 3987 H 386.11 4.14971 -0.306314 0
M  V30 3988 H 384.986 5.48885 0.0401675 0
M  V30 3989 H 385.247 4.24102 1.24859 0
M  V30 3990 N 384.306 0.507319 1.49211 0
M  V30 3991 C 385.253 -0.267728 2.29242 0
M  V30 3992 C 386.223 -0.954609 1.35928 0
M  V30 3993 O 387.408 -0.960046 1.64887 0
M  V30 3994 C 384.548 -1.32243 3.18756 0
M  V30 3995 C 383.661 -0.64669 4.27132 0
M  V30 3996 C 382.796 -1.68238 5.03855 0
M  V30 3997 C 381.835 -0.98885 6.0406 0
M  V30 3998 N 380.972 -1.96903 6.73924 0
M  V30 3999 H 385.812 0.420968 2.95012 0
M  V30 4000 H 383.349 0.219443 1.45454 0
M  V30 4001 H 385.307 -1.94599 3.69036 0
M  V30 4002 H 383.937 -1.97981 2.54958 0
M  V30 4003 H 382.989 0.0902926 3.80293 0
M  V30 4004 H 384.301 -0.101058 4.98698 0
M  V30 4005 H 383.455 -2.38081 5.58034 0
M  V30 4006 H 382.194 -2.26187 4.32077 0
M  V30 4007 H 381.199 -0.276222 5.49106 0
M  V30 4008 H 382.424 -0.415767 6.77826 0
M  V30 4009 H 380.37 -2.53803 6.04913 0
M  V30 4010 H 380.287 -1.47423 7.41487 0
M  V30 4011 H 381.555 -2.66015 7.32705 0
M  V30 4012 N 385.784 -1.5574 0.241426 0
M  V30 4013 C 386.747 -2.19877 -0.647063 0
M  V30 4014 C 387.747 -1.16642 -1.10686 0
M  V30 4015 O 388.937 -1.41757 -1.01245 0
M  V30 4016 C 386.069 -2.83797 -1.88871 0
M  V30 4017 H 387.262 -2.99772 -0.087574 0
M  V30 4018 H 384.815 -1.56298 -0.00813574 0
M  V30 4019 H 385.55 -2.07824 -2.48957 0
M  V30 4020 H 385.335 -3.59414 -1.56728 0
M  V30 4021 H 386.825 -3.32898 -2.52129 0
M  V30 4022 N 387.262 0.0317525 -1.57568 0
M  V30 4023 C 388.225 1.01783 -2.0536 0
M  V30 4024 C 389.225 1.29203 -0.957253 0
M  V30 4025 O 390.415 1.24251 -1.22095 0
M  V30 4026 C 387.547 2.35137 -2.46827 0
M  V30 4027 H 388.74 0.605062 -2.93733 0
M  V30 4028 H 386.293 0.278514 -1.53799 0
M  V30 4029 H 387.028 2.81168 -1.61602 0
M  V30 4030 H 386.813 2.16566 -3.26866 0
M  V30 4031 H 388.303 3.05938 -2.84239 0
M  V30 4032 N 388.74 1.54641 0.303973 0
M  V30 4033 C 389.672 1.81754 1.39636 0
M  V30 4034 C 390.685 0.70035 1.46966 0
M  V30 4035 O 391.874 0.97778 1.49338 0
M  V30 4036 C 388.974 1.93785 2.7803 0
M  V30 4037 C 388.147 3.24156 2.93669 0
M  V30 4038 C 387.206 3.26641 4.12544 0
M  V30 4039 O 386.232 4.00187 4.04771 0
M  V30 4040 N 387.434 2.5182 5.23036 0
M  V30 4041 H 390.199 2.76031 1.16734 0
M  V30 4042 H 387.76 1.54178 0.494033 0
M  V30 4043 H 389.752 1.92852 3.55795 0
M  V30 4044 H 388.322 1.06515 2.93893 0
M  V30 4045 H 387.542 3.37887 2.03042 0
M  V30 4046 H 388.83 4.10195 3.01027 0
M  V30 4047 H 388.228 1.91692 5.32232 0
M  V30 4048 H 386.785 2.56644 5.99147 0
M  V30 4049 N 390.218 -0.567019 1.47046 0
M  V30 4050 C 391.465 -1.32462 1.53167 0
M  V30 4051 C 391.793 -1.93571 0.189841 0
M  V30 4052 O 391.048 -1.77865 -0.816243 0
M  V30 4053 C 391.347 -2.4623 2.59047 0
M  V30 4054 C 391.013 -2.03014 4.02612 0
M  V30 4055 C 389.675 -1.90944 4.41694 0
M  V30 4056 C 392.027 -1.69895 4.92732 0
M  V30 4057 C 389.355 -1.44035 5.68745 0
M  V30 4058 C 391.707 -1.2446 6.20236 0
M  V30 4059 C 390.371 -1.10979 6.5821 0
M  V30 4060 H 389.641 -0.484713 0.560477 0
M  V30 4061 H 392.288 -0.636888 1.80599 0
M  V30 4062 H 390.593 -3.20517 2.25335 0
M  V30 4063 H 392.29 -3.04427 2.61008 0
M  V30 4064 H 388.88 -2.13348 3.71726 0
M  V30 4065 H 393.064 -1.78098 4.63244 0
M  V30 4066 H 388.32 -1.32254 5.96925 0
M  V30 4067 H 392.494 -0.978924 6.89485 0
M  V30 4068 H 390.121 -0.744078 7.5655 0
M  V30 4069 N 391.696 -1.35014 -0.812953 0
M  V30 4070 C 392.606 -1.2951 -1.95613 0
M  V30 4071 C 393.622 -0.20107 -1.72834 0
M  V30 4072 O 394.798 -0.42932 -1.96771 0
M  V30 4073 C 391.863 -1.06033 -3.30088 0
M  V30 4074 C 390.924 -2.24688 -3.65805 0
M  V30 4075 C 390.157 -2.02322 -4.93864 0
M  V30 4076 O 390.38 -0.986464 -5.61805 0
M  V30 4077 O 389.314 -2.89525 -5.27692 0
M  V30 4078 H 393.14 -2.25705 -2.03202 0
M  V30 4079 H 390.725 -1.15321 -0.949811 0
M  V30 4080 H 392.607 -0.94763 -4.10607 0
M  V30 4081 H 391.282 -0.128852 -3.23443 0
M  V30 4082 H 390.189 -2.41521 -2.85689 0
M  V30 4083 H 391.522 -3.16261 -3.77147 0
M  V30 4084 N 393.175 1.03435 -1.18907 0
M  V30 4085 C 394.586 1.58195 -0.991523 0
M  V30 4086 C 394.937 1.90801 0.457081 0
M  V30 4087 O 394.062 1.70272 1.33553 0
M  V30 4088 C 394.657 2.87432 -1.79355 0
M  V30 4089 C 393.216 3.38785 -1.64017 0
M  V30 4090 C 392.363 2.12292 -1.78402 0
M  V30 4091 H 395.314 0.860299 -1.33359 0
M  V30 4092 H 395.335 3.58096 -1.28638 0
M  V30 4093 H 394.847 2.63669 -2.84781 0
M  V30 4094 H 392.948 3.67547 -0.611536 0
M  V30 4095 H 393.061 4.12186 -2.44212 0
M  V30 4096 H 391.425 2.23901 -1.2141 0
M  V30 4097 H 392.208 1.90977 -2.85277 0
M  V30 4098 N 394.653 0.992116 1.22453 0
M  V30 4099 C 396.064 0.702776 1.72968 0
M  V30 4100 C 396.415 -0.780399 1.80012 0
M  V30 4101 O 395.54 -1.61007 1.44589 0
M  V30 4102 C 396.135 1.26903 3.14135 0
M  V30 4103 C 394.694 1.02909 3.62059 0
M  V30 4104 C 393.841 1.38969 2.39964 0
M  V30 4105 H 396.792 1.16457 1.07812 0
M  V30 4106 H 396.813 0.647223 3.74955 0
M  V30 4107 H 396.325 2.34851 3.08977 0
M  V30 4108 H 394.426 -0.0337979 3.72585 0
M  V30 4109 H 394.539 1.69191 4.48231 0
M  V30 4110 H 392.903 0.808279 2.41535 0
M  V30 4111 H 393.686 2.4792 2.37467 0
M  V30 4112 N 396.131 -1.37776 0.765217 0
M  V30 4113 C 397.379 -1.99454 0.325943 0
M  V30 4114 C 397.7 -1.61049 -1.09947 0
M  V30 4115 O 396.97 -0.872821 -1.75381 0
M  V30 4116 H 395.55 -0.737697 0.117525 0
M  V30 4117 H 398.212 -1.68359 0.981895 0
M  V30 4118 H 397.308 -3.09547 0.398353 0
M  V30 4119 N 397.609 -0.515225 -1.4894 0
M  V30 4120 C 399.025 -0.172099 -1.58669 0
M  V30 4121 C 399.225 1.32405 -1.51892 0
M  V30 4122 O 398.281 2.10116 -1.40027 0
M  V30 4123 C 399.594 -0.761533 -2.90897 0
M  V30 4124 C 401.142 -0.728926 -3.04394 0
M  V30 4125 C 401.617 -1.29667 -4.39261 0
M  V30 4126 N 403.108 -1.25799 -4.4579 0
M  V30 4127 C 403.843 -1.66733 -5.48623 0
M  V30 4128 N 403.339 -2.15327 -6.58488 0
M  V30 4129 N 405.132 -1.58061 -5.39419 0
M  V30 4130 H 397.283 -1.48778 -1.51588 0
M  V30 4131 H 399.546 -0.617968 -0.718901 0
M  V30 4132 H 399.252 -1.81136 -3.01468 0
M  V30 4133 H 399.126 -0.230106 -3.76497 0
M  V30 4134 H 401.513 0.312098 -2.93445 0
M  V30 4135 H 401.594 -1.29766 -2.20442 0
M  V30 4136 H 401.238 -2.33655 -4.50963 0
M  V30 4137 H 401.168 -0.703752 -5.21876 0
M  V30 4138 H 403.659 -0.902102 -3.66975 0
M  V30 4139 H 403.972 -2.44594 -7.33071 0
M  V30 4140 H 402.317 -2.19311 -6.59491 0
M  V30 4141 H 405.508 -1.19906 -4.52482 0
M  V30 4142 H 405.681 -1.90284 -6.19432 0
M  V30 4143 N 399.087 1.5561 -0.249682 0
M  V30 4144 C 400.019 2.18834 0.681496 0
M  V30 4145 C 401.032 1.16546 1.1367 0
M  V30 4146 O 402.221 1.43397 1.06299 0
M  V30 4147 C 399.321 2.77992 1.9384 0
M  V30 4148 C 398.494 4.05725 1.63419 0
M  V30 4149 C 397.553 4.49174 2.74096 0
M  V30 4150 O 396.579 5.15492 2.41364 0
M  V30 4151 N 397.781 4.17191 4.03649 0
M  V30 4152 H 400.546 2.9937 0.140514 0
M  V30 4153 H 398.107 1.6175 -0.0697541 0
M  V30 4154 H 400.099 3.04015 2.67127 0
M  V30 4155 H 398.669 2.01596 2.38909 0
M  V30 4156 H 397.889 3.87261 0.736358 0
M  V30 4157 H 399.177 4.88999 1.40562 0
M  V30 4158 H 398.575 3.63955 4.33074 0
M  V30 4159 H 397.132 4.48043 4.73393 0
M  V30 4160 N 400.565 -0.0233959 1.57583 0
M  V30 4161 C 401.498 -1.05549 2.02323 0
M  V30 4162 C 402.476 -1.34843 0.908626 0
M  V30 4163 O 403.66 -1.47404 1.17491 0
M  V30 4164 C 400.787 -2.38885 2.40108 0
M  V30 4165 C 399.833 -2.2541 3.62067 0
M  V30 4166 S 400.666 -1.60217 5.1097 0
M  V30 4167 C 401.822 -2.95032 5.52003 0
M  V30 4168 H 402.055 -0.674435 2.89549 0
M  V30 4169 H 399.588 -0.23355 1.52623 0
M  V30 4170 H 401.546 -3.15562 2.62547 0
M  V30 4171 H 400.207 -2.74137 1.53323 0
M  V30 4172 H 399.4 -3.23854 3.86179 0
M  V30 4173 H 399.002 -1.56876 3.39508 0
M  V30 4174 H 401.294 -3.91357 5.53033 0
M  V30 4175 H 402.237 -2.75646 6.52246 0
M  V30 4176 H 402.645 -2.97865 4.79517 0
M  V30 4177 N 402.043 -1.548 -0.295768 0
M  V30 4178 C 403.292 -1.73538 -1.02798 0
M  V30 4179 C 403.605 -0.531159 -1.8825 0
M  V30 4180 O 404.811 -0.600458 -2.64777 0
M  V30 4181 C 403.267 -3.07051 -1.87744 0
M  V30 4182 C 402.875 -4.34968 -1.07269 0
M  V30 4183 C 404.619 -3.35146 -2.60533 0
M  V30 4184 C 402.526 -5.5953 -1.91521 0
M  V30 4185 H 401.456 -0.646794 -0.387522 0
M  V30 4186 H 404.107 -1.81278 -0.284718 0
M  V30 4187 H 402.489 -2.93289 -2.66078 0
M  V30 4188 H 403.663 -4.5958 -0.335117 0
M  V30 4189 H 401.978 -4.13847 -0.460384 0
M  V30 4190 H 404.575 -4.2541 -3.23929 0
M  V30 4191 H 404.918 -2.54255 -3.29636 0
M  V30 4192 H 405.451 -3.49902 -1.89244 0
M  V30 4193 H 402.19 -6.43103 -1.26878 0
M  V30 4194 H 401.71 -5.39096 -2.62937 0
M  V30 4195 H 403.389 -5.96982 -2.49442 0
M  V30 4196 N 403.521 0.559213 -1.47345 0
M  V30 4197 C 404.484 1.64854 -1.59235 0
M  V30 4198 C 405.484 1.53851 -0.467607 0
M  V30 4199 O 406.674 1.58045 -0.732617 0
M  V30 4200 C 403.806 3.04388 -1.53496 0
M  V30 4201 H 404.999 1.55662 -2.56339 0
M  V30 4202 H 402.552 0.778973 -1.35505 0
M  V30 4203 H 403.287 3.19115 -0.577604 0
M  V30 4204 H 403.072 3.13783 -2.35123 0
M  V30 4205 H 404.562 3.83642 -1.6495 0
M  V30 4206 N 404.999 1.35443 0.805782 0
M  V30 4207 C 406.248 1.28097 1.55801 0
M  V30 4208 C 406.561 -0.142428 1.95081 0
M  V30 4209 O 407.767 -0.33817 2.69386 0
M  V30 4210 C 406.223 2.24653 2.81174 0
M  V30 4211 C 405.831 3.72342 2.49129 0
M  V30 4212 C 407.575 2.2625 3.59181 0
M  V30 4213 C 405.482 4.60719 3.70799 0
M  V30 4214 H 404.412 0.475937 0.584808 0
M  V30 4215 H 407.063 1.60712 0.885661 0
M  V30 4216 H 405.445 1.85011 3.50124 0
M  V30 4217 H 406.619 4.20624 1.88181 0
M  V30 4218 H 404.934 3.73361 1.84366 0
M  V30 4219 H 407.531 2.89495 4.49552 0
M  V30 4220 H 407.874 1.26647 3.96568 0
M  V30 4221 H 408.407 2.64426 2.97193 0
M  V30 4222 H 405.146 5.61324 3.3852 0
M  V30 4223 H 404.666 4.17163 4.3097 0
M  V30 4224 H 406.345 4.76182 4.38018 0
M  V30 4225 N 406.477 -1.02803 1.19454 0
M  V30 4226 C 407.893 -1.28473 0.946937 0
M  V30 4227 C 408.093 -1.97881 -0.380202 0
M  V30 4228 O 407.149 -2.26719 -1.11151 0
M  V30 4229 C 408.462 -2.13099 2.12154 0
M  V30 4230 C 410.01 -2.26404 2.16126 0
M  V30 4231 C 410.485 -3.14402 3.33039 0
M  V30 4232 N 411.976 -3.21991 3.32981 0
M  V30 4233 C 412.711 -3.90272 4.20089 0
M  V30 4234 N 412.207 -4.60777 5.17355 0
M  V30 4235 N 414 -3.8668 4.07964 0
M  V30 4236 H 406.151 -0.561665 2.04839 0
M  V30 4237 H 408.414 -0.310438 0.89573 0
M  V30 4238 H 408.12 -1.69422 3.08203 0
M  V30 4239 H 407.994 -3.13813 2.09287 0
M  V30 4240 H 410.381 -2.69311 1.20647 0
M  V30 4241 H 410.462 -1.25237 2.23045 0
M  V30 4242 H 410.106 -2.72204 4.28798 0
M  V30 4243 H 410.036 -4.1563 3.23356 0
M  V30 4244 H 412.527 -2.71778 2.62574 0
M  V30 4245 H 412.84 -5.10513 5.80169 0
M  V30 4246 H 411.185 -4.5964 5.21302 0
M  V30 4247 H 414.376 -3.30739 3.31254 0
M  V30 4248 H 414.549 -4.39621 4.76064 0
M  V30 4249 N 407.956 -0.998596 -1.21925 0
M  V30 4250 C 408.903 -0.553621 -2.24062 0
M  V30 4251 C 409.873 0.416999 -1.6078 0
M  V30 4252 O 411.058 0.320482 -1.88089 0
M  V30 4253 C 408.198 0.119959 -3.44891 0
M  V30 4254 C 407.311 -0.893077 -4.22668 0
M  V30 4255 C 406.446 -0.192424 -5.30851 0
M  V30 4256 C 405.485 -1.19344 -6.00353 0
M  V30 4257 N 404.622 -0.520707 -7.00166 0
M  V30 4258 H 409.462 -1.4293 -2.61486 0
M  V30 4259 H 406.999 -0.715838 -1.28507 0
M  V30 4260 H 408.957 0.527459 -4.13852 0
M  V30 4261 H 407.587 0.959389 -3.08214 0
M  V30 4262 H 406.639 -1.41886 -3.52948 0
M  V30 4263 H 407.951 -1.65512 -4.70539 0
M  V30 4264 H 407.105 0.271515 -6.06092 0
M  V30 4265 H 405.844 0.602075 -4.83969 0
M  V30 4266 H 404.849 -1.66795 -5.23889 0
M  V30 4267 H 406.074 -1.98891 -6.49322 0
M  V30 4268 H 404.02 0.254252 -6.55507 0
M  V30 4269 H 403.937 -1.2211 -7.46073 0
M  V30 4270 H 405.205 -0.0797596 -7.79459 0
M  V30 4271 N 409.434 1.37368 -0.772513 0
M  V30 4272 C 410.85 1.53059 -0.452231 0
M  V30 4273 C 411.05 1.73065 1.03203 0
M  V30 4274 O 410.106 1.75245 1.81784 0
M  V30 4275 C 411.419 2.72659 -1.26797 0
M  V30 4276 C 412.967 2.86521 -1.25995 0
M  V30 4277 C 413.442 4.09105 -2.05905 0
M  V30 4278 N 414.933 4.16219 -2.03263 0
M  V30 4279 C 415.668 5.10107 -2.61875 0
M  V30 4280 N 415.164 6.09547 -3.29278 0
M  V30 4281 N 416.957 5.02596 -2.51701 0
M  V30 4282 H 409.108 1.22634 -1.7342 0
M  V30 4283 H 411.371 0.597206 -0.736239 0
M  V30 4284 H 411.077 2.64343 -2.31982 0
M  V30 4285 H 410.951 3.66363 -0.897672 0
M  V30 4286 H 413.338 2.94308 -0.216081 0
M  V30 4287 H 413.419 1.93774 -1.66989 0
M  V30 4288 H 413.063 4.0208 -3.10313 0
M  V30 4289 H 412.993 5.00968 -1.62292 0
M  V30 4290 H 415.484 3.45012 -1.54192 0
M  V30 4291 H 415.797 6.77718 -3.71374 0
M  V30 4292 H 414.142 6.09824 -3.33377 0
M  V30 4293 H 417.333 4.23855 -1.98657 0
M  V30 4294 H 417.506 5.75582 -2.97673 0
M  V30 4295 N 410.912 0.523116 1.48665 0
M  V30 4296 C 411.844 -0.280421 2.27478 0
M  V30 4297 C 412.857 -0.910694 1.34945 0
M  V30 4298 O 414.046 -0.790295 1.60052 0
M  V30 4299 C 411.146 -1.41171 3.08097 0
M  V30 4300 C 410.319 -0.884642 4.28361 0
M  V30 4301 C 409.378 -1.89622 4.90846 0
M  V30 4302 O 408.404 -1.4559 5.50265 0
M  V30 4303 N 409.606 -3.22801 4.82472 0
M  V30 4304 H 412.371 0.395481 2.97079 0
M  V30 4305 H 409.932 0.357018 1.57915 0
M  V30 4306 H 411.924 -2.08645 3.4677 0
M  V30 4307 H 410.494 -1.99139 2.40961 0
M  V30 4308 H 409.714 -0.0341177 3.94185 0
M  V30 4309 H 411.002 -0.511268 5.06225 0
M  V30 4310 H 410.4 -3.61246 4.35336 0
M  V30 4311 H 408.957 -3.85927 5.25265 0
M  V30 4312 N 412.39 -1.55475 0.257931 0
M  V30 4313 C 413.801 -1.8511 -0.243135 0
M  V30 4314 C 414.152 -1.17986 -1.5676 0
M  V30 4315 O 413.277 -0.462102 -2.11409 0
M  V30 4316 C 413.872 -3.35826 -0.447929 0
M  V30 4317 C 412.431 -3.65647 -0.893245 0
M  V30 4318 C 411.578 -2.7729 0.0232965 0
M  V30 4319 H 414.529 -1.51261 0.480199 0
M  V30 4320 H 414.55 -3.58002 -1.28898 0
M  V30 4321 H 414.062 -3.84652 0.516196 0
M  V30 4322 H 412.163 -3.22308 -1.86945 0
M  V30 4323 H 412.276 -4.73312 -0.742469 0
M  V30 4324 H 410.64 -2.49942 -0.490021 0
M  V30 4325 H 411.423 -3.28926 0.982994 0
M  V30 4326 N 413.868 0.0150385 -1.57593 0
M  V30 4327 C 414.778 1.02791 -2.10882 0
M  V30 4328 C 415.794 1.38702 -1.0506 0
M  V30 4329 O 416.97 1.47739 -1.36877 0
M  V30 4330 C 414.035 2.30568 -2.58919 0
M  V30 4331 C 413.096 2.01108 -3.79281 0
M  V30 4332 C 412.329 3.22794 -4.25018 0
M  V30 4333 O 412.552 4.33959 -3.70183 0
M  V30 4334 O 411.486 3.07672 -5.17322 0
M  V30 4335 H 415.312 0.604973 -2.97613 0
M  V30 4336 H 412.897 0.23292 -1.47573 0
M  V30 4337 H 414.779 3.05662 -2.90084 0
M  V30 4338 H 413.454 2.72129 -1.75293 0
M  V30 4339 H 412.361 1.23537 -3.53114 0
M  V30 4340 H 413.694 1.64394 -4.63935 0
M  V30 4341 N 415.346 1.54954 0.287554 0
M  V30 4342 C 416.256 1.8991 1.37736 0
M  V30 4343 C 417.272 0.794701 1.54792 0
M  V30 4344 O 418.448 1.09243 1.69198 0
M  V30 4345 C 415.513 2.15108 2.71899 0
M  V30 4346 C 414.574 3.38752 2.63715 0
M  V30 4347 C 413.807 3.62739 3.91479 0
M  V30 4348 O 414.03 2.89492 4.91478 0
M  V30 4349 O 412.964 4.56267 3.92561 0
M  V30 4350 H 416.79 2.82652 1.11092 0
M  V30 4351 H 414.375 1.41315 0.484807 0
M  V30 4352 H 416.257 2.32806 3.51254 0
M  V30 4353 H 414.932 1.25551 2.9836 0
M  V30 4354 H 413.839 3.26405 1.82786 0
M  V30 4355 H 415.172 4.28483 2.42205 0
M  V30 4356 N 416.824 -0.551391 1.4764 0
M  V30 4357 C 418.052 -1.33357 1.58189 0
M  V30 4358 C 418.467 -1.87342 0.234199 0
M  V30 4359 O 417.824 -1.65301 -0.77343 0
M  V30 4360 C 417.875 -2.49942 2.61173 0
M  V30 4361 O 417.596 -1.98187 3.90709 0
M  V30 4362 C 419.097 -3.42072 2.8196 0
M  V30 4363 H 416.317 -0.40631 0.533998 0
M  V30 4364 H 418.861 -0.667367 1.93304 0
M  V30 4365 H 417.016 -3.12489 2.28975 0
M  V30 4366 H 417.43 -2.74342 4.47031 0
M  V30 4367 H 418.904 -4.20278 3.57869 0
M  V30 4368 H 419.381 -3.95978 1.89995 0
M  V30 4369 H 419.987 -2.85336 3.15378 0
M  V30 4370 N 418.302 -1.35869 -0.798587 0
M  V30 4371 C 419.25 -1.29491 -1.93222 0
M  V30 4372 C 420.244 -0.18836 -1.6835 0
M  V30 4373 O 421.45 -0.354822 -1.76468 0
M  V30 4374 H 417.825 -0.402901 -0.63496 0
M  V30 4375 H 419.796 -2.25247 -1.9572 0
M  V30 4376 C 418.545 -1.09184 -3.30112 0
M  V30 4377 H 417.868 -1.93574 -3.49813 0
M  V30 4378 H 419.308 -1.08766 -4.09812 0
M  V30 4379 C 417.767 0.203959 -3.36282 0
M  V30 4380 O 418.297 1.19699 -3.83451 0
M  V30 4381 N 416.503 0.245488 -2.89561 0
M  V30 4382 H 416.05 -0.563223 -2.51367 0
M  V30 4383 H 416.008 1.11219 -2.94071 0
M  V30 4384 N 419.78 1.02168 -1.19998 0
M  V30 4385 C 420.728 2.12717 -0.940967 0
M  V30 4386 C 421.722 1.69069 0.105841 0
M  V30 4387 O 422.928 1.79946 -0.0440583 0
M  V30 4388 H 419.303 0.695108 -0.28693 0
M  V30 4389 H 421.274 2.3175 -1.87975 0
M  V30 4390 C 420.023 3.44027 -0.504049 0
M  V30 4391 H 419.346 3.78036 -1.30112 0
M  V30 4392 H 420.786 4.22452 -0.361991 0
M  V30 4393 C 419.245 3.27678 0.782878 0
M  V30 4394 O 419.775 3.56949 1.84256 0
M  V30 4395 N 417.981 2.80943 0.742921 0
M  V30 4396 H 417.528 2.57322 -0.119687 0
M  V30 4397 H 417.486 2.70385 1.60435 0
M  V30 4398 N 421.258 1.00505 1.21394 0
M  V30 4399 C 422.535 0.603277 1.86064 0
M  V30 4400 C 422.915 -0.919095 1.90042 0
M  V30 4401 O 422.263 -1.80607 1.39977 0
M  V30 4402 C 422.473 1.23772 3.26315 0
M  V30 4403 C 423.821 1.34586 4.02705 0
M  V30 4404 O 424.845 1.19304 3.35626 0
M  V30 4405 O 423.704 1.59169 5.22807 0
M  V30 4406 H 420.798 0.206634 0.800769 0
M  V30 4407 H 423.344 1.1017 1.29076 0
M  V30 4408 H 422.116 2.27848 3.18121 0
M  V30 4409 H 421.739 0.725648 3.90922 0
M  V30 4410 N 422.737 -1.36956 0.779787 0
M  V30 4411 C 423.967 -2.03459 0.358877 0
M  V30 4412 C 424.375 -1.58939 -1.02641 0
M  V30 4413 O 423.718 -0.769777 -1.66794 0
M  V30 4414 C 423.78 -3.5796 0.332393 0
M  V30 4415 C 423.444 -4.25644 1.66362 0
M  V30 4416 C 424.441 -4.49205 2.61746 0
M  V30 4417 C 422.126 -4.63313 1.94027 0
M  V30 4418 C 424.12 -5.09503 3.82996 0
M  V30 4419 C 421.807 -5.2333 3.15546 0
M  V30 4420 C 422.805 -5.46363 4.0985 0
M  V30 4421 O 422.493 -6.05122 5.29228 0
M  V30 4422 H 422.225 -0.659767 0.147254 0
M  V30 4423 H 424.779 -1.76111 1.05708 0
M  V30 4424 H 423.009 -3.84388 -0.422237 0
M  V30 4425 H 424.698 -4.05852 -0.0625389 0
M  V30 4426 H 425.464 -4.20508 2.41657 0
M  V30 4427 H 421.343 -4.44715 1.21448 0
M  V30 4428 H 424.887 -5.27397 4.56617 0
M  V30 4429 H 420.784 -5.51451 3.35517 0
M  V30 4430 H 421.552 -6.23595 5.30161 0
M  V30 4431 N 424.215 -0.530993 -1.48385 0
M  V30 4432 C 425.125 0.23503 -2.3342 0
M  V30 4433 C 426.141 0.93801 -1.46552 0
M  V30 4434 O 427.317 0.912745 -1.7953 0
M  V30 4435 C 424.382 1.26778 -3.22689 0
M  V30 4436 C 423.443 0.575038 -4.25431 0
M  V30 4437 C 422.676 1.55858 -5.10435 0
M  V30 4438 O 422.899 2.79129 -4.97437 0
M  V30 4439 O 421.833 1.09742 -5.91811 0
M  V30 4440 H 425.659 -0.461794 -3.00169 0
M  V30 4441 H 423.244 -0.291903 -1.46521 0
M  V30 4442 H 425.126 1.86457 -3.77904 0
M  V30 4443 H 423.801 1.94699 -2.586 0
M  V30 4444 H 422.708 -0.0622782 -3.74048 0
M  V30 4445 H 424.041 -0.062253 -4.92161 0
M  V30 4446 N 425.693 1.55336 -0.266172 0
M  V30 4447 C 426.921 2.03801 0.356756 0
M  V30 4448 C 427.336 1.14485 1.50129 0
M  V30 4449 O 426.693 0.163121 1.8177 0
M  V30 4450 C 426.744 3.51455 0.846281 0
M  V30 4451 O 426.465 4.37371 -0.252663 0
M  V30 4452 C 427.966 4.15767 1.53794 0
M  V30 4453 H 425.186 0.665906 0.0825218 0
M  V30 4454 H 427.73 2.00636 -0.39566 0
M  V30 4455 H 425.885 3.55092 1.54881 0
M  V30 4456 H 426.299 5.24358 0.122173 0
M  V30 4457 H 427.773 5.20714 1.83198 0
M  V30 4458 H 428.25 3.63404 2.46646 0
M  V30 4459 H 428.856 4.16107 0.879488 0
M  V30 4460 N 427.171 -0.0066808 1.57599 0
M  V30 4461 C 428.134 -0.985035 2.06953 0
M  V30 4462 C 429.134 -1.27663 0.977687 0
M  V30 4463 O 430.324 -1.22293 1.24057 0
M  V30 4464 C 427.456 -2.3118 2.50536 0
M  V30 4465 H 428.649 -0.558255 2.94658 0
M  V30 4466 H 426.202 -0.254011 1.54222 0
M  V30 4467 H 426.937 -2.78561 1.66054 0
M  V30 4468 H 426.722 -2.11338 3.3027 0
M  V30 4469 H 428.212 -3.01377 2.8907 0
M  V30 4470 N 428.649 -1.55105 -0.279332 0
M  V30 4471 C 429.926 -1.66119 -1.03267 0
M  V30 4472 C 430.306 -0.523525 -2.04505 0
M  V30 4473 O 429.654 0.477194 -2.23462 0
M  V30 4474 C 429.864 -3.05067 -1.69515 0
M  V30 4475 C 431.212 -3.62606 -2.20912 0
M  V30 4476 O 432.236 -3.07659 -1.79512 0
M  V30 4477 O 431.095 -4.58861 -2.96831 0
M  V30 4478 H 428.189 -0.674429 -0.478618 0
M  V30 4479 H 430.735 -1.67446 -0.275694 0
M  V30 4480 H 429.507 -3.79311 -0.9612 0
M  V30 4481 H 429.13 -3.07611 -2.51915 0
M  V30 4482 N 430.127 0.543554 -1.4793 0
M  V30 4483 C 431.375 1.29752 -1.54948 0
M  V30 4484 C 431.696 1.93764 -0.219242 0
M  V30 4485 O 430.966 1.80639 0.75805 0
M  V30 4486 H 429.546 0.481874 -0.570795 0
M  V30 4487 H 432.208 0.633636 -1.84312 0
M  V30 4488 H 431.304 2.08392 -2.32334 0
M  V30 4489 N 431.605 1.3629 0.791371 0
M  V30 4490 C 432.853 1.30154 1.5461 0
M  V30 4491 C 433.174 -0.119409 1.94634 0
M  V30 4492 O 432.444 -1.05924 1.64794 0
M  V30 4493 H 431.024 0.478784 0.573389 0
M  V30 4494 H 433.686 1.70565 0.94306 0
M  V30 4495 H 432.782 1.92762 2.45457 0
M  V30 4496 N 433.083 -1.0153 1.20538 0
M  V30 4497 C 434.313 -1.78487 1.04048 0
M  V30 4498 C 434.721 -1.84631 -0.413292 0
M  V30 4499 O 434.064 -1.29919 -1.29872 0
M  V30 4500 C 434.126 -3.24367 1.55003 0
M  V30 4501 C 433.79 -3.41827 3.0332 0
M  V30 4502 C 434.787 -3.30941 4.00966 0
M  V30 4503 C 432.472 -3.67602 3.42307 0
M  V30 4504 C 434.466 -3.45577 5.35589 0
M  V30 4505 C 432.153 -3.81881 4.77085 0
M  V30 4506 C 433.151 -3.70874 5.73534 0
M  V30 4507 O 432.839 -3.84714 7.05868 0
M  V30 4508 H 432.571 -0.568108 0.366373 0
M  V30 4509 H 435.125 -1.28677 1.60098 0
M  V30 4510 H 433.355 -3.75266 0.933397 0
M  V30 4511 H 435.044 -3.82963 1.34514 0
M  V30 4512 H 435.81 -3.10964 3.72191 0
M  V30 4513 H 431.689 -3.75256 2.67776 0
M  V30 4514 H 435.233 -3.36902 6.10854 0
M  V30 4515 H 431.13 -4.01359 5.0555 0
M  V30 4516 H 431.898 -4.01724 7.13134 0
M  V30 4517 N 434.561 -1.01147 -1.20859 0
M  V30 4518 C 435.494 -0.522108 -2.22147 0
M  V30 4519 C 436.472 0.427686 -1.56874 0
M  V30 4520 O 437.656 0.34889 -1.85243 0
M  V30 4521 C 434.783 0.240819 -3.37843 0
M  V30 4522 C 433.829 -0.657752 -4.21398 0
M  V30 4523 S 434.662 -2.12393 -4.91578 0
M  V30 4524 C 435.818 -1.37102 -6.10699 0
M  V30 4525 H 436.051 -1.38035 -2.63313 0
M  V30 4526 H 433.584 -0.819941 -1.30829 0
M  V30 4527 H 435.542 0.674908 -4.04914 0
M  V30 4528 H 434.203 1.07457 -2.95147 0
M  V30 4529 H 433.396 -0.0697456 -5.03952 0
M  V30 4530 H 432.998 -1.0294 -3.59555 0
M  V30 4531 H 435.29 -0.648315 -6.74391 0
M  V30 4532 H 436.233 -2.17252 -6.73949 0
M  V30 4533 H 436.641 -0.876154 -5.57659 0
M  V30 4534 N 436.039 1.36541 -0.78704 0
M  V30 4535 C 437.267 2.03561 -0.370199 0
M  V30 4536 C 437.682 1.59347 1.01263 0
M  V30 4537 O 437.039 0.781781 1.64907 0
M  V30 4538 C 437.09 3.59033 -0.421614 0
M  V30 4539 O 436.811 4.01634 -1.7499 0
M  V30 4540 C 438.312 4.433 0.00489763 0
M  V30 4541 H 435.532 0.653346 -0.152904 0
M  V30 4542 H 438.076 1.74566 -1.06522 0
M  V30 4543 H 436.231 3.86746 0.224971 0
M  V30 4544 H 436.645 4.96217 -1.69909 0
M  V30 4545 H 438.119 5.51939 -0.0822184 0
M  V30 4546 H 438.596 4.26285 1.05723 0
M  V30 4547 H 439.202 4.20843 -0.614085 0
M  V30 4548 N 437.518 0.538854 1.48102 0
M  V30 4549 C 438.448 -0.207654 2.32575 0
M  V30 4550 C 439.429 -0.926559 1.4265 0
M  V30 4551 O 440.614 -0.91061 1.71527 0
M  V30 4552 C 437.744 -1.24957 3.24042 0
M  V30 4553 C 436.698 -0.648263 4.23062 0
M  V30 4554 C 436.024 -1.79348 5.03725 0
M  V30 4555 C 437.324 0.385897 5.20872 0
M  V30 4556 H 439.018 0.497534 2.95237 0
M  V30 4557 H 436.564 0.240715 1.41974 0
M  V30 4558 H 438.517 -1.77983 3.81969 0
M  V30 4559 H 437.241 -1.98446 2.59397 0
M  V30 4560 H 435.9 -0.139452 3.66335 0
M  V30 4561 H 435.548 -2.51696 4.35498 0
M  V30 4562 H 435.248 -1.39702 5.70751 0
M  V30 4563 H 436.772 -2.32735 5.64506 0
M  V30 4564 H 438.186 -0.057607 5.73271 0
M  V30 4565 H 436.583 0.700227 5.96001 0
M  V30 4566 H 437.653 1.28848 4.67468 0
M  V30 4567 N 438.996 -1.55193 0.274407 0
M  V30 4568 C 439.944 -2.23924 -0.629362 0
M  V30 4569 C 440.938 -1.23602 -1.1584 0
M  V30 4570 O 442.144 -1.41535 -1.11211 0
M  V30 4571 H 438.519 -0.718637 -0.221507 0
M  V30 4572 H 440.49 -2.98388 -0.0268322 0
M  V30 4573 C 439.239 -2.97329 -1.80252 0
M  V30 4574 H 438.562 -3.74313 -1.40462 0
M  V30 4575 H 440.002 -3.48743 -2.41152 0
M  V30 4576 C 438.461 -2.0276 -2.69054 0
M  V30 4577 O 438.991 -1.57836 -3.69392 0
M  V30 4578 N 437.197 -1.69275 -2.36208 0
M  V30 4579 H 436.744 -2.06004 -1.54661 0
M  V30 4580 H 436.702 -1.06271 -2.95895 0
M  V30 4581 N 440.474 -0.00167713 -1.576 0
M  V30 4582 C 441.885 0.54091 -1.78693 0
M  V30 4583 C 442.236 1.7386 -0.909247 0
M  V30 4584 O 441.361 2.16109 -0.112176 0
M  V30 4585 C 441.956 0.98806 -3.24072 0
M  V30 4586 C 440.515 1.47594 -3.46256 0
M  V30 4587 C 439.662 0.42792 -2.73978 0
M  V30 4588 H 442.613 -0.22784 -1.57056 0
M  V30 4589 H 442.634 1.85398 -3.32277 0
M  V30 4590 H 442.146 0.116164 -3.87926 0
M  V30 4591 H 440.247 2.36868 -2.87618 0
M  V30 4592 H 440.36 1.50225 -4.54939 0
M  V30 4593 H 438.724 0.889934 -2.38647 0
M  V30 4594 H 439.507 -0.435038 -3.40532 0
M  V30 4595 N 441.952 1.55251 0.271103 0
M  V30 4596 C 443.368 1.47133 0.618393 0
M  V30 4597 C 443.568 0.686994 1.89427 0
M  V30 4598 O 442.624 0.206609 2.51653 0
M  V30 4599 C 443.937 2.91361 0.743593 0
M  V30 4600 C 445.485 3.01587 0.837522 0
M  V30 4601 C 445.96 4.47073 0.994483 0
M  V30 4602 N 447.451 4.50909 1.05996 0
M  V30 4603 C 448.186 5.60698 1.20024 0
M  V30 4604 N 447.682 6.80348 1.30759 0
M  V30 4605 N 449.475 5.48444 1.23149 0
M  V30 4606 H 441.626 2.04698 -0.566784 0
M  V30 4607 H 443.889 0.928319 -0.192165 0
M  V30 4608 H 443.595 3.51483 -0.123493 0
M  V30 4609 H 443.469 3.40484 1.62328 0
M  V30 4610 H 445.856 2.4156 1.69507 0
M  V30 4611 H 445.937 2.55713 -0.0668086 0
M  V30 4612 H 445.581 5.07703 0.141582 0
M  V30 4613 H 445.511 4.90605 1.91349 0
M  V30 4614 H 448.002 3.6472 0.989316 0
M  V30 4615 H 448.315 7.59772 1.41303 0
M  V30 4616 H 446.66 6.83156 1.27761 0
M  V30 4617 H 449.851 4.53907 1.14394 0
M  V30 4618 H 450.024 6.34049 1.33738 0
M  V30 4619 N 443.43 -0.535701 1.48216 0
M  V30 4620 C 444.393 -1.623 1.61838 0
M  V30 4621 C 445.393 -1.53087 0.492024 0
M  V30 4622 O 446.583 -1.5686 0.757668 0
M  V30 4623 C 443.715 -3.01907 1.58319 0
M  V30 4624 H 444.908 -1.51564 2.58783 0
M  V30 4625 H 442.461 -0.757317 1.36727 0
M  V30 4626 H 443.196 -3.18155 0.628299 0
M  V30 4627 H 442.981 -3.10003 2.40085 0
M  V30 4628 H 444.471 -3.80969 1.71033 0
M  V30 4629 N 444.908 -1.36708 -0.784132 0
M  V30 4630 C 446.319 -1.27947 -1.35965 0
M  V30 4631 C 446.67 0.0784013 -1.96043 0
M  V30 4632 O 445.795 0.979989 -1.92938 0
M  V30 4633 C 446.39 -2.31689 -2.47195 0
M  V30 4634 C 444.949 -2.26601 -3.00548 0
M  V30 4635 C 444.096 -2.16184 -1.73666 0
M  V30 4636 H 447.047 -1.4751 -0.585358 0
M  V30 4637 H 447.068 -1.95638 -3.26352 0
M  V30 4638 H 446.58 -3.30506 -2.03439 0
M  V30 4639 H 444.681 -1.31268 -3.48711 0
M  V30 4640 H 444.794 -3.19508 -3.57004 0
M  V30 4641 H 443.158 -1.62524 -1.96107 0
M  V30 4642 H 443.941 -3.16896 -1.32031 0
M  V30 4643 N 446.386 1.0089 -1.21074 0
M  V30 4644 C 447.614 1.78191 -1.05145 0
M  V30 4645 C 448.029 1.84537 0.398952 0
M  V30 4646 O 447.386 1.30393 1.27687 0
M  V30 4647 C 447.437 3.22288 -1.63746 0
M  V30 4648 O 447.158 3.16315 -3.03111 0
M  V30 4649 C 448.659 4.16106 -1.52875 0
M  V30 4650 H 445.879 0.560129 -0.369454 0
M  V30 4651 H 448.423 1.26945 -1.60328 0
M  V30 4652 H 446.578 3.70655 -1.12664 0
M  V30 4653 H 446.992 4.06817 -3.31059 0
M  V30 4654 H 448.466 5.15026 -1.98626 0
M  V30 4655 H 448.943 4.36541 -0.482521 0
M  V30 4656 H 449.549 3.73625 -2.03185 0
M  V30 4657 N 447.864 1.01787 1.20321 0
M  V30 4658 C 449.141 0.622978 1.85414 0
M  V30 4659 C 449.521 -0.898887 1.91006 0
M  V30 4660 O 448.869 -1.79112 1.41884 0
M  V30 4661 C 449.079 1.27226 3.24984 0
M  V30 4662 C 450.427 1.3885 4.01255 0
M  V30 4663 O 451.451 1.22857 3.34342 0
M  V30 4664 O 450.31 1.64705 5.2109 0
M  V30 4665 H 447.404 0.215116 0.798533 0
M  V30 4666 H 449.95 1.11533 1.27901 0
M  V30 4667 H 448.722 2.31209 3.15687 0
M  V30 4668 H 448.345 0.767069 3.90131 0
M  V30 4669 N 449.342 -1.36122 0.79427 0
M  V30 4670 C 450.619 -1.93398 0.292685 0
M  V30 4671 C 450.999 -1.72567 -1.21589 0
M  V30 4672 O 450.347 -1.08745 -2.00965 0
M  V30 4673 C 450.557 -3.42099 0.690614 0
M  V30 4674 C 451.905 -4.19231 0.673105 0
M  V30 4675 O 452.929 -3.50559 0.631389 0
M  V30 4676 O 451.788 -5.41732 0.720362 0
M  V30 4677 H 448.882 -0.823712 0.0736693 0
M  V30 4678 H 451.428 -1.45273 0.87714 0
M  V30 4679 H 450.2 -3.50938 1.73085 0
M  V30 4680 H 449.823 -3.97519 0.0803036 0
M  V30 4681 N 450.82 -0.546701 -1.47814 0
M  V30 4682 C 452.097 0.0464413 -1.95545 0
M  V30 4683 C 452.477 1.4962 -1.48919 0
M  V30 4684 O 451.825 2.16752 -0.723232 0
M  V30 4685 C 452.035 -0.0881298 -3.48889 0
M  V30 4686 C 453.383 0.0626059 -4.24554 0
M  V30 4687 O 454.407 -0.0151555 -3.56197 0
M  V30 4688 O 453.266 0.228071 -5.46024 0
M  V30 4689 H 450.36 0.0700004 -0.824032 0
M  V30 4690 H 452.906 -0.612482 -1.58262 0
M  V30 4691 H 451.678 -1.09737 -3.75597 0
M  V30 4692 H 451.301 0.608886 -3.9291 0
M  V30 4693 N 452.299 1.55045 -0.282633 0
M  V30 4694 C 453.246 2.22822 0.601566 0
M  V30 4695 C 454.216 1.20431 1.14392 0
M  V30 4696 O 455.401 1.48996 1.19184 0
M  V30 4697 C 452.541 2.95873 1.77632 0
M  V30 4698 C 451.654 4.12999 1.26711 0
M  V30 4699 C 450.789 4.73676 2.40426 0
M  V30 4700 C 449.828 5.82981 1.86545 0
M  V30 4701 N 448.965 6.3769 2.93762 0
M  V30 4702 H 453.805 2.97995 0.0169528 0
M  V30 4703 H 451.342 1.471 -0.00339964 0
M  V30 4704 H 453.3 3.36447 2.46697 0
M  V30 4705 H 451.93 2.2311 2.33285 0
M  V30 4706 H 450.982 3.77494 0.469314 0
M  V30 4707 H 452.294 4.91803 0.832518 0
M  V30 4708 H 451.448 5.17008 3.17471 0
M  V30 4709 H 450.187 3.94164 2.87203 0
M  V30 4710 H 449.192 5.39092 1.07983 0
M  V30 4711 H 450.417 6.64366 1.40694 0
M  V30 4712 H 448.363 5.61069 3.39908 0
M  V30 4713 H 448.28 7.11788 2.54744 0
M  V30 4714 H 449.548 6.8568 3.7076 0
M  V30 4715 N 453.777 0.010035 1.57597 0
M  V30 4716 C 454.725 -0.996272 2.10184 0
M  V30 4717 C 455.719 -1.34942 1.02406 0
M  V30 4718 O 456.925 -1.33389 1.20861 0
M  V30 4719 H 453.3 -0.338982 0.671264 0
M  V30 4720 H 455.271 -0.527272 2.93705 0
M  V30 4721 C 454.02 -2.27599 2.62857 0
M  V30 4722 H 453.343 -2.01295 3.45428 0
M  V30 4723 H 454.783 -2.96265 3.0332 0
M  V30 4724 C 453.242 -2.99269 1.54725 0
M  V30 4725 O 453.772 -3.90644 0.93597 0
M  V30 4726 N 451.978 -2.61269 1.27228 0
M  V30 4727 H 451.525 -1.87043 1.77123 0
M  V30 4728 H 451.483 -3.09534 0.550999 0
M  V30 4729 N 455.255 -1.55392 -0.262866 0
M  V30 4730 C 456.504 -1.75679 -0.990943 0
M  V30 4731 C 456.817 -0.57097 -1.87081 0
M  V30 4732 O 458.023 -0.656486 -2.63444 0
M  V30 4733 C 456.479 -3.10964 -1.81188 0
M  V30 4734 C 456.087 -4.37146 -0.980188 0
M  V30 4735 C 457.831 -3.40597 -2.53365 0
M  V30 4736 C 455.738 -5.63466 -1.7961 0
M  V30 4737 H 454.668 -0.654868 -0.373716 0
M  V30 4738 H 457.319 -1.81841 -0.246203 0
M  V30 4739 H 455.701 -2.98867 -2.59797 0
M  V30 4740 H 456.875 -4.60187 -0.237558 0
M  V30 4741 H 455.19 -4.14731 -0.372497 0
M  V30 4742 H 457.787 -4.32186 -3.14833 0
M  V30 4743 H 458.13 -2.6119 -3.24169 0
M  V30 4744 H 458.663 -3.53838 -1.81779 0
M  V30 4745 H 455.402 -6.4565 -1.13209 0
M  V30 4746 H 454.922 -5.44552 -2.51443 0
M  V30 4747 H 456.601 -6.02139 -2.36723 0
M  V30 4748 N 456.733 0.527833 -1.48498 0
M  V30 4749 C 457.963 1.30633 -1.60058 0
M  V30 4750 C 458.371 1.87394 -0.260786 0
M  V30 4751 O 457.714 1.67227 0.760317 0
M  V30 4752 C 457.776 2.49361 -2.58958 0
M  V30 4753 C 457.44 2.13671 -4.03972 0
M  V30 4754 C 458.437 1.69217 -4.91591 0
M  V30 4755 C 456.122 2.24129 -4.49524 0
M  V30 4756 C 458.116 1.35689 -6.2279 0
M  V30 4757 C 455.803 1.90212 -5.80743 0
M  V30 4758 C 456.801 1.46063 -6.67199 0
M  V30 4759 O 456.489 1.12593 -7.95976 0
M  V30 4760 H 456.221 0.403444 -0.54241 0
M  V30 4761 H 458.775 0.643233 -1.95068 0
M  V30 4762 H 457.005 3.18659 -2.19073 0
M  V30 4763 H 458.694 3.11421 -2.6033 0
M  V30 4764 H 459.46 1.60607 -4.57636 0
M  V30 4765 H 455.339 2.57447 -3.82416 0
M  V30 4766 H 458.883 1.01157 -6.90227 0
M  V30 4767 H 454.78 1.98464 -6.14233 0
M  V30 4768 H 455.548 1.25972 -8.08748 0
M  V30 4769 N 458.211 1.37122 0.776871 0
M  V30 4770 C 459.141 1.35164 1.90402 0
M  V30 4771 C 460.122 0.221069 1.68657 0
M  V30 4772 O 461.307 0.420642 1.8959 0
M  V30 4773 C 458.437 1.15274 3.27611 0
M  V30 4774 C 457.391 2.25289 3.63908 0
M  V30 4775 C 456.717 1.90527 4.99603 0
M  V30 4776 C 458.017 3.67446 3.71188 0
M  V30 4777 H 459.711 2.29482 1.92297 0
M  V30 4778 H 457.257 1.10465 0.923773 0
M  V30 4779 H 459.21 1.12536 4.06096 0
M  V30 4780 H 457.934 0.174102 3.26136 0
M  V30 4781 H 456.593 2.27174 2.87728 0
M  V30 4782 H 456.241 0.91206 4.94662 0
M  V30 4783 H 455.941 2.64193 5.24858 0
M  V30 4784 H 457.465 1.89367 5.80493 0
M  V30 4785 H 458.879 3.67719 4.39836 0
M  V30 4786 H 457.276 4.40123 4.07936 0
M  V30 4787 H 458.346 4.01443 2.71977 0
M  V30 4788 N 459.689 -1.00246 1.21608 0
M  V30 4789 C 460.917 -1.77631 1.06089 0
M  V30 4790 C 461.332 -1.84746 -0.38916 0
M  V30 4791 O 460.689 -1.31068 -1.26994 0
M  V30 4792 C 460.74 -3.21415 1.65453 0
M  V30 4793 O 460.461 -3.14703 3.04785 0
M  V30 4794 C 461.962 -4.15289 1.55079 0
M  V30 4795 H 459.182 -0.558162 0.37242 0
M  V30 4796 H 461.726 -1.26093 1.60999 0
M  V30 4797 H 459.881 -3.70053 1.14629 0
M  V30 4798 H 460.295 -4.05056 3.33212 0
M  V30 4799 H 461.769 -5.13965 2.01355 0
M  V30 4800 H 462.246 -4.36279 0.505665 0
M  V30 4801 H 462.852 -3.72543 2.05163 0
M  V30 4802 N 461.167 -1.02423 -1.1978 0
M  V30 4803 C 462.097 -0.62157 -2.25075 0
M  V30 4804 C 463.078 0.367148 -1.6609 0
M  V30 4805 O 464.263 0.250892 -1.92573 0
M  V30 4806 C 461.393 0.0331826 -3.47284 0
M  V30 4807 C 460.347 -0.877323 -4.18912 0
M  V30 4808 C 459.673 -0.0879296 -5.34628 0
M  V30 4809 C 460.973 -2.18892 -4.74219 0
M  V30 4810 H 462.667 -1.50179 -2.59011 0
M  V30 4811 H 460.213 -0.723547 -1.24502 0
M  V30 4812 H 462.166 0.326488 -4.20133 0
M  V30 4813 H 460.89 0.948164 -3.12534 0
M  V30 4814 H 459.549 -1.15475 -3.47938 0
M  V30 4815 H 459.197 0.828941 -4.96123 0
M  V30 4816 H 458.897 -0.694359 -5.83483 0
M  V30 4817 H 460.421 0.198743 -6.10276 0
M  V30 4818 H 461.835 -1.95746 -5.38847 0
M  V30 4819 H 460.232 -2.74686 -5.33542 0
M  V30 4820 H 461.302 -2.84674 -3.92541 0
M  V30 4821 N 462.645 1.35699 -0.801477 0
M  V30 4822 C 464.056 1.81415 -0.441073 0
M  V30 4823 C 464.407 1.66595 1.03636 0
M  V30 4824 O 463.532 1.19369 1.80499 0
M  V30 4825 C 464.127 3.29369 -0.793819 0
M  V30 4826 C 462.686 3.73248 -0.486083 0
M  V30 4827 C 461.833 2.57775 -1.02213 0
M  V30 4828 H 464.784 1.23749 -0.993572 0
M  V30 4829 H 464.805 3.80395 -0.0894158 0
M  V30 4830 H 464.317 3.40123 -1.86917 0
M  V30 4831 H 462.418 3.68046 0.580735 0
M  V30 4832 H 462.531 4.68222 -1.01513 0
M  V30 4833 H 460.895 2.50788 -0.444712 0
M  V30 4834 H 461.678 2.71309 -2.10348 0
M  V30 4835 N 464.123 0.554532 1.47522 0
M  V30 4836 C 465.534 0.120446 1.86311 0
M  V30 4837 C 465.885 -1.30904 1.46145 0
M  V30 4838 O 465.01 -1.98434 0.863294 0
M  V30 4839 C 465.605 0.211808 3.38137 0
M  V30 4840 C 464.164 -0.167224 3.76028 0
M  V30 4841 C 463.311 0.560576 2.71575 0
M  V30 4842 H 466.262 0.764408 1.39077 0
M  V30 4843 H 466.283 -0.570275 3.76202 0
M  V30 4844 H 465.795 1.25232 3.6734 0
M  V30 4845 H 463.896 -1.20894 3.52442 0
M  V30 4846 H 464.009 0.189473 4.78725 0
M  V30 4847 H 462.373 0.00396836 2.547 0
M  V30 4848 H 463.156 1.60219 3.0362 0
M  V30 4849 N 465.601 -1.54893 0.290851 0
M  V30 4850 C 466.549 -2.24579 -0.605576 0
M  V30 4851 C 467.543 -1.24824 -1.14522 0
M  V30 4852 O 468.749 -1.42706 -1.09704 0
M  V30 4853 H 465.124 -0.720946 -0.213872 0
M  V30 4854 H 467.095 -2.984 0.0048173 0
M  V30 4855 C 465.844 -2.99224 -1.77088 0
M  V30 4856 H 465.167 -3.75782 -1.36484 0
M  V30 4857 H 466.607 -3.51281 -2.3744 0
M  V30 4858 C 465.066 -2.05602 -2.66888 0
M  V30 4859 O 465.596 -1.61745 -3.67698 0
M  V30 4860 N 463.802 -1.71771 -2.34399 0
M  V30 4861 H 463.349 -2.07633 -1.52468 0
M  V30 4862 H 463.307 -1.09403 -2.94751 0
M  V30 4863 N 467.08 -0.0183926 -1.57589 0
M  V30 4864 C 468.357 0.700621 -1.82622 0
M  V30 4865 C 468.737 1.90951 -0.90005 0
M  V30 4866 O 468.085 2.28452 0.0469145 0
M  V30 4867 C 468.295 1.08899 -3.31575 0
M  V30 4868 C 469.643 1.48514 -3.9778 0
M  V30 4869 O 470.667 1.18227 -3.36007 0
M  V30 4870 O 469.526 2.04903 -5.06633 0
M  V30 4871 H 466.62 0.342743 -0.752633 0
M  V30 4872 H 469.166 -0.0452548 -1.6964 0
M  V30 4873 H 467.938 0.228113 -3.90635 0
M  V30 4874 H 467.561 1.89338 -3.49624 0
M  V30 4875 N 468.558 1.5553 0.254621 0
M  V30 4876 C 469.508 1.86057 1.31783 0
M  V30 4877 C 470.492 0.720827 1.4385 0
M  V30 4878 O 471.684 0.982586 1.47222 0
M  V30 4879 C 468.813 2.15203 2.67475 0
M  V30 4880 C 467.899 3.35484 2.59444 0
M  V30 4881 N 468.29 4.54945 2.2104 0
M  V30 4882 C 466.588 3.38441 2.90472 0
M  V30 4883 C 467.289 5.3707 2.23453 0
M  V30 4884 N 466.265 4.75936 2.62652 0
M  V30 4885 H 470.067 2.75953 1.01129 0
M  V30 4886 H 467.581 1.55653 0.463255 0
M  V30 4887 H 469.578 2.35235 3.44195 0
M  V30 4888 H 468.238 1.26601 2.99002 0
M  V30 4889 H 469.249 4.8071 1.92712 0
M  V30 4890 H 465.926 2.60087 3.2659 0
M  V30 4891 H 467.316 6.42626 1.96166 0
M  V30 4892 N 470.036 -0.519951 1.48776 0
M  V30 4893 C 471.282 -1.27711 1.57536 0
M  V30 4894 C 471.615 -1.92547 0.252866 0
M  V30 4895 O 470.89 -1.7979 -0.742021 0
M  V30 4896 C 471.173 -2.35875 2.72094 0
M  V30 4897 C 471.026 -1.75664 4.1408 0
M  V30 4898 C 472.345 -3.37575 2.82367 0
M  V30 4899 H 469.464 -0.462971 0.573434 0
M  V30 4900 H 472.106 -0.578194 1.80989 0
M  V30 4901 H 470.256 -2.95488 2.52228 0
M  V30 4902 H 471.928 -1.20025 4.45412 0
M  V30 4903 H 470.171 -1.06154 4.20611 0
M  V30 4904 H 470.842 -2.54029 4.90075 0
M  V30 4905 H 473.318 -2.87929 3.00393 0
M  V30 4906 H 472.194 -4.1064 3.64233 0
M  V30 4907 H 472.455 -3.98743 1.90936 0
M  V30 4908 N 471.514 -1.37532 -0.769588 0
M  V30 4909 C 472.462 -1.33561 -1.90432 0
M  V30 4910 C 473.456 -0.224027 -1.67912 0
M  V30 4911 O 474.662 -0.392174 -1.75676 0
M  V30 4912 H 471.037 -0.416279 -0.626271 0
M  V30 4913 H 473.008 -2.29348 -1.90899 0
M  V30 4914 C 471.757 -1.16162 -3.27722 0
M  V30 4915 H 471.08 -2.00951 -3.45628 0
M  V30 4916 H 472.52 -1.17434 -4.07413 0
M  V30 4917 C 470.979 0.132583 -3.36639 0
M  V30 4918 O 471.509 1.11539 -3.85904 0
M  V30 4919 N 469.715 0.184013 -2.90017 0
M  V30 4920 H 469.262 -0.616415 -2.50116 0
M  V30 4921 H 469.22 1.04956 -2.96364 0
M  V30 4922 N 472.992 0.995999 -1.22138 0
M  V30 4923 C 474.217 1.77601 -1.0711 0
M  V30 4924 C 474.642 1.84339 0.374264 0
M  V30 4925 O 474 1.29359 1.27028 0
M  V30 4926 C 474.048 3.18897 -1.68336 0
M  V30 4927 O 473.152 4.01663 -0.934928 0
M  V30 4928 H 472.493 0.547011 -0.376397 0
M  V30 4929 H 475.023 1.25137 -1.6187 0
M  V30 4930 H 475.033 3.69539 -1.72931 0
M  V30 4931 H 473.708 3.13308 -2.73516 0
M  V30 4932 H 472.285 3.60204 -0.964751 0
M  V30 4933 N 474.47 1.03057 1.19235 0
M  V30 4934 C 475.418 0.606391 2.24557 0
M  V30 4935 C 476.412 -0.361826 1.65491 0
M  V30 4936 O 477.618 -0.23022 1.78522 0
M  V30 4937 H 473.993 0.177838 0.730669 0
M  V30 4938 H 475.964 1.50529 2.5765 0
M  V30 4939 C 474.713 -0.0252127 3.47691 0
M  V30 4940 H 474.036 0.710838 3.9343 0
M  V30 4941 H 475.476 -0.284931 4.23042 0
M  V30 4942 C 473.935 -1.27229 3.11953 0
M  V30 4943 O 474.465 -2.36416 3.24762 0
M  V30 4944 N 472.671 -1.16169 2.6637 0
M  V30 4945 H 472.218 -0.273189 2.56147 0
M  V30 4946 H 472.176 -1.99703 2.42829 0
M  V30 4947 N 475.948 -1.35272 0.808662 0
M  V30 4948 C 476.896 -2.31663 0.208606 0
M  V30 4949 C 477.89 -1.56731 -0.642778 0
M  V30 4950 O 479.096 -1.71843 -0.53571 0
M  V30 4951 H 475.471 -0.750421 0.0486993 0
M  V30 4952 H 477.442 -2.79814 1.03666 0
M  V30 4953 C 476.191 -3.42008 -0.626573 0
M  V30 4954 H 475.514 -3.99795 0.0192103 0
M  V30 4955 H 476.954 -4.11727 -1.01278 0
M  V30 4956 C 475.413 -2.85226 -1.79298 0
M  V30 4957 O 475.943 -2.78945 -2.89055 0
M  V30 4958 N 474.149 -2.42245 -1.60516 0
M  V30 4959 H 473.696 -2.47554 -0.712375 0
M  V30 4960 H 473.654 -2.04603 -2.38715 0
M  V30 4961 O 477.465 -0.703344 -1.4538 0
M  V30 4962 H 478.156 -0.244572 -1.9215 0
M  V30 END ATOM
M  V30 BEGIN BOND
M  V30 END BOND
M  V30 END CTAB
M  END
$$$$
