drugbank_target|P31946 14-3-3 protein beta/alpha (DB09130; DB12695)
 OpenBabel12092121053D

  0  0  0     0  0            999 V3000
M  V30 BEGIN CTAB
M  V30 COUNTS 3892 3919 0 0 0
M  V30 BEGIN ATOM
M  V30 1 H -0.908 1.98254 -0.117106 0
M  V30 2 N 0 1.576 0 0
M  V30 3 C 0.933 2.03868 1.02534 0
M  V30 4 C 1.911 0.928543 1.3348 0
M  V30 5 O 3.095 1.19667 1.45644 0
M  V30 6 C 0.222 2.43627 2.35294 0
M  V30 7 C -0.732 3.65373 2.2001 0
M  V30 8 S 0.101 5.13292 1.52614 0
M  V30 9 C 1.257 5.56322 2.86805 0
M  V30 10 H 1.49 2.90518 0.631377 0
M  V30 11 H -0.977 1.52953 0.210867 0
M  V30 12 H 0.981 2.67203 3.11629 0
M  V30 13 H -0.358 1.57376 2.7183 0
M  V30 14 H -1.165 3.90944 3.18086 0
M  V30 15 H -1.563 3.418 1.51819 0
M  V30 16 H 0.729 5.58782 3.83104 0
M  V30 17 H 1.672 6.56266 2.65933 0
M  V30 18 H 2.08 4.83886 2.90714 0
M  V30 19 N 1.4781 -0.272755 1.55222 0
M  V30 20 C 2.7061 -1.02255 1.79865 0
M  V30 21 C 3.1211 -1.79924 0.572088 0
M  V30 22 O 2.4781 -1.76638 -0.458842 0
M  V30 23 C 2.5291 -1.98094 3.02392 0
M  V30 24 O 2.2501 -1.23572 4.20311 0
M  V30 25 C 3.7511 -2.84884 3.39641 0
M  V30 26 H 0.9711 -0.302057 0.599168 0
M  V30 27 H 3.5151 -0.303465 2.02236 0
M  V30 28 H 1.6701 -2.65465 2.82147 0
M  V30 29 H 2.0841 -1.88172 4.89583 0
M  V30 30 H 3.5581 -3.47927 4.28545 0
M  V30 31 H 4.0351 -3.54665 2.59055 0
M  V30 32 H 4.6411 -2.23003 3.62146 0
M  V30 33 N 2.9562 -1.48159 -0.537278 0
M  V30 34 C 3.8892 -1.567 -1.65893 0
M  V30 35 C 4.8672 -0.41787 -1.57139 0
M  V30 36 O 6.0512 -0.628461 -1.77715 0
M  V30 37 C 3.1782 -1.48818 -3.04255 0
M  V30 38 C 2.2242 -2.68482 -3.31391 0
M  V30 39 S 3.0572 -4.30516 -3.1846 0
M  V30 40 C 4.2132 -4.2522 -4.59281 0
M  V30 41 H 4.4462 -2.5159 -1.58397 0
M  V30 42 H 1.9792 -1.36602 -0.719672 0
M  V30 43 H 3.9372 -1.44958 -3.84054 0
M  V30 44 H 2.5982 -0.552777 -3.09198 0
M  V30 45 H 1.7912 -2.59085 -4.32309 0
M  V30 46 H 1.3932 -2.69567 -2.59248 0
M  V30 47 H 3.6852 -3.94703 -5.5065 0
M  V30 48 H 4.6282 -5.26292 -4.73732 0
M  V30 49 H 5.0362 -3.55791 -4.38261 0
M  V30 50 N 4.4343 0.785586 -1.36625 0
M  V30 51 C 5.7113 1.53198 -1.21613 0
M  V30 52 C 6.0913 2.10187 0.196113 0
M  V30 53 O 5.4393 1.94318 1.20219 0
M  V30 54 C 5.6493 2.62388 -2.30116 0
M  V30 55 C 6.9973 3.30167 -2.66974 0
M  V30 56 O 8.0213 2.72674 -2.29188 0
M  V30 57 O 6.8803 4.34077 -3.32023 0
M  V30 58 H 3.9743 0.677865 -0.473738 0
M  V30 59 H 6.5203 0.823739 -1.48367 0
M  V30 60 H 5.2923 2.18299 -3.24748 0
M  V30 61 H 4.9153 3.40827 -2.0475 0
M  V30 62 N 5.9124 1.20967 1.01018 0
M  V30 63 C 6.8594 0.964281 2.09691 0
M  V30 64 C 7.8294 -0.107853 1.65749 0
M  V30 65 O 9.0144 0.0381987 1.90762 0
M  V30 66 C 6.1544 0.52943 3.41015 0
M  V30 67 C 5.2674 1.67043 3.98398 0
M  V30 68 C 4.4024 1.18525 5.17808 0
M  V30 69 C 3.4414 2.29892 5.67288 0
M  V30 70 N 2.5784 1.82546 6.77954 0
M  V30 71 H 7.4184 1.89463 2.30017 0
M  V30 72 H 4.9554 0.944289 1.1279 0
M  V30 73 H 6.9134 0.258588 4.16398 0
M  V30 74 H 5.5434 -0.363919 3.20742 0
M  V30 75 H 4.5954 2.05603 3.20049 0
M  V30 76 H 5.9074 2.50877 4.31117 0
M  V30 77 H 5.0614 0.870762 6.00419 0
M  V30 78 H 3.8004 0.316887 4.86669 0
M  V30 79 H 2.8054 2.6215 4.83278 0
M  V30 80 H 4.0304 3.17216 6.00459 0
M  V30 81 H 1.9764 0.980454 6.48632 0
M  V30 82 H 1.8934 2.59956 7.09901 0
M  V30 83 H 3.1614 1.54115 7.64113 0
M  V30 84 N 7.3905 -1.2043 1.01659 0
M  V30 85 C 8.6155 -1.94318 0.724942 0
M  V30 86 C 9.0405 -1.74266 -0.708034 0
M  V30 87 O 8.3985 -1.03694 -1.48719 0
M  V30 88 C 8.4465 -3.44486 1.06591 0
M  V30 89 O 7.5505 -4.12017 0.177599 0
M  V30 90 H 6.8915 -0.60708 0.26898 0
M  V30 91 H 9.4215 -1.52861 1.35995 0
M  V30 92 H 9.4315 -3.95106 1.01762 0
M  V30 93 H 8.1065 -3.58404 2.10997 0
M  V30 94 H 6.6835 -3.71821 0.283421 0
M  V30 95 N 8.8686 -0.792821 -1.36206 0
M  V30 96 C 9.7786 -0.194808 -2.3379 0
M  V30 97 C 10.7946 0.654869 -1.61206 0
M  V30 98 O 11.9706 0.569856 -1.9317 0
M  V30 99 C 9.0356 0.657721 -3.40404 0
M  V30 100 C 8.0966 -0.210849 -4.28782 0
M  V30 101 C 7.3296 0.601086 -5.30304 0
M  V30 102 O 7.5526 1.83682 -5.40016 0
M  V30 103 O 6.4866 -0.000808277 -6.019 0
M  V30 104 H 10.3126 -1.00172 -2.86704 0
M  V30 105 H 7.8976 -0.554341 -1.38735 0
M  V30 106 H 9.7796 1.14375 -4.05581 0
M  V30 107 H 8.4546 1.44247 -2.89784 0
M  V30 108 H 7.3616 -0.743714 -3.66633 0
M  V30 109 H 8.6946 -0.959195 -4.82763 0
M  V30 110 N 10.3467 1.47872 -0.545128 0
M  V30 111 C 11.2767 2.32661 0.197793 0
M  V30 112 C 12.2577 1.43041 0.920504 0
M  V30 113 O 13.4427 1.71912 0.90333 0
M  V30 114 C 10.5727 3.24569 1.23582 0
M  V30 115 C 9.5267 4.23333 0.630323 0
M  V30 116 C 8.8527 5.0448 1.77211 0
M  V30 117 C 10.1527 5.20704 -0.407974 0
M  V30 118 H 11.8467 2.95024 -0.510045 0
M  V30 119 H 9.3927 1.4187 -0.246731 0
M  V30 120 H 11.3457 3.8272 1.76362 0
M  V30 121 H 10.0697 2.60236 1.97344 0
M  V30 122 H 8.7287 3.6639 0.123922 0
M  V30 123 H 8.3767 4.36561 2.49847 0
M  V30 124 H 8.0767 5.71339 1.37281 0
M  V30 125 H 9.6007 5.65487 2.3034 0
M  V30 126 H 11.0147 5.7329 0.033305 0
M  V30 127 H 9.4117 5.95699 -0.725486 0
M  V30 128 H 10.4817 4.66917 -1.30828 0
M  V30 129 N 11.8248 0.280983 1.55075 0
M  V30 130 C 13.0708 -0.33461 2.00021 0
M  V30 131 C 13.4038 -1.55063 1.16915 0
M  V30 132 O 12.6788 -1.93006 0.240646 0
M  V30 133 C 12.9618 -0.711007 3.53011 0
M  V30 134 C 12.8148 0.512766 4.46868 0
M  V30 135 C 14.1338 -1.54522 4.12081 0
M  V30 136 H 11.2528 -0.120147 0.727141 0
M  V30 137 H 13.8948 0.389097 1.85973 0
M  V30 138 H 12.0448 -1.32761 3.65112 0
M  V30 139 H 13.7168 1.15131 4.46702 0
M  V30 140 H 11.9598 1.14975 4.18286 0
M  V30 141 H 12.6308 0.205556 5.51617 0
M  V30 142 H 15.1068 -1.02442 4.03293 0
M  V30 143 H 13.9828 -1.77739 5.19327 0
M  V30 144 H 14.2438 -2.52813 3.62682 0
M  V30 145 N 13.3029 -1.57598 0.00835791 0
M  V30 146 C 14.2349 -2.05811 -1.00868 0
M  V30 147 C 15.2479 -0.977579 -1.30182 0
M  V30 148 O 16.4369 -1.25421 -1.27011 0
M  V30 149 C 13.5369 -2.45016 -2.34137 0
M  V30 150 C 12.7099 -3.75903 -2.23643 0
M  V30 151 C 11.7689 -4.01884 -3.3967 0
M  V30 152 O 10.7949 -4.72433 -3.17483 0
M  V30 153 N 11.9969 -3.50432 -4.62793 0
M  V30 154 H 14.7619 -2.93684 -0.597458 0
M  V30 155 H 12.3229 -1.60909 -0.178852 0
M  V30 156 H 14.3149 -2.59506 -3.10546 0
M  V30 157 H 12.8849 -1.62618 -2.66972 0
M  V30 158 H 12.1049 -3.7141 -1.32091 0
M  V30 159 H 13.3929 -4.61695 -2.13812 0
M  V30 160 H 12.7909 -2.93317 -4.83716 0
M  V30 161 H 11.3479 -3.70236 -5.3644 0
M  V30 162 N 14.781 0.264519 -1.55364 0
M  V30 163 C 15.728 1.32717 -1.88825 0
M  V30 164 C 16.698 1.48675 -0.740605 0
M  V30 165 O 17.883 1.62945 -0.992657 0
M  V30 166 C 15.023 2.68089 -2.17307 0
M  V30 167 C 14.136 2.60284 -3.44785 0
M  V30 168 C 13.271 3.87892 -3.62924 0
M  V30 169 C 12.31 3.74631 -4.84064 0
M  V30 170 N 11.447 4.94092 -4.98816 0
M  V30 171 H 16.287 1.03481 -2.79456 0
M  V30 172 H 13.824 0.499757 -1.3835 0
M  V30 173 H 15.782 3.46864 -2.31821 0
M  V30 174 H 14.412 2.95509 -1.299 0
M  V30 175 H 13.464 1.73173 -3.38697 0
M  V30 176 H 14.776 2.46388 -4.33698 0
M  V30 177 H 13.93 4.75109 -3.77302 0
M  V30 178 H 12.669 4.04664 -2.7221 0
M  V30 179 H 11.674 2.85797 -4.69681 0
M  V30 180 H 12.899 3.5937 -5.76221 0
M  V30 181 H 10.845 5.11259 -4.11036 0
M  V30 182 H 10.762 4.8276 -5.81789 0
M  V30 183 H 12.03 5.82857 -5.17588 0
M  V30 184 N 16.2591 1.48442 0.529413 0
M  V30 185 C 17.2221 1.62524 1.61612 0
M  V30 186 C 18.2221 0.498509 1.52877 0
M  V30 187 O 19.4121 0.76431 1.56537 0
M  V30 188 C 16.5441 1.59597 3.01233 0
M  V30 189 H 17.7371 2.59423 1.50465 0
M  V30 190 H 15.2901 1.37047 0.751514 0
M  V30 191 H 16.0251 0.641781 3.17886 0
M  V30 192 H 15.8101 2.41397 3.08982 0
M  V30 193 H 17.3001 1.72646 3.80241 0
M  V30 194 N 17.7372 -0.778329 1.37039 0
M  V30 195 C 18.6842 -1.89139 1.32269 0
M  V30 196 C 19.6542 -1.65017 0.189387 0
M  V30 197 O 20.8392 -1.87024 0.377693 0
M  V30 198 C 17.9792 -3.26112 1.12894 0
M  V30 199 C 17.0922 -3.62233 2.35396 0
M  V30 200 C 16.2272 -4.8838 2.08946 0
M  V30 201 C 15.2662 -5.17212 3.2735 0
M  V30 202 N 14.4032 -6.34546 3.00492 0
M  V30 203 H 19.2432 -1.92552 2.27437 0
M  V30 204 H 16.7802 -0.941473 1.13025 0
M  V30 205 H 18.7382 -4.05116 0.996835 0
M  V30 206 H 17.3682 -3.22091 0.213758 0
M  V30 207 H 16.4202 -2.78265 2.5937 0
M  V30 208 H 17.7322 -3.79481 3.23721 0
M  V30 209 H 16.8862 -5.75274 1.92729 0
M  V30 210 H 15.6252 -4.73222 1.17949 0
M  V30 211 H 14.6302 -4.28796 3.44113 0
M  V30 212 H 15.8552 -5.34283 4.19188 0
M  V30 213 H 13.8012 -6.20759 2.12118 0
M  V30 214 H 13.7182 -6.52179 3.82358 0
M  V30 215 H 14.9862 -7.24394 2.87879 0
M  V30 216 N 19.2153 -1.21501 -1.00376 0
M  V30 217 C 20.1453 -0.999478 -2.11028 0
M  V30 218 C 21.1263 0.0759671 -1.6993 0
M  V30 219 O 22.3113 -0.0841106 -1.94018 0
M  V30 220 C 19.4413 -0.564709 -3.42678 0
M  V30 221 C 18.3953 -1.58486 -3.97576 0
M  V30 222 C 17.7213 -1.00628 -5.25146 0
M  V30 223 C 19.0213 -2.97204 -4.29496 0
M  V30 224 H 20.7153 -1.92495 -2.29317 0
M  V30 225 H 18.2613 -0.92693 -1.102 0
M  V30 226 H 20.2143 -0.401091 -4.19487 0
M  V30 227 H 18.9383 0.396411 -3.24185 0
M  V30 228 H 17.5973 -1.73606 -3.22888 0
M  V30 229 H 17.2453 -0.0368439 -5.02987 0
M  V30 230 H 16.9453 -1.68771 -5.62841 0
M  V30 231 H 18.4693 -0.854015 -6.04598 0
M  V30 232 H 19.8833 -2.8552 -4.97143 0
M  V30 233 H 18.2803 -3.62372 -4.78338 0
M  V30 234 H 19.3503 -3.47956 -3.3772 0
M  V30 235 N 20.6934 1.19889 -1.02296 0
M  V30 236 C 21.6564 2.21116 -0.603351 0
M  V30 237 C 22.6564 1.5738 0.329884 0
M  V30 238 O 23.8464 1.73802 0.117702 0
M  V30 239 C 20.9784 3.40696 0.117992 0
M  V30 240 H 22.1714 2.59754 -1.49893 0
M  V30 241 H 19.7244 1.33463 -0.813468 0
M  V30 242 H 20.4594 3.07569 1.0282 0
M  V30 243 H 20.2444 3.88188 -0.552511 0
M  V30 244 H 21.7344 4.15692 0.398696 0
M  V30 245 N 22.1715 0.800033 1.35784 0
M  V30 246 C 23.0815 0.207204 2.33683 0
M  V30 247 C 24.0975 -0.64631 1.61551 0
M  V30 248 O 25.2735 -0.559604 1.93469 0
M  V30 249 C 22.3385 -0.639659 3.40748 0
M  V30 250 C 21.3995 0.233585 4.28664 0
M  V30 251 C 20.6325 -0.572954 5.30616 0
M  V30 252 O 20.8555 -1.80816 5.40982 0
M  V30 253 O 19.7895 0.0327285 6.01891 0
M  V30 254 H 23.6155 1.01692 2.86169 0
M  V30 255 H 21.2005 0.561691 1.38439 0
M  V30 256 H 23.0825 -1.12223 4.06182 0
M  V30 257 H 21.7575 -1.42708 2.90544 0
M  V30 258 H 20.6645 0.763147 3.66233 0
M  V30 259 H 21.9975 0.984784 4.82248 0
M  V30 260 N 23.6496 -1.47581 0.552962 0
M  V30 261 C 24.5816 -2.27997 -0.234533 0
M  V30 262 C 25.5946 -1.36753 -0.883321 0
M  V30 263 O 26.7836 -1.61612 -0.757889 0
M  V30 264 C 23.8836 -3.10879 -1.34935 0
M  V30 265 C 23.0566 -4.30056 -0.798158 0
M  V30 266 C 22.1156 -4.94567 -1.79694 0
M  V30 267 O 21.1416 -5.53087 -1.34474 0
M  V30 268 N 22.3436 -4.88878 -3.13015 0
M  V30 269 H 25.1086 -2.96222 0.455255 0
M  V30 270 H 22.6696 -1.57163 0.388761 0
M  V30 271 H 24.6616 -3.50903 -2.01616 0
M  V30 272 H 23.2316 -2.44924 -1.94244 0
M  V30 273 H 22.4516 -3.94174 0.0453079 0
M  V30 274 H 23.7396 -5.07152 -0.409173 0
M  V30 275 H 23.1376 -4.42526 -3.52402 0
M  V30 276 H 21.6946 -5.32934 -3.75266 0
M  V30 277 N 25.1277 -0.289203 -1.54924 0
M  V30 278 C 26.0907 0.579144 -2.21762 0
M  V30 279 C 27.0907 1.07047 -1.1999 0
M  V30 280 O 28.2807 0.968384 -1.44803 0
M  V30 281 C 25.4127 1.80055 -2.8947 0
M  V30 282 H 26.6057 -0.00464908 -2.999 0
M  V30 283 H 24.1587 -0.0399306 -1.56249 0
M  V30 284 H 24.8937 2.42449 -2.15381 0
M  V30 285 H 24.6787 1.45602 -3.64064 0
M  V30 286 H 26.1687 2.41773 -3.40493 0
M  V30 287 N 26.6058 1.57591 -0.0167156 0
M  V30 288 C 27.5158 2.1291 0.98521 0
M  V30 289 C 28.5318 1.07834 1.36557 0
M  V30 290 O 29.7078 1.39826 1.44951 0
M  V30 291 C 26.7728 2.63512 2.25305 0
M  V30 292 C 25.8338 3.83256 1.93426 0
M  V30 293 C 25.0668 4.31435 3.14165 0
M  V30 294 O 25.2898 3.78851 4.26413 0
M  V30 295 O 24.2238 5.23416 2.97186 0
M  V30 296 H 28.0498 2.98772 0.544888 0
M  V30 297 H 25.6348 1.48012 0.203141 0
M  V30 298 H 27.5168 2.96183 2.99756 0
M  V30 299 H 26.1918 1.8074 2.68542 0
M  V30 300 H 25.0988 3.55531 1.16398 0
M  V30 301 H 26.4318 4.67153 1.55013 0
M  V30 302 N 28.0839 -0.256276 1.55502 0
M  V30 303 C 29.4999 -0.604325 1.47716 0
M  V30 304 C 29.6999 -1.88763 0.705039 0
M  V30 305 O 28.7559 -2.51445 0.230613 0
M  V30 306 C 30.0689 -0.715756 2.92057 0
M  V30 307 C 31.6169 -0.808706 3.02372 0
M  V30 308 C 32.0919 -0.951777 4.48001 0
M  V30 309 N 33.5829 -1.01688 4.519 0
M  V30 310 C 34.3179 -1.14668 5.61817 0
M  V30 311 N 33.8139 -1.24261 6.81565 0
M  V30 312 N 35.6069 -1.1791 5.49594 0
M  V30 313 H 27.7579 0.586291 2.04148 0
M  V30 314 H 30.0209 0.201015 0.926443 0
M  V30 315 H 29.7269 0.157027 3.51349 0
M  V30 316 H 29.6009 -1.59071 3.42018 0
M  V30 317 H 31.9879 -1.67195 2.43166 0
M  V30 318 H 32.0689 0.0912063 2.55637 0
M  V30 319 H 31.7129 -0.0931291 5.07815 0
M  V30 320 H 31.6429 -1.86659 4.92408 0
M  V30 321 H 34.1339 -0.954468 3.65648 0
M  V30 322 H 34.4469 -1.34046 7.61086 0
M  V30 323 H 32.7919 -1.21236 6.84344 0
M  V30 324 H 35.9829 -1.10057 4.54978 0
M  V30 325 H 36.1559 -1.27681 6.35296 0
M  V30 326 N 29.562 -1.4872 -0.521534 0
M  V30 327 C 30.792 -1.6061 -1.29954 0
M  V30 328 C 31.2 -0.268728 -1.87282 0
M  V30 329 O 30.543 0.753221 -1.67548 0
M  V30 330 C 30.605 -2.60013 -2.48261 0
M  V30 331 C 30.269 -4.04874 -2.11957 0
M  V30 332 C 31.266 -4.92304 -1.67132 0
M  V30 333 C 28.951 -4.5047 -2.22221 0
M  V30 334 C 30.945 -6.2336 -1.33047 0
M  V30 335 C 28.632 -5.81544 -1.87748 0
M  V30 336 C 29.63 -6.67812 -1.43234 0
M  V30 337 O 29.318 -7.96446 -1.09217 0
M  V30 338 H 29.05 -0.544116 -0.401141 0
M  V30 339 H 31.604 -1.95339 -0.634958 0
M  V30 340 H 29.834 -2.20422 -3.17728 0
M  V30 341 H 31.523 -2.61648 -3.10315 0
M  V30 342 H 32.289 -4.58312 -1.58665 0
M  V30 343 H 28.168 -3.83504 -2.55823 0
M  V30 344 H 31.712 -6.90649 -0.982299 0
M  V30 345 H 27.609 -6.15069 -1.95858 0
M  V30 346 H 28.377 -8.09275 -1.22542 0
M  V30 347 N 31.0401 0.771051 -1.3745 0
M  V30 348 C 32.3171 1.519 -1.23231 0
M  V30 349 C 32.6971 2.10383 0.173809 0
M  V30 350 O 32.0451 1.95583 1.18151 0
M  V30 351 C 32.2551 2.59933 -2.32886 0
M  V30 352 C 33.6031 3.27316 -2.70461 0
M  V30 353 O 34.6271 2.70228 -2.32068 0
M  V30 354 O 33.4861 4.30531 -3.36608 0
M  V30 355 H 30.5801 0.672803 -0.480901 0
M  V30 356 H 33.1261 0.807957 -1.49232 0
M  V30 357 H 31.8981 2.14842 -3.27045 0
M  V30 358 H 31.5211 3.38637 -2.08353 0
M  V30 359 N 32.5182 1.22032 0.997298 0
M  V30 360 C 33.7952 0.950823 1.70935 0
M  V30 361 C 34.1752 -0.535292 2.042 0
M  V30 362 O 33.5232 -1.50217 1.72183 0
M  V30 363 C 33.7332 1.84386 2.96315 0
M  V30 364 C 35.0812 2.09732 3.69185 0
M  V30 365 O 36.1052 1.81798 3.06314 0
M  V30 366 O 34.9642 2.57018 4.82291 0
M  V30 367 H 32.0582 0.357204 0.745878 0
M  V30 368 H 34.6042 1.32997 1.05404 0
M  V30 369 H 33.3762 2.84928 2.68201 0
M  V30 370 H 32.9992 1.46602 3.69586 0
M  V30 371 N 33.9963 -1.19345 1.0293 0
M  V30 372 C 34.9293 -2.21347 0.555029 0
M  V30 373 C 35.9073 -1.57492 -0.404351 0
M  V30 374 O 37.0913 -1.85741 -0.321352 0
M  V30 375 C 34.2183 -3.38163 -0.19064 0
M  V30 376 C 33.2643 -4.20375 0.720236 0
M  V30 377 S 34.0973 -4.88371 2.19668 0
M  V30 378 C 35.2533 -6.08597 1.46153 0
M  V30 379 H 35.4863 -2.61235 1.41929 0
M  V30 380 H 33.0193 -1.29598 0.839272 0
M  V30 381 H 34.9773 -4.05871 -0.614724 0
M  V30 382 H 33.6383 -2.9671 -1.03063 0
M  V30 383 H 32.8313 -5.03793 0.14455 0
M  V30 384 H 32.4333 -3.57987 1.08266 0
M  V30 385 H 34.7253 -6.73354 0.748357 0
M  V30 386 H 35.6683 -6.7065 2.27233 0
M  V30 387 H 36.0763 -5.56297 0.958842 0
M  V30 388 N 35.4744 -0.807222 -1.35358 0
M  V30 389 C 36.4374 -0.223665 -2.28106 0
M  V30 390 C 37.4374 0.589354 -1.4961 0
M  V30 391 O 38.6274 0.407745 -1.69361 0
M  V30 392 C 35.7594 0.688149 -3.33882 0
M  V30 393 H 36.9524 -1.04169 -2.81227 0
M  V30 394 H 34.5054 -0.577921 -1.45223 0
M  V30 395 H 35.2404 1.52984 -2.85948 0
M  V30 396 H 35.0254 0.10687 -3.91954 0
M  V30 397 H 36.5154 1.09075 -4.03104 0
M  V30 398 N 36.9525 1.47285 -0.560781 0
M  V30 399 C 37.9155 2.28535 0.174488 0
M  V30 400 C 38.9155 1.37153 0.839388 0
M  V30 401 O 40.1055 1.59748 0.694702 0
M  V30 402 C 37.2375 3.16934 1.25561 0
M  V30 403 H 38.4305 2.95012 -0.539262 0
M  V30 404 H 35.9835 1.53034 -0.317865 0
M  V30 405 H 36.7185 2.55157 2.00164 0
M  V30 406 H 36.5035 3.8419 0.783604 0
M  V30 407 H 37.9935 3.78143 1.77193 0
M  V30 408 N 38.4306 0.297415 1.54768 0
M  V30 409 C 39.3936 -0.567375 2.22066 0
M  V30 410 C 40.3936 -1.06409 1.20556 0
M  V30 411 O 41.5836 -0.960691 1.45315 0
M  V30 412 C 38.7156 -1.78517 2.90421 0
M  V30 413 H 39.9086 0.0205534 2.99893 0
M  V30 414 H 37.4616 0.0482163 1.56226 0
M  V30 415 H 38.1966 -2.41303 2.16664 0
M  V30 416 H 37.9816 -1.43669 3.64831 0
M  V30 417 H 39.4716 -2.39964 3.41771 0
M  V30 418 N 39.9087 -1.5758 0.0250728 0
M  V30 419 C 40.8417 -2.05473 -0.992777 0
M  V30 420 C 41.8197 -0.949661 -1.31986 0
M  V30 421 O 43.0037 -1.21969 -1.43722 0
M  V30 422 C 40.1307 -2.4734 -2.31389 0
M  V30 423 C 39.1767 -3.68827 -2.1417 0
M  V30 424 S 40.0097 -5.15655 -1.44429 0
M  V30 425 C 41.1657 -5.60814 -2.77918 0
M  V30 426 H 41.3987 -2.91486 -0.585078 0
M  V30 427 H 38.9317 -1.53269 -0.186507 0
M  V30 428 H 40.8897 -2.72127 -3.07339 0
M  V30 429 H 39.5507 -1.6168 -2.69292 0
M  V30 430 H 38.7437 -3.95955 -3.11826 0
M  V30 431 H 38.3457 -3.44172 -1.46362 0
M  V30 432 H 40.6377 -5.64806 -3.74166 0
M  V30 433 H 41.5807 -6.60414 -2.55459 0
M  V30 434 H 41.9887 -4.8845 -2.82979 0
M  V30 435 N 41.3868 0.248026 -1.55636 0
M  V30 436 C 42.3338 1.30707 -1.90222 0
M  V30 437 C 43.3038 1.47881 -0.756332 0
M  V30 438 O 44.4888 1.61883 -1.00988 0
M  V30 439 C 41.6288 2.65769 -2.20138 0
M  V30 440 C 40.7418 2.56612 -3.47526 0
M  V30 441 C 39.8768 3.8402 -3.67017 0
M  V30 442 C 38.9158 3.69476 -4.8801 0
M  V30 443 N 38.0528 4.88774 -5.04029 0
M  V30 444 H 42.8928 1.00512 -2.80538 0
M  V30 445 H 40.4298 0.485055 -1.38873 0
M  V30 446 H 42.3878 3.44386 -2.35487 0
M  V30 447 H 41.0178 2.94115 -1.33027 0
M  V30 448 H 40.0698 1.69571 -3.40514 0
M  V30 449 H 41.3818 2.41774 -4.36287 0
M  V30 450 H 40.5358 4.7108 -3.8232 0
M  V30 451 H 39.2748 4.01754 -2.76487 0
M  V30 452 H 38.2798 2.80799 -4.72686 0
M  V30 453 H 39.5048 3.53238 -5.8 0
M  V30 454 H 37.4508 5.0687 -4.16435 0
M  V30 455 H 37.3678 4.76562 -5.86877 0
M  V30 456 H 38.6358 5.77335 -5.23741 0
M  V30 457 N 42.8649 1.48995 0.513639 0
M  V30 458 C 43.8279 1.64229 1.59879 0
M  V30 459 C 44.8279 0.514696 1.5234 0
M  V30 460 O 46.0179 0.78087 1.55718 0
M  V30 461 C 43.1499 1.62783 2.99524 0
M  V30 462 H 44.3429 2.61004 1.47705 0
M  V30 463 H 41.8959 1.37837 0.736936 0
M  V30 464 H 42.6309 0.675461 3.17188 0
M  V30 465 H 42.4159 2.4466 3.06404 0
M  V30 466 H 43.9059 1.76669 3.78388 0
M  V30 467 N 44.343 -0.763751 1.37857 0
M  V30 468 C 45.589 -1.52483 1.33704 0
M  V30 469 C 45.922 -1.94051 -0.0759612 0
M  V30 470 O 45.197 -1.64675 -1.03501 0
M  V30 471 C 45.48 -2.78441 2.28348 0
M  V30 472 C 45.333 -2.43075 3.78463 0
M  V30 473 C 46.652 -3.80415 2.21298 0
M  V30 474 H 43.771 -0.553169 0.487005 0
M  V30 475 H 46.413 -0.875562 1.68624 0
M  V30 476 H 44.563 -3.33842 1.987 0
M  V30 477 H 46.235 -1.93527 4.18742 0
M  V30 478 H 44.478 -1.75666 3.96641 0
M  V30 479 H 45.149 -3.33149 4.40132 0
M  V30 480 H 47.625 -3.34527 2.47449 0
M  V30 481 H 46.501 -4.66257 2.89647 0
M  V30 482 H 46.762 -4.25262 1.20849 0
M  V30 483 N 45.8211 -1.22559 -0.990812 0
M  V30 484 C 47.0491 -1.07779 -1.76611 0
M  V30 485 C 47.4641 0.371513 -1.85109 0
M  V30 486 O 46.8211 1.25737 -1.32274 0
M  V30 487 C 46.8721 -1.68512 -3.19822 0
M  V30 488 O 46.5931 -3.07774 -3.1178 0
M  V30 489 C 48.0941 -1.59035 -4.13791 0
M  V30 490 H 45.3141 -0.377729 -0.554583 0
M  V30 491 H 47.8581 -1.62195 -1.24551 0
M  V30 492 H 46.0131 -1.18154 -3.68942 0
M  V30 493 H 46.4271 -3.37062 -4.01858 0
M  V30 494 H 47.9011 -2.0625 -5.1202 0
M  V30 495 H 48.3781 -0.547273 -4.35777 0
M  V30 496 H 48.9841 -2.08709 -3.70568 0
M  V30 497 N 47.2992 1.18797 -1.03562 0
M  V30 498 C 48.2092 2.25913 -0.632505 0
M  V30 499 C 49.2252 1.70668 0.338882 0
M  V30 500 O 50.4012 2.00453 0.195076 0
M  V30 501 C 47.4662 3.467 0.00350942 0
M  V30 502 C 46.5272 4.17098 -1.01624 0
M  V30 503 C 45.7602 5.32119 -0.410478 0
M  V30 504 O 45.9832 5.64976 0.784725 0
M  V30 505 O 44.9172 5.9107 -1.13667 0
M  V30 506 H 48.7432 2.62648 -1.52478 0
M  V30 507 H 46.3282 1.25781 -0.806195 0
M  V30 508 H 48.2102 4.19878 0.35781 0
M  V30 509 H 46.8852 3.11798 0.869686 0
M  V30 510 H 45.7922 3.4601 -1.42224 0
M  V30 511 H 47.1252 4.55987 -1.85301 0
M  V30 512 N 48.7773 0.814389 1.34928 0
M  V30 513 C 49.7093 0.187834 2.28429 0
M  V30 514 C 50.7223 -0.617374 1.5064 0
M  V30 515 O 51.9113 -0.448454 1.72775 0
M  V30 516 C 49.0113 -0.755962 3.30361 0
M  V30 517 C 48.1843 0.00456686 4.374 0
M  V30 518 C 47.2433 -0.858876 5.19143 0
M  V30 519 O 46.2693 -0.306968 5.68372 0
M  V30 520 N 47.4713 -2.17988 5.38016 0
M  V30 521 H 50.2363 0.991105 2.82838 0
M  V30 522 H 47.7973 0.670561 1.4736 0
M  V30 523 H 49.7893 -1.338 3.81942 0
M  V30 524 H 48.3593 -1.46001 2.7641 0
M  V30 525 H 47.5793 0.767865 3.86649 0
M  V30 526 H 48.8673 0.528422 5.06049 0
M  V30 527 H 48.2653 -2.65212 4.99679 0
M  V30 528 H 46.8223 -2.71098 5.92747 0
M  V30 529 N 50.2554 -1.46986 0.568584 0
M  V30 530 C 51.5034 -2.02041 0.0487022 0
M  V30 531 C 51.8244 -1.44408 -1.31039 0
M  V30 532 O 51.0944 -0.623477 -1.85714 0
M  V30 533 H 49.6744 -0.746849 0.015014 0
M  V30 534 H 52.3364 -1.80257 0.741168 0
M  V30 535 H 51.4324 -3.12085 -0.0308961 0
M  V30 536 N 51.7335 -0.305618 -1.54608 0
M  V30 537 C 52.6835 0.583595 -2.20405 0
M  V30 538 C 53.6675 1.09539 -1.17856 0
M  V30 539 O 54.8595 1.0354 -1.43557 0
M  V30 540 C 51.9885 1.75277 -2.95183 0
M  V30 541 C 51.0745 1.25672 -4.05052 0
M  V30 542 N 51.4655 0.478998 -5.03527 0
M  V30 543 C 49.7635 1.53704 -4.18678 0
M  V30 544 C 50.4645 0.214269 -5.81305 0
M  V30 545 N 49.4405 0.795374 -5.3775 0
M  V30 546 H 53.2425 -0.0180946 -2.93894 0
M  V30 547 H 50.7565 -0.110601 -1.62023 0
M  V30 548 H 52.7535 2.4014 -3.40791 0
M  V30 549 H 51.4135 2.35812 -2.23211 0
M  V30 550 H 52.4245 0.123473 -5.17753 0
M  V30 551 H 49.1015 2.14954 -3.57912 0
M  V30 552 H 50.4915 -0.410656 -6.70644 0
M  V30 553 N 53.2116 1.57565 -0.0334293 0
M  V30 554 C 54.1216 2.13943 0.962572 0
M  V30 555 C 55.1376 1.09276 1.35406 0
M  V30 556 O 56.3136 1.41355 1.4346 0
M  V30 557 C 53.3786 2.65887 2.22497 0
M  V30 558 C 52.4396 3.85286 1.8935 0
M  V30 559 C 51.6726 4.34743 3.09571 0
M  V30 560 O 51.8956 3.83352 4.22371 0
M  V30 561 O 50.8296 5.26538 2.91618 0
M  V30 562 H 54.6556 2.99333 0.513169 0
M  V30 563 H 52.2406 1.4822 0.18743 0
M  V30 564 H 54.1226 2.99346 2.96598 0
M  V30 565 H 52.7976 1.83578 2.6661 0
M  V30 566 H 51.7046 3.56746 1.1262 0
M  V30 567 H 53.0376 4.68771 1.5005 0
M  V30 568 N 54.6897 -0.239769 1.55765 0
M  V30 569 C 55.6197 -1.30052 1.9393 0
M  V30 570 C 56.6007 -1.49839 0.805132 0
M  V30 571 O 57.7857 -1.62328 1.06599 0
M  V30 572 C 54.9157 -2.65391 2.2402 0
M  V30 573 C 53.8697 -2.60289 3.39755 0
M  V30 574 C 53.1957 -3.99489 3.55405 0
M  V30 575 C 54.4957 -2.16654 4.75246 0
M  V30 576 H 56.1897 -0.983573 2.82783 0
M  V30 577 H 53.7357 -0.471701 1.36055 0
M  V30 578 H 55.6887 -3.3974 2.49308 0
M  V30 579 H 54.4127 -2.98736 1.32 0
M  V30 580 H 53.0717 -1.88398 3.14487 0
M  V30 581 H 52.7197 -4.30112 2.60793 0
M  V30 582 H 52.4197 -3.96962 4.33238 0
M  V30 583 H 53.9437 -4.75528 3.83022 0
M  V30 584 H 55.3577 -2.80737 4.99859 0
M  V30 585 H 53.7547 -2.25223 5.56232 0
M  V30 586 H 54.8247 -1.11835 4.71827 0
M  V30 587 N 56.1678 -1.49265 -0.50573 0
M  V30 588 C 57.3928 -1.62478 -1.28902 0
M  V30 589 C 57.8178 -0.294332 -1.85783 0
M  V30 590 O 57.1758 0.737412 -1.65626 0
M  V30 591 C 57.2238 -2.69268 -2.39848 0
M  V30 592 O 56.3278 -2.28113 -3.43567 0
M  V30 593 H 55.6688 -0.54399 -0.380751 0
M  V30 594 H 58.1988 -1.95421 -0.605952 0
M  V30 595 H 58.2088 -2.91291 -2.85681 0
M  V30 596 H 56.8838 -3.65846 -1.97812 0
M  V30 597 H 55.4608 -2.16401 -3.03685 0
M  V30 598 N 57.6459 0.756429 -1.3826 0
M  V30 599 C 58.5939 1.89149 -1.35372 0
M  V30 600 C 59.5879 1.67691 -0.24004 0
M  V30 601 O 60.7939 1.75294 -0.408919 0
M  V30 602 H 57.1689 0.622271 -0.422236 0
M  V30 603 H 59.1399 1.88701 -2.31159 0
M  V30 604 C 57.8889 3.26599 -1.19284 0
M  V30 605 H 57.2119 3.43695 -2.0424 0
M  V30 606 H 58.6519 4.06274 -1.21316 0
M  V30 607 C 57.1109 3.3675 0.100454 0
M  V30 608 O 57.6409 3.86951 1.07851 0
M  V30 609 N 55.8469 2.90179 0.15633 0
M  V30 610 H 55.3939 2.49517 -0.640253 0
M  V30 611 H 55.3519 2.97352 1.02123 0
M  V30 612 N 59.124 1.23083 0.984299 0
M  V30 613 C 60.034 1.02515 2.11016 0
M  V30 614 C 61.05 -0.0291702 1.73976 0
M  V30 615 O 62.226 0.165434 2.00719 0
M  V30 616 C 59.291 0.614673 3.41208 0
M  V30 617 C 58.352 1.74359 3.92297 0
M  V30 618 C 57.585 1.35261 5.16275 0
M  V30 619 O 57.808 0.235136 5.69915 0
M  V30 620 O 56.742 2.17227 5.61334 0
M  V30 621 H 60.568 1.96862 2.31255 0
M  V30 622 H 58.153 1.01753 1.09392 0
M  V30 623 H 60.035 0.396518 4.1953 0
M  V30 624 H 58.71 -0.299851 3.22308 0
M  V30 625 H 57.617 2.01635 3.1511 0
M  V30 626 H 58.95 2.63629 4.15645 0
M  V30 627 N 60.6021 -1.18246 1.0419 0
M  V30 628 C 61.5121 -2.25574 0.644476 0
M  V30 629 C 62.5281 -1.70845 -0.329826 0
M  V30 630 O 63.7041 -2.00554 -0.184443 0
M  V30 631 C 60.7691 -3.46697 0.014877 0
M  V30 632 C 59.8301 -4.16554 1.03834 0
M  V30 633 C 59.0631 -5.31894 0.438692 0
M  V30 634 O 59.2861 -5.65385 -0.754752 0
M  V30 635 O 58.2201 -5.90459 1.168 0
M  V30 636 H 62.0461 -2.61836 1.53869 0
M  V30 637 H 59.6311 -1.25352 0.812854 0
M  V30 638 H 61.5131 -4.20062 -0.335538 0
M  V30 639 H 60.1881 -3.12255 -0.853138 0
M  V30 640 H 59.0951 -3.45251 1.44057 0
M  V30 641 H 60.4281 -4.54998 1.87716 0
M  V30 642 N 62.0802 -0.821533 -1.34494 0
M  V30 643 C 63.4962 -0.507117 -1.51329 0
M  V30 644 C 63.6962 0.968964 -1.76673 0
M  V30 645 O 62.7522 1.75348 -1.81685 0
M  V30 646 C 64.0652 -1.36544 -2.67911 0
M  V30 647 C 65.6132 -1.36242 -2.81793 0
M  V30 648 C 66.0882 -2.2052 -4.01416 0
M  V30 649 N 67.5792 -2.18136 -4.08621 0
M  V30 650 C 68.3142 -2.80095 -5.00334 0
M  V30 651 N 67.8102 -3.51039 -5.9728 0
M  V30 652 N 69.6032 -2.69656 -4.93196 0
M  V30 653 H 61.7542 -1.77729 -1.16302 0
M  V30 654 H 64.0172 -0.757291 -0.570276 0
M  V30 655 H 63.7232 -2.41361 -2.55808 0
M  V30 656 H 63.5972 -1.02917 -3.62888 0
M  V30 657 H 65.9842 -0.322041 -2.93338 0
M  V30 658 H 66.0652 -1.73866 -1.87628 0
M  V30 659 H 65.7092 -3.24607 -3.90631 0
M  V30 660 H 65.6392 -1.80247 -4.94791 0
M  V30 661 H 68.1302 -1.6653 -3.39229 0
M  V30 662 H 68.4432 -3.95565 -6.63889 0
M  V30 663 H 66.7882 -3.55145 -5.97409 0
M  V30 664 H 69.9792 -2.13808 -4.16418 0
M  V30 665 H 70.1522 -3.1823 -5.64476 0
M  V30 666 N 63.5583 1.46682 -0.576371 0
M  V30 667 C 64.5063 2.31953 0.17335 0
M  V30 668 C 65.5003 1.44098 0.89062 0
M  V30 669 O 66.7063 1.60759 0.809728 0
M  V30 670 H 63.0813 0.748273 0.0747727 0
M  V30 671 H 65.0523 2.93007 -0.564738 0
M  V30 672 C 63.8013 3.27142 1.17786 0
M  V30 673 H 63.1243 3.94719 0.635361 0
M  V30 674 H 64.5643 3.896 1.67296 0
M  V30 675 C 63.0233 2.52036 2.23561 0
M  V30 676 O 63.5533 2.27877 3.3081 0
M  V30 677 N 61.7593 2.12709 1.97998 0
M  V30 678 H 61.3063 2.32557 1.10792 0
M  V30 679 H 61.2643 1.62776 2.68982 0
M  V30 680 N 65.0364 0.313813 1.54444 0
M  V30 681 C 65.9664 -0.549454 2.26943 0
M  V30 682 C 66.9474 -1.12741 1.27372 0
M  V30 683 O 68.1324 -1.15436 1.56167 0
M  V30 684 C 65.2624 -1.71523 3.01989 0
M  V30 685 C 64.2164 -1.26703 4.08816 0
M  V30 686 C 63.5424 -2.51898 4.71647 0
M  V30 687 C 64.8424 -0.388962 5.2085 0
M  V30 688 H 66.5364 0.0552661 2.99349 0
M  V30 689 H 64.0824 0.0280207 1.43973 0
M  V30 690 H 66.0354 -2.32535 3.51433 0
M  V30 691 H 64.7594 -2.34639 2.27183 0
M  V30 692 H 63.4184 -0.679896 3.6024 0
M  V30 693 H 63.0664 -3.13356 3.93468 0
M  V30 694 H 62.7664 -2.22605 5.43802 0
M  V30 695 H 64.2904 -3.1369 5.23861 0
M  V30 696 H 65.7044 -0.905107 5.6611 0
M  V30 697 H 64.1014 -0.18924 5.99802 0
M  V30 698 H 65.1714 0.582699 4.81386 0
M  V30 699 N 66.5145 -1.57545 0.0417849 0
M  V30 700 C 67.4445 -2.14009 -0.933929 0
M  V30 701 C 68.4255 -1.05938 -1.33083 0
M  V30 702 O 69.6105 -1.33833 -1.40721 0
M  V30 703 C 66.7405 -2.67747 -2.21199 0
M  V30 704 C 65.6945 -3.80718 -1.95544 0
M  V30 705 C 65.0205 -4.20935 -3.29724 0
M  V30 706 C 66.3205 -5.06258 -1.28452 0
M  V30 707 H 68.0145 -2.95788 -0.463645 0
M  V30 708 H 65.5605 -1.42285 -0.221573 0
M  V30 709 H 67.5135 -3.05886 -2.89848 0
M  V30 710 H 66.2375 -1.83147 -2.70416 0
M  V30 711 H 64.8965 -3.43037 -1.2931 0
M  V30 712 H 64.5445 -3.33298 -3.76724 0
M  V30 713 H 64.2445 -4.9707 -3.13361 0
M  V30 714 H 65.7685 -4.61666 -3.9962 0
M  V30 715 H 67.1825 -5.41903 -1.8712 0
M  V30 716 H 65.5795 -5.87475 -1.22445 0
M  V30 717 H 66.6495 -4.84207 -0.259219 0
M  V30 718 N 67.9926 0.231505 -1.5589 0
M  V30 719 C 69.2176 0.978689 -1.82856 0
M  V30 720 C 69.6426 1.77559 -0.620846 0
M  V30 721 O 69.0006 1.76119 0.430305 0
M  V30 722 C 69.0486 1.87997 -3.07716 0
M  V30 723 O 68.1526 2.97393 -2.85712 0
M  V30 724 H 67.4936 0.277663 -0.603158 0
M  V30 725 H 70.0236 0.24783 -2.03093 0
M  V30 726 H 70.0336 2.2917 -3.37558 0
M  V30 727 H 68.7086 1.29417 -3.95252 0
M  V30 728 H 67.2856 2.60238 -2.67078 0
M  V30 729 N 69.4707 1.49531 0.497807 0
M  V30 730 C 70.7167 1.59415 1.25358 0
M  V30 731 C 71.0497 0.281422 1.9215 0
M  V30 732 O 70.3247 -0.715249 1.80871 0
M  V30 733 C 70.6077 2.75566 2.3181 0
M  V30 734 C 70.4607 4.16642 1.69498 0
M  V30 735 C 71.7797 2.87347 3.33346 0
M  V30 736 H 68.8987 0.580244 0.454408 0
M  V30 737 H 71.5407 1.81827 0.551262 0
M  V30 738 H 69.6907 2.56587 2.91711 0
M  V30 739 H 71.3627 4.47145 1.13399 0
M  V30 740 H 69.6057 4.22141 0.998978 0
M  V30 741 H 70.2767 4.93792 2.46725 0
M  V30 742 H 72.7527 3.04634 2.83438 0
M  V30 743 H 71.6287 3.70289 4.05188 0
M  V30 744 H 71.8897 1.96834 3.95865 0
M  V30 745 N 70.9488 -0.749086 1.3866 0
M  V30 746 C 71.9118 -1.84457 1.36045 0
M  V30 747 C 72.9118 -1.58682 0.260122 0
M  V30 748 O 74.1018 -1.66343 0.517261 0
M  V30 749 C 71.2338 -3.22008 1.11911 0
M  V30 750 H 72.4268 -1.88182 2.33512 0
M  V30 751 H 69.9798 -0.951266 1.24019 0
M  V30 752 H 70.7148 -3.2395 0.150686 0
M  V30 753 H 70.4998 -3.42111 1.91579 0
M  V30 754 H 71.9898 -4.0208 1.12788 0
M  V30 755 N 72.4269 -1.23603 -0.977757 0
M  V30 756 C 73.6569 -1.09487 -1.75203 0
M  V30 757 C 74.0649 0.356321 -1.85814 0
M  V30 758 O 73.4079 1.25816 -1.33851 0
M  V30 759 C 73.4699 -1.64905 -3.19447 0
M  V30 760 C 73.1339 -3.13688 -3.32338 0
M  V30 761 C 74.1309 -4.10953 -3.18455 0
M  V30 762 C 71.8159 -3.53449 -3.56902 0
M  V30 763 C 73.8099 -5.45962 -3.28944 0
M  V30 764 C 71.4969 -4.88602 -3.6703 0
M  V30 765 C 72.4949 -5.84668 -3.53062 0
M  V30 766 O 72.1829 -7.17365 -3.62826 0
M  V30 767 H 71.9149 -0.38367 -0.556573 0
M  V30 768 H 74.4689 -1.6398 -1.23693 0
M  V30 769 H 72.6989 -1.04835 -3.72218 0
M  V30 770 H 74.3879 -1.46226 -3.78646 0
M  V30 771 H 75.1539 -3.81577 -2.99372 0
M  V30 772 H 71.0329 -2.79188 -3.66844 0
M  V30 773 H 74.5769 -6.20925 -3.17958 0
M  V30 774 H 70.4739 -5.17653 -3.85623 0
M  V30 775 H 71.2419 -7.2515 -3.79605 0
M  V30 776 N 73.905 1.17692 -1.04816 0
M  V30 777 C 74.852 2.21581 -0.645797 0
M  V30 778 C 75.822 1.62367 0.350159 0
M  V30 779 O 77.007 1.89254 0.242433 0
M  V30 780 C 74.147 3.45092 -0.0227568 0
M  V30 781 C 73.26 4.18613 -1.06709 0
M  V30 782 C 72.395 5.29602 -0.411767 0
M  V30 783 C 71.434 5.94904 -1.44067 0
M  V30 784 N 70.571 6.97414 -0.809781 0
M  V30 785 H 75.411 2.55353 -1.5362 0
M  V30 786 H 72.948 1.25438 -0.768364 0
M  V30 787 H 74.906 4.15679 0.35588 0
M  V30 788 H 73.536 3.11917 0.831122 0
M  V30 789 H 72.588 3.46779 -1.5636 0
M  V30 790 H 73.9 4.63293 -1.84827 0
M  V30 791 H 73.054 6.06696 0.0206623 0
M  V30 792 H 71.793 4.86045 0.401438 0
M  V30 793 H 70.798 5.16544 -1.88316 0
M  V30 794 H 72.023 6.40542 -2.25571 0
M  V30 795 H 69.969 6.55998 -0.0170186 0
M  V30 796 H 69.886 7.40386 -1.52856 0
M  V30 797 H 71.154 7.78463 -0.401999 0
M  V30 798 N 75.3831 0.828654 1.34056 0
M  V30 799 C 76.3311 0.242973 2.31327 0
M  V30 800 C 77.3251 -0.61944 1.57668 0
M  V30 801 O 78.5311 -0.51014 1.7262 0
M  V30 802 H 74.9061 0.059834 0.749616 0
M  V30 803 H 76.8771 1.07809 2.78244 0
M  V30 804 C 75.6261 -0.575733 3.429 0
M  V30 805 H 74.9491 0.0785582 3.99723 0
M  V30 806 H 76.3891 -0.951547 4.13185 0
M  V30 807 C 74.8481 -1.75044 2.87856 0
M  V30 808 O 75.3781 -2.84882 2.83205 0
M  V30 809 N 73.5841 -1.56903 2.44602 0
M  V30 810 H 73.1311 -0.675547 2.48584 0
M  V30 811 H 73.0891 -2.35652 2.08124 0
M  V30 812 N 76.8612 -1.46375 0.584142 0
M  V30 813 C 78.1072 -2.02678 0.0703716 0
M  V30 814 C 78.4402 -1.4545 -1.28678 0
M  V30 815 O 77.7152 -0.62014 -1.84349 0
M  V30 816 C 77.9982 -3.60099 0.00614674 0
M  V30 817 C 77.8512 -4.27709 1.3923 0
M  V30 818 C 79.1702 -4.34598 -0.693742 0
M  V30 819 H 76.2892 -0.736504 0.027047 0
M  V30 820 H 78.9312 -1.74501 0.751615 0
M  V30 821 H 77.0812 -3.84236 -0.574009 0
M  V30 822 H 78.7532 -4.14832 2.01773 0
M  V30 823 H 76.9962 -3.87016 1.95962 0
M  V30 824 H 77.6672 -5.36478 1.29982 0
M  V30 825 H 80.1432 -4.15615 -0.200869 0
M  V30 826 H 79.0192 -5.44318 -0.707714 0
M  V30 827 H 79.2802 -4.05759 -1.75533 0
M  V30 828 N 78.3393 -0.321999 -1.54275 0
M  V30 829 C 79.5853 0.281461 -2.00837 0
M  V30 830 C 79.9183 1.51909 -1.20985 0
M  V30 831 O 79.1933 1.923 -0.291733 0
M  V30 832 C 79.4763 0.617162 -3.54772 0
M  V30 833 C 79.3293 -0.631064 -4.45351 0
M  V30 834 C 80.6483 1.43542 -4.16033 0
M  V30 835 H 77.7673 0.100826 -0.730071 0
M  V30 836 H 80.4093 -0.438268 -1.84876 0
M  V30 837 H 78.5593 1.23034 -3.68504 0
M  V30 838 H 80.2313 -1.26934 -4.43492 0
M  V30 839 H 78.4743 -1.26025 -4.15091 0
M  V30 840 H 79.1453 -0.351735 -5.50878 0
M  V30 841 H 81.6213 0.917134 -4.05867 0
M  V30 842 H 80.4973 1.63907 -5.23856 0
M  V30 843 H 80.7583 2.43108 -3.69257 0
M  V30 844 N 79.8174 1.5752 -0.0501392 0
M  V30 845 C 81.0654 1.9227 0.622642 0
M  V30 846 C 81.3864 0.929083 1.71444 0
M  V30 847 O 80.6564 -0.0262186 1.95882 0
M  V30 848 H 79.2364 0.709739 0.232981 0
M  V30 849 H 81.8984 1.94628 -0.102898 0
M  V30 850 H 80.9944 2.93479 1.06191 0
M  V30 851 N 81.2955 -0.223234 1.56011 0
M  V30 852 C 82.2585 -1.26014 1.9145 0
M  V30 853 C 83.2585 -1.3989 0.792937 0
M  V30 854 O 84.4485 -1.38184 1.0607 0
M  V30 855 C 81.5805 -2.63422 2.16383 0
M  V30 856 H 82.7735 -0.95796 2.84189 0
M  V30 857 H 80.3265 -0.463576 1.49267 0
M  V30 858 H 81.0615 -2.98741 1.2619 0
M  V30 859 H 80.8465 -2.54728 2.98088 0
M  V30 860 H 82.3365 -3.38249 2.44903 0
M  V30 861 N 82.7736 -1.49793 -0.48987 0
M  V30 862 C 84.1896 -1.36803 -0.822022 0
M  V30 863 C 84.3896 -0.409652 -1.97292 0
M  V30 864 O 83.4456 0.154614 -2.52026 0
M  V30 865 C 84.7586 -2.77768 -1.15175 0
M  V30 866 C 86.3066 -2.86549 -1.25931 0
M  V30 867 C 86.7816 -4.28306 -1.62228 0
M  V30 868 N 88.2726 -4.31169 -1.69256 0
M  V30 869 C 89.0076 -5.37832 -1.98807 0
M  V30 870 N 88.5036 -6.54726 -2.26507 0
M  V30 871 N 90.2966 -5.25258 -2.00152 0
M  V30 872 H 82.4476 -2.10691 0.268881 0
M  V30 873 H 84.7106 -0.946241 0.057728 0
M  V30 874 H 84.4166 -3.49648 -0.379335 0
M  V30 875 H 84.2906 -3.13836 -2.09253 0
M  V30 876 H 86.6776 -2.14899 -2.02243 0
M  V30 877 H 86.7586 -2.54049 -0.298776 0
M  V30 878 H 86.4026 -5.00486 -0.864622 0
M  V30 879 H 86.3326 -4.58279 -2.594 0
M  V30 880 H 88.8236 -3.4687 -1.49965 0
M  V30 881 H 89.1366 -7.31833 -2.48276 0
M  V30 882 H 87.4816 -6.57933 -2.23939 0
M  V30 883 H 90.6726 -4.32938 -1.77996 0
M  V30 884 H 90.8456 -6.08476 -2.22848 0
M  V30 885 N 84.2517 0.741722 -1.39055 0
M  V30 886 C 85.6677 1.04638 -1.20512 0
M  V30 887 C 85.8677 2.01405 -0.0620218 0
M  V30 888 O 84.9237 2.45547 0.588457 0
M  V30 889 C 86.2367 1.6151 -2.53643 0
M  V30 890 C 87.7847 1.73623 -2.6043 0
M  V30 891 C 88.2597 2.33906 -3.93767 0
M  V30 892 N 89.7507 2.41323 -3.9537 0
M  V30 893 C 90.4857 2.88888 -4.95309 0
M  V30 894 N 89.9817 3.36401 -6.05645 0
M  V30 895 N 91.7747 2.88037 -4.82692 0
M  V30 896 H 83.9257 0.0998155 -2.12165 0
M  V30 897 H 86.1887 0.106907 -0.941953 0
M  V30 898 H 85.8947 0.978739 -3.37807 0
M  V30 899 H 85.7687 2.60411 -2.72885 0
M  V30 900 H 88.1557 2.36384 -1.76655 0
M  V30 901 H 88.2367 0.733945 -2.45045 0
M  V30 902 H 87.8807 1.71776 -4.7797 0
M  V30 903 H 87.8107 3.34799 -4.06469 0
M  V30 904 H 90.3017 2.07734 -3.15682 0
M  V30 905 H 90.6147 3.71186 -6.77821 0
M  V30 906 H 88.9597 3.34427 -6.09248 0
M  V30 907 H 92.1507 2.50237 -3.95599 0
M  V30 908 H 92.3237 3.24792 -5.60726 0
M  V30 909 N 85.7298 1.2412 0.971189 0
M  V30 910 C 86.9548 1.10667 1.75407 0
M  V30 911 C 87.3798 -0.337048 1.85056 0
M  V30 912 O 86.7378 -1.24396 1.31892 0
M  V30 913 C 86.7858 1.74726 3.15441 0
M  V30 914 O 85.8898 1.01566 3.99697 0
M  V30 915 H 85.2308 0.387341 0.539317 0
M  V30 916 H 87.7608 1.64358 1.2185 0
M  V30 917 H 87.7708 1.80341 3.6598 0
M  V30 918 H 86.4458 2.79773 3.07734 0
M  V30 919 H 85.0228 1.03713 3.58187 0
M  V30 920 N 87.2079 -1.17134 1.05439 0
M  V30 921 C 88.4329 -1.91913 0.786396 0
M  V30 922 C 88.8579 -1.7643 -0.652234 0
M  V30 923 O 88.2159 -1.08372 -1.45345 0
M  V30 924 C 88.2639 -3.40921 1.17497 0
M  V30 925 O 87.3679 -4.11244 0.308589 0
M  V30 926 H 86.7089 -0.598215 0.288158 0
M  V30 927 H 89.2389 -1.48457 1.4079 0
M  V30 928 H 89.2489 -3.91668 1.14281 0
M  V30 929 H 87.9239 -3.5151 2.22292 0
M  V30 930 H 86.5009 -3.70731 0.40157 0
M  V30 931 N 88.686 -0.835752 -1.33615 0
M  V30 932 C 89.932 -0.439817 -1.98588 0
M  V30 933 C 90.287 0.989274 -1.65019 0
M  V30 934 O 89.58 1.68168 -0.918159 0
M  V30 935 C 89.774 -0.593925 -3.52431 0
M  V30 936 C 89.603 -2.03644 -4.00948 0
M  V30 937 C 88.373 -2.67103 -4.28934 0
M  V30 938 C 90.571 -3.00479 -4.17393 0
M  V30 939 N 88.553 -4.02462 -4.6357 0
M  V30 940 C 89.924 -4.20777 -4.55353 0
M  V30 941 C 91.979 -2.96926 -3.99674 0
M  V30 942 C 90.682 -5.37994 -4.77447 0
M  V30 943 C 92.708 -4.1337 -4.22941 0
M  V30 944 C 92.07 -5.32422 -4.61201 0
M  V30 945 H 88.169 -0.209303 -0.75347 0
M  V30 946 H 90.753 -1.08316 -1.61789 0
M  V30 947 H 88.924 0.019599 -3.88395 0
M  V30 948 H 90.656 -0.169738 -4.04344 0
M  V30 949 H 87.411 -2.18259 -4.20309 0
M  V30 950 H 87.835 -4.72232 -4.85104 0
M  V30 951 H 92.477 -2.06015 -3.69212 0
M  V30 952 H 90.195 -6.29451 -5.06771 0
M  V30 953 H 93.781 -4.12034 -4.10754 0
M  V30 954 H 92.661 -6.21027 -4.78848 0
M  V30 955 N 90.1641 1.46063 -0.591896 0
M  V30 956 C 91.5801 1.57561 -0.254288 0
M  V30 957 C 91.7801 1.58565 1.24336 0
M  V30 958 O 90.8361 1.50753 2.02558 0
M  V30 959 C 92.1491 2.86549 -0.911611 0
M  V30 960 C 93.6971 3.00197 -0.886059 0
M  V30 961 C 94.1721 4.31933 -1.5231 0
M  V30 962 N 95.6631 4.38654 -1.48786 0
M  V30 963 C 96.3981 5.39222 -1.95006 0
M  V30 964 N 95.8941 6.46414 -2.49241 0
M  V30 965 N 97.6871 5.3048 -1.85868 0
M  V30 966 H 89.8381 1.43655 -1.56451 0
M  V30 967 H 92.1011 0.68583 -0.654478 0
M  V30 968 H 91.8071 2.91651 -1.96551 0
M  V30 969 H 91.6811 3.74794 -0.425368 0
M  V30 970 H 94.0681 2.9467 0.159246 0
M  V30 971 H 94.1491 2.13403 -1.41041 0
M  V30 972 H 93.7931 4.38217 -2.56765 0
M  V30 973 H 93.7231 5.17516 -0.973891 0
M  V30 974 H 96.2141 3.61793 -1.09151 0
M  V30 975 H 96.5271 7.19376 -2.82344 0
M  V30 976 H 94.8721 6.47208 -2.53272 0
M  V30 977 H 98.0631 4.45643 -1.43248 0
M  V30 978 H 98.2361 6.08711 -2.22204 0
M  V30 979 N 91.6422 0.330177 1.54103 0
M  V30 980 C 92.8882 -0.270806 2.00984 0
M  V30 981 C 93.2212 -1.51265 1.21789 0
M  V30 982 O 92.4962 -1.92142 0.301927 0
M  V30 983 C 92.7792 -0.598339 3.55094 0
M  V30 984 C 92.6322 0.654674 4.4501 0
M  V30 985 C 93.9512 -1.41334 4.16789 0
M  V30 986 H 91.0702 -0.0969531 0.730595 0
M  V30 987 H 93.7122 0.448066 1.84641 0
M  V30 988 H 91.8622 -1.21078 3.69151 0
M  V30 989 H 93.5342 1.29285 4.42813 0
M  V30 990 H 91.7772 1.28224 4.14416 0
M  V30 991 H 92.4482 0.380944 5.50684 0
M  V30 992 H 94.9242 -0.895597 4.06347 0
M  V30 993 H 93.8002 -1.61127 5.24718 0
M  V30 994 H 94.0612 -2.41146 3.70541 0
M  V30 995 N 93.1203 -1.57491 0.0584922 0
M  V30 996 C 94.3693 -1.92155 -0.613146 0
M  V30 997 C 94.6823 -0.939334 -1.71569 0
M  V30 998 O 95.8883 -1.17829 -2.44599 0
M  V30 999 C 94.3443 -3.41303 -1.14195 0
M  V30 1000 C 93.9523 -4.47944 -0.0711265 0
M  V30 1001 C 95.6963 -3.84988 -1.78841 0
M  V30 1002 C 93.6033 -5.88212 -0.613225 0
M  V30 1003 H 92.5333 -0.717162 -0.232796 0
M  V30 1004 H 95.1843 -1.83049 0.12857 0
M  V30 1005 H 93.5663 -3.45437 -1.93621 0
M  V30 1006 H 94.7403 -4.55408 0.702836 0
M  V30 1007 H 93.0553 -4.13644 0.478313 0
M  V30 1008 H 95.6523 -4.87159 -2.20408 0
M  V30 1009 H 95.9953 -3.21632 -2.64308 0
M  V30 1010 H 96.5283 -3.83401 -1.06059 0
M  V30 1011 H 93.2673 -6.55183 0.203978 0
M  V30 1012 H 92.7873 -5.84294 -1.35501 0
M  V30 1013 H 94.4663 -6.37687 -1.09383 0
M  V30 1014 N 94.5984 0.214957 -1.56127 0
M  V30 1015 C 95.8234 0.95924 -1.83884 0
M  V30 1016 C 96.2484 1.7689 -0.639644 0
M  V30 1017 O 95.6064 1.76566 0.411601 0
M  V30 1018 C 95.6544 1.84723 -3.09693 0
M  V30 1019 O 94.7584 2.94346 -2.8885 0
M  V30 1020 H 94.0994 0.27125 -0.606069 0
M  V30 1021 H 96.6294 0.226276 -2.03345 0
M  V30 1022 H 96.6394 2.25576 -3.39969 0
M  V30 1023 H 95.3144 1.25218 -3.96602 0
M  V30 1024 H 93.8914 2.57391 -2.69823 0
M  V30 1025 N 96.0765 1.50051 0.48192 0
M  V30 1026 C 97.3015 1.64508 1.26301 0
M  V30 1027 C 97.7265 0.323851 1.85291 0
M  V30 1028 O 97.0845 -0.710969 1.66778 0
M  V30 1029 C 97.1325 2.7305 2.35533 0
M  V30 1030 O 96.2365 2.3355 3.39895 0
M  V30 1031 H 95.5775 0.549978 0.372048 0
M  V30 1032 H 98.1075 1.9636 0.574786 0
M  V30 1033 H 98.1175 2.95799 2.8101 0
M  V30 1034 H 96.7925 3.68946 1.91967 0
M  V30 1035 H 95.3695 2.21205 3.00204 0
M  V30 1036 N 97.5546 -0.734337 1.39446 0
M  V30 1037 C 98.8036 -1.48937 1.36017 0
M  V30 1038 C 99.1166 -1.95557 -0.0409005 0
M  V30 1039 O 100.323 -2.70779 -0.19778 0
M  V30 1040 C 98.7786 -2.69125 2.38955 0
M  V30 1041 C 98.3866 -2.29452 3.8478 0
M  V30 1042 C 100.131 -3.46944 2.44603 0
M  V30 1043 C 98.0376 -3.46366 4.79358 0
M  V30 1044 H 96.9676 -0.559296 0.505672 0
M  V30 1045 H 99.6186 -0.800983 1.65095 0
M  V30 1046 H 98.0006 -3.40041 2.02948 0
M  V30 1047 H 99.1746 -1.66077 4.29831 0
M  V30 1048 H 97.4896 -1.64723 3.82433 0
M  V30 1049 H 100.087 -4.33907 3.12456 0
M  V30 1050 H 100.43 -3.89454 1.47076 0
M  V30 1051 H 100.963 -2.83056 2.79507 0
M  V30 1052 H 97.7016 -3.08905 5.78151 0
M  V30 1053 H 97.2216 -4.08719 4.38986 0
M  V30 1054 H 98.9006 -4.12691 4.98292 0
M  V30 1055 N 99.0327 -1.24633 -0.964593 0
M  V30 1056 C 99.9427 -1.05859 -2.09359 0
M  V30 1057 C 100.959 0.00148855 -1.74 0
M  V30 1058 O 102.135 -0.197346 -2.00431 0
M  V30 1059 C 99.1997 -0.668879 -3.40187 0
M  V30 1060 C 98.2607 -1.80578 -3.89474 0
M  V30 1061 C 97.4937 -1.43457 -5.14058 0
M  V30 1062 O 97.7167 -0.325775 -5.69469 0
M  V30 1063 O 96.6507 -2.2613 -5.57807 0
M  V30 1064 H 100.477 -2.00516 -2.28094 0
M  V30 1065 H 98.0617 -1.03481 -1.0776 0
M  V30 1066 H 99.9437 -0.463211 -4.18846 0
M  V30 1067 H 98.6187 0.248536 -3.22744 0
M  V30 1068 H 97.5257 -2.06623 -3.11862 0
M  V30 1069 H 98.8587 -2.70208 -4.11398 0
M  V30 1070 N 100.511 1.16574 -1.06058 0
M  V30 1071 C 101.443 2.2045 -0.627239 0
M  V30 1072 C 102.456 1.59752 0.313534 0
M  V30 1073 O 103.645 1.78192 0.104896 0
M  V30 1074 C 100.745 3.3875 0.100974 0
M  V30 1075 C 99.9178 4.29008 -0.852687 0
M  V30 1076 C 98.9768 5.25944 -0.164152 0
M  V30 1077 O 98.0028 5.63535 -0.801047 0
M  V30 1078 N 99.2048 5.70075 1.09518 0
M  V30 1079 H 101.97 2.58249 -1.52077 0
M  V30 1080 H 99.5308 1.3156 -0.943594 0
M  V30 1081 H 101.523 4.00638 0.57194 0
M  V30 1082 H 100.093 2.99476 0.89628 0
M  V30 1083 H 99.3128 3.64419 -1.50308 0
M  V30 1084 H 100.601 4.86195 -1.49972 0
M  V30 1085 H 99.9988 5.41624 1.6328 0
M  V30 1086 H 98.5558 6.34067 1.51006 0
M  V30 1087 N 101.989 0.842826 1.3317 0
M  V30 1088 C 102.936 0.276885 2.29133 0
M  V30 1089 C 103.906 -0.609527 1.54512 0
M  V30 1090 O 105.091 -0.546955 1.82792 0
M  V30 1091 C 102.231 -0.538707 3.40869 0
M  V30 1092 C 101.344 0.372169 4.30394 0
M  V30 1093 C 100.479 -0.454908 5.29249 0
M  V30 1094 C 99.5179 0.45411 6.10413 0
M  V30 1095 N 98.6549 -0.335075 7.013 0
M  V30 1096 H 103.495 1.10052 2.76934 0
M  V30 1097 H 101.032 0.554161 1.36262 0
M  V30 1098 H 102.99 -1.02709 4.0436 0
M  V30 1099 H 101.62 -1.32727 2.9425 0
M  V30 1100 H 100.672 0.97888 3.6759 0
M  V30 1101 H 101.984 1.0703 4.87182 0
M  V30 1102 H 101.138 -1.00695 5.98285 0
M  V30 1103 H 99.8769 -1.18646 4.73048 0
M  V30 1104 H 98.8819 1.01813 5.40291 0
M  V30 1105 H 100.107 1.18409 6.68697 0
M  V30 1106 H 98.0529 -1.04994 6.47543 0
M  V30 1107 H 97.9699 0.304262 7.55387 0
M  V30 1108 H 99.2379 -0.869224 7.74638 0
M  V30 1109 N 103.467 -1.45747 0.599634 0
M  V30 1110 C 104.695 -2.06668 0.0978551 0
M  V30 1111 C 105.11 -1.44562 -1.21439 0
M  V30 1112 O 104.467 -0.556923 -1.73795 0
M  V30 1113 C 104.518 -3.61456 -0.0567044 0
M  V30 1114 O 104.239 -4.21242 1.20361 0
M  V30 1115 C 105.74 -4.39345 -0.590869 0
M  V30 1116 H 102.96 -0.667825 0.0651943 0
M  V30 1117 H 105.504 -1.87115 0.82511 0
M  V30 1118 H 103.659 -3.80378 -0.734251 0
M  V30 1119 H 104.073 -5.14323 1.02821 0
M  V30 1120 H 105.547 -5.48182 -0.648131 0
M  V30 1121 H 106.024 -4.08568 -1.61147 0
M  V30 1122 H 106.63 -4.25268 0.0523679 0
M  V30 1123 N 104.945 -0.338344 -1.53925 0
M  V30 1124 C 105.855 0.529421 -2.28548 0
M  V30 1125 C 106.871 1.11645 -1.3346 0
M  V30 1126 O 108.047 1.13325 -1.66492 0
M  V30 1127 C 105.112 1.66713 -3.03987 0
M  V30 1128 C 104.173 1.11041 -4.14691 0
M  V30 1129 C 103.406 2.19389 -4.86522 0
M  V30 1130 O 103.629 3.40013 -4.57982 0
M  V30 1131 O 102.563 1.83976 -5.73094 0
M  V30 1132 H 106.389 -0.0770399 -3.03602 0
M  V30 1133 H 103.974 -0.103555 -1.49041 0
M  V30 1134 H 105.856 2.32918 -3.5118 0
M  V30 1135 H 104.531 2.25949 -2.31794 0
M  V30 1136 H 103.438 0.413024 -3.71813 0
M  V30 1137 H 104.771 0.562975 -4.8897 0
M  V30 1138 N 106.423 1.57458 -0.0668435 0
M  V30 1139 C 107.839 1.56947 0.289772 0
M  V30 1140 C 108.039 1.07584 1.70376 0
M  V30 1141 O 107.095 0.739486 2.41429 0
M  V30 1142 C 108.408 3.0052 0.103943 0
M  V30 1143 C 109.956 3.12517 0.173857 0
M  V30 1144 C 110.431 4.57997 0.0163682 0
M  V30 1145 N 111.922 4.63144 0.0721352 0
M  V30 1146 C 112.657 5.73394 -0.0253794 0
M  V30 1147 N 112.153 6.92576 -0.176133 0
M  V30 1148 N 113.946 5.62091 0.0313305 0
M  V30 1149 H 106.097 1.87863 -0.991027 0
M  V30 1150 H 108.36 0.86583 -0.38606 0
M  V30 1151 H 108.066 3.40729 -0.871572 0
M  V30 1152 H 107.94 3.67304 0.858366 0
M  V30 1153 H 110.327 2.72197 1.13985 0
M  V30 1154 H 110.408 2.48381 -0.611586 0
M  V30 1155 H 110.052 4.99005 -0.946374 0
M  V30 1156 H 109.982 5.20158 0.821153 0
M  V30 1157 H 112.473 3.77436 0.187263 0
M  V30 1158 H 112.786 7.72418 -0.242821 0
M  V30 1159 H 111.131 6.94678 -0.211429 0
M  V30 1160 H 114.322 4.67867 0.147773 0
M  V30 1161 H 114.495 6.47982 -0.048121 0
M  V30 1162 N 107.901 -0.206675 1.56239 0
M  V30 1163 C 108.849 -1.27571 1.94495 0
M  V30 1164 C 109.843 -1.47737 0.828862 0
M  V30 1165 O 111.049 -1.48735 1.0138 0
M  V30 1166 H 107.424 -0.428029 0.6183 0
M  V30 1167 H 109.395 -0.925961 2.8367 0
M  V30 1168 C 108.144 -2.61568 2.29079 0
M  V30 1169 H 107.467 -2.46863 3.14482 0
M  V30 1170 H 108.907 -3.35144 2.5972 0
M  V30 1171 C 107.366 -3.17695 1.12123 0
M  V30 1172 O 107.896 -3.99801 0.390153 0
M  V30 1173 N 106.102 -2.76276 0.901097 0
M  V30 1174 H 105.649 -2.09613 1.49733 0
M  V30 1175 H 105.607 -3.1417 0.120319 0
M  V30 1176 N 109.379 -1.50304 -0.473955 0
M  V30 1177 C 110.289 -1.7174 -1.5982 0
M  V30 1178 C 111.305 -0.600457 -1.63311 0
M  V30 1179 O 112.481 -0.878441 -1.81233 0
M  V30 1180 C 109.546 -1.80427 -2.96052 0
M  V30 1181 C 108.607 -3.04148 -3.02972 0
M  V30 1182 C 107.84 -3.12411 -4.32706 0
M  V30 1183 O 108.063 -2.27542 -5.23049 0
M  V30 1184 O 106.997 -4.05113 -4.45159 0
M  V30 1185 H 110.823 -2.67035 -1.44657 0
M  V30 1186 H 108.408 -1.34366 -0.653148 0
M  V30 1187 H 110.29 -1.88338 -3.7697 0
M  V30 1188 H 108.965 -0.883156 -3.11419 0
M  V30 1189 H 107.872 -3.0174 -2.21142 0
M  V30 1190 H 109.205 -3.95829 -2.92541 0
M  V30 1191 N 110.857 0.726932 -1.39834 0
M  V30 1192 C 111.804 1.841 -1.39197 0
M  V30 1193 C 112.774 1.642 -0.250502 0
M  V30 1194 O 113.959 1.85494 -0.446846 0
M  V30 1195 C 111.099 3.21697 -1.24919 0
M  V30 1196 C 110.212 3.53247 -2.48678 0
M  V30 1197 C 109.347 4.80289 -2.26928 0
M  V30 1198 C 108.386 5.04707 -3.4632 0
M  V30 1199 N 107.523 6.22956 -3.23836 0
M  V30 1200 H 112.363 1.83979 -2.34427 0
M  V30 1201 H 109.9 0.898876 -1.16442 0
M  V30 1202 H 111.858 4.01137 -1.1465 0
M  V30 1203 H 110.488 3.21076 -0.333153 0
M  V30 1204 H 109.54 2.68447 -2.69519 0
M  V30 1205 H 110.852 3.67205 -3.37582 0
M  V30 1206 H 110.006 5.67725 -2.13947 0
M  V30 1207 H 108.745 4.68519 -1.35431 0
M  V30 1208 H 107.75 4.1573 -3.5979 0
M  V30 1209 H 108.975 5.18357 -4.38729 0
M  V30 1210 H 106.921 6.12459 -2.35011 0
M  V30 1211 H 106.838 6.37539 -4.063 0
M  V30 1212 H 108.106 7.1321 -3.14566 0
M  V30 1213 N 112.336 1.25143 0.95797 0
M  V30 1214 C 113.283 1.05235 2.05412 0
M  V30 1215 C 114.253 -0.0374561 1.66058 0
M  V30 1216 O 115.438 0.119073 1.90428 0
M  V30 1217 C 112.578 0.673589 3.38462 0
M  V30 1218 C 111.691 1.8379 3.90954 0
M  V30 1219 C 110.826 1.40381 5.12315 0
M  V30 1220 C 109.865 2.53746 5.57027 0
M  V30 1221 N 109.002 2.11136 6.69601 0
M  V30 1222 H 113.842 1.99048 2.21774 0
M  V30 1223 H 111.379 0.991277 1.08683 0
M  V30 1224 H 113.337 0.434964 4.14926 0
M  V30 1225 H 111.967 -0.227554 3.21997 0
M  V30 1226 H 111.019 2.18992 3.11041 0
M  V30 1227 H 112.331 2.68937 4.20089 0
M  V30 1228 H 111.485 1.12464 5.96185 0
M  V30 1229 H 110.224 0.523015 4.84887 0
M  V30 1230 H 109.229 2.82412 4.71724 0
M  V30 1231 H 110.454 3.42398 5.86464 0
M  V30 1232 H 108.4 1.25468 6.4389 0
M  V30 1233 H 108.317 2.89832 6.98236 0
M  V30 1234 H 109.585 1.86385 7.56889 0
M  V30 1235 N 113.814 -1.1601 1.06675 0
M  V30 1236 C 114.746 -2.20115 0.638921 0
M  V30 1237 C 115.759 -1.59916 -0.305057 0
M  V30 1238 O 116.948 -1.78245 -0.0954446 0
M  V30 1239 C 114.048 -3.38798 -0.0830083 0
M  V30 1240 C 113.221 -4.2855 0.875426 0
M  V30 1241 C 112.28 -5.25849 0.192042 0
M  V30 1242 O 111.306 -5.63102 0.830921 0
M  V30 1243 N 112.508 -5.70648 -1.06493 0
M  V30 1244 H 115.273 -2.57439 1.53444 0
M  V30 1245 H 112.834 -1.31057 0.950557 0
M  V30 1246 H 114.826 -4.00936 -0.550685 0
M  V30 1247 H 113.396 -2.99947 -0.880386 0
M  V30 1248 H 112.616 -3.63617 1.52238 0
M  V30 1249 H 113.904 -4.85393 1.52548 0
M  V30 1250 H 113.302 -5.42482 -1.60405 0
M  V30 1251 H 111.859 -6.34859 -1.47641 0
M  V30 1252 N 115.292 -0.849877 -1.32721 0
M  V30 1253 C 116.224 -0.248332 -2.27851 0
M  V30 1254 C 117.237 0.577218 -1.52224 0
M  V30 1255 O 118.426 0.402489 -1.73903 0
M  V30 1256 C 115.526 0.668107 -3.32249 0
M  V30 1257 C 114.699 -0.120534 -4.37234 0
M  V30 1258 C 113.758 0.720932 -5.21238 0
M  V30 1259 O 112.784 0.156166 -5.68986 0
M  V30 1260 N 113.986 2.03647 -5.43607 0
M  V30 1261 H 116.751 -1.06575 -2.80111 0
M  V30 1262 H 114.312 -0.709395 -1.45531 0
M  V30 1263 H 116.304 1.23627 -3.85355 0
M  V30 1264 H 114.874 1.38621 -2.80184 0
M  V30 1265 H 114.094 -0.870108 -3.84477 0
M  V30 1266 H 115.382 -0.662406 -5.0447 0
M  V30 1267 H 114.78 2.51871 -5.06535 0
M  V30 1268 H 113.337 2.55287 -5.99727 0
M  V30 1269 N 116.77 1.45427 -0.607355 0
M  V30 1270 C 117.703 2.27635 0.160482 0
M  V30 1271 C 118.681 1.37122 0.873857 0
M  V30 1272 O 119.865 1.66551 0.882775 0
M  V30 1273 C 116.992 3.15486 1.23231 0
M  V30 1274 C 116.038 4.21939 0.622097 0
M  V30 1275 S 116.871 5.32459 -0.569852 0
M  V30 1276 C 118.027 6.23879 0.502577 0
M  V30 1277 H 118.26 2.9241 -0.536983 0
M  V30 1278 H 115.793 1.49265 -0.394868 0
M  V30 1279 H 117.751 3.66659 1.84585 0
M  V30 1280 H 116.412 2.49977 1.90185 0
M  V30 1281 H 115.605 4.8333 1.42856 0
M  V30 1282 H 115.207 3.73906 0.0837063 0
M  V30 1283 H 117.499 6.63261 1.38171 0
M  V30 1284 H 118.442 7.0806 -0.0751759 0
M  V30 1285 H 118.85 5.58545 0.8178 0
M  V30 1286 N 118.248 0.346503 1.53744 0
M  V30 1287 C 119.496 -0.248612 2.00565 0
M  V30 1288 C 119.817 -1.5083 1.23593 0
M  V30 1289 O 119.087 -1.92858 0.343912 0
M  V30 1290 H 117.667 -0.0948564 0.740953 0
M  V30 1291 H 120.329 0.468341 1.89189 0
M  V30 1292 H 119.425 -0.488994 3.08245 0
M  V30 1293 N 119.726 -1.57421 0.075193 0
M  V30 1294 C 120.673 -2.12915 -0.890843 0
M  V30 1295 C 121.643 -1.04252 -1.29309 0
M  V30 1296 O 122.828 -1.31933 -1.37834 0
M  V30 1297 C 119.968 -2.69795 -2.15186 0
M  V30 1298 C 119.081 -3.92624 -1.80194 0
M  V30 1299 C 118.216 -4.37736 -3.00933 0
M  V30 1300 C 117.255 -5.53205 -2.61974 0
M  V30 1301 N 116.392 -5.9326 -3.75483 0
M  V30 1302 H 121.232 -2.95156 -0.410735 0
M  V30 1303 H 118.769 -1.45854 -0.191086 0
M  V30 1304 H 120.727 -3.00883 -2.89008 0
M  V30 1305 H 119.357 -1.90313 -2.60731 0
M  V30 1306 H 118.409 -3.67977 -0.964218 0
M  V30 1307 H 119.721 -4.76482 -1.47534 0
M  V30 1308 H 118.875 -4.70503 -3.8303 0
M  V30 1309 H 117.614 -3.52739 -3.36789 0
M  V30 1310 H 116.619 -5.20086 -1.783 0
M  V30 1311 H 117.844 -6.39936 -2.27284 0
M  V30 1312 H 115.79 -5.11212 -4.11094 0
M  V30 1313 H 115.707 -6.71865 -3.46602 0
M  V30 1314 H 116.975 -6.30651 -4.58148 0
M  V30 1315 N 121.204 0.198386 -1.56346 0
M  V30 1316 C 122.114 1.2664 -1.97483 0
M  V30 1317 C 123.13 1.49989 -0.882002 0
M  V30 1318 O 124.306 1.62668 -1.18748 0
M  V30 1319 C 121.371 2.59141 -2.30319 0
M  V30 1320 C 120.432 2.43892 -3.53292 0
M  V30 1321 C 119.665 3.70074 -3.84553 0
M  V30 1322 O 119.888 4.74101 -3.1715 0
M  V30 1323 O 118.822 3.658 -4.7799 0
M  V30 1324 H 122.648 0.947304 -2.88548 0
M  V30 1325 H 120.233 0.403123 -1.43859 0
M  V30 1326 H 122.115 3.37352 -2.5253 0
M  V30 1327 H 120.79 2.90684 -1.42423 0
M  V30 1328 H 119.697 1.63803 -3.36332 0
M  V30 1329 H 121.03 2.17282 -4.41644 0
M  V30 1330 N 122.682 1.50554 0.465978 0
M  V30 1331 C 123.912 1.65323 1.23903 0
M  V30 1332 C 124.32 0.338051 1.86155 0
M  V30 1333 O 123.663 -0.690518 1.70228 0
M  V30 1334 C 123.725 2.69048 2.3844 0
M  V30 1335 C 123.389 4.12462 1.96784 0
M  V30 1336 C 124.386 4.98168 1.48745 0
M  V30 1337 C 122.071 4.58407 2.05349 0
M  V30 1338 C 124.065 6.27868 1.0982 0
M  V30 1339 C 121.752 5.88112 1.66035 0
M  V30 1340 C 122.75 6.72668 1.18349 0
M  V30 1341 O 122.438 7.99951 0.795825 0
M  V30 1342 H 122.17 0.558629 0.38067 0
M  V30 1343 H 124.724 1.97561 0.562022 0
M  V30 1344 H 122.954 2.32062 3.09328 0
M  V30 1345 H 124.643 2.72985 3.0039 0
M  V30 1346 H 125.409 4.63885 1.41546 0
M  V30 1347 H 121.288 3.92735 2.41414 0
M  V30 1348 H 124.832 6.93819 0.725293 0
M  V30 1349 H 120.729 6.21914 1.72895 0
M  V30 1350 H 121.497 8.13265 0.924222 0
M  V30 1351 N 124.16 -0.719506 1.40217 0
M  V30 1352 C 125.576 -1.02707 1.22161 0
M  V30 1353 C 125.776 -2.0128 0.0940557 0
M  V30 1354 O 124.832 -2.46452 -0.549318 0
M  V30 1355 C 126.145 -1.57454 2.56181 0
M  V30 1356 C 127.693 -1.69458 2.63159 0
M  V30 1357 C 128.168 -2.27611 3.97438 0
M  V30 1358 N 129.659 -2.35002 3.99159 0
M  V30 1359 C 130.394 -2.80972 4.99842 0
M  V30 1360 N 129.89 -3.26723 6.10921 0
M  V30 1361 N 131.683 -2.80321 4.87213 0
M  V30 1362 H 123.834 -0.0660492 2.12297 0
M  V30 1363 H 126.097 -0.0919077 0.943534 0
M  V30 1364 H 125.803 -0.924873 3.39321 0
M  V30 1365 H 125.677 -2.56036 2.76993 0
M  V30 1366 H 128.064 -2.33543 1.80393 0
M  V30 1367 H 128.145 -0.694867 2.46181 0
M  V30 1368 H 127.789 -1.6415 4.80643 0
M  V30 1369 H 127.719 -3.2829 4.11744 0
M  V30 1370 H 130.21 -2.02685 3.18947 0
M  V30 1371 H 130.523 -3.60355 6.8364 0
M  V30 1372 H 128.868 -3.24692 6.14492 0
M  V30 1373 H 132.059 -2.43912 3.9953 0
M  V30 1374 H 132.232 -3.15831 5.65822 0
M  V30 1375 N 125.638 -1.25649 -0.95132 0
M  V30 1376 C 126.548 -1.08073 -2.08224 0
M  V30 1377 C 127.564 -0.0169666 -1.73992 0
M  V30 1378 O 128.74 -0.218593 -2.0021 0
M  V30 1379 C 125.805 -0.704922 -3.39458 0
M  V30 1380 C 124.866 -1.84699 -3.87537 0
M  V30 1381 C 124.099 -1.48902 -5.12508 0
M  V30 1382 O 124.322 -0.386156 -5.69091 0
M  V30 1383 O 123.256 -2.32033 -5.55378 0
M  V30 1384 H 127.082 -2.02924 -2.25954 0
M  V30 1385 H 124.667 -1.04618 -1.06656 0
M  V30 1386 H 126.549 -0.507609 -4.18332 0
M  V30 1387 H 125.224 0.214291 -3.2299 0
M  V30 1388 H 124.131 -2.09919 -3.09653 0
M  V30 1389 H 125.464 -2.74557 -4.08509 0
M  V30 1390 N 127.117 1.15442 -1.07289 0
M  V30 1391 C 128.064 2.20161 -0.692653 0
M  V30 1392 C 129.034 1.63073 0.31564 0
M  V30 1393 O 130.219 1.89725 0.202235 0
M  V30 1394 C 127.359 3.44967 -0.0959509 0
M  V30 1395 C 126.472 4.16256 -1.15564 0
M  V30 1396 C 125.607 5.28609 -0.524011 0
M  V30 1397 C 124.646 5.91715 -1.56653 0
M  V30 1398 N 123.783 6.9554 -0.957531 0
M  V30 1399 H 128.623 2.52037 -1.59002 0
M  V30 1400 H 126.16 1.2378 -0.794798 0
M  V30 1401 H 128.118 4.16341 0.267628 0
M  V30 1402 H 126.748 3.1361 0.764772 0
M  V30 1403 H 125.8 3.43385 -1.6368 0
M  V30 1404 H 127.112 4.59268 -1.94613 0
M  V30 1405 H 126.266 6.06604 -0.108032 0
M  V30 1406 H 125.005 4.86787 0.29825 0
M  V30 1407 H 124.01 5.12433 -1.9923 0
M  V30 1408 H 125.235 6.35614 -2.39107 0
M  V30 1409 H 123.181 6.55814 -0.156162 0
M  V30 1410 H 123.098 7.36977 -1.68526 0
M  V30 1411 H 124.366 7.77435 -0.567032 0
M  V30 1412 N 128.595 0.856903 1.32268 0
M  V30 1413 C 129.844 0.457599 1.96441 0
M  V30 1414 C 130.157 -0.992426 1.68553 0
M  V30 1415 O 131.363 -1.49727 2.26482 0
M  V30 1416 C 129.819 0.767358 3.51624 0
M  V30 1417 C 129.427 2.23326 3.88367 0
M  V30 1418 C 131.171 0.435887 4.22256 0
M  V30 1419 C 129.078 2.48613 5.36606 0
M  V30 1420 H 128.008 0.167387 0.735185 0
M  V30 1421 H 130.659 1.048 1.5063 0
M  V30 1422 H 129.041 0.106367 3.95857 0
M  V30 1423 H 130.215 2.93623 3.55137 0
M  V30 1424 H 128.53 2.52948 3.30766 0
M  V30 1425 H 131.127 0.602202 5.31298 0
M  V30 1426 H 131.47 -0.622672 4.11617 0
M  V30 1427 H 132.003 1.05286 3.83614 0
M  V30 1428 H 128.742 3.53101 5.52268 0
M  V30 1429 H 128.262 1.82896 5.71235 0
M  V30 1430 H 129.941 2.32676 6.03714 0
M  V30 1431 N 130.073 -1.45103 0.615059 0
M  V30 1432 C 130.983 -2.34382 -0.101034 0
M  V30 1433 C 131.999 -1.51681 -0.852585 0
M  V30 1434 O 133.175 -1.8446 -0.808484 0
M  V30 1435 C 130.24 -3.29417 -1.08099 0
M  V30 1436 C 129.301 -4.28025 -0.330577 0
M  V30 1437 C 128.534 -5.1852 -1.26385 0
M  V30 1438 O 128.757 -5.12598 -2.50198 0
M  V30 1439 O 127.691 -5.97122 -0.756866 0
M  V30 1440 H 131.517 -2.97033 0.632855 0
M  V30 1441 H 129.102 -1.4461 0.375293 0
M  V30 1442 H 130.984 -3.87958 -1.6452 0
M  V30 1443 H 129.659 -2.69321 -1.79577 0
M  V30 1444 H 128.566 -3.73078 0.276283 0
M  V30 1445 H 129.899 -4.90997 0.343866 0
M  V30 1446 N 131.551 -0.354651 -1.53558 0
M  V30 1447 C 132.514 0.484566 -2.24019 0
M  V30 1448 C 133.514 1.01861 -1.24422 0
M  V30 1449 O 134.704 0.906097 -1.4878 0
M  V30 1450 C 131.836 1.67615 -2.96847 0
M  V30 1451 H 133.029 -0.131843 -2.9961 0
M  V30 1452 H 130.582 -0.106165 -1.55939 0
M  V30 1453 H 131.317 2.33095 -2.25471 0
M  V30 1454 H 131.102 1.30029 -3.69912 0
M  V30 1455 H 132.592 2.27114 -3.50441 0
M  V30 1456 N 133.029 1.57378 -0.0835403 0
M  V30 1457 C 133.939 2.16897 0.894021 0
M  V30 1458 C 134.955 1.13528 1.31861 0
M  V30 1459 O 136.131 1.45848 1.3889 0
M  V30 1460 C 133.196 2.72831 2.13925 0
M  V30 1461 C 132.257 3.91115 1.76997 0
M  V30 1462 C 131.49 4.44371 2.95584 0
M  V30 1463 O 131.713 3.96596 4.09961 0
M  V30 1464 O 130.647 5.35549 2.74719 0
M  V30 1465 H 134.473 3.00814 0.417679 0
M  V30 1466 H 132.058 1.48741 0.140181 0
M  V30 1467 H 133.94 3.0863 2.86924 0
M  V30 1468 H 132.615 1.91967 2.60635 0
M  V30 1469 H 131.522 3.60148 1.01214 0
M  V30 1470 H 132.855 4.73307 1.3506 0
M  V30 1471 N 134.507 -0.190092 1.56449 0
M  V30 1472 C 135.437 -1.23816 1.97969 0
M  V30 1473 C 136.418 -1.47201 0.852395 0
M  V30 1474 O 137.603 -1.58854 1.1171 0
M  V30 1475 C 134.733 -2.5813 2.3235 0
M  V30 1476 C 133.687 -2.49348 3.47864 0
M  V30 1477 C 133.013 -3.8798 3.67934 0
M  V30 1478 C 134.313 -2.01424 4.81898 0
M  V30 1479 H 136.007 -0.89311 2.85769 0
M  V30 1480 H 133.553 -0.428177 1.37487 0
M  V30 1481 H 135.506 -3.31637 2.59991 0
M  V30 1482 H 134.23 -2.94386 1.41438 0
M  V30 1483 H 132.889 -1.78297 3.20321 0
M  V30 1484 H 132.537 -4.21597 2.74344 0
M  V30 1485 H 132.237 -3.82978 4.45648 0
M  V30 1486 H 133.761 -4.63101 3.97957 0
M  V30 1487 H 135.175 -2.64693 5.08538 0
M  V30 1488 H 133.572 -2.07413 5.63116 0
M  V30 1489 H 134.642 -0.967677 4.75146 0
M  V30 1490 N 135.985 -1.50799 -0.457987 0
M  V30 1491 C 136.917 -1.66786 -1.57211 0
M  V30 1492 C 137.93 -0.548962 -1.53265 0
M  V30 1493 O 139.119 -0.8226 -1.58416 0
M  V30 1494 C 136.219 -1.64834 -2.96113 0
M  V30 1495 C 135.392 -2.92971 -3.24787 0
M  V30 1496 C 134.451 -2.83485 -4.43309 0
M  V30 1497 O 133.477 -3.5744 -4.42973 0
M  V30 1498 N 134.679 -1.97929 -5.45714 0
M  V30 1499 H 137.444 -2.62889 -1.43909 0
M  V30 1500 H 135.005 -1.48427 -0.646617 0
M  V30 1501 H 136.997 -1.56084 -3.7339 0
M  V30 1502 H 135.567 -0.764118 -3.03117 0
M  V30 1503 H 134.787 -3.15749 -2.36 0
M  V30 1504 H 136.075 -3.77834 -3.40762 0
M  V30 1505 H 135.473 -1.37182 -5.48815 0
M  V30 1506 H 134.03 -1.95073 -6.21924 0
M  V30 1507 N 137.463 0.71206 -1.40597 0
M  V30 1508 C 138.74 1.46536 -1.29563 0
M  V30 1509 C 139.12 2.10931 0.0844217 0
M  V30 1510 O 138.468 2.00418 1.0975 0
M  V30 1511 C 138.678 2.49821 -2.43701 0
M  V30 1512 C 140.026 3.15551 -2.841 0
M  V30 1513 O 141.05 2.60142 -2.4332 0
M  V30 1514 O 139.909 4.15867 -3.54566 0
M  V30 1515 H 137.003 0.651801 -0.509004 0
M  V30 1516 H 139.549 0.743935 -1.52524 0
M  V30 1517 H 138.321 2.00778 -3.35863 0
M  V30 1518 H 137.944 3.29495 -2.22528 0
M  V30 1519 N 138.941 1.26152 0.944643 0
M  V30 1520 C 140.19 1.10883 1.68487 0
M  V30 1521 C 140.503 -0.348153 1.92477 0
M  V30 1522 O 141.709 -0.621459 2.64292 0
M  V30 1523 C 140.165 1.93624 3.03377 0
M  V30 1524 C 139.773 3.43875 2.87148 0
M  V30 1525 C 141.517 1.86954 3.81115 0
M  V30 1526 C 139.424 4.18875 4.1749 0
M  V30 1527 H 138.354 0.41135 0.631907 0
M  V30 1528 H 141.005 1.50433 1.05082 0
M  V30 1529 H 139.387 1.46904 3.67743 0
M  V30 1530 H 140.561 3.98338 2.31653 0
M  V30 1531 H 138.876 3.51744 2.22856 0
M  V30 1532 H 141.473 2.40275 4.77673 0
M  V30 1533 H 141.816 0.839518 4.07747 0
M  V30 1534 H 142.349 2.31477 3.23517 0
M  V30 1535 H 139.088 5.22332 3.96043 0
M  V30 1536 H 138.608 3.69193 4.72712 0
M  V30 1537 H 140.287 4.27134 4.85968 0
M  V30 1538 N 140.419 -1.14872 1.07899 0
M  V30 1539 C 141.659 -1.8745 0.814965 0
M  V30 1540 C 142.023 -1.80758 -0.64733 0
M  V30 1541 O 143.224 -2.48422 -1.02664 0
M  V30 1542 C 141.495 -3.32286 1.31607 0
M  V30 1543 S 143.054 -4.22537 1.18357 0
M  V30 1544 H 139.872 -0.646833 0.295174 0
M  V30 1545 H 142.474 -1.38555 1.37923 0
M  V30 1546 H 141.178 -3.34703 2.37491 0
M  V30 1547 H 140.709 -3.86238 0.747261 0
M  V30 1548 H 142.724 -4.96044 0.124586 0
M  V30 1549 N 141.898 -0.863906 -1.31812 0
M  V30 1550 C 142.846 -0.30422 -2.30602 0
M  V30 1551 C 143.84 0.577419 -1.59255 0
M  V30 1552 O 145.046 0.464194 -1.73912 0
M  V30 1553 H 141.421 -0.0796877 -0.747766 0
M  V30 1554 H 143.392 -1.15148 -2.75288 0
M  V30 1555 C 142.141 0.484617 -3.44306 0
M  V30 1556 H 141.464 -0.18451 -3.99374 0
M  V30 1557 H 142.904 0.841664 -4.15562 0
M  V30 1558 C 141.363 1.6735 -2.92396 0
M  V30 1559 O 141.893 2.77273 -2.90659 0
M  V30 1560 N 140.099 1.50362 -2.48676 0
M  V30 1561 H 139.646 0.609402 -2.50288 0
M  V30 1562 H 139.604 2.30051 -2.14299 0
M  V30 1563 N 143.376 1.44774 -0.622745 0
M  V30 1564 C 144.653 1.95522 -0.0551974 0
M  V30 1565 C 145.033 1.5649 1.41683 0
M  V30 1566 O 144.381 0.834848 2.12703 0
M  V30 1567 C 144.591 3.4796 -0.269242 0
M  V30 1568 C 145.939 4.24306 -0.158014 0
M  V30 1569 O 146.963 3.55637 -0.200162 0
M  V30 1570 O 145.822 5.46471 -0.0558693 0
M  V30 1571 H 142.916 0.826556 0.0271015 0
M  V30 1572 H 145.462 1.54866 -0.693864 0
M  V30 1573 H 144.234 3.6939 -1.29099 0
M  V30 1574 H 143.857 3.95543 0.403966 0
M  V30 1575 N 144.854 0.36279 1.53368 0
M  V30 1576 C 146.1 -0.228113 2.01513 0
M  V30 1577 C 146.433 -1.48648 1.2497 0
M  V30 1578 O 145.708 -1.91459 0.342616 0
M  V30 1579 C 145.991 -0.522884 3.56284 0
M  V30 1580 C 145.844 0.74892 4.43521 0
M  V30 1581 C 147.163 -1.32461 4.19693 0
M  V30 1582 H 144.282 -0.0814343 0.732487 0
M  V30 1583 H 146.924 0.48713 1.83649 0
M  V30 1584 H 145.074 -1.1322 3.71636 0
M  V30 1585 H 146.746 1.38648 4.39971 0
M  V30 1586 H 144.989 1.36986 4.11603 0
M  V30 1587 H 145.66 0.497667 5.49752 0
M  V30 1588 H 148.136 -0.809203 4.08156 0
M  V30 1589 H 147.012 -1.49961 5.28018 0
M  V30 1590 H 147.273 -2.33232 3.75573 0
M  V30 1591 N 146.332 -1.57332 0.0918853 0
M  V30 1592 C 147.262 -2.16872 -0.865371 0
M  V30 1593 C 148.243 -1.10118 -1.29646 0
M  V30 1594 O 149.428 -1.38242 -1.36392 0
M  V30 1595 C 146.558 -2.74649 -2.12569 0
M  V30 1596 C 145.512 -3.86747 -1.83333 0
M  V30 1597 C 144.838 -4.31212 -3.16166 0
M  V30 1598 C 146.138 -5.10089 -1.1228 0
M  V30 1599 H 147.832 -2.97114 -0.369307 0
M  V30 1600 H 145.378 -1.42918 -0.176194 0
M  V30 1601 H 147.331 -3.14952 -2.7997 0
M  V30 1602 H 146.055 -1.91657 -2.64452 0
M  V30 1603 H 144.714 -3.46978 -1.18331 0
M  V30 1604 H 144.362 -3.45115 -3.6593 0
M  V30 1605 H 144.062 -5.06788 -2.97388 0
M  V30 1606 H 145.586 -4.74146 -3.84731 0
M  V30 1607 H 147 -5.47582 -1.69785 0
M  V30 1608 H 145.397 -5.91073 -1.03693 0
M  V30 1609 H 146.467 -4.84786 -0.105041 0
M  V30 1610 N 147.81 0.181792 -1.56548 0
M  V30 1611 C 148.72 1.24538 -1.98815 0
M  V30 1612 C 149.736 1.49045 -0.897861 0
M  V30 1613 O 150.912 1.61399 -1.20467 0
M  V30 1614 C 147.977 2.56683 -2.33055 0
M  V30 1615 C 147.038 2.40131 -3.55859 0
M  V30 1616 C 146.271 3.65975 -3.88456 0
M  V30 1617 O 146.494 4.70711 -3.22161 0
M  V30 1618 O 145.428 3.6071 -4.81842 0
M  V30 1619 H 149.254 0.916647 -2.89536 0
M  V30 1620 H 146.839 0.387842 -1.44278 0
M  V30 1621 H 148.721 3.34655 -2.56094 0
M  V30 1622 H 147.396 2.89157 -1.45498 0
M  V30 1623 H 146.303 1.60226 -3.38051 0
M  V30 1624 H 147.636 2.12585 -4.43924 0
M  V30 1625 N 149.288 1.51039 0.449983 0
M  V30 1626 C 150.218 1.74379 1.55288 0
M  V30 1627 C 151.199 0.593236 1.5942 0
M  V30 1628 O 152.384 0.834625 1.7535 0
M  V30 1629 C 149.514 1.85728 2.93466 0
M  V30 1630 C 148.468 3.01078 3.04197 0
M  V30 1631 C 147.794 2.97595 4.44231 0
M  V30 1632 C 149.094 4.41254 2.7945 0
M  V30 1633 H 150.788 2.66725 1.36008 0
M  V30 1634 H 148.334 1.2835 0.652864 0
M  V30 1635 H 150.287 2.0064 3.70569 0
M  V30 1636 H 149.011 0.900207 3.13949 0
M  V30 1637 H 147.67 2.85851 2.29531 0
M  V30 1638 H 147.318 1.99691 4.61663 0
M  V30 1639 H 147.018 3.75046 4.52343 0
M  V30 1640 H 148.542 3.14583 5.23326 0
M  V30 1641 H 149.956 4.56897 3.46292 0
M  V30 1642 H 148.353 5.20315 2.98985 0
M  V30 1643 H 149.423 4.52164 1.75144 0
M  V30 1644 N 150.766 -0.704594 1.40972 0
M  V30 1645 C 151.696 -1.83124 1.44872 0
M  V30 1646 C 152.677 -1.67281 0.30838 0
M  V30 1647 O 153.862 -1.87149 0.518556 0
M  V30 1648 C 150.992 -3.21181 1.32136 0
M  V30 1649 C 149.946 -3.51714 2.43888 0
M  V30 1650 C 149.272 -4.89032 2.16222 0
M  V30 1651 C 150.572 -3.516 3.86232 0
M  V30 1652 H 152.266 -1.80117 2.39161 0
M  V30 1653 H 149.812 -0.865145 1.15114 0
M  V30 1654 H 151.765 -3.99702 1.33479 0
M  V30 1655 H 150.489 -3.24791 0.343279 0
M  V30 1656 H 149.148 -2.75539 2.41813 0
M  V30 1657 H 148.796 -4.89256 1.16778 0
M  V30 1658 H 148.496 -5.10426 2.911 0
M  V30 1659 H 150.02 -5.69873 2.19265 0
M  V30 1660 H 151.434 -4.2014 3.9007 0
M  V30 1661 H 149.831 -3.84523 4.60719 0
M  V30 1662 H 150.901 -2.50757 4.15029 0
M  V30 1663 N 152.244 -1.26651 -0.937939 0
M  V30 1664 C 153.521 -1.0313 -1.66204 0
M  V30 1665 C 153.901 0.437256 -2.06522 0
M  V30 1666 O 153.249 1.41831 -1.79154 0
M  V30 1667 C 153.459 -1.98314 -2.87181 0
M  V30 1668 C 154.807 -2.27107 -3.58758 0
M  V30 1669 O 155.831 -1.96205 -2.97291 0
M  V30 1670 O 154.69 -2.79736 -4.69479 0
M  V30 1671 H 151.784 -0.392384 -0.727986 0
M  V30 1672 H 154.33 -1.37874 -0.989382 0
M  V30 1673 H 153.102 -2.97399 -2.54302 0
M  V30 1674 H 152.725 -1.64068 -3.6217 0
M  V30 1675 N 153.722 1.14298 -1.08507 0
M  V30 1676 C 154.669 2.19414 -0.715965 0
M  V30 1677 C 155.639 1.63399 0.298326 0
M  V30 1678 O 156.824 1.89929 0.182101 0
M  V30 1679 C 153.964 3.44845 -0.132534 0
M  V30 1680 C 153.077 4.15007 -1.19973 0
M  V30 1681 C 152.212 5.28024 -0.580048 0
M  V30 1682 C 151.251 5.9002 -1.62921 0
M  V30 1683 N 150.388 6.94485 -1.03125 0
M  V30 1684 H 155.228 2.50336 -1.61666 0
M  V30 1685 H 152.765 1.2293 -0.807882 0
M  V30 1686 H 154.723 4.16601 0.223454 0
M  V30 1687 H 153.353 3.14403 0.731467 0
M  V30 1688 H 152.405 3.41629 -1.67313 0
M  V30 1689 H 153.717 4.57178 -1.99473 0
M  V30 1690 H 152.871 6.06455 -0.172364 0
M  V30 1691 H 151.61 4.87076 0.246603 0
M  V30 1692 H 150.615 5.10291 -2.04654 0
M  V30 1693 H 151.84 6.33042 -2.45835 0
M  V30 1694 H 149.786 6.55612 -0.225711 0
M  V30 1695 H 149.703 7.35148 -1.76334 0
M  V30 1696 H 150.971 7.7679 -0.649458 0
M  V30 1697 N 155.201 0.870884 1.31352 0
M  V30 1698 C 156.431 0.496049 2.00557 0
M  V30 1699 C 156.839 -0.916241 1.65534 0
M  V30 1700 O 156.182 -1.61188 0.881134 0
M  V30 1701 C 156.244 0.574418 3.54881 0
M  V30 1702 C 155.908 1.94849 4.1338 0
M  V30 1703 C 156.905 2.91611 4.30417 0
M  V30 1704 C 154.59 2.25005 4.49086 0
M  V30 1705 C 156.584 4.16672 4.82352 0
M  V30 1706 C 154.271 3.50315 5.00722 0
M  V30 1707 C 155.269 4.45964 5.17306 0
M  V30 1708 O 154.957 5.69052 5.67833 0
M  V30 1709 H 154.689 0.191664 0.64826 0
M  V30 1710 H 157.243 1.17409 1.68536 0
M  V30 1711 H 155.473 -0.160549 3.86367 0
M  V30 1712 H 157.162 0.212879 4.05341 0
M  V30 1713 H 157.928 2.69622 4.03149 0
M  V30 1714 H 153.807 1.51332 4.35453 0
M  V30 1715 H 157.351 4.91336 4.95211 0
M  V30 1716 H 153.248 3.72147 5.27424 0
M  V30 1717 H 154.016 5.71236 5.86201 0
M  V30 1718 N 156.679 -1.44442 0.630414 0
M  V30 1719 C 157.609 -2.33418 -0.0618083 0
M  V30 1720 C 158.59 -1.48165 -0.835541 0
M  V30 1721 O 159.775 -1.76886 -0.801564 0
M  V30 1722 C 156.905 -3.31222 -1.04449 0
M  V30 1723 C 155.859 -4.26288 -0.382436 0
M  V30 1724 C 155.185 -5.13954 -1.47497 0
M  V30 1725 C 156.485 -5.1744 0.710865 0
M  V30 1726 H 158.179 -2.91548 0.681184 0
M  V30 1727 H 155.725 -1.40191 0.329026 0
M  V30 1728 H 157.678 -3.92351 -1.53748 0
M  V30 1729 H 156.402 -2.71299 -1.81836 0
M  V30 1730 H 155.061 -3.6649 0.0899054 0
M  V30 1731 H 154.709 -4.50385 -2.2397 0
M  V30 1732 H 154.409 -5.7837 -1.03737 0
M  V30 1733 H 155.933 -5.77955 -1.96979 0
M  V30 1734 H 157.347 -5.72509 0.300996 0
M  V30 1735 H 155.744 -5.90455 1.07156 0
M  V30 1736 H 156.814 -4.58496 1.57829 0
M  V30 1737 N 158.157 -0.370918 -1.53173 0
M  V30 1738 C 159.406 0.218249 -2.00516 0
M  V30 1739 C 159.719 1.49429 -1.26215 0
M  V30 1740 O 160.925 2.16239 -1.64174 0
M  V30 1741 C 159.381 0.43948 -3.57207 0
M  V30 1742 C 158.989 -0.822244 -4.4039 0
M  V30 1743 C 160.733 0.986012 -4.1289 0
M  V30 1744 C 158.64 -0.570304 -5.88644 0
M  V30 1745 H 157.57 0.0853333 -0.749156 0
M  V30 1746 H 160.221 -0.490483 -1.76823 0
M  V30 1747 H 158.603 1.20961 -3.77074 0
M  V30 1748 H 159.777 -1.59557 -4.32294 0
M  V30 1749 H 158.092 -1.29238 -3.95836 0
M  V30 1750 H 160.689 1.18991 -5.21292 0
M  V30 1751 H 161.032 1.94972 -3.6782 0
M  V30 1752 H 161.565 0.27592 -3.96842 0
M  V30 1753 H 158.304 -1.50449 -6.38001 0
M  V30 1754 H 157.824 0.164427 -5.99575 0
M  V30 1755 H 159.503 -0.19784 -6.46697 0
M  V30 1756 N 159.635 1.57281 -0.100228 0
M  V30 1757 C 161.046 1.81725 0.428107 0
M  V30 1758 C 161.397 1.01619 1.67833 0
M  V30 1759 O 160.522 0.247098 2.14985 0
M  V30 1760 C 161.117 3.29617 0.78347 0
M  V30 1761 C 159.676 3.54808 1.25653 0
M  V30 1762 C 158.823 2.76118 0.255752 0
M  V30 1763 H 161.774 1.55324 -0.325608 0
M  V30 1764 H 161.795 3.4322 1.64256 0
M  V30 1765 H 161.307 3.87893 -0.12665 0
M  V30 1766 H 159.408 3.01868 2.18418 0
M  V30 1767 H 159.521 4.63443 1.21482 0
M  V30 1768 H 157.885 2.43745 0.738956 0
M  V30 1769 H 158.668 3.37145 -0.647136 0
M  V30 1770 N 161.113 -0.173488 1.56642 0
M  V30 1771 C 162.061 -1.23417 1.97157 0
M  V30 1772 C 163.055 -1.45946 0.860013 0
M  V30 1773 O 164.261 -1.46551 1.04512 0
M  V30 1774 H 160.636 -0.414818 0.62724 0
M  V30 1775 H 162.607 -0.865582 2.8557 0
M  V30 1776 C 161.356 -2.5665 2.34576 0
M  V30 1777 H 160.679 -2.40137 3.19647 0
M  V30 1778 H 162.119 -3.2956 2.6677 0
M  V30 1779 C 160.578 -3.15245 1.18836 0
M  V30 1780 O 161.108 -3.98883 0.474869 0
M  V30 1781 N 159.314 -2.74303 0.959497 0
M  V30 1782 H 158.861 -2.0639 1.54146 0
M  V30 1783 H 158.819 -3.13844 0.186932 0
M  V30 1784 N 162.591 -1.51276 -0.441967 0
M  V30 1785 C 163.554 -1.7167 -1.51862 0
M  V30 1786 C 164.554 -0.586793 -1.49711 0
M  V30 1787 O 165.744 -0.854276 -1.51815 0
M  V30 1788 C 162.876 -1.76889 -2.91416 0
M  V30 1789 H 164.069 -2.67754 -1.35084 0
M  V30 1790 H 161.622 -1.41196 -0.670333 0
M  V30 1791 H 162.357 -0.826026 -3.13604 0
M  V30 1792 H 162.142 -2.59001 -2.94382 0
M  V30 1793 H 163.632 -1.94522 -3.69528 0
M  V30 1794 N 164.069 0.697108 -1.41344 0
M  V30 1795 C 165.297 1.48593 -1.43972 0
M  V30 1796 C 165.712 1.88747 -0.0445612 0
M  V30 1797 O 165.069 1.56682 0.935785 0
M  V30 1798 C 165.12 2.74946 -2.34706 0
M  V30 1799 O 164.841 2.36484 -3.68791 0
M  V30 1800 C 166.342 3.687 -2.46121 0
M  V30 1801 H 163.562 0.457964 -0.490418 0
M  V30 1802 H 166.106 0.858429 -1.8561 0
M  V30 1803 H 164.261 3.33937 -1.9638 0
M  V30 1804 H 164.675 3.17918 -4.17167 0
M  V30 1805 H 166.149 4.54145 -3.13777 0
M  V30 1806 H 166.626 4.13081 -1.49199 0
M  V30 1807 H 167.232 3.15613 -2.85076 0
M  V30 1808 N 165.547 1.27147 0.931209 0
M  V30 1809 C 166.479 1.05364 2.03546 0
M  V30 1810 C 167.492 0.0108438 1.62796 0
M  V30 1811 O 168.681 0.25202 1.76712 0
M  V30 1812 C 165.781 0.575566 3.33977 0
M  V30 1813 C 164.954 1.68985 4.03439 0
M  V30 1814 C 164.013 1.20813 5.12143 0
M  V30 1815 O 163.039 1.90712 5.363 0
M  V30 1816 N 164.241 0.0618851 5.80467 0
M  V30 1817 H 167.006 2.00454 2.22796 0
M  V30 1818 H 164.567 1.18666 1.10136 0
M  V30 1819 H 166.559 0.237264 4.04004 0
M  V30 1820 H 165.129 -0.282016 3.11325 0
M  V30 1821 H 164.349 2.19861 3.27192 0
M  V30 1822 H 165.637 2.4378 4.46597 0
M  V30 1823 H 165.035 -0.521621 5.6329 0
M  V30 1824 H 163.592 -0.217264 6.51438 0
M  V30 1825 N 167.025 -1.13721 1.09112 0
M  V30 1826 C 168.436 -1.6648 0.845068 0
M  V30 1827 C 168.787 -1.85911 -0.62701 0
M  V30 1828 O 167.912 -1.57556 -1.48341 0
M  V30 1829 C 168.507 -3.02413 1.52748 0
M  V30 1830 C 167.066 -3.52176 1.32849 0
M  V30 1831 C 166.213 -2.27492 1.58564 0
M  V30 1832 H 169.164 -0.976872 1.25072 0
M  V30 1833 H 169.185 -3.68223 0.958752 0
M  V30 1834 H 168.697 -2.88238 2.59885 0
M  V30 1835 H 166.798 -3.7156 0.278137 0
M  V30 1836 H 166.911 -4.32499 2.0611 0
M  V30 1837 H 165.275 -2.33923 1.00758 0
M  V30 1838 H 166.058 -2.15886 2.66924 0
M  V30 1839 N 168.503 -0.877838 -1.30888 0
M  V30 1840 C 169.413 -0.343096 -2.32078 0
M  V30 1841 C 170.429 0.551022 -1.65045 0
M  V30 1842 O 171.605 0.445854 -1.96403 0
M  V30 1843 C 168.67 0.439905 -3.43898 0
M  V30 1844 C 167.731 -0.483111 -4.26573 0
M  V30 1845 C 166.964 0.262616 -5.33053 0
M  V30 1846 O 167.187 1.48967 -5.50604 0
M  V30 1847 O 166.121 -0.383593 -6.00676 0
M  V30 1848 H 169.947 -1.18203 -2.79753 0
M  V30 1849 H 167.532 -0.64145 -1.34929 0
M  V30 1850 H 169.414 0.883504 -4.12034 0
M  V30 1851 H 168.089 1.25526 -2.98371 0
M  V30 1852 H 166.996 -0.975374 -3.61161 0
M  V30 1853 H 168.329 -1.26427 -4.75686 0
M  V30 1854 N 169.982 1.44106 -0.638065 0
M  V30 1855 C 171.207 2.0685 -0.150916 0
M  V30 1856 C 171.632 1.47417 1.16833 0
M  V30 1857 O 170.99 0.578264 1.71831 0
M  V30 1858 C 171.038 3.60555 -0.05708 0
M  V30 1859 O 170.142 4.00465 0.984972 0
M  V30 1860 H 169.483 0.658151 -0.0879399 0
M  V30 1861 H 172.013 1.84865 -0.876707 0
M  V30 1862 H 172.023 4.07789 0.131232 0
M  V30 1863 H 170.698 4.03193 -1.02021 0
M  V30 1864 H 169.275 3.64849 0.770672 0
M  V30 1865 N 171.46 0.379036 1.52974 0
M  V30 1866 C 172.407 -0.461048 2.26148 0
M  V30 1867 C 173.377 -1.06637 1.27349 0
M  V30 1868 O 174.562 -1.09633 1.56157 0
M  V30 1869 C 171.702 -1.58782 3.06402 0
M  V30 1870 C 170.815 -1.00636 4.20115 0
M  V30 1871 C 169.95 -2.10334 4.87784 0
M  V30 1872 C 168.989 -1.49724 5.93506 0
M  V30 1873 N 168.126 -2.5331 6.54812 0
M  V30 1874 H 172.966 0.169429 2.97518 0
M  V30 1875 H 170.503 0.0953806 1.4679 0
M  V30 1876 H 172.461 -2.25174 3.51215 0
M  V30 1877 H 171.091 -2.18876 2.37261 0
M  V30 1878 H 170.143 -0.232332 3.7969 0
M  V30 1879 H 171.455 -0.523343 4.96047 0
M  V30 1880 H 170.609 -2.84519 5.35849 0
M  V30 1881 H 169.348 -2.61992 4.11353 0
M  V30 1882 H 168.353 -0.740598 5.44789 0
M  V30 1883 H 169.578 -0.988732 6.71864 0
M  V30 1884 H 167.524 -3.04156 5.81227 0
M  V30 1885 H 167.441 -2.09734 7.26325 0
M  V30 1886 H 168.709 -3.27155 7.07524 0
M  V30 1887 N 172.938 -1.57226 0.108567 0
M  V30 1888 C 174.184 -1.95121 -0.552761 0
M  V30 1889 C 174.517 -0.991345 -1.66991 0
M  V30 1890 O 173.792 -0.0267211 -1.94482 0
M  V30 1891 C 174.075 -3.43039 -1.09528 0
M  V30 1892 C 173.928 -4.49797 0.0177332 0
M  V30 1893 C 175.247 -3.92567 -1.98945 0
M  V30 1894 H 172.366 -0.709496 -0.199461 0
M  V30 1895 H 175.008 -1.89126 0.182011 0
M  V30 1896 H 173.158 -3.48279 -1.72146 0
M  V30 1897 H 174.83 -4.56661 0.652584 0
M  V30 1898 H 173.073 -4.284 0.682309 0
M  V30 1899 H 173.744 -5.50528 -0.402919 0
M  V30 1900 H 176.22 -3.89565 -1.46214 0
M  V30 1901 H 175.096 -4.96605 -2.33827 0
M  V30 1902 H 175.357 -3.32648 -2.91201 0
M  V30 1903 N 174.416 0.165178 -1.56732 0
M  V30 1904 C 175.663 0.880807 -1.8234 0
M  V30 1905 C 175.991 1.81977 -0.686621 0
M  V30 1906 O 175.246 1.92971 0.325697 0
M  V30 1907 C 175.545 1.70405 -3.1416 0
M  V30 1908 C 175.211 0.913475 -4.4155 0
M  V30 1909 C 173.873 0.695303 -4.7615 0
M  V30 1910 C 176.225 0.359349 -5.1996 0
M  V30 1911 C 173.553 -0.0879947 -5.86634 0
M  V30 1912 C 175.905 -0.410893 -6.31264 0
M  V30 1913 C 174.569 -0.639808 -6.64427 0
M  V30 1914 H 173.839 0.32231 -0.667231 0
M  V30 1915 H 176.486 0.145402 -1.90947 0
M  V30 1916 H 174.791 2.50903 -3.00923 0
M  V30 1917 H 176.488 2.26091 -3.31186 0
M  V30 1918 H 173.078 1.09357 -4.14414 0
M  V30 1919 H 177.262 0.515228 -4.93618 0
M  V30 1920 H 172.518 -0.27503 -6.10781 0
M  V30 1921 H 176.692 -0.847494 -6.91224 0
M  V30 1922 H 174.319 -1.24864 -7.49875 0
M  V30 1923 N 175.894 1.51508 0.433938 0
M  V30 1924 C 177.124 1.67914 1.20369 0
M  V30 1925 C 177.532 0.377461 1.85397 0
M  V30 1926 O 176.875 -0.654255 1.71654 0
M  V30 1927 C 176.937 2.74045 2.32679 0
M  V30 1928 C 176.601 4.16543 1.87991 0
M  V30 1929 C 177.598 5.01211 1.38145 0
M  V30 1930 C 175.283 4.6266 1.95579 0
M  V30 1931 C 177.277 6.30056 0.964774 0
M  V30 1932 C 174.964 5.91501 1.53523 0
M  V30 1933 C 175.962 6.75027 1.04055 0
M  V30 1934 O 175.65 8.01459 0.625964 0
M  V30 1935 H 175.382 0.566578 0.368735 0
M  V30 1936 H 177.936 1.98709 0.51999 0
M  V30 1937 H 176.166 2.38572 3.04336 0
M  V30 1938 H 177.855 2.79295 2.94532 0
M  V30 1939 H 178.621 4.66783 1.31675 0
M  V30 1940 H 174.5 3.97767 2.33029 0
M  V30 1941 H 178.044 6.95202 0.57796 0
M  V30 1942 H 173.941 6.25442 1.59665 0
M  V30 1943 H 174.709 8.15043 0.751509 0
M  V30 1944 N 177.372 -0.689602 1.41712 0
M  V30 1945 C 178.302 -1.81577 1.46806 0
M  V30 1946 C 179.283 -1.66945 0.326105 0
M  V30 1947 O 180.468 -1.86588 0.538377 0
M  V30 1948 C 177.598 -3.19762 1.35535 0
M  V30 1949 C 176.552 -3.49107 2.47605 0
M  V30 1950 C 175.878 -4.86711 2.21397 0
M  V30 1951 C 177.178 -3.47483 3.89939 0
M  V30 1952 H 178.872 -1.7757 2.41058 0
M  V30 1953 H 176.418 -0.852887 1.16025 0
M  V30 1954 H 178.371 -3.98263 1.3771 0
M  V30 1955 H 177.095 -3.24409 0.377708 0
M  V30 1956 H 175.754 -2.72959 2.44722 0
M  V30 1957 H 175.402 -4.8799 1.21961 0
M  V30 1958 H 175.102 -5.0731 2.96497 0
M  V30 1959 H 176.626 -5.67515 2.25297 0
M  V30 1960 H 178.04 -4.1598 3.94505 0
M  V30 1961 H 176.437 -3.79615 4.64771 0
M  V30 1962 H 177.507 -2.46341 4.17665 0
M  V30 1963 N 178.85 -1.27639 -0.924453 0
M  V30 1964 C 179.797 -1.10644 -2.0255 0
M  V30 1965 C 180.767 -0.00658438 -1.66099 0
M  V30 1966 O 181.952 -0.16952 -1.90045 0
M  V30 1967 C 179.092 -0.76309 -3.36557 0
M  V30 1968 C 178.205 -1.94091 -3.85944 0
M  V30 1969 C 177.34 -1.53914 -5.08413 0
M  V30 1970 C 176.379 -2.68425 -5.50104 0
M  V30 1971 N 175.516 -2.28815 -6.63768 0
M  V30 1972 H 180.356 -2.04858 -2.16419 0
M  V30 1973 H 177.893 -1.01974 -1.06017 0
M  V30 1974 H 179.851 -0.544822 -4.13627 0
M  V30 1975 H 178.481 0.142102 -3.22487 0
M  V30 1976 H 177.533 -2.27162 -3.05125 0
M  V30 1977 H 178.845 -2.7998 -4.12811 0
M  V30 1978 H 177.999 -1.28231 -5.92994 0
M  V30 1979 H 176.738 -0.651391 -4.8333 0
M  V30 1980 H 175.743 -2.94819 -4.64071 0
M  V30 1981 H 176.968 -3.57826 -5.7718 0
M  V30 1982 H 174.914 -1.42495 -6.40337 0
M  V30 1983 H 174.831 -3.08242 -6.90306 0
M  V30 1984 H 176.099 -2.06387 -7.51681 0
M  V30 1985 N 180.328 1.1314 -1.09713 0
M  V30 1986 C 181.261 2.17735 -0.683137 0
M  V30 1987 C 182.239 1.59582 0.311841 0
M  V30 1988 O 183.423 1.87298 0.212514 0
M  V30 1989 C 180.55 3.38699 -0.00684324 0
M  V30 1990 C 179.596 4.1546 -0.964102 0
M  V30 1991 S 180.429 4.74733 -2.47767 0
M  V30 1992 C 181.585 5.9904 -1.81387 0
M  V30 1993 H 181.818 2.52515 -1.56918 0
M  V30 1994 H 179.351 1.24484 -0.913404 0
M  V30 1995 H 181.309 4.08765 0.377044 0
M  V30 1996 H 179.97 3.02214 0.85589 0
M  V30 1997 H 179.163 5.02093 -0.43803 0
M  V30 1998 H 178.765 3.51066 -1.28953 0
M  V30 1999 H 181.057 6.67846 -1.13967 0
M  V30 2000 H 182 6.56261 -2.65947 0
M  V30 2001 H 182.408 5.4976 -1.28155 0
M  V30 2002 N 181.806 0.884767 1.30421 0
M  V30 2003 C 182.753 0.349642 2.28136 0
M  V30 2004 C 183.723 -0.560061 1.56373 0
M  V30 2005 O 184.908 -0.488524 1.8444 0
M  V30 2006 C 182.048 -0.42999 3.42411 0
M  V30 2007 C 181.161 0.508907 4.28992 0
M  V30 2008 C 180.296 -0.286301 5.30428 0
M  V30 2009 C 179.335 0.648079 6.08659 0
M  V30 2010 N 178.472 -0.111792 7.02011 0
M  V30 2011 H 183.312 1.18807 2.73293 0
M  V30 2012 H 180.849 0.597231 1.3443 0
M  V30 2013 H 182.807 -0.897923 4.07423 0
M  V30 2014 H 181.437 -1.23299 2.98324 0
M  V30 2015 H 180.489 1.09533 3.64289 0
M  V30 2016 H 181.801 1.22475 4.8353 0
M  V30 2017 H 180.955 -0.816098 6.01186 0
M  V30 2018 H 179.694 -1.03536 4.76583 0
M  V30 2019 H 178.699 1.18951 5.36778 0
M  V30 2020 H 179.924 1.39623 6.64592 0
M  V30 2021 H 177.87 -0.843395 6.50556 0
M  V30 2022 H 177.787 0.544429 7.54037 0
M  V30 2023 H 179.055 -0.622339 7.77012 0
M  V30 2024 N 183.284 -1.43765 0.645699 0
M  V30 2025 C 184.532 -2.01499 0.155731 0
M  V30 2026 C 184.853 -1.51151 -1.232 0
M  V30 2027 O 184.123 -0.721044 -1.82148 0
M  V30 2028 H 182.703 -0.745003 0.0545817 0
M  V30 2029 H 185.365 -1.76075 0.835677 0
M  V30 2030 H 184.461 -3.1181 0.134577 0
M  V30 2031 N 184.763 -0.387143 -1.52771 0
M  V30 2032 C 186.04 0.253197 -1.93954 0
M  V30 2033 C 186.42 1.64545 -1.32243 0
M  V30 2034 O 185.768 2.23191 -0.489699 0
M  V30 2035 C 185.978 0.281722 -3.47861 0
M  V30 2036 C 187.326 0.511715 -4.21505 0
M  V30 2037 O 188.35 0.362023 -3.54356 0
M  V30 2038 O 187.209 0.804847 -5.40541 0
M  V30 2039 H 184.303 0.156845 -0.811991 0
M  V30 2040 H 186.849 -0.441494 -1.63856 0
M  V30 2041 H 185.621 -0.693571 -3.85104 0
M  V30 2042 H 185.244 1.02142 -3.84256 0
M  V30 2043 N 186.241 1.57166 -0.116904 0
M  V30 2044 C 187.471 1.99184 0.548586 0
M  V30 2045 C 187.879 0.995436 1.60897 0
M  V30 2046 O 187.222 -0.0201293 1.83689 0
M  V30 2047 C 187.284 3.37611 1.23526 0
M  V30 2048 C 186.948 4.55857 0.323077 0
M  V30 2049 C 187.945 5.18056 -0.437476 0
M  V30 2050 C 185.63 5.01751 0.234761 0
M  V30 2051 C 187.624 6.24536 -1.2741 0
M  V30 2052 C 185.311 6.08093 -0.605496 0
M  V30 2053 C 186.309 6.69352 -1.35856 0
M  V30 2054 O 185.997 7.7364 -2.18487 0
M  V30 2055 H 185.729 0.659148 0.149999 0
M  V30 2056 H 188.283 2.0443 -0.199428 0
M  V30 2057 H 186.513 3.29113 2.0303 0
M  V30 2058 H 188.202 3.63932 1.79745 0
M  V30 2059 H 188.968 4.83516 -0.379105 0
M  V30 2060 H 184.847 4.53817 0.810601 0
M  V30 2061 H 188.391 6.72281 -1.86237 0
M  V30 2062 H 184.288 6.42063 -0.665268 0
M  V30 2063 H 185.056 7.90727 -2.11406 0
M  V30 2064 N 187.719 -0.156864 1.56817 0
M  V30 2065 C 188.966 -0.871125 1.82805 0
M  V30 2066 C 189.294 -1.81611 0.696262 0
M  V30 2067 O 188.549 -1.93141 -0.315459 0
M  V30 2068 C 188.848 -1.68737 3.1506 0
M  V30 2069 C 188.514 -0.890045 4.42028 0
M  V30 2070 C 187.176 -0.670042 4.76512 0
M  V30 2071 C 189.528 -0.331769 5.20143 0
M  V30 2072 C 186.856 0.119104 5.86579 0
M  V30 2073 C 189.208 0.444365 6.31037 0
M  V30 2074 C 187.872 0.675035 6.64078 0
M  V30 2075 H 187.142 -0.318767 0.668931 0
M  V30 2076 H 189.789 -0.135274 1.91022 0
M  V30 2077 H 188.094 -2.49304 3.0225 0
M  V30 2078 H 189.791 -2.24331 3.3238 0
M  V30 2079 H 186.381 -1.07157 4.14988 0
M  V30 2080 H 190.565 -0.489043 4.93885 0
M  V30 2081 H 185.821 0.307417 6.10627 0
M  V30 2082 H 189.995 0.884139 6.90765 0
M  V30 2083 H 187.622 1.28839 7.49203 0
M  V30 2084 N 189.197 -1.51736 -0.425897 0
M  V30 2085 C 190.613 -1.40166 -0.76326 0
M  V30 2086 C 190.813 -0.492962 -1.95377 0
M  V30 2087 O 189.869 0.0475815 -2.52455 0
M  V30 2088 C 191.182 -2.82403 -1.03291 0
M  V30 2089 C 192.73 -2.91632 -1.13665 0
M  V30 2090 C 193.205 -4.34801 -1.43916 0
M  V30 2091 N 194.696 -4.3796 -1.50816 0
M  V30 2092 C 195.431 -5.4578 -1.75817 0
M  V30 2093 N 194.927 -6.63744 -1.98534 0
M  V30 2094 N 196.72 -5.33274 -1.77694 0
M  V30 2095 H 188.871 -2.09361 0.358 0
M  V30 2096 H 191.134 -0.942941 0.0978094 0
M  V30 2097 H 190.84 -3.50943 -0.230696 0
M  V30 2098 H 190.714 -3.22428 -1.95754 0
M  V30 2099 H 193.101 -2.23284 -1.92947 0
M  V30 2100 H 193.182 -2.55088 -0.190756 0
M  V30 2101 H 192.826 -5.03703 -0.65157 0
M  V30 2102 H 192.756 -4.68868 -2.39729 0
M  V30 2103 H 195.247 -3.52919 -1.35118 0
M  V30 2104 H 195.56 -7.41704 -2.17013 0
M  V30 2105 H 193.905 -6.66839 -1.95832 0
M  V30 2106 H 197.096 -4.40098 -1.59473 0
M  V30 2107 H 197.269 -6.1738 -1.9684 0
M  V30 2108 N 190.675 0.682077 -1.42076 0
M  V30 2109 C 191.905 1.46844 -1.45329 0
M  V30 2110 C 192.313 1.89102 -0.0609328 0
M  V30 2111 O 191.656 1.58238 0.933082 0
M  V30 2112 C 191.718 2.75375 -2.31104 0
M  V30 2113 C 191.382 2.55238 -3.79081 0
M  V30 2114 C 192.379 2.20309 -4.70914 0
M  V30 2115 C 190.064 2.70459 -4.2327 0
M  V30 2116 C 192.058 2.00859 -6.04925 0
M  V30 2117 C 189.745 2.50624 -5.57343 0
M  V30 2118 C 190.743 2.15876 -6.47986 0
M  V30 2119 O 190.431 1.96227 -7.79583 0
M  V30 2120 H 190.163 0.4586 -0.496651 0
M  V30 2121 H 192.717 0.846131 -1.87162 0
M  V30 2122 H 190.947 3.40061 -1.84107 0
M  V30 2123 H 192.636 3.37231 -2.25898 0
M  V30 2124 H 193.402 2.08153 -4.38061 0
M  V30 2125 H 189.281 2.96485 -3.53012 0
M  V30 2126 H 192.825 1.7366 -6.75639 0
M  V30 2127 H 188.722 2.62375 -5.89771 0
M  V30 2128 H 189.49 2.10883 -7.90867 0
M  V30 2129 N 192.153 1.28127 0.917671 0
M  V30 2130 C 193.083 1.14248 2.03641 0
M  V30 2131 C 194.064 0.0412748 1.7005 0
M  V30 2132 O 195.249 0.217566 1.92977 0
M  V30 2133 C 192.379 0.799431 3.37974 0
M  V30 2134 C 191.333 1.85497 3.85713 0
M  V30 2135 C 190.659 1.36565 5.16966 0
M  V30 2136 C 191.959 3.26085 4.08002 0
M  V30 2137 H 193.653 2.07835 2.15511 0
M  V30 2138 H 191.199 1.00064 1.03553 0
M  V30 2139 H 193.152 0.689114 4.15727 0
M  V30 2140 H 191.876 -0.172145 3.26146 0
M  V30 2141 H 190.535 1.95437 3.10161 0
M  V30 2142 H 190.183 0.383253 5.01538 0
M  V30 2143 H 189.883 2.07143 5.49878 0
M  V30 2144 H 191.407 1.26848 5.97279 0
M  V30 2145 H 192.821 3.19089 4.76293 0
M  V30 2146 H 191.218 3.94462 4.52238 0
M  V30 2147 H 192.288 3.70394 3.12948 0
M  V30 2148 N 193.631 -1.12557 1.10312 0
M  V30 2149 C 194.856 -1.88405 0.867085 0
M  V30 2150 C 195.281 -1.79038 -0.576817 0
M  V30 2151 O 194.639 -1.14439 -1.40618 0
M  V30 2152 C 194.687 -3.3563 1.31851 0
M  V30 2153 O 193.791 -4.09565 0.482734 0
M  V30 2154 H 193.132 -0.585455 0.313271 0
M  V30 2155 H 195.662 -1.42352 1.4696 0
M  V30 2156 H 195.672 -3.86469 1.3079 0
M  V30 2157 H 194.347 -3.41765 2.37001 0
M  V30 2158 H 192.924 -3.68695 0.558448 0
M  V30 2159 N 195.109 -0.891671 -1.2995 0
M  V30 2160 C 196.019 -0.367691 -2.31701 0
M  V30 2161 C 197.035 0.533486 -1.6562 0
M  V30 2162 O 198.211 0.424997 -1.96865 0
M  V30 2163 C 195.276 0.403406 -3.44345 0
M  V30 2164 C 194.337 -0.528328 -4.26037 0
M  V30 2165 C 193.57 0.206063 -5.33302 0
M  V30 2166 O 193.793 1.43119 -5.52153 0
M  V30 2167 O 192.727 -0.447281 -6.00236 0
M  V30 2168 H 196.553 -1.21163 -2.78484 0
M  V30 2169 H 194.138 -0.655725 -1.34241 0
M  V30 2170 H 196.02 0.839753 -4.12948 0
M  V30 2171 H 194.695 1.22354 -2.99685 0
M  V30 2172 H 193.602 -1.01362 -3.60106 0
M  V30 2173 H 194.935 -1.31465 -4.74318 0
M  V30 2174 N 196.587 1.43421 -0.653314 0
M  V30 2175 C 197.833 2.02111 -0.166992 0
M  V30 2176 C 198.166 1.51423 1.21592 0
M  V30 2177 O 197.441 0.707389 1.8118 0
M  V30 2178 C 197.724 3.5966 -0.177948 0
M  V30 2179 C 197.577 4.20579 -1.59478 0
M  V30 2180 C 198.896 4.37413 0.4856 0
M  V30 2181 H 196.015 0.734374 -0.0621557 0
M  V30 2182 H 198.657 1.70717 -0.834016 0
M  V30 2183 H 196.807 3.86537 0.390032 0
M  V30 2184 H 198.479 4.04732 -2.21336 0
M  V30 2185 H 196.722 3.77226 -2.14204 0
M  V30 2186 H 197.393 5.29665 -1.5543 0
M  V30 2187 H 199.869 4.161 0.00234528 0
M  V30 2188 H 198.745 5.47075 0.447207 0
M  V30 2189 H 199.006 4.13672 1.55974 0
M  V30 2190 N 198.065 0.39524 1.52563 0
M  V30 2191 C 199.028 -0.425001 2.25225 0
M  V30 2192 C 200.028 -0.985266 1.27079 0
M  V30 2193 O 201.218 -0.866332 1.5113 0
M  V30 2194 C 198.35 -1.59686 3.01186 0
M  V30 2195 H 199.543 0.211233 2.99155 0
M  V30 2196 H 197.096 0.147472 1.55603 0
M  V30 2197 H 197.831 -2.27035 2.31572 0
M  V30 2198 H 197.616 -1.20176 3.73229 0
M  V30 2199 H 199.106 -2.17743 3.5634 0
M  V30 2200 N 199.544 -1.57102 0.125237 0
M  V30 2201 C 200.769 -2.0019 -0.542101 0
M  V30 2202 C 201.194 -1.00449 -1.59034 0
M  V30 2203 O 200.552 0.0229423 -1.81285 0
M  V30 2204 C 200.6 -3.42129 -1.13929 0
M  V30 2205 O 199.704 -3.45307 -2.2547 0
M  V30 2206 H 199.045 -0.650171 -0.134812 0
M  V30 2207 H 201.575 -2.03461 0.215553 0
M  V30 2208 H 201.585 -3.80471 -1.4733 0
M  V30 2209 H 200.26 -4.14237 -0.371531 0
M  V30 2210 H 198.837 -3.1879 -1.93462 0
M  V30 2211 N 201.022 0.148545 -1.56898 0
M  V30 2212 C 202.27 0.859717 -1.82902 0
M  V30 2213 C 202.591 1.81775 -0.70588 0
M  V30 2214 O 201.861 1.93994 0.272586 0
M  V30 2215 H 200.441 0.320469 -0.674766 0
M  V30 2216 H 203.103 0.142918 -1.94375 0
M  V30 2217 H 202.199 1.4229 -2.77777 0
M  V30 2218 N 202.5 1.5196 0.417844 0
M  V30 2219 C 203.777 1.56146 1.17803 0
M  V30 2220 C 204.157 0.337275 2.08388 0
M  V30 2221 O 203.505 -0.676447 2.18258 0
M  V30 2222 C 203.715 2.88566 1.96293 0
M  V30 2223 C 205.063 3.41244 2.52662 0
M  V30 2224 O 206.087 2.90247 2.06483 0
M  V30 2225 O 204.946 4.30273 3.36938 0
M  V30 2226 H 202.04 0.628598 0.537395 0
M  V30 2227 H 204.586 1.64283 0.425331 0
M  V30 2228 H 203.358 3.69116 1.2988 0
M  V30 2229 H 202.981 2.83681 2.78587 0
M  V30 2230 N 203.978 -0.674533 1.42435 0
M  V30 2231 C 204.926 -1.80934 1.46169 0
M  V30 2232 C 205.92 -1.66006 0.3374 0
M  V30 2233 O 207.126 -1.72611 0.510425 0
M  V30 2234 H 203.501 -0.596594 0.457798 0
M  V30 2235 H 205.472 -1.74903 2.41767 0
M  V30 2236 C 204.221 -3.19088 1.38123 0
M  V30 2237 H 203.544 -3.31203 2.23931 0
M  V30 2238 H 204.984 -3.9851 1.44797 0
M  V30 2239 C 203.443 -3.36763 0.0960517 0
M  V30 2240 O 203.973 -3.92581 -0.851073 0
M  V30 2241 N 202.179 -2.90597 0.0131186 0
M  V30 2242 H 201.726 -2.45359 0.784639 0
M  V30 2243 H 201.684 -3.028 -0.846133 0
M  V30 2244 N 205.456 -1.28612 -0.910864 0
M  V30 2245 C 206.403 -1.12786 -2.01365 0
M  V30 2246 C 207.373 -0.024201 -1.66082 0
M  V30 2247 O 208.558 -0.189667 -1.89855 0
M  V30 2248 C 205.698 -0.798743 -3.35729 0
M  V30 2249 C 204.811 -1.98173 -3.83864 0
M  V30 2250 C 203.946 -1.59298 -5.06752 0
M  V30 2251 C 202.985 -2.74245 -5.47226 0
M  V30 2252 N 202.122 -2.35842 -6.61304 0
M  V30 2253 H 206.962 -2.07142 -2.14234 0
M  V30 2254 H 204.499 -1.03093 -1.0493 0
M  V30 2255 H 206.457 -0.588662 -4.13026 0
M  V30 2256 H 205.087 0.10789 -3.2262 0
M  V30 2257 H 204.139 -2.30386 -3.02699 0
M  V30 2258 H 205.451 -2.84343 -4.09818 0
M  V30 2259 H 204.605 -1.34513 -5.916 0
M  V30 2260 H 203.344 -0.702618 -4.82612 0
M  V30 2261 H 202.349 -2.99725 -4.60918 0
M  V30 2262 H 203.574 -3.63928 -5.73353 0
M  V30 2263 H 201.52 -1.49279 -6.38789 0
M  V30 2264 H 201.437 -3.15546 -6.86998 0
M  V30 2265 H 202.705 -2.14348 -7.4945 0
M  V30 2266 N 206.934 1.1197 -1.10907 0
M  V30 2267 C 207.866 2.17592 -0.720175 0
M  V30 2268 C 208.879 1.60938 0.245495 0
M  V30 2269 O 210.068 1.78476 0.0292245 0
M  V30 2270 C 207.168 3.38873 -0.0427917 0
M  V30 2271 C 206.341 4.25006 -1.03388 0
M  V30 2272 C 205.4 5.24774 -0.387075 0
M  V30 2273 O 204.426 5.59631 -1.03934 0
M  V30 2274 N 205.628 5.74208 0.852407 0
M  V30 2275 H 208.393 2.51567 -1.62893 0
M  V30 2276 H 205.954 1.27439 -0.998543 0
M  V30 2277 H 207.946 4.02703 0.401501 0
M  V30 2278 H 206.516 3.03007 0.768456 0
M  V30 2279 H 205.736 3.57716 -1.65629 0
M  V30 2280 H 207.024 4.79397 -1.70458 0
M  V30 2281 H 206.422 5.48062 1.40161 0
M  V30 2282 H 204.979 6.39901 1.23977 0
M  V30 2283 N 208.412 0.89855 1.29475 0
M  V30 2284 C 209.64 0.539261 1.99749 0
M  V30 2285 C 210.055 -0.875716 1.67262 0
M  V30 2286 O 209.412 -1.57786 0.917049 0
M  V30 2287 C 209.463 0.72061 3.54245 0
M  V30 2288 O 209.184 2.07989 3.8558 0
M  V30 2289 C 210.685 0.366118 4.41786 0
M  V30 2290 H 207.905 0.207047 0.638258 0
M  V30 2291 H 210.449 1.20758 1.65039 0
M  V30 2292 H 208.604 0.0994862 3.87272 0
M  V30 2293 H 209.018 2.10841 4.80257 0
M  V30 2294 H 210.492 0.543848 5.49314 0
M  V30 2295 H 210.969 -0.696763 4.33638 0
M  V30 2296 H 211.575 0.964135 4.14228 0
M  V30 2297 N 209.89 -1.43072 0.660911 0
M  V30 2298 C 211.118 -2.06067 0.185422 0
M  V30 2299 C 211.533 -1.49582 -1.15198 0
M  V30 2300 O 210.89 -0.630134 -1.71276 0
M  V30 2301 C 210.941 -3.61371 0.0966523 0
M  V30 2302 O 210.662 -4.15758 1.38119 0
M  V30 2303 C 212.163 -4.41455 -0.403996 0
M  V30 2304 H 209.383 -0.664459 0.0934604 0
M  V30 2305 H 211.927 -1.83447 0.90373 0
M  V30 2306 H 210.082 -3.8315 -0.572259 0
M  V30 2307 H 210.496 -5.09499 1.24542 0
M  V30 2308 H 211.97 -5.50437 -0.415045 0
M  V30 2309 H 212.447 -4.15036 -1.43674 0
M  V30 2310 H 213.053 -4.24663 0.232691 0
M  V30 2311 N 211.368 -0.403325 -1.52352 0
M  V30 2312 C 212.614 0.174605 -2.02047 0
M  V30 2313 C 212.947 1.45282 -1.28867 0
M  V30 2314 O 212.222 1.90483 -0.393257 0
M  V30 2315 C 212.505 0.428238 -3.57545 0
M  V30 2316 C 212.358 -0.866248 -4.4138 0
M  V30 2317 C 213.677 1.21287 -4.23057 0
M  V30 2318 H 210.796 0.0619851 -0.734389 0
M  V30 2319 H 213.438 -0.53565 -1.82293 0
M  V30 2320 H 211.588 1.03327 -3.74507 0
M  V30 2321 H 213.26 -1.50265 -4.3614 0
M  V30 2322 H 211.503 -1.47851 -4.07827 0
M  V30 2323 H 212.174 -0.643249 -5.48239 0
M  V30 2324 H 214.65 0.700703 -4.10158 0
M  V30 2325 H 213.526 1.35909 -5.31808 0
M  V30 2326 H 213.787 2.23193 -3.81625 0
M  V30 2327 N 212.846 1.57033 -0.133567 0
M  V30 2328 C 214.071 2.00475 0.531477 0
M  V30 2329 C 214.496 1.01291 1.58499 0
M  V30 2330 O 213.854 -0.0133279 1.81295 0
M  V30 2331 C 213.902 3.42729 1.12113 0
M  V30 2332 O 213.006 3.46498 2.23636 0
M  V30 2333 H 212.347 0.650876 0.131362 0
M  V30 2334 H 214.877 2.03344 -0.22634 0
M  V30 2335 H 214.887 3.81246 1.4531 0
M  V30 2336 H 213.562 4.14428 0.349557 0
M  V30 2337 H 212.139 3.19811 1.91769 0
M  V30 2338 N 214.325 -0.140222 1.56975 0
M  V30 2339 C 215.273 -1.19207 1.99731 0
M  V30 2340 C 216.267 -1.44089 0.890777 0
M  V30 2341 O 217.473 -1.44301 1.07597 0
M  V30 2342 H 213.848 -0.40142 0.635898 0
M  V30 2343 H 215.819 -0.804813 2.87342 0
M  V30 2344 C 214.568 -2.51617 2.39967 0
M  V30 2345 H 213.891 -2.33303 3.24669 0
M  V30 2346 H 215.331 -3.23827 2.73701 0
M  V30 2347 C 213.79 -3.12654 1.25496 0
M  V30 2348 O 214.32 -3.97786 0.559371 0
M  V30 2349 N 212.526 -2.72206 1.01746 0
M  V30 2350 H 212.073 -2.03074 1.58489 0
M  V30 2351 H 212.031 -3.13377 0.253461 0
M  V30 2352 N 215.803 -1.52179 -0.40978 0
M  V30 2353 C 217.028 -1.70347 -1.18308 0
M  V30 2354 C 217.453 -0.411887 -1.83535 0
M  V30 2355 O 216.811 0.630587 -1.6998 0
M  V30 2356 C 216.859 -2.83977 -2.22238 0
M  V30 2357 O 215.963 -2.495 -3.28365 0
M  V30 2358 H 215.304 -0.567103 -0.345384 0
M  V30 2359 H 217.834 -1.98879 -0.480445 0
M  V30 2360 H 217.844 -3.0887 -2.66577 0
M  V30 2361 H 216.519 -3.77685 -1.74146 0
M  V30 2362 H 215.096 -2.35277 -2.89308 0
M  V30 2363 N 217.281 0.66697 -1.42791 0
M  V30 2364 C 218.213 1.7925 -1.42836 0
M  V30 2365 C 219.226 1.59496 -0.326333 0
M  V30 2366 O 220.415 1.6847 -0.589916 0
M  V30 2367 C 217.515 3.16476 -1.21229 0
M  V30 2368 C 216.688 3.63011 -2.44013 0
M  V30 2369 C 215.747 4.78993 -2.17834 0
M  V30 2370 O 214.773 4.89137 -2.91091 0
M  V30 2371 N 215.975 5.68248 -1.18635 0
M  V30 2372 H 218.74 1.79695 -2.39854 0
M  V30 2373 H 216.301 0.850338 -1.37771 0
M  V30 2374 H 218.293 3.91734 -1.01621 0
M  V30 2375 H 216.863 3.10884 -0.32706 0
M  V30 2376 H 216.083 2.78346 -2.79137 0
M  V30 2377 H 217.371 3.90845 -3.25757 0
M  V30 2378 H 216.769 5.62712 -0.580615 0
M  V30 2379 H 215.326 6.43285 -1.05013 0
M  V30 2380 N 218.759 1.29093 0.90403 0
M  V30 2381 C 219.691 1.09658 2.01266 0
M  V30 2382 C 220.704 0.0453729 1.62737 0
M  V30 2383 O 221.893 0.289446 1.76138 0
M  V30 2384 C 218.993 0.646278 3.32681 0
M  V30 2385 C 218.166 1.77505 3.99763 0
M  V30 2386 C 217.225 1.31649 5.09465 0
M  V30 2387 O 216.251 2.02045 5.32134 0
M  V30 2388 N 217.453 0.184997 5.80205 0
M  V30 2389 H 220.218 2.05135 2.18494 0
M  V30 2390 H 217.779 1.20975 1.07594 0
M  V30 2391 H 219.771 0.322906 4.0341 0
M  V30 2392 H 218.341 -0.215916 3.11853 0
M  V30 2393 H 217.561 2.26752 3.22455 0
M  V30 2394 H 218.849 2.53198 4.41325 0
M  V30 2395 H 218.247 -0.402021 5.6427 0
M  V30 2396 H 216.804 -0.0790358 6.51752 0
M  V30 2397 N 220.237 -1.11381 1.11499 0
M  V30 2398 C 221.2 -2.15622 0.777153 0
M  V30 2399 C 222.2 -1.59504 -0.203779 0
M  V30 2400 O 223.39 -1.74188 0.020782 0
M  V30 2401 C 220.522 -3.40556 0.153116 0
M  V30 2402 H 221.715 -2.47021 1.70061 0
M  V30 2403 H 219.268 -1.26577 0.916952 0
M  V30 2404 H 220.003 -3.14767 -0.780536 0
M  V30 2405 H 219.788 -3.8257 0.859238 0
M  V30 2406 H 221.278 -4.17546 -0.0671044 0
M  V30 2407 N 221.715 -0.905404 -1.28997 0
M  V30 2408 C 222.945 -0.549049 -1.99171 0
M  V30 2409 C 223.353 0.87203 -1.67906 0
M  V30 2410 O 222.696 1.58796 -0.923561 0
M  V30 2411 C 222.758 -0.668306 -3.53234 0
M  V30 2412 C 222.422 -2.0574 -4.08069 0
M  V30 2413 C 223.419 -3.0292 -4.22534 0
M  V30 2414 C 221.104 -2.36833 -4.42962 0
M  V30 2415 C 223.098 -4.29314 -4.71135 0
M  V30 2416 C 220.785 -3.63467 -4.91258 0
M  V30 2417 C 221.783 -4.59522 -5.053 0
M  V30 2418 O 221.471 -5.83907 -5.52546 0
M  V30 2419 H 221.203 -0.208784 -0.64295 0
M  V30 2420 H 223.757 -1.21836 -1.65363 0
M  V30 2421 H 221.987 0.0580547 -3.86656 0
M  V30 2422 H 223.676 -0.320273 -4.04634 0
M  V30 2423 H 224.442 -2.80216 -3.95859 0
M  V30 2424 H 220.321 -1.62824 -4.31288 0
M  V30 2425 H 223.865 -5.04293 -4.8201 0
M  V30 2426 H 219.762 -3.86 -5.17372 0
M  V30 2427 H 220.53 -5.86578 -5.70849 0
M  V30 2428 N 223.193 1.4272 -0.668489 0
M  V30 2429 C 224.125 2.2914 0.052613 0
M  V30 2430 C 225.138 1.43339 0.771857 0
M  V30 2431 O 226.327 1.67123 0.627067 0
M  V30 2432 C 223.427 3.20618 1.09804 0
M  V30 2433 C 222.6 4.35039 0.45389 0
M  V30 2434 C 221.659 5.07282 1.39825 0
M  V30 2435 O 220.685 5.62024 0.900978 0
M  V30 2436 N 221.887 5.12206 2.73176 0
M  V30 2437 H 224.652 2.91668 -0.689209 0
M  V30 2438 H 222.213 1.53577 -0.512422 0
M  V30 2439 H 224.205 3.65815 1.73094 0
M  V30 2440 H 222.775 2.59585 1.74167 0
M  V30 2441 H 221.995 3.92567 -0.358396 0
M  V30 2442 H 223.283 5.088 0.00486972 0
M  V30 2443 H 222.681 4.6913 3.16122 0
M  V30 2444 H 221.238 5.61069 3.31729 0
M  V30 2445 N 224.671 0.411399 1.52136 0
M  V30 2446 C 225.581 -0.419774 2.30814 0
M  V30 2447 C 226.597 -1.0515 1.38634 0
M  V30 2448 O 227.773 -1.05252 1.71709 0
M  V30 2449 C 224.838 -1.52019 3.11594 0
M  V30 2450 C 223.899 -0.91129 4.19516 0
M  V30 2451 C 223.132 -1.95927 4.96436 0
M  V30 2452 O 223.355 -3.17775 4.73683 0
M  V30 2453 O 222.289 -1.56423 5.81219 0
M  V30 2454 H 226.115 0.221805 3.02889 0
M  V30 2455 H 223.7 0.174547 1.48377 0
M  V30 2456 H 225.582 -2.15898 3.61892 0
M  V30 2457 H 224.257 -2.14633 2.42311 0
M  V30 2458 H 223.164 -0.235157 3.7336 0
M  V30 2459 H 224.497 -0.32904 4.91099 0
M  V30 2460 N 226.149 -1.5696 0.141893 0
M  V30 2461 C 227.112 -2.15316 -0.785587 0
M  V30 2462 C 228.112 -1.09366 -1.1788 0
M  V30 2463 O 229.302 -1.35031 -1.10056 0
M  V30 2464 C 226.434 -2.71211 -2.06537 0
M  V30 2465 H 227.627 -2.98608 -0.278041 0
M  V30 2466 H 225.18 -1.5593 -0.107519 0
M  V30 2467 H 225.915 -1.91571 -2.6167 0
M  V30 2468 H 225.7 -3.4872 -1.79268 0
M  V30 2469 H 227.19 -3.16189 -2.72789 0
M  V30 2470 N 227.627 0.131896 -1.57047 0
M  V30 2471 C 228.874 0.841932 -1.84168 0
M  V30 2472 C 229.202 1.8048 -0.725066 0
M  V30 2473 O 228.457 1.93618 0.284692 0
M  V30 2474 C 228.756 1.63703 -3.17704 0
M  V30 2475 C 228.422 0.81961 -4.43388 0
M  V30 2476 C 227.084 0.594148 -4.77518 0
M  V30 2477 C 229.436 0.248977 -5.20605 0
M  V30 2478 C 226.764 -0.212409 -5.86315 0
M  V30 2479 C 229.116 -0.544701 -6.30251 0
M  V30 2480 C 227.78 -0.780599 -6.6292 0
M  V30 2481 H 227.05 0.308085 -0.673917 0
M  V30 2482 H 229.697 0.104867 -1.91213 0
M  V30 2483 H 228.002 2.44464 -3.06177 0
M  V30 2484 H 229.699 2.19015 -3.35907 0
M  V30 2485 H 226.289 1.00542 -4.16641 0
M  V30 2486 H 230.473 0.410408 -4.946 0
M  V30 2487 H 225.729 -0.404524 -6.1006 0
M  V30 2488 H 229.903 -0.993922 -6.89271 0
M  V30 2489 H 227.53 -1.40742 -7.47058 0
M  V30 2490 N 229.106 1.52395 0.401703 0
M  V30 2491 C 230.016 1.7917 1.51444 0
M  V30 2492 C 231.032 0.677691 1.6026 0
M  V30 2493 O 232.208 0.963909 1.76835 0
M  V30 2494 C 229.273 1.94347 2.87107 0
M  V30 2495 C 228.334 3.18257 2.88116 0
M  V30 2496 C 227.567 3.32701 4.17308 0
M  V30 2497 O 227.79 2.52238 5.11598 0
M  V30 2498 O 226.724 4.25891 4.25324 0
M  V30 2499 H 230.55 2.73633 1.31752 0
M  V30 2500 H 228.135 1.3733 0.588296 0
M  V30 2501 H 230.017 2.06109 3.67555 0
M  V30 2502 H 228.692 1.03073 3.06851 0
M  V30 2503 H 227.599 3.11947 2.06494 0
M  V30 2504 H 228.932 4.09336 2.73322 0
M  V30 2505 N 230.584 -0.659388 1.43143 0
M  V30 2506 C 231.833 -1.41518 1.43721 0
M  V30 2507 C 232.146 -1.95499 0.0628176 0
M  V30 2508 O 233.352 -2.71446 -0.0539683 0
M  V30 2509 C 231.808 -2.5608 2.52885 0
M  V30 2510 C 231.416 -2.08733 3.96402 0
M  V30 2511 C 233.16 -3.3349 2.62649 0
M  V30 2512 C 231.067 -3.20469 4.97045 0
M  V30 2513 H 229.997 -0.531705 0.534608 0
M  V30 2514 H 232.648 -0.712343 1.69109 0
M  V30 2515 H 231.03 -3.28805 2.20688 0
M  V30 2516 H 232.204 -1.43059 4.3803 0
M  V30 2517 H 230.519 -1.44219 3.90627 0
M  V30 2518 H 233.116 -4.16734 3.35017 0
M  V30 2519 H 233.459 -3.8111 1.67513 0
M  V30 2520 H 233.992 -2.67842 2.94118 0
M  V30 2521 H 230.731 -2.77824 5.93712 0
M  V30 2522 H 230.251 -3.84874 4.60034 0
M  V30 2523 H 231.93 -3.85698 5.19467 0
M  V30 2524 N 232.062 -1.29571 -0.897171 0
M  V30 2525 C 233.287 -1.20705 -1.68656 0
M  V30 2526 C 233.712 0.228582 -1.86706 0
M  V30 2527 O 233.07 1.16494 -1.3892 0
M  V30 2528 C 233.118 -1.9282 -3.04717 0
M  V30 2529 O 232.222 -1.24697 -3.93096 0
M  V30 2530 H 231.563 -0.418126 -0.515816 0
M  V30 2531 H 234.093 -1.71183 -1.12061 0
M  V30 2532 H 234.103 -2.01372 -3.54843 0
M  V30 2533 H 232.778 -2.97239 -2.90899 0
M  V30 2534 H 231.355 -1.2442 -3.51531 0
M  V30 2535 N 233.54 1.10788 -1.12088 0
M  V30 2536 C 234.487 2.17025 -0.785407 0
M  V30 2537 C 235.457 1.64265 0.246191 0
M  V30 2538 O 236.642 1.90412 0.121584 0
M  V30 2539 C 233.782 3.44249 -0.242177 0
M  V30 2540 C 232.895 4.1098 -1.33115 0
M  V30 2541 C 232.03 5.25911 -0.747741 0
M  V30 2542 C 231.069 5.84538 -1.81609 0
M  V30 2543 N 230.206 6.90853 -1.25167 0
M  V30 2544 H 235.046 2.45066 -1.69548 0
M  V30 2545 H 232.583 1.20297 -0.846582 0
M  V30 2546 H 234.541 4.17101 0.0908026 0
M  V30 2547 H 233.171 3.16571 0.631072 0
M  V30 2548 H 232.223 3.36133 -1.78097 0
M  V30 2549 H 233.535 4.50601 -2.13917 0
M  V30 2550 H 232.689 6.056 -0.365216 0
M  V30 2551 H 231.428 4.87614 0.0915188 0
M  V30 2552 H 230.433 5.03522 -2.20785 0
M  V30 2553 H 231.658 6.249 -2.6585 0
M  V30 2554 H 229.604 6.54562 -0.434174 0
M  V30 2555 H 229.521 7.29166 -1.99633 0
M  V30 2556 H 230.789 7.7433 -0.896259 0
M  V30 2557 N 235.018 0.912232 1.28515 0
M  V30 2558 C 235.965 0.397954 2.27343 0
M  V30 2559 C 236.935 -0.526766 1.57526 0
M  V30 2560 O 238.12 -0.449292 1.85435 0
M  V30 2561 C 235.26 -0.357263 3.43246 0
M  V30 2562 C 234.373 0.599788 4.27816 0
M  V30 2563 C 233.508 -0.173725 5.30916 0
M  V30 2564 C 232.547 0.777039 6.07148 0
M  V30 2565 N 231.684 0.0371398 7.0209 0
M  V30 2566 H 236.524 1.24577 2.70711 0
M  V30 2567 H 234.061 0.625612 1.33133 0
M  V30 2568 H 236.019 -0.8113 4.09236 0
M  V30 2569 H 234.649 -1.16943 3.00872 0
M  V30 2570 H 233.701 1.17235 3.61884 0
M  V30 2571 H 235.013 1.32704 4.80823 0
M  V30 2572 H 234.167 -0.688394 6.02782 0
M  V30 2573 H 232.906 -0.934041 4.78672 0
M  V30 2574 H 231.911 1.3031 5.34134 0
M  V30 2575 H 233.136 1.53689 6.61481 0
M  V30 2576 H 231.082 -0.705213 6.52198 0
M  V30 2577 H 230.999 0.704249 7.52713 0
M  V30 2578 H 232.267 -0.457383 7.78157 0
M  V30 2579 N 236.496 -1.42363 0.676048 0
M  V30 2580 C 237.406 -2.346 -0.00153389 0
M  V30 2581 C 238.422 -1.5516 -0.787485 0
M  V30 2582 O 239.598 -1.87723 -0.729521 0
M  V30 2583 C 236.663 -3.33705 -0.940298 0
M  V30 2584 C 235.724 -4.29042 -0.148739 0
M  V30 2585 C 234.957 -5.23413 -1.04279 0
M  V30 2586 O 235.18 -5.22749 -2.28232 0
M  V30 2587 O 234.114 -5.99795 -0.502925 0
M  V30 2588 H 237.94 -2.94082 0.758268 0
M  V30 2589 H 235.525 -1.42888 0.436289 0
M  V30 2590 H 237.407 -3.94586 -1.47917 0
M  V30 2591 H 236.082 -2.76695 -1.67993 0
M  V30 2592 H 234.989 -3.71571 0.43427 0
M  V30 2593 H 236.322 -4.89097 0.551805 0
M  V30 2594 N 237.974 -0.419461 -1.51915 0
M  V30 2595 C 238.907 0.445751 -2.23804 0
M  V30 2596 C 239.885 1.03951 -1.25031 0
M  V30 2597 O 241.069 1.08541 -1.54114 0
M  V30 2598 C 238.196 1.61964 -2.97465 0
M  V30 2599 C 237.242 1.14828 -4.10751 0
M  V30 2600 S 238.075 0.104938 -5.35397 0
M  V30 2601 C 239.231 1.28391 -6.1259 0
M  V30 2602 H 239.464 -0.164627 -2.96844 0
M  V30 2603 H 236.997 -0.203833 -1.53049 0
M  V30 2604 H 238.955 2.29271 -3.40507 0
M  V30 2605 H 237.616 2.20139 -2.24048 0
M  V30 2606 H 236.809 2.02561 -4.61503 0
M  V30 2607 H 236.411 0.553712 -3.69878 0
M  V30 2608 H 238.703 2.20563 -6.40592 0
M  V30 2609 H 239.646 0.816724 -7.03374 0
M  V30 2610 H 240.054 1.51439 -5.43807 0
M  V30 2611 N 239.452 1.56882 -0.150215 0
M  V30 2612 C 240.384 2.14057 0.819286 0
M  V30 2613 C 241.397 1.09082 1.20851 0
M  V30 2614 O 242.586 1.36347 1.15203 0
M  V30 2615 C 239.686 2.65102 2.11127 0
M  V30 2616 C 238.859 3.94511 1.88891 0
M  V30 2617 C 237.918 4.30834 3.02107 0
M  V30 2618 O 236.944 4.99099 2.73659 0
M  V30 2619 N 238.146 3.90676 4.29363 0
M  V30 2620 H 240.911 2.97871 0.330618 0
M  V30 2621 H 238.472 1.61866 0.0332538 0
M  V30 2622 H 240.464 2.86411 2.85921 0
M  V30 2623 H 239.034 1.85994 2.51247 0
M  V30 2624 H 238.254 3.81795 0.981152 0
M  V30 2625 H 239.542 4.7907 1.71376 0
M  V30 2626 H 238.94 3.35677 4.55343 0
M  V30 2627 H 237.497 4.1703 5.00928 0
M  V30 2628 N 240.93 -0.123565 1.57115 0
M  V30 2629 C 242.341 -0.681198 1.73829 0
M  V30 2630 C 242.692 -1.80535 0.768214 0
M  V30 2631 O 241.817 -2.16317 -0.0599103 0
M  V30 2632 C 242.412 -1.24246 3.15196 0
M  V30 2633 C 240.971 -1.74643 3.33432 0
M  V30 2634 C 240.118 -0.644284 2.69711 0
M  V30 2635 H 243.069 0.102315 1.5837 0
M  V30 2636 H 243.09 -2.11216 3.16493 0
M  V30 2637 H 242.602 -0.424062 3.85776 0
M  V30 2638 H 240.703 -2.58974 2.67886 0
M  V30 2639 H 240.816 -1.85902 4.41562 0
M  V30 2640 H 239.18 -1.07676 2.3082 0
M  V30 2641 H 239.963 0.163058 3.42913 0
M  V30 2642 N 242.408 -1.52605 -0.393616 0
M  V30 2643 C 243.636 -1.71294 -1.16043 0
M  V30 2644 C 244.051 -0.429259 -1.83855 0
M  V30 2645 O 243.408 0.595921 -1.72496 0
M  V30 2646 C 243.459 -2.8593 -2.21193 0
M  V30 2647 O 243.18 -4.09329 -1.56146 0
M  V30 2648 C 244.681 -3.16259 -3.10636 0
M  V30 2649 H 241.901 -0.573641 -0.348104 0
M  V30 2650 H 244.445 -1.99234 -0.461092 0
M  V30 2651 H 242.6 -2.60465 -2.86769 0
M  V30 2652 H 243.014 -4.73323 -2.25978 0
M  V30 2653 H 244.488 -3.99946 -3.80456 0
M  V30 2654 H 244.965 -2.3045 -3.73884 0
M  V30 2655 H 245.571 -3.43547 -2.50711 0
M  V30 2656 N 243.887 0.651787 -1.4349 0
M  V30 2657 C 244.837 1.75783 -1.45205 0
M  V30 2658 C 245.821 1.57679 -0.320328 0
M  V30 2659 O 247.013 1.67767 -0.564211 0
M  V30 2660 C 244.142 3.14377 -1.3792 0
M  V30 2661 C 243.228 3.38023 -2.56127 0
M  V30 2662 N 243.619 3.32135 -3.81471 0
M  V30 2663 C 241.917 3.68747 -2.50882 0
M  V30 2664 C 242.618 3.55902 -4.60118 0
M  V30 2665 N 241.594 3.77783 -3.90872 0
M  V30 2666 H 245.396 1.69657 -2.39987 0
M  V30 2667 H 242.91 0.853508 -1.38163 0
M  V30 2668 H 244.907 3.93666 -1.37231 0
M  V30 2669 H 243.567 3.21683 -0.441596 0
M  V30 2670 H 244.578 3.11515 -4.13738 0
M  V30 2671 H 241.255 3.8316 -1.65816 0
M  V30 2672 H 242.645 3.57116 -5.69138 0
M  V30 2673 N 245.365 1.30045 0.890287 0
M  V30 2674 C 246.776 1.16738 1.45702 0
M  V30 2675 C 247.127 -0.233939 1.948 0
M  V30 2676 O 246.252 -1.13021 1.84541 0
M  V30 2677 C 246.847 2.11313 2.64825 0
M  V30 2678 C 245.406 2.02001 3.17604 0
M  V30 2679 C 244.553 2.01699 1.90296 0
M  V30 2680 H 247.504 1.42392 0.700726 0
M  V30 2681 H 247.525 1.69086 3.40867 0
M  V30 2682 H 247.037 3.13294 2.2906 0
M  V30 2683 H 245.138 1.03142 3.5804 0
M  V30 2684 H 245.251 2.90128 3.81264 0
M  V30 2685 H 243.615 1.46427 2.08402 0
M  V30 2686 H 244.398 3.05402 1.56795 0
M  V30 2687 N 246.843 -1.10192 1.12674 0
M  V30 2688 C 248.092 -1.81573 0.8783 0
M  V30 2689 C 248.405 -1.86249 -0.597557 0
M  V30 2690 O 249.611 -2.5386 -0.962681 0
M  V30 2691 C 248.067 -3.26149 1.52167 0
M  V30 2692 C 247.675 -3.29763 3.03249 0
M  V30 2693 C 249.419 -4.0234 1.3536 0
M  V30 2694 C 247.326 -4.68815 3.60508 0
M  V30 2695 H 246.256 -0.680394 0.324931 0
M  V30 2696 H 248.907 -1.23902 1.35353 0
M  V30 2697 H 247.289 -3.83832 0.974104 0
M  V30 2698 H 248.463 -2.8189 3.6452 0
M  V30 2699 H 246.778 -2.67059 3.19481 0
M  V30 2700 H 249.375 -5.05058 1.75559 0
M  V30 2701 H 249.718 -4.15235 0.297554 0
M  V30 2702 H 250.251 -3.51079 1.87052 0
M  V30 2703 H 246.99 -4.61121 4.65884 0
M  V30 2704 H 246.51 -5.17045 3.04014 0
M  V30 2705 H 248.189 -5.37785 3.59717 0
M  V30 2706 N 248.321 -0.919034 -1.28029 0
M  V30 2707 C 249.737 -0.617972 -1.4715 0
M  V30 2708 C 249.937 0.835242 -1.83374 0
M  V30 2709 O 248.993 1.61388 -1.94191 0
M  V30 2710 C 250.306 -1.56041 -2.57044 0
M  V30 2711 C 251.854 -1.56769 -2.7091 0
M  V30 2712 C 252.329 -2.49688 -3.83953 0
M  V30 2713 N 253.82 -2.47845 -3.91314 0
M  V30 2714 C 254.555 -3.16437 -4.78179 0
M  V30 2715 N 254.051 -3.94376 -5.69596 0
M  V30 2716 N 255.844 -3.05498 -4.71834 0
M  V30 2717 H 247.995 -1.85866 -1.02798 0
M  V30 2718 H 250.258 -0.797506 -0.512531 0
M  V30 2719 H 249.964 -2.59671 -2.372 0
M  V30 2720 H 249.838 -1.29551 -3.54255 0
M  V30 2721 H 252.225 -0.538745 -2.90141 0
M  V30 2722 H 252.306 -1.87305 -1.74214 0
M  V30 2723 H 251.95 -3.52688 -3.65477 0
M  V30 2724 H 251.88 -2.16453 -4.80058 0
M  V30 2725 H 254.371 -1.91234 -3.25941 0
M  V30 2726 H 254.684 -4.43721 -6.32718 0
M  V30 2727 H 253.029 -3.98481 -5.69419 0
M  V30 2728 H 256.22 -2.44108 -3.99411 0
M  V30 2729 H 256.393 -3.59225 -5.39316 0
M  V30 2730 N 249.799 1.42003 -0.683588 0
M  V30 2731 C 250.729 2.33487 -0.024866 0
M  V30 2732 C 251.71 1.51163 0.779975 0
M  V30 2733 O 252.895 1.79739 0.735362 0
M  V30 2734 C 250.025 3.3487 0.920836 0
M  V30 2735 C 248.979 4.27414 0.223958 0
M  V30 2736 C 248.305 5.19074 1.2832 0
M  V30 2737 C 249.605 5.14445 -0.90242 0
M  V30 2738 H 251.299 2.88819 -0.788921 0
M  V30 2739 H 248.845 1.38873 -0.38083 0
M  V30 2740 H 250.798 3.97787 1.39081 0
M  V30 2741 H 249.522 2.77861 1.71642 0
M  V30 2742 H 248.181 3.65904 -0.225864 0
M  V30 2743 H 247.829 4.58387 2.071 0
M  V30 2744 H 247.529 5.81822 0.821995 0
M  V30 2745 H 249.053 5.84867 1.75392 0
M  V30 2746 H 250.467 5.70998 -0.513272 0
M  V30 2747 H 248.864 5.86072 -1.28997 0
M  V30 2748 H 249.934 4.52322 -1.74737 0
M  V30 2749 N 251.277 0.427512 1.51691 0
M  V30 2750 C 252.525 -0.141948 2.01601 0
M  V30 2751 C 252.846 -1.44067 1.31414 0
M  V30 2752 O 252.116 -1.90763 0.445658 0
M  V30 2753 H 250.696 -0.0554468 0.744939 0
M  V30 2754 H 253.358 0.567968 1.86441 0
M  V30 2755 H 252.454 -0.324913 3.10404 0
M  V30 2756 N 252.755 -1.56801 0.158532 0
M  V30 2757 C 253.685 -2.20347 -0.772609 0
M  V30 2758 C 254.666 -1.15518 -1.24859 0
M  V30 2759 O 255.851 -1.43902 -1.30406 0
M  V30 2760 C 252.981 -2.83417 -2.00729 0
M  V30 2761 C 251.935 -3.94174 -1.66765 0
M  V30 2762 C 251.261 -4.44233 -2.97592 0
M  V30 2763 C 252.561 -5.14392 -0.905447 0
M  V30 2764 H 254.255 -2.98413 -0.242959 0
M  V30 2765 H 251.801 -1.43537 -0.115419 0
M  V30 2766 H 253.754 -3.26543 -2.6636 0
M  V30 2767 H 252.478 -2.02701 -2.56086 0
M  V30 2768 H 251.137 -3.51684 -1.03508 0
M  V30 2769 H 250.785 -3.60325 -3.50963 0
M  V30 2770 H 250.485 -5.18945 -2.75626 0
M  V30 2771 H 252.009 -4.90037 -3.64274 0
M  V30 2772 H 253.423 -5.5429 -1.46408 0
M  V30 2773 H 251.82 -5.9494 -0.7853 0
M  V30 2774 H 252.89 -4.84795 0.100668 0
M  V30 2775 N 254.233 0.115231 -1.57178 0
M  V30 2776 C 255.196 1.12526 -1.99676 0
M  V30 2777 C 256.196 1.34095 -0.88742 0
M  V30 2778 O 257.386 1.30548 -1.15337 0
M  V30 2779 C 254.518 2.4789 -2.34015 0
M  V30 2780 H 255.711 0.759912 -2.90113 0
M  V30 2781 H 253.264 0.359648 -1.52106 0
M  V30 2782 H 253.999 2.89339 -1.4647 0
M  V30 2783 H 253.784 2.33588 -3.14927 0
M  V30 2784 H 255.274 3.20575 -2.67622 0
M  V30 2785 N 255.711 1.52812 0.385517 0
M  V30 2786 C 256.641 1.80808 1.47752 0
M  V30 2787 C 257.622 0.660318 1.5676 0
M  V30 2788 O 258.807 0.908246 1.71652 0
M  V30 2789 C 255.937 1.98008 2.85324 0
M  V30 2790 C 254.891 3.13709 2.91154 0
M  V30 2791 C 254.217 3.16169 4.31209 0
M  V30 2792 C 255.517 4.52709 2.60483 0
M  V30 2793 H 257.211 2.72253 1.24573 0
M  V30 2794 H 254.757 1.31003 0.597839 0
M  V30 2795 H 256.71 2.16176 3.61726 0
M  V30 2796 H 255.434 1.03255 3.09848 0
M  V30 2797 H 254.093 2.95329 2.17201 0
M  V30 2798 H 253.741 2.19092 4.52778 0
M  V30 2799 H 253.441 3.93894 4.36029 0
M  V30 2800 H 254.965 3.36496 5.09512 0
M  V30 2801 H 256.379 4.71173 3.26602 0
M  V30 2802 H 254.776 5.32528 2.76648 0
M  V30 2803 H 255.846 4.59186 1.55809 0
M  V30 2804 N 257.189 -0.644168 1.43834 0
M  V30 2805 C 258.137 -1.77793 1.49974 0
M  V30 2806 C 259.131 -1.65253 0.372536 0
M  V30 2807 O 260.337 -1.7149 0.546924 0
M  V30 2808 H 256.712 -0.58675 0.47035 0
M  V30 2809 H 258.683 -1.69736 2.45423 0
M  V30 2810 C 257.432 -3.16087 1.4486 0
M  V30 2811 H 256.755 -3.26378 2.30905 0
M  V30 2812 H 258.195 -3.95349 1.53217 0
M  V30 2813 C 256.654 -3.36484 0.167463 0
M  V30 2814 O 257.184 -3.94298 -0.767609 0
M  V30 2815 N 255.39 -2.90504 0.0747556 0
M  V30 2816 H 254.937 -2.4364 0.836507 0
M  V30 2817 H 254.895 -3.04527 -0.781714 0
M  V30 2818 N 258.668 -1.30515 -0.883378 0
M  V30 2819 C 259.915 -1.1943 -1.63532 0
M  V30 2820 C 260.243 0.250627 -1.92878 0
M  V30 2821 O 259.498 1.19556 -1.54935 0
M  V30 2822 C 259.797 -1.96994 -2.98209 0
M  V30 2823 C 259.463 -3.466 -2.88408 0
M  V30 2824 C 258.125 -3.87397 -2.85442 0
M  V30 2825 C 260.477 -4.41863 -2.76418 0
M  V30 2826 C 257.805 -5.21745 -2.68327 0
M  V30 2827 C 260.157 -5.7632 -2.60841 0
M  V30 2828 C 258.821 -6.16354 -2.56251 0
M  V30 2829 H 258.091 -0.437025 -0.598406 0
M  V30 2830 H 260.738 -1.61635 -1.02696 0
M  V30 2831 H 259.043 -1.47429 -3.63004 0
M  V30 2832 H 260.74 -1.85808 -3.55354 0
M  V30 2833 H 257.33 -3.14182 -2.91527 0
M  V30 2834 H 261.514 -4.11285 -2.77775 0
M  V30 2835 H 256.77 -5.51853 -2.63189 0
M  V30 2836 H 260.944 -6.49772 -2.50538 0
M  V30 2837 H 258.571 -7.20401 -2.42748 0
M  V30 2838 N 260.146 1.09593 -1.13257 0
M  V30 2839 C 261.371 1.8604 -0.916732 0
M  V30 2840 C 261.796 1.80504 0.529146 0
M  V30 2841 O 261.154 1.18127 1.37534 0
M  V30 2842 C 261.202 3.32017 -1.40703 0
M  V30 2843 O 260.306 4.08141 -0.591153 0
M  V30 2844 H 259.647 0.576943 -0.328683 0
M  V30 2845 H 262.177 1.38405 -1.50682 0
M  V30 2846 H 262.187 3.82865 -1.4099 0
M  V30 2847 H 260.862 3.35361 -2.45979 0
M  V30 2848 H 259.439 3.67084 -0.656005 0
M  V30 2849 N 261.624 0.925811 1.2754 0
M  V30 2850 C 262.87 0.566092 1.94739 0
M  V30 2851 C 263.203 -0.890057 1.72603 0
M  V30 2852 O 262.478 -1.63467 1.05399 0
M  V30 2853 C 262.761 0.89054 3.48915 0
M  V30 2854 C 262.614 2.4003 3.80402 0
M  V30 2855 C 263.933 0.395101 4.38323 0
M  V30 2856 H 261.052 0.20714 0.707292 0
M  V30 2857 H 263.694 1.15725 1.50691 0
M  V30 2858 H 261.844 0.387452 3.86563 0
M  V30 2859 H 263.516 2.97494 3.52555 0
M  V30 2860 H 261.759 2.85028 3.2702 0
M  V30 2861 H 262.43 2.57785 4.8811 0
M  V30 2862 H 264.906 0.826241 4.07814 0
M  V30 2863 H 263.782 0.651086 5.45025 0
M  V30 2864 H 264.043 -0.704798 4.36446 0
M  V30 2865 N 263.102 -1.41638 0.69111 0
M  V30 2866 C 264.349 -2.01299 0.220193 0
M  V30 2867 C 264.677 -1.54715 -1.17871 0
M  V30 2868 O 263.932 -0.747193 -1.80874 0
M  V30 2869 C 264.231 -3.56714 0.221277 0
M  V30 2870 C 263.897 -4.22792 1.56709 0
M  V30 2871 C 262.559 -4.40557 1.93554 0
M  V30 2872 C 264.911 -4.59883 2.45268 0
M  V30 2873 C 262.239 -4.92688 3.18552 0
M  V30 2874 C 264.591 -5.13403 3.69595 0
M  V30 2875 C 263.255 -5.29379 4.06589 0
M  V30 2876 H 262.525 -0.736606 0.0805743 0
M  V30 2877 H 265.172 -1.69598 0.889319 0
M  V30 2878 H 263.477 -3.8818 -0.531391 0
M  V30 2879 H 265.174 -4.00678 -0.160547 0
M  V30 2880 H 261.764 -4.09336 1.2705 0
M  V30 2881 H 265.948 -4.45817 2.18084 0
M  V30 2882 H 261.204 -5.03242 3.47214 0
M  V30 2883 H 265.378 -5.41084 4.38407 0
M  V30 2884 H 263.005 -5.69537 5.03519 0
M  V30 2885 N 264.58 -0.43555 -1.51462 0
M  V30 2886 C 265.81 0.130053 -2.0619 0
M  V30 2887 C 266.218 1.37164 -1.30317 0
M  V30 2888 O 265.561 1.80225 -0.355598 0
M  V30 2889 C 265.623 0.519418 -3.55728 0
M  V30 2890 C 265.287 -0.615119 -4.52841 0
M  V30 2891 C 266.284 -1.48671 -4.9819 0
M  V30 2892 C 263.969 -0.795341 -4.95963 0
M  V30 2893 C 265.963 -2.52324 -5.8533 0
M  V30 2894 C 263.65 -1.83514 -5.82894 0
M  V30 2895 C 264.648 -2.69748 -6.27475 0
M  V30 2896 O 264.336 -3.71944 -7.1268 0
M  V30 2897 H 264.068 0.0121612 -0.675891 0
M  V30 2898 H 266.622 -0.6129 -1.96043 0
M  V30 2899 H 264.852 1.31505 -3.63653 0
M  V30 2900 H 266.541 1.01597 -3.92979 0
M  V30 2901 H 267.307 -1.359 -4.65571 0
M  V30 2902 H 263.186 -0.133713 -4.60806 0
M  V30 2903 H 266.73 -3.19665 -6.20048 0
M  V30 2904 H 262.627 -1.96306 -6.14926 0
M  V30 2905 H 263.395 -3.68503 -7.30854 0
M  V30 2906 N 266.058 1.56714 -0.166846 0
M  V30 2907 C 267.288 2.00828 0.48494 0
M  V30 2908 C 267.696 1.04612 1.57648 0
M  V30 2909 O 267.039 0.0383201 1.8366 0
M  V30 2910 C 267.101 3.4137 1.12723 0
M  V30 2911 C 266.765 4.56654 0.177886 0
M  V30 2912 C 267.762 5.16402 -0.60207 0
M  V30 2913 C 265.447 5.02244 0.0750139 0
M  V30 2914 C 267.441 6.20167 -1.47215 0
M  V30 2915 C 265.128 6.05859 -0.798649 0
M  V30 2916 C 266.126 6.64691 -1.57082 0
M  V30 2917 O 265.814 7.66297 -2.42989 0
M  V30 2918 H 265.546 0.663587 0.128953 0
M  V30 2919 H 268.1 2.03692 -0.264365 0
M  V30 2920 H 266.33 3.35406 1.92457 0
M  V30 2921 H 268.019 3.69466 1.68076 0
M  V30 2922 H 268.785 4.82065 -0.53274 0
M  V30 2923 H 264.664 4.56167 0.665812 0
M  V30 2924 H 268.208 6.66016 -2.07531 0
M  V30 2925 H 264.105 6.39621 -0.869199 0
M  V30 2926 H 264.873 7.83601 -2.36455 0
M  V30 2927 N 267.536 -0.106894 1.57237 0
M  V30 2928 C 268.446 -1.14911 2.0453 0
M  V30 2929 C 269.462 -1.44592 0.96795 0
M  V30 2930 O 270.638 -1.55468 1.2803 0
M  V30 2931 C 267.703 -2.45272 2.45036 0
M  V30 2932 C 266.764 -2.22879 3.66911 0
M  V30 2933 C 265.997 -3.47024 4.05475 0
M  V30 2934 O 266.22 -4.54804 3.44252 0
M  V30 2935 O 265.154 -3.3731 4.98504 0
M  V30 2936 H 268.98 -0.777461 2.9358 0
M  V30 2937 H 266.565 -0.318563 1.45964 0
M  V30 2938 H 268.447 -3.22055 2.71769 0
M  V30 2939 H 267.122 -2.81886 1.59129 0
M  V30 2940 H 266.029 -1.43915 3.45311 0
M  V30 2941 H 267.362 -1.91163 4.53561 0
M  V30 2942 N 269.014 -1.53014 -0.377408 0
M  V30 2943 C 270.263 -1.67845 -1.11853 0
M  V30 2944 C 270.576 -0.430625 -1.90801 0
M  V30 2945 O 271.782 -0.459261 -2.67587 0
M  V30 2946 C 270.238 -2.96668 -2.03756 0
M  V30 2947 C 269.846 -4.28671 -1.30175 0
M  V30 2948 C 271.59 -3.20865 -2.77932 0
M  V30 2949 C 269.497 -5.48591 -2.20911 0
M  V30 2950 H 268.427 -0.625343 -0.421263 0
M  V30 2951 H 271.078 -1.79514 -0.380409 0
M  V30 2952 H 269.46 -2.78773 -2.8125 0
M  V30 2953 H 270.634 -4.57157 -0.578259 0
M  V30 2954 H 268.949 -4.10825 -0.679108 0
M  V30 2955 H 271.546 -4.07642 -3.46024 0
M  V30 2956 H 271.889 -2.36424 -3.4265 0
M  V30 2957 H 272.422 -3.39379 -2.07525 0
M  V30 2958 H 269.161 -6.35474 -1.6079 0
M  V30 2959 H 268.681 -5.244 -2.91144 0
M  V30 2960 H 270.36 -5.8292 -2.80736 0
M  V30 2961 N 270.492 0.636531 -1.44174 0
M  V30 2962 C 271.422 1.76003 -1.53444 0
M  V30 2963 C 272.403 1.65619 -0.387841 0
M  V30 2964 O 273.588 1.84461 -0.607257 0
M  V30 2965 C 270.718 3.14511 -1.4731 0
M  V30 2966 C 269.672 3.39677 -2.60391 0
M  V30 2967 C 268.998 4.78159 -2.39308 0
M  V30 2968 C 270.298 3.32772 -4.02567 0
M  V30 2969 H 271.992 1.68501 -2.47483 0
M  V30 2970 H 269.538 0.809237 -1.19111 0
M  V30 2971 H 271.491 3.92878 -1.52397 0
M  V30 2972 H 270.215 3.22783 -0.49785 0
M  V30 2973 H 268.874 2.63688 -2.54684 0
M  V30 2974 H 268.522 4.83128 -1.39988 0
M  V30 2975 H 268.222 4.95956 -3.15122 0
M  V30 2976 H 269.746 5.58762 -2.46205 0
M  V30 2977 H 271.16 4.01051 -4.09672 0
M  V30 2978 H 269.557 3.62104 -4.7854 0
M  V30 2979 H 270.627 2.30669 -4.2652 0
M  V30 2980 N 271.97 1.30982 0.876444 0
M  V30 2981 C 272.918 1.18006 2.00443 0
M  V30 2982 C 273.912 0.0898871 1.69161 0
M  V30 2983 O 275.118 0.251333 1.78237 0
M  V30 2984 H 271.493 0.365196 0.65737 0
M  V30 2985 H 273.464 2.13453 2.0852 0
M  V30 2986 C 272.213 0.897521 3.35916 0
M  V30 2987 H 271.536 1.7285 3.60504 0
M  V30 2988 H 272.976 0.846874 4.15456 0
M  V30 2989 C 271.435 -0.399674 3.34521 0
M  V30 2990 O 271.965 -1.41852 3.7582 0
M  V30 2991 N 270.171 -0.413893 2.87637 0
M  V30 2992 H 269.718 0.41571 2.54224 0
M  V30 2993 H 269.676 -1.28175 2.87086 0
M  V30 2994 N 273.449 -1.08991 1.13837 0
M  V30 2995 C 274.674 -1.85551 0.926585 0
M  V30 2996 C 275.099 -1.80782 -0.519566 0
M  V30 2997 O 274.457 -1.18855 -1.36906 0
M  V30 2998 C 274.505 -3.31266 1.42462 0
M  V30 2999 O 273.609 -4.07822 0.612789 0
M  V30 3000 H 272.95 -0.575192 0.331738 0
M  V30 3001 H 275.48 -1.37604 1.51414 0
M  V30 3002 H 275.49 -3.82112 1.43019 0
M  V30 3003 H 274.165 -3.34052 2.47754 0
M  V30 3004 H 272.742 -3.66731 0.675463 0
M  V30 3005 N 274.927 -0.932562 -1.27047 0
M  V30 3006 C 276.338 -0.619451 -1.76124 0
M  V30 3007 C 276.689 0.865397 -1.76083 0
M  V30 3008 O 275.814 1.67722 -1.36742 0
M  V30 3009 C 276.409 -1.11771 -3.19832 0
M  V30 3010 C 274.968 -0.855174 -3.66557 0
M  V30 3011 C 274.115 -1.27362 -2.46321 0
M  V30 3012 H 277.066 -1.11181 -1.13245 0
M  V30 3013 H 277.087 -0.46759 -3.77616 0
M  V30 3014 H 276.599 -2.19842 -3.1983 0
M  V30 3015 H 274.7 0.211524 -3.71999 0
M  V30 3016 H 274.813 -1.47613 -4.55793 0
M  V30 3017 H 273.177 -0.692119 -2.45116 0
M  V30 3018 H 273.96 -2.36307 -2.49025 0
M  V30 3019 N 276.405 1.4127 -0.698611 0
M  V30 3020 C 277.315 2.34573 -0.0357891 0
M  V30 3021 C 278.331 1.56393 0.762701 0
M  V30 3022 O 279.507 1.8886 0.699564 0
M  V30 3023 C 276.572 3.35159 0.887089 0
M  V30 3024 C 275.633 4.29225 0.0804634 0
M  V30 3025 C 274.866 5.25006 0.959387 0
M  V30 3026 O 275.089 5.26314 2.19886 0
M  V30 3027 O 274.023 6.00519 0.407439 0
M  V30 3028 H 277.849 2.92838 -0.804957 0
M  V30 3029 H 275.434 1.42175 -0.458966 0
M  V30 3030 H 277.316 3.9689 1.41621 0
M  V30 3031 H 275.991 2.79333 1.6357 0
M  V30 3032 H 274.898 3.70833 -0.493328 0
M  V30 3033 H 276.231 4.88157 -0.629547 0
M  V30 3034 N 277.883 0.443576 1.51229 0
M  V30 3035 C 278.83 -0.364716 2.279 0
M  V30 3036 C 279.8 -1.0114 1.31757 0
M  V30 3037 O 280.985 -1.02912 1.60667 0
M  V30 3038 C 278.125 -1.45644 3.12861 0
M  V30 3039 C 277.238 -0.827269 4.24005 0
M  V30 3040 C 276.373 -1.89456 4.96266 0
M  V30 3041 C 275.412 -1.24416 5.99322 0
M  V30 3042 N 274.549 -2.25309 6.64966 0
M  V30 3043 H 279.389 0.295464 2.96532 0
M  V30 3044 H 276.926 0.157554 1.46254 0
M  V30 3045 H 278.884 -2.10076 3.6045 0
M  V30 3046 H 277.514 -2.08616 2.46331 0
M  V30 3047 H 276.566 -0.0710839 3.80334 0
M  V30 3048 H 277.878 -0.312481 4.9782 0
M  V30 3049 H 277.032 -2.61535 5.47434 0
M  V30 3050 H 275.771 -2.4431 4.22095 0
M  V30 3051 H 274.776 -0.508868 5.4744 0
M  V30 3052 H 276.001 -0.702882 6.75453 0
M  V30 3053 H 273.947 -2.79231 5.93604 0
M  V30 3054 H 273.864 -1.78739 7.34567 0
M  V30 3055 H 275.132 -2.96853 7.20763 0
M  V30 3056 N 279.361 -1.56624 0.175154 0
M  V30 3057 C 280.324 -2.16934 -0.739738 0
M  V30 3058 C 281.324 -1.11842 -1.15533 0
M  V30 3059 O 282.514 -1.37335 -1.07167 0
M  V30 3060 C 279.646 -2.75531 -2.00738 0
M  V30 3061 H 280.839 -2.99131 -0.214639 0
M  V30 3062 H 278.392 -1.56123 -0.0744197 0
M  V30 3063 H 279.127 -1.97078 -2.57548 0
M  V30 3064 H 278.912 -3.52444 -1.71831 0
M  V30 3065 H 280.402 -3.21904 -2.66021 0
M  V30 3066 N 280.839 0.0985539 -1.57292 0
M  V30 3067 C 282.079 0.808332 -1.87737 0
M  V30 3068 C 282.443 1.7607 -0.76572 0
M  V30 3069 O 283.644 2.51358 -0.952499 0
M  V30 3070 C 281.915 1.52093 -3.23423 0
M  V30 3071 S 283.474 2.26947 -3.75554 0
M  V30 3072 H 280.292 0.269377 -0.657995 0
M  V30 3073 H 282.894 0.0656269 -1.9539 0
M  V30 3074 H 281.598 0.81363 -4.02254 0
M  V30 3075 H 281.129 2.30361 -3.189 0
M  V30 3076 H 283.144 3.53027 -3.48692 0
M  V30 3077 N 282.317 1.53212 0.369288 0
M  V30 3078 C 283.542 1.73423 1.1375 0
M  V30 3079 C 283.967 0.460404 1.82378 0
M  V30 3080 O 283.325 -0.585298 1.71592 0
M  V30 3081 C 283.373 2.89769 2.1463 0
M  V30 3082 O 282.477 2.58119 3.21634 0
M  V30 3083 H 281.818 0.576061 0.330227 0
M  V30 3084 H 284.348 2.00083 0.427547 0
M  V30 3085 H 284.358 3.15829 2.58294 0
M  V30 3086 H 283.033 3.8217 1.64071 0
M  V30 3087 H 281.61 2.42864 2.82969 0
M  V30 3088 N 283.795 -0.628877 1.44509 0
M  V30 3089 C 284.725 -1.75187 1.54376 0
M  V30 3090 C 285.706 -1.65411 0.396618 0
M  V30 3091 O 286.891 -1.84137 0.617031 0
M  V30 3092 C 284.021 -3.13725 1.48976 0
M  V30 3093 C 282.975 -3.38291 2.62189 0
M  V30 3094 C 282.301 -4.76883 2.41841 0
M  V30 3095 C 283.601 -3.30632 4.04326 0
M  V30 3096 H 285.295 -1.67187 2.48373 0
M  V30 3097 H 282.841 -0.802909 1.19538 0
M  V30 3098 H 284.794 -3.92064 1.54478 0
M  V30 3099 H 283.518 -3.22515 0.514961 0
M  V30 3100 H 282.177 -2.62334 2.56079 0
M  V30 3101 H 281.825 -4.82378 1.42548 0
M  V30 3102 H 281.525 -4.94278 3.17747 0
M  V30 3103 H 283.049 -5.57449 2.49165 0
M  V30 3104 H 284.463 -3.98873 4.11793 0
M  V30 3105 H 282.86 -3.59561 4.80454 0
M  V30 3106 H 283.93 -2.28404 4.27738 0
M  V30 3107 N 285.273 -1.31445 -0.869486 0
M  V30 3108 C 286.236 -1.19094 -1.9583 0
M  V30 3109 C 287.236 -0.117906 -1.60367 0
M  V30 3110 O 288.426 -0.367208 -1.70286 0
M  V30 3111 C 285.558 -0.828165 -3.30688 0
M  V30 3112 H 286.751 -2.15842 -2.08212 0
M  V30 3113 H 284.304 -1.15063 -1.05784 0
M  V30 3114 H 285.039 0.138142 -3.24006 0
M  V30 3115 H 284.824 -1.6038 -3.578 0
M  V30 3116 H 286.314 -0.765658 -4.10521 0
M  V30 3117 N 286.751 1.08385 -1.14413 0
M  V30 3118 C 287.698 2.15311 -0.831265 0
M  V30 3119 C 288.668 1.64751 0.211292 0
M  V30 3120 O 289.853 1.90627 0.0811674 0
M  V30 3121 C 286.993 3.43658 -0.315143 0
M  V30 3122 C 286.106 4.08064 -1.41802 0
M  V30 3123 C 285.241 5.24207 -0.859126 0
M  V30 3124 C 284.28 5.80554 -1.93967 0
M  V30 3125 N 283.417 6.88042 -1.39793 0
M  V30 3126 H 288.257 2.41415 -1.74708 0
M  V30 3127 H 285.794 1.18474 -0.871909 0
M  V30 3128 H 287.752 4.172 0.00230884 0
M  V30 3129 H 286.382 3.17839 0.56378 0
M  V30 3130 H 285.434 3.3228 -1.85187 0
M  V30 3131 H 286.746 4.45962 -2.23427 0
M  V30 3132 H 285.9 6.04689 -0.49359 0
M  V30 3133 H 284.639 4.87699 -0.011932 0
M  V30 3134 H 283.644 4.98725 -2.31415 0
M  V30 3135 H 284.869 6.19121 -2.79046 0
M  V30 3136 H 282.815 6.53493 -0.572919 0
M  V30 3137 H 282.732 7.24767 -2.15054 0
M  V30 3138 H 284 7.72255 -1.0603 0
M  V30 3139 N 288.23 0.939286 1.26551 0
M  V30 3140 C 289.458 0.602536 1.97932 0
M  V30 3141 C 289.873 -0.82206 1.69964 0
M  V30 3142 O 289.23 -1.54789 0.966784 0
M  V30 3143 C 289.281 0.832946 3.51773 0
M  V30 3144 O 289.002 2.20151 3.78768 0
M  V30 3145 C 290.503 0.506483 4.40397 0
M  V30 3146 H 287.723 0.227248 0.631347 0
M  V30 3147 H 290.267 1.25948 1.61113 0
M  V30 3148 H 288.422 0.222644 3.8676 0
M  V30 3149 H 288.836 2.26013 4.73306 0
M  V30 3150 H 290.31 0.718333 5.47306 0
M  V30 3151 H 290.787 -0.558451 4.35635 0
M  V30 3152 H 291.393 1.09543 4.10951 0
M  V30 3153 N 289.708 -1.40897 0.706093 0
M  V30 3154 C 290.671 -2.29131 0.0562841 0
M  V30 3155 C 291.671 -1.44901 -0.697166 0
M  V30 3156 O 292.861 -1.65926 -0.530484 0
M  V30 3157 C 289.993 -3.27957 -0.93043 0
M  V30 3158 H 291.186 -2.88091 0.833284 0
M  V30 3159 H 288.739 -1.4906 0.470192 0
M  V30 3160 H 289.474 -2.73997 -1.73482 0
M  V30 3161 H 289.259 -3.90124 -0.393166 0
M  V30 3162 H 290.749 -3.94049 -1.38256 0
M  V30 3163 N 291.186 -0.45159 -1.50991 0
M  V30 3164 C 292.433 0.110074 -2.02201 0
M  V30 3165 C 292.761 1.4146 -1.33489 0
M  V30 3166 O 292.016 1.90617 -0.443125 0
M  V30 3167 C 292.315 0.361728 -3.55565 0
M  V30 3168 C 291.981 -0.858717 -4.42648 0
M  V30 3169 C 290.643 -1.19338 -4.66167 0
M  V30 3170 C 292.995 -1.67221 -4.93646 0
M  V30 3171 C 290.323 -2.34195 -5.37931 0
M  V30 3172 C 292.675 -2.8119 -5.6667 0
M  V30 3173 C 291.339 -3.15094 -5.88449 0
M  V30 3174 H 290.609 0.040279 -0.739904 0
M  V30 3175 H 293.256 -0.601696 -1.81802 0
M  V30 3176 H 291.561 1.15554 -3.74372 0
M  V30 3177 H 293.258 0.80996 -3.92735 0
M  V30 3178 H 289.848 -0.58796 -4.24548 0
M  V30 3179 H 294.032 -1.42686 -4.75347 0
M  V30 3180 H 289.288 -2.6076 -5.53005 0
M  V30 3181 H 293.462 -3.44585 -6.05173 0
M  V30 3182 H 291.089 -4.04204 -6.43835 0
M  V30 3183 N 292.664 1.56529 -0.183458 0
M  V30 3184 C 293.941 1.88959 0.50536 0
M  V30 3185 C 294.321 1.09523 1.80466 0
M  V30 3186 O 293.669 0.19278 2.27685 0
M  V30 3187 C 293.879 3.41162 0.73547 0
M  V30 3188 C 295.227 4.11155 1.06005 0
M  V30 3189 O 296.251 3.46548 0.823594 0
M  V30 3190 O 295.11 5.25318 1.50675 0
M  V30 3191 H 292.204 0.78441 0.261973 0
M  V30 3192 H 294.75 1.68231 -0.222802 0
M  V30 3193 H 293.522 3.90874 -0.182561 0
M  V30 3194 H 293.145 3.67543 1.51651 0
M  V30 3195 N 294.142 -0.090211 1.57342 0
M  V30 3196 C 295.052 -1.12735 2.05738 0
M  V30 3197 C 296.068 -1.43557 0.983231 0
M  V30 3198 O 297.244 -1.54101 1.29672 0
M  V30 3199 C 294.309 -2.42659 2.47624 0
M  V30 3200 C 293.37 -2.18975 3.69254 0
M  V30 3201 C 292.603 -3.42704 4.09133 0
M  V30 3202 O 292.826 -4.51127 3.49057 0
M  V30 3203 O 291.76 -3.32003 5.02053 0
M  V30 3204 H 295.586 -0.746279 2.94388 0
M  V30 3205 H 293.171 -0.303064 1.46294 0
M  V30 3206 H 295.053 -3.19155 2.7517 0
M  V30 3207 H 293.728 -2.80182 1.62109 0
M  V30 3208 H 292.635 -1.40244 3.46818 0
M  V30 3209 H 293.968 -1.86342 4.55563 0
M  V30 3210 N 295.62 -1.53406 -0.361157 0
M  V30 3211 C 296.583 -1.79479 -1.42548 0
M  V30 3212 C 297.583 -0.665327 -1.4639 0
M  V30 3213 O 298.773 -0.933549 -1.47073 0
M  V30 3214 C 295.905 -1.92087 -2.8163 0
M  V30 3215 H 297.098 -2.74538 -1.20701 0
M  V30 3216 H 294.651 -1.4455 -0.594546 0
M  V30 3217 H 295.386 -0.991099 -3.08784 0
M  V30 3218 H 295.171 -2.74241 -2.80239 0
M  V30 3219 H 296.661 -2.13836 -3.58697 0
M  V30 3220 N 297.098 0.621204 -1.44841 0
M  V30 3221 C 298.347 1.37658 -1.47422 0
M  V30 3222 C 298.66 1.95264 -0.114629 0
M  V30 3223 O 299.866 2.71494 -0.0180199 0
M  V30 3224 C 298.322 2.49285 -2.59586 0
M  V30 3225 C 297.93 1.98149 -4.01797 0
M  V30 3226 C 299.674 3.26409 -2.71399 0
M  V30 3227 C 297.581 3.07178 -5.05367 0
M  V30 3228 H 296.511 0.517344 -0.548517 0
M  V30 3229 H 299.162 0.667257 -1.70938 0
M  V30 3230 H 297.544 3.22839 -2.29328 0
M  V30 3231 H 298.718 1.31395 -4.41669 0
M  V30 3232 H 297.033 1.33812 -3.94314 0
M  V30 3233 H 299.63 4.07706 -3.45948 0
M  V30 3234 H 299.973 3.76535 -1.77559 0
M  V30 3235 H 300.506 2.5995 -3.01116 0
M  V30 3236 H 297.245 2.61985 -6.00869 0
M  V30 3237 H 296.765 3.72542 -4.70077 0
M  V30 3238 H 298.444 3.71789 -5.29511 0
M  V30 3239 N 298.576 1.31904 0.862503 0
M  V30 3240 C 299.539 1.20131 1.95195 0
M  V30 3241 C 300.539 0.126409 1.60302 0
M  V30 3242 O 301.729 0.376234 1.70089 0
M  V30 3243 C 298.861 0.845691 3.30244 0
M  V30 3244 H 300.054 2.16943 2.07064 0
M  V30 3245 H 297.607 1.15622 1.05172 0
M  V30 3246 H 298.342 -0.120957 3.24074 0
M  V30 3247 H 298.127 1.62276 3.56944 0
M  V30 3248 H 299.617 0.787418 4.10109 0
M  V30 3249 N 300.054 -1.07777 1.14986 0
M  V30 3250 C 300.964 -2.18404 0.856546 0
M  V30 3251 C 301.98 -1.73211 -0.165485 0
M  V30 3252 O 303.156 -2.01399 0.00755219 0
M  V30 3253 C 300.221 -3.44977 0.34526 0
M  V30 3254 C 299.282 -4.0476 1.43065 0
M  V30 3255 C 298.515 -5.25291 0.943663 0
M  V30 3256 O 298.738 -5.70004 -0.212426 0
M  V30 3257 O 297.672 -5.76638 1.72547 0
M  V30 3258 H 301.498 -2.45978 1.78125 0
M  V30 3259 H 299.083 -1.17033 0.928631 0
M  V30 3260 H 300.965 -4.21348 0.0663671 0
M  V30 3261 H 299.64 -3.18965 -0.551631 0
M  V30 3262 H 298.547 -3.29949 1.76309 0
M  V30 3263 H 299.88 -4.35035 2.30229 0
M  V30 3264 N 301.532 -0.945985 -1.26051 0
M  V30 3265 C 302.462 -0.477172 -2.28572 0
M  V30 3266 C 303.443 0.472032 -1.63419 0
M  V30 3267 O 304.628 0.372853 -1.90587 0
M  V30 3268 C 301.758 0.253975 -3.4637 0
M  V30 3269 C 300.712 -0.609135 -4.23643 0
M  V30 3270 C 300.038 0.252252 -5.34105 0
M  V30 3271 C 301.338 -1.8829 -4.8718 0
M  V30 3272 H 303.032 -1.33402 -2.68038 0
M  V30 3273 H 300.578 -0.642904 -1.28852 0
M  V30 3274 H 302.531 0.593016 -4.17207 0
M  V30 3275 H 301.255 1.145 -3.05871 0
M  V30 3276 H 299.914 -0.931138 -3.54578 0
M  V30 3277 H 299.562 1.14278 -4.89846 0
M  V30 3278 H 299.262 -0.32188 -5.86718 0
M  V30 3279 H 300.786 0.586454 -6.07777 0
M  V30 3280 H 302.2 -1.61081 -5.50205 0
M  V30 3281 H 300.597 -2.40199 -5.49931 0
M  V30 3282 H 301.667 -2.59134 -4.09851 0
M  V30 3283 N 303.011 1.40521 -0.713556 0
M  V30 3284 C 304.288 1.94775 -0.17943 0
M  V30 3285 C 304.668 1.65184 1.31444 0
M  V30 3286 O 304.016 0.968429 2.06963 0
M  V30 3287 C 304.226 3.45543 -0.489986 0
M  V30 3288 C 305.574 4.22442 -0.427536 0
M  V30 3289 O 306.598 3.53644 -0.425929 0
M  V30 3290 O 305.457 5.4501 -0.403292 0
M  V30 3291 H 302.551 0.826606 -0.0255192 0
M  V30 3292 H 305.097 1.5014 -0.790949 0
M  V30 3293 H 303.869 3.60432 -1.5233 0
M  V30 3294 H 303.492 3.97311 0.151598 0
M  V30 3295 N 304.489 0.459591 1.5075 0
M  V30 3296 C 305.717 -0.0973749 2.06671 0
M  V30 3297 C 306.132 -1.34524 1.32472 0
M  V30 3298 O 305.489 -1.7827 0.390634 0
M  V30 3299 C 305.54 -0.39714 3.59312 0
M  V30 3300 O 305.261 0.801214 4.30711 0
M  V30 3301 C 306.762 -1.00234 4.31819 0
M  V30 3302 H 303.982 0.00195854 0.670997 0
M  V30 3303 H 306.526 0.645072 1.94059 0
M  V30 3304 H 304.681 -1.08951 3.71764 0
M  V30 3305 H 305.095 0.538857 5.21725 0
M  V30 3306 H 306.569 -1.16193 5.39632 0
M  V30 3307 H 307.046 -1.98939 3.91561 0
M  V30 3308 H 307.652 -0.348699 4.23868 0
M  V30 3309 N 305.967 -1.56429 0.191757 0
M  V30 3310 C 306.897 -2.21937 -0.725696 0
M  V30 3311 C 307.878 -1.1814 -1.2238 0
M  V30 3312 O 309.063 -1.46636 -1.27325 0
M  V30 3313 C 306.193 -2.87611 -1.94672 0
M  V30 3314 C 305.147 -3.97623 -1.58366 0
M  V30 3315 C 304.473 -4.50446 -2.88102 0
M  V30 3316 C 305.773 -5.16197 -0.796133 0
M  V30 3317 H 307.467 -2.98861 -0.179606 0
M  V30 3318 H 305.013 -1.43749 -0.0849464 0
M  V30 3319 H 306.966 -3.3212 -2.59373 0
M  V30 3320 H 305.69 -2.08087 -2.51728 0
M  V30 3321 H 304.349 -3.53801 -0.960247 0
M  V30 3322 H 303.997 -3.67688 -3.43241 0
M  V30 3323 H 303.697 -5.24675 -2.64556 0
M  V30 3324 H 305.221 -4.97654 -3.53798 0
M  V30 3325 H 306.635 -5.57271 -1.34618 0
M  V30 3326 H 305.032 -5.96471 -0.658928 0
M  V30 3327 H 306.102 -4.84473 0.203478 0
M  V30 3328 N 307.445 0.0818655 -1.57387 0
M  V30 3329 C 308.393 1.11712 -2.04018 0
M  V30 3330 C 309.387 1.40683 -0.94364 0
M  V30 3331 O 310.593 1.40209 -1.12878 0
M  V30 3332 H 306.968 0.377542 -0.650358 0
M  V30 3333 H 308.939 0.697614 -2.90131 0
M  V30 3334 C 307.688 2.42537 -2.49141 0
M  V30 3335 H 307.011 2.21092 -3.33104 0
M  V30 3336 H 308.451 3.13446 -2.85531 0
M  V30 3337 C 306.91 3.0778 -1.37014 0
M  V30 3338 O 307.44 3.95436 -0.706621 0
M  V30 3339 N 305.646 2.68242 -1.11779 0
M  V30 3340 H 305.193 1.97052 -1.65917 0
M  V30 3341 H 305.151 3.1222 -0.369594 0
M  V30 3342 N 308.923 1.53595 0.353017 0
M  V30 3343 C 309.833 1.83897 1.45667 0
M  V30 3344 C 310.849 0.728334 1.58023 0
M  V30 3345 O 312.025 1.01968 1.73679 0
M  V30 3346 C 309.09 2.03383 2.80778 0
M  V30 3347 C 308.151 3.27262 2.77845 0
M  V30 3348 C 307.384 3.45809 4.06512 0
M  V30 3349 O 307.607 2.68387 5.03314 0
M  V30 3350 O 306.541 4.39207 4.11559 0
M  V30 3351 H 310.367 2.77686 1.2298 0
M  V30 3352 H 307.952 1.39132 0.544308 0
M  V30 3353 H 309.834 2.17698 3.60812 0
M  V30 3354 H 308.509 1.12783 3.03417 0
M  V30 3355 H 307.416 3.18359 1.96465 0
M  V30 3356 H 308.749 4.17824 2.60161 0
M  V30 3357 N 310.401 -0.613514 1.45168 0
M  V30 3358 C 311.311 -1.75296 1.55912 0
M  V30 3359 C 312.327 -1.68244 0.443856 0
M  V30 3360 O 313.503 -1.88706 0.70371 0
M  V30 3361 C 310.568 -3.1174 1.5172 0
M  V30 3362 C 309.629 -3.30291 2.74238 0
M  V30 3363 C 308.862 -4.60226 2.70236 0
M  V30 3364 O 309.085 -5.42168 1.77229 0
M  V30 3365 O 308.019 -4.81361 3.61352 0
M  V30 3366 H 311.845 -1.69183 2.52212 0
M  V30 3367 H 309.43 -0.776886 1.27612 0
M  V30 3368 H 311.312 -3.93044 1.51968 0
M  V30 3369 H 309.987 -3.18357 0.585697 0
M  V30 3370 H 308.894 -2.48598 2.79553 0
M  V30 3371 H 310.227 -3.28547 3.66494 0
M  V30 3372 N 311.879 -1.3236 -0.855495 0
M  V30 3373 C 313.104 -1.2601 -1.64731 0
M  V30 3374 C 313.529 0.169068 -1.87339 0
M  V30 3375 O 312.887 1.12016 -1.42556 0
M  V30 3376 C 312.935 -2.02417 -2.98429 0
M  V30 3377 O 312.039 -1.3714 -3.8893 0
M  V30 3378 H 311.38 -0.434325 -0.502253 0
M  V30 3379 H 313.91 -1.74661 -1.06558 0
M  V30 3380 H 313.92 -2.12559 -3.48257 0
M  V30 3381 H 312.595 -3.06343 -2.81295 0
M  V30 3382 H 311.172 -1.3554 -3.47395 0
M  V30 3383 N 313.357 1.07166 -1.15556 0
M  V30 3384 C 314.587 1.83248 -0.954133 0
M  V30 3385 C 314.995 1.82449 0.500911 0
M  V30 3386 O 314.338 1.23575 1.35923 0
M  V30 3387 C 314.4 3.31393 -1.39351 0
M  V30 3388 C 314.064 3.5591 -2.86666 0
M  V30 3389 C 315.061 3.49695 -3.8472 0
M  V30 3390 C 312.746 3.83515 -3.24379 0
M  V30 3391 C 314.74 3.70737 -5.18491 0
M  V30 3392 C 312.427 4.04209 -4.58321 0
M  V30 3393 C 313.425 3.97815 -5.55186 0
M  V30 3394 O 313.113 4.17954 -6.86709 0
M  V30 3395 H 312.845 0.584941 -0.338851 0
M  V30 3396 H 315.399 1.36169 -1.53777 0
M  V30 3397 H 313.629 3.79292 -0.75329 0
M  V30 3398 H 315.318 3.88945 -1.16089 0
M  V30 3399 H 316.084 3.28368 -3.56931 0
M  V30 3400 H 311.963 3.87605 -2.49567 0
M  V30 3401 H 315.507 3.65663 -5.94085 0
M  V30 3402 H 311.404 4.25023 -4.85825 0
M  V30 3403 H 312.172 4.35291 -6.93155 0
M  V30 3404 N 314.835 0.952656 1.25548 0
M  V30 3405 C 315.782 0.47008 2.25962 0
M  V30 3406 C 316.752 -0.476384 1.59122 0
M  V30 3407 O 317.937 -0.39007 1.8677 0
M  V30 3408 C 315.077 -0.247881 3.44209 0
M  V30 3409 C 314.19 0.735591 4.25691 0
M  V30 3410 C 313.325 -0.0047306 5.312 0
M  V30 3411 C 312.364 0.969805 6.04368 0
M  V30 3412 N 311.501 0.260486 7.01617 0
M  V30 3413 H 316.341 1.33126 2.66611 0
M  V30 3414 H 313.878 0.66765 1.31076 0
M  V30 3415 H 315.836 -0.680695 4.1161 0
M  V30 3416 H 314.466 -1.07312 3.0444 0
M  V30 3417 H 313.518 1.28689 3.57971 0
M  V30 3418 H 314.83 1.47934 4.76358 0
M  V30 3419 H 313.984 -0.496275 6.04667 0
M  V30 3420 H 312.723 -0.781282 4.81401 0
M  V30 3421 H 311.728 1.47237 5.29718 0
M  V30 3422 H 312.953 1.74655 6.56256 0
M  V30 3423 H 310.899 -0.497364 6.54112 0
M  V30 3424 H 310.816 0.943362 7.50091 0
M  V30 3425 H 312.084 -0.209587 7.79218 0
M  V30 3426 N 316.313 -1.40141 0.720998 0
M  V30 3427 C 317.59 -1.94677 0.189757 0
M  V30 3428 C 317.97 -1.65879 -1.30566 0
M  V30 3429 O 317.318 -0.979391 -2.06447 0
M  V30 3430 C 317.528 -3.45279 0.508304 0
M  V30 3431 C 318.876 -4.22209 0.449934 0
M  V30 3432 O 319.9 -3.53413 0.444677 0
M  V30 3433 O 318.759 -5.44788 0.432189 0
M  V30 3434 H 315.853 -0.826459 0.0299026 0
M  V30 3435 H 318.399 -1.49719 0.7989 0
M  V30 3436 H 317.171 -3.59619 1.54239 0
M  V30 3437 H 316.794 -3.97386 -0.130525 0
M  V30 3438 N 317.792 -0.46758 -1.50504 0
M  V30 3439 C 319.017 0.0886943 -2.0721 0
M  V30 3440 C 319.442 1.33057 -1.32956 0
M  V30 3441 O 318.8 1.77354 -0.376197 0
M  V30 3442 C 318.848 0.359202 -3.58806 0
M  V30 3443 O 317.952 1.44034 -3.8643 0
M  V30 3444 H 317.293 -0.0114349 -0.663902 0
M  V30 3445 H 319.823 -0.657613 -1.93744 0
M  V30 3446 H 319.833 0.600742 -4.03553 0
M  V30 3447 H 318.508 -0.548311 -4.1227 0
M  V30 3448 H 317.085 1.18638 -3.53524 0
M  V30 3449 N 319.27 1.56325 -0.20005 0
M  V30 3450 C 320.498 2.02105 0.442874 0
M  V30 3451 C 320.913 1.08014 1.5485 0
M  V30 3452 O 320.27 0.0858797 1.82298 0
M  V30 3453 C 320.321 3.47549 0.994583 0
M  V30 3454 O 320.042 4.38049 -0.0669322 0
M  V30 3455 C 321.543 4.0887 1.7129 0
M  V30 3456 H 318.763 0.661807 0.110691 0
M  V30 3457 H 321.307 2.02134 -0.310207 0
M  V30 3458 H 319.462 3.48204 1.69803 0
M  V30 3459 H 319.876 5.23368 0.344462 0
M  V30 3460 H 321.35 5.12475 2.05118 0
M  V30 3461 H 321.827 3.52615 2.61838 0
M  V30 3462 H 322.433 4.12002 1.05518 0
M  V30 3463 N 320.748 -0.0735177 1.57428 0
M  V30 3464 C 321.678 -1.0879 2.06608 0
M  V30 3465 C 322.659 -1.40473 0.959237 0
M  V30 3466 O 323.844 -1.5013 1.23185 0
M  V30 3467 C 320.974 -2.40183 2.50857 0
M  V30 3468 C 319.928 -2.22858 3.65402 0
M  V30 3469 C 319.254 -3.59619 3.957 0
M  V30 3470 C 320.554 -1.65123 4.95511 0
M  V30 3471 H 322.248 -0.678673 2.91607 0
M  V30 3472 H 319.794 -0.325013 1.40284 0
M  V30 3473 H 321.747 -3.11437 2.83874 0
M  V30 3474 H 320.471 -2.83083 1.62885 0
M  V30 3475 H 319.13 -1.54045 3.32664 0
M  V30 3476 H 318.778 -4.00086 3.04861 0
M  V30 3477 H 318.478 -3.48866 4.72828 0
M  V30 3478 H 320.002 -4.32306 4.31212 0
M  V30 3479 H 321.416 -2.26241 5.26771 0
M  V30 3480 H 319.813 -1.65071 5.7695 0
M  V30 3481 H 320.883 -0.612559 4.81015 0
M  V30 3482 N 322.226 -1.5378 -0.344866 0
M  V30 3483 C 323.475 -1.7018 -1.08267 0
M  V30 3484 C 323.788 -0.471 -1.89845 0
M  V30 3485 O 324.994 -0.515917 -2.66553 0
M  V30 3486 C 323.45 -3.00923 -1.97417 0
M  V30 3487 C 323.058 -4.31335 -1.21053 0
M  V30 3488 C 324.802 -3.26688 -2.71063 0
M  V30 3489 C 322.709 -5.53153 -2.09225 0
M  V30 3490 H 321.639 -0.634138 -0.407903 0
M  V30 3491 H 324.29 -1.8028 -0.342246 0
M  V30 3492 H 322.672 -2.84676 -2.75274 0
M  V30 3493 H 323.846 -4.58281 -0.481159 0
M  V30 3494 H 322.161 -4.12173 -0.591813 0
M  V30 3495 H 324.758 -4.1489 -3.37299 0
M  V30 3496 H 325.101 -2.43639 -3.37558 0
M  V30 3497 H 325.634 -3.43705 -2.0028 0
M  V30 3498 H 322.373 -6.38741 -1.47274 0
M  V30 3499 H 321.893 -5.30458 -2.79955 0
M  V30 3500 H 323.572 -5.88744 -2.68308 0
M  V30 3501 N 323.704 0.605807 -1.45491 0
M  V30 3502 C 324.637 1.73022 -1.48791 0
M  V30 3503 C 325.615 1.58917 -0.344112 0
M  V30 3504 O 326.799 1.80453 -0.544876 0
M  V30 3505 C 323.926 3.10865 -1.34463 0
M  V30 3506 C 322.972 3.43554 -2.5273 0
M  V30 3507 S 323.805 3.38196 -4.15191 0
M  V30 3508 C 324.961 4.78616 -4.03333 0
M  V30 3509 H 325.194 1.69961 -2.43928 0
M  V30 3510 H 322.727 0.782611 -1.33096 0
M  V30 3511 H 324.685 3.90398 -1.26884 0
M  V30 3512 H 323.346 3.1144 -0.40794 0
M  V30 3513 H 322.539 4.43924 -2.38637 0
M  V30 3514 H 322.141 2.71541 -2.5718 0
M  V30 3515 H 324.433 5.68463 -3.68587 0
M  V30 3516 H 325.376 4.97767 -5.03621 0
M  V30 3517 H 325.784 4.54381 -3.34959 0
M  V30 3518 N 325.182 1.32811 0.848464 0
M  V30 3519 C 326.114 1.18095 1.96433 0
M  V30 3520 C 327.127 0.114354 1.62398 0
M  V30 3521 O 328.316 0.363892 1.74751 0
M  V30 3522 C 325.416 0.786798 3.2964 0
M  V30 3523 C 324.589 1.943 3.91875 0
M  V30 3524 C 323.648 1.53138 5.03423 0
M  V30 3525 O 322.674 2.24432 5.23086 0
M  V30 3526 N 323.876 0.430915 5.78898 0
M  V30 3527 H 326.641 2.14218 2.09597 0
M  V30 3528 H 324.202 1.2543 1.02367 0
M  V30 3529 H 326.194 0.493715 4.01677 0
M  V30 3530 H 324.764 -0.0834541 3.12489 0
M  V30 3531 H 323.984 2.40224 3.12547 0
M  V30 3532 H 325.272 2.71689 4.30189 0
M  V30 3533 H 324.67 -0.162333 5.65467 0
M  V30 3534 H 323.227 0.197466 6.51501 0
M  V30 3535 N 326.66 -1.06551 1.16123 0
M  V30 3536 C 327.59 -2.15935 0.88851 0
M  V30 3537 C 328.571 -1.69306 -0.164135 0
M  V30 3538 O 329.756 -1.94193 -0.0167857 0
M  V30 3539 C 326.886 -3.45149 0.385942 0
M  V30 3540 C 325.84 -4.05271 1.3762 0
M  V30 3541 C 325.166 -5.29664 0.732137 0
M  V30 3542 C 326.466 -4.44355 2.74493 0
M  V30 3543 H 328.16 -2.39006 1.80323 0
M  V30 3544 H 325.706 -1.14866 0.868435 0
M  V30 3545 H 327.659 -4.21004 0.182647 0
M  V30 3546 H 326.383 -3.21689 -0.564274 0
M  V30 3547 H 325.042 -3.3147 1.56599 0
M  V30 3548 H 324.69 -5.02499 -0.224483 0
M  V30 3549 H 324.39 -5.70848 1.39307 0
M  V30 3550 H 325.914 -6.08218 0.538802 0
M  V30 3551 H 327.328 -5.11303 2.59311 0
M  V30 3552 H 325.725 -4.96515 3.37035 0
M  V30 3553 H 326.795 -3.55339 3.29943 0
M  V30 3554 N 328.138 -0.959301 -1.25041 0
M  V30 3555 C 329.068 -0.501388 -2.28053 0
M  V30 3556 C 330.049 0.454673 -1.63911 0
M  V30 3557 O 331.234 0.352618 -1.90972 0
M  V30 3558 C 328.364 0.217224 -3.4662 0
M  V30 3559 C 327.318 -0.654034 -4.22973 0
M  V30 3560 C 326.644 0.195589 -5.34342 0
M  V30 3561 C 327.944 -1.93447 -4.85155 0
M  V30 3562 H 329.638 -1.36238 -2.66608 0
M  V30 3563 H 327.184 -0.656534 -1.28163 0
M  V30 3564 H 329.137 0.548732 -4.17812 0
M  V30 3565 H 327.861 1.1125 -3.07068 0
M  V30 3566 H 326.52 -0.968693 -3.5357 0
M  V30 3567 H 326.168 1.09076 -4.91031 0
M  V30 3568 H 325.868 -0.384091 -5.86343 0
M  V30 3569 H 327.392 0.521958 -6.08365 0
M  V30 3570 H 328.806 -1.66908 -5.48466 0
M  V30 3571 H 327.203 -2.46018 -5.47353 0
M  V30 3572 H 328.273 -2.63466 -4.07079 0
M  V30 3573 N 329.616 1.39756 -0.72842 0
M  V30 3574 C 331.032 1.5442 -0.403308 0
M  V30 3575 C 331.232 1.69694 1.08656 0
M  V30 3576 O 330.288 1.69373 1.87267 0
M  V30 3577 C 331.601 2.76555 -1.18058 0
M  V30 3578 C 333.149 2.90384 -1.16815 0
M  V30 3579 C 333.624 4.15449 -1.92785 0
M  V30 3580 N 335.115 4.22475 -1.89918 0
M  V30 3581 C 335.85 5.1818 -2.45514 0
M  V30 3582 N 335.346 6.19714 -3.09719 0
M  V30 3583 N 337.139 5.1035 -2.35584 0
M  V30 3584 H 329.29 1.28089 -1.69431 0
M  V30 3585 H 331.553 0.620327 -0.716867 0
M  V30 3586 H 331.259 2.7159 -2.23455 0
M  V30 3587 H 331.133 3.69033 -0.780662 0
M  V30 3588 H 333.52 2.94846 -0.12234 0
M  V30 3589 H 333.601 1.98988 -1.6074 0
M  V30 3590 H 333.245 4.11749 -2.97364 0
M  V30 3591 H 333.175 5.05877 -1.46272 0
M  V30 3592 H 335.666 3.49743 -1.43138 0
M  V30 3593 H 335.979 6.8919 -3.49625 0
M  V30 3594 H 334.324 6.20121 -3.13807 0
M  V30 3595 H 337.515 4.2996 -1.85072 0
M  V30 3596 H 337.688 5.84761 -2.79211 0
M  V30 3597 N 331.094 0.475555 1.50254 0
M  V30 3598 C 332.371 -0.139685 1.95101 0
M  V30 3599 C 332.751 -1.56555 1.41611 0
M  V30 3600 O 332.099 -2.19956 0.618993 0
M  V30 3601 C 332.309 -0.0784298 3.48912 0
M  V30 3602 C 333.657 -0.265095 4.23772 0
M  V30 3603 O 334.681 -0.154808 3.55863 0
M  V30 3604 O 333.54 -0.488327 5.44314 0
M  V30 3605 H 330.634 -0.109236 0.819754 0
M  V30 3606 H 333.18 0.536276 1.61004 0
M  V30 3607 H 331.952 0.916918 3.80405 0
M  V30 3608 H 331.575 -0.795655 3.89558 0
M  V30 3609 N 332.573 -1.56217 0.208337 0
M  V30 3610 C 333.521 -2.21053 -0.723769 0
M  V30 3611 C 334.515 -1.18578 -1.20978 0
M  V30 3612 O 335.721 -1.36691 -1.17114 0
M  V30 3613 H 332.096 -0.708595 -0.251788 0
M  V30 3614 H 334.067 -2.98006 -0.153365 0
M  V30 3615 C 332.816 -2.89417 -1.927 0
M  V30 3616 H 332.139 -3.68019 -1.56212 0
M  V30 3617 H 333.579 -3.38201 -2.55727 0
M  V30 3618 C 332.038 -1.91166 -2.77411 0
M  V30 3619 O 332.568 -1.42026 -3.75754 0
M  V30 3620 N 330.774 -1.59105 -2.43175 0
M  V30 3621 H 330.321 -1.99259 -1.63259 0
M  V30 3622 H 330.279 -0.936255 -3.00136 0
M  V30 3623 N 334.051 0.0651679 -1.57465 0
M  V30 3624 C 334.981 1.07693 -2.07182 0
M  V30 3625 C 335.962 1.39962 -0.966673 0
M  V30 3626 O 337.147 1.49475 -1.2398 0
M  V30 3627 C 334.277 2.3885 -2.52127 0
M  V30 3628 C 333.231 2.20917 -3.66579 0
M  V30 3629 C 332.557 3.57515 -3.97601 0
M  V30 3630 C 333.857 1.62493 -4.9638 0
M  V30 3631 H 335.551 0.663199 -2.91962 0
M  V30 3632 H 333.097 0.317569 -1.40455 0
M  V30 3633 H 335.05 3.09928 -2.85522 0
M  V30 3634 H 333.774 2.82215 -1.64384 0
M  V30 3635 H 332.433 1.52279 -3.33477 0
M  V30 3636 H 332.081 3.98463 -3.06979 0
M  V30 3637 H 331.781 3.46353 -4.74672 0
M  V30 3638 H 333.305 4.30013 -4.33499 0
M  V30 3639 H 334.719 2.23445 -5.27963 0
M  V30 3640 H 333.116 1.62009 -5.77818 0
M  V30 3641 H 334.186 0.587041 -4.81333 0
M  V30 3642 N 335.529 1.53961 0.336706 0
M  V30 3643 C 336.757 1.75483 1.09605 0
M  V30 3644 C 337.172 0.4972 1.82136 0
M  V30 3645 O 336.529 -0.53149 1.74589 0
M  V30 3646 C 336.58 2.93943 2.10428 0
M  V30 3647 O 336.301 4.14842 1.40846 0
M  V30 3648 C 337.802 3.27571 2.98684 0
M  V30 3649 H 335.022 0.586166 0.326574 0
M  V30 3650 H 337.566 2.00808 0.38683 0
M  V30 3651 H 335.721 2.70929 2.76905 0
M  V30 3652 H 336.135 4.81383 2.08255 0
M  V30 3653 H 337.609 4.13791 3.6535 0
M  V30 3654 H 338.086 2.44168 3.65074 0
M  V30 3655 H 338.692 3.52615 2.37787 0
M  V30 3656 N 337.007 -0.598083 1.45811 0
M  V30 3657 C 337.937 -1.71873 1.58057 0
M  V30 3658 C 338.918 -1.64533 0.431615 0
M  V30 3659 O 340.103 -1.82787 0.65595 0
M  V30 3660 C 337.233 -3.10495 1.55597 0
M  V30 3661 C 336.187 -3.32654 2.69305 0
M  V30 3662 C 335.513 -4.71646 2.51902 0
M  V30 3663 C 336.813 -3.21981 4.11248 0
M  V30 3664 H 338.507 -1.61881 2.51863 0
M  V30 3665 H 336.053 -0.777372 1.21214 0
M  V30 3666 H 338.006 -3.88699 1.6276 0
M  V30 3667 H 336.73 -3.2135 0.583255 0
M  V30 3668 H 335.389 -2.56843 2.61586 0
M  V30 3669 H 335.037 -4.79246 1.52748 0
M  V30 3670 H 334.737 -4.87426 3.2816 0
M  V30 3671 H 336.261 -5.52038 2.60933 0
M  V30 3672 H 337.675 -3.90049 4.20161 0
M  V30 3673 H 336.072 -3.49289 4.87972 0
M  V30 3674 H 337.142 -2.1928 4.32486 0
M  V30 3675 N 338.485 -1.33259 -0.841409 0
M  V30 3676 C 339.731 -1.25766 -1.59857 0
M  V30 3677 C 340.086 0.175602 -1.91597 0
M  V30 3678 O 339.379 1.117 -1.55672 0
M  V30 3679 C 339.573 -2.06381 -2.9179 0
M  V30 3680 C 339.402 -3.57401 -2.72937 0
M  V30 3681 C 338.172 -4.26718 -2.70628 0
M  V30 3682 C 340.37 -4.51786 -2.45753 0
M  V30 3683 N 338.352 -5.63705 -2.43125 0
M  V30 3684 C 339.723 -5.76643 -2.27777 0
M  V30 3685 C 341.778 -4.40898 -2.31329 0
M  V30 3686 C 340.481 -6.91842 -1.96841 0
M  V30 3687 C 342.507 -5.55911 -2.01786 0
M  V30 3688 C 341.869 -6.79776 -1.8462 0
M  V30 3689 H 337.968 -0.515406 -0.588117 0
M  V30 3690 H 340.552 -1.67772 -0.987955 0
M  V30 3691 H 338.723 -1.667 -3.50807 0
M  V30 3692 H 340.455 -1.90678 -3.56965 0
M  V30 3693 H 337.21 -3.78968 -2.84043 0
M  V30 3694 H 337.634 -6.35911 -2.32265 0
M  V30 3695 H 342.276 -3.45772 -2.43314 0
M  V30 3696 H 339.994 -7.86968 -1.83594 0
M  V30 3697 H 343.58 -5.49421 -1.91384 0
M  V30 3698 H 342.46 -7.67266 -1.62088 0
M  V30 3699 N 339.963 1.05934 -1.16686 0
M  V30 3700 C 341.191 1.8249 -0.974929 0
M  V30 3701 C 341.606 1.82679 0.476861 0
M  V30 3702 O 340.963 1.2486 1.33103 0
M  V30 3703 C 341.014 3.28943 -1.49929 0
M  V30 3704 O 340.735 3.28886 -2.89423 0
M  V30 3705 C 342.236 4.22215 -1.35089 0
M  V30 3706 H 339.456 0.575295 -0.345365 0
M  V30 3707 H 342 1.33631 -1.548 0
M  V30 3708 H 340.155 3.751 -0.968423 0
M  V30 3709 H 340.569 4.20493 -3.13506 0
M  V30 3710 H 342.043 5.22987 -1.76603 0
M  V30 3711 H 342.52 4.38195 -0.296935 0
M  V30 3712 H 343.126 3.81907 -1.87155 0
M  V30 3713 N 341.441 0.965919 1.2453 0
M  V30 3714 C 342.666 0.643971 1.97149 0
M  V30 3715 C 343.091 -0.779487 1.71189 0
M  V30 3716 O 342.449 -1.5288 0.974553 0
M  V30 3717 C 342.497 0.922557 3.48599 0
M  V30 3718 O 341.601 0.00707672 4.12399 0
M  V30 3719 H 340.942 0.243647 0.617683 0
M  V30 3720 H 343.472 1.29558 1.58353 0
M  V30 3721 H 343.482 0.853373 3.98976 0
M  V30 3722 H 342.157 1.95996 3.66822 0
M  V30 3723 H 340.734 0.12943 3.72675 0
M  V30 3724 N 342.919 -1.39368 0.735821 0
M  V30 3725 C 343.829 -2.34395 0.0979693 0
M  V30 3726 C 344.845 -1.58361 -0.720968 0
M  V30 3727 O 346.021 -1.90648 -0.649245 0
M  V30 3728 C 343.086 -3.37393 -0.797916 0
M  V30 3729 C 342.147 -4.29287 0.0333662 0
M  V30 3730 C 341.38 -5.27365 -0.819854 0
M  V30 3731 O 341.603 -5.31959 -2.05855 0
M  V30 3732 O 340.537 -6.01389 -0.248079 0
M  V30 3733 H 344.363 -2.90601 0.882315 0
M  V30 3734 H 341.948 -1.40909 0.4965 0
M  V30 3735 H 343.83 -4.00505 -1.31048 0
M  V30 3736 H 342.505 -2.83571 -1.56106 0
M  V30 3737 H 341.412 -3.69395 0.591475 0
M  V30 3738 H 342.745 -4.86317 0.758752 0
M  V30 3739 N 344.397 -0.483516 -1.5 0
M  V30 3740 C 345.345 0.318061 -2.30415 0
M  V30 3741 C 346.339 0.978988 -1.38247 0
M  V30 3742 O 347.545 0.908673 -1.55381 0
M  V30 3743 H 343.92 0.121419 -0.742133 0
M  V30 3744 H 345.891 -0.380403 -2.95965 0
M  V30 3745 C 344.64 1.38013 -3.19136 0
M  V30 3746 H 343.963 0.880952 -3.89973 0
M  V30 3747 H 345.403 1.91332 -3.78375 0
M  V30 3748 C 343.862 2.38884 -2.37563 0
M  V30 3749 O 344.392 3.44412 -2.06744 0
M  V30 3750 N 342.598 2.10912 -1.99911 0
M  V30 3751 H 342.145 1.25118 -2.25174 0
M  V30 3752 H 342.103 2.78635 -1.45636 0
M  V30 3753 N 345.875 1.56104 -0.216619 0
M  V30 3754 C 346.807 2.17339 0.72776 0
M  V30 3755 C 347.82 1.14109 1.16116 0
M  V30 3756 O 349.009 1.4111 1.09317 0
M  V30 3757 C 346.109 2.73818 1.99693 0
M  V30 3758 C 345.282 4.02168 1.71988 0
M  V30 3759 C 344.341 4.43259 2.83562 0
M  V30 3760 O 343.367 5.10257 2.52244 0
M  V30 3761 N 344.569 4.08535 4.12407 0
M  V30 3762 H 347.334 2.99005 0.203983 0
M  V30 3763 H 344.895 1.61861 -0.0354289 0
M  V30 3764 H 346.887 2.9828 2.73516 0
M  V30 3765 H 345.457 1.96483 2.43132 0
M  V30 3766 H 344.677 3.85612 0.818337 0
M  V30 3767 H 345.965 4.85907 1.50903 0
M  V30 3768 H 345.363 3.54687 4.40696 0
M  V30 3769 H 343.92 4.37901 4.8279 0
M  V30 3770 N 347.353 -0.0568162 1.57498 0
M  V30 3771 C 348.601 -0.751617 1.87604 0
M  V30 3772 C 348.922 -1.77351 0.81066 0
M  V30 3773 O 348.192 -1.95254 -0.159018 0
M  V30 3774 H 346.772 -0.280583 0.692302 0
M  V30 3775 H 349.434 -0.0293483 1.94878 0
M  V30 3776 H 348.53 -1.25852 2.856 0
M  V30 3777 N 348.832 -1.54138 -0.328536 0
M  V30 3778 C 350.109 -1.62749 -1.08499 0
M  V30 3779 C 350.489 -0.458198 -2.06067 0
M  V30 3780 O 349.837 0.548046 -2.2183 0
M  V30 3781 C 350.047 -2.99519 -1.79135 0
M  V30 3782 C 351.395 -3.55394 -2.32337 0
M  V30 3783 O 352.419 -3.01792 -1.89209 0
M  V30 3784 O 351.278 -4.49186 -3.11279 0
M  V30 3785 H 348.372 -0.65886 -0.499832 0
M  V30 3786 H 350.918 -1.66484 -0.328826 0
M  V30 3787 H 349.69 -3.76061 -1.08139 0
M  V30 3788 H 349.313 -2.99441 -2.61574 0
M  V30 3789 N 350.31 0.590341 -1.46126 0
M  V30 3790 C 351.22 1.72793 -1.58681 0
M  V30 3791 C 352.236 1.67516 -0.470566 0
M  V30 3792 O 353.412 1.87562 -0.733642 0
M  V30 3793 C 350.477 3.09287 -1.5666 0
M  V30 3794 C 349.538 3.25886 -2.79458 0
M  V30 3795 C 348.771 4.55869 -2.77524 0
M  V30 3796 O 348.994 5.3928 -1.85832 0
M  V30 3797 O 347.928 4.75552 -3.68964 0
M  V30 3798 H 351.754 1.65149 -2.54872 0
M  V30 3799 H 349.339 0.756486 -1.28832 0
M  V30 3800 H 351.221 3.90577 -1.58202 0
M  V30 3801 H 349.896 3.17385 -0.636271 0
M  V30 3802 H 348.803 2.44119 -2.83472 0
M  V30 3803 H 350.136 3.22675 -3.71674 0
M  V30 3804 N 351.788 1.33704 0.83433 0
M  V30 3805 C 353.036 1.25169 1.58673 0
M  V30 3806 C 353.357 -0.18127 1.94156 0
M  V30 3807 O 352.627 -1.11113 1.6134 0
M  V30 3808 H 351.207 0.4603 0.58833 0
M  V30 3809 H 353.869 1.67478 0.996847 0
M  V30 3810 H 352.965 1.84856 2.51465 0
M  V30 3811 N 353.266 -1.05314 1.17247 0
M  V30 3812 C 354.543 -1.75184 0.87005 0
M  V30 3813 C 354.923 -2.01481 -0.629965 0
M  V30 3814 O 354.271 -1.64988 -1.58086 0
M  V30 3815 C 354.481 -3.04594 1.70363 0
M  V30 3816 C 355.829 -3.78567 1.92281 0
M  V30 3817 O 356.853 -3.14461 1.67311 0
M  V30 3818 O 355.712 -4.93755 2.3424 0
M  V30 3819 H 352.806 -0.761729 0.322021 0
M  V30 3820 H 355.352 -1.11493 1.27935 0
M  V30 3821 H 354.124 -2.81201 2.72106 0
M  V30 3822 H 353.747 -3.76022 1.29202 0
M  V30 3823 N 354.744 -0.972509 -1.24016 0
M  V30 3824 C 355.707 -0.511403 -2.23422 0
M  V30 3825 C 356.707 0.394679 -1.55881 0
M  V30 3826 O 357.897 0.189469 -1.73167 0
M  V30 3827 C 355.029 0.258769 -3.39916 0
M  V30 3828 H 356.222 -1.39024 -2.6573 0
M  V30 3829 H 353.775 -0.757585 -1.36713 0
M  V30 3830 H 354.51 1.1545 -3.03054 0
M  V30 3831 H 354.295 -0.391522 -3.9014 0
M  V30 3832 H 355.785 0.570244 -4.13688 0
M  V30 3833 N 356.222 1.38976 -0.743202 0
M  V30 3834 C 357.47 1.99948 -0.29417 0
M  V30 3835 C 357.791 1.59279 1.12495 0
M  V30 3836 O 357.061 0.844808 1.76748 0
M  V30 3837 H 355.641 0.739473 -0.105774 0
M  V30 3838 H 358.303 1.699 -0.954986 0
M  V30 3839 H 357.399 3.10142 -0.349056 0
M  V30 3840 N 357.7 0.491464 1.49741 0
M  V30 3841 C 358.61 -0.296835 2.32715 0
M  V30 3842 C 359.626 -0.976536 1.44013 0
M  V30 3843 O 360.802 -0.960023 1.77047 0
M  V30 3844 C 357.867 -1.35288 3.19215 0
M  V30 3845 C 356.928 -0.687632 4.23757 0
M  V30 3846 C 356.161 -1.69336 5.06123 0
M  V30 3847 O 356.384 -2.92219 4.89861 0
M  V30 3848 O 355.318 -1.25394 5.88693 0
M  V30 3849 H 359.144 0.382048 3.01287 0
M  V30 3850 H 356.729 0.252953 1.47243 0
M  V30 3851 H 358.611 -1.96411 3.72828 0
M  V30 3852 H 357.286 -2.01487 2.53347 0
M  V30 3853 H 356.193 -0.0369159 3.74082 0
M  V30 3854 H 357.526 -0.0682566 4.92153 0
M  V30 3855 N 359.178 -1.55987 0.224894 0
M  V30 3856 C 360.426 -1.97998 -0.405099 0
M  V30 3857 C 360.747 -1.11387 -1.60056 0
M  V30 3858 O 360.017 -0.191645 -1.9496 0
M  V30 3859 H 358.597 -0.731235 -0.152658 0
M  V30 3860 H 361.259 -1.92279 0.318567 0
M  V30 3861 H 360.355 -3.03463 -0.729167 0
M  V30 3862 N 360.656 0.0484629 -1.57525 0
M  V30 3863 C 361.566 1.07241 -2.08654 0
M  V30 3864 C 362.582 1.409 -1.02095 0
M  V30 3865 O 363.758 1.50609 -1.33712 0
M  V30 3866 C 360.823 2.36008 -2.5397 0
M  V30 3867 C 359.884 2.09108 -3.7493 0
M  V30 3868 C 359.117 3.31736 -4.18075 0
M  V30 3869 O 359.34 4.41714 -3.60895 0
M  V30 3870 O 358.274 3.18576 -5.10679 0
M  V30 3871 H 362.1 0.667965 -2.96263 0
M  V30 3872 H 359.685 0.26417 -1.47046 0
M  V30 3873 H 361.567 3.11747 -2.83535 0
M  V30 3874 H 360.242 2.75786 -1.69481 0
M  V30 3875 H 359.149 1.31 -3.50414 0
M  V30 3876 H 360.482 1.74198 -4.60343 0
M  V30 3877 N 362.134 1.5431 0.320358 0
M  V30 3878 C 363.082 1.84647 1.4145 0
M  V30 3879 C 364.076 0.718624 1.53402 0
M  V30 3880 O 365.282 0.902335 1.5575 0
M  V30 3881 H 361.657 0.585349 0.472091 0
M  V30 3882 H 363.628 2.7614 1.13089 0
M  V30 3883 C 362.377 2.09341 2.77617 0
M  V30 3884 H 361.7 2.9559 2.69196 0
M  V30 3885 H 363.14 2.3452 3.53237 0
M  V30 3886 C 361.599 0.885939 3.25043 0
M  V30 3887 O 362.129 0.0967891 4.01583 0
M  V30 3888 N 360.335 0.696682 2.82125 0
M  V30 3889 H 359.882 1.34006 2.2 0
M  V30 3890 H 359.84 -0.109712 3.14209 0
M  V30 3891 O 363.651 -0.466303 1.54622 0
M  V30 3892 H 364.342 -1.12058 1.57996 0
M  V30 END ATOM
M  V30 BEGIN BOND
M  V30 END BOND
M  V30 END CTAB
M  END
$$$$
