drugbank_target|P31943 Heterogeneous nuclear ribonucleoprotein H (DB09130)
 OpenBabel12092121053D

  0  0  0     0  0            999 V3000
M  V30 BEGIN CTAB
M  V30 COUNTS 18873 20282 0 0 0
M  V30 BEGIN ATOM
M  V30 1 H -1.547 9.37743 -1.21644 0
M  V30 2 O -1.44 8.89599 -0.40059 0
M  V30 3 P 0 8.91 0 0
M  V30 4 O 0.22 10.1746 0.733838 0
M  V30 5 O 0.79 8.73346 -1.23964 0
M  V30 6 O 0.25 7.66872 0.971405 0
M  V30 7 C -0.69 7.42405 2.04668 0
M  V30 8 C 0.04 6.86059 3.24661 0
M  V30 9 O 0.25 5.42934 3.03695 0
M  V30 10 C 1.44 7.41287 3.50796 0
M  V30 11 O 1.83 7.27073 4.86816 0
M  V30 12 C 2.32 6.5273 2.63741 0
M  V30 13 C 1.61 5.1842 2.73198 0
M  V30 14 N 1.66 4.38762 1.4784 0
M  V30 15 H -1.178 8.36899 2.3252 0
M  V30 16 H -1.45 6.70391 1.71179 0
M  V30 17 H -0.582 7.03638 4.13219 0
M  V30 18 H 2.073 4.59931 3.54016 0
M  V30 19 H 2.353 6.88995 1.59871 0
M  V30 20 H 3.344 6.4684 3.0373 0
M  V30 21 H 1.51 8.47002 3.20749 0
M  V30 22 P 3.37998 7.20834 5.23717 0
M  V30 23 O 3.59998 7.80006 6.57415 0
M  V30 24 O 4.16998 7.79416 4.13051 0
M  V30 25 O 3.62998 5.63315 5.29344 0
M  V30 26 C 2.68998 4.80318 6.01954 0
M  V30 27 C 3.41998 3.64202 6.65911 0
M  V30 28 O 3.62998 2.60736 5.64823 0
M  V30 29 C 4.81998 3.93521 7.19518 0
M  V30 30 O 5.20998 3.02071 8.21205 0
M  V30 31 C 5.69998 3.73047 5.97036 0
M  V30 32 C 4.98998 2.58828 5.25741 0
M  V30 33 N 5.03998 2.68068 3.77503 0
M  V30 34 H 2.20198 5.40394 6.8003 0
M  V30 35 H 1.92998 4.41741 5.32532 0
M  V30 36 H 2.79798 3.26371 7.47889 0
M  V30 37 H 5.45298 1.64007 5.56746 0
M  V30 38 H 5.73298 4.63439 5.3432 0
M  V30 39 H 6.72398 3.44776 6.25925 0
M  V30 40 H 4.88998 4.96707 7.57347 0
M  V30 41 P 6.75996 2.75334 8.47391 0
M  V30 42 O 6.97996 2.44571 9.90142 0
M  V30 43 O 7.54996 3.87688 7.92115 0
M  V30 44 O 7.00996 1.4459 7.59357 0
M  V30 45 C 6.06996 0.347608 7.69215 0
M  V30 46 C 6.79996 -0.96767 7.52806 0
M  V30 47 O 7.00996 -1.21036 6.1011 0
M  V30 48 C 8.19996 -1.04544 8.13308 0
M  V30 49 O 8.58996 -2.38311 8.41922 0
M  V30 50 C 9.07996 -0.491279 7.02284 0
M  V30 51 C 8.36996 -0.996264 5.77469 0
M  V30 52 N 8.41996 -0.0501916 4.62973 0
M  V30 53 H 5.58096 0.374722 8.67691 0
M  V30 54 H 5.31096 0.443485 6.90277 0
M  V30 55 H 6.17796 -1.75537 7.96793 0
M  V30 56 P 10.1399 -2.75334 8.47391 0
M  V30 57 O 10.3599 -3.84128 9.44797 0
M  V30 58 O 10.9299 -1.51947 8.68712 0
M  V30 59 O 10.3899 -3.29363 6.99321 0
M  V30 60 C 9.44994 -4.24011 6.4274 0
M  V30 61 C 10.1799 -5.20775 5.52155 0
M  V30 62 O 10.3899 -4.56534 4.22446 0
M  V30 63 C 11.5799 -5.62629 5.96531 0
M  V30 64 O 11.9699 -6.87667 5.41053 0
M  V30 65 C 12.4599 -4.52537 5.39283 0
M  V30 66 C 11.7499 -4.20027 4.08623 0
M  V30 67 N 11.7999 -2.76189 3.71603 0
M  V30 68 C 11.7199 -1.64862 4.52822 0
M  V30 69 N 11.7999 -0.512671 3.88633 0
M  V30 70 C 11.9399 -0.888083 2.54977 0
M  V30 71 C 12.0699 -0.094668 1.38677 0
M  V30 72 O 12.0899 1.13053 1.28163 0
M  V30 73 N 12.1899 -0.890102 0.232633 0
M  V30 74 C 12.1899 -2.26958 0.21772 0
M  V30 75 N 12.3199 -2.84626 -0.97925 0
M  V30 76 N 12.0599 -3.0178 1.31033 0
M  V30 77 C 11.9399 -2.26781 2.43843 0
M  V30 78 H 8.96094 -4.797 7.24003 0
M  V30 79 H 8.69094 -3.69856 5.84513 0
M  V30 80 H 9.55794 -6.10356 5.41441 0
M  V30 81 H 12.2129 -4.79061 3.27488 0
M  V30 82 H 12.4919 -3.64906 6.05785 0
M  V30 83 H 13.4839 -4.8868 5.2125 0
M  V30 84 H 11.6499 -5.66726 7.06352 0
M  V30 85 H 11.6009 -1.71169 5.60966 0
M  V30 86 H 12.2829 -0.419134 -0.644739 0
M  V30 87 H 12.3199 -3.87332 -1.06098 0
M  V30 88 H 12.4209 -2.26417 -1.82483 0
M  V30 89 P 13.5199 -7.20834 5.23717 0
M  V30 90 O 13.7399 -8.66189 5.38625 0
M  V30 91 O 14.3099 -6.33615 6.1356 0
M  V30 92 O 13.7699 -6.7751 3.72168 0
M  V30 93 C 12.8299 -7.20732 2.70725 0
M  V30 94 C 13.5599 -7.45864 1.40599 0
M  V30 95 O 13.7699 -6.17651 0.734225 0
M  V30 96 C 14.9599 -8.05808 1.51899 0
M  V30 97 O 15.3499 -8.74358 0.335205 0
M  V30 98 C 15.8399 -6.83093 1.70294 0
M  V30 99 C 15.1299 -5.79992 0.836974 0
M  V30 100 N 15.1799 -4.41769 1.38263 0
M  V30 101 C 15.3299 -3.38591 0.481702 0
M  V30 102 O 15.4199 -3.56839 -0.718452 0
M  V30 103 N 15.3699 -2.1206 1.03569 0
M  V30 104 C 15.2799 -1.80696 2.36966 0
M  V30 105 O 15.3299 -0.630473 2.74862 0
M  V30 106 C 15.1299 -2.94845 3.23898 0
M  V30 107 C 15.0199 -2.65253 4.70362 0
M  V30 108 C 15.0799 -4.19803 2.73435 0
M  V30 109 H 12.3399 -8.13644 3.0377 0
M  V30 110 H 12.0709 -6.42695 2.55448 0
M  V30 111 H 12.9379 -8.12039 0.792769 0
M  V30 112 H 15.5929 -5.79978 -0.160587 0
M  V30 113 H 15.8719 -6.51379 2.75643 0
M  V30 114 H 16.8639 -7.01734 1.34462 0
M  V30 115 H 15.0299 -8.73674 2.38337 0
M  V30 116 H 14.9589 -5.04492 3.4095 0
M  V30 117 H 15.9889 -2.83924 5.1913 0
M  V30 118 H 14.2519 -3.29824 5.15163 0
M  V30 119 H 14.7399 -1.59723 4.84449 0
M  V30 120 H 15.4759 -1.35644 0.399345 0
M  V30 121 P 16.8999 -8.91 1.09116e-15 0
M  V30 122 O 17.1199 -10.1726 -0.733694 0
M  V30 123 O 17.6899 -8.73148 1.23936 0
M  V30 124 O 17.1499 -7.66872 -0.971405 0
M  V30 125 C 16.2099 -7.42309 -2.04641 0
M  V30 126 C 16.9399 -6.86059 -3.24661 0
M  V30 127 O 17.1499 -5.42847 -3.03646 0
M  V30 128 C 18.3399 -7.41196 -3.50753 0
M  V30 129 O 18.7299 -7.27073 -4.86816 0
M  V30 130 C 19.2199 -6.5273 -2.63741 0
M  V30 131 C 18.5099 -5.1842 -2.73198 0
M  V30 132 N 18.5599 -4.38762 -1.4784 0
M  V30 133 H 15.7209 -8.36803 -2.32493 0
M  V30 134 H 15.4509 -6.70197 -1.71129 0
M  V30 135 H 16.3179 -7.03551 -4.13168 0
M  V30 136 P 20.2799 -7.20834 -5.23717 0
M  V30 137 O 20.4999 -7.79853 -6.57286 0
M  V30 138 O 21.0699 -7.79239 -4.12957 0
M  V30 139 O 20.5299 -5.63315 -5.29344 0
M  V30 140 C 19.5899 -4.80255 -6.01876 0
M  V30 141 C 20.3199 -3.64202 -6.65911 0
M  V30 142 O 20.5299 -2.60694 -5.64732 0
M  V30 143 C 21.7199 -3.93473 -7.1943 0
M  V30 144 O 22.1099 -3.02071 -8.21205 0
M  V30 145 C 22.5999 -3.73047 -5.97036 0
M  V30 146 C 21.8899 -2.58828 -5.25741 0
M  V30 147 N 21.9399 -2.68068 -3.77503 0
M  V30 148 C 21.8599 -3.79715 -2.96723 0
M  V30 149 N 21.9399 -3.5377 -1.68852 0
M  V30 150 C 22.0799 -2.15054 -1.63254 0
M  V30 151 C 22.2099 -1.28964 -0.518571 0
M  V30 152 O 22.2299 -1.56826 0.679156 0
M  V30 153 N 22.3299 0.0538097 -0.918425 0
M  V30 154 C 22.3299 0.494275 -2.22578 0
M  V30 155 N 22.4599 1.81086 -2.40434 0
M  V30 156 N 22.1999 -0.313645 -3.27502 0
M  V30 157 C 22.0799 -1.61829 -2.91033 0
M  V30 158 H 19.1009 -5.40332 -6.79951 0
M  V30 159 H 18.8309 -4.41613 -5.32378 0
M  V30 160 H 19.6979 -3.26331 -7.47797 0
M  V30 161 H 22.3529 -1.63422 -5.56814 0
M  V30 162 H 22.6319 -4.63374 -5.34244 0
M  V30 163 H 23.6239 -3.44728 -6.25838 0
M  V30 164 H 21.7899 -4.96652 -7.57263 0
M  V30 165 H 21.7409 -4.80617 -3.3614 0
M  V30 166 H 22.4229 0.742702 -0.199384 0
M  V30 167 H 22.4599 2.20598 -3.35588 0
M  V30 168 H 22.5609 2.43518 -1.58945 0
M  V30 169 P 23.6599 -2.75334 -8.47391 0
M  V30 170 O 23.8799 -2.44571 -9.90142 0
M  V30 171 O 24.4499 -3.87688 -7.92115 0
M  V30 172 O 23.9099 -1.4459 -7.59357 0
M  V30 173 C 22.9699 -0.347608 -7.69215 0
M  V30 174 C 23.6999 0.96767 -7.52806 0
M  V30 175 O 23.9099 1.21036 -6.1011 0
M  V30 176 C 25.0999 1.04544 -8.13308 0
M  V30 177 O 25.4899 2.38311 -8.41922 0
M  V30 178 C 25.9799 0.491279 -7.02284 0
M  V30 179 C 25.2699 0.996264 -5.77469 0
M  V30 180 N 25.3199 0.0501916 -4.62973 0
M  V30 181 C 25.2399 -1.32786 -4.63244 0
M  V30 182 N 25.3199 -1.86957 -3.44545 0
M  V30 183 C 25.4599 -0.780241 -2.58481 0
M  V30 184 C 25.5899 -0.738536 -1.17757 0
M  V30 185 O 25.6099 -1.66794 -0.372349 0
M  V30 186 N 25.7099 0.58337 -0.711393 0
M  V30 187 C 25.7099 1.70816 -1.51017 0
M  V30 188 N 25.8399 2.87826 -0.880757 0
M  V30 189 N 25.5799 1.67126 -2.8339 0
M  V30 190 C 25.4599 0.401421 -3.30572 0
M  V30 191 H 22.4809 -0.374722 -8.67691 0
M  V30 192 H 22.2109 -0.443485 -6.90277 0
M  V30 193 H 23.0779 1.75537 -7.96793 0
M  V30 194 H 25.7329 1.95076 -5.46529 0
M  V30 195 H 26.0119 -0.608565 -7.04577 0
M  V30 196 H 27.0039 0.889672 -7.08939 0
M  V30 197 H 25.1699 0.43308 -9.04564 0
M  V30 198 H 25.1209 -1.91249 -5.54442 0
M  V30 199 H 25.8029 0.718054 0.275244 0
M  V30 200 H 25.8399 3.75721 -1.41832 0
M  V30 201 H 25.9409 2.90436 0.145468 0
M  V30 202 P 27.0398 2.75334 -8.47391 0
M  V30 203 O 27.2598 3.84128 -9.44797 0
M  V30 204 O 27.8298 1.51947 -8.68712 0
M  V30 205 O 27.2898 3.29363 -6.99321 0
M  V30 206 C 26.3498 4.24011 -6.4274 0
M  V30 207 C 27.0798 5.20775 -5.52155 0
M  V30 208 O 27.2898 4.56534 -4.22446 0
M  V30 209 C 28.4798 5.62629 -5.96531 0
M  V30 210 O 28.8698 6.87667 -5.41053 0
M  V30 211 C 29.3598 4.52537 -5.39283 0
M  V30 212 C 28.6498 4.20027 -4.08623 0
M  V30 213 N 28.6998 2.76189 -3.71603 0
M  V30 214 H 25.8608 4.797 -7.24003 0
M  V30 215 H 25.5908 3.69856 -5.84513 0
M  V30 216 H 26.4578 6.10356 -5.41441 0
M  V30 217 P 30.4198 7.20834 -5.23717 0
M  V30 218 O 30.6398 8.66104 -5.38572 0
M  V30 219 O 31.2098 6.33544 -6.1349 0
M  V30 220 O 30.6698 6.7751 -3.72168 0
M  V30 221 C 29.7298 7.20825 -2.7076 0
M  V30 222 C 30.4598 7.45864 -1.40599 0
M  V30 223 O 30.6698 6.17651 -0.734225 0
M  V30 224 C 31.8598 8.05808 -1.51899 0
M  V30 225 O 32.2498 8.74358 -0.335205 0
M  V30 226 C 32.7398 6.83093 -1.70294 0
M  V30 227 C 32.0298 5.79992 -0.836974 0
M  V30 228 N 32.0798 4.41864 -1.38293 0
M  V30 229 C 31.9998 3.99538 -2.69438 0
M  V30 230 N 32.0798 2.69909 -2.84277 0
M  V30 231 C 32.2198 2.21719 -1.5408 0
M  V30 232 C 32.3498 0.891712 -1.06628 0
M  V30 233 O 32.3698 -0.161298 -1.70137 0
M  V30 234 N 32.4698 0.856846 0.334985 0
M  V30 235 C 32.4698 1.9641 1.15789 0
M  V30 236 N 32.5998 1.72708 2.46522 0
M  V30 237 N 32.3398 3.21165 0.713741 0
M  V30 238 C 32.2198 3.26797 -0.639748 0
M  V30 239 H 29.2408 8.13644 -3.0377 0
M  V30 240 H 28.9708 6.42788 -2.55485 0
M  V30 241 H 29.8378 8.12039 -0.792769 0
M  V30 242 H 32.4928 5.80061 0.166416 0
M  V30 243 H 32.7718 6.51287 -2.75604 0
M  V30 244 H 33.7638 7.01734 -1.34462 0
M  V30 245 H 31.9298 8.73674 -2.38337 0
M  V30 246 H 31.8808 4.68207 -3.53221 0
M  V30 247 H 32.5628 -0.0398818 0.767965 0
M  V30 248 H 32.5998 2.50995 3.13503 0
M  V30 249 H 32.7008 0.759148 2.80716 0
M  V30 250 P 33.7998 8.91 -2.18232e-15 0
M  V30 251 O 34.0198 10.1726 0.733694 0
M  V30 252 O 34.5898 8.73148 -1.23936 0
M  V30 253 O 34.0498 7.66872 0.971405 0
M  V30 254 C 33.1098 7.42309 2.04641 0
M  V30 255 C 33.8398 6.86059 3.24661 0
M  V30 256 O 34.0498 5.42847 3.03646 0
M  V30 257 C 35.2398 7.41196 3.50753 0
M  V30 258 O 35.6298 7.27073 4.86816 0
M  V30 259 C 36.1198 6.5273 2.63741 0
M  V30 260 C 35.4098 5.1842 2.73198 0
M  V30 261 N 35.4598 4.38762 1.4784 0
M  V30 262 H 32.6208 8.36803 2.32493 0
M  V30 263 H 32.3508 6.70197 1.71129 0
M  V30 264 H 33.2178 7.03551 4.13168 0
M  V30 265 P 37.1798 7.20834 5.23717 0
M  V30 266 O 37.3998 7.79853 6.57286 0
M  V30 267 O 37.9698 7.79239 4.12957 0
M  V30 268 O 37.4298 5.63315 5.29344 0
M  V30 269 C 36.4898 4.80255 6.01876 0
M  V30 270 C 37.2198 3.64202 6.65911 0
M  V30 271 O 37.4298 2.60694 5.64732 0
M  V30 272 C 38.6198 3.93473 7.1943 0
M  V30 273 O 39.0098 3.02071 8.21205 0
M  V30 274 C 39.4998 3.73047 5.97036 0
M  V30 275 C 38.7898 2.58828 5.25741 0
M  V30 276 N 38.8398 2.68068 3.77503 0
M  V30 277 H 36.0008 5.40332 6.79951 0
M  V30 278 H 35.7308 4.41613 5.32378 0
M  V30 279 H 36.5978 3.26331 7.47797 0
M  V30 280 P 40.5598 2.75334 8.47391 0
M  V30 281 O 40.7798 2.44571 9.90142 0
M  V30 282 O 41.3498 3.87688 7.92115 0
M  V30 283 O 40.8098 1.4459 7.59357 0
M  V30 284 C 39.8698 0.347608 7.69215 0
M  V30 285 C 40.5998 -0.96767 7.52806 0
M  V30 286 O 40.8098 -1.21036 6.1011 0
M  V30 287 C 41.9998 -1.04544 8.13308 0
M  V30 288 O 42.3898 -2.38311 8.41922 0
M  V30 289 C 42.8798 -0.491279 7.02284 0
M  V30 290 C 42.1698 -0.996264 5.77469 0
M  V30 291 N 42.2198 -0.0501916 4.62973 0
M  V30 292 H 39.3808 0.374722 8.67691 0
M  V30 293 H 39.1108 0.443485 6.90277 0
M  V30 294 H 39.9778 -1.75537 7.96793 0
M  V30 295 P 43.9397 -2.75334 8.47391 0
M  V30 296 O 44.1597 -3.84128 9.44797 0
M  V30 297 O 44.7297 -1.51947 8.68712 0
M  V30 298 O 44.1897 -3.29363 6.99321 0
M  V30 299 C 43.2497 -4.24011 6.4274 0
M  V30 300 C 43.9797 -5.20775 5.52155 0
M  V30 301 O 44.1897 -4.56534 4.22446 0
M  V30 302 C 45.3797 -5.62629 5.96531 0
M  V30 303 O 45.7697 -6.87667 5.41053 0
M  V30 304 C 46.2597 -4.52537 5.39283 0
M  V30 305 C 45.5497 -4.20027 4.08623 0
M  V30 306 N 45.5997 -2.76189 3.71603 0
M  V30 307 H 42.7607 -4.797 7.24003 0
M  V30 308 H 42.4907 -3.69856 5.84513 0
M  V30 309 H 43.3577 -6.10356 5.41441 0
M  V30 310 P 47.3197 -7.20834 5.23717 0
M  V30 311 O 47.5397 -8.66104 5.38572 0
M  V30 312 O 48.1097 -6.33544 6.1349 0
M  V30 313 O 47.5697 -6.7751 3.72168 0
M  V30 314 C 46.6297 -7.20825 2.7076 0
M  V30 315 C 47.3597 -7.45864 1.40599 0
M  V30 316 O 47.5697 -6.17651 0.734225 0
M  V30 317 C 48.7597 -8.05808 1.51899 0
M  V30 318 O 49.1497 -8.74358 0.335205 0
M  V30 319 C 49.6397 -6.83093 1.70294 0
M  V30 320 C 48.9297 -5.79992 0.836974 0
M  V30 321 N 48.9797 -4.41864 1.38293 0
M  V30 322 H 46.1407 -8.13644 3.0377 0
M  V30 323 H 45.8707 -6.42788 2.55485 0
M  V30 324 H 46.7377 -8.12039 0.792769 0
M  V30 325 P 50.6997 -8.91 3.27348e-15 0
M  V30 326 O 50.9197 -10.1726 -0.733694 0
M  V30 327 O 51.4897 -8.73148 1.23936 0
M  V30 328 O 50.9497 -7.66872 -0.971405 0
M  V30 329 C 50.0097 -7.42309 -2.04641 0
M  V30 330 C 50.7397 -6.86059 -3.24661 0
M  V30 331 O 50.9497 -5.42847 -3.03646 0
M  V30 332 C 52.1397 -7.41196 -3.50753 0
M  V30 333 O 52.5297 -7.27073 -4.86816 0
M  V30 334 C 53.0197 -6.5273 -2.63741 0
M  V30 335 C 52.3097 -5.1842 -2.73198 0
M  V30 336 N 52.3597 -4.38762 -1.4784 0
M  V30 337 C 52.2797 -4.81605 -0.168631 0
M  V30 338 N 52.3597 -3.85454 0.713363 0
M  V30 339 C 52.4997 -2.6994 -0.0566958 0
M  V30 340 C 52.6297 -1.34815 0.338502 0
M  V30 341 N 52.7497 -0.496304 -0.77465 0
M  V30 342 C 52.7497 -0.908403 -2.09122 0
M  V30 343 N 52.8797 0.0517805 -3.00955 0
M  V30 344 N 52.6197 -2.17875 -2.46519 0
M  V30 345 C 52.4997 -3.01988 -1.4033 0
M  V30 346 H 49.5207 -8.36803 -2.32493 0
M  V30 347 H 49.2507 -6.70197 -1.71129 0
M  V30 348 H 50.1177 -7.03551 -4.13168 0
M  V30 349 P 54.0797 -7.20834 -5.23717 0
M  V30 350 O 54.2997 -7.79853 -6.57286 0
M  V30 351 O 54.8697 -7.79239 -4.12957 0
M  V30 352 O 54.3297 -5.63315 -5.29344 0
M  V30 353 C 53.3897 -4.80255 -6.01876 0
M  V30 354 C 54.1197 -3.64202 -6.65911 0
M  V30 355 O 54.3297 -2.60694 -5.64732 0
M  V30 356 C 55.5197 -3.93473 -7.1943 0
M  V30 357 O 55.9097 -3.02071 -8.21205 0
M  V30 358 C 56.3997 -3.73047 -5.97036 0
M  V30 359 C 55.6897 -2.58828 -5.25741 0
M  V30 360 N 55.7397 -2.68068 -3.77503 0
M  V30 361 C 55.6597 -3.79715 -2.96723 0
M  V30 362 N 55.7397 -3.5377 -1.68852 0
M  V30 363 C 55.8797 -2.15054 -1.63254 0
M  V30 364 C 56.0097 -1.28964 -0.518571 0
M  V30 365 O 56.0297 -1.56826 0.679156 0
M  V30 366 N 56.1297 0.0538097 -0.918425 0
M  V30 367 C 56.1297 0.494275 -2.22578 0
M  V30 368 N 56.2597 1.81086 -2.40434 0
M  V30 369 N 55.9997 -0.313645 -3.27502 0
M  V30 370 C 55.8797 -1.61829 -2.91033 0
M  V30 371 H 52.9007 -5.40332 -6.79951 0
M  V30 372 H 52.6307 -4.41613 -5.32378 0
M  V30 373 H 53.4977 -3.26331 -7.47797 0
M  V30 374 H 56.1527 -1.63422 -5.56814 0
M  V30 375 H 56.4317 -4.63374 -5.34244 0
M  V30 376 H 57.4237 -3.44728 -6.25838 0
M  V30 377 H 55.5897 -4.96652 -7.57263 0
M  V30 378 H 55.5407 -4.80617 -3.3614 0
M  V30 379 H 56.2227 0.742702 -0.199384 0
M  V30 380 H 56.2597 2.20598 -3.35588 0
M  V30 381 H 56.3607 2.43518 -1.58945 0
M  V30 382 P 57.4597 -2.75334 -8.47391 0
M  V30 383 O 57.6797 -2.44571 -9.90142 0
M  V30 384 O 58.2497 -3.87688 -7.92115 0
M  V30 385 O 57.7097 -1.4459 -7.59357 0
M  V30 386 C 56.7697 -0.347608 -7.69215 0
M  V30 387 C 57.4997 0.96767 -7.52806 0
M  V30 388 O 57.7097 1.21036 -6.1011 0
M  V30 389 C 58.8997 1.04544 -8.13308 0
M  V30 390 O 59.2897 2.38311 -8.41922 0
M  V30 391 C 59.7797 0.491279 -7.02284 0
M  V30 392 C 59.0697 0.996264 -5.77469 0
M  V30 393 N 59.1197 0.0501916 -4.62973 0
M  V30 394 H 56.2807 -0.374722 -8.67691 0
M  V30 395 H 56.0107 -0.443485 -6.90277 0
M  V30 396 H 56.8777 1.75537 -7.96793 0
M  V30 397 P 60.8396 2.75334 -8.47391 0
M  V30 398 O 61.0596 3.84128 -9.44797 0
M  V30 399 O 61.6296 1.51947 -8.68712 0
M  V30 400 O 61.0896 3.29363 -6.99321 0
M  V30 401 C 60.1496 4.24011 -6.4274 0
M  V30 402 C 60.8796 5.20775 -5.52155 0
M  V30 403 O 61.0896 4.56534 -4.22446 0
M  V30 404 C 62.2796 5.62629 -5.96531 0
M  V30 405 O 62.6696 6.87667 -5.41053 0
M  V30 406 C 63.1596 4.52537 -5.39283 0
M  V30 407 C 62.4496 4.20027 -4.08623 0
M  V30 408 N 62.4996 2.76189 -3.71603 0
M  V30 409 H 59.6606 4.797 -7.24003 0
M  V30 410 H 59.3906 3.69856 -5.84513 0
M  V30 411 H 60.2576 6.10356 -5.41441 0
M  V30 412 P 64.2196 7.20834 -5.23717 0
M  V30 413 O 64.4396 8.66274 -5.38678 0
M  V30 414 O 65.0096 6.33687 -6.13629 0
M  V30 415 O 64.4696 6.7751 -3.72168 0
M  V30 416 C 63.5296 7.20919 -2.70795 0
M  V30 417 C 64.2596 7.45864 -1.40599 0
M  V30 418 O 64.4696 6.17751 -0.734343 0
M  V30 419 C 65.6596 8.05906 -1.51917 0
M  V30 420 O 66.0496 8.74358 -0.335205 0
M  V30 421 C 66.5396 6.83093 -1.70294 0
M  V30 422 C 65.8296 5.79992 -0.836974 0
M  V30 423 N 65.8796 4.41864 -1.38293 0
M  V30 424 H 63.0416 8.13738 -3.03804 0
M  V30 425 H 62.7696 6.42974 -2.55559 0
M  V30 426 H 63.6376 8.12139 -0.792866 0
M  V30 427 H 66.2926 5.80178 0.160643 0
M  V30 428 H 66.5726 6.51379 -2.75643 0
M  V30 429 H 67.5636 7.01832 -1.3448 0
M  V30 430 H 65.7296 8.73771 -2.38364 0
M  V30 431 P 67.5996 8.91 -4.36464e-15 0
M  V30 432 O 67.8196 10.1726 0.733694 0
M  V30 433 O 68.3896 8.73148 -1.23936 0
M  V30 434 O 67.8496 7.66872 0.971405 0
M  V30 435 C 66.9096 7.42309 2.04641 0
M  V30 436 C 67.6396 6.86059 3.24661 0
M  V30 437 O 67.8496 5.42847 3.03646 0
M  V30 438 C 69.0396 7.41196 3.50753 0
M  V30 439 O 69.4296 7.27073 4.86816 0
M  V30 440 C 69.9196 6.5273 2.63741 0
M  V30 441 C 69.2096 5.1842 2.73198 0
M  V30 442 N 69.2596 4.38762 1.4784 0
M  V30 443 H 66.4206 8.36803 2.32493 0
M  V30 444 H 66.1506 6.70197 1.71129 0
M  V30 445 H 67.0176 7.03551 4.13168 0
M  V30 446 P 70.9796 7.20834 5.23717 0
M  V30 447 O 71.1996 7.7993 6.57351 0
M  V30 448 O 71.7696 7.79328 4.13004 0
M  V30 449 O 71.2296 5.63315 5.29344 0
M  V30 450 C 70.2896 4.80255 6.01876 0
M  V30 451 C 71.0196 3.64202 6.65911 0
M  V30 452 O 71.2296 2.60694 5.64732 0
M  V30 453 C 72.4196 3.93473 7.1943 0
M  V30 454 O 72.8096 3.02071 8.21205 0
M  V30 455 C 73.2996 3.73047 5.97036 0
M  V30 456 C 72.5896 2.58828 5.25741 0
M  V30 457 N 72.6396 2.6801 3.77422 0
M  V30 458 C 72.7896 1.50173 3.05038 0
M  V30 459 O 72.8796 0.428832 3.665 0
M  V30 460 N 72.8396 1.70922 1.55541 0
M  V30 461 C 72.7396 2.7407 1.06402 0
M  V30 462 N 72.7896 2.74764 -0.260931 0
M  V30 463 C 72.5896 3.96781 1.78296 0
M  V30 464 C 72.5396 3.87909 3.13891 0
M  V30 465 H 69.7996 5.4027 6.79873 0
M  V30 466 H 69.5306 4.41549 5.32301 0
M  V30 467 H 70.3976 3.26371 7.47889 0
M  V30 468 H 73.0526 1.63978 5.5665 0
M  V30 469 H 73.3316 4.63439 5.3432 0
M  V30 470 H 74.3236 3.44728 6.25838 0
M  V30 471 H 72.4896 4.96652 7.57263 0
M  V30 472 H 72.4176 4.78425 3.73088 0
M  V30 473 H 72.5196 4.92593 1.26997 0
M  V30 474 H 72.9076 1.86285 -0.77595 0
M  V30 475 H 72.7106 3.63657 -0.773896 0
M  V30 476 P 74.3596 2.75334 8.47391 0
M  V30 477 O 74.5796 2.44571 9.90142 0
M  V30 478 O 75.1496 3.87688 7.92115 0
M  V30 479 O 74.6096 1.4459 7.59357 0
M  V30 480 C 73.6696 0.347608 7.69215 0
M  V30 481 C 74.3996 -0.96767 7.52806 0
M  V30 482 O 74.6096 -1.21036 6.1011 0
M  V30 483 C 75.7996 -1.04544 8.13308 0
M  V30 484 O 76.1896 -2.38311 8.41922 0
M  V30 485 C 76.6796 -0.491279 7.02284 0
M  V30 486 C 75.9696 -0.996264 5.77469 0
M  V30 487 N 76.0196 -0.0501916 4.62973 0
M  V30 488 H 73.1806 0.374722 8.67691 0
M  V30 489 H 72.9106 0.443485 6.90277 0
M  V30 490 H 73.7776 -1.75537 7.96793 0
M  V30 491 P 77.7395 -2.75334 8.47391 0
M  V30 492 O 77.9595 -3.84204 9.44982 0
M  V30 493 O 78.5295 -1.51982 8.68909 0
M  V30 494 O 77.9895 -3.29363 6.99321 0
M  V30 495 C 77.0495 -4.24066 6.42823 0
M  V30 496 C 77.7795 -5.20775 5.52155 0
M  V30 497 O 77.9895 -4.56607 4.22514 0
M  V30 498 C 79.1795 -5.62697 5.96604 0
M  V30 499 O 79.5695 -6.87667 5.41053 0
M  V30 500 C 80.0595 -4.52537 5.39283 0
M  V30 501 C 79.3495 -4.20027 4.08623 0
M  V30 502 N 79.3995 -2.76189 3.71603 0
M  V30 503 C 79.3195 -1.66944 4.54297 0
M  V30 504 N 79.3895 -0.536169 3.91344 0
M  V30 505 C 79.5395 -0.901569 2.58849 0
M  V30 506 C 79.6695 -0.146599 1.40236 0
M  V30 507 N 79.6795 1.18234 1.37046 0
M  V30 508 N 79.7895 -0.822941 0.249738 0
M  V30 509 C 79.7795 -2.15179 0.280525 0
M  V30 510 N 79.6595 -2.96414 1.30822 0
M  V30 511 C 79.5395 -2.25804 2.44748 0
M  V30 512 H 76.5615 -4.79756 7.24086 0
M  V30 513 H 76.2895 -3.69963 5.84682 0
M  V30 514 H 77.1575 -6.10431 5.41508 0
M  V30 515 H 79.8125 -4.78816 3.28024 0
M  V30 516 H 80.0925 -3.64957 6.05871 0
M  V30 517 H 81.0835 -4.88748 5.21323 0
M  V30 518 H 79.2495 -5.66789 7.0643 0
M  V30 519 H 79.2085 -1.74684 5.62396 0
M  V30 520 H 79.5895 1.71949 2.24394 0
M  V30 521 H 79.7785 1.67511 0.470742 0
M  V30 522 H 79.8865 -2.63704 -0.6828 0
M  V30 523 P 81.1195 -7.20834 5.23717 0
M  V30 524 O 81.3395 -8.66104 5.38572 0
M  V30 525 O 81.9095 -6.33544 6.1349 0
M  V30 526 O 81.3695 -6.7751 3.72168 0
M  V30 527 C 80.4295 -7.20825 2.7076 0
M  V30 528 C 81.1595 -7.45864 1.40599 0
M  V30 529 O 81.3695 -6.17651 0.734225 0
M  V30 530 C 82.5595 -8.05808 1.51899 0
M  V30 531 O 82.9495 -8.74358 0.335205 0
M  V30 532 C 83.4395 -6.83093 1.70294 0
M  V30 533 C 82.7295 -5.79992 0.836974 0
M  V30 534 N 82.7795 -4.41864 1.38293 0
M  V30 535 H 79.9405 -8.13644 3.0377 0
M  V30 536 H 79.6705 -6.42788 2.55485 0
M  V30 537 H 80.5375 -8.12039 0.792769 0
M  V30 538 P 84.4995 -8.91 5.4558e-15 0
M  V30 539 O 84.7195 -10.1726 -0.733694 0
M  V30 540 O 85.2895 -8.73148 1.23936 0
M  V30 541 O 84.7495 -7.66872 -0.971405 0
M  V30 542 C 83.8095 -7.42309 -2.04641 0
M  V30 543 C 84.5395 -6.86059 -3.24661 0
M  V30 544 O 84.7495 -5.42847 -3.03646 0
M  V30 545 C 85.9395 -7.41196 -3.50753 0
M  V30 546 O 86.3295 -7.27073 -4.86816 0
M  V30 547 C 86.8195 -6.5273 -2.63741 0
M  V30 548 C 86.1095 -5.1842 -2.73198 0
M  V30 549 N 86.1595 -4.38762 -1.4784 0
M  V30 550 H 83.3205 -8.36803 -2.32493 0
M  V30 551 H 83.0505 -6.70197 -1.71129 0
M  V30 552 H 83.9175 -7.03551 -4.13168 0
M  V30 553 P 87.8795 -7.20834 -5.23717 0
M  V30 554 O 88.0995 -7.79853 -6.57286 0
M  V30 555 O 88.6695 -7.79239 -4.12957 0
M  V30 556 O 88.1295 -5.63315 -5.29344 0
M  V30 557 C 87.1895 -4.80255 -6.01876 0
M  V30 558 C 87.9195 -3.64202 -6.65911 0
M  V30 559 O 88.1295 -2.60694 -5.64732 0
M  V30 560 C 89.3195 -3.93473 -7.1943 0
M  V30 561 O 89.7095 -3.02071 -8.21205 0
M  V30 562 C 90.1995 -3.73047 -5.97036 0
M  V30 563 C 89.4895 -2.58828 -5.25741 0
M  V30 564 N 89.5395 -2.68068 -3.77503 0
M  V30 565 H 86.7005 -5.40332 -6.79951 0
M  V30 566 H 86.4305 -4.41613 -5.32378 0
M  V30 567 H 87.2975 -3.26331 -7.47797 0
M  V30 568 P 91.2595 -2.75334 -8.47391 0
M  V30 569 O 91.4795 -2.44571 -9.90142 0
M  V30 570 O 92.0495 -3.87688 -7.92115 0
M  V30 571 O 91.5095 -1.4459 -7.59357 0
M  V30 572 C 90.5695 -0.347608 -7.69215 0
M  V30 573 C 91.2995 0.96767 -7.52806 0
M  V30 574 O 91.5095 1.21036 -6.1011 0
M  V30 575 C 92.6995 1.04544 -8.13308 0
M  V30 576 O 93.0895 2.38311 -8.41922 0
M  V30 577 C 93.5795 0.491279 -7.02284 0
M  V30 578 C 92.8695 0.996264 -5.77469 0
M  V30 579 N 92.9195 0.0501916 -4.62973 0
M  V30 580 H 90.0805 -0.374722 -8.67691 0
M  V30 581 H 89.8105 -0.443485 -6.90277 0
M  V30 582 H 90.6775 1.75537 -7.96793 0
M  V30 583 P 94.6394 2.75334 -8.47391 0
M  V30 584 O 94.8594 3.84128 -9.44797 0
M  V30 585 O 95.4294 1.51947 -8.68712 0
M  V30 586 O 94.8894 3.29363 -6.99321 0
M  V30 587 C 93.9494 4.24011 -6.4274 0
M  V30 588 C 94.6794 5.20775 -5.52155 0
M  V30 589 O 94.8894 4.56534 -4.22446 0
M  V30 590 C 96.0794 5.62629 -5.96531 0
M  V30 591 O 96.4694 6.87667 -5.41053 0
M  V30 592 C 96.9594 4.52537 -5.39283 0
M  V30 593 C 96.2494 4.20027 -4.08623 0
M  V30 594 N 96.2994 2.76189 -3.71603 0
M  V30 595 C 96.2194 1.64862 -4.52822 0
M  V30 596 N 96.2994 0.512671 -3.88633 0
M  V30 597 C 96.4394 0.888083 -2.54977 0
M  V30 598 C 96.5694 0.094668 -1.38677 0
M  V30 599 N 96.6894 0.890102 -0.232633 0
M  V30 600 C 96.6894 2.26958 -0.21772 0
M  V30 601 N 96.8194 2.84626 0.97925 0
M  V30 602 N 96.5594 3.0178 -1.31033 0
M  V30 603 C 96.4394 2.26781 -2.43843 0
M  V30 604 H 93.4604 4.797 -7.24003 0
M  V30 605 H 93.1904 3.69856 -5.84513 0
M  V30 606 H 94.0574 6.10356 -5.41441 0
M  V30 607 P 98.0194 7.20834 -5.23717 0
M  V30 608 O 98.2394 8.66104 -5.38572 0
M  V30 609 O 98.8094 6.33544 -6.1349 0
M  V30 610 O 98.2694 6.7751 -3.72168 0
M  V30 611 C 97.3294 7.20825 -2.7076 0
M  V30 612 C 98.0594 7.45864 -1.40599 0
M  V30 613 O 98.2694 6.17651 -0.734225 0
M  V30 614 C 99.4594 8.05808 -1.51899 0
M  V30 615 O 99.8494 8.74358 -0.335205 0
M  V30 616 C 100.339 6.83093 -1.70294 0
M  V30 617 C 99.6294 5.79992 -0.836974 0
M  V30 618 N 99.6794 4.41864 -1.38293 0
M  V30 619 H 96.8404 8.13644 -3.0377 0
M  V30 620 H 96.5704 6.42788 -2.55485 0
M  V30 621 H 97.4374 8.12039 -0.792769 0
M  V30 622 P 101.399 8.91 -6.54696e-15 0
M  V30 623 O 101.619 10.1726 0.733694 0
M  V30 624 O 102.189 8.73148 -1.23936 0
M  V30 625 O 101.649 7.66872 0.971405 0
M  V30 626 C 100.709 7.42309 2.04641 0
M  V30 627 C 101.439 6.86059 3.24661 0
M  V30 628 O 101.649 5.42847 3.03646 0
M  V30 629 C 102.839 7.41196 3.50753 0
M  V30 630 O 103.229 7.27073 4.86816 0
M  V30 631 C 103.719 6.5273 2.63741 0
M  V30 632 C 103.009 5.1842 2.73198 0
M  V30 633 N 103.059 4.38762 1.4784 0
M  V30 634 H 100.22 8.36803 2.32493 0
M  V30 635 H 99.9504 6.70197 1.71129 0
M  V30 636 H 100.817 7.03551 4.13168 0
M  V30 637 P 104.779 7.20834 5.23717 0
M  V30 638 O 104.999 7.79853 6.57286 0
M  V30 639 O 105.569 7.79239 4.12957 0
M  V30 640 O 105.029 5.63315 5.29344 0
M  V30 641 C 104.089 4.80255 6.01876 0
M  V30 642 C 104.819 3.64202 6.65911 0
M  V30 643 O 105.029 2.60694 5.64732 0
M  V30 644 C 106.219 3.93473 7.1943 0
M  V30 645 O 106.609 3.02071 8.21205 0
M  V30 646 C 107.099 3.73047 5.97036 0
M  V30 647 C 106.389 2.58828 5.25741 0
M  V30 648 N 106.439 2.68068 3.77503 0
M  V30 649 H 103.6 5.40332 6.79951 0
M  V30 650 H 103.33 4.41613 5.32378 0
M  V30 651 H 104.197 3.26331 7.47797 0
M  V30 652 P 108.159 2.75334 8.47391 0
M  V30 653 O 108.379 2.44571 9.90142 0
M  V30 654 O 108.949 3.87688 7.92115 0
M  V30 655 O 108.409 1.4459 7.59357 0
M  V30 656 C 107.469 0.347608 7.69215 0
M  V30 657 C 108.199 -0.96767 7.52806 0
M  V30 658 O 108.409 -1.21036 6.1011 0
M  V30 659 C 109.599 -1.04544 8.13308 0
M  V30 660 O 109.989 -2.38311 8.41922 0
M  V30 661 C 110.479 -0.491279 7.02284 0
M  V30 662 C 109.769 -0.996264 5.77469 0
M  V30 663 N 109.819 -0.0501916 4.62973 0
M  V30 664 H 106.98 0.374722 8.67691 0
M  V30 665 H 106.71 0.443485 6.90277 0
M  V30 666 H 107.577 -1.75537 7.96793 0
M  V30 667 P 111.539 -2.75334 8.47391 0
M  V30 668 O 111.759 -3.84166 9.4489 0
M  V30 669 O 112.329 -1.51964 8.6881 0
M  V30 670 O 111.789 -3.29363 6.99321 0
M  V30 671 C 110.849 -4.24011 6.4274 0
M  V30 672 C 111.579 -5.20775 5.52155 0
M  V30 673 O 111.789 -4.56534 4.22446 0
M  V30 674 C 112.979 -5.62629 5.96531 0
M  V30 675 O 113.369 -6.87667 5.41053 0
M  V30 676 C 113.859 -4.52537 5.39283 0
M  V30 677 C 113.149 -4.20027 4.08623 0
M  V30 678 N 113.199 -2.7613 3.71522 0
M  V30 679 C 113.349 -2.43702 2.37085 0
M  V30 680 O 113.439 -3.3531 1.54039 0
M  V30 681 N 113.399 -0.951103 2.10621 0
M  V30 682 C 113.299 -0.165021 2.93537 0
M  V30 683 N 113.349 1.09723 2.53253 0
M  V30 684 C 113.149 -0.469576 4.32458 0
M  V30 685 C 113.099 -1.78658 4.65921 0
M  V30 686 H 110.359 -4.79645 7.23919 0
M  V30 687 H 110.09 -3.69802 5.84429 0
M  V30 688 H 110.957 -6.10431 5.41508 0
M  V30 689 H 113.612 -4.78733 3.27967 0
M  V30 690 H 113.891 -3.64957 6.05871 0
M  V30 691 H 114.883 -4.8868 5.2125 0
M  V30 692 H 113.049 -5.66726 7.06352 0
M  V30 693 H 112.977 -2.06987 5.70299 0
M  V30 694 H 113.079 0.314383 5.07728 0
M  V30 695 H 113.467 1.31363 1.5319 0
M  V30 696 H 113.27 1.85978 3.21943 0
M  V30 697 P 114.919 -7.20834 5.23717 0
M  V30 698 O 115.139 -8.66104 5.38572 0
M  V30 699 O 115.709 -6.33544 6.1349 0
M  V30 700 O 115.169 -6.7751 3.72168 0
M  V30 701 C 114.229 -7.20825 2.7076 0
M  V30 702 C 114.959 -7.45864 1.40599 0
M  V30 703 O 115.169 -6.17651 0.734225 0
M  V30 704 C 116.359 -8.05808 1.51899 0
M  V30 705 O 116.749 -8.74358 0.335205 0
M  V30 706 C 117.239 -6.83093 1.70294 0
M  V30 707 C 116.529 -5.79992 0.836974 0
M  V30 708 N 116.579 -4.41864 1.38293 0
M  V30 709 H 113.74 -8.13644 3.0377 0
M  V30 710 H 113.47 -6.42788 2.55485 0
M  V30 711 H 114.337 -8.12039 0.792769 0
M  V30 712 P 118.299 -8.91 7.63812e-15 0
M  V30 713 O 118.519 -10.1726 -0.733694 0
M  V30 714 O 119.089 -8.73148 1.23936 0
M  V30 715 O 118.549 -7.66872 -0.971405 0
M  V30 716 C 117.609 -7.42309 -2.04641 0
M  V30 717 C 118.339 -6.86059 -3.24661 0
M  V30 718 O 118.549 -5.42847 -3.03646 0
M  V30 719 C 119.739 -7.41196 -3.50753 0
M  V30 720 O 120.129 -7.27073 -4.86816 0
M  V30 721 C 120.619 -6.5273 -2.63741 0
M  V30 722 C 119.909 -5.1842 -2.73198 0
M  V30 723 N 119.959 -4.38762 -1.4784 0
M  V30 724 H 117.12 -8.36803 -2.32493 0
M  V30 725 H 116.85 -6.70197 -1.71129 0
M  V30 726 H 117.717 -7.03551 -4.13168 0
M  V30 727 P 121.679 -7.20834 -5.23717 0
M  V30 728 O 121.899 -7.79853 -6.57286 0
M  V30 729 O 122.469 -7.79239 -4.12957 0
M  V30 730 O 121.929 -5.63315 -5.29344 0
M  V30 731 C 120.989 -4.80255 -6.01876 0
M  V30 732 C 121.719 -3.64202 -6.65911 0
M  V30 733 O 121.929 -2.60694 -5.64732 0
M  V30 734 C 123.119 -3.93473 -7.1943 0
M  V30 735 O 123.509 -3.02071 -8.21205 0
M  V30 736 C 123.999 -3.73047 -5.97036 0
M  V30 737 C 123.289 -2.58828 -5.25741 0
M  V30 738 N 123.339 -2.68068 -3.77503 0
M  V30 739 H 120.5 -5.40332 -6.79951 0
M  V30 740 H 120.23 -4.41613 -5.32378 0
M  V30 741 H 121.097 -3.26331 -7.47797 0
M  V30 742 P 125.059 -2.75334 -8.47391 0
M  V30 743 O 125.279 -2.44571 -9.90142 0
M  V30 744 O 125.849 -3.87688 -7.92115 0
M  V30 745 O 125.309 -1.4459 -7.59357 0
M  V30 746 C 124.369 -0.347608 -7.69215 0
M  V30 747 C 125.099 0.96767 -7.52806 0
M  V30 748 O 125.309 1.21036 -6.1011 0
M  V30 749 C 126.499 1.04544 -8.13308 0
M  V30 750 O 126.889 2.38311 -8.41922 0
M  V30 751 C 127.379 0.491279 -7.02284 0
M  V30 752 C 126.669 0.996264 -5.77469 0
M  V30 753 N 126.719 0.0501916 -4.62973 0
M  V30 754 H 123.88 -0.374722 -8.67691 0
M  V30 755 H 123.61 -0.443485 -6.90277 0
M  V30 756 H 124.477 1.75537 -7.96793 0
M  V30 757 P 128.439 2.75334 -8.47391 0
M  V30 758 O 128.659 3.84128 -9.44797 0
M  V30 759 O 129.229 1.51947 -8.68712 0
M  V30 760 O 128.689 3.29363 -6.99321 0
M  V30 761 C 127.749 4.24011 -6.4274 0
M  V30 762 C 128.479 5.20775 -5.52155 0
M  V30 763 O 128.689 4.56534 -4.22446 0
M  V30 764 C 129.879 5.62629 -5.96531 0
M  V30 765 O 130.269 6.87667 -5.41053 0
M  V30 766 C 130.759 4.52537 -5.39283 0
M  V30 767 C 130.049 4.20027 -4.08623 0
M  V30 768 N 130.099 2.76189 -3.71603 0
M  V30 769 C 130.019 1.64862 -4.52822 0
M  V30 770 N 130.099 0.512671 -3.88633 0
M  V30 771 C 130.239 0.888083 -2.54977 0
M  V30 772 C 130.369 0.094668 -1.38677 0
M  V30 773 O 130.389 -1.13053 -1.28163 0
M  V30 774 N 130.489 0.890102 -0.232633 0
M  V30 775 C 130.489 2.26958 -0.21772 0
M  V30 776 N 130.619 2.84626 0.97925 0
M  V30 777 N 130.359 3.0178 -1.31033 0
M  V30 778 C 130.239 2.26781 -2.43843 0
M  V30 779 H 127.26 4.797 -7.24003 0
M  V30 780 H 126.99 3.69856 -5.84513 0
M  V30 781 H 127.857 6.10356 -5.41441 0
M  V30 782 H 130.512 4.79061 -3.27488 0
M  V30 783 H 130.791 3.64906 -6.05785 0
M  V30 784 H 131.783 4.8868 -5.2125 0
M  V30 785 H 129.949 5.66726 -7.06352 0
M  V30 786 H 129.9 1.71169 -5.60966 0
M  V30 787 H 130.582 0.419134 0.644739 0
M  V30 788 H 130.619 3.87332 1.06098 0
M  V30 789 H 130.72 2.26417 1.82483 0
M  V30 790 P 131.819 7.20834 -5.23717 0
M  V30 791 O 132.039 8.66274 -5.38678 0
M  V30 792 O 132.609 6.33687 -6.13629 0
M  V30 793 O 132.069 6.7751 -3.72168 0
M  V30 794 C 131.129 7.20919 -2.70795 0
M  V30 795 C 131.859 7.45864 -1.40599 0
M  V30 796 O 132.069 6.17751 -0.734343 0
M  V30 797 C 133.259 8.05906 -1.51917 0
M  V30 798 O 133.649 8.74358 -0.335205 0
M  V30 799 C 134.139 6.83093 -1.70294 0
M  V30 800 C 133.429 5.79992 -0.836974 0
M  V30 801 N 133.479 4.41864 -1.38293 0
M  V30 802 C 133.399 4.02089 -2.69407 0
M  V30 803 N 133.469 2.73403 -2.85089 0
M  V30 804 C 133.619 2.25086 -1.5642 0
M  V30 805 C 133.749 0.942887 -1.04836 0
M  V30 806 N 133.759 -0.150999 -1.80369 0
M  V30 807 N 133.869 0.812565 0.28167 0
M  V30 808 C 133.859 1.90572 1.03784 0
M  V30 809 N 133.739 3.167 0.683905 0
M  V30 810 C 133.619 3.26538 -0.652815 0
M  V30 811 H 130.641 8.13738 -3.03804 0
M  V30 812 H 130.369 6.42974 -2.55559 0
M  V30 813 H 131.237 8.12139 -0.792866 0
M  V30 814 H 133.892 5.80178 0.160643 0
M  V30 815 H 134.172 6.51379 -2.75643 0
M  V30 816 H 135.163 7.01832 -1.3448 0
M  V30 817 H 133.329 8.73771 -2.38364 0
M  V30 818 H 133.288 4.7189 -3.52311 0
M  V30 819 H 133.669 -0.0721434 -2.82608 0
M  V30 820 H 133.858 -1.0785 -1.36544 0
M  V30 821 H 133.966 1.73207 2.10241 0
M  V30 822 P 135.199 8.91 -8.72928e-15 0
M  V30 823 O 135.419 10.1726 0.733694 0
M  V30 824 O 135.989 8.73148 -1.23936 0
M  V30 825 O 135.449 7.66872 0.971405 0
M  V30 826 C 134.509 7.42309 2.04641 0
M  V30 827 C 135.239 6.86059 3.24661 0
M  V30 828 O 135.449 5.42847 3.03646 0
M  V30 829 C 136.639 7.41196 3.50753 0
M  V30 830 O 137.029 7.27073 4.86816 0
M  V30 831 C 137.519 6.5273 2.63741 0
M  V30 832 C 136.809 5.1842 2.73198 0
M  V30 833 N 136.859 4.38762 1.4784 0
M  V30 834 H 134.02 8.36803 2.32493 0
M  V30 835 H 133.75 6.70197 1.71129 0
M  V30 836 H 134.617 7.03551 4.13168 0
M  V30 837 P 138.579 7.20834 5.23717 0
M  V30 838 O 138.799 7.79853 6.57286 0
M  V30 839 O 139.369 7.79239 4.12957 0
M  V30 840 O 138.829 5.63315 5.29344 0
M  V30 841 C 137.889 4.80255 6.01876 0
M  V30 842 C 138.619 3.64202 6.65911 0
M  V30 843 O 138.829 2.60694 5.64732 0
M  V30 844 C 140.019 3.93473 7.1943 0
M  V30 845 O 140.409 3.02071 8.21205 0
M  V30 846 C 140.899 3.73047 5.97036 0
M  V30 847 C 140.189 2.58828 5.25741 0
M  V30 848 N 140.239 2.68068 3.77503 0
M  V30 849 C 140.159 3.79715 2.96723 0
M  V30 850 N 140.239 3.5377 1.68852 0
M  V30 851 C 140.379 2.15054 1.63254 0
M  V30 852 C 140.509 1.28964 0.518571 0
M  V30 853 O 140.529 1.56826 -0.679156 0
M  V30 854 N 140.629 -0.0538097 0.918425 0
M  V30 855 C 140.629 -0.494275 2.22578 0
M  V30 856 N 140.759 -1.81086 2.40434 0
M  V30 857 N 140.499 0.313645 3.27502 0
M  V30 858 C 140.379 1.61829 2.91033 0
M  V30 859 H 137.4 5.40332 6.79951 0
M  V30 860 H 137.13 4.41613 5.32378 0
M  V30 861 H 137.997 3.26331 7.47797 0
M  V30 862 H 140.652 1.63422 5.56814 0
M  V30 863 H 140.931 4.63374 5.34244 0
M  V30 864 H 141.923 3.44728 6.25838 0
M  V30 865 H 140.089 4.96652 7.57263 0
M  V30 866 H 140.04 4.80617 3.3614 0
M  V30 867 H 140.722 -0.742702 0.199384 0
M  V30 868 H 140.759 -2.20598 3.35588 0
M  V30 869 H 140.86 -2.43518 1.58945 0
M  V30 870 P 141.959 2.75334 8.47391 0
M  V30 871 O 142.179 2.44571 9.90142 0
M  V30 872 O 142.749 3.87688 7.92115 0
M  V30 873 O 142.209 1.4459 7.59357 0
M  V30 874 C 141.269 0.347608 7.69215 0
M  V30 875 C 141.999 -0.96767 7.52806 0
M  V30 876 O 142.209 -1.21036 6.1011 0
M  V30 877 C 143.399 -1.04544 8.13308 0
M  V30 878 O 143.789 -2.38311 8.41922 0
M  V30 879 C 144.279 -0.491279 7.02284 0
M  V30 880 C 143.569 -0.996264 5.77469 0
M  V30 881 N 143.619 -0.0501916 4.62973 0
M  V30 882 H 140.78 0.374722 8.67691 0
M  V30 883 H 140.51 0.443485 6.90277 0
M  V30 884 H 141.377 -1.75537 7.96793 0
M  V30 885 P 145.339 -2.75334 8.47391 0
M  V30 886 O 145.559 -3.84128 9.44797 0
M  V30 887 O 146.129 -1.51947 8.68712 0
M  V30 888 O 145.589 -3.29363 6.99321 0
M  V30 889 C 144.649 -4.24011 6.4274 0
M  V30 890 C 145.379 -5.20775 5.52155 0
M  V30 891 O 145.589 -4.56534 4.22446 0
M  V30 892 C 146.779 -5.62629 5.96531 0
M  V30 893 O 147.169 -6.87667 5.41053 0
M  V30 894 C 147.659 -4.52537 5.39283 0
M  V30 895 C 146.949 -4.20027 4.08623 0
M  V30 896 N 146.999 -2.76189 3.71603 0
M  V30 897 C 146.919 -1.64862 4.52822 0
M  V30 898 N 146.999 -0.512671 3.88633 0
M  V30 899 C 147.139 -0.888083 2.54977 0
M  V30 900 C 147.269 -0.094668 1.38677 0
M  V30 901 N 147.389 -0.890102 0.232633 0
M  V30 902 C 147.389 -2.26958 0.21772 0
M  V30 903 N 147.519 -2.84626 -0.97925 0
M  V30 904 N 147.259 -3.0178 1.31033 0
M  V30 905 C 147.139 -2.26781 2.43843 0
M  V30 906 H 144.16 -4.797 7.24003 0
M  V30 907 H 143.89 -3.69856 5.84513 0
M  V30 908 H 144.757 -6.10356 5.41441 0
M  V30 909 P 148.719 -7.20834 5.23717 0
M  V30 910 O 148.939 -8.66104 5.38572 0
M  V30 911 O 149.509 -6.33544 6.1349 0
M  V30 912 O 148.969 -6.7751 3.72168 0
M  V30 913 C 148.029 -7.20825 2.7076 0
M  V30 914 C 148.759 -7.45864 1.40599 0
M  V30 915 O 148.969 -6.17651 0.734225 0
M  V30 916 C 150.159 -8.05808 1.51899 0
M  V30 917 O 150.549 -8.74358 0.335205 0
M  V30 918 C 151.039 -6.83093 1.70294 0
M  V30 919 C 150.329 -5.79992 0.836974 0
M  V30 920 N 150.379 -4.41864 1.38293 0
M  V30 921 H 147.54 -8.13644 3.0377 0
M  V30 922 H 147.27 -6.42788 2.55485 0
M  V30 923 H 148.137 -8.12039 0.792769 0
M  V30 924 P 152.099 -8.91 9.82044e-15 0
M  V30 925 O 152.319 -10.1726 -0.733694 0
M  V30 926 O 152.889 -8.73148 1.23936 0
M  V30 927 O 152.349 -7.66872 -0.971405 0
M  V30 928 C 151.409 -7.42309 -2.04641 0
M  V30 929 C 152.139 -6.86059 -3.24661 0
M  V30 930 O 152.349 -5.42847 -3.03646 0
M  V30 931 C 153.539 -7.41196 -3.50753 0
M  V30 932 O 153.929 -7.27073 -4.86816 0
M  V30 933 C 154.419 -6.5273 -2.63741 0
M  V30 934 C 153.709 -5.1842 -2.73198 0
M  V30 935 N 153.759 -4.38762 -1.4784 0
M  V30 936 H 150.92 -8.36803 -2.32493 0
M  V30 937 H 150.65 -6.70197 -1.71129 0
M  V30 938 H 151.517 -7.03551 -4.13168 0
M  V30 939 P 155.479 -7.20834 -5.23717 0
M  V30 940 O 155.699 -7.7993 -6.57351 0
M  V30 941 O 156.269 -7.79328 -4.13004 0
M  V30 942 O 155.729 -5.63315 -5.29344 0
M  V30 943 C 154.789 -4.80193 -6.01798 0
M  V30 944 C 155.519 -3.64202 -6.65911 0
M  V30 945 O 155.729 -2.60694 -5.64732 0
M  V30 946 C 156.919 -3.93473 -7.1943 0
M  V30 947 O 157.309 -3.02071 -8.21205 0
M  V30 948 C 157.799 -3.73047 -5.97036 0
M  V30 949 C 157.089 -2.58828 -5.25741 0
M  V30 950 N 157.139 -2.6801 -3.77422 0
M  V30 951 C 157.289 -1.50443 -3.07133 0
M  V30 952 O 157.379 -0.419406 -3.61576 0
M  V30 953 N 157.329 -1.6403 -1.69677 0
M  V30 954 C 157.239 -2.81206 -0.986255 0
M  V30 955 C 157.089 -3.99158 -1.80325 0
M  V30 956 C 157.039 -3.89779 -3.1476 0
M  V30 957 H 154.299 -5.40332 -6.79951 0
M  V30 958 H 154.03 -4.41549 -5.32301 0
M  V30 959 H 154.897 -3.26331 -7.47797 0
M  V30 960 H 157.552 -1.6395 -5.56554 0
M  V30 961 H 157.831 -4.63439 -5.3432 0
M  V30 962 H 158.823 -3.44728 -6.25838 0
M  V30 963 H 156.989 -4.96652 -7.57263 0
M  V30 964 H 156.918 -4.80159 -3.74441 0
M  V30 965 P 158.859 -2.75334 -8.47391 0
M  V30 966 O 159.079 -2.44595 -9.90239 0
M  V30 967 O 159.649 -3.87732 -7.92204 0
M  V30 968 O 159.109 -1.4459 -7.59357 0
M  V30 969 C 158.169 -0.347563 -7.69115 0
M  V30 970 C 158.899 0.96767 -7.52806 0
M  V30 971 O 159.109 1.21036 -6.1011 0
M  V30 972 C 160.299 1.04544 -8.13308 0
M  V30 973 O 160.689 2.38311 -8.41922 0
M  V30 974 C 161.179 0.491279 -7.02284 0
M  V30 975 C 160.469 0.996264 -5.77469 0
M  V30 976 N 160.519 0.0501808 -4.62873 0
M  V30 977 C 160.669 0.588177 -3.36904 0
M  V30 978 O 160.759 1.78598 -3.17173 0
M  V30 979 N 160.709 -0.329694 -2.33686 0
M  V30 980 C 160.619 -1.6953 -2.45079 0
M  V30 981 O 160.669 -2.41926 -1.44899 0
M  V30 982 C 160.469 -2.16933 -3.80505 0
M  V30 983 C 160.359 -3.65373 -3.97621 0
M  V30 984 C 160.419 -1.30326 -4.83752 0
M  V30 985 H 157.679 -0.374722 -8.67691 0
M  V30 986 H 157.41 -0.443421 -6.90177 0
M  V30 987 H 158.277 1.75537 -7.96793 0
M  V30 988 H 160.932 1.94496 -5.46629 0
M  V30 989 H 161.211 -0.608651 -7.04676 0
M  V30 990 H 162.203 0.889672 -7.08939 0
M  V30 991 H 160.369 0.43308 -9.04564 0
M  V30 992 H 160.298 -1.68366 -5.8516 0
M  V30 993 H 161.328 -4.05985 -4.30448 0
M  V30 994 H 159.591 -3.88028 -4.72875 0
M  V30 995 H 160.079 -4.11381 -3.01609 0
M  V30 996 H 160.815 0.0393617 -1.41345 0
M  V30 997 P 162.239 2.75334 -8.47391 0
M  V30 998 O 162.459 3.84128 -9.44797 0
M  V30 999 O 163.029 1.51947 -8.68712 0
M  V30 1000 O 162.489 3.29363 -6.99321 0
M  V30 1001 C 161.549 4.24011 -6.4274 0
M  V30 1002 C 162.279 5.20775 -5.52155 0
M  V30 1003 O 162.489 4.56534 -4.22446 0
M  V30 1004 C 163.679 5.62629 -5.96531 0
M  V30 1005 O 164.069 6.87667 -5.41053 0
M  V30 1006 C 164.559 4.52537 -5.39283 0
M  V30 1007 C 163.849 4.20027 -4.08623 0
M  V30 1008 N 163.899 2.76189 -3.71603 0
M  V30 1009 C 163.819 1.64862 -4.52822 0
M  V30 1010 N 163.899 0.512671 -3.88633 0
M  V30 1011 C 164.039 0.888083 -2.54977 0
M  V30 1012 C 164.169 0.094668 -1.38677 0
M  V30 1013 N 164.289 0.890102 -0.232633 0
M  V30 1014 C 164.289 2.26958 -0.21772 0
M  V30 1015 N 164.419 2.84626 0.97925 0
M  V30 1016 N 164.159 3.0178 -1.31033 0
M  V30 1017 C 164.039 2.26781 -2.43843 0
M  V30 1018 H 161.06 4.797 -7.24003 0
M  V30 1019 H 160.79 3.69856 -5.84513 0
M  V30 1020 H 161.657 6.10356 -5.41441 0
M  V30 1021 P 165.619 7.20834 -5.23717 0
M  V30 1022 O 165.839 8.66104 -5.38572 0
M  V30 1023 O 166.409 6.33544 -6.1349 0
M  V30 1024 O 165.869 6.7751 -3.72168 0
M  V30 1025 C 164.929 7.20825 -2.7076 0
M  V30 1026 C 165.659 7.45864 -1.40599 0
M  V30 1027 O 165.869 6.17651 -0.734225 0
M  V30 1028 C 167.059 8.05808 -1.51899 0
M  V30 1029 O 167.449 8.74358 -0.335205 0
M  V30 1030 C 167.939 6.83093 -1.70294 0
M  V30 1031 C 167.229 5.79992 -0.836974 0
M  V30 1032 N 167.279 4.41864 -1.38293 0
M  V30 1033 H 164.44 8.13644 -3.0377 0
M  V30 1034 H 164.17 6.42788 -2.55485 0
M  V30 1035 H 165.037 8.12039 -0.792769 0
M  V30 1036 P 168.999 8.91 -1.09116e-14 0
M  V30 1037 O 169.219 10.1726 0.733694 0
M  V30 1038 O 169.789 8.73148 -1.23936 0
M  V30 1039 O 169.249 7.66872 0.971405 0
M  V30 1040 C 168.309 7.42309 2.04641 0
M  V30 1041 C 169.039 6.86059 3.24661 0
M  V30 1042 O 169.249 5.42847 3.03646 0
M  V30 1043 C 170.439 7.41196 3.50753 0
M  V30 1044 O 170.829 7.27073 4.86816 0
M  V30 1045 C 171.319 6.5273 2.63741 0
M  V30 1046 C 170.609 5.1842 2.73198 0
M  V30 1047 N 170.659 4.38762 1.4784 0
M  V30 1048 C 170.579 4.81605 0.168631 0
M  V30 1049 N 170.659 3.85454 -0.713363 0
M  V30 1050 C 170.799 2.6994 0.0566958 0
M  V30 1051 C 170.929 1.34815 -0.338502 0
M  V30 1052 O 170.949 0.869548 -1.47125 0
M  V30 1053 N 171.049 0.496304 0.77465 0
M  V30 1054 C 171.049 0.908403 2.09122 0
M  V30 1055 N 171.179 -0.0517805 3.00955 0
M  V30 1056 N 170.919 2.17875 2.46519 0
M  V30 1057 C 170.799 3.01988 1.4033 0
M  V30 1058 H 167.82 8.36803 2.32493 0
M  V30 1059 H 167.55 6.70197 1.71129 0
M  V30 1060 H 168.417 7.03551 4.13168 0
M  V30 1061 H 171.072 4.59498 3.54415 0
M  V30 1062 H 171.351 6.88898 1.59848 0
M  V30 1063 H 172.343 6.46749 3.03687 0
M  V30 1064 H 170.509 8.46908 3.20714 0
M  V30 1065 H 170.46 5.86405 -0.105564 0
M  V30 1066 H 171.142 -0.483664 0.597855 0
M  V30 1067 H 171.179 0.187865 4.0116 0
M  V30 1068 H 171.28 -1.03585 2.71726 0
M  V30 1069 P 172.379 7.20834 5.23717 0
M  V30 1070 O 172.599 7.79853 6.57286 0
M  V30 1071 O 173.169 7.79239 4.12957 0
M  V30 1072 O 172.629 5.63315 5.29344 0
M  V30 1073 C 171.689 4.80255 6.01876 0
M  V30 1074 C 172.419 3.64202 6.65911 0
M  V30 1075 O 172.629 2.60694 5.64732 0
M  V30 1076 C 173.819 3.93473 7.1943 0
M  V30 1077 O 174.209 3.02071 8.21205 0
M  V30 1078 C 174.699 3.73047 5.97036 0
M  V30 1079 C 173.989 2.58828 5.25741 0
M  V30 1080 N 174.039 2.68068 3.77503 0
M  V30 1081 C 173.959 3.79715 2.96723 0
M  V30 1082 N 174.039 3.5377 1.68852 0
M  V30 1083 C 174.179 2.15054 1.63254 0
M  V30 1084 C 174.309 1.28964 0.518571 0
M  V30 1085 N 174.429 -0.0538097 0.918425 0
M  V30 1086 C 174.429 -0.494275 2.22578 0
M  V30 1087 N 174.559 -1.81086 2.40434 0
M  V30 1088 N 174.299 0.313645 3.27502 0
M  V30 1089 C 174.179 1.61829 2.91033 0
M  V30 1090 H 171.2 5.40332 6.79951 0
M  V30 1091 H 170.93 4.41613 5.32378 0
M  V30 1092 H 171.797 3.26331 7.47797 0
M  V30 1093 P 175.759 2.75334 8.47391 0
M  V30 1094 O 175.979 2.44571 9.90142 0
M  V30 1095 O 176.549 3.87688 7.92115 0
M  V30 1096 O 176.009 1.4459 7.59357 0
M  V30 1097 C 175.069 0.347608 7.69215 0
M  V30 1098 C 175.799 -0.96767 7.52806 0
M  V30 1099 O 176.009 -1.21036 6.1011 0
M  V30 1100 C 177.199 -1.04544 8.13308 0
M  V30 1101 O 177.589 -2.38311 8.41922 0
M  V30 1102 C 178.079 -0.491279 7.02284 0
M  V30 1103 C 177.369 -0.996264 5.77469 0
M  V30 1104 N 177.419 -0.0501916 4.62973 0
M  V30 1105 H 174.58 0.374722 8.67691 0
M  V30 1106 H 174.31 0.443485 6.90277 0
M  V30 1107 H 175.177 -1.75537 7.96793 0
M  V30 1108 P 179.139 -2.75334 8.47391 0
M  V30 1109 O 179.359 -3.84128 9.44797 0
M  V30 1110 O 179.929 -1.51947 8.68712 0
M  V30 1111 O 179.389 -3.29363 6.99321 0
M  V30 1112 C 178.449 -4.24011 6.4274 0
M  V30 1113 C 179.179 -5.20775 5.52155 0
M  V30 1114 O 179.389 -4.56534 4.22446 0
M  V30 1115 C 180.579 -5.62629 5.96531 0
M  V30 1116 O 180.969 -6.87667 5.41053 0
M  V30 1117 C 181.459 -4.52537 5.39283 0
M  V30 1118 C 180.749 -4.20027 4.08623 0
M  V30 1119 N 180.799 -2.76189 3.71603 0
M  V30 1120 H 177.96 -4.797 7.24003 0
M  V30 1121 H 177.69 -3.69856 5.84513 0
M  V30 1122 H 178.557 -6.10356 5.41441 0
M  V30 1123 P 182.519 -7.20834 5.23717 0
M  V30 1124 O 182.739 -8.66104 5.38572 0
M  V30 1125 O 183.309 -6.33544 6.1349 0
M  V30 1126 O 182.769 -6.7751 3.72168 0
M  V30 1127 C 181.829 -7.20825 2.7076 0
M  V30 1128 C 182.559 -7.45864 1.40599 0
M  V30 1129 O 182.769 -6.17651 0.734225 0
M  V30 1130 C 183.959 -8.05808 1.51899 0
M  V30 1131 O 184.349 -8.74358 0.335205 0
M  V30 1132 C 184.839 -6.83093 1.70294 0
M  V30 1133 C 184.129 -5.79992 0.836974 0
M  V30 1134 N 184.179 -4.41864 1.38293 0
M  V30 1135 C 184.099 -3.99538 2.69438 0
M  V30 1136 N 184.179 -2.69909 2.84277 0
M  V30 1137 C 184.319 -2.21719 1.5408 0
M  V30 1138 C 184.449 -0.891712 1.06628 0
M  V30 1139 O 184.469 0.161298 1.70137 0
M  V30 1140 N 184.569 -0.856846 -0.334985 0
M  V30 1141 C 184.569 -1.9641 -1.15789 0
M  V30 1142 N 184.699 -1.72708 -2.46522 0
M  V30 1143 N 184.439 -3.21165 -0.713741 0
M  V30 1144 C 184.319 -3.26797 0.639748 0
M  V30 1145 H 181.34 -8.13644 3.0377 0
M  V30 1146 H 181.07 -6.42788 2.55485 0
M  V30 1147 H 181.937 -8.12039 0.792769 0
M  V30 1148 H 184.592 -5.80061 -0.166416 0
M  V30 1149 H 184.871 -6.51287 2.75604 0
M  V30 1150 H 185.863 -7.01734 1.34462 0
M  V30 1151 H 184.029 -8.73674 2.38337 0
M  V30 1152 H 183.98 -4.68207 3.53221 0
M  V30 1153 H 184.662 0.0398818 -0.767965 0
M  V30 1154 H 184.699 -2.50995 -3.13503 0
M  V30 1155 H 184.8 -0.759148 -2.80716 0
M  V30 1156 P 185.899 -8.91 -8.29613e-14 0
M  V30 1157 O 186.119 -10.1726 -0.733694 0
M  V30 1158 O 186.689 -8.73148 1.23936 0
M  V30 1159 O 186.149 -7.66872 -0.971405 0
M  V30 1160 C 185.209 -7.42309 -2.04641 0
M  V30 1161 C 185.939 -6.86059 -3.24661 0
M  V30 1162 O 186.149 -5.42847 -3.03646 0
M  V30 1163 C 187.339 -7.41196 -3.50753 0
M  V30 1164 O 187.729 -7.27073 -4.86816 0
M  V30 1165 C 188.219 -6.5273 -2.63741 0
M  V30 1166 C 187.509 -5.1842 -2.73198 0
M  V30 1167 N 187.559 -4.38762 -1.4784 0
M  V30 1168 H 184.72 -8.36803 -2.32493 0
M  V30 1169 H 184.45 -6.70197 -1.71129 0
M  V30 1170 H 185.317 -7.03551 -4.13168 0
M  V30 1171 P 189.279 -7.20834 -5.23717 0
M  V30 1172 O 189.499 -7.80006 -6.57415 0
M  V30 1173 O 190.069 -7.79416 -4.13051 0
M  V30 1174 O 189.529 -5.63315 -5.29344 0
M  V30 1175 C 188.589 -4.80318 -6.01954 0
M  V30 1176 C 189.319 -3.64202 -6.65911 0
M  V30 1177 O 189.529 -2.60736 -5.64823 0
M  V30 1178 C 190.719 -3.93521 -7.19518 0
M  V30 1179 O 191.109 -3.02071 -8.21205 0
M  V30 1180 C 191.599 -3.73047 -5.97036 0
M  V30 1181 C 190.889 -2.58828 -5.25741 0
M  V30 1182 N 190.939 -2.68068 -3.77503 0
M  V30 1183 C 190.859 -3.80474 -2.99159 0
M  V30 1184 N 190.929 -3.55622 -1.71925 0
M  V30 1185 C 191.079 -2.1832 -1.65733 0
M  V30 1186 C 191.209 -1.28842 -0.572777 0
M  V30 1187 N 191.219 -1.66875 0.70098 0
M  V30 1188 N 191.329 0.016788 -0.859836 0
M  V30 1189 C 191.319 0.398145 -2.13316 0
M  V30 1190 N 191.199 -0.328224 -3.22333 0
M  V30 1191 C 191.079 -1.62992 -2.90383 0
M  V30 1192 H 188.101 -5.40394 -6.8003 0
M  V30 1193 H 187.829 -4.41741 -5.32532 0
M  V30 1194 H 188.697 -3.26371 -7.47889 0
M  V30 1195 H 191.352 -1.64007 -5.56746 0
M  V30 1196 H 191.632 -4.63439 -5.3432 0
M  V30 1197 H 192.623 -3.44776 -6.25925 0
M  V30 1198 H 190.789 -4.96707 -7.57347 0
M  V30 1199 H 190.748 -4.8089 -3.39924 0
M  V30 1200 H 191.129 -2.66547 0.941919 0
M  V30 1201 H 191.318 -0.965341 1.44766 0
M  V30 1202 H 191.426 1.46427 -2.29697 0
M  V30 1203 P 192.659 -2.75334 -8.47391 0
M  V30 1204 O 192.879 -2.44571 -9.90142 0
M  V30 1205 O 193.449 -3.87688 -7.92115 0
M  V30 1206 O 192.909 -1.4459 -7.59357 0
M  V30 1207 C 191.969 -0.347608 -7.69215 0
M  V30 1208 C 192.699 0.96767 -7.52806 0
M  V30 1209 O 192.909 1.21036 -6.1011 0
M  V30 1210 C 194.099 1.04544 -8.13308 0
M  V30 1211 O 194.489 2.38311 -8.41922 0
M  V30 1212 C 194.979 0.491279 -7.02284 0
M  V30 1213 C 194.269 0.996264 -5.77469 0
M  V30 1214 N 194.319 0.0501916 -4.62973 0
M  V30 1215 H 191.48 -0.374722 -8.67691 0
M  V30 1216 H 191.21 -0.443485 -6.90277 0
M  V30 1217 H 192.077 1.75537 -7.96793 0
M  V30 1218 P 196.039 2.75334 -8.47391 0
M  V30 1219 O 196.259 3.84128 -9.44797 0
M  V30 1220 O 196.829 1.51947 -8.68712 0
M  V30 1221 O 196.289 3.29363 -6.99321 0
M  V30 1222 C 195.349 4.24011 -6.4274 0
M  V30 1223 C 196.079 5.20775 -5.52155 0
M  V30 1224 O 196.289 4.56534 -4.22446 0
M  V30 1225 C 197.479 5.62629 -5.96531 0
M  V30 1226 O 197.869 6.87667 -5.41053 0
M  V30 1227 C 198.359 4.52537 -5.39283 0
M  V30 1228 C 197.649 4.20027 -4.08623 0
M  V30 1229 N 197.699 2.76189 -3.71603 0
M  V30 1230 H 194.86 4.797 -7.24003 0
M  V30 1231 H 194.59 3.69856 -5.84513 0
M  V30 1232 H 195.457 6.10356 -5.41441 0
M  V30 1233 P 199.419 7.20834 -5.23717 0
M  V30 1234 O 199.639 8.66104 -5.38572 0
M  V30 1235 O 200.209 6.33544 -6.1349 0
M  V30 1236 O 199.669 6.7751 -3.72168 0
M  V30 1237 C 198.729 7.20825 -2.7076 0
M  V30 1238 C 199.459 7.45864 -1.40599 0
M  V30 1239 O 199.669 6.17651 -0.734225 0
M  V30 1240 C 200.859 8.05808 -1.51899 0
M  V30 1241 O 201.249 8.74358 -0.335205 0
M  V30 1242 C 201.739 6.83093 -1.70294 0
M  V30 1243 C 201.029 5.79992 -0.836974 0
M  V30 1244 N 201.079 4.41864 -1.38293 0
M  V30 1245 H 198.24 8.13644 -3.0377 0
M  V30 1246 H 197.97 6.42788 -2.55485 0
M  V30 1247 H 198.837 8.12039 -0.792769 0
M  V30 1248 P 202.799 8.91 2.40144e-13 0
M  V30 1249 O 203.019 10.1726 0.733694 0
M  V30 1250 O 203.589 8.73148 -1.23936 0
M  V30 1251 O 203.049 7.66872 0.971405 0
M  V30 1252 C 202.109 7.42309 2.04641 0
M  V30 1253 C 202.839 6.86059 3.24661 0
M  V30 1254 O 203.049 5.42847 3.03646 0
M  V30 1255 C 204.239 7.41196 3.50753 0
M  V30 1256 O 204.629 7.27073 4.86816 0
M  V30 1257 C 205.119 6.5273 2.63741 0
M  V30 1258 C 204.409 5.1842 2.73198 0
M  V30 1259 N 204.459 4.38762 1.4784 0
M  V30 1260 H 201.62 8.36803 2.32493 0
M  V30 1261 H 201.35 6.70197 1.71129 0
M  V30 1262 H 202.217 7.03551 4.13168 0
M  V30 1263 P 206.179 7.20834 5.23717 0
M  V30 1264 O 206.399 7.79853 6.57286 0
M  V30 1265 O 206.969 7.79239 4.12957 0
M  V30 1266 O 206.429 5.63315 5.29344 0
M  V30 1267 C 205.489 4.80255 6.01876 0
M  V30 1268 C 206.219 3.64202 6.65911 0
M  V30 1269 O 206.429 2.60694 5.64732 0
M  V30 1270 C 207.619 3.93473 7.1943 0
M  V30 1271 O 208.009 3.02071 8.21205 0
M  V30 1272 C 208.499 3.73047 5.97036 0
M  V30 1273 C 207.789 2.58828 5.25741 0
M  V30 1274 N 207.839 2.68068 3.77503 0
M  V30 1275 H 205 5.40332 6.79951 0
M  V30 1276 H 204.73 4.41613 5.32378 0
M  V30 1277 H 205.597 3.26331 7.47797 0
M  V30 1278 P 209.559 2.75334 8.47391 0
M  V30 1279 O 209.779 2.44571 9.90142 0
M  V30 1280 O 210.349 3.87688 7.92115 0
M  V30 1281 O 209.809 1.4459 7.59357 0
M  V30 1282 C 208.869 0.347608 7.69215 0
M  V30 1283 C 209.599 -0.96767 7.52806 0
M  V30 1284 O 209.809 -1.21036 6.1011 0
M  V30 1285 C 210.999 -1.04544 8.13308 0
M  V30 1286 O 211.389 -2.38311 8.41922 0
M  V30 1287 C 211.879 -0.491279 7.02284 0
M  V30 1288 C 211.169 -0.996264 5.77469 0
M  V30 1289 N 211.219 -0.0501916 4.62973 0
M  V30 1290 H 208.38 0.374722 8.67691 0
M  V30 1291 H 208.11 0.443485 6.90277 0
M  V30 1292 H 208.977 -1.75537 7.96793 0
M  V30 1293 P 212.939 -2.75334 8.47391 0
M  V30 1294 O 213.159 -3.84128 9.44797 0
M  V30 1295 O 213.729 -1.51947 8.68712 0
M  V30 1296 O 213.189 -3.29363 6.99321 0
M  V30 1297 C 212.249 -4.24011 6.4274 0
M  V30 1298 C 212.979 -5.20775 5.52155 0
M  V30 1299 O 213.189 -4.56534 4.22446 0
M  V30 1300 C 214.379 -5.62629 5.96531 0
M  V30 1301 O 214.769 -6.87667 5.41053 0
M  V30 1302 C 215.259 -4.52537 5.39283 0
M  V30 1303 C 214.549 -4.20027 4.08623 0
M  V30 1304 N 214.599 -2.76189 3.71603 0
M  V30 1305 H 211.76 -4.797 7.24003 0
M  V30 1306 H 211.49 -3.69856 5.84513 0
M  V30 1307 H 212.357 -6.10356 5.41441 0
M  V30 1308 P 216.319 -7.20834 5.23717 0
M  V30 1309 O 216.539 -8.66104 5.38572 0
M  V30 1310 O 217.109 -6.33544 6.1349 0
M  V30 1311 O 216.569 -6.7751 3.72168 0
M  V30 1312 C 215.629 -7.20825 2.7076 0
M  V30 1313 C 216.359 -7.45864 1.40599 0
M  V30 1314 O 216.569 -6.17651 0.734225 0
M  V30 1315 C 217.759 -8.05808 1.51899 0
M  V30 1316 O 218.149 -8.74358 0.335205 0
M  V30 1317 C 218.639 -6.83093 1.70294 0
M  V30 1318 C 217.929 -5.79992 0.836974 0
M  V30 1319 N 217.979 -4.41864 1.38293 0
M  V30 1320 H 215.14 -8.13644 3.0377 0
M  V30 1321 H 214.87 -6.42788 2.55485 0
M  V30 1322 H 215.737 -8.12039 0.792769 0
M  V30 1323 P 219.699 -8.91 -3.97326e-13 0
M  V30 1324 O 219.919 -10.1726 -0.733694 0
M  V30 1325 O 220.489 -8.73148 1.23936 0
M  V30 1326 O 219.949 -7.66872 -0.971405 0
M  V30 1327 C 219.009 -7.42309 -2.04641 0
M  V30 1328 C 219.739 -6.86059 -3.24661 0
M  V30 1329 O 219.949 -5.42847 -3.03646 0
M  V30 1330 C 221.139 -7.41196 -3.50753 0
M  V30 1331 O 221.529 -7.27073 -4.86816 0
M  V30 1332 C 222.019 -6.5273 -2.63741 0
M  V30 1333 C 221.309 -5.1842 -2.73198 0
M  V30 1334 N 221.359 -4.38762 -1.4784 0
M  V30 1335 H 218.52 -8.36803 -2.32493 0
M  V30 1336 H 218.25 -6.70197 -1.71129 0
M  V30 1337 H 219.117 -7.03551 -4.13168 0
M  V30 1338 P 223.079 -7.20834 -5.23717 0
M  V30 1339 O 223.299 -7.79853 -6.57286 0
M  V30 1340 O 223.869 -7.79239 -4.12957 0
M  V30 1341 O 223.329 -5.63315 -5.29344 0
M  V30 1342 C 222.389 -4.80255 -6.01876 0
M  V30 1343 C 223.119 -3.64202 -6.65911 0
M  V30 1344 O 223.329 -2.60694 -5.64732 0
M  V30 1345 C 224.519 -3.93473 -7.1943 0
M  V30 1346 O 224.909 -3.02071 -8.21205 0
M  V30 1347 C 225.399 -3.73047 -5.97036 0
M  V30 1348 C 224.689 -2.58828 -5.25741 0
M  V30 1349 N 224.739 -2.68068 -3.77503 0
M  V30 1350 H 221.9 -5.40332 -6.79951 0
M  V30 1351 H 221.63 -4.41613 -5.32378 0
M  V30 1352 H 222.497 -3.26331 -7.47797 0
M  V30 1353 P 226.459 -2.75334 -8.47391 0
M  V30 1354 O 226.679 -2.44571 -9.90142 0
M  V30 1355 O 227.249 -3.87688 -7.92115 0
M  V30 1356 O 226.709 -1.4459 -7.59357 0
M  V30 1357 C 225.769 -0.347608 -7.69215 0
M  V30 1358 C 226.499 0.96767 -7.52806 0
M  V30 1359 O 226.709 1.21036 -6.1011 0
M  V30 1360 C 227.899 1.04544 -8.13308 0
M  V30 1361 O 228.289 2.38311 -8.41922 0
M  V30 1362 C 228.779 0.491279 -7.02284 0
M  V30 1363 C 228.069 0.996264 -5.77469 0
M  V30 1364 N 228.119 0.0501916 -4.62973 0
M  V30 1365 H 225.28 -0.374722 -8.67691 0
M  V30 1366 H 225.01 -0.443485 -6.90277 0
M  V30 1367 H 225.877 1.75537 -7.96793 0
M  V30 1368 P 229.839 2.75334 -8.47391 0
M  V30 1369 O 230.059 3.84128 -9.44797 0
M  V30 1370 O 230.629 1.51947 -8.68712 0
M  V30 1371 O 230.089 3.29363 -6.99321 0
M  V30 1372 C 229.149 4.24011 -6.4274 0
M  V30 1373 C 229.879 5.20775 -5.52155 0
M  V30 1374 O 230.089 4.56534 -4.22446 0
M  V30 1375 C 231.279 5.62629 -5.96531 0
M  V30 1376 O 231.669 6.87667 -5.41053 0
M  V30 1377 C 232.159 4.52537 -5.39283 0
M  V30 1378 C 231.449 4.20027 -4.08623 0
M  V30 1379 N 231.499 2.76189 -3.71603 0
M  V30 1380 H 228.66 4.797 -7.24003 0
M  V30 1381 H 228.39 3.69856 -5.84513 0
M  V30 1382 H 229.257 6.10356 -5.41441 0
M  V30 1383 P 233.219 7.20834 -5.23717 0
M  V30 1384 O 233.439 8.66274 -5.38678 0
M  V30 1385 O 234.009 6.33687 -6.13629 0
M  V30 1386 O 233.469 6.7751 -3.72168 0
M  V30 1387 C 232.529 7.20919 -2.70795 0
M  V30 1388 C 233.259 7.45864 -1.40599 0
M  V30 1389 O 233.469 6.17751 -0.734343 0
M  V30 1390 C 234.659 8.05906 -1.51917 0
M  V30 1391 O 235.049 8.74358 -0.335205 0
M  V30 1392 C 235.539 6.83093 -1.70294 0
M  V30 1393 C 234.829 5.79992 -0.836974 0
M  V30 1394 N 234.879 4.41864 -1.38293 0
M  V30 1395 C 234.799 4.02089 -2.69407 0
M  V30 1396 N 234.869 2.73403 -2.85089 0
M  V30 1397 C 235.019 2.25086 -1.5642 0
M  V30 1398 C 235.149 0.942887 -1.04836 0
M  V30 1399 N 235.159 -0.150999 -1.80369 0
M  V30 1400 N 235.269 0.812565 0.28167 0
M  V30 1401 C 235.259 1.90572 1.03784 0
M  V30 1402 N 235.139 3.167 0.683905 0
M  V30 1403 C 235.019 3.26538 -0.652815 0
M  V30 1404 H 232.041 8.13738 -3.03804 0
M  V30 1405 H 231.769 6.42974 -2.55559 0
M  V30 1406 H 232.637 8.12139 -0.792866 0
M  V30 1407 H 235.292 5.80178 0.160643 0
M  V30 1408 H 235.572 6.51379 -2.75643 0
M  V30 1409 H 236.563 7.01832 -1.3448 0
M  V30 1410 H 234.729 8.73771 -2.38364 0
M  V30 1411 H 234.688 4.7189 -3.52311 0
M  V30 1412 H 235.069 -0.0721434 -2.82608 0
M  V30 1413 H 235.258 -1.0785 -1.36544 0
M  V30 1414 H 235.366 1.73207 2.10241 0
M  V30 1415 P 236.599 8.91 5.54508e-13 0
M  V30 1416 O 236.819 10.1726 0.733694 0
M  V30 1417 O 237.389 8.73148 -1.23936 0
M  V30 1418 O 236.849 7.66872 0.971405 0
M  V30 1419 C 235.909 7.42309 2.04641 0
M  V30 1420 C 236.639 6.86059 3.24661 0
M  V30 1421 O 236.849 5.42847 3.03646 0
M  V30 1422 C 238.039 7.41196 3.50753 0
M  V30 1423 O 238.429 7.27073 4.86816 0
M  V30 1424 C 238.919 6.5273 2.63741 0
M  V30 1425 C 238.209 5.1842 2.73198 0
M  V30 1426 N 238.259 4.38762 1.4784 0
M  V30 1427 H 235.42 8.36803 2.32493 0
M  V30 1428 H 235.15 6.70197 1.71129 0
M  V30 1429 H 236.017 7.03551 4.13168 0
M  V30 1430 P 239.979 7.20834 5.23717 0
M  V30 1431 O 240.199 7.79853 6.57286 0
M  V30 1432 O 240.769 7.79239 4.12957 0
M  V30 1433 O 240.229 5.63315 5.29344 0
M  V30 1434 C 239.289 4.80255 6.01876 0
M  V30 1435 C 240.019 3.64202 6.65911 0
M  V30 1436 O 240.229 2.60694 5.64732 0
M  V30 1437 C 241.419 3.93473 7.1943 0
M  V30 1438 O 241.809 3.02071 8.21205 0
M  V30 1439 C 242.299 3.73047 5.97036 0
M  V30 1440 C 241.589 2.58828 5.25741 0
M  V30 1441 N 241.639 2.68068 3.77503 0
M  V30 1442 H 238.8 5.40332 6.79951 0
M  V30 1443 H 238.53 4.41613 5.32378 0
M  V30 1444 H 239.397 3.26331 7.47797 0
M  V30 1445 P 243.359 2.75334 8.47391 0
M  V30 1446 O 243.579 2.44571 9.90142 0
M  V30 1447 O 244.149 3.87688 7.92115 0
M  V30 1448 O 243.609 1.4459 7.59357 0
M  V30 1449 C 242.669 0.347608 7.69215 0
M  V30 1450 C 243.399 -0.96767 7.52806 0
M  V30 1451 O 243.609 -1.21036 6.1011 0
M  V30 1452 C 244.799 -1.04544 8.13308 0
M  V30 1453 O 245.189 -2.38311 8.41922 0
M  V30 1454 C 245.679 -0.491279 7.02284 0
M  V30 1455 C 244.969 -0.996264 5.77469 0
M  V30 1456 N 245.019 -0.0501916 4.62973 0
M  V30 1457 H 242.18 0.374722 8.67691 0
M  V30 1458 H 241.91 0.443485 6.90277 0
M  V30 1459 H 242.777 -1.75537 7.96793 0
M  V30 1460 P 246.739 -2.75334 8.47391 0
M  V30 1461 O 246.959 -3.84128 9.44797 0
M  V30 1462 O 247.529 -1.51947 8.68712 0
M  V30 1463 O 246.989 -3.29363 6.99321 0
M  V30 1464 C 246.049 -4.24011 6.4274 0
M  V30 1465 C 246.779 -5.20775 5.52155 0
M  V30 1466 O 246.989 -4.56534 4.22446 0
M  V30 1467 C 248.179 -5.62629 5.96531 0
M  V30 1468 O 248.569 -6.87667 5.41053 0
M  V30 1469 C 249.059 -4.52537 5.39283 0
M  V30 1470 C 248.349 -4.20027 4.08623 0
M  V30 1471 N 248.399 -2.76189 3.71603 0
M  V30 1472 H 245.56 -4.797 7.24003 0
M  V30 1473 H 245.29 -3.69856 5.84513 0
M  V30 1474 H 246.157 -6.10356 5.41441 0
M  V30 1475 P 250.119 -7.20834 5.23717 0
M  V30 1476 O 250.339 -8.66104 5.38572 0
M  V30 1477 O 250.909 -6.33544 6.1349 0
M  V30 1478 O 250.369 -6.7751 3.72168 0
M  V30 1479 C 249.429 -7.20825 2.7076 0
M  V30 1480 C 250.159 -7.45864 1.40599 0
M  V30 1481 O 250.369 -6.17651 0.734225 0
M  V30 1482 C 251.559 -8.05808 1.51899 0
M  V30 1483 O 251.949 -8.74358 0.335205 0
M  V30 1484 C 252.439 -6.83093 1.70294 0
M  V30 1485 C 251.729 -5.79992 0.836974 0
M  V30 1486 N 251.779 -4.41864 1.38293 0
M  V30 1487 C 251.699 -3.99538 2.69438 0
M  V30 1488 N 251.779 -2.69909 2.84277 0
M  V30 1489 C 251.919 -2.21719 1.5408 0
M  V30 1490 C 252.049 -0.891712 1.06628 0
M  V30 1491 N 252.169 -0.856846 -0.334985 0
M  V30 1492 C 252.169 -1.9641 -1.15789 0
M  V30 1493 N 252.299 -1.72708 -2.46522 0
M  V30 1494 N 252.039 -3.21165 -0.713741 0
M  V30 1495 C 251.919 -3.26797 0.639748 0
M  V30 1496 H 248.94 -8.13644 3.0377 0
M  V30 1497 H 248.67 -6.42788 2.55485 0
M  V30 1498 H 249.537 -8.12039 0.792769 0
M  V30 1499 P 253.498 -8.91 -7.1169e-13 0
M  V30 1500 O 253.718 -10.1726 -0.733694 0
M  V30 1501 O 254.288 -8.73148 1.23936 0
M  V30 1502 O 253.748 -7.66872 -0.971405 0
M  V30 1503 C 252.808 -7.42309 -2.04641 0
M  V30 1504 C 253.538 -6.86059 -3.24661 0
M  V30 1505 O 253.748 -5.42847 -3.03646 0
M  V30 1506 C 254.938 -7.41196 -3.50753 0
M  V30 1507 O 255.328 -7.27073 -4.86816 0
M  V30 1508 C 255.818 -6.5273 -2.63741 0
M  V30 1509 C 255.108 -5.1842 -2.73198 0
M  V30 1510 N 255.158 -4.38762 -1.4784 0
M  V30 1511 H 252.319 -8.36803 -2.32493 0
M  V30 1512 H 252.049 -6.70197 -1.71129 0
M  V30 1513 H 252.916 -7.03551 -4.13168 0
M  V30 1514 P 256.878 -7.20834 -5.23717 0
M  V30 1515 O 257.098 -7.7993 -6.57351 0
M  V30 1516 O 257.668 -7.79328 -4.13004 0
M  V30 1517 O 257.128 -5.63315 -5.29344 0
M  V30 1518 C 256.188 -4.80193 -6.01798 0
M  V30 1519 C 256.918 -3.64202 -6.65911 0
M  V30 1520 O 257.128 -2.60694 -5.64732 0
M  V30 1521 C 258.318 -3.93473 -7.1943 0
M  V30 1522 O 258.708 -3.02071 -8.21205 0
M  V30 1523 C 259.198 -3.73047 -5.97036 0
M  V30 1524 C 258.488 -2.58828 -5.25741 0
M  V30 1525 N 258.538 -2.6801 -3.77422 0
M  V30 1526 C 258.688 -1.50443 -3.07133 0
M  V30 1527 O 258.778 -0.419406 -3.61576 0
M  V30 1528 N 258.728 -1.6403 -1.69677 0
M  V30 1529 C 258.638 -2.81206 -0.986255 0
M  V30 1530 O 258.688 -2.80892 0.249754 0
M  V30 1531 C 258.488 -3.99158 -1.80325 0
M  V30 1532 C 258.378 -5.29309 -1.06921 0
M  V30 1533 C 258.438 -3.89779 -3.1476 0
M  V30 1534 H 255.698 -5.40332 -6.79951 0
M  V30 1535 H 255.429 -4.41549 -5.32301 0
M  V30 1536 H 256.296 -3.26331 -7.47797 0
M  V30 1537 H 258.951 -1.6395 -5.56554 0
M  V30 1538 H 259.23 -4.63439 -5.3432 0
M  V30 1539 H 260.222 -3.44728 -6.25838 0
M  V30 1540 H 258.388 -4.96652 -7.57263 0
M  V30 1541 H 258.317 -4.80159 -3.74441 0
M  V30 1542 H 259.347 -5.81459 -1.09608 0
M  V30 1543 H 257.61 -5.9187 -1.54487 0
M  V30 1544 H 258.098 -5.10095 -0.0220288 0
M  V30 1545 H 258.834 -0.798962 -1.16664 0
M  V30 1546 P 260.258 -2.75334 -8.47391 0
M  V30 1547 O 260.478 -2.44619 -9.90336 0
M  V30 1548 O 261.048 -3.87776 -7.92294 0
M  V30 1549 O 260.508 -1.4459 -7.59357 0
M  V30 1550 C 259.568 -0.347653 -7.69315 0
M  V30 1551 C 260.298 0.96767 -7.52806 0
M  V30 1552 O 260.508 1.21055 -6.10208 0
M  V30 1553 C 261.698 1.04557 -8.13408 0
M  V30 1554 O 262.088 2.38311 -8.41922 0
M  V30 1555 C 262.578 0.491279 -7.02284 0
M  V30 1556 C 261.868 0.996264 -5.77469 0
M  V30 1557 N 261.918 0.0501916 -4.62973 0
M  V30 1558 H 259.08 -0.374765 -8.67791 0
M  V30 1559 H 258.808 -0.443613 -6.90476 0
M  V30 1560 H 259.676 1.75559 -7.96891 0
M  V30 1561 H 262.331 1.94563 -5.46818 0
M  V30 1562 H 262.611 -0.608651 -7.04676 0
M  V30 1563 H 263.602 0.889796 -7.09039 0
M  V30 1564 H 261.768 0.433128 -9.04664 0
M  V30 1565 P 263.638 2.75334 -8.47391 0
M  V30 1566 O 263.858 3.84128 -9.44797 0
M  V30 1567 O 264.428 1.51947 -8.68712 0
M  V30 1568 O 263.888 3.29363 -6.99321 0
M  V30 1569 C 262.948 4.24011 -6.4274 0
M  V30 1570 C 263.678 5.20775 -5.52155 0
M  V30 1571 O 263.888 4.56534 -4.22446 0
M  V30 1572 C 265.078 5.62629 -5.96531 0
M  V30 1573 O 265.468 6.87667 -5.41053 0
M  V30 1574 C 265.958 4.52537 -5.39283 0
M  V30 1575 C 265.248 4.20027 -4.08623 0
M  V30 1576 N 265.298 2.76189 -3.71603 0
M  V30 1577 C 265.218 1.64862 -4.52822 0
M  V30 1578 N 265.298 0.512671 -3.88633 0
M  V30 1579 C 265.438 0.888083 -2.54977 0
M  V30 1580 C 265.568 0.094668 -1.38677 0
M  V30 1581 O 265.588 -1.13053 -1.28163 0
M  V30 1582 N 265.688 0.890102 -0.232633 0
M  V30 1583 C 265.688 2.26958 -0.21772 0
M  V30 1584 N 265.818 2.84626 0.97925 0
M  V30 1585 N 265.558 3.0178 -1.31033 0
M  V30 1586 C 265.438 2.26781 -2.43843 0
M  V30 1587 H 262.459 4.797 -7.24003 0
M  V30 1588 H 262.189 3.69856 -5.84513 0
M  V30 1589 H 263.056 6.10356 -5.41441 0
M  V30 1590 H 265.711 4.79061 -3.27488 0
M  V30 1591 H 265.99 3.64906 -6.05785 0
M  V30 1592 H 266.982 4.8868 -5.2125 0
M  V30 1593 H 265.148 5.66726 -7.06352 0
M  V30 1594 H 265.099 1.71169 -5.60966 0
M  V30 1595 H 265.781 0.419134 0.644739 0
M  V30 1596 H 265.818 3.87332 1.06098 0
M  V30 1597 H 265.919 2.26417 1.82483 0
M  V30 1598 P 267.018 7.20834 -5.23717 0
M  V30 1599 O 267.238 8.66274 -5.38678 0
M  V30 1600 O 267.808 6.33687 -6.13629 0
M  V30 1601 O 267.268 6.7751 -3.72168 0
M  V30 1602 C 266.328 7.20919 -2.70795 0
M  V30 1603 C 267.058 7.45864 -1.40599 0
M  V30 1604 O 267.268 6.17751 -0.734343 0
M  V30 1605 C 268.458 8.05906 -1.51917 0
M  V30 1606 O 268.848 8.74358 -0.335205 0
M  V30 1607 C 269.338 6.83093 -1.70294 0
M  V30 1608 C 268.628 5.79992 -0.836974 0
M  V30 1609 N 268.678 4.41864 -1.38293 0
M  V30 1610 H 265.84 8.13738 -3.03804 0
M  V30 1611 H 265.568 6.42974 -2.55559 0
M  V30 1612 H 266.436 8.12139 -0.792866 0
M  V30 1613 H 269.091 5.80178 0.160643 0
M  V30 1614 H 269.371 6.51379 -2.75643 0
M  V30 1615 H 270.362 7.01832 -1.3448 0
M  V30 1616 H 268.528 8.73771 -2.38364 0
M  V30 1617 P 270.398 8.91 8.68872e-13 0
M  V30 1618 O 270.618 10.1726 0.733694 0
M  V30 1619 O 271.188 8.73148 -1.23936 0
M  V30 1620 O 270.648 7.66872 0.971405 0
M  V30 1621 C 269.708 7.42309 2.04641 0
M  V30 1622 C 270.438 6.86059 3.24661 0
M  V30 1623 O 270.648 5.42847 3.03646 0
M  V30 1624 C 271.838 7.41196 3.50753 0
M  V30 1625 O 272.228 7.27073 4.86816 0
M  V30 1626 C 272.718 6.5273 2.63741 0
M  V30 1627 C 272.008 5.1842 2.73198 0
M  V30 1628 N 272.058 4.38762 1.4784 0
M  V30 1629 C 271.978 4.81605 0.168631 0
M  V30 1630 N 272.058 3.85454 -0.713363 0
M  V30 1631 C 272.198 2.6994 0.0566958 0
M  V30 1632 C 272.328 1.34815 -0.338502 0
M  V30 1633 N 272.448 0.496304 0.77465 0
M  V30 1634 C 272.448 0.908403 2.09122 0
M  V30 1635 N 272.578 -0.0517805 3.00955 0
M  V30 1636 N 272.318 2.17875 2.46519 0
M  V30 1637 C 272.198 3.01988 1.4033 0
M  V30 1638 H 269.219 8.36803 2.32493 0
M  V30 1639 H 268.949 6.70197 1.71129 0
M  V30 1640 H 269.816 7.03551 4.13168 0
M  V30 1641 P 273.778 7.20834 5.23717 0
M  V30 1642 O 273.998 7.7993 6.57351 0
M  V30 1643 O 274.568 7.79328 4.13004 0
M  V30 1644 O 274.028 5.63315 5.29344 0
M  V30 1645 C 273.088 4.80193 6.01798 0
M  V30 1646 C 273.818 3.64202 6.65911 0
M  V30 1647 O 274.028 2.60694 5.64732 0
M  V30 1648 C 275.218 3.93473 7.1943 0
M  V30 1649 O 275.608 3.02071 8.21205 0
M  V30 1650 C 276.098 3.73047 5.97036 0
M  V30 1651 C 275.388 2.58828 5.25741 0
M  V30 1652 N 275.438 2.6801 3.77422 0
M  V30 1653 C 275.588 1.50443 3.07133 0
M  V30 1654 O 275.678 0.419406 3.61576 0
M  V30 1655 N 275.628 1.6403 1.69677 0
M  V30 1656 C 275.538 2.81206 0.986255 0
M  V30 1657 C 275.388 3.99158 1.80325 0
M  V30 1658 C 275.338 3.89779 3.1476 0
M  V30 1659 H 272.598 5.40332 6.79951 0
M  V30 1660 H 272.329 4.41549 5.32301 0
M  V30 1661 H 273.196 3.26331 7.47797 0
M  V30 1662 H 275.851 1.6395 5.56554 0
M  V30 1663 H 276.13 4.63439 5.3432 0
M  V30 1664 H 277.122 3.44728 6.25838 0
M  V30 1665 H 275.288 4.96652 7.57263 0
M  V30 1666 H 275.217 4.80159 3.74441 0
M  V30 1667 P 277.158 2.75334 8.47391 0
M  V30 1668 O 277.378 2.44571 9.90142 0
M  V30 1669 O 277.948 3.87688 7.92115 0
M  V30 1670 O 277.408 1.4459 7.59357 0
M  V30 1671 C 276.468 0.347608 7.69215 0
M  V30 1672 C 277.198 -0.96767 7.52806 0
M  V30 1673 O 277.408 -1.21036 6.1011 0
M  V30 1674 C 278.598 -1.04544 8.13308 0
M  V30 1675 O 278.988 -2.38311 8.41922 0
M  V30 1676 C 279.478 -0.491279 7.02284 0
M  V30 1677 C 278.768 -0.996264 5.77469 0
M  V30 1678 N 278.818 -0.0501916 4.62973 0
M  V30 1679 H 275.979 0.374722 8.67691 0
M  V30 1680 H 275.709 0.443485 6.90277 0
M  V30 1681 H 276.576 -1.75537 7.96793 0
M  V30 1682 P 280.538 -2.75334 8.47391 0
M  V30 1683 O 280.758 -3.84128 9.44797 0
M  V30 1684 O 281.328 -1.51947 8.68712 0
M  V30 1685 O 280.788 -3.29363 6.99321 0
M  V30 1686 C 279.848 -4.24011 6.4274 0
M  V30 1687 C 280.578 -5.20775 5.52155 0
M  V30 1688 O 280.788 -4.56534 4.22446 0
M  V30 1689 C 281.978 -5.62629 5.96531 0
M  V30 1690 O 282.368 -6.87667 5.41053 0
M  V30 1691 C 282.858 -4.52537 5.39283 0
M  V30 1692 C 282.148 -4.20027 4.08623 0
M  V30 1693 N 282.198 -2.76189 3.71603 0
M  V30 1694 H 279.359 -4.797 7.24003 0
M  V30 1695 H 279.089 -3.69856 5.84513 0
M  V30 1696 H 279.956 -6.10356 5.41441 0
M  V30 1697 P 283.918 -7.20834 5.23717 0
M  V30 1698 O 284.138 -8.66104 5.38572 0
M  V30 1699 O 284.708 -6.33544 6.1349 0
M  V30 1700 O 284.168 -6.7751 3.72168 0
M  V30 1701 C 283.228 -7.20825 2.7076 0
M  V30 1702 C 283.958 -7.45864 1.40599 0
M  V30 1703 O 284.168 -6.17651 0.734225 0
M  V30 1704 C 285.358 -8.05808 1.51899 0
M  V30 1705 O 285.748 -8.74358 0.335205 0
M  V30 1706 C 286.238 -6.83093 1.70294 0
M  V30 1707 C 285.528 -5.79992 0.836974 0
M  V30 1708 N 285.578 -4.41864 1.38293 0
M  V30 1709 H 282.739 -8.13644 3.0377 0
M  V30 1710 H 282.469 -6.42788 2.55485 0
M  V30 1711 H 283.336 -8.12039 0.792769 0
M  V30 1712 P 287.298 -8.91 -1.02605e-12 0
M  V30 1713 O 287.518 -10.1726 -0.733694 0
M  V30 1714 O 288.088 -8.73148 1.23936 0
M  V30 1715 O 287.548 -7.66872 -0.971405 0
M  V30 1716 C 286.608 -7.42309 -2.04641 0
M  V30 1717 C 287.338 -6.86059 -3.24661 0
M  V30 1718 O 287.548 -5.42847 -3.03646 0
M  V30 1719 C 288.738 -7.41196 -3.50753 0
M  V30 1720 O 289.128 -7.27073 -4.86816 0
M  V30 1721 C 289.618 -6.5273 -2.63741 0
M  V30 1722 C 288.908 -5.1842 -2.73198 0
M  V30 1723 N 288.958 -4.38762 -1.4784 0
M  V30 1724 H 286.119 -8.36803 -2.32493 0
M  V30 1725 H 285.849 -6.70197 -1.71129 0
M  V30 1726 H 286.716 -7.03551 -4.13168 0
M  V30 1727 P 290.678 -7.20834 -5.23717 0
M  V30 1728 O 290.898 -7.79853 -6.57286 0
M  V30 1729 O 291.468 -7.79239 -4.12957 0
M  V30 1730 O 290.928 -5.63315 -5.29344 0
M  V30 1731 C 289.988 -4.80255 -6.01876 0
M  V30 1732 C 290.718 -3.64202 -6.65911 0
M  V30 1733 O 290.928 -2.60694 -5.64732 0
M  V30 1734 C 292.118 -3.93473 -7.1943 0
M  V30 1735 O 292.508 -3.02071 -8.21205 0
M  V30 1736 C 292.998 -3.73047 -5.97036 0
M  V30 1737 C 292.288 -2.58828 -5.25741 0
M  V30 1738 N 292.338 -2.68068 -3.77503 0
M  V30 1739 H 289.499 -5.40332 -6.79951 0
M  V30 1740 H 289.229 -4.41613 -5.32378 0
M  V30 1741 H 290.096 -3.26331 -7.47797 0
M  V30 1742 P 294.058 -2.75334 -8.47391 0
M  V30 1743 O 294.278 -2.44571 -9.90142 0
M  V30 1744 O 294.848 -3.87688 -7.92115 0
M  V30 1745 O 294.308 -1.4459 -7.59357 0
M  V30 1746 C 293.368 -0.347608 -7.69215 0
M  V30 1747 C 294.098 0.96767 -7.52806 0
M  V30 1748 O 294.308 1.21036 -6.1011 0
M  V30 1749 C 295.498 1.04544 -8.13308 0
M  V30 1750 O 295.888 2.38311 -8.41922 0
M  V30 1751 C 296.378 0.491279 -7.02284 0
M  V30 1752 C 295.668 0.996264 -5.77469 0
M  V30 1753 N 295.718 0.0501916 -4.62973 0
M  V30 1754 H 292.879 -0.374722 -8.67691 0
M  V30 1755 H 292.609 -0.443485 -6.90277 0
M  V30 1756 H 293.476 1.75537 -7.96793 0
M  V30 1757 P 297.438 2.75334 -8.47391 0
M  V30 1758 O 297.658 3.84128 -9.44797 0
M  V30 1759 O 298.228 1.51947 -8.68712 0
M  V30 1760 O 297.688 3.29363 -6.99321 0
M  V30 1761 C 296.748 4.24011 -6.4274 0
M  V30 1762 C 297.478 5.20775 -5.52155 0
M  V30 1763 O 297.688 4.56534 -4.22446 0
M  V30 1764 C 298.878 5.62629 -5.96531 0
M  V30 1765 O 299.268 6.87667 -5.41053 0
M  V30 1766 C 299.758 4.52537 -5.39283 0
M  V30 1767 C 299.048 4.20027 -4.08623 0
M  V30 1768 N 299.098 2.76189 -3.71603 0
M  V30 1769 H 296.259 4.797 -7.24003 0
M  V30 1770 H 295.989 3.69856 -5.84513 0
M  V30 1771 H 296.856 6.10356 -5.41441 0
M  V30 1772 P 300.818 7.20834 -5.23717 0
M  V30 1773 O 301.038 8.66104 -5.38572 0
M  V30 1774 O 301.608 6.33544 -6.1349 0
M  V30 1775 O 301.068 6.7751 -3.72168 0
M  V30 1776 C 300.128 7.20825 -2.7076 0
M  V30 1777 C 300.858 7.45864 -1.40599 0
M  V30 1778 O 301.068 6.17651 -0.734225 0
M  V30 1779 C 302.258 8.05808 -1.51899 0
M  V30 1780 O 302.648 8.74358 -0.335205 0
M  V30 1781 C 303.138 6.83093 -1.70294 0
M  V30 1782 C 302.428 5.79992 -0.836974 0
M  V30 1783 N 302.478 4.41864 -1.38293 0
M  V30 1784 H 299.639 8.13644 -3.0377 0
M  V30 1785 H 299.369 6.42788 -2.55485 0
M  V30 1786 H 300.236 8.12039 -0.792769 0
M  V30 1787 P 304.198 8.91 1.18324e-12 0
M  V30 1788 O 304.418 10.1726 0.733694 0
M  V30 1789 O 304.988 8.73148 -1.23936 0
M  V30 1790 O 304.448 7.66872 0.971405 0
M  V30 1791 C 303.508 7.42309 2.04641 0
M  V30 1792 C 304.238 6.86059 3.24661 0
M  V30 1793 O 304.448 5.42847 3.03646 0
M  V30 1794 C 305.638 7.41196 3.50753 0
M  V30 1795 O 306.028 7.27073 4.86816 0
M  V30 1796 C 306.518 6.5273 2.63741 0
M  V30 1797 C 305.808 5.1842 2.73198 0
M  V30 1798 N 305.858 4.38762 1.4784 0
M  V30 1799 H 303.019 8.36803 2.32493 0
M  V30 1800 H 302.749 6.70197 1.71129 0
M  V30 1801 H 303.616 7.03551 4.13168 0
M  V30 1802 P 307.578 7.20834 5.23717 0
M  V30 1803 O 307.798 7.79853 6.57286 0
M  V30 1804 O 308.368 7.79239 4.12957 0
M  V30 1805 O 307.828 5.63315 5.29344 0
M  V30 1806 C 306.888 4.80255 6.01876 0
M  V30 1807 C 307.618 3.64202 6.65911 0
M  V30 1808 O 307.828 2.60694 5.64732 0
M  V30 1809 C 309.018 3.93473 7.1943 0
M  V30 1810 O 309.408 3.02071 8.21205 0
M  V30 1811 C 309.898 3.73047 5.97036 0
M  V30 1812 C 309.188 2.58828 5.25741 0
M  V30 1813 N 309.238 2.68068 3.77503 0
M  V30 1814 H 306.399 5.40332 6.79951 0
M  V30 1815 H 306.129 4.41613 5.32378 0
M  V30 1816 H 306.996 3.26331 7.47797 0
M  V30 1817 P 310.958 2.75334 8.47391 0
M  V30 1818 O 311.178 2.44619 9.90336 0
M  V30 1819 O 311.748 3.87776 7.92294 0
M  V30 1820 O 311.208 1.4459 7.59357 0
M  V30 1821 C 310.268 0.347653 7.69315 0
M  V30 1822 C 310.998 -0.96767 7.52806 0
M  V30 1823 O 311.208 -1.21055 6.10208 0
M  V30 1824 C 312.398 -1.04557 8.13408 0
M  V30 1825 O 312.788 -2.38311 8.41922 0
M  V30 1826 C 313.278 -0.491279 7.02284 0
M  V30 1827 C 312.568 -0.996264 5.77469 0
M  V30 1828 N 312.618 -0.0501916 4.62973 0
M  V30 1829 H 309.78 0.374765 8.67791 0
M  V30 1830 H 309.508 0.443613 6.90476 0
M  V30 1831 H 310.376 -1.75559 7.96891 0
M  V30 1832 H 313.031 -1.94563 5.46818 0
M  V30 1833 H 313.311 0.608651 7.04676 0
M  V30 1834 H 314.302 -0.889796 7.09039 0
M  V30 1835 H 312.468 -0.433128 9.04664 0
M  V30 1836 P 314.338 -2.75334 8.47391 0
M  V30 1837 O 314.558 -3.84128 9.44797 0
M  V30 1838 O 315.128 -1.51947 8.68712 0
M  V30 1839 O 314.588 -3.29363 6.99321 0
M  V30 1840 C 313.648 -4.24011 6.4274 0
M  V30 1841 C 314.378 -5.20775 5.52155 0
M  V30 1842 O 314.588 -4.56534 4.22446 0
M  V30 1843 C 315.778 -5.62629 5.96531 0
M  V30 1844 O 316.168 -6.87667 5.41053 0
M  V30 1845 C 316.658 -4.52537 5.39283 0
M  V30 1846 C 315.948 -4.20027 4.08623 0
M  V30 1847 N 315.998 -2.76189 3.71603 0
M  V30 1848 H 313.159 -4.797 7.24003 0
M  V30 1849 H 312.889 -3.69856 5.84513 0
M  V30 1850 H 313.756 -6.10356 5.41441 0
M  V30 1851 P 317.718 -7.20834 5.23717 0
M  V30 1852 O 317.938 -8.66274 5.38678 0
M  V30 1853 O 318.508 -6.33687 6.13629 0
M  V30 1854 O 317.968 -6.7751 3.72168 0
M  V30 1855 C 317.028 -7.20919 2.70795 0
M  V30 1856 C 317.758 -7.45864 1.40599 0
M  V30 1857 O 317.968 -6.17751 0.734343 0
M  V30 1858 C 319.158 -8.05906 1.51917 0
M  V30 1859 O 319.548 -8.74358 0.335205 0
M  V30 1860 C 320.038 -6.83093 1.70294 0
M  V30 1861 C 319.328 -5.79992 0.836974 0
M  V30 1862 N 319.378 -4.41864 1.38293 0
M  V30 1863 H 316.54 -8.13738 3.03804 0
M  V30 1864 H 316.268 -6.42974 2.55559 0
M  V30 1865 H 317.136 -8.12139 0.792866 0
M  V30 1866 H 319.791 -5.80178 -0.160643 0
M  V30 1867 H 320.071 -6.51379 2.75643 0
M  V30 1868 H 321.062 -7.01832 1.3448 0
M  V30 1869 H 319.228 -8.73771 2.38364 0
M  V30 1870 P 321.098 -8.91 -1.34042e-12 0
M  V30 1871 O 321.318 -10.1726 -0.733694 0
M  V30 1872 O 321.888 -8.73148 1.23936 0
M  V30 1873 O 321.348 -7.66872 -0.971405 0
M  V30 1874 C 320.408 -7.42309 -2.04641 0
M  V30 1875 C 321.138 -6.86059 -3.24661 0
M  V30 1876 O 321.348 -5.42847 -3.03646 0
M  V30 1877 C 322.538 -7.41196 -3.50753 0
M  V30 1878 O 322.928 -7.27073 -4.86816 0
M  V30 1879 C 323.418 -6.5273 -2.63741 0
M  V30 1880 C 322.708 -5.1842 -2.73198 0
M  V30 1881 N 322.758 -4.38762 -1.4784 0
M  V30 1882 H 319.919 -8.36803 -2.32493 0
M  V30 1883 H 319.649 -6.70197 -1.71129 0
M  V30 1884 H 320.516 -7.03551 -4.13168 0
M  V30 1885 P 324.478 -7.20834 -5.23717 0
M  V30 1886 O 324.698 -7.79853 -6.57286 0
M  V30 1887 O 325.268 -7.79239 -4.12957 0
M  V30 1888 O 324.728 -5.63315 -5.29344 0
M  V30 1889 C 323.788 -4.80255 -6.01876 0
M  V30 1890 C 324.518 -3.64202 -6.65911 0
M  V30 1891 O 324.728 -2.60694 -5.64732 0
M  V30 1892 C 325.918 -3.93473 -7.1943 0
M  V30 1893 O 326.308 -3.02071 -8.21205 0
M  V30 1894 C 326.798 -3.73047 -5.97036 0
M  V30 1895 C 326.088 -2.58828 -5.25741 0
M  V30 1896 N 326.138 -2.68068 -3.77503 0
M  V30 1897 H 323.299 -5.40332 -6.79951 0
M  V30 1898 H 323.029 -4.41613 -5.32378 0
M  V30 1899 H 323.896 -3.26331 -7.47797 0
M  V30 1900 P 327.858 -2.75334 -8.47391 0
M  V30 1901 O 328.078 -2.44571 -9.90142 0
M  V30 1902 O 328.648 -3.87688 -7.92115 0
M  V30 1903 O 328.108 -1.4459 -7.59357 0
M  V30 1904 C 327.168 -0.347608 -7.69215 0
M  V30 1905 C 327.898 0.96767 -7.52806 0
M  V30 1906 O 328.108 1.21036 -6.1011 0
M  V30 1907 C 329.298 1.04544 -8.13308 0
M  V30 1908 O 329.688 2.38311 -8.41922 0
M  V30 1909 C 330.178 0.491279 -7.02284 0
M  V30 1910 C 329.468 0.996264 -5.77469 0
M  V30 1911 N 329.518 0.0501916 -4.62973 0
M  V30 1912 H 326.679 -0.374722 -8.67691 0
M  V30 1913 H 326.409 -0.443485 -6.90277 0
M  V30 1914 H 327.276 1.75537 -7.96793 0
M  V30 1915 P 331.238 2.75334 -8.47391 0
M  V30 1916 O 331.458 3.84204 -9.44982 0
M  V30 1917 O 332.028 1.51982 -8.68909 0
M  V30 1918 O 331.488 3.29363 -6.99321 0
M  V30 1919 C 330.548 4.24066 -6.42823 0
M  V30 1920 C 331.278 5.20775 -5.52155 0
M  V30 1921 O 331.488 4.56607 -4.22514 0
M  V30 1922 C 332.678 5.62697 -5.96604 0
M  V30 1923 O 333.068 6.87667 -5.41053 0
M  V30 1924 C 333.558 4.52537 -5.39283 0
M  V30 1925 C 332.848 4.20027 -4.08623 0
M  V30 1926 N 332.898 2.76189 -3.71603 0
M  V30 1927 H 330.06 4.79756 -7.24086 0
M  V30 1928 H 329.788 3.69963 -5.84682 0
M  V30 1929 H 330.656 6.10431 -5.41508 0
M  V30 1930 H 333.311 4.78816 -3.28024 0
M  V30 1931 H 333.591 3.64957 -6.05871 0
M  V30 1932 H 334.582 4.88748 -5.21323 0
M  V30 1933 H 332.748 5.66789 -7.0643 0
M  V30 1934 P 334.618 7.20834 -5.23717 0
M  V30 1935 O 334.838 8.66189 -5.38625 0
M  V30 1936 O 335.408 6.33615 -6.1356 0
M  V30 1937 O 334.868 6.7751 -3.72168 0
M  V30 1938 C 333.928 7.20732 -2.70725 0
M  V30 1939 C 334.658 7.45864 -1.40599 0
M  V30 1940 O 334.868 6.17651 -0.734225 0
M  V30 1941 C 336.058 8.05808 -1.51899 0
M  V30 1942 O 336.448 8.74358 -0.335205 0
M  V30 1943 C 336.938 6.83093 -1.70294 0
M  V30 1944 C 336.228 5.79992 -0.836974 0
M  V30 1945 N 336.278 4.41769 -1.38263 0
M  V30 1946 C 336.428 3.38591 -0.481702 0
M  V30 1947 O 336.518 3.56839 0.718452 0
M  V30 1948 N 336.468 2.1206 -1.03569 0
M  V30 1949 C 336.378 1.80696 -2.36966 0
M  V30 1950 O 336.428 0.630473 -2.74862 0
M  V30 1951 C 336.228 2.94845 -3.23898 0
M  V30 1952 C 336.118 2.65253 -4.70362 0
M  V30 1953 C 336.178 4.19803 -2.73435 0
M  V30 1954 H 333.438 8.13644 -3.0377 0
M  V30 1955 H 333.169 6.42695 -2.55448 0
M  V30 1956 H 334.036 8.12039 -0.792769 0
M  V30 1957 H 336.691 5.79978 0.160587 0
M  V30 1958 H 336.97 6.51379 -2.75643 0
M  V30 1959 H 337.962 7.01734 -1.34462 0
M  V30 1960 H 336.128 8.73674 -2.38337 0
M  V30 1961 H 336.057 5.04492 -3.4095 0
M  V30 1962 H 337.087 2.83924 -5.1913 0
M  V30 1963 H 335.35 3.29824 -5.15163 0
M  V30 1964 H 335.838 1.59723 -4.84449 0
M  V30 1965 H 336.574 1.35644 -0.399345 0
M  V30 1966 P 337.998 8.91 1.4976e-12 0
M  V30 1967 O 338.218 10.1726 0.733694 0
M  V30 1968 O 338.788 8.73148 -1.23936 0
M  V30 1969 O 338.248 7.66872 0.971405 0
M  V30 1970 C 337.308 7.42309 2.04641 0
M  V30 1971 C 338.038 6.86059 3.24661 0
M  V30 1972 O 338.248 5.42847 3.03646 0
M  V30 1973 C 339.438 7.41196 3.50753 0
M  V30 1974 O 339.828 7.27073 4.86816 0
M  V30 1975 C 340.318 6.5273 2.63741 0
M  V30 1976 C 339.608 5.1842 2.73198 0
M  V30 1977 N 339.658 4.38762 1.4784 0
M  V30 1978 C 339.578 4.81605 0.168631 0
M  V30 1979 N 339.658 3.85454 -0.713363 0
M  V30 1980 C 339.798 2.6994 0.0566958 0
M  V30 1981 C 339.928 1.34815 -0.338502 0
M  V30 1982 O 339.948 0.869548 -1.47125 0
M  V30 1983 N 340.048 0.496304 0.77465 0
M  V30 1984 C 340.048 0.908403 2.09122 0
M  V30 1985 N 340.178 -0.0517805 3.00955 0
M  V30 1986 N 339.918 2.17875 2.46519 0
M  V30 1987 C 339.798 3.01988 1.4033 0
M  V30 1988 H 336.819 8.36803 2.32493 0
M  V30 1989 H 336.549 6.70197 1.71129 0
M  V30 1990 H 337.416 7.03551 4.13168 0
M  V30 1991 H 340.071 4.59498 3.54415 0
M  V30 1992 H 340.35 6.88898 1.59848 0
M  V30 1993 H 341.342 6.46749 3.03687 0
M  V30 1994 H 339.508 8.46908 3.20714 0
M  V30 1995 H 339.459 5.86405 -0.105564 0
M  V30 1996 H 340.141 -0.483664 0.597855 0
M  V30 1997 H 340.178 0.187865 4.0116 0
M  V30 1998 H 340.279 -1.03585 2.71726 0
M  V30 1999 P 341.378 7.20834 5.23717 0
M  V30 2000 O 341.598 7.79853 6.57286 0
M  V30 2001 O 342.168 7.79239 4.12957 0
M  V30 2002 O 341.628 5.63315 5.29344 0
M  V30 2003 C 340.688 4.80255 6.01876 0
M  V30 2004 C 341.418 3.64202 6.65911 0
M  V30 2005 O 341.628 2.60694 5.64732 0
M  V30 2006 C 342.818 3.93473 7.1943 0
M  V30 2007 O 343.208 3.02071 8.21205 0
M  V30 2008 C 343.698 3.73047 5.97036 0
M  V30 2009 C 342.988 2.58828 5.25741 0
M  V30 2010 N 343.038 2.68068 3.77503 0
M  V30 2011 H 340.199 5.40332 6.79951 0
M  V30 2012 H 339.929 4.41613 5.32378 0
M  V30 2013 H 340.796 3.26331 7.47797 0
M  V30 2014 P 344.758 2.75334 8.47391 0
M  V30 2015 O 344.978 2.44571 9.90142 0
M  V30 2016 O 345.548 3.87688 7.92115 0
M  V30 2017 O 345.008 1.4459 7.59357 0
M  V30 2018 C 344.068 0.347608 7.69215 0
M  V30 2019 C 344.798 -0.96767 7.52806 0
M  V30 2020 O 345.008 -1.21036 6.1011 0
M  V30 2021 C 346.198 -1.04544 8.13308 0
M  V30 2022 O 346.588 -2.38311 8.41922 0
M  V30 2023 C 347.078 -0.491279 7.02284 0
M  V30 2024 C 346.368 -0.996264 5.77469 0
M  V30 2025 N 346.418 -0.0501916 4.62973 0
M  V30 2026 H 343.579 0.374722 8.67691 0
M  V30 2027 H 343.309 0.443485 6.90277 0
M  V30 2028 H 344.176 -1.75537 7.96793 0
M  V30 2029 P 348.138 -2.75334 8.47391 0
M  V30 2030 O 348.358 -3.84128 9.44797 0
M  V30 2031 O 348.928 -1.51947 8.68712 0
M  V30 2032 O 348.388 -3.29363 6.99321 0
M  V30 2033 C 347.448 -4.24011 6.4274 0
M  V30 2034 C 348.178 -5.20775 5.52155 0
M  V30 2035 O 348.388 -4.56534 4.22446 0
M  V30 2036 C 349.578 -5.62629 5.96531 0
M  V30 2037 O 349.968 -6.87667 5.41053 0
M  V30 2038 C 350.458 -4.52537 5.39283 0
M  V30 2039 C 349.748 -4.20027 4.08623 0
M  V30 2040 N 349.798 -2.76189 3.71603 0
M  V30 2041 H 346.959 -4.797 7.24003 0
M  V30 2042 H 346.689 -3.69856 5.84513 0
M  V30 2043 H 347.556 -6.10356 5.41441 0
M  V30 2044 P 351.518 -7.20834 5.23717 0
M  V30 2045 O 351.738 -8.66104 5.38572 0
M  V30 2046 O 352.308 -6.33544 6.1349 0
M  V30 2047 O 351.768 -6.7751 3.72168 0
M  V30 2048 C 350.828 -7.20825 2.7076 0
M  V30 2049 C 351.558 -7.45864 1.40599 0
M  V30 2050 O 351.768 -6.17651 0.734225 0
M  V30 2051 C 352.958 -8.05808 1.51899 0
M  V30 2052 O 353.348 -8.74358 0.335205 0
M  V30 2053 C 353.838 -6.83093 1.70294 0
M  V30 2054 C 353.128 -5.79992 0.836974 0
M  V30 2055 N 353.178 -4.41864 1.38293 0
M  V30 2056 H 350.339 -8.13644 3.0377 0
M  V30 2057 H 350.069 -6.42788 2.55485 0
M  V30 2058 H 350.936 -8.12039 0.792769 0
M  V30 2059 P 354.898 -8.91 -1.65478e-12 0
M  V30 2060 O 355.118 -10.1726 -0.733694 0
M  V30 2061 O 355.688 -8.73148 1.23936 0
M  V30 2062 O 355.148 -7.66872 -0.971405 0
M  V30 2063 C 354.208 -7.42309 -2.04641 0
M  V30 2064 C 354.938 -6.86059 -3.24661 0
M  V30 2065 O 355.148 -5.42847 -3.03646 0
M  V30 2066 C 356.338 -7.41196 -3.50753 0
M  V30 2067 O 356.728 -7.27073 -4.86816 0
M  V30 2068 C 357.218 -6.5273 -2.63741 0
M  V30 2069 C 356.508 -5.1842 -2.73198 0
M  V30 2070 N 356.558 -4.38762 -1.4784 0
M  V30 2071 H 353.719 -8.36803 -2.32493 0
M  V30 2072 H 353.449 -6.70197 -1.71129 0
M  V30 2073 H 354.316 -7.03551 -4.13168 0
M  V30 2074 P 358.278 -7.20834 -5.23717 0
M  V30 2075 O 358.498 -7.7993 -6.57351 0
M  V30 2076 O 359.068 -7.79328 -4.13004 0
M  V30 2077 O 358.528 -5.63315 -5.29344 0
M  V30 2078 C 357.588 -4.80193 -6.01798 0
M  V30 2079 C 358.318 -3.64202 -6.65911 0
M  V30 2080 O 358.528 -2.60694 -5.64732 0
M  V30 2081 C 359.718 -3.93473 -7.1943 0
M  V30 2082 O 360.108 -3.02071 -8.21205 0
M  V30 2083 C 360.598 -3.73047 -5.97036 0
M  V30 2084 C 359.888 -2.58828 -5.25741 0
M  V30 2085 N 359.938 -2.6801 -3.77422 0
M  V30 2086 C 360.088 -1.50443 -3.07133 0
M  V30 2087 O 360.178 -0.419406 -3.61576 0
M  V30 2088 N 360.128 -1.6403 -1.69677 0
M  V30 2089 C 360.038 -2.81206 -0.986255 0
M  V30 2090 O 360.088 -2.80892 0.249754 0
M  V30 2091 C 359.888 -3.99158 -1.80325 0
M  V30 2092 C 359.778 -5.29309 -1.06921 0
M  V30 2093 C 359.838 -3.89779 -3.1476 0
M  V30 2094 H 357.098 -5.40332 -6.79951 0
M  V30 2095 H 356.829 -4.41549 -5.32301 0
M  V30 2096 H 357.696 -3.26331 -7.47797 0
M  V30 2097 H 360.351 -1.6395 -5.56554 0
M  V30 2098 H 360.63 -4.63439 -5.3432 0
M  V30 2099 H 361.622 -3.44728 -6.25838 0
M  V30 2100 H 359.788 -4.96652 -7.57263 0
M  V30 2101 H 359.717 -4.80159 -3.74441 0
M  V30 2102 H 360.747 -5.81459 -1.09608 0
M  V30 2103 H 359.01 -5.9187 -1.54487 0
M  V30 2104 H 359.498 -5.10095 -0.0220288 0
M  V30 2105 H 360.234 -0.798962 -1.16664 0
M  V30 2106 P 361.658 -2.75334 -8.47391 0
M  V30 2107 O 361.878 -2.44619 -9.90336 0
M  V30 2108 O 362.448 -3.87776 -7.92294 0
M  V30 2109 O 361.908 -1.4459 -7.59357 0
M  V30 2110 C 360.968 -0.347653 -7.69315 0
M  V30 2111 C 361.698 0.96767 -7.52806 0
M  V30 2112 O 361.908 1.21055 -6.10208 0
M  V30 2113 C 363.098 1.04557 -8.13408 0
M  V30 2114 O 363.488 2.38311 -8.41922 0
M  V30 2115 C 363.978 0.491279 -7.02284 0
M  V30 2116 C 363.268 0.996264 -5.77469 0
M  V30 2117 N 363.318 0.0501916 -4.62973 0
M  V30 2118 C 363.238 -1.31969 -4.65661 0
M  V30 2119 N 363.308 -1.86649 -3.48119 0
M  V30 2120 C 363.458 -0.792089 -2.62406 0
M  V30 2121 C 363.588 -0.705684 -1.2207 0
M  V30 2122 N 363.598 -1.76207 -0.413762 0
M  V30 2123 N 363.708 0.518981 -0.685754 0
M  V30 2124 C 363.698 1.57595 -1.49174 0
M  V30 2125 N 363.578 1.62909 -2.80066 0
M  V30 2126 C 363.458 0.388195 -3.3073 0
M  V30 2127 H 360.48 -0.374765 -8.67791 0
M  V30 2128 H 360.208 -0.443613 -6.90476 0
M  V30 2129 H 361.076 1.75559 -7.96891 0
M  V30 2130 H 363.731 1.94563 -5.46818 0
M  V30 2131 H 364.011 -0.608651 -7.04676 0
M  V30 2132 H 365.002 0.889796 -7.09039 0
M  V30 2133 H 363.168 0.433128 -9.04664 0
M  V30 2134 H 363.127 -1.89246 -5.57664 0
M  V30 2135 H 363.508 -2.71005 -0.804694 0
M  V30 2136 H 363.697 -1.63189 0.603768 0
M  V30 2137 H 363.805 2.53475 -0.997614 0
M  V30 2138 P 365.038 2.75334 -8.47391 0
M  V30 2139 O 365.258 3.84128 -9.44797 0
M  V30 2140 O 365.828 1.51947 -8.68712 0
M  V30 2141 O 365.288 3.29363 -6.99321 0
M  V30 2142 C 364.348 4.24011 -6.4274 0
M  V30 2143 C 365.078 5.20775 -5.52155 0
M  V30 2144 O 365.288 4.56534 -4.22446 0
M  V30 2145 C 366.478 5.62629 -5.96531 0
M  V30 2146 O 366.868 6.87667 -5.41053 0
M  V30 2147 C 367.358 4.52537 -5.39283 0
M  V30 2148 C 366.648 4.20027 -4.08623 0
M  V30 2149 N 366.698 2.76189 -3.71603 0
M  V30 2150 H 363.859 4.797 -7.24003 0
M  V30 2151 H 363.589 3.69856 -5.84513 0
M  V30 2152 H 364.456 6.10356 -5.41441 0
M  V30 2153 P 368.418 7.20834 -5.23717 0
M  V30 2154 O 368.638 8.66104 -5.38572 0
M  V30 2155 O 369.208 6.33544 -6.1349 0
M  V30 2156 O 368.668 6.7751 -3.72168 0
M  V30 2157 C 367.728 7.20825 -2.7076 0
M  V30 2158 C 368.458 7.45864 -1.40599 0
M  V30 2159 O 368.668 6.17651 -0.734225 0
M  V30 2160 C 369.858 8.05808 -1.51899 0
M  V30 2161 O 370.248 8.74358 -0.335205 0
M  V30 2162 C 370.738 6.83093 -1.70294 0
M  V30 2163 C 370.028 5.79992 -0.836974 0
M  V30 2164 N 370.078 4.41864 -1.38293 0
M  V30 2165 H 367.239 8.13644 -3.0377 0
M  V30 2166 H 366.969 6.42788 -2.55485 0
M  V30 2167 H 367.836 8.12039 -0.792769 0
M  V30 2168 P 371.798 8.91 1.81197e-12 0
M  V30 2169 O 372.018 10.1726 0.733694 0
M  V30 2170 O 372.588 8.73148 -1.23936 0
M  V30 2171 O 372.048 7.66872 0.971405 0
M  V30 2172 C 371.108 7.42309 2.04641 0
M  V30 2173 C 371.838 6.86059 3.24661 0
M  V30 2174 O 372.048 5.42847 3.03646 0
M  V30 2175 C 373.238 7.41196 3.50753 0
M  V30 2176 O 373.628 7.27073 4.86816 0
M  V30 2177 C 374.118 6.5273 2.63741 0
M  V30 2178 C 373.408 5.1842 2.73198 0
M  V30 2179 N 373.458 4.38762 1.4784 0
M  V30 2180 C 373.378 4.81605 0.168631 0
M  V30 2181 N 373.458 3.85454 -0.713363 0
M  V30 2182 C 373.598 2.6994 0.0566958 0
M  V30 2183 C 373.728 1.34815 -0.338502 0
M  V30 2184 O 373.748 0.869548 -1.47125 0
M  V30 2185 N 373.848 0.496304 0.77465 0
M  V30 2186 C 373.848 0.908403 2.09122 0
M  V30 2187 N 373.978 -0.0517805 3.00955 0
M  V30 2188 N 373.718 2.17875 2.46519 0
M  V30 2189 C 373.598 3.01988 1.4033 0
M  V30 2190 H 370.619 8.36803 2.32493 0
M  V30 2191 H 370.349 6.70197 1.71129 0
M  V30 2192 H 371.216 7.03551 4.13168 0
M  V30 2193 H 373.871 4.59498 3.54415 0
M  V30 2194 H 374.15 6.88898 1.59848 0
M  V30 2195 H 375.142 6.46749 3.03687 0
M  V30 2196 H 373.308 8.46908 3.20714 0
M  V30 2197 H 373.259 5.86405 -0.105564 0
M  V30 2198 H 373.941 -0.483664 0.597855 0
M  V30 2199 H 373.978 0.187865 4.0116 0
M  V30 2200 H 374.079 -1.03585 2.71726 0
M  V30 2201 P 375.178 7.20834 5.23717 0
M  V30 2202 O 375.398 7.79853 6.57286 0
M  V30 2203 O 375.968 7.79239 4.12957 0
M  V30 2204 O 375.428 5.63315 5.29344 0
M  V30 2205 C 374.488 4.80255 6.01876 0
M  V30 2206 C 375.218 3.64202 6.65911 0
M  V30 2207 O 375.428 2.60694 5.64732 0
M  V30 2208 C 376.618 3.93473 7.1943 0
M  V30 2209 O 377.008 3.02071 8.21205 0
M  V30 2210 C 377.498 3.73047 5.97036 0
M  V30 2211 C 376.788 2.58828 5.25741 0
M  V30 2212 N 376.838 2.68068 3.77503 0
M  V30 2213 H 373.999 5.40332 6.79951 0
M  V30 2214 H 373.729 4.41613 5.32378 0
M  V30 2215 H 374.596 3.26331 7.47797 0
M  V30 2216 P 378.558 2.75334 8.47391 0
M  V30 2217 O 378.778 2.44571 9.90142 0
M  V30 2218 O 379.348 3.87688 7.92115 0
M  V30 2219 O 378.808 1.4459 7.59357 0
M  V30 2220 C 377.868 0.347608 7.69215 0
M  V30 2221 C 378.598 -0.96767 7.52806 0
M  V30 2222 O 378.808 -1.21036 6.1011 0
M  V30 2223 C 379.998 -1.04544 8.13308 0
M  V30 2224 O 380.388 -2.38311 8.41922 0
M  V30 2225 C 380.878 -0.491279 7.02284 0
M  V30 2226 C 380.168 -0.996264 5.77469 0
M  V30 2227 N 380.218 -0.0501916 4.62973 0
M  V30 2228 H 377.379 0.374722 8.67691 0
M  V30 2229 H 377.109 0.443485 6.90277 0
M  V30 2230 H 377.976 -1.75537 7.96793 0
M  V30 2231 P 381.938 -2.75334 8.47391 0
M  V30 2232 O 382.158 -3.84128 9.44797 0
M  V30 2233 O 382.728 -1.51947 8.68712 0
M  V30 2234 O 382.188 -3.29363 6.99321 0
M  V30 2235 C 381.248 -4.24011 6.4274 0
M  V30 2236 C 381.978 -5.20775 5.52155 0
M  V30 2237 O 382.188 -4.56534 4.22446 0
M  V30 2238 C 383.378 -5.62629 5.96531 0
M  V30 2239 O 383.768 -6.87667 5.41053 0
M  V30 2240 C 384.258 -4.52537 5.39283 0
M  V30 2241 C 383.548 -4.20027 4.08623 0
M  V30 2242 N 383.598 -2.76189 3.71603 0
M  V30 2243 C 383.518 -1.64862 4.52822 0
M  V30 2244 N 383.598 -0.512671 3.88633 0
M  V30 2245 C 383.738 -0.888083 2.54977 0
M  V30 2246 C 383.868 -0.094668 1.38677 0
M  V30 2247 N 383.988 -0.890102 0.232633 0
M  V30 2248 C 383.988 -2.26958 0.21772 0
M  V30 2249 N 384.118 -2.84626 -0.97925 0
M  V30 2250 N 383.858 -3.0178 1.31033 0
M  V30 2251 C 383.738 -2.26781 2.43843 0
M  V30 2252 H 380.759 -4.797 7.24003 0
M  V30 2253 H 380.489 -3.69856 5.84513 0
M  V30 2254 H 381.356 -6.10356 5.41441 0
M  V30 2255 P 385.318 -7.20834 5.23717 0
M  V30 2256 O 385.538 -8.66104 5.38572 0
M  V30 2257 O 386.108 -6.33544 6.1349 0
M  V30 2258 O 385.568 -6.7751 3.72168 0
M  V30 2259 C 384.628 -7.20825 2.7076 0
M  V30 2260 C 385.358 -7.45864 1.40599 0
M  V30 2261 O 385.568 -6.17651 0.734225 0
M  V30 2262 C 386.758 -8.05808 1.51899 0
M  V30 2263 O 387.148 -8.74358 0.335205 0
M  V30 2264 C 387.638 -6.83093 1.70294 0
M  V30 2265 C 386.928 -5.79992 0.836974 0
M  V30 2266 N 386.978 -4.41864 1.38293 0
M  V30 2267 H 384.139 -8.13644 3.0377 0
M  V30 2268 H 383.869 -6.42788 2.55485 0
M  V30 2269 H 384.736 -8.12039 0.792769 0
M  V30 2270 P 388.698 -8.91 -1.96915e-12 0
M  V30 2271 O 388.918 -10.1726 -0.733694 0
M  V30 2272 O 389.488 -8.73148 1.23936 0
M  V30 2273 O 388.948 -7.66872 -0.971405 0
M  V30 2274 C 388.008 -7.42309 -2.04641 0
M  V30 2275 C 388.738 -6.86059 -3.24661 0
M  V30 2276 O 388.948 -5.42847 -3.03646 0
M  V30 2277 C 390.138 -7.41196 -3.50753 0
M  V30 2278 O 390.528 -7.27073 -4.86816 0
M  V30 2279 C 391.018 -6.5273 -2.63741 0
M  V30 2280 C 390.308 -5.1842 -2.73198 0
M  V30 2281 N 390.358 -4.38762 -1.4784 0
M  V30 2282 C 390.278 -4.81605 -0.168631 0
M  V30 2283 N 390.358 -3.85454 0.713363 0
M  V30 2284 C 390.498 -2.6994 -0.0566958 0
M  V30 2285 C 390.628 -1.34815 0.338502 0
M  V30 2286 N 390.748 -0.496304 -0.77465 0
M  V30 2287 C 390.748 -0.908403 -2.09122 0
M  V30 2288 N 390.878 0.0517805 -3.00955 0
M  V30 2289 N 390.618 -2.17875 -2.46519 0
M  V30 2290 C 390.498 -3.01988 -1.4033 0
M  V30 2291 H 387.519 -8.36803 -2.32493 0
M  V30 2292 H 387.249 -6.70197 -1.71129 0
M  V30 2293 H 388.116 -7.03551 -4.13168 0
M  V30 2294 P 392.078 -7.20834 -5.23717 0
M  V30 2295 O 392.298 -7.79853 -6.57286 0
M  V30 2296 O 392.868 -7.79239 -4.12957 0
M  V30 2297 O 392.328 -5.63315 -5.29344 0
M  V30 2298 C 391.388 -4.80255 -6.01876 0
M  V30 2299 C 392.118 -3.64202 -6.65911 0
M  V30 2300 O 392.328 -2.60694 -5.64732 0
M  V30 2301 C 393.518 -3.93473 -7.1943 0
M  V30 2302 O 393.908 -3.02071 -8.21205 0
M  V30 2303 C 394.398 -3.73047 -5.97036 0
M  V30 2304 C 393.688 -2.58828 -5.25741 0
M  V30 2305 N 393.738 -2.68068 -3.77503 0
M  V30 2306 C 393.658 -3.79715 -2.96723 0
M  V30 2307 N 393.738 -3.5377 -1.68852 0
M  V30 2308 C 393.878 -2.15054 -1.63254 0
M  V30 2309 C 394.008 -1.28964 -0.518571 0
M  V30 2310 O 394.028 -1.56826 0.679156 0
M  V30 2311 N 394.128 0.0538097 -0.918425 0
M  V30 2312 C 394.128 0.494275 -2.22578 0
M  V30 2313 N 394.258 1.81086 -2.40434 0
M  V30 2314 N 393.998 -0.313645 -3.27502 0
M  V30 2315 C 393.878 -1.61829 -2.91033 0
M  V30 2316 H 390.899 -5.40332 -6.79951 0
M  V30 2317 H 390.629 -4.41613 -5.32378 0
M  V30 2318 H 391.496 -3.26331 -7.47797 0
M  V30 2319 H 394.151 -1.63422 -5.56814 0
M  V30 2320 H 394.43 -4.63374 -5.34244 0
M  V30 2321 H 395.422 -3.44728 -6.25838 0
M  V30 2322 H 393.588 -4.96652 -7.57263 0
M  V30 2323 H 393.539 -4.80617 -3.3614 0
M  V30 2324 H 394.221 0.742702 -0.199384 0
M  V30 2325 H 394.258 2.20598 -3.35588 0
M  V30 2326 H 394.359 2.43518 -1.58945 0
M  V30 2327 P 395.458 -2.75334 -8.47391 0
M  V30 2328 O 395.678 -2.44571 -9.90142 0
M  V30 2329 O 396.248 -3.87688 -7.92115 0
M  V30 2330 O 395.708 -1.4459 -7.59357 0
M  V30 2331 C 394.768 -0.347608 -7.69215 0
M  V30 2332 C 395.498 0.96767 -7.52806 0
M  V30 2333 O 395.708 1.21036 -6.1011 0
M  V30 2334 C 396.898 1.04544 -8.13308 0
M  V30 2335 O 397.288 2.38311 -8.41922 0
M  V30 2336 C 397.778 0.491279 -7.02284 0
M  V30 2337 C 397.068 0.996264 -5.77469 0
M  V30 2338 N 397.118 0.0501916 -4.62973 0
M  V30 2339 H 394.279 -0.374722 -8.67691 0
M  V30 2340 H 394.009 -0.443485 -6.90277 0
M  V30 2341 H 394.876 1.75537 -7.96793 0
M  V30 2342 P 398.838 2.75334 -8.47391 0
M  V30 2343 O 399.058 3.84128 -9.44797 0
M  V30 2344 O 399.628 1.51947 -8.68712 0
M  V30 2345 O 399.088 3.29363 -6.99321 0
M  V30 2346 C 398.148 4.24011 -6.4274 0
M  V30 2347 C 398.878 5.20775 -5.52155 0
M  V30 2348 O 399.088 4.56534 -4.22446 0
M  V30 2349 C 400.278 5.62629 -5.96531 0
M  V30 2350 O 400.668 6.87667 -5.41053 0
M  V30 2351 C 401.158 4.52537 -5.39283 0
M  V30 2352 C 400.448 4.20027 -4.08623 0
M  V30 2353 N 400.498 2.76189 -3.71603 0
M  V30 2354 H 397.659 4.797 -7.24003 0
M  V30 2355 H 397.389 3.69856 -5.84513 0
M  V30 2356 H 398.256 6.10356 -5.41441 0
M  V30 2357 P 402.218 7.20834 -5.23717 0
M  V30 2358 O 402.438 8.66104 -5.38572 0
M  V30 2359 O 403.008 6.33544 -6.1349 0
M  V30 2360 O 402.468 6.7751 -3.72168 0
M  V30 2361 C 401.528 7.20825 -2.7076 0
M  V30 2362 C 402.258 7.45864 -1.40599 0
M  V30 2363 O 402.468 6.17651 -0.734225 0
M  V30 2364 C 403.658 8.05808 -1.51899 0
M  V30 2365 O 404.048 8.74358 -0.335205 0
M  V30 2366 C 404.538 6.83093 -1.70294 0
M  V30 2367 C 403.828 5.79992 -0.836974 0
M  V30 2368 N 403.878 4.41864 -1.38293 0
M  V30 2369 H 401.039 8.13644 -3.0377 0
M  V30 2370 H 400.769 6.42788 -2.55485 0
M  V30 2371 H 401.636 8.12039 -0.792769 0
M  V30 2372 P 405.598 8.91 2.12633e-12 0
M  V30 2373 O 405.818 10.1726 0.733694 0
M  V30 2374 O 406.388 8.73148 -1.23936 0
M  V30 2375 O 405.848 7.66872 0.971405 0
M  V30 2376 C 404.908 7.42309 2.04641 0
M  V30 2377 C 405.638 6.86059 3.24661 0
M  V30 2378 O 405.848 5.42847 3.03646 0
M  V30 2379 C 407.038 7.41196 3.50753 0
M  V30 2380 O 407.428 7.27073 4.86816 0
M  V30 2381 C 407.918 6.5273 2.63741 0
M  V30 2382 C 407.208 5.1842 2.73198 0
M  V30 2383 N 407.258 4.38762 1.4784 0
M  V30 2384 C 407.178 4.81605 0.168631 0
M  V30 2385 N 407.258 3.85454 -0.713363 0
M  V30 2386 C 407.398 2.6994 0.0566958 0
M  V30 2387 C 407.528 1.34815 -0.338502 0
M  V30 2388 O 407.548 0.869548 -1.47125 0
M  V30 2389 N 407.648 0.496304 0.77465 0
M  V30 2390 C 407.648 0.908403 2.09122 0
M  V30 2391 N 407.778 -0.0517805 3.00955 0
M  V30 2392 N 407.518 2.17875 2.46519 0
M  V30 2393 C 407.398 3.01988 1.4033 0
M  V30 2394 H 404.419 8.36803 2.32493 0
M  V30 2395 H 404.149 6.70197 1.71129 0
M  V30 2396 H 405.016 7.03551 4.13168 0
M  V30 2397 H 407.671 4.59498 3.54415 0
M  V30 2398 H 407.95 6.88898 1.59848 0
M  V30 2399 H 408.942 6.46749 3.03687 0
M  V30 2400 H 407.108 8.46908 3.20714 0
M  V30 2401 H 407.059 5.86405 -0.105564 0
M  V30 2402 H 407.741 -0.483664 0.597855 0
M  V30 2403 H 407.778 0.187865 4.0116 0
M  V30 2404 H 407.879 -1.03585 2.71726 0
M  V30 2405 P 408.978 7.20834 5.23717 0
M  V30 2406 O 409.198 7.7993 6.57351 0
M  V30 2407 O 409.768 7.79328 4.13004 0
M  V30 2408 O 409.228 5.63315 5.29344 0
M  V30 2409 C 408.288 4.80255 6.01876 0
M  V30 2410 C 409.018 3.64202 6.65911 0
M  V30 2411 O 409.228 2.60694 5.64732 0
M  V30 2412 C 410.418 3.93473 7.1943 0
M  V30 2413 O 410.808 3.02071 8.21205 0
M  V30 2414 C 411.298 3.73047 5.97036 0
M  V30 2415 C 410.588 2.58828 5.25741 0
M  V30 2416 N 410.638 2.6801 3.77422 0
M  V30 2417 C 410.788 1.50173 3.05038 0
M  V30 2418 O 410.878 0.428832 3.665 0
M  V30 2419 N 410.838 1.70922 1.55541 0
M  V30 2420 C 410.738 2.7407 1.06402 0
M  V30 2421 N 410.788 2.74764 -0.260931 0
M  V30 2422 C 410.588 3.96781 1.78296 0
M  V30 2423 C 410.538 3.87909 3.13891 0
M  V30 2424 H 407.798 5.4027 6.79873 0
M  V30 2425 H 407.529 4.41549 5.32301 0
M  V30 2426 H 408.396 3.26371 7.47889 0
M  V30 2427 H 411.051 1.63978 5.5665 0
M  V30 2428 H 411.33 4.63439 5.3432 0
M  V30 2429 H 412.322 3.44728 6.25838 0
M  V30 2430 H 410.488 4.96652 7.57263 0
M  V30 2431 H 410.416 4.78425 3.73088 0
M  V30 2432 H 410.518 4.92593 1.26997 0
M  V30 2433 H 410.906 1.86285 -0.77595 0
M  V30 2434 H 410.709 3.63657 -0.773896 0
M  V30 2435 P 412.358 2.75334 8.47391 0
M  V30 2436 O 412.578 2.44571 9.90142 0
M  V30 2437 O 413.148 3.87688 7.92115 0
M  V30 2438 O 412.608 1.4459 7.59357 0
M  V30 2439 C 411.668 0.347608 7.69215 0
M  V30 2440 C 412.398 -0.96767 7.52806 0
M  V30 2441 O 412.608 -1.21036 6.1011 0
M  V30 2442 C 413.798 -1.04544 8.13308 0
M  V30 2443 O 414.188 -2.38311 8.41922 0
M  V30 2444 C 414.678 -0.491279 7.02284 0
M  V30 2445 C 413.968 -0.996264 5.77469 0
M  V30 2446 N 414.018 -0.0501916 4.62973 0
M  V30 2447 H 411.179 0.374722 8.67691 0
M  V30 2448 H 410.909 0.443485 6.90277 0
M  V30 2449 H 411.776 -1.75537 7.96793 0
M  V30 2450 P 415.738 -2.75334 8.47391 0
M  V30 2451 O 415.958 -3.84128 9.44797 0
M  V30 2452 O 416.528 -1.51947 8.68712 0
M  V30 2453 O 415.988 -3.29363 6.99321 0
M  V30 2454 C 415.048 -4.24011 6.4274 0
M  V30 2455 C 415.778 -5.20775 5.52155 0
M  V30 2456 O 415.988 -4.56534 4.22446 0
M  V30 2457 C 417.178 -5.62629 5.96531 0
M  V30 2458 O 417.568 -6.87667 5.41053 0
M  V30 2459 C 418.058 -4.52537 5.39283 0
M  V30 2460 C 417.348 -4.20027 4.08623 0
M  V30 2461 N 417.398 -2.76189 3.71603 0
M  V30 2462 H 414.559 -4.797 7.24003 0
M  V30 2463 H 414.289 -3.69856 5.84513 0
M  V30 2464 H 415.156 -6.10356 5.41441 0
M  V30 2465 P 419.118 -7.20834 5.23717 0
M  V30 2466 O 419.338 -8.66104 5.38572 0
M  V30 2467 O 419.908 -6.33544 6.1349 0
M  V30 2468 O 419.368 -6.7751 3.72168 0
M  V30 2469 C 418.428 -7.20825 2.7076 0
M  V30 2470 C 419.158 -7.45864 1.40599 0
M  V30 2471 O 419.368 -6.17651 0.734225 0
M  V30 2472 C 420.558 -8.05808 1.51899 0
M  V30 2473 O 420.948 -8.74358 0.335205 0
M  V30 2474 C 421.438 -6.83093 1.70294 0
M  V30 2475 C 420.728 -5.79992 0.836974 0
M  V30 2476 N 420.778 -4.41864 1.38293 0
M  V30 2477 H 417.939 -8.13644 3.0377 0
M  V30 2478 H 417.669 -6.42788 2.55485 0
M  V30 2479 H 418.536 -8.12039 0.792769 0
M  V30 2480 P 422.497 -8.91 -2.28351e-12 0
M  V30 2481 O 422.717 -10.1726 -0.733694 0
M  V30 2482 O 423.287 -8.73148 1.23936 0
M  V30 2483 O 422.747 -7.66872 -0.971405 0
M  V30 2484 C 421.807 -7.42309 -2.04641 0
M  V30 2485 C 422.537 -6.86059 -3.24661 0
M  V30 2486 O 422.747 -5.42847 -3.03646 0
M  V30 2487 C 423.937 -7.41196 -3.50753 0
M  V30 2488 O 424.327 -7.27073 -4.86816 0
M  V30 2489 C 424.817 -6.5273 -2.63741 0
M  V30 2490 C 424.107 -5.1842 -2.73198 0
M  V30 2491 N 424.157 -4.38762 -1.4784 0
M  V30 2492 H 421.318 -8.36803 -2.32493 0
M  V30 2493 H 421.048 -6.70197 -1.71129 0
M  V30 2494 H 421.915 -7.03551 -4.13168 0
M  V30 2495 P 425.877 -7.20834 -5.23717 0
M  V30 2496 O 426.097 -7.79853 -6.57286 0
M  V30 2497 O 426.667 -7.79239 -4.12957 0
M  V30 2498 O 426.127 -5.63315 -5.29344 0
M  V30 2499 C 425.187 -4.80255 -6.01876 0
M  V30 2500 C 425.917 -3.64202 -6.65911 0
M  V30 2501 O 426.127 -2.60694 -5.64732 0
M  V30 2502 C 427.317 -3.93473 -7.1943 0
M  V30 2503 O 427.707 -3.02071 -8.21205 0
M  V30 2504 C 428.197 -3.73047 -5.97036 0
M  V30 2505 C 427.487 -2.58828 -5.25741 0
M  V30 2506 N 427.537 -2.68068 -3.77503 0
M  V30 2507 H 424.698 -5.40332 -6.79951 0
M  V30 2508 H 424.428 -4.41613 -5.32378 0
M  V30 2509 H 425.295 -3.26331 -7.47797 0
M  V30 2510 P 429.257 -2.75334 -8.47391 0
M  V30 2511 O 429.477 -2.44571 -9.90142 0
M  V30 2512 O 430.047 -3.87688 -7.92115 0
M  V30 2513 O 429.507 -1.4459 -7.59357 0
M  V30 2514 C 428.567 -0.347608 -7.69215 0
M  V30 2515 C 429.297 0.96767 -7.52806 0
M  V30 2516 O 429.507 1.21036 -6.1011 0
M  V30 2517 C 430.697 1.04544 -8.13308 0
M  V30 2518 O 431.087 2.38311 -8.41922 0
M  V30 2519 C 431.577 0.491279 -7.02284 0
M  V30 2520 C 430.867 0.996264 -5.77469 0
M  V30 2521 N 430.917 0.0501916 -4.62973 0
M  V30 2522 H 428.078 -0.374722 -8.67691 0
M  V30 2523 H 427.808 -0.443485 -6.90277 0
M  V30 2524 H 428.675 1.75537 -7.96793 0
M  V30 2525 P 432.637 2.75334 -8.47391 0
M  V30 2526 O 432.857 3.84128 -9.44797 0
M  V30 2527 O 433.427 1.51947 -8.68712 0
M  V30 2528 O 432.887 3.29363 -6.99321 0
M  V30 2529 C 431.947 4.24011 -6.4274 0
M  V30 2530 C 432.677 5.20775 -5.52155 0
M  V30 2531 O 432.887 4.56534 -4.22446 0
M  V30 2532 C 434.077 5.62629 -5.96531 0
M  V30 2533 O 434.467 6.87667 -5.41053 0
M  V30 2534 C 434.957 4.52537 -5.39283 0
M  V30 2535 C 434.247 4.20027 -4.08623 0
M  V30 2536 N 434.297 2.76189 -3.71603 0
M  V30 2537 H 431.458 4.797 -7.24003 0
M  V30 2538 H 431.188 3.69856 -5.84513 0
M  V30 2539 H 432.055 6.10356 -5.41441 0
M  V30 2540 P 436.017 7.20834 -5.23717 0
M  V30 2541 O 436.237 8.66104 -5.38572 0
M  V30 2542 O 436.807 6.33544 -6.1349 0
M  V30 2543 O 436.267 6.7751 -3.72168 0
M  V30 2544 C 435.327 7.20825 -2.7076 0
M  V30 2545 C 436.057 7.45864 -1.40599 0
M  V30 2546 O 436.267 6.17651 -0.734225 0
M  V30 2547 C 437.457 8.05808 -1.51899 0
M  V30 2548 O 437.847 8.74358 -0.335205 0
M  V30 2549 C 438.337 6.83093 -1.70294 0
M  V30 2550 C 437.627 5.79992 -0.836974 0
M  V30 2551 N 437.677 4.41864 -1.38293 0
M  V30 2552 H 434.838 8.13644 -3.0377 0
M  V30 2553 H 434.568 6.42788 -2.55485 0
M  V30 2554 H 435.435 8.12039 -0.792769 0
M  V30 2555 P 439.397 8.91 2.44069e-12 0
M  V30 2556 O 439.617 10.1726 0.733694 0
M  V30 2557 O 440.187 8.73148 -1.23936 0
M  V30 2558 O 439.647 7.66872 0.971405 0
M  V30 2559 C 438.707 7.42309 2.04641 0
M  V30 2560 C 439.437 6.86059 3.24661 0
M  V30 2561 O 439.647 5.42847 3.03646 0
M  V30 2562 C 440.837 7.41196 3.50753 0
M  V30 2563 O 441.227 7.27073 4.86816 0
M  V30 2564 C 441.717 6.5273 2.63741 0
M  V30 2565 C 441.007 5.1842 2.73198 0
M  V30 2566 N 441.057 4.38762 1.4784 0
M  V30 2567 H 438.218 8.36803 2.32493 0
M  V30 2568 H 437.948 6.70197 1.71129 0
M  V30 2569 H 438.815 7.03551 4.13168 0
M  V30 2570 P 442.777 7.20834 5.23717 0
M  V30 2571 O 442.997 7.79853 6.57286 0
M  V30 2572 O 443.567 7.79239 4.12957 0
M  V30 2573 O 443.027 5.63315 5.29344 0
M  V30 2574 C 442.087 4.80255 6.01876 0
M  V30 2575 C 442.817 3.64202 6.65911 0
M  V30 2576 O 443.027 2.60694 5.64732 0
M  V30 2577 C 444.217 3.93473 7.1943 0
M  V30 2578 O 444.607 3.02071 8.21205 0
M  V30 2579 C 445.097 3.73047 5.97036 0
M  V30 2580 C 444.387 2.58828 5.25741 0
M  V30 2581 N 444.437 2.68068 3.77503 0
M  V30 2582 H 441.598 5.40332 6.79951 0
M  V30 2583 H 441.328 4.41613 5.32378 0
M  V30 2584 H 442.195 3.26331 7.47797 0
M  V30 2585 P 446.157 2.75334 8.47391 0
M  V30 2586 O 446.377 2.44571 9.90142 0
M  V30 2587 O 446.947 3.87688 7.92115 0
M  V30 2588 O 446.407 1.4459 7.59357 0
M  V30 2589 C 445.467 0.347608 7.69215 0
M  V30 2590 C 446.197 -0.96767 7.52806 0
M  V30 2591 O 446.407 -1.21036 6.1011 0
M  V30 2592 C 447.597 -1.04544 8.13308 0
M  V30 2593 O 447.987 -2.38311 8.41922 0
M  V30 2594 C 448.477 -0.491279 7.02284 0
M  V30 2595 C 447.767 -0.996264 5.77469 0
M  V30 2596 N 447.817 -0.0501916 4.62973 0
M  V30 2597 C 447.737 1.32786 4.63244 0
M  V30 2598 N 447.817 1.86957 3.44545 0
M  V30 2599 C 447.957 0.780241 2.58481 0
M  V30 2600 C 448.087 0.738536 1.17757 0
M  V30 2601 O 448.107 1.66794 0.372349 0
M  V30 2602 N 448.207 -0.58337 0.711393 0
M  V30 2603 C 448.207 -1.70816 1.51017 0
M  V30 2604 N 448.337 -2.87826 0.880757 0
M  V30 2605 N 448.077 -1.67126 2.8339 0
M  V30 2606 C 447.957 -0.401421 3.30572 0
M  V30 2607 H 444.978 0.374722 8.67691 0
M  V30 2608 H 444.708 0.443485 6.90277 0
M  V30 2609 H 445.575 -1.75537 7.96793 0
M  V30 2610 H 448.23 -1.95076 5.46529 0
M  V30 2611 H 448.509 0.608565 7.04577 0
M  V30 2612 H 449.501 -0.889672 7.08939 0
M  V30 2613 H 447.667 -0.43308 9.04564 0
M  V30 2614 H 447.618 1.91249 5.54442 0
M  V30 2615 H 448.3 -0.718054 -0.275244 0
M  V30 2616 H 448.337 -3.75721 1.41832 0
M  V30 2617 H 448.438 -2.90436 -0.145468 0
M  V30 2618 P 449.537 -2.75334 8.47391 0
M  V30 2619 O 449.757 -3.84128 9.44797 0
M  V30 2620 O 450.327 -1.51947 8.68712 0
M  V30 2621 O 449.787 -3.29363 6.99321 0
M  V30 2622 C 448.847 -4.24011 6.4274 0
M  V30 2623 C 449.577 -5.20775 5.52155 0
M  V30 2624 O 449.787 -4.56534 4.22446 0
M  V30 2625 C 450.977 -5.62629 5.96531 0
M  V30 2626 O 451.367 -6.87667 5.41053 0
M  V30 2627 C 451.857 -4.52537 5.39283 0
M  V30 2628 C 451.147 -4.20027 4.08623 0
M  V30 2629 N 451.197 -2.76189 3.71603 0
M  V30 2630 H 448.358 -4.797 7.24003 0
M  V30 2631 H 448.088 -3.69856 5.84513 0
M  V30 2632 H 448.955 -6.10356 5.41441 0
M  V30 2633 P 452.917 -7.20834 5.23717 0
M  V30 2634 O 453.137 -8.66104 5.38572 0
M  V30 2635 O 453.707 -6.33544 6.1349 0
M  V30 2636 O 453.167 -6.7751 3.72168 0
M  V30 2637 C 452.227 -7.20825 2.7076 0
M  V30 2638 C 452.957 -7.45864 1.40599 0
M  V30 2639 O 453.167 -6.17651 0.734225 0
M  V30 2640 C 454.357 -8.05808 1.51899 0
M  V30 2641 O 454.747 -8.74358 0.335205 0
M  V30 2642 C 455.237 -6.83093 1.70294 0
M  V30 2643 C 454.527 -5.79992 0.836974 0
M  V30 2644 N 454.577 -4.41864 1.38293 0
M  V30 2645 H 451.738 -8.13644 3.0377 0
M  V30 2646 H 451.468 -6.42788 2.55485 0
M  V30 2647 H 452.335 -8.12039 0.792769 0
M  V30 2648 P 456.297 -8.91 -2.59788e-12 0
M  V30 2649 O 456.517 -10.1726 -0.733694 0
M  V30 2650 O 457.087 -8.73148 1.23936 0
M  V30 2651 O 456.547 -7.66872 -0.971405 0
M  V30 2652 C 455.607 -7.42309 -2.04641 0
M  V30 2653 C 456.337 -6.86059 -3.24661 0
M  V30 2654 O 456.547 -5.42847 -3.03646 0
M  V30 2655 C 457.737 -7.41196 -3.50753 0
M  V30 2656 O 458.127 -7.27073 -4.86816 0
M  V30 2657 C 458.617 -6.5273 -2.63741 0
M  V30 2658 C 457.907 -5.1842 -2.73198 0
M  V30 2659 N 457.957 -4.38762 -1.4784 0
M  V30 2660 H 455.118 -8.36803 -2.32493 0
M  V30 2661 H 454.848 -6.70197 -1.71129 0
M  V30 2662 H 455.715 -7.03551 -4.13168 0
M  V30 2663 P 459.677 -7.20834 -5.23717 0
M  V30 2664 O 459.897 -7.79853 -6.57286 0
M  V30 2665 O 460.467 -7.79239 -4.12957 0
M  V30 2666 O 459.927 -5.63315 -5.29344 0
M  V30 2667 C 458.987 -4.80255 -6.01876 0
M  V30 2668 C 459.717 -3.64202 -6.65911 0
M  V30 2669 O 459.927 -2.60694 -5.64732 0
M  V30 2670 C 461.117 -3.93473 -7.1943 0
M  V30 2671 O 461.507 -3.02071 -8.21205 0
M  V30 2672 C 461.997 -3.73047 -5.97036 0
M  V30 2673 C 461.287 -2.58828 -5.25741 0
M  V30 2674 N 461.337 -2.68068 -3.77503 0
M  V30 2675 H 458.498 -5.40332 -6.79951 0
M  V30 2676 H 458.228 -4.41613 -5.32378 0
M  V30 2677 H 459.095 -3.26331 -7.47797 0
M  V30 2678 P 463.057 -2.75334 -8.47391 0
M  V30 2679 O 463.277 -2.44571 -9.90142 0
M  V30 2680 O 463.847 -3.87688 -7.92115 0
M  V30 2681 O 463.307 -1.4459 -7.59357 0
M  V30 2682 C 462.367 -0.347608 -7.69215 0
M  V30 2683 C 463.097 0.96767 -7.52806 0
M  V30 2684 O 463.307 1.21036 -6.1011 0
M  V30 2685 C 464.497 1.04544 -8.13308 0
M  V30 2686 O 464.887 2.38311 -8.41922 0
M  V30 2687 C 465.377 0.491279 -7.02284 0
M  V30 2688 C 464.667 0.996264 -5.77469 0
M  V30 2689 N 464.717 0.0501916 -4.62973 0
M  V30 2690 H 461.878 -0.374722 -8.67691 0
M  V30 2691 H 461.608 -0.443485 -6.90277 0
M  V30 2692 H 462.475 1.75537 -7.96793 0
M  V30 2693 P 466.437 2.75334 -8.47391 0
M  V30 2694 O 466.657 3.84128 -9.44797 0
M  V30 2695 O 467.227 1.51947 -8.68712 0
M  V30 2696 O 466.687 3.29363 -6.99321 0
M  V30 2697 C 465.747 4.24011 -6.4274 0
M  V30 2698 C 466.477 5.20775 -5.52155 0
M  V30 2699 O 466.687 4.56534 -4.22446 0
M  V30 2700 C 467.877 5.62629 -5.96531 0
M  V30 2701 O 468.267 6.87667 -5.41053 0
M  V30 2702 C 468.757 4.52537 -5.39283 0
M  V30 2703 C 468.047 4.20027 -4.08623 0
M  V30 2704 N 468.097 2.76189 -3.71603 0
M  V30 2705 H 465.258 4.797 -7.24003 0
M  V30 2706 H 464.988 3.69856 -5.84513 0
M  V30 2707 H 465.855 6.10356 -5.41441 0
M  V30 2708 P 469.817 7.20834 -5.23717 0
M  V30 2709 O 470.037 8.66104 -5.38572 0
M  V30 2710 O 470.607 6.33544 -6.1349 0
M  V30 2711 O 470.067 6.7751 -3.72168 0
M  V30 2712 C 469.127 7.20825 -2.7076 0
M  V30 2713 C 469.857 7.45864 -1.40599 0
M  V30 2714 O 470.067 6.17651 -0.734225 0
M  V30 2715 C 471.257 8.05808 -1.51899 0
M  V30 2716 O 471.647 8.74358 -0.335205 0
M  V30 2717 C 472.137 6.83093 -1.70294 0
M  V30 2718 C 471.427 5.79992 -0.836974 0
M  V30 2719 N 471.477 4.41864 -1.38293 0
M  V30 2720 C 471.397 3.99538 -2.69438 0
M  V30 2721 N 471.477 2.69909 -2.84277 0
M  V30 2722 C 471.617 2.21719 -1.5408 0
M  V30 2723 C 471.747 0.891712 -1.06628 0
M  V30 2724 O 471.767 -0.161298 -1.70137 0
M  V30 2725 N 471.867 0.856846 0.334985 0
M  V30 2726 C 471.867 1.9641 1.15789 0
M  V30 2727 N 471.997 1.72708 2.46522 0
M  V30 2728 N 471.737 3.21165 0.713741 0
M  V30 2729 C 471.617 3.26797 -0.639748 0
M  V30 2730 H 468.638 8.13644 -3.0377 0
M  V30 2731 H 468.368 6.42788 -2.55485 0
M  V30 2732 H 469.235 8.12039 -0.792769 0
M  V30 2733 H 471.89 5.80061 0.166416 0
M  V30 2734 H 472.169 6.51287 -2.75604 0
M  V30 2735 H 473.161 7.01734 -1.34462 0
M  V30 2736 H 471.327 8.73674 -2.38337 0
M  V30 2737 H 471.278 4.68207 -3.53221 0
M  V30 2738 H 471.96 -0.0398818 0.767965 0
M  V30 2739 H 471.997 2.50995 3.13503 0
M  V30 2740 H 472.098 0.759148 2.80716 0
M  V30 2741 P 473.197 8.91 2.75506e-12 0
M  V30 2742 O 473.417 10.1726 0.733694 0
M  V30 2743 O 473.987 8.73148 -1.23936 0
M  V30 2744 O 473.447 7.66872 0.971405 0
M  V30 2745 C 472.507 7.42309 2.04641 0
M  V30 2746 C 473.237 6.86059 3.24661 0
M  V30 2747 O 473.447 5.42847 3.03646 0
M  V30 2748 C 474.637 7.41196 3.50753 0
M  V30 2749 O 475.027 7.27073 4.86816 0
M  V30 2750 C 475.517 6.5273 2.63741 0
M  V30 2751 C 474.807 5.1842 2.73198 0
M  V30 2752 N 474.857 4.38762 1.4784 0
M  V30 2753 H 472.018 8.36803 2.32493 0
M  V30 2754 H 471.748 6.70197 1.71129 0
M  V30 2755 H 472.615 7.03551 4.13168 0
M  V30 2756 P 476.577 7.20834 5.23717 0
M  V30 2757 O 476.797 7.7993 6.57351 0
M  V30 2758 O 477.367 7.79328 4.13004 0
M  V30 2759 O 476.827 5.63315 5.29344 0
M  V30 2760 C 475.887 4.80193 6.01798 0
M  V30 2761 C 476.617 3.64202 6.65911 0
M  V30 2762 O 476.827 2.60694 5.64732 0
M  V30 2763 C 478.017 3.93473 7.1943 0
M  V30 2764 O 478.407 3.02071 8.21205 0
M  V30 2765 C 478.897 3.73047 5.97036 0
M  V30 2766 C 478.187 2.58828 5.25741 0
M  V30 2767 N 478.237 2.6801 3.77422 0
M  V30 2768 C 478.387 1.50443 3.07133 0
M  V30 2769 O 478.477 0.419406 3.61576 0
M  V30 2770 N 478.427 1.6403 1.69677 0
M  V30 2771 C 478.337 2.81206 0.986255 0
M  V30 2772 O 478.387 2.80892 -0.249754 0
M  V30 2773 C 478.187 3.99158 1.80325 0
M  V30 2774 C 478.077 5.29309 1.06921 0
M  V30 2775 C 478.137 3.89779 3.1476 0
M  V30 2776 H 475.397 5.40332 6.79951 0
M  V30 2777 H 475.128 4.41549 5.32301 0
M  V30 2778 H 475.995 3.26331 7.47797 0
M  V30 2779 H 478.65 1.6395 5.56554 0
M  V30 2780 H 478.929 4.63439 5.3432 0
M  V30 2781 H 479.921 3.44728 6.25838 0
M  V30 2782 H 478.087 4.96652 7.57263 0
M  V30 2783 H 478.016 4.80159 3.74441 0
M  V30 2784 H 479.046 5.81459 1.09608 0
M  V30 2785 H 477.309 5.9187 1.54487 0
M  V30 2786 H 477.797 5.10095 0.0220288 0
M  V30 2787 H 478.533 0.798962 1.16664 0
M  V30 2788 P 479.957 2.75334 8.47391 0
M  V30 2789 O 480.177 2.44571 9.90142 0
M  V30 2790 O 480.747 3.87688 7.92115 0
M  V30 2791 O 480.207 1.4459 7.59357 0
M  V30 2792 C 479.267 0.347608 7.69215 0
M  V30 2793 C 479.997 -0.96767 7.52806 0
M  V30 2794 O 480.207 -1.21036 6.1011 0
M  V30 2795 C 481.397 -1.04544 8.13308 0
M  V30 2796 O 481.787 -2.38311 8.41922 0
M  V30 2797 C 482.277 -0.491279 7.02284 0
M  V30 2798 C 481.567 -0.996264 5.77469 0
M  V30 2799 N 481.617 -0.0501916 4.62973 0
M  V30 2800 H 478.778 0.374722 8.67691 0
M  V30 2801 H 478.508 0.443485 6.90277 0
M  V30 2802 H 479.375 -1.75537 7.96793 0
M  V30 2803 P 483.337 -2.75334 8.47391 0
M  V30 2804 O 483.557 -3.84128 9.44797 0
M  V30 2805 O 484.127 -1.51947 8.68712 0
M  V30 2806 O 483.587 -3.29363 6.99321 0
M  V30 2807 C 482.647 -4.24011 6.4274 0
M  V30 2808 C 483.377 -5.20775 5.52155 0
M  V30 2809 O 483.587 -4.56534 4.22446 0
M  V30 2810 C 484.777 -5.62629 5.96531 0
M  V30 2811 O 485.167 -6.87667 5.41053 0
M  V30 2812 C 485.657 -4.52537 5.39283 0
M  V30 2813 C 484.947 -4.20027 4.08623 0
M  V30 2814 N 484.997 -2.76189 3.71603 0
M  V30 2815 H 482.158 -4.797 7.24003 0
M  V30 2816 H 481.888 -3.69856 5.84513 0
M  V30 2817 H 482.755 -6.10356 5.41441 0
M  V30 2818 P 486.717 -7.20834 5.23717 0
M  V30 2819 O 486.937 -8.66104 5.38572 0
M  V30 2820 O 487.507 -6.33544 6.1349 0
M  V30 2821 O 486.967 -6.7751 3.72168 0
M  V30 2822 C 486.027 -7.20825 2.7076 0
M  V30 2823 C 486.757 -7.45864 1.40599 0
M  V30 2824 O 486.967 -6.17651 0.734225 0
M  V30 2825 C 488.157 -8.05808 1.51899 0
M  V30 2826 O 488.547 -8.74358 0.335205 0
M  V30 2827 C 489.037 -6.83093 1.70294 0
M  V30 2828 C 488.327 -5.79992 0.836974 0
M  V30 2829 N 488.377 -4.41864 1.38293 0
M  V30 2830 H 485.538 -8.13644 3.0377 0
M  V30 2831 H 485.268 -6.42788 2.55485 0
M  V30 2832 H 486.135 -8.12039 0.792769 0
M  V30 2833 P 490.097 -8.91 -2.91224e-12 0
M  V30 2834 O 490.317 -10.1726 -0.733694 0
M  V30 2835 O 490.887 -8.73148 1.23936 0
M  V30 2836 O 490.347 -7.66872 -0.971405 0
M  V30 2837 C 489.407 -7.42309 -2.04641 0
M  V30 2838 C 490.137 -6.86059 -3.24661 0
M  V30 2839 O 490.347 -5.42847 -3.03646 0
M  V30 2840 C 491.537 -7.41196 -3.50753 0
M  V30 2841 O 491.927 -7.27073 -4.86816 0
M  V30 2842 C 492.417 -6.5273 -2.63741 0
M  V30 2843 C 491.707 -5.1842 -2.73198 0
M  V30 2844 N 491.757 -4.38762 -1.4784 0
M  V30 2845 H 488.918 -8.36803 -2.32493 0
M  V30 2846 H 488.648 -6.70197 -1.71129 0
M  V30 2847 H 489.515 -7.03551 -4.13168 0
M  V30 2848 P 493.477 -7.20834 -5.23717 0
M  V30 2849 O 493.697 -7.79853 -6.57286 0
M  V30 2850 O 494.267 -7.79239 -4.12957 0
M  V30 2851 O 493.727 -5.63315 -5.29344 0
M  V30 2852 C 492.787 -4.80255 -6.01876 0
M  V30 2853 C 493.517 -3.64202 -6.65911 0
M  V30 2854 O 493.727 -2.60694 -5.64732 0
M  V30 2855 C 494.917 -3.93473 -7.1943 0
M  V30 2856 O 495.307 -3.02071 -8.21205 0
M  V30 2857 C 495.797 -3.73047 -5.97036 0
M  V30 2858 C 495.087 -2.58828 -5.25741 0
M  V30 2859 N 495.137 -2.68068 -3.77503 0
M  V30 2860 H 492.298 -5.40332 -6.79951 0
M  V30 2861 H 492.028 -4.41613 -5.32378 0
M  V30 2862 H 492.895 -3.26331 -7.47797 0
M  V30 2863 P 496.857 -2.75334 -8.47391 0
M  V30 2864 O 497.077 -2.44571 -9.90142 0
M  V30 2865 O 497.647 -3.87688 -7.92115 0
M  V30 2866 O 497.107 -1.4459 -7.59357 0
M  V30 2867 C 496.167 -0.347608 -7.69215 0
M  V30 2868 C 496.897 0.96767 -7.52806 0
M  V30 2869 O 497.107 1.21036 -6.1011 0
M  V30 2870 C 498.297 1.04544 -8.13308 0
M  V30 2871 O 498.687 2.38311 -8.41922 0
M  V30 2872 C 499.177 0.491279 -7.02284 0
M  V30 2873 C 498.467 0.996264 -5.77469 0
M  V30 2874 N 498.517 0.0501916 -4.62973 0
M  V30 2875 H 495.678 -0.374722 -8.67691 0
M  V30 2876 H 495.408 -0.443485 -6.90277 0
M  V30 2877 H 496.275 1.75537 -7.96793 0
M  V30 2878 P 500.237 2.75334 -8.47391 0
M  V30 2879 O 500.457 3.84128 -9.44797 0
M  V30 2880 O 501.027 1.51947 -8.68712 0
M  V30 2881 O 500.487 3.29363 -6.99321 0
M  V30 2882 C 499.547 4.24011 -6.4274 0
M  V30 2883 C 500.277 5.20775 -5.52155 0
M  V30 2884 O 500.487 4.56534 -4.22446 0
M  V30 2885 C 501.677 5.62629 -5.96531 0
M  V30 2886 O 502.067 6.87667 -5.41053 0
M  V30 2887 C 502.557 4.52537 -5.39283 0
M  V30 2888 C 501.847 4.20027 -4.08623 0
M  V30 2889 N 501.897 2.76189 -3.71603 0
M  V30 2890 C 501.817 1.64862 -4.52822 0
M  V30 2891 N 501.897 0.512671 -3.88633 0
M  V30 2892 C 502.037 0.888083 -2.54977 0
M  V30 2893 C 502.167 0.094668 -1.38677 0
M  V30 2894 O 502.187 -1.13053 -1.28163 0
M  V30 2895 N 502.287 0.890102 -0.232633 0
M  V30 2896 C 502.287 2.26958 -0.21772 0
M  V30 2897 N 502.417 2.84626 0.97925 0
M  V30 2898 N 502.157 3.0178 -1.31033 0
M  V30 2899 C 502.037 2.26781 -2.43843 0
M  V30 2900 H 499.058 4.797 -7.24003 0
M  V30 2901 H 498.788 3.69856 -5.84513 0
M  V30 2902 H 499.655 6.10356 -5.41441 0
M  V30 2903 H 502.31 4.79061 -3.27488 0
M  V30 2904 H 502.589 3.64906 -6.05785 0
M  V30 2905 H 503.581 4.8868 -5.2125 0
M  V30 2906 H 501.747 5.66726 -7.06352 0
M  V30 2907 H 501.698 1.71169 -5.60966 0
M  V30 2908 H 502.38 0.419134 0.644739 0
M  V30 2909 H 502.417 3.87332 1.06098 0
M  V30 2910 H 502.518 2.26417 1.82483 0
M  V30 2911 P 503.617 7.20834 -5.23717 0
M  V30 2912 O 503.837 8.66104 -5.38572 0
M  V30 2913 O 504.407 6.33544 -6.1349 0
M  V30 2914 O 503.867 6.7751 -3.72168 0
M  V30 2915 C 502.927 7.20825 -2.7076 0
M  V30 2916 C 503.657 7.45864 -1.40599 0
M  V30 2917 O 503.867 6.17651 -0.734225 0
M  V30 2918 C 505.057 8.05808 -1.51899 0
M  V30 2919 O 505.447 8.74358 -0.335205 0
M  V30 2920 C 505.937 6.83093 -1.70294 0
M  V30 2921 C 505.227 5.79992 -0.836974 0
M  V30 2922 N 505.277 4.41864 -1.38293 0
M  V30 2923 C 505.197 3.99538 -2.69438 0
M  V30 2924 N 505.277 2.69909 -2.84277 0
M  V30 2925 C 505.417 2.21719 -1.5408 0
M  V30 2926 C 505.547 0.891712 -1.06628 0
M  V30 2927 N 505.667 0.856846 0.334985 0
M  V30 2928 C 505.667 1.9641 1.15789 0
M  V30 2929 N 505.797 1.72708 2.46522 0
M  V30 2930 N 505.537 3.21165 0.713741 0
M  V30 2931 C 505.417 3.26797 -0.639748 0
M  V30 2932 H 502.438 8.13644 -3.0377 0
M  V30 2933 H 502.168 6.42788 -2.55485 0
M  V30 2934 H 503.035 8.12039 -0.792769 0
M  V30 2935 P 506.997 8.91 3.06942e-12 0
M  V30 2936 O 507.217 10.1726 0.733694 0
M  V30 2937 O 507.787 8.73148 -1.23936 0
M  V30 2938 O 507.247 7.66872 0.971405 0
M  V30 2939 C 506.307 7.42309 2.04641 0
M  V30 2940 C 507.037 6.86059 3.24661 0
M  V30 2941 O 507.247 5.42847 3.03646 0
M  V30 2942 C 508.437 7.41196 3.50753 0
M  V30 2943 O 508.827 7.27073 4.86816 0
M  V30 2944 C 509.317 6.5273 2.63741 0
M  V30 2945 C 508.607 5.1842 2.73198 0
M  V30 2946 N 508.657 4.38762 1.4784 0
M  V30 2947 H 505.818 8.36803 2.32493 0
M  V30 2948 H 505.548 6.70197 1.71129 0
M  V30 2949 H 506.415 7.03551 4.13168 0
M  V30 2950 P 510.377 7.20834 5.23717 0
M  V30 2951 O 510.597 7.7993 6.57351 0
M  V30 2952 O 511.167 7.79328 4.13004 0
M  V30 2953 O 510.627 5.63315 5.29344 0
M  V30 2954 C 509.687 4.80193 6.01798 0
M  V30 2955 C 510.417 3.64202 6.65911 0
M  V30 2956 O 510.627 2.60694 5.64732 0
M  V30 2957 C 511.817 3.93473 7.1943 0
M  V30 2958 O 512.207 3.02071 8.21205 0
M  V30 2959 C 512.697 3.73047 5.97036 0
M  V30 2960 C 511.987 2.58828 5.25741 0
M  V30 2961 N 512.037 2.6801 3.77422 0
M  V30 2962 C 512.187 1.50443 3.07133 0
M  V30 2963 O 512.277 0.419406 3.61576 0
M  V30 2964 N 512.227 1.6403 1.69677 0
M  V30 2965 C 512.137 2.81206 0.986255 0
M  V30 2966 O 512.187 2.80892 -0.249754 0
M  V30 2967 C 511.987 3.99158 1.80325 0
M  V30 2968 C 511.877 5.29309 1.06921 0
M  V30 2969 C 511.937 3.89779 3.1476 0
M  V30 2970 H 509.197 5.40332 6.79951 0
M  V30 2971 H 508.928 4.41549 5.32301 0
M  V30 2972 H 509.795 3.26331 7.47797 0
M  V30 2973 H 512.45 1.6395 5.56554 0
M  V30 2974 H 512.729 4.63439 5.3432 0
M  V30 2975 H 513.721 3.44728 6.25838 0
M  V30 2976 H 511.887 4.96652 7.57263 0
M  V30 2977 H 511.816 4.80159 3.74441 0
M  V30 2978 H 512.846 5.81459 1.09608 0
M  V30 2979 H 511.109 5.9187 1.54487 0
M  V30 2980 H 511.597 5.10095 0.0220288 0
M  V30 2981 H 512.333 0.798962 1.16664 0
M  V30 2982 P 513.757 2.75334 8.47391 0
M  V30 2983 O 513.977 2.44571 9.90142 0
M  V30 2984 O 514.547 3.87688 7.92115 0
M  V30 2985 O 514.007 1.4459 7.59357 0
M  V30 2986 C 513.067 0.347608 7.69215 0
M  V30 2987 C 513.797 -0.96767 7.52806 0
M  V30 2988 O 514.007 -1.21036 6.1011 0
M  V30 2989 C 515.197 -1.04544 8.13308 0
M  V30 2990 O 515.587 -2.38311 8.41922 0
M  V30 2991 C 516.077 -0.491279 7.02284 0
M  V30 2992 C 515.367 -0.996264 5.77469 0
M  V30 2993 N 515.417 -0.0501916 4.62973 0
M  V30 2994 C 515.337 1.32786 4.63244 0
M  V30 2995 N 515.417 1.86957 3.44545 0
M  V30 2996 C 515.557 0.780241 2.58481 0
M  V30 2997 C 515.687 0.738536 1.17757 0
M  V30 2998 O 515.707 1.66794 0.372349 0
M  V30 2999 N 515.807 -0.58337 0.711393 0
M  V30 3000 C 515.807 -1.70816 1.51017 0
M  V30 3001 N 515.937 -2.87826 0.880757 0
M  V30 3002 N 515.677 -1.67126 2.8339 0
M  V30 3003 C 515.557 -0.401421 3.30572 0
M  V30 3004 H 512.578 0.374722 8.67691 0
M  V30 3005 H 512.308 0.443485 6.90277 0
M  V30 3006 H 513.175 -1.75537 7.96793 0
M  V30 3007 H 515.83 -1.95076 5.46529 0
M  V30 3008 H 516.109 0.608565 7.04577 0
M  V30 3009 H 517.101 -0.889672 7.08939 0
M  V30 3010 H 515.267 -0.43308 9.04564 0
M  V30 3011 H 515.218 1.91249 5.54442 0
M  V30 3012 H 515.9 -0.718054 -0.275244 0
M  V30 3013 H 515.937 -3.75721 1.41832 0
M  V30 3014 H 516.038 -2.90436 -0.145468 0
M  V30 3015 P 517.137 -2.75334 8.47391 0
M  V30 3016 O 517.357 -3.84128 9.44797 0
M  V30 3017 O 517.927 -1.51947 8.68712 0
M  V30 3018 O 517.387 -3.29363 6.99321 0
M  V30 3019 C 516.447 -4.24011 6.4274 0
M  V30 3020 C 517.177 -5.20775 5.52155 0
M  V30 3021 O 517.387 -4.56534 4.22446 0
M  V30 3022 C 518.577 -5.62629 5.96531 0
M  V30 3023 O 518.967 -6.87667 5.41053 0
M  V30 3024 C 519.457 -4.52537 5.39283 0
M  V30 3025 C 518.747 -4.20027 4.08623 0
M  V30 3026 N 518.797 -2.76189 3.71603 0
M  V30 3027 H 515.958 -4.797 7.24003 0
M  V30 3028 H 515.688 -3.69856 5.84513 0
M  V30 3029 H 516.555 -6.10356 5.41441 0
M  V30 3030 P 520.517 -7.20834 5.23717 0
M  V30 3031 O 520.737 -8.66274 5.38678 0
M  V30 3032 O 521.307 -6.33687 6.13629 0
M  V30 3033 O 520.767 -6.7751 3.72168 0
M  V30 3034 C 519.827 -7.20919 2.70795 0
M  V30 3035 C 520.557 -7.45864 1.40599 0
M  V30 3036 O 520.767 -6.17751 0.734343 0
M  V30 3037 C 521.957 -8.05906 1.51917 0
M  V30 3038 O 522.347 -8.74358 0.335205 0
M  V30 3039 C 522.837 -6.83093 1.70294 0
M  V30 3040 C 522.127 -5.79992 0.836974 0
M  V30 3041 N 522.177 -4.41864 1.38293 0
M  V30 3042 C 522.097 -4.02089 2.69407 0
M  V30 3043 N 522.167 -2.73403 2.85089 0
M  V30 3044 C 522.317 -2.25086 1.5642 0
M  V30 3045 C 522.447 -0.942887 1.04836 0
M  V30 3046 N 522.457 0.150999 1.80369 0
M  V30 3047 N 522.567 -0.812565 -0.28167 0
M  V30 3048 C 522.557 -1.90572 -1.03784 0
M  V30 3049 N 522.437 -3.167 -0.683905 0
M  V30 3050 C 522.317 -3.26538 0.652815 0
M  V30 3051 H 519.339 -8.13738 3.03804 0
M  V30 3052 H 519.067 -6.42974 2.55559 0
M  V30 3053 H 519.935 -8.12139 0.792866 0
M  V30 3054 H 522.59 -5.80178 -0.160643 0
M  V30 3055 H 522.87 -6.51379 2.75643 0
M  V30 3056 H 523.861 -7.01832 1.3448 0
M  V30 3057 H 522.027 -8.73771 2.38364 0
M  V30 3058 H 521.986 -4.7189 3.52311 0
M  V30 3059 H 522.367 0.0721434 2.82608 0
M  V30 3060 H 522.556 1.0785 1.36544 0
M  V30 3061 H 522.664 -1.73207 -2.10241 0
M  V30 3062 P 523.897 -8.91 -3.22661e-12 0
M  V30 3063 O 524.117 -10.1726 -0.733694 0
M  V30 3064 O 524.687 -8.73148 1.23936 0
M  V30 3065 O 524.147 -7.66872 -0.971405 0
M  V30 3066 C 523.207 -7.42309 -2.04641 0
M  V30 3067 C 523.937 -6.86059 -3.24661 0
M  V30 3068 O 524.147 -5.42847 -3.03646 0
M  V30 3069 C 525.337 -7.41196 -3.50753 0
M  V30 3070 O 525.727 -7.27073 -4.86816 0
M  V30 3071 C 526.217 -6.5273 -2.63741 0
M  V30 3072 C 525.507 -5.1842 -2.73198 0
M  V30 3073 N 525.557 -4.38762 -1.4784 0
M  V30 3074 H 522.718 -8.36803 -2.32493 0
M  V30 3075 H 522.448 -6.70197 -1.71129 0
M  V30 3076 H 523.315 -7.03551 -4.13168 0
M  V30 3077 P 527.277 -7.20834 -5.23717 0
M  V30 3078 O 527.497 -7.79853 -6.57286 0
M  V30 3079 O 528.067 -7.79239 -4.12957 0
M  V30 3080 O 527.527 -5.63315 -5.29344 0
M  V30 3081 C 526.587 -4.80255 -6.01876 0
M  V30 3082 C 527.317 -3.64202 -6.65911 0
M  V30 3083 O 527.527 -2.60694 -5.64732 0
M  V30 3084 C 528.717 -3.93473 -7.1943 0
M  V30 3085 O 529.107 -3.02071 -8.21205 0
M  V30 3086 C 529.597 -3.73047 -5.97036 0
M  V30 3087 C 528.887 -2.58828 -5.25741 0
M  V30 3088 N 528.937 -2.68068 -3.77503 0
M  V30 3089 H 526.098 -5.40332 -6.79951 0
M  V30 3090 H 525.828 -4.41613 -5.32378 0
M  V30 3091 H 526.695 -3.26331 -7.47797 0
M  V30 3092 P 530.657 -2.75334 -8.47391 0
M  V30 3093 O 530.877 -2.44571 -9.90142 0
M  V30 3094 O 531.447 -3.87688 -7.92115 0
M  V30 3095 O 530.907 -1.4459 -7.59357 0
M  V30 3096 C 529.967 -0.347608 -7.69215 0
M  V30 3097 C 530.697 0.96767 -7.52806 0
M  V30 3098 O 530.907 1.21036 -6.1011 0
M  V30 3099 C 532.097 1.04544 -8.13308 0
M  V30 3100 O 532.487 2.38311 -8.41922 0
M  V30 3101 C 532.977 0.491279 -7.02284 0
M  V30 3102 C 532.267 0.996264 -5.77469 0
M  V30 3103 N 532.317 0.0501916 -4.62973 0
M  V30 3104 H 529.478 -0.374722 -8.67691 0
M  V30 3105 H 529.208 -0.443485 -6.90277 0
M  V30 3106 H 530.075 1.75537 -7.96793 0
M  V30 3107 P 534.037 2.75334 -8.47391 0
M  V30 3108 O 534.257 3.84128 -9.44797 0
M  V30 3109 O 534.827 1.51947 -8.68712 0
M  V30 3110 O 534.287 3.29363 -6.99321 0
M  V30 3111 C 533.347 4.24011 -6.4274 0
M  V30 3112 C 534.077 5.20775 -5.52155 0
M  V30 3113 O 534.287 4.56534 -4.22446 0
M  V30 3114 C 535.477 5.62629 -5.96531 0
M  V30 3115 O 535.867 6.87667 -5.41053 0
M  V30 3116 C 536.357 4.52537 -5.39283 0
M  V30 3117 C 535.647 4.20027 -4.08623 0
M  V30 3118 N 535.697 2.76189 -3.71603 0
M  V30 3119 H 532.858 4.797 -7.24003 0
M  V30 3120 H 532.588 3.69856 -5.84513 0
M  V30 3121 H 533.455 6.10356 -5.41441 0
M  V30 3122 P 537.417 7.20834 -5.23717 0
M  V30 3123 O 537.637 8.66274 -5.38678 0
M  V30 3124 O 538.207 6.33687 -6.13629 0
M  V30 3125 O 537.667 6.7751 -3.72168 0
M  V30 3126 C 536.727 7.20919 -2.70795 0
M  V30 3127 C 537.457 7.45864 -1.40599 0
M  V30 3128 O 537.667 6.17751 -0.734343 0
M  V30 3129 C 538.857 8.05906 -1.51917 0
M  V30 3130 O 539.247 8.74358 -0.335205 0
M  V30 3131 C 539.737 6.83093 -1.70294 0
M  V30 3132 C 539.027 5.79992 -0.836974 0
M  V30 3133 N 539.077 4.41864 -1.38293 0
M  V30 3134 C 538.997 4.02089 -2.69407 0
M  V30 3135 N 539.067 2.73403 -2.85089 0
M  V30 3136 C 539.217 2.25086 -1.5642 0
M  V30 3137 C 539.347 0.942887 -1.04836 0
M  V30 3138 N 539.357 -0.150999 -1.80369 0
M  V30 3139 N 539.467 0.812565 0.28167 0
M  V30 3140 C 539.457 1.90572 1.03784 0
M  V30 3141 N 539.337 3.167 0.683905 0
M  V30 3142 C 539.217 3.26538 -0.652815 0
M  V30 3143 H 536.239 8.13738 -3.03804 0
M  V30 3144 H 535.967 6.42974 -2.55559 0
M  V30 3145 H 536.835 8.12139 -0.792866 0
M  V30 3146 H 539.49 5.80178 0.160643 0
M  V30 3147 H 539.77 6.51379 -2.75643 0
M  V30 3148 H 540.761 7.01832 -1.3448 0
M  V30 3149 H 538.927 8.73771 -2.38364 0
M  V30 3150 H 538.886 4.7189 -3.52311 0
M  V30 3151 H 539.267 -0.0721434 -2.82608 0
M  V30 3152 H 539.456 -1.0785 -1.36544 0
M  V30 3153 H 539.564 1.73207 2.10241 0
M  V30 3154 P 540.797 8.91 3.38379e-12 0
M  V30 3155 O 541.017 10.1726 0.733694 0
M  V30 3156 O 541.587 8.73148 -1.23936 0
M  V30 3157 O 541.047 7.66872 0.971405 0
M  V30 3158 C 540.107 7.42309 2.04641 0
M  V30 3159 C 540.837 6.86059 3.24661 0
M  V30 3160 O 541.047 5.42847 3.03646 0
M  V30 3161 C 542.237 7.41196 3.50753 0
M  V30 3162 O 542.627 7.27073 4.86816 0
M  V30 3163 C 543.117 6.5273 2.63741 0
M  V30 3164 C 542.407 5.1842 2.73198 0
M  V30 3165 N 542.457 4.38762 1.4784 0
M  V30 3166 H 539.618 8.36803 2.32493 0
M  V30 3167 H 539.348 6.70197 1.71129 0
M  V30 3168 H 540.215 7.03551 4.13168 0
M  V30 3169 P 544.177 7.20834 5.23717 0
M  V30 3170 O 544.397 7.79853 6.57286 0
M  V30 3171 O 544.967 7.79239 4.12957 0
M  V30 3172 O 544.427 5.63315 5.29344 0
M  V30 3173 C 543.487 4.80255 6.01876 0
M  V30 3174 C 544.217 3.64202 6.65911 0
M  V30 3175 O 544.427 2.60694 5.64732 0
M  V30 3176 C 545.617 3.93473 7.1943 0
M  V30 3177 O 546.007 3.02071 8.21205 0
M  V30 3178 C 546.497 3.73047 5.97036 0
M  V30 3179 C 545.787 2.58828 5.25741 0
M  V30 3180 N 545.837 2.68068 3.77503 0
M  V30 3181 H 542.998 5.40332 6.79951 0
M  V30 3182 H 542.728 4.41613 5.32378 0
M  V30 3183 H 543.595 3.26331 7.47797 0
M  V30 3184 P 547.557 2.75334 8.47391 0
M  V30 3185 O 547.777 2.44571 9.90142 0
M  V30 3186 O 548.347 3.87688 7.92115 0
M  V30 3187 O 547.807 1.4459 7.59357 0
M  V30 3188 C 546.867 0.347608 7.69215 0
M  V30 3189 C 547.597 -0.96767 7.52806 0
M  V30 3190 O 547.807 -1.21036 6.1011 0
M  V30 3191 C 548.997 -1.04544 8.13308 0
M  V30 3192 O 549.387 -2.38311 8.41922 0
M  V30 3193 C 549.877 -0.491279 7.02284 0
M  V30 3194 C 549.167 -0.996264 5.77469 0
M  V30 3195 N 549.217 -0.0501916 4.62973 0
M  V30 3196 H 546.378 0.374722 8.67691 0
M  V30 3197 H 546.108 0.443485 6.90277 0
M  V30 3198 H 546.975 -1.75537 7.96793 0
M  V30 3199 P 550.937 -2.75334 8.47391 0
M  V30 3200 O 551.157 -3.84128 9.44797 0
M  V30 3201 O 551.727 -1.51947 8.68712 0
M  V30 3202 O 551.187 -3.29363 6.99321 0
M  V30 3203 C 550.247 -4.24011 6.4274 0
M  V30 3204 C 550.977 -5.20775 5.52155 0
M  V30 3205 O 551.187 -4.56534 4.22446 0
M  V30 3206 C 552.377 -5.62629 5.96531 0
M  V30 3207 O 552.767 -6.87667 5.41053 0
M  V30 3208 C 553.257 -4.52537 5.39283 0
M  V30 3209 C 552.547 -4.20027 4.08623 0
M  V30 3210 N 552.597 -2.76189 3.71603 0
M  V30 3211 H 549.758 -4.797 7.24003 0
M  V30 3212 H 549.488 -3.69856 5.84513 0
M  V30 3213 H 550.355 -6.10356 5.41441 0
M  V30 3214 P 554.317 -7.20834 5.23717 0
M  V30 3215 O 554.537 -8.66274 5.38678 0
M  V30 3216 O 555.107 -6.33687 6.13629 0
M  V30 3217 O 554.567 -6.7751 3.72168 0
M  V30 3218 C 553.627 -7.20919 2.70795 0
M  V30 3219 C 554.357 -7.45864 1.40599 0
M  V30 3220 O 554.567 -6.17751 0.734343 0
M  V30 3221 C 555.757 -8.05906 1.51917 0
M  V30 3222 O 556.147 -8.74358 0.335205 0
M  V30 3223 C 556.637 -6.83093 1.70294 0
M  V30 3224 C 555.927 -5.79992 0.836974 0
M  V30 3225 N 555.977 -4.41864 1.38293 0
M  V30 3226 C 555.897 -4.02089 2.69407 0
M  V30 3227 N 555.967 -2.73403 2.85089 0
M  V30 3228 C 556.117 -2.25086 1.5642 0
M  V30 3229 C 556.247 -0.942887 1.04836 0
M  V30 3230 N 556.257 0.150999 1.80369 0
M  V30 3231 N 556.367 -0.812565 -0.28167 0
M  V30 3232 C 556.357 -1.90572 -1.03784 0
M  V30 3233 N 556.237 -3.167 -0.683905 0
M  V30 3234 C 556.117 -3.26538 0.652815 0
M  V30 3235 H 553.139 -8.13738 3.03804 0
M  V30 3236 H 552.867 -6.42974 2.55559 0
M  V30 3237 H 553.735 -8.12139 0.792866 0
M  V30 3238 H 556.39 -5.80178 -0.160643 0
M  V30 3239 H 556.67 -6.51379 2.75643 0
M  V30 3240 H 557.661 -7.01832 1.3448 0
M  V30 3241 H 555.827 -8.73771 2.38364 0
M  V30 3242 H 555.786 -4.7189 3.52311 0
M  V30 3243 H 556.167 0.0721434 2.82608 0
M  V30 3244 H 556.356 1.0785 1.36544 0
M  V30 3245 H 556.464 -1.73207 -2.10241 0
M  V30 3246 P 557.697 -8.91 -3.54097e-12 0
M  V30 3247 O 557.917 -10.1726 -0.733694 0
M  V30 3248 O 558.487 -8.73148 1.23936 0
M  V30 3249 O 557.947 -7.66872 -0.971405 0
M  V30 3250 C 557.007 -7.42309 -2.04641 0
M  V30 3251 C 557.737 -6.86059 -3.24661 0
M  V30 3252 O 557.947 -5.42847 -3.03646 0
M  V30 3253 C 559.137 -7.41196 -3.50753 0
M  V30 3254 O 559.527 -7.27073 -4.86816 0
M  V30 3255 C 560.017 -6.5273 -2.63741 0
M  V30 3256 C 559.307 -5.1842 -2.73198 0
M  V30 3257 N 559.357 -4.38762 -1.4784 0
M  V30 3258 H 556.518 -8.36803 -2.32493 0
M  V30 3259 H 556.248 -6.70197 -1.71129 0
M  V30 3260 H 557.115 -7.03551 -4.13168 0
M  V30 3261 P 561.077 -7.20834 -5.23717 0
M  V30 3262 O 561.297 -7.79853 -6.57286 0
M  V30 3263 O 561.867 -7.79239 -4.12957 0
M  V30 3264 O 561.327 -5.63315 -5.29344 0
M  V30 3265 C 560.387 -4.80255 -6.01876 0
M  V30 3266 C 561.117 -3.64202 -6.65911 0
M  V30 3267 O 561.327 -2.60694 -5.64732 0
M  V30 3268 C 562.517 -3.93473 -7.1943 0
M  V30 3269 O 562.907 -3.02071 -8.21205 0
M  V30 3270 C 563.397 -3.73047 -5.97036 0
M  V30 3271 C 562.687 -2.58828 -5.25741 0
M  V30 3272 N 562.737 -2.68068 -3.77503 0
M  V30 3273 H 559.898 -5.40332 -6.79951 0
M  V30 3274 H 559.628 -4.41613 -5.32378 0
M  V30 3275 H 560.495 -3.26331 -7.47797 0
M  V30 3276 P 564.457 -2.75334 -8.47391 0
M  V30 3277 O 564.677 -2.44619 -9.90336 0
M  V30 3278 O 565.247 -3.87776 -7.92294 0
M  V30 3279 O 564.707 -1.4459 -7.59357 0
M  V30 3280 C 563.767 -0.347653 -7.69315 0
M  V30 3281 C 564.497 0.96767 -7.52806 0
M  V30 3282 O 564.707 1.21055 -6.10208 0
M  V30 3283 C 565.897 1.04557 -8.13408 0
M  V30 3284 O 566.287 2.38311 -8.41922 0
M  V30 3285 C 566.777 0.491279 -7.02284 0
M  V30 3286 C 566.067 0.996264 -5.77469 0
M  V30 3287 N 566.117 0.0501916 -4.62973 0
M  V30 3288 C 566.037 -1.31969 -4.65661 0
M  V30 3289 N 566.107 -1.86649 -3.48119 0
M  V30 3290 C 566.257 -0.792089 -2.62406 0
M  V30 3291 C 566.387 -0.705684 -1.2207 0
M  V30 3292 N 566.397 -1.76207 -0.413762 0
M  V30 3293 N 566.507 0.518981 -0.685754 0
M  V30 3294 C 566.497 1.57595 -1.49174 0
M  V30 3295 N 566.377 1.62909 -2.80066 0
M  V30 3296 C 566.257 0.388195 -3.3073 0
M  V30 3297 H 563.279 -0.374765 -8.67791 0
M  V30 3298 H 563.007 -0.443613 -6.90476 0
M  V30 3299 H 563.875 1.75559 -7.96891 0
M  V30 3300 H 566.53 1.94563 -5.46818 0
M  V30 3301 H 566.81 -0.608651 -7.04676 0
M  V30 3302 H 567.801 0.889796 -7.09039 0
M  V30 3303 H 565.967 0.433128 -9.04664 0
M  V30 3304 H 565.926 -1.89246 -5.57664 0
M  V30 3305 H 566.307 -2.71005 -0.804694 0
M  V30 3306 H 566.496 -1.63189 0.603768 0
M  V30 3307 H 566.604 2.53475 -0.997614 0
M  V30 3308 P 567.837 2.75334 -8.47391 0
M  V30 3309 O 568.057 3.84128 -9.44797 0
M  V30 3310 O 568.627 1.51947 -8.68712 0
M  V30 3311 O 568.087 3.29363 -6.99321 0
M  V30 3312 C 567.147 4.24011 -6.4274 0
M  V30 3313 C 567.877 5.20775 -5.52155 0
M  V30 3314 O 568.087 4.56534 -4.22446 0
M  V30 3315 C 569.277 5.62629 -5.96531 0
M  V30 3316 O 569.667 6.87667 -5.41053 0
M  V30 3317 C 570.157 4.52537 -5.39283 0
M  V30 3318 C 569.447 4.20027 -4.08623 0
M  V30 3319 N 569.497 2.76189 -3.71603 0
M  V30 3320 H 566.658 4.797 -7.24003 0
M  V30 3321 H 566.388 3.69856 -5.84513 0
M  V30 3322 H 567.255 6.10356 -5.41441 0
M  V30 3323 P 571.217 7.20834 -5.23717 0
M  V30 3324 O 571.437 8.66104 -5.38572 0
M  V30 3325 O 572.007 6.33544 -6.1349 0
M  V30 3326 O 571.467 6.7751 -3.72168 0
M  V30 3327 C 570.527 7.20825 -2.7076 0
M  V30 3328 C 571.257 7.45864 -1.40599 0
M  V30 3329 O 571.467 6.17651 -0.734225 0
M  V30 3330 C 572.657 8.05808 -1.51899 0
M  V30 3331 O 573.047 8.74358 -0.335205 0
M  V30 3332 C 573.537 6.83093 -1.70294 0
M  V30 3333 C 572.827 5.79992 -0.836974 0
M  V30 3334 N 572.877 4.41864 -1.38293 0
M  V30 3335 H 570.038 8.13644 -3.0377 0
M  V30 3336 H 569.768 6.42788 -2.55485 0
M  V30 3337 H 570.635 8.12039 -0.792769 0
M  V30 3338 P 574.597 8.91 3.69815e-12 0
M  V30 3339 O 574.817 10.1726 0.733694 0
M  V30 3340 O 575.387 8.73148 -1.23936 0
M  V30 3341 O 574.847 7.66872 0.971405 0
M  V30 3342 C 573.907 7.42309 2.04641 0
M  V30 3343 C 574.637 6.86059 3.24661 0
M  V30 3344 O 574.847 5.42847 3.03646 0
M  V30 3345 C 576.037 7.41196 3.50753 0
M  V30 3346 O 576.427 7.27073 4.86816 0
M  V30 3347 C 576.917 6.5273 2.63741 0
M  V30 3348 C 576.207 5.1842 2.73198 0
M  V30 3349 N 576.257 4.38762 1.4784 0
M  V30 3350 H 573.418 8.36803 2.32493 0
M  V30 3351 H 573.148 6.70197 1.71129 0
M  V30 3352 H 574.015 7.03551 4.13168 0
M  V30 3353 P 577.977 7.20834 5.23717 0
M  V30 3354 O 578.197 7.80006 6.57415 0
M  V30 3355 O 578.767 7.79416 4.13051 0
M  V30 3356 O 578.227 5.63315 5.29344 0
M  V30 3357 C 577.287 4.80318 6.01954 0
M  V30 3358 C 578.017 3.64202 6.65911 0
M  V30 3359 O 578.227 2.60736 5.64823 0
M  V30 3360 C 579.417 3.93521 7.19518 0
M  V30 3361 O 579.807 3.02071 8.21205 0
M  V30 3362 C 580.297 3.73047 5.97036 0
M  V30 3363 C 579.587 2.58828 5.25741 0
M  V30 3364 N 579.637 2.68068 3.77503 0
M  V30 3365 H 576.799 5.40394 6.8003 0
M  V30 3366 H 576.527 4.41741 5.32532 0
M  V30 3367 H 577.395 3.26371 7.47889 0
M  V30 3368 H 580.05 1.64007 5.56746 0
M  V30 3369 H 580.33 4.63439 5.3432 0
M  V30 3370 H 581.321 3.44776 6.25925 0
M  V30 3371 H 579.487 4.96707 7.57347 0
M  V30 3372 P 581.357 2.75334 8.47391 0
M  V30 3373 O 581.577 2.44571 9.90142 0
M  V30 3374 O 582.147 3.87688 7.92115 0
M  V30 3375 O 581.607 1.4459 7.59357 0
M  V30 3376 C 580.667 0.347608 7.69215 0
M  V30 3377 C 581.397 -0.96767 7.52806 0
M  V30 3378 O 581.607 -1.21036 6.1011 0
M  V30 3379 C 582.797 -1.04544 8.13308 0
M  V30 3380 O 583.187 -2.38311 8.41922 0
M  V30 3381 C 583.677 -0.491279 7.02284 0
M  V30 3382 C 582.967 -0.996264 5.77469 0
M  V30 3383 N 583.017 -0.0501916 4.62973 0
M  V30 3384 H 580.178 0.374722 8.67691 0
M  V30 3385 H 579.908 0.443485 6.90277 0
M  V30 3386 H 580.775 -1.75537 7.96793 0
M  V30 3387 P 584.737 -2.75334 8.47391 0
M  V30 3388 O 584.957 -3.84128 9.44797 0
M  V30 3389 O 585.527 -1.51947 8.68712 0
M  V30 3390 O 584.987 -3.29363 6.99321 0
M  V30 3391 C 584.047 -4.24011 6.4274 0
M  V30 3392 C 584.777 -5.20775 5.52155 0
M  V30 3393 O 584.987 -4.56534 4.22446 0
M  V30 3394 C 586.177 -5.62629 5.96531 0
M  V30 3395 O 586.567 -6.87667 5.41053 0
M  V30 3396 C 587.057 -4.52537 5.39283 0
M  V30 3397 C 586.347 -4.20027 4.08623 0
M  V30 3398 N 586.397 -2.76189 3.71603 0
M  V30 3399 H 583.558 -4.797 7.24003 0
M  V30 3400 H 583.288 -3.69856 5.84513 0
M  V30 3401 H 584.155 -6.10356 5.41441 0
M  V30 3402 P 588.117 -7.20834 5.23717 0
M  V30 3403 O 588.337 -8.66104 5.38572 0
M  V30 3404 O 588.907 -6.33544 6.1349 0
M  V30 3405 O 588.367 -6.7751 3.72168 0
M  V30 3406 C 587.427 -7.20825 2.7076 0
M  V30 3407 C 588.157 -7.45864 1.40599 0
M  V30 3408 O 588.367 -6.17651 0.734225 0
M  V30 3409 C 589.557 -8.05808 1.51899 0
M  V30 3410 O 589.947 -8.74358 0.335205 0
M  V30 3411 C 590.437 -6.83093 1.70294 0
M  V30 3412 C 589.727 -5.79992 0.836974 0
M  V30 3413 N 589.777 -4.41864 1.38293 0
M  V30 3414 C 589.697 -3.99538 2.69438 0
M  V30 3415 N 589.777 -2.69909 2.84277 0
M  V30 3416 C 589.917 -2.21719 1.5408 0
M  V30 3417 C 590.047 -0.891712 1.06628 0
M  V30 3418 N 590.167 -0.856846 -0.334985 0
M  V30 3419 C 590.167 -1.9641 -1.15789 0
M  V30 3420 N 590.297 -1.72708 -2.46522 0
M  V30 3421 N 590.037 -3.21165 -0.713741 0
M  V30 3422 C 589.917 -3.26797 0.639748 0
M  V30 3423 H 586.938 -8.13644 3.0377 0
M  V30 3424 H 586.668 -6.42788 2.55485 0
M  V30 3425 H 587.535 -8.12039 0.792769 0
M  V30 3426 P 591.496 -8.91 -3.85533e-12 0
M  V30 3427 O 591.716 -10.1726 -0.733694 0
M  V30 3428 O 592.286 -8.73148 1.23936 0
M  V30 3429 O 591.746 -7.66872 -0.971405 0
M  V30 3430 C 590.806 -7.42309 -2.04641 0
M  V30 3431 C 591.536 -6.86059 -3.24661 0
M  V30 3432 O 591.746 -5.42847 -3.03646 0
M  V30 3433 C 592.937 -7.41196 -3.50753 0
M  V30 3434 O 593.327 -7.27073 -4.86816 0
M  V30 3435 C 593.817 -6.5273 -2.63741 0
M  V30 3436 C 593.106 -5.1842 -2.73198 0
M  V30 3437 N 593.156 -4.38762 -1.4784 0
M  V30 3438 H 590.317 -8.36803 -2.32493 0
M  V30 3439 H 590.048 -6.70197 -1.71129 0
M  V30 3440 H 590.914 -7.03551 -4.13168 0
M  V30 3441 P 594.876 -7.20834 -5.23717 0
M  V30 3442 O 595.096 -7.79853 -6.57286 0
M  V30 3443 O 595.666 -7.79239 -4.12957 0
M  V30 3444 O 595.126 -5.63315 -5.29344 0
M  V30 3445 C 594.186 -4.80255 -6.01876 0
M  V30 3446 C 594.916 -3.64202 -6.65911 0
M  V30 3447 O 595.126 -2.60694 -5.64732 0
M  V30 3448 C 596.316 -3.93473 -7.1943 0
M  V30 3449 O 596.706 -3.02071 -8.21205 0
M  V30 3450 C 597.196 -3.73047 -5.97036 0
M  V30 3451 C 596.486 -2.58828 -5.25741 0
M  V30 3452 N 596.536 -2.68068 -3.77503 0
M  V30 3453 C 596.456 -3.79715 -2.96723 0
M  V30 3454 N 596.536 -3.5377 -1.68852 0
M  V30 3455 C 596.676 -2.15054 -1.63254 0
M  V30 3456 C 596.806 -1.28964 -0.518571 0
M  V30 3457 O 596.826 -1.56826 0.679156 0
M  V30 3458 N 596.926 0.0538097 -0.918425 0
M  V30 3459 C 596.926 0.494275 -2.22578 0
M  V30 3460 N 597.056 1.81086 -2.40434 0
M  V30 3461 N 596.796 -0.313645 -3.27502 0
M  V30 3462 C 596.676 -1.61829 -2.91033 0
M  V30 3463 H 593.697 -5.40332 -6.79951 0
M  V30 3464 H 593.427 -4.41613 -5.32378 0
M  V30 3465 H 594.294 -3.26331 -7.47797 0
M  V30 3466 H 596.949 -1.63422 -5.56814 0
M  V30 3467 H 597.228 -4.63374 -5.34244 0
M  V30 3468 H 598.22 -3.44728 -6.25838 0
M  V30 3469 H 596.386 -4.96652 -7.57263 0
M  V30 3470 H 596.337 -4.80617 -3.3614 0
M  V30 3471 H 597.019 0.742702 -0.199384 0
M  V30 3472 H 597.056 2.20598 -3.35588 0
M  V30 3473 H 597.157 2.43518 -1.58945 0
M  V30 3474 P 598.256 -2.75334 -8.47391 0
M  V30 3475 O 598.476 -2.44619 -9.90336 0
M  V30 3476 O 599.046 -3.87776 -7.92294 0
M  V30 3477 O 598.506 -1.4459 -7.59357 0
M  V30 3478 C 597.566 -0.347653 -7.69315 0
M  V30 3479 C 598.296 0.96767 -7.52806 0
M  V30 3480 O 598.506 1.21055 -6.10208 0
M  V30 3481 C 599.696 1.04557 -8.13408 0
M  V30 3482 O 600.086 2.38311 -8.41922 0
M  V30 3483 C 600.576 0.491279 -7.02284 0
M  V30 3484 C 599.866 0.996264 -5.77469 0
M  V30 3485 N 599.916 0.0501916 -4.62973 0
M  V30 3486 H 597.078 -0.374765 -8.67791 0
M  V30 3487 H 596.806 -0.443613 -6.90476 0
M  V30 3488 H 597.674 1.75559 -7.96891 0
M  V30 3489 H 600.329 1.94563 -5.46818 0
M  V30 3490 H 600.609 -0.608651 -7.04676 0
M  V30 3491 H 601.6 0.889796 -7.09039 0
M  V30 3492 H 599.766 0.433128 -9.04664 0
M  V30 3493 P 601.636 2.75334 -8.47391 0
M  V30 3494 O 601.856 3.84128 -9.44797 0
M  V30 3495 O 602.426 1.51947 -8.68712 0
M  V30 3496 O 601.886 3.29363 -6.99321 0
M  V30 3497 C 600.946 4.24011 -6.4274 0
M  V30 3498 C 601.676 5.20775 -5.52155 0
M  V30 3499 O 601.886 4.56534 -4.22446 0
M  V30 3500 C 603.076 5.62629 -5.96531 0
M  V30 3501 O 603.466 6.87667 -5.41053 0
M  V30 3502 C 603.956 4.52537 -5.39283 0
M  V30 3503 C 603.246 4.20027 -4.08623 0
M  V30 3504 N 603.296 2.76189 -3.71603 0
M  V30 3505 C 603.216 1.64862 -4.52822 0
M  V30 3506 N 603.296 0.512671 -3.88633 0
M  V30 3507 C 603.436 0.888083 -2.54977 0
M  V30 3508 C 603.566 0.094668 -1.38677 0
M  V30 3509 N 603.686 0.890102 -0.232633 0
M  V30 3510 C 603.686 2.26958 -0.21772 0
M  V30 3511 N 603.816 2.84626 0.97925 0
M  V30 3512 N 603.556 3.0178 -1.31033 0
M  V30 3513 C 603.436 2.26781 -2.43843 0
M  V30 3514 H 600.457 4.797 -7.24003 0
M  V30 3515 H 600.187 3.69856 -5.84513 0
M  V30 3516 H 601.054 6.10356 -5.41441 0
M  V30 3517 P 605.016 7.20834 -5.23717 0
M  V30 3518 O 605.236 8.66189 -5.38625 0
M  V30 3519 O 605.806 6.33615 -6.1356 0
M  V30 3520 O 605.266 6.7751 -3.72168 0
M  V30 3521 C 604.326 7.20732 -2.70725 0
M  V30 3522 C 605.056 7.45864 -1.40599 0
M  V30 3523 O 605.266 6.17651 -0.734225 0
M  V30 3524 C 606.456 8.05808 -1.51899 0
M  V30 3525 O 606.846 8.74358 -0.335205 0
M  V30 3526 C 607.336 6.83093 -1.70294 0
M  V30 3527 C 606.626 5.79992 -0.836974 0
M  V30 3528 N 606.676 4.41769 -1.38263 0
M  V30 3529 C 606.826 3.38591 -0.481702 0
M  V30 3530 O 606.916 3.56839 0.718452 0
M  V30 3531 N 606.866 2.1206 -1.03569 0
M  V30 3532 C 606.776 1.80696 -2.36966 0
M  V30 3533 C 606.626 2.94845 -3.23898 0
M  V30 3534 C 606.576 4.19803 -2.73435 0
M  V30 3535 H 603.836 8.13644 -3.0377 0
M  V30 3536 H 603.567 6.42695 -2.55448 0
M  V30 3537 H 604.434 8.12039 -0.792769 0
M  V30 3538 H 607.089 5.79978 0.160587 0
M  V30 3539 H 607.368 6.51379 -2.75643 0
M  V30 3540 H 608.36 7.01734 -1.34462 0
M  V30 3541 H 606.526 8.73674 -2.38337 0
M  V30 3542 H 606.455 5.04492 -3.4095 0
M  V30 3543 P 608.396 8.91 4.01252e-12 0
M  V30 3544 O 608.616 10.1726 0.733694 0
M  V30 3545 O 609.186 8.73148 -1.23936 0
M  V30 3546 O 608.646 7.66872 0.971405 0
M  V30 3547 C 607.706 7.42309 2.04641 0
M  V30 3548 C 608.436 6.86059 3.24661 0
M  V30 3549 O 608.646 5.42847 3.03646 0
M  V30 3550 C 609.836 7.41196 3.50753 0
M  V30 3551 O 610.226 7.27073 4.86816 0
M  V30 3552 C 610.716 6.5273 2.63741 0
M  V30 3553 C 610.006 5.1842 2.73198 0
M  V30 3554 N 610.056 4.38762 1.4784 0
M  V30 3555 H 607.217 8.36803 2.32493 0
M  V30 3556 H 606.947 6.70197 1.71129 0
M  V30 3557 H 607.814 7.03551 4.13168 0
M  V30 3558 P 611.776 7.20834 5.23717 0
M  V30 3559 O 611.996 7.79853 6.57286 0
M  V30 3560 O 612.566 7.79239 4.12957 0
M  V30 3561 O 612.026 5.63315 5.29344 0
M  V30 3562 C 611.086 4.80255 6.01876 0
M  V30 3563 C 611.816 3.64202 6.65911 0
M  V30 3564 O 612.026 2.60694 5.64732 0
M  V30 3565 C 613.216 3.93473 7.1943 0
M  V30 3566 O 613.606 3.02071 8.21205 0
M  V30 3567 C 614.096 3.73047 5.97036 0
M  V30 3568 C 613.386 2.58828 5.25741 0
M  V30 3569 N 613.436 2.68068 3.77503 0
M  V30 3570 H 610.597 5.40332 6.79951 0
M  V30 3571 H 610.327 4.41613 5.32378 0
M  V30 3572 H 611.194 3.26331 7.47797 0
M  V30 3573 P 615.156 2.75334 8.47391 0
M  V30 3574 O 615.376 2.44571 9.90142 0
M  V30 3575 O 615.946 3.87688 7.92115 0
M  V30 3576 O 615.406 1.4459 7.59357 0
M  V30 3577 C 614.466 0.347608 7.69215 0
M  V30 3578 C 615.196 -0.96767 7.52806 0
M  V30 3579 O 615.406 -1.21036 6.1011 0
M  V30 3580 C 616.596 -1.04544 8.13308 0
M  V30 3581 O 616.986 -2.38311 8.41922 0
M  V30 3582 C 617.476 -0.491279 7.02284 0
M  V30 3583 C 616.766 -0.996264 5.77469 0
M  V30 3584 N 616.816 -0.0501916 4.62973 0
M  V30 3585 H 613.977 0.374722 8.67691 0
M  V30 3586 H 613.707 0.443485 6.90277 0
M  V30 3587 H 614.574 -1.75537 7.96793 0
M  V30 3588 P 618.536 -2.75334 8.47391 0
M  V30 3589 O 618.756 -3.84128 9.44797 0
M  V30 3590 O 619.326 -1.51947 8.68712 0
M  V30 3591 O 618.786 -3.29363 6.99321 0
M  V30 3592 C 617.846 -4.24011 6.4274 0
M  V30 3593 C 618.576 -5.20775 5.52155 0
M  V30 3594 O 618.786 -4.56534 4.22446 0
M  V30 3595 C 619.976 -5.62629 5.96531 0
M  V30 3596 O 620.366 -6.87667 5.41053 0
M  V30 3597 C 620.856 -4.52537 5.39283 0
M  V30 3598 C 620.146 -4.20027 4.08623 0
M  V30 3599 N 620.196 -2.76189 3.71603 0
M  V30 3600 H 617.357 -4.797 7.24003 0
M  V30 3601 H 617.087 -3.69856 5.84513 0
M  V30 3602 H 617.954 -6.10356 5.41441 0
M  V30 3603 P 621.916 -7.20834 5.23717 0
M  V30 3604 O 622.136 -8.66104 5.38572 0
M  V30 3605 O 622.706 -6.33544 6.1349 0
M  V30 3606 O 622.166 -6.7751 3.72168 0
M  V30 3607 C 621.226 -7.20825 2.7076 0
M  V30 3608 C 621.956 -7.45864 1.40599 0
M  V30 3609 O 622.166 -6.17651 0.734225 0
M  V30 3610 C 623.356 -8.05808 1.51899 0
M  V30 3611 O 623.746 -8.74358 0.335205 0
M  V30 3612 C 624.236 -6.83093 1.70294 0
M  V30 3613 C 623.526 -5.79992 0.836974 0
M  V30 3614 N 623.576 -4.41864 1.38293 0
M  V30 3615 H 620.737 -8.13644 3.0377 0
M  V30 3616 H 620.467 -6.42788 2.55485 0
M  V30 3617 H 621.334 -8.12039 0.792769 0
M  V30 3618 P 625.296 -8.91 -4.1697e-12 0
M  V30 3619 O 625.516 -10.1726 -0.733694 0
M  V30 3620 O 626.086 -8.73148 1.23936 0
M  V30 3621 O 625.546 -7.66872 -0.971405 0
M  V30 3622 C 624.606 -7.42309 -2.04641 0
M  V30 3623 C 625.336 -6.86059 -3.24661 0
M  V30 3624 O 625.546 -5.42847 -3.03646 0
M  V30 3625 C 626.736 -7.41196 -3.50753 0
M  V30 3626 O 627.126 -7.27073 -4.86816 0
M  V30 3627 C 627.616 -6.5273 -2.63741 0
M  V30 3628 C 626.906 -5.1842 -2.73198 0
M  V30 3629 N 626.956 -4.38762 -1.4784 0
M  V30 3630 H 624.117 -8.36803 -2.32493 0
M  V30 3631 H 623.847 -6.70197 -1.71129 0
M  V30 3632 H 624.714 -7.03551 -4.13168 0
M  V30 3633 P 628.676 -7.20834 -5.23717 0
M  V30 3634 O 628.896 -7.79853 -6.57286 0
M  V30 3635 O 629.466 -7.79239 -4.12957 0
M  V30 3636 O 628.926 -5.63315 -5.29344 0
M  V30 3637 C 627.986 -4.80255 -6.01876 0
M  V30 3638 C 628.716 -3.64202 -6.65911 0
M  V30 3639 O 628.926 -2.60694 -5.64732 0
M  V30 3640 C 630.116 -3.93473 -7.1943 0
M  V30 3641 O 630.506 -3.02071 -8.21205 0
M  V30 3642 C 630.996 -3.73047 -5.97036 0
M  V30 3643 C 630.286 -2.58828 -5.25741 0
M  V30 3644 N 630.336 -2.68068 -3.77503 0
M  V30 3645 H 627.497 -5.40332 -6.79951 0
M  V30 3646 H 627.227 -4.41613 -5.32378 0
M  V30 3647 H 628.094 -3.26331 -7.47797 0
M  V30 3648 P 632.056 -2.75334 -8.47391 0
M  V30 3649 O 632.276 -2.44571 -9.90142 0
M  V30 3650 O 632.846 -3.87688 -7.92115 0
M  V30 3651 O 632.306 -1.4459 -7.59357 0
M  V30 3652 C 631.366 -0.347608 -7.69215 0
M  V30 3653 C 632.096 0.96767 -7.52806 0
M  V30 3654 O 632.306 1.21036 -6.1011 0
M  V30 3655 C 633.496 1.04544 -8.13308 0
M  V30 3656 O 633.886 2.38311 -8.41922 0
M  V30 3657 C 634.376 0.491279 -7.02284 0
M  V30 3658 C 633.666 0.996264 -5.77469 0
M  V30 3659 N 633.716 0.0501916 -4.62973 0
M  V30 3660 C 633.636 -1.32786 -4.63244 0
M  V30 3661 N 633.716 -1.86957 -3.44545 0
M  V30 3662 C 633.856 -0.780241 -2.58481 0
M  V30 3663 C 633.986 -0.738536 -1.17757 0
M  V30 3664 N 634.106 0.58337 -0.711393 0
M  V30 3665 C 634.106 1.70816 -1.51017 0
M  V30 3666 N 634.236 2.87826 -0.880757 0
M  V30 3667 N 633.976 1.67126 -2.8339 0
M  V30 3668 C 633.856 0.401421 -3.30572 0
M  V30 3669 H 630.877 -0.374722 -8.67691 0
M  V30 3670 H 630.607 -0.443485 -6.90277 0
M  V30 3671 H 631.474 1.75537 -7.96793 0
M  V30 3672 P 635.436 2.75334 -8.47391 0
M  V30 3673 O 635.656 3.84204 -9.44982 0
M  V30 3674 O 636.226 1.51982 -8.68909 0
M  V30 3675 O 635.686 3.29363 -6.99321 0
M  V30 3676 C 634.746 4.24066 -6.42823 0
M  V30 3677 C 635.476 5.20775 -5.52155 0
M  V30 3678 O 635.686 4.56607 -4.22514 0
M  V30 3679 C 636.876 5.62697 -5.96604 0
M  V30 3680 O 637.266 6.87667 -5.41053 0
M  V30 3681 C 637.756 4.52537 -5.39283 0
M  V30 3682 C 637.046 4.20027 -4.08623 0
M  V30 3683 N 637.096 2.76189 -3.71603 0
M  V30 3684 C 637.016 1.66944 -4.54297 0
M  V30 3685 N 637.086 0.536169 -3.91344 0
M  V30 3686 C 637.236 0.901569 -2.58849 0
M  V30 3687 C 637.366 0.146599 -1.40236 0
M  V30 3688 N 637.376 -1.18234 -1.37046 0
M  V30 3689 N 637.486 0.822941 -0.249738 0
M  V30 3690 C 637.476 2.15179 -0.280525 0
M  V30 3691 N 637.356 2.96414 -1.30822 0
M  V30 3692 C 637.236 2.25804 -2.44748 0
M  V30 3693 H 634.258 4.79756 -7.24086 0
M  V30 3694 H 633.986 3.69963 -5.84682 0
M  V30 3695 H 634.854 6.10431 -5.41508 0
M  V30 3696 H 637.509 4.78816 -3.28024 0
M  V30 3697 H 637.789 3.64957 -6.05871 0
M  V30 3698 H 638.78 4.88748 -5.21323 0
M  V30 3699 H 636.946 5.66789 -7.0643 0
M  V30 3700 H 636.905 1.74684 -5.62396 0
M  V30 3701 H 637.286 -1.71949 -2.24394 0
M  V30 3702 H 637.475 -1.67511 -0.470742 0
M  V30 3703 H 637.583 2.63704 0.6828 0
M  V30 3704 P 638.816 7.20834 -5.23717 0
M  V30 3705 O 639.036 8.66104 -5.38572 0
M  V30 3706 O 639.606 6.33544 -6.1349 0
M  V30 3707 O 639.066 6.7751 -3.72168 0
M  V30 3708 C 638.126 7.20825 -2.7076 0
M  V30 3709 C 638.856 7.45864 -1.40599 0
M  V30 3710 O 639.066 6.17651 -0.734225 0
M  V30 3711 C 640.256 8.05808 -1.51899 0
M  V30 3712 O 640.646 8.74358 -0.335205 0
M  V30 3713 C 641.136 6.83093 -1.70294 0
M  V30 3714 C 640.426 5.79992 -0.836974 0
M  V30 3715 N 640.476 4.41864 -1.38293 0
M  V30 3716 H 637.637 8.13644 -3.0377 0
M  V30 3717 H 637.367 6.42788 -2.55485 0
M  V30 3718 H 638.234 8.12039 -0.792769 0
M  V30 3719 P 642.196 8.91 4.32688e-12 0
M  V30 3720 O 642.416 10.1726 0.733694 0
M  V30 3721 O 642.986 8.73148 -1.23936 0
M  V30 3722 O 642.446 7.66872 0.971405 0
M  V30 3723 C 641.506 7.42309 2.04641 0
M  V30 3724 C 642.236 6.86059 3.24661 0
M  V30 3725 O 642.446 5.42847 3.03646 0
M  V30 3726 C 643.636 7.41196 3.50753 0
M  V30 3727 O 644.026 7.27073 4.86816 0
M  V30 3728 C 644.516 6.5273 2.63741 0
M  V30 3729 C 643.806 5.1842 2.73198 0
M  V30 3730 N 643.856 4.38762 1.4784 0
M  V30 3731 H 641.017 8.36803 2.32493 0
M  V30 3732 H 640.747 6.70197 1.71129 0
M  V30 3733 H 641.614 7.03551 4.13168 0
M  V30 3734 P 645.576 7.20834 5.23717 0
M  V30 3735 O 645.796 7.79853 6.57286 0
M  V30 3736 O 646.366 7.79239 4.12957 0
M  V30 3737 O 645.826 5.63315 5.29344 0
M  V30 3738 C 644.886 4.80255 6.01876 0
M  V30 3739 C 645.616 3.64202 6.65911 0
M  V30 3740 O 645.826 2.60694 5.64732 0
M  V30 3741 C 647.016 3.93473 7.1943 0
M  V30 3742 O 647.406 3.02071 8.21205 0
M  V30 3743 C 647.896 3.73047 5.97036 0
M  V30 3744 C 647.186 2.58828 5.25741 0
M  V30 3745 N 647.236 2.68068 3.77503 0
M  V30 3746 C 647.156 3.79715 2.96723 0
M  V30 3747 N 647.236 3.5377 1.68852 0
M  V30 3748 C 647.376 2.15054 1.63254 0
M  V30 3749 C 647.506 1.28964 0.518571 0
M  V30 3750 N 647.626 -0.0538097 0.918425 0
M  V30 3751 C 647.626 -0.494275 2.22578 0
M  V30 3752 N 647.756 -1.81086 2.40434 0
M  V30 3753 N 647.496 0.313645 3.27502 0
M  V30 3754 C 647.376 1.61829 2.91033 0
M  V30 3755 H 644.397 5.40332 6.79951 0
M  V30 3756 H 644.127 4.41613 5.32378 0
M  V30 3757 H 644.994 3.26331 7.47797 0
M  V30 3758 P 648.956 2.75334 8.47391 0
M  V30 3759 O 649.176 2.44595 9.90239 0
M  V30 3760 O 649.746 3.87732 7.92204 0
M  V30 3761 O 649.206 1.4459 7.59357 0
M  V30 3762 C 648.266 0.347563 7.69115 0
M  V30 3763 C 648.996 -0.96767 7.52806 0
M  V30 3764 O 649.206 -1.21036 6.1011 0
M  V30 3765 C 650.396 -1.04544 8.13308 0
M  V30 3766 O 650.786 -2.38311 8.41922 0
M  V30 3767 C 651.276 -0.491279 7.02284 0
M  V30 3768 C 650.566 -0.996264 5.77469 0
M  V30 3769 N 650.616 -0.0501808 4.62873 0
M  V30 3770 C 650.766 -0.588177 3.36904 0
M  V30 3771 O 650.856 -1.78598 3.17173 0
M  V30 3772 N 650.806 0.329694 2.33686 0
M  V30 3773 C 650.716 1.6953 2.45079 0
M  V30 3774 O 650.766 2.41926 1.44899 0
M  V30 3775 C 650.566 2.16933 3.80505 0
M  V30 3776 C 650.456 3.65373 3.97621 0
M  V30 3777 C 650.516 1.30326 4.83752 0
M  V30 3778 H 647.776 0.374722 8.67691 0
M  V30 3779 H 647.507 0.443421 6.90177 0
M  V30 3780 H 648.374 -1.75537 7.96793 0
M  V30 3781 H 651.029 -1.94496 5.46629 0
M  V30 3782 H 651.308 0.608651 7.04676 0
M  V30 3783 H 652.3 -0.889672 7.08939 0
M  V30 3784 H 650.466 -0.43308 9.04564 0
M  V30 3785 H 650.395 1.68366 5.8516 0
M  V30 3786 H 651.425 4.05985 4.30448 0
M  V30 3787 H 649.688 3.88028 4.72875 0
M  V30 3788 H 650.176 4.11381 3.01609 0
M  V30 3789 H 650.912 -0.0393617 1.41345 0
M  V30 3790 P 652.336 -2.75334 8.47391 0
M  V30 3791 O 652.556 -3.84204 9.44982 0
M  V30 3792 O 653.126 -1.51982 8.68909 0
M  V30 3793 O 652.586 -3.29363 6.99321 0
M  V30 3794 C 651.646 -4.24066 6.42823 0
M  V30 3795 C 652.376 -5.20775 5.52155 0
M  V30 3796 O 652.586 -4.56607 4.22514 0
M  V30 3797 C 653.776 -5.62697 5.96604 0
M  V30 3798 O 654.166 -6.87667 5.41053 0
M  V30 3799 C 654.656 -4.52537 5.39283 0
M  V30 3800 C 653.946 -4.20027 4.08623 0
M  V30 3801 N 653.996 -2.76189 3.71603 0
M  V30 3802 H 651.158 -4.79756 7.24086 0
M  V30 3803 H 650.886 -3.69963 5.84682 0
M  V30 3804 H 651.754 -6.10431 5.41508 0
M  V30 3805 H 654.409 -4.78816 3.28024 0
M  V30 3806 H 654.689 -3.64957 6.05871 0
M  V30 3807 H 655.68 -4.88748 5.21323 0
M  V30 3808 H 653.846 -5.66789 7.0643 0
M  V30 3809 P 655.716 -7.20834 5.23717 0
M  V30 3810 O 655.936 -8.66189 5.38625 0
M  V30 3811 O 656.506 -6.33615 6.1356 0
M  V30 3812 O 655.966 -6.7751 3.72168 0
M  V30 3813 C 655.026 -7.20732 2.70725 0
M  V30 3814 C 655.756 -7.45864 1.40599 0
M  V30 3815 O 655.966 -6.17651 0.734225 0
M  V30 3816 C 657.156 -8.05808 1.51899 0
M  V30 3817 O 657.546 -8.74358 0.335205 0
M  V30 3818 C 658.036 -6.83093 1.70294 0
M  V30 3819 C 657.326 -5.79992 0.836974 0
M  V30 3820 N 657.376 -4.41769 1.38263 0
M  V30 3821 C 657.526 -3.38591 0.481702 0
M  V30 3822 O 657.616 -3.56839 -0.718452 0
M  V30 3823 N 657.566 -2.1206 1.03569 0
M  V30 3824 C 657.476 -1.80696 2.36966 0
M  V30 3825 C 657.326 -2.94845 3.23898 0
M  V30 3826 C 657.276 -4.19803 2.73435 0
M  V30 3827 H 654.536 -8.13644 3.0377 0
M  V30 3828 H 654.267 -6.42695 2.55448 0
M  V30 3829 H 655.134 -8.12039 0.792769 0
M  V30 3830 H 657.789 -5.79978 -0.160587 0
M  V30 3831 H 658.068 -6.51379 2.75643 0
M  V30 3832 H 659.06 -7.01734 1.34462 0
M  V30 3833 H 657.226 -8.73674 2.38337 0
M  V30 3834 H 657.155 -5.04492 3.4095 0
M  V30 3835 P 659.096 -8.91 -4.48406e-12 0
M  V30 3836 O 659.316 -10.1726 -0.733694 0
M  V30 3837 O 659.886 -8.73148 1.23936 0
M  V30 3838 O 659.346 -7.66872 -0.971405 0
M  V30 3839 C 658.406 -7.42309 -2.04641 0
M  V30 3840 C 659.136 -6.86059 -3.24661 0
M  V30 3841 O 659.346 -5.42847 -3.03646 0
M  V30 3842 C 660.536 -7.41196 -3.50753 0
M  V30 3843 O 660.926 -7.27073 -4.86816 0
M  V30 3844 C 661.416 -6.5273 -2.63741 0
M  V30 3845 C 660.706 -5.1842 -2.73198 0
M  V30 3846 N 660.756 -4.38762 -1.4784 0
M  V30 3847 H 657.917 -8.36803 -2.32493 0
M  V30 3848 H 657.647 -6.70197 -1.71129 0
M  V30 3849 H 658.514 -7.03551 -4.13168 0
M  V30 3850 P 662.476 -7.20834 -5.23717 0
M  V30 3851 O 662.696 -7.79853 -6.57286 0
M  V30 3852 O 663.266 -7.79239 -4.12957 0
M  V30 3853 O 662.726 -5.63315 -5.29344 0
M  V30 3854 C 661.786 -4.80255 -6.01876 0
M  V30 3855 C 662.516 -3.64202 -6.65911 0
M  V30 3856 O 662.726 -2.60694 -5.64732 0
M  V30 3857 C 663.916 -3.93473 -7.1943 0
M  V30 3858 O 664.306 -3.02071 -8.21205 0
M  V30 3859 C 664.796 -3.73047 -5.97036 0
M  V30 3860 C 664.086 -2.58828 -5.25741 0
M  V30 3861 N 664.136 -2.68068 -3.77503 0
M  V30 3862 H 661.297 -5.40332 -6.79951 0
M  V30 3863 H 661.027 -4.41613 -5.32378 0
M  V30 3864 H 661.894 -3.26331 -7.47797 0
M  V30 3865 P 665.856 -2.75334 -8.47391 0
M  V30 3866 O 666.076 -2.44571 -9.90142 0
M  V30 3867 O 666.646 -3.87688 -7.92115 0
M  V30 3868 O 666.106 -1.4459 -7.59357 0
M  V30 3869 C 665.166 -0.347608 -7.69215 0
M  V30 3870 C 665.896 0.96767 -7.52806 0
M  V30 3871 O 666.106 1.21036 -6.1011 0
M  V30 3872 C 667.296 1.04544 -8.13308 0
M  V30 3873 O 667.686 2.38311 -8.41922 0
M  V30 3874 C 668.176 0.491279 -7.02284 0
M  V30 3875 C 667.466 0.996264 -5.77469 0
M  V30 3876 N 667.516 0.0501916 -4.62973 0
M  V30 3877 H 664.677 -0.374722 -8.67691 0
M  V30 3878 H 664.407 -0.443485 -6.90277 0
M  V30 3879 H 665.274 1.75537 -7.96793 0
M  V30 3880 P 669.236 2.75334 -8.47391 0
M  V30 3881 O 669.456 3.84128 -9.44797 0
M  V30 3882 O 670.026 1.51947 -8.68712 0
M  V30 3883 O 669.486 3.29363 -6.99321 0
M  V30 3884 C 668.546 4.24011 -6.4274 0
M  V30 3885 C 669.276 5.20775 -5.52155 0
M  V30 3886 O 669.486 4.56534 -4.22446 0
M  V30 3887 C 670.676 5.62629 -5.96531 0
M  V30 3888 O 671.066 6.87667 -5.41053 0
M  V30 3889 C 671.556 4.52537 -5.39283 0
M  V30 3890 C 670.846 4.20027 -4.08623 0
M  V30 3891 N 670.896 2.76189 -3.71603 0
M  V30 3892 C 670.816 1.64862 -4.52822 0
M  V30 3893 N 670.896 0.512671 -3.88633 0
M  V30 3894 C 671.036 0.888083 -2.54977 0
M  V30 3895 C 671.166 0.094668 -1.38677 0
M  V30 3896 N 671.286 0.890102 -0.232633 0
M  V30 3897 C 671.286 2.26958 -0.21772 0
M  V30 3898 N 671.416 2.84626 0.97925 0
M  V30 3899 N 671.156 3.0178 -1.31033 0
M  V30 3900 C 671.036 2.26781 -2.43843 0
M  V30 3901 H 668.057 4.797 -7.24003 0
M  V30 3902 H 667.787 3.69856 -5.84513 0
M  V30 3903 H 668.654 6.10356 -5.41441 0
M  V30 3904 P 672.616 7.20834 -5.23717 0
M  V30 3905 O 672.836 8.66104 -5.38572 0
M  V30 3906 O 673.406 6.33544 -6.1349 0
M  V30 3907 O 672.866 6.7751 -3.72168 0
M  V30 3908 C 671.926 7.20825 -2.7076 0
M  V30 3909 C 672.656 7.45864 -1.40599 0
M  V30 3910 O 672.866 6.17651 -0.734225 0
M  V30 3911 C 674.056 8.05808 -1.51899 0
M  V30 3912 O 674.446 8.74358 -0.335205 0
M  V30 3913 C 674.936 6.83093 -1.70294 0
M  V30 3914 C 674.226 5.79992 -0.836974 0
M  V30 3915 N 674.276 4.41864 -1.38293 0
M  V30 3916 H 671.437 8.13644 -3.0377 0
M  V30 3917 H 671.167 6.42788 -2.55485 0
M  V30 3918 H 672.034 8.12039 -0.792769 0
M  V30 3919 P 675.996 8.91 4.64125e-12 0
M  V30 3920 O 676.216 10.1726 0.733694 0
M  V30 3921 O 676.786 8.73148 -1.23936 0
M  V30 3922 O 676.246 7.66872 0.971405 0
M  V30 3923 C 675.306 7.42309 2.04641 0
M  V30 3924 C 676.036 6.86059 3.24661 0
M  V30 3925 O 676.246 5.42847 3.03646 0
M  V30 3926 C 677.436 7.41196 3.50753 0
M  V30 3927 O 677.826 7.27073 4.86816 0
M  V30 3928 C 678.316 6.5273 2.63741 0
M  V30 3929 C 677.606 5.1842 2.73198 0
M  V30 3930 N 677.656 4.38762 1.4784 0
M  V30 3931 H 674.817 8.36803 2.32493 0
M  V30 3932 H 674.547 6.70197 1.71129 0
M  V30 3933 H 675.414 7.03551 4.13168 0
M  V30 3934 P 679.376 7.20834 5.23717 0
M  V30 3935 O 679.596 7.80006 6.57415 0
M  V30 3936 O 680.166 7.79416 4.13051 0
M  V30 3937 O 679.626 5.63315 5.29344 0
M  V30 3938 C 678.686 4.80318 6.01954 0
M  V30 3939 C 679.416 3.64202 6.65911 0
M  V30 3940 O 679.626 2.60736 5.64823 0
M  V30 3941 C 680.816 3.93521 7.19518 0
M  V30 3942 O 681.206 3.02071 8.21205 0
M  V30 3943 C 681.696 3.73047 5.97036 0
M  V30 3944 C 680.986 2.58828 5.25741 0
M  V30 3945 N 681.036 2.68068 3.77503 0
M  V30 3946 H 678.198 5.40394 6.8003 0
M  V30 3947 H 677.926 4.41741 5.32532 0
M  V30 3948 H 678.794 3.26371 7.47889 0
M  V30 3949 H 681.449 1.64007 5.56746 0
M  V30 3950 H 681.729 4.63439 5.3432 0
M  V30 3951 H 682.72 3.44776 6.25925 0
M  V30 3952 H 680.886 4.96707 7.57347 0
M  V30 3953 P 682.756 2.75334 8.47391 0
M  V30 3954 O 682.976 2.44619 9.90336 0
M  V30 3955 O 683.546 3.87776 7.92294 0
M  V30 3956 O 683.006 1.4459 7.59357 0
M  V30 3957 C 682.066 0.347653 7.69315 0
M  V30 3958 C 682.796 -0.96767 7.52806 0
M  V30 3959 O 683.006 -1.21055 6.10208 0
M  V30 3960 C 684.196 -1.04557 8.13408 0
M  V30 3961 O 684.586 -2.38311 8.41922 0
M  V30 3962 C 685.076 -0.491279 7.02284 0
M  V30 3963 C 684.366 -0.996264 5.77469 0
M  V30 3964 N 684.416 -0.0501916 4.62973 0
M  V30 3965 C 684.336 1.31969 4.65661 0
M  V30 3966 N 684.406 1.86649 3.48119 0
M  V30 3967 C 684.556 0.792089 2.62406 0
M  V30 3968 C 684.686 0.705684 1.2207 0
M  V30 3969 N 684.696 1.76207 0.413762 0
M  V30 3970 N 684.806 -0.518981 0.685754 0
M  V30 3971 C 684.796 -1.57595 1.49174 0
M  V30 3972 N 684.676 -1.62909 2.80066 0
M  V30 3973 C 684.556 -0.388195 3.3073 0
M  V30 3974 H 681.578 0.374765 8.67791 0
M  V30 3975 H 681.306 0.443613 6.90476 0
M  V30 3976 H 682.174 -1.75559 7.96891 0
M  V30 3977 H 684.829 -1.94563 5.46818 0
M  V30 3978 H 685.109 0.608651 7.04676 0
M  V30 3979 H 686.1 -0.889796 7.09039 0
M  V30 3980 H 684.266 -0.433128 9.04664 0
M  V30 3981 H 684.225 1.89246 5.57664 0
M  V30 3982 H 684.606 2.71005 0.804694 0
M  V30 3983 H 684.795 1.63189 -0.603768 0
M  V30 3984 H 684.903 -2.53475 0.997614 0
M  V30 3985 P 686.136 -2.75334 8.47391 0
M  V30 3986 O 686.356 -3.84204 9.44982 0
M  V30 3987 O 686.926 -1.51982 8.68909 0
M  V30 3988 O 686.386 -3.29363 6.99321 0
M  V30 3989 C 685.446 -4.24066 6.42823 0
M  V30 3990 C 686.176 -5.20775 5.52155 0
M  V30 3991 O 686.386 -4.56607 4.22514 0
M  V30 3992 C 687.576 -5.62697 5.96604 0
M  V30 3993 O 687.966 -6.87667 5.41053 0
M  V30 3994 C 688.456 -4.52537 5.39283 0
M  V30 3995 C 687.746 -4.20027 4.08623 0
M  V30 3996 N 687.796 -2.76189 3.71603 0
M  V30 3997 H 684.958 -4.79756 7.24086 0
M  V30 3998 H 684.686 -3.69963 5.84682 0
M  V30 3999 H 685.554 -6.10431 5.41508 0
M  V30 4000 H 688.209 -4.78816 3.28024 0
M  V30 4001 H 688.489 -3.64957 6.05871 0
M  V30 4002 H 689.48 -4.88748 5.21323 0
M  V30 4003 H 687.646 -5.66789 7.0643 0
M  V30 4004 P 689.516 -7.20834 5.23717 0
M  V30 4005 O 689.736 -8.66104 5.38572 0
M  V30 4006 O 690.306 -6.33544 6.1349 0
M  V30 4007 O 689.766 -6.7751 3.72168 0
M  V30 4008 C 688.826 -7.20825 2.7076 0
M  V30 4009 C 689.556 -7.45864 1.40599 0
M  V30 4010 O 689.766 -6.17651 0.734225 0
M  V30 4011 C 690.956 -8.05808 1.51899 0
M  V30 4012 O 691.346 -8.74358 0.335205 0
M  V30 4013 C 691.836 -6.83093 1.70294 0
M  V30 4014 C 691.126 -5.79992 0.836974 0
M  V30 4015 N 691.176 -4.41864 1.38293 0
M  V30 4016 H 688.337 -8.13644 3.0377 0
M  V30 4017 H 688.067 -6.42788 2.55485 0
M  V30 4018 H 688.934 -8.12039 0.792769 0
M  V30 4019 P 692.896 -8.91 -4.67181e-12 0
M  V30 4020 O 693.116 -10.1726 -0.733694 0
M  V30 4021 O 693.686 -8.73148 1.23936 0
M  V30 4022 O 693.146 -7.66872 -0.971405 0
M  V30 4023 C 692.206 -7.42309 -2.04641 0
M  V30 4024 C 692.936 -6.86059 -3.24661 0
M  V30 4025 O 693.146 -5.42847 -3.03646 0
M  V30 4026 C 694.336 -7.41196 -3.50753 0
M  V30 4027 O 694.726 -7.27073 -4.86816 0
M  V30 4028 C 695.216 -6.5273 -2.63741 0
M  V30 4029 C 694.506 -5.1842 -2.73198 0
M  V30 4030 N 694.556 -4.38762 -1.4784 0
M  V30 4031 C 694.476 -4.81605 -0.168631 0
M  V30 4032 N 694.556 -3.85454 0.713363 0
M  V30 4033 C 694.696 -2.6994 -0.0566958 0
M  V30 4034 C 694.826 -1.34815 0.338502 0
M  V30 4035 N 694.946 -0.496304 -0.77465 0
M  V30 4036 C 694.946 -0.908403 -2.09122 0
M  V30 4037 N 695.076 0.0517805 -3.00955 0
M  V30 4038 N 694.816 -2.17875 -2.46519 0
M  V30 4039 C 694.696 -3.01988 -1.4033 0
M  V30 4040 H 691.717 -8.36803 -2.32493 0
M  V30 4041 H 691.447 -6.70197 -1.71129 0
M  V30 4042 H 692.314 -7.03551 -4.13168 0
M  V30 4043 P 696.276 -7.20834 -5.23717 0
M  V30 4044 O 696.496 -7.79853 -6.57286 0
M  V30 4045 O 697.066 -7.79239 -4.12957 0
M  V30 4046 O 696.526 -5.63315 -5.29344 0
M  V30 4047 C 695.586 -4.80255 -6.01876 0
M  V30 4048 C 696.316 -3.64202 -6.65911 0
M  V30 4049 O 696.526 -2.60694 -5.64732 0
M  V30 4050 C 697.716 -3.93473 -7.1943 0
M  V30 4051 O 698.106 -3.02071 -8.21205 0
M  V30 4052 C 698.596 -3.73047 -5.97036 0
M  V30 4053 C 697.886 -2.58828 -5.25741 0
M  V30 4054 N 697.936 -2.68068 -3.77503 0
M  V30 4055 H 695.097 -5.40332 -6.79951 0
M  V30 4056 H 694.827 -4.41613 -5.32378 0
M  V30 4057 H 695.694 -3.26331 -7.47797 0
M  V30 4058 P 699.656 -2.75334 -8.47391 0
M  V30 4059 O 699.876 -2.44571 -9.90142 0
M  V30 4060 O 700.446 -3.87688 -7.92115 0
M  V30 4061 O 699.906 -1.4459 -7.59357 0
M  V30 4062 C 698.966 -0.347608 -7.69215 0
M  V30 4063 C 699.696 0.96767 -7.52806 0
M  V30 4064 O 699.906 1.21036 -6.1011 0
M  V30 4065 C 701.096 1.04544 -8.13308 0
M  V30 4066 O 701.486 2.38311 -8.41922 0
M  V30 4067 C 701.976 0.491279 -7.02284 0
M  V30 4068 C 701.266 0.996264 -5.77469 0
M  V30 4069 N 701.316 0.0501916 -4.62973 0
M  V30 4070 C 701.236 -1.32786 -4.63244 0
M  V30 4071 N 701.316 -1.86957 -3.44545 0
M  V30 4072 C 701.456 -0.780241 -2.58481 0
M  V30 4073 C 701.586 -0.738536 -1.17757 0
M  V30 4074 O 701.606 -1.66794 -0.372349 0
M  V30 4075 N 701.706 0.58337 -0.711393 0
M  V30 4076 C 701.706 1.70816 -1.51017 0
M  V30 4077 N 701.836 2.87826 -0.880757 0
M  V30 4078 N 701.576 1.67126 -2.8339 0
M  V30 4079 C 701.456 0.401421 -3.30572 0
M  V30 4080 H 698.477 -0.374722 -8.67691 0
M  V30 4081 H 698.207 -0.443485 -6.90277 0
M  V30 4082 H 699.074 1.75537 -7.96793 0
M  V30 4083 H 701.729 1.95076 -5.46529 0
M  V30 4084 H 702.008 -0.608565 -7.04577 0
M  V30 4085 H 703 0.889672 -7.08939 0
M  V30 4086 H 701.166 0.43308 -9.04564 0
M  V30 4087 H 701.117 -1.91249 -5.54442 0
M  V30 4088 H 701.799 0.718054 0.275244 0
M  V30 4089 H 701.836 3.75721 -1.41832 0
M  V30 4090 H 701.937 2.90436 0.145468 0
M  V30 4091 P 703.036 2.75334 -8.47391 0
M  V30 4092 O 703.256 3.84128 -9.44797 0
M  V30 4093 O 703.826 1.51947 -8.68712 0
M  V30 4094 O 703.286 3.29363 -6.99321 0
M  V30 4095 C 702.346 4.24011 -6.4274 0
M  V30 4096 C 703.076 5.20775 -5.52155 0
M  V30 4097 O 703.286 4.56534 -4.22446 0
M  V30 4098 C 704.476 5.62629 -5.96531 0
M  V30 4099 O 704.866 6.87667 -5.41053 0
M  V30 4100 C 705.356 4.52537 -5.39283 0
M  V30 4101 C 704.646 4.20027 -4.08623 0
M  V30 4102 N 704.696 2.76189 -3.71603 0
M  V30 4103 H 701.857 4.797 -7.24003 0
M  V30 4104 H 701.587 3.69856 -5.84513 0
M  V30 4105 H 702.454 6.10356 -5.41441 0
M  V30 4106 P 706.416 7.20834 -5.23717 0
M  V30 4107 O 706.636 8.66189 -5.38625 0
M  V30 4108 O 707.206 6.33615 -6.1356 0
M  V30 4109 O 706.666 6.7751 -3.72168 0
M  V30 4110 C 705.726 7.20732 -2.70725 0
M  V30 4111 C 706.456 7.45864 -1.40599 0
M  V30 4112 O 706.666 6.17651 -0.734225 0
M  V30 4113 C 707.856 8.05808 -1.51899 0
M  V30 4114 O 708.246 8.74358 -0.335205 0
M  V30 4115 C 708.736 6.83093 -1.70294 0
M  V30 4116 C 708.026 5.79992 -0.836974 0
M  V30 4117 N 708.076 4.41769 -1.38263 0
M  V30 4118 C 708.226 3.38591 -0.481702 0
M  V30 4119 O 708.316 3.56839 0.718452 0
M  V30 4120 N 708.266 2.1206 -1.03569 0
M  V30 4121 C 708.176 1.80696 -2.36966 0
M  V30 4122 C 708.026 2.94845 -3.23898 0
M  V30 4123 C 707.976 4.19803 -2.73435 0
M  V30 4124 H 705.236 8.13644 -3.0377 0
M  V30 4125 H 704.967 6.42695 -2.55448 0
M  V30 4126 H 705.834 8.12039 -0.792769 0
M  V30 4127 H 708.489 5.79978 0.160587 0
M  V30 4128 H 708.768 6.51379 -2.75643 0
M  V30 4129 H 709.76 7.01734 -1.34462 0
M  V30 4130 H 707.926 8.73674 -2.38337 0
M  V30 4131 H 707.855 5.04492 -3.4095 0
M  V30 4132 P 709.796 8.91 4.82899e-12 0
M  V30 4133 O 710.016 10.1726 0.733694 0
M  V30 4134 O 710.586 8.73148 -1.23936 0
M  V30 4135 O 710.046 7.66872 0.971405 0
M  V30 4136 C 709.106 7.42309 2.04641 0
M  V30 4137 C 709.836 6.86059 3.24661 0
M  V30 4138 O 710.046 5.42847 3.03646 0
M  V30 4139 C 711.236 7.41196 3.50753 0
M  V30 4140 O 711.626 7.27073 4.86816 0
M  V30 4141 C 712.116 6.5273 2.63741 0
M  V30 4142 C 711.406 5.1842 2.73198 0
M  V30 4143 N 711.456 4.38762 1.4784 0
M  V30 4144 H 708.617 8.36803 2.32493 0
M  V30 4145 H 708.347 6.70197 1.71129 0
M  V30 4146 H 709.214 7.03551 4.13168 0
M  V30 4147 P 713.176 7.20834 5.23717 0
M  V30 4148 O 713.396 7.79853 6.57286 0
M  V30 4149 O 713.966 7.79239 4.12957 0
M  V30 4150 O 713.426 5.63315 5.29344 0
M  V30 4151 C 712.486 4.80255 6.01876 0
M  V30 4152 C 713.216 3.64202 6.65911 0
M  V30 4153 O 713.426 2.60694 5.64732 0
M  V30 4154 C 714.616 3.93473 7.1943 0
M  V30 4155 O 715.006 3.02071 8.21205 0
M  V30 4156 C 715.496 3.73047 5.97036 0
M  V30 4157 C 714.786 2.58828 5.25741 0
M  V30 4158 N 714.836 2.68068 3.77503 0
M  V30 4159 C 714.756 3.79715 2.96723 0
M  V30 4160 N 714.836 3.5377 1.68852 0
M  V30 4161 C 714.976 2.15054 1.63254 0
M  V30 4162 C 715.106 1.28964 0.518571 0
M  V30 4163 N 715.226 -0.0538097 0.918425 0
M  V30 4164 C 715.226 -0.494275 2.22578 0
M  V30 4165 N 715.356 -1.81086 2.40434 0
M  V30 4166 N 715.096 0.313645 3.27502 0
M  V30 4167 C 714.976 1.61829 2.91033 0
M  V30 4168 H 711.997 5.40332 6.79951 0
M  V30 4169 H 711.727 4.41613 5.32378 0
M  V30 4170 H 712.594 3.26331 7.47797 0
M  V30 4171 P 716.556 2.75334 8.47391 0
M  V30 4172 O 716.776 2.44571 9.90142 0
M  V30 4173 O 717.346 3.87688 7.92115 0
M  V30 4174 O 716.806 1.4459 7.59357 0
M  V30 4175 C 715.866 0.347608 7.69215 0
M  V30 4176 C 716.596 -0.96767 7.52806 0
M  V30 4177 O 716.806 -1.21036 6.1011 0
M  V30 4178 C 717.996 -1.04544 8.13308 0
M  V30 4179 O 718.386 -2.38311 8.41922 0
M  V30 4180 C 718.876 -0.491279 7.02284 0
M  V30 4181 C 718.166 -0.996264 5.77469 0
M  V30 4182 N 718.216 -0.0501916 4.62973 0
M  V30 4183 H 715.377 0.374722 8.67691 0
M  V30 4184 H 715.107 0.443485 6.90277 0
M  V30 4185 H 715.974 -1.75537 7.96793 0
M  V30 4186 P 719.936 -2.75334 8.47391 0
M  V30 4187 O 720.156 -3.84128 9.44797 0
M  V30 4188 O 720.726 -1.51947 8.68712 0
M  V30 4189 O 720.186 -3.29363 6.99321 0
M  V30 4190 C 719.246 -4.24011 6.4274 0
M  V30 4191 C 719.976 -5.20775 5.52155 0
M  V30 4192 O 720.186 -4.56534 4.22446 0
M  V30 4193 C 721.376 -5.62629 5.96531 0
M  V30 4194 O 721.766 -6.87667 5.41053 0
M  V30 4195 C 722.256 -4.52537 5.39283 0
M  V30 4196 C 721.546 -4.20027 4.08623 0
M  V30 4197 N 721.596 -2.76189 3.71603 0
M  V30 4198 C 721.516 -1.64862 4.52822 0
M  V30 4199 N 721.596 -0.512671 3.88633 0
M  V30 4200 C 721.736 -0.888083 2.54977 0
M  V30 4201 C 721.866 -0.094668 1.38677 0
M  V30 4202 O 721.886 1.13053 1.28163 0
M  V30 4203 N 721.986 -0.890102 0.232633 0
M  V30 4204 C 721.986 -2.26958 0.21772 0
M  V30 4205 N 722.116 -2.84626 -0.97925 0
M  V30 4206 N 721.856 -3.0178 1.31033 0
M  V30 4207 C 721.736 -2.26781 2.43843 0
M  V30 4208 H 718.757 -4.797 7.24003 0
M  V30 4209 H 718.487 -3.69856 5.84513 0
M  V30 4210 H 719.354 -6.10356 5.41441 0
M  V30 4211 H 722.009 -4.79061 3.27488 0
M  V30 4212 H 722.288 -3.64906 6.05785 0
M  V30 4213 H 723.28 -4.8868 5.2125 0
M  V30 4214 H 721.446 -5.66726 7.06352 0
M  V30 4215 H 721.397 -1.71169 5.60966 0
M  V30 4216 H 722.079 -0.419134 -0.644739 0
M  V30 4217 H 722.116 -3.87332 -1.06098 0
M  V30 4218 H 722.217 -2.26417 -1.82483 0
M  V30 4219 P 723.316 -7.20834 5.23717 0
M  V30 4220 O 723.536 -8.66274 5.38678 0
M  V30 4221 O 724.106 -6.33687 6.13629 0
M  V30 4222 O 723.566 -6.7751 3.72168 0
M  V30 4223 C 722.626 -7.20919 2.70795 0
M  V30 4224 C 723.356 -7.45864 1.40599 0
M  V30 4225 O 723.566 -6.17751 0.734343 0
M  V30 4226 C 724.756 -8.05906 1.51917 0
M  V30 4227 O 725.146 -8.74358 0.335205 0
M  V30 4228 C 725.636 -6.83093 1.70294 0
M  V30 4229 C 724.926 -5.79992 0.836974 0
M  V30 4230 N 724.976 -4.41864 1.38293 0
M  V30 4231 C 724.896 -4.02089 2.69407 0
M  V30 4232 N 724.966 -2.73403 2.85089 0
M  V30 4233 C 725.116 -2.25086 1.5642 0
M  V30 4234 C 725.246 -0.942887 1.04836 0
M  V30 4235 N 725.256 0.150999 1.80369 0
M  V30 4236 N 725.366 -0.812565 -0.28167 0
M  V30 4237 C 725.356 -1.90572 -1.03784 0
M  V30 4238 N 725.236 -3.167 -0.683905 0
M  V30 4239 C 725.116 -3.26538 0.652815 0
M  V30 4240 H 722.138 -8.13738 3.03804 0
M  V30 4241 H 721.866 -6.42974 2.55559 0
M  V30 4242 H 722.734 -8.12139 0.792866 0
M  V30 4243 H 725.389 -5.80178 -0.160643 0
M  V30 4244 H 725.669 -6.51379 2.75643 0
M  V30 4245 H 726.66 -7.01832 1.3448 0
M  V30 4246 H 724.826 -8.73771 2.38364 0
M  V30 4247 H 724.785 -4.7189 3.52311 0
M  V30 4248 H 725.166 0.0721434 2.82608 0
M  V30 4249 H 725.355 1.0785 1.36544 0
M  V30 4250 H 725.463 -1.73207 -2.10241 0
M  V30 4251 P 726.696 -8.91 -4.98617e-12 0
M  V30 4252 O 726.916 -10.1726 -0.733694 0
M  V30 4253 O 727.486 -8.73148 1.23936 0
M  V30 4254 O 726.946 -7.66872 -0.971405 0
M  V30 4255 C 726.006 -7.42309 -2.04641 0
M  V30 4256 C 726.736 -6.86059 -3.24661 0
M  V30 4257 O 726.946 -5.42847 -3.03646 0
M  V30 4258 C 728.136 -7.41196 -3.50753 0
M  V30 4259 O 728.526 -7.27073 -4.86816 0
M  V30 4260 C 729.016 -6.5273 -2.63741 0
M  V30 4261 C 728.306 -5.1842 -2.73198 0
M  V30 4262 N 728.356 -4.38762 -1.4784 0
M  V30 4263 C 728.276 -4.81605 -0.168631 0
M  V30 4264 N 728.356 -3.85454 0.713363 0
M  V30 4265 C 728.496 -2.6994 -0.0566958 0
M  V30 4266 C 728.626 -1.34815 0.338502 0
M  V30 4267 O 728.646 -0.869548 1.47125 0
M  V30 4268 N 728.746 -0.496304 -0.77465 0
M  V30 4269 C 728.746 -0.908403 -2.09122 0
M  V30 4270 N 728.876 0.0517805 -3.00955 0
M  V30 4271 N 728.616 -2.17875 -2.46519 0
M  V30 4272 C 728.496 -3.01988 -1.4033 0
M  V30 4273 H 725.517 -8.36803 -2.32493 0
M  V30 4274 H 725.247 -6.70197 -1.71129 0
M  V30 4275 H 726.114 -7.03551 -4.13168 0
M  V30 4276 H 728.769 -4.59498 -3.54415 0
M  V30 4277 H 729.048 -6.88898 -1.59848 0
M  V30 4278 H 730.04 -6.46749 -3.03687 0
M  V30 4279 H 728.206 -8.46908 -3.20714 0
M  V30 4280 H 728.157 -5.86405 0.105564 0
M  V30 4281 H 728.839 0.483664 -0.597855 0
M  V30 4282 H 728.876 -0.187865 -4.0116 0
M  V30 4283 H 728.977 1.03585 -2.71726 0
M  V30 4284 P 730.076 -7.20834 -5.23717 0
M  V30 4285 O 730.296 -7.79853 -6.57286 0
M  V30 4286 O 730.866 -7.79239 -4.12957 0
M  V30 4287 O 730.326 -5.63315 -5.29344 0
M  V30 4288 C 729.386 -4.80255 -6.01876 0
M  V30 4289 C 730.116 -3.64202 -6.65911 0
M  V30 4290 O 730.326 -2.60694 -5.64732 0
M  V30 4291 C 731.516 -3.93473 -7.1943 0
M  V30 4292 O 731.906 -3.02071 -8.21205 0
M  V30 4293 C 732.396 -3.73047 -5.97036 0
M  V30 4294 C 731.686 -2.58828 -5.25741 0
M  V30 4295 N 731.736 -2.68068 -3.77503 0
M  V30 4296 C 731.656 -3.79715 -2.96723 0
M  V30 4297 N 731.736 -3.5377 -1.68852 0
M  V30 4298 C 731.876 -2.15054 -1.63254 0
M  V30 4299 C 732.006 -1.28964 -0.518571 0
M  V30 4300 N 732.126 0.0538097 -0.918425 0
M  V30 4301 C 732.126 0.494275 -2.22578 0
M  V30 4302 N 732.256 1.81086 -2.40434 0
M  V30 4303 N 731.996 -0.313645 -3.27502 0
M  V30 4304 C 731.876 -1.61829 -2.91033 0
M  V30 4305 H 728.897 -5.40332 -6.79951 0
M  V30 4306 H 728.627 -4.41613 -5.32378 0
M  V30 4307 H 729.494 -3.26331 -7.47797 0
M  V30 4308 P 733.456 -2.75334 -8.47391 0
M  V30 4309 O 733.676 -2.44571 -9.90142 0
M  V30 4310 O 734.246 -3.87688 -7.92115 0
M  V30 4311 O 733.706 -1.4459 -7.59357 0
M  V30 4312 C 732.766 -0.347608 -7.69215 0
M  V30 4313 C 733.496 0.96767 -7.52806 0
M  V30 4314 O 733.706 1.21036 -6.1011 0
M  V30 4315 C 734.896 1.04544 -8.13308 0
M  V30 4316 O 735.286 2.38311 -8.41922 0
M  V30 4317 C 735.776 0.491279 -7.02284 0
M  V30 4318 C 735.066 0.996264 -5.77469 0
M  V30 4319 N 735.116 0.0501916 -4.62973 0
M  V30 4320 C 735.036 -1.32786 -4.63244 0
M  V30 4321 N 735.116 -1.86957 -3.44545 0
M  V30 4322 C 735.256 -0.780241 -2.58481 0
M  V30 4323 C 735.386 -0.738536 -1.17757 0
M  V30 4324 O 735.406 -1.66794 -0.372349 0
M  V30 4325 N 735.506 0.58337 -0.711393 0
M  V30 4326 C 735.506 1.70816 -1.51017 0
M  V30 4327 N 735.636 2.87826 -0.880757 0
M  V30 4328 N 735.376 1.67126 -2.8339 0
M  V30 4329 C 735.256 0.401421 -3.30572 0
M  V30 4330 H 732.277 -0.374722 -8.67691 0
M  V30 4331 H 732.007 -0.443485 -6.90277 0
M  V30 4332 H 732.874 1.75537 -7.96793 0
M  V30 4333 H 735.529 1.95076 -5.46529 0
M  V30 4334 H 735.808 -0.608565 -7.04577 0
M  V30 4335 H 736.8 0.889672 -7.08939 0
M  V30 4336 H 734.966 0.43308 -9.04564 0
M  V30 4337 H 734.917 -1.91249 -5.54442 0
M  V30 4338 H 735.599 0.718054 0.275244 0
M  V30 4339 H 735.636 3.75721 -1.41832 0
M  V30 4340 H 735.737 2.90436 0.145468 0
M  V30 4341 P 736.836 2.75334 -8.47391 0
M  V30 4342 O 737.056 3.84166 -9.4489 0
M  V30 4343 O 737.626 1.51964 -8.6881 0
M  V30 4344 O 737.086 3.29363 -6.99321 0
M  V30 4345 C 736.146 4.23956 -6.42656 0
M  V30 4346 C 736.876 5.20775 -5.52155 0
M  V30 4347 O 737.086 4.56534 -4.22446 0
M  V30 4348 C 738.276 5.62629 -5.96531 0
M  V30 4349 O 738.666 6.87667 -5.41053 0
M  V30 4350 C 739.156 4.52537 -5.39283 0
M  V30 4351 C 738.446 4.20027 -4.08623 0
M  V30 4352 N 738.496 2.7613 -3.71522 0
M  V30 4353 C 738.646 2.45612 -2.37989 0
M  V30 4354 O 738.736 3.30919 -1.51621 0
M  V30 4355 N 738.686 1.10684 -2.08435 0
M  V30 4356 C 738.596 0.0690084 -2.9792 0
M  V30 4357 C 738.446 0.481522 -4.35345 0
M  V30 4358 C 738.396 1.78906 -4.67968 0
M  V30 4359 H 735.656 4.797 -7.24003 0
M  V30 4360 H 735.387 3.69802 -5.84429 0
M  V30 4361 H 736.254 6.10356 -5.41441 0
M  V30 4362 H 738.909 4.78651 -3.27911 0
M  V30 4363 H 739.188 3.64957 -6.05871 0
M  V30 4364 H 740.18 4.8868 -5.2125 0
M  V30 4365 H 738.346 5.66726 -7.06352 0
M  V30 4366 H 738.275 2.07737 -5.72367 0
M  V30 4367 P 740.216 7.20834 -5.23717 0
M  V30 4368 O 740.436 8.66104 -5.38572 0
M  V30 4369 O 741.006 6.33544 -6.1349 0
M  V30 4370 O 740.466 6.7751 -3.72168 0
M  V30 4371 C 739.526 7.20825 -2.7076 0
M  V30 4372 C 740.256 7.45864 -1.40599 0
M  V30 4373 O 740.466 6.17651 -0.734225 0
M  V30 4374 C 741.656 8.05808 -1.51899 0
M  V30 4375 O 742.046 8.74358 -0.335205 0
M  V30 4376 C 742.536 6.83093 -1.70294 0
M  V30 4377 C 741.826 5.79992 -0.836974 0
M  V30 4378 N 741.876 4.41864 -1.38293 0
M  V30 4379 H 739.037 8.13644 -3.0377 0
M  V30 4380 H 738.767 6.42788 -2.55485 0
M  V30 4381 H 739.634 8.12039 -0.792769 0
M  V30 4382 P 743.596 8.91 5.14336e-12 0
M  V30 4383 O 743.816 10.1726 0.733694 0
M  V30 4384 O 744.386 8.73148 -1.23936 0
M  V30 4385 O 743.846 7.66872 0.971405 0
M  V30 4386 C 742.906 7.42309 2.04641 0
M  V30 4387 C 743.636 6.86059 3.24661 0
M  V30 4388 O 743.846 5.42847 3.03646 0
M  V30 4389 C 745.036 7.41196 3.50753 0
M  V30 4390 O 745.426 7.27073 4.86816 0
M  V30 4391 C 745.916 6.5273 2.63741 0
M  V30 4392 C 745.206 5.1842 2.73198 0
M  V30 4393 N 745.256 4.38762 1.4784 0
M  V30 4394 H 742.417 8.36803 2.32493 0
M  V30 4395 H 742.147 6.70197 1.71129 0
M  V30 4396 H 743.014 7.03551 4.13168 0
M  V30 4397 P 746.976 7.20834 5.23717 0
M  V30 4398 O 747.196 7.79853 6.57286 0
M  V30 4399 O 747.766 7.79239 4.12957 0
M  V30 4400 O 747.226 5.63315 5.29344 0
M  V30 4401 C 746.286 4.80255 6.01876 0
M  V30 4402 C 747.016 3.64202 6.65911 0
M  V30 4403 O 747.226 2.60694 5.64732 0
M  V30 4404 C 748.416 3.93473 7.1943 0
M  V30 4405 O 748.806 3.02071 8.21205 0
M  V30 4406 C 749.296 3.73047 5.97036 0
M  V30 4407 C 748.586 2.58828 5.25741 0
M  V30 4408 N 748.636 2.68068 3.77503 0
M  V30 4409 H 745.797 5.40332 6.79951 0
M  V30 4410 H 745.527 4.41613 5.32378 0
M  V30 4411 H 746.394 3.26331 7.47797 0
M  V30 4412 P 750.356 2.75334 8.47391 0
M  V30 4413 O 750.576 2.44571 9.90142 0
M  V30 4414 O 751.146 3.87688 7.92115 0
M  V30 4415 O 750.606 1.4459 7.59357 0
M  V30 4416 C 749.666 0.347608 7.69215 0
M  V30 4417 C 750.396 -0.96767 7.52806 0
M  V30 4418 O 750.606 -1.21036 6.1011 0
M  V30 4419 C 751.796 -1.04544 8.13308 0
M  V30 4420 O 752.186 -2.38311 8.41922 0
M  V30 4421 C 752.676 -0.491279 7.02284 0
M  V30 4422 C 751.966 -0.996264 5.77469 0
M  V30 4423 N 752.016 -0.0501916 4.62973 0
M  V30 4424 C 751.936 1.32786 4.63244 0
M  V30 4425 N 752.016 1.86957 3.44545 0
M  V30 4426 C 752.156 0.780241 2.58481 0
M  V30 4427 C 752.286 0.738536 1.17757 0
M  V30 4428 O 752.306 1.66794 0.372349 0
M  V30 4429 N 752.406 -0.58337 0.711393 0
M  V30 4430 C 752.406 -1.70816 1.51017 0
M  V30 4431 N 752.536 -2.87826 0.880757 0
M  V30 4432 N 752.276 -1.67126 2.8339 0
M  V30 4433 C 752.156 -0.401421 3.30572 0
M  V30 4434 H 749.177 0.374722 8.67691 0
M  V30 4435 H 748.907 0.443485 6.90277 0
M  V30 4436 H 749.774 -1.75537 7.96793 0
M  V30 4437 H 752.429 -1.95076 5.46529 0
M  V30 4438 H 752.708 0.608565 7.04577 0
M  V30 4439 H 753.7 -0.889672 7.08939 0
M  V30 4440 H 751.866 -0.43308 9.04564 0
M  V30 4441 H 751.817 1.91249 5.54442 0
M  V30 4442 H 752.499 -0.718054 -0.275244 0
M  V30 4443 H 752.536 -3.75721 1.41832 0
M  V30 4444 H 752.637 -2.90436 -0.145468 0
M  V30 4445 P 753.736 -2.75334 8.47391 0
M  V30 4446 O 753.956 -3.84128 9.44797 0
M  V30 4447 O 754.526 -1.51947 8.68712 0
M  V30 4448 O 753.986 -3.29363 6.99321 0
M  V30 4449 C 753.046 -4.24011 6.4274 0
M  V30 4450 C 753.776 -5.20775 5.52155 0
M  V30 4451 O 753.986 -4.56534 4.22446 0
M  V30 4452 C 755.176 -5.62629 5.96531 0
M  V30 4453 O 755.566 -6.87667 5.41053 0
M  V30 4454 C 756.056 -4.52537 5.39283 0
M  V30 4455 C 755.346 -4.20027 4.08623 0
M  V30 4456 N 755.396 -2.76189 3.71603 0
M  V30 4457 C 755.316 -1.64862 4.52822 0
M  V30 4458 N 755.396 -0.512671 3.88633 0
M  V30 4459 C 755.536 -0.888083 2.54977 0
M  V30 4460 C 755.666 -0.094668 1.38677 0
M  V30 4461 N 755.786 -0.890102 0.232633 0
M  V30 4462 C 755.786 -2.26958 0.21772 0
M  V30 4463 N 755.916 -2.84626 -0.97925 0
M  V30 4464 N 755.656 -3.0178 1.31033 0
M  V30 4465 C 755.536 -2.26781 2.43843 0
M  V30 4466 H 752.557 -4.797 7.24003 0
M  V30 4467 H 752.287 -3.69856 5.84513 0
M  V30 4468 H 753.154 -6.10356 5.41441 0
M  V30 4469 P 757.116 -7.20834 5.23717 0
M  V30 4470 O 757.336 -8.66104 5.38572 0
M  V30 4471 O 757.906 -6.33544 6.1349 0
M  V30 4472 O 757.366 -6.7751 3.72168 0
M  V30 4473 C 756.426 -7.20825 2.7076 0
M  V30 4474 C 757.156 -7.45864 1.40599 0
M  V30 4475 O 757.366 -6.17651 0.734225 0
M  V30 4476 C 758.556 -8.05808 1.51899 0
M  V30 4477 O 758.946 -8.74358 0.335205 0
M  V30 4478 C 759.436 -6.83093 1.70294 0
M  V30 4479 C 758.726 -5.79992 0.836974 0
M  V30 4480 N 758.776 -4.41864 1.38293 0
M  V30 4481 C 758.696 -3.99538 2.69438 0
M  V30 4482 N 758.776 -2.69909 2.84277 0
M  V30 4483 C 758.916 -2.21719 1.5408 0
M  V30 4484 C 759.046 -0.891712 1.06628 0
M  V30 4485 O 759.066 0.161298 1.70137 0
M  V30 4486 N 759.166 -0.856846 -0.334985 0
M  V30 4487 C 759.166 -1.9641 -1.15789 0
M  V30 4488 N 759.296 -1.72708 -2.46522 0
M  V30 4489 N 759.036 -3.21165 -0.713741 0
M  V30 4490 C 758.916 -3.26797 0.639748 0
M  V30 4491 H 755.937 -8.13644 3.0377 0
M  V30 4492 H 755.667 -6.42788 2.55485 0
M  V30 4493 H 756.534 -8.12039 0.792769 0
M  V30 4494 H 759.189 -5.80061 -0.166416 0
M  V30 4495 H 759.468 -6.51287 2.75604 0
M  V30 4496 H 760.46 -7.01734 1.34462 0
M  V30 4497 H 758.626 -8.73674 2.38337 0
M  V30 4498 H 758.577 -4.68207 3.53221 0
M  V30 4499 H 759.259 0.0398818 -0.767965 0
M  V30 4500 H 759.296 -2.50995 -3.13503 0
M  V30 4501 H 759.397 -0.759148 -2.80716 0
M  V30 4502 P 760.496 -8.91 -5.30054e-12 0
M  V30 4503 O 760.716 -10.1746 -0.733838 0
M  V30 4504 O 761.286 -8.73346 1.23964 0
M  V30 4505 O 760.746 -7.66872 -0.971405 0
M  V30 4506 C 759.806 -7.42405 -2.04668 0
M  V30 4507 C 760.536 -6.86059 -3.24661 0
M  V30 4508 O 760.746 -5.42934 -3.03695 0
M  V30 4509 C 761.936 -7.41287 -3.50796 0
M  V30 4510 O 762.326 -7.27073 -4.86816 0
M  V30 4511 C 762.816 -6.5273 -2.63741 0
M  V30 4512 C 762.106 -5.1842 -2.73198 0
M  V30 4513 N 762.156 -4.38762 -1.4784 0
M  V30 4514 C 762.076 -4.83651 -0.183876 0
M  V30 4515 N 762.146 -3.88759 0.699393 0
M  V30 4516 C 762.296 -2.7404 -0.0575568 0
M  V30 4517 C 762.426 -1.37902 0.293928 0
M  V30 4518 N 762.436 -0.938021 1.54797 0
M  V30 4519 N 762.546 -0.491817 -0.70549 0
M  V30 4520 C 762.536 -0.931735 -1.95979 0
M  V30 4521 N 762.416 -2.16017 -2.41481 0
M  V30 4522 C 762.296 -3.02547 -1.39121 0
M  V30 4523 H 759.318 -8.36899 -2.3252 0
M  V30 4524 H 759.046 -6.70391 -1.71179 0
M  V30 4525 H 759.914 -7.03638 -4.13219 0
M  V30 4526 H 762.569 -4.59931 -3.54016 0
M  V30 4527 H 762.849 -6.88995 -1.59871 0
M  V30 4528 H 763.84 -6.4684 -3.0373 0
M  V30 4529 H 762.006 -8.47002 -3.20749 0
M  V30 4530 H 761.965 -5.8885 0.0765548 0
M  V30 4531 H 762.346 -1.60276 2.32875 0
M  V30 4532 H 762.535 0.0699355 1.73859 0
M  V30 4533 H 762.643 -0.165507 -2.71897 0
M  V30 4534 P 763.875 -7.20834 -5.23717 0
M  V30 4535 O 764.095 -7.79853 -6.57286 0
M  V30 4536 O 764.665 -7.79239 -4.12957 0
M  V30 4537 O 764.125 -5.63315 -5.29344 0
M  V30 4538 C 763.185 -4.80255 -6.01876 0
M  V30 4539 C 763.915 -3.64202 -6.65911 0
M  V30 4540 O 764.125 -2.60694 -5.64732 0
M  V30 4541 C 765.315 -3.93473 -7.1943 0
M  V30 4542 O 765.705 -3.02071 -8.21205 0
M  V30 4543 C 766.195 -3.73047 -5.97036 0
M  V30 4544 C 765.485 -2.58828 -5.25741 0
M  V30 4545 N 765.535 -2.68068 -3.77503 0
M  V30 4546 C 765.455 -3.79715 -2.96723 0
M  V30 4547 N 765.535 -3.5377 -1.68852 0
M  V30 4548 C 765.675 -2.15054 -1.63254 0
M  V30 4549 C 765.805 -1.28964 -0.518571 0
M  V30 4550 O 765.825 -1.56826 0.679156 0
M  V30 4551 N 765.925 0.0538097 -0.918425 0
M  V30 4552 C 765.925 0.494275 -2.22578 0
M  V30 4553 N 766.055 1.81086 -2.40434 0
M  V30 4554 N 765.795 -0.313645 -3.27502 0
M  V30 4555 C 765.675 -1.61829 -2.91033 0
M  V30 4556 H 762.696 -5.40332 -6.79951 0
M  V30 4557 H 762.426 -4.41613 -5.32378 0
M  V30 4558 H 763.293 -3.26331 -7.47797 0
M  V30 4559 H 765.948 -1.63422 -5.56814 0
M  V30 4560 H 766.227 -4.63374 -5.34244 0
M  V30 4561 H 767.219 -3.44728 -6.25838 0
M  V30 4562 H 765.385 -4.96652 -7.57263 0
M  V30 4563 H 765.336 -4.80617 -3.3614 0
M  V30 4564 H 766.018 0.742702 -0.199384 0
M  V30 4565 H 766.055 2.20598 -3.35588 0
M  V30 4566 H 766.156 2.43518 -1.58945 0
M  V30 4567 P 767.255 -2.75334 -8.47391 0
M  V30 4568 O 767.475 -2.44571 -9.90142 0
M  V30 4569 O 768.045 -3.87688 -7.92115 0
M  V30 4570 O 767.505 -1.4459 -7.59357 0
M  V30 4571 C 766.565 -0.347608 -7.69215 0
M  V30 4572 C 767.295 0.96767 -7.52806 0
M  V30 4573 O 767.505 1.21036 -6.1011 0
M  V30 4574 C 768.695 1.04544 -8.13308 0
M  V30 4575 O 769.085 2.38311 -8.41922 0
M  V30 4576 C 769.575 0.491279 -7.02284 0
M  V30 4577 C 768.865 0.996264 -5.77469 0
M  V30 4578 N 768.915 0.0501916 -4.62973 0
M  V30 4579 H 766.076 -0.374722 -8.67691 0
M  V30 4580 H 765.806 -0.443485 -6.90277 0
M  V30 4581 H 766.673 1.75537 -7.96793 0
M  V30 4582 P 770.635 2.75334 -8.47391 0
M  V30 4583 O 770.855 3.84128 -9.44797 0
M  V30 4584 O 771.425 1.51947 -8.68712 0
M  V30 4585 O 770.885 3.29363 -6.99321 0
M  V30 4586 C 769.945 4.24011 -6.4274 0
M  V30 4587 C 770.675 5.20775 -5.52155 0
M  V30 4588 O 770.885 4.56534 -4.22446 0
M  V30 4589 C 772.075 5.62629 -5.96531 0
M  V30 4590 O 772.465 6.87667 -5.41053 0
M  V30 4591 C 772.955 4.52537 -5.39283 0
M  V30 4592 C 772.245 4.20027 -4.08623 0
M  V30 4593 N 772.295 2.76189 -3.71603 0
M  V30 4594 H 769.456 4.797 -7.24003 0
M  V30 4595 H 769.186 3.69856 -5.84513 0
M  V30 4596 H 770.053 6.10356 -5.41441 0
M  V30 4597 P 774.015 7.20834 -5.23717 0
M  V30 4598 O 774.235 8.66104 -5.38572 0
M  V30 4599 O 774.805 6.33544 -6.1349 0
M  V30 4600 O 774.265 6.7751 -3.72168 0
M  V30 4601 C 773.325 7.20825 -2.7076 0
M  V30 4602 C 774.055 7.45864 -1.40599 0
M  V30 4603 O 774.265 6.17651 -0.734225 0
M  V30 4604 C 775.455 8.05808 -1.51899 0
M  V30 4605 O 775.845 8.74358 -0.335205 0
M  V30 4606 C 776.335 6.83093 -1.70294 0
M  V30 4607 C 775.625 5.79992 -0.836974 0
M  V30 4608 N 775.675 4.41864 -1.38293 0
M  V30 4609 C 775.595 3.99538 -2.69438 0
M  V30 4610 N 775.675 2.69909 -2.84277 0
M  V30 4611 C 775.815 2.21719 -1.5408 0
M  V30 4612 C 775.945 0.891712 -1.06628 0
M  V30 4613 N 776.065 0.856846 0.334985 0
M  V30 4614 C 776.065 1.9641 1.15789 0
M  V30 4615 N 776.195 1.72708 2.46522 0
M  V30 4616 N 775.935 3.21165 0.713741 0
M  V30 4617 C 775.815 3.26797 -0.639748 0
M  V30 4618 H 772.836 8.13644 -3.0377 0
M  V30 4619 H 772.566 6.42788 -2.55485 0
M  V30 4620 H 773.433 8.12039 -0.792769 0
M  V30 4621 P 777.395 8.91 5.45772e-12 0
M  V30 4622 O 777.615 10.1746 0.733838 0
M  V30 4623 O 778.185 8.73346 -1.23964 0
M  V30 4624 O 777.645 7.66872 0.971405 0
M  V30 4625 C 776.705 7.42405 2.04668 0
M  V30 4626 C 777.435 6.86059 3.24661 0
M  V30 4627 O 777.645 5.42934 3.03695 0
M  V30 4628 C 778.835 7.41287 3.50796 0
M  V30 4629 O 779.225 7.27073 4.86816 0
M  V30 4630 C 779.715 6.5273 2.63741 0
M  V30 4631 C 779.005 5.1842 2.73198 0
M  V30 4632 N 779.055 4.38762 1.4784 0
M  V30 4633 H 776.217 8.36899 2.3252 0
M  V30 4634 H 775.945 6.70391 1.71179 0
M  V30 4635 H 776.813 7.03638 4.13219 0
M  V30 4636 H 779.468 4.59931 3.54016 0
M  V30 4637 H 779.748 6.88995 1.59871 0
M  V30 4638 H 780.739 6.4684 3.0373 0
M  V30 4639 H 778.905 8.47002 3.20749 0
M  V30 4640 P 780.775 7.20834 5.23717 0
M  V30 4641 O 780.995 7.79853 6.57286 0
M  V30 4642 O 781.565 7.79239 4.12957 0
M  V30 4643 O 781.025 5.63315 5.29344 0
M  V30 4644 C 780.085 4.80255 6.01876 0
M  V30 4645 C 780.815 3.64202 6.65911 0
M  V30 4646 O 781.025 2.60694 5.64732 0
M  V30 4647 C 782.215 3.93473 7.1943 0
M  V30 4648 O 782.605 3.02071 8.21205 0
M  V30 4649 C 783.095 3.73047 5.97036 0
M  V30 4650 C 782.385 2.58828 5.25741 0
M  V30 4651 N 782.435 2.68068 3.77503 0
M  V30 4652 C 782.355 3.79715 2.96723 0
M  V30 4653 N 782.435 3.5377 1.68852 0
M  V30 4654 C 782.575 2.15054 1.63254 0
M  V30 4655 C 782.705 1.28964 0.518571 0
M  V30 4656 N 782.825 -0.0538097 0.918425 0
M  V30 4657 C 782.825 -0.494275 2.22578 0
M  V30 4658 N 782.955 -1.81086 2.40434 0
M  V30 4659 N 782.695 0.313645 3.27502 0
M  V30 4660 C 782.575 1.61829 2.91033 0
M  V30 4661 H 779.596 5.40332 6.79951 0
M  V30 4662 H 779.326 4.41613 5.32378 0
M  V30 4663 H 780.193 3.26331 7.47797 0
M  V30 4664 P 784.155 2.75334 8.47391 0
M  V30 4665 O 784.375 2.44571 9.90142 0
M  V30 4666 O 784.945 3.87688 7.92115 0
M  V30 4667 O 784.405 1.4459 7.59357 0
M  V30 4668 C 783.465 0.347608 7.69215 0
M  V30 4669 C 784.195 -0.96767 7.52806 0
M  V30 4670 O 784.405 -1.21036 6.1011 0
M  V30 4671 C 785.595 -1.04544 8.13308 0
M  V30 4672 O 785.985 -2.38311 8.41922 0
M  V30 4673 C 786.475 -0.491279 7.02284 0
M  V30 4674 C 785.765 -0.996264 5.77469 0
M  V30 4675 N 785.815 -0.0501916 4.62973 0
M  V30 4676 C 785.735 1.32786 4.63244 0
M  V30 4677 N 785.815 1.86957 3.44545 0
M  V30 4678 C 785.955 0.780241 2.58481 0
M  V30 4679 C 786.085 0.738536 1.17757 0
M  V30 4680 N 786.205 -0.58337 0.711393 0
M  V30 4681 C 786.205 -1.70816 1.51017 0
M  V30 4682 N 786.335 -2.87826 0.880757 0
M  V30 4683 N 786.075 -1.67126 2.8339 0
M  V30 4684 C 785.955 -0.401421 3.30572 0
M  V30 4685 H 782.976 0.374722 8.67691 0
M  V30 4686 H 782.706 0.443485 6.90277 0
M  V30 4687 H 783.573 -1.75537 7.96793 0
M  V30 4688 P 787.535 -2.75334 8.47391 0
M  V30 4689 O 787.755 -3.84128 9.44797 0
M  V30 4690 O 788.325 -1.51947 8.68712 0
M  V30 4691 O 787.785 -3.29363 6.99321 0
M  V30 4692 C 786.845 -4.24011 6.4274 0
M  V30 4693 C 787.575 -5.20775 5.52155 0
M  V30 4694 O 787.785 -4.56534 4.22446 0
M  V30 4695 C 788.975 -5.62629 5.96531 0
M  V30 4696 O 789.365 -6.87667 5.41053 0
M  V30 4697 C 789.855 -4.52537 5.39283 0
M  V30 4698 C 789.145 -4.20027 4.08623 0
M  V30 4699 N 789.195 -2.76189 3.71603 0
M  V30 4700 C 789.115 -1.64862 4.52822 0
M  V30 4701 N 789.195 -0.512671 3.88633 0
M  V30 4702 C 789.335 -0.888083 2.54977 0
M  V30 4703 C 789.465 -0.094668 1.38677 0
M  V30 4704 O 789.485 1.13053 1.28163 0
M  V30 4705 N 789.585 -0.890102 0.232633 0
M  V30 4706 C 789.585 -2.26958 0.21772 0
M  V30 4707 N 789.715 -2.84626 -0.97925 0
M  V30 4708 N 789.455 -3.0178 1.31033 0
M  V30 4709 C 789.335 -2.26781 2.43843 0
M  V30 4710 H 786.356 -4.797 7.24003 0
M  V30 4711 H 786.086 -3.69856 5.84513 0
M  V30 4712 H 786.953 -6.10356 5.41441 0
M  V30 4713 H 789.608 -4.79061 3.27488 0
M  V30 4714 H 789.887 -3.64906 6.05785 0
M  V30 4715 H 790.879 -4.8868 5.2125 0
M  V30 4716 H 789.045 -5.66726 7.06352 0
M  V30 4717 H 788.996 -1.71169 5.60966 0
M  V30 4718 H 789.678 -0.419134 -0.644739 0
M  V30 4719 H 789.715 -3.87332 -1.06098 0
M  V30 4720 H 789.816 -2.26417 -1.82483 0
M  V30 4721 P 790.915 -7.20834 5.23717 0
M  V30 4722 O 791.135 -8.66274 5.38678 0
M  V30 4723 O 791.705 -6.33687 6.13629 0
M  V30 4724 O 791.165 -6.7751 3.72168 0
M  V30 4725 C 790.225 -7.20919 2.70795 0
M  V30 4726 C 790.955 -7.45864 1.40599 0
M  V30 4727 O 791.165 -6.17751 0.734343 0
M  V30 4728 C 792.355 -8.05906 1.51917 0
M  V30 4729 O 792.745 -8.74358 0.335205 0
M  V30 4730 C 793.235 -6.83093 1.70294 0
M  V30 4731 C 792.525 -5.79992 0.836974 0
M  V30 4732 N 792.575 -4.41864 1.38293 0
M  V30 4733 C 792.495 -4.02089 2.69407 0
M  V30 4734 N 792.565 -2.73403 2.85089 0
M  V30 4735 C 792.715 -2.25086 1.5642 0
M  V30 4736 C 792.845 -0.942887 1.04836 0
M  V30 4737 N 792.855 0.150999 1.80369 0
M  V30 4738 N 792.965 -0.812565 -0.28167 0
M  V30 4739 C 792.955 -1.90572 -1.03784 0
M  V30 4740 N 792.835 -3.167 -0.683905 0
M  V30 4741 C 792.715 -3.26538 0.652815 0
M  V30 4742 H 789.737 -8.13738 3.03804 0
M  V30 4743 H 789.465 -6.42974 2.55559 0
M  V30 4744 H 790.333 -8.12139 0.792866 0
M  V30 4745 H 792.988 -5.80178 -0.160643 0
M  V30 4746 H 793.268 -6.51379 2.75643 0
M  V30 4747 H 794.259 -7.01832 1.3448 0
M  V30 4748 H 792.425 -8.73771 2.38364 0
M  V30 4749 H 792.384 -4.7189 3.52311 0
M  V30 4750 H 792.765 0.0721434 2.82608 0
M  V30 4751 H 792.954 1.0785 1.36544 0
M  V30 4752 H 793.062 -1.73207 -2.10241 0
M  V30 4753 P 794.295 -8.91 -5.6149e-12 0
M  V30 4754 O 794.515 -10.1736 -0.733766 0
M  V30 4755 O 795.085 -8.73247 1.2395 0
M  V30 4756 O 794.545 -7.66872 -0.971405 0
M  V30 4757 C 793.605 -7.42212 -2.04614 0
M  V30 4758 C 794.335 -6.86059 -3.24661 0
M  V30 4759 O 794.545 -5.42847 -3.03646 0
M  V30 4760 C 795.735 -7.41196 -3.50753 0
M  V30 4761 O 796.125 -7.27073 -4.86816 0
M  V30 4762 C 796.615 -6.5273 -2.63741 0
M  V30 4763 C 795.905 -5.1842 -2.73198 0
M  V30 4764 N 795.955 -4.38668 -1.47808 0
M  V30 4765 C 796.105 -3.02239 -1.60048 0
M  V30 4766 O 796.195 -2.46459 -2.67869 0
M  V30 4767 N 796.145 -2.32436 -0.408571 0
M  V30 4768 C 796.055 -2.85471 0.854993 0
M  V30 4769 C 795.905 -4.28918 0.887335 0
M  V30 4770 C 795.855 -5.00349 -0.255399 0
M  V30 4771 H 793.115 -8.36803 -2.32493 0
M  V30 4772 H 792.846 -6.701 -1.71105 0
M  V30 4773 H 793.713 -7.03551 -4.13168 0
M  V30 4774 H 796.368 -4.59773 -3.53894 0
M  V30 4775 H 796.647 -6.88995 -1.59871 0
M  V30 4776 H 797.639 -6.46749 -3.03687 0
M  V30 4777 H 795.805 -8.46908 -3.20714 0
M  V30 4778 H 795.734 -6.08548 -0.206986 0
M  V30 4779 P 797.675 -7.20834 -5.23717 0
M  V30 4780 O 797.895 -7.79853 -6.57286 0
M  V30 4781 O 798.465 -7.79239 -4.12957 0
M  V30 4782 O 797.925 -5.63315 -5.29344 0
M  V30 4783 C 796.985 -4.80255 -6.01876 0
M  V30 4784 C 797.715 -3.64202 -6.65911 0
M  V30 4785 O 797.925 -2.60694 -5.64732 0
M  V30 4786 C 799.115 -3.93473 -7.1943 0
M  V30 4787 O 799.505 -3.02071 -8.21205 0
M  V30 4788 C 799.995 -3.73047 -5.97036 0
M  V30 4789 C 799.285 -2.58828 -5.25741 0
M  V30 4790 N 799.335 -2.68068 -3.77503 0
M  V30 4791 C 799.255 -3.79715 -2.96723 0
M  V30 4792 N 799.335 -3.5377 -1.68852 0
M  V30 4793 C 799.475 -2.15054 -1.63254 0
M  V30 4794 C 799.605 -1.28964 -0.518571 0
M  V30 4795 O 799.625 -1.56826 0.679156 0
M  V30 4796 N 799.725 0.0538097 -0.918425 0
M  V30 4797 C 799.725 0.494275 -2.22578 0
M  V30 4798 N 799.855 1.81086 -2.40434 0
M  V30 4799 N 799.595 -0.313645 -3.27502 0
M  V30 4800 C 799.475 -1.61829 -2.91033 0
M  V30 4801 H 796.496 -5.40332 -6.79951 0
M  V30 4802 H 796.226 -4.41613 -5.32378 0
M  V30 4803 H 797.093 -3.26331 -7.47797 0
M  V30 4804 H 799.748 -1.63422 -5.56814 0
M  V30 4805 H 800.027 -4.63374 -5.34244 0
M  V30 4806 H 801.019 -3.44728 -6.25838 0
M  V30 4807 H 799.185 -4.96652 -7.57263 0
M  V30 4808 H 799.136 -4.80617 -3.3614 0
M  V30 4809 H 799.818 0.742702 -0.199384 0
M  V30 4810 H 799.855 2.20598 -3.35588 0
M  V30 4811 H 799.956 2.43518 -1.58945 0
M  V30 4812 P 801.055 -2.75334 -8.47391 0
M  V30 4813 O 801.275 -2.44571 -9.90142 0
M  V30 4814 O 801.845 -3.87688 -7.92115 0
M  V30 4815 O 801.305 -1.4459 -7.59357 0
M  V30 4816 C 800.365 -0.347608 -7.69215 0
M  V30 4817 C 801.095 0.96767 -7.52806 0
M  V30 4818 O 801.305 1.21036 -6.1011 0
M  V30 4819 C 802.495 1.04544 -8.13308 0
M  V30 4820 O 802.885 2.38311 -8.41922 0
M  V30 4821 C 803.375 0.491279 -7.02284 0
M  V30 4822 C 802.665 0.996264 -5.77469 0
M  V30 4823 N 802.715 0.0501916 -4.62973 0
M  V30 4824 C 802.635 -1.32786 -4.63244 0
M  V30 4825 N 802.715 -1.86957 -3.44545 0
M  V30 4826 C 802.855 -0.780241 -2.58481 0
M  V30 4827 C 802.985 -0.738536 -1.17757 0
M  V30 4828 O 803.005 -1.66794 -0.372349 0
M  V30 4829 N 803.105 0.58337 -0.711393 0
M  V30 4830 C 803.105 1.70816 -1.51017 0
M  V30 4831 N 803.235 2.87826 -0.880757 0
M  V30 4832 N 802.975 1.67126 -2.8339 0
M  V30 4833 C 802.855 0.401421 -3.30572 0
M  V30 4834 H 799.876 -0.374722 -8.67691 0
M  V30 4835 H 799.606 -0.443485 -6.90277 0
M  V30 4836 H 800.473 1.75537 -7.96793 0
M  V30 4837 H 803.128 1.95076 -5.46529 0
M  V30 4838 H 803.407 -0.608565 -7.04577 0
M  V30 4839 H 804.399 0.889672 -7.08939 0
M  V30 4840 H 802.565 0.43308 -9.04564 0
M  V30 4841 H 802.516 -1.91249 -5.54442 0
M  V30 4842 H 803.198 0.718054 0.275244 0
M  V30 4843 H 803.235 3.75721 -1.41832 0
M  V30 4844 H 803.336 2.90436 0.145468 0
M  V30 4845 P 804.435 2.75334 -8.47391 0
M  V30 4846 O 804.655 3.84128 -9.44797 0
M  V30 4847 O 805.225 1.51947 -8.68712 0
M  V30 4848 O 804.685 3.29363 -6.99321 0
M  V30 4849 C 803.745 4.24011 -6.4274 0
M  V30 4850 C 804.475 5.20775 -5.52155 0
M  V30 4851 O 804.685 4.56534 -4.22446 0
M  V30 4852 C 805.875 5.62629 -5.96531 0
M  V30 4853 O 806.265 6.87667 -5.41053 0
M  V30 4854 C 806.755 4.52537 -5.39283 0
M  V30 4855 C 806.045 4.20027 -4.08623 0
M  V30 4856 N 806.095 2.76189 -3.71603 0
M  V30 4857 C 806.015 1.64862 -4.52822 0
M  V30 4858 N 806.095 0.512671 -3.88633 0
M  V30 4859 C 806.235 0.888083 -2.54977 0
M  V30 4860 C 806.365 0.094668 -1.38677 0
M  V30 4861 O 806.385 -1.13053 -1.28163 0
M  V30 4862 N 806.485 0.890102 -0.232633 0
M  V30 4863 C 806.485 2.26958 -0.21772 0
M  V30 4864 N 806.615 2.84626 0.97925 0
M  V30 4865 N 806.355 3.0178 -1.31033 0
M  V30 4866 C 806.235 2.26781 -2.43843 0
M  V30 4867 H 803.256 4.797 -7.24003 0
M  V30 4868 H 802.986 3.69856 -5.84513 0
M  V30 4869 H 803.853 6.10356 -5.41441 0
M  V30 4870 H 806.508 4.79061 -3.27488 0
M  V30 4871 H 806.787 3.64906 -6.05785 0
M  V30 4872 H 807.779 4.8868 -5.2125 0
M  V30 4873 H 805.945 5.66726 -7.06352 0
M  V30 4874 H 805.896 1.71169 -5.60966 0
M  V30 4875 H 806.578 0.419134 0.644739 0
M  V30 4876 H 806.615 3.87332 1.06098 0
M  V30 4877 H 806.716 2.26417 1.82483 0
M  V30 4878 P 807.815 7.20834 -5.23717 0
M  V30 4879 O 808.035 8.66189 -5.38625 0
M  V30 4880 O 808.605 6.33615 -6.1356 0
M  V30 4881 O 808.065 6.7751 -3.72168 0
M  V30 4882 C 807.125 7.20732 -2.70725 0
M  V30 4883 C 807.855 7.45864 -1.40599 0
M  V30 4884 O 808.065 6.17651 -0.734225 0
M  V30 4885 C 809.255 8.05808 -1.51899 0
M  V30 4886 O 809.645 8.74358 -0.335205 0
M  V30 4887 C 810.135 6.83093 -1.70294 0
M  V30 4888 C 809.425 5.79992 -0.836974 0
M  V30 4889 N 809.475 4.41769 -1.38263 0
M  V30 4890 C 809.625 3.38591 -0.481702 0
M  V30 4891 O 809.715 3.56839 0.718452 0
M  V30 4892 N 809.665 2.1206 -1.03569 0
M  V30 4893 C 809.575 1.80696 -2.36966 0
M  V30 4894 C 809.425 2.94845 -3.23898 0
M  V30 4895 C 809.375 4.19803 -2.73435 0
M  V30 4896 H 806.635 8.13644 -3.0377 0
M  V30 4897 H 806.366 6.42695 -2.55448 0
M  V30 4898 H 807.233 8.12039 -0.792769 0
M  V30 4899 H 809.888 5.79978 0.160587 0
M  V30 4900 H 810.167 6.51379 -2.75643 0
M  V30 4901 H 811.159 7.01734 -1.34462 0
M  V30 4902 H 809.325 8.73674 -2.38337 0
M  V30 4903 H 809.254 5.04492 -3.4095 0
M  V30 4904 P 811.195 8.91 5.77209e-12 0
M  V30 4905 O 811.415 10.1726 0.733694 0
M  V30 4906 O 811.985 8.73148 -1.23936 0
M  V30 4907 O 811.445 7.66872 0.971405 0
M  V30 4908 C 810.505 7.42309 2.04641 0
M  V30 4909 C 811.235 6.86059 3.24661 0
M  V30 4910 O 811.445 5.42847 3.03646 0
M  V30 4911 C 812.635 7.41196 3.50753 0
M  V30 4912 O 813.025 7.27073 4.86816 0
M  V30 4913 C 813.515 6.5273 2.63741 0
M  V30 4914 C 812.805 5.1842 2.73198 0
M  V30 4915 N 812.855 4.38762 1.4784 0
M  V30 4916 C 812.775 4.81605 0.168631 0
M  V30 4917 N 812.855 3.85454 -0.713363 0
M  V30 4918 C 812.995 2.6994 0.0566958 0
M  V30 4919 C 813.125 1.34815 -0.338502 0
M  V30 4920 O 813.145 0.869548 -1.47125 0
M  V30 4921 N 813.245 0.496304 0.77465 0
M  V30 4922 C 813.245 0.908403 2.09122 0
M  V30 4923 N 813.375 -0.0517805 3.00955 0
M  V30 4924 N 813.115 2.17875 2.46519 0
M  V30 4925 C 812.995 3.01988 1.4033 0
M  V30 4926 H 810.016 8.36803 2.32493 0
M  V30 4927 H 809.746 6.70197 1.71129 0
M  V30 4928 H 810.613 7.03551 4.13168 0
M  V30 4929 H 813.268 4.59498 3.54415 0
M  V30 4930 H 813.547 6.88898 1.59848 0
M  V30 4931 H 814.539 6.46749 3.03687 0
M  V30 4932 H 812.705 8.46908 3.20714 0
M  V30 4933 H 812.656 5.86405 -0.105564 0
M  V30 4934 H 813.338 -0.483664 0.597855 0
M  V30 4935 H 813.375 0.187865 4.0116 0
M  V30 4936 H 813.476 -1.03585 2.71726 0
M  V30 4937 P 814.575 7.20834 5.23717 0
M  V30 4938 O 814.795 7.79853 6.57286 0
M  V30 4939 O 815.365 7.79239 4.12957 0
M  V30 4940 O 814.825 5.63315 5.29344 0
M  V30 4941 C 813.885 4.80255 6.01876 0
M  V30 4942 C 814.615 3.64202 6.65911 0
M  V30 4943 O 814.825 2.60694 5.64732 0
M  V30 4944 C 816.015 3.93473 7.1943 0
M  V30 4945 O 816.405 3.02071 8.21205 0
M  V30 4946 C 816.895 3.73047 5.97036 0
M  V30 4947 C 816.185 2.58828 5.25741 0
M  V30 4948 N 816.235 2.68068 3.77503 0
M  V30 4949 C 816.155 3.79715 2.96723 0
M  V30 4950 N 816.235 3.5377 1.68852 0
M  V30 4951 C 816.375 2.15054 1.63254 0
M  V30 4952 C 816.505 1.28964 0.518571 0
M  V30 4953 O 816.525 1.56826 -0.679156 0
M  V30 4954 N 816.625 -0.0538097 0.918425 0
M  V30 4955 C 816.625 -0.494275 2.22578 0
M  V30 4956 N 816.755 -1.81086 2.40434 0
M  V30 4957 N 816.495 0.313645 3.27502 0
M  V30 4958 C 816.375 1.61829 2.91033 0
M  V30 4959 H 813.396 5.40332 6.79951 0
M  V30 4960 H 813.126 4.41613 5.32378 0
M  V30 4961 H 813.993 3.26331 7.47797 0
M  V30 4962 H 816.648 1.63422 5.56814 0
M  V30 4963 H 816.927 4.63374 5.34244 0
M  V30 4964 H 817.919 3.44728 6.25838 0
M  V30 4965 H 816.085 4.96652 7.57263 0
M  V30 4966 H 816.036 4.80617 3.3614 0
M  V30 4967 H 816.718 -0.742702 0.199384 0
M  V30 4968 H 816.755 -2.20598 3.35588 0
M  V30 4969 H 816.856 -2.43518 1.58945 0
M  V30 4970 P 817.955 2.75334 8.47391 0
M  V30 4971 O 818.175 2.44595 9.90239 0
M  V30 4972 O 818.745 3.87732 7.92204 0
M  V30 4973 O 818.205 1.4459 7.59357 0
M  V30 4974 C 817.265 0.347563 7.69115 0
M  V30 4975 C 817.995 -0.96767 7.52806 0
M  V30 4976 O 818.205 -1.21036 6.1011 0
M  V30 4977 C 819.395 -1.04544 8.13308 0
M  V30 4978 O 819.785 -2.38311 8.41922 0
M  V30 4979 C 820.275 -0.491279 7.02284 0
M  V30 4980 C 819.565 -0.996264 5.77469 0
M  V30 4981 N 819.615 -0.0501808 4.62873 0
M  V30 4982 C 819.765 -0.588177 3.36904 0
M  V30 4983 O 819.855 -1.78598 3.17173 0
M  V30 4984 N 819.805 0.329694 2.33686 0
M  V30 4985 C 819.715 1.6953 2.45079 0
M  V30 4986 C 819.565 2.16933 3.80505 0
M  V30 4987 C 819.515 1.30326 4.83752 0
M  V30 4988 H 816.775 0.374722 8.67691 0
M  V30 4989 H 816.506 0.443421 6.90177 0
M  V30 4990 H 817.373 -1.75537 7.96793 0
M  V30 4991 H 820.028 -1.94496 5.46629 0
M  V30 4992 H 820.307 0.608651 7.04676 0
M  V30 4993 H 821.299 -0.889672 7.08939 0
M  V30 4994 H 819.465 -0.43308 9.04564 0
M  V30 4995 H 819.394 1.68366 5.8516 0
M  V30 4996 P 821.335 -2.75334 8.47391 0
M  V30 4997 O 821.555 -3.84128 9.44797 0
M  V30 4998 O 822.125 -1.51947 8.68712 0
M  V30 4999 O 821.585 -3.29363 6.99321 0
M  V30 5000 C 820.645 -4.24011 6.4274 0
M  V30 5001 C 821.375 -5.20775 5.52155 0
M  V30 5002 O 821.585 -4.56534 4.22446 0
M  V30 5003 C 822.775 -5.62629 5.96531 0
M  V30 5004 O 823.165 -6.87667 5.41053 0
M  V30 5005 C 823.655 -4.52537 5.39283 0
M  V30 5006 C 822.945 -4.20027 4.08623 0
M  V30 5007 N 822.995 -2.76189 3.71603 0
M  V30 5008 H 820.156 -4.797 7.24003 0
M  V30 5009 H 819.886 -3.69856 5.84513 0
M  V30 5010 H 820.753 -6.10356 5.41441 0
M  V30 5011 P 824.715 -7.20834 5.23717 0
M  V30 5012 O 824.935 -8.66104 5.38572 0
M  V30 5013 O 825.505 -6.33544 6.1349 0
M  V30 5014 O 824.965 -6.7751 3.72168 0
M  V30 5015 C 824.025 -7.20825 2.7076 0
M  V30 5016 C 824.755 -7.45864 1.40599 0
M  V30 5017 O 824.965 -6.17651 0.734225 0
M  V30 5018 C 826.155 -8.05808 1.51899 0
M  V30 5019 O 826.545 -8.74358 0.335205 0
M  V30 5020 C 827.035 -6.83093 1.70294 0
M  V30 5021 C 826.325 -5.79992 0.836974 0
M  V30 5022 N 826.375 -4.41864 1.38293 0
M  V30 5023 H 823.536 -8.13644 3.0377 0
M  V30 5024 H 823.266 -6.42788 2.55485 0
M  V30 5025 H 824.133 -8.12039 0.792769 0
M  V30 5026 P 828.095 -8.91 -5.92927e-12 0
M  V30 5027 O 828.315 -10.1736 -0.733766 0
M  V30 5028 O 828.885 -8.73247 1.2395 0
M  V30 5029 O 828.345 -7.66872 -0.971405 0
M  V30 5030 C 827.405 -7.42212 -2.04614 0
M  V30 5031 C 828.135 -6.86059 -3.24661 0
M  V30 5032 O 828.345 -5.42847 -3.03646 0
M  V30 5033 C 829.535 -7.41196 -3.50753 0
M  V30 5034 O 829.925 -7.27073 -4.86816 0
M  V30 5035 C 830.415 -6.5273 -2.63741 0
M  V30 5036 C 829.705 -5.1842 -2.73198 0
M  V30 5037 N 829.755 -4.38668 -1.47808 0
M  V30 5038 C 829.905 -3.02239 -1.60048 0
M  V30 5039 O 829.995 -2.46459 -2.67869 0
M  V30 5040 N 829.945 -2.32436 -0.408571 0
M  V30 5041 C 829.855 -2.85471 0.854993 0
M  V30 5042 C 829.705 -4.28918 0.887335 0
M  V30 5043 C 829.655 -5.00349 -0.255399 0
M  V30 5044 H 826.915 -8.36803 -2.32493 0
M  V30 5045 H 826.646 -6.701 -1.71105 0
M  V30 5046 H 827.513 -7.03551 -4.13168 0
M  V30 5047 H 830.168 -4.59773 -3.53894 0
M  V30 5048 H 830.447 -6.88995 -1.59871 0
M  V30 5049 H 831.439 -6.46749 -3.03687 0
M  V30 5050 H 829.605 -8.46908 -3.20714 0
M  V30 5051 H 829.534 -6.08548 -0.206986 0
M  V30 5052 P 831.475 -7.20834 -5.23717 0
M  V30 5053 O 831.695 -7.79853 -6.57286 0
M  V30 5054 O 832.265 -7.79239 -4.12957 0
M  V30 5055 O 831.725 -5.63315 -5.29344 0
M  V30 5056 C 830.785 -4.80255 -6.01876 0
M  V30 5057 C 831.515 -3.64202 -6.65911 0
M  V30 5058 O 831.725 -2.60694 -5.64732 0
M  V30 5059 C 832.915 -3.93473 -7.1943 0
M  V30 5060 O 833.305 -3.02071 -8.21205 0
M  V30 5061 C 833.795 -3.73047 -5.97036 0
M  V30 5062 C 833.085 -2.58828 -5.25741 0
M  V30 5063 N 833.135 -2.68068 -3.77503 0
M  V30 5064 H 830.296 -5.40332 -6.79951 0
M  V30 5065 H 830.026 -4.41613 -5.32378 0
M  V30 5066 H 830.893 -3.26331 -7.47797 0
M  V30 5067 P 834.855 -2.75334 -8.47391 0
M  V30 5068 O 835.075 -2.44571 -9.90142 0
M  V30 5069 O 835.645 -3.87688 -7.92115 0
M  V30 5070 O 835.105 -1.4459 -7.59357 0
M  V30 5071 C 834.165 -0.347608 -7.69215 0
M  V30 5072 C 834.895 0.96767 -7.52806 0
M  V30 5073 O 835.105 1.21036 -6.1011 0
M  V30 5074 C 836.295 1.04544 -8.13308 0
M  V30 5075 O 836.685 2.38311 -8.41922 0
M  V30 5076 C 837.175 0.491279 -7.02284 0
M  V30 5077 C 836.465 0.996264 -5.77469 0
M  V30 5078 N 836.515 0.0501916 -4.62973 0
M  V30 5079 C 836.435 -1.32786 -4.63244 0
M  V30 5080 N 836.515 -1.86957 -3.44545 0
M  V30 5081 C 836.655 -0.780241 -2.58481 0
M  V30 5082 C 836.785 -0.738536 -1.17757 0
M  V30 5083 O 836.805 -1.66794 -0.372349 0
M  V30 5084 N 836.905 0.58337 -0.711393 0
M  V30 5085 C 836.905 1.70816 -1.51017 0
M  V30 5086 N 837.035 2.87826 -0.880757 0
M  V30 5087 N 836.775 1.67126 -2.8339 0
M  V30 5088 C 836.655 0.401421 -3.30572 0
M  V30 5089 H 833.676 -0.374722 -8.67691 0
M  V30 5090 H 833.406 -0.443485 -6.90277 0
M  V30 5091 H 834.273 1.75537 -7.96793 0
M  V30 5092 H 836.928 1.95076 -5.46529 0
M  V30 5093 H 837.207 -0.608565 -7.04577 0
M  V30 5094 H 838.199 0.889672 -7.08939 0
M  V30 5095 H 836.365 0.43308 -9.04564 0
M  V30 5096 H 836.316 -1.91249 -5.54442 0
M  V30 5097 H 836.998 0.718054 0.275244 0
M  V30 5098 H 837.035 3.75721 -1.41832 0
M  V30 5099 H 837.136 2.90436 0.145468 0
M  V30 5100 P 838.235 2.75334 -8.47391 0
M  V30 5101 O 838.455 3.84166 -9.4489 0
M  V30 5102 O 839.025 1.51964 -8.6881 0
M  V30 5103 O 838.485 3.29363 -6.99321 0
M  V30 5104 C 837.545 4.23956 -6.42656 0
M  V30 5105 C 838.275 5.20775 -5.52155 0
M  V30 5106 O 838.485 4.56534 -4.22446 0
M  V30 5107 C 839.675 5.62629 -5.96531 0
M  V30 5108 O 840.065 6.87667 -5.41053 0
M  V30 5109 C 840.555 4.52537 -5.39283 0
M  V30 5110 C 839.845 4.20027 -4.08623 0
M  V30 5111 N 839.895 2.7613 -3.71522 0
M  V30 5112 C 840.045 2.45612 -2.37989 0
M  V30 5113 O 840.135 3.30919 -1.51621 0
M  V30 5114 N 840.085 1.10684 -2.08435 0
M  V30 5115 C 839.995 0.0690084 -2.9792 0
M  V30 5116 C 839.845 0.481522 -4.35345 0
M  V30 5117 C 839.795 1.78906 -4.67968 0
M  V30 5118 H 837.055 4.797 -7.24003 0
M  V30 5119 H 836.786 3.69802 -5.84429 0
M  V30 5120 H 837.653 6.10356 -5.41441 0
M  V30 5121 H 840.308 4.78651 -3.27911 0
M  V30 5122 H 840.587 3.64957 -6.05871 0
M  V30 5123 H 841.579 4.8868 -5.2125 0
M  V30 5124 H 839.745 5.66726 -7.06352 0
M  V30 5125 H 839.674 2.07737 -5.72367 0
M  V30 5126 P 841.615 7.20834 -5.23717 0
M  V30 5127 O 841.835 8.66104 -5.38572 0
M  V30 5128 O 842.405 6.33544 -6.1349 0
M  V30 5129 O 841.865 6.7751 -3.72168 0
M  V30 5130 C 840.925 7.20825 -2.7076 0
M  V30 5131 C 841.655 7.45864 -1.40599 0
M  V30 5132 O 841.865 6.17651 -0.734225 0
M  V30 5133 C 843.055 8.05808 -1.51899 0
M  V30 5134 O 843.445 8.74358 -0.335205 0
M  V30 5135 C 843.935 6.83093 -1.70294 0
M  V30 5136 C 843.225 5.79992 -0.836974 0
M  V30 5137 N 843.275 4.41864 -1.38293 0
M  V30 5138 H 840.436 8.13644 -3.0377 0
M  V30 5139 H 840.166 6.42788 -2.55485 0
M  V30 5140 H 841.033 8.12039 -0.792769 0
M  V30 5141 P 844.995 8.91 6.08645e-12 0
M  V30 5142 O 845.215 10.1726 0.733694 0
M  V30 5143 O 845.785 8.73148 -1.23936 0
M  V30 5144 O 845.245 7.66872 0.971405 0
M  V30 5145 C 844.305 7.42309 2.04641 0
M  V30 5146 C 845.035 6.86059 3.24661 0
M  V30 5147 O 845.245 5.42847 3.03646 0
M  V30 5148 C 846.435 7.41196 3.50753 0
M  V30 5149 O 846.825 7.27073 4.86816 0
M  V30 5150 C 847.315 6.5273 2.63741 0
M  V30 5151 C 846.605 5.1842 2.73198 0
M  V30 5152 N 846.655 4.38762 1.4784 0
M  V30 5153 H 843.816 8.36803 2.32493 0
M  V30 5154 H 843.546 6.70197 1.71129 0
M  V30 5155 H 844.413 7.03551 4.13168 0
M  V30 5156 P 848.375 7.20834 5.23717 0
M  V30 5157 O 848.595 7.79853 6.57286 0
M  V30 5158 O 849.165 7.79239 4.12957 0
M  V30 5159 O 848.625 5.63315 5.29344 0
M  V30 5160 C 847.685 4.80255 6.01876 0
M  V30 5161 C 848.415 3.64202 6.65911 0
M  V30 5162 O 848.625 2.60694 5.64732 0
M  V30 5163 C 849.815 3.93473 7.1943 0
M  V30 5164 O 850.205 3.02071 8.21205 0
M  V30 5165 C 850.695 3.73047 5.97036 0
M  V30 5166 C 849.985 2.58828 5.25741 0
M  V30 5167 N 850.035 2.68068 3.77503 0
M  V30 5168 C 849.955 3.79715 2.96723 0
M  V30 5169 N 850.035 3.5377 1.68852 0
M  V30 5170 C 850.175 2.15054 1.63254 0
M  V30 5171 C 850.305 1.28964 0.518571 0
M  V30 5172 O 850.325 1.56826 -0.679156 0
M  V30 5173 N 850.425 -0.0538097 0.918425 0
M  V30 5174 C 850.425 -0.494275 2.22578 0
M  V30 5175 N 850.555 -1.81086 2.40434 0
M  V30 5176 N 850.295 0.313645 3.27502 0
M  V30 5177 C 850.175 1.61829 2.91033 0
M  V30 5178 H 847.196 5.40332 6.79951 0
M  V30 5179 H 846.926 4.41613 5.32378 0
M  V30 5180 H 847.793 3.26331 7.47797 0
M  V30 5181 H 850.448 1.63422 5.56814 0
M  V30 5182 H 850.727 4.63374 5.34244 0
M  V30 5183 H 851.719 3.44728 6.25838 0
M  V30 5184 H 849.885 4.96652 7.57263 0
M  V30 5185 H 849.836 4.80617 3.3614 0
M  V30 5186 H 850.518 -0.742702 0.199384 0
M  V30 5187 H 850.555 -2.20598 3.35588 0
M  V30 5188 H 850.656 -2.43518 1.58945 0
M  V30 5189 P 851.755 2.75334 8.47391 0
M  V30 5190 O 851.975 2.44595 9.90239 0
M  V30 5191 O 852.545 3.87732 7.92204 0
M  V30 5192 O 852.005 1.4459 7.59357 0
M  V30 5193 C 851.065 0.347563 7.69115 0
M  V30 5194 C 851.795 -0.96767 7.52806 0
M  V30 5195 O 852.005 -1.21036 6.1011 0
M  V30 5196 C 853.195 -1.04544 8.13308 0
M  V30 5197 O 853.585 -2.38311 8.41922 0
M  V30 5198 C 854.075 -0.491279 7.02284 0
M  V30 5199 C 853.365 -0.996264 5.77469 0
M  V30 5200 N 853.415 -0.0501808 4.62873 0
M  V30 5201 C 853.565 -0.588177 3.36904 0
M  V30 5202 O 853.655 -1.78598 3.17173 0
M  V30 5203 N 853.605 0.329694 2.33686 0
M  V30 5204 C 853.515 1.6953 2.45079 0
M  V30 5205 C 853.365 2.16933 3.80505 0
M  V30 5206 C 853.315 1.30326 4.83752 0
M  V30 5207 H 850.575 0.374722 8.67691 0
M  V30 5208 H 850.306 0.443421 6.90177 0
M  V30 5209 H 851.173 -1.75537 7.96793 0
M  V30 5210 H 853.828 -1.94496 5.46629 0
M  V30 5211 H 854.107 0.608651 7.04676 0
M  V30 5212 H 855.099 -0.889672 7.08939 0
M  V30 5213 H 853.265 -0.43308 9.04564 0
M  V30 5214 H 853.194 1.68366 5.8516 0
M  V30 5215 P 855.135 -2.75334 8.47391 0
M  V30 5216 O 855.355 -3.84128 9.44797 0
M  V30 5217 O 855.925 -1.51947 8.68712 0
M  V30 5218 O 855.385 -3.29363 6.99321 0
M  V30 5219 C 854.445 -4.24011 6.4274 0
M  V30 5220 C 855.175 -5.20775 5.52155 0
M  V30 5221 O 855.385 -4.56534 4.22446 0
M  V30 5222 C 856.575 -5.62629 5.96531 0
M  V30 5223 O 856.965 -6.87667 5.41053 0
M  V30 5224 C 857.455 -4.52537 5.39283 0
M  V30 5225 C 856.745 -4.20027 4.08623 0
M  V30 5226 N 856.795 -2.76189 3.71603 0
M  V30 5227 C 856.715 -1.64862 4.52822 0
M  V30 5228 N 856.795 -0.512671 3.88633 0
M  V30 5229 C 856.935 -0.888083 2.54977 0
M  V30 5230 C 857.065 -0.094668 1.38677 0
M  V30 5231 O 857.085 1.13053 1.28163 0
M  V30 5232 N 857.185 -0.890102 0.232633 0
M  V30 5233 C 857.185 -2.26958 0.21772 0
M  V30 5234 N 857.315 -2.84626 -0.97925 0
M  V30 5235 N 857.055 -3.0178 1.31033 0
M  V30 5236 C 856.935 -2.26781 2.43843 0
M  V30 5237 H 853.956 -4.797 7.24003 0
M  V30 5238 H 853.686 -3.69856 5.84513 0
M  V30 5239 H 854.553 -6.10356 5.41441 0
M  V30 5240 H 857.208 -4.79061 3.27488 0
M  V30 5241 H 857.487 -3.64906 6.05785 0
M  V30 5242 H 858.479 -4.8868 5.2125 0
M  V30 5243 H 856.645 -5.66726 7.06352 0
M  V30 5244 H 856.596 -1.71169 5.60966 0
M  V30 5245 H 857.278 -0.419134 -0.644739 0
M  V30 5246 H 857.315 -3.87332 -1.06098 0
M  V30 5247 H 857.416 -2.26417 -1.82483 0
M  V30 5248 P 858.515 -7.20834 5.23717 0
M  V30 5249 O 858.735 -8.66104 5.38572 0
M  V30 5250 O 859.305 -6.33544 6.1349 0
M  V30 5251 O 858.765 -6.7751 3.72168 0
M  V30 5252 C 857.825 -7.20825 2.7076 0
M  V30 5253 C 858.555 -7.45864 1.40599 0
M  V30 5254 O 858.765 -6.17651 0.734225 0
M  V30 5255 C 859.955 -8.05808 1.51899 0
M  V30 5256 O 860.345 -8.74358 0.335205 0
M  V30 5257 C 860.835 -6.83093 1.70294 0
M  V30 5258 C 860.125 -5.79992 0.836974 0
M  V30 5259 N 860.175 -4.41864 1.38293 0
M  V30 5260 H 857.336 -8.13644 3.0377 0
M  V30 5261 H 857.066 -6.42788 2.55485 0
M  V30 5262 H 857.933 -8.12039 0.792769 0
M  V30 5263 P 861.895 -8.91 -6.24363e-12 0
M  V30 5264 O 862.115 -10.1726 -0.733694 0
M  V30 5265 O 862.685 -8.73148 1.23936 0
M  V30 5266 O 862.145 -7.66872 -0.971405 0
M  V30 5267 C 861.205 -7.42309 -2.04641 0
M  V30 5268 C 861.935 -6.86059 -3.24661 0
M  V30 5269 O 862.145 -5.42847 -3.03646 0
M  V30 5270 C 863.335 -7.41196 -3.50753 0
M  V30 5271 O 863.725 -7.27073 -4.86816 0
M  V30 5272 C 864.215 -6.5273 -2.63741 0
M  V30 5273 C 863.505 -5.1842 -2.73198 0
M  V30 5274 N 863.555 -4.38762 -1.4784 0
M  V30 5275 C 863.475 -4.81605 -0.168631 0
M  V30 5276 N 863.555 -3.85454 0.713363 0
M  V30 5277 C 863.695 -2.6994 -0.0566958 0
M  V30 5278 C 863.825 -1.34815 0.338502 0
M  V30 5279 O 863.845 -0.869548 1.47125 0
M  V30 5280 N 863.945 -0.496304 -0.77465 0
M  V30 5281 C 863.945 -0.908403 -2.09122 0
M  V30 5282 N 864.075 0.0517805 -3.00955 0
M  V30 5283 N 863.815 -2.17875 -2.46519 0
M  V30 5284 C 863.695 -3.01988 -1.4033 0
M  V30 5285 H 860.716 -8.36803 -2.32493 0
M  V30 5286 H 860.446 -6.70197 -1.71129 0
M  V30 5287 H 861.313 -7.03551 -4.13168 0
M  V30 5288 H 863.968 -4.59498 -3.54415 0
M  V30 5289 H 864.247 -6.88898 -1.59848 0
M  V30 5290 H 865.239 -6.46749 -3.03687 0
M  V30 5291 H 863.405 -8.46908 -3.20714 0
M  V30 5292 H 863.356 -5.86405 0.105564 0
M  V30 5293 H 864.038 0.483664 -0.597855 0
M  V30 5294 H 864.075 -0.187865 -4.0116 0
M  V30 5295 H 864.176 1.03585 -2.71726 0
M  V30 5296 P 865.275 -7.20834 -5.23717 0
M  V30 5297 O 865.495 -7.79853 -6.57286 0
M  V30 5298 O 866.065 -7.79239 -4.12957 0
M  V30 5299 O 865.525 -5.63315 -5.29344 0
M  V30 5300 C 864.585 -4.80255 -6.01876 0
M  V30 5301 C 865.315 -3.64202 -6.65911 0
M  V30 5302 O 865.525 -2.60694 -5.64732 0
M  V30 5303 C 866.715 -3.93473 -7.1943 0
M  V30 5304 O 867.105 -3.02071 -8.21205 0
M  V30 5305 C 867.595 -3.73047 -5.97036 0
M  V30 5306 C 866.885 -2.58828 -5.25741 0
M  V30 5307 N 866.935 -2.68068 -3.77503 0
M  V30 5308 H 864.096 -5.40332 -6.79951 0
M  V30 5309 H 863.826 -4.41613 -5.32378 0
M  V30 5310 H 864.693 -3.26331 -7.47797 0
M  V30 5311 P 868.655 -2.75334 -8.47391 0
M  V30 5312 O 868.875 -2.44571 -9.90142 0
M  V30 5313 O 869.445 -3.87688 -7.92115 0
M  V30 5314 O 868.905 -1.4459 -7.59357 0
M  V30 5315 C 867.965 -0.347608 -7.69215 0
M  V30 5316 C 868.695 0.96767 -7.52806 0
M  V30 5317 O 868.905 1.21036 -6.1011 0
M  V30 5318 C 870.095 1.04544 -8.13308 0
M  V30 5319 O 870.485 2.38311 -8.41922 0
M  V30 5320 C 870.975 0.491279 -7.02284 0
M  V30 5321 C 870.265 0.996264 -5.77469 0
M  V30 5322 N 870.315 0.0501916 -4.62973 0
M  V30 5323 H 867.476 -0.374722 -8.67691 0
M  V30 5324 H 867.206 -0.443485 -6.90277 0
M  V30 5325 H 868.073 1.75537 -7.96793 0
M  V30 5326 P 872.035 2.75334 -8.47391 0
M  V30 5327 O 872.255 3.84128 -9.44797 0
M  V30 5328 O 872.825 1.51947 -8.68712 0
M  V30 5329 O 872.285 3.29363 -6.99321 0
M  V30 5330 C 871.345 4.24011 -6.4274 0
M  V30 5331 C 872.075 5.20775 -5.52155 0
M  V30 5332 O 872.285 4.56534 -4.22446 0
M  V30 5333 C 873.475 5.62629 -5.96531 0
M  V30 5334 O 873.865 6.87667 -5.41053 0
M  V30 5335 C 874.355 4.52537 -5.39283 0
M  V30 5336 C 873.645 4.20027 -4.08623 0
M  V30 5337 N 873.695 2.76189 -3.71603 0
M  V30 5338 C 873.615 1.64862 -4.52822 0
M  V30 5339 N 873.695 0.512671 -3.88633 0
M  V30 5340 C 873.835 0.888083 -2.54977 0
M  V30 5341 C 873.965 0.094668 -1.38677 0
M  V30 5342 N 874.085 0.890102 -0.232633 0
M  V30 5343 C 874.085 2.26958 -0.21772 0
M  V30 5344 N 874.215 2.84626 0.97925 0
M  V30 5345 N 873.955 3.0178 -1.31033 0
M  V30 5346 C 873.835 2.26781 -2.43843 0
M  V30 5347 H 870.856 4.797 -7.24003 0
M  V30 5348 H 870.586 3.69856 -5.84513 0
M  V30 5349 H 871.453 6.10356 -5.41441 0
M  V30 5350 P 875.415 7.20834 -5.23717 0
M  V30 5351 O 875.635 8.66104 -5.38572 0
M  V30 5352 O 876.205 6.33544 -6.1349 0
M  V30 5353 O 875.665 6.7751 -3.72168 0
M  V30 5354 C 874.725 7.20825 -2.7076 0
M  V30 5355 C 875.455 7.45864 -1.40599 0
M  V30 5356 O 875.665 6.17651 -0.734225 0
M  V30 5357 C 876.855 8.05808 -1.51899 0
M  V30 5358 O 877.245 8.74358 -0.335205 0
M  V30 5359 C 877.735 6.83093 -1.70294 0
M  V30 5360 C 877.025 5.79992 -0.836974 0
M  V30 5361 N 877.075 4.41864 -1.38293 0
M  V30 5362 H 874.236 8.13644 -3.0377 0
M  V30 5363 H 873.966 6.42788 -2.55485 0
M  V30 5364 H 874.833 8.12039 -0.792769 0
M  V30 5365 P 878.795 8.91 6.40081e-12 0
M  V30 5366 O 879.015 10.1726 0.733694 0
M  V30 5367 O 879.585 8.73148 -1.23936 0
M  V30 5368 O 879.045 7.66872 0.971405 0
M  V30 5369 C 878.105 7.42309 2.04641 0
M  V30 5370 C 878.835 6.86059 3.24661 0
M  V30 5371 O 879.045 5.42847 3.03646 0
M  V30 5372 C 880.235 7.41196 3.50753 0
M  V30 5373 O 880.625 7.27073 4.86816 0
M  V30 5374 C 881.115 6.5273 2.63741 0
M  V30 5375 C 880.405 5.1842 2.73198 0
M  V30 5376 N 880.455 4.38762 1.4784 0
M  V30 5377 C 880.375 4.81605 0.168631 0
M  V30 5378 N 880.455 3.85454 -0.713363 0
M  V30 5379 C 880.595 2.6994 0.0566958 0
M  V30 5380 C 880.725 1.34815 -0.338502 0
M  V30 5381 O 880.745 0.869548 -1.47125 0
M  V30 5382 N 880.845 0.496304 0.77465 0
M  V30 5383 C 880.845 0.908403 2.09122 0
M  V30 5384 N 880.975 -0.0517805 3.00955 0
M  V30 5385 N 880.715 2.17875 2.46519 0
M  V30 5386 C 880.595 3.01988 1.4033 0
M  V30 5387 H 877.616 8.36803 2.32493 0
M  V30 5388 H 877.346 6.70197 1.71129 0
M  V30 5389 H 878.213 7.03551 4.13168 0
M  V30 5390 H 880.868 4.59498 3.54415 0
M  V30 5391 H 881.147 6.88898 1.59848 0
M  V30 5392 H 882.139 6.46749 3.03687 0
M  V30 5393 H 880.305 8.46908 3.20714 0
M  V30 5394 H 880.256 5.86405 -0.105564 0
M  V30 5395 H 880.938 -0.483664 0.597855 0
M  V30 5396 H 880.975 0.187865 4.0116 0
M  V30 5397 H 881.076 -1.03585 2.71726 0
M  V30 5398 P 882.175 7.20834 5.23717 0
M  V30 5399 O 882.395 7.79853 6.57286 0
M  V30 5400 O 882.965 7.79239 4.12957 0
M  V30 5401 O 882.425 5.63315 5.29344 0
M  V30 5402 C 881.485 4.80255 6.01876 0
M  V30 5403 C 882.215 3.64202 6.65911 0
M  V30 5404 O 882.425 2.60694 5.64732 0
M  V30 5405 C 883.615 3.93473 7.1943 0
M  V30 5406 O 884.005 3.02071 8.21205 0
M  V30 5407 C 884.495 3.73047 5.97036 0
M  V30 5408 C 883.785 2.58828 5.25741 0
M  V30 5409 N 883.835 2.68068 3.77503 0
M  V30 5410 C 883.755 3.79715 2.96723 0
M  V30 5411 N 883.835 3.5377 1.68852 0
M  V30 5412 C 883.975 2.15054 1.63254 0
M  V30 5413 C 884.105 1.28964 0.518571 0
M  V30 5414 N 884.225 -0.0538097 0.918425 0
M  V30 5415 C 884.225 -0.494275 2.22578 0
M  V30 5416 N 884.355 -1.81086 2.40434 0
M  V30 5417 N 884.095 0.313645 3.27502 0
M  V30 5418 C 883.975 1.61829 2.91033 0
M  V30 5419 H 880.996 5.40332 6.79951 0
M  V30 5420 H 880.726 4.41613 5.32378 0
M  V30 5421 H 881.593 3.26331 7.47797 0
M  V30 5422 P 885.555 2.75334 8.47391 0
M  V30 5423 O 885.775 2.44571 9.90142 0
M  V30 5424 O 886.345 3.87688 7.92115 0
M  V30 5425 O 885.805 1.4459 7.59357 0
M  V30 5426 C 884.865 0.347608 7.69215 0
M  V30 5427 C 885.595 -0.96767 7.52806 0
M  V30 5428 O 885.805 -1.21036 6.1011 0
M  V30 5429 C 886.995 -1.04544 8.13308 0
M  V30 5430 O 887.385 -2.38311 8.41922 0
M  V30 5431 C 887.875 -0.491279 7.02284 0
M  V30 5432 C 887.165 -0.996264 5.77469 0
M  V30 5433 N 887.215 -0.0501916 4.62973 0
M  V30 5434 H 884.376 0.374722 8.67691 0
M  V30 5435 H 884.106 0.443485 6.90277 0
M  V30 5436 H 884.973 -1.75537 7.96793 0
M  V30 5437 P 888.935 -2.75334 8.47391 0
M  V30 5438 O 889.155 -3.84128 9.44797 0
M  V30 5439 O 889.725 -1.51947 8.68712 0
M  V30 5440 O 889.185 -3.29363 6.99321 0
M  V30 5441 C 888.245 -4.24011 6.4274 0
M  V30 5442 C 888.975 -5.20775 5.52155 0
M  V30 5443 O 889.185 -4.56534 4.22446 0
M  V30 5444 C 890.375 -5.62629 5.96531 0
M  V30 5445 O 890.765 -6.87667 5.41053 0
M  V30 5446 C 891.255 -4.52537 5.39283 0
M  V30 5447 C 890.545 -4.20027 4.08623 0
M  V30 5448 N 890.595 -2.76189 3.71603 0
M  V30 5449 H 887.756 -4.797 7.24003 0
M  V30 5450 H 887.486 -3.69856 5.84513 0
M  V30 5451 H 888.353 -6.10356 5.41441 0
M  V30 5452 P 892.315 -7.20834 5.23717 0
M  V30 5453 O 892.535 -8.66104 5.38572 0
M  V30 5454 O 893.105 -6.33544 6.1349 0
M  V30 5455 O 892.565 -6.7751 3.72168 0
M  V30 5456 C 891.625 -7.20825 2.7076 0
M  V30 5457 C 892.355 -7.45864 1.40599 0
M  V30 5458 O 892.565 -6.17651 0.734225 0
M  V30 5459 C 893.755 -8.05808 1.51899 0
M  V30 5460 O 894.145 -8.74358 0.335205 0
M  V30 5461 C 894.635 -6.83093 1.70294 0
M  V30 5462 C 893.925 -5.79992 0.836974 0
M  V30 5463 N 893.975 -4.41864 1.38293 0
M  V30 5464 H 891.136 -8.13644 3.0377 0
M  V30 5465 H 890.866 -6.42788 2.55485 0
M  V30 5466 H 891.733 -8.12039 0.792769 0
M  V30 5467 P 895.695 -8.91 -6.558e-12 0
M  V30 5468 O 895.915 -10.1736 -0.733766 0
M  V30 5469 O 896.485 -8.73247 1.2395 0
M  V30 5470 O 895.945 -7.66872 -0.971405 0
M  V30 5471 C 895.005 -7.42212 -2.04614 0
M  V30 5472 C 895.735 -6.86059 -3.24661 0
M  V30 5473 O 895.945 -5.42847 -3.03646 0
M  V30 5474 C 897.135 -7.41196 -3.50753 0
M  V30 5475 O 897.525 -7.27073 -4.86816 0
M  V30 5476 C 898.015 -6.5273 -2.63741 0
M  V30 5477 C 897.305 -5.1842 -2.73198 0
M  V30 5478 N 897.355 -4.38668 -1.47808 0
M  V30 5479 C 897.505 -3.02239 -1.60048 0
M  V30 5480 O 897.595 -2.46459 -2.67869 0
M  V30 5481 N 897.545 -2.32436 -0.408571 0
M  V30 5482 C 897.455 -2.85471 0.854993 0
M  V30 5483 C 897.305 -4.28918 0.887335 0
M  V30 5484 C 897.255 -5.00349 -0.255399 0
M  V30 5485 H 894.515 -8.36803 -2.32493 0
M  V30 5486 H 894.246 -6.701 -1.71105 0
M  V30 5487 H 895.113 -7.03551 -4.13168 0
M  V30 5488 H 897.768 -4.59773 -3.53894 0
M  V30 5489 H 898.047 -6.88995 -1.59871 0
M  V30 5490 H 899.039 -6.46749 -3.03687 0
M  V30 5491 H 897.205 -8.46908 -3.20714 0
M  V30 5492 H 897.134 -6.08548 -0.206986 0
M  V30 5493 P 899.075 -7.20834 -5.23717 0
M  V30 5494 O 899.295 -7.7993 -6.57351 0
M  V30 5495 O 899.865 -7.79328 -4.13004 0
M  V30 5496 O 899.325 -5.63315 -5.29344 0
M  V30 5497 C 898.385 -4.80255 -6.01876 0
M  V30 5498 C 899.115 -3.64202 -6.65911 0
M  V30 5499 O 899.325 -2.60694 -5.64732 0
M  V30 5500 C 900.515 -3.93473 -7.1943 0
M  V30 5501 O 900.905 -3.02071 -8.21205 0
M  V30 5502 C 901.395 -3.73047 -5.97036 0
M  V30 5503 C 900.685 -2.58828 -5.25741 0
M  V30 5504 N 900.735 -2.6801 -3.77422 0
M  V30 5505 C 900.885 -1.50173 -3.05038 0
M  V30 5506 O 900.975 -0.428832 -3.665 0
M  V30 5507 N 900.935 -1.70922 -1.55541 0
M  V30 5508 C 900.835 -2.7407 -1.06402 0
M  V30 5509 N 900.885 -2.74764 0.260931 0
M  V30 5510 C 900.685 -3.96781 -1.78296 0
M  V30 5511 C 900.635 -3.87909 -3.13891 0
M  V30 5512 H 897.895 -5.4027 -6.79873 0
M  V30 5513 H 897.626 -4.41549 -5.32301 0
M  V30 5514 H 898.493 -3.26371 -7.47889 0
M  V30 5515 H 901.148 -1.63978 -5.5665 0
M  V30 5516 H 901.427 -4.63439 -5.3432 0
M  V30 5517 H 902.419 -3.44728 -6.25838 0
M  V30 5518 H 900.585 -4.96652 -7.57263 0
M  V30 5519 H 900.513 -4.78425 -3.73088 0
M  V30 5520 H 900.615 -4.92593 -1.26997 0
M  V30 5521 H 901.003 -1.86285 0.77595 0
M  V30 5522 H 900.806 -3.63657 0.773896 0
M  V30 5523 P 902.455 -2.75334 -8.47391 0
M  V30 5524 O 902.675 -2.44571 -9.90142 0
M  V30 5525 O 903.245 -3.87688 -7.92115 0
M  V30 5526 O 902.705 -1.4459 -7.59357 0
M  V30 5527 C 901.765 -0.347608 -7.69215 0
M  V30 5528 C 902.495 0.96767 -7.52806 0
M  V30 5529 O 902.705 1.21036 -6.1011 0
M  V30 5530 C 903.895 1.04544 -8.13308 0
M  V30 5531 O 904.285 2.38311 -8.41922 0
M  V30 5532 C 904.775 0.491279 -7.02284 0
M  V30 5533 C 904.065 0.996264 -5.77469 0
M  V30 5534 N 904.115 0.0501916 -4.62973 0
M  V30 5535 H 901.276 -0.374722 -8.67691 0
M  V30 5536 H 901.006 -0.443485 -6.90277 0
M  V30 5537 H 901.873 1.75537 -7.96793 0
M  V30 5538 P 905.835 2.75334 -8.47391 0
M  V30 5539 O 906.055 3.84128 -9.44797 0
M  V30 5540 O 906.625 1.51947 -8.68712 0
M  V30 5541 O 906.085 3.29363 -6.99321 0
M  V30 5542 C 905.145 4.24011 -6.4274 0
M  V30 5543 C 905.875 5.20775 -5.52155 0
M  V30 5544 O 906.085 4.56534 -4.22446 0
M  V30 5545 C 907.275 5.62629 -5.96531 0
M  V30 5546 O 907.665 6.87667 -5.41053 0
M  V30 5547 C 908.155 4.52537 -5.39283 0
M  V30 5548 C 907.445 4.20027 -4.08623 0
M  V30 5549 N 907.495 2.76189 -3.71603 0
M  V30 5550 H 904.656 4.797 -7.24003 0
M  V30 5551 H 904.386 3.69856 -5.84513 0
M  V30 5552 H 905.253 6.10356 -5.41441 0
M  V30 5553 P 909.215 7.20834 -5.23717 0
M  V30 5554 O 909.435 8.66104 -5.38572 0
M  V30 5555 O 910.005 6.33544 -6.1349 0
M  V30 5556 O 909.465 6.7751 -3.72168 0
M  V30 5557 C 908.525 7.20825 -2.7076 0
M  V30 5558 C 909.255 7.45864 -1.40599 0
M  V30 5559 O 909.465 6.17651 -0.734225 0
M  V30 5560 C 910.655 8.05808 -1.51899 0
M  V30 5561 O 911.045 8.74358 -0.335205 0
M  V30 5562 C 911.535 6.83093 -1.70294 0
M  V30 5563 C 910.825 5.79992 -0.836974 0
M  V30 5564 N 910.875 4.41864 -1.38293 0
M  V30 5565 C 910.795 3.99538 -2.69438 0
M  V30 5566 N 910.875 2.69909 -2.84277 0
M  V30 5567 C 911.015 2.21719 -1.5408 0
M  V30 5568 C 911.145 0.891712 -1.06628 0
M  V30 5569 O 911.165 -0.161298 -1.70137 0
M  V30 5570 N 911.265 0.856846 0.334985 0
M  V30 5571 C 911.265 1.9641 1.15789 0
M  V30 5572 N 911.395 1.72708 2.46522 0
M  V30 5573 N 911.135 3.21165 0.713741 0
M  V30 5574 C 911.015 3.26797 -0.639748 0
M  V30 5575 H 908.036 8.13644 -3.0377 0
M  V30 5576 H 907.766 6.42788 -2.55485 0
M  V30 5577 H 908.633 8.12039 -0.792769 0
M  V30 5578 H 911.288 5.80061 0.166416 0
M  V30 5579 H 911.567 6.51287 -2.75604 0
M  V30 5580 H 912.559 7.01734 -1.34462 0
M  V30 5581 H 910.725 8.73674 -2.38337 0
M  V30 5582 H 910.676 4.68207 -3.53221 0
M  V30 5583 H 911.358 -0.0398818 0.767965 0
M  V30 5584 H 911.395 2.50995 3.13503 0
M  V30 5585 H 911.496 0.759148 2.80716 0
M  V30 5586 P 912.595 8.91 6.71518e-12 0
M  V30 5587 O 912.815 10.1746 0.733838 0
M  V30 5588 O 913.385 8.73346 -1.23964 0
M  V30 5589 O 912.845 7.66872 0.971405 0
M  V30 5590 C 911.905 7.42405 2.04668 0
M  V30 5591 C 912.635 6.86059 3.24661 0
M  V30 5592 O 912.845 5.42934 3.03695 0
M  V30 5593 C 914.035 7.41287 3.50796 0
M  V30 5594 O 914.425 7.27073 4.86816 0
M  V30 5595 C 914.915 6.5273 2.63741 0
M  V30 5596 C 914.205 5.1842 2.73198 0
M  V30 5597 N 914.255 4.38762 1.4784 0
M  V30 5598 H 911.417 8.36899 2.3252 0
M  V30 5599 H 911.145 6.70391 1.71179 0
M  V30 5600 H 912.013 7.03638 4.13219 0
M  V30 5601 H 914.668 4.59931 3.54016 0
M  V30 5602 H 914.948 6.88995 1.59871 0
M  V30 5603 H 915.939 6.4684 3.0373 0
M  V30 5604 H 914.105 8.47002 3.20749 0
M  V30 5605 P 915.975 7.20834 5.23717 0
M  V30 5606 O 916.195 7.79853 6.57286 0
M  V30 5607 O 916.765 7.79239 4.12957 0
M  V30 5608 O 916.225 5.63315 5.29344 0
M  V30 5609 C 915.285 4.80255 6.01876 0
M  V30 5610 C 916.015 3.64202 6.65911 0
M  V30 5611 O 916.225 2.60694 5.64732 0
M  V30 5612 C 917.415 3.93473 7.1943 0
M  V30 5613 O 917.805 3.02071 8.21205 0
M  V30 5614 C 918.295 3.73047 5.97036 0
M  V30 5615 C 917.585 2.58828 5.25741 0
M  V30 5616 N 917.635 2.68068 3.77503 0
M  V30 5617 H 914.796 5.40332 6.79951 0
M  V30 5618 H 914.526 4.41613 5.32378 0
M  V30 5619 H 915.393 3.26331 7.47797 0
M  V30 5620 P 919.355 2.75334 8.47391 0
M  V30 5621 O 919.575 2.44571 9.90142 0
M  V30 5622 O 920.145 3.87688 7.92115 0
M  V30 5623 O 919.605 1.4459 7.59357 0
M  V30 5624 C 918.665 0.347608 7.69215 0
M  V30 5625 C 919.395 -0.96767 7.52806 0
M  V30 5626 O 919.605 -1.21036 6.1011 0
M  V30 5627 C 920.795 -1.04544 8.13308 0
M  V30 5628 O 921.185 -2.38311 8.41922 0
M  V30 5629 C 921.675 -0.491279 7.02284 0
M  V30 5630 C 920.965 -0.996264 5.77469 0
M  V30 5631 N 921.015 -0.0501916 4.62973 0
M  V30 5632 H 918.176 0.374722 8.67691 0
M  V30 5633 H 917.906 0.443485 6.90277 0
M  V30 5634 H 918.773 -1.75537 7.96793 0
M  V30 5635 P 922.735 -2.75334 8.47391 0
M  V30 5636 O 922.955 -3.84204 9.44982 0
M  V30 5637 O 923.525 -1.51982 8.68909 0
M  V30 5638 O 922.985 -3.29363 6.99321 0
M  V30 5639 C 922.045 -4.24066 6.42823 0
M  V30 5640 C 922.775 -5.20775 5.52155 0
M  V30 5641 O 922.985 -4.56607 4.22514 0
M  V30 5642 C 924.175 -5.62697 5.96604 0
M  V30 5643 O 924.565 -6.87667 5.41053 0
M  V30 5644 C 925.055 -4.52537 5.39283 0
M  V30 5645 C 924.345 -4.20027 4.08623 0
M  V30 5646 N 924.395 -2.76189 3.71603 0
M  V30 5647 H 921.557 -4.79756 7.24086 0
M  V30 5648 H 921.285 -3.69963 5.84682 0
M  V30 5649 H 922.153 -6.10431 5.41508 0
M  V30 5650 H 924.808 -4.78816 3.28024 0
M  V30 5651 H 925.088 -3.64957 6.05871 0
M  V30 5652 H 926.079 -4.88748 5.21323 0
M  V30 5653 H 924.245 -5.66789 7.0643 0
M  V30 5654 P 926.115 -7.20834 5.23717 0
M  V30 5655 O 926.335 -8.66104 5.38572 0
M  V30 5656 O 926.905 -6.33544 6.1349 0
M  V30 5657 O 926.365 -6.7751 3.72168 0
M  V30 5658 C 925.425 -7.20825 2.7076 0
M  V30 5659 C 926.155 -7.45864 1.40599 0
M  V30 5660 O 926.365 -6.17651 0.734225 0
M  V30 5661 C 927.555 -8.05808 1.51899 0
M  V30 5662 O 927.945 -8.74358 0.335205 0
M  V30 5663 C 928.435 -6.83093 1.70294 0
M  V30 5664 C 927.725 -5.79992 0.836974 0
M  V30 5665 N 927.775 -4.41864 1.38293 0
M  V30 5666 C 927.695 -3.99538 2.69438 0
M  V30 5667 N 927.775 -2.69909 2.84277 0
M  V30 5668 C 927.915 -2.21719 1.5408 0
M  V30 5669 C 928.045 -0.891712 1.06628 0
M  V30 5670 N 928.165 -0.856846 -0.334985 0
M  V30 5671 C 928.165 -1.9641 -1.15789 0
M  V30 5672 N 928.295 -1.72708 -2.46522 0
M  V30 5673 N 928.035 -3.21165 -0.713741 0
M  V30 5674 C 927.915 -3.26797 0.639748 0
M  V30 5675 H 924.936 -8.13644 3.0377 0
M  V30 5676 H 924.666 -6.42788 2.55485 0
M  V30 5677 H 925.533 -8.12039 0.792769 0
M  V30 5678 P 929.495 -8.91 -6.87236e-12 0
M  V30 5679 O 929.715 -10.1736 -0.733766 0
M  V30 5680 O 930.285 -8.73247 1.2395 0
M  V30 5681 O 929.745 -7.66872 -0.971405 0
M  V30 5682 C 928.805 -7.42212 -2.04614 0
M  V30 5683 C 929.535 -6.86059 -3.24661 0
M  V30 5684 O 929.745 -5.42847 -3.03646 0
M  V30 5685 C 930.935 -7.41196 -3.50753 0
M  V30 5686 O 931.325 -7.27073 -4.86816 0
M  V30 5687 C 931.815 -6.5273 -2.63741 0
M  V30 5688 C 931.105 -5.1842 -2.73198 0
M  V30 5689 N 931.155 -4.38668 -1.47808 0
M  V30 5690 C 931.305 -3.02239 -1.60048 0
M  V30 5691 O 931.395 -2.46459 -2.67869 0
M  V30 5692 N 931.345 -2.32436 -0.408571 0
M  V30 5693 C 931.255 -2.85471 0.854993 0
M  V30 5694 C 931.105 -4.28918 0.887335 0
M  V30 5695 C 931.055 -5.00349 -0.255399 0
M  V30 5696 H 928.315 -8.36803 -2.32493 0
M  V30 5697 H 928.046 -6.701 -1.71105 0
M  V30 5698 H 928.913 -7.03551 -4.13168 0
M  V30 5699 H 931.568 -4.59773 -3.53894 0
M  V30 5700 H 931.847 -6.88995 -1.59871 0
M  V30 5701 H 932.839 -6.46749 -3.03687 0
M  V30 5702 H 931.005 -8.46908 -3.20714 0
M  V30 5703 H 930.934 -6.08548 -0.206986 0
M  V30 5704 P 932.874 -7.20834 -5.23717 0
M  V30 5705 O 933.094 -7.79853 -6.57286 0
M  V30 5706 O 933.664 -7.79239 -4.12957 0
M  V30 5707 O 933.124 -5.63315 -5.29344 0
M  V30 5708 C 932.184 -4.80255 -6.01876 0
M  V30 5709 C 932.914 -3.64202 -6.65911 0
M  V30 5710 O 933.124 -2.60694 -5.64732 0
M  V30 5711 C 934.314 -3.93473 -7.1943 0
M  V30 5712 O 934.704 -3.02071 -8.21205 0
M  V30 5713 C 935.194 -3.73047 -5.97036 0
M  V30 5714 C 934.484 -2.58828 -5.25741 0
M  V30 5715 N 934.534 -2.68068 -3.77503 0
M  V30 5716 C 934.454 -3.79715 -2.96723 0
M  V30 5717 N 934.534 -3.5377 -1.68852 0
M  V30 5718 C 934.674 -2.15054 -1.63254 0
M  V30 5719 C 934.804 -1.28964 -0.518571 0
M  V30 5720 O 934.824 -1.56826 0.679156 0
M  V30 5721 N 934.924 0.0538097 -0.918425 0
M  V30 5722 C 934.924 0.494275 -2.22578 0
M  V30 5723 N 935.054 1.81086 -2.40434 0
M  V30 5724 N 934.794 -0.313645 -3.27502 0
M  V30 5725 C 934.674 -1.61829 -2.91033 0
M  V30 5726 H 931.695 -5.40332 -6.79951 0
M  V30 5727 H 931.425 -4.41613 -5.32378 0
M  V30 5728 H 932.292 -3.26331 -7.47797 0
M  V30 5729 H 934.947 -1.63422 -5.56814 0
M  V30 5730 H 935.226 -4.63374 -5.34244 0
M  V30 5731 H 936.218 -3.44728 -6.25838 0
M  V30 5732 H 934.384 -4.96652 -7.57263 0
M  V30 5733 H 934.335 -4.80617 -3.3614 0
M  V30 5734 H 935.017 0.742702 -0.199384 0
M  V30 5735 H 935.054 2.20598 -3.35588 0
M  V30 5736 H 935.155 2.43518 -1.58945 0
M  V30 5737 P 936.254 -2.75334 -8.47391 0
M  V30 5738 O 936.474 -2.44571 -9.90142 0
M  V30 5739 O 937.044 -3.87688 -7.92115 0
M  V30 5740 O 936.504 -1.4459 -7.59357 0
M  V30 5741 C 935.564 -0.347608 -7.69215 0
M  V30 5742 C 936.294 0.96767 -7.52806 0
M  V30 5743 O 936.504 1.21036 -6.1011 0
M  V30 5744 C 937.694 1.04544 -8.13308 0
M  V30 5745 O 938.084 2.38311 -8.41922 0
M  V30 5746 C 938.574 0.491279 -7.02284 0
M  V30 5747 C 937.864 0.996264 -5.77469 0
M  V30 5748 N 937.914 0.0501916 -4.62973 0
M  V30 5749 H 935.075 -0.374722 -8.67691 0
M  V30 5750 H 934.805 -0.443485 -6.90277 0
M  V30 5751 H 935.672 1.75537 -7.96793 0
M  V30 5752 P 939.634 2.75334 -8.47391 0
M  V30 5753 O 939.854 3.84128 -9.44797 0
M  V30 5754 O 940.424 1.51947 -8.68712 0
M  V30 5755 O 939.884 3.29363 -6.99321 0
M  V30 5756 C 938.944 4.24011 -6.4274 0
M  V30 5757 C 939.674 5.20775 -5.52155 0
M  V30 5758 O 939.884 4.56534 -4.22446 0
M  V30 5759 C 941.074 5.62629 -5.96531 0
M  V30 5760 O 941.464 6.87667 -5.41053 0
M  V30 5761 C 941.954 4.52537 -5.39283 0
M  V30 5762 C 941.244 4.20027 -4.08623 0
M  V30 5763 N 941.294 2.76189 -3.71603 0
M  V30 5764 C 941.214 1.64862 -4.52822 0
M  V30 5765 N 941.294 0.512671 -3.88633 0
M  V30 5766 C 941.434 0.888083 -2.54977 0
M  V30 5767 C 941.564 0.094668 -1.38677 0
M  V30 5768 O 941.584 -1.13053 -1.28163 0
M  V30 5769 N 941.684 0.890102 -0.232633 0
M  V30 5770 C 941.684 2.26958 -0.21772 0
M  V30 5771 N 941.814 2.84626 0.97925 0
M  V30 5772 N 941.554 3.0178 -1.31033 0
M  V30 5773 C 941.434 2.26781 -2.43843 0
M  V30 5774 H 938.455 4.797 -7.24003 0
M  V30 5775 H 938.185 3.69856 -5.84513 0
M  V30 5776 H 939.052 6.10356 -5.41441 0
M  V30 5777 H 941.707 4.79061 -3.27488 0
M  V30 5778 H 941.986 3.64906 -6.05785 0
M  V30 5779 H 942.978 4.8868 -5.2125 0
M  V30 5780 H 941.144 5.66726 -7.06352 0
M  V30 5781 H 941.095 1.71169 -5.60966 0
M  V30 5782 H 941.777 0.419134 0.644739 0
M  V30 5783 H 941.814 3.87332 1.06098 0
M  V30 5784 H 941.915 2.26417 1.82483 0
M  V30 5785 P 943.014 7.20834 -5.23717 0
M  V30 5786 O 943.234 8.66104 -5.38572 0
M  V30 5787 O 943.804 6.33544 -6.1349 0
M  V30 5788 O 943.264 6.7751 -3.72168 0
M  V30 5789 C 942.324 7.20825 -2.7076 0
M  V30 5790 C 943.054 7.45864 -1.40599 0
M  V30 5791 O 943.264 6.17651 -0.734225 0
M  V30 5792 C 944.454 8.05808 -1.51899 0
M  V30 5793 O 944.844 8.74358 -0.335205 0
M  V30 5794 C 945.334 6.83093 -1.70294 0
M  V30 5795 C 944.624 5.79992 -0.836974 0
M  V30 5796 N 944.674 4.41864 -1.38293 0
M  V30 5797 C 944.594 3.99538 -2.69438 0
M  V30 5798 N 944.674 2.69909 -2.84277 0
M  V30 5799 C 944.814 2.21719 -1.5408 0
M  V30 5800 C 944.944 0.891712 -1.06628 0
M  V30 5801 O 944.964 -0.161298 -1.70137 0
M  V30 5802 N 945.064 0.856846 0.334985 0
M  V30 5803 C 945.064 1.9641 1.15789 0
M  V30 5804 N 945.194 1.72708 2.46522 0
M  V30 5805 N 944.934 3.21165 0.713741 0
M  V30 5806 C 944.814 3.26797 -0.639748 0
M  V30 5807 H 941.835 8.13644 -3.0377 0
M  V30 5808 H 941.565 6.42788 -2.55485 0
M  V30 5809 H 942.432 8.12039 -0.792769 0
M  V30 5810 H 945.087 5.80061 0.166416 0
M  V30 5811 H 945.366 6.51287 -2.75604 0
M  V30 5812 H 946.358 7.01734 -1.34462 0
M  V30 5813 H 944.524 8.73674 -2.38337 0
M  V30 5814 H 944.475 4.68207 -3.53221 0
M  V30 5815 H 945.157 -0.0398818 0.767965 0
M  V30 5816 H 945.194 2.50995 3.13503 0
M  V30 5817 H 945.295 0.759148 2.80716 0
M  V30 5818 P 946.394 8.91 7.02954e-12 0
M  V30 5819 O 946.614 10.1726 0.733694 0
M  V30 5820 O 947.184 8.73148 -1.23936 0
M  V30 5821 O 946.644 7.66872 0.971405 0
M  V30 5822 C 945.704 7.42309 2.04641 0
M  V30 5823 C 946.434 6.86059 3.24661 0
M  V30 5824 O 946.644 5.42847 3.03646 0
M  V30 5825 C 947.834 7.41196 3.50753 0
M  V30 5826 O 948.224 7.27073 4.86816 0
M  V30 5827 C 948.714 6.5273 2.63741 0
M  V30 5828 C 948.004 5.1842 2.73198 0
M  V30 5829 N 948.054 4.38762 1.4784 0
M  V30 5830 H 945.215 8.36803 2.32493 0
M  V30 5831 H 944.945 6.70197 1.71129 0
M  V30 5832 H 945.812 7.03551 4.13168 0
M  V30 5833 P 949.774 7.20834 5.23717 0
M  V30 5834 O 949.994 7.7993 6.57351 0
M  V30 5835 O 950.564 7.79328 4.13004 0
M  V30 5836 O 950.024 5.63315 5.29344 0
M  V30 5837 C 949.084 4.80193 6.01798 0
M  V30 5838 C 949.814 3.64202 6.65911 0
M  V30 5839 O 950.024 2.60694 5.64732 0
M  V30 5840 C 951.214 3.93473 7.1943 0
M  V30 5841 O 951.604 3.02071 8.21205 0
M  V30 5842 C 952.094 3.73047 5.97036 0
M  V30 5843 C 951.384 2.58828 5.25741 0
M  V30 5844 N 951.434 2.6801 3.77422 0
M  V30 5845 C 951.584 1.50443 3.07133 0
M  V30 5846 O 951.674 0.419406 3.61576 0
M  V30 5847 N 951.624 1.6403 1.69677 0
M  V30 5848 C 951.534 2.81206 0.986255 0
M  V30 5849 O 951.584 2.80892 -0.249754 0
M  V30 5850 C 951.384 3.99158 1.80325 0
M  V30 5851 C 951.274 5.29309 1.06921 0
M  V30 5852 C 951.334 3.89779 3.1476 0
M  V30 5853 H 948.594 5.40332 6.79951 0
M  V30 5854 H 948.325 4.41549 5.32301 0
M  V30 5855 H 949.192 3.26331 7.47797 0
M  V30 5856 H 951.847 1.6395 5.56554 0
M  V30 5857 H 952.126 4.63439 5.3432 0
M  V30 5858 H 953.118 3.44728 6.25838 0
M  V30 5859 H 951.284 4.96652 7.57263 0
M  V30 5860 H 951.213 4.80159 3.74441 0
M  V30 5861 H 952.243 5.81459 1.09608 0
M  V30 5862 H 950.506 5.9187 1.54487 0
M  V30 5863 H 950.994 5.10095 0.0220288 0
M  V30 5864 H 951.73 0.798962 1.16664 0
M  V30 5865 P 953.154 2.75334 8.47391 0
M  V30 5866 O 953.374 2.44571 9.90142 0
M  V30 5867 O 953.944 3.87688 7.92115 0
M  V30 5868 O 953.404 1.4459 7.59357 0
M  V30 5869 C 952.464 0.347608 7.69215 0
M  V30 5870 C 953.194 -0.96767 7.52806 0
M  V30 5871 O 953.404 -1.21036 6.1011 0
M  V30 5872 C 954.594 -1.04544 8.13308 0
M  V30 5873 O 954.984 -2.38311 8.41922 0
M  V30 5874 C 955.474 -0.491279 7.02284 0
M  V30 5875 C 954.764 -0.996264 5.77469 0
M  V30 5876 N 954.814 -0.0501916 4.62973 0
M  V30 5877 H 951.975 0.374722 8.67691 0
M  V30 5878 H 951.705 0.443485 6.90277 0
M  V30 5879 H 952.572 -1.75537 7.96793 0
M  V30 5880 P 956.534 -2.75334 8.47391 0
M  V30 5881 O 956.754 -3.84128 9.44797 0
M  V30 5882 O 957.324 -1.51947 8.68712 0
M  V30 5883 O 956.784 -3.29363 6.99321 0
M  V30 5884 C 955.844 -4.24011 6.4274 0
M  V30 5885 C 956.574 -5.20775 5.52155 0
M  V30 5886 O 956.784 -4.56534 4.22446 0
M  V30 5887 C 957.974 -5.62629 5.96531 0
M  V30 5888 O 958.364 -6.87667 5.41053 0
M  V30 5889 C 958.854 -4.52537 5.39283 0
M  V30 5890 C 958.144 -4.20027 4.08623 0
M  V30 5891 N 958.194 -2.76189 3.71603 0
M  V30 5892 H 955.355 -4.797 7.24003 0
M  V30 5893 H 955.085 -3.69856 5.84513 0
M  V30 5894 H 955.952 -6.10356 5.41441 0
M  V30 5895 P 959.914 -7.20834 5.23717 0
M  V30 5896 O 960.134 -8.66104 5.38572 0
M  V30 5897 O 960.704 -6.33544 6.1349 0
M  V30 5898 O 960.164 -6.7751 3.72168 0
M  V30 5899 C 959.224 -7.20825 2.7076 0
M  V30 5900 C 959.954 -7.45864 1.40599 0
M  V30 5901 O 960.164 -6.17651 0.734225 0
M  V30 5902 C 961.354 -8.05808 1.51899 0
M  V30 5903 O 961.744 -8.74358 0.335205 0
M  V30 5904 C 962.234 -6.83093 1.70294 0
M  V30 5905 C 961.524 -5.79992 0.836974 0
M  V30 5906 N 961.574 -4.41864 1.38293 0
M  V30 5907 H 958.735 -8.13644 3.0377 0
M  V30 5908 H 958.465 -6.42788 2.55485 0
M  V30 5909 H 959.332 -8.12039 0.792769 0
M  V30 5910 P 963.294 -8.91 -7.18673e-12 0
M  V30 5911 O 963.514 -10.1736 -0.733766 0
M  V30 5912 O 964.084 -8.73247 1.2395 0
M  V30 5913 O 963.544 -7.66872 -0.971405 0
M  V30 5914 C 962.604 -7.42212 -2.04614 0
M  V30 5915 C 963.334 -6.86059 -3.24661 0
M  V30 5916 O 963.544 -5.42847 -3.03646 0
M  V30 5917 C 964.734 -7.41196 -3.50753 0
M  V30 5918 O 965.124 -7.27073 -4.86816 0
M  V30 5919 C 965.614 -6.5273 -2.63741 0
M  V30 5920 C 964.904 -5.1842 -2.73198 0
M  V30 5921 N 964.954 -4.38668 -1.47808 0
M  V30 5922 C 965.104 -3.02239 -1.60048 0
M  V30 5923 O 965.194 -2.46459 -2.67869 0
M  V30 5924 N 965.144 -2.32436 -0.408571 0
M  V30 5925 C 965.054 -2.85471 0.854993 0
M  V30 5926 O 965.104 -2.12566 1.8531 0
M  V30 5927 C 964.904 -4.28918 0.887335 0
M  V30 5928 C 964.794 -4.91066 2.24619 0
M  V30 5929 C 964.854 -5.00349 -0.255399 0
M  V30 5930 H 962.114 -8.36803 -2.32493 0
M  V30 5931 H 961.845 -6.701 -1.71105 0
M  V30 5932 H 962.712 -7.03551 -4.13168 0
M  V30 5933 H 965.367 -4.59773 -3.53894 0
M  V30 5934 H 965.646 -6.88995 -1.59871 0
M  V30 5935 H 966.638 -6.46749 -3.03687 0
M  V30 5936 H 964.804 -8.46908 -3.20714 0
M  V30 5937 H 964.733 -6.08548 -0.206986 0
M  V30 5938 H 965.763 -5.34836 2.53099 0
M  V30 5939 H 964.026 -5.69638 2.2291 0
M  V30 5940 H 964.514 -4.13971 2.98044 0
M  V30 5941 H 965.25 -1.33211 -0.474216 0
M  V30 5942 P 966.674 -7.20834 -5.23717 0
M  V30 5943 O 966.894 -7.7993 -6.57351 0
M  V30 5944 O 967.464 -7.79328 -4.13004 0
M  V30 5945 O 966.924 -5.63315 -5.29344 0
M  V30 5946 C 965.984 -4.80193 -6.01798 0
M  V30 5947 C 966.714 -3.64202 -6.65911 0
M  V30 5948 O 966.924 -2.60694 -5.64732 0
M  V30 5949 C 968.114 -3.93473 -7.1943 0
M  V30 5950 O 968.504 -3.02071 -8.21205 0
M  V30 5951 C 968.994 -3.73047 -5.97036 0
M  V30 5952 C 968.284 -2.58828 -5.25741 0
M  V30 5953 N 968.334 -2.6801 -3.77422 0
M  V30 5954 C 968.484 -1.50443 -3.07133 0
M  V30 5955 O 968.574 -0.419406 -3.61576 0
M  V30 5956 N 968.524 -1.6403 -1.69677 0
M  V30 5957 C 968.434 -2.81206 -0.986255 0
M  V30 5958 O 968.484 -2.80892 0.249754 0
M  V30 5959 C 968.284 -3.99158 -1.80325 0
M  V30 5960 C 968.174 -5.29309 -1.06921 0
M  V30 5961 C 968.234 -3.89779 -3.1476 0
M  V30 5962 H 965.494 -5.40332 -6.79951 0
M  V30 5963 H 965.225 -4.41549 -5.32301 0
M  V30 5964 H 966.092 -3.26331 -7.47797 0
M  V30 5965 H 968.747 -1.6395 -5.56554 0
M  V30 5966 H 969.026 -4.63439 -5.3432 0
M  V30 5967 H 970.018 -3.44728 -6.25838 0
M  V30 5968 H 968.184 -4.96652 -7.57263 0
M  V30 5969 H 968.113 -4.80159 -3.74441 0
M  V30 5970 H 969.143 -5.81459 -1.09608 0
M  V30 5971 H 967.406 -5.9187 -1.54487 0
M  V30 5972 H 967.894 -5.10095 -0.0220288 0
M  V30 5973 H 968.63 -0.798962 -1.16664 0
M  V30 5974 P 970.054 -2.75334 -8.47391 0
M  V30 5975 O 970.274 -2.44571 -9.90142 0
M  V30 5976 O 970.844 -3.87688 -7.92115 0
M  V30 5977 O 970.304 -1.4459 -7.59357 0
M  V30 5978 C 969.364 -0.347608 -7.69215 0
M  V30 5979 C 970.094 0.96767 -7.52806 0
M  V30 5980 O 970.304 1.21036 -6.1011 0
M  V30 5981 C 971.494 1.04544 -8.13308 0
M  V30 5982 O 971.884 2.38311 -8.41922 0
M  V30 5983 C 972.374 0.491279 -7.02284 0
M  V30 5984 C 971.664 0.996264 -5.77469 0
M  V30 5985 N 971.714 0.0501916 -4.62973 0
M  V30 5986 C 971.634 -1.32786 -4.63244 0
M  V30 5987 N 971.714 -1.86957 -3.44545 0
M  V30 5988 C 971.854 -0.780241 -2.58481 0
M  V30 5989 C 971.984 -0.738536 -1.17757 0
M  V30 5990 O 972.004 -1.66794 -0.372349 0
M  V30 5991 N 972.104 0.58337 -0.711393 0
M  V30 5992 C 972.104 1.70816 -1.51017 0
M  V30 5993 N 972.234 2.87826 -0.880757 0
M  V30 5994 N 971.974 1.67126 -2.8339 0
M  V30 5995 C 971.854 0.401421 -3.30572 0
M  V30 5996 H 968.875 -0.374722 -8.67691 0
M  V30 5997 H 968.605 -0.443485 -6.90277 0
M  V30 5998 H 969.472 1.75537 -7.96793 0
M  V30 5999 H 972.127 1.95076 -5.46529 0
M  V30 6000 H 972.406 -0.608565 -7.04577 0
M  V30 6001 H 973.398 0.889672 -7.08939 0
M  V30 6002 H 971.564 0.43308 -9.04564 0
M  V30 6003 H 971.515 -1.91249 -5.54442 0
M  V30 6004 H 972.197 0.718054 0.275244 0
M  V30 6005 H 972.234 3.75721 -1.41832 0
M  V30 6006 H 972.335 2.90436 0.145468 0
M  V30 6007 P 973.434 2.75334 -8.47391 0
M  V30 6008 O 973.654 3.84204 -9.44982 0
M  V30 6009 O 974.224 1.51982 -8.68909 0
M  V30 6010 O 973.684 3.29363 -6.99321 0
M  V30 6011 C 972.744 4.24066 -6.42823 0
M  V30 6012 C 973.474 5.20775 -5.52155 0
M  V30 6013 O 973.684 4.56607 -4.22514 0
M  V30 6014 C 974.874 5.62697 -5.96604 0
M  V30 6015 O 975.264 6.87667 -5.41053 0
M  V30 6016 C 975.754 4.52537 -5.39283 0
M  V30 6017 C 975.044 4.20027 -4.08623 0
M  V30 6018 N 975.094 2.76189 -3.71603 0
M  V30 6019 H 972.256 4.79756 -7.24086 0
M  V30 6020 H 971.984 3.69963 -5.84682 0
M  V30 6021 H 972.852 6.10431 -5.41508 0
M  V30 6022 H 975.507 4.78816 -3.28024 0
M  V30 6023 H 975.787 3.64957 -6.05871 0
M  V30 6024 H 976.778 4.88748 -5.21323 0
M  V30 6025 H 974.944 5.66789 -7.0643 0
M  V30 6026 P 976.814 7.20834 -5.23717 0
M  V30 6027 O 977.034 8.66189 -5.38625 0
M  V30 6028 O 977.604 6.33615 -6.1356 0
M  V30 6029 O 977.064 6.7751 -3.72168 0
M  V30 6030 C 976.124 7.20825 -2.7076 0
M  V30 6031 C 976.854 7.45864 -1.40599 0
M  V30 6032 O 977.064 6.17651 -0.734225 0
M  V30 6033 C 978.254 8.05808 -1.51899 0
M  V30 6034 O 978.644 8.74358 -0.335205 0
M  V30 6035 C 979.134 6.83093 -1.70294 0
M  V30 6036 C 978.424 5.79992 -0.836974 0
M  V30 6037 N 978.474 4.41769 -1.38263 0
M  V30 6038 C 978.624 3.36514 -0.485617 0
M  V30 6039 O 978.714 3.61814 0.724703 0
M  V30 6040 N 978.674 2.00746 -1.14492 0
M  V30 6041 C 978.574 1.85887 -2.27776 0
M  V30 6042 N 978.624 0.600907 -2.69379 0
M  V30 6043 C 978.424 2.92182 -3.22265 0
M  V30 6044 C 978.374 4.18399 -2.71925 0
M  V30 6045 H 975.634 8.1355 -3.03735 0
M  V30 6046 H 975.365 6.42695 -2.55448 0
M  V30 6047 H 976.232 8.12139 -0.792866 0
M  V30 6048 H 978.887 5.80078 0.160615 0
M  V30 6049 H 979.166 6.51379 -2.75643 0
M  V30 6050 H 980.158 7.01734 -1.34462 0
M  V30 6051 H 978.324 8.73674 -2.38337 0
M  V30 6052 H 978.252 5.02669 -3.39718 0
M  V30 6053 H 978.354 2.73001 -4.29239 0
M  V30 6054 H 978.742 -0.162318 -2.01146 0
M  V30 6055 H 978.545 0.387742 -3.69773 0
M  V30 6056 P 980.194 8.91 7.34391e-12 0
M  V30 6057 O 980.414 10.1726 0.733694 0
M  V30 6058 O 980.984 8.73148 -1.23936 0
M  V30 6059 O 980.444 7.66872 0.971405 0
M  V30 6060 C 979.504 7.42309 2.04641 0
M  V30 6061 C 980.234 6.86059 3.24661 0
M  V30 6062 O 980.444 5.42847 3.03646 0
M  V30 6063 C 981.634 7.41196 3.50753 0
M  V30 6064 O 982.024 7.27073 4.86816 0
M  V30 6065 C 982.514 6.5273 2.63741 0
M  V30 6066 C 981.804 5.1842 2.73198 0
M  V30 6067 N 981.854 4.38762 1.4784 0
M  V30 6068 H 979.015 8.36803 2.32493 0
M  V30 6069 H 978.745 6.70197 1.71129 0
M  V30 6070 H 979.612 7.03551 4.13168 0
M  V30 6071 P 983.574 7.20834 5.23717 0
M  V30 6072 O 983.794 7.80006 6.57415 0
M  V30 6073 O 984.364 7.79416 4.13051 0
M  V30 6074 O 983.824 5.63315 5.29344 0
M  V30 6075 C 982.884 4.80318 6.01954 0
M  V30 6076 C 983.614 3.64202 6.65911 0
M  V30 6077 O 983.824 2.60736 5.64823 0
M  V30 6078 C 985.014 3.93521 7.19518 0
M  V30 6079 O 985.404 3.02071 8.21205 0
M  V30 6080 C 985.894 3.73047 5.97036 0
M  V30 6081 C 985.184 2.58828 5.25741 0
M  V30 6082 N 985.234 2.68068 3.77503 0
M  V30 6083 H 982.396 5.40394 6.8003 0
M  V30 6084 H 982.124 4.41741 5.32532 0
M  V30 6085 H 982.992 3.26371 7.47889 0
M  V30 6086 H 985.647 1.64007 5.56746 0
M  V30 6087 H 985.927 4.63439 5.3432 0
M  V30 6088 H 986.918 3.44776 6.25925 0
M  V30 6089 H 985.084 4.96707 7.57347 0
M  V30 6090 P 986.954 2.75334 8.47391 0
M  V30 6091 O 987.174 2.44619 9.90336 0
M  V30 6092 O 987.744 3.87776 7.92294 0
M  V30 6093 O 987.204 1.4459 7.59357 0
M  V30 6094 C 986.264 0.347653 7.69315 0
M  V30 6095 C 986.994 -0.96767 7.52806 0
M  V30 6096 O 987.204 -1.21055 6.10208 0
M  V30 6097 C 988.394 -1.04557 8.13408 0
M  V30 6098 O 988.784 -2.38311 8.41922 0
M  V30 6099 C 989.274 -0.491279 7.02284 0
M  V30 6100 C 988.564 -0.996264 5.77469 0
M  V30 6101 N 988.614 -0.0501916 4.62973 0
M  V30 6102 H 985.776 0.374765 8.67791 0
M  V30 6103 H 985.504 0.443613 6.90476 0
M  V30 6104 H 986.372 -1.75559 7.96891 0
M  V30 6105 H 989.027 -1.94563 5.46818 0
M  V30 6106 H 989.307 0.608651 7.04676 0
M  V30 6107 H 990.298 -0.889796 7.09039 0
M  V30 6108 H 988.464 -0.433128 9.04664 0
M  V30 6109 P 990.334 -2.75334 8.47391 0
M  V30 6110 O 990.554 -3.84128 9.44797 0
M  V30 6111 O 991.124 -1.51947 8.68712 0
M  V30 6112 O 990.584 -3.29363 6.99321 0
M  V30 6113 C 989.644 -4.24011 6.4274 0
M  V30 6114 C 990.374 -5.20775 5.52155 0
M  V30 6115 O 990.584 -4.56534 4.22446 0
M  V30 6116 C 991.774 -5.62629 5.96531 0
M  V30 6117 O 992.164 -6.87667 5.41053 0
M  V30 6118 C 992.654 -4.52537 5.39283 0
M  V30 6119 C 991.944 -4.20027 4.08623 0
M  V30 6120 N 991.994 -2.76189 3.71603 0
M  V30 6121 C 991.914 -1.64862 4.52822 0
M  V30 6122 N 991.994 -0.512671 3.88633 0
M  V30 6123 C 992.134 -0.888083 2.54977 0
M  V30 6124 C 992.264 -0.094668 1.38677 0
M  V30 6125 N 992.384 -0.890102 0.232633 0
M  V30 6126 C 992.384 -2.26958 0.21772 0
M  V30 6127 N 992.514 -2.84626 -0.97925 0
M  V30 6128 N 992.254 -3.0178 1.31033 0
M  V30 6129 C 992.134 -2.26781 2.43843 0
M  V30 6130 H 989.155 -4.797 7.24003 0
M  V30 6131 H 988.885 -3.69856 5.84513 0
M  V30 6132 H 989.752 -6.10356 5.41441 0
M  V30 6133 P 993.714 -7.20834 5.23717 0
M  V30 6134 O 993.934 -8.66104 5.38572 0
M  V30 6135 O 994.504 -6.33544 6.1349 0
M  V30 6136 O 993.964 -6.7751 3.72168 0
M  V30 6137 C 993.024 -7.20825 2.7076 0
M  V30 6138 C 993.754 -7.45864 1.40599 0
M  V30 6139 O 993.964 -6.17651 0.734225 0
M  V30 6140 C 995.154 -8.05808 1.51899 0
M  V30 6141 O 995.544 -8.74358 0.335205 0
M  V30 6142 C 996.034 -6.83093 1.70294 0
M  V30 6143 C 995.324 -5.79992 0.836974 0
M  V30 6144 N 995.374 -4.41864 1.38293 0
M  V30 6145 C 995.294 -3.99538 2.69438 0
M  V30 6146 N 995.374 -2.69909 2.84277 0
M  V30 6147 C 995.514 -2.21719 1.5408 0
M  V30 6148 C 995.644 -0.891712 1.06628 0
M  V30 6149 O 995.664 0.161298 1.70137 0
M  V30 6150 N 995.764 -0.856846 -0.334985 0
M  V30 6151 C 995.764 -1.9641 -1.15789 0
M  V30 6152 N 995.894 -1.72708 -2.46522 0
M  V30 6153 N 995.634 -3.21165 -0.713741 0
M  V30 6154 C 995.514 -3.26797 0.639748 0
M  V30 6155 H 992.535 -8.13644 3.0377 0
M  V30 6156 H 992.265 -6.42788 2.55485 0
M  V30 6157 H 993.132 -8.12039 0.792769 0
M  V30 6158 H 995.787 -5.80061 -0.166416 0
M  V30 6159 H 996.066 -6.51287 2.75604 0
M  V30 6160 H 997.058 -7.01734 1.34462 0
M  V30 6161 H 995.224 -8.73674 2.38337 0
M  V30 6162 H 995.175 -4.68207 3.53221 0
M  V30 6163 H 995.857 0.0398818 -0.767965 0
M  V30 6164 H 995.894 -2.50995 -3.13503 0
M  V30 6165 H 995.995 -0.759148 -2.80716 0
M  V30 6166 P 997.094 -8.91 -7.50109e-12 0
M  V30 6167 O 997.314 -10.1726 -0.733694 0
M  V30 6168 O 997.884 -8.73148 1.23936 0
M  V30 6169 O 997.344 -7.66872 -0.971405 0
M  V30 6170 C 996.404 -7.42309 -2.04641 0
M  V30 6171 C 997.134 -6.86059 -3.24661 0
M  V30 6172 O 997.344 -5.42847 -3.03646 0
M  V30 6173 C 998.534 -7.41196 -3.50753 0
M  V30 6174 O 998.924 -7.27073 -4.86816 0
M  V30 6175 C 999.414 -6.5273 -2.63741 0
M  V30 6176 C 998.704 -5.1842 -2.73198 0
M  V30 6177 N 998.754 -4.38762 -1.4784 0
M  V30 6178 H 995.915 -8.36803 -2.32493 0
M  V30 6179 H 995.645 -6.70197 -1.71129 0
M  V30 6180 H 996.512 -7.03551 -4.13168 0
M  V30 6181 P 1000.47 -7.20834 -5.23717 0
M  V30 6182 O 1000.69 -7.79853 -6.57286 0
M  V30 6183 O 1001.26 -7.79239 -4.12957 0
M  V30 6184 O 1000.72 -5.63315 -5.29344 0
M  V30 6185 C 999.784 -4.80255 -6.01876 0
M  V30 6186 C 1000.51 -3.64202 -6.65911 0
M  V30 6187 O 1000.72 -2.60694 -5.64732 0
M  V30 6188 C 1001.91 -3.93473 -7.1943 0
M  V30 6189 O 1002.3 -3.02071 -8.21205 0
M  V30 6190 C 1002.79 -3.73047 -5.97036 0
M  V30 6191 C 1002.08 -2.58828 -5.25741 0
M  V30 6192 N 1002.13 -2.68068 -3.77503 0
M  V30 6193 H 999.295 -5.40332 -6.79951 0
M  V30 6194 H 999.025 -4.41613 -5.32378 0
M  V30 6195 H 999.892 -3.26331 -7.47797 0
M  V30 6196 P 1003.85 -2.75334 -8.47391 0
M  V30 6197 O 1004.07 -2.44595 -9.90239 0
M  V30 6198 O 1004.64 -3.87732 -7.92204 0
M  V30 6199 O 1004.1 -1.4459 -7.59357 0
M  V30 6200 C 1003.16 -0.347563 -7.69115 0
M  V30 6201 C 1003.89 0.96767 -7.52806 0
M  V30 6202 O 1004.1 1.21036 -6.1011 0
M  V30 6203 C 1005.29 1.04544 -8.13308 0
M  V30 6204 O 1005.68 2.38311 -8.41922 0
M  V30 6205 C 1006.17 0.491279 -7.02284 0
M  V30 6206 C 1005.46 0.996264 -5.77469 0
M  V30 6207 N 1005.51 0.0501808 -4.62873 0
M  V30 6208 C 1005.66 0.588177 -3.36904 0
M  V30 6209 O 1005.75 1.78598 -3.17173 0
M  V30 6210 N 1005.7 -0.329694 -2.33686 0
M  V30 6211 C 1005.61 -1.6953 -2.45079 0
M  V30 6212 C 1005.46 -2.16933 -3.80505 0
M  V30 6213 C 1005.41 -1.30326 -4.83752 0
M  V30 6214 H 1002.67 -0.374722 -8.67691 0
M  V30 6215 H 1002.41 -0.443421 -6.90177 0
M  V30 6216 H 1003.27 1.75537 -7.96793 0
M  V30 6217 H 1005.93 1.94496 -5.46629 0
M  V30 6218 H 1006.21 -0.608651 -7.04676 0
M  V30 6219 H 1007.2 0.889672 -7.08939 0
M  V30 6220 H 1005.36 0.43308 -9.04564 0
M  V30 6221 H 1005.29 -1.68366 -5.8516 0
M  V30 6222 P 1007.23 2.75334 -8.47391 0
M  V30 6223 O 1007.45 3.84128 -9.44797 0
M  V30 6224 O 1008.02 1.51947 -8.68712 0
M  V30 6225 O 1007.48 3.29363 -6.99321 0
M  V30 6226 C 1006.54 4.24011 -6.4274 0
M  V30 6227 C 1007.27 5.20775 -5.52155 0
M  V30 6228 O 1007.48 4.56534 -4.22446 0
M  V30 6229 C 1008.67 5.62629 -5.96531 0
M  V30 6230 O 1009.06 6.87667 -5.41053 0
M  V30 6231 C 1009.55 4.52537 -5.39283 0
M  V30 6232 C 1008.84 4.20027 -4.08623 0
M  V30 6233 N 1008.89 2.76189 -3.71603 0
M  V30 6234 C 1008.81 1.64862 -4.52822 0
M  V30 6235 N 1008.89 0.512671 -3.88633 0
M  V30 6236 C 1009.03 0.888083 -2.54977 0
M  V30 6237 C 1009.16 0.094668 -1.38677 0
M  V30 6238 N 1009.28 0.890102 -0.232633 0
M  V30 6239 C 1009.28 2.26958 -0.21772 0
M  V30 6240 N 1009.41 2.84626 0.97925 0
M  V30 6241 N 1009.15 3.0178 -1.31033 0
M  V30 6242 C 1009.03 2.26781 -2.43843 0
M  V30 6243 H 1006.06 4.797 -7.24003 0
M  V30 6244 H 1005.79 3.69856 -5.84513 0
M  V30 6245 H 1006.65 6.10356 -5.41441 0
M  V30 6246 P 1010.61 7.20834 -5.23717 0
M  V30 6247 O 1010.83 8.66274 -5.38678 0
M  V30 6248 O 1011.4 6.33687 -6.13629 0
M  V30 6249 O 1010.86 6.7751 -3.72168 0
M  V30 6250 C 1009.92 7.20919 -2.70795 0
M  V30 6251 C 1010.65 7.45864 -1.40599 0
M  V30 6252 O 1010.86 6.17751 -0.734343 0
M  V30 6253 C 1012.05 8.05906 -1.51917 0
M  V30 6254 O 1012.44 8.74358 -0.335205 0
M  V30 6255 C 1012.93 6.83093 -1.70294 0
M  V30 6256 C 1012.22 5.79992 -0.836974 0
M  V30 6257 N 1012.27 4.41864 -1.38293 0
M  V30 6258 C 1012.19 4.02089 -2.69407 0
M  V30 6259 N 1012.26 2.73403 -2.85089 0
M  V30 6260 C 1012.41 2.25086 -1.5642 0
M  V30 6261 C 1012.54 0.942887 -1.04836 0
M  V30 6262 N 1012.55 -0.150999 -1.80369 0
M  V30 6263 N 1012.66 0.812565 0.28167 0
M  V30 6264 C 1012.65 1.90572 1.03784 0
M  V30 6265 N 1012.53 3.167 0.683905 0
M  V30 6266 C 1012.41 3.26538 -0.652815 0
M  V30 6267 H 1009.44 8.13738 -3.03804 0
M  V30 6268 H 1009.16 6.42974 -2.55559 0
M  V30 6269 H 1010.03 8.12139 -0.792866 0
M  V30 6270 H 1012.69 5.80178 0.160643 0
M  V30 6271 H 1012.97 6.51379 -2.75643 0
M  V30 6272 H 1013.96 7.01832 -1.3448 0
M  V30 6273 H 1012.12 8.73771 -2.38364 0
M  V30 6274 H 1012.08 4.7189 -3.52311 0
M  V30 6275 H 1012.46 -0.0721434 -2.82608 0
M  V30 6276 H 1012.65 -1.0785 -1.36544 0
M  V30 6277 H 1012.76 1.73207 2.10241 0
M  V30 6278 P 1013.99 8.91 7.65827e-12 0
M  V30 6279 O 1014.21 10.1736 0.733766 0
M  V30 6280 O 1014.78 8.73247 -1.2395 0
M  V30 6281 O 1014.24 7.66872 0.971405 0
M  V30 6282 C 1013.3 7.42212 2.04614 0
M  V30 6283 C 1014.03 6.86059 3.24661 0
M  V30 6284 O 1014.24 5.42847 3.03646 0
M  V30 6285 C 1015.43 7.41196 3.50753 0
M  V30 6286 O 1015.82 7.27073 4.86816 0
M  V30 6287 C 1016.31 6.5273 2.63741 0
M  V30 6288 C 1015.6 5.1842 2.73198 0
M  V30 6289 N 1015.65 4.38668 1.47808 0
M  V30 6290 C 1015.8 3.02239 1.60048 0
M  V30 6291 O 1015.89 2.46459 2.67869 0
M  V30 6292 N 1015.84 2.32436 0.408571 0
M  V30 6293 C 1015.75 2.85471 -0.854993 0
M  V30 6294 O 1015.8 2.12566 -1.8531 0
M  V30 6295 C 1015.6 4.28918 -0.887335 0
M  V30 6296 C 1015.49 4.91066 -2.24619 0
M  V30 6297 C 1015.55 5.00349 0.255399 0
M  V30 6298 H 1012.81 8.36803 2.32493 0
M  V30 6299 H 1012.55 6.701 1.71105 0
M  V30 6300 H 1013.41 7.03551 4.13168 0
M  V30 6301 H 1016.07 4.59773 3.53894 0
M  V30 6302 H 1016.35 6.88995 1.59871 0
M  V30 6303 H 1017.34 6.46749 3.03687 0
M  V30 6304 H 1015.5 8.46908 3.20714 0
M  V30 6305 H 1015.43 6.08548 0.206986 0
M  V30 6306 H 1016.46 5.34836 -2.53099 0
M  V30 6307 H 1014.73 5.69638 -2.2291 0
M  V30 6308 H 1015.21 4.13971 -2.98044 0
M  V30 6309 H 1015.95 1.33211 0.474216 0
M  V30 6310 P 1017.37 7.20834 5.23717 0
M  V30 6311 O 1017.59 7.79853 6.57286 0
M  V30 6312 O 1018.16 7.79239 4.12957 0
M  V30 6313 O 1017.62 5.63315 5.29344 0
M  V30 6314 C 1016.68 4.80255 6.01876 0
M  V30 6315 C 1017.41 3.64202 6.65911 0
M  V30 6316 O 1017.62 2.60694 5.64732 0
M  V30 6317 C 1018.81 3.93473 7.1943 0
M  V30 6318 O 1019.2 3.02071 8.21205 0
M  V30 6319 C 1019.69 3.73047 5.97036 0
M  V30 6320 C 1018.98 2.58828 5.25741 0
M  V30 6321 N 1019.03 2.68068 3.77503 0
M  V30 6322 H 1016.19 5.40332 6.79951 0
M  V30 6323 H 1015.92 4.41613 5.32378 0
M  V30 6324 H 1016.79 3.26331 7.47797 0
M  V30 6325 P 1020.75 2.75334 8.47391 0
M  V30 6326 O 1020.97 2.44571 9.90142 0
M  V30 6327 O 1021.54 3.87688 7.92115 0
M  V30 6328 O 1021 1.4459 7.59357 0
M  V30 6329 C 1020.06 0.347608 7.69215 0
M  V30 6330 C 1020.79 -0.96767 7.52806 0
M  V30 6331 O 1021 -1.21036 6.1011 0
M  V30 6332 C 1022.19 -1.04544 8.13308 0
M  V30 6333 O 1022.58 -2.38311 8.41922 0
M  V30 6334 C 1023.07 -0.491279 7.02284 0
M  V30 6335 C 1022.36 -0.996264 5.77469 0
M  V30 6336 N 1022.41 -0.0501916 4.62973 0
M  V30 6337 H 1019.57 0.374722 8.67691 0
M  V30 6338 H 1019.3 0.443485 6.90277 0
M  V30 6339 H 1020.17 -1.75537 7.96793 0
M  V30 6340 P 1024.13 -2.75334 8.47391 0
M  V30 6341 O 1024.35 -3.84128 9.44797 0
M  V30 6342 O 1024.92 -1.51947 8.68712 0
M  V30 6343 O 1024.38 -3.29363 6.99321 0
M  V30 6344 C 1023.44 -4.24011 6.4274 0
M  V30 6345 C 1024.17 -5.20775 5.52155 0
M  V30 6346 O 1024.38 -4.56534 4.22446 0
M  V30 6347 C 1025.57 -5.62629 5.96531 0
M  V30 6348 O 1025.96 -6.87667 5.41053 0
M  V30 6349 C 1026.45 -4.52537 5.39283 0
M  V30 6350 C 1025.74 -4.20027 4.08623 0
M  V30 6351 N 1025.79 -2.76189 3.71603 0
M  V30 6352 H 1022.95 -4.797 7.24003 0
M  V30 6353 H 1022.68 -3.69856 5.84513 0
M  V30 6354 H 1023.55 -6.10356 5.41441 0
M  V30 6355 P 1027.51 -7.20834 5.23717 0
M  V30 6356 O 1027.73 -8.66104 5.38572 0
M  V30 6357 O 1028.3 -6.33544 6.1349 0
M  V30 6358 O 1027.76 -6.7751 3.72168 0
M  V30 6359 C 1026.82 -7.20825 2.7076 0
M  V30 6360 C 1027.55 -7.45864 1.40599 0
M  V30 6361 O 1027.76 -6.17651 0.734225 0
M  V30 6362 C 1028.95 -8.05808 1.51899 0
M  V30 6363 O 1029.34 -8.74358 0.335205 0
M  V30 6364 C 1029.83 -6.83093 1.70294 0
M  V30 6365 C 1029.12 -5.79992 0.836974 0
M  V30 6366 N 1029.17 -4.41864 1.38293 0
M  V30 6367 H 1026.33 -8.13644 3.0377 0
M  V30 6368 H 1026.06 -6.42788 2.55485 0
M  V30 6369 H 1026.93 -8.12039 0.792769 0
M  V30 6370 P 1030.89 -8.91 -7.81545e-12 0
M  V30 6371 O 1031.11 -10.1736 -0.733766 0
M  V30 6372 O 1031.68 -8.73247 1.2395 0
M  V30 6373 O 1031.14 -7.66872 -0.971405 0
M  V30 6374 C 1030.2 -7.42212 -2.04614 0
M  V30 6375 C 1030.93 -6.86059 -3.24661 0
M  V30 6376 O 1031.14 -5.42847 -3.03646 0
M  V30 6377 C 1032.33 -7.41196 -3.50753 0
M  V30 6378 O 1032.72 -7.27073 -4.86816 0
M  V30 6379 C 1033.21 -6.5273 -2.63741 0
M  V30 6380 C 1032.5 -5.1842 -2.73198 0
M  V30 6381 N 1032.55 -4.38668 -1.47808 0
M  V30 6382 C 1032.7 -3.02239 -1.60048 0
M  V30 6383 O 1032.79 -2.46459 -2.67869 0
M  V30 6384 N 1032.74 -2.32436 -0.408571 0
M  V30 6385 C 1032.65 -2.85471 0.854993 0
M  V30 6386 C 1032.5 -4.28918 0.887335 0
M  V30 6387 C 1032.45 -5.00349 -0.255399 0
M  V30 6388 H 1029.71 -8.36803 -2.32493 0
M  V30 6389 H 1029.44 -6.701 -1.71105 0
M  V30 6390 H 1030.31 -7.03551 -4.13168 0
M  V30 6391 H 1032.97 -4.59773 -3.53894 0
M  V30 6392 H 1033.25 -6.88995 -1.59871 0
M  V30 6393 H 1034.24 -6.46749 -3.03687 0
M  V30 6394 H 1032.4 -8.46908 -3.20714 0
M  V30 6395 H 1032.33 -6.08548 -0.206986 0
M  V30 6396 P 1034.27 -7.20834 -5.23717 0
M  V30 6397 O 1034.49 -7.79853 -6.57286 0
M  V30 6398 O 1035.06 -7.79239 -4.12957 0
M  V30 6399 O 1034.52 -5.63315 -5.29344 0
M  V30 6400 C 1033.58 -4.80255 -6.01876 0
M  V30 6401 C 1034.31 -3.64202 -6.65911 0
M  V30 6402 O 1034.52 -2.60694 -5.64732 0
M  V30 6403 C 1035.71 -3.93473 -7.1943 0
M  V30 6404 O 1036.1 -3.02071 -8.21205 0
M  V30 6405 C 1036.59 -3.73047 -5.97036 0
M  V30 6406 C 1035.88 -2.58828 -5.25741 0
M  V30 6407 N 1035.93 -2.68068 -3.77503 0
M  V30 6408 H 1033.09 -5.40332 -6.79951 0
M  V30 6409 H 1032.82 -4.41613 -5.32378 0
M  V30 6410 H 1033.69 -3.26331 -7.47797 0
M  V30 6411 P 1037.65 -2.75334 -8.47391 0
M  V30 6412 O 1037.87 -2.44571 -9.90142 0
M  V30 6413 O 1038.44 -3.87688 -7.92115 0
M  V30 6414 O 1037.9 -1.4459 -7.59357 0
M  V30 6415 C 1036.96 -0.347608 -7.69215 0
M  V30 6416 C 1037.69 0.96767 -7.52806 0
M  V30 6417 O 1037.9 1.21036 -6.1011 0
M  V30 6418 C 1039.09 1.04544 -8.13308 0
M  V30 6419 O 1039.48 2.38311 -8.41922 0
M  V30 6420 C 1039.97 0.491279 -7.02284 0
M  V30 6421 C 1039.26 0.996264 -5.77469 0
M  V30 6422 N 1039.31 0.0501916 -4.62973 0
M  V30 6423 H 1036.47 -0.374722 -8.67691 0
M  V30 6424 H 1036.2 -0.443485 -6.90277 0
M  V30 6425 H 1037.07 1.75537 -7.96793 0
M  V30 6426 P 1041.03 2.75334 -8.47391 0
M  V30 6427 O 1041.25 3.84128 -9.44797 0
M  V30 6428 O 1041.82 1.51947 -8.68712 0
M  V30 6429 O 1041.28 3.29363 -6.99321 0
M  V30 6430 C 1040.34 4.24011 -6.4274 0
M  V30 6431 C 1041.07 5.20775 -5.52155 0
M  V30 6432 O 1041.28 4.56534 -4.22446 0
M  V30 6433 C 1042.47 5.62629 -5.96531 0
M  V30 6434 O 1042.86 6.87667 -5.41053 0
M  V30 6435 C 1043.35 4.52537 -5.39283 0
M  V30 6436 C 1042.64 4.20027 -4.08623 0
M  V30 6437 N 1042.69 2.76189 -3.71603 0
M  V30 6438 H 1039.85 4.797 -7.24003 0
M  V30 6439 H 1039.58 3.69856 -5.84513 0
M  V30 6440 H 1040.45 6.10356 -5.41441 0
M  V30 6441 P 1044.41 7.20834 -5.23717 0
M  V30 6442 O 1044.63 8.66104 -5.38572 0
M  V30 6443 O 1045.2 6.33544 -6.1349 0
M  V30 6444 O 1044.66 6.7751 -3.72168 0
M  V30 6445 C 1043.72 7.20825 -2.7076 0
M  V30 6446 C 1044.45 7.45864 -1.40599 0
M  V30 6447 O 1044.66 6.17651 -0.734225 0
M  V30 6448 C 1045.85 8.05808 -1.51899 0
M  V30 6449 O 1046.24 8.74358 -0.335205 0
M  V30 6450 C 1046.73 6.83093 -1.70294 0
M  V30 6451 C 1046.02 5.79992 -0.836974 0
M  V30 6452 N 1046.07 4.41864 -1.38293 0
M  V30 6453 H 1043.23 8.13644 -3.0377 0
M  V30 6454 H 1042.96 6.42788 -2.55485 0
M  V30 6455 H 1043.83 8.12039 -0.792769 0
M  V30 6456 P 1047.79 8.91 7.97264e-12 0
M  V30 6457 O 1048.01 10.1726 0.733694 0
M  V30 6458 O 1048.58 8.73148 -1.23936 0
M  V30 6459 O 1048.04 7.66872 0.971405 0
M  V30 6460 C 1047.1 7.42309 2.04641 0
M  V30 6461 C 1047.83 6.86059 3.24661 0
M  V30 6462 O 1048.04 5.42847 3.03646 0
M  V30 6463 C 1049.23 7.41196 3.50753 0
M  V30 6464 O 1049.62 7.27073 4.86816 0
M  V30 6465 C 1050.11 6.5273 2.63741 0
M  V30 6466 C 1049.4 5.1842 2.73198 0
M  V30 6467 N 1049.45 4.38762 1.4784 0
M  V30 6468 H 1046.61 8.36803 2.32493 0
M  V30 6469 H 1046.34 6.70197 1.71129 0
M  V30 6470 H 1047.21 7.03551 4.13168 0
M  V30 6471 P 1051.17 7.20834 5.23717 0
M  V30 6472 O 1051.39 7.79853 6.57286 0
M  V30 6473 O 1051.96 7.79239 4.12957 0
M  V30 6474 O 1051.42 5.63315 5.29344 0
M  V30 6475 C 1050.48 4.80255 6.01876 0
M  V30 6476 C 1051.21 3.64202 6.65911 0
M  V30 6477 O 1051.42 2.60694 5.64732 0
M  V30 6478 C 1052.61 3.93473 7.1943 0
M  V30 6479 O 1053 3.02071 8.21205 0
M  V30 6480 C 1053.49 3.73047 5.97036 0
M  V30 6481 C 1052.78 2.58828 5.25741 0
M  V30 6482 N 1052.83 2.68068 3.77503 0
M  V30 6483 H 1049.99 5.40332 6.79951 0
M  V30 6484 H 1049.72 4.41613 5.32378 0
M  V30 6485 H 1050.59 3.26331 7.47797 0
M  V30 6486 P 1054.55 2.75334 8.47391 0
M  V30 6487 O 1054.77 2.44571 9.90142 0
M  V30 6488 O 1055.34 3.87688 7.92115 0
M  V30 6489 O 1054.8 1.4459 7.59357 0
M  V30 6490 C 1053.86 0.347608 7.69215 0
M  V30 6491 C 1054.59 -0.96767 7.52806 0
M  V30 6492 O 1054.8 -1.21036 6.1011 0
M  V30 6493 C 1055.99 -1.04544 8.13308 0
M  V30 6494 O 1056.38 -2.38311 8.41922 0
M  V30 6495 C 1056.87 -0.491279 7.02284 0
M  V30 6496 C 1056.16 -0.996264 5.77469 0
M  V30 6497 N 1056.21 -0.0501916 4.62973 0
M  V30 6498 H 1053.37 0.374722 8.67691 0
M  V30 6499 H 1053.1 0.443485 6.90277 0
M  V30 6500 H 1053.97 -1.75537 7.96793 0
M  V30 6501 P 1057.93 -2.75334 8.47391 0
M  V30 6502 O 1058.15 -3.84128 9.44797 0
M  V30 6503 O 1058.72 -1.51947 8.68712 0
M  V30 6504 O 1058.18 -3.29363 6.99321 0
M  V30 6505 C 1057.24 -4.24011 6.4274 0
M  V30 6506 C 1057.97 -5.20775 5.52155 0
M  V30 6507 O 1058.18 -4.56534 4.22446 0
M  V30 6508 C 1059.37 -5.62629 5.96531 0
M  V30 6509 O 1059.76 -6.87667 5.41053 0
M  V30 6510 C 1060.25 -4.52537 5.39283 0
M  V30 6511 C 1059.54 -4.20027 4.08623 0
M  V30 6512 N 1059.59 -2.76189 3.71603 0
M  V30 6513 H 1056.75 -4.797 7.24003 0
M  V30 6514 H 1056.48 -3.69856 5.84513 0
M  V30 6515 H 1057.35 -6.10356 5.41441 0
M  V30 6516 P 1061.31 -7.20834 5.23717 0
M  V30 6517 O 1061.53 -8.66104 5.38572 0
M  V30 6518 O 1062.1 -6.33544 6.1349 0
M  V30 6519 O 1061.56 -6.7751 3.72168 0
M  V30 6520 C 1060.62 -7.20825 2.7076 0
M  V30 6521 C 1061.35 -7.45864 1.40599 0
M  V30 6522 O 1061.56 -6.17651 0.734225 0
M  V30 6523 C 1062.75 -8.05808 1.51899 0
M  V30 6524 O 1063.14 -8.74358 0.335205 0
M  V30 6525 C 1063.63 -6.83093 1.70294 0
M  V30 6526 C 1062.92 -5.79992 0.836974 0
M  V30 6527 N 1062.97 -4.41864 1.38293 0
M  V30 6528 H 1060.13 -8.13644 3.0377 0
M  V30 6529 H 1059.86 -6.42788 2.55485 0
M  V30 6530 H 1060.73 -8.12039 0.792769 0
M  V30 6531 P 1064.69 -8.91 -8.12982e-12 0
M  V30 6532 O 1064.91 -10.1726 -0.733694 0
M  V30 6533 O 1065.48 -8.73148 1.23936 0
M  V30 6534 O 1064.94 -7.66872 -0.971405 0
M  V30 6535 C 1064 -7.42309 -2.04641 0
M  V30 6536 C 1064.73 -6.86059 -3.24661 0
M  V30 6537 O 1064.94 -5.42847 -3.03646 0
M  V30 6538 C 1066.13 -7.41196 -3.50753 0
M  V30 6539 O 1066.52 -7.27073 -4.86816 0
M  V30 6540 C 1067.01 -6.5273 -2.63741 0
M  V30 6541 C 1066.3 -5.1842 -2.73198 0
M  V30 6542 N 1066.35 -4.38762 -1.4784 0
M  V30 6543 C 1066.27 -4.81605 -0.168631 0
M  V30 6544 N 1066.35 -3.85454 0.713363 0
M  V30 6545 C 1066.49 -2.6994 -0.0566958 0
M  V30 6546 C 1066.62 -1.34815 0.338502 0
M  V30 6547 N 1066.74 -0.496304 -0.77465 0
M  V30 6548 C 1066.74 -0.908403 -2.09122 0
M  V30 6549 N 1066.87 0.0517805 -3.00955 0
M  V30 6550 N 1066.61 -2.17875 -2.46519 0
M  V30 6551 C 1066.49 -3.01988 -1.4033 0
M  V30 6552 H 1063.51 -8.36803 -2.32493 0
M  V30 6553 H 1063.24 -6.70197 -1.71129 0
M  V30 6554 H 1064.11 -7.03551 -4.13168 0
M  V30 6555 P 1068.07 -7.20834 -5.23717 0
M  V30 6556 O 1068.29 -7.79853 -6.57286 0
M  V30 6557 O 1068.86 -7.79239 -4.12957 0
M  V30 6558 O 1068.32 -5.63315 -5.29344 0
M  V30 6559 C 1067.38 -4.80255 -6.01876 0
M  V30 6560 C 1068.11 -3.64202 -6.65911 0
M  V30 6561 O 1068.32 -2.60694 -5.64732 0
M  V30 6562 C 1069.51 -3.93473 -7.1943 0
M  V30 6563 O 1069.9 -3.02071 -8.21205 0
M  V30 6564 C 1070.39 -3.73047 -5.97036 0
M  V30 6565 C 1069.68 -2.58828 -5.25741 0
M  V30 6566 N 1069.73 -2.68068 -3.77503 0
M  V30 6567 H 1066.89 -5.40332 -6.79951 0
M  V30 6568 H 1066.62 -4.41613 -5.32378 0
M  V30 6569 H 1067.49 -3.26331 -7.47797 0
M  V30 6570 P 1071.45 -2.75334 -8.47391 0
M  V30 6571 O 1071.67 -2.44619 -9.90336 0
M  V30 6572 O 1072.24 -3.87776 -7.92294 0
M  V30 6573 O 1071.7 -1.4459 -7.59357 0
M  V30 6574 C 1070.76 -0.347653 -7.69315 0
M  V30 6575 C 1071.49 0.96767 -7.52806 0
M  V30 6576 O 1071.7 1.21055 -6.10208 0
M  V30 6577 C 1072.89 1.04557 -8.13408 0
M  V30 6578 O 1073.28 2.38311 -8.41922 0
M  V30 6579 C 1073.77 0.491279 -7.02284 0
M  V30 6580 C 1073.06 0.996264 -5.77469 0
M  V30 6581 N 1073.11 0.0501916 -4.62973 0
M  V30 6582 H 1070.28 -0.374765 -8.67791 0
M  V30 6583 H 1070 -0.443613 -6.90476 0
M  V30 6584 H 1070.87 1.75559 -7.96891 0
M  V30 6585 H 1073.53 1.94563 -5.46818 0
M  V30 6586 H 1073.81 -0.608651 -7.04676 0
M  V30 6587 H 1074.8 0.889796 -7.09039 0
M  V30 6588 H 1072.96 0.433128 -9.04664 0
M  V30 6589 P 1074.83 2.75334 -8.47391 0
M  V30 6590 O 1075.05 3.84128 -9.44797 0
M  V30 6591 O 1075.62 1.51947 -8.68712 0
M  V30 6592 O 1075.08 3.29363 -6.99321 0
M  V30 6593 C 1074.14 4.24011 -6.4274 0
M  V30 6594 C 1074.87 5.20775 -5.52155 0
M  V30 6595 O 1075.08 4.56534 -4.22446 0
M  V30 6596 C 1076.27 5.62629 -5.96531 0
M  V30 6597 O 1076.66 6.87667 -5.41053 0
M  V30 6598 C 1077.15 4.52537 -5.39283 0
M  V30 6599 C 1076.44 4.20027 -4.08623 0
M  V30 6600 N 1076.49 2.76189 -3.71603 0
M  V30 6601 H 1073.65 4.797 -7.24003 0
M  V30 6602 H 1073.38 3.69856 -5.84513 0
M  V30 6603 H 1074.25 6.10356 -5.41441 0
M  V30 6604 P 1078.21 7.20834 -5.23717 0
M  V30 6605 O 1078.43 8.66104 -5.38572 0
M  V30 6606 O 1079 6.33544 -6.1349 0
M  V30 6607 O 1078.46 6.7751 -3.72168 0
M  V30 6608 C 1077.52 7.20825 -2.7076 0
M  V30 6609 C 1078.25 7.45864 -1.40599 0
M  V30 6610 O 1078.46 6.17651 -0.734225 0
M  V30 6611 C 1079.65 8.05808 -1.51899 0
M  V30 6612 O 1080.04 8.74358 -0.335205 0
M  V30 6613 C 1080.53 6.83093 -1.70294 0
M  V30 6614 C 1079.82 5.79992 -0.836974 0
M  V30 6615 N 1079.87 4.41864 -1.38293 0
M  V30 6616 H 1077.03 8.13644 -3.0377 0
M  V30 6617 H 1076.76 6.42788 -2.55485 0
M  V30 6618 H 1077.63 8.12039 -0.792769 0
M  V30 6619 P 1081.59 8.91 8.287e-12 0
M  V30 6620 O 1081.81 10.1726 0.733694 0
M  V30 6621 O 1082.38 8.73148 -1.23936 0
M  V30 6622 O 1081.84 7.66872 0.971405 0
M  V30 6623 C 1080.9 7.42309 2.04641 0
M  V30 6624 C 1081.63 6.86059 3.24661 0
M  V30 6625 O 1081.84 5.42847 3.03646 0
M  V30 6626 C 1083.03 7.41196 3.50753 0
M  V30 6627 O 1083.42 7.27073 4.86816 0
M  V30 6628 C 1083.91 6.5273 2.63741 0
M  V30 6629 C 1083.2 5.1842 2.73198 0
M  V30 6630 N 1083.25 4.38762 1.4784 0
M  V30 6631 H 1080.41 8.36803 2.32493 0
M  V30 6632 H 1080.14 6.70197 1.71129 0
M  V30 6633 H 1081.01 7.03551 4.13168 0
M  V30 6634 P 1084.97 7.20834 5.23717 0
M  V30 6635 O 1085.19 7.79853 6.57286 0
M  V30 6636 O 1085.76 7.79239 4.12957 0
M  V30 6637 O 1085.22 5.63315 5.29344 0
M  V30 6638 C 1084.28 4.80255 6.01876 0
M  V30 6639 C 1085.01 3.64202 6.65911 0
M  V30 6640 O 1085.22 2.60694 5.64732 0
M  V30 6641 C 1086.41 3.93473 7.1943 0
M  V30 6642 O 1086.8 3.02071 8.21205 0
M  V30 6643 C 1087.29 3.73047 5.97036 0
M  V30 6644 C 1086.58 2.58828 5.25741 0
M  V30 6645 N 1086.63 2.68068 3.77503 0
M  V30 6646 C 1086.55 3.79715 2.96723 0
M  V30 6647 N 1086.63 3.5377 1.68852 0
M  V30 6648 C 1086.77 2.15054 1.63254 0
M  V30 6649 C 1086.9 1.28964 0.518571 0
M  V30 6650 O 1086.92 1.56826 -0.679156 0
M  V30 6651 N 1087.02 -0.0538097 0.918425 0
M  V30 6652 C 1087.02 -0.494275 2.22578 0
M  V30 6653 N 1087.15 -1.81086 2.40434 0
M  V30 6654 N 1086.89 0.313645 3.27502 0
M  V30 6655 C 1086.77 1.61829 2.91033 0
M  V30 6656 H 1083.79 5.40332 6.79951 0
M  V30 6657 H 1083.52 4.41613 5.32378 0
M  V30 6658 H 1084.39 3.26331 7.47797 0
M  V30 6659 H 1087.05 1.63422 5.56814 0
M  V30 6660 H 1087.33 4.63374 5.34244 0
M  V30 6661 H 1088.32 3.44728 6.25838 0
M  V30 6662 H 1086.48 4.96652 7.57263 0
M  V30 6663 H 1086.43 4.80617 3.3614 0
M  V30 6664 H 1087.12 -0.742702 0.199384 0
M  V30 6665 H 1087.15 -2.20598 3.35588 0
M  V30 6666 H 1087.25 -2.43518 1.58945 0
M  V30 6667 P 1088.35 2.75334 8.47391 0
M  V30 6668 O 1088.57 2.44571 9.90142 0
M  V30 6669 O 1089.14 3.87688 7.92115 0
M  V30 6670 O 1088.6 1.4459 7.59357 0
M  V30 6671 C 1087.66 0.347608 7.69215 0
M  V30 6672 C 1088.39 -0.96767 7.52806 0
M  V30 6673 O 1088.6 -1.21036 6.1011 0
M  V30 6674 C 1089.79 -1.04544 8.13308 0
M  V30 6675 O 1090.18 -2.38311 8.41922 0
M  V30 6676 C 1090.67 -0.491279 7.02284 0
M  V30 6677 C 1089.96 -0.996264 5.77469 0
M  V30 6678 N 1090.01 -0.0501916 4.62973 0
M  V30 6679 H 1087.17 0.374722 8.67691 0
M  V30 6680 H 1086.9 0.443485 6.90277 0
M  V30 6681 H 1087.77 -1.75537 7.96793 0
M  V30 6682 P 1091.73 -2.75334 8.47391 0
M  V30 6683 O 1091.95 -3.84128 9.44797 0
M  V30 6684 O 1092.52 -1.51947 8.68712 0
M  V30 6685 O 1091.98 -3.29363 6.99321 0
M  V30 6686 C 1091.04 -4.24011 6.4274 0
M  V30 6687 C 1091.77 -5.20775 5.52155 0
M  V30 6688 O 1091.98 -4.56534 4.22446 0
M  V30 6689 C 1093.17 -5.62629 5.96531 0
M  V30 6690 O 1093.56 -6.87667 5.41053 0
M  V30 6691 C 1094.05 -4.52537 5.39283 0
M  V30 6692 C 1093.34 -4.20027 4.08623 0
M  V30 6693 N 1093.39 -2.76189 3.71603 0
M  V30 6694 H 1090.55 -4.797 7.24003 0
M  V30 6695 H 1090.28 -3.69856 5.84513 0
M  V30 6696 H 1091.15 -6.10356 5.41441 0
M  V30 6697 P 1095.11 -7.20834 5.23717 0
M  V30 6698 O 1095.33 -8.66104 5.38572 0
M  V30 6699 O 1095.9 -6.33544 6.1349 0
M  V30 6700 O 1095.36 -6.7751 3.72168 0
M  V30 6701 C 1094.42 -7.20825 2.7076 0
M  V30 6702 C 1095.15 -7.45864 1.40599 0
M  V30 6703 O 1095.36 -6.17651 0.734225 0
M  V30 6704 C 1096.55 -8.05808 1.51899 0
M  V30 6705 O 1096.94 -8.74358 0.335205 0
M  V30 6706 C 1097.43 -6.83093 1.70294 0
M  V30 6707 C 1096.72 -5.79992 0.836974 0
M  V30 6708 N 1096.77 -4.41864 1.38293 0
M  V30 6709 C 1096.69 -3.99538 2.69438 0
M  V30 6710 N 1096.77 -2.69909 2.84277 0
M  V30 6711 C 1096.91 -2.21719 1.5408 0
M  V30 6712 C 1097.04 -0.891712 1.06628 0
M  V30 6713 O 1097.06 0.161298 1.70137 0
M  V30 6714 N 1097.16 -0.856846 -0.334985 0
M  V30 6715 C 1097.16 -1.9641 -1.15789 0
M  V30 6716 N 1097.29 -1.72708 -2.46522 0
M  V30 6717 N 1097.03 -3.21165 -0.713741 0
M  V30 6718 C 1096.91 -3.26797 0.639748 0
M  V30 6719 H 1093.93 -8.13644 3.0377 0
M  V30 6720 H 1093.66 -6.42788 2.55485 0
M  V30 6721 H 1094.53 -8.12039 0.792769 0
M  V30 6722 H 1097.19 -5.80061 -0.166416 0
M  V30 6723 H 1097.47 -6.51287 2.75604 0
M  V30 6724 H 1098.46 -7.01734 1.34462 0
M  V30 6725 H 1096.62 -8.73674 2.38337 0
M  V30 6726 H 1096.57 -4.68207 3.53221 0
M  V30 6727 H 1097.26 0.0398818 -0.767965 0
M  V30 6728 H 1097.29 -2.50995 -3.13503 0
M  V30 6729 H 1097.39 -0.759148 -2.80716 0
M  V30 6730 P 1098.49 -8.91 -8.44418e-12 0
M  V30 6731 O 1098.71 -10.1726 -0.733694 0
M  V30 6732 O 1099.28 -8.73148 1.23936 0
M  V30 6733 O 1098.74 -7.66872 -0.971405 0
M  V30 6734 C 1097.8 -7.42309 -2.04641 0
M  V30 6735 C 1098.53 -6.86059 -3.24661 0
M  V30 6736 O 1098.74 -5.42847 -3.03646 0
M  V30 6737 C 1099.93 -7.41196 -3.50753 0
M  V30 6738 O 1100.32 -7.27073 -4.86816 0
M  V30 6739 C 1100.81 -6.5273 -2.63741 0
M  V30 6740 C 1100.1 -5.1842 -2.73198 0
M  V30 6741 N 1100.15 -4.38762 -1.4784 0
M  V30 6742 C 1100.07 -4.81605 -0.168631 0
M  V30 6743 N 1100.15 -3.85454 0.713363 0
M  V30 6744 C 1100.29 -2.6994 -0.0566958 0
M  V30 6745 C 1100.42 -1.34815 0.338502 0
M  V30 6746 N 1100.54 -0.496304 -0.77465 0
M  V30 6747 C 1100.54 -0.908403 -2.09122 0
M  V30 6748 N 1100.67 0.0517805 -3.00955 0
M  V30 6749 N 1100.41 -2.17875 -2.46519 0
M  V30 6750 C 1100.29 -3.01988 -1.4033 0
M  V30 6751 H 1097.31 -8.36803 -2.32493 0
M  V30 6752 H 1097.04 -6.70197 -1.71129 0
M  V30 6753 H 1097.91 -7.03551 -4.13168 0
M  V30 6754 P 1101.87 -7.20834 -5.23717 0
M  V30 6755 O 1102.09 -7.79853 -6.57286 0
M  V30 6756 O 1102.66 -7.79239 -4.12957 0
M  V30 6757 O 1102.12 -5.63315 -5.29344 0
M  V30 6758 C 1101.18 -4.80255 -6.01876 0
M  V30 6759 C 1101.91 -3.64202 -6.65911 0
M  V30 6760 O 1102.12 -2.60694 -5.64732 0
M  V30 6761 C 1103.31 -3.93473 -7.1943 0
M  V30 6762 O 1103.7 -3.02071 -8.21205 0
M  V30 6763 C 1104.19 -3.73047 -5.97036 0
M  V30 6764 C 1103.48 -2.58828 -5.25741 0
M  V30 6765 N 1103.53 -2.68068 -3.77503 0
M  V30 6766 H 1100.69 -5.40332 -6.79951 0
M  V30 6767 H 1100.42 -4.41613 -5.32378 0
M  V30 6768 H 1101.29 -3.26331 -7.47797 0
M  V30 6769 P 1105.25 -2.75334 -8.47391 0
M  V30 6770 O 1105.47 -2.44595 -9.90239 0
M  V30 6771 O 1106.04 -3.87732 -7.92204 0
M  V30 6772 O 1105.5 -1.4459 -7.59357 0
M  V30 6773 C 1104.56 -0.347563 -7.69115 0
M  V30 6774 C 1105.29 0.96767 -7.52806 0
M  V30 6775 O 1105.5 1.21036 -6.1011 0
M  V30 6776 C 1106.69 1.04544 -8.13308 0
M  V30 6777 O 1107.08 2.38311 -8.41922 0
M  V30 6778 C 1107.57 0.491279 -7.02284 0
M  V30 6779 C 1106.86 0.996264 -5.77469 0
M  V30 6780 N 1106.91 0.0501808 -4.62873 0
M  V30 6781 C 1107.06 0.588177 -3.36904 0
M  V30 6782 O 1107.15 1.78598 -3.17173 0
M  V30 6783 N 1107.1 -0.329694 -2.33686 0
M  V30 6784 C 1107.01 -1.6953 -2.45079 0
M  V30 6785 O 1107.06 -2.41926 -1.44899 0
M  V30 6786 C 1106.86 -2.16933 -3.80505 0
M  V30 6787 C 1106.75 -3.65373 -3.97621 0
M  V30 6788 C 1106.81 -1.30326 -4.83752 0
M  V30 6789 H 1104.07 -0.374722 -8.67691 0
M  V30 6790 H 1103.8 -0.443421 -6.90177 0
M  V30 6791 H 1104.67 1.75537 -7.96793 0
M  V30 6792 H 1107.33 1.94496 -5.46629 0
M  V30 6793 H 1107.61 -0.608651 -7.04676 0
M  V30 6794 H 1108.6 0.889672 -7.08939 0
M  V30 6795 H 1106.76 0.43308 -9.04564 0
M  V30 6796 H 1106.69 -1.68366 -5.8516 0
M  V30 6797 H 1107.72 -4.05985 -4.30448 0
M  V30 6798 H 1105.99 -3.88028 -4.72875 0
M  V30 6799 H 1106.47 -4.11381 -3.01609 0
M  V30 6800 H 1107.21 0.0393617 -1.41345 0
M  V30 6801 P 1108.63 2.75334 -8.47391 0
M  V30 6802 O 1108.85 3.84128 -9.44797 0
M  V30 6803 O 1109.42 1.51947 -8.68712 0
M  V30 6804 O 1108.88 3.29363 -6.99321 0
M  V30 6805 C 1107.94 4.24011 -6.4274 0
M  V30 6806 C 1108.67 5.20775 -5.52155 0
M  V30 6807 O 1108.88 4.56534 -4.22446 0
M  V30 6808 C 1110.07 5.62629 -5.96531 0
M  V30 6809 O 1110.46 6.87667 -5.41053 0
M  V30 6810 C 1110.95 4.52537 -5.39283 0
M  V30 6811 C 1110.24 4.20027 -4.08623 0
M  V30 6812 N 1110.29 2.76189 -3.71603 0
M  V30 6813 C 1110.21 1.64862 -4.52822 0
M  V30 6814 N 1110.29 0.512671 -3.88633 0
M  V30 6815 C 1110.43 0.888083 -2.54977 0
M  V30 6816 C 1110.56 0.094668 -1.38677 0
M  V30 6817 O 1110.58 -1.13053 -1.28163 0
M  V30 6818 N 1110.68 0.890102 -0.232633 0
M  V30 6819 C 1110.68 2.26958 -0.21772 0
M  V30 6820 N 1110.81 2.84626 0.97925 0
M  V30 6821 N 1110.55 3.0178 -1.31033 0
M  V30 6822 C 1110.43 2.26781 -2.43843 0
M  V30 6823 H 1107.45 4.797 -7.24003 0
M  V30 6824 H 1107.18 3.69856 -5.84513 0
M  V30 6825 H 1108.05 6.10356 -5.41441 0
M  V30 6826 H 1110.71 4.79061 -3.27488 0
M  V30 6827 H 1110.99 3.64906 -6.05785 0
M  V30 6828 H 1111.98 4.8868 -5.2125 0
M  V30 6829 H 1110.14 5.66726 -7.06352 0
M  V30 6830 H 1110.09 1.71169 -5.60966 0
M  V30 6831 H 1110.78 0.419134 0.644739 0
M  V30 6832 H 1110.81 3.87332 1.06098 0
M  V30 6833 H 1110.91 2.26417 1.82483 0
M  V30 6834 P 1112.01 7.20834 -5.23717 0
M  V30 6835 O 1112.23 8.66104 -5.38572 0
M  V30 6836 O 1112.8 6.33544 -6.1349 0
M  V30 6837 O 1112.26 6.7751 -3.72168 0
M  V30 6838 C 1111.32 7.20825 -2.7076 0
M  V30 6839 C 1112.05 7.45864 -1.40599 0
M  V30 6840 O 1112.26 6.17651 -0.734225 0
M  V30 6841 C 1113.45 8.05808 -1.51899 0
M  V30 6842 O 1113.84 8.74358 -0.335205 0
M  V30 6843 C 1114.33 6.83093 -1.70294 0
M  V30 6844 C 1113.62 5.79992 -0.836974 0
M  V30 6845 N 1113.67 4.41864 -1.38293 0
M  V30 6846 H 1110.83 8.13644 -3.0377 0
M  V30 6847 H 1110.56 6.42788 -2.55485 0
M  V30 6848 H 1111.43 8.12039 -0.792769 0
M  V30 6849 P 1115.39 8.91 8.60137e-12 0
M  V30 6850 O 1115.61 10.1746 0.733838 0
M  V30 6851 O 1116.18 8.73346 -1.23964 0
M  V30 6852 O 1115.64 7.66872 0.971405 0
M  V30 6853 C 1114.7 7.42405 2.04668 0
M  V30 6854 C 1115.43 6.86059 3.24661 0
M  V30 6855 O 1115.64 5.42934 3.03695 0
M  V30 6856 C 1116.83 7.41287 3.50796 0
M  V30 6857 O 1117.22 7.27073 4.86816 0
M  V30 6858 C 1117.71 6.5273 2.63741 0
M  V30 6859 C 1117 5.1842 2.73198 0
M  V30 6860 N 1117.05 4.38762 1.4784 0
M  V30 6861 C 1116.97 4.83651 0.183876 0
M  V30 6862 N 1117.04 3.88759 -0.699393 0
M  V30 6863 C 1117.19 2.7404 0.0575568 0
M  V30 6864 C 1117.32 1.37902 -0.293928 0
M  V30 6865 N 1117.33 0.938021 -1.54797 0
M  V30 6866 N 1117.44 0.491817 0.70549 0
M  V30 6867 C 1117.43 0.931735 1.95979 0
M  V30 6868 N 1117.31 2.16017 2.41481 0
M  V30 6869 C 1117.19 3.02547 1.39121 0
M  V30 6870 H 1114.22 8.36899 2.3252 0
M  V30 6871 H 1113.94 6.70391 1.71179 0
M  V30 6872 H 1114.81 7.03638 4.13219 0
M  V30 6873 H 1117.47 4.59931 3.54016 0
M  V30 6874 H 1117.75 6.88995 1.59871 0
M  V30 6875 H 1118.74 6.4684 3.0373 0
M  V30 6876 H 1116.9 8.47002 3.20749 0
M  V30 6877 H 1116.86 5.8885 -0.0765548 0
M  V30 6878 H 1117.24 1.60276 -2.32875 0
M  V30 6879 H 1117.43 -0.0699355 -1.73859 0
M  V30 6880 H 1117.54 0.165507 2.71897 0
M  V30 6881 P 1118.77 7.20834 5.23717 0
M  V30 6882 O 1118.99 7.79853 6.57286 0
M  V30 6883 O 1119.56 7.79239 4.12957 0
M  V30 6884 O 1119.02 5.63315 5.29344 0
M  V30 6885 C 1118.08 4.80255 6.01876 0
M  V30 6886 C 1118.81 3.64202 6.65911 0
M  V30 6887 O 1119.02 2.60694 5.64732 0
M  V30 6888 C 1120.21 3.93473 7.1943 0
M  V30 6889 O 1120.6 3.02071 8.21205 0
M  V30 6890 C 1121.09 3.73047 5.97036 0
M  V30 6891 C 1120.38 2.58828 5.25741 0
M  V30 6892 N 1120.43 2.68068 3.77503 0
M  V30 6893 H 1117.59 5.40332 6.79951 0
M  V30 6894 H 1117.32 4.41613 5.32378 0
M  V30 6895 H 1118.19 3.26331 7.47797 0
M  V30 6896 P 1122.15 2.75334 8.47391 0
M  V30 6897 O 1122.37 2.44571 9.90142 0
M  V30 6898 O 1122.94 3.87688 7.92115 0
M  V30 6899 O 1122.4 1.4459 7.59357 0
M  V30 6900 C 1121.46 0.347608 7.69215 0
M  V30 6901 C 1122.19 -0.96767 7.52806 0
M  V30 6902 O 1122.4 -1.21036 6.1011 0
M  V30 6903 C 1123.59 -1.04544 8.13308 0
M  V30 6904 O 1123.98 -2.38311 8.41922 0
M  V30 6905 C 1124.47 -0.491279 7.02284 0
M  V30 6906 C 1123.76 -0.996264 5.77469 0
M  V30 6907 N 1123.81 -0.0501916 4.62973 0
M  V30 6908 H 1120.97 0.374722 8.67691 0
M  V30 6909 H 1120.7 0.443485 6.90277 0
M  V30 6910 H 1121.57 -1.75537 7.96793 0
M  V30 6911 P 1125.53 -2.75334 8.47391 0
M  V30 6912 O 1125.75 -3.84128 9.44797 0
M  V30 6913 O 1126.32 -1.51947 8.68712 0
M  V30 6914 O 1125.78 -3.29363 6.99321 0
M  V30 6915 C 1124.84 -4.24011 6.4274 0
M  V30 6916 C 1125.57 -5.20775 5.52155 0
M  V30 6917 O 1125.78 -4.56534 4.22446 0
M  V30 6918 C 1126.97 -5.62629 5.96531 0
M  V30 6919 O 1127.36 -6.87667 5.41053 0
M  V30 6920 C 1127.85 -4.52537 5.39283 0
M  V30 6921 C 1127.14 -4.20027 4.08623 0
M  V30 6922 N 1127.19 -2.76189 3.71603 0
M  V30 6923 H 1124.35 -4.797 7.24003 0
M  V30 6924 H 1124.08 -3.69856 5.84513 0
M  V30 6925 H 1124.95 -6.10356 5.41441 0
M  V30 6926 P 1128.91 -7.20834 5.23717 0
M  V30 6927 O 1129.13 -8.66104 5.38572 0
M  V30 6928 O 1129.7 -6.33544 6.1349 0
M  V30 6929 O 1129.16 -6.7751 3.72168 0
M  V30 6930 C 1128.22 -7.20825 2.7076 0
M  V30 6931 C 1128.95 -7.45864 1.40599 0
M  V30 6932 O 1129.16 -6.17651 0.734225 0
M  V30 6933 C 1130.35 -8.05808 1.51899 0
M  V30 6934 O 1130.74 -8.74358 0.335205 0
M  V30 6935 C 1131.23 -6.83093 1.70294 0
M  V30 6936 C 1130.52 -5.79992 0.836974 0
M  V30 6937 N 1130.57 -4.41864 1.38293 0
M  V30 6938 H 1127.73 -8.13644 3.0377 0
M  V30 6939 H 1127.46 -6.42788 2.55485 0
M  V30 6940 H 1128.33 -8.12039 0.792769 0
M  V30 6941 P 1132.29 -8.91 -8.75855e-12 0
M  V30 6942 O 1132.51 -10.1746 -0.733838 0
M  V30 6943 O 1133.08 -8.73346 1.23964 0
M  V30 6944 O 1132.54 -7.66872 -0.971405 0
M  V30 6945 C 1131.6 -7.42405 -2.04668 0
M  V30 6946 C 1132.33 -6.86059 -3.24661 0
M  V30 6947 O 1132.54 -5.42934 -3.03695 0
M  V30 6948 C 1133.73 -7.41287 -3.50796 0
M  V30 6949 O 1134.12 -7.27073 -4.86816 0
M  V30 6950 C 1134.61 -6.5273 -2.63741 0
M  V30 6951 C 1133.9 -5.1842 -2.73198 0
M  V30 6952 N 1133.95 -4.38762 -1.4784 0
M  V30 6953 C 1133.87 -4.83651 -0.183876 0
M  V30 6954 N 1133.94 -3.88759 0.699393 0
M  V30 6955 C 1134.09 -2.7404 -0.0575568 0
M  V30 6956 C 1134.22 -1.37902 0.293928 0
M  V30 6957 N 1134.23 -0.938021 1.54797 0
M  V30 6958 N 1134.34 -0.491817 -0.70549 0
M  V30 6959 C 1134.33 -0.931735 -1.95979 0
M  V30 6960 N 1134.21 -2.16017 -2.41481 0
M  V30 6961 C 1134.09 -3.02547 -1.39121 0
M  V30 6962 H 1131.12 -8.36899 -2.3252 0
M  V30 6963 H 1130.84 -6.70391 -1.71179 0
M  V30 6964 H 1131.71 -7.03638 -4.13219 0
M  V30 6965 H 1134.37 -4.59931 -3.54016 0
M  V30 6966 H 1134.65 -6.88995 -1.59871 0
M  V30 6967 H 1135.64 -6.4684 -3.0373 0
M  V30 6968 H 1133.8 -8.47002 -3.20749 0
M  V30 6969 H 1133.76 -5.8885 0.0765548 0
M  V30 6970 H 1134.14 -1.60276 2.32875 0
M  V30 6971 H 1134.33 0.0699355 1.73859 0
M  V30 6972 H 1134.44 -0.165507 -2.71897 0
M  V30 6973 P 1135.67 -7.20834 -5.23717 0
M  V30 6974 O 1135.89 -7.7993 -6.57351 0
M  V30 6975 O 1136.46 -7.79328 -4.13004 0
M  V30 6976 O 1135.92 -5.63315 -5.29344 0
M  V30 6977 C 1134.98 -4.80193 -6.01798 0
M  V30 6978 C 1135.71 -3.64202 -6.65911 0
M  V30 6979 O 1135.92 -2.60694 -5.64732 0
M  V30 6980 C 1137.11 -3.93473 -7.1943 0
M  V30 6981 O 1137.5 -3.02071 -8.21205 0
M  V30 6982 C 1137.99 -3.73047 -5.97036 0
M  V30 6983 C 1137.28 -2.58828 -5.25741 0
M  V30 6984 N 1137.33 -2.6801 -3.77422 0
M  V30 6985 C 1137.48 -1.50443 -3.07133 0
M  V30 6986 O 1137.57 -0.419406 -3.61576 0
M  V30 6987 N 1137.52 -1.6403 -1.69677 0
M  V30 6988 C 1137.43 -2.81206 -0.986255 0
M  V30 6989 O 1137.48 -2.80892 0.249754 0
M  V30 6990 C 1137.28 -3.99158 -1.80325 0
M  V30 6991 C 1137.17 -5.29309 -1.06921 0
M  V30 6992 C 1137.23 -3.89779 -3.1476 0
M  V30 6993 H 1134.49 -5.40332 -6.79951 0
M  V30 6994 H 1134.22 -4.41549 -5.32301 0
M  V30 6995 H 1135.09 -3.26331 -7.47797 0
M  V30 6996 H 1137.75 -1.6395 -5.56554 0
M  V30 6997 H 1138.03 -4.63439 -5.3432 0
M  V30 6998 H 1139.02 -3.44728 -6.25838 0
M  V30 6999 H 1137.18 -4.96652 -7.57263 0
M  V30 7000 H 1137.11 -4.80159 -3.74441 0
M  V30 7001 H 1138.14 -5.81459 -1.09608 0
M  V30 7002 H 1136.41 -5.9187 -1.54487 0
M  V30 7003 H 1136.89 -5.10095 -0.0220288 0
M  V30 7004 H 1137.63 -0.798962 -1.16664 0
M  V30 7005 P 1139.05 -2.75334 -8.47391 0
M  V30 7006 O 1139.27 -2.44619 -9.90336 0
M  V30 7007 O 1139.84 -3.87776 -7.92294 0
M  V30 7008 O 1139.3 -1.4459 -7.59357 0
M  V30 7009 C 1138.36 -0.347653 -7.69315 0
M  V30 7010 C 1139.09 0.96767 -7.52806 0
M  V30 7011 O 1139.3 1.21055 -6.10208 0
M  V30 7012 C 1140.49 1.04557 -8.13408 0
M  V30 7013 O 1140.88 2.38311 -8.41922 0
M  V30 7014 C 1141.37 0.491279 -7.02284 0
M  V30 7015 C 1140.66 0.996264 -5.77469 0
M  V30 7016 N 1140.71 0.0501916 -4.62973 0
M  V30 7017 H 1137.88 -0.374765 -8.67791 0
M  V30 7018 H 1137.6 -0.443613 -6.90476 0
M  V30 7019 H 1138.47 1.75559 -7.96891 0
M  V30 7020 H 1141.13 1.94563 -5.46818 0
M  V30 7021 H 1141.41 -0.608651 -7.04676 0
M  V30 7022 H 1142.4 0.889796 -7.09039 0
M  V30 7023 H 1140.56 0.433128 -9.04664 0
M  V30 7024 P 1142.43 2.75334 -8.47391 0
M  V30 7025 O 1142.65 3.84128 -9.44797 0
M  V30 7026 O 1143.22 1.51947 -8.68712 0
M  V30 7027 O 1142.68 3.29363 -6.99321 0
M  V30 7028 C 1141.74 4.24011 -6.4274 0
M  V30 7029 C 1142.47 5.20775 -5.52155 0
M  V30 7030 O 1142.68 4.56534 -4.22446 0
M  V30 7031 C 1143.87 5.62629 -5.96531 0
M  V30 7032 O 1144.26 6.87667 -5.41053 0
M  V30 7033 C 1144.75 4.52537 -5.39283 0
M  V30 7034 C 1144.04 4.20027 -4.08623 0
M  V30 7035 N 1144.09 2.76189 -3.71603 0
M  V30 7036 H 1141.25 4.797 -7.24003 0
M  V30 7037 H 1140.98 3.69856 -5.84513 0
M  V30 7038 H 1141.85 6.10356 -5.41441 0
M  V30 7039 P 1145.81 7.20834 -5.23717 0
M  V30 7040 O 1146.03 8.66104 -5.38572 0
M  V30 7041 O 1146.6 6.33544 -6.1349 0
M  V30 7042 O 1146.06 6.7751 -3.72168 0
M  V30 7043 C 1145.12 7.20825 -2.7076 0
M  V30 7044 C 1145.85 7.45864 -1.40599 0
M  V30 7045 O 1146.06 6.17651 -0.734225 0
M  V30 7046 C 1147.25 8.05808 -1.51899 0
M  V30 7047 O 1147.64 8.74358 -0.335205 0
M  V30 7048 C 1148.13 6.83093 -1.70294 0
M  V30 7049 C 1147.42 5.79992 -0.836974 0
M  V30 7050 N 1147.47 4.41864 -1.38293 0
M  V30 7051 H 1144.63 8.13644 -3.0377 0
M  V30 7052 H 1144.36 6.42788 -2.55485 0
M  V30 7053 H 1145.23 8.12039 -0.792769 0
M  V30 7054 P 1149.19 8.91 8.91573e-12 0
M  V30 7055 O 1149.41 10.1746 0.733838 0
M  V30 7056 O 1149.98 8.73346 -1.23964 0
M  V30 7057 O 1149.44 7.66872 0.971405 0
M  V30 7058 C 1148.5 7.42405 2.04668 0
M  V30 7059 C 1149.23 6.86059 3.24661 0
M  V30 7060 O 1149.44 5.42934 3.03695 0
M  V30 7061 C 1150.63 7.41287 3.50796 0
M  V30 7062 O 1151.02 7.27073 4.86816 0
M  V30 7063 C 1151.51 6.5273 2.63741 0
M  V30 7064 C 1150.8 5.1842 2.73198 0
M  V30 7065 N 1150.85 4.38762 1.4784 0
M  V30 7066 C 1150.77 4.83651 0.183876 0
M  V30 7067 N 1150.84 3.88759 -0.699393 0
M  V30 7068 C 1150.99 2.7404 0.0575568 0
M  V30 7069 C 1151.12 1.37902 -0.293928 0
M  V30 7070 N 1151.13 0.938021 -1.54797 0
M  V30 7071 N 1151.24 0.491817 0.70549 0
M  V30 7072 C 1151.23 0.931735 1.95979 0
M  V30 7073 N 1151.11 2.16017 2.41481 0
M  V30 7074 C 1150.99 3.02547 1.39121 0
M  V30 7075 H 1148.02 8.36899 2.3252 0
M  V30 7076 H 1147.74 6.70391 1.71179 0
M  V30 7077 H 1148.61 7.03638 4.13219 0
M  V30 7078 H 1151.27 4.59931 3.54016 0
M  V30 7079 H 1151.55 6.88995 1.59871 0
M  V30 7080 H 1152.54 6.4684 3.0373 0
M  V30 7081 H 1150.7 8.47002 3.20749 0
M  V30 7082 H 1150.66 5.8885 -0.0765548 0
M  V30 7083 H 1151.04 1.60276 -2.32875 0
M  V30 7084 H 1151.23 -0.0699355 -1.73859 0
M  V30 7085 H 1151.34 0.165507 2.71897 0
M  V30 7086 P 1152.57 7.20834 5.23717 0
M  V30 7087 O 1152.79 7.79853 6.57286 0
M  V30 7088 O 1153.36 7.79239 4.12957 0
M  V30 7089 O 1152.82 5.63315 5.29344 0
M  V30 7090 C 1151.88 4.80255 6.01876 0
M  V30 7091 C 1152.61 3.64202 6.65911 0
M  V30 7092 O 1152.82 2.60694 5.64732 0
M  V30 7093 C 1154.01 3.93473 7.1943 0
M  V30 7094 O 1154.4 3.02071 8.21205 0
M  V30 7095 C 1154.89 3.73047 5.97036 0
M  V30 7096 C 1154.18 2.58828 5.25741 0
M  V30 7097 N 1154.23 2.68068 3.77503 0
M  V30 7098 H 1151.39 5.40332 6.79951 0
M  V30 7099 H 1151.12 4.41613 5.32378 0
M  V30 7100 H 1151.99 3.26331 7.47797 0
M  V30 7101 P 1155.95 2.75334 8.47391 0
M  V30 7102 O 1156.17 2.44619 9.90336 0
M  V30 7103 O 1156.74 3.87776 7.92294 0
M  V30 7104 O 1156.2 1.4459 7.59357 0
M  V30 7105 C 1155.26 0.347653 7.69315 0
M  V30 7106 C 1155.99 -0.96767 7.52806 0
M  V30 7107 O 1156.2 -1.21055 6.10208 0
M  V30 7108 C 1157.39 -1.04557 8.13408 0
M  V30 7109 O 1157.78 -2.38311 8.41922 0
M  V30 7110 C 1158.27 -0.491279 7.02284 0
M  V30 7111 C 1157.56 -0.996264 5.77469 0
M  V30 7112 N 1157.61 -0.0501916 4.62973 0
M  V30 7113 C 1157.53 1.31969 4.65661 0
M  V30 7114 N 1157.6 1.86649 3.48119 0
M  V30 7115 C 1157.75 0.792089 2.62406 0
M  V30 7116 C 1157.88 0.705684 1.2207 0
M  V30 7117 N 1157.89 1.76207 0.413762 0
M  V30 7118 N 1158 -0.518981 0.685754 0
M  V30 7119 C 1157.99 -1.57595 1.49174 0
M  V30 7120 N 1157.87 -1.62909 2.80066 0
M  V30 7121 C 1157.75 -0.388195 3.3073 0
M  V30 7122 H 1154.78 0.374765 8.67791 0
M  V30 7123 H 1154.5 0.443613 6.90476 0
M  V30 7124 H 1155.37 -1.75559 7.96891 0
M  V30 7125 H 1158.03 -1.94563 5.46818 0
M  V30 7126 H 1158.31 0.608651 7.04676 0
M  V30 7127 H 1159.3 -0.889796 7.09039 0
M  V30 7128 H 1157.46 -0.433128 9.04664 0
M  V30 7129 H 1157.42 1.89246 5.57664 0
M  V30 7130 H 1157.8 2.71005 0.804694 0
M  V30 7131 H 1157.99 1.63189 -0.603768 0
M  V30 7132 H 1158.1 -2.53475 0.997614 0
M  V30 7133 P 1159.33 -2.75334 8.47391 0
M  V30 7134 O 1159.55 -3.84204 9.44982 0
M  V30 7135 O 1160.12 -1.51982 8.68909 0
M  V30 7136 O 1159.58 -3.29363 6.99321 0
M  V30 7137 C 1158.64 -4.24066 6.42823 0
M  V30 7138 C 1159.37 -5.20775 5.52155 0
M  V30 7139 O 1159.58 -4.56607 4.22514 0
M  V30 7140 C 1160.77 -5.62697 5.96604 0
M  V30 7141 O 1161.16 -6.87667 5.41053 0
M  V30 7142 C 1161.65 -4.52537 5.39283 0
M  V30 7143 C 1160.94 -4.20027 4.08623 0
M  V30 7144 N 1160.99 -2.76189 3.71603 0
M  V30 7145 C 1160.91 -1.66944 4.54297 0
M  V30 7146 N 1160.98 -0.536169 3.91344 0
M  V30 7147 C 1161.13 -0.901569 2.58849 0
M  V30 7148 C 1161.26 -0.146599 1.40236 0
M  V30 7149 N 1161.27 1.18234 1.37046 0
M  V30 7150 N 1161.38 -0.822941 0.249738 0
M  V30 7151 C 1161.37 -2.15179 0.280525 0
M  V30 7152 N 1161.25 -2.96414 1.30822 0
M  V30 7153 C 1161.13 -2.25804 2.44748 0
M  V30 7154 H 1158.16 -4.79756 7.24086 0
M  V30 7155 H 1157.88 -3.69963 5.84682 0
M  V30 7156 H 1158.75 -6.10431 5.41508 0
M  V30 7157 H 1161.41 -4.78816 3.28024 0
M  V30 7158 H 1161.69 -3.64957 6.05871 0
M  V30 7159 H 1162.68 -4.88748 5.21323 0
M  V30 7160 H 1160.84 -5.66789 7.0643 0
M  V30 7161 H 1160.8 -1.74684 5.62396 0
M  V30 7162 H 1161.18 1.71949 2.24394 0
M  V30 7163 H 1161.37 1.67511 0.470742 0
M  V30 7164 H 1161.48 -2.63704 -0.6828 0
M  V30 7165 P 1162.71 -7.20834 5.23717 0
M  V30 7166 O 1162.93 -8.66274 5.38678 0
M  V30 7167 O 1163.5 -6.33687 6.13629 0
M  V30 7168 O 1162.96 -6.7751 3.72168 0
M  V30 7169 C 1162.02 -7.20919 2.70795 0
M  V30 7170 C 1162.75 -7.45864 1.40599 0
M  V30 7171 O 1162.96 -6.17751 0.734343 0
M  V30 7172 C 1164.15 -8.05906 1.51917 0
M  V30 7173 O 1164.54 -8.74358 0.335205 0
M  V30 7174 C 1165.03 -6.83093 1.70294 0
M  V30 7175 C 1164.32 -5.79992 0.836974 0
M  V30 7176 N 1164.37 -4.41864 1.38293 0
M  V30 7177 H 1161.54 -8.13738 3.03804 0
M  V30 7178 H 1161.26 -6.42974 2.55559 0
M  V30 7179 H 1162.13 -8.12139 0.792866 0
M  V30 7180 H 1164.79 -5.80178 -0.160643 0
M  V30 7181 H 1165.07 -6.51379 2.75643 0
M  V30 7182 H 1166.06 -7.01832 1.3448 0
M  V30 7183 H 1164.22 -8.73771 2.38364 0
M  V30 7184 P 1166.09 -8.91 -9.07291e-12 0
M  V30 7185 O 1166.31 -10.1726 -0.733694 0
M  V30 7186 O 1166.88 -8.73148 1.23936 0
M  V30 7187 O 1166.34 -7.66872 -0.971405 0
M  V30 7188 C 1165.4 -7.42309 -2.04641 0
M  V30 7189 C 1166.13 -6.86059 -3.24661 0
M  V30 7190 O 1166.34 -5.42847 -3.03646 0
M  V30 7191 C 1167.53 -7.41196 -3.50753 0
M  V30 7192 O 1167.92 -7.27073 -4.86816 0
M  V30 7193 C 1168.41 -6.5273 -2.63741 0
M  V30 7194 C 1167.7 -5.1842 -2.73198 0
M  V30 7195 N 1167.75 -4.38762 -1.4784 0
M  V30 7196 H 1164.91 -8.36803 -2.32493 0
M  V30 7197 H 1164.64 -6.70197 -1.71129 0
M  V30 7198 H 1165.51 -7.03551 -4.13168 0
M  V30 7199 P 1169.47 -7.20834 -5.23717 0
M  V30 7200 O 1169.69 -7.79853 -6.57286 0
M  V30 7201 O 1170.26 -7.79239 -4.12957 0
M  V30 7202 O 1169.72 -5.63315 -5.29344 0
M  V30 7203 C 1168.78 -4.80255 -6.01876 0
M  V30 7204 C 1169.51 -3.64202 -6.65911 0
M  V30 7205 O 1169.72 -2.60694 -5.64732 0
M  V30 7206 C 1170.91 -3.93473 -7.1943 0
M  V30 7207 O 1171.3 -3.02071 -8.21205 0
M  V30 7208 C 1171.79 -3.73047 -5.97036 0
M  V30 7209 C 1171.08 -2.58828 -5.25741 0
M  V30 7210 N 1171.13 -2.68068 -3.77503 0
M  V30 7211 H 1168.29 -5.40332 -6.79951 0
M  V30 7212 H 1168.02 -4.41613 -5.32378 0
M  V30 7213 H 1168.89 -3.26331 -7.47797 0
M  V30 7214 P 1172.85 -2.75334 -8.47391 0
M  V30 7215 O 1173.07 -2.44571 -9.90142 0
M  V30 7216 O 1173.64 -3.87688 -7.92115 0
M  V30 7217 O 1173.1 -1.4459 -7.59357 0
M  V30 7218 C 1172.16 -0.347608 -7.69215 0
M  V30 7219 C 1172.89 0.96767 -7.52806 0
M  V30 7220 O 1173.1 1.21036 -6.1011 0
M  V30 7221 C 1174.29 1.04544 -8.13308 0
M  V30 7222 O 1174.68 2.38311 -8.41922 0
M  V30 7223 C 1175.17 0.491279 -7.02284 0
M  V30 7224 C 1174.46 0.996264 -5.77469 0
M  V30 7225 N 1174.51 0.0501916 -4.62973 0
M  V30 7226 H 1171.67 -0.374722 -8.67691 0
M  V30 7227 H 1171.4 -0.443485 -6.90277 0
M  V30 7228 H 1172.27 1.75537 -7.96793 0
M  V30 7229 P 1176.23 2.75334 -8.47391 0
M  V30 7230 O 1176.45 3.84128 -9.44797 0
M  V30 7231 O 1177.02 1.51947 -8.68712 0
M  V30 7232 O 1176.48 3.29363 -6.99321 0
M  V30 7233 C 1175.54 4.24011 -6.4274 0
M  V30 7234 C 1176.27 5.20775 -5.52155 0
M  V30 7235 O 1176.48 4.56534 -4.22446 0
M  V30 7236 C 1177.67 5.62629 -5.96531 0
M  V30 7237 O 1178.06 6.87667 -5.41053 0
M  V30 7238 C 1178.55 4.52537 -5.39283 0
M  V30 7239 C 1177.84 4.20027 -4.08623 0
M  V30 7240 N 1177.89 2.76189 -3.71603 0
M  V30 7241 H 1175.05 4.797 -7.24003 0
M  V30 7242 H 1174.78 3.69856 -5.84513 0
M  V30 7243 H 1175.65 6.10356 -5.41441 0
M  V30 7244 P 1179.61 7.20834 -5.23717 0
M  V30 7245 O 1179.83 8.66274 -5.38678 0
M  V30 7246 O 1180.4 6.33687 -6.13629 0
M  V30 7247 O 1179.86 6.7751 -3.72168 0
M  V30 7248 C 1178.92 7.20919 -2.70795 0
M  V30 7249 C 1179.65 7.45864 -1.40599 0
M  V30 7250 O 1179.86 6.17751 -0.734343 0
M  V30 7251 C 1181.05 8.05906 -1.51917 0
M  V30 7252 O 1181.44 8.74358 -0.335205 0
M  V30 7253 C 1181.93 6.83093 -1.70294 0
M  V30 7254 C 1181.22 5.79992 -0.836974 0
M  V30 7255 N 1181.27 4.41864 -1.38293 0
M  V30 7256 C 1181.19 4.02089 -2.69407 0
M  V30 7257 N 1181.26 2.73403 -2.85089 0
M  V30 7258 C 1181.41 2.25086 -1.5642 0
M  V30 7259 C 1181.54 0.942887 -1.04836 0
M  V30 7260 N 1181.55 -0.150999 -1.80369 0
M  V30 7261 N 1181.66 0.812565 0.28167 0
M  V30 7262 C 1181.65 1.90572 1.03784 0
M  V30 7263 N 1181.53 3.167 0.683905 0
M  V30 7264 C 1181.41 3.26538 -0.652815 0
M  V30 7265 H 1178.44 8.13738 -3.03804 0
M  V30 7266 H 1178.16 6.42974 -2.55559 0
M  V30 7267 H 1179.03 8.12139 -0.792866 0
M  V30 7268 H 1181.69 5.80178 0.160643 0
M  V30 7269 H 1181.97 6.51379 -2.75643 0
M  V30 7270 H 1182.96 7.01832 -1.3448 0
M  V30 7271 H 1181.12 8.73771 -2.38364 0
M  V30 7272 H 1181.08 4.7189 -3.52311 0
M  V30 7273 H 1181.46 -0.0721434 -2.82608 0
M  V30 7274 H 1181.65 -1.0785 -1.36544 0
M  V30 7275 H 1181.76 1.73207 2.10241 0
M  V30 7276 P 1182.99 8.91 9.23009e-12 0
M  V30 7277 O 1183.21 10.1726 0.733694 0
M  V30 7278 O 1183.78 8.73148 -1.23936 0
M  V30 7279 O 1183.24 7.66872 0.971405 0
M  V30 7280 C 1182.3 7.42309 2.04641 0
M  V30 7281 C 1183.03 6.86059 3.24661 0
M  V30 7282 O 1183.24 5.42847 3.03646 0
M  V30 7283 C 1184.43 7.41196 3.50753 0
M  V30 7284 O 1184.82 7.27073 4.86816 0
M  V30 7285 C 1185.31 6.5273 2.63741 0
M  V30 7286 C 1184.6 5.1842 2.73198 0
M  V30 7287 N 1184.65 4.38762 1.4784 0
M  V30 7288 H 1181.81 8.36803 2.32493 0
M  V30 7289 H 1181.54 6.70197 1.71129 0
M  V30 7290 H 1182.41 7.03551 4.13168 0
M  V30 7291 P 1186.37 7.20834 5.23717 0
M  V30 7292 O 1186.59 7.80006 6.57415 0
M  V30 7293 O 1187.16 7.79416 4.13051 0
M  V30 7294 O 1186.62 5.63315 5.29344 0
M  V30 7295 C 1185.68 4.80318 6.01954 0
M  V30 7296 C 1186.41 3.64202 6.65911 0
M  V30 7297 O 1186.62 2.60736 5.64823 0
M  V30 7298 C 1187.81 3.93521 7.19518 0
M  V30 7299 O 1188.2 3.02071 8.21205 0
M  V30 7300 C 1188.69 3.73047 5.97036 0
M  V30 7301 C 1187.98 2.58828 5.25741 0
M  V30 7302 N 1188.03 2.68068 3.77503 0
M  V30 7303 H 1185.19 5.40394 6.8003 0
M  V30 7304 H 1184.92 4.41741 5.32532 0
M  V30 7305 H 1185.79 3.26371 7.47889 0
M  V30 7306 H 1188.45 1.64007 5.56746 0
M  V30 7307 H 1188.73 4.63439 5.3432 0
M  V30 7308 H 1189.72 3.44776 6.25925 0
M  V30 7309 H 1187.88 4.96707 7.57347 0
M  V30 7310 P 1189.75 2.75334 8.47391 0
M  V30 7311 O 1189.97 2.44571 9.90142 0
M  V30 7312 O 1190.54 3.87688 7.92115 0
M  V30 7313 O 1190 1.4459 7.59357 0
M  V30 7314 C 1189.06 0.347608 7.69215 0
M  V30 7315 C 1189.79 -0.96767 7.52806 0
M  V30 7316 O 1190 -1.21036 6.1011 0
M  V30 7317 C 1191.19 -1.04544 8.13308 0
M  V30 7318 O 1191.58 -2.38311 8.41922 0
M  V30 7319 C 1192.07 -0.491279 7.02284 0
M  V30 7320 C 1191.36 -0.996264 5.77469 0
M  V30 7321 N 1191.41 -0.0501916 4.62973 0
M  V30 7322 H 1188.57 0.374722 8.67691 0
M  V30 7323 H 1188.3 0.443485 6.90277 0
M  V30 7324 H 1189.17 -1.75537 7.96793 0
M  V30 7325 P 1193.13 -2.75334 8.47391 0
M  V30 7326 O 1193.35 -3.84204 9.44982 0
M  V30 7327 O 1193.92 -1.51982 8.68909 0
M  V30 7328 O 1193.38 -3.29363 6.99321 0
M  V30 7329 C 1192.44 -4.24066 6.42823 0
M  V30 7330 C 1193.17 -5.20775 5.52155 0
M  V30 7331 O 1193.38 -4.56607 4.22514 0
M  V30 7332 C 1194.57 -5.62697 5.96604 0
M  V30 7333 O 1194.96 -6.87667 5.41053 0
M  V30 7334 C 1195.45 -4.52537 5.39283 0
M  V30 7335 C 1194.74 -4.20027 4.08623 0
M  V30 7336 N 1194.79 -2.76189 3.71603 0
M  V30 7337 H 1191.95 -4.79756 7.24086 0
M  V30 7338 H 1191.68 -3.69963 5.84682 0
M  V30 7339 H 1192.55 -6.10431 5.41508 0
M  V30 7340 H 1195.21 -4.78816 3.28024 0
M  V30 7341 H 1195.49 -3.64957 6.05871 0
M  V30 7342 H 1196.48 -4.88748 5.21323 0
M  V30 7343 H 1194.64 -5.66789 7.0643 0
M  V30 7344 P 1196.51 -7.20834 5.23717 0
M  V30 7345 O 1196.73 -8.66104 5.38572 0
M  V30 7346 O 1197.3 -6.33544 6.1349 0
M  V30 7347 O 1196.76 -6.7751 3.72168 0
M  V30 7348 C 1195.82 -7.20825 2.7076 0
M  V30 7349 C 1196.55 -7.45864 1.40599 0
M  V30 7350 O 1196.76 -6.17651 0.734225 0
M  V30 7351 C 1197.95 -8.05808 1.51899 0
M  V30 7352 O 1198.34 -8.74358 0.335205 0
M  V30 7353 C 1198.83 -6.83093 1.70294 0
M  V30 7354 C 1198.12 -5.79992 0.836974 0
M  V30 7355 N 1198.17 -4.41864 1.38293 0
M  V30 7356 C 1198.09 -3.99538 2.69438 0
M  V30 7357 N 1198.17 -2.69909 2.84277 0
M  V30 7358 C 1198.31 -2.21719 1.5408 0
M  V30 7359 C 1198.44 -0.891712 1.06628 0
M  V30 7360 N 1198.56 -0.856846 -0.334985 0
M  V30 7361 C 1198.56 -1.9641 -1.15789 0
M  V30 7362 N 1198.69 -1.72708 -2.46522 0
M  V30 7363 N 1198.43 -3.21165 -0.713741 0
M  V30 7364 C 1198.31 -3.26797 0.639748 0
M  V30 7365 H 1195.33 -8.13644 3.0377 0
M  V30 7366 H 1195.06 -6.42788 2.55485 0
M  V30 7367 H 1195.93 -8.12039 0.792769 0
M  V30 7368 P 1199.89 -8.91 -9.38728e-12 0
M  V30 7369 O 1200.11 -10.1736 -0.733766 0
M  V30 7370 O 1200.68 -8.73247 1.2395 0
M  V30 7371 O 1200.14 -7.66872 -0.971405 0
M  V30 7372 C 1199.2 -7.42212 -2.04614 0
M  V30 7373 C 1199.93 -6.86059 -3.24661 0
M  V30 7374 O 1200.14 -5.42847 -3.03646 0
M  V30 7375 C 1201.33 -7.41196 -3.50753 0
M  V30 7376 O 1201.72 -7.27073 -4.86816 0
M  V30 7377 C 1202.21 -6.5273 -2.63741 0
M  V30 7378 C 1201.5 -5.1842 -2.73198 0
M  V30 7379 N 1201.55 -4.38668 -1.47808 0
M  V30 7380 C 1201.7 -3.02239 -1.60048 0
M  V30 7381 O 1201.79 -2.46459 -2.67869 0
M  V30 7382 N 1201.74 -2.32436 -0.408571 0
M  V30 7383 C 1201.65 -2.85471 0.854993 0
M  V30 7384 C 1201.5 -4.28918 0.887335 0
M  V30 7385 C 1201.45 -5.00349 -0.255399 0
M  V30 7386 H 1198.71 -8.36803 -2.32493 0
M  V30 7387 H 1198.44 -6.701 -1.71105 0
M  V30 7388 H 1199.31 -7.03551 -4.13168 0
M  V30 7389 H 1201.97 -4.59773 -3.53894 0
M  V30 7390 H 1202.24 -6.88995 -1.59871 0
M  V30 7391 H 1203.24 -6.46749 -3.03687 0
M  V30 7392 H 1201.4 -8.46908 -3.20714 0
M  V30 7393 H 1201.33 -6.08548 -0.206986 0
M  V30 7394 P 1203.27 -7.20834 -5.23717 0
M  V30 7395 O 1203.49 -7.79853 -6.57286 0
M  V30 7396 O 1204.06 -7.79239 -4.12957 0
M  V30 7397 O 1203.52 -5.63315 -5.29344 0
M  V30 7398 C 1202.58 -4.80255 -6.01876 0
M  V30 7399 C 1203.31 -3.64202 -6.65911 0
M  V30 7400 O 1203.52 -2.60694 -5.64732 0
M  V30 7401 C 1204.71 -3.93473 -7.1943 0
M  V30 7402 O 1205.1 -3.02071 -8.21205 0
M  V30 7403 C 1205.59 -3.73047 -5.97036 0
M  V30 7404 C 1204.88 -2.58828 -5.25741 0
M  V30 7405 N 1204.93 -2.68068 -3.77503 0
M  V30 7406 H 1202.09 -5.40332 -6.79951 0
M  V30 7407 H 1201.82 -4.41613 -5.32378 0
M  V30 7408 H 1202.69 -3.26331 -7.47797 0
M  V30 7409 P 1206.65 -2.75334 -8.47391 0
M  V30 7410 O 1206.87 -2.44571 -9.90142 0
M  V30 7411 O 1207.44 -3.87688 -7.92115 0
M  V30 7412 O 1206.9 -1.4459 -7.59357 0
M  V30 7413 C 1205.96 -0.347608 -7.69215 0
M  V30 7414 C 1206.69 0.96767 -7.52806 0
M  V30 7415 O 1206.9 1.21036 -6.1011 0
M  V30 7416 C 1208.09 1.04544 -8.13308 0
M  V30 7417 O 1208.48 2.38311 -8.41922 0
M  V30 7418 C 1208.97 0.491279 -7.02284 0
M  V30 7419 C 1208.26 0.996264 -5.77469 0
M  V30 7420 N 1208.31 0.0501916 -4.62973 0
M  V30 7421 H 1205.47 -0.374722 -8.67691 0
M  V30 7422 H 1205.2 -0.443485 -6.90277 0
M  V30 7423 H 1206.07 1.75537 -7.96793 0
M  V30 7424 P 1210.03 2.75334 -8.47391 0
M  V30 7425 O 1210.25 3.84128 -9.44797 0
M  V30 7426 O 1210.82 1.51947 -8.68712 0
M  V30 7427 O 1210.28 3.29363 -6.99321 0
M  V30 7428 C 1209.34 4.24011 -6.4274 0
M  V30 7429 C 1210.07 5.20775 -5.52155 0
M  V30 7430 O 1210.28 4.56534 -4.22446 0
M  V30 7431 C 1211.47 5.62629 -5.96531 0
M  V30 7432 O 1211.86 6.87667 -5.41053 0
M  V30 7433 C 1212.35 4.52537 -5.39283 0
M  V30 7434 C 1211.64 4.20027 -4.08623 0
M  V30 7435 N 1211.69 2.76189 -3.71603 0
M  V30 7436 H 1208.85 4.797 -7.24003 0
M  V30 7437 H 1208.58 3.69856 -5.84513 0
M  V30 7438 H 1209.45 6.10356 -5.41441 0
M  V30 7439 P 1213.41 7.20834 -5.23717 0
M  V30 7440 O 1213.63 8.66104 -5.38572 0
M  V30 7441 O 1214.2 6.33544 -6.1349 0
M  V30 7442 O 1213.66 6.7751 -3.72168 0
M  V30 7443 C 1212.72 7.20825 -2.7076 0
M  V30 7444 C 1213.45 7.45864 -1.40599 0
M  V30 7445 O 1213.66 6.17651 -0.734225 0
M  V30 7446 C 1214.85 8.05808 -1.51899 0
M  V30 7447 O 1215.24 8.74358 -0.335205 0
M  V30 7448 C 1215.73 6.83093 -1.70294 0
M  V30 7449 C 1215.02 5.79992 -0.836974 0
M  V30 7450 N 1215.07 4.41864 -1.38293 0
M  V30 7451 H 1212.23 8.13644 -3.0377 0
M  V30 7452 H 1211.96 6.42788 -2.55485 0
M  V30 7453 H 1212.83 8.12039 -0.792769 0
M  V30 7454 P 1216.79 8.91 9.54446e-12 0
M  V30 7455 O 1217.01 10.1726 0.733694 0
M  V30 7456 O 1217.58 8.73148 -1.23936 0
M  V30 7457 O 1217.04 7.66872 0.971405 0
M  V30 7458 C 1216.1 7.42309 2.04641 0
M  V30 7459 C 1216.83 6.86059 3.24661 0
M  V30 7460 O 1217.04 5.42847 3.03646 0
M  V30 7461 C 1218.23 7.41196 3.50753 0
M  V30 7462 O 1218.62 7.27073 4.86816 0
M  V30 7463 C 1219.11 6.5273 2.63741 0
M  V30 7464 C 1218.4 5.1842 2.73198 0
M  V30 7465 N 1218.45 4.38762 1.4784 0
M  V30 7466 H 1215.61 8.36803 2.32493 0
M  V30 7467 H 1215.34 6.70197 1.71129 0
M  V30 7468 H 1216.21 7.03551 4.13168 0
M  V30 7469 P 1220.17 7.20834 5.23717 0
M  V30 7470 O 1220.39 7.79853 6.57286 0
M  V30 7471 O 1220.96 7.79239 4.12957 0
M  V30 7472 O 1220.42 5.63315 5.29344 0
M  V30 7473 C 1219.48 4.80255 6.01876 0
M  V30 7474 C 1220.21 3.64202 6.65911 0
M  V30 7475 O 1220.42 2.60694 5.64732 0
M  V30 7476 C 1221.61 3.93473 7.1943 0
M  V30 7477 O 1222 3.02071 8.21205 0
M  V30 7478 C 1222.49 3.73047 5.97036 0
M  V30 7479 C 1221.78 2.58828 5.25741 0
M  V30 7480 N 1221.83 2.68068 3.77503 0
M  V30 7481 H 1218.99 5.40332 6.79951 0
M  V30 7482 H 1218.72 4.41613 5.32378 0
M  V30 7483 H 1219.59 3.26331 7.47797 0
M  V30 7484 P 1223.55 2.75334 8.47391 0
M  V30 7485 O 1223.77 2.44571 9.90142 0
M  V30 7486 O 1224.34 3.87688 7.92115 0
M  V30 7487 O 1223.8 1.4459 7.59357 0
M  V30 7488 C 1222.86 0.347608 7.69215 0
M  V30 7489 C 1223.59 -0.96767 7.52806 0
M  V30 7490 O 1223.8 -1.21036 6.1011 0
M  V30 7491 C 1224.99 -1.04544 8.13308 0
M  V30 7492 O 1225.38 -2.38311 8.41922 0
M  V30 7493 C 1225.87 -0.491279 7.02284 0
M  V30 7494 C 1225.16 -0.996264 5.77469 0
M  V30 7495 N 1225.21 -0.0501916 4.62973 0
M  V30 7496 H 1222.37 0.374722 8.67691 0
M  V30 7497 H 1222.1 0.443485 6.90277 0
M  V30 7498 H 1222.97 -1.75537 7.96793 0
M  V30 7499 P 1226.93 -2.75334 8.47391 0
M  V30 7500 O 1227.15 -3.84166 9.4489 0
M  V30 7501 O 1227.72 -1.51964 8.6881 0
M  V30 7502 O 1227.18 -3.29363 6.99321 0
M  V30 7503 C 1226.24 -4.23956 6.42656 0
M  V30 7504 C 1226.97 -5.20775 5.52155 0
M  V30 7505 O 1227.18 -4.56534 4.22446 0
M  V30 7506 C 1228.37 -5.62629 5.96531 0
M  V30 7507 O 1228.76 -6.87667 5.41053 0
M  V30 7508 C 1229.25 -4.52537 5.39283 0
M  V30 7509 C 1228.54 -4.20027 4.08623 0
M  V30 7510 N 1228.59 -2.7613 3.71522 0
M  V30 7511 C 1228.74 -2.45612 2.37989 0
M  V30 7512 O 1228.83 -3.30919 1.51621 0
M  V30 7513 N 1228.78 -1.10684 2.08435 0
M  V30 7514 C 1228.69 -0.0690084 2.9792 0
M  V30 7515 O 1228.74 1.10553 2.59426 0
M  V30 7516 C 1228.54 -0.481522 4.35345 0
M  V30 7517 C 1228.43 0.618778 5.36443 0
M  V30 7518 C 1228.49 -1.78906 4.67968 0
M  V30 7519 H 1225.75 -4.797 7.24003 0
M  V30 7520 H 1225.48 -3.69802 5.84429 0
M  V30 7521 H 1226.35 -6.10356 5.41441 0
M  V30 7522 H 1229.01 -4.78651 3.27911 0
M  V30 7523 H 1229.28 -3.64957 6.05871 0
M  V30 7524 H 1230.28 -4.8868 5.2125 0
M  V30 7525 H 1228.44 -5.66726 7.06352 0
M  V30 7526 H 1228.37 -2.07737 5.72367 0
M  V30 7527 H 1229.4 0.754375 5.86871 0
M  V30 7528 H 1227.66 0.359721 6.10641 0
M  V30 7529 H 1228.15 1.55533 4.8581 0
M  V30 7530 H 1228.89 -0.862651 1.12037 0
M  V30 7531 P 1230.31 -7.20834 5.23717 0
M  V30 7532 O 1230.53 -8.66274 5.38678 0
M  V30 7533 O 1231.1 -6.33687 6.13629 0
M  V30 7534 O 1230.56 -6.7751 3.72168 0
M  V30 7535 C 1229.62 -7.20919 2.70795 0
M  V30 7536 C 1230.35 -7.45864 1.40599 0
M  V30 7537 O 1230.56 -6.17751 0.734343 0
M  V30 7538 C 1231.75 -8.05906 1.51917 0
M  V30 7539 O 1232.14 -8.74358 0.335205 0
M  V30 7540 C 1232.63 -6.83093 1.70294 0
M  V30 7541 C 1231.92 -5.79992 0.836974 0
M  V30 7542 N 1231.97 -4.41864 1.38293 0
M  V30 7543 C 1231.89 -4.02089 2.69407 0
M  V30 7544 N 1231.96 -2.73403 2.85089 0
M  V30 7545 C 1232.11 -2.25086 1.5642 0
M  V30 7546 C 1232.24 -0.942887 1.04836 0
M  V30 7547 N 1232.25 0.150999 1.80369 0
M  V30 7548 N 1232.36 -0.812565 -0.28167 0
M  V30 7549 C 1232.35 -1.90572 -1.03784 0
M  V30 7550 N 1232.23 -3.167 -0.683905 0
M  V30 7551 C 1232.11 -3.26538 0.652815 0
M  V30 7552 H 1229.13 -8.13738 3.03804 0
M  V30 7553 H 1228.86 -6.42974 2.55559 0
M  V30 7554 H 1229.73 -8.12139 0.792866 0
M  V30 7555 H 1232.39 -5.80178 -0.160643 0
M  V30 7556 H 1232.67 -6.51379 2.75643 0
M  V30 7557 H 1233.66 -7.01832 1.3448 0
M  V30 7558 H 1231.82 -8.73771 2.38364 0
M  V30 7559 H 1231.78 -4.7189 3.52311 0
M  V30 7560 H 1232.16 0.0721434 2.82608 0
M  V30 7561 H 1232.35 1.0785 1.36544 0
M  V30 7562 H 1232.46 -1.73207 -2.10241 0
M  V30 7563 P 1233.69 -8.91 -9.70164e-12 0
M  V30 7564 O 1233.91 -10.1726 -0.733694 0
M  V30 7565 O 1234.48 -8.73148 1.23936 0
M  V30 7566 O 1233.94 -7.66872 -0.971405 0
M  V30 7567 C 1233 -7.42309 -2.04641 0
M  V30 7568 C 1233.73 -6.86059 -3.24661 0
M  V30 7569 O 1233.94 -5.42847 -3.03646 0
M  V30 7570 C 1235.13 -7.41196 -3.50753 0
M  V30 7571 O 1235.52 -7.27073 -4.86816 0
M  V30 7572 C 1236.01 -6.5273 -2.63741 0
M  V30 7573 C 1235.3 -5.1842 -2.73198 0
M  V30 7574 N 1235.35 -4.38762 -1.4784 0
M  V30 7575 C 1235.27 -4.81605 -0.168631 0
M  V30 7576 N 1235.35 -3.85454 0.713363 0
M  V30 7577 C 1235.49 -2.6994 -0.0566958 0
M  V30 7578 C 1235.62 -1.34815 0.338502 0
M  V30 7579 O 1235.64 -0.869548 1.47125 0
M  V30 7580 N 1235.74 -0.496304 -0.77465 0
M  V30 7581 C 1235.74 -0.908403 -2.09122 0
M  V30 7582 N 1235.87 0.0517805 -3.00955 0
M  V30 7583 N 1235.61 -2.17875 -2.46519 0
M  V30 7584 C 1235.49 -3.01988 -1.4033 0
M  V30 7585 H 1232.51 -8.36803 -2.32493 0
M  V30 7586 H 1232.24 -6.70197 -1.71129 0
M  V30 7587 H 1233.11 -7.03551 -4.13168 0
M  V30 7588 H 1235.77 -4.59498 -3.54415 0
M  V30 7589 H 1236.04 -6.88898 -1.59848 0
M  V30 7590 H 1237.04 -6.46749 -3.03687 0
M  V30 7591 H 1235.2 -8.46908 -3.20714 0
M  V30 7592 H 1235.15 -5.86405 0.105564 0
M  V30 7593 H 1235.84 0.483664 -0.597855 0
M  V30 7594 H 1235.87 -0.187865 -4.0116 0
M  V30 7595 H 1235.97 1.03585 -2.71726 0
M  V30 7596 P 1237.07 -7.20834 -5.23717 0
M  V30 7597 O 1237.29 -7.80006 -6.57415 0
M  V30 7598 O 1237.86 -7.79416 -4.13051 0
M  V30 7599 O 1237.32 -5.63315 -5.29344 0
M  V30 7600 C 1236.38 -4.80318 -6.01954 0
M  V30 7601 C 1237.11 -3.64202 -6.65911 0
M  V30 7602 O 1237.32 -2.60736 -5.64823 0
M  V30 7603 C 1238.51 -3.93521 -7.19518 0
M  V30 7604 O 1238.9 -3.02071 -8.21205 0
M  V30 7605 C 1239.39 -3.73047 -5.97036 0
M  V30 7606 C 1238.68 -2.58828 -5.25741 0
M  V30 7607 N 1238.73 -2.68068 -3.77503 0
M  V30 7608 C 1238.65 -3.80474 -2.99159 0
M  V30 7609 N 1238.72 -3.55622 -1.71925 0
M  V30 7610 C 1238.87 -2.1832 -1.65733 0
M  V30 7611 C 1239 -1.28842 -0.572777 0
M  V30 7612 N 1239.01 -1.66875 0.70098 0
M  V30 7613 N 1239.12 0.016788 -0.859836 0
M  V30 7614 C 1239.11 0.398145 -2.13316 0
M  V30 7615 N 1238.99 -0.328224 -3.22333 0
M  V30 7616 C 1238.87 -1.62992 -2.90383 0
M  V30 7617 H 1235.89 -5.40394 -6.8003 0
M  V30 7618 H 1235.62 -4.41741 -5.32532 0
M  V30 7619 H 1236.49 -3.26371 -7.47889 0
M  V30 7620 H 1239.15 -1.64007 -5.56746 0
M  V30 7621 H 1239.43 -4.63439 -5.3432 0
M  V30 7622 H 1240.42 -3.44776 -6.25925 0
M  V30 7623 H 1238.58 -4.96707 -7.57347 0
M  V30 7624 H 1238.54 -4.8089 -3.39924 0
M  V30 7625 H 1238.92 -2.66547 0.941919 0
M  V30 7626 H 1239.11 -0.965341 1.44766 0
M  V30 7627 H 1239.22 1.46427 -2.29697 0
M  V30 7628 P 1240.45 -2.75334 -8.47391 0
M  V30 7629 O 1240.67 -2.44571 -9.90142 0
M  V30 7630 O 1241.24 -3.87688 -7.92115 0
M  V30 7631 O 1240.7 -1.4459 -7.59357 0
M  V30 7632 C 1239.76 -0.347608 -7.69215 0
M  V30 7633 C 1240.49 0.96767 -7.52806 0
M  V30 7634 O 1240.7 1.21036 -6.1011 0
M  V30 7635 C 1241.89 1.04544 -8.13308 0
M  V30 7636 O 1242.28 2.38311 -8.41922 0
M  V30 7637 C 1242.77 0.491279 -7.02284 0
M  V30 7638 C 1242.06 0.996264 -5.77469 0
M  V30 7639 N 1242.11 0.0501916 -4.62973 0
M  V30 7640 H 1239.27 -0.374722 -8.67691 0
M  V30 7641 H 1239 -0.443485 -6.90277 0
M  V30 7642 H 1239.87 1.75537 -7.96793 0
M  V30 7643 P 1243.83 2.75334 -8.47391 0
M  V30 7644 O 1244.05 3.84128 -9.44797 0
M  V30 7645 O 1244.62 1.51947 -8.68712 0
M  V30 7646 O 1244.08 3.29363 -6.99321 0
M  V30 7647 C 1243.14 4.24011 -6.4274 0
M  V30 7648 C 1243.87 5.20775 -5.52155 0
M  V30 7649 O 1244.08 4.56534 -4.22446 0
M  V30 7650 C 1245.27 5.62629 -5.96531 0
M  V30 7651 O 1245.66 6.87667 -5.41053 0
M  V30 7652 C 1246.15 4.52537 -5.39283 0
M  V30 7653 C 1245.44 4.20027 -4.08623 0
M  V30 7654 N 1245.49 2.76189 -3.71603 0
M  V30 7655 C 1245.41 1.64862 -4.52822 0
M  V30 7656 N 1245.49 0.512671 -3.88633 0
M  V30 7657 C 1245.63 0.888083 -2.54977 0
M  V30 7658 C 1245.76 0.094668 -1.38677 0
M  V30 7659 O 1245.78 -1.13053 -1.28163 0
M  V30 7660 N 1245.88 0.890102 -0.232633 0
M  V30 7661 C 1245.88 2.26958 -0.21772 0
M  V30 7662 N 1246.01 2.84626 0.97925 0
M  V30 7663 N 1245.75 3.0178 -1.31033 0
M  V30 7664 C 1245.63 2.26781 -2.43843 0
M  V30 7665 H 1242.65 4.797 -7.24003 0
M  V30 7666 H 1242.38 3.69856 -5.84513 0
M  V30 7667 H 1243.25 6.10356 -5.41441 0
M  V30 7668 H 1245.91 4.79061 -3.27488 0
M  V30 7669 H 1246.18 3.64906 -6.05785 0
M  V30 7670 H 1247.18 4.8868 -5.2125 0
M  V30 7671 H 1245.34 5.66726 -7.06352 0
M  V30 7672 H 1245.29 1.71169 -5.60966 0
M  V30 7673 H 1245.98 0.419134 0.644739 0
M  V30 7674 H 1246.01 3.87332 1.06098 0
M  V30 7675 H 1246.11 2.26417 1.82483 0
M  V30 7676 P 1247.21 7.20834 -5.23717 0
M  V30 7677 O 1247.43 8.66104 -5.38572 0
M  V30 7678 O 1248 6.33544 -6.1349 0
M  V30 7679 O 1247.46 6.7751 -3.72168 0
M  V30 7680 C 1246.52 7.20825 -2.7076 0
M  V30 7681 C 1247.25 7.45864 -1.40599 0
M  V30 7682 O 1247.46 6.17651 -0.734225 0
M  V30 7683 C 1248.65 8.05808 -1.51899 0
M  V30 7684 O 1249.04 8.74358 -0.335205 0
M  V30 7685 C 1249.53 6.83093 -1.70294 0
M  V30 7686 C 1248.82 5.79992 -0.836974 0
M  V30 7687 N 1248.87 4.41864 -1.38293 0
M  V30 7688 C 1248.79 3.99538 -2.69438 0
M  V30 7689 N 1248.87 2.69909 -2.84277 0
M  V30 7690 C 1249.01 2.21719 -1.5408 0
M  V30 7691 C 1249.14 0.891712 -1.06628 0
M  V30 7692 O 1249.16 -0.161298 -1.70137 0
M  V30 7693 N 1249.26 0.856846 0.334985 0
M  V30 7694 C 1249.26 1.9641 1.15789 0
M  V30 7695 N 1249.39 1.72708 2.46522 0
M  V30 7696 N 1249.13 3.21165 0.713741 0
M  V30 7697 C 1249.01 3.26797 -0.639748 0
M  V30 7698 H 1246.03 8.13644 -3.0377 0
M  V30 7699 H 1245.76 6.42788 -2.55485 0
M  V30 7700 H 1246.63 8.12039 -0.792769 0
M  V30 7701 H 1249.29 5.80061 0.166416 0
M  V30 7702 H 1249.56 6.51287 -2.75604 0
M  V30 7703 H 1250.56 7.01734 -1.34462 0
M  V30 7704 H 1248.72 8.73674 -2.38337 0
M  V30 7705 H 1248.67 4.68207 -3.53221 0
M  V30 7706 H 1249.36 -0.0398818 0.767965 0
M  V30 7707 H 1249.39 2.50995 3.13503 0
M  V30 7708 H 1249.49 0.759148 2.80716 0
M  V30 7709 P 1250.59 8.91 9.85882e-12 0
M  V30 7710 O 1250.81 10.1746 0.733838 0
M  V30 7711 O 1251.38 8.73346 -1.23964 0
M  V30 7712 O 1250.84 7.66872 0.971405 0
M  V30 7713 C 1249.9 7.42405 2.04668 0
M  V30 7714 C 1250.63 6.86059 3.24661 0
M  V30 7715 O 1250.84 5.42934 3.03695 0
M  V30 7716 C 1252.03 7.41287 3.50796 0
M  V30 7717 O 1252.42 7.27073 4.86816 0
M  V30 7718 C 1252.91 6.5273 2.63741 0
M  V30 7719 C 1252.2 5.1842 2.73198 0
M  V30 7720 N 1252.25 4.38762 1.4784 0
M  V30 7721 C 1252.17 4.83651 0.183876 0
M  V30 7722 N 1252.24 3.88759 -0.699393 0
M  V30 7723 C 1252.39 2.7404 0.0575568 0
M  V30 7724 C 1252.52 1.37902 -0.293928 0
M  V30 7725 N 1252.53 0.938021 -1.54797 0
M  V30 7726 N 1252.64 0.491817 0.70549 0
M  V30 7727 C 1252.63 0.931735 1.95979 0
M  V30 7728 N 1252.51 2.16017 2.41481 0
M  V30 7729 C 1252.39 3.02547 1.39121 0
M  V30 7730 H 1249.41 8.36899 2.3252 0
M  V30 7731 H 1249.14 6.70391 1.71179 0
M  V30 7732 H 1250.01 7.03638 4.13219 0
M  V30 7733 H 1252.67 4.59931 3.54016 0
M  V30 7734 H 1252.95 6.88995 1.59871 0
M  V30 7735 H 1253.94 6.4684 3.0373 0
M  V30 7736 H 1252.1 8.47002 3.20749 0
M  V30 7737 H 1252.06 5.8885 -0.0765548 0
M  V30 7738 H 1252.44 1.60276 -2.32875 0
M  V30 7739 H 1252.63 -0.0699355 -1.73859 0
M  V30 7740 H 1252.74 0.165507 2.71897 0
M  V30 7741 P 1253.97 7.20834 5.23717 0
M  V30 7742 O 1254.19 7.7993 6.57351 0
M  V30 7743 O 1254.76 7.79328 4.13004 0
M  V30 7744 O 1254.22 5.63315 5.29344 0
M  V30 7745 C 1253.28 4.80193 6.01798 0
M  V30 7746 C 1254.01 3.64202 6.65911 0
M  V30 7747 O 1254.22 2.60694 5.64732 0
M  V30 7748 C 1255.41 3.93473 7.1943 0
M  V30 7749 O 1255.8 3.02071 8.21205 0
M  V30 7750 C 1256.29 3.73047 5.97036 0
M  V30 7751 C 1255.58 2.58828 5.25741 0
M  V30 7752 N 1255.63 2.6801 3.77422 0
M  V30 7753 C 1255.78 1.50443 3.07133 0
M  V30 7754 O 1255.87 0.419406 3.61576 0
M  V30 7755 N 1255.82 1.6403 1.69677 0
M  V30 7756 C 1255.73 2.81206 0.986255 0
M  V30 7757 C 1255.58 3.99158 1.80325 0
M  V30 7758 C 1255.53 3.89779 3.1476 0
M  V30 7759 H 1252.79 5.40332 6.79951 0
M  V30 7760 H 1252.52 4.41549 5.32301 0
M  V30 7761 H 1253.39 3.26331 7.47797 0
M  V30 7762 H 1256.05 1.6395 5.56554 0
M  V30 7763 H 1256.32 4.63439 5.3432 0
M  V30 7764 H 1257.32 3.44728 6.25838 0
M  V30 7765 H 1255.48 4.96652 7.57263 0
M  V30 7766 H 1255.41 4.80159 3.74441 0
M  V30 7767 P 1257.35 2.75334 8.47391 0
M  V30 7768 O 1257.57 2.44571 9.90142 0
M  V30 7769 O 1258.14 3.87688 7.92115 0
M  V30 7770 O 1257.6 1.4459 7.59357 0
M  V30 7771 C 1256.66 0.347608 7.69215 0
M  V30 7772 C 1257.39 -0.96767 7.52806 0
M  V30 7773 O 1257.6 -1.21036 6.1011 0
M  V30 7774 C 1258.79 -1.04544 8.13308 0
M  V30 7775 O 1259.18 -2.38311 8.41922 0
M  V30 7776 C 1259.67 -0.491279 7.02284 0
M  V30 7777 C 1258.96 -0.996264 5.77469 0
M  V30 7778 N 1259.01 -0.0501916 4.62973 0
M  V30 7779 H 1256.17 0.374722 8.67691 0
M  V30 7780 H 1255.9 0.443485 6.90277 0
M  V30 7781 H 1256.77 -1.75537 7.96793 0
M  V30 7782 P 1260.73 -2.75334 8.47391 0
M  V30 7783 O 1260.95 -3.84204 9.44982 0
M  V30 7784 O 1261.52 -1.51982 8.68909 0
M  V30 7785 O 1260.98 -3.29363 6.99321 0
M  V30 7786 C 1260.04 -4.24066 6.42823 0
M  V30 7787 C 1260.77 -5.20775 5.52155 0
M  V30 7788 O 1260.98 -4.56607 4.22514 0
M  V30 7789 C 1262.17 -5.62697 5.96604 0
M  V30 7790 O 1262.56 -6.87667 5.41053 0
M  V30 7791 C 1263.05 -4.52537 5.39283 0
M  V30 7792 C 1262.34 -4.20027 4.08623 0
M  V30 7793 N 1262.39 -2.76189 3.71603 0
M  V30 7794 H 1259.55 -4.79756 7.24086 0
M  V30 7795 H 1259.28 -3.69963 5.84682 0
M  V30 7796 H 1260.15 -6.10431 5.41508 0
M  V30 7797 H 1262.81 -4.78816 3.28024 0
M  V30 7798 H 1263.09 -3.64957 6.05871 0
M  V30 7799 H 1264.08 -4.88748 5.21323 0
M  V30 7800 H 1262.24 -5.66789 7.0643 0
M  V30 7801 P 1264.11 -7.20834 5.23717 0
M  V30 7802 O 1264.33 -8.66104 5.38572 0
M  V30 7803 O 1264.9 -6.33544 6.1349 0
M  V30 7804 O 1264.36 -6.7751 3.72168 0
M  V30 7805 C 1263.42 -7.20825 2.7076 0
M  V30 7806 C 1264.15 -7.45864 1.40599 0
M  V30 7807 O 1264.36 -6.17651 0.734225 0
M  V30 7808 C 1265.55 -8.05808 1.51899 0
M  V30 7809 O 1265.94 -8.74358 0.335205 0
M  V30 7810 C 1266.43 -6.83093 1.70294 0
M  V30 7811 C 1265.72 -5.79992 0.836974 0
M  V30 7812 N 1265.77 -4.41864 1.38293 0
M  V30 7813 C 1265.69 -3.99538 2.69438 0
M  V30 7814 N 1265.77 -2.69909 2.84277 0
M  V30 7815 C 1265.91 -2.21719 1.5408 0
M  V30 7816 C 1266.04 -0.891712 1.06628 0
M  V30 7817 N 1266.16 -0.856846 -0.334985 0
M  V30 7818 C 1266.16 -1.9641 -1.15789 0
M  V30 7819 N 1266.29 -1.72708 -2.46522 0
M  V30 7820 N 1266.03 -3.21165 -0.713741 0
M  V30 7821 C 1265.91 -3.26797 0.639748 0
M  V30 7822 H 1262.93 -8.13644 3.0377 0
M  V30 7823 H 1262.66 -6.42788 2.55485 0
M  V30 7824 H 1263.53 -8.12039 0.792769 0
M  V30 7825 P 1267.49 -8.91 -1.0016e-11 0
M  V30 7826 O 1267.71 -10.1736 -0.733766 0
M  V30 7827 O 1268.28 -8.73247 1.2395 0
M  V30 7828 O 1267.74 -7.66872 -0.971405 0
M  V30 7829 C 1266.8 -7.42212 -2.04614 0
M  V30 7830 C 1267.53 -6.86059 -3.24661 0
M  V30 7831 O 1267.74 -5.42847 -3.03646 0
M  V30 7832 C 1268.93 -7.41196 -3.50753 0
M  V30 7833 O 1269.32 -7.27073 -4.86816 0
M  V30 7834 C 1269.81 -6.5273 -2.63741 0
M  V30 7835 C 1269.1 -5.1842 -2.73198 0
M  V30 7836 N 1269.15 -4.38668 -1.47808 0
M  V30 7837 C 1269.3 -3.02239 -1.60048 0
M  V30 7838 O 1269.39 -2.46459 -2.67869 0
M  V30 7839 N 1269.34 -2.32436 -0.408571 0
M  V30 7840 C 1269.25 -2.85471 0.854993 0
M  V30 7841 C 1269.1 -4.28918 0.887335 0
M  V30 7842 C 1269.05 -5.00349 -0.255399 0
M  V30 7843 H 1266.31 -8.36803 -2.32493 0
M  V30 7844 H 1266.04 -6.701 -1.71105 0
M  V30 7845 H 1266.91 -7.03551 -4.13168 0
M  V30 7846 H 1269.57 -4.59773 -3.53894 0
M  V30 7847 H 1269.84 -6.88995 -1.59871 0
M  V30 7848 H 1270.84 -6.46749 -3.03687 0
M  V30 7849 H 1269 -8.46908 -3.20714 0
M  V30 7850 H 1268.93 -6.08548 -0.206986 0
M  V30 7851 P 1270.87 -7.20834 -5.23717 0
M  V30 7852 O 1271.09 -7.79853 -6.57286 0
M  V30 7853 O 1271.66 -7.79239 -4.12957 0
M  V30 7854 O 1271.12 -5.63315 -5.29344 0
M  V30 7855 C 1270.18 -4.80255 -6.01876 0
M  V30 7856 C 1270.91 -3.64202 -6.65911 0
M  V30 7857 O 1271.12 -2.60694 -5.64732 0
M  V30 7858 C 1272.31 -3.93473 -7.1943 0
M  V30 7859 O 1272.7 -3.02071 -8.21205 0
M  V30 7860 C 1273.19 -3.73047 -5.97036 0
M  V30 7861 C 1272.48 -2.58828 -5.25741 0
M  V30 7862 N 1272.53 -2.68068 -3.77503 0
M  V30 7863 H 1269.69 -5.40332 -6.79951 0
M  V30 7864 H 1269.42 -4.41613 -5.32378 0
M  V30 7865 H 1270.29 -3.26331 -7.47797 0
M  V30 7866 P 1274.25 -2.75334 -8.47391 0
M  V30 7867 O 1274.47 -2.44571 -9.90142 0
M  V30 7868 O 1275.04 -3.87688 -7.92115 0
M  V30 7869 O 1274.5 -1.4459 -7.59357 0
M  V30 7870 C 1273.56 -0.347608 -7.69215 0
M  V30 7871 C 1274.29 0.96767 -7.52806 0
M  V30 7872 O 1274.5 1.21036 -6.1011 0
M  V30 7873 C 1275.69 1.04544 -8.13308 0
M  V30 7874 O 1276.08 2.38311 -8.41922 0
M  V30 7875 C 1276.57 0.491279 -7.02284 0
M  V30 7876 C 1275.86 0.996264 -5.77469 0
M  V30 7877 N 1275.91 0.0501916 -4.62973 0
M  V30 7878 H 1273.07 -0.374722 -8.67691 0
M  V30 7879 H 1272.8 -0.443485 -6.90277 0
M  V30 7880 H 1273.67 1.75537 -7.96793 0
M  V30 7881 P 1277.63 2.75334 -8.47391 0
M  V30 7882 O 1277.85 3.84128 -9.44797 0
M  V30 7883 O 1278.42 1.51947 -8.68712 0
M  V30 7884 O 1277.88 3.29363 -6.99321 0
M  V30 7885 C 1276.94 4.24011 -6.4274 0
M  V30 7886 C 1277.67 5.20775 -5.52155 0
M  V30 7887 O 1277.88 4.56534 -4.22446 0
M  V30 7888 C 1279.07 5.62629 -5.96531 0
M  V30 7889 O 1279.46 6.87667 -5.41053 0
M  V30 7890 C 1279.95 4.52537 -5.39283 0
M  V30 7891 C 1279.24 4.20027 -4.08623 0
M  V30 7892 N 1279.29 2.76189 -3.71603 0
M  V30 7893 H 1276.45 4.797 -7.24003 0
M  V30 7894 H 1276.18 3.69856 -5.84513 0
M  V30 7895 H 1277.05 6.10356 -5.41441 0
M  V30 7896 P 1281.01 7.20834 -5.23717 0
M  V30 7897 O 1281.23 8.66104 -5.38572 0
M  V30 7898 O 1281.8 6.33544 -6.1349 0
M  V30 7899 O 1281.26 6.7751 -3.72168 0
M  V30 7900 C 1280.32 7.20825 -2.7076 0
M  V30 7901 C 1281.05 7.45864 -1.40599 0
M  V30 7902 O 1281.26 6.17651 -0.734225 0
M  V30 7903 C 1282.45 8.05808 -1.51899 0
M  V30 7904 O 1282.84 8.74358 -0.335205 0
M  V30 7905 C 1283.33 6.83093 -1.70294 0
M  V30 7906 C 1282.62 5.79992 -0.836974 0
M  V30 7907 N 1282.67 4.41864 -1.38293 0
M  V30 7908 H 1279.83 8.13644 -3.0377 0
M  V30 7909 H 1279.56 6.42788 -2.55485 0
M  V30 7910 H 1280.43 8.12039 -0.792769 0
M  V30 7911 P 1284.39 8.91 1.01732e-11 0
M  V30 7912 O 1284.61 10.1726 0.733694 0
M  V30 7913 O 1285.18 8.73148 -1.23936 0
M  V30 7914 O 1284.64 7.66872 0.971405 0
M  V30 7915 C 1283.7 7.42309 2.04641 0
M  V30 7916 C 1284.43 6.86059 3.24661 0
M  V30 7917 O 1284.64 5.42847 3.03646 0
M  V30 7918 C 1285.83 7.41196 3.50753 0
M  V30 7919 O 1286.22 7.27073 4.86816 0
M  V30 7920 C 1286.71 6.5273 2.63741 0
M  V30 7921 C 1286 5.1842 2.73198 0
M  V30 7922 N 1286.05 4.38762 1.4784 0
M  V30 7923 H 1283.21 8.36803 2.32493 0
M  V30 7924 H 1282.94 6.70197 1.71129 0
M  V30 7925 H 1283.81 7.03551 4.13168 0
M  V30 7926 P 1287.77 7.20834 5.23717 0
M  V30 7927 O 1287.99 7.79853 6.57286 0
M  V30 7928 O 1288.56 7.79239 4.12957 0
M  V30 7929 O 1288.02 5.63315 5.29344 0
M  V30 7930 C 1287.08 4.80255 6.01876 0
M  V30 7931 C 1287.81 3.64202 6.65911 0
M  V30 7932 O 1288.02 2.60694 5.64732 0
M  V30 7933 C 1289.21 3.93473 7.1943 0
M  V30 7934 O 1289.6 3.02071 8.21205 0
M  V30 7935 C 1290.09 3.73047 5.97036 0
M  V30 7936 C 1289.38 2.58828 5.25741 0
M  V30 7937 N 1289.43 2.68068 3.77503 0
M  V30 7938 H 1286.59 5.40332 6.79951 0
M  V30 7939 H 1286.32 4.41613 5.32378 0
M  V30 7940 H 1287.19 3.26331 7.47797 0
M  V30 7941 P 1291.15 2.75334 8.47391 0
M  V30 7942 O 1291.37 2.44571 9.90142 0
M  V30 7943 O 1291.94 3.87688 7.92115 0
M  V30 7944 O 1291.4 1.4459 7.59357 0
M  V30 7945 C 1290.46 0.347608 7.69215 0
M  V30 7946 C 1291.19 -0.96767 7.52806 0
M  V30 7947 O 1291.4 -1.21036 6.1011 0
M  V30 7948 C 1292.59 -1.04544 8.13308 0
M  V30 7949 O 1292.98 -2.38311 8.41922 0
M  V30 7950 C 1293.47 -0.491279 7.02284 0
M  V30 7951 C 1292.76 -0.996264 5.77469 0
M  V30 7952 N 1292.81 -0.0501916 4.62973 0
M  V30 7953 H 1289.97 0.374722 8.67691 0
M  V30 7954 H 1289.7 0.443485 6.90277 0
M  V30 7955 H 1290.57 -1.75537 7.96793 0
M  V30 7956 P 1294.53 -2.75334 8.47391 0
M  V30 7957 O 1294.75 -3.84166 9.4489 0
M  V30 7958 O 1295.32 -1.51964 8.6881 0
M  V30 7959 O 1294.78 -3.29363 6.99321 0
M  V30 7960 C 1293.84 -4.23956 6.42656 0
M  V30 7961 C 1294.57 -5.20775 5.52155 0
M  V30 7962 O 1294.78 -4.56534 4.22446 0
M  V30 7963 C 1295.97 -5.62629 5.96531 0
M  V30 7964 O 1296.36 -6.87667 5.41053 0
M  V30 7965 C 1296.85 -4.52537 5.39283 0
M  V30 7966 C 1296.14 -4.20027 4.08623 0
M  V30 7967 N 1296.19 -2.7613 3.71522 0
M  V30 7968 C 1296.34 -2.45612 2.37989 0
M  V30 7969 O 1296.43 -3.30919 1.51621 0
M  V30 7970 N 1296.38 -1.10684 2.08435 0
M  V30 7971 C 1296.29 -0.0690084 2.9792 0
M  V30 7972 O 1296.34 1.10553 2.59426 0
M  V30 7973 C 1296.14 -0.481522 4.35345 0
M  V30 7974 C 1296.03 0.618778 5.36443 0
M  V30 7975 C 1296.09 -1.78906 4.67968 0
M  V30 7976 H 1293.35 -4.797 7.24003 0
M  V30 7977 H 1293.08 -3.69802 5.84429 0
M  V30 7978 H 1293.95 -6.10356 5.41441 0
M  V30 7979 H 1296.61 -4.78651 3.27911 0
M  V30 7980 H 1296.88 -3.64957 6.05871 0
M  V30 7981 H 1297.88 -4.8868 5.2125 0
M  V30 7982 H 1296.04 -5.66726 7.06352 0
M  V30 7983 H 1295.97 -2.07737 5.72367 0
M  V30 7984 H 1297 0.754375 5.86871 0
M  V30 7985 H 1295.26 0.359721 6.10641 0
M  V30 7986 H 1295.75 1.55533 4.8581 0
M  V30 7987 H 1296.49 -0.862651 1.12037 0
M  V30 7988 P 1297.91 -7.20834 5.23717 0
M  V30 7989 O 1298.13 -8.66274 5.38678 0
M  V30 7990 O 1298.7 -6.33687 6.13629 0
M  V30 7991 O 1298.16 -6.7751 3.72168 0
M  V30 7992 C 1297.22 -7.20919 2.70795 0
M  V30 7993 C 1297.95 -7.45864 1.40599 0
M  V30 7994 O 1298.16 -6.17751 0.734343 0
M  V30 7995 C 1299.35 -8.05906 1.51917 0
M  V30 7996 O 1299.74 -8.74358 0.335205 0
M  V30 7997 C 1300.23 -6.83093 1.70294 0
M  V30 7998 C 1299.52 -5.79992 0.836974 0
M  V30 7999 N 1299.57 -4.41864 1.38293 0
M  V30 8000 C 1299.49 -4.02089 2.69407 0
M  V30 8001 N 1299.56 -2.73403 2.85089 0
M  V30 8002 C 1299.71 -2.25086 1.5642 0
M  V30 8003 C 1299.84 -0.942887 1.04836 0
M  V30 8004 N 1299.85 0.150999 1.80369 0
M  V30 8005 N 1299.96 -0.812565 -0.28167 0
M  V30 8006 C 1299.95 -1.90572 -1.03784 0
M  V30 8007 N 1299.83 -3.167 -0.683905 0
M  V30 8008 C 1299.71 -3.26538 0.652815 0
M  V30 8009 H 1296.73 -8.13738 3.03804 0
M  V30 8010 H 1296.46 -6.42974 2.55559 0
M  V30 8011 H 1297.33 -8.12139 0.792866 0
M  V30 8012 H 1299.99 -5.80178 -0.160643 0
M  V30 8013 H 1300.27 -6.51379 2.75643 0
M  V30 8014 H 1301.26 -7.01832 1.3448 0
M  V30 8015 H 1299.42 -8.73771 2.38364 0
M  V30 8016 H 1299.38 -4.7189 3.52311 0
M  V30 8017 H 1299.76 0.0721434 2.82608 0
M  V30 8018 H 1299.95 1.0785 1.36544 0
M  V30 8019 H 1300.06 -1.73207 -2.10241 0
M  V30 8020 P 1301.29 -8.91 -1.03304e-11 0
M  V30 8021 O 1301.51 -10.1726 -0.733694 0
M  V30 8022 O 1302.08 -8.73148 1.23936 0
M  V30 8023 O 1301.54 -7.66872 -0.971405 0
M  V30 8024 C 1300.6 -7.42309 -2.04641 0
M  V30 8025 C 1301.33 -6.86059 -3.24661 0
M  V30 8026 O 1301.54 -5.42847 -3.03646 0
M  V30 8027 C 1302.73 -7.41196 -3.50753 0
M  V30 8028 O 1303.12 -7.27073 -4.86816 0
M  V30 8029 C 1303.61 -6.5273 -2.63741 0
M  V30 8030 C 1302.9 -5.1842 -2.73198 0
M  V30 8031 N 1302.95 -4.38762 -1.4784 0
M  V30 8032 C 1302.87 -4.81605 -0.168631 0
M  V30 8033 N 1302.95 -3.85454 0.713363 0
M  V30 8034 C 1303.09 -2.6994 -0.0566958 0
M  V30 8035 C 1303.22 -1.34815 0.338502 0
M  V30 8036 O 1303.24 -0.869548 1.47125 0
M  V30 8037 N 1303.34 -0.496304 -0.77465 0
M  V30 8038 C 1303.34 -0.908403 -2.09122 0
M  V30 8039 N 1303.47 0.0517805 -3.00955 0
M  V30 8040 N 1303.21 -2.17875 -2.46519 0
M  V30 8041 C 1303.09 -3.01988 -1.4033 0
M  V30 8042 H 1300.11 -8.36803 -2.32493 0
M  V30 8043 H 1299.84 -6.70197 -1.71129 0
M  V30 8044 H 1300.71 -7.03551 -4.13168 0
M  V30 8045 H 1303.37 -4.59498 -3.54415 0
M  V30 8046 H 1303.64 -6.88898 -1.59848 0
M  V30 8047 H 1304.64 -6.46749 -3.03687 0
M  V30 8048 H 1302.8 -8.46908 -3.20714 0
M  V30 8049 H 1302.75 -5.86405 0.105564 0
M  V30 8050 H 1303.44 0.483664 -0.597855 0
M  V30 8051 H 1303.47 -0.187865 -4.0116 0
M  V30 8052 H 1303.57 1.03585 -2.71726 0
M  V30 8053 P 1304.67 -7.20834 -5.23717 0
M  V30 8054 O 1304.89 -7.80006 -6.57415 0
M  V30 8055 O 1305.46 -7.79416 -4.13051 0
M  V30 8056 O 1304.92 -5.63315 -5.29344 0
M  V30 8057 C 1303.98 -4.80318 -6.01954 0
M  V30 8058 C 1304.71 -3.64202 -6.65911 0
M  V30 8059 O 1304.92 -2.60736 -5.64823 0
M  V30 8060 C 1306.11 -3.93521 -7.19518 0
M  V30 8061 O 1306.5 -3.02071 -8.21205 0
M  V30 8062 C 1306.99 -3.73047 -5.97036 0
M  V30 8063 C 1306.28 -2.58828 -5.25741 0
M  V30 8064 N 1306.33 -2.68068 -3.77503 0
M  V30 8065 C 1306.25 -3.80474 -2.99159 0
M  V30 8066 N 1306.32 -3.55622 -1.71925 0
M  V30 8067 C 1306.47 -2.1832 -1.65733 0
M  V30 8068 C 1306.6 -1.28842 -0.572777 0
M  V30 8069 N 1306.61 -1.66875 0.70098 0
M  V30 8070 N 1306.72 0.016788 -0.859836 0
M  V30 8071 C 1306.71 0.398145 -2.13316 0
M  V30 8072 N 1306.59 -0.328224 -3.22333 0
M  V30 8073 C 1306.47 -1.62992 -2.90383 0
M  V30 8074 H 1303.49 -5.40394 -6.8003 0
M  V30 8075 H 1303.22 -4.41741 -5.32532 0
M  V30 8076 H 1304.09 -3.26371 -7.47889 0
M  V30 8077 H 1306.75 -1.64007 -5.56746 0
M  V30 8078 H 1307.03 -4.63439 -5.3432 0
M  V30 8079 H 1308.02 -3.44776 -6.25925 0
M  V30 8080 H 1306.18 -4.96707 -7.57347 0
M  V30 8081 H 1306.14 -4.8089 -3.39924 0
M  V30 8082 H 1306.52 -2.66547 0.941919 0
M  V30 8083 H 1306.71 -0.965341 1.44766 0
M  V30 8084 H 1306.82 1.46427 -2.29697 0
M  V30 8085 P 1308.05 -2.75334 -8.47391 0
M  V30 8086 O 1308.27 -2.44571 -9.90142 0
M  V30 8087 O 1308.84 -3.87688 -7.92115 0
M  V30 8088 O 1308.3 -1.4459 -7.59357 0
M  V30 8089 C 1307.36 -0.347608 -7.69215 0
M  V30 8090 C 1308.09 0.96767 -7.52806 0
M  V30 8091 O 1308.3 1.21036 -6.1011 0
M  V30 8092 C 1309.49 1.04544 -8.13308 0
M  V30 8093 O 1309.88 2.38311 -8.41922 0
M  V30 8094 C 1310.37 0.491279 -7.02284 0
M  V30 8095 C 1309.66 0.996264 -5.77469 0
M  V30 8096 N 1309.71 0.0501916 -4.62973 0
M  V30 8097 H 1306.87 -0.374722 -8.67691 0
M  V30 8098 H 1306.6 -0.443485 -6.90277 0
M  V30 8099 H 1307.47 1.75537 -7.96793 0
M  V30 8100 P 1311.43 2.75334 -8.47391 0
M  V30 8101 O 1311.65 3.84128 -9.44797 0
M  V30 8102 O 1312.22 1.51947 -8.68712 0
M  V30 8103 O 1311.68 3.29363 -6.99321 0
M  V30 8104 C 1310.74 4.24011 -6.4274 0
M  V30 8105 C 1311.47 5.20775 -5.52155 0
M  V30 8106 O 1311.68 4.56534 -4.22446 0
M  V30 8107 C 1312.87 5.62629 -5.96531 0
M  V30 8108 O 1313.26 6.87667 -5.41053 0
M  V30 8109 C 1313.75 4.52537 -5.39283 0
M  V30 8110 C 1313.04 4.20027 -4.08623 0
M  V30 8111 N 1313.09 2.76189 -3.71603 0
M  V30 8112 C 1313.01 1.64862 -4.52822 0
M  V30 8113 N 1313.09 0.512671 -3.88633 0
M  V30 8114 C 1313.23 0.888083 -2.54977 0
M  V30 8115 C 1313.36 0.094668 -1.38677 0
M  V30 8116 O 1313.38 -1.13053 -1.28163 0
M  V30 8117 N 1313.48 0.890102 -0.232633 0
M  V30 8118 C 1313.48 2.26958 -0.21772 0
M  V30 8119 N 1313.61 2.84626 0.97925 0
M  V30 8120 N 1313.35 3.0178 -1.31033 0
M  V30 8121 C 1313.23 2.26781 -2.43843 0
M  V30 8122 H 1310.25 4.797 -7.24003 0
M  V30 8123 H 1309.98 3.69856 -5.84513 0
M  V30 8124 H 1310.85 6.10356 -5.41441 0
M  V30 8125 H 1313.51 4.79061 -3.27488 0
M  V30 8126 H 1313.78 3.64906 -6.05785 0
M  V30 8127 H 1314.78 4.8868 -5.2125 0
M  V30 8128 H 1312.94 5.66726 -7.06352 0
M  V30 8129 H 1312.89 1.71169 -5.60966 0
M  V30 8130 H 1313.58 0.419134 0.644739 0
M  V30 8131 H 1313.61 3.87332 1.06098 0
M  V30 8132 H 1313.71 2.26417 1.82483 0
M  V30 8133 P 1314.81 7.20834 -5.23717 0
M  V30 8134 O 1315.03 8.66104 -5.38572 0
M  V30 8135 O 1315.6 6.33544 -6.1349 0
M  V30 8136 O 1315.06 6.7751 -3.72168 0
M  V30 8137 C 1314.12 7.20825 -2.7076 0
M  V30 8138 C 1314.85 7.45864 -1.40599 0
M  V30 8139 O 1315.06 6.17651 -0.734225 0
M  V30 8140 C 1316.25 8.05808 -1.51899 0
M  V30 8141 O 1316.64 8.74358 -0.335205 0
M  V30 8142 C 1317.13 6.83093 -1.70294 0
M  V30 8143 C 1316.42 5.79992 -0.836974 0
M  V30 8144 N 1316.47 4.41864 -1.38293 0
M  V30 8145 C 1316.39 3.99538 -2.69438 0
M  V30 8146 N 1316.47 2.69909 -2.84277 0
M  V30 8147 C 1316.61 2.21719 -1.5408 0
M  V30 8148 C 1316.74 0.891712 -1.06628 0
M  V30 8149 O 1316.76 -0.161298 -1.70137 0
M  V30 8150 N 1316.86 0.856846 0.334985 0
M  V30 8151 C 1316.86 1.9641 1.15789 0
M  V30 8152 N 1316.99 1.72708 2.46522 0
M  V30 8153 N 1316.73 3.21165 0.713741 0
M  V30 8154 C 1316.61 3.26797 -0.639748 0
M  V30 8155 H 1313.63 8.13644 -3.0377 0
M  V30 8156 H 1313.36 6.42788 -2.55485 0
M  V30 8157 H 1314.23 8.12039 -0.792769 0
M  V30 8158 H 1316.89 5.80061 0.166416 0
M  V30 8159 H 1317.16 6.51287 -2.75604 0
M  V30 8160 H 1318.16 7.01734 -1.34462 0
M  V30 8161 H 1316.32 8.73674 -2.38337 0
M  V30 8162 H 1316.27 4.68207 -3.53221 0
M  V30 8163 H 1316.96 -0.0398818 0.767965 0
M  V30 8164 H 1316.99 2.50995 3.13503 0
M  V30 8165 H 1317.09 0.759148 2.80716 0
M  V30 8166 P 1318.19 8.91 1.04876e-11 0
M  V30 8167 O 1318.41 10.1746 0.733838 0
M  V30 8168 O 1318.98 8.73346 -1.23964 0
M  V30 8169 O 1318.44 7.66872 0.971405 0
M  V30 8170 C 1317.5 7.42405 2.04668 0
M  V30 8171 C 1318.23 6.86059 3.24661 0
M  V30 8172 O 1318.44 5.42934 3.03695 0
M  V30 8173 C 1319.63 7.41287 3.50796 0
M  V30 8174 O 1320.02 7.27073 4.86816 0
M  V30 8175 C 1320.51 6.5273 2.63741 0
M  V30 8176 C 1319.8 5.1842 2.73198 0
M  V30 8177 N 1319.85 4.38762 1.4784 0
M  V30 8178 C 1319.77 4.83651 0.183876 0
M  V30 8179 N 1319.84 3.88759 -0.699393 0
M  V30 8180 C 1319.99 2.7404 0.0575568 0
M  V30 8181 C 1320.12 1.37902 -0.293928 0
M  V30 8182 N 1320.13 0.938021 -1.54797 0
M  V30 8183 N 1320.24 0.491817 0.70549 0
M  V30 8184 C 1320.23 0.931735 1.95979 0
M  V30 8185 N 1320.11 2.16017 2.41481 0
M  V30 8186 C 1319.99 3.02547 1.39121 0
M  V30 8187 H 1317.01 8.36899 2.3252 0
M  V30 8188 H 1316.74 6.70391 1.71179 0
M  V30 8189 H 1317.61 7.03638 4.13219 0
M  V30 8190 H 1320.27 4.59931 3.54016 0
M  V30 8191 H 1320.55 6.88995 1.59871 0
M  V30 8192 H 1321.54 6.4684 3.0373 0
M  V30 8193 H 1319.7 8.47002 3.20749 0
M  V30 8194 H 1319.66 5.8885 -0.0765548 0
M  V30 8195 H 1320.04 1.60276 -2.32875 0
M  V30 8196 H 1320.23 -0.0699355 -1.73859 0
M  V30 8197 H 1320.34 0.165507 2.71897 0
M  V30 8198 P 1321.57 7.20834 5.23717 0
M  V30 8199 O 1321.79 7.7993 6.57351 0
M  V30 8200 O 1322.36 7.79328 4.13004 0
M  V30 8201 O 1321.82 5.63315 5.29344 0
M  V30 8202 C 1320.88 4.80193 6.01798 0
M  V30 8203 C 1321.61 3.64202 6.65911 0
M  V30 8204 O 1321.82 2.60694 5.64732 0
M  V30 8205 C 1323.01 3.93473 7.1943 0
M  V30 8206 O 1323.4 3.02071 8.21205 0
M  V30 8207 C 1323.89 3.73047 5.97036 0
M  V30 8208 C 1323.18 2.58828 5.25741 0
M  V30 8209 N 1323.23 2.6801 3.77422 0
M  V30 8210 C 1323.38 1.50443 3.07133 0
M  V30 8211 O 1323.47 0.419406 3.61576 0
M  V30 8212 N 1323.42 1.6403 1.69677 0
M  V30 8213 C 1323.33 2.81206 0.986255 0
M  V30 8214 C 1323.18 3.99158 1.80325 0
M  V30 8215 C 1323.13 3.89779 3.1476 0
M  V30 8216 H 1320.39 5.40332 6.79951 0
M  V30 8217 H 1320.12 4.41549 5.32301 0
M  V30 8218 H 1320.99 3.26331 7.47797 0
M  V30 8219 H 1323.65 1.6395 5.56554 0
M  V30 8220 H 1323.92 4.63439 5.3432 0
M  V30 8221 H 1324.92 3.44728 6.25838 0
M  V30 8222 H 1323.08 4.96652 7.57263 0
M  V30 8223 H 1323.01 4.80159 3.74441 0
M  V30 8224 P 1324.95 2.75334 8.47391 0
M  V30 8225 O 1325.17 2.44571 9.90142 0
M  V30 8226 O 1325.74 3.87688 7.92115 0
M  V30 8227 O 1325.2 1.4459 7.59357 0
M  V30 8228 C 1324.26 0.347608 7.69215 0
M  V30 8229 C 1324.99 -0.96767 7.52806 0
M  V30 8230 O 1325.2 -1.21036 6.1011 0
M  V30 8231 C 1326.39 -1.04544 8.13308 0
M  V30 8232 O 1326.78 -2.38311 8.41922 0
M  V30 8233 C 1327.27 -0.491279 7.02284 0
M  V30 8234 C 1326.56 -0.996264 5.77469 0
M  V30 8235 N 1326.61 -0.0501916 4.62973 0
M  V30 8236 C 1326.53 1.32786 4.63244 0
M  V30 8237 N 1326.61 1.86957 3.44545 0
M  V30 8238 C 1326.75 0.780241 2.58481 0
M  V30 8239 C 1326.88 0.738536 1.17757 0
M  V30 8240 O 1326.9 1.66794 0.372349 0
M  V30 8241 N 1327 -0.58337 0.711393 0
M  V30 8242 C 1327 -1.70816 1.51017 0
M  V30 8243 N 1327.13 -2.87826 0.880757 0
M  V30 8244 N 1326.87 -1.67126 2.8339 0
M  V30 8245 C 1326.75 -0.401421 3.30572 0
M  V30 8246 H 1323.77 0.374722 8.67691 0
M  V30 8247 H 1323.5 0.443485 6.90277 0
M  V30 8248 H 1324.37 -1.75537 7.96793 0
M  V30 8249 H 1327.03 -1.95076 5.46529 0
M  V30 8250 H 1327.3 0.608565 7.04577 0
M  V30 8251 H 1328.3 -0.889672 7.08939 0
M  V30 8252 H 1326.46 -0.43308 9.04564 0
M  V30 8253 H 1326.41 1.91249 5.54442 0
M  V30 8254 H 1327.1 -0.718054 -0.275244 0
M  V30 8255 H 1327.13 -3.75721 1.41832 0
M  V30 8256 H 1327.23 -2.90436 -0.145468 0
M  V30 8257 P 1328.33 -2.75334 8.47391 0
M  V30 8258 O 1328.55 -3.84128 9.44797 0
M  V30 8259 O 1329.12 -1.51947 8.68712 0
M  V30 8260 O 1328.58 -3.29363 6.99321 0
M  V30 8261 C 1327.64 -4.24011 6.4274 0
M  V30 8262 C 1328.37 -5.20775 5.52155 0
M  V30 8263 O 1328.58 -4.56534 4.22446 0
M  V30 8264 C 1329.77 -5.62629 5.96531 0
M  V30 8265 O 1330.16 -6.87667 5.41053 0
M  V30 8266 C 1330.65 -4.52537 5.39283 0
M  V30 8267 C 1329.94 -4.20027 4.08623 0
M  V30 8268 N 1329.99 -2.76189 3.71603 0
M  V30 8269 H 1327.15 -4.797 7.24003 0
M  V30 8270 H 1326.88 -3.69856 5.84513 0
M  V30 8271 H 1327.75 -6.10356 5.41441 0
M  V30 8272 P 1331.71 -7.20834 5.23717 0
M  V30 8273 O 1331.93 -8.66104 5.38572 0
M  V30 8274 O 1332.5 -6.33544 6.1349 0
M  V30 8275 O 1331.96 -6.7751 3.72168 0
M  V30 8276 C 1331.02 -7.20825 2.7076 0
M  V30 8277 C 1331.75 -7.45864 1.40599 0
M  V30 8278 O 1331.96 -6.17651 0.734225 0
M  V30 8279 C 1333.15 -8.05808 1.51899 0
M  V30 8280 O 1333.54 -8.74358 0.335205 0
M  V30 8281 C 1334.03 -6.83093 1.70294 0
M  V30 8282 C 1333.32 -5.79992 0.836974 0
M  V30 8283 N 1333.37 -4.41864 1.38293 0
M  V30 8284 H 1330.53 -8.13644 3.0377 0
M  V30 8285 H 1330.26 -6.42788 2.55485 0
M  V30 8286 H 1331.13 -8.12039 0.792769 0
M  V30 8287 P 1335.09 -8.91 -1.06447e-11 0
M  V30 8288 O 1335.31 -10.1746 -0.733838 0
M  V30 8289 O 1335.88 -8.73346 1.23964 0
M  V30 8290 O 1335.34 -7.66872 -0.971405 0
M  V30 8291 C 1334.4 -7.42405 -2.04668 0
M  V30 8292 C 1335.13 -6.86059 -3.24661 0
M  V30 8293 O 1335.34 -5.42934 -3.03695 0
M  V30 8294 C 1336.53 -7.41287 -3.50796 0
M  V30 8295 O 1336.92 -7.27073 -4.86816 0
M  V30 8296 C 1337.41 -6.5273 -2.63741 0
M  V30 8297 C 1336.7 -5.1842 -2.73198 0
M  V30 8298 N 1336.75 -4.38762 -1.4784 0
M  V30 8299 H 1333.91 -8.36899 -2.3252 0
M  V30 8300 H 1333.64 -6.70391 -1.71179 0
M  V30 8301 H 1334.51 -7.03638 -4.13219 0
M  V30 8302 H 1337.17 -4.59931 -3.54016 0
M  V30 8303 H 1337.45 -6.88995 -1.59871 0
M  V30 8304 H 1338.44 -6.4684 -3.0373 0
M  V30 8305 H 1336.6 -8.47002 -3.20749 0
M  V30 8306 P 1338.47 -7.20834 -5.23717 0
M  V30 8307 O 1338.69 -7.80006 -6.57415 0
M  V30 8308 O 1339.26 -7.79416 -4.13051 0
M  V30 8309 O 1338.72 -5.63315 -5.29344 0
M  V30 8310 C 1337.78 -4.80318 -6.01954 0
M  V30 8311 C 1338.51 -3.64202 -6.65911 0
M  V30 8312 O 1338.72 -2.60736 -5.64823 0
M  V30 8313 C 1339.91 -3.93521 -7.19518 0
M  V30 8314 O 1340.3 -3.02071 -8.21205 0
M  V30 8315 C 1340.79 -3.73047 -5.97036 0
M  V30 8316 C 1340.08 -2.58828 -5.25741 0
M  V30 8317 N 1340.13 -2.68068 -3.77503 0
M  V30 8318 H 1337.29 -5.40394 -6.8003 0
M  V30 8319 H 1337.02 -4.41741 -5.32532 0
M  V30 8320 H 1337.89 -3.26371 -7.47889 0
M  V30 8321 H 1340.55 -1.64007 -5.56746 0
M  V30 8322 H 1340.83 -4.63439 -5.3432 0
M  V30 8323 H 1341.82 -3.44776 -6.25925 0
M  V30 8324 H 1339.98 -4.96707 -7.57347 0
M  V30 8325 P 1341.85 -2.75334 -8.47391 0
M  V30 8326 O 1342.07 -2.44571 -9.90142 0
M  V30 8327 O 1342.64 -3.87688 -7.92115 0
M  V30 8328 O 1342.1 -1.4459 -7.59357 0
M  V30 8329 C 1341.16 -0.347608 -7.69215 0
M  V30 8330 C 1341.89 0.96767 -7.52806 0
M  V30 8331 O 1342.1 1.21036 -6.1011 0
M  V30 8332 C 1343.29 1.04544 -8.13308 0
M  V30 8333 O 1343.68 2.38311 -8.41922 0
M  V30 8334 C 1344.17 0.491279 -7.02284 0
M  V30 8335 C 1343.46 0.996264 -5.77469 0
M  V30 8336 N 1343.51 0.0501916 -4.62973 0
M  V30 8337 C 1343.43 -1.32786 -4.63244 0
M  V30 8338 N 1343.51 -1.86957 -3.44545 0
M  V30 8339 C 1343.65 -0.780241 -2.58481 0
M  V30 8340 C 1343.78 -0.738536 -1.17757 0
M  V30 8341 O 1343.8 -1.66794 -0.372349 0
M  V30 8342 N 1343.9 0.58337 -0.711393 0
M  V30 8343 C 1343.9 1.70816 -1.51017 0
M  V30 8344 N 1344.03 2.87826 -0.880757 0
M  V30 8345 N 1343.77 1.67126 -2.8339 0
M  V30 8346 C 1343.65 0.401421 -3.30572 0
M  V30 8347 H 1340.67 -0.374722 -8.67691 0
M  V30 8348 H 1340.4 -0.443485 -6.90277 0
M  V30 8349 H 1341.27 1.75537 -7.96793 0
M  V30 8350 H 1343.93 1.95076 -5.46529 0
M  V30 8351 H 1344.2 -0.608565 -7.04577 0
M  V30 8352 H 1345.2 0.889672 -7.08939 0
M  V30 8353 H 1343.36 0.43308 -9.04564 0
M  V30 8354 H 1343.31 -1.91249 -5.54442 0
M  V30 8355 H 1344 0.718054 0.275244 0
M  V30 8356 H 1344.03 3.75721 -1.41832 0
M  V30 8357 H 1344.13 2.90436 0.145468 0
M  V30 8358 P 1345.23 2.75334 -8.47391 0
M  V30 8359 O 1345.45 3.84128 -9.44797 0
M  V30 8360 O 1346.02 1.51947 -8.68712 0
M  V30 8361 O 1345.48 3.29363 -6.99321 0
M  V30 8362 C 1344.54 4.24011 -6.4274 0
M  V30 8363 C 1345.27 5.20775 -5.52155 0
M  V30 8364 O 1345.48 4.56534 -4.22446 0
M  V30 8365 C 1346.67 5.62629 -5.96531 0
M  V30 8366 O 1347.06 6.87667 -5.41053 0
M  V30 8367 C 1347.55 4.52537 -5.39283 0
M  V30 8368 C 1346.84 4.20027 -4.08623 0
M  V30 8369 N 1346.89 2.76189 -3.71603 0
M  V30 8370 C 1346.81 1.64862 -4.52822 0
M  V30 8371 N 1346.89 0.512671 -3.88633 0
M  V30 8372 C 1347.03 0.888083 -2.54977 0
M  V30 8373 C 1347.16 0.094668 -1.38677 0
M  V30 8374 O 1347.18 -1.13053 -1.28163 0
M  V30 8375 N 1347.28 0.890102 -0.232633 0
M  V30 8376 C 1347.28 2.26958 -0.21772 0
M  V30 8377 N 1347.41 2.84626 0.97925 0
M  V30 8378 N 1347.15 3.0178 -1.31033 0
M  V30 8379 C 1347.03 2.26781 -2.43843 0
M  V30 8380 H 1344.05 4.797 -7.24003 0
M  V30 8381 H 1343.78 3.69856 -5.84513 0
M  V30 8382 H 1344.65 6.10356 -5.41441 0
M  V30 8383 H 1347.31 4.79061 -3.27488 0
M  V30 8384 H 1347.58 3.64906 -6.05785 0
M  V30 8385 H 1348.58 4.8868 -5.2125 0
M  V30 8386 H 1346.74 5.66726 -7.06352 0
M  V30 8387 H 1346.69 1.71169 -5.60966 0
M  V30 8388 H 1347.38 0.419134 0.644739 0
M  V30 8389 H 1347.41 3.87332 1.06098 0
M  V30 8390 H 1347.51 2.26417 1.82483 0
M  V30 8391 P 1348.61 7.20834 -5.23717 0
M  V30 8392 O 1348.83 8.66274 -5.38678 0
M  V30 8393 O 1349.4 6.33687 -6.13629 0
M  V30 8394 O 1348.86 6.7751 -3.72168 0
M  V30 8395 C 1347.92 7.20919 -2.70795 0
M  V30 8396 C 1348.65 7.45864 -1.40599 0
M  V30 8397 O 1348.86 6.17751 -0.734343 0
M  V30 8398 C 1350.05 8.05906 -1.51917 0
M  V30 8399 O 1350.44 8.74358 -0.335205 0
M  V30 8400 C 1350.93 6.83093 -1.70294 0
M  V30 8401 C 1350.22 5.79992 -0.836974 0
M  V30 8402 N 1350.27 4.41864 -1.38293 0
M  V30 8403 H 1347.43 8.13738 -3.03804 0
M  V30 8404 H 1347.16 6.42974 -2.55559 0
M  V30 8405 H 1348.03 8.12139 -0.792866 0
M  V30 8406 H 1350.69 5.80178 0.160643 0
M  V30 8407 H 1350.97 6.51379 -2.75643 0
M  V30 8408 H 1351.96 7.01832 -1.3448 0
M  V30 8409 H 1350.12 8.73771 -2.38364 0
M  V30 8410 P 1351.99 8.91 1.08019e-11 0
M  V30 8411 O 1352.21 10.1726 0.733694 0
M  V30 8412 O 1352.78 8.73148 -1.23936 0
M  V30 8413 O 1352.24 7.66872 0.971405 0
M  V30 8414 C 1351.3 7.42309 2.04641 0
M  V30 8415 C 1352.03 6.86059 3.24661 0
M  V30 8416 O 1352.24 5.42847 3.03646 0
M  V30 8417 C 1353.43 7.41196 3.50753 0
M  V30 8418 O 1353.82 7.27073 4.86816 0
M  V30 8419 C 1354.31 6.5273 2.63741 0
M  V30 8420 C 1353.6 5.1842 2.73198 0
M  V30 8421 N 1353.65 4.38762 1.4784 0
M  V30 8422 C 1353.57 4.81605 0.168631 0
M  V30 8423 N 1353.65 3.85454 -0.713363 0
M  V30 8424 C 1353.79 2.6994 0.0566958 0
M  V30 8425 C 1353.92 1.34815 -0.338502 0
M  V30 8426 O 1353.94 0.869548 -1.47125 0
M  V30 8427 N 1354.04 0.496304 0.77465 0
M  V30 8428 C 1354.04 0.908403 2.09122 0
M  V30 8429 N 1354.17 -0.0517805 3.00955 0
M  V30 8430 N 1353.91 2.17875 2.46519 0
M  V30 8431 C 1353.79 3.01988 1.4033 0
M  V30 8432 H 1350.81 8.36803 2.32493 0
M  V30 8433 H 1350.54 6.70197 1.71129 0
M  V30 8434 H 1351.41 7.03551 4.13168 0
M  V30 8435 H 1354.06 4.59498 3.54415 0
M  V30 8436 H 1354.34 6.88898 1.59848 0
M  V30 8437 H 1355.34 6.46749 3.03687 0
M  V30 8438 H 1353.5 8.46908 3.20714 0
M  V30 8439 H 1353.45 5.86405 -0.105564 0
M  V30 8440 H 1354.13 -0.483664 0.597855 0
M  V30 8441 H 1354.17 0.187865 4.0116 0
M  V30 8442 H 1354.27 -1.03585 2.71726 0
M  V30 8443 P 1355.37 7.20834 5.23717 0
M  V30 8444 O 1355.59 7.79853 6.57286 0
M  V30 8445 O 1356.16 7.79239 4.12957 0
M  V30 8446 O 1355.62 5.63315 5.29344 0
M  V30 8447 C 1354.68 4.80255 6.01876 0
M  V30 8448 C 1355.41 3.64202 6.65911 0
M  V30 8449 O 1355.62 2.60694 5.64732 0
M  V30 8450 C 1356.81 3.93473 7.1943 0
M  V30 8451 O 1357.2 3.02071 8.21205 0
M  V30 8452 C 1357.69 3.73047 5.97036 0
M  V30 8453 C 1356.98 2.58828 5.25741 0
M  V30 8454 N 1357.03 2.68068 3.77503 0
M  V30 8455 H 1354.19 5.40332 6.79951 0
M  V30 8456 H 1353.92 4.41613 5.32378 0
M  V30 8457 H 1354.79 3.26331 7.47797 0
M  V30 8458 P 1358.75 2.75334 8.47391 0
M  V30 8459 O 1358.97 2.44571 9.90142 0
M  V30 8460 O 1359.54 3.87688 7.92115 0
M  V30 8461 O 1359 1.4459 7.59357 0
M  V30 8462 C 1358.06 0.347608 7.69215 0
M  V30 8463 C 1358.79 -0.96767 7.52806 0
M  V30 8464 O 1359 -1.21036 6.1011 0
M  V30 8465 C 1360.19 -1.04544 8.13308 0
M  V30 8466 O 1360.58 -2.38311 8.41922 0
M  V30 8467 C 1361.07 -0.491279 7.02284 0
M  V30 8468 C 1360.36 -0.996264 5.77469 0
M  V30 8469 N 1360.41 -0.0501916 4.62973 0
M  V30 8470 H 1357.57 0.374722 8.67691 0
M  V30 8471 H 1357.3 0.443485 6.90277 0
M  V30 8472 H 1358.17 -1.75537 7.96793 0
M  V30 8473 P 1362.13 -2.75334 8.47391 0
M  V30 8474 O 1362.35 -3.84128 9.44797 0
M  V30 8475 O 1362.92 -1.51947 8.68712 0
M  V30 8476 O 1362.38 -3.29363 6.99321 0
M  V30 8477 C 1361.44 -4.24011 6.4274 0
M  V30 8478 C 1362.17 -5.20775 5.52155 0
M  V30 8479 O 1362.38 -4.56534 4.22446 0
M  V30 8480 C 1363.57 -5.62629 5.96531 0
M  V30 8481 O 1363.96 -6.87667 5.41053 0
M  V30 8482 C 1364.45 -4.52537 5.39283 0
M  V30 8483 C 1363.74 -4.20027 4.08623 0
M  V30 8484 N 1363.79 -2.76189 3.71603 0
M  V30 8485 H 1360.95 -4.797 7.24003 0
M  V30 8486 H 1360.68 -3.69856 5.84513 0
M  V30 8487 H 1361.55 -6.10356 5.41441 0
M  V30 8488 P 1365.51 -7.20834 5.23717 0
M  V30 8489 O 1365.73 -8.66104 5.38572 0
M  V30 8490 O 1366.3 -6.33544 6.1349 0
M  V30 8491 O 1365.76 -6.7751 3.72168 0
M  V30 8492 C 1364.82 -7.20825 2.7076 0
M  V30 8493 C 1365.55 -7.45864 1.40599 0
M  V30 8494 O 1365.76 -6.17651 0.734225 0
M  V30 8495 C 1366.95 -8.05808 1.51899 0
M  V30 8496 O 1367.34 -8.74358 0.335205 0
M  V30 8497 C 1367.83 -6.83093 1.70294 0
M  V30 8498 C 1367.12 -5.79992 0.836974 0
M  V30 8499 N 1367.17 -4.41864 1.38293 0
M  V30 8500 H 1364.33 -8.13644 3.0377 0
M  V30 8501 H 1364.06 -6.42788 2.55485 0
M  V30 8502 H 1364.93 -8.12039 0.792769 0
M  V30 8503 P 1368.89 -8.91 -1.09591e-11 0
M  V30 8504 O 1369.11 -10.1726 -0.733694 0
M  V30 8505 O 1369.68 -8.73148 1.23936 0
M  V30 8506 O 1369.14 -7.66872 -0.971405 0
M  V30 8507 C 1368.2 -7.42309 -2.04641 0
M  V30 8508 C 1368.93 -6.86059 -3.24661 0
M  V30 8509 O 1369.14 -5.42847 -3.03646 0
M  V30 8510 C 1370.33 -7.41196 -3.50753 0
M  V30 8511 O 1370.72 -7.27073 -4.86816 0
M  V30 8512 C 1371.21 -6.5273 -2.63741 0
M  V30 8513 C 1370.5 -5.1842 -2.73198 0
M  V30 8514 N 1370.55 -4.38762 -1.4784 0
M  V30 8515 H 1367.71 -8.36803 -2.32493 0
M  V30 8516 H 1367.44 -6.70197 -1.71129 0
M  V30 8517 H 1368.31 -7.03551 -4.13168 0
M  V30 8518 P 1372.27 -7.20834 -5.23717 0
M  V30 8519 O 1372.49 -7.79853 -6.57286 0
M  V30 8520 O 1373.06 -7.79239 -4.12957 0
M  V30 8521 O 1372.52 -5.63315 -5.29344 0
M  V30 8522 C 1371.58 -4.80255 -6.01876 0
M  V30 8523 C 1372.31 -3.64202 -6.65911 0
M  V30 8524 O 1372.52 -2.60694 -5.64732 0
M  V30 8525 C 1373.71 -3.93473 -7.1943 0
M  V30 8526 O 1374.1 -3.02071 -8.21205 0
M  V30 8527 C 1374.59 -3.73047 -5.97036 0
M  V30 8528 C 1373.88 -2.58828 -5.25741 0
M  V30 8529 N 1373.93 -2.68068 -3.77503 0
M  V30 8530 H 1371.09 -5.40332 -6.79951 0
M  V30 8531 H 1370.82 -4.41613 -5.32378 0
M  V30 8532 H 1371.69 -3.26331 -7.47797 0
M  V30 8533 P 1375.65 -2.75334 -8.47391 0
M  V30 8534 O 1375.87 -2.44595 -9.90239 0
M  V30 8535 O 1376.44 -3.87732 -7.92204 0
M  V30 8536 O 1375.9 -1.4459 -7.59357 0
M  V30 8537 C 1374.96 -0.347563 -7.69115 0
M  V30 8538 C 1375.69 0.96767 -7.52806 0
M  V30 8539 O 1375.9 1.21036 -6.1011 0
M  V30 8540 C 1377.09 1.04544 -8.13308 0
M  V30 8541 O 1377.48 2.38311 -8.41922 0
M  V30 8542 C 1377.97 0.491279 -7.02284 0
M  V30 8543 C 1377.26 0.996264 -5.77469 0
M  V30 8544 N 1377.31 0.0501808 -4.62873 0
M  V30 8545 C 1377.46 0.588177 -3.36904 0
M  V30 8546 O 1377.55 1.78598 -3.17173 0
M  V30 8547 N 1377.5 -0.329694 -2.33686 0
M  V30 8548 C 1377.41 -1.6953 -2.45079 0
M  V30 8549 C 1377.26 -2.16933 -3.80505 0
M  V30 8550 C 1377.21 -1.30326 -4.83752 0
M  V30 8551 H 1374.47 -0.374722 -8.67691 0
M  V30 8552 H 1374.2 -0.443421 -6.90177 0
M  V30 8553 H 1375.07 1.75537 -7.96793 0
M  V30 8554 H 1377.72 1.94496 -5.46629 0
M  V30 8555 H 1378 -0.608651 -7.04676 0
M  V30 8556 H 1379 0.889672 -7.08939 0
M  V30 8557 H 1377.16 0.43308 -9.04564 0
M  V30 8558 H 1377.09 -1.68366 -5.8516 0
M  V30 8559 P 1379.03 2.75334 -8.47391 0
M  V30 8560 O 1379.25 3.84128 -9.44797 0
M  V30 8561 O 1379.82 1.51947 -8.68712 0
M  V30 8562 O 1379.28 3.29363 -6.99321 0
M  V30 8563 C 1378.34 4.24011 -6.4274 0
M  V30 8564 C 1379.07 5.20775 -5.52155 0
M  V30 8565 O 1379.28 4.56534 -4.22446 0
M  V30 8566 C 1380.47 5.62629 -5.96531 0
M  V30 8567 O 1380.86 6.87667 -5.41053 0
M  V30 8568 C 1381.35 4.52537 -5.39283 0
M  V30 8569 C 1380.64 4.20027 -4.08623 0
M  V30 8570 N 1380.69 2.76189 -3.71603 0
M  V30 8571 C 1380.61 1.64862 -4.52822 0
M  V30 8572 N 1380.69 0.512671 -3.88633 0
M  V30 8573 C 1380.83 0.888083 -2.54977 0
M  V30 8574 C 1380.96 0.094668 -1.38677 0
M  V30 8575 O 1380.98 -1.13053 -1.28163 0
M  V30 8576 N 1381.08 0.890102 -0.232633 0
M  V30 8577 C 1381.08 2.26958 -0.21772 0
M  V30 8578 N 1381.21 2.84626 0.97925 0
M  V30 8579 N 1380.95 3.0178 -1.31033 0
M  V30 8580 C 1380.83 2.26781 -2.43843 0
M  V30 8581 H 1377.85 4.797 -7.24003 0
M  V30 8582 H 1377.58 3.69856 -5.84513 0
M  V30 8583 H 1378.45 6.10356 -5.41441 0
M  V30 8584 H 1381.1 4.79061 -3.27488 0
M  V30 8585 H 1381.38 3.64906 -6.05785 0
M  V30 8586 H 1382.38 4.8868 -5.2125 0
M  V30 8587 H 1380.54 5.66726 -7.06352 0
M  V30 8588 H 1380.49 1.71169 -5.60966 0
M  V30 8589 H 1381.17 0.419134 0.644739 0
M  V30 8590 H 1381.21 3.87332 1.06098 0
M  V30 8591 H 1381.31 2.26417 1.82483 0
M  V30 8592 P 1382.41 7.20834 -5.23717 0
M  V30 8593 O 1382.63 8.66104 -5.38572 0
M  V30 8594 O 1383.2 6.33544 -6.1349 0
M  V30 8595 O 1382.66 6.7751 -3.72168 0
M  V30 8596 C 1381.72 7.20825 -2.7076 0
M  V30 8597 C 1382.45 7.45864 -1.40599 0
M  V30 8598 O 1382.66 6.17651 -0.734225 0
M  V30 8599 C 1383.85 8.05808 -1.51899 0
M  V30 8600 O 1384.24 8.74358 -0.335205 0
M  V30 8601 C 1384.73 6.83093 -1.70294 0
M  V30 8602 C 1384.02 5.79992 -0.836974 0
M  V30 8603 N 1384.07 4.41864 -1.38293 0
M  V30 8604 C 1383.99 3.99538 -2.69438 0
M  V30 8605 N 1384.07 2.69909 -2.84277 0
M  V30 8606 C 1384.21 2.21719 -1.5408 0
M  V30 8607 C 1384.34 0.891712 -1.06628 0
M  V30 8608 O 1384.36 -0.161298 -1.70137 0
M  V30 8609 N 1384.46 0.856846 0.334985 0
M  V30 8610 C 1384.46 1.9641 1.15789 0
M  V30 8611 N 1384.59 1.72708 2.46522 0
M  V30 8612 N 1384.33 3.21165 0.713741 0
M  V30 8613 C 1384.21 3.26797 -0.639748 0
M  V30 8614 H 1381.23 8.13644 -3.0377 0
M  V30 8615 H 1380.96 6.42788 -2.55485 0
M  V30 8616 H 1381.83 8.12039 -0.792769 0
M  V30 8617 H 1384.48 5.80061 0.166416 0
M  V30 8618 H 1384.76 6.51287 -2.75604 0
M  V30 8619 H 1385.76 7.01734 -1.34462 0
M  V30 8620 H 1383.92 8.73674 -2.38337 0
M  V30 8621 H 1383.87 4.68207 -3.53221 0
M  V30 8622 H 1384.55 -0.0398818 0.767965 0
M  V30 8623 H 1384.59 2.50995 3.13503 0
M  V30 8624 H 1384.69 0.759148 2.80716 0
M  V30 8625 P 1385.79 8.91 1.03566e-11 0
M  V30 8626 O 1386.01 10.1726 0.733694 0
M  V30 8627 O 1386.58 8.73148 -1.23936 0
M  V30 8628 O 1386.04 7.66872 0.971405 0
M  V30 8629 C 1385.1 7.42309 2.04641 0
M  V30 8630 C 1385.83 6.86059 3.24661 0
M  V30 8631 O 1386.04 5.42847 3.03646 0
M  V30 8632 C 1387.23 7.41196 3.50753 0
M  V30 8633 O 1387.62 7.27073 4.86816 0
M  V30 8634 C 1388.11 6.5273 2.63741 0
M  V30 8635 C 1387.4 5.1842 2.73198 0
M  V30 8636 N 1387.45 4.38762 1.4784 0
M  V30 8637 H 1384.61 8.36803 2.32493 0
M  V30 8638 H 1384.34 6.70197 1.71129 0
M  V30 8639 H 1385.21 7.03551 4.13168 0
M  V30 8640 P 1389.17 7.20834 5.23717 0
M  V30 8641 O 1389.39 7.80006 6.57415 0
M  V30 8642 O 1389.96 7.79416 4.13051 0
M  V30 8643 O 1389.42 5.63315 5.29344 0
M  V30 8644 C 1388.48 4.80318 6.01954 0
M  V30 8645 C 1389.21 3.64202 6.65911 0
M  V30 8646 O 1389.42 2.60736 5.64823 0
M  V30 8647 C 1390.61 3.93521 7.19518 0
M  V30 8648 O 1391 3.02071 8.21205 0
M  V30 8649 C 1391.49 3.73047 5.97036 0
M  V30 8650 C 1390.78 2.58828 5.25741 0
M  V30 8651 N 1390.83 2.68068 3.77503 0
M  V30 8652 C 1390.75 3.80474 2.99159 0
M  V30 8653 N 1390.82 3.55622 1.71925 0
M  V30 8654 C 1390.97 2.1832 1.65733 0
M  V30 8655 C 1391.1 1.28842 0.572777 0
M  V30 8656 N 1391.11 1.66875 -0.70098 0
M  V30 8657 N 1391.22 -0.016788 0.859836 0
M  V30 8658 C 1391.21 -0.398145 2.13316 0
M  V30 8659 N 1391.09 0.328224 3.22333 0
M  V30 8660 C 1390.97 1.62992 2.90383 0
M  V30 8661 H 1387.99 5.40394 6.8003 0
M  V30 8662 H 1387.72 4.41741 5.32532 0
M  V30 8663 H 1388.59 3.26371 7.47889 0
M  V30 8664 H 1391.24 1.64007 5.56746 0
M  V30 8665 H 1391.52 4.63439 5.3432 0
M  V30 8666 H 1392.52 3.44776 6.25925 0
M  V30 8667 H 1390.68 4.96707 7.57347 0
M  V30 8668 H 1390.64 4.8089 3.39924 0
M  V30 8669 H 1391.02 2.66547 -0.941919 0
M  V30 8670 H 1391.21 0.965341 -1.44766 0
M  V30 8671 H 1391.32 -1.46427 2.29697 0
M  V30 8672 P 1392.55 2.75334 8.47391 0
M  V30 8673 O 1392.77 2.44571 9.90142 0
M  V30 8674 O 1393.34 3.87688 7.92115 0
M  V30 8675 O 1392.8 1.4459 7.59357 0
M  V30 8676 C 1391.86 0.347608 7.69215 0
M  V30 8677 C 1392.59 -0.96767 7.52806 0
M  V30 8678 O 1392.8 -1.21036 6.1011 0
M  V30 8679 C 1393.99 -1.04544 8.13308 0
M  V30 8680 O 1394.38 -2.38311 8.41922 0
M  V30 8681 C 1394.87 -0.491279 7.02284 0
M  V30 8682 C 1394.16 -0.996264 5.77469 0
M  V30 8683 N 1394.21 -0.0501916 4.62973 0
M  V30 8684 H 1391.37 0.374722 8.67691 0
M  V30 8685 H 1391.1 0.443485 6.90277 0
M  V30 8686 H 1391.97 -1.75537 7.96793 0
M  V30 8687 P 1395.93 -2.75334 8.47391 0
M  V30 8688 O 1396.15 -3.84128 9.44797 0
M  V30 8689 O 1396.72 -1.51947 8.68712 0
M  V30 8690 O 1396.18 -3.29363 6.99321 0
M  V30 8691 C 1395.24 -4.24011 6.4274 0
M  V30 8692 C 1395.97 -5.20775 5.52155 0
M  V30 8693 O 1396.18 -4.56534 4.22446 0
M  V30 8694 C 1397.37 -5.62629 5.96531 0
M  V30 8695 O 1397.76 -6.87667 5.41053 0
M  V30 8696 C 1398.25 -4.52537 5.39283 0
M  V30 8697 C 1397.54 -4.20027 4.08623 0
M  V30 8698 N 1397.59 -2.76189 3.71603 0
M  V30 8699 H 1394.75 -4.797 7.24003 0
M  V30 8700 H 1394.48 -3.69856 5.84513 0
M  V30 8701 H 1395.35 -6.10356 5.41441 0
M  V30 8702 P 1399.31 -7.20834 5.23717 0
M  V30 8703 O 1399.53 -8.66104 5.38572 0
M  V30 8704 O 1400.1 -6.33544 6.1349 0
M  V30 8705 O 1399.56 -6.7751 3.72168 0
M  V30 8706 C 1398.62 -7.20825 2.7076 0
M  V30 8707 C 1399.35 -7.45864 1.40599 0
M  V30 8708 O 1399.56 -6.17651 0.734225 0
M  V30 8709 C 1400.75 -8.05808 1.51899 0
M  V30 8710 O 1401.14 -8.74358 0.335205 0
M  V30 8711 C 1401.63 -6.83093 1.70294 0
M  V30 8712 C 1400.92 -5.79992 0.836974 0
M  V30 8713 N 1400.97 -4.41864 1.38293 0
M  V30 8714 H 1398.13 -8.13644 3.0377 0
M  V30 8715 H 1397.86 -6.42788 2.55485 0
M  V30 8716 H 1398.73 -8.12039 0.792769 0
M  V30 8717 P 1402.69 -8.91 -9.24756e-12 0
M  V30 8718 O 1402.91 -10.1726 -0.733694 0
M  V30 8719 O 1403.48 -8.73148 1.23936 0
M  V30 8720 O 1402.94 -7.66872 -0.971405 0
M  V30 8721 C 1402 -7.42309 -2.04641 0
M  V30 8722 C 1402.73 -6.86059 -3.24661 0
M  V30 8723 O 1402.94 -5.42847 -3.03646 0
M  V30 8724 C 1404.13 -7.41196 -3.50753 0
M  V30 8725 O 1404.52 -7.27073 -4.86816 0
M  V30 8726 C 1405.01 -6.5273 -2.63741 0
M  V30 8727 C 1404.3 -5.1842 -2.73198 0
M  V30 8728 N 1404.35 -4.38762 -1.4784 0
M  V30 8729 H 1401.51 -8.36803 -2.32493 0
M  V30 8730 H 1401.24 -6.70197 -1.71129 0
M  V30 8731 H 1402.11 -7.03551 -4.13168 0
M  V30 8732 P 1406.07 -7.20834 -5.23717 0
M  V30 8733 O 1406.29 -7.79853 -6.57286 0
M  V30 8734 O 1406.86 -7.79239 -4.12957 0
M  V30 8735 O 1406.32 -5.63315 -5.29344 0
M  V30 8736 C 1405.38 -4.80255 -6.01876 0
M  V30 8737 C 1406.11 -3.64202 -6.65911 0
M  V30 8738 O 1406.32 -2.60694 -5.64732 0
M  V30 8739 C 1407.51 -3.93473 -7.1943 0
M  V30 8740 O 1407.9 -3.02071 -8.21205 0
M  V30 8741 C 1408.39 -3.73047 -5.97036 0
M  V30 8742 C 1407.68 -2.58828 -5.25741 0
M  V30 8743 N 1407.73 -2.68068 -3.77503 0
M  V30 8744 H 1404.89 -5.40332 -6.79951 0
M  V30 8745 H 1404.62 -4.41613 -5.32378 0
M  V30 8746 H 1405.49 -3.26331 -7.47797 0
M  V30 8747 P 1409.45 -2.75334 -8.47391 0
M  V30 8748 O 1409.67 -2.44571 -9.90142 0
M  V30 8749 O 1410.24 -3.87688 -7.92115 0
M  V30 8750 O 1409.7 -1.4459 -7.59357 0
M  V30 8751 C 1408.76 -0.347608 -7.69215 0
M  V30 8752 C 1409.49 0.96767 -7.52806 0
M  V30 8753 O 1409.7 1.21036 -6.1011 0
M  V30 8754 C 1410.89 1.04544 -8.13308 0
M  V30 8755 O 1411.28 2.38311 -8.41922 0
M  V30 8756 C 1411.77 0.491279 -7.02284 0
M  V30 8757 C 1411.06 0.996264 -5.77469 0
M  V30 8758 N 1411.11 0.0501916 -4.62973 0
M  V30 8759 C 1411.03 -1.32786 -4.63244 0
M  V30 8760 N 1411.11 -1.86957 -3.44545 0
M  V30 8761 C 1411.25 -0.780241 -2.58481 0
M  V30 8762 C 1411.38 -0.738536 -1.17757 0
M  V30 8763 O 1411.4 -1.66794 -0.372349 0
M  V30 8764 N 1411.5 0.58337 -0.711393 0
M  V30 8765 C 1411.5 1.70816 -1.51017 0
M  V30 8766 N 1411.63 2.87826 -0.880757 0
M  V30 8767 N 1411.37 1.67126 -2.8339 0
M  V30 8768 C 1411.25 0.401421 -3.30572 0
M  V30 8769 H 1408.27 -0.374722 -8.67691 0
M  V30 8770 H 1408 -0.443485 -6.90277 0
M  V30 8771 H 1408.87 1.75537 -7.96793 0
M  V30 8772 H 1411.52 1.95076 -5.46529 0
M  V30 8773 H 1411.8 -0.608565 -7.04577 0
M  V30 8774 H 1412.8 0.889672 -7.08939 0
M  V30 8775 H 1410.96 0.43308 -9.04564 0
M  V30 8776 H 1410.91 -1.91249 -5.54442 0
M  V30 8777 H 1411.59 0.718054 0.275244 0
M  V30 8778 H 1411.63 3.75721 -1.41832 0
M  V30 8779 H 1411.73 2.90436 0.145468 0
M  V30 8780 P 1412.83 2.75334 -8.47391 0
M  V30 8781 O 1413.05 3.84128 -9.44797 0
M  V30 8782 O 1413.62 1.51947 -8.68712 0
M  V30 8783 O 1413.08 3.29363 -6.99321 0
M  V30 8784 C 1412.14 4.24011 -6.4274 0
M  V30 8785 C 1412.87 5.20775 -5.52155 0
M  V30 8786 O 1413.08 4.56534 -4.22446 0
M  V30 8787 C 1414.27 5.62629 -5.96531 0
M  V30 8788 O 1414.66 6.87667 -5.41053 0
M  V30 8789 C 1415.15 4.52537 -5.39283 0
M  V30 8790 C 1414.44 4.20027 -4.08623 0
M  V30 8791 N 1414.49 2.76189 -3.71603 0
M  V30 8792 C 1414.41 1.64862 -4.52822 0
M  V30 8793 N 1414.49 0.512671 -3.88633 0
M  V30 8794 C 1414.63 0.888083 -2.54977 0
M  V30 8795 C 1414.76 0.094668 -1.38677 0
M  V30 8796 O 1414.78 -1.13053 -1.28163 0
M  V30 8797 N 1414.88 0.890102 -0.232633 0
M  V30 8798 C 1414.88 2.26958 -0.21772 0
M  V30 8799 N 1415.01 2.84626 0.97925 0
M  V30 8800 N 1414.75 3.0178 -1.31033 0
M  V30 8801 C 1414.63 2.26781 -2.43843 0
M  V30 8802 H 1411.65 4.797 -7.24003 0
M  V30 8803 H 1411.38 3.69856 -5.84513 0
M  V30 8804 H 1412.25 6.10356 -5.41441 0
M  V30 8805 H 1414.9 4.79061 -3.27488 0
M  V30 8806 H 1415.18 3.64906 -6.05785 0
M  V30 8807 H 1416.18 4.8868 -5.2125 0
M  V30 8808 H 1414.34 5.66726 -7.06352 0
M  V30 8809 H 1414.29 1.71169 -5.60966 0
M  V30 8810 H 1414.97 0.419134 0.644739 0
M  V30 8811 H 1415.01 3.87332 1.06098 0
M  V30 8812 H 1415.11 2.26417 1.82483 0
M  V30 8813 P 1416.21 7.20834 -5.23717 0
M  V30 8814 O 1416.43 8.66189 -5.38625 0
M  V30 8815 O 1417 6.33615 -6.1356 0
M  V30 8816 O 1416.46 6.7751 -3.72168 0
M  V30 8817 C 1415.52 7.20732 -2.70725 0
M  V30 8818 C 1416.25 7.45864 -1.40599 0
M  V30 8819 O 1416.46 6.17651 -0.734225 0
M  V30 8820 C 1417.65 8.05808 -1.51899 0
M  V30 8821 O 1418.04 8.74358 -0.335205 0
M  V30 8822 C 1418.53 6.83093 -1.70294 0
M  V30 8823 C 1417.82 5.79992 -0.836974 0
M  V30 8824 N 1417.87 4.41769 -1.38263 0
M  V30 8825 C 1418.02 3.38591 -0.481702 0
M  V30 8826 O 1418.11 3.56839 0.718452 0
M  V30 8827 N 1418.06 2.1206 -1.03569 0
M  V30 8828 C 1417.97 1.80696 -2.36966 0
M  V30 8829 C 1417.82 2.94845 -3.23898 0
M  V30 8830 C 1417.77 4.19803 -2.73435 0
M  V30 8831 H 1415.03 8.13644 -3.0377 0
M  V30 8832 H 1414.76 6.42695 -2.55448 0
M  V30 8833 H 1415.63 8.12039 -0.792769 0
M  V30 8834 H 1418.28 5.79978 0.160587 0
M  V30 8835 H 1418.56 6.51379 -2.75643 0
M  V30 8836 H 1419.56 7.01734 -1.34462 0
M  V30 8837 H 1417.72 8.73674 -2.38337 0
M  V30 8838 H 1417.65 5.04492 -3.4095 0
M  V30 8839 P 1419.59 8.91 8.13856e-12 0
M  V30 8840 O 1419.81 10.1726 0.733694 0
M  V30 8841 O 1420.38 8.73148 -1.23936 0
M  V30 8842 O 1419.84 7.66872 0.971405 0
M  V30 8843 C 1418.9 7.42309 2.04641 0
M  V30 8844 C 1419.63 6.86059 3.24661 0
M  V30 8845 O 1419.84 5.42847 3.03646 0
M  V30 8846 C 1421.03 7.41196 3.50753 0
M  V30 8847 O 1421.42 7.27073 4.86816 0
M  V30 8848 C 1421.91 6.5273 2.63741 0
M  V30 8849 C 1421.2 5.1842 2.73198 0
M  V30 8850 N 1421.25 4.38762 1.4784 0
M  V30 8851 C 1421.17 4.81605 0.168631 0
M  V30 8852 N 1421.25 3.85454 -0.713363 0
M  V30 8853 C 1421.39 2.6994 0.0566958 0
M  V30 8854 C 1421.52 1.34815 -0.338502 0
M  V30 8855 O 1421.54 0.869548 -1.47125 0
M  V30 8856 N 1421.64 0.496304 0.77465 0
M  V30 8857 C 1421.64 0.908403 2.09122 0
M  V30 8858 N 1421.77 -0.0517805 3.00955 0
M  V30 8859 N 1421.51 2.17875 2.46519 0
M  V30 8860 C 1421.39 3.01988 1.4033 0
M  V30 8861 H 1418.41 8.36803 2.32493 0
M  V30 8862 H 1418.14 6.70197 1.71129 0
M  V30 8863 H 1419.01 7.03551 4.13168 0
M  V30 8864 H 1421.66 4.59498 3.54415 0
M  V30 8865 H 1421.94 6.88898 1.59848 0
M  V30 8866 H 1422.94 6.46749 3.03687 0
M  V30 8867 H 1421.1 8.46908 3.20714 0
M  V30 8868 H 1421.05 5.86405 -0.105564 0
M  V30 8869 H 1421.73 -0.483664 0.597855 0
M  V30 8870 H 1421.77 0.187865 4.0116 0
M  V30 8871 H 1421.87 -1.03585 2.71726 0
M  V30 8872 P 1422.97 7.20834 5.23717 0
M  V30 8873 O 1423.19 7.79853 6.57286 0
M  V30 8874 O 1423.76 7.79239 4.12957 0
M  V30 8875 O 1423.22 5.63315 5.29344 0
M  V30 8876 C 1422.28 4.80255 6.01876 0
M  V30 8877 C 1423.01 3.64202 6.65911 0
M  V30 8878 O 1423.22 2.60694 5.64732 0
M  V30 8879 C 1424.41 3.93473 7.1943 0
M  V30 8880 O 1424.8 3.02071 8.21205 0
M  V30 8881 C 1425.29 3.73047 5.97036 0
M  V30 8882 C 1424.58 2.58828 5.25741 0
M  V30 8883 N 1424.63 2.68068 3.77503 0
M  V30 8884 C 1424.55 3.79715 2.96723 0
M  V30 8885 N 1424.63 3.5377 1.68852 0
M  V30 8886 C 1424.77 2.15054 1.63254 0
M  V30 8887 C 1424.9 1.28964 0.518571 0
M  V30 8888 O 1424.92 1.56826 -0.679156 0
M  V30 8889 N 1425.02 -0.0538097 0.918425 0
M  V30 8890 C 1425.02 -0.494275 2.22578 0
M  V30 8891 N 1425.15 -1.81086 2.40434 0
M  V30 8892 N 1424.89 0.313645 3.27502 0
M  V30 8893 C 1424.77 1.61829 2.91033 0
M  V30 8894 H 1421.79 5.40332 6.79951 0
M  V30 8895 H 1421.52 4.41613 5.32378 0
M  V30 8896 H 1422.39 3.26331 7.47797 0
M  V30 8897 H 1425.04 1.63422 5.56814 0
M  V30 8898 H 1425.32 4.63374 5.34244 0
M  V30 8899 H 1426.32 3.44728 6.25838 0
M  V30 8900 H 1424.48 4.96652 7.57263 0
M  V30 8901 H 1424.43 4.80617 3.3614 0
M  V30 8902 H 1425.11 -0.742702 0.199384 0
M  V30 8903 H 1425.15 -2.20598 3.35588 0
M  V30 8904 H 1425.25 -2.43518 1.58945 0
M  V30 8905 P 1426.35 2.75334 8.47391 0
M  V30 8906 O 1426.57 2.44571 9.90142 0
M  V30 8907 O 1427.14 3.87688 7.92115 0
M  V30 8908 O 1426.6 1.4459 7.59357 0
M  V30 8909 C 1425.66 0.347608 7.69215 0
M  V30 8910 C 1426.39 -0.96767 7.52806 0
M  V30 8911 O 1426.6 -1.21036 6.1011 0
M  V30 8912 C 1427.79 -1.04544 8.13308 0
M  V30 8913 O 1428.18 -2.38311 8.41922 0
M  V30 8914 C 1428.67 -0.491279 7.02284 0
M  V30 8915 C 1427.96 -0.996264 5.77469 0
M  V30 8916 N 1428.01 -0.0501916 4.62973 0
M  V30 8917 C 1427.93 1.32786 4.63244 0
M  V30 8918 N 1428.01 1.86957 3.44545 0
M  V30 8919 C 1428.15 0.780241 2.58481 0
M  V30 8920 C 1428.28 0.738536 1.17757 0
M  V30 8921 O 1428.3 1.66794 0.372349 0
M  V30 8922 N 1428.4 -0.58337 0.711393 0
M  V30 8923 C 1428.4 -1.70816 1.51017 0
M  V30 8924 N 1428.53 -2.87826 0.880757 0
M  V30 8925 N 1428.27 -1.67126 2.8339 0
M  V30 8926 C 1428.15 -0.401421 3.30572 0
M  V30 8927 H 1425.17 0.374722 8.67691 0
M  V30 8928 H 1424.9 0.443485 6.90277 0
M  V30 8929 H 1425.77 -1.75537 7.96793 0
M  V30 8930 H 1428.42 -1.95076 5.46529 0
M  V30 8931 H 1428.7 0.608565 7.04577 0
M  V30 8932 H 1429.7 -0.889672 7.08939 0
M  V30 8933 H 1427.86 -0.43308 9.04564 0
M  V30 8934 H 1427.81 1.91249 5.54442 0
M  V30 8935 H 1428.49 -0.718054 -0.275244 0
M  V30 8936 H 1428.53 -3.75721 1.41832 0
M  V30 8937 H 1428.63 -2.90436 -0.145468 0
M  V30 8938 P 1429.73 -2.75334 8.47391 0
M  V30 8939 O 1429.95 -3.84166 9.4489 0
M  V30 8940 O 1430.52 -1.51964 8.6881 0
M  V30 8941 O 1429.98 -3.29363 6.99321 0
M  V30 8942 C 1429.04 -4.23956 6.42656 0
M  V30 8943 C 1429.77 -5.20775 5.52155 0
M  V30 8944 O 1429.98 -4.56534 4.22446 0
M  V30 8945 C 1431.17 -5.62629 5.96531 0
M  V30 8946 O 1431.56 -6.87667 5.41053 0
M  V30 8947 C 1432.05 -4.52537 5.39283 0
M  V30 8948 C 1431.34 -4.20027 4.08623 0
M  V30 8949 N 1431.39 -2.7613 3.71522 0
M  V30 8950 C 1431.54 -2.45612 2.37989 0
M  V30 8951 O 1431.63 -3.30919 1.51621 0
M  V30 8952 N 1431.58 -1.10684 2.08435 0
M  V30 8953 C 1431.49 -0.0690084 2.9792 0
M  V30 8954 C 1431.34 -0.481522 4.35345 0
M  V30 8955 C 1431.29 -1.78906 4.67968 0
M  V30 8956 H 1428.55 -4.797 7.24003 0
M  V30 8957 H 1428.28 -3.69802 5.84429 0
M  V30 8958 H 1429.15 -6.10356 5.41441 0
M  V30 8959 H 1431.8 -4.78651 3.27911 0
M  V30 8960 H 1432.08 -3.64957 6.05871 0
M  V30 8961 H 1433.08 -4.8868 5.2125 0
M  V30 8962 H 1431.24 -5.66726 7.06352 0
M  V30 8963 H 1431.17 -2.07737 5.72367 0
M  V30 8964 P 1433.11 -7.20834 5.23717 0
M  V30 8965 O 1433.33 -8.66104 5.38572 0
M  V30 8966 O 1433.9 -6.33544 6.1349 0
M  V30 8967 O 1433.36 -6.7751 3.72168 0
M  V30 8968 C 1432.42 -7.20825 2.7076 0
M  V30 8969 C 1433.15 -7.45864 1.40599 0
M  V30 8970 O 1433.36 -6.17651 0.734225 0
M  V30 8971 C 1434.55 -8.05808 1.51899 0
M  V30 8972 O 1434.94 -8.74358 0.335205 0
M  V30 8973 C 1435.43 -6.83093 1.70294 0
M  V30 8974 C 1434.72 -5.79992 0.836974 0
M  V30 8975 N 1434.77 -4.41864 1.38293 0
M  V30 8976 C 1434.69 -3.99538 2.69438 0
M  V30 8977 N 1434.77 -2.69909 2.84277 0
M  V30 8978 C 1434.91 -2.21719 1.5408 0
M  V30 8979 C 1435.04 -0.891712 1.06628 0
M  V30 8980 O 1435.06 0.161298 1.70137 0
M  V30 8981 N 1435.16 -0.856846 -0.334985 0
M  V30 8982 C 1435.16 -1.9641 -1.15789 0
M  V30 8983 N 1435.29 -1.72708 -2.46522 0
M  V30 8984 N 1435.03 -3.21165 -0.713741 0
M  V30 8985 C 1434.91 -3.26797 0.639748 0
M  V30 8986 H 1431.93 -8.13644 3.0377 0
M  V30 8987 H 1431.66 -6.42788 2.55485 0
M  V30 8988 H 1432.53 -8.12039 0.792769 0
M  V30 8989 H 1435.18 -5.80061 -0.166416 0
M  V30 8990 H 1435.46 -6.51287 2.75604 0
M  V30 8991 H 1436.46 -7.01734 1.34462 0
M  V30 8992 H 1434.62 -8.73674 2.38337 0
M  V30 8993 H 1434.57 -4.68207 3.53221 0
M  V30 8994 H 1435.25 0.0398818 -0.767965 0
M  V30 8995 H 1435.29 -2.50995 -3.13503 0
M  V30 8996 H 1435.39 -0.759148 -2.80716 0
M  V30 8997 P 1436.49 -8.91 -7.02955e-12 0
M  V30 8998 O 1436.71 -10.1726 -0.733694 0
M  V30 8999 O 1437.28 -8.73148 1.23936 0
M  V30 9000 O 1436.74 -7.66872 -0.971405 0
M  V30 9001 C 1435.8 -7.42309 -2.04641 0
M  V30 9002 C 1436.53 -6.86059 -3.24661 0
M  V30 9003 O 1436.74 -5.42847 -3.03646 0
M  V30 9004 C 1437.93 -7.41196 -3.50753 0
M  V30 9005 O 1438.32 -7.27073 -4.86816 0
M  V30 9006 C 1438.81 -6.5273 -2.63741 0
M  V30 9007 C 1438.1 -5.1842 -2.73198 0
M  V30 9008 N 1438.15 -4.38762 -1.4784 0
M  V30 9009 C 1438.07 -4.81605 -0.168631 0
M  V30 9010 N 1438.15 -3.85454 0.713363 0
M  V30 9011 C 1438.29 -2.6994 -0.0566958 0
M  V30 9012 C 1438.42 -1.34815 0.338502 0
M  V30 9013 O 1438.44 -0.869548 1.47125 0
M  V30 9014 N 1438.54 -0.496304 -0.77465 0
M  V30 9015 C 1438.54 -0.908403 -2.09122 0
M  V30 9016 N 1438.67 0.0517805 -3.00955 0
M  V30 9017 N 1438.41 -2.17875 -2.46519 0
M  V30 9018 C 1438.29 -3.01988 -1.4033 0
M  V30 9019 H 1435.31 -8.36803 -2.32493 0
M  V30 9020 H 1435.04 -6.70197 -1.71129 0
M  V30 9021 H 1435.91 -7.03551 -4.13168 0
M  V30 9022 H 1438.56 -4.59498 -3.54415 0
M  V30 9023 H 1438.84 -6.88898 -1.59848 0
M  V30 9024 H 1439.84 -6.46749 -3.03687 0
M  V30 9025 H 1438 -8.46908 -3.20714 0
M  V30 9026 H 1437.95 -5.86405 0.105564 0
M  V30 9027 H 1438.63 0.483664 -0.597855 0
M  V30 9028 H 1438.67 -0.187865 -4.0116 0
M  V30 9029 H 1438.77 1.03585 -2.71726 0
M  V30 9030 P 1439.87 -7.20834 -5.23717 0
M  V30 9031 O 1440.09 -7.79853 -6.57286 0
M  V30 9032 O 1440.66 -7.79239 -4.12957 0
M  V30 9033 O 1440.12 -5.63315 -5.29344 0
M  V30 9034 C 1439.18 -4.80255 -6.01876 0
M  V30 9035 C 1439.91 -3.64202 -6.65911 0
M  V30 9036 O 1440.12 -2.60694 -5.64732 0
M  V30 9037 C 1441.31 -3.93473 -7.1943 0
M  V30 9038 O 1441.7 -3.02071 -8.21205 0
M  V30 9039 C 1442.19 -3.73047 -5.97036 0
M  V30 9040 C 1441.48 -2.58828 -5.25741 0
M  V30 9041 N 1441.53 -2.68068 -3.77503 0
M  V30 9042 H 1438.69 -5.40332 -6.79951 0
M  V30 9043 H 1438.42 -4.41613 -5.32378 0
M  V30 9044 H 1439.29 -3.26331 -7.47797 0
M  V30 9045 P 1443.25 -2.75334 -8.47391 0
M  V30 9046 O 1443.47 -2.44571 -9.90142 0
M  V30 9047 O 1444.04 -3.87688 -7.92115 0
M  V30 9048 O 1443.5 -1.4459 -7.59357 0
M  V30 9049 C 1442.56 -0.347608 -7.69215 0
M  V30 9050 C 1443.29 0.96767 -7.52806 0
M  V30 9051 O 1443.5 1.21036 -6.1011 0
M  V30 9052 C 1444.69 1.04544 -8.13308 0
M  V30 9053 O 1445.08 2.38311 -8.41922 0
M  V30 9054 C 1445.57 0.491279 -7.02284 0
M  V30 9055 C 1444.86 0.996264 -5.77469 0
M  V30 9056 N 1444.91 0.0501916 -4.62973 0
M  V30 9057 H 1442.07 -0.374722 -8.67691 0
M  V30 9058 H 1441.8 -0.443485 -6.90277 0
M  V30 9059 H 1442.67 1.75537 -7.96793 0
M  V30 9060 P 1446.63 2.75334 -8.47391 0
M  V30 9061 O 1446.85 3.84128 -9.44797 0
M  V30 9062 O 1447.42 1.51947 -8.68712 0
M  V30 9063 O 1446.88 3.29363 -6.99321 0
M  V30 9064 C 1445.94 4.24011 -6.4274 0
M  V30 9065 C 1446.67 5.20775 -5.52155 0
M  V30 9066 O 1446.88 4.56534 -4.22446 0
M  V30 9067 C 1448.07 5.62629 -5.96531 0
M  V30 9068 O 1448.46 6.87667 -5.41053 0
M  V30 9069 C 1448.95 4.52537 -5.39283 0
M  V30 9070 C 1448.24 4.20027 -4.08623 0
M  V30 9071 N 1448.29 2.76189 -3.71603 0
M  V30 9072 H 1445.45 4.797 -7.24003 0
M  V30 9073 H 1445.18 3.69856 -5.84513 0
M  V30 9074 H 1446.05 6.10356 -5.41441 0
M  V30 9075 P 1450.01 7.20834 -5.23717 0
M  V30 9076 O 1450.23 8.66274 -5.38678 0
M  V30 9077 O 1450.8 6.33687 -6.13629 0
M  V30 9078 O 1450.26 6.7751 -3.72168 0
M  V30 9079 C 1449.32 7.20919 -2.70795 0
M  V30 9080 C 1450.05 7.45864 -1.40599 0
M  V30 9081 O 1450.26 6.17751 -0.734343 0
M  V30 9082 C 1451.45 8.05906 -1.51917 0
M  V30 9083 O 1451.84 8.74358 -0.335205 0
M  V30 9084 C 1452.33 6.83093 -1.70294 0
M  V30 9085 C 1451.62 5.79992 -0.836974 0
M  V30 9086 N 1451.67 4.41864 -1.38293 0
M  V30 9087 H 1448.83 8.13738 -3.03804 0
M  V30 9088 H 1448.56 6.42974 -2.55559 0
M  V30 9089 H 1449.43 8.12139 -0.792866 0
M  V30 9090 H 1452.08 5.80178 0.160643 0
M  V30 9091 H 1452.36 6.51379 -2.75643 0
M  V30 9092 H 1453.36 7.01832 -1.3448 0
M  V30 9093 H 1451.52 8.73771 -2.38364 0
M  V30 9094 P 1453.39 8.91 5.92055e-12 0
M  V30 9095 O 1453.61 10.1726 0.733694 0
M  V30 9096 O 1454.18 8.73148 -1.23936 0
M  V30 9097 O 1453.64 7.66872 0.971405 0
M  V30 9098 C 1452.7 7.42309 2.04641 0
M  V30 9099 C 1453.43 6.86059 3.24661 0
M  V30 9100 O 1453.64 5.42847 3.03646 0
M  V30 9101 C 1454.83 7.41196 3.50753 0
M  V30 9102 O 1455.22 7.27073 4.86816 0
M  V30 9103 C 1455.71 6.5273 2.63741 0
M  V30 9104 C 1455 5.1842 2.73198 0
M  V30 9105 N 1455.05 4.38762 1.4784 0
M  V30 9106 H 1452.21 8.36803 2.32493 0
M  V30 9107 H 1451.94 6.70197 1.71129 0
M  V30 9108 H 1452.81 7.03551 4.13168 0
M  V30 9109 P 1456.77 7.20834 5.23717 0
M  V30 9110 O 1456.99 7.79853 6.57286 0
M  V30 9111 O 1457.56 7.79239 4.12957 0
M  V30 9112 O 1457.02 5.63315 5.29344 0
M  V30 9113 C 1456.08 4.80255 6.01876 0
M  V30 9114 C 1456.81 3.64202 6.65911 0
M  V30 9115 O 1457.02 2.60694 5.64732 0
M  V30 9116 C 1458.21 3.93473 7.1943 0
M  V30 9117 O 1458.6 3.02071 8.21205 0
M  V30 9118 C 1459.09 3.73047 5.97036 0
M  V30 9119 C 1458.38 2.58828 5.25741 0
M  V30 9120 N 1458.43 2.68068 3.77503 0
M  V30 9121 C 1458.35 3.79715 2.96723 0
M  V30 9122 N 1458.43 3.5377 1.68852 0
M  V30 9123 C 1458.57 2.15054 1.63254 0
M  V30 9124 C 1458.7 1.28964 0.518571 0
M  V30 9125 O 1458.72 1.56826 -0.679156 0
M  V30 9126 N 1458.82 -0.0538097 0.918425 0
M  V30 9127 C 1458.82 -0.494275 2.22578 0
M  V30 9128 N 1458.95 -1.81086 2.40434 0
M  V30 9129 N 1458.69 0.313645 3.27502 0
M  V30 9130 C 1458.57 1.61829 2.91033 0
M  V30 9131 H 1455.59 5.40332 6.79951 0
M  V30 9132 H 1455.32 4.41613 5.32378 0
M  V30 9133 H 1456.19 3.26331 7.47797 0
M  V30 9134 H 1458.84 1.63422 5.56814 0
M  V30 9135 H 1459.12 4.63374 5.34244 0
M  V30 9136 H 1460.12 3.44728 6.25838 0
M  V30 9137 H 1458.28 4.96652 7.57263 0
M  V30 9138 H 1458.23 4.80617 3.3614 0
M  V30 9139 H 1458.91 -0.742702 0.199384 0
M  V30 9140 H 1458.95 -2.20598 3.35588 0
M  V30 9141 H 1459.05 -2.43518 1.58945 0
M  V30 9142 P 1460.15 2.75334 8.47391 0
M  V30 9143 O 1460.37 2.44595 9.90239 0
M  V30 9144 O 1460.94 3.87732 7.92204 0
M  V30 9145 O 1460.4 1.4459 7.59357 0
M  V30 9146 C 1459.46 0.347563 7.69115 0
M  V30 9147 C 1460.19 -0.96767 7.52806 0
M  V30 9148 O 1460.4 -1.21036 6.1011 0
M  V30 9149 C 1461.59 -1.04544 8.13308 0
M  V30 9150 O 1461.98 -2.38311 8.41922 0
M  V30 9151 C 1462.47 -0.491279 7.02284 0
M  V30 9152 C 1461.76 -0.996264 5.77469 0
M  V30 9153 N 1461.81 -0.0501808 4.62873 0
M  V30 9154 C 1461.96 -0.588177 3.36904 0
M  V30 9155 O 1462.05 -1.78598 3.17173 0
M  V30 9156 N 1462 0.329694 2.33686 0
M  V30 9157 C 1461.91 1.6953 2.45079 0
M  V30 9158 C 1461.76 2.16933 3.80505 0
M  V30 9159 C 1461.71 1.30326 4.83752 0
M  V30 9160 H 1458.97 0.374722 8.67691 0
M  V30 9161 H 1458.7 0.443421 6.90177 0
M  V30 9162 H 1459.57 -1.75537 7.96793 0
M  V30 9163 H 1462.22 -1.94496 5.46629 0
M  V30 9164 H 1462.5 0.608651 7.04676 0
M  V30 9165 H 1463.5 -0.889672 7.08939 0
M  V30 9166 H 1461.66 -0.43308 9.04564 0
M  V30 9167 H 1461.59 1.68366 5.8516 0
M  V30 9168 P 1463.53 -2.75334 8.47391 0
M  V30 9169 O 1463.75 -3.84128 9.44797 0
M  V30 9170 O 1464.32 -1.51947 8.68712 0
M  V30 9171 O 1463.78 -3.29363 6.99321 0
M  V30 9172 C 1462.84 -4.24011 6.4274 0
M  V30 9173 C 1463.57 -5.20775 5.52155 0
M  V30 9174 O 1463.78 -4.56534 4.22446 0
M  V30 9175 C 1464.97 -5.62629 5.96531 0
M  V30 9176 O 1465.36 -6.87667 5.41053 0
M  V30 9177 C 1465.85 -4.52537 5.39283 0
M  V30 9178 C 1465.14 -4.20027 4.08623 0
M  V30 9179 N 1465.19 -2.76189 3.71603 0
M  V30 9180 H 1462.35 -4.797 7.24003 0
M  V30 9181 H 1462.08 -3.69856 5.84513 0
M  V30 9182 H 1462.95 -6.10356 5.41441 0
M  V30 9183 P 1466.91 -7.20834 5.23717 0
M  V30 9184 O 1467.13 -8.66104 5.38572 0
M  V30 9185 O 1467.7 -6.33544 6.1349 0
M  V30 9186 O 1467.16 -6.7751 3.72168 0
M  V30 9187 C 1466.22 -7.20825 2.7076 0
M  V30 9188 C 1466.95 -7.45864 1.40599 0
M  V30 9189 O 1467.16 -6.17651 0.734225 0
M  V30 9190 C 1468.35 -8.05808 1.51899 0
M  V30 9191 O 1468.74 -8.74358 0.335205 0
M  V30 9192 C 1469.23 -6.83093 1.70294 0
M  V30 9193 C 1468.52 -5.79992 0.836974 0
M  V30 9194 N 1468.57 -4.41864 1.38293 0
M  V30 9195 H 1465.73 -8.13644 3.0377 0
M  V30 9196 H 1465.46 -6.42788 2.55485 0
M  V30 9197 H 1466.33 -8.12039 0.792769 0
M  V30 9198 P 1470.29 -8.91 -4.81154e-12 0
M  V30 9199 O 1470.51 -10.1726 -0.733694 0
M  V30 9200 O 1471.08 -8.73148 1.23936 0
M  V30 9201 O 1470.54 -7.66872 -0.971405 0
M  V30 9202 C 1469.6 -7.42309 -2.04641 0
M  V30 9203 C 1470.33 -6.86059 -3.24661 0
M  V30 9204 O 1470.54 -5.42847 -3.03646 0
M  V30 9205 C 1471.73 -7.41196 -3.50753 0
M  V30 9206 O 1472.12 -7.27073 -4.86816 0
M  V30 9207 C 1472.61 -6.5273 -2.63741 0
M  V30 9208 C 1471.9 -5.1842 -2.73198 0
M  V30 9209 N 1471.95 -4.38762 -1.4784 0
M  V30 9210 H 1469.11 -8.36803 -2.32493 0
M  V30 9211 H 1468.84 -6.70197 -1.71129 0
M  V30 9212 H 1469.71 -7.03551 -4.13168 0
M  V30 9213 P 1473.67 -7.20834 -5.23717 0
M  V30 9214 O 1473.89 -7.79853 -6.57286 0
M  V30 9215 O 1474.46 -7.79239 -4.12957 0
M  V30 9216 O 1473.92 -5.63315 -5.29344 0
M  V30 9217 C 1472.98 -4.80255 -6.01876 0
M  V30 9218 C 1473.71 -3.64202 -6.65911 0
M  V30 9219 O 1473.92 -2.60694 -5.64732 0
M  V30 9220 C 1475.11 -3.93473 -7.1943 0
M  V30 9221 O 1475.5 -3.02071 -8.21205 0
M  V30 9222 C 1475.99 -3.73047 -5.97036 0
M  V30 9223 C 1475.28 -2.58828 -5.25741 0
M  V30 9224 N 1475.33 -2.68068 -3.77503 0
M  V30 9225 H 1472.49 -5.40332 -6.79951 0
M  V30 9226 H 1472.22 -4.41613 -5.32378 0
M  V30 9227 H 1473.09 -3.26331 -7.47797 0
M  V30 9228 P 1477.05 -2.75334 -8.47391 0
M  V30 9229 O 1477.27 -2.44571 -9.90142 0
M  V30 9230 O 1477.84 -3.87688 -7.92115 0
M  V30 9231 O 1477.3 -1.4459 -7.59357 0
M  V30 9232 C 1476.36 -0.347608 -7.69215 0
M  V30 9233 C 1477.09 0.96767 -7.52806 0
M  V30 9234 O 1477.3 1.21036 -6.1011 0
M  V30 9235 C 1478.49 1.04544 -8.13308 0
M  V30 9236 O 1478.88 2.38311 -8.41922 0
M  V30 9237 C 1479.37 0.491279 -7.02284 0
M  V30 9238 C 1478.66 0.996264 -5.77469 0
M  V30 9239 N 1478.71 0.0501916 -4.62973 0
M  V30 9240 H 1475.87 -0.374722 -8.67691 0
M  V30 9241 H 1475.6 -0.443485 -6.90277 0
M  V30 9242 H 1476.47 1.75537 -7.96793 0
M  V30 9243 P 1480.43 2.75334 -8.47391 0
M  V30 9244 O 1480.65 3.84128 -9.44797 0
M  V30 9245 O 1481.22 1.51947 -8.68712 0
M  V30 9246 O 1480.68 3.29363 -6.99321 0
M  V30 9247 C 1479.74 4.24011 -6.4274 0
M  V30 9248 C 1480.47 5.20775 -5.52155 0
M  V30 9249 O 1480.68 4.56534 -4.22446 0
M  V30 9250 C 1481.87 5.62629 -5.96531 0
M  V30 9251 O 1482.26 6.87667 -5.41053 0
M  V30 9252 C 1482.75 4.52537 -5.39283 0
M  V30 9253 C 1482.04 4.20027 -4.08623 0
M  V30 9254 N 1482.09 2.76189 -3.71603 0
M  V30 9255 H 1479.25 4.797 -7.24003 0
M  V30 9256 H 1478.98 3.69856 -5.84513 0
M  V30 9257 H 1479.85 6.10356 -5.41441 0
M  V30 9258 P 1483.81 7.20834 -5.23717 0
M  V30 9259 O 1484.03 8.66104 -5.38572 0
M  V30 9260 O 1484.6 6.33544 -6.1349 0
M  V30 9261 O 1484.06 6.7751 -3.72168 0
M  V30 9262 C 1483.12 7.20825 -2.7076 0
M  V30 9263 C 1483.85 7.45864 -1.40599 0
M  V30 9264 O 1484.06 6.17651 -0.734225 0
M  V30 9265 C 1485.25 8.05808 -1.51899 0
M  V30 9266 O 1485.64 8.74358 -0.335205 0
M  V30 9267 C 1486.13 6.83093 -1.70294 0
M  V30 9268 C 1485.42 5.79992 -0.836974 0
M  V30 9269 N 1485.47 4.41864 -1.38293 0
M  V30 9270 H 1482.63 8.13644 -3.0377 0
M  V30 9271 H 1482.36 6.42788 -2.55485 0
M  V30 9272 H 1483.23 8.12039 -0.792769 0
M  V30 9273 P 1487.19 8.91 3.70254e-12 0
M  V30 9274 O 1487.41 10.1726 0.733694 0
M  V30 9275 O 1487.98 8.73148 -1.23936 0
M  V30 9276 O 1487.44 7.66872 0.971405 0
M  V30 9277 C 1486.5 7.42309 2.04641 0
M  V30 9278 C 1487.23 6.86059 3.24661 0
M  V30 9279 O 1487.44 5.42847 3.03646 0
M  V30 9280 C 1488.63 7.41196 3.50753 0
M  V30 9281 O 1489.02 7.27073 4.86816 0
M  V30 9282 C 1489.51 6.5273 2.63741 0
M  V30 9283 C 1488.8 5.1842 2.73198 0
M  V30 9284 N 1488.85 4.38762 1.4784 0
M  V30 9285 H 1486.01 8.36803 2.32493 0
M  V30 9286 H 1485.74 6.70197 1.71129 0
M  V30 9287 H 1486.61 7.03551 4.13168 0
M  V30 9288 P 1490.57 7.20834 5.23717 0
M  V30 9289 O 1490.79 7.79853 6.57286 0
M  V30 9290 O 1491.36 7.79239 4.12957 0
M  V30 9291 O 1490.82 5.63315 5.29344 0
M  V30 9292 C 1489.88 4.80255 6.01876 0
M  V30 9293 C 1490.61 3.64202 6.65911 0
M  V30 9294 O 1490.82 2.60694 5.64732 0
M  V30 9295 C 1492.01 3.93473 7.1943 0
M  V30 9296 O 1492.4 3.02071 8.21205 0
M  V30 9297 C 1492.89 3.73047 5.97036 0
M  V30 9298 C 1492.18 2.58828 5.25741 0
M  V30 9299 N 1492.23 2.68068 3.77503 0
M  V30 9300 H 1489.39 5.40332 6.79951 0
M  V30 9301 H 1489.12 4.41613 5.32378 0
M  V30 9302 H 1489.99 3.26331 7.47797 0
M  V30 9303 P 1493.95 2.75334 8.47391 0
M  V30 9304 O 1494.17 2.44571 9.90142 0
M  V30 9305 O 1494.74 3.87688 7.92115 0
M  V30 9306 O 1494.2 1.4459 7.59357 0
M  V30 9307 C 1493.26 0.347608 7.69215 0
M  V30 9308 C 1493.99 -0.96767 7.52806 0
M  V30 9309 O 1494.2 -1.21036 6.1011 0
M  V30 9310 C 1495.39 -1.04544 8.13308 0
M  V30 9311 O 1495.78 -2.38311 8.41922 0
M  V30 9312 C 1496.27 -0.491279 7.02284 0
M  V30 9313 C 1495.56 -0.996264 5.77469 0
M  V30 9314 N 1495.61 -0.0501916 4.62973 0
M  V30 9315 H 1492.77 0.374722 8.67691 0
M  V30 9316 H 1492.5 0.443485 6.90277 0
M  V30 9317 H 1493.37 -1.75537 7.96793 0
M  V30 9318 P 1497.33 -2.75334 8.47391 0
M  V30 9319 O 1497.55 -3.84128 9.44797 0
M  V30 9320 O 1498.12 -1.51947 8.68712 0
M  V30 9321 O 1497.58 -3.29363 6.99321 0
M  V30 9322 C 1496.64 -4.24011 6.4274 0
M  V30 9323 C 1497.37 -5.20775 5.52155 0
M  V30 9324 O 1497.58 -4.56534 4.22446 0
M  V30 9325 C 1498.77 -5.62629 5.96531 0
M  V30 9326 O 1499.16 -6.87667 5.41053 0
M  V30 9327 C 1499.65 -4.52537 5.39283 0
M  V30 9328 C 1498.94 -4.20027 4.08623 0
M  V30 9329 N 1498.99 -2.76189 3.71603 0
M  V30 9330 H 1496.15 -4.797 7.24003 0
M  V30 9331 H 1495.88 -3.69856 5.84513 0
M  V30 9332 H 1496.75 -6.10356 5.41441 0
M  V30 9333 P 1500.71 -7.20834 5.23717 0
M  V30 9334 O 1500.93 -8.66104 5.38572 0
M  V30 9335 O 1501.5 -6.33544 6.1349 0
M  V30 9336 O 1500.96 -6.7751 3.72168 0
M  V30 9337 C 1500.02 -7.20825 2.7076 0
M  V30 9338 C 1500.75 -7.45864 1.40599 0
M  V30 9339 O 1500.96 -6.17651 0.734225 0
M  V30 9340 C 1502.15 -8.05808 1.51899 0
M  V30 9341 O 1502.54 -8.74358 0.335205 0
M  V30 9342 C 1503.03 -6.83093 1.70294 0
M  V30 9343 C 1502.32 -5.79992 0.836974 0
M  V30 9344 N 1502.37 -4.41864 1.38293 0
M  V30 9345 H 1499.53 -8.13644 3.0377 0
M  V30 9346 H 1499.26 -6.42788 2.55485 0
M  V30 9347 H 1500.13 -8.12039 0.792769 0
M  V30 9348 P 1504.09 -8.91 -2.59353e-12 0
M  V30 9349 O 1504.31 -10.1726 -0.733694 0
M  V30 9350 O 1504.88 -8.73148 1.23936 0
M  V30 9351 O 1504.34 -7.66872 -0.971405 0
M  V30 9352 C 1503.4 -7.42309 -2.04641 0
M  V30 9353 C 1504.13 -6.86059 -3.24661 0
M  V30 9354 O 1504.34 -5.42847 -3.03646 0
M  V30 9355 C 1505.53 -7.41196 -3.50753 0
M  V30 9356 O 1505.92 -7.27073 -4.86816 0
M  V30 9357 C 1506.41 -6.5273 -2.63741 0
M  V30 9358 C 1505.7 -5.1842 -2.73198 0
M  V30 9359 N 1505.75 -4.38762 -1.4784 0
M  V30 9360 H 1502.91 -8.36803 -2.32493 0
M  V30 9361 H 1502.64 -6.70197 -1.71129 0
M  V30 9362 H 1503.51 -7.03551 -4.13168 0
M  V30 9363 P 1507.47 -7.20834 -5.23717 0
M  V30 9364 O 1507.69 -7.79853 -6.57286 0
M  V30 9365 O 1508.26 -7.79239 -4.12957 0
M  V30 9366 O 1507.72 -5.63315 -5.29344 0
M  V30 9367 C 1506.78 -4.80255 -6.01876 0
M  V30 9368 C 1507.51 -3.64202 -6.65911 0
M  V30 9369 O 1507.72 -2.60694 -5.64732 0
M  V30 9370 C 1508.91 -3.93473 -7.1943 0
M  V30 9371 O 1509.3 -3.02071 -8.21205 0
M  V30 9372 C 1509.79 -3.73047 -5.97036 0
M  V30 9373 C 1509.08 -2.58828 -5.25741 0
M  V30 9374 N 1509.13 -2.68068 -3.77503 0
M  V30 9375 H 1506.29 -5.40332 -6.79951 0
M  V30 9376 H 1506.02 -4.41613 -5.32378 0
M  V30 9377 H 1506.89 -3.26331 -7.47797 0
M  V30 9378 P 1510.85 -2.75334 -8.47391 0
M  V30 9379 O 1511.07 -2.44571 -9.90142 0
M  V30 9380 O 1511.64 -3.87688 -7.92115 0
M  V30 9381 O 1511.1 -1.4459 -7.59357 0
M  V30 9382 C 1510.16 -0.347608 -7.69215 0
M  V30 9383 C 1510.89 0.96767 -7.52806 0
M  V30 9384 O 1511.1 1.21036 -6.1011 0
M  V30 9385 C 1512.29 1.04544 -8.13308 0
M  V30 9386 O 1512.68 2.38311 -8.41922 0
M  V30 9387 C 1513.17 0.491279 -7.02284 0
M  V30 9388 C 1512.46 0.996264 -5.77469 0
M  V30 9389 N 1512.51 0.0501916 -4.62973 0
M  V30 9390 H 1509.67 -0.374722 -8.67691 0
M  V30 9391 H 1509.4 -0.443485 -6.90277 0
M  V30 9392 H 1510.27 1.75537 -7.96793 0
M  V30 9393 P 1514.23 2.75334 -8.47391 0
M  V30 9394 O 1514.45 3.84204 -9.44982 0
M  V30 9395 O 1515.02 1.51982 -8.68909 0
M  V30 9396 O 1514.48 3.29363 -6.99321 0
M  V30 9397 C 1513.54 4.24066 -6.42823 0
M  V30 9398 C 1514.27 5.20775 -5.52155 0
M  V30 9399 O 1514.48 4.56607 -4.22514 0
M  V30 9400 C 1515.67 5.62697 -5.96604 0
M  V30 9401 O 1516.06 6.87667 -5.41053 0
M  V30 9402 C 1516.55 4.52537 -5.39283 0
M  V30 9403 C 1515.84 4.20027 -4.08623 0
M  V30 9404 N 1515.89 2.76189 -3.71603 0
M  V30 9405 C 1515.81 1.66944 -4.54297 0
M  V30 9406 N 1515.88 0.536169 -3.91344 0
M  V30 9407 C 1516.03 0.901569 -2.58849 0
M  V30 9408 C 1516.16 0.146599 -1.40236 0
M  V30 9409 N 1516.17 -1.18234 -1.37046 0
M  V30 9410 N 1516.28 0.822941 -0.249738 0
M  V30 9411 C 1516.27 2.15179 -0.280525 0
M  V30 9412 N 1516.15 2.96414 -1.30822 0
M  V30 9413 C 1516.03 2.25804 -2.44748 0
M  V30 9414 H 1513.05 4.79756 -7.24086 0
M  V30 9415 H 1512.78 3.69963 -5.84682 0
M  V30 9416 H 1513.65 6.10431 -5.41508 0
M  V30 9417 H 1516.3 4.78816 -3.28024 0
M  V30 9418 H 1516.58 3.64957 -6.05871 0
M  V30 9419 H 1517.58 4.88748 -5.21323 0
M  V30 9420 H 1515.74 5.66789 -7.0643 0
M  V30 9421 H 1515.7 1.74684 -5.62396 0
M  V30 9422 H 1516.08 -1.71949 -2.24394 0
M  V30 9423 H 1516.27 -1.67511 -0.470742 0
M  V30 9424 H 1516.38 2.63704 0.6828 0
M  V30 9425 H 1515.93 6.85814 -4.46035 0
M  V30 9426 H 1519.95 -5.51656 7.74769 0
M  V30 9427 O 1519.83 -4.58361 7.63359 0
M  V30 9428 P 1518.39 -4.23843 7.83734 0
M  V30 9429 O 1518.17 -4.19407 9.29784 0
M  V30 9430 O 1517.6 -5.24426 7.09156 0
M  V30 9431 O 1518.14 -2.7935 7.20758 0
M  V30 9432 C 1519.08 -1.72945 7.50224 0
M  V30 9433 C 1518.35 -0.406376 7.57911 0
M  V30 9434 O 1518.14 0.0897726 6.21935 0
M  V30 9435 C 1516.95 -0.438983 8.18724 0
M  V30 9436 O 1516.56 0.825065 8.71101 0
M  V30 9437 C 1516.07 -0.783689 6.99524 0
M  V30 9438 C 1516.78 -0.0619086 5.85867 0
M  V30 9439 N 1516.73 -0.78573 4.56183 0
M  V30 9440 C 1516.58 -0.0292889 3.41887 0
M  V30 9441 O 1516.49 1.18445 3.4419 0
M  V30 9442 N 1516.54 -0.744061 2.23964 0
M  V30 9443 C 1516.63 -2.10932 2.10362 0
M  V30 9444 O 1516.58 -2.64117 0.98825 0
M  V30 9445 C 1516.78 -2.8202 3.34994 0
M  V30 9446 C 1516.89 -4.31095 3.25037 0
M  V30 9447 C 1516.83 -2.15547 4.52261 0
M  V30 9448 H 1519.57 -1.93379 8.46595 0
M  V30 9449 H 1519.84 -1.68132 6.70852 0
M  V30 9450 H 1518.97 0.289041 8.15388 0
M  V30 9451 H 1516.32 0.926847 5.72749 0
M  V30 9452 H 1516.04 -1.86973 6.82036 0
M  V30 9453 H 1515.05 -0.403896 7.13257 0
M  V30 9454 H 1516.88 -1.20585 8.97435 0
M  V30 9455 H 1516.95 -2.71231 5.45042 0
M  V30 9456 H 1515.92 -4.76966 3.49992 0
M  V30 9457 H 1517.66 -4.67047 3.95024 0
M  V30 9458 H 1517.17 -4.58996 2.22312 0
M  V30 9459 H 1516.44 -0.214893 1.39758 0
M  V30 9460 P 1515.01 1.17771 8.83182 0
M  V30 9461 O 1514.79 2.07206 9.98732 0
M  V30 9462 O 1514.22 -0.0743816 8.81969 0
M  V30 9463 O 1514.76 1.97652 7.47304 0
M  V30 9464 C 1515.7 3.01133 7.08783 0
M  V30 9465 C 1514.97 4.12613 6.37049 0
M  V30 9466 O 1514.76 3.72827 4.97879 0
M  V30 9467 C 1513.57 4.45085 6.88694 0
M  V30 9468 O 1513.18 5.7877 6.5624 0
M  V30 9469 C 1512.69 3.47817 6.12078 0
M  V30 9470 C 1513.4 3.39414 4.77697 0
M  V30 9471 N 1513.35 2.04615 4.15333 0
M  V30 9472 H 1516.19 3.41248 7.98759 0
M  V30 9473 H 1516.46 2.5837 6.41742 0
M  V30 9474 H 1515.59 5.02657 6.42673 0
M  V30 9475 P 1511.63 6.144 6.45285 0
M  V30 9476 O 1511.41 7.54673 6.86199 0
M  V30 9477 O 1510.84 5.12391 7.179 0
M  V30 9478 O 1511.38 5.99158 4.88404 0
M  V30 9479 C 1512.32 6.60234 3.96415 0
M  V30 9480 C 1511.59 7.08259 2.72856 0
M  V30 9481 O 1511.38 5.9427 1.83651 0
M  V30 9482 C 1510.19 7.64886 2.9555 0
M  V30 9483 O 1509.8 8.53963 1.90717 0
M  V30 9484 C 1509.31 6.4116 2.90739 0
M  V30 9485 C 1510.02 5.55375 1.86963 0
M  V30 9486 N 1509.97 4.09664 2.15742 0
M  V30 9487 H 1512.81 7.45574 4.45629 0
M  V30 9488 H 1513.08 5.86232 3.67314 0
M  V30 9489 H 1512.21 7.84412 2.24479 0
M  V30 9490 P 1508.25 8.7635 1.60911 0
M  V30 9491 O 1508.03 10.1388 1.11561 0
M  V30 9492 O 1507.46 8.36503 2.79617 0
M  V30 9493 O 1508 7.71806 0.42951 0
M  V30 9494 C 1508.94 7.67148 -0.673689 0
M  V30 9495 C 1508.21 7.33374 -1.95559 0
M  V30 9496 O 1508 5.88721 -2.00726 0
M  V30 9497 C 1506.81 7.92526 -2.10483 0
M  V30 9498 O 1506.42 8.02971 -3.47653 0
M  V30 9499 C 1505.93 6.89602 -1.41652 0
M  V30 9500 C 1506.64 5.59201 -1.75185 0
M  V30 9501 N 1506.59 4.58301 -0.657969 0
M  V30 9502 H 1509.43 8.65116 -0.777161 0
M  V30 9503 H 1509.7 6.9022 -0.46725 0
M  V30 9504 H 1508.83 7.66548 -2.79458 0
M  V30 9505 H 1506.18 5.16165 -2.65183 0
M  V30 9506 H 1505.9 7.06433 -0.329384 0
M  V30 9507 H 1504.91 6.90926 -1.82021 0
M  V30 9508 H 1506.74 8.90873 -1.62657 0
M  V30 9509 P 1504.87 8.03563 -3.84925 0
M  V30 9510 O 1504.65 8.85821 -5.0569 0
M  V30 9511 O 1504.08 8.41101 -2.65469 0
M  V30 9512 O 1504.62 6.4965 -4.18908 0
M  V30 9513 C 1505.56 5.81037 -5.05421 0
M  V30 9514 C 1504.83 4.78366 -5.89277 0
M  V30 9515 O 1504.62 3.58302 -5.08433 0
M  V30 9516 C 1503.43 5.17448 -6.36119 0
M  V30 9517 O 1503.04 4.45271 -7.53232 0
M  V30 9518 C 1502.55 4.74639 -5.19936 0
M  V30 9519 C 1503.26 3.49432 -4.70418 0
M  V30 9520 N 1503.21 3.31776 -3.22945 0
M  V30 9521 H 1506.05 6.54213 -5.71376 0
M  V30 9522 H 1506.32 5.30492 -4.44033 0
M  V30 9523 H 1505.45 4.55889 -6.76652 0
M  V30 9524 P 1501.49 4.23843 -7.83734 0
M  V30 9525 O 1501.27 4.19407 -9.29784 0
M  V30 9526 O 1500.7 5.24426 -7.09156 0
M  V30 9527 O 1501.24 2.7935 -7.20758 0
M  V30 9528 C 1502.18 1.7299 -7.50419 0
M  V30 9529 C 1501.45 0.406376 -7.57911 0
M  V30 9530 O 1501.24 -0.0897726 -6.21935 0
M  V30 9531 C 1500.05 0.447224 -8.1878 0
M  V30 9532 O 1499.66 -0.825065 -8.71101 0
M  V30 9533 C 1499.17 0.783801 -6.99623 0
M  V30 9534 C 1499.88 0.0619192 -5.85967 0
M  V30 9535 N 1499.83 0.7859 -4.56281 0
M  V30 9536 H 1502.67 1.93423 -8.4679 0
M  V30 9537 H 1502.94 1.68181 -6.71046 0
M  V30 9538 H 1502.07 -0.289041 -8.15388 0
M  V30 9539 P 1498.11 -1.17771 -8.83182 0
M  V30 9540 O 1497.89 -2.07206 -9.98732 0
M  V30 9541 O 1497.32 0.0743816 -8.81969 0
M  V30 9542 O 1497.86 -1.97652 -7.47304 0
M  V30 9543 C 1498.8 -3.01133 -7.08783 0
M  V30 9544 C 1498.07 -4.12613 -6.37049 0
M  V30 9545 O 1497.86 -3.72827 -4.97879 0
M  V30 9546 C 1496.67 -4.45085 -6.88694 0
M  V30 9547 O 1496.28 -5.7877 -6.5624 0
M  V30 9548 C 1495.79 -3.47817 -6.12078 0
M  V30 9549 C 1496.5 -3.39414 -4.77697 0
M  V30 9550 N 1496.45 -2.04199 -4.15538 0
M  V30 9551 H 1499.29 -3.41248 -7.98759 0
M  V30 9552 H 1499.56 -2.57728 -6.42 0
M  V30 9553 H 1498.69 -5.02657 -6.42673 0
M  V30 9554 H 1496.04 -4.11708 -4.08956 0
M  V30 9555 H 1495.76 -2.49626 -6.61679 0
M  V30 9556 H 1494.77 -3.8662 -6.00862 0
M  V30 9557 H 1496.6 -4.29991 -7.97006 0
M  V30 9558 P 1494.73 -6.144 -6.45285 0
M  V30 9559 O 1494.51 -7.54673 -6.86199 0
M  V30 9560 O 1493.94 -5.12391 -7.179 0
M  V30 9561 O 1494.48 -5.99158 -4.88404 0
M  V30 9562 C 1495.42 -6.60234 -3.96415 0
M  V30 9563 C 1494.69 -7.08259 -2.72856 0
M  V30 9564 O 1494.48 -5.9427 -1.83651 0
M  V30 9565 C 1493.29 -7.64886 -2.9555 0
M  V30 9566 O 1492.9 -8.53963 -1.90717 0
M  V30 9567 C 1492.41 -6.4116 -2.90739 0
M  V30 9568 C 1493.12 -5.55375 -1.86963 0
M  V30 9569 N 1493.07 -4.09448 -2.16152 0
M  V30 9570 H 1495.91 -7.45574 -4.45629 0
M  V30 9571 H 1496.18 -5.85864 -3.679 0
M  V30 9572 H 1495.31 -7.84412 -2.24479 0
M  V30 9573 H 1492.66 -5.73457 -0.888562 0
M  V30 9574 H 1492.38 -5.90877 -3.88583 0
M  V30 9575 H 1491.39 -6.6596 -2.58858 0
M  V30 9576 H 1493.22 -8.16339 -3.92049 0
M  V30 9577 P 1491.35 -8.7635 -1.60911 0
M  V30 9578 O 1491.13 -10.1388 -1.11561 0
M  V30 9579 O 1490.56 -8.36503 -2.79617 0
M  V30 9580 O 1491.1 -7.71806 -0.42951 0
M  V30 9581 C 1492.04 -7.67148 0.673689 0
M  V30 9582 C 1491.31 -7.33374 1.95559 0
M  V30 9583 O 1491.1 -5.88721 2.00726 0
M  V30 9584 C 1489.91 -7.92526 2.10483 0
M  V30 9585 O 1489.52 -8.02971 3.47653 0
M  V30 9586 C 1489.03 -6.89602 1.41652 0
M  V30 9587 C 1489.74 -5.59201 1.75185 0
M  V30 9588 N 1489.69 -4.58301 0.657969 0
M  V30 9589 H 1492.53 -8.65116 0.777161 0
M  V30 9590 H 1492.8 -6.9022 0.46725 0
M  V30 9591 H 1491.93 -7.66548 2.79458 0
M  V30 9592 H 1489.28 -5.16165 2.65183 0
M  V30 9593 H 1489 -7.06433 0.329384 0
M  V30 9594 H 1488.01 -6.90926 1.82021 0
M  V30 9595 H 1489.84 -8.90873 1.62657 0
M  V30 9596 P 1487.97 -8.03563 3.84925 0
M  V30 9597 O 1487.75 -8.85821 5.0569 0
M  V30 9598 O 1487.18 -8.41101 2.65469 0
M  V30 9599 O 1487.72 -6.4965 4.18908 0
M  V30 9600 C 1488.66 -5.81037 5.05421 0
M  V30 9601 C 1487.93 -4.78366 5.89277 0
M  V30 9602 O 1487.72 -3.58302 5.08433 0
M  V30 9603 C 1486.53 -5.17448 6.36119 0
M  V30 9604 O 1486.14 -4.45271 7.53232 0
M  V30 9605 C 1485.65 -4.74639 5.19936 0
M  V30 9606 C 1486.36 -3.49432 4.70418 0
M  V30 9607 N 1486.31 -3.31776 3.22945 0
M  V30 9608 H 1489.15 -6.54213 5.71376 0
M  V30 9609 H 1489.42 -5.30492 4.44033 0
M  V30 9610 H 1488.55 -4.55889 6.76652 0
M  V30 9611 P 1484.59 -4.23843 7.83734 0
M  V30 9612 O 1484.37 -4.19407 9.29784 0
M  V30 9613 O 1483.8 -5.24426 7.09156 0
M  V30 9614 O 1484.34 -2.7935 7.20758 0
M  V30 9615 C 1485.28 -1.7299 7.50419 0
M  V30 9616 C 1484.55 -0.406376 7.57911 0
M  V30 9617 O 1484.34 0.0897726 6.21935 0
M  V30 9618 C 1483.15 -0.447224 8.1878 0
M  V30 9619 O 1482.76 0.825065 8.71101 0
M  V30 9620 C 1482.27 -0.783801 6.99623 0
M  V30 9621 C 1482.98 -0.0619192 5.85967 0
M  V30 9622 N 1482.93 -0.7859 4.56281 0
M  V30 9623 H 1485.77 -1.93423 8.4679 0
M  V30 9624 H 1486.04 -1.68181 6.71046 0
M  V30 9625 H 1485.17 0.289041 8.15388 0
M  V30 9626 P 1481.21 1.17771 8.83182 0
M  V30 9627 O 1480.99 2.07206 9.98732 0
M  V30 9628 O 1480.42 -0.0743816 8.81969 0
M  V30 9629 O 1480.96 1.97652 7.47304 0
M  V30 9630 C 1481.9 3.01133 7.08783 0
M  V30 9631 C 1481.17 4.12613 6.37049 0
M  V30 9632 O 1480.96 3.72827 4.97879 0
M  V30 9633 C 1479.77 4.45085 6.88694 0
M  V30 9634 O 1479.38 5.7877 6.5624 0
M  V30 9635 C 1478.89 3.47817 6.12078 0
M  V30 9636 C 1479.6 3.39414 4.77697 0
M  V30 9637 N 1479.55 2.04615 4.15333 0
M  V30 9638 H 1482.39 3.41248 7.98759 0
M  V30 9639 H 1482.66 2.5837 6.41742 0
M  V30 9640 H 1481.79 5.02657 6.42673 0
M  V30 9641 P 1477.83 6.144 6.45285 0
M  V30 9642 O 1477.61 7.54673 6.86199 0
M  V30 9643 O 1477.04 5.12391 7.179 0
M  V30 9644 O 1477.58 5.99158 4.88404 0
M  V30 9645 C 1478.52 6.60234 3.96415 0
M  V30 9646 C 1477.79 7.08259 2.72856 0
M  V30 9647 O 1477.58 5.9427 1.83651 0
M  V30 9648 C 1476.39 7.64886 2.9555 0
M  V30 9649 O 1476 8.53963 1.90717 0
M  V30 9650 C 1475.51 6.4116 2.90739 0
M  V30 9651 C 1476.22 5.55375 1.86963 0
M  V30 9652 N 1476.17 4.09664 2.15742 0
M  V30 9653 H 1479.01 7.45574 4.45629 0
M  V30 9654 H 1479.28 5.86232 3.67314 0
M  V30 9655 H 1478.41 7.84412 2.24479 0
M  V30 9656 P 1474.45 8.7635 1.60911 0
M  V30 9657 O 1474.23 10.1388 1.11561 0
M  V30 9658 O 1473.66 8.36503 2.79617 0
M  V30 9659 O 1474.2 7.71806 0.42951 0
M  V30 9660 C 1475.14 7.67148 -0.673689 0
M  V30 9661 C 1474.41 7.33374 -1.95559 0
M  V30 9662 O 1474.2 5.88721 -2.00726 0
M  V30 9663 C 1473.01 7.92526 -2.10483 0
M  V30 9664 O 1472.62 8.02971 -3.47653 0
M  V30 9665 C 1472.13 6.89602 -1.41652 0
M  V30 9666 C 1472.84 5.59201 -1.75185 0
M  V30 9667 N 1472.79 4.58235 -0.662552 0
M  V30 9668 H 1475.63 8.65116 -0.777161 0
M  V30 9669 H 1475.9 6.90173 -0.474152 0
M  V30 9670 H 1475.03 7.66548 -2.79458 0
M  V30 9671 P 1471.07 8.03563 -3.84925 0
M  V30 9672 O 1470.85 8.85821 -5.0569 0
M  V30 9673 O 1470.28 8.41101 -2.65469 0
M  V30 9674 O 1470.82 6.4965 -4.18908 0
M  V30 9675 C 1471.76 5.81037 -5.05421 0
M  V30 9676 C 1471.03 4.78366 -5.89277 0
M  V30 9677 O 1470.82 3.58302 -5.08433 0
M  V30 9678 C 1469.63 5.17448 -6.36119 0
M  V30 9679 O 1469.24 4.45271 -7.53232 0
M  V30 9680 C 1468.75 4.74639 -5.19936 0
M  V30 9681 C 1469.46 3.49432 -4.70418 0
M  V30 9682 N 1469.41 3.31776 -3.22945 0
M  V30 9683 H 1472.25 6.54213 -5.71376 0
M  V30 9684 H 1472.52 5.30492 -4.44033 0
M  V30 9685 H 1471.65 4.55889 -6.76652 0
M  V30 9686 P 1467.69 4.23843 -7.83734 0
M  V30 9687 O 1467.47 4.19407 -9.29784 0
M  V30 9688 O 1466.9 5.24426 -7.09156 0
M  V30 9689 O 1467.44 2.7935 -7.20758 0
M  V30 9690 C 1468.38 1.7299 -7.50419 0
M  V30 9691 C 1467.65 0.406376 -7.57911 0
M  V30 9692 O 1467.44 -0.0897726 -6.21935 0
M  V30 9693 C 1466.25 0.447224 -8.1878 0
M  V30 9694 O 1465.86 -0.825065 -8.71101 0
M  V30 9695 C 1465.37 0.783801 -6.99623 0
M  V30 9696 C 1466.08 0.0619192 -5.85967 0
M  V30 9697 N 1466.03 0.790462 -4.56202 0
M  V30 9698 H 1468.87 1.93423 -8.4679 0
M  V30 9699 H 1469.14 1.68852 -6.70877 0
M  V30 9700 H 1468.27 -0.289041 -8.15388 0
M  V30 9701 H 1465.62 -0.927006 -5.72848 0
M  V30 9702 H 1465.34 1.86973 -6.82036 0
M  V30 9703 H 1464.35 0.403953 -7.13357 0
M  V30 9704 H 1466.18 1.20599 -8.97534 0
M  V30 9705 P 1464.31 -1.17771 -8.83182 0
M  V30 9706 O 1464.09 -2.07206 -9.98732 0
M  V30 9707 O 1463.52 0.0743816 -8.81969 0
M  V30 9708 O 1464.06 -1.97652 -7.47304 0
M  V30 9709 C 1465 -3.01133 -7.08783 0
M  V30 9710 C 1464.27 -4.12613 -6.37049 0
M  V30 9711 O 1464.06 -3.72827 -4.97879 0
M  V30 9712 C 1462.87 -4.45085 -6.88694 0
M  V30 9713 O 1462.48 -5.7877 -6.5624 0
M  V30 9714 C 1461.99 -3.47817 -6.12078 0
M  V30 9715 C 1462.7 -3.39414 -4.77697 0
M  V30 9716 N 1462.65 -2.04615 -4.15333 0
M  V30 9717 C 1462.73 -0.803897 -4.75249 0
M  V30 9718 N 1462.65 0.197615 -3.91502 0
M  V30 9719 C 1462.51 -0.413002 -2.66823 0
M  V30 9720 C 1462.38 0.157221 -1.38007 0
M  V30 9721 N 1462.26 -0.833136 -0.390236 0
M  V30 9722 C 1462.26 -2.19402 -0.623885 0
M  V30 9723 N 1462.13 -2.97622 0.449677 0
M  V30 9724 N 1462.39 -2.73005 -1.83601 0
M  V30 9725 C 1462.51 -1.78786 -2.80935 0
M  V30 9726 H 1465.49 -3.41248 -7.98759 0
M  V30 9727 H 1465.76 -2.5837 -6.41742 0
M  V30 9728 H 1464.89 -5.02657 -6.42673 0
M  V30 9729 P 1460.93 -6.144 -6.45285 0
M  V30 9730 O 1460.71 -7.54673 -6.86199 0
M  V30 9731 O 1460.14 -5.12391 -7.179 0
M  V30 9732 O 1460.68 -5.99236 -4.88467 0
M  V30 9733 C 1461.62 -6.60234 -3.96415 0
M  V30 9734 C 1460.89 -7.08079 -2.736 0
M  V30 9735 O 1460.68 -5.94365 -1.8368 0
M  V30 9736 C 1459.49 -7.64886 -2.9555 0
M  V30 9737 O 1459.1 -8.5406 -1.90739 0
M  V30 9738 C 1458.61 -6.4116 -2.90739 0
M  V30 9739 C 1459.32 -5.55375 -1.86963 0
M  V30 9740 N 1459.27 -4.09664 -2.15742 0
M  V30 9741 C 1459.12 -3.22231 -1.08477 0
M  V30 9742 O 1459.03 -3.68951 0.0600489 0
M  V30 9743 N 1459.07 -1.76692 -1.48799 0
M  V30 9744 C 1459.17 -1.41695 -2.57602 0
M  V30 9745 N 1459.12 -0.107296 -2.75791 0
M  V30 9746 C 1459.32 -2.29178 -3.69733 0
M  V30 9747 C 1459.37 -3.62753 -3.42653 0
M  V30 9748 H 1462.11 -7.45488 -4.45578 0
M  V30 9749 H 1462.38 -5.86232 -3.67314 0
M  V30 9750 H 1461.51 -7.84508 -2.24507 0
M  V30 9751 H 1458.86 -5.73556 -0.888715 0
M  V30 9752 H 1458.58 -5.9096 -3.88638 0
M  V30 9753 H 1457.59 -6.66053 -2.58894 0
M  V30 9754 H 1459.42 -8.16339 -3.92049 0
M  V30 9755 H 1459.49 -4.33052 -4.24913 0
M  V30 9756 H 1459.39 -1.9103 -4.71577 0
M  V30 9757 H 1459 0.521221 -1.95056 0
M  V30 9758 H 1459.2 0.286429 -3.70695 0
M  V30 9759 P 1457.55 -8.7635 -1.60911 0
M  V30 9760 O 1457.33 -10.1388 -1.11561 0
M  V30 9761 O 1456.76 -8.36503 -2.79617 0
M  V30 9762 O 1457.3 -7.71806 -0.42951 0
M  V30 9763 C 1458.24 -7.67148 0.673689 0
M  V30 9764 C 1457.51 -7.33374 1.95559 0
M  V30 9765 O 1457.3 -5.88721 2.00726 0
M  V30 9766 C 1456.11 -7.92526 2.10483 0
M  V30 9767 O 1455.72 -8.02971 3.47653 0
M  V30 9768 C 1455.23 -6.89602 1.41652 0
M  V30 9769 C 1455.94 -5.59201 1.75185 0
M  V30 9770 N 1455.89 -4.58301 0.657969 0
M  V30 9771 H 1458.73 -8.65116 0.777161 0
M  V30 9772 H 1459 -6.9022 0.46725 0
M  V30 9773 H 1458.13 -7.66548 2.79458 0
M  V30 9774 H 1455.48 -5.16165 2.65183 0
M  V30 9775 H 1455.2 -7.06433 0.329384 0
M  V30 9776 H 1454.21 -6.90926 1.82021 0
M  V30 9777 H 1456.04 -8.90873 1.62657 0
M  V30 9778 P 1454.17 -8.03563 3.84925 0
M  V30 9779 O 1453.95 -8.85821 5.0569 0
M  V30 9780 O 1453.38 -8.41101 2.65469 0
M  V30 9781 O 1453.92 -6.4965 4.18908 0
M  V30 9782 C 1454.86 -5.81037 5.05421 0
M  V30 9783 C 1454.13 -4.78366 5.89277 0
M  V30 9784 O 1453.92 -3.58302 5.08433 0
M  V30 9785 C 1452.73 -5.17448 6.36119 0
M  V30 9786 O 1452.34 -4.45271 7.53232 0
M  V30 9787 C 1451.85 -4.74639 5.19936 0
M  V30 9788 C 1452.56 -3.49432 4.70418 0
M  V30 9789 N 1452.51 -3.31776 3.22945 0
M  V30 9790 H 1455.35 -6.54213 5.71376 0
M  V30 9791 H 1455.62 -5.30492 4.44033 0
M  V30 9792 H 1454.75 -4.55889 6.76652 0
M  V30 9793 P 1450.79 -4.23843 7.83734 0
M  V30 9794 O 1450.57 -4.19407 9.29784 0
M  V30 9795 O 1450 -5.24426 7.09156 0
M  V30 9796 O 1450.54 -2.7935 7.20758 0
M  V30 9797 C 1451.48 -1.7299 7.50419 0
M  V30 9798 C 1450.75 -0.406376 7.57911 0
M  V30 9799 O 1450.54 0.0897726 6.21935 0
M  V30 9800 C 1449.35 -0.447224 8.1878 0
M  V30 9801 O 1448.96 0.825065 8.71101 0
M  V30 9802 C 1448.47 -0.783801 6.99623 0
M  V30 9803 C 1449.18 -0.0619192 5.85967 0
M  V30 9804 N 1449.13 -0.790462 4.56202 0
M  V30 9805 H 1451.97 -1.93423 8.4679 0
M  V30 9806 H 1452.24 -1.68852 6.70877 0
M  V30 9807 H 1451.37 0.289041 8.15388 0
M  V30 9808 H 1448.72 0.927006 5.72848 0
M  V30 9809 H 1448.44 -1.86973 6.82036 0
M  V30 9810 H 1447.45 -0.403953 7.13357 0
M  V30 9811 H 1449.28 -1.20599 8.97534 0
M  V30 9812 P 1447.41 1.17771 8.83182 0
M  V30 9813 O 1447.19 2.07206 9.98732 0
M  V30 9814 O 1446.62 -0.0743816 8.81969 0
M  V30 9815 O 1447.16 1.97652 7.47304 0
M  V30 9816 C 1448.1 3.01133 7.08783 0
M  V30 9817 C 1447.37 4.12613 6.37049 0
M  V30 9818 O 1447.16 3.72827 4.97879 0
M  V30 9819 C 1445.97 4.45085 6.88694 0
M  V30 9820 O 1445.58 5.7877 6.5624 0
M  V30 9821 C 1445.09 3.47817 6.12078 0
M  V30 9822 C 1445.8 3.39414 4.77697 0
M  V30 9823 N 1445.75 2.04199 4.15538 0
M  V30 9824 H 1448.59 3.41248 7.98759 0
M  V30 9825 H 1448.86 2.57728 6.42 0
M  V30 9826 H 1447.99 5.02657 6.42673 0
M  V30 9827 H 1445.34 4.11708 4.08956 0
M  V30 9828 H 1445.06 2.49626 6.61679 0
M  V30 9829 H 1444.07 3.8662 6.00862 0
M  V30 9830 H 1445.9 4.29991 7.97006 0
M  V30 9831 P 1444.03 6.144 6.45285 0
M  V30 9832 O 1443.81 7.54673 6.86199 0
M  V30 9833 O 1443.24 5.12391 7.179 0
M  V30 9834 O 1443.78 5.99158 4.88404 0
M  V30 9835 C 1444.72 6.60234 3.96415 0
M  V30 9836 C 1443.99 7.08259 2.72856 0
M  V30 9837 O 1443.78 5.9427 1.83651 0
M  V30 9838 C 1442.59 7.64886 2.9555 0
M  V30 9839 O 1442.2 8.53963 1.90717 0
M  V30 9840 C 1441.71 6.4116 2.90739 0
M  V30 9841 C 1442.42 5.55375 1.86963 0
M  V30 9842 N 1442.37 4.09664 2.15742 0
M  V30 9843 H 1445.21 7.45574 4.45629 0
M  V30 9844 H 1445.48 5.86232 3.67314 0
M  V30 9845 H 1444.61 7.84412 2.24479 0
M  V30 9846 P 1440.65 8.7635 1.60911 0
M  V30 9847 O 1440.43 10.1388 1.11561 0
M  V30 9848 O 1439.86 8.36503 2.79617 0
M  V30 9849 O 1440.4 7.71906 0.429565 0
M  V30 9850 C 1441.34 7.67148 -0.673689 0
M  V30 9851 C 1440.61 7.33666 -1.94851 0
M  V30 9852 O 1440.4 5.88816 -2.00759 0
M  V30 9853 C 1439.21 7.92526 -2.10483 0
M  V30 9854 O 1438.82 8.03063 -3.47693 0
M  V30 9855 C 1438.33 6.89602 -1.41652 0
M  V30 9856 C 1439.04 5.59201 -1.75185 0
M  V30 9857 N 1438.99 4.58235 -0.662552 0
M  V30 9858 C 1438.84 3.24451 -1.01643 0
M  V30 9859 O 1438.75 2.94958 -2.21722 0
M  V30 9860 N 1438.79 2.30408 0.165238 0
M  V30 9861 C 1438.89 2.66048 1.25118 0
M  V30 9862 N 1438.84 1.70787 2.16813 0
M  V30 9863 C 1439.04 4.02732 1.64413 0
M  V30 9864 C 1439.09 4.9488 0.63991 0
M  V30 9865 H 1441.83 8.65017 -0.777072 0
M  V30 9866 H 1442.1 6.90173 -0.474152 0
M  V30 9867 H 1441.23 7.66642 -2.79492 0
M  V30 9868 H 1438.58 5.16254 -2.65229 0
M  V30 9869 H 1438.3 7.06532 -0.329431 0
M  V30 9870 H 1437.31 6.91023 -1.82047 0
M  V30 9871 H 1439.14 8.90873 -1.62657 0
M  V30 9872 H 1439.21 6.00104 0.892197 0
M  V30 9873 H 1439.11 4.31733 2.69229 0
M  V30 9874 H 1438.72 0.724835 1.8844 0
M  V30 9875 H 1438.92 1.94716 3.16734 0
M  V30 9876 P 1437.27 8.03563 -3.84925 0
M  V30 9877 O 1437.05 8.85821 -5.0569 0
M  V30 9878 O 1436.48 8.41101 -2.65469 0
M  V30 9879 O 1437.02 6.49734 -4.18962 0
M  V30 9880 C 1437.96 5.81037 -5.05421 0
M  V30 9881 C 1437.23 4.79018 -5.88876 0
M  V30 9882 O 1437.02 3.58359 -5.08515 0
M  V30 9883 C 1435.83 5.17448 -6.36119 0
M  V30 9884 O 1435.44 4.45322 -7.53318 0
M  V30 9885 C 1434.95 4.74639 -5.19936 0
M  V30 9886 C 1435.66 3.49432 -4.70418 0
M  V30 9887 N 1435.61 3.31776 -3.22945 0
M  V30 9888 C 1435.46 2.02742 -2.72939 0
M  V30 9889 O 1435.37 1.08301 -3.52749 0
M  V30 9890 N 1435.41 1.96117 -1.22063 0
M  V30 9891 C 1435.51 2.8878 -0.551566 0
M  V30 9892 N 1435.46 2.65609 0.750198 0
M  V30 9893 C 1435.66 4.22457 -1.03707 0
M  V30 9894 C 1435.71 4.37979 -2.39113 0
M  V30 9895 H 1438.45 6.54138 -5.7131 0
M  V30 9896 H 1438.72 5.30492 -4.44033 0
M  V30 9897 H 1437.85 4.55945 -6.76735 0
M  V30 9898 H 1435.2 2.6176 -5.18021 0
M  V30 9899 H 1434.92 5.52233 -4.41941 0
M  V30 9900 H 1433.93 4.52045 -5.53452 0
M  V30 9901 H 1435.76 6.25124 -6.55234 0
M  V30 9902 H 1435.83 5.37936 -2.80552 0
M  V30 9903 H 1435.73 5.07528 -0.359553 0
M  V30 9904 H 1435.34 1.69403 1.09847 0
M  V30 9905 H 1435.54 3.43701 1.41792 0
M  V30 9906 P 1433.89 4.23843 -7.83734 0
M  V30 9907 O 1433.67 4.19407 -9.29784 0
M  V30 9908 O 1433.1 5.24426 -7.09156 0
M  V30 9909 O 1433.64 2.7935 -7.20758 0
M  V30 9910 C 1434.58 1.7299 -7.50419 0
M  V30 9911 C 1433.85 0.406376 -7.57911 0
M  V30 9912 O 1433.64 -0.0897726 -6.21935 0
M  V30 9913 C 1432.45 0.447224 -8.1878 0
M  V30 9914 O 1432.06 -0.825065 -8.71101 0
M  V30 9915 C 1431.57 0.783801 -6.99623 0
M  V30 9916 C 1432.28 0.0619192 -5.85967 0
M  V30 9917 N 1432.23 0.7859 -4.56281 0
M  V30 9918 C 1432.31 2.14308 -4.31736 0
M  V30 9919 N 1432.23 2.46106 -3.05116 0
M  V30 9920 C 1432.09 1.23422 -2.4014 0
M  V30 9921 C 1431.96 0.938381 -1.02409 0
M  V30 9922 N 1431.84 -0.444647 -0.805413 0
M  V30 9923 C 1431.84 -1.40829 -1.79435 0
M  V30 9924 N 1431.71 -2.67213 -1.38558 0
M  V30 9925 N 1431.97 -1.12947 -3.09005 0
M  V30 9926 C 1432.09 0.204887 -3.32369 0
M  V30 9927 H 1435.07 1.93423 -8.4679 0
M  V30 9928 H 1435.34 1.68181 -6.71046 0
M  V30 9929 H 1434.47 -0.289041 -8.15388 0
M  V30 9930 P 1430.51 -1.17771 -8.83182 0
M  V30 9931 O 1430.29 -2.07206 -9.98732 0
M  V30 9932 O 1429.72 0.0743816 -8.81969 0
M  V30 9933 O 1430.26 -1.97678 -7.474 0
M  V30 9934 C 1431.2 -3.01133 -7.08783 0
M  V30 9935 C 1430.47 -4.1203 -6.37546 0
M  V30 9936 O 1430.26 -3.72887 -4.9796 0
M  V30 9937 C 1429.07 -4.45085 -6.88694 0
M  V30 9938 O 1428.68 -5.78836 -6.56315 0
M  V30 9939 C 1428.19 -3.47817 -6.12078 0
M  V30 9940 C 1428.9 -3.39414 -4.77697 0
M  V30 9941 N 1428.85 -2.04615 -4.15333 0
M  V30 9942 C 1428.7 -1.96929 -2.77162 0
M  V30 9943 O 1428.61 -3.02017 -2.12006 0
M  V30 9944 N 1428.65 -0.55485 -2.24237 0
M  V30 9945 C 1428.75 0.367808 -2.9169 0
M  V30 9946 N 1428.7 1.53426 -2.29427 0
M  V30 9947 C 1428.9 0.319148 -4.33828 0
M  V30 9948 C 1428.95 -0.920672 -4.90433 0
M  V30 9949 H 1431.69 -3.41209 -7.98667 0
M  V30 9950 H 1431.96 -2.5837 -6.41742 0
M  V30 9951 H 1431.09 -5.02718 -6.42752 0
M  V30 9952 H 1428.44 -4.11779 -4.09026 0
M  V30 9953 H 1428.16 -2.49661 -6.61772 0
M  V30 9954 H 1427.17 -3.86674 -6.00946 0
M  V30 9955 H 1429 -4.29991 -7.97006 0
M  V30 9956 H 1429.07 -1.00589 -5.98303 0
M  V30 9957 H 1428.97 1.22639 -4.93799 0
M  V30 9958 H 1428.58 1.56819 -1.27167 0
M  V30 9959 H 1428.78 2.41062 -2.83063 0
M  V30 9960 P 1427.13 -6.144 -6.45285 0
M  V30 9961 O 1426.91 -7.54673 -6.86199 0
M  V30 9962 O 1426.34 -5.12391 -7.179 0
M  V30 9963 O 1426.88 -5.99236 -4.88467 0
M  V30 9964 C 1427.82 -6.60234 -3.96415 0
M  V30 9965 C 1427.09 -7.08079 -2.736 0
M  V30 9966 O 1426.88 -5.94365 -1.8368 0
M  V30 9967 C 1425.69 -7.64886 -2.9555 0
M  V30 9968 O 1425.3 -8.5406 -1.90739 0
M  V30 9969 C 1424.81 -6.4116 -2.90739 0
M  V30 9970 C 1425.52 -5.55375 -1.86963 0
M  V30 9971 N 1425.47 -4.09664 -2.15742 0
M  V30 9972 C 1425.32 -3.22231 -1.08477 0
M  V30 9973 O 1425.23 -3.68951 0.0600489 0
M  V30 9974 N 1425.27 -1.76692 -1.48799 0
M  V30 9975 C 1425.37 -1.41695 -2.57602 0
M  V30 9976 N 1425.32 -0.107296 -2.75791 0
M  V30 9977 C 1425.52 -2.29178 -3.69733 0
M  V30 9978 C 1425.57 -3.62753 -3.42653 0
M  V30 9979 H 1428.31 -7.45488 -4.45578 0
M  V30 9980 H 1428.58 -5.86232 -3.67314 0
M  V30 9981 H 1427.71 -7.84508 -2.24507 0
M  V30 9982 H 1425.06 -5.73556 -0.888715 0
M  V30 9983 H 1424.78 -5.9096 -3.88638 0
M  V30 9984 H 1423.79 -6.66053 -2.58894 0
M  V30 9985 H 1425.62 -8.16339 -3.92049 0
M  V30 9986 H 1425.69 -4.33052 -4.24913 0
M  V30 9987 H 1425.59 -1.9103 -4.71577 0
M  V30 9988 H 1425.2 0.521221 -1.95056 0
M  V30 9989 H 1425.4 0.286429 -3.70695 0
M  V30 9990 P 1423.75 -8.7635 -1.60911 0
M  V30 9991 O 1423.53 -10.1388 -1.11561 0
M  V30 9992 O 1422.96 -8.36503 -2.79617 0
M  V30 9993 O 1423.5 -7.71906 -0.429565 0
M  V30 9994 C 1424.44 -7.67148 0.673689 0
M  V30 9995 C 1423.71 -7.33666 1.94851 0
M  V30 9996 O 1423.5 -5.88816 2.00759 0
M  V30 9997 C 1422.31 -7.92526 2.10483 0
M  V30 9998 O 1421.92 -8.03063 3.47693 0
M  V30 9999 C 1421.43 -6.89602 1.41652 0
M  V30 10000 C 1422.14 -5.59201 1.75185 0
M  V30 10001 N 1422.09 -4.58235 0.662552 0
M  V30 10002 C 1421.94 -3.24451 1.01643 0
M  V30 10003 O 1421.85 -2.94958 2.21722 0
M  V30 10004 N 1421.89 -2.30408 -0.165238 0
M  V30 10005 C 1421.99 -2.66048 -1.25118 0
M  V30 10006 N 1421.94 -1.70787 -2.16813 0
M  V30 10007 C 1422.14 -4.02732 -1.64413 0
M  V30 10008 C 1422.19 -4.9488 -0.63991 0
M  V30 10009 H 1424.93 -8.65017 0.777072 0
M  V30 10010 H 1425.2 -6.90173 0.474152 0
M  V30 10011 H 1424.33 -7.66642 2.79492 0
M  V30 10012 H 1421.68 -5.16254 2.65229 0
M  V30 10013 H 1421.4 -7.06532 0.329431 0
M  V30 10014 H 1420.41 -6.91023 1.82047 0
M  V30 10015 H 1422.24 -8.90873 1.62657 0
M  V30 10016 H 1422.31 -6.00104 -0.892197 0
M  V30 10017 H 1422.21 -4.31733 -2.69229 0
M  V30 10018 H 1421.82 -0.724835 -1.8844 0
M  V30 10019 H 1422.02 -1.94716 -3.16734 0
M  V30 10020 P 1420.37 -8.03563 3.84925 0
M  V30 10021 O 1420.15 -8.85821 5.0569 0
M  V30 10022 O 1419.58 -8.41101 2.65469 0
M  V30 10023 O 1420.12 -6.4965 4.18908 0
M  V30 10024 C 1421.06 -5.81037 5.05421 0
M  V30 10025 C 1420.33 -4.78366 5.89277 0
M  V30 10026 O 1420.12 -3.58302 5.08433 0
M  V30 10027 C 1418.93 -5.17448 6.36119 0
M  V30 10028 O 1418.54 -4.45271 7.53232 0
M  V30 10029 C 1418.05 -4.74639 5.19936 0
M  V30 10030 C 1418.76 -3.49432 4.70418 0
M  V30 10031 N 1418.71 -3.31776 3.22945 0
M  V30 10032 C 1418.79 -4.27147 2.23315 0
M  V30 10033 N 1418.71 -3.78447 1.02186 0
M  V30 10034 C 1418.57 -2.41001 1.21732 0
M  V30 10035 C 1418.44 -1.36111 0.27694 0
M  V30 10036 N 1418.32 -0.113683 0.912949 0
M  V30 10037 C 1418.32 0.0846396 2.27943 0
M  V30 10038 N 1418.19 1.34737 2.6916 0
M  V30 10039 N 1418.45 -0.902521 3.16379 0
M  V30 10040 C 1418.57 -2.11937 2.56849 0
M  V30 10041 H 1421.55 -6.54213 5.71376 0
M  V30 10042 H 1421.82 -5.30492 4.44033 0
M  V30 10043 H 1420.95 -4.55889 6.76652 0
M  V30 10044 P 1416.99 -4.23843 7.83734 0
M  V30 10045 O 1416.77 -4.19407 9.29784 0
M  V30 10046 O 1416.2 -5.24426 7.09156 0
M  V30 10047 O 1416.74 -2.79386 7.20852 0
M  V30 10048 C 1417.68 -1.7299 7.50419 0
M  V30 10049 C 1416.95 -0.41401 7.5797 0
M  V30 10050 O 1416.74 0.089787 6.22035 0
M  V30 10051 C 1415.55 -0.447224 8.1878 0
M  V30 10052 O 1415.16 0.825159 8.71201 0
M  V30 10053 C 1414.67 -0.783801 6.99623 0
M  V30 10054 C 1415.38 -0.0619192 5.85967 0
M  V30 10055 N 1415.33 -0.7859 4.56281 0
M  V30 10056 C 1415.18 -0.0359258 3.39981 0
M  V30 10057 O 1415.09 1.19723 3.49038 0
M  V30 10058 N 1415.13 -0.869151 2.14025 0
M  V30 10059 C 1415.23 -2.01207 2.14363 0
M  V30 10060 N 1415.18 -2.58978 0.954287 0
M  V30 10061 C 1415.38 -2.80817 3.32215 0
M  V30 10062 C 1415.43 -2.13785 4.50884 0
M  V30 10063 H 1418.17 -1.93401 8.46693 0
M  V30 10064 H 1418.44 -1.68181 6.71046 0
M  V30 10065 H 1417.57 0.289076 8.15488 0
M  V30 10066 H 1414.92 0.927166 5.72947 0
M  V30 10067 H 1414.64 -1.87 6.82132 0
M  V30 10068 H 1413.65 -0.404009 7.13457 0
M  V30 10069 H 1415.48 -1.20599 8.97534 0
M  V30 10070 H 1415.55 -2.70295 5.43162 0
M  V30 10071 H 1415.45 -3.89465 3.27406 0
M  V30 10072 H 1415.06 -2.01616 0.107046 0
M  V30 10073 H 1415.26 -3.61403 0.873101 0
M  V30 10074 P 1413.61 1.17771 8.83182 0
M  V30 10075 O 1413.39 2.07206 9.98732 0
M  V30 10076 O 1412.82 -0.0743816 8.81969 0
M  V30 10077 O 1413.36 1.97678 7.474 0
M  V30 10078 C 1414.3 3.01133 7.08783 0
M  V30 10079 C 1413.57 4.1203 6.37546 0
M  V30 10080 O 1413.36 3.72887 4.9796 0
M  V30 10081 C 1412.17 4.45085 6.88694 0
M  V30 10082 O 1411.78 5.78836 6.56315 0
M  V30 10083 C 1411.29 3.47817 6.12078 0
M  V30 10084 C 1412 3.39414 4.77697 0
M  V30 10085 N 1411.95 2.04615 4.15333 0
M  V30 10086 C 1411.8 1.96929 2.77162 0
M  V30 10087 O 1411.71 3.02017 2.12006 0
M  V30 10088 N 1411.75 0.55485 2.24237 0
M  V30 10089 C 1411.85 -0.367808 2.9169 0
M  V30 10090 N 1411.8 -1.53426 2.29427 0
M  V30 10091 C 1412 -0.319148 4.33828 0
M  V30 10092 C 1412.05 0.920672 4.90433 0
M  V30 10093 H 1414.79 3.41209 7.98667 0
M  V30 10094 H 1415.06 2.5837 6.41742 0
M  V30 10095 H 1414.19 5.02718 6.42752 0
M  V30 10096 H 1411.54 4.11779 4.09026 0
M  V30 10097 H 1411.26 2.49661 6.61772 0
M  V30 10098 H 1410.27 3.86674 6.00946 0
M  V30 10099 H 1412.1 4.29991 7.97006 0
M  V30 10100 H 1412.17 1.00589 5.98303 0
M  V30 10101 H 1412.07 -1.22639 4.93799 0
M  V30 10102 H 1411.68 -1.56819 1.27167 0
M  V30 10103 H 1411.88 -2.41062 2.83063 0
M  V30 10104 P 1410.23 6.144 6.45285 0
M  V30 10105 O 1410.01 7.54673 6.86199 0
M  V30 10106 O 1409.44 5.12391 7.179 0
M  V30 10107 O 1409.98 5.99158 4.88404 0
M  V30 10108 C 1410.92 6.60234 3.96415 0
M  V30 10109 C 1410.19 7.08259 2.72856 0
M  V30 10110 O 1409.98 5.9427 1.83651 0
M  V30 10111 C 1408.79 7.64886 2.9555 0
M  V30 10112 O 1408.4 8.53963 1.90717 0
M  V30 10113 C 1407.91 6.4116 2.90739 0
M  V30 10114 C 1408.62 5.55375 1.86963 0
M  V30 10115 N 1408.57 4.09448 2.16152 0
M  V30 10116 H 1411.41 7.45574 4.45629 0
M  V30 10117 H 1411.68 5.85864 3.679 0
M  V30 10118 H 1410.81 7.84412 2.24479 0
M  V30 10119 H 1408.16 5.73457 0.888562 0
M  V30 10120 H 1407.88 5.90877 3.88583 0
M  V30 10121 H 1406.89 6.6596 2.58858 0
M  V30 10122 H 1408.72 8.16339 3.92049 0
M  V30 10123 P 1406.85 8.7635 1.60911 0
M  V30 10124 O 1406.63 10.1388 1.11561 0
M  V30 10125 O 1406.06 8.36503 2.79617 0
M  V30 10126 O 1406.6 7.71806 0.42951 0
M  V30 10127 C 1407.54 7.67148 -0.673689 0
M  V30 10128 C 1406.81 7.33374 -1.95559 0
M  V30 10129 O 1406.6 5.88721 -2.00726 0
M  V30 10130 C 1405.41 7.92526 -2.10483 0
M  V30 10131 O 1405.02 8.02971 -3.47653 0
M  V30 10132 C 1404.53 6.89602 -1.41652 0
M  V30 10133 C 1405.24 5.59201 -1.75185 0
M  V30 10134 N 1405.19 4.58235 -0.662552 0
M  V30 10135 H 1408.03 8.65116 -0.777161 0
M  V30 10136 H 1408.3 6.90173 -0.474152 0
M  V30 10137 H 1407.43 7.66548 -2.79458 0
M  V30 10138 P 1403.47 8.03563 -3.84925 0
M  V30 10139 O 1403.25 8.85821 -5.0569 0
M  V30 10140 O 1402.68 8.41101 -2.65469 0
M  V30 10141 O 1403.22 6.4965 -4.18908 0
M  V30 10142 C 1404.16 5.81037 -5.05421 0
M  V30 10143 C 1403.43 4.78366 -5.89277 0
M  V30 10144 O 1403.22 3.58302 -5.08433 0
M  V30 10145 C 1402.03 5.17448 -6.36119 0
M  V30 10146 O 1401.64 4.45271 -7.53232 0
M  V30 10147 C 1401.15 4.74639 -5.19936 0
M  V30 10148 C 1401.86 3.49432 -4.70418 0
M  V30 10149 N 1401.81 3.31776 -3.22945 0
M  V30 10150 H 1404.65 6.54213 -5.71376 0
M  V30 10151 H 1404.92 5.30492 -4.44033 0
M  V30 10152 H 1404.05 4.55889 -6.76652 0
M  V30 10153 P 1400.09 4.23843 -7.83734 0
M  V30 10154 O 1399.87 4.19407 -9.29784 0
M  V30 10155 O 1399.3 5.24426 -7.09156 0
M  V30 10156 O 1399.84 2.7935 -7.20758 0
M  V30 10157 C 1400.78 1.7299 -7.50419 0
M  V30 10158 C 1400.05 0.406376 -7.57911 0
M  V30 10159 O 1399.84 -0.0897726 -6.21935 0
M  V30 10160 C 1398.65 0.447224 -8.1878 0
M  V30 10161 O 1398.26 -0.825065 -8.71101 0
M  V30 10162 C 1397.77 0.783801 -6.99623 0
M  V30 10163 C 1398.48 0.0619192 -5.85967 0
M  V30 10164 N 1398.43 0.7859 -4.56281 0
M  V30 10165 H 1401.27 1.93423 -8.4679 0
M  V30 10166 H 1401.54 1.68181 -6.71046 0
M  V30 10167 H 1400.67 -0.289041 -8.15388 0
M  V30 10168 P 1396.71 -1.17771 -8.83182 0
M  V30 10169 O 1396.49 -2.07206 -9.98732 0
M  V30 10170 O 1395.92 0.0743816 -8.81969 0
M  V30 10171 O 1396.46 -1.97652 -7.47304 0
M  V30 10172 C 1397.4 -3.01133 -7.08783 0
M  V30 10173 C 1396.67 -4.12613 -6.37049 0
M  V30 10174 O 1396.46 -3.72827 -4.97879 0
M  V30 10175 C 1395.27 -4.45085 -6.88694 0
M  V30 10176 O 1394.88 -5.7877 -6.5624 0
M  V30 10177 C 1394.39 -3.47817 -6.12078 0
M  V30 10178 C 1395.1 -3.39414 -4.77697 0
M  V30 10179 N 1395.05 -2.04199 -4.15538 0
M  V30 10180 H 1397.89 -3.41248 -7.98759 0
M  V30 10181 H 1398.16 -2.57728 -6.42 0
M  V30 10182 H 1397.29 -5.02657 -6.42673 0
M  V30 10183 H 1394.64 -4.11708 -4.08956 0
M  V30 10184 H 1394.36 -2.49626 -6.61679 0
M  V30 10185 H 1393.37 -3.8662 -6.00862 0
M  V30 10186 H 1395.2 -4.29991 -7.97006 0
M  V30 10187 P 1393.33 -6.144 -6.45285 0
M  V30 10188 O 1393.11 -7.54673 -6.86199 0
M  V30 10189 O 1392.54 -5.12391 -7.179 0
M  V30 10190 O 1393.08 -5.99158 -4.88404 0
M  V30 10191 C 1394.02 -6.60062 -3.96313 0
M  V30 10192 C 1393.29 -7.08259 -2.72856 0
M  V30 10193 O 1393.08 -5.9427 -1.83651 0
M  V30 10194 C 1391.89 -7.65087 -2.94749 0
M  V30 10195 O 1391.5 -8.53963 -1.90717 0
M  V30 10196 C 1391.01 -6.41069 -2.90698 0
M  V30 10197 C 1391.72 -5.5528 -1.86931 0
M  V30 10198 N 1391.67 -4.09575 -2.15696 0
M  V30 10199 C 1391.52 -3.24249 -1.08435 0
M  V30 10200 O 1391.43 -3.63946 0.0628747 0
M  V30 10201 N 1391.48 -1.90009 -1.39973 0
M  V30 10202 C 1391.57 -1.34884 -2.65614 0
M  V30 10203 O 1391.52 -0.123716 -2.81728 0
M  V30 10204 C 1391.72 -2.3145 -3.71736 0
M  V30 10205 C 1391.83 -1.75913 -5.10438 0
M  V30 10206 C 1391.77 -3.63518 -3.44754 0
M  V30 10207 H 1394.51 -7.45402 -4.45526 0
M  V30 10208 H 1394.78 -5.86062 -3.67208 0
M  V30 10209 H 1393.91 -7.84412 -2.24479 0
M  V30 10210 H 1391.26 -5.73358 -0.888409 0
M  V30 10211 H 1390.98 -5.90877 -3.88583 0
M  V30 10212 H 1389.99 -6.65867 -2.58821 0
M  V30 10213 H 1391.82 -8.16248 -3.92006 0
M  V30 10214 H 1391.89 -4.34551 -4.26383 0
M  V30 10215 H 1390.86 -1.85471 -5.61775 0
M  V30 10216 H 1392.6 -2.31364 -5.66257 0
M  V30 10217 H 1392.11 -0.695936 -5.05229 0
M  V30 10218 H 1391.38 -1.26277 -0.63625 0
M  V30 10219 P 1389.95 -8.7635 -1.60911 0
M  V30 10220 O 1389.73 -10.1388 -1.11561 0
M  V30 10221 O 1389.16 -8.36503 -2.79617 0
M  V30 10222 O 1389.7 -7.71806 -0.42951 0
M  V30 10223 C 1390.64 -7.67148 0.673689 0
M  V30 10224 C 1389.91 -7.33374 1.95559 0
M  V30 10225 O 1389.7 -5.88721 2.00726 0
M  V30 10226 C 1388.51 -7.92526 2.10483 0
M  V30 10227 O 1388.12 -8.02971 3.47653 0
M  V30 10228 C 1387.63 -6.89602 1.41652 0
M  V30 10229 C 1388.34 -5.59201 1.75185 0
M  V30 10230 N 1388.29 -4.58235 0.662552 0
M  V30 10231 H 1391.13 -8.65116 0.777161 0
M  V30 10232 H 1391.4 -6.90173 0.474152 0
M  V30 10233 H 1390.53 -7.66548 2.79458 0
M  V30 10234 P 1386.57 -8.03563 3.84925 0
M  V30 10235 O 1386.35 -8.85821 5.0569 0
M  V30 10236 O 1385.78 -8.41101 2.65469 0
M  V30 10237 O 1386.32 -6.49734 4.18962 0
M  V30 10238 C 1387.26 -5.81037 5.05421 0
M  V30 10239 C 1386.53 -4.79018 5.88876 0
M  V30 10240 O 1386.32 -3.58359 5.08515 0
M  V30 10241 C 1385.13 -5.17448 6.36119 0
M  V30 10242 O 1384.74 -4.45322 7.53318 0
M  V30 10243 C 1384.25 -4.74639 5.19936 0
M  V30 10244 C 1384.96 -3.49432 4.70418 0
M  V30 10245 N 1384.91 -3.31776 3.22945 0
M  V30 10246 C 1384.76 -2.02742 2.72939 0
M  V30 10247 O 1384.67 -1.08301 3.52749 0
M  V30 10248 N 1384.71 -1.96117 1.22063 0
M  V30 10249 C 1384.81 -2.8878 0.551566 0
M  V30 10250 N 1384.76 -2.65609 -0.750198 0
M  V30 10251 C 1384.96 -4.22457 1.03707 0
M  V30 10252 C 1385.01 -4.37979 2.39113 0
M  V30 10253 H 1387.75 -6.54138 5.7131 0
M  V30 10254 H 1388.02 -5.30492 4.44033 0
M  V30 10255 H 1387.15 -4.55945 6.76735 0
M  V30 10256 H 1384.5 -2.6176 5.18021 0
M  V30 10257 H 1384.22 -5.52233 4.41941 0
M  V30 10258 H 1383.23 -4.52045 5.53452 0
M  V30 10259 H 1385.06 -6.25124 6.55234 0
M  V30 10260 H 1385.13 -5.37936 2.80552 0
M  V30 10261 H 1385.03 -5.07528 0.359553 0
M  V30 10262 H 1384.64 -1.69403 -1.09847 0
M  V30 10263 H 1384.84 -3.43701 -1.41792 0
M  V30 10264 P 1383.19 -4.23843 7.83734 0
M  V30 10265 O 1382.97 -4.19407 9.29784 0
M  V30 10266 O 1382.4 -5.24426 7.09156 0
M  V30 10267 O 1382.94 -2.79386 7.20852 0
M  V30 10268 C 1383.88 -1.7299 7.50419 0
M  V30 10269 C 1383.15 -0.41401 7.5797 0
M  V30 10270 O 1382.94 0.089787 6.22035 0
M  V30 10271 C 1381.75 -0.447224 8.1878 0
M  V30 10272 O 1381.36 0.825159 8.71201 0
M  V30 10273 C 1380.87 -0.783801 6.99623 0
M  V30 10274 C 1381.58 -0.0619192 5.85967 0
M  V30 10275 N 1381.53 -0.7859 4.56281 0
M  V30 10276 C 1381.38 -0.0359258 3.39981 0
M  V30 10277 O 1381.29 1.19723 3.49038 0
M  V30 10278 N 1381.33 -0.869151 2.14025 0
M  V30 10279 C 1381.43 -2.01207 2.14363 0
M  V30 10280 N 1381.38 -2.58978 0.954287 0
M  V30 10281 C 1381.58 -2.80817 3.32215 0
M  V30 10282 C 1381.63 -2.13785 4.50884 0
M  V30 10283 H 1384.37 -1.93401 8.46693 0
M  V30 10284 H 1384.64 -1.68181 6.71046 0
M  V30 10285 H 1383.77 0.289076 8.15488 0
M  V30 10286 H 1381.12 0.927166 5.72947 0
M  V30 10287 H 1380.84 -1.87 6.82132 0
M  V30 10288 H 1379.85 -0.404009 7.13457 0
M  V30 10289 H 1381.68 -1.20599 8.97534 0
M  V30 10290 H 1381.75 -2.70295 5.43162 0
M  V30 10291 H 1381.65 -3.89465 3.27406 0
M  V30 10292 H 1381.26 -2.01616 0.107046 0
M  V30 10293 H 1381.46 -3.61403 0.873101 0
M  V30 10294 P 1379.81 1.17771 8.83182 0
M  V30 10295 O 1379.59 2.07206 9.98732 0
M  V30 10296 O 1379.02 -0.0743816 8.81969 0
M  V30 10297 O 1379.56 1.97652 7.47304 0
M  V30 10298 C 1380.5 3.01133 7.08783 0
M  V30 10299 C 1379.77 4.12613 6.37049 0
M  V30 10300 O 1379.56 3.72827 4.97879 0
M  V30 10301 C 1378.37 4.45085 6.88694 0
M  V30 10302 O 1377.98 5.7877 6.5624 0
M  V30 10303 C 1377.49 3.47817 6.12078 0
M  V30 10304 C 1378.2 3.39414 4.77697 0
M  V30 10305 N 1378.15 2.04615 4.15333 0
M  V30 10306 C 1378.23 0.803897 4.75249 0
M  V30 10307 N 1378.15 -0.197615 3.91502 0
M  V30 10308 C 1378.01 0.413002 2.66823 0
M  V30 10309 C 1377.88 -0.157221 1.38007 0
M  V30 10310 N 1377.76 0.833136 0.390236 0
M  V30 10311 C 1377.76 2.19402 0.623885 0
M  V30 10312 N 1377.63 2.97622 -0.449677 0
M  V30 10313 N 1377.89 2.73005 1.83601 0
M  V30 10314 C 1378.01 1.78786 2.80935 0
M  V30 10315 H 1380.99 3.41248 7.98759 0
M  V30 10316 H 1381.26 2.5837 6.41742 0
M  V30 10317 H 1380.39 5.02657 6.42673 0
M  V30 10318 P 1376.43 6.144 6.45285 0
M  V30 10319 O 1376.21 7.54673 6.86199 0
M  V30 10320 O 1375.64 5.12391 7.179 0
M  V30 10321 O 1376.18 5.99158 4.88404 0
M  V30 10322 C 1377.12 6.60234 3.96415 0
M  V30 10323 C 1376.39 7.08259 2.72856 0
M  V30 10324 O 1376.18 5.9427 1.83651 0
M  V30 10325 C 1374.99 7.64886 2.9555 0
M  V30 10326 O 1374.6 8.53963 1.90717 0
M  V30 10327 C 1374.11 6.4116 2.90739 0
M  V30 10328 C 1374.82 5.55375 1.86963 0
M  V30 10329 N 1374.77 4.09448 2.16152 0
M  V30 10330 H 1377.61 7.45574 4.45629 0
M  V30 10331 H 1377.88 5.85864 3.679 0
M  V30 10332 H 1377.01 7.84412 2.24479 0
M  V30 10333 H 1374.36 5.73457 0.888562 0
M  V30 10334 H 1374.08 5.90877 3.88583 0
M  V30 10335 H 1373.09 6.6596 2.58858 0
M  V30 10336 H 1374.92 8.16339 3.92049 0
M  V30 10337 P 1373.05 8.7635 1.60911 0
M  V30 10338 O 1372.83 10.1388 1.11561 0
M  V30 10339 O 1372.26 8.36503 2.79617 0
M  V30 10340 O 1372.8 7.71806 0.42951 0
M  V30 10341 C 1373.74 7.67148 -0.673689 0
M  V30 10342 C 1373.01 7.33374 -1.95559 0
M  V30 10343 O 1372.8 5.88721 -2.00726 0
M  V30 10344 C 1371.61 7.92526 -2.10483 0
M  V30 10345 O 1371.22 8.02971 -3.47653 0
M  V30 10346 C 1370.73 6.89602 -1.41652 0
M  V30 10347 C 1371.44 5.59201 -1.75185 0
M  V30 10348 N 1371.39 4.58301 -0.657969 0
M  V30 10349 H 1374.23 8.65116 -0.777161 0
M  V30 10350 H 1374.5 6.9022 -0.46725 0
M  V30 10351 H 1373.63 7.66548 -2.79458 0
M  V30 10352 H 1370.98 5.16165 -2.65183 0
M  V30 10353 H 1370.7 7.06433 -0.329384 0
M  V30 10354 H 1369.71 6.90926 -1.82021 0
M  V30 10355 H 1371.54 8.90873 -1.62657 0
M  V30 10356 P 1369.67 8.03563 -3.84925 0
M  V30 10357 O 1369.45 8.85821 -5.0569 0
M  V30 10358 O 1368.88 8.41101 -2.65469 0
M  V30 10359 O 1369.42 6.4965 -4.18908 0
M  V30 10360 C 1370.36 5.81037 -5.05421 0
M  V30 10361 C 1369.63 4.78366 -5.89277 0
M  V30 10362 O 1369.42 3.58302 -5.08433 0
M  V30 10363 C 1368.23 5.17448 -6.36119 0
M  V30 10364 O 1367.84 4.45271 -7.53232 0
M  V30 10365 C 1367.35 4.74639 -5.19936 0
M  V30 10366 C 1368.06 3.49432 -4.70418 0
M  V30 10367 N 1368.01 3.31776 -3.22945 0
M  V30 10368 H 1370.85 6.54213 -5.71376 0
M  V30 10369 H 1371.12 5.30492 -4.44033 0
M  V30 10370 H 1370.25 4.55889 -6.76652 0
M  V30 10371 P 1366.29 4.23843 -7.83734 0
M  V30 10372 O 1366.07 4.19407 -9.29784 0
M  V30 10373 O 1365.5 5.24426 -7.09156 0
M  V30 10374 O 1366.04 2.7935 -7.20758 0
M  V30 10375 C 1366.98 1.7299 -7.50419 0
M  V30 10376 C 1366.25 0.406376 -7.57911 0
M  V30 10377 O 1366.04 -0.0897726 -6.21935 0
M  V30 10378 C 1364.85 0.447224 -8.1878 0
M  V30 10379 O 1364.46 -0.825065 -8.71101 0
M  V30 10380 C 1363.97 0.783801 -6.99623 0
M  V30 10381 C 1364.68 0.0619192 -5.85967 0
M  V30 10382 N 1364.63 0.7859 -4.56281 0
M  V30 10383 H 1367.47 1.93423 -8.4679 0
M  V30 10384 H 1367.74 1.68181 -6.71046 0
M  V30 10385 H 1366.87 -0.289041 -8.15388 0
M  V30 10386 P 1362.91 -1.17771 -8.83182 0
M  V30 10387 O 1362.69 -2.07206 -9.98732 0
M  V30 10388 O 1362.12 0.0743816 -8.81969 0
M  V30 10389 O 1362.66 -1.97652 -7.47304 0
M  V30 10390 C 1363.6 -3.01133 -7.08783 0
M  V30 10391 C 1362.87 -4.12613 -6.37049 0
M  V30 10392 O 1362.66 -3.72827 -4.97879 0
M  V30 10393 C 1361.47 -4.45085 -6.88694 0
M  V30 10394 O 1361.08 -5.7877 -6.5624 0
M  V30 10395 C 1360.59 -3.47817 -6.12078 0
M  V30 10396 C 1361.3 -3.39414 -4.77697 0
M  V30 10397 N 1361.25 -2.04199 -4.15538 0
M  V30 10398 H 1364.09 -3.41248 -7.98759 0
M  V30 10399 H 1364.36 -2.57728 -6.42 0
M  V30 10400 H 1363.49 -5.02657 -6.42673 0
M  V30 10401 H 1360.84 -4.11708 -4.08956 0
M  V30 10402 H 1360.56 -2.49626 -6.61679 0
M  V30 10403 H 1359.57 -3.8662 -6.00862 0
M  V30 10404 H 1361.4 -4.29991 -7.97006 0
M  V30 10405 P 1359.53 -6.144 -6.45285 0
M  V30 10406 O 1359.31 -7.54673 -6.86199 0
M  V30 10407 O 1358.74 -5.12391 -7.179 0
M  V30 10408 O 1359.28 -5.99158 -4.88404 0
M  V30 10409 C 1360.22 -6.60234 -3.96415 0
M  V30 10410 C 1359.49 -7.08259 -2.72856 0
M  V30 10411 O 1359.28 -5.9427 -1.83651 0
M  V30 10412 C 1358.09 -7.64886 -2.9555 0
M  V30 10413 O 1357.7 -8.53963 -1.90717 0
M  V30 10414 C 1357.21 -6.4116 -2.90739 0
M  V30 10415 C 1357.92 -5.55375 -1.86963 0
M  V30 10416 N 1357.87 -4.09664 -2.15742 0
M  V30 10417 H 1360.71 -7.45574 -4.45629 0
M  V30 10418 H 1360.98 -5.86232 -3.67314 0
M  V30 10419 H 1360.11 -7.84412 -2.24479 0
M  V30 10420 P 1356.15 -8.7635 -1.60911 0
M  V30 10421 O 1355.93 -10.1388 -1.11561 0
M  V30 10422 O 1355.36 -8.36503 -2.79617 0
M  V30 10423 O 1355.9 -7.71906 -0.429565 0
M  V30 10424 C 1356.84 -7.67148 0.673689 0
M  V30 10425 C 1356.11 -7.33666 1.94851 0
M  V30 10426 O 1355.9 -5.88816 2.00759 0
M  V30 10427 C 1354.71 -7.92526 2.10483 0
M  V30 10428 O 1354.32 -8.03063 3.47693 0
M  V30 10429 C 1353.83 -6.89602 1.41652 0
M  V30 10430 C 1354.54 -5.59201 1.75185 0
M  V30 10431 N 1354.49 -4.58235 0.662552 0
M  V30 10432 C 1354.34 -3.24451 1.01643 0
M  V30 10433 O 1354.25 -2.94958 2.21722 0
M  V30 10434 N 1354.29 -2.30408 -0.165238 0
M  V30 10435 C 1354.39 -2.66048 -1.25118 0
M  V30 10436 N 1354.34 -1.70787 -2.16813 0
M  V30 10437 C 1354.54 -4.02732 -1.64413 0
M  V30 10438 C 1354.59 -4.9488 -0.63991 0
M  V30 10439 H 1357.33 -8.65017 0.777072 0
M  V30 10440 H 1357.6 -6.90173 0.474152 0
M  V30 10441 H 1356.73 -7.66642 2.79492 0
M  V30 10442 H 1354.08 -5.16254 2.65229 0
M  V30 10443 H 1353.8 -7.06532 0.329431 0
M  V30 10444 H 1352.81 -6.91023 1.82047 0
M  V30 10445 H 1354.64 -8.90873 1.62657 0
M  V30 10446 H 1354.71 -6.00104 -0.892197 0
M  V30 10447 H 1354.61 -4.31733 -2.69229 0
M  V30 10448 H 1354.22 -0.724835 -1.8844 0
M  V30 10449 H 1354.42 -1.94716 -3.16734 0
M  V30 10450 P 1352.77 -8.03563 3.84925 0
M  V30 10451 O 1352.55 -8.85821 5.0569 0
M  V30 10452 O 1351.98 -8.41101 2.65469 0
M  V30 10453 O 1352.52 -6.4965 4.18908 0
M  V30 10454 C 1353.46 -5.81037 5.05421 0
M  V30 10455 C 1352.73 -4.78366 5.89277 0
M  V30 10456 O 1352.52 -3.58302 5.08433 0
M  V30 10457 C 1351.33 -5.17448 6.36119 0
M  V30 10458 O 1350.94 -4.45271 7.53232 0
M  V30 10459 C 1350.45 -4.74639 5.19936 0
M  V30 10460 C 1351.16 -3.49432 4.70418 0
M  V30 10461 N 1351.11 -3.31776 3.22945 0
M  V30 10462 H 1353.95 -6.54213 5.71376 0
M  V30 10463 H 1354.22 -5.30492 4.44033 0
M  V30 10464 H 1353.36 -4.55889 6.76652 0
M  V30 10465 P 1349.39 -4.23843 7.83734 0
M  V30 10466 O 1349.17 -4.19407 9.29784 0
M  V30 10467 O 1348.6 -5.24426 7.09156 0
M  V30 10468 O 1349.14 -2.79386 7.20852 0
M  V30 10469 C 1350.08 -1.7299 7.50419 0
M  V30 10470 C 1349.35 -0.41401 7.5797 0
M  V30 10471 O 1349.14 0.089787 6.22035 0
M  V30 10472 C 1347.95 -0.447224 8.1878 0
M  V30 10473 O 1347.56 0.825159 8.71201 0
M  V30 10474 C 1347.07 -0.783801 6.99623 0
M  V30 10475 C 1347.78 -0.0619192 5.85967 0
M  V30 10476 N 1347.73 -0.7859 4.56281 0
M  V30 10477 C 1347.58 -0.0359258 3.39981 0
M  V30 10478 O 1347.49 1.19723 3.49038 0
M  V30 10479 N 1347.53 -0.869151 2.14025 0
M  V30 10480 C 1347.63 -2.01207 2.14363 0
M  V30 10481 N 1347.58 -2.58978 0.954287 0
M  V30 10482 C 1347.78 -2.80817 3.32215 0
M  V30 10483 C 1347.83 -2.13785 4.50884 0
M  V30 10484 H 1350.57 -1.93401 8.46693 0
M  V30 10485 H 1350.84 -1.68181 6.71046 0
M  V30 10486 H 1349.98 0.289076 8.15488 0
M  V30 10487 H 1347.32 0.927166 5.72947 0
M  V30 10488 H 1347.04 -1.87 6.82132 0
M  V30 10489 H 1346.05 -0.404009 7.13457 0
M  V30 10490 H 1347.88 -1.20599 8.97534 0
M  V30 10491 H 1347.96 -2.70295 5.43162 0
M  V30 10492 H 1347.85 -3.89465 3.27406 0
M  V30 10493 H 1347.47 -2.01616 0.107046 0
M  V30 10494 H 1347.66 -3.61403 0.873101 0
M  V30 10495 P 1346.01 1.17771 8.83182 0
M  V30 10496 O 1345.79 2.07206 9.98732 0
M  V30 10497 O 1345.22 -0.0743816 8.81969 0
M  V30 10498 O 1345.76 1.97678 7.474 0
M  V30 10499 C 1346.7 3.01133 7.08783 0
M  V30 10500 C 1345.97 4.1203 6.37546 0
M  V30 10501 O 1345.76 3.72887 4.9796 0
M  V30 10502 C 1344.57 4.45085 6.88694 0
M  V30 10503 O 1344.18 5.78836 6.56315 0
M  V30 10504 C 1343.69 3.47817 6.12078 0
M  V30 10505 C 1344.4 3.39414 4.77697 0
M  V30 10506 N 1344.35 2.04615 4.15333 0
M  V30 10507 C 1344.2 1.96929 2.77162 0
M  V30 10508 O 1344.11 3.02017 2.12006 0
M  V30 10509 N 1344.15 0.55485 2.24237 0
M  V30 10510 C 1344.25 -0.367808 2.9169 0
M  V30 10511 N 1344.2 -1.53426 2.29427 0
M  V30 10512 C 1344.4 -0.319148 4.33828 0
M  V30 10513 C 1344.45 0.920672 4.90433 0
M  V30 10514 H 1347.19 3.41209 7.98667 0
M  V30 10515 H 1347.46 2.5837 6.41742 0
M  V30 10516 H 1346.6 5.02718 6.42752 0
M  V30 10517 H 1343.94 4.11779 4.09026 0
M  V30 10518 H 1343.66 2.49661 6.61772 0
M  V30 10519 H 1342.67 3.86674 6.00946 0
M  V30 10520 H 1344.5 4.29991 7.97006 0
M  V30 10521 H 1344.58 1.00589 5.98303 0
M  V30 10522 H 1344.47 -1.22639 4.93799 0
M  V30 10523 H 1344.09 -1.56819 1.27167 0
M  V30 10524 H 1344.28 -2.41062 2.83063 0
M  V30 10525 P 1342.63 6.144 6.45285 0
M  V30 10526 O 1342.41 7.54673 6.86199 0
M  V30 10527 O 1341.84 5.12391 7.179 0
M  V30 10528 O 1342.38 5.99158 4.88404 0
M  V30 10529 C 1343.32 6.60234 3.96415 0
M  V30 10530 C 1342.59 7.08259 2.72856 0
M  V30 10531 O 1342.38 5.9427 1.83651 0
M  V30 10532 C 1341.19 7.64886 2.9555 0
M  V30 10533 O 1340.8 8.53963 1.90717 0
M  V30 10534 C 1340.31 6.4116 2.90739 0
M  V30 10535 C 1341.02 5.55375 1.86963 0
M  V30 10536 N 1340.97 4.09664 2.15742 0
M  V30 10537 H 1343.81 7.45574 4.45629 0
M  V30 10538 H 1344.08 5.86232 3.67314 0
M  V30 10539 H 1343.22 7.84412 2.24479 0
M  V30 10540 P 1339.25 8.7635 1.60911 0
M  V30 10541 O 1339.03 10.1388 1.11561 0
M  V30 10542 O 1338.46 8.36503 2.79617 0
M  V30 10543 O 1339 7.71806 0.42951 0
M  V30 10544 C 1339.94 7.67148 -0.673689 0
M  V30 10545 C 1339.21 7.33374 -1.95559 0
M  V30 10546 O 1339 5.88721 -2.00726 0
M  V30 10547 C 1337.81 7.92526 -2.10483 0
M  V30 10548 O 1337.42 8.02971 -3.47653 0
M  V30 10549 C 1336.93 6.89602 -1.41652 0
M  V30 10550 C 1337.64 5.59201 -1.75185 0
M  V30 10551 N 1337.59 4.58235 -0.662552 0
M  V30 10552 H 1340.43 8.65116 -0.777161 0
M  V30 10553 H 1340.7 6.90173 -0.474152 0
M  V30 10554 H 1339.84 7.66548 -2.79458 0
M  V30 10555 P 1335.87 8.03563 -3.84925 0
M  V30 10556 O 1335.65 8.85821 -5.0569 0
M  V30 10557 O 1335.08 8.41101 -2.65469 0
M  V30 10558 O 1335.62 6.4965 -4.18908 0
M  V30 10559 C 1336.56 5.81037 -5.05421 0
M  V30 10560 C 1335.83 4.78366 -5.89277 0
M  V30 10561 O 1335.62 3.58302 -5.08433 0
M  V30 10562 C 1334.43 5.17448 -6.36119 0
M  V30 10563 O 1334.04 4.45271 -7.53232 0
M  V30 10564 C 1333.55 4.74639 -5.19936 0
M  V30 10565 C 1334.26 3.49432 -4.70418 0
M  V30 10566 N 1334.21 3.31776 -3.22945 0
M  V30 10567 H 1337.05 6.54213 -5.71376 0
M  V30 10568 H 1337.32 5.30492 -4.44033 0
M  V30 10569 H 1336.46 4.55889 -6.76652 0
M  V30 10570 P 1332.49 4.23843 -7.83734 0
M  V30 10571 O 1332.27 4.19407 -9.29784 0
M  V30 10572 O 1331.7 5.24426 -7.09156 0
M  V30 10573 O 1332.24 2.7935 -7.20758 0
M  V30 10574 C 1333.18 1.7299 -7.50419 0
M  V30 10575 C 1332.45 0.406376 -7.57911 0
M  V30 10576 O 1332.24 -0.0897726 -6.21935 0
M  V30 10577 C 1331.05 0.447224 -8.1878 0
M  V30 10578 O 1330.66 -0.825065 -8.71101 0
M  V30 10579 C 1330.17 0.783801 -6.99623 0
M  V30 10580 C 1330.88 0.0619192 -5.85967 0
M  V30 10581 N 1330.83 0.790462 -4.56202 0
M  V30 10582 H 1333.67 1.93423 -8.4679 0
M  V30 10583 H 1333.94 1.68852 -6.70877 0
M  V30 10584 H 1333.08 -0.289041 -8.15388 0
M  V30 10585 H 1330.42 -0.927006 -5.72848 0
M  V30 10586 H 1330.14 1.86973 -6.82036 0
M  V30 10587 H 1329.15 0.403953 -7.13357 0
M  V30 10588 H 1330.98 1.20599 -8.97534 0
M  V30 10589 P 1329.11 -1.17771 -8.83182 0
M  V30 10590 O 1328.89 -2.07206 -9.98732 0
M  V30 10591 O 1328.32 0.0743816 -8.81969 0
M  V30 10592 O 1328.86 -1.97678 -7.474 0
M  V30 10593 C 1329.8 -3.01133 -7.08783 0
M  V30 10594 C 1329.07 -4.1203 -6.37546 0
M  V30 10595 O 1328.86 -3.72887 -4.9796 0
M  V30 10596 C 1327.67 -4.45085 -6.88694 0
M  V30 10597 O 1327.28 -5.78836 -6.56315 0
M  V30 10598 C 1326.79 -3.47817 -6.12078 0
M  V30 10599 C 1327.5 -3.39414 -4.77697 0
M  V30 10600 N 1327.45 -2.04615 -4.15333 0
M  V30 10601 C 1327.3 -1.96929 -2.77162 0
M  V30 10602 O 1327.21 -3.02017 -2.12006 0
M  V30 10603 N 1327.25 -0.55485 -2.24237 0
M  V30 10604 C 1327.35 0.367808 -2.9169 0
M  V30 10605 N 1327.3 1.53426 -2.29427 0
M  V30 10606 C 1327.5 0.319148 -4.33828 0
M  V30 10607 C 1327.55 -0.920672 -4.90433 0
M  V30 10608 H 1330.29 -3.41209 -7.98667 0
M  V30 10609 H 1330.56 -2.5837 -6.41742 0
M  V30 10610 H 1329.7 -5.02718 -6.42752 0
M  V30 10611 H 1327.04 -4.11779 -4.09026 0
M  V30 10612 H 1326.76 -2.49661 -6.61772 0
M  V30 10613 H 1325.77 -3.86674 -6.00946 0
M  V30 10614 H 1327.6 -4.29991 -7.97006 0
M  V30 10615 H 1327.68 -1.00589 -5.98303 0
M  V30 10616 H 1327.57 1.22639 -4.93799 0
M  V30 10617 H 1327.19 1.56819 -1.27167 0
M  V30 10618 H 1327.38 2.41062 -2.83063 0
M  V30 10619 P 1325.73 -6.144 -6.45285 0
M  V30 10620 O 1325.51 -7.54673 -6.86199 0
M  V30 10621 O 1324.94 -5.12391 -7.179 0
M  V30 10622 O 1325.48 -5.99158 -4.88404 0
M  V30 10623 C 1326.42 -6.60234 -3.96415 0
M  V30 10624 C 1325.69 -7.08259 -2.72856 0
M  V30 10625 O 1325.48 -5.9427 -1.83651 0
M  V30 10626 C 1324.29 -7.64886 -2.9555 0
M  V30 10627 O 1323.9 -8.53963 -1.90717 0
M  V30 10628 C 1323.41 -6.4116 -2.90739 0
M  V30 10629 C 1324.12 -5.55375 -1.86963 0
M  V30 10630 N 1324.07 -4.09664 -2.15742 0
M  V30 10631 C 1324.15 -3.44381 -3.37233 0
M  V30 10632 N 1324.07 -2.14131 -3.28347 0
M  V30 10633 C 1323.93 -1.90247 -1.91588 0
M  V30 10634 C 1323.8 -0.683992 -1.20892 0
M  V30 10635 N 1323.68 -0.903396 0.173998 0
M  V30 10636 C 1323.68 -2.14171 0.784879 0
M  V30 10637 N 1323.55 -2.1435 2.11317 0
M  V30 10638 N 1323.81 -3.28784 0.119316 0
M  V30 10639 C 1323.93 -3.0977 -1.22194 0
M  V30 10640 H 1326.91 -7.45574 -4.45629 0
M  V30 10641 H 1327.18 -5.86232 -3.67314 0
M  V30 10642 H 1326.32 -7.84412 -2.24479 0
M  V30 10643 P 1322.35 -8.7635 -1.60911 0
M  V30 10644 O 1322.13 -10.1388 -1.11561 0
M  V30 10645 O 1321.56 -8.36503 -2.79617 0
M  V30 10646 O 1322.1 -7.71806 -0.42951 0
M  V30 10647 C 1323.04 -7.66948 0.673514 0
M  V30 10648 C 1322.31 -7.33374 1.95559 0
M  V30 10649 O 1322.1 -5.88721 2.00726 0
M  V30 10650 C 1320.91 -7.92218 2.1125 0
M  V30 10651 O 1320.52 -8.02971 3.47653 0
M  V30 10652 C 1320.03 -6.89504 1.41631 0
M  V30 10653 C 1320.74 -5.59106 1.75155 0
M  V30 10654 N 1320.69 -4.58136 0.662409 0
M  V30 10655 C 1320.54 -3.26059 1.02863 0
M  V30 10656 O 1320.45 -2.90743 2.19009 0
M  V30 10657 N 1320.5 -2.35995 -0.0155585 0
M  V30 10658 C 1320.59 -2.65248 -1.35603 0
M  V30 10659 O 1320.54 -1.75605 -2.20651 0
M  V30 10660 C 1320.74 -4.05747 -1.64698 0
M  V30 10661 C 1320.85 -4.42345 -3.09553 0
M  V30 10662 C 1320.79 -4.96734 -0.652411 0
M  V30 10663 H 1323.53 -8.64917 0.776982 0
M  V30 10664 H 1323.8 -6.89974 0.474015 0
M  V30 10665 H 1322.94 -7.66548 2.79458 0
M  V30 10666 H 1320.28 -5.16076 2.65138 0
M  V30 10667 H 1320 -7.06433 0.329384 0
M  V30 10668 H 1319.01 -6.90829 1.81996 0
M  V30 10669 H 1320.84 -8.90774 1.62639 0
M  V30 10670 H 1320.91 -6.02181 -0.895285 0
M  V30 10671 H 1319.88 -4.80252 -3.45468 0
M  V30 10672 H 1321.62 -5.20015 -3.22119 0
M  V30 10673 H 1321.13 -3.53269 -3.67833 0
M  V30 10674 H 1320.4 -1.39558 0.227499 0
M  V30 10675 P 1318.97 -8.03563 3.84925 0
M  V30 10676 O 1318.75 -8.85821 5.0569 0
M  V30 10677 O 1318.18 -8.41101 2.65469 0
M  V30 10678 O 1318.72 -6.49734 4.18962 0
M  V30 10679 C 1319.66 -5.81037 5.05421 0
M  V30 10680 C 1318.93 -4.79018 5.88876 0
M  V30 10681 O 1318.72 -3.58359 5.08515 0
M  V30 10682 C 1317.53 -5.17448 6.36119 0
M  V30 10683 O 1317.14 -4.45322 7.53318 0
M  V30 10684 C 1316.65 -4.74639 5.19936 0
M  V30 10685 C 1317.36 -3.49432 4.70418 0
M  V30 10686 N 1317.31 -3.31776 3.22945 0
M  V30 10687 C 1317.16 -2.02742 2.72939 0
M  V30 10688 O 1317.07 -1.08301 3.52749 0
M  V30 10689 N 1317.11 -1.96117 1.22063 0
M  V30 10690 C 1317.21 -2.8878 0.551566 0
M  V30 10691 N 1317.16 -2.65609 -0.750198 0
M  V30 10692 C 1317.36 -4.22457 1.03707 0
M  V30 10693 C 1317.41 -4.37979 2.39113 0
M  V30 10694 H 1320.15 -6.54138 5.7131 0
M  V30 10695 H 1320.42 -5.30492 4.44033 0
M  V30 10696 H 1319.56 -4.55945 6.76735 0
M  V30 10697 H 1316.9 -2.6176 5.18021 0
M  V30 10698 H 1316.62 -5.52233 4.41941 0
M  V30 10699 H 1315.63 -4.52045 5.53452 0
M  V30 10700 H 1317.46 -6.25124 6.55234 0
M  V30 10701 H 1317.54 -5.37936 2.80552 0
M  V30 10702 H 1317.43 -5.07528 0.359553 0
M  V30 10703 H 1317.05 -1.69403 -1.09847 0
M  V30 10704 H 1317.24 -3.43701 -1.41792 0
M  V30 10705 P 1315.59 -4.23843 7.83734 0
M  V30 10706 O 1315.37 -4.19407 9.29784 0
M  V30 10707 O 1314.8 -5.24426 7.09156 0
M  V30 10708 O 1315.34 -2.79386 7.20852 0
M  V30 10709 C 1316.28 -1.7299 7.50419 0
M  V30 10710 C 1315.55 -0.41401 7.5797 0
M  V30 10711 O 1315.34 0.089787 6.22035 0
M  V30 10712 C 1314.15 -0.447224 8.1878 0
M  V30 10713 O 1313.76 0.825159 8.71201 0
M  V30 10714 C 1313.27 -0.783801 6.99623 0
M  V30 10715 C 1313.98 -0.0619192 5.85967 0
M  V30 10716 N 1313.93 -0.7859 4.56281 0
M  V30 10717 C 1313.78 -0.0359258 3.39981 0
M  V30 10718 O 1313.69 1.19723 3.49038 0
M  V30 10719 N 1313.73 -0.869151 2.14025 0
M  V30 10720 C 1313.83 -2.01207 2.14363 0
M  V30 10721 N 1313.78 -2.58978 0.954287 0
M  V30 10722 C 1313.98 -2.80817 3.32215 0
M  V30 10723 C 1314.03 -2.13785 4.50884 0
M  V30 10724 H 1316.77 -1.93401 8.46693 0
M  V30 10725 H 1317.04 -1.68181 6.71046 0
M  V30 10726 H 1316.18 0.289076 8.15488 0
M  V30 10727 H 1313.52 0.927166 5.72947 0
M  V30 10728 H 1313.24 -1.87 6.82132 0
M  V30 10729 H 1312.25 -0.404009 7.13457 0
M  V30 10730 H 1314.08 -1.20599 8.97534 0
M  V30 10731 H 1314.16 -2.70295 5.43162 0
M  V30 10732 H 1314.05 -3.89465 3.27406 0
M  V30 10733 H 1313.67 -2.01616 0.107046 0
M  V30 10734 H 1313.86 -3.61403 0.873101 0
M  V30 10735 P 1312.21 1.17771 8.83182 0
M  V30 10736 O 1311.99 2.07206 9.98732 0
M  V30 10737 O 1311.42 -0.0743816 8.81969 0
M  V30 10738 O 1311.96 1.97652 7.47304 0
M  V30 10739 C 1312.9 3.01133 7.08783 0
M  V30 10740 C 1312.17 4.12613 6.37049 0
M  V30 10741 O 1311.96 3.72827 4.97879 0
M  V30 10742 C 1310.77 4.45085 6.88694 0
M  V30 10743 O 1310.38 5.7877 6.5624 0
M  V30 10744 C 1309.89 3.47817 6.12078 0
M  V30 10745 C 1310.6 3.39414 4.77697 0
M  V30 10746 N 1310.55 2.04199 4.15538 0
M  V30 10747 H 1313.39 3.41248 7.98759 0
M  V30 10748 H 1313.66 2.57728 6.42 0
M  V30 10749 H 1312.8 5.02657 6.42673 0
M  V30 10750 H 1310.14 4.11708 4.08956 0
M  V30 10751 H 1309.86 2.49626 6.61679 0
M  V30 10752 H 1308.87 3.8662 6.00862 0
M  V30 10753 H 1310.7 4.29991 7.97006 0
M  V30 10754 P 1308.83 6.144 6.45285 0
M  V30 10755 O 1308.61 7.54673 6.86199 0
M  V30 10756 O 1308.04 5.12391 7.179 0
M  V30 10757 O 1308.58 5.99158 4.88404 0
M  V30 10758 C 1309.52 6.60062 3.96313 0
M  V30 10759 C 1308.79 7.08259 2.72856 0
M  V30 10760 O 1308.58 5.9427 1.83651 0
M  V30 10761 C 1307.39 7.65087 2.94749 0
M  V30 10762 O 1307 8.53963 1.90717 0
M  V30 10763 C 1306.51 6.41069 2.90698 0
M  V30 10764 C 1307.22 5.5528 1.86931 0
M  V30 10765 N 1307.17 4.09575 2.15696 0
M  V30 10766 C 1307.02 3.24249 1.08435 0
M  V30 10767 O 1306.93 3.63946 -0.0628747 0
M  V30 10768 N 1306.98 1.90009 1.39973 0
M  V30 10769 C 1307.07 1.34884 2.65614 0
M  V30 10770 O 1307.02 0.123716 2.81728 0
M  V30 10771 C 1307.22 2.3145 3.71736 0
M  V30 10772 C 1307.33 1.75913 5.10438 0
M  V30 10773 C 1307.27 3.63518 3.44754 0
M  V30 10774 H 1310.01 7.45402 4.45526 0
M  V30 10775 H 1310.28 5.86062 3.67208 0
M  V30 10776 H 1309.42 7.84412 2.24479 0
M  V30 10777 H 1306.76 5.73358 0.888409 0
M  V30 10778 H 1306.48 5.90877 3.88583 0
M  V30 10779 H 1305.49 6.65867 2.58821 0
M  V30 10780 H 1307.32 8.16248 3.92006 0
M  V30 10781 H 1307.39 4.34551 4.26383 0
M  V30 10782 H 1306.36 1.85471 5.61775 0
M  V30 10783 H 1308.1 2.31364 5.66257 0
M  V30 10784 H 1307.61 0.695936 5.05229 0
M  V30 10785 H 1306.88 1.26277 0.63625 0
M  V30 10786 P 1305.45 8.7635 1.60911 0
M  V30 10787 O 1305.23 10.1388 1.11561 0
M  V30 10788 O 1304.66 8.36503 2.79617 0
M  V30 10789 O 1305.2 7.71906 0.429565 0
M  V30 10790 C 1306.14 7.67148 -0.673689 0
M  V30 10791 C 1305.41 7.33666 -1.94851 0
M  V30 10792 O 1305.2 5.88816 -2.00759 0
M  V30 10793 C 1304.01 7.92526 -2.10483 0
M  V30 10794 O 1303.62 8.03063 -3.47693 0
M  V30 10795 C 1303.13 6.89602 -1.41652 0
M  V30 10796 C 1303.84 5.59201 -1.75185 0
M  V30 10797 N 1303.79 4.58235 -0.662552 0
M  V30 10798 C 1303.64 3.24451 -1.01643 0
M  V30 10799 O 1303.55 2.94958 -2.21722 0
M  V30 10800 N 1303.59 2.30408 0.165238 0
M  V30 10801 C 1303.69 2.66048 1.25118 0
M  V30 10802 N 1303.64 1.70787 2.16813 0
M  V30 10803 C 1303.84 4.02732 1.64413 0
M  V30 10804 C 1303.89 4.9488 0.63991 0
M  V30 10805 H 1306.63 8.65017 -0.777072 0
M  V30 10806 H 1306.9 6.90173 -0.474152 0
M  V30 10807 H 1306.04 7.66642 -2.79492 0
M  V30 10808 H 1303.38 5.16254 -2.65229 0
M  V30 10809 H 1303.1 7.06532 -0.329431 0
M  V30 10810 H 1302.11 6.91023 -1.82047 0
M  V30 10811 H 1303.94 8.90873 -1.62657 0
M  V30 10812 H 1304.02 6.00104 0.892197 0
M  V30 10813 H 1303.91 4.31733 2.69229 0
M  V30 10814 H 1303.53 0.724835 1.8844 0
M  V30 10815 H 1303.72 1.94716 3.16734 0
M  V30 10816 P 1302.07 8.03563 -3.84925 0
M  V30 10817 O 1301.85 8.85821 -5.0569 0
M  V30 10818 O 1301.28 8.41101 -2.65469 0
M  V30 10819 O 1301.82 6.4965 -4.18908 0
M  V30 10820 C 1302.76 5.80886 -5.05289 0
M  V30 10821 C 1302.03 4.78366 -5.89277 0
M  V30 10822 O 1301.82 3.58302 -5.08433 0
M  V30 10823 C 1300.63 5.16748 -6.36559 0
M  V30 10824 O 1300.24 4.45271 -7.53232 0
M  V30 10825 C 1299.75 4.74572 -5.19863 0
M  V30 10826 C 1300.46 3.49373 -4.70338 0
M  V30 10827 N 1300.41 3.31704 -3.22876 0
M  V30 10828 C 1300.26 2.03326 -2.74871 0
M  V30 10829 O 1300.17 1.06486 -3.48076 0
M  V30 10830 N 1300.22 1.91838 -1.37456 0
M  V30 10831 C 1300.31 2.94295 -0.462035 0
M  V30 10832 O 1300.26 2.71763 0.752928 0
M  V30 10833 C 1300.46 4.25064 -1.05249 0
M  V30 10834 C 1300.57 5.39815 -0.095697 0
M  V30 10835 C 1300.51 4.40214 -2.39192 0
M  V30 10836 H 1303.25 6.54063 -5.71245 0
M  V30 10837 H 1303.52 5.30339 -4.43905 0
M  V30 10838 H 1302.66 4.55889 -6.76652 0
M  V30 10839 H 1300 2.6167 -5.17842 0
M  V30 10840 H 1299.72 5.52155 -4.41878 0
M  V30 10841 H 1298.73 4.51918 -5.53297 0
M  V30 10842 H 1300.56 6.25055 -6.55162 0
M  V30 10843 H 1300.63 5.39798 -2.81523 0
M  V30 10844 H 1299.6 5.91593 -0.0279582 0
M  V30 10845 H 1301.34 6.10038 -0.450573 0
M  V30 10846 H 1300.85 5.02007 0.89937 0
M  V30 10847 H 1300.12 0.995326 -1.00435 0
M  V30 10848 P 1298.69 4.23843 -7.83734 0
M  V30 10849 O 1298.47 4.19407 -9.29784 0
M  V30 10850 O 1297.9 5.24426 -7.09156 0
M  V30 10851 O 1298.44 2.7935 -7.20758 0
M  V30 10852 C 1299.38 1.7299 -7.50419 0
M  V30 10853 C 1298.65 0.406376 -7.57911 0
M  V30 10854 O 1298.44 -0.0897726 -6.21935 0
M  V30 10855 C 1297.25 0.447224 -8.1878 0
M  V30 10856 O 1296.86 -0.825065 -8.71101 0
M  V30 10857 C 1296.37 0.783801 -6.99623 0
M  V30 10858 C 1297.08 0.0619192 -5.85967 0
M  V30 10859 N 1297.03 0.790462 -4.56202 0
M  V30 10860 C 1297.11 2.13895 -4.34171 0
M  V30 10861 N 1297.04 2.46449 -3.08687 0
M  V30 10862 C 1296.89 1.2525 -2.43697 0
M  V30 10863 C 1296.76 0.914535 -1.07318 0
M  V30 10864 N 1296.75 1.80782 -0.0887348 0
M  V30 10865 N 1296.64 -0.386745 -0.768133 0
M  V30 10866 C 1296.65 -1.28096 -1.75159 0
M  V30 10867 N 1296.77 -1.09708 -3.04861 0
M  V30 10868 C 1296.89 0.214857 -3.32306 0
M  V30 10869 H 1299.87 1.93423 -8.4679 0
M  V30 10870 H 1300.14 1.68852 -6.70877 0
M  V30 10871 H 1299.28 -0.289041 -8.15388 0
M  V30 10872 H 1296.62 -0.927006 -5.72848 0
M  V30 10873 H 1296.34 1.86973 -6.82036 0
M  V30 10874 H 1295.35 0.403953 -7.13357 0
M  V30 10875 H 1297.18 1.20599 -8.97534 0
M  V30 10876 H 1297.22 2.86846 -5.14318 0
M  V30 10877 H 1296.84 2.81082 -0.302037 0
M  V30 10878 H 1296.65 1.49688 0.889064 0
M  V30 10879 H 1296.55 -2.31317 -1.43855 0
M  V30 10880 P 1295.31 -1.17771 -8.83182 0
M  V30 10881 O 1295.09 -2.07206 -9.98732 0
M  V30 10882 O 1294.52 0.0743816 -8.81969 0
M  V30 10883 O 1295.06 -1.97652 -7.47304 0
M  V30 10884 C 1296 -3.01133 -7.08783 0
M  V30 10885 C 1295.27 -4.12613 -6.37049 0
M  V30 10886 O 1295.06 -3.72827 -4.97879 0
M  V30 10887 C 1293.87 -4.45085 -6.88694 0
M  V30 10888 O 1293.48 -5.7877 -6.5624 0
M  V30 10889 C 1292.99 -3.47817 -6.12078 0
M  V30 10890 C 1293.7 -3.39414 -4.77697 0
M  V30 10891 N 1293.65 -2.04199 -4.15538 0
M  V30 10892 H 1296.49 -3.41248 -7.98759 0
M  V30 10893 H 1296.76 -2.57728 -6.42 0
M  V30 10894 H 1295.9 -5.02657 -6.42673 0
M  V30 10895 H 1293.24 -4.11708 -4.08956 0
M  V30 10896 H 1292.96 -2.49626 -6.61679 0
M  V30 10897 H 1291.97 -3.8662 -6.00862 0
M  V30 10898 H 1293.8 -4.29991 -7.97006 0
M  V30 10899 P 1291.93 -6.144 -6.45285 0
M  V30 10900 O 1291.71 -7.54673 -6.86199 0
M  V30 10901 O 1291.14 -5.12391 -7.179 0
M  V30 10902 O 1291.68 -5.99158 -4.88404 0
M  V30 10903 C 1292.62 -6.60234 -3.96415 0
M  V30 10904 C 1291.89 -7.08259 -2.72856 0
M  V30 10905 O 1291.68 -5.9427 -1.83651 0
M  V30 10906 C 1290.49 -7.64886 -2.9555 0
M  V30 10907 O 1290.1 -8.53963 -1.90717 0
M  V30 10908 C 1289.61 -6.4116 -2.90739 0
M  V30 10909 C 1290.32 -5.55375 -1.86963 0
M  V30 10910 N 1290.27 -4.09664 -2.15742 0
M  V30 10911 H 1293.11 -7.45574 -4.45629 0
M  V30 10912 H 1293.38 -5.86232 -3.67314 0
M  V30 10913 H 1292.52 -7.84412 -2.24479 0
M  V30 10914 P 1288.55 -8.7635 -1.60911 0
M  V30 10915 O 1288.33 -10.1388 -1.11561 0
M  V30 10916 O 1287.76 -8.36503 -2.79617 0
M  V30 10917 O 1288.3 -7.71806 -0.42951 0
M  V30 10918 C 1289.24 -7.67148 0.673689 0
M  V30 10919 C 1288.51 -7.33374 1.95559 0
M  V30 10920 O 1288.3 -5.88721 2.00726 0
M  V30 10921 C 1287.11 -7.92526 2.10483 0
M  V30 10922 O 1286.72 -8.02971 3.47653 0
M  V30 10923 C 1286.23 -6.89602 1.41652 0
M  V30 10924 C 1286.94 -5.59201 1.75185 0
M  V30 10925 N 1286.89 -4.58235 0.662552 0
M  V30 10926 H 1289.73 -8.65116 0.777161 0
M  V30 10927 H 1290 -6.90173 0.474152 0
M  V30 10928 H 1289.14 -7.66548 2.79458 0
M  V30 10929 P 1285.17 -8.03563 3.84925 0
M  V30 10930 O 1284.95 -8.85821 5.0569 0
M  V30 10931 O 1284.38 -8.41101 2.65469 0
M  V30 10932 O 1284.92 -6.4965 4.18908 0
M  V30 10933 C 1285.86 -5.81037 5.05421 0
M  V30 10934 C 1285.13 -4.78366 5.89277 0
M  V30 10935 O 1284.92 -3.58302 5.08433 0
M  V30 10936 C 1283.73 -5.17448 6.36119 0
M  V30 10937 O 1283.34 -4.45271 7.53232 0
M  V30 10938 C 1282.85 -4.74639 5.19936 0
M  V30 10939 C 1283.56 -3.49432 4.70418 0
M  V30 10940 N 1283.51 -3.31776 3.22945 0
M  V30 10941 H 1286.35 -6.54213 5.71376 0
M  V30 10942 H 1286.62 -5.30492 4.44033 0
M  V30 10943 H 1285.76 -4.55889 6.76652 0
M  V30 10944 P 1281.79 -4.23843 7.83734 0
M  V30 10945 O 1281.57 -4.19407 9.29784 0
M  V30 10946 O 1281 -5.24426 7.09156 0
M  V30 10947 O 1281.54 -2.7935 7.20758 0
M  V30 10948 C 1282.48 -1.7299 7.50419 0
M  V30 10949 C 1281.75 -0.406376 7.57911 0
M  V30 10950 O 1281.54 0.0897726 6.21935 0
M  V30 10951 C 1280.35 -0.447224 8.1878 0
M  V30 10952 O 1279.96 0.825065 8.71101 0
M  V30 10953 C 1279.47 -0.783801 6.99623 0
M  V30 10954 C 1280.18 -0.0619192 5.85967 0
M  V30 10955 N 1280.13 -0.7859 4.56281 0
M  V30 10956 H 1282.97 -1.93423 8.4679 0
M  V30 10957 H 1283.24 -1.68181 6.71046 0
M  V30 10958 H 1282.38 0.289041 8.15388 0
M  V30 10959 P 1278.41 1.17771 8.83182 0
M  V30 10960 O 1278.19 2.07206 9.98732 0
M  V30 10961 O 1277.62 -0.0743816 8.81969 0
M  V30 10962 O 1278.16 1.97652 7.47304 0
M  V30 10963 C 1279.1 3.01133 7.08783 0
M  V30 10964 C 1278.37 4.12613 6.37049 0
M  V30 10965 O 1278.16 3.72827 4.97879 0
M  V30 10966 C 1276.97 4.45085 6.88694 0
M  V30 10967 O 1276.58 5.7877 6.5624 0
M  V30 10968 C 1276.09 3.47817 6.12078 0
M  V30 10969 C 1276.8 3.39414 4.77697 0
M  V30 10970 N 1276.75 2.04615 4.15333 0
M  V30 10971 H 1279.59 3.41248 7.98759 0
M  V30 10972 H 1279.86 2.5837 6.41742 0
M  V30 10973 H 1279 5.02657 6.42673 0
M  V30 10974 P 1275.03 6.144 6.45285 0
M  V30 10975 O 1274.81 7.54673 6.86199 0
M  V30 10976 O 1274.24 5.12391 7.179 0
M  V30 10977 O 1274.78 5.99158 4.88404 0
M  V30 10978 C 1275.72 6.60234 3.96415 0
M  V30 10979 C 1274.99 7.08259 2.72856 0
M  V30 10980 O 1274.78 5.9427 1.83651 0
M  V30 10981 C 1273.59 7.64886 2.9555 0
M  V30 10982 O 1273.2 8.53963 1.90717 0
M  V30 10983 C 1272.71 6.4116 2.90739 0
M  V30 10984 C 1273.42 5.55375 1.86963 0
M  V30 10985 N 1273.37 4.09664 2.15742 0
M  V30 10986 H 1276.21 7.45574 4.45629 0
M  V30 10987 H 1276.48 5.86232 3.67314 0
M  V30 10988 H 1275.62 7.84412 2.24479 0
M  V30 10989 P 1271.65 8.7635 1.60911 0
M  V30 10990 O 1271.43 10.1388 1.11561 0
M  V30 10991 O 1270.86 8.36503 2.79617 0
M  V30 10992 O 1271.4 7.71806 0.42951 0
M  V30 10993 C 1272.34 7.67148 -0.673689 0
M  V30 10994 C 1271.61 7.33374 -1.95559 0
M  V30 10995 O 1271.4 5.88721 -2.00726 0
M  V30 10996 C 1270.21 7.92526 -2.10483 0
M  V30 10997 O 1269.82 8.02971 -3.47653 0
M  V30 10998 C 1269.33 6.89602 -1.41652 0
M  V30 10999 C 1270.04 5.59201 -1.75185 0
M  V30 11000 N 1269.99 4.58235 -0.662552 0
M  V30 11001 C 1270.07 4.7683 0.704049 0
M  V30 11002 N 1269.99 3.66233 1.39775 0
M  V30 11003 C 1269.85 2.66526 0.431739 0
M  V30 11004 C 1269.72 1.26394 0.575992 0
M  V30 11005 N 1269.6 0.62859 -0.67177 0
M  V30 11006 C 1269.6 1.27134 -1.89385 0
M  V30 11007 N 1269.47 0.492035 -2.96951 0
M  V30 11008 N 1269.73 2.58978 -2.02907 0
M  V30 11009 C 1269.85 3.22433 -0.832218 0
M  V30 11010 H 1272.83 8.65116 -0.777161 0
M  V30 11011 H 1273.1 6.90173 -0.474152 0
M  V30 11012 H 1272.24 7.66548 -2.79458 0
M  V30 11013 P 1268.27 8.03563 -3.84925 0
M  V30 11014 O 1268.05 8.85821 -5.0569 0
M  V30 11015 O 1267.48 8.41101 -2.65469 0
M  V30 11016 O 1268.02 6.4965 -4.18908 0
M  V30 11017 C 1268.96 5.80886 -5.05289 0
M  V30 11018 C 1268.23 4.78366 -5.89277 0
M  V30 11019 O 1268.02 3.58302 -5.08433 0
M  V30 11020 C 1266.83 5.16748 -6.36559 0
M  V30 11021 O 1266.44 4.45271 -7.53232 0
M  V30 11022 C 1265.95 4.74572 -5.19863 0
M  V30 11023 C 1266.66 3.49373 -4.70338 0
M  V30 11024 N 1266.61 3.31704 -3.22876 0
M  V30 11025 C 1266.46 2.03326 -2.74871 0
M  V30 11026 O 1266.37 1.06486 -3.48076 0
M  V30 11027 N 1266.42 1.91838 -1.37456 0
M  V30 11028 C 1266.51 2.94295 -0.462035 0
M  V30 11029 C 1266.66 4.25064 -1.05249 0
M  V30 11030 C 1266.71 4.40214 -2.39192 0
M  V30 11031 H 1269.45 6.54063 -5.71245 0
M  V30 11032 H 1269.72 5.30339 -4.43905 0
M  V30 11033 H 1268.86 4.55889 -6.76652 0
M  V30 11034 H 1266.2 2.6167 -5.17842 0
M  V30 11035 H 1265.92 5.52155 -4.41878 0
M  V30 11036 H 1264.93 4.51918 -5.53297 0
M  V30 11037 H 1266.76 6.25055 -6.55162 0
M  V30 11038 H 1266.83 5.39798 -2.81523 0
M  V30 11039 P 1264.89 4.23843 -7.83734 0
M  V30 11040 O 1264.67 4.19407 -9.29784 0
M  V30 11041 O 1264.1 5.24426 -7.09156 0
M  V30 11042 O 1264.64 2.7935 -7.20758 0
M  V30 11043 C 1265.58 1.7299 -7.50419 0
M  V30 11044 C 1264.85 0.406376 -7.57911 0
M  V30 11045 O 1264.64 -0.0897726 -6.21935 0
M  V30 11046 C 1263.45 0.447224 -8.1878 0
M  V30 11047 O 1263.06 -0.825065 -8.71101 0
M  V30 11048 C 1262.57 0.783801 -6.99623 0
M  V30 11049 C 1263.28 0.0619192 -5.85967 0
M  V30 11050 N 1263.23 0.7859 -4.56281 0
M  V30 11051 H 1266.07 1.93423 -8.4679 0
M  V30 11052 H 1266.34 1.68181 -6.71046 0
M  V30 11053 H 1265.48 -0.289041 -8.15388 0
M  V30 11054 P 1261.51 -1.17771 -8.83182 0
M  V30 11055 O 1261.29 -2.07206 -9.98732 0
M  V30 11056 O 1260.72 0.0743816 -8.81969 0
M  V30 11057 O 1261.26 -1.97652 -7.47304 0
M  V30 11058 C 1262.2 -3.01133 -7.08783 0
M  V30 11059 C 1261.47 -4.12613 -6.37049 0
M  V30 11060 O 1261.26 -3.72827 -4.97879 0
M  V30 11061 C 1260.07 -4.45085 -6.88694 0
M  V30 11062 O 1259.68 -5.7877 -6.5624 0
M  V30 11063 C 1259.19 -3.47817 -6.12078 0
M  V30 11064 C 1259.9 -3.39414 -4.77697 0
M  V30 11065 N 1259.85 -2.04615 -4.15333 0
M  V30 11066 H 1262.69 -3.41248 -7.98759 0
M  V30 11067 H 1262.96 -2.5837 -6.41742 0
M  V30 11068 H 1262.1 -5.02657 -6.42673 0
M  V30 11069 P 1258.13 -6.144 -6.45285 0
M  V30 11070 O 1257.91 -7.54673 -6.86199 0
M  V30 11071 O 1257.34 -5.12391 -7.179 0
M  V30 11072 O 1257.88 -5.99158 -4.88404 0
M  V30 11073 C 1258.82 -6.60234 -3.96415 0
M  V30 11074 C 1258.09 -7.08259 -2.72856 0
M  V30 11075 O 1257.88 -5.9427 -1.83651 0
M  V30 11076 C 1256.69 -7.64886 -2.9555 0
M  V30 11077 O 1256.3 -8.53963 -1.90717 0
M  V30 11078 C 1255.81 -6.4116 -2.90739 0
M  V30 11079 C 1256.52 -5.55375 -1.86963 0
M  V30 11080 N 1256.47 -4.09664 -2.15742 0
M  V30 11081 C 1256.55 -3.44381 -3.37233 0
M  V30 11082 N 1256.47 -2.14131 -3.28347 0
M  V30 11083 C 1256.33 -1.90247 -1.91588 0
M  V30 11084 C 1256.2 -0.683992 -1.20892 0
M  V30 11085 N 1256.08 -0.903396 0.173998 0
M  V30 11086 C 1256.08 -2.14171 0.784879 0
M  V30 11087 N 1255.95 -2.1435 2.11317 0
M  V30 11088 N 1256.21 -3.28784 0.119316 0
M  V30 11089 C 1256.33 -3.0977 -1.22194 0
M  V30 11090 H 1259.31 -7.45574 -4.45629 0
M  V30 11091 H 1259.58 -5.86232 -3.67314 0
M  V30 11092 H 1258.72 -7.84412 -2.24479 0
M  V30 11093 P 1254.75 -8.7635 -1.60911 0
M  V30 11094 O 1254.53 -10.1388 -1.11561 0
M  V30 11095 O 1253.96 -8.36503 -2.79617 0
M  V30 11096 O 1254.5 -7.71806 -0.42951 0
M  V30 11097 C 1255.44 -7.66948 0.673514 0
M  V30 11098 C 1254.71 -7.33374 1.95559 0
M  V30 11099 O 1254.5 -5.88721 2.00726 0
M  V30 11100 C 1253.31 -7.92218 2.1125 0
M  V30 11101 O 1252.92 -8.02971 3.47653 0
M  V30 11102 C 1252.43 -6.89504 1.41631 0
M  V30 11103 C 1253.14 -5.59106 1.75155 0
M  V30 11104 N 1253.09 -4.58136 0.662409 0
M  V30 11105 C 1252.94 -3.26059 1.02863 0
M  V30 11106 O 1252.85 -2.90743 2.19009 0
M  V30 11107 N 1252.9 -2.35995 -0.0155585 0
M  V30 11108 C 1252.99 -2.65248 -1.35603 0
M  V30 11109 O 1252.94 -1.75605 -2.20651 0
M  V30 11110 C 1253.14 -4.05747 -1.64698 0
M  V30 11111 C 1253.25 -4.42345 -3.09553 0
M  V30 11112 C 1253.19 -4.96734 -0.652411 0
M  V30 11113 H 1255.93 -8.64917 0.776982 0
M  V30 11114 H 1256.2 -6.89974 0.474015 0
M  V30 11115 H 1255.34 -7.66548 2.79458 0
M  V30 11116 H 1252.68 -5.16076 2.65138 0
M  V30 11117 H 1252.4 -7.06433 0.329384 0
M  V30 11118 H 1251.41 -6.90829 1.81996 0
M  V30 11119 H 1253.24 -8.90774 1.62639 0
M  V30 11120 H 1253.31 -6.02181 -0.895285 0
M  V30 11121 H 1252.28 -4.80252 -3.45468 0
M  V30 11122 H 1254.02 -5.20015 -3.22119 0
M  V30 11123 H 1253.53 -3.53269 -3.67833 0
M  V30 11124 H 1252.8 -1.39558 0.227499 0
M  V30 11125 P 1251.37 -8.03563 3.84925 0
M  V30 11126 O 1251.15 -8.85821 5.0569 0
M  V30 11127 O 1250.58 -8.41101 2.65469 0
M  V30 11128 O 1251.12 -6.49734 4.18962 0
M  V30 11129 C 1252.06 -5.81037 5.05421 0
M  V30 11130 C 1251.33 -4.79018 5.88876 0
M  V30 11131 O 1251.12 -3.58359 5.08515 0
M  V30 11132 C 1249.93 -5.17448 6.36119 0
M  V30 11133 O 1249.54 -4.45322 7.53318 0
M  V30 11134 C 1249.05 -4.74639 5.19936 0
M  V30 11135 C 1249.76 -3.49432 4.70418 0
M  V30 11136 N 1249.71 -3.31776 3.22945 0
M  V30 11137 C 1249.56 -2.02742 2.72939 0
M  V30 11138 O 1249.47 -1.08301 3.52749 0
M  V30 11139 N 1249.51 -1.96117 1.22063 0
M  V30 11140 C 1249.61 -2.8878 0.551566 0
M  V30 11141 N 1249.56 -2.65609 -0.750198 0
M  V30 11142 C 1249.76 -4.22457 1.03707 0
M  V30 11143 C 1249.81 -4.37979 2.39113 0
M  V30 11144 H 1252.55 -6.54138 5.7131 0
M  V30 11145 H 1252.82 -5.30492 4.44033 0
M  V30 11146 H 1251.96 -4.55945 6.76735 0
M  V30 11147 H 1249.3 -2.6176 5.18021 0
M  V30 11148 H 1249.02 -5.52233 4.41941 0
M  V30 11149 H 1248.03 -4.52045 5.53452 0
M  V30 11150 H 1249.86 -6.25124 6.55234 0
M  V30 11151 H 1249.94 -5.37936 2.80552 0
M  V30 11152 H 1249.83 -5.07528 0.359553 0
M  V30 11153 H 1249.45 -1.69403 -1.09847 0
M  V30 11154 H 1249.64 -3.43701 -1.41792 0
M  V30 11155 P 1247.99 -4.23843 7.83734 0
M  V30 11156 O 1247.77 -4.19407 9.29784 0
M  V30 11157 O 1247.2 -5.24426 7.09156 0
M  V30 11158 O 1247.74 -2.79386 7.20852 0
M  V30 11159 C 1248.68 -1.7299 7.50419 0
M  V30 11160 C 1247.95 -0.41401 7.5797 0
M  V30 11161 O 1247.74 0.089787 6.22035 0
M  V30 11162 C 1246.55 -0.447224 8.1878 0
M  V30 11163 O 1246.16 0.825159 8.71201 0
M  V30 11164 C 1245.67 -0.783801 6.99623 0
M  V30 11165 C 1246.38 -0.0619192 5.85967 0
M  V30 11166 N 1246.33 -0.7859 4.56281 0
M  V30 11167 C 1246.18 -0.0359258 3.39981 0
M  V30 11168 O 1246.09 1.19723 3.49038 0
M  V30 11169 N 1246.13 -0.869151 2.14025 0
M  V30 11170 C 1246.23 -2.01207 2.14363 0
M  V30 11171 N 1246.18 -2.58978 0.954287 0
M  V30 11172 C 1246.38 -2.80817 3.32215 0
M  V30 11173 C 1246.43 -2.13785 4.50884 0
M  V30 11174 H 1249.17 -1.93401 8.46693 0
M  V30 11175 H 1249.44 -1.68181 6.71046 0
M  V30 11176 H 1248.58 0.289076 8.15488 0
M  V30 11177 H 1245.92 0.927166 5.72947 0
M  V30 11178 H 1245.64 -1.87 6.82132 0
M  V30 11179 H 1244.65 -0.404009 7.13457 0
M  V30 11180 H 1246.48 -1.20599 8.97534 0
M  V30 11181 H 1246.56 -2.70295 5.43162 0
M  V30 11182 H 1246.45 -3.89465 3.27406 0
M  V30 11183 H 1246.07 -2.01616 0.107046 0
M  V30 11184 H 1246.26 -3.61403 0.873101 0
M  V30 11185 P 1244.61 1.17771 8.83182 0
M  V30 11186 O 1244.39 2.07206 9.98732 0
M  V30 11187 O 1243.82 -0.0743816 8.81969 0
M  V30 11188 O 1244.36 1.97652 7.47304 0
M  V30 11189 C 1245.3 3.01133 7.08783 0
M  V30 11190 C 1244.57 4.12613 6.37049 0
M  V30 11191 O 1244.36 3.72827 4.97879 0
M  V30 11192 C 1243.17 4.45085 6.88694 0
M  V30 11193 O 1242.78 5.7877 6.5624 0
M  V30 11194 C 1242.29 3.47817 6.12078 0
M  V30 11195 C 1243 3.39414 4.77697 0
M  V30 11196 N 1242.95 2.04199 4.15538 0
M  V30 11197 H 1245.79 3.41248 7.98759 0
M  V30 11198 H 1246.06 2.57728 6.42 0
M  V30 11199 H 1245.2 5.02657 6.42673 0
M  V30 11200 H 1242.54 4.11708 4.08956 0
M  V30 11201 H 1242.26 2.49626 6.61679 0
M  V30 11202 H 1241.27 3.8662 6.00862 0
M  V30 11203 H 1243.1 4.29991 7.97006 0
M  V30 11204 P 1241.23 6.144 6.45285 0
M  V30 11205 O 1241.01 7.54673 6.86199 0
M  V30 11206 O 1240.44 5.12391 7.179 0
M  V30 11207 O 1240.98 5.99158 4.88404 0
M  V30 11208 C 1241.92 6.60062 3.96313 0
M  V30 11209 C 1241.19 7.08259 2.72856 0
M  V30 11210 O 1240.98 5.9427 1.83651 0
M  V30 11211 C 1239.79 7.65087 2.94749 0
M  V30 11212 O 1239.4 8.53963 1.90717 0
M  V30 11213 C 1238.91 6.41069 2.90698 0
M  V30 11214 C 1239.62 5.5528 1.86931 0
M  V30 11215 N 1239.57 4.09575 2.15696 0
M  V30 11216 C 1239.42 3.24249 1.08435 0
M  V30 11217 O 1239.33 3.63946 -0.0628747 0
M  V30 11218 N 1239.38 1.90009 1.39973 0
M  V30 11219 C 1239.47 1.34884 2.65614 0
M  V30 11220 O 1239.42 0.123716 2.81728 0
M  V30 11221 C 1239.62 2.3145 3.71736 0
M  V30 11222 C 1239.73 1.75913 5.10438 0
M  V30 11223 C 1239.67 3.63518 3.44754 0
M  V30 11224 H 1242.41 7.45402 4.45526 0
M  V30 11225 H 1242.68 5.86062 3.67208 0
M  V30 11226 H 1241.82 7.84412 2.24479 0
M  V30 11227 H 1239.16 5.73358 0.888409 0
M  V30 11228 H 1238.88 5.90877 3.88583 0
M  V30 11229 H 1237.89 6.65867 2.58821 0
M  V30 11230 H 1239.72 8.16248 3.92006 0
M  V30 11231 H 1239.79 4.34551 4.26383 0
M  V30 11232 H 1238.76 1.85471 5.61775 0
M  V30 11233 H 1240.5 2.31364 5.66257 0
M  V30 11234 H 1240.01 0.695936 5.05229 0
M  V30 11235 H 1239.28 1.26277 0.63625 0
M  V30 11236 P 1237.85 8.7635 1.60911 0
M  V30 11237 O 1237.63 10.1388 1.11561 0
M  V30 11238 O 1237.06 8.36503 2.79617 0
M  V30 11239 O 1237.6 7.71906 0.429565 0
M  V30 11240 C 1238.54 7.67148 -0.673689 0
M  V30 11241 C 1237.81 7.33666 -1.94851 0
M  V30 11242 O 1237.6 5.88816 -2.00759 0
M  V30 11243 C 1236.41 7.92526 -2.10483 0
M  V30 11244 O 1236.02 8.03063 -3.47693 0
M  V30 11245 C 1235.53 6.89602 -1.41652 0
M  V30 11246 C 1236.24 5.59201 -1.75185 0
M  V30 11247 N 1236.19 4.58235 -0.662552 0
M  V30 11248 C 1236.04 3.24451 -1.01643 0
M  V30 11249 O 1235.95 2.94958 -2.21722 0
M  V30 11250 N 1235.99 2.30408 0.165238 0
M  V30 11251 C 1236.09 2.66048 1.25118 0
M  V30 11252 N 1236.04 1.70787 2.16813 0
M  V30 11253 C 1236.24 4.02732 1.64413 0
M  V30 11254 C 1236.29 4.9488 0.63991 0
M  V30 11255 H 1239.03 8.65017 -0.777072 0
M  V30 11256 H 1239.3 6.90173 -0.474152 0
M  V30 11257 H 1238.44 7.66642 -2.79492 0
M  V30 11258 H 1235.78 5.16254 -2.65229 0
M  V30 11259 H 1235.5 7.06532 -0.329431 0
M  V30 11260 H 1234.51 6.91023 -1.82047 0
M  V30 11261 H 1236.34 8.90873 -1.62657 0
M  V30 11262 H 1236.42 6.00104 0.892197 0
M  V30 11263 H 1236.31 4.31733 2.69229 0
M  V30 11264 H 1235.93 0.724835 1.8844 0
M  V30 11265 H 1236.12 1.94716 3.16734 0
M  V30 11266 P 1234.47 8.03563 -3.84925 0
M  V30 11267 O 1234.25 8.85821 -5.0569 0
M  V30 11268 O 1233.68 8.41101 -2.65469 0
M  V30 11269 O 1234.22 6.4965 -4.18908 0
M  V30 11270 C 1235.16 5.80886 -5.05289 0
M  V30 11271 C 1234.43 4.78366 -5.89277 0
M  V30 11272 O 1234.22 3.58302 -5.08433 0
M  V30 11273 C 1233.03 5.16748 -6.36559 0
M  V30 11274 O 1232.64 4.45271 -7.53232 0
M  V30 11275 C 1232.15 4.74572 -5.19863 0
M  V30 11276 C 1232.86 3.49373 -4.70338 0
M  V30 11277 N 1232.81 3.31704 -3.22876 0
M  V30 11278 C 1232.66 2.03326 -2.74871 0
M  V30 11279 O 1232.57 1.06486 -3.48076 0
M  V30 11280 N 1232.62 1.91838 -1.37456 0
M  V30 11281 C 1232.71 2.94295 -0.462035 0
M  V30 11282 O 1232.66 2.71763 0.752928 0
M  V30 11283 C 1232.86 4.25064 -1.05249 0
M  V30 11284 C 1232.97 5.39815 -0.095697 0
M  V30 11285 C 1232.91 4.40214 -2.39192 0
M  V30 11286 H 1235.65 6.54063 -5.71245 0
M  V30 11287 H 1235.92 5.30339 -4.43905 0
M  V30 11288 H 1235.06 4.55889 -6.76652 0
M  V30 11289 H 1232.4 2.6167 -5.17842 0
M  V30 11290 H 1232.12 5.52155 -4.41878 0
M  V30 11291 H 1231.13 4.51918 -5.53297 0
M  V30 11292 H 1232.96 6.25055 -6.55162 0
M  V30 11293 H 1233.03 5.39798 -2.81523 0
M  V30 11294 H 1232 5.91593 -0.0279582 0
M  V30 11295 H 1233.74 6.10038 -0.450573 0
M  V30 11296 H 1233.25 5.02007 0.89937 0
M  V30 11297 H 1232.52 0.995326 -1.00435 0
M  V30 11298 P 1231.09 4.23843 -7.83734 0
M  V30 11299 O 1230.87 4.19407 -9.29784 0
M  V30 11300 O 1230.3 5.24426 -7.09156 0
M  V30 11301 O 1230.84 2.7935 -7.20758 0
M  V30 11302 C 1231.78 1.7299 -7.50419 0
M  V30 11303 C 1231.05 0.406376 -7.57911 0
M  V30 11304 O 1230.84 -0.0897726 -6.21935 0
M  V30 11305 C 1229.65 0.447224 -8.1878 0
M  V30 11306 O 1229.26 -0.825065 -8.71101 0
M  V30 11307 C 1228.77 0.783801 -6.99623 0
M  V30 11308 C 1229.48 0.0619192 -5.85967 0
M  V30 11309 N 1229.43 0.790462 -4.56202 0
M  V30 11310 C 1229.51 2.13895 -4.34171 0
M  V30 11311 N 1229.44 2.46449 -3.08687 0
M  V30 11312 C 1229.29 1.2525 -2.43697 0
M  V30 11313 C 1229.16 0.914535 -1.07318 0
M  V30 11314 N 1229.15 1.80782 -0.0887348 0
M  V30 11315 N 1229.04 -0.386745 -0.768133 0
M  V30 11316 C 1229.05 -1.28096 -1.75159 0
M  V30 11317 N 1229.17 -1.09708 -3.04861 0
M  V30 11318 C 1229.29 0.214857 -3.32306 0
M  V30 11319 H 1232.27 1.93423 -8.4679 0
M  V30 11320 H 1232.54 1.68852 -6.70877 0
M  V30 11321 H 1231.68 -0.289041 -8.15388 0
M  V30 11322 H 1229.02 -0.927006 -5.72848 0
M  V30 11323 H 1228.74 1.86973 -6.82036 0
M  V30 11324 H 1227.75 0.403953 -7.13357 0
M  V30 11325 H 1229.58 1.20599 -8.97534 0
M  V30 11326 H 1229.62 2.86846 -5.14318 0
M  V30 11327 H 1229.24 2.81082 -0.302037 0
M  V30 11328 H 1229.05 1.49688 0.889064 0
M  V30 11329 H 1228.95 -2.31317 -1.43855 0
M  V30 11330 P 1227.71 -1.17771 -8.83182 0
M  V30 11331 O 1227.49 -2.07206 -9.98732 0
M  V30 11332 O 1226.92 0.0743816 -8.81969 0
M  V30 11333 O 1227.46 -1.97652 -7.47304 0
M  V30 11334 C 1228.4 -3.01133 -7.08783 0
M  V30 11335 C 1227.67 -4.12613 -6.37049 0
M  V30 11336 O 1227.46 -3.72827 -4.97879 0
M  V30 11337 C 1226.27 -4.45085 -6.88694 0
M  V30 11338 O 1225.88 -5.7877 -6.5624 0
M  V30 11339 C 1225.39 -3.47817 -6.12078 0
M  V30 11340 C 1226.1 -3.39414 -4.77697 0
M  V30 11341 N 1226.05 -2.04199 -4.15538 0
M  V30 11342 H 1228.89 -3.41248 -7.98759 0
M  V30 11343 H 1229.16 -2.57728 -6.42 0
M  V30 11344 H 1228.3 -5.02657 -6.42673 0
M  V30 11345 H 1225.64 -4.11708 -4.08956 0
M  V30 11346 H 1225.36 -2.49626 -6.61679 0
M  V30 11347 H 1224.37 -3.8662 -6.00862 0
M  V30 11348 H 1226.2 -4.29991 -7.97006 0
M  V30 11349 P 1224.33 -6.144 -6.45285 0
M  V30 11350 O 1224.11 -7.54673 -6.86199 0
M  V30 11351 O 1223.54 -5.12391 -7.179 0
M  V30 11352 O 1224.08 -5.99158 -4.88404 0
M  V30 11353 C 1225.02 -6.60234 -3.96415 0
M  V30 11354 C 1224.29 -7.08259 -2.72856 0
M  V30 11355 O 1224.08 -5.9427 -1.83651 0
M  V30 11356 C 1222.89 -7.64886 -2.9555 0
M  V30 11357 O 1222.5 -8.53963 -1.90717 0
M  V30 11358 C 1222.01 -6.4116 -2.90739 0
M  V30 11359 C 1222.72 -5.55375 -1.86963 0
M  V30 11360 N 1222.67 -4.09664 -2.15742 0
M  V30 11361 H 1225.51 -7.45574 -4.45629 0
M  V30 11362 H 1225.78 -5.86232 -3.67314 0
M  V30 11363 H 1224.92 -7.84412 -2.24479 0
M  V30 11364 P 1220.95 -8.7635 -1.60911 0
M  V30 11365 O 1220.73 -10.1388 -1.11561 0
M  V30 11366 O 1220.16 -8.36503 -2.79617 0
M  V30 11367 O 1220.7 -7.71806 -0.42951 0
M  V30 11368 C 1221.64 -7.67148 0.673689 0
M  V30 11369 C 1220.91 -7.33374 1.95559 0
M  V30 11370 O 1220.7 -5.88721 2.00726 0
M  V30 11371 C 1219.51 -7.92526 2.10483 0
M  V30 11372 O 1219.12 -8.02971 3.47653 0
M  V30 11373 C 1218.63 -6.89602 1.41652 0
M  V30 11374 C 1219.34 -5.59201 1.75185 0
M  V30 11375 N 1219.29 -4.58235 0.662552 0
M  V30 11376 H 1222.13 -8.65116 0.777161 0
M  V30 11377 H 1222.4 -6.90173 0.474152 0
M  V30 11378 H 1221.54 -7.66548 2.79458 0
M  V30 11379 P 1217.57 -8.03563 3.84925 0
M  V30 11380 O 1217.35 -8.85821 5.0569 0
M  V30 11381 O 1216.78 -8.41101 2.65469 0
M  V30 11382 O 1217.32 -6.4965 4.18908 0
M  V30 11383 C 1218.26 -5.81037 5.05421 0
M  V30 11384 C 1217.53 -4.78366 5.89277 0
M  V30 11385 O 1217.32 -3.58302 5.08433 0
M  V30 11386 C 1216.13 -5.17448 6.36119 0
M  V30 11387 O 1215.74 -4.45271 7.53232 0
M  V30 11388 C 1215.25 -4.74639 5.19936 0
M  V30 11389 C 1215.96 -3.49432 4.70418 0
M  V30 11390 N 1215.91 -3.31776 3.22945 0
M  V30 11391 H 1218.75 -6.54213 5.71376 0
M  V30 11392 H 1219.02 -5.30492 4.44033 0
M  V30 11393 H 1218.16 -4.55889 6.76652 0
M  V30 11394 P 1214.19 -4.23843 7.83734 0
M  V30 11395 O 1213.97 -4.19407 9.29784 0
M  V30 11396 O 1213.4 -5.24426 7.09156 0
M  V30 11397 O 1213.94 -2.7935 7.20758 0
M  V30 11398 C 1214.88 -1.7299 7.50419 0
M  V30 11399 C 1214.15 -0.406376 7.57911 0
M  V30 11400 O 1213.94 0.0897726 6.21935 0
M  V30 11401 C 1212.75 -0.447224 8.1878 0
M  V30 11402 O 1212.36 0.825065 8.71101 0
M  V30 11403 C 1211.87 -0.783801 6.99623 0
M  V30 11404 C 1212.58 -0.0619192 5.85967 0
M  V30 11405 N 1212.53 -0.7859 4.56281 0
M  V30 11406 H 1215.37 -1.93423 8.4679 0
M  V30 11407 H 1215.64 -1.68181 6.71046 0
M  V30 11408 H 1214.78 0.289041 8.15388 0
M  V30 11409 P 1210.81 1.17771 8.83182 0
M  V30 11410 O 1210.59 2.07206 9.98732 0
M  V30 11411 O 1210.02 -0.0743816 8.81969 0
M  V30 11412 O 1210.56 1.97652 7.47304 0
M  V30 11413 C 1211.5 3.01133 7.08783 0
M  V30 11414 C 1210.77 4.12613 6.37049 0
M  V30 11415 O 1210.56 3.72827 4.97879 0
M  V30 11416 C 1209.37 4.45085 6.88694 0
M  V30 11417 O 1208.98 5.7877 6.5624 0
M  V30 11418 C 1208.49 3.47817 6.12078 0
M  V30 11419 C 1209.2 3.39414 4.77697 0
M  V30 11420 N 1209.15 2.04615 4.15333 0
M  V30 11421 H 1211.99 3.41248 7.98759 0
M  V30 11422 H 1212.26 2.5837 6.41742 0
M  V30 11423 H 1211.4 5.02657 6.42673 0
M  V30 11424 P 1207.43 6.144 6.45285 0
M  V30 11425 O 1207.21 7.54673 6.86199 0
M  V30 11426 O 1206.64 5.12391 7.179 0
M  V30 11427 O 1207.18 5.99158 4.88404 0
M  V30 11428 C 1208.12 6.60234 3.96415 0
M  V30 11429 C 1207.39 7.08259 2.72856 0
M  V30 11430 O 1207.18 5.9427 1.83651 0
M  V30 11431 C 1205.99 7.64886 2.9555 0
M  V30 11432 O 1205.6 8.53963 1.90717 0
M  V30 11433 C 1205.11 6.4116 2.90739 0
M  V30 11434 C 1205.82 5.55375 1.86963 0
M  V30 11435 N 1205.77 4.09664 2.15742 0
M  V30 11436 H 1208.61 7.45574 4.45629 0
M  V30 11437 H 1208.88 5.86232 3.67314 0
M  V30 11438 H 1208.02 7.84412 2.24479 0
M  V30 11439 P 1204.05 8.7635 1.60911 0
M  V30 11440 O 1203.83 10.1388 1.11561 0
M  V30 11441 O 1203.26 8.36503 2.79617 0
M  V30 11442 O 1203.8 7.71806 0.42951 0
M  V30 11443 C 1204.74 7.67148 -0.673689 0
M  V30 11444 C 1204.01 7.33374 -1.95559 0
M  V30 11445 O 1203.8 5.88721 -2.00726 0
M  V30 11446 C 1202.61 7.92526 -2.10483 0
M  V30 11447 O 1202.22 8.02971 -3.47653 0
M  V30 11448 C 1201.73 6.89602 -1.41652 0
M  V30 11449 C 1202.44 5.59201 -1.75185 0
M  V30 11450 N 1202.39 4.58235 -0.662552 0
M  V30 11451 C 1202.47 4.7683 0.704049 0
M  V30 11452 N 1202.39 3.66233 1.39775 0
M  V30 11453 C 1202.25 2.66526 0.431739 0
M  V30 11454 C 1202.12 1.26394 0.575992 0
M  V30 11455 N 1202 0.62859 -0.67177 0
M  V30 11456 C 1202 1.27134 -1.89385 0
M  V30 11457 N 1201.87 0.492035 -2.96951 0
M  V30 11458 N 1202.13 2.58978 -2.02907 0
M  V30 11459 C 1202.25 3.22433 -0.832218 0
M  V30 11460 H 1205.23 8.65116 -0.777161 0
M  V30 11461 H 1205.5 6.90173 -0.474152 0
M  V30 11462 H 1204.64 7.66548 -2.79458 0
M  V30 11463 P 1200.67 8.03563 -3.84925 0
M  V30 11464 O 1200.45 8.85821 -5.0569 0
M  V30 11465 O 1199.88 8.41101 -2.65469 0
M  V30 11466 O 1200.42 6.4965 -4.18908 0
M  V30 11467 C 1201.36 5.80886 -5.05289 0
M  V30 11468 C 1200.63 4.78366 -5.89277 0
M  V30 11469 O 1200.42 3.58302 -5.08433 0
M  V30 11470 C 1199.23 5.16748 -6.36559 0
M  V30 11471 O 1198.84 4.45271 -7.53232 0
M  V30 11472 C 1198.35 4.74572 -5.19863 0
M  V30 11473 C 1199.06 3.49373 -4.70338 0
M  V30 11474 N 1199.01 3.31704 -3.22876 0
M  V30 11475 C 1198.86 2.03326 -2.74871 0
M  V30 11476 O 1198.77 1.06486 -3.48076 0
M  V30 11477 N 1198.82 1.91838 -1.37456 0
M  V30 11478 C 1198.91 2.94295 -0.462035 0
M  V30 11479 C 1199.06 4.25064 -1.05249 0
M  V30 11480 C 1199.11 4.40214 -2.39192 0
M  V30 11481 H 1201.85 6.54063 -5.71245 0
M  V30 11482 H 1202.12 5.30339 -4.43905 0
M  V30 11483 H 1201.26 4.55889 -6.76652 0
M  V30 11484 H 1198.6 2.6167 -5.17842 0
M  V30 11485 H 1198.32 5.52155 -4.41878 0
M  V30 11486 H 1197.33 4.51918 -5.53297 0
M  V30 11487 H 1199.16 6.25055 -6.55162 0
M  V30 11488 H 1199.23 5.39798 -2.81523 0
M  V30 11489 P 1197.29 4.23843 -7.83734 0
M  V30 11490 O 1197.07 4.19407 -9.29784 0
M  V30 11491 O 1196.5 5.24426 -7.09156 0
M  V30 11492 O 1197.04 2.7935 -7.20758 0
M  V30 11493 C 1197.98 1.7299 -7.50419 0
M  V30 11494 C 1197.25 0.406376 -7.57911 0
M  V30 11495 O 1197.04 -0.0897726 -6.21935 0
M  V30 11496 C 1195.85 0.447224 -8.1878 0
M  V30 11497 O 1195.46 -0.825065 -8.71101 0
M  V30 11498 C 1194.97 0.783801 -6.99623 0
M  V30 11499 C 1195.68 0.0619192 -5.85967 0
M  V30 11500 N 1195.63 0.7859 -4.56281 0
M  V30 11501 H 1198.47 1.93423 -8.4679 0
M  V30 11502 H 1198.74 1.68181 -6.71046 0
M  V30 11503 H 1197.88 -0.289041 -8.15388 0
M  V30 11504 P 1193.91 -1.17771 -8.83182 0
M  V30 11505 O 1193.69 -2.07206 -9.98732 0
M  V30 11506 O 1193.12 0.0743816 -8.81969 0
M  V30 11507 O 1193.66 -1.97652 -7.47304 0
M  V30 11508 C 1194.6 -3.01133 -7.08783 0
M  V30 11509 C 1193.87 -4.12613 -6.37049 0
M  V30 11510 O 1193.66 -3.72827 -4.97879 0
M  V30 11511 C 1192.47 -4.45085 -6.88694 0
M  V30 11512 O 1192.08 -5.7877 -6.5624 0
M  V30 11513 C 1191.59 -3.47817 -6.12078 0
M  V30 11514 C 1192.3 -3.39414 -4.77697 0
M  V30 11515 N 1192.25 -2.04615 -4.15333 0
M  V30 11516 H 1195.09 -3.41248 -7.98759 0
M  V30 11517 H 1195.36 -2.5837 -6.41742 0
M  V30 11518 H 1194.5 -5.02657 -6.42673 0
M  V30 11519 P 1190.53 -6.144 -6.45285 0
M  V30 11520 O 1190.31 -7.54673 -6.86199 0
M  V30 11521 O 1189.74 -5.12391 -7.179 0
M  V30 11522 O 1190.28 -5.99158 -4.88404 0
M  V30 11523 C 1191.22 -6.60234 -3.96415 0
M  V30 11524 C 1190.49 -7.08259 -2.72856 0
M  V30 11525 O 1190.28 -5.9427 -1.83651 0
M  V30 11526 C 1189.09 -7.64886 -2.9555 0
M  V30 11527 O 1188.7 -8.53963 -1.90717 0
M  V30 11528 C 1188.21 -6.4116 -2.90739 0
M  V30 11529 C 1188.92 -5.55375 -1.86963 0
M  V30 11530 N 1188.87 -4.09664 -2.15742 0
M  V30 11531 H 1191.71 -7.45574 -4.45629 0
M  V30 11532 H 1191.98 -5.86232 -3.67314 0
M  V30 11533 H 1191.12 -7.84412 -2.24479 0
M  V30 11534 P 1187.15 -8.7635 -1.60911 0
M  V30 11535 O 1186.93 -10.1388 -1.11561 0
M  V30 11536 O 1186.36 -8.36503 -2.79617 0
M  V30 11537 O 1186.9 -7.71806 -0.42951 0
M  V30 11538 C 1187.84 -7.67148 0.673689 0
M  V30 11539 C 1187.11 -7.33374 1.95559 0
M  V30 11540 O 1186.9 -5.88721 2.00726 0
M  V30 11541 C 1185.71 -7.92526 2.10483 0
M  V30 11542 O 1185.32 -8.02971 3.47653 0
M  V30 11543 C 1184.83 -6.89602 1.41652 0
M  V30 11544 C 1185.54 -5.59201 1.75185 0
M  V30 11545 N 1185.49 -4.58235 0.662552 0
M  V30 11546 H 1188.33 -8.65116 0.777161 0
M  V30 11547 H 1188.6 -6.90173 0.474152 0
M  V30 11548 H 1187.74 -7.66548 2.79458 0
M  V30 11549 P 1183.77 -8.03563 3.84925 0
M  V30 11550 O 1183.55 -8.85821 5.0569 0
M  V30 11551 O 1182.98 -8.41101 2.65469 0
M  V30 11552 O 1183.52 -6.4965 4.18908 0
M  V30 11553 C 1184.46 -5.80886 5.05289 0
M  V30 11554 C 1183.73 -4.78366 5.89277 0
M  V30 11555 O 1183.52 -3.58302 5.08433 0
M  V30 11556 C 1182.33 -5.16748 6.36559 0
M  V30 11557 O 1181.94 -4.45271 7.53232 0
M  V30 11558 C 1181.45 -4.74572 5.19863 0
M  V30 11559 C 1182.16 -3.49373 4.70338 0
M  V30 11560 N 1182.11 -3.31704 3.22876 0
M  V30 11561 C 1181.96 -2.03326 2.74871 0
M  V30 11562 O 1181.87 -1.06486 3.48076 0
M  V30 11563 N 1181.92 -1.91838 1.37456 0
M  V30 11564 C 1182.01 -2.94295 0.462035 0
M  V30 11565 O 1181.96 -2.71763 -0.752928 0
M  V30 11566 C 1182.16 -4.25064 1.05249 0
M  V30 11567 C 1182.27 -5.39815 0.095697 0
M  V30 11568 C 1182.21 -4.40214 2.39192 0
M  V30 11569 H 1184.95 -6.54063 5.71245 0
M  V30 11570 H 1185.22 -5.30339 4.43905 0
M  V30 11571 H 1184.36 -4.55889 6.76652 0
M  V30 11572 H 1181.7 -2.6167 5.17842 0
M  V30 11573 H 1181.42 -5.52155 4.41878 0
M  V30 11574 H 1180.43 -4.51918 5.53297 0
M  V30 11575 H 1182.26 -6.25055 6.55162 0
M  V30 11576 H 1182.34 -5.39798 2.81523 0
M  V30 11577 H 1181.31 -5.91593 0.0279582 0
M  V30 11578 H 1183.04 -6.10038 0.450573 0
M  V30 11579 H 1182.55 -5.02007 -0.89937 0
M  V30 11580 H 1181.82 -0.995326 1.00435 0
M  V30 11581 P 1180.39 -4.23843 7.83734 0
M  V30 11582 O 1180.17 -4.19407 9.29784 0
M  V30 11583 O 1179.6 -5.24426 7.09156 0
M  V30 11584 O 1180.14 -2.7935 7.20758 0
M  V30 11585 C 1181.08 -1.7299 7.50419 0
M  V30 11586 C 1180.35 -0.406376 7.57911 0
M  V30 11587 O 1180.14 0.0897726 6.21935 0
M  V30 11588 C 1178.95 -0.447224 8.1878 0
M  V30 11589 O 1178.56 0.825065 8.71101 0
M  V30 11590 C 1178.07 -0.783801 6.99623 0
M  V30 11591 C 1178.78 -0.0619192 5.85967 0
M  V30 11592 N 1178.73 -0.790462 4.56202 0
M  V30 11593 H 1181.57 -1.93423 8.4679 0
M  V30 11594 H 1181.84 -1.68852 6.70877 0
M  V30 11595 H 1180.98 0.289041 8.15388 0
M  V30 11596 H 1178.32 0.927006 5.72848 0
M  V30 11597 H 1178.04 -1.86973 6.82036 0
M  V30 11598 H 1177.05 -0.403953 7.13357 0
M  V30 11599 H 1178.88 -1.20599 8.97534 0
M  V30 11600 P 1177.01 1.17771 8.83182 0
M  V30 11601 O 1176.79 2.07206 9.98732 0
M  V30 11602 O 1176.22 -0.0743816 8.81969 0
M  V30 11603 O 1176.76 1.97652 7.47304 0
M  V30 11604 C 1177.7 3.01133 7.08783 0
M  V30 11605 C 1176.97 4.12613 6.37049 0
M  V30 11606 O 1176.76 3.72827 4.97879 0
M  V30 11607 C 1175.57 4.45085 6.88694 0
M  V30 11608 O 1175.18 5.7877 6.5624 0
M  V30 11609 C 1174.69 3.47817 6.12078 0
M  V30 11610 C 1175.4 3.39414 4.77697 0
M  V30 11611 N 1175.35 2.04199 4.15538 0
M  V30 11612 H 1178.19 3.41248 7.98759 0
M  V30 11613 H 1178.46 2.57728 6.42 0
M  V30 11614 H 1177.6 5.02657 6.42673 0
M  V30 11615 H 1174.94 4.11708 4.08956 0
M  V30 11616 H 1174.66 2.49626 6.61679 0
M  V30 11617 H 1173.67 3.8662 6.00862 0
M  V30 11618 H 1175.5 4.29991 7.97006 0
M  V30 11619 P 1173.63 6.144 6.45285 0
M  V30 11620 O 1173.41 7.54673 6.86199 0
M  V30 11621 O 1172.84 5.12391 7.179 0
M  V30 11622 O 1173.38 5.99158 4.88404 0
M  V30 11623 C 1174.32 6.60234 3.96415 0
M  V30 11624 C 1173.59 7.08259 2.72856 0
M  V30 11625 O 1173.38 5.9427 1.83651 0
M  V30 11626 C 1172.19 7.64886 2.9555 0
M  V30 11627 O 1171.8 8.53963 1.90717 0
M  V30 11628 C 1171.31 6.4116 2.90739 0
M  V30 11629 C 1172.02 5.55375 1.86963 0
M  V30 11630 N 1171.97 4.09448 2.16152 0
M  V30 11631 H 1174.81 7.45574 4.45629 0
M  V30 11632 H 1175.08 5.85864 3.679 0
M  V30 11633 H 1174.22 7.84412 2.24479 0
M  V30 11634 H 1171.56 5.73457 0.888562 0
M  V30 11635 H 1171.28 5.90877 3.88583 0
M  V30 11636 H 1170.29 6.6596 2.58858 0
M  V30 11637 H 1172.12 8.16339 3.92049 0
M  V30 11638 P 1170.25 8.7635 1.60911 0
M  V30 11639 O 1170.03 10.1388 1.11561 0
M  V30 11640 O 1169.46 8.36503 2.79617 0
M  V30 11641 O 1170 7.71806 0.42951 0
M  V30 11642 C 1170.94 7.67148 -0.673689 0
M  V30 11643 C 1170.21 7.33374 -1.95559 0
M  V30 11644 O 1170 5.88721 -2.00726 0
M  V30 11645 C 1168.81 7.92526 -2.10483 0
M  V30 11646 O 1168.42 8.02971 -3.47653 0
M  V30 11647 C 1167.93 6.89602 -1.41652 0
M  V30 11648 C 1168.64 5.59201 -1.75185 0
M  V30 11649 N 1168.59 4.58301 -0.657969 0
M  V30 11650 H 1171.43 8.65116 -0.777161 0
M  V30 11651 H 1171.7 6.9022 -0.46725 0
M  V30 11652 H 1170.84 7.66548 -2.79458 0
M  V30 11653 H 1168.18 5.16165 -2.65183 0
M  V30 11654 H 1167.9 7.06433 -0.329384 0
M  V30 11655 H 1166.91 6.90926 -1.82021 0
M  V30 11656 H 1168.74 8.90873 -1.62657 0
M  V30 11657 P 1166.87 8.03563 -3.84925 0
M  V30 11658 O 1166.65 8.85821 -5.0569 0
M  V30 11659 O 1166.08 8.41101 -2.65469 0
M  V30 11660 O 1166.62 6.4965 -4.18908 0
M  V30 11661 C 1167.56 5.81037 -5.05421 0
M  V30 11662 C 1166.83 4.78366 -5.89277 0
M  V30 11663 O 1166.62 3.58302 -5.08433 0
M  V30 11664 C 1165.43 5.17448 -6.36119 0
M  V30 11665 O 1165.04 4.45271 -7.53232 0
M  V30 11666 C 1164.55 4.74639 -5.19936 0
M  V30 11667 C 1165.26 3.49432 -4.70418 0
M  V30 11668 N 1165.21 3.31776 -3.22945 0
M  V30 11669 H 1168.05 6.54213 -5.71376 0
M  V30 11670 H 1168.32 5.30492 -4.44033 0
M  V30 11671 H 1167.46 4.55889 -6.76652 0
M  V30 11672 P 1163.49 4.23843 -7.83734 0
M  V30 11673 O 1163.27 4.19407 -9.29784 0
M  V30 11674 O 1162.7 5.24426 -7.09156 0
M  V30 11675 O 1163.24 2.7935 -7.20758 0
M  V30 11676 C 1164.18 1.72945 -7.50224 0
M  V30 11677 C 1163.45 0.406376 -7.57911 0
M  V30 11678 O 1163.24 -0.0897726 -6.21935 0
M  V30 11679 C 1162.05 0.438983 -8.18724 0
M  V30 11680 O 1161.66 -0.825065 -8.71101 0
M  V30 11681 C 1161.17 0.783689 -6.99524 0
M  V30 11682 C 1161.88 0.0619086 -5.85867 0
M  V30 11683 N 1161.83 0.78573 -4.56183 0
M  V30 11684 C 1161.68 0.0292889 -3.41887 0
M  V30 11685 O 1161.59 -1.18445 -3.4419 0
M  V30 11686 N 1161.64 0.744061 -2.23964 0
M  V30 11687 C 1161.73 2.10932 -2.10362 0
M  V30 11688 O 1161.68 2.64117 -0.98825 0
M  V30 11689 C 1161.88 2.8202 -3.34994 0
M  V30 11690 C 1161.99 4.31095 -3.25037 0
M  V30 11691 C 1161.93 2.15547 -4.52261 0
M  V30 11692 H 1164.67 1.93379 -8.46595 0
M  V30 11693 H 1164.94 1.68132 -6.70852 0
M  V30 11694 H 1164.08 -0.289041 -8.15388 0
M  V30 11695 H 1161.42 -0.926847 -5.72749 0
M  V30 11696 H 1161.14 1.86973 -6.82036 0
M  V30 11697 H 1160.15 0.403896 -7.13257 0
M  V30 11698 H 1161.98 1.20585 -8.97435 0
M  V30 11699 H 1162.06 2.71231 -5.45042 0
M  V30 11700 H 1161.03 4.76966 -3.49992 0
M  V30 11701 H 1162.76 4.67047 -3.95024 0
M  V30 11702 H 1162.27 4.58996 -2.22312 0
M  V30 11703 H 1161.54 0.214893 -1.39758 0
M  V30 11704 P 1160.11 -1.17771 -8.83182 0
M  V30 11705 O 1159.89 -2.07206 -9.98732 0
M  V30 11706 O 1159.32 0.0743816 -8.81969 0
M  V30 11707 O 1159.86 -1.97652 -7.47304 0
M  V30 11708 C 1160.8 -3.01055 -7.08599 0
M  V30 11709 C 1160.07 -4.12613 -6.37049 0
M  V30 11710 O 1159.86 -3.72827 -4.97879 0
M  V30 11711 C 1158.67 -4.45719 -6.88164 0
M  V30 11712 O 1158.28 -5.7877 -6.5624 0
M  V30 11713 C 1157.79 -3.47768 -6.11991 0
M  V30 11714 C 1158.5 -3.39356 -4.77615 0
M  V30 11715 N 1158.45 -2.04571 -4.15244 0
M  V30 11716 C 1158.3 -1.98587 -2.78314 0
M  V30 11717 O 1158.21 -2.98134 -2.08835 0
M  V30 11718 N 1158.26 -0.714467 -2.24925 0
M  V30 11719 C 1158.35 0.470001 -2.94169 0
M  V30 11720 O 1158.3 1.55587 -2.35195 0
M  V30 11721 C 1158.5 0.312541 -4.36783 0
M  V30 11722 C 1158.61 1.57711 -5.16352 0
M  V30 11723 C 1158.55 -0.914512 -4.92583 0
M  V30 11724 H 1161.29 -3.41169 -7.98575 0
M  V30 11725 H 1161.56 -2.58295 -6.41556 0
M  V30 11726 H 1160.7 -5.02657 -6.42673 0
M  V30 11727 H 1158.04 -4.11637 -4.08885 0
M  V30 11728 H 1157.76 -2.49626 -6.61679 0
M  V30 11729 H 1156.77 -3.86566 -6.00778 0
M  V30 11730 H 1158.6 -4.29943 -7.96918 0
M  V30 11731 H 1158.68 -1.00937 -6.00374 0
M  V30 11732 H 1157.65 1.80153 -5.63503 0
M  V30 11733 H 1159.38 1.4566 -5.94104 0
M  V30 11734 H 1158.89 2.40664 -4.49645 0
M  V30 11735 H 1158.16 -0.647622 -1.25697 0
M  V30 11736 P 1156.73 -6.144 -6.45285 0
M  V30 11737 O 1156.51 -7.54673 -6.86199 0
M  V30 11738 O 1155.94 -5.12391 -7.179 0
M  V30 11739 O 1156.48 -5.99158 -4.88404 0
M  V30 11740 C 1157.42 -6.60234 -3.96415 0
M  V30 11741 C 1156.69 -7.08259 -2.72856 0
M  V30 11742 O 1156.48 -5.9427 -1.83651 0
M  V30 11743 C 1155.29 -7.64886 -2.9555 0
M  V30 11744 O 1154.9 -8.53963 -1.90717 0
M  V30 11745 C 1154.41 -6.4116 -2.90739 0
M  V30 11746 C 1155.12 -5.55375 -1.86963 0
M  V30 11747 N 1155.07 -4.09664 -2.15742 0
M  V30 11748 H 1157.91 -7.45574 -4.45629 0
M  V30 11749 H 1158.18 -5.86232 -3.67314 0
M  V30 11750 H 1157.32 -7.84412 -2.24479 0
M  V30 11751 P 1153.35 -8.7635 -1.60911 0
M  V30 11752 O 1153.13 -10.1388 -1.11561 0
M  V30 11753 O 1152.56 -8.36503 -2.79617 0
M  V30 11754 O 1153.1 -7.71806 -0.42951 0
M  V30 11755 C 1154.04 -7.66948 0.673514 0
M  V30 11756 C 1153.31 -7.33374 1.95559 0
M  V30 11757 O 1153.1 -5.88721 2.00726 0
M  V30 11758 C 1151.91 -7.92218 2.1125 0
M  V30 11759 O 1151.52 -8.02971 3.47653 0
M  V30 11760 C 1151.03 -6.89504 1.41631 0
M  V30 11761 C 1151.74 -5.59106 1.75155 0
M  V30 11762 N 1151.69 -4.58136 0.662409 0
M  V30 11763 C 1151.54 -3.26059 1.02863 0
M  V30 11764 O 1151.45 -2.90743 2.19009 0
M  V30 11765 N 1151.5 -2.35995 -0.0155585 0
M  V30 11766 C 1151.59 -2.65248 -1.35603 0
M  V30 11767 O 1151.54 -1.75605 -2.20651 0
M  V30 11768 C 1151.74 -4.05747 -1.64698 0
M  V30 11769 C 1151.85 -4.42345 -3.09553 0
M  V30 11770 C 1151.79 -4.96734 -0.652411 0
M  V30 11771 H 1154.53 -8.64917 0.776982 0
M  V30 11772 H 1154.8 -6.89974 0.474015 0
M  V30 11773 H 1153.94 -7.66548 2.79458 0
M  V30 11774 H 1151.28 -5.16076 2.65138 0
M  V30 11775 H 1151 -7.06433 0.329384 0
M  V30 11776 H 1150.01 -6.90829 1.81996 0
M  V30 11777 H 1151.84 -8.90774 1.62639 0
M  V30 11778 H 1151.92 -6.02181 -0.895285 0
M  V30 11779 H 1150.89 -4.80252 -3.45468 0
M  V30 11780 H 1152.62 -5.20015 -3.22119 0
M  V30 11781 H 1152.13 -3.53269 -3.67833 0
M  V30 11782 H 1151.4 -1.39558 0.227499 0
M  V30 11783 P 1149.97 -8.03563 3.84925 0
M  V30 11784 O 1149.75 -8.85821 5.0569 0
M  V30 11785 O 1149.18 -8.41101 2.65469 0
M  V30 11786 O 1149.72 -6.4965 4.18908 0
M  V30 11787 C 1150.66 -5.81037 5.05421 0
M  V30 11788 C 1149.93 -4.78366 5.89277 0
M  V30 11789 O 1149.72 -3.58302 5.08433 0
M  V30 11790 C 1148.53 -5.17448 6.36119 0
M  V30 11791 O 1148.14 -4.45271 7.53232 0
M  V30 11792 C 1147.65 -4.74639 5.19936 0
M  V30 11793 C 1148.36 -3.49432 4.70418 0
M  V30 11794 N 1148.31 -3.32099 3.22613 0
M  V30 11795 H 1151.15 -6.54213 5.71376 0
M  V30 11796 H 1151.42 -5.30936 4.43503 0
M  V30 11797 H 1150.56 -4.55889 6.76652 0
M  V30 11798 H 1147.9 -2.61715 5.17932 0
M  V30 11799 H 1147.62 -5.52155 4.41878 0
M  V30 11800 H 1146.63 -4.51981 5.53374 0
M  V30 11801 H 1148.46 -6.25124 6.55234 0
M  V30 11802 P 1146.59 -4.23843 7.83734 0
M  V30 11803 O 1146.37 -4.19407 9.29784 0
M  V30 11804 O 1145.8 -5.24426 7.09156 0
M  V30 11805 O 1146.34 -2.7935 7.20758 0
M  V30 11806 C 1147.28 -1.7299 7.50419 0
M  V30 11807 C 1146.55 -0.406376 7.57911 0
M  V30 11808 O 1146.34 0.0897726 6.21935 0
M  V30 11809 C 1145.15 -0.447224 8.1878 0
M  V30 11810 O 1144.76 0.825065 8.71101 0
M  V30 11811 C 1144.27 -0.783801 6.99623 0
M  V30 11812 C 1144.98 -0.0619192 5.85967 0
M  V30 11813 N 1144.93 -0.7859 4.56281 0
M  V30 11814 H 1147.77 -1.93423 8.4679 0
M  V30 11815 H 1148.04 -1.68181 6.71046 0
M  V30 11816 H 1147.18 0.289041 8.15388 0
M  V30 11817 P 1143.21 1.17771 8.83182 0
M  V30 11818 O 1142.99 2.07206 9.98732 0
M  V30 11819 O 1142.42 -0.0743816 8.81969 0
M  V30 11820 O 1142.96 1.97652 7.47304 0
M  V30 11821 C 1143.9 3.01133 7.08783 0
M  V30 11822 C 1143.17 4.12613 6.37049 0
M  V30 11823 O 1142.96 3.72827 4.97879 0
M  V30 11824 C 1141.77 4.45085 6.88694 0
M  V30 11825 O 1141.38 5.7877 6.5624 0
M  V30 11826 C 1140.89 3.47817 6.12078 0
M  V30 11827 C 1141.6 3.39414 4.77697 0
M  V30 11828 N 1141.55 2.04615 4.15333 0
M  V30 11829 H 1144.39 3.41248 7.98759 0
M  V30 11830 H 1144.66 2.5837 6.41742 0
M  V30 11831 H 1143.8 5.02657 6.42673 0
M  V30 11832 P 1139.83 6.144 6.45285 0
M  V30 11833 O 1139.61 7.54673 6.86199 0
M  V30 11834 O 1139.04 5.12391 7.179 0
M  V30 11835 O 1139.58 5.99158 4.88404 0
M  V30 11836 C 1140.52 6.60234 3.96415 0
M  V30 11837 C 1139.79 7.08259 2.72856 0
M  V30 11838 O 1139.58 5.9427 1.83651 0
M  V30 11839 C 1138.39 7.64886 2.9555 0
M  V30 11840 O 1138 8.53963 1.90717 0
M  V30 11841 C 1137.51 6.4116 2.90739 0
M  V30 11842 C 1138.22 5.55375 1.86963 0
M  V30 11843 N 1138.17 4.09448 2.16152 0
M  V30 11844 C 1138.25 3.46824 3.37593 0
M  V30 11845 N 1138.18 2.17422 3.29777 0
M  V30 11846 C 1138.03 1.93065 1.94427 0
M  V30 11847 C 1137.9 0.738053 1.20141 0
M  V30 11848 N 1137.89 -0.474256 1.74676 0
M  V30 11849 N 1137.78 0.850049 -0.13045 0
M  V30 11850 C 1137.79 2.06169 -0.676992 0
M  V30 11851 N 1137.91 3.23842 -0.101312 0
M  V30 11852 C 1138.03 3.09402 1.23122 0
M  V30 11853 H 1141.01 7.45574 4.45629 0
M  V30 11854 H 1141.28 5.85864 3.679 0
M  V30 11855 H 1140.42 7.84412 2.24479 0
M  V30 11856 H 1137.76 5.73457 0.888562 0
M  V30 11857 H 1137.48 5.90877 3.88583 0
M  V30 11858 H 1136.49 6.6596 2.58858 0
M  V30 11859 H 1138.32 8.16339 3.92049 0
M  V30 11860 H 1138.37 4.00505 4.3174 0
M  V30 11861 H 1137.98 -0.581337 2.76658 0
M  V30 11862 H 1137.8 -1.30811 1.14888 0
M  V30 11863 H 1137.69 2.08295 -1.75542 0
M  V30 11864 P 1136.45 8.7635 1.60911 0
M  V30 11865 O 1136.23 10.1388 1.11561 0
M  V30 11866 O 1135.66 8.36503 2.79617 0
M  V30 11867 O 1136.2 7.71806 0.42951 0
M  V30 11868 C 1137.14 7.66948 -0.673514 0
M  V30 11869 C 1136.41 7.33374 -1.95559 0
M  V30 11870 O 1136.2 5.88721 -2.00726 0
M  V30 11871 C 1135.01 7.92218 -2.1125 0
M  V30 11872 O 1134.62 8.02971 -3.47653 0
M  V30 11873 C 1134.13 6.89504 -1.41631 0
M  V30 11874 C 1134.84 5.59106 -1.75155 0
M  V30 11875 N 1134.79 4.58136 -0.662409 0
M  V30 11876 C 1134.64 3.26059 -1.02863 0
M  V30 11877 O 1134.55 2.90743 -2.19009 0
M  V30 11878 N 1134.6 2.35995 0.0155585 0
M  V30 11879 C 1134.69 2.65248 1.35603 0
M  V30 11880 O 1134.64 1.75605 2.20651 0
M  V30 11881 C 1134.84 4.05747 1.64698 0
M  V30 11882 C 1134.95 4.42345 3.09553 0
M  V30 11883 C 1134.89 4.96734 0.652411 0
M  V30 11884 H 1137.63 8.64917 -0.776982 0
M  V30 11885 H 1137.9 6.89974 -0.474015 0
M  V30 11886 H 1137.04 7.66548 -2.79458 0
M  V30 11887 H 1134.38 5.16076 -2.65138 0
M  V30 11888 H 1134.1 7.06433 -0.329384 0
M  V30 11889 H 1133.11 6.90829 -1.81996 0
M  V30 11890 H 1134.94 8.90774 -1.62639 0
M  V30 11891 H 1135.02 6.02181 0.895285 0
M  V30 11892 H 1133.99 4.80252 3.45468 0
M  V30 11893 H 1135.72 5.20015 3.22119 0
M  V30 11894 H 1135.23 3.53269 3.67833 0
M  V30 11895 H 1134.5 1.39558 -0.227499 0
M  V30 11896 P 1133.07 8.03563 -3.84925 0
M  V30 11897 O 1132.85 8.85821 -5.0569 0
M  V30 11898 O 1132.28 8.41101 -2.65469 0
M  V30 11899 O 1132.82 6.4965 -4.18908 0
M  V30 11900 C 1133.76 5.81037 -5.05421 0
M  V30 11901 C 1133.03 4.78366 -5.89277 0
M  V30 11902 O 1132.82 3.58302 -5.08433 0
M  V30 11903 C 1131.63 5.17448 -6.36119 0
M  V30 11904 O 1131.24 4.45271 -7.53232 0
M  V30 11905 C 1130.75 4.74639 -5.19936 0
M  V30 11906 C 1131.46 3.49432 -4.70418 0
M  V30 11907 N 1131.41 3.31776 -3.22945 0
M  V30 11908 H 1134.25 6.54213 -5.71376 0
M  V30 11909 H 1134.52 5.30492 -4.44033 0
M  V30 11910 H 1133.66 4.55889 -6.76652 0
M  V30 11911 P 1129.69 4.23843 -7.83734 0
M  V30 11912 O 1129.47 4.19407 -9.29784 0
M  V30 11913 O 1128.9 5.24426 -7.09156 0
M  V30 11914 O 1129.44 2.7935 -7.20758 0
M  V30 11915 C 1130.38 1.7299 -7.50419 0
M  V30 11916 C 1129.65 0.406376 -7.57911 0
M  V30 11917 O 1129.44 -0.0897726 -6.21935 0
M  V30 11918 C 1128.25 0.447224 -8.1878 0
M  V30 11919 O 1127.86 -0.825065 -8.71101 0
M  V30 11920 C 1127.37 0.783801 -6.99623 0
M  V30 11921 C 1128.08 0.0619192 -5.85967 0
M  V30 11922 N 1128.03 0.7859 -4.56281 0
M  V30 11923 H 1130.87 1.93423 -8.4679 0
M  V30 11924 H 1131.14 1.68181 -6.71046 0
M  V30 11925 H 1130.28 -0.289041 -8.15388 0
M  V30 11926 P 1126.31 -1.17771 -8.83182 0
M  V30 11927 O 1126.09 -2.07206 -9.98732 0
M  V30 11928 O 1125.52 0.0743816 -8.81969 0
M  V30 11929 O 1126.06 -1.97652 -7.47304 0
M  V30 11930 C 1127 -3.01133 -7.08783 0
M  V30 11931 C 1126.27 -4.12613 -6.37049 0
M  V30 11932 O 1126.06 -3.72827 -4.97879 0
M  V30 11933 C 1124.87 -4.45085 -6.88694 0
M  V30 11934 O 1124.48 -5.7877 -6.5624 0
M  V30 11935 C 1123.99 -3.47817 -6.12078 0
M  V30 11936 C 1124.7 -3.39414 -4.77697 0
M  V30 11937 N 1124.65 -2.04615 -4.15333 0
M  V30 11938 H 1127.49 -3.41248 -7.98759 0
M  V30 11939 H 1127.76 -2.5837 -6.41742 0
M  V30 11940 H 1126.9 -5.02657 -6.42673 0
M  V30 11941 P 1122.93 -6.144 -6.45285 0
M  V30 11942 O 1122.71 -7.54673 -6.86199 0
M  V30 11943 O 1122.14 -5.12391 -7.179 0
M  V30 11944 O 1122.68 -5.99158 -4.88404 0
M  V30 11945 C 1123.62 -6.60234 -3.96415 0
M  V30 11946 C 1122.89 -7.08259 -2.72856 0
M  V30 11947 O 1122.68 -5.9427 -1.83651 0
M  V30 11948 C 1121.49 -7.64886 -2.9555 0
M  V30 11949 O 1121.1 -8.53963 -1.90717 0
M  V30 11950 C 1120.61 -6.4116 -2.90739 0
M  V30 11951 C 1121.32 -5.55375 -1.86963 0
M  V30 11952 N 1121.27 -4.09448 -2.16152 0
M  V30 11953 H 1124.11 -7.45574 -4.45629 0
M  V30 11954 H 1124.38 -5.85864 -3.679 0
M  V30 11955 H 1123.52 -7.84412 -2.24479 0
M  V30 11956 H 1120.86 -5.73457 -0.888562 0
M  V30 11957 H 1120.58 -5.90877 -3.88583 0
M  V30 11958 H 1119.59 -6.6596 -2.58858 0
M  V30 11959 H 1121.42 -8.16339 -3.92049 0
M  V30 11960 P 1119.55 -8.7635 -1.60911 0
M  V30 11961 O 1119.33 -10.1388 -1.11561 0
M  V30 11962 O 1118.76 -8.36503 -2.79617 0
M  V30 11963 O 1119.3 -7.71806 -0.42951 0
M  V30 11964 C 1120.24 -7.66948 0.673514 0
M  V30 11965 C 1119.51 -7.33374 1.95559 0
M  V30 11966 O 1119.3 -5.88721 2.00726 0
M  V30 11967 C 1118.11 -7.92218 2.1125 0
M  V30 11968 O 1117.72 -8.02971 3.47653 0
M  V30 11969 C 1117.23 -6.89504 1.41631 0
M  V30 11970 C 1117.94 -5.59106 1.75155 0
M  V30 11971 N 1117.89 -4.58136 0.662409 0
M  V30 11972 C 1117.74 -3.26059 1.02863 0
M  V30 11973 O 1117.65 -2.90743 2.19009 0
M  V30 11974 N 1117.7 -2.35995 -0.0155585 0
M  V30 11975 C 1117.79 -2.65248 -1.35603 0
M  V30 11976 O 1117.74 -1.75605 -2.20651 0
M  V30 11977 C 1117.94 -4.05747 -1.64698 0
M  V30 11978 C 1118.05 -4.42345 -3.09553 0
M  V30 11979 C 1117.99 -4.96734 -0.652411 0
M  V30 11980 H 1120.73 -8.64917 0.776982 0
M  V30 11981 H 1121 -6.89974 0.474015 0
M  V30 11982 H 1120.14 -7.66548 2.79458 0
M  V30 11983 H 1117.48 -5.16076 2.65138 0
M  V30 11984 H 1117.2 -7.06433 0.329384 0
M  V30 11985 H 1116.21 -6.90829 1.81996 0
M  V30 11986 H 1118.04 -8.90774 1.62639 0
M  V30 11987 H 1118.12 -6.02181 -0.895285 0
M  V30 11988 H 1117.09 -4.80252 -3.45468 0
M  V30 11989 H 1118.82 -5.20015 -3.22119 0
M  V30 11990 H 1118.33 -3.53269 -3.67833 0
M  V30 11991 H 1117.6 -1.39558 0.227499 0
M  V30 11992 P 1116.17 -8.03563 3.84925 0
M  V30 11993 O 1115.95 -8.85821 5.0569 0
M  V30 11994 O 1115.38 -8.41101 2.65469 0
M  V30 11995 O 1115.92 -6.4965 4.18908 0
M  V30 11996 C 1116.86 -5.81037 5.05421 0
M  V30 11997 C 1116.13 -4.78366 5.89277 0
M  V30 11998 O 1115.92 -3.58302 5.08433 0
M  V30 11999 C 1114.73 -5.17448 6.36119 0
M  V30 12000 O 1114.34 -4.45271 7.53232 0
M  V30 12001 C 1113.85 -4.74639 5.19936 0
M  V30 12002 C 1114.56 -3.49432 4.70418 0
M  V30 12003 N 1114.51 -3.31776 3.22945 0
M  V30 12004 H 1117.35 -6.54213 5.71376 0
M  V30 12005 H 1117.62 -5.30492 4.44033 0
M  V30 12006 H 1116.76 -4.55889 6.76652 0
M  V30 12007 P 1112.79 -4.23843 7.83734 0
M  V30 12008 O 1112.57 -4.19407 9.29784 0
M  V30 12009 O 1112 -5.24426 7.09156 0
M  V30 12010 O 1112.54 -2.79386 7.20852 0
M  V30 12011 C 1113.48 -1.7299 7.50419 0
M  V30 12012 C 1112.75 -0.41401 7.5797 0
M  V30 12013 O 1112.54 0.089787 6.22035 0
M  V30 12014 C 1111.35 -0.447224 8.1878 0
M  V30 12015 O 1110.96 0.825159 8.71201 0
M  V30 12016 C 1110.47 -0.783801 6.99623 0
M  V30 12017 C 1111.18 -0.0619192 5.85967 0
M  V30 12018 N 1111.13 -0.7859 4.56281 0
M  V30 12019 C 1110.98 -0.0359258 3.39981 0
M  V30 12020 O 1110.89 1.19723 3.49038 0
M  V30 12021 N 1110.93 -0.869151 2.14025 0
M  V30 12022 C 1111.03 -2.01207 2.14363 0
M  V30 12023 N 1110.98 -2.58978 0.954287 0
M  V30 12024 C 1111.18 -2.80817 3.32215 0
M  V30 12025 C 1111.23 -2.13785 4.50884 0
M  V30 12026 H 1113.97 -1.93401 8.46693 0
M  V30 12027 H 1114.24 -1.68181 6.71046 0
M  V30 12028 H 1113.38 0.289076 8.15488 0
M  V30 12029 H 1110.72 0.927166 5.72947 0
M  V30 12030 H 1110.44 -1.87 6.82132 0
M  V30 12031 H 1109.45 -0.404009 7.13457 0
M  V30 12032 H 1111.28 -1.20599 8.97534 0
M  V30 12033 H 1111.36 -2.70295 5.43162 0
M  V30 12034 H 1111.25 -3.89465 3.27406 0
M  V30 12035 H 1110.87 -2.01616 0.107046 0
M  V30 12036 H 1111.06 -3.61403 0.873101 0
M  V30 12037 P 1109.41 1.17771 8.83182 0
M  V30 12038 O 1109.19 2.07206 9.98732 0
M  V30 12039 O 1108.62 -0.0743816 8.81969 0
M  V30 12040 O 1109.16 1.97652 7.47304 0
M  V30 12041 C 1110.1 3.01133 7.08783 0
M  V30 12042 C 1109.37 4.12613 6.37049 0
M  V30 12043 O 1109.16 3.72827 4.97879 0
M  V30 12044 C 1107.97 4.45085 6.88694 0
M  V30 12045 O 1107.58 5.7877 6.5624 0
M  V30 12046 C 1107.09 3.47817 6.12078 0
M  V30 12047 C 1107.8 3.39414 4.77697 0
M  V30 12048 N 1107.75 2.04199 4.15538 0
M  V30 12049 C 1107.83 0.821545 4.76977 0
M  V30 12050 N 1107.76 -0.1794 3.94592 0
M  V30 12051 C 1107.61 0.419121 2.70776 0
M  V30 12052 C 1107.48 -0.109072 1.40577 0
M  V30 12053 N 1107.47 -1.4104 1.1344 0
M  V30 12054 N 1107.36 0.764381 0.39411 0
M  V30 12055 C 1107.37 2.06587 0.664135 0
M  V30 12056 N 1107.49 2.67948 1.82153 0
M  V30 12057 C 1107.61 1.77942 2.8147 0
M  V30 12058 H 1110.59 3.41248 7.98759 0
M  V30 12059 H 1110.86 2.57728 6.42 0
M  V30 12060 H 1110 5.02657 6.42673 0
M  V30 12061 H 1107.34 4.11708 4.08956 0
M  V30 12062 H 1107.06 2.49626 6.61679 0
M  V30 12063 H 1106.07 3.8662 6.00862 0
M  V30 12064 H 1107.9 4.29991 7.97006 0
M  V30 12065 H 1107.95 0.702451 5.84696 0
M  V30 12066 H 1107.56 -2.09647 1.89651 0
M  V30 12067 H 1107.38 -1.73358 0.160575 0
M  V30 12068 H 1107.27 2.71695 -0.195838 0
M  V30 12069 P 1106.03 6.144 6.45285 0
M  V30 12070 O 1105.81 7.54673 6.86199 0
M  V30 12071 O 1105.24 5.12391 7.179 0
M  V30 12072 O 1105.78 5.99158 4.88404 0
M  V30 12073 C 1106.72 6.60234 3.96415 0
M  V30 12074 C 1105.99 7.08259 2.72856 0
M  V30 12075 O 1105.78 5.9427 1.83651 0
M  V30 12076 C 1104.59 7.64886 2.9555 0
M  V30 12077 O 1104.2 8.53963 1.90717 0
M  V30 12078 C 1103.71 6.4116 2.90739 0
M  V30 12079 C 1104.42 5.55375 1.86963 0
M  V30 12080 N 1104.37 4.09664 2.15742 0
M  V30 12081 H 1107.21 7.45574 4.45629 0
M  V30 12082 H 1107.48 5.86232 3.67314 0
M  V30 12083 H 1106.62 7.84412 2.24479 0
M  V30 12084 P 1102.65 8.7635 1.60911 0
M  V30 12085 O 1102.43 10.1388 1.11561 0
M  V30 12086 O 1101.86 8.36503 2.79617 0
M  V30 12087 O 1102.4 7.71806 0.42951 0
M  V30 12088 C 1103.34 7.66948 -0.673514 0
M  V30 12089 C 1102.61 7.33374 -1.95559 0
M  V30 12090 O 1102.4 5.88721 -2.00726 0
M  V30 12091 C 1101.21 7.92218 -2.1125 0
M  V30 12092 O 1100.82 8.02971 -3.47653 0
M  V30 12093 C 1100.33 6.89504 -1.41631 0
M  V30 12094 C 1101.04 5.59106 -1.75155 0
M  V30 12095 N 1100.99 4.58136 -0.662409 0
M  V30 12096 C 1100.84 3.26059 -1.02863 0
M  V30 12097 O 1100.75 2.90743 -2.19009 0
M  V30 12098 N 1100.8 2.35995 0.0155585 0
M  V30 12099 C 1100.89 2.65248 1.35603 0
M  V30 12100 C 1101.04 4.05747 1.64698 0
M  V30 12101 C 1101.09 4.96734 0.652411 0
M  V30 12102 H 1103.83 8.64917 -0.776982 0
M  V30 12103 H 1104.1 6.89974 -0.474015 0
M  V30 12104 H 1103.24 7.66548 -2.79458 0
M  V30 12105 H 1100.58 5.16076 -2.65138 0
M  V30 12106 H 1100.3 7.06433 -0.329384 0
M  V30 12107 H 1099.31 6.90829 -1.81996 0
M  V30 12108 H 1101.14 8.90774 -1.62639 0
M  V30 12109 H 1101.22 6.02181 0.895285 0
M  V30 12110 P 1099.27 8.03563 -3.84925 0
M  V30 12111 O 1099.05 8.85821 -5.0569 0
M  V30 12112 O 1098.48 8.41101 -2.65469 0
M  V30 12113 O 1099.02 6.49734 -4.18962 0
M  V30 12114 C 1099.96 5.81037 -5.05421 0
M  V30 12115 C 1099.23 4.79018 -5.88876 0
M  V30 12116 O 1099.02 3.58359 -5.08515 0
M  V30 12117 C 1097.83 5.17448 -6.36119 0
M  V30 12118 O 1097.44 4.45322 -7.53318 0
M  V30 12119 C 1096.95 4.74639 -5.19936 0
M  V30 12120 C 1097.66 3.49432 -4.70418 0
M  V30 12121 N 1097.61 3.31776 -3.22945 0
M  V30 12122 C 1097.46 2.02742 -2.72939 0
M  V30 12123 O 1097.37 1.08301 -3.52749 0
M  V30 12124 N 1097.41 1.96117 -1.22063 0
M  V30 12125 C 1097.51 2.8878 -0.551566 0
M  V30 12126 N 1097.46 2.65609 0.750198 0
M  V30 12127 C 1097.66 4.22457 -1.03707 0
M  V30 12128 C 1097.71 4.37979 -2.39113 0
M  V30 12129 H 1100.45 6.54138 -5.7131 0
M  V30 12130 H 1100.72 5.30492 -4.44033 0
M  V30 12131 H 1099.86 4.55945 -6.76735 0
M  V30 12132 H 1097.2 2.6176 -5.18021 0
M  V30 12133 H 1096.92 5.52233 -4.41941 0
M  V30 12134 H 1095.93 4.52045 -5.53452 0
M  V30 12135 H 1097.76 6.25124 -6.55234 0
M  V30 12136 H 1097.84 5.37936 -2.80552 0
M  V30 12137 H 1097.73 5.07528 -0.359553 0
M  V30 12138 H 1097.35 1.69403 1.09847 0
M  V30 12139 H 1097.54 3.43701 1.41792 0
M  V30 12140 P 1095.89 4.23843 -7.83734 0
M  V30 12141 O 1095.67 4.19407 -9.29784 0
M  V30 12142 O 1095.1 5.24426 -7.09156 0
M  V30 12143 O 1095.64 2.7935 -7.20758 0
M  V30 12144 C 1096.58 1.7299 -7.50419 0
M  V30 12145 C 1095.85 0.406376 -7.57911 0
M  V30 12146 O 1095.64 -0.0897726 -6.21935 0
M  V30 12147 C 1094.45 0.447224 -8.1878 0
M  V30 12148 O 1094.06 -0.825065 -8.71101 0
M  V30 12149 C 1093.57 0.783801 -6.99623 0
M  V30 12150 C 1094.28 0.0619192 -5.85967 0
M  V30 12151 N 1094.23 0.790462 -4.56202 0
M  V30 12152 H 1097.07 1.93423 -8.4679 0
M  V30 12153 H 1097.34 1.68852 -6.70877 0
M  V30 12154 H 1096.48 -0.289041 -8.15388 0
M  V30 12155 H 1093.82 -0.927006 -5.72848 0
M  V30 12156 H 1093.54 1.86973 -6.82036 0
M  V30 12157 H 1092.55 0.403953 -7.13357 0
M  V30 12158 H 1094.38 1.20599 -8.97534 0
M  V30 12159 P 1092.51 -1.17771 -8.83182 0
M  V30 12160 O 1092.29 -2.07206 -9.98732 0
M  V30 12161 O 1091.72 0.0743816 -8.81969 0
M  V30 12162 O 1092.26 -1.97652 -7.47304 0
M  V30 12163 C 1093.2 -3.01133 -7.08783 0
M  V30 12164 C 1092.47 -4.12613 -6.37049 0
M  V30 12165 O 1092.26 -3.72827 -4.97879 0
M  V30 12166 C 1091.07 -4.45085 -6.88694 0
M  V30 12167 O 1090.68 -5.7877 -6.5624 0
M  V30 12168 C 1090.19 -3.47817 -6.12078 0
M  V30 12169 C 1090.9 -3.39414 -4.77697 0
M  V30 12170 N 1090.85 -2.04615 -4.15333 0
M  V30 12171 H 1093.69 -3.41248 -7.98759 0
M  V30 12172 H 1093.96 -2.5837 -6.41742 0
M  V30 12173 H 1093.1 -5.02657 -6.42673 0
M  V30 12174 P 1089.13 -6.144 -6.45285 0
M  V30 12175 O 1088.91 -7.54673 -6.86199 0
M  V30 12176 O 1088.34 -5.12391 -7.179 0
M  V30 12177 O 1088.88 -5.99236 -4.88467 0
M  V30 12178 C 1089.82 -6.60234 -3.96415 0
M  V30 12179 C 1089.09 -7.08079 -2.736 0
M  V30 12180 O 1088.88 -5.94365 -1.8368 0
M  V30 12181 C 1087.69 -7.64886 -2.9555 0
M  V30 12182 O 1087.3 -8.5406 -1.90739 0
M  V30 12183 C 1086.81 -6.4116 -2.90739 0
M  V30 12184 C 1087.52 -5.55375 -1.86963 0
M  V30 12185 N 1087.47 -4.09664 -2.15742 0
M  V30 12186 C 1087.32 -3.22231 -1.08477 0
M  V30 12187 O 1087.23 -3.68951 0.0600489 0
M  V30 12188 N 1087.27 -1.76692 -1.48799 0
M  V30 12189 C 1087.37 -1.41695 -2.57602 0
M  V30 12190 N 1087.32 -0.107296 -2.75791 0
M  V30 12191 C 1087.52 -2.29178 -3.69733 0
M  V30 12192 C 1087.57 -3.62753 -3.42653 0
M  V30 12193 H 1090.31 -7.45488 -4.45578 0
M  V30 12194 H 1090.58 -5.86232 -3.67314 0
M  V30 12195 H 1089.72 -7.84508 -2.24507 0
M  V30 12196 H 1087.06 -5.73556 -0.888715 0
M  V30 12197 H 1086.78 -5.9096 -3.88638 0
M  V30 12198 H 1085.79 -6.66053 -2.58894 0
M  V30 12199 H 1087.62 -8.16339 -3.92049 0
M  V30 12200 H 1087.7 -4.33052 -4.24913 0
M  V30 12201 H 1087.59 -1.9103 -4.71577 0
M  V30 12202 H 1087.21 0.521221 -1.95056 0
M  V30 12203 H 1087.4 0.286429 -3.70695 0
M  V30 12204 P 1085.75 -8.7635 -1.60911 0
M  V30 12205 O 1085.53 -10.1388 -1.11561 0
M  V30 12206 O 1084.96 -8.36503 -2.79617 0
M  V30 12207 O 1085.5 -7.71806 -0.42951 0
M  V30 12208 C 1086.44 -7.67148 0.673689 0
M  V30 12209 C 1085.71 -7.33374 1.95559 0
M  V30 12210 O 1085.5 -5.88721 2.00726 0
M  V30 12211 C 1084.31 -7.92526 2.10483 0
M  V30 12212 O 1083.92 -8.02971 3.47653 0
M  V30 12213 C 1083.43 -6.89602 1.41652 0
M  V30 12214 C 1084.14 -5.59201 1.75185 0
M  V30 12215 N 1084.09 -4.58235 0.662552 0
M  V30 12216 H 1086.93 -8.65116 0.777161 0
M  V30 12217 H 1087.2 -6.90173 0.474152 0
M  V30 12218 H 1086.34 -7.66548 2.79458 0
M  V30 12219 P 1082.37 -8.03563 3.84925 0
M  V30 12220 O 1082.15 -8.85821 5.0569 0
M  V30 12221 O 1081.58 -8.41101 2.65469 0
M  V30 12222 O 1082.12 -6.4965 4.18908 0
M  V30 12223 C 1083.06 -5.81037 5.05421 0
M  V30 12224 C 1082.33 -4.78366 5.89277 0
M  V30 12225 O 1082.12 -3.58302 5.08433 0
M  V30 12226 C 1080.93 -5.17448 6.36119 0
M  V30 12227 O 1080.54 -4.45271 7.53232 0
M  V30 12228 C 1080.05 -4.74639 5.19936 0
M  V30 12229 C 1080.76 -3.49432 4.70418 0
M  V30 12230 N 1080.71 -3.31776 3.22945 0
M  V30 12231 H 1083.55 -6.54213 5.71376 0
M  V30 12232 H 1083.82 -5.30492 4.44033 0
M  V30 12233 H 1082.96 -4.55889 6.76652 0
M  V30 12234 P 1078.99 -4.23843 7.83734 0
M  V30 12235 O 1078.77 -4.19407 9.29784 0
M  V30 12236 O 1078.2 -5.24426 7.09156 0
M  V30 12237 O 1078.74 -2.7935 7.20758 0
M  V30 12238 C 1079.68 -1.7299 7.50419 0
M  V30 12239 C 1078.95 -0.406376 7.57911 0
M  V30 12240 O 1078.74 0.0897726 6.21935 0
M  V30 12241 C 1077.55 -0.447224 8.1878 0
M  V30 12242 O 1077.16 0.825065 8.71101 0
M  V30 12243 C 1076.67 -0.783801 6.99623 0
M  V30 12244 C 1077.38 -0.0619192 5.85967 0
M  V30 12245 N 1077.33 -0.7859 4.56281 0
M  V30 12246 H 1080.17 -1.93423 8.4679 0
M  V30 12247 H 1080.44 -1.68181 6.71046 0
M  V30 12248 H 1079.58 0.289041 8.15388 0
M  V30 12249 P 1075.61 1.17771 8.83182 0
M  V30 12250 O 1075.39 2.07206 9.98732 0
M  V30 12251 O 1074.82 -0.0743816 8.81969 0
M  V30 12252 O 1075.36 1.97652 7.47304 0
M  V30 12253 C 1076.3 3.01133 7.08783 0
M  V30 12254 C 1075.57 4.12613 6.37049 0
M  V30 12255 O 1075.36 3.72827 4.97879 0
M  V30 12256 C 1074.17 4.45085 6.88694 0
M  V30 12257 O 1073.78 5.7877 6.5624 0
M  V30 12258 C 1073.29 3.47817 6.12078 0
M  V30 12259 C 1074 3.39414 4.77697 0
M  V30 12260 N 1073.95 2.04615 4.15333 0
M  V30 12261 H 1076.79 3.41248 7.98759 0
M  V30 12262 H 1077.06 2.5837 6.41742 0
M  V30 12263 H 1076.2 5.02657 6.42673 0
M  V30 12264 P 1072.23 6.144 6.45285 0
M  V30 12265 O 1072.01 7.54673 6.86199 0
M  V30 12266 O 1071.44 5.12391 7.179 0
M  V30 12267 O 1071.98 5.99158 4.88404 0
M  V30 12268 C 1072.92 6.60234 3.96415 0
M  V30 12269 C 1072.19 7.08259 2.72856 0
M  V30 12270 O 1071.98 5.9427 1.83651 0
M  V30 12271 C 1070.79 7.64886 2.9555 0
M  V30 12272 O 1070.4 8.53963 1.90717 0
M  V30 12273 C 1069.91 6.4116 2.90739 0
M  V30 12274 C 1070.62 5.55375 1.86963 0
M  V30 12275 N 1070.57 4.09664 2.15742 0
M  V30 12276 H 1073.41 7.45574 4.45629 0
M  V30 12277 H 1073.68 5.86232 3.67314 0
M  V30 12278 H 1072.82 7.84412 2.24479 0
M  V30 12279 P 1068.85 8.7635 1.60911 0
M  V30 12280 O 1068.63 10.1388 1.11561 0
M  V30 12281 O 1068.06 8.36503 2.79617 0
M  V30 12282 O 1068.6 7.71806 0.42951 0
M  V30 12283 C 1069.54 7.66948 -0.673514 0
M  V30 12284 C 1068.81 7.33374 -1.95559 0
M  V30 12285 O 1068.6 5.88721 -2.00726 0
M  V30 12286 C 1067.41 7.92218 -2.1125 0
M  V30 12287 O 1067.02 8.02971 -3.47653 0
M  V30 12288 C 1066.53 6.89504 -1.41631 0
M  V30 12289 C 1067.24 5.59106 -1.75155 0
M  V30 12290 N 1067.19 4.58136 -0.662409 0
M  V30 12291 C 1067.04 3.26059 -1.02863 0
M  V30 12292 O 1066.95 2.90743 -2.19009 0
M  V30 12293 N 1067 2.35995 0.0155585 0
M  V30 12294 C 1067.09 2.65248 1.35603 0
M  V30 12295 C 1067.24 4.05747 1.64698 0
M  V30 12296 C 1067.29 4.96734 0.652411 0
M  V30 12297 H 1070.03 8.64917 -0.776982 0
M  V30 12298 H 1070.3 6.89974 -0.474015 0
M  V30 12299 H 1069.44 7.66548 -2.79458 0
M  V30 12300 H 1066.78 5.16076 -2.65138 0
M  V30 12301 H 1066.5 7.06433 -0.329384 0
M  V30 12302 H 1065.51 6.90829 -1.81996 0
M  V30 12303 H 1067.34 8.90774 -1.62639 0
M  V30 12304 H 1067.42 6.02181 0.895285 0
M  V30 12305 P 1065.47 8.03563 -3.84925 0
M  V30 12306 O 1065.25 8.85821 -5.0569 0
M  V30 12307 O 1064.68 8.41101 -2.65469 0
M  V30 12308 O 1065.22 6.4965 -4.18908 0
M  V30 12309 C 1066.16 5.81037 -5.05421 0
M  V30 12310 C 1065.43 4.78366 -5.89277 0
M  V30 12311 O 1065.22 3.58302 -5.08433 0
M  V30 12312 C 1064.03 5.17448 -6.36119 0
M  V30 12313 O 1063.64 4.45271 -7.53232 0
M  V30 12314 C 1063.15 4.74639 -5.19936 0
M  V30 12315 C 1063.86 3.49432 -4.70418 0
M  V30 12316 N 1063.81 3.31776 -3.22945 0
M  V30 12317 H 1066.65 6.54213 -5.71376 0
M  V30 12318 H 1066.92 5.30492 -4.44033 0
M  V30 12319 H 1066.06 4.55889 -6.76652 0
M  V30 12320 P 1062.09 4.23843 -7.83734 0
M  V30 12321 O 1061.87 4.19407 -9.29784 0
M  V30 12322 O 1061.3 5.24426 -7.09156 0
M  V30 12323 O 1061.84 2.7935 -7.20758 0
M  V30 12324 C 1062.78 1.7299 -7.50419 0
M  V30 12325 C 1062.05 0.406376 -7.57911 0
M  V30 12326 O 1061.84 -0.0897726 -6.21935 0
M  V30 12327 C 1060.65 0.447224 -8.1878 0
M  V30 12328 O 1060.26 -0.825065 -8.71101 0
M  V30 12329 C 1059.77 0.783801 -6.99623 0
M  V30 12330 C 1060.48 0.0619192 -5.85967 0
M  V30 12331 N 1060.43 0.7859 -4.56281 0
M  V30 12332 H 1063.27 1.93423 -8.4679 0
M  V30 12333 H 1063.54 1.68181 -6.71046 0
M  V30 12334 H 1062.68 -0.289041 -8.15388 0
M  V30 12335 P 1058.71 -1.17771 -8.83182 0
M  V30 12336 O 1058.49 -2.07206 -9.98732 0
M  V30 12337 O 1057.92 0.0743816 -8.81969 0
M  V30 12338 O 1058.46 -1.97652 -7.47304 0
M  V30 12339 C 1059.4 -3.01133 -7.08783 0
M  V30 12340 C 1058.67 -4.12613 -6.37049 0
M  V30 12341 O 1058.46 -3.72827 -4.97879 0
M  V30 12342 C 1057.27 -4.45085 -6.88694 0
M  V30 12343 O 1056.88 -5.7877 -6.5624 0
M  V30 12344 C 1056.39 -3.47817 -6.12078 0
M  V30 12345 C 1057.1 -3.39414 -4.77697 0
M  V30 12346 N 1057.05 -2.04615 -4.15333 0
M  V30 12347 H 1059.89 -3.41248 -7.98759 0
M  V30 12348 H 1060.16 -2.5837 -6.41742 0
M  V30 12349 H 1059.3 -5.02657 -6.42673 0
M  V30 12350 P 1055.33 -6.144 -6.45285 0
M  V30 12351 O 1055.11 -7.54673 -6.86199 0
M  V30 12352 O 1054.54 -5.12391 -7.179 0
M  V30 12353 O 1055.08 -5.99158 -4.88404 0
M  V30 12354 C 1056.02 -6.60234 -3.96415 0
M  V30 12355 C 1055.29 -7.08259 -2.72856 0
M  V30 12356 O 1055.08 -5.9427 -1.83651 0
M  V30 12357 C 1053.89 -7.64886 -2.9555 0
M  V30 12358 O 1053.5 -8.53963 -1.90717 0
M  V30 12359 C 1053.01 -6.4116 -2.90739 0
M  V30 12360 C 1053.72 -5.55375 -1.86963 0
M  V30 12361 N 1053.67 -4.09664 -2.15742 0
M  V30 12362 H 1056.51 -7.45574 -4.45629 0
M  V30 12363 H 1056.78 -5.86232 -3.67314 0
M  V30 12364 H 1055.92 -7.84412 -2.24479 0
M  V30 12365 P 1051.95 -8.7635 -1.60911 0
M  V30 12366 O 1051.73 -10.1388 -1.11561 0
M  V30 12367 O 1051.16 -8.36503 -2.79617 0
M  V30 12368 O 1051.7 -7.71806 -0.42951 0
M  V30 12369 C 1052.64 -7.67148 0.673689 0
M  V30 12370 C 1051.91 -7.33374 1.95559 0
M  V30 12371 O 1051.7 -5.88721 2.00726 0
M  V30 12372 C 1050.51 -7.92526 2.10483 0
M  V30 12373 O 1050.12 -8.02971 3.47653 0
M  V30 12374 C 1049.63 -6.89602 1.41652 0
M  V30 12375 C 1050.34 -5.59201 1.75185 0
M  V30 12376 N 1050.29 -4.58235 0.662552 0
M  V30 12377 H 1053.13 -8.65116 0.777161 0
M  V30 12378 H 1053.4 -6.90173 0.474152 0
M  V30 12379 H 1052.54 -7.66548 2.79458 0
M  V30 12380 P 1048.57 -8.03563 3.84925 0
M  V30 12381 O 1048.35 -8.85821 5.0569 0
M  V30 12382 O 1047.78 -8.41101 2.65469 0
M  V30 12383 O 1048.32 -6.4965 4.18908 0
M  V30 12384 C 1049.26 -5.81037 5.05421 0
M  V30 12385 C 1048.53 -4.78366 5.89277 0
M  V30 12386 O 1048.32 -3.58302 5.08433 0
M  V30 12387 C 1047.13 -5.17448 6.36119 0
M  V30 12388 O 1046.74 -4.45271 7.53232 0
M  V30 12389 C 1046.25 -4.74639 5.19936 0
M  V30 12390 C 1046.96 -3.49432 4.70418 0
M  V30 12391 N 1046.91 -3.32099 3.22613 0
M  V30 12392 H 1049.75 -6.54213 5.71376 0
M  V30 12393 H 1050.02 -5.30936 4.43503 0
M  V30 12394 H 1049.16 -4.55889 6.76652 0
M  V30 12395 H 1046.5 -2.61715 5.17932 0
M  V30 12396 H 1046.22 -5.52155 4.41878 0
M  V30 12397 H 1045.23 -4.51981 5.53374 0
M  V30 12398 H 1047.06 -6.25124 6.55234 0
M  V30 12399 P 1045.19 -4.23843 7.83734 0
M  V30 12400 O 1044.97 -4.19407 9.29784 0
M  V30 12401 O 1044.4 -5.24426 7.09156 0
M  V30 12402 O 1044.94 -2.7935 7.20758 0
M  V30 12403 C 1045.88 -1.7299 7.50419 0
M  V30 12404 C 1045.15 -0.406376 7.57911 0
M  V30 12405 O 1044.94 0.0897726 6.21935 0
M  V30 12406 C 1043.75 -0.447224 8.1878 0
M  V30 12407 O 1043.36 0.825065 8.71101 0
M  V30 12408 C 1042.87 -0.783801 6.99623 0
M  V30 12409 C 1043.58 -0.0619192 5.85967 0
M  V30 12410 N 1043.53 -0.7859 4.56281 0
M  V30 12411 H 1046.37 -1.93423 8.4679 0
M  V30 12412 H 1046.64 -1.68181 6.71046 0
M  V30 12413 H 1045.78 0.289041 8.15388 0
M  V30 12414 P 1041.81 1.17771 8.83182 0
M  V30 12415 O 1041.59 2.07206 9.98732 0
M  V30 12416 O 1041.02 -0.0743816 8.81969 0
M  V30 12417 O 1041.56 1.97652 7.47304 0
M  V30 12418 C 1042.5 3.01133 7.08783 0
M  V30 12419 C 1041.77 4.12613 6.37049 0
M  V30 12420 O 1041.56 3.72827 4.97879 0
M  V30 12421 C 1040.37 4.45085 6.88694 0
M  V30 12422 O 1039.98 5.7877 6.5624 0
M  V30 12423 C 1039.49 3.47817 6.12078 0
M  V30 12424 C 1040.2 3.39414 4.77697 0
M  V30 12425 N 1040.15 2.04615 4.15333 0
M  V30 12426 H 1042.99 3.41248 7.98759 0
M  V30 12427 H 1043.26 2.5837 6.41742 0
M  V30 12428 H 1042.4 5.02657 6.42673 0
M  V30 12429 P 1038.43 6.144 6.45285 0
M  V30 12430 O 1038.21 7.54673 6.86199 0
M  V30 12431 O 1037.64 5.12391 7.179 0
M  V30 12432 O 1038.18 5.99158 4.88404 0
M  V30 12433 C 1039.12 6.60234 3.96415 0
M  V30 12434 C 1038.39 7.08259 2.72856 0
M  V30 12435 O 1038.18 5.9427 1.83651 0
M  V30 12436 C 1036.99 7.64886 2.9555 0
M  V30 12437 O 1036.6 8.53963 1.90717 0
M  V30 12438 C 1036.11 6.4116 2.90739 0
M  V30 12439 C 1036.82 5.55375 1.86963 0
M  V30 12440 N 1036.77 4.09664 2.15742 0
M  V30 12441 H 1039.61 7.45574 4.45629 0
M  V30 12442 H 1039.88 5.86232 3.67314 0
M  V30 12443 H 1039.02 7.84412 2.24479 0
M  V30 12444 P 1035.05 8.7635 1.60911 0
M  V30 12445 O 1034.83 10.1388 1.11561 0
M  V30 12446 O 1034.26 8.36503 2.79617 0
M  V30 12447 O 1034.8 7.71806 0.42951 0
M  V30 12448 C 1035.74 7.67148 -0.673689 0
M  V30 12449 C 1035.01 7.33374 -1.95559 0
M  V30 12450 O 1034.8 5.88721 -2.00726 0
M  V30 12451 C 1033.61 7.92526 -2.10483 0
M  V30 12452 O 1033.22 8.02971 -3.47653 0
M  V30 12453 C 1032.73 6.89602 -1.41652 0
M  V30 12454 C 1033.44 5.59201 -1.75185 0
M  V30 12455 N 1033.39 4.58235 -0.662552 0
M  V30 12456 C 1033.47 4.7683 0.704049 0
M  V30 12457 N 1033.39 3.66233 1.39775 0
M  V30 12458 C 1033.25 2.66526 0.431739 0
M  V30 12459 C 1033.12 1.26394 0.575992 0
M  V30 12460 N 1033 0.62859 -0.67177 0
M  V30 12461 C 1033 1.27134 -1.89385 0
M  V30 12462 N 1032.87 0.492035 -2.96951 0
M  V30 12463 N 1033.13 2.58978 -2.02907 0
M  V30 12464 C 1033.25 3.22433 -0.832218 0
M  V30 12465 H 1036.23 8.65116 -0.777161 0
M  V30 12466 H 1036.5 6.90173 -0.474152 0
M  V30 12467 H 1035.64 7.66548 -2.79458 0
M  V30 12468 P 1031.67 8.03563 -3.84925 0
M  V30 12469 O 1031.45 8.85821 -5.0569 0
M  V30 12470 O 1030.88 8.41101 -2.65469 0
M  V30 12471 O 1031.42 6.4965 -4.18908 0
M  V30 12472 C 1032.36 5.81037 -5.05421 0
M  V30 12473 C 1031.63 4.78366 -5.89277 0
M  V30 12474 O 1031.42 3.58302 -5.08433 0
M  V30 12475 C 1030.23 5.17448 -6.36119 0
M  V30 12476 O 1029.84 4.45271 -7.53232 0
M  V30 12477 C 1029.35 4.74639 -5.19936 0
M  V30 12478 C 1030.06 3.49432 -4.70418 0
M  V30 12479 N 1030.01 3.31776 -3.22945 0
M  V30 12480 H 1032.85 6.54213 -5.71376 0
M  V30 12481 H 1033.12 5.30492 -4.44033 0
M  V30 12482 H 1032.26 4.55889 -6.76652 0
M  V30 12483 P 1028.29 4.23843 -7.83734 0
M  V30 12484 O 1028.07 4.19407 -9.29784 0
M  V30 12485 O 1027.5 5.24426 -7.09156 0
M  V30 12486 O 1028.04 2.7935 -7.20758 0
M  V30 12487 C 1028.98 1.7299 -7.50419 0
M  V30 12488 C 1028.25 0.406376 -7.57911 0
M  V30 12489 O 1028.04 -0.0897726 -6.21935 0
M  V30 12490 C 1026.85 0.447224 -8.1878 0
M  V30 12491 O 1026.46 -0.825065 -8.71101 0
M  V30 12492 C 1025.97 0.783801 -6.99623 0
M  V30 12493 C 1026.68 0.0619192 -5.85967 0
M  V30 12494 N 1026.63 0.790462 -4.56202 0
M  V30 12495 H 1029.47 1.93423 -8.4679 0
M  V30 12496 H 1029.74 1.68852 -6.70877 0
M  V30 12497 H 1028.88 -0.289041 -8.15388 0
M  V30 12498 H 1026.22 -0.927006 -5.72848 0
M  V30 12499 H 1025.94 1.86973 -6.82036 0
M  V30 12500 H 1024.95 0.403953 -7.13357 0
M  V30 12501 H 1026.78 1.20599 -8.97534 0
M  V30 12502 P 1024.91 -1.17771 -8.83182 0
M  V30 12503 O 1024.69 -2.07206 -9.98732 0
M  V30 12504 O 1024.12 0.0743816 -8.81969 0
M  V30 12505 O 1024.66 -1.97652 -7.47304 0
M  V30 12506 C 1025.6 -3.01133 -7.08783 0
M  V30 12507 C 1024.87 -4.12613 -6.37049 0
M  V30 12508 O 1024.66 -3.72827 -4.97879 0
M  V30 12509 C 1023.47 -4.45085 -6.88694 0
M  V30 12510 O 1023.08 -5.7877 -6.5624 0
M  V30 12511 C 1022.59 -3.47817 -6.12078 0
M  V30 12512 C 1023.3 -3.39414 -4.77697 0
M  V30 12513 N 1023.25 -2.04615 -4.15333 0
M  V30 12514 H 1026.09 -3.41248 -7.98759 0
M  V30 12515 H 1026.36 -2.5837 -6.41742 0
M  V30 12516 H 1025.5 -5.02657 -6.42673 0
M  V30 12517 P 1021.53 -6.144 -6.45285 0
M  V30 12518 O 1021.31 -7.54673 -6.86199 0
M  V30 12519 O 1020.74 -5.12391 -7.179 0
M  V30 12520 O 1021.28 -5.99158 -4.88404 0
M  V30 12521 C 1022.22 -6.60234 -3.96415 0
M  V30 12522 C 1021.49 -7.08259 -2.72856 0
M  V30 12523 O 1021.28 -5.9427 -1.83651 0
M  V30 12524 C 1020.09 -7.64886 -2.9555 0
M  V30 12525 O 1019.7 -8.53963 -1.90717 0
M  V30 12526 C 1019.21 -6.4116 -2.90739 0
M  V30 12527 C 1019.92 -5.55375 -1.86963 0
M  V30 12528 N 1019.87 -4.09664 -2.15742 0
M  V30 12529 H 1022.71 -7.45574 -4.45629 0
M  V30 12530 H 1022.98 -5.86232 -3.67314 0
M  V30 12531 H 1022.12 -7.84412 -2.24479 0
M  V30 12532 P 1018.15 -8.7635 -1.60911 0
M  V30 12533 O 1017.93 -10.1388 -1.11561 0
M  V30 12534 O 1017.36 -8.36503 -2.79617 0
M  V30 12535 O 1017.9 -7.71806 -0.42951 0
M  V30 12536 C 1018.84 -7.67148 0.673689 0
M  V30 12537 C 1018.11 -7.33374 1.95559 0
M  V30 12538 O 1017.9 -5.88721 2.00726 0
M  V30 12539 C 1016.71 -7.92526 2.10483 0
M  V30 12540 O 1016.32 -8.02971 3.47653 0
M  V30 12541 C 1015.83 -6.89602 1.41652 0
M  V30 12542 C 1016.54 -5.59201 1.75185 0
M  V30 12543 N 1016.49 -4.58301 0.657969 0
M  V30 12544 C 1016.57 -4.79019 -0.692603 0
M  V30 12545 N 1016.5 -3.69736 -1.38998 0
M  V30 12546 C 1016.35 -2.70474 -0.438135 0
M  V30 12547 C 1016.22 -1.30327 -0.538142 0
M  V30 12548 N 1016.21 -0.64304 -1.69192 0
M  V30 12549 N 1016.1 -0.611027 0.605183 0
M  V30 12550 C 1016.11 -1.27002 1.75953 0
M  V30 12551 N 1016.23 -2.56038 1.98546 0
M  V30 12552 C 1016.35 -3.22681 0.822541 0
M  V30 12553 H 1019.33 -8.65116 0.777161 0
M  V30 12554 H 1019.61 -6.9022 0.46725 0
M  V30 12555 H 1018.74 -7.66548 2.79458 0
M  V30 12556 H 1016.08 -5.16165 2.65183 0
M  V30 12557 H 1015.8 -7.06433 0.329384 0
M  V30 12558 H 1014.81 -6.90926 1.82021 0
M  V30 12559 H 1016.65 -8.90873 1.62657 0
M  V30 12560 H 1016.69 -5.77785 -1.13874 0
M  V30 12561 H 1016.31 -1.15585 -2.57991 0
M  V30 12562 H 1016.12 0.382989 -1.69835 0
M  V30 12563 H 1016.01 -0.653331 2.64449 0
M  V30 12564 P 1014.77 -8.03563 3.84925 0
M  V30 12565 O 1014.55 -8.85821 5.0569 0
M  V30 12566 O 1013.98 -8.41101 2.65469 0
M  V30 12567 O 1014.52 -6.4965 4.18908 0
M  V30 12568 C 1015.46 -5.80886 5.05289 0
M  V30 12569 C 1014.73 -4.78366 5.89277 0
M  V30 12570 O 1014.52 -3.58302 5.08433 0
M  V30 12571 C 1013.33 -5.16748 6.36559 0
M  V30 12572 O 1012.94 -4.45271 7.53232 0
M  V30 12573 C 1012.45 -4.74572 5.19863 0
M  V30 12574 C 1013.16 -3.49373 4.70338 0
M  V30 12575 N 1013.11 -3.31704 3.22876 0
M  V30 12576 C 1012.96 -2.03326 2.74871 0
M  V30 12577 O 1012.87 -1.06486 3.48076 0
M  V30 12578 N 1012.92 -1.91838 1.37456 0
M  V30 12579 C 1013.01 -2.94295 0.462035 0
M  V30 12580 O 1012.96 -2.71763 -0.752928 0
M  V30 12581 C 1013.16 -4.25064 1.05249 0
M  V30 12582 C 1013.27 -5.39815 0.095697 0
M  V30 12583 C 1013.21 -4.40214 2.39192 0
M  V30 12584 H 1015.96 -6.54063 5.71245 0
M  V30 12585 H 1016.22 -5.30339 4.43905 0
M  V30 12586 H 1015.36 -4.55889 6.76652 0
M  V30 12587 H 1012.7 -2.6167 5.17842 0
M  V30 12588 H 1012.42 -5.52155 4.41878 0
M  V30 12589 H 1011.43 -4.51918 5.53297 0
M  V30 12590 H 1013.27 -6.25055 6.55162 0
M  V30 12591 H 1013.34 -5.39798 2.81523 0
M  V30 12592 H 1012.31 -5.91593 0.0279582 0
M  V30 12593 H 1014.04 -6.10038 0.450573 0
M  V30 12594 H 1013.56 -5.02007 -0.89937 0
M  V30 12595 H 1012.82 -0.995326 1.00435 0
M  V30 12596 P 1011.39 -4.23843 7.83734 0
M  V30 12597 O 1011.17 -4.19407 9.29784 0
M  V30 12598 O 1010.6 -5.24426 7.09156 0
M  V30 12599 O 1011.14 -2.7935 7.20758 0
M  V30 12600 C 1012.08 -1.72945 7.50224 0
M  V30 12601 C 1011.35 -0.406376 7.57911 0
M  V30 12602 O 1011.14 0.0897726 6.21935 0
M  V30 12603 C 1009.95 -0.438983 8.18724 0
M  V30 12604 O 1009.56 0.825065 8.71101 0
M  V30 12605 C 1009.07 -0.783689 6.99524 0
M  V30 12606 C 1009.78 -0.0619086 5.85867 0
M  V30 12607 N 1009.73 -0.78573 4.56183 0
M  V30 12608 C 1009.58 -0.0292889 3.41887 0
M  V30 12609 O 1009.49 1.18445 3.4419 0
M  V30 12610 N 1009.54 -0.744061 2.23964 0
M  V30 12611 C 1009.63 -2.10932 2.10362 0
M  V30 12612 C 1009.78 -2.8202 3.34994 0
M  V30 12613 C 1009.83 -2.15547 4.52261 0
M  V30 12614 H 1012.58 -1.93379 8.46595 0
M  V30 12615 H 1012.84 -1.68132 6.70852 0
M  V30 12616 H 1011.98 0.289041 8.15388 0
M  V30 12617 H 1009.32 0.926847 5.72749 0
M  V30 12618 H 1009.04 -1.86973 6.82036 0
M  V30 12619 H 1008.05 -0.403896 7.13257 0
M  V30 12620 H 1009.89 -1.20585 8.97435 0
M  V30 12621 H 1009.96 -2.71231 5.45042 0
M  V30 12622 P 1008.01 1.17771 8.83182 0
M  V30 12623 O 1007.79 2.07206 9.98732 0
M  V30 12624 O 1007.22 -0.0743816 8.81969 0
M  V30 12625 O 1007.76 1.97652 7.47304 0
M  V30 12626 C 1008.7 3.01133 7.08783 0
M  V30 12627 C 1007.97 4.12613 6.37049 0
M  V30 12628 O 1007.76 3.72827 4.97879 0
M  V30 12629 C 1006.57 4.45085 6.88694 0
M  V30 12630 O 1006.18 5.7877 6.5624 0
M  V30 12631 C 1005.69 3.47817 6.12078 0
M  V30 12632 C 1006.4 3.39414 4.77697 0
M  V30 12633 N 1006.35 2.04615 4.15333 0
M  V30 12634 C 1006.43 0.803897 4.75249 0
M  V30 12635 N 1006.35 -0.197615 3.91502 0
M  V30 12636 C 1006.21 0.413002 2.66823 0
M  V30 12637 C 1006.08 -0.157221 1.38007 0
M  V30 12638 N 1005.96 0.833136 0.390236 0
M  V30 12639 C 1005.96 2.19402 0.623885 0
M  V30 12640 N 1005.83 2.97622 -0.449677 0
M  V30 12641 N 1006.09 2.73005 1.83601 0
M  V30 12642 C 1006.21 1.78786 2.80935 0
M  V30 12643 H 1009.19 3.41248 7.98759 0
M  V30 12644 H 1009.47 2.5837 6.41742 0
M  V30 12645 H 1008.6 5.02657 6.42673 0
M  V30 12646 P 1004.63 6.144 6.45285 0
M  V30 12647 O 1004.41 7.54673 6.86199 0
M  V30 12648 O 1003.84 5.12391 7.179 0
M  V30 12649 O 1004.38 5.99158 4.88404 0
M  V30 12650 C 1005.32 6.60234 3.96415 0
M  V30 12651 C 1004.59 7.08259 2.72856 0
M  V30 12652 O 1004.38 5.9427 1.83651 0
M  V30 12653 C 1003.19 7.64886 2.9555 0
M  V30 12654 O 1002.8 8.53963 1.90717 0
M  V30 12655 C 1002.31 6.4116 2.90739 0
M  V30 12656 C 1003.02 5.55375 1.86963 0
M  V30 12657 N 1002.97 4.09664 2.15742 0
M  V30 12658 H 1005.81 7.45574 4.45629 0
M  V30 12659 H 1006.09 5.86232 3.67314 0
M  V30 12660 H 1005.22 7.84412 2.24479 0
M  V30 12661 P 1001.25 8.7635 1.60911 0
M  V30 12662 O 1001.03 10.1388 1.11561 0
M  V30 12663 O 1000.46 8.36503 2.79617 0
M  V30 12664 O 1001 7.71806 0.42951 0
M  V30 12665 C 1001.94 7.67148 -0.673689 0
M  V30 12666 C 1001.21 7.33374 -1.95559 0
M  V30 12667 O 1001 5.88721 -2.00726 0
M  V30 12668 C 999.814 7.92526 -2.10483 0
M  V30 12669 O 999.424 8.02971 -3.47653 0
M  V30 12670 C 998.934 6.89602 -1.41652 0
M  V30 12671 C 999.644 5.59201 -1.75185 0
M  V30 12672 N 999.594 4.58235 -0.662552 0
M  V30 12673 H 1002.43 8.65116 -0.777161 0
M  V30 12674 H 1002.71 6.90173 -0.474152 0
M  V30 12675 H 1001.84 7.66548 -2.79458 0
M  V30 12676 P 997.874 8.03563 -3.84925 0
M  V30 12677 O 997.654 8.85821 -5.0569 0
M  V30 12678 O 997.084 8.41101 -2.65469 0
M  V30 12679 O 997.624 6.49734 -4.18962 0
M  V30 12680 C 998.564 5.81037 -5.05421 0
M  V30 12681 C 997.834 4.79018 -5.88876 0
M  V30 12682 O 997.624 3.58359 -5.08515 0
M  V30 12683 C 996.434 5.17448 -6.36119 0
M  V30 12684 O 996.044 4.45322 -7.53318 0
M  V30 12685 C 995.554 4.74639 -5.19936 0
M  V30 12686 C 996.264 3.49432 -4.70418 0
M  V30 12687 N 996.214 3.31776 -3.22945 0
M  V30 12688 C 996.064 2.02742 -2.72939 0
M  V30 12689 O 995.974 1.08301 -3.52749 0
M  V30 12690 N 996.014 1.96117 -1.22063 0
M  V30 12691 C 996.114 2.8878 -0.551566 0
M  V30 12692 N 996.064 2.65609 0.750198 0
M  V30 12693 C 996.264 4.22457 -1.03707 0
M  V30 12694 C 996.314 4.37979 -2.39113 0
M  V30 12695 H 999.054 6.54138 -5.7131 0
M  V30 12696 H 999.324 5.30492 -4.44033 0
M  V30 12697 H 998.457 4.55945 -6.76735 0
M  V30 12698 H 995.802 2.6176 -5.18021 0
M  V30 12699 H 995.522 5.52233 -4.41941 0
M  V30 12700 H 994.531 4.52045 -5.53452 0
M  V30 12701 H 996.365 6.25124 -6.55234 0
M  V30 12702 H 996.437 5.37936 -2.80552 0
M  V30 12703 H 996.335 5.07528 -0.359553 0
M  V30 12704 H 995.947 1.69403 1.09847 0
M  V30 12705 H 996.143 3.43701 1.41792 0
M  V30 12706 P 994.494 4.23843 -7.83734 0
M  V30 12707 O 994.274 4.19407 -9.29784 0
M  V30 12708 O 993.704 5.24426 -7.09156 0
M  V30 12709 O 994.244 2.7935 -7.20758 0
M  V30 12710 C 995.184 1.72945 -7.50224 0
M  V30 12711 C 994.454 0.406376 -7.57911 0
M  V30 12712 O 994.244 -0.0897726 -6.21935 0
M  V30 12713 C 993.054 0.438983 -8.18724 0
M  V30 12714 O 992.664 -0.825065 -8.71101 0
M  V30 12715 C 992.174 0.783689 -6.99524 0
M  V30 12716 C 992.884 0.0619086 -5.85867 0
M  V30 12717 N 992.834 0.78573 -4.56183 0
M  V30 12718 C 992.684 0.0292889 -3.41887 0
M  V30 12719 O 992.594 -1.18445 -3.4419 0
M  V30 12720 N 992.644 0.744061 -2.23964 0
M  V30 12721 C 992.734 2.10932 -2.10362 0
M  V30 12722 C 992.884 2.8202 -3.34994 0
M  V30 12723 C 992.934 2.15547 -4.52261 0
M  V30 12724 H 995.675 1.93379 -8.46595 0
M  V30 12725 H 995.944 1.68132 -6.70852 0
M  V30 12726 H 995.077 -0.289041 -8.15388 0
M  V30 12727 H 992.422 -0.926847 -5.72749 0
M  V30 12728 H 992.143 1.86973 -6.82036 0
M  V30 12729 H 991.151 0.403896 -7.13257 0
M  V30 12730 H 992.985 1.20585 -8.97435 0
M  V30 12731 H 993.056 2.71231 -5.45042 0
M  V30 12732 P 991.114 -1.17771 -8.83182 0
M  V30 12733 O 990.894 -2.07206 -9.98732 0
M  V30 12734 O 990.324 0.0743816 -8.81969 0
M  V30 12735 O 990.864 -1.97652 -7.47304 0
M  V30 12736 C 991.804 -3.01133 -7.08783 0
M  V30 12737 C 991.074 -4.12613 -6.37049 0
M  V30 12738 O 990.864 -3.72827 -4.97879 0
M  V30 12739 C 989.674 -4.45085 -6.88694 0
M  V30 12740 O 989.284 -5.7877 -6.5624 0
M  V30 12741 C 988.794 -3.47817 -6.12078 0
M  V30 12742 C 989.504 -3.39414 -4.77697 0
M  V30 12743 N 989.454 -2.04615 -4.15333 0
M  V30 12744 H 992.293 -3.41248 -7.98759 0
M  V30 12745 H 992.565 -2.5837 -6.41742 0
M  V30 12746 H 991.697 -5.02657 -6.42673 0
M  V30 12747 P 987.734 -6.144 -6.45285 0
M  V30 12748 O 987.514 -7.54673 -6.86199 0
M  V30 12749 O 986.944 -5.12391 -7.179 0
M  V30 12750 O 987.484 -5.99158 -4.88404 0
M  V30 12751 C 988.424 -6.60234 -3.96415 0
M  V30 12752 C 987.694 -7.08259 -2.72856 0
M  V30 12753 O 987.484 -5.9427 -1.83651 0
M  V30 12754 C 986.294 -7.64886 -2.9555 0
M  V30 12755 O 985.904 -8.53963 -1.90717 0
M  V30 12756 C 985.414 -6.4116 -2.90739 0
M  V30 12757 C 986.124 -5.55375 -1.86963 0
M  V30 12758 N 986.074 -4.09664 -2.15742 0
M  V30 12759 H 988.913 -7.45574 -4.45629 0
M  V30 12760 H 989.185 -5.86232 -3.67314 0
M  V30 12761 H 988.317 -7.84412 -2.24479 0
M  V30 12762 P 984.354 -8.7635 -1.60911 0
M  V30 12763 O 984.134 -10.1388 -1.11561 0
M  V30 12764 O 983.564 -8.36503 -2.79617 0
M  V30 12765 O 984.104 -7.71806 -0.42951 0
M  V30 12766 C 985.044 -7.67148 0.673689 0
M  V30 12767 C 984.314 -7.33374 1.95559 0
M  V30 12768 O 984.104 -5.88721 2.00726 0
M  V30 12769 C 982.914 -7.92526 2.10483 0
M  V30 12770 O 982.524 -8.02971 3.47653 0
M  V30 12771 C 982.034 -6.89602 1.41652 0
M  V30 12772 C 982.744 -5.59201 1.75185 0
M  V30 12773 N 982.694 -4.58235 0.662552 0
M  V30 12774 H 985.533 -8.65116 0.777161 0
M  V30 12775 H 985.805 -6.90173 0.474152 0
M  V30 12776 H 984.937 -7.66548 2.79458 0
M  V30 12777 P 980.974 -8.03563 3.84925 0
M  V30 12778 O 980.754 -8.85821 5.0569 0
M  V30 12779 O 980.184 -8.41101 2.65469 0
M  V30 12780 O 980.724 -6.4965 4.18908 0
M  V30 12781 C 981.664 -5.81037 5.05421 0
M  V30 12782 C 980.934 -4.78366 5.89277 0
M  V30 12783 O 980.724 -3.58302 5.08433 0
M  V30 12784 C 979.534 -5.17448 6.36119 0
M  V30 12785 O 979.144 -4.45271 7.53232 0
M  V30 12786 C 978.654 -4.74639 5.19936 0
M  V30 12787 C 979.364 -3.49432 4.70418 0
M  V30 12788 N 979.314 -3.31776 3.22945 0
M  V30 12789 C 979.394 -4.27147 2.23315 0
M  V30 12790 N 979.314 -3.78447 1.02186 0
M  V30 12791 C 979.174 -2.41001 1.21732 0
M  V30 12792 C 979.044 -1.36111 0.27694 0
M  V30 12793 O 979.024 -1.42065 -0.951767 0
M  V30 12794 N 978.924 -0.113683 0.912949 0
M  V30 12795 C 978.924 0.0846396 2.27943 0
M  V30 12796 N 978.794 1.34737 2.6916 0
M  V30 12797 N 979.054 -0.902521 3.16379 0
M  V30 12798 C 979.174 -2.11937 2.56849 0
M  V30 12799 H 982.153 -6.54213 5.71376 0
M  V30 12800 H 982.425 -5.30492 4.44033 0
M  V30 12801 H 981.557 -4.55889 6.76652 0
M  V30 12802 H 978.902 -2.6176 5.18021 0
M  V30 12803 H 978.622 -5.52233 4.41941 0
M  V30 12804 H 977.631 -4.52045 5.53452 0
M  V30 12805 H 979.465 -6.25193 6.55307 0
M  V30 12806 H 979.514 -5.3351 2.43857 0
M  V30 12807 H 978.832 0.69331 0.330371 0
M  V30 12808 H 978.795 1.56433 3.6988 0
M  V30 12809 H 978.694 2.10701 2.00133 0
M  V30 12810 P 977.594 -4.23843 7.83734 0
M  V30 12811 O 977.374 -4.19407 9.29784 0
M  V30 12812 O 976.804 -5.24426 7.09156 0
M  V30 12813 O 977.344 -2.7935 7.20758 0
M  V30 12814 C 978.284 -1.7299 7.50419 0
M  V30 12815 C 977.554 -0.406376 7.57911 0
M  V30 12816 O 977.344 0.0897726 6.21935 0
M  V30 12817 C 976.154 -0.447224 8.1878 0
M  V30 12818 O 975.764 0.825065 8.71101 0
M  V30 12819 C 975.274 -0.783801 6.99623 0
M  V30 12820 C 975.984 -0.0619192 5.85967 0
M  V30 12821 N 975.934 -0.7859 4.56281 0
M  V30 12822 H 978.773 -1.93423 8.4679 0
M  V30 12823 H 979.045 -1.68181 6.71046 0
M  V30 12824 H 978.177 0.289041 8.15388 0
M  V30 12825 P 974.214 1.17771 8.83182 0
M  V30 12826 O 973.994 2.07206 9.98732 0
M  V30 12827 O 973.424 -0.0743816 8.81969 0
M  V30 12828 O 973.964 1.97678 7.474 0
M  V30 12829 C 974.904 3.01133 7.08783 0
M  V30 12830 C 974.174 4.1203 6.37546 0
M  V30 12831 O 973.964 3.72887 4.9796 0
M  V30 12832 C 972.774 4.45085 6.88694 0
M  V30 12833 O 972.384 5.78836 6.56315 0
M  V30 12834 C 971.894 3.47817 6.12078 0
M  V30 12835 C 972.604 3.39414 4.77697 0
M  V30 12836 N 972.554 2.04615 4.15333 0
M  V30 12837 C 972.404 1.96929 2.77162 0
M  V30 12838 O 972.314 3.02017 2.12006 0
M  V30 12839 N 972.354 0.55485 2.24237 0
M  V30 12840 C 972.454 -0.367808 2.9169 0
M  V30 12841 N 972.404 -1.53426 2.29427 0
M  V30 12842 C 972.604 -0.319148 4.33828 0
M  V30 12843 C 972.654 0.920672 4.90433 0
M  V30 12844 H 975.394 3.41209 7.98667 0
M  V30 12845 H 975.664 2.5837 6.41742 0
M  V30 12846 H 974.797 5.02718 6.42752 0
M  V30 12847 H 972.142 4.11779 4.09026 0
M  V30 12848 H 971.862 2.49661 6.61772 0
M  V30 12849 H 970.871 3.86674 6.00946 0
M  V30 12850 H 972.705 4.29991 7.97006 0
M  V30 12851 H 972.777 1.00589 5.98303 0
M  V30 12852 H 972.675 -1.22639 4.93799 0
M  V30 12853 H 972.287 -1.56819 1.27167 0
M  V30 12854 H 972.483 -2.41062 2.83063 0
M  V30 12855 P 970.834 6.144 6.45285 0
M  V30 12856 O 970.614 7.54673 6.86199 0
M  V30 12857 O 970.044 5.12391 7.179 0
M  V30 12858 O 970.584 5.99158 4.88404 0
M  V30 12859 C 971.524 6.60234 3.96415 0
M  V30 12860 C 970.794 7.08259 2.72856 0
M  V30 12861 O 970.584 5.9427 1.83651 0
M  V30 12862 C 969.394 7.64886 2.9555 0
M  V30 12863 O 969.004 8.53963 1.90717 0
M  V30 12864 C 968.514 6.4116 2.90739 0
M  V30 12865 C 969.224 5.55375 1.86963 0
M  V30 12866 N 969.174 4.09448 2.16152 0
M  V30 12867 C 969.254 3.46824 3.37593 0
M  V30 12868 N 969.184 2.17422 3.29777 0
M  V30 12869 C 969.034 1.93065 1.94427 0
M  V30 12870 C 968.904 0.738053 1.20141 0
M  V30 12871 N 968.894 -0.474256 1.74676 0
M  V30 12872 N 968.784 0.850049 -0.13045 0
M  V30 12873 C 968.794 2.06169 -0.676992 0
M  V30 12874 N 968.914 3.23842 -0.101312 0
M  V30 12875 C 969.034 3.09402 1.23122 0
M  V30 12876 H 972.013 7.45574 4.45629 0
M  V30 12877 H 972.285 5.85864 3.679 0
M  V30 12878 H 971.417 7.84412 2.24479 0
M  V30 12879 H 968.762 5.73457 0.888562 0
M  V30 12880 H 968.482 5.90877 3.88583 0
M  V30 12881 H 967.491 6.6596 2.58858 0
M  V30 12882 H 969.325 8.16339 3.92049 0
M  V30 12883 H 969.366 4.00505 4.3174 0
M  V30 12884 H 968.985 -0.581337 2.76658 0
M  V30 12885 H 968.796 -1.30811 1.14888 0
M  V30 12886 H 968.688 2.08295 -1.75542 0
M  V30 12887 P 967.454 8.7635 1.60911 0
M  V30 12888 O 967.234 10.1388 1.11561 0
M  V30 12889 O 966.664 8.36503 2.79617 0
M  V30 12890 O 967.204 7.71806 0.42951 0
M  V30 12891 C 968.144 7.67148 -0.673689 0
M  V30 12892 C 967.414 7.33374 -1.95559 0
M  V30 12893 O 967.204 5.88721 -2.00726 0
M  V30 12894 C 966.014 7.92526 -2.10483 0
M  V30 12895 O 965.624 8.02971 -3.47653 0
M  V30 12896 C 965.134 6.89602 -1.41652 0
M  V30 12897 C 965.844 5.59201 -1.75185 0
M  V30 12898 N 965.794 4.58301 -0.657969 0
M  V30 12899 C 965.874 4.79019 0.692603 0
M  V30 12900 N 965.804 3.69736 1.38998 0
M  V30 12901 C 965.654 2.70474 0.438135 0
M  V30 12902 C 965.524 1.30327 0.538142 0
M  V30 12903 N 965.514 0.64304 1.69192 0
M  V30 12904 N 965.404 0.611027 -0.605183 0
M  V30 12905 C 965.414 1.27002 -1.75953 0
M  V30 12906 N 965.534 2.56038 -1.98546 0
M  V30 12907 C 965.654 3.22681 -0.822541 0
M  V30 12908 H 968.633 8.65116 -0.777161 0
M  V30 12909 H 968.905 6.9022 -0.46725 0
M  V30 12910 H 968.037 7.66548 -2.79458 0
M  V30 12911 H 965.382 5.16165 -2.65183 0
M  V30 12912 H 965.102 7.06433 -0.329384 0
M  V30 12913 H 964.111 6.90926 -1.82021 0
M  V30 12914 H 965.945 8.90873 -1.62657 0
M  V30 12915 H 965.986 5.77785 1.13874 0
M  V30 12916 H 965.605 1.15585 2.57991 0
M  V30 12917 H 965.416 -0.382989 1.69835 0
M  V30 12918 H 965.308 0.653331 -2.64449 0
M  V30 12919 P 964.074 8.03563 -3.84925 0
M  V30 12920 O 963.854 8.85821 -5.0569 0
M  V30 12921 O 963.284 8.41101 -2.65469 0
M  V30 12922 O 963.824 6.4965 -4.18908 0
M  V30 12923 C 964.764 5.81037 -5.05421 0
M  V30 12924 C 964.034 4.78366 -5.89277 0
M  V30 12925 O 963.824 3.58302 -5.08433 0
M  V30 12926 C 962.634 5.17448 -6.36119 0
M  V30 12927 O 962.244 4.45271 -7.53232 0
M  V30 12928 C 961.754 4.74639 -5.19936 0
M  V30 12929 C 962.464 3.49432 -4.70418 0
M  V30 12930 N 962.414 3.32099 -3.22613 0
M  V30 12931 H 965.253 6.54213 -5.71376 0
M  V30 12932 H 965.525 5.30936 -4.43503 0
M  V30 12933 H 964.657 4.55889 -6.76652 0
M  V30 12934 H 962.002 2.61715 -5.17932 0
M  V30 12935 H 961.722 5.52155 -4.41878 0
M  V30 12936 H 960.731 4.51981 -5.53374 0
M  V30 12937 H 962.565 6.25124 -6.55234 0
M  V30 12938 P 960.694 4.23843 -7.83734 0
M  V30 12939 O 960.474 4.19407 -9.29784 0
M  V30 12940 O 959.904 5.24426 -7.09156 0
M  V30 12941 O 960.444 2.7935 -7.20758 0
M  V30 12942 C 961.384 1.7299 -7.50419 0
M  V30 12943 C 960.654 0.406376 -7.57911 0
M  V30 12944 O 960.444 -0.0897726 -6.21935 0
M  V30 12945 C 959.254 0.447224 -8.1878 0
M  V30 12946 O 958.864 -0.825065 -8.71101 0
M  V30 12947 C 958.374 0.783801 -6.99623 0
M  V30 12948 C 959.084 0.0619192 -5.85967 0
M  V30 12949 N 959.034 0.7859 -4.56281 0
M  V30 12950 H 961.873 1.93423 -8.4679 0
M  V30 12951 H 962.145 1.68181 -6.71046 0
M  V30 12952 H 961.277 -0.289041 -8.15388 0
M  V30 12953 P 957.314 -1.17771 -8.83182 0
M  V30 12954 O 957.094 -2.07206 -9.98732 0
M  V30 12955 O 956.524 0.0743816 -8.81969 0
M  V30 12956 O 957.064 -1.97652 -7.47304 0
M  V30 12957 C 958.004 -3.01133 -7.08783 0
M  V30 12958 C 957.274 -4.12613 -6.37049 0
M  V30 12959 O 957.064 -3.72827 -4.97879 0
M  V30 12960 C 955.874 -4.45085 -6.88694 0
M  V30 12961 O 955.484 -5.7877 -6.5624 0
M  V30 12962 C 954.994 -3.47817 -6.12078 0
M  V30 12963 C 955.704 -3.39414 -4.77697 0
M  V30 12964 N 955.654 -2.04615 -4.15333 0
M  V30 12965 H 958.493 -3.41248 -7.98759 0
M  V30 12966 H 958.765 -2.5837 -6.41742 0
M  V30 12967 H 957.897 -5.02657 -6.42673 0
M  V30 12968 P 953.934 -6.144 -6.45285 0
M  V30 12969 O 953.714 -7.54673 -6.86199 0
M  V30 12970 O 953.144 -5.12391 -7.179 0
M  V30 12971 O 953.684 -5.99158 -4.88404 0
M  V30 12972 C 954.624 -6.60234 -3.96415 0
M  V30 12973 C 953.894 -7.08259 -2.72856 0
M  V30 12974 O 953.684 -5.9427 -1.83651 0
M  V30 12975 C 952.494 -7.64886 -2.9555 0
M  V30 12976 O 952.104 -8.53963 -1.90717 0
M  V30 12977 C 951.614 -6.4116 -2.90739 0
M  V30 12978 C 952.324 -5.55375 -1.86963 0
M  V30 12979 N 952.274 -4.09448 -2.16152 0
M  V30 12980 C 952.354 -3.46824 -3.37593 0
M  V30 12981 N 952.284 -2.17422 -3.29777 0
M  V30 12982 C 952.134 -1.93065 -1.94427 0
M  V30 12983 C 952.004 -0.738053 -1.20141 0
M  V30 12984 N 951.994 0.474256 -1.74676 0
M  V30 12985 N 951.884 -0.850049 0.13045 0
M  V30 12986 C 951.894 -2.06169 0.676992 0
M  V30 12987 N 952.014 -3.23842 0.101312 0
M  V30 12988 C 952.134 -3.09402 -1.23122 0
M  V30 12989 H 955.113 -7.45574 -4.45629 0
M  V30 12990 H 955.385 -5.85864 -3.679 0
M  V30 12991 H 954.517 -7.84412 -2.24479 0
M  V30 12992 H 951.862 -5.73457 -0.888562 0
M  V30 12993 H 951.582 -5.90877 -3.88583 0
M  V30 12994 H 950.591 -6.6596 -2.58858 0
M  V30 12995 H 952.425 -8.16339 -3.92049 0
M  V30 12996 H 952.466 -4.00505 -4.3174 0
M  V30 12997 H 952.085 0.581337 -2.76658 0
M  V30 12998 H 951.896 1.30811 -1.14888 0
M  V30 12999 H 951.788 -2.08295 1.75542 0
M  V30 13000 P 950.554 -8.7635 -1.60911 0
M  V30 13001 O 950.334 -10.1388 -1.11561 0
M  V30 13002 O 949.764 -8.36503 -2.79617 0
M  V30 13003 O 950.304 -7.71806 -0.42951 0
M  V30 13004 C 951.244 -7.67148 0.673689 0
M  V30 13005 C 950.514 -7.33374 1.95559 0
M  V30 13006 O 950.304 -5.88721 2.00726 0
M  V30 13007 C 949.114 -7.92526 2.10483 0
M  V30 13008 O 948.724 -8.02971 3.47653 0
M  V30 13009 C 948.234 -6.89602 1.41652 0
M  V30 13010 C 948.944 -5.59201 1.75185 0
M  V30 13011 N 948.894 -4.58301 0.657969 0
M  V30 13012 H 951.733 -8.65116 0.777161 0
M  V30 13013 H 952.005 -6.9022 0.46725 0
M  V30 13014 H 951.137 -7.66548 2.79458 0
M  V30 13015 H 948.482 -5.16165 2.65183 0
M  V30 13016 H 948.202 -7.06433 0.329384 0
M  V30 13017 H 947.211 -6.90926 1.82021 0
M  V30 13018 H 949.045 -8.90873 1.62657 0
M  V30 13019 P 947.174 -8.03563 3.84925 0
M  V30 13020 O 946.954 -8.85821 5.0569 0
M  V30 13021 O 946.384 -8.41101 2.65469 0
M  V30 13022 O 946.924 -6.49734 4.18962 0
M  V30 13023 C 947.864 -5.81037 5.05421 0
M  V30 13024 C 947.134 -4.79018 5.88876 0
M  V30 13025 O 946.924 -3.58359 5.08515 0
M  V30 13026 C 945.734 -5.17448 6.36119 0
M  V30 13027 O 945.344 -4.45322 7.53318 0
M  V30 13028 C 944.854 -4.74639 5.19936 0
M  V30 13029 C 945.564 -3.49432 4.70418 0
M  V30 13030 N 945.514 -3.31776 3.22945 0
M  V30 13031 C 945.364 -2.02742 2.72939 0
M  V30 13032 O 945.274 -1.08301 3.52749 0
M  V30 13033 N 945.314 -1.96117 1.22063 0
M  V30 13034 C 945.414 -2.8878 0.551566 0
M  V30 13035 N 945.364 -2.65609 -0.750198 0
M  V30 13036 C 945.564 -4.22457 1.03707 0
M  V30 13037 C 945.614 -4.37979 2.39113 0
M  V30 13038 H 948.354 -6.54138 5.7131 0
M  V30 13039 H 948.624 -5.30492 4.44033 0
M  V30 13040 H 947.757 -4.55945 6.76735 0
M  V30 13041 H 945.102 -2.6176 5.18021 0
M  V30 13042 H 944.822 -5.52233 4.41941 0
M  V30 13043 H 943.831 -4.52045 5.53452 0
M  V30 13044 H 945.665 -6.25124 6.55234 0
M  V30 13045 H 945.737 -5.37936 2.80552 0
M  V30 13046 H 945.635 -5.07528 0.359553 0
M  V30 13047 H 945.247 -1.69403 -1.09847 0
M  V30 13048 H 945.443 -3.43701 -1.41792 0
M  V30 13049 P 943.794 -4.23843 7.83734 0
M  V30 13050 O 943.574 -4.19407 9.29784 0
M  V30 13051 O 943.004 -5.24426 7.09156 0
M  V30 13052 O 943.544 -2.79386 7.20852 0
M  V30 13053 C 944.484 -1.7299 7.50419 0
M  V30 13054 C 943.754 -0.41401 7.5797 0
M  V30 13055 O 943.544 0.089787 6.22035 0
M  V30 13056 C 942.354 -0.447224 8.1878 0
M  V30 13057 O 941.964 0.825159 8.71201 0
M  V30 13058 C 941.474 -0.783801 6.99623 0
M  V30 13059 C 942.184 -0.0619192 5.85967 0
M  V30 13060 N 942.134 -0.7859 4.56281 0
M  V30 13061 C 941.984 -0.0359258 3.39981 0
M  V30 13062 O 941.894 1.19723 3.49038 0
M  V30 13063 N 941.934 -0.869151 2.14025 0
M  V30 13064 C 942.034 -2.01207 2.14363 0
M  V30 13065 N 941.984 -2.58978 0.954287 0
M  V30 13066 C 942.184 -2.80817 3.32215 0
M  V30 13067 C 942.234 -2.13785 4.50884 0
M  V30 13068 H 944.974 -1.93401 8.46693 0
M  V30 13069 H 945.244 -1.68181 6.71046 0
M  V30 13070 H 944.377 0.289076 8.15488 0
M  V30 13071 H 941.722 0.927166 5.72947 0
M  V30 13072 H 941.442 -1.87 6.82132 0
M  V30 13073 H 940.451 -0.404009 7.13457 0
M  V30 13074 H 942.285 -1.20599 8.97534 0
M  V30 13075 H 942.357 -2.70295 5.43162 0
M  V30 13076 H 942.255 -3.89465 3.27406 0
M  V30 13077 H 941.867 -2.01616 0.107046 0
M  V30 13078 H 942.063 -3.61403 0.873101 0
M  V30 13079 P 940.414 1.17771 8.83182 0
M  V30 13080 O 940.194 2.07206 9.98732 0
M  V30 13081 O 939.624 -0.0743816 8.81969 0
M  V30 13082 O 940.164 1.97652 7.47304 0
M  V30 13083 C 941.104 3.01133 7.08783 0
M  V30 13084 C 940.374 4.12613 6.37049 0
M  V30 13085 O 940.164 3.72827 4.97879 0
M  V30 13086 C 938.974 4.45085 6.88694 0
M  V30 13087 O 938.584 5.7877 6.5624 0
M  V30 13088 C 938.094 3.47817 6.12078 0
M  V30 13089 C 938.804 3.39414 4.77697 0
M  V30 13090 N 938.754 2.04199 4.15538 0
M  V30 13091 H 941.593 3.41248 7.98759 0
M  V30 13092 H 941.865 2.57728 6.42 0
M  V30 13093 H 940.997 5.02657 6.42673 0
M  V30 13094 H 938.342 4.11708 4.08956 0
M  V30 13095 H 938.062 2.49626 6.61679 0
M  V30 13096 H 937.071 3.8662 6.00862 0
M  V30 13097 H 938.905 4.29991 7.97006 0
M  V30 13098 P 937.034 6.144 6.45285 0
M  V30 13099 O 936.814 7.54673 6.86199 0
M  V30 13100 O 936.244 5.12391 7.179 0
M  V30 13101 O 936.784 5.99236 4.88467 0
M  V30 13102 C 937.724 6.60234 3.96415 0
M  V30 13103 C 936.994 7.08079 2.736 0
M  V30 13104 O 936.784 5.94365 1.8368 0
M  V30 13105 C 935.594 7.64886 2.9555 0
M  V30 13106 O 935.204 8.5406 1.90739 0
M  V30 13107 C 934.714 6.4116 2.90739 0
M  V30 13108 C 935.424 5.55375 1.86963 0
M  V30 13109 N 935.374 4.09664 2.15742 0
M  V30 13110 C 935.224 3.22231 1.08477 0
M  V30 13111 O 935.134 3.68951 -0.0600489 0
M  V30 13112 N 935.174 1.76692 1.48799 0
M  V30 13113 C 935.274 1.41695 2.57602 0
M  V30 13114 N 935.224 0.107296 2.75791 0
M  V30 13115 C 935.424 2.29178 3.69733 0
M  V30 13116 C 935.474 3.62753 3.42653 0
M  V30 13117 H 938.214 7.45488 4.45578 0
M  V30 13118 H 938.484 5.86232 3.67314 0
M  V30 13119 H 937.617 7.84508 2.24507 0
M  V30 13120 H 934.962 5.73556 0.888715 0
M  V30 13121 H 934.682 5.9096 3.88638 0
M  V30 13122 H 933.691 6.66053 2.58894 0
M  V30 13123 H 935.525 8.16339 3.92049 0
M  V30 13124 H 935.597 4.33052 4.24913 0
M  V30 13125 H 935.495 1.9103 4.71577 0
M  V30 13126 H 935.107 -0.521221 1.95056 0
M  V30 13127 H 935.303 -0.286429 3.70695 0
M  V30 13128 P 933.655 8.7635 1.60911 0
M  V30 13129 O 933.435 10.1388 1.11561 0
M  V30 13130 O 932.865 8.36503 2.79617 0
M  V30 13131 O 933.405 7.71806 0.42951 0
M  V30 13132 C 934.345 7.67148 -0.673689 0
M  V30 13133 C 933.615 7.33374 -1.95559 0
M  V30 13134 O 933.405 5.88721 -2.00726 0
M  V30 13135 C 932.215 7.92526 -2.10483 0
M  V30 13136 O 931.825 8.02971 -3.47653 0
M  V30 13137 C 931.335 6.89602 -1.41652 0
M  V30 13138 C 932.045 5.59201 -1.75185 0
M  V30 13139 N 931.995 4.58235 -0.662552 0
M  V30 13140 C 932.075 4.7683 0.704049 0
M  V30 13141 N 931.995 3.66233 1.39775 0
M  V30 13142 C 931.855 2.66526 0.431739 0
M  V30 13143 C 931.725 1.26394 0.575992 0
M  V30 13144 N 931.605 0.62859 -0.67177 0
M  V30 13145 C 931.605 1.27134 -1.89385 0
M  V30 13146 N 931.475 0.492035 -2.96951 0
M  V30 13147 N 931.735 2.58978 -2.02907 0
M  V30 13148 C 931.855 3.22433 -0.832218 0
M  V30 13149 H 934.834 8.65116 -0.777161 0
M  V30 13150 H 935.106 6.90173 -0.474152 0
M  V30 13151 H 934.238 7.66548 -2.79458 0
M  V30 13152 P 930.275 8.03563 -3.84925 0
M  V30 13153 O 930.055 8.85821 -5.0569 0
M  V30 13154 O 929.485 8.41101 -2.65469 0
M  V30 13155 O 930.025 6.4965 -4.18908 0
M  V30 13156 C 930.965 5.80886 -5.05289 0
M  V30 13157 C 930.235 4.78366 -5.89277 0
M  V30 13158 O 930.025 3.58302 -5.08433 0
M  V30 13159 C 928.835 5.16748 -6.36559 0
M  V30 13160 O 928.445 4.45271 -7.53232 0
M  V30 13161 C 927.955 4.74572 -5.19863 0
M  V30 13162 C 928.665 3.49373 -4.70338 0
M  V30 13163 N 928.615 3.31704 -3.22876 0
M  V30 13164 C 928.465 2.03326 -2.74871 0
M  V30 13165 O 928.375 1.06486 -3.48076 0
M  V30 13166 N 928.425 1.91838 -1.37456 0
M  V30 13167 C 928.515 2.94295 -0.462035 0
M  V30 13168 C 928.665 4.25064 -1.05249 0
M  V30 13169 C 928.715 4.40214 -2.39192 0
M  V30 13170 H 931.456 6.54063 -5.71245 0
M  V30 13171 H 931.725 5.30339 -4.43905 0
M  V30 13172 H 930.858 4.55889 -6.76652 0
M  V30 13173 H 928.203 2.6167 -5.17842 0
M  V30 13174 H 927.924 5.52155 -4.41878 0
M  V30 13175 H 926.932 4.51918 -5.53297 0
M  V30 13176 H 928.766 6.25055 -6.55162 0
M  V30 13177 H 928.837 5.39798 -2.81523 0
M  V30 13178 P 926.895 4.23843 -7.83734 0
M  V30 13179 O 926.675 4.19407 -9.29784 0
M  V30 13180 O 926.105 5.24426 -7.09156 0
M  V30 13181 O 926.645 2.7935 -7.20758 0
M  V30 13182 C 927.585 1.7299 -7.50419 0
M  V30 13183 C 926.855 0.406376 -7.57911 0
M  V30 13184 O 926.645 -0.0897726 -6.21935 0
M  V30 13185 C 925.455 0.447224 -8.1878 0
M  V30 13186 O 925.065 -0.825065 -8.71101 0
M  V30 13187 C 924.575 0.783801 -6.99623 0
M  V30 13188 C 925.285 0.0619192 -5.85967 0
M  V30 13189 N 925.235 0.7859 -4.56281 0
M  V30 13190 H 928.074 1.93423 -8.4679 0
M  V30 13191 H 928.346 1.68181 -6.71046 0
M  V30 13192 H 927.478 -0.289041 -8.15388 0
M  V30 13193 P 923.515 -1.17771 -8.83182 0
M  V30 13194 O 923.295 -2.07206 -9.98732 0
M  V30 13195 O 922.725 0.0743816 -8.81969 0
M  V30 13196 O 923.265 -1.97652 -7.47304 0
M  V30 13197 C 924.205 -3.01133 -7.08783 0
M  V30 13198 C 923.475 -4.12613 -6.37049 0
M  V30 13199 O 923.265 -3.72827 -4.97879 0
M  V30 13200 C 922.075 -4.45085 -6.88694 0
M  V30 13201 O 921.685 -5.7877 -6.5624 0
M  V30 13202 C 921.195 -3.47817 -6.12078 0
M  V30 13203 C 921.905 -3.39414 -4.77697 0
M  V30 13204 N 921.855 -2.04199 -4.15538 0
M  V30 13205 H 924.694 -3.41248 -7.98759 0
M  V30 13206 H 924.966 -2.57728 -6.42 0
M  V30 13207 H 924.098 -5.02657 -6.42673 0
M  V30 13208 H 921.443 -4.11708 -4.08956 0
M  V30 13209 H 921.163 -2.49626 -6.61679 0
M  V30 13210 H 920.172 -3.8662 -6.00862 0
M  V30 13211 H 922.006 -4.29991 -7.97006 0
M  V30 13212 P 920.135 -6.144 -6.45285 0
M  V30 13213 O 919.915 -7.54673 -6.86199 0
M  V30 13214 O 919.345 -5.12391 -7.179 0
M  V30 13215 O 919.885 -5.99158 -4.88404 0
M  V30 13216 C 920.825 -6.60234 -3.96415 0
M  V30 13217 C 920.095 -7.08259 -2.72856 0
M  V30 13218 O 919.885 -5.9427 -1.83651 0
M  V30 13219 C 918.695 -7.64886 -2.9555 0
M  V30 13220 O 918.305 -8.53963 -1.90717 0
M  V30 13221 C 917.815 -6.4116 -2.90739 0
M  V30 13222 C 918.525 -5.55375 -1.86963 0
M  V30 13223 N 918.475 -4.09448 -2.16152 0
M  V30 13224 H 921.314 -7.45574 -4.45629 0
M  V30 13225 H 921.586 -5.85864 -3.679 0
M  V30 13226 H 920.718 -7.84412 -2.24479 0
M  V30 13227 H 918.063 -5.73457 -0.888562 0
M  V30 13228 H 917.783 -5.90877 -3.88583 0
M  V30 13229 H 916.792 -6.6596 -2.58858 0
M  V30 13230 H 918.626 -8.16339 -3.92049 0
M  V30 13231 P 916.755 -8.7635 -1.60911 0
M  V30 13232 O 916.535 -10.1388 -1.11561 0
M  V30 13233 O 915.965 -8.36503 -2.79617 0
M  V30 13234 O 916.505 -7.71806 -0.42951 0
M  V30 13235 C 917.445 -7.67148 0.673689 0
M  V30 13236 C 916.715 -7.33374 1.95559 0
M  V30 13237 O 916.505 -5.88721 2.00726 0
M  V30 13238 C 915.315 -7.92526 2.10483 0
M  V30 13239 O 914.925 -8.02971 3.47653 0
M  V30 13240 C 914.435 -6.89602 1.41652 0
M  V30 13241 C 915.145 -5.59201 1.75185 0
M  V30 13242 N 915.095 -4.58235 0.662552 0
M  V30 13243 H 917.934 -8.65116 0.777161 0
M  V30 13244 H 918.206 -6.90173 0.474152 0
M  V30 13245 H 917.338 -7.66548 2.79458 0
M  V30 13246 P 913.375 -8.03563 3.84925 0
M  V30 13247 O 913.155 -8.85821 5.0569 0
M  V30 13248 O 912.585 -8.41101 2.65469 0
M  V30 13249 O 913.125 -6.49734 4.18962 0
M  V30 13250 C 914.065 -5.81037 5.05421 0
M  V30 13251 C 913.335 -4.79018 5.88876 0
M  V30 13252 O 913.125 -3.58359 5.08515 0
M  V30 13253 C 911.935 -5.17448 6.36119 0
M  V30 13254 O 911.545 -4.45322 7.53318 0
M  V30 13255 C 911.055 -4.74639 5.19936 0
M  V30 13256 C 911.765 -3.49432 4.70418 0
M  V30 13257 N 911.715 -3.31776 3.22945 0
M  V30 13258 C 911.565 -2.02742 2.72939 0
M  V30 13259 O 911.475 -1.08301 3.52749 0
M  V30 13260 N 911.515 -1.96117 1.22063 0
M  V30 13261 C 911.615 -2.8878 0.551566 0
M  V30 13262 N 911.565 -2.65609 -0.750198 0
M  V30 13263 C 911.765 -4.22457 1.03707 0
M  V30 13264 C 911.815 -4.37979 2.39113 0
M  V30 13265 H 914.555 -6.54138 5.7131 0
M  V30 13266 H 914.825 -5.30492 4.44033 0
M  V30 13267 H 913.958 -4.55945 6.76735 0
M  V30 13268 H 911.303 -2.6176 5.18021 0
M  V30 13269 H 911.023 -5.52233 4.41941 0
M  V30 13270 H 910.032 -4.52045 5.53452 0
M  V30 13271 H 911.866 -6.25124 6.55234 0
M  V30 13272 H 911.938 -5.37936 2.80552 0
M  V30 13273 H 911.836 -5.07528 0.359553 0
M  V30 13274 H 911.448 -1.69403 -1.09847 0
M  V30 13275 H 911.644 -3.43701 -1.41792 0
M  V30 13276 P 909.995 -4.23843 7.83734 0
M  V30 13277 O 909.775 -4.19407 9.29784 0
M  V30 13278 O 909.205 -5.24426 7.09156 0
M  V30 13279 O 909.745 -2.7935 7.20758 0
M  V30 13280 C 910.685 -1.7299 7.50419 0
M  V30 13281 C 909.955 -0.406376 7.57911 0
M  V30 13282 O 909.745 0.0897726 6.21935 0
M  V30 13283 C 908.555 -0.447224 8.1878 0
M  V30 13284 O 908.165 0.825065 8.71101 0
M  V30 13285 C 907.675 -0.783801 6.99623 0
M  V30 13286 C 908.385 -0.0619192 5.85967 0
M  V30 13287 N 908.335 -0.790462 4.56202 0
M  V30 13288 H 911.174 -1.93423 8.4679 0
M  V30 13289 H 911.446 -1.68852 6.70877 0
M  V30 13290 H 910.578 0.289041 8.15388 0
M  V30 13291 H 907.923 0.927006 5.72848 0
M  V30 13292 H 907.643 -1.86973 6.82036 0
M  V30 13293 H 906.652 -0.403953 7.13357 0
M  V30 13294 H 908.486 -1.20599 8.97534 0
M  V30 13295 P 906.615 1.17771 8.83182 0
M  V30 13296 O 906.395 2.07206 9.98732 0
M  V30 13297 O 905.825 -0.0743816 8.81969 0
M  V30 13298 O 906.365 1.97652 7.47304 0
M  V30 13299 C 907.305 3.01133 7.08783 0
M  V30 13300 C 906.575 4.12613 6.37049 0
M  V30 13301 O 906.365 3.72827 4.97879 0
M  V30 13302 C 905.175 4.45085 6.88694 0
M  V30 13303 O 904.785 5.7877 6.5624 0
M  V30 13304 C 904.295 3.47817 6.12078 0
M  V30 13305 C 905.005 3.39414 4.77697 0
M  V30 13306 N 904.955 2.04615 4.15333 0
M  V30 13307 H 907.794 3.41248 7.98759 0
M  V30 13308 H 908.066 2.5837 6.41742 0
M  V30 13309 H 907.198 5.02657 6.42673 0
M  V30 13310 P 903.235 6.144 6.45285 0
M  V30 13311 O 903.015 7.54673 6.86199 0
M  V30 13312 O 902.445 5.12391 7.179 0
M  V30 13313 O 902.985 5.99158 4.88404 0
M  V30 13314 C 903.925 6.60234 3.96415 0
M  V30 13315 C 903.195 7.08259 2.72856 0
M  V30 13316 O 902.985 5.9427 1.83651 0
M  V30 13317 C 901.795 7.64886 2.9555 0
M  V30 13318 O 901.405 8.53963 1.90717 0
M  V30 13319 C 900.915 6.4116 2.90739 0
M  V30 13320 C 901.625 5.55375 1.86963 0
M  V30 13321 N 901.575 4.09664 2.15742 0
M  V30 13322 C 901.655 3.44381 3.37233 0
M  V30 13323 N 901.575 2.14131 3.28347 0
M  V30 13324 C 901.435 1.90247 1.91588 0
M  V30 13325 C 901.305 0.683992 1.20892 0
M  V30 13326 O 901.285 -0.46618 1.64523 0
M  V30 13327 N 901.185 0.903396 -0.173998 0
M  V30 13328 C 901.185 2.14171 -0.784879 0
M  V30 13329 N 901.055 2.1435 -2.11317 0
M  V30 13330 N 901.315 3.28784 -0.119316 0
M  V30 13331 C 901.435 3.0977 1.22194 0
M  V30 13332 H 904.414 7.45574 4.45629 0
M  V30 13333 H 904.686 5.86232 3.67314 0
M  V30 13334 H 903.818 7.84412 2.24479 0
M  V30 13335 H 901.163 5.73556 0.888715 0
M  V30 13336 H 900.883 5.9096 3.88638 0
M  V30 13337 H 899.892 6.66053 2.58894 0
M  V30 13338 H 901.726 8.16429 3.92093 0
M  V30 13339 H 901.775 3.96785 4.32043 0
M  V30 13340 H 901.093 0.0999567 -0.761467 0
M  V30 13341 H 901.056 3.03436 -2.63076 0
M  V30 13342 H 900.955 1.25228 -2.62233 0
M  V30 13343 P 899.855 8.7635 1.60911 0
M  V30 13344 O 899.635 10.1388 1.11561 0
M  V30 13345 O 899.065 8.36503 2.79617 0
M  V30 13346 O 899.605 7.71806 0.42951 0
M  V30 13347 C 900.545 7.67148 -0.673689 0
M  V30 13348 C 899.815 7.33374 -1.95559 0
M  V30 13349 O 899.605 5.88721 -2.00726 0
M  V30 13350 C 898.415 7.92526 -2.10483 0
M  V30 13351 O 898.025 8.02971 -3.47653 0
M  V30 13352 C 897.535 6.89602 -1.41652 0
M  V30 13353 C 898.245 5.59201 -1.75185 0
M  V30 13354 N 898.195 4.58235 -0.662552 0
M  V30 13355 C 898.275 4.7683 0.704049 0
M  V30 13356 N 898.195 3.66233 1.39775 0
M  V30 13357 C 898.055 2.66526 0.431739 0
M  V30 13358 C 897.925 1.26394 0.575992 0
M  V30 13359 N 897.805 0.62859 -0.67177 0
M  V30 13360 C 897.805 1.27134 -1.89385 0
M  V30 13361 N 897.675 0.492035 -2.96951 0
M  V30 13362 N 897.935 2.58978 -2.02907 0
M  V30 13363 C 898.055 3.22433 -0.832218 0
M  V30 13364 H 901.034 8.65116 -0.777161 0
M  V30 13365 H 901.306 6.90173 -0.474152 0
M  V30 13366 H 900.438 7.66548 -2.79458 0
M  V30 13367 P 896.475 8.03563 -3.84925 0
M  V30 13368 O 896.255 8.85821 -5.0569 0
M  V30 13369 O 895.685 8.41101 -2.65469 0
M  V30 13370 O 896.225 6.4965 -4.18908 0
M  V30 13371 C 897.165 5.81037 -5.05421 0
M  V30 13372 C 896.435 4.78366 -5.89277 0
M  V30 13373 O 896.225 3.58302 -5.08433 0
M  V30 13374 C 895.035 5.17448 -6.36119 0
M  V30 13375 O 894.645 4.45271 -7.53232 0
M  V30 13376 C 894.155 4.74639 -5.19936 0
M  V30 13377 C 894.865 3.49432 -4.70418 0
M  V30 13378 N 894.815 3.31776 -3.22945 0
M  V30 13379 H 897.654 6.54213 -5.71376 0
M  V30 13380 H 897.926 5.30492 -4.44033 0
M  V30 13381 H 897.058 4.55889 -6.76652 0
M  V30 13382 P 893.095 4.23843 -7.83734 0
M  V30 13383 O 892.875 4.19407 -9.29784 0
M  V30 13384 O 892.305 5.24426 -7.09156 0
M  V30 13385 O 892.845 2.7935 -7.20758 0
M  V30 13386 C 893.785 1.7299 -7.50419 0
M  V30 13387 C 893.055 0.406376 -7.57911 0
M  V30 13388 O 892.845 -0.0897726 -6.21935 0
M  V30 13389 C 891.655 0.447224 -8.1878 0
M  V30 13390 O 891.265 -0.825065 -8.71101 0
M  V30 13391 C 890.775 0.783801 -6.99623 0
M  V30 13392 C 891.485 0.0619192 -5.85967 0
M  V30 13393 N 891.435 0.7859 -4.56281 0
M  V30 13394 H 894.274 1.93423 -8.4679 0
M  V30 13395 H 894.546 1.68181 -6.71046 0
M  V30 13396 H 893.678 -0.289041 -8.15388 0
M  V30 13397 P 889.715 -1.17771 -8.83182 0
M  V30 13398 O 889.495 -2.07206 -9.98732 0
M  V30 13399 O 888.925 0.0743816 -8.81969 0
M  V30 13400 O 889.465 -1.97652 -7.47304 0
M  V30 13401 C 890.405 -3.01133 -7.08783 0
M  V30 13402 C 889.675 -4.12613 -6.37049 0
M  V30 13403 O 889.465 -3.72827 -4.97879 0
M  V30 13404 C 888.275 -4.45085 -6.88694 0
M  V30 13405 O 887.885 -5.7877 -6.5624 0
M  V30 13406 C 887.395 -3.47817 -6.12078 0
M  V30 13407 C 888.105 -3.39414 -4.77697 0
M  V30 13408 N 888.055 -2.04199 -4.15538 0
M  V30 13409 H 890.894 -3.41248 -7.98759 0
M  V30 13410 H 891.166 -2.57728 -6.42 0
M  V30 13411 H 890.298 -5.02657 -6.42673 0
M  V30 13412 H 887.643 -4.11708 -4.08956 0
M  V30 13413 H 887.363 -2.49626 -6.61679 0
M  V30 13414 H 886.372 -3.8662 -6.00862 0
M  V30 13415 H 888.206 -4.29991 -7.97006 0
M  V30 13416 P 886.335 -6.144 -6.45285 0
M  V30 13417 O 886.115 -7.54673 -6.86199 0
M  V30 13418 O 885.545 -5.12391 -7.179 0
M  V30 13419 O 886.085 -5.99158 -4.88404 0
M  V30 13420 C 887.025 -6.60062 -3.96313 0
M  V30 13421 C 886.295 -7.08259 -2.72856 0
M  V30 13422 O 886.085 -5.9427 -1.83651 0
M  V30 13423 C 884.895 -7.65087 -2.94749 0
M  V30 13424 O 884.505 -8.53963 -1.90717 0
M  V30 13425 C 884.015 -6.41069 -2.90698 0
M  V30 13426 C 884.725 -5.5528 -1.86931 0
M  V30 13427 N 884.675 -4.09575 -2.15696 0
M  V30 13428 C 884.525 -3.24249 -1.08435 0
M  V30 13429 O 884.435 -3.63946 0.0628747 0
M  V30 13430 N 884.485 -1.90009 -1.39973 0
M  V30 13431 C 884.575 -1.34884 -2.65614 0
M  V30 13432 C 884.725 -2.3145 -3.71736 0
M  V30 13433 C 884.775 -3.63518 -3.44754 0
M  V30 13434 H 887.516 -7.45402 -4.45526 0
M  V30 13435 H 887.785 -5.86062 -3.67208 0
M  V30 13436 H 886.918 -7.84412 -2.24479 0
M  V30 13437 H 884.263 -5.73358 -0.888409 0
M  V30 13438 H 883.984 -5.90877 -3.88583 0
M  V30 13439 H 882.992 -6.65867 -2.58821 0
M  V30 13440 H 884.826 -8.16248 -3.92006 0
M  V30 13441 H 884.897 -4.34551 -4.26383 0
M  V30 13442 P 882.955 -8.7635 -1.60911 0
M  V30 13443 O 882.735 -10.1388 -1.11561 0
M  V30 13444 O 882.165 -8.36503 -2.79617 0
M  V30 13445 O 882.705 -7.71906 -0.429565 0
M  V30 13446 C 883.645 -7.67148 0.673689 0
M  V30 13447 C 882.915 -7.33666 1.94851 0
M  V30 13448 O 882.705 -5.88816 2.00759 0
M  V30 13449 C 881.515 -7.92526 2.10483 0
M  V30 13450 O 881.125 -8.03063 3.47693 0
M  V30 13451 C 880.635 -6.89602 1.41652 0
M  V30 13452 C 881.345 -5.59201 1.75185 0
M  V30 13453 N 881.295 -4.58235 0.662552 0
M  V30 13454 C 881.145 -3.24451 1.01643 0
M  V30 13455 O 881.055 -2.94958 2.21722 0
M  V30 13456 N 881.095 -2.30408 -0.165238 0
M  V30 13457 C 881.195 -2.66048 -1.25118 0
M  V30 13458 N 881.145 -1.70787 -2.16813 0
M  V30 13459 C 881.345 -4.02732 -1.64413 0
M  V30 13460 C 881.395 -4.9488 -0.63991 0
M  V30 13461 H 884.135 -8.65017 0.777072 0
M  V30 13462 H 884.405 -6.90173 0.474152 0
M  V30 13463 H 883.538 -7.66642 2.79492 0
M  V30 13464 H 880.883 -5.16254 2.65229 0
M  V30 13465 H 880.603 -7.06532 0.329431 0
M  V30 13466 H 879.612 -6.91023 1.82047 0
M  V30 13467 H 881.446 -8.90873 1.62657 0
M  V30 13468 H 881.518 -6.00104 -0.892197 0
M  V30 13469 H 881.416 -4.31733 -2.69229 0
M  V30 13470 H 881.028 -0.724835 -1.8844 0
M  V30 13471 H 881.224 -1.94716 -3.16734 0
M  V30 13472 P 879.575 -8.03563 3.84925 0
M  V30 13473 O 879.355 -8.85821 5.0569 0
M  V30 13474 O 878.785 -8.41101 2.65469 0
M  V30 13475 O 879.325 -6.4965 4.18908 0
M  V30 13476 C 880.265 -5.81037 5.05421 0
M  V30 13477 C 879.535 -4.78366 5.89277 0
M  V30 13478 O 879.325 -3.58302 5.08433 0
M  V30 13479 C 878.135 -5.17448 6.36119 0
M  V30 13480 O 877.745 -4.45271 7.53232 0
M  V30 13481 C 877.255 -4.74639 5.19936 0
M  V30 13482 C 877.965 -3.49432 4.70418 0
M  V30 13483 N 877.915 -3.31776 3.22945 0
M  V30 13484 H 880.754 -6.54213 5.71376 0
M  V30 13485 H 881.026 -5.30492 4.44033 0
M  V30 13486 H 880.158 -4.55889 6.76652 0
M  V30 13487 P 876.195 -4.23843 7.83734 0
M  V30 13488 O 875.975 -4.19407 9.29784 0
M  V30 13489 O 875.405 -5.24426 7.09156 0
M  V30 13490 O 875.945 -2.7935 7.20758 0
M  V30 13491 C 876.885 -1.72945 7.50224 0
M  V30 13492 C 876.155 -0.406376 7.57911 0
M  V30 13493 O 875.945 0.0897726 6.21935 0
M  V30 13494 C 874.755 -0.438983 8.18724 0
M  V30 13495 O 874.365 0.825065 8.71101 0
M  V30 13496 C 873.875 -0.783689 6.99524 0
M  V30 13497 C 874.585 -0.0619086 5.85867 0
M  V30 13498 N 874.535 -0.78573 4.56183 0
M  V30 13499 C 874.385 -0.0292889 3.41887 0
M  V30 13500 O 874.295 1.18445 3.4419 0
M  V30 13501 N 874.345 -0.744061 2.23964 0
M  V30 13502 C 874.435 -2.10932 2.10362 0
M  V30 13503 C 874.585 -2.8202 3.34994 0
M  V30 13504 C 874.635 -2.15547 4.52261 0
M  V30 13505 H 877.376 -1.93379 8.46595 0
M  V30 13506 H 877.645 -1.68132 6.70852 0
M  V30 13507 H 876.778 0.289041 8.15388 0
M  V30 13508 H 874.123 0.926847 5.72749 0
M  V30 13509 H 873.844 -1.86973 6.82036 0
M  V30 13510 H 872.852 -0.403896 7.13257 0
M  V30 13511 H 874.686 -1.20585 8.97435 0
M  V30 13512 H 874.757 -2.71231 5.45042 0
M  V30 13513 P 872.815 1.17771 8.83182 0
M  V30 13514 O 872.595 2.07206 9.98732 0
M  V30 13515 O 872.025 -0.0743816 8.81969 0
M  V30 13516 O 872.565 1.97652 7.47304 0
M  V30 13517 C 873.505 3.01133 7.08783 0
M  V30 13518 C 872.775 4.12613 6.37049 0
M  V30 13519 O 872.565 3.72827 4.97879 0
M  V30 13520 C 871.375 4.45085 6.88694 0
M  V30 13521 O 870.985 5.7877 6.5624 0
M  V30 13522 C 870.495 3.47817 6.12078 0
M  V30 13523 C 871.205 3.39414 4.77697 0
M  V30 13524 N 871.155 2.04199 4.15538 0
M  V30 13525 H 873.994 3.41248 7.98759 0
M  V30 13526 H 874.266 2.57728 6.42 0
M  V30 13527 H 873.398 5.02657 6.42673 0
M  V30 13528 H 870.743 4.11708 4.08956 0
M  V30 13529 H 870.463 2.49626 6.61679 0
M  V30 13530 H 869.472 3.8662 6.00862 0
M  V30 13531 H 871.306 4.29991 7.97006 0
M  V30 13532 P 869.435 6.144 6.45285 0
M  V30 13533 O 869.215 7.54673 6.86199 0
M  V30 13534 O 868.645 5.12391 7.179 0
M  V30 13535 O 869.185 5.99158 4.88404 0
M  V30 13536 C 870.125 6.60234 3.96415 0
M  V30 13537 C 869.395 7.08259 2.72856 0
M  V30 13538 O 869.185 5.9427 1.83651 0
M  V30 13539 C 867.995 7.64886 2.9555 0
M  V30 13540 O 867.605 8.53963 1.90717 0
M  V30 13541 C 867.115 6.4116 2.90739 0
M  V30 13542 C 867.825 5.55375 1.86963 0
M  V30 13543 N 867.775 4.09448 2.16152 0
M  V30 13544 H 870.614 7.45574 4.45629 0
M  V30 13545 H 870.886 5.85864 3.679 0
M  V30 13546 H 870.018 7.84412 2.24479 0
M  V30 13547 H 867.363 5.73457 0.888562 0
M  V30 13548 H 867.083 5.90877 3.88583 0
M  V30 13549 H 866.092 6.6596 2.58858 0
M  V30 13550 H 867.926 8.16339 3.92049 0
M  V30 13551 P 866.055 8.7635 1.60911 0
M  V30 13552 O 865.835 10.1388 1.11561 0
M  V30 13553 O 865.265 8.36503 2.79617 0
M  V30 13554 O 865.805 7.71906 0.429565 0
M  V30 13555 C 866.745 7.67148 -0.673689 0
M  V30 13556 C 866.015 7.33666 -1.94851 0
M  V30 13557 O 865.805 5.88816 -2.00759 0
M  V30 13558 C 864.615 7.92526 -2.10483 0
M  V30 13559 O 864.225 8.03063 -3.47693 0
M  V30 13560 C 863.735 6.89602 -1.41652 0
M  V30 13561 C 864.445 5.59201 -1.75185 0
M  V30 13562 N 864.395 4.58235 -0.662552 0
M  V30 13563 C 864.245 3.24451 -1.01643 0
M  V30 13564 O 864.155 2.94958 -2.21722 0
M  V30 13565 N 864.195 2.30408 0.165238 0
M  V30 13566 C 864.295 2.66048 1.25118 0
M  V30 13567 N 864.245 1.70787 2.16813 0
M  V30 13568 C 864.445 4.02732 1.64413 0
M  V30 13569 C 864.495 4.9488 0.63991 0
M  V30 13570 H 867.235 8.65017 -0.777072 0
M  V30 13571 H 867.505 6.90173 -0.474152 0
M  V30 13572 H 866.638 7.66642 -2.79492 0
M  V30 13573 H 863.983 5.16254 -2.65229 0
M  V30 13574 H 863.703 7.06532 -0.329431 0
M  V30 13575 H 862.712 6.91023 -1.82047 0
M  V30 13576 H 864.546 8.90873 -1.62657 0
M  V30 13577 H 864.618 6.00104 0.892197 0
M  V30 13578 H 864.516 4.31733 2.69229 0
M  V30 13579 H 864.128 0.724835 1.8844 0
M  V30 13580 H 864.324 1.94716 3.16734 0
M  V30 13581 P 862.675 8.03563 -3.84925 0
M  V30 13582 O 862.455 8.85821 -5.0569 0
M  V30 13583 O 861.885 8.41101 -2.65469 0
M  V30 13584 O 862.425 6.4965 -4.18908 0
M  V30 13585 C 863.365 5.81037 -5.05421 0
M  V30 13586 C 862.635 4.78366 -5.89277 0
M  V30 13587 O 862.425 3.58302 -5.08433 0
M  V30 13588 C 861.235 5.17448 -6.36119 0
M  V30 13589 O 860.845 4.45271 -7.53232 0
M  V30 13590 C 860.355 4.74639 -5.19936 0
M  V30 13591 C 861.065 3.49432 -4.70418 0
M  V30 13592 N 861.015 3.31776 -3.22945 0
M  V30 13593 H 863.854 6.54213 -5.71376 0
M  V30 13594 H 864.126 5.30492 -4.44033 0
M  V30 13595 H 863.258 4.55889 -6.76652 0
M  V30 13596 P 859.295 4.23843 -7.83734 0
M  V30 13597 O 859.075 4.19407 -9.29784 0
M  V30 13598 O 858.505 5.24426 -7.09156 0
M  V30 13599 O 859.045 2.79386 -7.20852 0
M  V30 13600 C 859.985 1.7299 -7.50419 0
M  V30 13601 C 859.255 0.41401 -7.5797 0
M  V30 13602 O 859.045 -0.089787 -6.22035 0
M  V30 13603 C 857.855 0.447224 -8.1878 0
M  V30 13604 O 857.465 -0.825159 -8.71201 0
M  V30 13605 C 856.975 0.783801 -6.99623 0
M  V30 13606 C 857.685 0.0619192 -5.85967 0
M  V30 13607 N 857.635 0.7859 -4.56281 0
M  V30 13608 C 857.485 0.0359258 -3.39981 0
M  V30 13609 O 857.395 -1.19723 -3.49038 0
M  V30 13610 N 857.435 0.869151 -2.14025 0
M  V30 13611 C 857.535 2.01207 -2.14363 0
M  V30 13612 N 857.485 2.58978 -0.954287 0
M  V30 13613 C 857.685 2.80817 -3.32215 0
M  V30 13614 C 857.735 2.13785 -4.50884 0
M  V30 13615 H 860.475 1.93401 -8.46693 0
M  V30 13616 H 860.745 1.68181 -6.71046 0
M  V30 13617 H 859.878 -0.289076 -8.15488 0
M  V30 13618 H 857.223 -0.927166 -5.72947 0
M  V30 13619 H 856.943 1.87 -6.82132 0
M  V30 13620 H 855.952 0.404009 -7.13457 0
M  V30 13621 H 857.786 1.20599 -8.97534 0
M  V30 13622 H 857.858 2.70295 -5.43162 0
M  V30 13623 H 857.756 3.89465 -3.27406 0
M  V30 13624 H 857.368 2.01616 -0.107046 0
M  V30 13625 H 857.564 3.61403 -0.873101 0
M  V30 13626 P 855.915 -1.17771 -8.83182 0
M  V30 13627 O 855.695 -2.07206 -9.98732 0
M  V30 13628 O 855.125 0.0743816 -8.81969 0
M  V30 13629 O 855.665 -1.97652 -7.47304 0
M  V30 13630 C 856.605 -3.01133 -7.08783 0
M  V30 13631 C 855.875 -4.12613 -6.37049 0
M  V30 13632 O 855.665 -3.72827 -4.97879 0
M  V30 13633 C 854.475 -4.45085 -6.88694 0
M  V30 13634 O 854.085 -5.7877 -6.5624 0
M  V30 13635 C 853.595 -3.47817 -6.12078 0
M  V30 13636 C 854.305 -3.39414 -4.77697 0
M  V30 13637 N 854.255 -2.04615 -4.15333 0
M  V30 13638 C 854.335 -0.803897 -4.75249 0
M  V30 13639 N 854.255 0.197615 -3.91502 0
M  V30 13640 C 854.115 -0.413002 -2.66823 0
M  V30 13641 C 853.985 0.157221 -1.38007 0
M  V30 13642 N 853.865 -0.833136 -0.390236 0
M  V30 13643 C 853.865 -2.19402 -0.623885 0
M  V30 13644 N 853.735 -2.97622 0.449677 0
M  V30 13645 N 853.995 -2.73005 -1.83601 0
M  V30 13646 C 854.115 -1.78786 -2.80935 0
M  V30 13647 H 857.094 -3.41248 -7.98759 0
M  V30 13648 H 857.366 -2.5837 -6.41742 0
M  V30 13649 H 856.498 -5.02657 -6.42673 0
M  V30 13650 P 852.535 -6.144 -6.45285 0
M  V30 13651 O 852.315 -7.54673 -6.86199 0
M  V30 13652 O 851.745 -5.12391 -7.179 0
M  V30 13653 O 852.285 -5.99236 -4.88467 0
M  V30 13654 C 853.225 -6.60234 -3.96415 0
M  V30 13655 C 852.495 -7.08079 -2.736 0
M  V30 13656 O 852.285 -5.94365 -1.8368 0
M  V30 13657 C 851.095 -7.64886 -2.9555 0
M  V30 13658 O 850.705 -8.5406 -1.90739 0
M  V30 13659 C 850.215 -6.4116 -2.90739 0
M  V30 13660 C 850.925 -5.55375 -1.86963 0
M  V30 13661 N 850.875 -4.09664 -2.15742 0
M  V30 13662 C 850.725 -3.22231 -1.08477 0
M  V30 13663 O 850.635 -3.68951 0.0600489 0
M  V30 13664 N 850.675 -1.76692 -1.48799 0
M  V30 13665 C 850.775 -1.41695 -2.57602 0
M  V30 13666 N 850.725 -0.107296 -2.75791 0
M  V30 13667 C 850.925 -2.29178 -3.69733 0
M  V30 13668 C 850.975 -3.62753 -3.42653 0
M  V30 13669 H 853.715 -7.45488 -4.45578 0
M  V30 13670 H 853.985 -5.86232 -3.67314 0
M  V30 13671 H 853.118 -7.84508 -2.24507 0
M  V30 13672 H 850.463 -5.73556 -0.888715 0
M  V30 13673 H 850.183 -5.9096 -3.88638 0
M  V30 13674 H 849.192 -6.66053 -2.58894 0
M  V30 13675 H 851.026 -8.16339 -3.92049 0
M  V30 13676 H 851.098 -4.33052 -4.24913 0
M  V30 13677 H 850.996 -1.9103 -4.71577 0
M  V30 13678 H 850.608 0.521221 -1.95056 0
M  V30 13679 H 850.804 0.286429 -3.70695 0
M  V30 13680 P 849.155 -8.7635 -1.60911 0
M  V30 13681 O 848.935 -10.1388 -1.11561 0
M  V30 13682 O 848.365 -8.36503 -2.79617 0
M  V30 13683 O 848.905 -7.71806 -0.42951 0
M  V30 13684 C 849.845 -7.67148 0.673689 0
M  V30 13685 C 849.115 -7.33374 1.95559 0
M  V30 13686 O 848.905 -5.88721 2.00726 0
M  V30 13687 C 847.715 -7.92526 2.10483 0
M  V30 13688 O 847.325 -8.02971 3.47653 0
M  V30 13689 C 846.835 -6.89602 1.41652 0
M  V30 13690 C 847.545 -5.59201 1.75185 0
M  V30 13691 N 847.495 -4.58301 0.657969 0
M  V30 13692 H 850.334 -8.65116 0.777161 0
M  V30 13693 H 850.606 -6.9022 0.46725 0
M  V30 13694 H 849.738 -7.66548 2.79458 0
M  V30 13695 H 847.083 -5.16165 2.65183 0
M  V30 13696 H 846.803 -7.06433 0.329384 0
M  V30 13697 H 845.812 -6.90926 1.82021 0
M  V30 13698 H 847.646 -8.90873 1.62657 0
M  V30 13699 P 845.775 -8.03563 3.84925 0
M  V30 13700 O 845.555 -8.85821 5.0569 0
M  V30 13701 O 844.985 -8.41101 2.65469 0
M  V30 13702 O 845.525 -6.4965 4.18908 0
M  V30 13703 C 846.465 -5.81037 5.05421 0
M  V30 13704 C 845.735 -4.78366 5.89277 0
M  V30 13705 O 845.525 -3.58302 5.08433 0
M  V30 13706 C 844.335 -5.17448 6.36119 0
M  V30 13707 O 843.945 -4.45271 7.53232 0
M  V30 13708 C 843.455 -4.74639 5.19936 0
M  V30 13709 C 844.165 -3.49432 4.70418 0
M  V30 13710 N 844.115 -3.31776 3.22945 0
M  V30 13711 H 846.954 -6.54213 5.71376 0
M  V30 13712 H 847.226 -5.30492 4.44033 0
M  V30 13713 H 846.358 -4.55889 6.76652 0
M  V30 13714 P 842.395 -4.23843 7.83734 0
M  V30 13715 O 842.175 -4.19407 9.29784 0
M  V30 13716 O 841.605 -5.24426 7.09156 0
M  V30 13717 O 842.145 -2.7935 7.20758 0
M  V30 13718 C 843.085 -1.7299 7.50419 0
M  V30 13719 C 842.355 -0.406376 7.57911 0
M  V30 13720 O 842.145 0.0897726 6.21935 0
M  V30 13721 C 840.955 -0.447224 8.1878 0
M  V30 13722 O 840.565 0.825065 8.71101 0
M  V30 13723 C 840.075 -0.783801 6.99623 0
M  V30 13724 C 840.785 -0.0619192 5.85967 0
M  V30 13725 N 840.735 -0.7859 4.56281 0
M  V30 13726 C 840.815 -2.14308 4.31736 0
M  V30 13727 N 840.735 -2.46106 3.05116 0
M  V30 13728 C 840.595 -1.23422 2.4014 0
M  V30 13729 C 840.465 -0.938381 1.02409 0
M  V30 13730 N 840.345 0.444647 0.805413 0
M  V30 13731 C 840.345 1.40829 1.79435 0
M  V30 13732 N 840.215 2.67213 1.38558 0
M  V30 13733 N 840.475 1.12947 3.09005 0
M  V30 13734 C 840.595 -0.204887 3.32369 0
M  V30 13735 H 843.574 -1.93423 8.4679 0
M  V30 13736 H 843.846 -1.68181 6.71046 0
M  V30 13737 H 842.978 0.289041 8.15388 0
M  V30 13738 P 839.015 1.17771 8.83182 0
M  V30 13739 O 838.795 2.07206 9.98732 0
M  V30 13740 O 838.225 -0.0743816 8.81969 0
M  V30 13741 O 838.765 1.97678 7.474 0
M  V30 13742 C 839.705 3.01133 7.08783 0
M  V30 13743 C 838.975 4.1203 6.37546 0
M  V30 13744 O 838.765 3.72887 4.9796 0
M  V30 13745 C 837.575 4.45085 6.88694 0
M  V30 13746 O 837.185 5.78836 6.56315 0
M  V30 13747 C 836.695 3.47817 6.12078 0
M  V30 13748 C 837.405 3.39414 4.77697 0
M  V30 13749 N 837.355 2.04615 4.15333 0
M  V30 13750 C 837.205 1.96929 2.77162 0
M  V30 13751 O 837.115 3.02017 2.12006 0
M  V30 13752 N 837.155 0.55485 2.24237 0
M  V30 13753 C 837.255 -0.367808 2.9169 0
M  V30 13754 N 837.205 -1.53426 2.29427 0
M  V30 13755 C 837.405 -0.319148 4.33828 0
M  V30 13756 C 837.455 0.920672 4.90433 0
M  V30 13757 H 840.195 3.41209 7.98667 0
M  V30 13758 H 840.465 2.5837 6.41742 0
M  V30 13759 H 839.598 5.02718 6.42752 0
M  V30 13760 H 836.943 4.11779 4.09026 0
M  V30 13761 H 836.663 2.49661 6.61772 0
M  V30 13762 H 835.672 3.86674 6.00946 0
M  V30 13763 H 837.506 4.29991 7.97006 0
M  V30 13764 H 837.578 1.00589 5.98303 0
M  V30 13765 H 837.476 -1.22639 4.93799 0
M  V30 13766 H 837.088 -1.56819 1.27167 0
M  V30 13767 H 837.284 -2.41062 2.83063 0
M  V30 13768 P 835.635 6.144 6.45285 0
M  V30 13769 O 835.415 7.54673 6.86199 0
M  V30 13770 O 834.845 5.12391 7.179 0
M  V30 13771 O 835.385 5.99158 4.88404 0
M  V30 13772 C 836.325 6.60234 3.96415 0
M  V30 13773 C 835.595 7.08259 2.72856 0
M  V30 13774 O 835.385 5.9427 1.83651 0
M  V30 13775 C 834.195 7.64886 2.9555 0
M  V30 13776 O 833.805 8.53963 1.90717 0
M  V30 13777 C 833.315 6.4116 2.90739 0
M  V30 13778 C 834.025 5.55375 1.86963 0
M  V30 13779 N 833.975 4.09664 2.15742 0
M  V30 13780 H 836.814 7.45574 4.45629 0
M  V30 13781 H 837.086 5.86232 3.67314 0
M  V30 13782 H 836.218 7.84412 2.24479 0
M  V30 13783 P 832.255 8.7635 1.60911 0
M  V30 13784 O 832.035 10.1388 1.11561 0
M  V30 13785 O 831.465 8.36503 2.79617 0
M  V30 13786 O 832.005 7.71806 0.42951 0
M  V30 13787 C 832.945 7.67148 -0.673689 0
M  V30 13788 C 832.215 7.33374 -1.95559 0
M  V30 13789 O 832.005 5.88721 -2.00726 0
M  V30 13790 C 830.815 7.92526 -2.10483 0
M  V30 13791 O 830.425 8.02971 -3.47653 0
M  V30 13792 C 829.935 6.89602 -1.41652 0
M  V30 13793 C 830.645 5.59201 -1.75185 0
M  V30 13794 N 830.595 4.58235 -0.662552 0
M  V30 13795 C 830.675 4.7683 0.704049 0
M  V30 13796 N 830.595 3.66233 1.39775 0
M  V30 13797 C 830.455 2.66526 0.431739 0
M  V30 13798 C 830.325 1.26394 0.575992 0
M  V30 13799 N 830.205 0.62859 -0.67177 0
M  V30 13800 C 830.205 1.27134 -1.89385 0
M  V30 13801 N 830.075 0.492035 -2.96951 0
M  V30 13802 N 830.335 2.58978 -2.02907 0
M  V30 13803 C 830.455 3.22433 -0.832218 0
M  V30 13804 H 833.434 8.65116 -0.777161 0
M  V30 13805 H 833.706 6.90173 -0.474152 0
M  V30 13806 H 832.838 7.66548 -2.79458 0
M  V30 13807 P 828.875 8.03563 -3.84925 0
M  V30 13808 O 828.655 8.85821 -5.0569 0
M  V30 13809 O 828.085 8.41101 -2.65469 0
M  V30 13810 O 828.625 6.4965 -4.18908 0
M  V30 13811 C 829.565 5.81037 -5.05421 0
M  V30 13812 C 828.835 4.78366 -5.89277 0
M  V30 13813 O 828.625 3.58302 -5.08433 0
M  V30 13814 C 827.435 5.17448 -6.36119 0
M  V30 13815 O 827.045 4.45271 -7.53232 0
M  V30 13816 C 826.555 4.74639 -5.19936 0
M  V30 13817 C 827.265 3.49432 -4.70418 0
M  V30 13818 N 827.215 3.32099 -3.22613 0
M  V30 13819 H 830.054 6.54213 -5.71376 0
M  V30 13820 H 830.326 5.30936 -4.43503 0
M  V30 13821 H 829.458 4.55889 -6.76652 0
M  V30 13822 H 826.803 2.61715 -5.17932 0
M  V30 13823 H 826.523 5.52155 -4.41878 0
M  V30 13824 H 825.532 4.51981 -5.53374 0
M  V30 13825 H 827.366 6.25124 -6.55234 0
M  V30 13826 P 825.495 4.23843 -7.83734 0
M  V30 13827 O 825.275 4.19407 -9.29784 0
M  V30 13828 O 824.705 5.24426 -7.09156 0
M  V30 13829 O 825.245 2.7935 -7.20758 0
M  V30 13830 C 826.185 1.7299 -7.50419 0
M  V30 13831 C 825.455 0.406376 -7.57911 0
M  V30 13832 O 825.245 -0.0897726 -6.21935 0
M  V30 13833 C 824.055 0.447224 -8.1878 0
M  V30 13834 O 823.665 -0.825065 -8.71101 0
M  V30 13835 C 823.175 0.783801 -6.99623 0
M  V30 13836 C 823.885 0.0619192 -5.85967 0
M  V30 13837 N 823.835 0.790462 -4.56202 0
M  V30 13838 H 826.674 1.93423 -8.4679 0
M  V30 13839 H 826.946 1.68852 -6.70877 0
M  V30 13840 H 826.078 -0.289041 -8.15388 0
M  V30 13841 H 823.423 -0.927006 -5.72848 0
M  V30 13842 H 823.143 1.86973 -6.82036 0
M  V30 13843 H 822.152 0.403953 -7.13357 0
M  V30 13844 H 823.986 1.20599 -8.97534 0
M  V30 13845 P 822.115 -1.17771 -8.83182 0
M  V30 13846 O 821.895 -2.07206 -9.98732 0
M  V30 13847 O 821.325 0.0743816 -8.81969 0
M  V30 13848 O 821.865 -1.97652 -7.47304 0
M  V30 13849 C 822.805 -3.01133 -7.08783 0
M  V30 13850 C 822.075 -4.12613 -6.37049 0
M  V30 13851 O 821.865 -3.72827 -4.97879 0
M  V30 13852 C 820.675 -4.45085 -6.88694 0
M  V30 13853 O 820.285 -5.7877 -6.5624 0
M  V30 13854 C 819.795 -3.47817 -6.12078 0
M  V30 13855 C 820.505 -3.39414 -4.77697 0
M  V30 13856 N 820.455 -2.04615 -4.15333 0
M  V30 13857 C 820.535 -0.803897 -4.75249 0
M  V30 13858 N 820.455 0.197615 -3.91502 0
M  V30 13859 C 820.315 -0.413002 -2.66823 0
M  V30 13860 C 820.185 0.157221 -1.38007 0
M  V30 13861 N 820.065 -0.833136 -0.390236 0
M  V30 13862 C 820.065 -2.19402 -0.623885 0
M  V30 13863 N 819.935 -2.97622 0.449677 0
M  V30 13864 N 820.195 -2.73005 -1.83601 0
M  V30 13865 C 820.315 -1.78786 -2.80935 0
M  V30 13866 H 823.294 -3.41248 -7.98759 0
M  V30 13867 H 823.566 -2.5837 -6.41742 0
M  V30 13868 H 822.698 -5.02657 -6.42673 0
M  V30 13869 P 818.735 -6.144 -6.45285 0
M  V30 13870 O 818.515 -7.54673 -6.86199 0
M  V30 13871 O 817.945 -5.12391 -7.179 0
M  V30 13872 O 818.485 -5.99236 -4.88467 0
M  V30 13873 C 819.425 -6.60234 -3.96415 0
M  V30 13874 C 818.695 -7.08079 -2.736 0
M  V30 13875 O 818.485 -5.94365 -1.8368 0
M  V30 13876 C 817.295 -7.64886 -2.9555 0
M  V30 13877 O 816.905 -8.5406 -1.90739 0
M  V30 13878 C 816.415 -6.4116 -2.90739 0
M  V30 13879 C 817.125 -5.55375 -1.86963 0
M  V30 13880 N 817.075 -4.09664 -2.15742 0
M  V30 13881 C 816.925 -3.22231 -1.08477 0
M  V30 13882 O 816.835 -3.68951 0.0600489 0
M  V30 13883 N 816.875 -1.76692 -1.48799 0
M  V30 13884 C 816.975 -1.41695 -2.57602 0
M  V30 13885 N 816.925 -0.107296 -2.75791 0
M  V30 13886 C 817.125 -2.29178 -3.69733 0
M  V30 13887 C 817.175 -3.62753 -3.42653 0
M  V30 13888 H 819.915 -7.45488 -4.45578 0
M  V30 13889 H 820.185 -5.86232 -3.67314 0
M  V30 13890 H 819.318 -7.84508 -2.24507 0
M  V30 13891 H 816.663 -5.73556 -0.888715 0
M  V30 13892 H 816.383 -5.9096 -3.88638 0
M  V30 13893 H 815.392 -6.66053 -2.58894 0
M  V30 13894 H 817.226 -8.16339 -3.92049 0
M  V30 13895 H 817.298 -4.33052 -4.24913 0
M  V30 13896 H 817.196 -1.9103 -4.71577 0
M  V30 13897 H 816.808 0.521221 -1.95056 0
M  V30 13898 H 817.004 0.286429 -3.70695 0
M  V30 13899 P 815.355 -8.7635 -1.60911 0
M  V30 13900 O 815.135 -10.1388 -1.11561 0
M  V30 13901 O 814.565 -8.36503 -2.79617 0
M  V30 13902 O 815.105 -7.71906 -0.429565 0
M  V30 13903 C 816.045 -7.67148 0.673689 0
M  V30 13904 C 815.315 -7.33666 1.94851 0
M  V30 13905 O 815.105 -5.88816 2.00759 0
M  V30 13906 C 813.915 -7.92526 2.10483 0
M  V30 13907 O 813.525 -8.03063 3.47693 0
M  V30 13908 C 813.035 -6.89602 1.41652 0
M  V30 13909 C 813.745 -5.59201 1.75185 0
M  V30 13910 N 813.695 -4.58235 0.662552 0
M  V30 13911 C 813.545 -3.24451 1.01643 0
M  V30 13912 O 813.455 -2.94958 2.21722 0
M  V30 13913 N 813.495 -2.30408 -0.165238 0
M  V30 13914 C 813.595 -2.66048 -1.25118 0
M  V30 13915 N 813.545 -1.70787 -2.16813 0
M  V30 13916 C 813.745 -4.02732 -1.64413 0
M  V30 13917 C 813.795 -4.9488 -0.63991 0
M  V30 13918 H 816.535 -8.65017 0.777072 0
M  V30 13919 H 816.805 -6.90173 0.474152 0
M  V30 13920 H 815.938 -7.66642 2.79492 0
M  V30 13921 H 813.283 -5.16254 2.65229 0
M  V30 13922 H 813.003 -7.06532 0.329431 0
M  V30 13923 H 812.012 -6.91023 1.82047 0
M  V30 13924 H 813.846 -8.90873 1.62657 0
M  V30 13925 H 813.918 -6.00104 -0.892197 0
M  V30 13926 H 813.816 -4.31733 -2.69229 0
M  V30 13927 H 813.428 -0.724835 -1.8844 0
M  V30 13928 H 813.624 -1.94716 -3.16734 0
M  V30 13929 P 811.975 -8.03563 3.84925 0
M  V30 13930 O 811.755 -8.85821 5.0569 0
M  V30 13931 O 811.185 -8.41101 2.65469 0
M  V30 13932 O 811.725 -6.4965 4.18908 0
M  V30 13933 C 812.665 -5.81037 5.05421 0
M  V30 13934 C 811.935 -4.78366 5.89277 0
M  V30 13935 O 811.725 -3.58302 5.08433 0
M  V30 13936 C 810.535 -5.17448 6.36119 0
M  V30 13937 O 810.145 -4.45271 7.53232 0
M  V30 13938 C 809.655 -4.74639 5.19936 0
M  V30 13939 C 810.365 -3.49432 4.70418 0
M  V30 13940 N 810.315 -3.31776 3.22945 0
M  V30 13941 C 810.395 -4.27147 2.23315 0
M  V30 13942 N 810.315 -3.78447 1.02186 0
M  V30 13943 C 810.175 -2.41001 1.21732 0
M  V30 13944 C 810.045 -1.36111 0.27694 0
M  V30 13945 N 809.925 -0.113683 0.912949 0
M  V30 13946 C 809.925 0.0846396 2.27943 0
M  V30 13947 N 809.795 1.34737 2.6916 0
M  V30 13948 N 810.055 -0.902521 3.16379 0
M  V30 13949 C 810.175 -2.11937 2.56849 0
M  V30 13950 H 813.154 -6.54213 5.71376 0
M  V30 13951 H 813.426 -5.30492 4.44033 0
M  V30 13952 H 812.558 -4.55889 6.76652 0
M  V30 13953 P 808.595 -4.23843 7.83734 0
M  V30 13954 O 808.375 -4.19407 9.29784 0
M  V30 13955 O 807.805 -5.24426 7.09156 0
M  V30 13956 O 808.345 -2.79386 7.20852 0
M  V30 13957 C 809.285 -1.7299 7.50419 0
M  V30 13958 C 808.555 -0.41401 7.5797 0
M  V30 13959 O 808.345 0.089787 6.22035 0
M  V30 13960 C 807.155 -0.447224 8.1878 0
M  V30 13961 O 806.765 0.825159 8.71201 0
M  V30 13962 C 806.275 -0.783801 6.99623 0
M  V30 13963 C 806.985 -0.0619192 5.85967 0
M  V30 13964 N 806.935 -0.7859 4.56281 0
M  V30 13965 C 806.785 -0.0359258 3.39981 0
M  V30 13966 O 806.695 1.19723 3.49038 0
M  V30 13967 N 806.735 -0.869151 2.14025 0
M  V30 13968 C 806.835 -2.01207 2.14363 0
M  V30 13969 N 806.785 -2.58978 0.954287 0
M  V30 13970 C 806.985 -2.80817 3.32215 0
M  V30 13971 C 807.035 -2.13785 4.50884 0
M  V30 13972 H 809.775 -1.93401 8.46693 0
M  V30 13973 H 810.045 -1.68181 6.71046 0
M  V30 13974 H 809.178 0.289076 8.15488 0
M  V30 13975 H 806.523 0.927166 5.72947 0
M  V30 13976 H 806.243 -1.87 6.82132 0
M  V30 13977 H 805.252 -0.404009 7.13457 0
M  V30 13978 H 807.086 -1.20599 8.97534 0
M  V30 13979 H 807.158 -2.70295 5.43162 0
M  V30 13980 H 807.056 -3.89465 3.27406 0
M  V30 13981 H 806.668 -2.01616 0.107046 0
M  V30 13982 H 806.864 -3.61403 0.873101 0
M  V30 13983 P 805.215 1.17771 8.83182 0
M  V30 13984 O 804.995 2.07206 9.98732 0
M  V30 13985 O 804.425 -0.0743816 8.81969 0
M  V30 13986 O 804.965 1.97678 7.474 0
M  V30 13987 C 805.905 3.01133 7.08783 0
M  V30 13988 C 805.175 4.1203 6.37546 0
M  V30 13989 O 804.965 3.72887 4.9796 0
M  V30 13990 C 803.775 4.45085 6.88694 0
M  V30 13991 O 803.385 5.78836 6.56315 0
M  V30 13992 C 802.895 3.47817 6.12078 0
M  V30 13993 C 803.605 3.39414 4.77697 0
M  V30 13994 N 803.555 2.04615 4.15333 0
M  V30 13995 C 803.405 1.96929 2.77162 0
M  V30 13996 O 803.315 3.02017 2.12006 0
M  V30 13997 N 803.355 0.55485 2.24237 0
M  V30 13998 C 803.455 -0.367808 2.9169 0
M  V30 13999 N 803.405 -1.53426 2.29427 0
M  V30 14000 C 803.605 -0.319148 4.33828 0
M  V30 14001 C 803.655 0.920672 4.90433 0
M  V30 14002 H 806.395 3.41209 7.98667 0
M  V30 14003 H 806.665 2.5837 6.41742 0
M  V30 14004 H 805.798 5.02718 6.42752 0
M  V30 14005 H 803.143 4.11779 4.09026 0
M  V30 14006 H 802.863 2.49661 6.61772 0
M  V30 14007 H 801.872 3.86674 6.00946 0
M  V30 14008 H 803.706 4.29991 7.97006 0
M  V30 14009 H 803.778 1.00589 5.98303 0
M  V30 14010 H 803.676 -1.22639 4.93799 0
M  V30 14011 H 803.288 -1.56819 1.27167 0
M  V30 14012 H 803.484 -2.41062 2.83063 0
M  V30 14013 P 801.835 6.144 6.45285 0
M  V30 14014 O 801.615 7.54673 6.86199 0
M  V30 14015 O 801.045 5.12391 7.179 0
M  V30 14016 O 801.585 5.99236 4.88467 0
M  V30 14017 C 802.525 6.60234 3.96415 0
M  V30 14018 C 801.795 7.08079 2.736 0
M  V30 14019 O 801.585 5.94365 1.8368 0
M  V30 14020 C 800.395 7.64886 2.9555 0
M  V30 14021 O 800.005 8.5406 1.90739 0
M  V30 14022 C 799.515 6.4116 2.90739 0
M  V30 14023 C 800.225 5.55375 1.86963 0
M  V30 14024 N 800.175 4.09664 2.15742 0
M  V30 14025 C 800.025 3.22231 1.08477 0
M  V30 14026 O 799.935 3.68951 -0.0600489 0
M  V30 14027 N 799.975 1.76692 1.48799 0
M  V30 14028 C 800.075 1.41695 2.57602 0
M  V30 14029 N 800.025 0.107296 2.75791 0
M  V30 14030 C 800.225 2.29178 3.69733 0
M  V30 14031 C 800.275 3.62753 3.42653 0
M  V30 14032 H 803.015 7.45488 4.45578 0
M  V30 14033 H 803.285 5.86232 3.67314 0
M  V30 14034 H 802.418 7.84508 2.24507 0
M  V30 14035 H 799.763 5.73556 0.888715 0
M  V30 14036 H 799.483 5.9096 3.88638 0
M  V30 14037 H 798.492 6.66053 2.58894 0
M  V30 14038 H 800.326 8.16339 3.92049 0
M  V30 14039 H 800.398 4.33052 4.24913 0
M  V30 14040 H 800.296 1.9103 4.71577 0
M  V30 14041 H 799.908 -0.521221 1.95056 0
M  V30 14042 H 800.104 -0.286429 3.70695 0
M  V30 14043 P 798.455 8.7635 1.60911 0
M  V30 14044 O 798.235 10.1388 1.11561 0
M  V30 14045 O 797.665 8.36503 2.79617 0
M  V30 14046 O 798.205 7.71806 0.42951 0
M  V30 14047 C 799.145 7.67148 -0.673689 0
M  V30 14048 C 798.415 7.33374 -1.95559 0
M  V30 14049 O 798.205 5.88721 -2.00726 0
M  V30 14050 C 797.015 7.92526 -2.10483 0
M  V30 14051 O 796.625 8.02971 -3.47653 0
M  V30 14052 C 796.135 6.89602 -1.41652 0
M  V30 14053 C 796.845 5.59201 -1.75185 0
M  V30 14054 N 796.795 4.58235 -0.662552 0
M  V30 14055 C 796.875 4.7683 0.704049 0
M  V30 14056 N 796.795 3.66233 1.39775 0
M  V30 14057 C 796.655 2.66526 0.431739 0
M  V30 14058 C 796.525 1.26394 0.575992 0
M  V30 14059 N 796.405 0.62859 -0.67177 0
M  V30 14060 C 796.405 1.27134 -1.89385 0
M  V30 14061 N 796.275 0.492035 -2.96951 0
M  V30 14062 N 796.535 2.58978 -2.02907 0
M  V30 14063 C 796.655 3.22433 -0.832218 0
M  V30 14064 H 799.634 8.65116 -0.777161 0
M  V30 14065 H 799.906 6.90173 -0.474152 0
M  V30 14066 H 799.038 7.66548 -2.79458 0
M  V30 14067 P 795.075 8.03563 -3.84925 0
M  V30 14068 O 794.855 8.85821 -5.0569 0
M  V30 14069 O 794.285 8.41101 -2.65469 0
M  V30 14070 O 794.825 6.4965 -4.18908 0
M  V30 14071 C 795.765 5.80886 -5.05289 0
M  V30 14072 C 795.035 4.78366 -5.89277 0
M  V30 14073 O 794.825 3.58302 -5.08433 0
M  V30 14074 C 793.635 5.16748 -6.36559 0
M  V30 14075 O 793.245 4.45271 -7.53232 0
M  V30 14076 C 792.755 4.74572 -5.19863 0
M  V30 14077 C 793.465 3.49373 -4.70338 0
M  V30 14078 N 793.415 3.31704 -3.22876 0
M  V30 14079 C 793.265 2.03326 -2.74871 0
M  V30 14080 O 793.175 1.06486 -3.48076 0
M  V30 14081 N 793.225 1.91838 -1.37456 0
M  V30 14082 C 793.315 2.94295 -0.462035 0
M  V30 14083 O 793.265 2.71763 0.752928 0
M  V30 14084 C 793.465 4.25064 -1.05249 0
M  V30 14085 C 793.575 5.39815 -0.095697 0
M  V30 14086 C 793.515 4.40214 -2.39192 0
M  V30 14087 H 796.256 6.54063 -5.71245 0
M  V30 14088 H 796.525 5.30339 -4.43905 0
M  V30 14089 H 795.658 4.55889 -6.76652 0
M  V30 14090 H 793.003 2.6167 -5.17842 0
M  V30 14091 H 792.724 5.52155 -4.41878 0
M  V30 14092 H 791.732 4.51918 -5.53297 0
M  V30 14093 H 793.566 6.25055 -6.55162 0
M  V30 14094 H 793.637 5.39798 -2.81523 0
M  V30 14095 H 792.607 5.91593 -0.0279582 0
M  V30 14096 H 794.344 6.10038 -0.450573 0
M  V30 14097 H 793.856 5.02007 0.89937 0
M  V30 14098 H 793.12 0.995326 -1.00435 0
M  V30 14099 P 791.695 4.23843 -7.83734 0
M  V30 14100 O 791.475 4.19407 -9.29784 0
M  V30 14101 O 790.905 5.24426 -7.09156 0
M  V30 14102 O 791.445 2.79386 -7.20852 0
M  V30 14103 C 792.385 1.7299 -7.50419 0
M  V30 14104 C 791.655 0.41401 -7.5797 0
M  V30 14105 O 791.445 -0.089787 -6.22035 0
M  V30 14106 C 790.255 0.447224 -8.1878 0
M  V30 14107 O 789.865 -0.825159 -8.71201 0
M  V30 14108 C 789.375 0.783801 -6.99623 0
M  V30 14109 C 790.085 0.0619192 -5.85967 0
M  V30 14110 N 790.035 0.7859 -4.56281 0
M  V30 14111 C 789.885 0.0359258 -3.39981 0
M  V30 14112 O 789.795 -1.19723 -3.49038 0
M  V30 14113 N 789.835 0.869151 -2.14025 0
M  V30 14114 C 789.935 2.01207 -2.14363 0
M  V30 14115 N 789.885 2.58978 -0.954287 0
M  V30 14116 C 790.085 2.80817 -3.32215 0
M  V30 14117 C 790.135 2.13785 -4.50884 0
M  V30 14118 H 792.875 1.93401 -8.46693 0
M  V30 14119 H 793.145 1.68181 -6.71046 0
M  V30 14120 H 792.278 -0.289076 -8.15488 0
M  V30 14121 H 789.623 -0.927166 -5.72947 0
M  V30 14122 H 789.343 1.87 -6.82132 0
M  V30 14123 H 788.352 0.404009 -7.13457 0
M  V30 14124 H 790.186 1.20599 -8.97534 0
M  V30 14125 H 790.258 2.70295 -5.43162 0
M  V30 14126 H 790.156 3.89465 -3.27406 0
M  V30 14127 H 789.768 2.01616 -0.107046 0
M  V30 14128 H 789.964 3.61403 -0.873101 0
M  V30 14129 P 788.315 -1.17771 -8.83182 0
M  V30 14130 O 788.095 -2.07206 -9.98732 0
M  V30 14131 O 787.525 0.0743816 -8.81969 0
M  V30 14132 O 788.065 -1.97652 -7.47304 0
M  V30 14133 C 789.005 -3.01055 -7.08599 0
M  V30 14134 C 788.275 -4.12613 -6.37049 0
M  V30 14135 O 788.065 -3.72827 -4.97879 0
M  V30 14136 C 786.875 -4.45719 -6.88164 0
M  V30 14137 O 786.485 -5.7877 -6.5624 0
M  V30 14138 C 785.995 -3.47768 -6.11991 0
M  V30 14139 C 786.705 -3.39356 -4.77615 0
M  V30 14140 N 786.655 -2.04571 -4.15244 0
M  V30 14141 C 786.505 -1.98587 -2.78314 0
M  V30 14142 O 786.415 -2.98134 -2.08835 0
M  V30 14143 N 786.465 -0.714467 -2.24925 0
M  V30 14144 C 786.555 0.470001 -2.94169 0
M  V30 14145 C 786.705 0.312541 -4.36783 0
M  V30 14146 C 786.755 -0.914512 -4.92583 0
M  V30 14147 H 789.496 -3.41169 -7.98575 0
M  V30 14148 H 789.765 -2.58295 -6.41556 0
M  V30 14149 H 788.898 -5.02657 -6.42673 0
M  V30 14150 H 786.243 -4.11637 -4.08885 0
M  V30 14151 H 785.964 -2.49626 -6.61679 0
M  V30 14152 H 784.972 -3.86566 -6.00778 0
M  V30 14153 H 786.806 -4.29943 -7.96918 0
M  V30 14154 H 786.877 -1.00937 -6.00374 0
M  V30 14155 P 784.935 -6.144 -6.45285 0
M  V30 14156 O 784.715 -7.54673 -6.86199 0
M  V30 14157 O 784.145 -5.12391 -7.179 0
M  V30 14158 O 784.685 -5.99158 -4.88404 0
M  V30 14159 C 785.625 -6.60062 -3.96313 0
M  V30 14160 C 784.895 -7.08259 -2.72856 0
M  V30 14161 O 784.685 -5.9427 -1.83651 0
M  V30 14162 C 783.495 -7.65087 -2.94749 0
M  V30 14163 O 783.105 -8.53963 -1.90717 0
M  V30 14164 C 782.615 -6.41069 -2.90698 0
M  V30 14165 C 783.325 -5.5528 -1.86931 0
M  V30 14166 N 783.275 -4.09575 -2.15696 0
M  V30 14167 C 783.125 -3.24249 -1.08435 0
M  V30 14168 O 783.035 -3.63946 0.0628747 0
M  V30 14169 N 783.085 -1.90009 -1.39973 0
M  V30 14170 C 783.175 -1.34884 -2.65614 0
M  V30 14171 C 783.325 -2.3145 -3.71736 0
M  V30 14172 C 783.375 -3.63518 -3.44754 0
M  V30 14173 H 786.116 -7.45402 -4.45526 0
M  V30 14174 H 786.385 -5.86062 -3.67208 0
M  V30 14175 H 785.518 -7.84412 -2.24479 0
M  V30 14176 H 782.863 -5.73358 -0.888409 0
M  V30 14177 H 782.584 -5.90877 -3.88583 0
M  V30 14178 H 781.592 -6.65867 -2.58821 0
M  V30 14179 H 783.426 -8.16248 -3.92006 0
M  V30 14180 H 783.497 -4.34551 -4.26383 0
M  V30 14181 P 781.555 -8.7635 -1.60911 0
M  V30 14182 O 781.335 -10.1388 -1.11561 0
M  V30 14183 O 780.765 -8.36503 -2.79617 0
M  V30 14184 O 781.305 -7.71806 -0.42951 0
M  V30 14185 C 782.245 -7.67148 0.673689 0
M  V30 14186 C 781.515 -7.33374 1.95559 0
M  V30 14187 O 781.305 -5.88721 2.00726 0
M  V30 14188 C 780.115 -7.92526 2.10483 0
M  V30 14189 O 779.725 -8.02971 3.47653 0
M  V30 14190 C 779.235 -6.89602 1.41652 0
M  V30 14191 C 779.945 -5.59201 1.75185 0
M  V30 14192 N 779.895 -4.58235 0.662552 0
M  V30 14193 H 782.734 -8.65116 0.777161 0
M  V30 14194 H 783.006 -6.90173 0.474152 0
M  V30 14195 H 782.138 -7.66548 2.79458 0
M  V30 14196 P 778.175 -8.03563 3.84925 0
M  V30 14197 O 777.955 -8.85821 5.0569 0
M  V30 14198 O 777.385 -8.41101 2.65469 0
M  V30 14199 O 777.925 -6.4965 4.18908 0
M  V30 14200 C 778.865 -5.80886 5.05289 0
M  V30 14201 C 778.135 -4.78366 5.89277 0
M  V30 14202 O 777.925 -3.58302 5.08433 0
M  V30 14203 C 776.735 -5.16748 6.36559 0
M  V30 14204 O 776.345 -4.45271 7.53232 0
M  V30 14205 C 775.855 -4.74572 5.19863 0
M  V30 14206 C 776.565 -3.49373 4.70338 0
M  V30 14207 N 776.515 -3.31704 3.22876 0
M  V30 14208 C 776.365 -2.03326 2.74871 0
M  V30 14209 O 776.275 -1.06486 3.48076 0
M  V30 14210 N 776.325 -1.91838 1.37456 0
M  V30 14211 C 776.415 -2.94295 0.462035 0
M  V30 14212 C 776.565 -4.25064 1.05249 0
M  V30 14213 C 776.615 -4.40214 2.39192 0
M  V30 14214 H 779.356 -6.54063 5.71245 0
M  V30 14215 H 779.625 -5.30339 4.43905 0
M  V30 14216 H 778.758 -4.55889 6.76652 0
M  V30 14217 H 776.103 -2.6167 5.17842 0
M  V30 14218 H 775.824 -5.52155 4.41878 0
M  V30 14219 H 774.832 -4.51918 5.53297 0
M  V30 14220 H 776.666 -6.25055 6.55162 0
M  V30 14221 H 776.737 -5.39798 2.81523 0
M  V30 14222 P 774.795 -4.23843 7.83734 0
M  V30 14223 O 774.575 -4.19407 9.29784 0
M  V30 14224 O 774.005 -5.24426 7.09156 0
M  V30 14225 O 774.545 -2.7935 7.20758 0
M  V30 14226 C 775.485 -1.7299 7.50419 0
M  V30 14227 C 774.755 -0.406376 7.57911 0
M  V30 14228 O 774.545 0.0897726 6.21935 0
M  V30 14229 C 773.355 -0.447224 8.1878 0
M  V30 14230 O 772.965 0.825065 8.71101 0
M  V30 14231 C 772.475 -0.783801 6.99623 0
M  V30 14232 C 773.185 -0.0619192 5.85967 0
M  V30 14233 N 773.135 -0.7859 4.56281 0
M  V30 14234 H 775.974 -1.93423 8.4679 0
M  V30 14235 H 776.246 -1.68181 6.71046 0
M  V30 14236 H 775.378 0.289041 8.15388 0
M  V30 14237 P 771.415 1.17771 8.83182 0
M  V30 14238 O 771.195 2.07206 9.98732 0
M  V30 14239 O 770.625 -0.0743816 8.81969 0
M  V30 14240 O 771.165 1.97652 7.47304 0
M  V30 14241 C 772.105 3.01133 7.08783 0
M  V30 14242 C 771.375 4.12613 6.37049 0
M  V30 14243 O 771.165 3.72827 4.97879 0
M  V30 14244 C 769.975 4.45085 6.88694 0
M  V30 14245 O 769.585 5.7877 6.5624 0
M  V30 14246 C 769.095 3.47817 6.12078 0
M  V30 14247 C 769.805 3.39414 4.77697 0
M  V30 14248 N 769.755 2.04615 4.15333 0
M  V30 14249 H 772.594 3.41248 7.98759 0
M  V30 14250 H 772.866 2.5837 6.41742 0
M  V30 14251 H 771.998 5.02657 6.42673 0
M  V30 14252 P 768.035 6.144 6.45285 0
M  V30 14253 O 767.815 7.54673 6.86199 0
M  V30 14254 O 767.245 5.12391 7.179 0
M  V30 14255 O 767.785 5.99236 4.88467 0
M  V30 14256 C 768.725 6.60234 3.96415 0
M  V30 14257 C 767.995 7.08079 2.736 0
M  V30 14258 O 767.785 5.94365 1.8368 0
M  V30 14259 C 766.595 7.64886 2.9555 0
M  V30 14260 O 766.205 8.5406 1.90739 0
M  V30 14261 C 765.715 6.4116 2.90739 0
M  V30 14262 C 766.425 5.55375 1.86963 0
M  V30 14263 N 766.375 4.09664 2.15742 0
M  V30 14264 C 766.225 3.22231 1.08477 0
M  V30 14265 O 766.135 3.68951 -0.0600489 0
M  V30 14266 N 766.175 1.76692 1.48799 0
M  V30 14267 C 766.275 1.41695 2.57602 0
M  V30 14268 N 766.225 0.107296 2.75791 0
M  V30 14269 C 766.425 2.29178 3.69733 0
M  V30 14270 C 766.475 3.62753 3.42653 0
M  V30 14271 H 769.215 7.45488 4.45578 0
M  V30 14272 H 769.485 5.86232 3.67314 0
M  V30 14273 H 768.618 7.84508 2.24507 0
M  V30 14274 H 765.963 5.73556 0.888715 0
M  V30 14275 H 765.683 5.9096 3.88638 0
M  V30 14276 H 764.692 6.66053 2.58894 0
M  V30 14277 H 766.526 8.16339 3.92049 0
M  V30 14278 H 766.598 4.33052 4.24913 0
M  V30 14279 H 766.496 1.9103 4.71577 0
M  V30 14280 H 766.108 -0.521221 1.95056 0
M  V30 14281 H 766.304 -0.286429 3.70695 0
M  V30 14282 P 764.656 8.7635 1.60911 0
M  V30 14283 O 764.436 10.1388 1.11561 0
M  V30 14284 O 763.866 8.36503 2.79617 0
M  V30 14285 O 764.406 7.71806 0.42951 0
M  V30 14286 C 765.346 7.66948 -0.673514 0
M  V30 14287 C 764.616 7.33374 -1.95559 0
M  V30 14288 O 764.406 5.88721 -2.00726 0
M  V30 14289 C 763.216 7.92218 -2.1125 0
M  V30 14290 O 762.826 8.02971 -3.47653 0
M  V30 14291 C 762.336 6.89504 -1.41631 0
M  V30 14292 C 763.046 5.59106 -1.75155 0
M  V30 14293 N 762.996 4.58136 -0.662409 0
M  V30 14294 C 762.846 3.26059 -1.02863 0
M  V30 14295 O 762.756 2.90743 -2.19009 0
M  V30 14296 N 762.806 2.35995 0.0155585 0
M  V30 14297 C 762.896 2.65248 1.35603 0
M  V30 14298 O 762.846 1.75605 2.20651 0
M  V30 14299 C 763.046 4.05747 1.64698 0
M  V30 14300 C 763.156 4.42345 3.09553 0
M  V30 14301 C 763.096 4.96734 0.652411 0
M  V30 14302 H 765.837 8.64917 -0.776982 0
M  V30 14303 H 766.106 6.89974 -0.474015 0
M  V30 14304 H 765.239 7.66548 -2.79458 0
M  V30 14305 H 762.584 5.16076 -2.65138 0
M  V30 14306 H 762.305 7.06433 -0.329384 0
M  V30 14307 H 761.313 6.90829 -1.81996 0
M  V30 14308 H 763.147 8.90774 -1.62639 0
M  V30 14309 H 763.218 6.02181 0.895285 0
M  V30 14310 H 762.188 4.80252 3.45468 0
M  V30 14311 H 763.925 5.20015 3.22119 0
M  V30 14312 H 763.437 3.53269 3.67833 0
M  V30 14313 H 762.701 1.39558 -0.227499 0
M  V30 14314 P 761.276 8.03563 -3.84925 0
M  V30 14315 O 761.056 8.85821 -5.0569 0
M  V30 14316 O 760.486 8.41101 -2.65469 0
M  V30 14317 O 761.026 6.49734 -4.18962 0
M  V30 14318 C 761.966 5.81037 -5.05421 0
M  V30 14319 C 761.236 4.79018 -5.88876 0
M  V30 14320 O 761.026 3.58359 -5.08515 0
M  V30 14321 C 759.836 5.17448 -6.36119 0
M  V30 14322 O 759.446 4.45322 -7.53318 0
M  V30 14323 C 758.956 4.74639 -5.19936 0
M  V30 14324 C 759.666 3.49432 -4.70418 0
M  V30 14325 N 759.616 3.31776 -3.22945 0
M  V30 14326 C 759.466 2.02742 -2.72939 0
M  V30 14327 O 759.376 1.08301 -3.52749 0
M  V30 14328 N 759.416 1.96117 -1.22063 0
M  V30 14329 C 759.516 2.8878 -0.551566 0
M  V30 14330 N 759.466 2.65609 0.750198 0
M  V30 14331 C 759.666 4.22457 -1.03707 0
M  V30 14332 C 759.716 4.37979 -2.39113 0
M  V30 14333 H 762.456 6.54138 -5.7131 0
M  V30 14334 H 762.726 5.30492 -4.44033 0
M  V30 14335 H 761.859 4.55945 -6.76735 0
M  V30 14336 H 759.204 2.6176 -5.18021 0
M  V30 14337 H 758.924 5.52233 -4.41941 0
M  V30 14338 H 757.933 4.52045 -5.53452 0
M  V30 14339 H 759.767 6.25124 -6.55234 0
M  V30 14340 H 759.839 5.37936 -2.80552 0
M  V30 14341 H 759.737 5.07528 -0.359553 0
M  V30 14342 H 759.349 1.69403 1.09847 0
M  V30 14343 H 759.545 3.43701 1.41792 0
M  V30 14344 P 757.896 4.23843 -7.83734 0
M  V30 14345 O 757.676 4.19407 -9.29784 0
M  V30 14346 O 757.106 5.24426 -7.09156 0
M  V30 14347 O 757.646 2.7935 -7.20758 0
M  V30 14348 C 758.586 1.72945 -7.50224 0
M  V30 14349 C 757.856 0.406376 -7.57911 0
M  V30 14350 O 757.646 -0.0897726 -6.21935 0
M  V30 14351 C 756.456 0.438983 -8.18724 0
M  V30 14352 O 756.066 -0.825065 -8.71101 0
M  V30 14353 C 755.576 0.783689 -6.99524 0
M  V30 14354 C 756.286 0.0619086 -5.85867 0
M  V30 14355 N 756.236 0.78573 -4.56183 0
M  V30 14356 C 756.086 0.0292889 -3.41887 0
M  V30 14357 O 755.996 -1.18445 -3.4419 0
M  V30 14358 N 756.046 0.744061 -2.23964 0
M  V30 14359 C 756.136 2.10932 -2.10362 0
M  V30 14360 C 756.286 2.8202 -3.34994 0
M  V30 14361 C 756.336 2.15547 -4.52261 0
M  V30 14362 H 759.077 1.93379 -8.46595 0
M  V30 14363 H 759.346 1.68132 -6.70852 0
M  V30 14364 H 758.479 -0.289041 -8.15388 0
M  V30 14365 H 755.824 -0.926847 -5.72749 0
M  V30 14366 H 755.545 1.86973 -6.82036 0
M  V30 14367 H 754.553 0.403896 -7.13257 0
M  V30 14368 H 756.387 1.20585 -8.97435 0
M  V30 14369 H 756.458 2.71231 -5.45042 0
M  V30 14370 P 754.516 -1.17771 -8.83182 0
M  V30 14371 O 754.296 -2.07206 -9.98732 0
M  V30 14372 O 753.726 0.0743816 -8.81969 0
M  V30 14373 O 754.266 -1.97678 -7.474 0
M  V30 14374 C 755.206 -3.01133 -7.08783 0
M  V30 14375 C 754.476 -4.1203 -6.37546 0
M  V30 14376 O 754.266 -3.72887 -4.9796 0
M  V30 14377 C 753.076 -4.45085 -6.88694 0
M  V30 14378 O 752.686 -5.78836 -6.56315 0
M  V30 14379 C 752.196 -3.47817 -6.12078 0
M  V30 14380 C 752.906 -3.39414 -4.77697 0
M  V30 14381 N 752.856 -2.04615 -4.15333 0
M  V30 14382 C 752.706 -1.96929 -2.77162 0
M  V30 14383 O 752.616 -3.02017 -2.12006 0
M  V30 14384 N 752.656 -0.55485 -2.24237 0
M  V30 14385 C 752.756 0.367808 -2.9169 0
M  V30 14386 N 752.706 1.53426 -2.29427 0
M  V30 14387 C 752.906 0.319148 -4.33828 0
M  V30 14388 C 752.956 -0.920672 -4.90433 0
M  V30 14389 H 755.696 -3.41209 -7.98667 0
M  V30 14390 H 755.966 -2.5837 -6.41742 0
M  V30 14391 H 755.099 -5.02718 -6.42752 0
M  V30 14392 H 752.444 -4.11779 -4.09026 0
M  V30 14393 H 752.164 -2.49661 -6.61772 0
M  V30 14394 H 751.173 -3.86674 -6.00946 0
M  V30 14395 H 753.007 -4.29991 -7.97006 0
M  V30 14396 H 753.079 -1.00589 -5.98303 0
M  V30 14397 H 752.977 1.22639 -4.93799 0
M  V30 14398 H 752.589 1.56819 -1.27167 0
M  V30 14399 H 752.785 2.41062 -2.83063 0
M  V30 14400 P 751.136 -6.144 -6.45285 0
M  V30 14401 O 750.916 -7.54673 -6.86199 0
M  V30 14402 O 750.346 -5.12391 -7.179 0
M  V30 14403 O 750.886 -5.99158 -4.88404 0
M  V30 14404 C 751.826 -6.60234 -3.96415 0
M  V30 14405 C 751.096 -7.08259 -2.72856 0
M  V30 14406 O 750.886 -5.9427 -1.83651 0
M  V30 14407 C 749.696 -7.64886 -2.9555 0
M  V30 14408 O 749.306 -8.53963 -1.90717 0
M  V30 14409 C 748.816 -6.4116 -2.90739 0
M  V30 14410 C 749.526 -5.55375 -1.86963 0
M  V30 14411 N 749.476 -4.09664 -2.15742 0
M  V30 14412 H 752.315 -7.45574 -4.45629 0
M  V30 14413 H 752.587 -5.86232 -3.67314 0
M  V30 14414 H 751.719 -7.84412 -2.24479 0
M  V30 14415 P 747.756 -8.7635 -1.60911 0
M  V30 14416 O 747.536 -10.1388 -1.11561 0
M  V30 14417 O 746.966 -8.36503 -2.79617 0
M  V30 14418 O 747.506 -7.71806 -0.42951 0
M  V30 14419 C 748.446 -7.67148 0.673689 0
M  V30 14420 C 747.716 -7.33374 1.95559 0
M  V30 14421 O 747.506 -5.88721 2.00726 0
M  V30 14422 C 746.316 -7.92526 2.10483 0
M  V30 14423 O 745.926 -8.02971 3.47653 0
M  V30 14424 C 745.436 -6.89602 1.41652 0
M  V30 14425 C 746.146 -5.59201 1.75185 0
M  V30 14426 N 746.096 -4.58301 0.657969 0
M  V30 14427 H 748.935 -8.65116 0.777161 0
M  V30 14428 H 749.207 -6.9022 0.46725 0
M  V30 14429 H 748.339 -7.66548 2.79458 0
M  V30 14430 H 745.684 -5.16165 2.65183 0
M  V30 14431 H 745.404 -7.06433 0.329384 0
M  V30 14432 H 744.413 -6.90926 1.82021 0
M  V30 14433 H 746.247 -8.90873 1.62657 0
M  V30 14434 P 744.376 -8.03563 3.84925 0
M  V30 14435 O 744.156 -8.85821 5.0569 0
M  V30 14436 O 743.586 -8.41101 2.65469 0
M  V30 14437 O 744.126 -6.4965 4.18908 0
M  V30 14438 C 745.066 -5.81037 5.05421 0
M  V30 14439 C 744.336 -4.78366 5.89277 0
M  V30 14440 O 744.126 -3.58302 5.08433 0
M  V30 14441 C 742.936 -5.17448 6.36119 0
M  V30 14442 O 742.546 -4.45271 7.53232 0
M  V30 14443 C 742.056 -4.74639 5.19936 0
M  V30 14444 C 742.766 -3.49432 4.70418 0
M  V30 14445 N 742.716 -3.31776 3.22945 0
M  V30 14446 H 745.555 -6.54213 5.71376 0
M  V30 14447 H 745.827 -5.30492 4.44033 0
M  V30 14448 H 744.959 -4.55889 6.76652 0
M  V30 14449 P 740.996 -4.23843 7.83734 0
M  V30 14450 O 740.776 -4.19407 9.29784 0
M  V30 14451 O 740.206 -5.24426 7.09156 0
M  V30 14452 O 740.746 -2.7935 7.20758 0
M  V30 14453 C 741.686 -1.7299 7.50419 0
M  V30 14454 C 740.956 -0.406376 7.57911 0
M  V30 14455 O 740.746 0.0897726 6.21935 0
M  V30 14456 C 739.556 -0.447224 8.1878 0
M  V30 14457 O 739.166 0.825065 8.71101 0
M  V30 14458 C 738.676 -0.783801 6.99623 0
M  V30 14459 C 739.386 -0.0619192 5.85967 0
M  V30 14460 N 739.336 -0.7859 4.56281 0
M  V30 14461 C 739.416 -2.14308 4.31736 0
M  V30 14462 N 739.336 -2.46106 3.05116 0
M  V30 14463 C 739.196 -1.23422 2.4014 0
M  V30 14464 C 739.066 -0.938381 1.02409 0
M  V30 14465 N 738.946 0.444647 0.805413 0
M  V30 14466 C 738.946 1.40829 1.79435 0
M  V30 14467 N 738.816 2.67213 1.38558 0
M  V30 14468 N 739.076 1.12947 3.09005 0
M  V30 14469 C 739.196 -0.204887 3.32369 0
M  V30 14470 H 742.175 -1.93423 8.4679 0
M  V30 14471 H 742.447 -1.68181 6.71046 0
M  V30 14472 H 741.579 0.289041 8.15388 0
M  V30 14473 P 737.616 1.17771 8.83182 0
M  V30 14474 O 737.396 2.07206 9.98732 0
M  V30 14475 O 736.826 -0.0743816 8.81969 0
M  V30 14476 O 737.366 1.97678 7.474 0
M  V30 14477 C 738.306 3.01133 7.08783 0
M  V30 14478 C 737.576 4.1203 6.37546 0
M  V30 14479 O 737.366 3.72887 4.9796 0
M  V30 14480 C 736.176 4.45085 6.88694 0
M  V30 14481 O 735.786 5.78836 6.56315 0
M  V30 14482 C 735.296 3.47817 6.12078 0
M  V30 14483 C 736.006 3.39414 4.77697 0
M  V30 14484 N 735.956 2.04615 4.15333 0
M  V30 14485 C 735.806 1.96929 2.77162 0
M  V30 14486 O 735.716 3.02017 2.12006 0
M  V30 14487 N 735.756 0.55485 2.24237 0
M  V30 14488 C 735.856 -0.367808 2.9169 0
M  V30 14489 N 735.806 -1.53426 2.29427 0
M  V30 14490 C 736.006 -0.319148 4.33828 0
M  V30 14491 C 736.056 0.920672 4.90433 0
M  V30 14492 H 738.796 3.41209 7.98667 0
M  V30 14493 H 739.066 2.5837 6.41742 0
M  V30 14494 H 738.199 5.02718 6.42752 0
M  V30 14495 H 735.544 4.11779 4.09026 0
M  V30 14496 H 735.264 2.49661 6.61772 0
M  V30 14497 H 734.273 3.86674 6.00946 0
M  V30 14498 H 736.107 4.29991 7.97006 0
M  V30 14499 H 736.179 1.00589 5.98303 0
M  V30 14500 H 736.077 -1.22639 4.93799 0
M  V30 14501 H 735.689 -1.56819 1.27167 0
M  V30 14502 H 735.885 -2.41062 2.83063 0
M  V30 14503 P 734.236 6.144 6.45285 0
M  V30 14504 O 734.016 7.54673 6.86199 0
M  V30 14505 O 733.446 5.12391 7.179 0
M  V30 14506 O 733.986 5.99158 4.88404 0
M  V30 14507 C 734.926 6.60062 3.96313 0
M  V30 14508 C 734.196 7.08259 2.72856 0
M  V30 14509 O 733.986 5.9427 1.83651 0
M  V30 14510 C 732.796 7.65087 2.94749 0
M  V30 14511 O 732.406 8.53963 1.90717 0
M  V30 14512 C 731.916 6.41069 2.90698 0
M  V30 14513 C 732.626 5.5528 1.86931 0
M  V30 14514 N 732.576 4.09575 2.15696 0
M  V30 14515 C 732.426 3.24249 1.08435 0
M  V30 14516 O 732.336 3.63946 -0.0628747 0
M  V30 14517 N 732.386 1.90009 1.39973 0
M  V30 14518 C 732.476 1.34884 2.65614 0
M  V30 14519 C 732.626 2.3145 3.71736 0
M  V30 14520 C 732.676 3.63518 3.44754 0
M  V30 14521 H 735.417 7.45402 4.45526 0
M  V30 14522 H 735.686 5.86062 3.67208 0
M  V30 14523 H 734.819 7.84412 2.24479 0
M  V30 14524 H 732.164 5.73358 0.888409 0
M  V30 14525 H 731.885 5.90877 3.88583 0
M  V30 14526 H 730.893 6.65867 2.58821 0
M  V30 14527 H 732.727 8.16248 3.92006 0
M  V30 14528 H 732.798 4.34551 4.26383 0
M  V30 14529 P 730.856 8.7635 1.60911 0
M  V30 14530 O 730.636 10.1388 1.11561 0
M  V30 14531 O 730.066 8.36503 2.79617 0
M  V30 14532 O 730.606 7.71906 0.429565 0
M  V30 14533 C 731.546 7.67148 -0.673689 0
M  V30 14534 C 730.816 7.33666 -1.94851 0
M  V30 14535 O 730.606 5.88816 -2.00759 0
M  V30 14536 C 729.416 7.92526 -2.10483 0
M  V30 14537 O 729.026 8.03063 -3.47693 0
M  V30 14538 C 728.536 6.89602 -1.41652 0
M  V30 14539 C 729.246 5.59201 -1.75185 0
M  V30 14540 N 729.196 4.58235 -0.662552 0
M  V30 14541 C 729.046 3.24451 -1.01643 0
M  V30 14542 O 728.956 2.94958 -2.21722 0
M  V30 14543 N 728.996 2.30408 0.165238 0
M  V30 14544 C 729.096 2.66048 1.25118 0
M  V30 14545 N 729.046 1.70787 2.16813 0
M  V30 14546 C 729.246 4.02732 1.64413 0
M  V30 14547 C 729.296 4.9488 0.63991 0
M  V30 14548 H 732.036 8.65017 -0.777072 0
M  V30 14549 H 732.306 6.90173 -0.474152 0
M  V30 14550 H 731.439 7.66642 -2.79492 0
M  V30 14551 H 728.784 5.16254 -2.65229 0
M  V30 14552 H 728.504 7.06532 -0.329431 0
M  V30 14553 H 727.513 6.91023 -1.82047 0
M  V30 14554 H 729.347 8.90873 -1.62657 0
M  V30 14555 H 729.419 6.00104 0.892197 0
M  V30 14556 H 729.317 4.31733 2.69229 0
M  V30 14557 H 728.929 0.724835 1.8844 0
M  V30 14558 H 729.125 1.94716 3.16734 0
M  V30 14559 P 727.476 8.03563 -3.84925 0
M  V30 14560 O 727.256 8.85821 -5.0569 0
M  V30 14561 O 726.686 8.41101 -2.65469 0
M  V30 14562 O 727.226 6.4965 -4.18908 0
M  V30 14563 C 728.166 5.80886 -5.05289 0
M  V30 14564 C 727.436 4.78366 -5.89277 0
M  V30 14565 O 727.226 3.58302 -5.08433 0
M  V30 14566 C 726.036 5.16748 -6.36559 0
M  V30 14567 O 725.646 4.45271 -7.53232 0
M  V30 14568 C 725.156 4.74572 -5.19863 0
M  V30 14569 C 725.866 3.49373 -4.70338 0
M  V30 14570 N 725.816 3.31704 -3.22876 0
M  V30 14571 C 725.666 2.03326 -2.74871 0
M  V30 14572 O 725.576 1.06486 -3.48076 0
M  V30 14573 N 725.626 1.91838 -1.37456 0
M  V30 14574 C 725.716 2.94295 -0.462035 0
M  V30 14575 O 725.666 2.71763 0.752928 0
M  V30 14576 C 725.866 4.25064 -1.05249 0
M  V30 14577 C 725.976 5.39815 -0.095697 0
M  V30 14578 C 725.916 4.40214 -2.39192 0
M  V30 14579 H 728.657 6.54063 -5.71245 0
M  V30 14580 H 728.926 5.30339 -4.43905 0
M  V30 14581 H 728.059 4.55889 -6.76652 0
M  V30 14582 H 725.404 2.6167 -5.17842 0
M  V30 14583 H 725.125 5.52155 -4.41878 0
M  V30 14584 H 724.133 4.51918 -5.53297 0
M  V30 14585 H 725.967 6.25055 -6.55162 0
M  V30 14586 H 726.038 5.39798 -2.81523 0
M  V30 14587 H 725.008 5.91593 -0.0279582 0
M  V30 14588 H 726.745 6.10038 -0.450573 0
M  V30 14589 H 726.257 5.02007 0.89937 0
M  V30 14590 H 725.521 0.995326 -1.00435 0
M  V30 14591 P 724.096 4.23843 -7.83734 0
M  V30 14592 O 723.876 4.19407 -9.29784 0
M  V30 14593 O 723.306 5.24426 -7.09156 0
M  V30 14594 O 723.846 2.79386 -7.20852 0
M  V30 14595 C 724.786 1.7299 -7.50419 0
M  V30 14596 C 724.056 0.41401 -7.5797 0
M  V30 14597 O 723.846 -0.089787 -6.22035 0
M  V30 14598 C 722.656 0.447224 -8.1878 0
M  V30 14599 O 722.266 -0.825159 -8.71201 0
M  V30 14600 C 721.776 0.783801 -6.99623 0
M  V30 14601 C 722.486 0.0619192 -5.85967 0
M  V30 14602 N 722.436 0.7859 -4.56281 0
M  V30 14603 C 722.286 0.0359258 -3.39981 0
M  V30 14604 O 722.196 -1.19723 -3.49038 0
M  V30 14605 N 722.236 0.869151 -2.14025 0
M  V30 14606 C 722.336 2.01207 -2.14363 0
M  V30 14607 N 722.286 2.58978 -0.954287 0
M  V30 14608 C 722.486 2.80817 -3.32215 0
M  V30 14609 C 722.536 2.13785 -4.50884 0
M  V30 14610 H 725.276 1.93401 -8.46693 0
M  V30 14611 H 725.546 1.68181 -6.71046 0
M  V30 14612 H 724.679 -0.289076 -8.15488 0
M  V30 14613 H 722.024 -0.927166 -5.72947 0
M  V30 14614 H 721.744 1.87 -6.82132 0
M  V30 14615 H 720.753 0.404009 -7.13457 0
M  V30 14616 H 722.587 1.20599 -8.97534 0
M  V30 14617 H 722.659 2.70295 -5.43162 0
M  V30 14618 H 722.557 3.89465 -3.27406 0
M  V30 14619 H 722.169 2.01616 -0.107046 0
M  V30 14620 H 722.365 3.61403 -0.873101 0
M  V30 14621 P 720.716 -1.17771 -8.83182 0
M  V30 14622 O 720.496 -2.07206 -9.98732 0
M  V30 14623 O 719.926 0.0743816 -8.81969 0
M  V30 14624 O 720.466 -1.97652 -7.47304 0
M  V30 14625 C 721.406 -3.01133 -7.08783 0
M  V30 14626 C 720.676 -4.12613 -6.37049 0
M  V30 14627 O 720.466 -3.72827 -4.97879 0
M  V30 14628 C 719.276 -4.45085 -6.88694 0
M  V30 14629 O 718.886 -5.7877 -6.5624 0
M  V30 14630 C 718.396 -3.47817 -6.12078 0
M  V30 14631 C 719.106 -3.39414 -4.77697 0
M  V30 14632 N 719.056 -2.04615 -4.15333 0
M  V30 14633 H 721.895 -3.41248 -7.98759 0
M  V30 14634 H 722.167 -2.5837 -6.41742 0
M  V30 14635 H 721.299 -5.02657 -6.42673 0
M  V30 14636 P 717.336 -6.144 -6.45285 0
M  V30 14637 O 717.116 -7.54673 -6.86199 0
M  V30 14638 O 716.546 -5.12391 -7.179 0
M  V30 14639 O 717.086 -5.99158 -4.88404 0
M  V30 14640 C 718.026 -6.60062 -3.96313 0
M  V30 14641 C 717.296 -7.08259 -2.72856 0
M  V30 14642 O 717.086 -5.9427 -1.83651 0
M  V30 14643 C 715.896 -7.65087 -2.94749 0
M  V30 14644 O 715.506 -8.53963 -1.90717 0
M  V30 14645 C 715.016 -6.41069 -2.90698 0
M  V30 14646 C 715.726 -5.5528 -1.86931 0
M  V30 14647 N 715.676 -4.09575 -2.15696 0
M  V30 14648 C 715.526 -3.24249 -1.08435 0
M  V30 14649 O 715.436 -3.63946 0.0628747 0
M  V30 14650 N 715.486 -1.90009 -1.39973 0
M  V30 14651 C 715.576 -1.34884 -2.65614 0
M  V30 14652 C 715.726 -2.3145 -3.71736 0
M  V30 14653 C 715.776 -3.63518 -3.44754 0
M  V30 14654 H 718.517 -7.45402 -4.45526 0
M  V30 14655 H 718.786 -5.86062 -3.67208 0
M  V30 14656 H 717.919 -7.84412 -2.24479 0
M  V30 14657 H 715.264 -5.73358 -0.888409 0
M  V30 14658 H 714.985 -5.90877 -3.88583 0
M  V30 14659 H 713.993 -6.65867 -2.58821 0
M  V30 14660 H 715.827 -8.16248 -3.92006 0
M  V30 14661 H 715.898 -4.34551 -4.26383 0
M  V30 14662 P 713.956 -8.7635 -1.60911 0
M  V30 14663 O 713.736 -10.1388 -1.11561 0
M  V30 14664 O 713.166 -8.36503 -2.79617 0
M  V30 14665 O 713.706 -7.71806 -0.42951 0
M  V30 14666 C 714.646 -7.67148 0.673689 0
M  V30 14667 C 713.916 -7.33374 1.95559 0
M  V30 14668 O 713.706 -5.88721 2.00726 0
M  V30 14669 C 712.516 -7.92526 2.10483 0
M  V30 14670 O 712.126 -8.02971 3.47653 0
M  V30 14671 C 711.636 -6.89602 1.41652 0
M  V30 14672 C 712.346 -5.59201 1.75185 0
M  V30 14673 N 712.296 -4.58301 0.657969 0
M  V30 14674 H 715.135 -8.65116 0.777161 0
M  V30 14675 H 715.407 -6.9022 0.46725 0
M  V30 14676 H 714.539 -7.66548 2.79458 0
M  V30 14677 H 711.884 -5.16165 2.65183 0
M  V30 14678 H 711.604 -7.06433 0.329384 0
M  V30 14679 H 710.613 -6.90926 1.82021 0
M  V30 14680 H 712.447 -8.90873 1.62657 0
M  V30 14681 P 710.576 -8.03563 3.84925 0
M  V30 14682 O 710.356 -8.85821 5.0569 0
M  V30 14683 O 709.786 -8.41101 2.65469 0
M  V30 14684 O 710.326 -6.4965 4.18908 0
M  V30 14685 C 711.266 -5.81037 5.05421 0
M  V30 14686 C 710.536 -4.78366 5.89277 0
M  V30 14687 O 710.326 -3.58302 5.08433 0
M  V30 14688 C 709.136 -5.17448 6.36119 0
M  V30 14689 O 708.746 -4.45271 7.53232 0
M  V30 14690 C 708.256 -4.74639 5.19936 0
M  V30 14691 C 708.966 -3.49432 4.70418 0
M  V30 14692 N 708.916 -3.31776 3.22945 0
M  V30 14693 C 708.996 -4.27147 2.23315 0
M  V30 14694 N 708.916 -3.78447 1.02186 0
M  V30 14695 C 708.776 -2.41001 1.21732 0
M  V30 14696 C 708.646 -1.36111 0.27694 0
M  V30 14697 N 708.526 -0.113683 0.912949 0
M  V30 14698 C 708.526 0.0846396 2.27943 0
M  V30 14699 N 708.396 1.34737 2.6916 0
M  V30 14700 N 708.656 -0.902521 3.16379 0
M  V30 14701 C 708.776 -2.11937 2.56849 0
M  V30 14702 H 711.755 -6.54213 5.71376 0
M  V30 14703 H 712.027 -5.30492 4.44033 0
M  V30 14704 H 711.159 -4.55889 6.76652 0
M  V30 14705 P 707.196 -4.23843 7.83734 0
M  V30 14706 O 706.976 -4.19407 9.29784 0
M  V30 14707 O 706.406 -5.24426 7.09156 0
M  V30 14708 O 706.946 -2.7935 7.20758 0
M  V30 14709 C 707.886 -1.7299 7.50419 0
M  V30 14710 C 707.156 -0.406376 7.57911 0
M  V30 14711 O 706.946 0.0897726 6.21935 0
M  V30 14712 C 705.756 -0.447224 8.1878 0
M  V30 14713 O 705.366 0.825065 8.71101 0
M  V30 14714 C 704.876 -0.783801 6.99623 0
M  V30 14715 C 705.586 -0.0619192 5.85967 0
M  V30 14716 N 705.536 -0.7859 4.56281 0
M  V30 14717 H 708.375 -1.93423 8.4679 0
M  V30 14718 H 708.647 -1.68181 6.71046 0
M  V30 14719 H 707.779 0.289041 8.15388 0
M  V30 14720 P 703.816 1.17771 8.83182 0
M  V30 14721 O 703.596 2.07206 9.98732 0
M  V30 14722 O 703.026 -0.0743816 8.81969 0
M  V30 14723 O 703.566 1.97678 7.474 0
M  V30 14724 C 704.506 3.01133 7.08783 0
M  V30 14725 C 703.776 4.1203 6.37546 0
M  V30 14726 O 703.566 3.72887 4.9796 0
M  V30 14727 C 702.376 4.45085 6.88694 0
M  V30 14728 O 701.986 5.78836 6.56315 0
M  V30 14729 C 701.496 3.47817 6.12078 0
M  V30 14730 C 702.206 3.39414 4.77697 0
M  V30 14731 N 702.156 2.04615 4.15333 0
M  V30 14732 C 702.006 1.96929 2.77162 0
M  V30 14733 O 701.916 3.02017 2.12006 0
M  V30 14734 N 701.956 0.55485 2.24237 0
M  V30 14735 C 702.056 -0.367808 2.9169 0
M  V30 14736 N 702.006 -1.53426 2.29427 0
M  V30 14737 C 702.206 -0.319148 4.33828 0
M  V30 14738 C 702.256 0.920672 4.90433 0
M  V30 14739 H 704.996 3.41209 7.98667 0
M  V30 14740 H 705.266 2.5837 6.41742 0
M  V30 14741 H 704.399 5.02718 6.42752 0
M  V30 14742 H 701.744 4.11779 4.09026 0
M  V30 14743 H 701.464 2.49661 6.61772 0
M  V30 14744 H 700.473 3.86674 6.00946 0
M  V30 14745 H 702.307 4.29991 7.97006 0
M  V30 14746 H 702.379 1.00589 5.98303 0
M  V30 14747 H 702.277 -1.22639 4.93799 0
M  V30 14748 H 701.889 -1.56819 1.27167 0
M  V30 14749 H 702.085 -2.41062 2.83063 0
M  V30 14750 P 700.436 6.144 6.45285 0
M  V30 14751 O 700.216 7.54673 6.86199 0
M  V30 14752 O 699.646 5.12391 7.179 0
M  V30 14753 O 700.186 5.99158 4.88404 0
M  V30 14754 C 701.126 6.60234 3.96415 0
M  V30 14755 C 700.396 7.08259 2.72856 0
M  V30 14756 O 700.186 5.9427 1.83651 0
M  V30 14757 C 698.996 7.64886 2.9555 0
M  V30 14758 O 698.606 8.53963 1.90717 0
M  V30 14759 C 698.116 6.4116 2.90739 0
M  V30 14760 C 698.826 5.55375 1.86963 0
M  V30 14761 N 698.776 4.09664 2.15742 0
M  V30 14762 H 701.615 7.45574 4.45629 0
M  V30 14763 H 701.887 5.86232 3.67314 0
M  V30 14764 H 701.019 7.84412 2.24479 0
M  V30 14765 P 697.056 8.7635 1.60911 0
M  V30 14766 O 696.836 10.1388 1.11561 0
M  V30 14767 O 696.266 8.36503 2.79617 0
M  V30 14768 O 696.806 7.71806 0.42951 0
M  V30 14769 C 697.746 7.66948 -0.673514 0
M  V30 14770 C 697.016 7.33374 -1.95559 0
M  V30 14771 O 696.806 5.88721 -2.00726 0
M  V30 14772 C 695.616 7.92218 -2.1125 0
M  V30 14773 O 695.226 8.02971 -3.47653 0
M  V30 14774 C 694.736 6.89504 -1.41631 0
M  V30 14775 C 695.446 5.59106 -1.75155 0
M  V30 14776 N 695.396 4.58136 -0.662409 0
M  V30 14777 C 695.246 3.26059 -1.02863 0
M  V30 14778 O 695.156 2.90743 -2.19009 0
M  V30 14779 N 695.206 2.35995 0.0155585 0
M  V30 14780 C 695.296 2.65248 1.35603 0
M  V30 14781 C 695.446 4.05747 1.64698 0
M  V30 14782 C 695.496 4.96734 0.652411 0
M  V30 14783 H 698.237 8.64917 -0.776982 0
M  V30 14784 H 698.506 6.89974 -0.474015 0
M  V30 14785 H 697.639 7.66548 -2.79458 0
M  V30 14786 H 694.984 5.16076 -2.65138 0
M  V30 14787 H 694.705 7.06433 -0.329384 0
M  V30 14788 H 693.713 6.90829 -1.81996 0
M  V30 14789 H 695.547 8.90774 -1.62639 0
M  V30 14790 H 695.618 6.02181 0.895285 0
M  V30 14791 P 693.676 8.03563 -3.84925 0
M  V30 14792 O 693.456 8.85821 -5.0569 0
M  V30 14793 O 692.886 8.41101 -2.65469 0
M  V30 14794 O 693.426 6.4965 -4.18908 0
M  V30 14795 C 694.366 5.81037 -5.05421 0
M  V30 14796 C 693.636 4.78366 -5.89277 0
M  V30 14797 O 693.426 3.58302 -5.08433 0
M  V30 14798 C 692.236 5.17448 -6.36119 0
M  V30 14799 O 691.846 4.45271 -7.53232 0
M  V30 14800 C 691.356 4.74639 -5.19936 0
M  V30 14801 C 692.066 3.49432 -4.70418 0
M  V30 14802 N 692.016 3.31776 -3.22945 0
M  V30 14803 H 694.855 6.54213 -5.71376 0
M  V30 14804 H 695.127 5.30492 -4.44033 0
M  V30 14805 H 694.259 4.55889 -6.76652 0
M  V30 14806 P 690.296 4.23843 -7.83734 0
M  V30 14807 O 690.076 4.19407 -9.29784 0
M  V30 14808 O 689.506 5.24426 -7.09156 0
M  V30 14809 O 690.046 2.7935 -7.20758 0
M  V30 14810 C 690.986 1.7299 -7.50419 0
M  V30 14811 C 690.256 0.406376 -7.57911 0
M  V30 14812 O 690.046 -0.0897726 -6.21935 0
M  V30 14813 C 688.856 0.447224 -8.1878 0
M  V30 14814 O 688.466 -0.825065 -8.71101 0
M  V30 14815 C 687.976 0.783801 -6.99623 0
M  V30 14816 C 688.686 0.0619192 -5.85967 0
M  V30 14817 N 688.636 0.7859 -4.56281 0
M  V30 14818 H 691.475 1.93423 -8.4679 0
M  V30 14819 H 691.747 1.68181 -6.71046 0
M  V30 14820 H 690.879 -0.289041 -8.15388 0
M  V30 14821 P 686.916 -1.17771 -8.83182 0
M  V30 14822 O 686.696 -2.07206 -9.98732 0
M  V30 14823 O 686.126 0.0743816 -8.81969 0
M  V30 14824 O 686.666 -1.97652 -7.47304 0
M  V30 14825 C 687.606 -3.01055 -7.08599 0
M  V30 14826 C 686.876 -4.12613 -6.37049 0
M  V30 14827 O 686.666 -3.72827 -4.97879 0
M  V30 14828 C 685.476 -4.45719 -6.88164 0
M  V30 14829 O 685.086 -5.7877 -6.5624 0
M  V30 14830 C 684.596 -3.47768 -6.11991 0
M  V30 14831 C 685.306 -3.39356 -4.77615 0
M  V30 14832 N 685.256 -2.04571 -4.15244 0
M  V30 14833 C 685.106 -1.98587 -2.78314 0
M  V30 14834 O 685.016 -2.98134 -2.08835 0
M  V30 14835 N 685.066 -0.714467 -2.24925 0
M  V30 14836 C 685.156 0.470001 -2.94169 0
M  V30 14837 O 685.106 1.55587 -2.35195 0
M  V30 14838 C 685.306 0.312541 -4.36783 0
M  V30 14839 C 685.416 1.57711 -5.16352 0
M  V30 14840 C 685.356 -0.914512 -4.92583 0
M  V30 14841 H 688.097 -3.41169 -7.98575 0
M  V30 14842 H 688.366 -2.58295 -6.41556 0
M  V30 14843 H 687.499 -5.02657 -6.42673 0
M  V30 14844 H 684.844 -4.11637 -4.08885 0
M  V30 14845 H 684.565 -2.49626 -6.61679 0
M  V30 14846 H 683.573 -3.86566 -6.00778 0
M  V30 14847 H 685.407 -4.29943 -7.96918 0
M  V30 14848 H 685.478 -1.00937 -6.00374 0
M  V30 14849 H 684.448 1.80153 -5.63503 0
M  V30 14850 H 686.185 1.4566 -5.94104 0
M  V30 14851 H 685.697 2.40664 -4.49645 0
M  V30 14852 H 684.961 -0.647622 -1.25697 0
M  V30 14853 P 683.536 -6.144 -6.45285 0
M  V30 14854 O 683.316 -7.54673 -6.86199 0
M  V30 14855 O 682.746 -5.12391 -7.179 0
M  V30 14856 O 683.286 -5.99158 -4.88404 0
M  V30 14857 C 684.226 -6.60234 -3.96415 0
M  V30 14858 C 683.496 -7.08259 -2.72856 0
M  V30 14859 O 683.286 -5.9427 -1.83651 0
M  V30 14860 C 682.096 -7.64886 -2.9555 0
M  V30 14861 O 681.706 -8.53963 -1.90717 0
M  V30 14862 C 681.216 -6.4116 -2.90739 0
M  V30 14863 C 681.926 -5.55375 -1.86963 0
M  V30 14864 N 681.876 -4.09664 -2.15742 0
M  V30 14865 H 684.715 -7.45574 -4.45629 0
M  V30 14866 H 684.987 -5.86232 -3.67314 0
M  V30 14867 H 684.119 -7.84412 -2.24479 0
M  V30 14868 P 680.156 -8.7635 -1.60911 0
M  V30 14869 O 679.936 -10.1388 -1.11561 0
M  V30 14870 O 679.366 -8.36503 -2.79617 0
M  V30 14871 O 679.906 -7.71806 -0.42951 0
M  V30 14872 C 680.846 -7.67148 0.673689 0
M  V30 14873 C 680.116 -7.33374 1.95559 0
M  V30 14874 O 679.906 -5.88721 2.00726 0
M  V30 14875 C 678.716 -7.92526 2.10483 0
M  V30 14876 O 678.326 -8.02971 3.47653 0
M  V30 14877 C 677.836 -6.89602 1.41652 0
M  V30 14878 C 678.546 -5.59201 1.75185 0
M  V30 14879 N 678.496 -4.58235 0.662552 0
M  V30 14880 H 681.335 -8.65116 0.777161 0
M  V30 14881 H 681.607 -6.90173 0.474152 0
M  V30 14882 H 680.739 -7.66548 2.79458 0
M  V30 14883 P 676.776 -8.03563 3.84925 0
M  V30 14884 O 676.556 -8.85821 5.0569 0
M  V30 14885 O 675.986 -8.41101 2.65469 0
M  V30 14886 O 676.526 -6.4965 4.18908 0
M  V30 14887 C 677.466 -5.81037 5.05421 0
M  V30 14888 C 676.736 -4.78366 5.89277 0
M  V30 14889 O 676.526 -3.58302 5.08433 0
M  V30 14890 C 675.336 -5.17448 6.36119 0
M  V30 14891 O 674.946 -4.45271 7.53232 0
M  V30 14892 C 674.456 -4.74639 5.19936 0
M  V30 14893 C 675.166 -3.49432 4.70418 0
M  V30 14894 N 675.116 -3.32099 3.22613 0
M  V30 14895 H 677.955 -6.54213 5.71376 0
M  V30 14896 H 678.227 -5.30936 4.43503 0
M  V30 14897 H 677.359 -4.55889 6.76652 0
M  V30 14898 H 674.704 -2.61715 5.17932 0
M  V30 14899 H 674.424 -5.52155 4.41878 0
M  V30 14900 H 673.433 -4.51981 5.53374 0
M  V30 14901 H 675.267 -6.25124 6.55234 0
M  V30 14902 P 673.396 -4.23843 7.83734 0
M  V30 14903 O 673.176 -4.19407 9.29784 0
M  V30 14904 O 672.606 -5.24426 7.09156 0
M  V30 14905 O 673.146 -2.7935 7.20758 0
M  V30 14906 C 674.086 -1.72945 7.50224 0
M  V30 14907 C 673.356 -0.406376 7.57911 0
M  V30 14908 O 673.146 0.0897726 6.21935 0
M  V30 14909 C 671.956 -0.438983 8.18724 0
M  V30 14910 O 671.566 0.825065 8.71101 0
M  V30 14911 C 671.076 -0.783689 6.99524 0
M  V30 14912 C 671.786 -0.0619086 5.85867 0
M  V30 14913 N 671.736 -0.78573 4.56183 0
M  V30 14914 C 671.586 -0.0292889 3.41887 0
M  V30 14915 O 671.496 1.18445 3.4419 0
M  V30 14916 N 671.546 -0.744061 2.23964 0
M  V30 14917 C 671.636 -2.10932 2.10362 0
M  V30 14918 C 671.786 -2.8202 3.34994 0
M  V30 14919 C 671.836 -2.15547 4.52261 0
M  V30 14920 H 674.577 -1.93379 8.46595 0
M  V30 14921 H 674.846 -1.68132 6.70852 0
M  V30 14922 H 673.979 0.289041 8.15388 0
M  V30 14923 H 671.324 0.926847 5.72749 0
M  V30 14924 H 671.045 -1.86973 6.82036 0
M  V30 14925 H 670.053 -0.403896 7.13257 0
M  V30 14926 H 671.887 -1.20585 8.97435 0
M  V30 14927 H 671.958 -2.71231 5.45042 0
M  V30 14928 P 670.016 1.17771 8.83182 0
M  V30 14929 O 669.796 2.07206 9.98732 0
M  V30 14930 O 669.226 -0.0743816 8.81969 0
M  V30 14931 O 669.766 1.97652 7.47304 0
M  V30 14932 C 670.706 3.01133 7.08783 0
M  V30 14933 C 669.976 4.12613 6.37049 0
M  V30 14934 O 669.766 3.72827 4.97879 0
M  V30 14935 C 668.576 4.45085 6.88694 0
M  V30 14936 O 668.186 5.7877 6.5624 0
M  V30 14937 C 667.696 3.47817 6.12078 0
M  V30 14938 C 668.406 3.39414 4.77697 0
M  V30 14939 N 668.356 2.04615 4.15333 0
M  V30 14940 H 671.195 3.41248 7.98759 0
M  V30 14941 H 671.467 2.5837 6.41742 0
M  V30 14942 H 670.599 5.02657 6.42673 0
M  V30 14943 P 666.636 6.144 6.45285 0
M  V30 14944 O 666.416 7.54673 6.86199 0
M  V30 14945 O 665.846 5.12391 7.179 0
M  V30 14946 O 666.386 5.99158 4.88404 0
M  V30 14947 C 667.326 6.60234 3.96415 0
M  V30 14948 C 666.596 7.08259 2.72856 0
M  V30 14949 O 666.386 5.9427 1.83651 0
M  V30 14950 C 665.196 7.64886 2.9555 0
M  V30 14951 O 664.806 8.53963 1.90717 0
M  V30 14952 C 664.316 6.4116 2.90739 0
M  V30 14953 C 665.026 5.55375 1.86963 0
M  V30 14954 N 664.976 4.09664 2.15742 0
M  V30 14955 H 667.815 7.45574 4.45629 0
M  V30 14956 H 668.087 5.86232 3.67314 0
M  V30 14957 H 667.219 7.84412 2.24479 0
M  V30 14958 P 663.256 8.7635 1.60911 0
M  V30 14959 O 663.036 10.1388 1.11561 0
M  V30 14960 O 662.466 8.36503 2.79617 0
M  V30 14961 O 663.006 7.71806 0.42951 0
M  V30 14962 C 663.946 7.67148 -0.673689 0
M  V30 14963 C 663.216 7.33374 -1.95559 0
M  V30 14964 O 663.006 5.88721 -2.00726 0
M  V30 14965 C 661.816 7.92526 -2.10483 0
M  V30 14966 O 661.426 8.02971 -3.47653 0
M  V30 14967 C 660.936 6.89602 -1.41652 0
M  V30 14968 C 661.646 5.59201 -1.75185 0
M  V30 14969 N 661.596 4.58301 -0.657969 0
M  V30 14970 H 664.435 8.65116 -0.777161 0
M  V30 14971 H 664.707 6.9022 -0.46725 0
M  V30 14972 H 663.839 7.66548 -2.79458 0
M  V30 14973 H 661.184 5.16165 -2.65183 0
M  V30 14974 H 660.904 7.06433 -0.329384 0
M  V30 14975 H 659.913 6.90926 -1.82021 0
M  V30 14976 H 661.747 8.90873 -1.62657 0
M  V30 14977 P 659.876 8.03563 -3.84925 0
M  V30 14978 O 659.656 8.85821 -5.0569 0
M  V30 14979 O 659.086 8.41101 -2.65469 0
M  V30 14980 O 659.626 6.4965 -4.18908 0
M  V30 14981 C 660.566 5.81037 -5.05421 0
M  V30 14982 C 659.836 4.78366 -5.89277 0
M  V30 14983 O 659.626 3.58302 -5.08433 0
M  V30 14984 C 658.436 5.17448 -6.36119 0
M  V30 14985 O 658.046 4.45271 -7.53232 0
M  V30 14986 C 657.556 4.74639 -5.19936 0
M  V30 14987 C 658.266 3.49432 -4.70418 0
M  V30 14988 N 658.216 3.31776 -3.22945 0
M  V30 14989 C 658.296 4.27147 -2.23315 0
M  V30 14990 N 658.216 3.78447 -1.02186 0
M  V30 14991 C 658.076 2.41001 -1.21732 0
M  V30 14992 C 657.946 1.36111 -0.27694 0
M  V30 14993 N 657.826 0.113683 -0.912949 0
M  V30 14994 C 657.826 -0.0846396 -2.27943 0
M  V30 14995 N 657.696 -1.34737 -2.6916 0
M  V30 14996 N 657.956 0.902521 -3.16379 0
M  V30 14997 C 658.076 2.11937 -2.56849 0
M  V30 14998 H 661.055 6.54213 -5.71376 0
M  V30 14999 H 661.327 5.30492 -4.44033 0
M  V30 15000 H 660.459 4.55889 -6.76652 0
M  V30 15001 P 656.496 4.23843 -7.83734 0
M  V30 15002 O 656.276 4.19407 -9.29784 0
M  V30 15003 O 655.706 5.24426 -7.09156 0
M  V30 15004 O 656.246 2.7935 -7.20758 0
M  V30 15005 C 657.186 1.7299 -7.50419 0
M  V30 15006 C 656.456 0.406376 -7.57911 0
M  V30 15007 O 656.246 -0.0897726 -6.21935 0
M  V30 15008 C 655.056 0.447224 -8.1878 0
M  V30 15009 O 654.666 -0.825065 -8.71101 0
M  V30 15010 C 654.176 0.783801 -6.99623 0
M  V30 15011 C 654.886 0.0619192 -5.85967 0
M  V30 15012 N 654.836 0.7859 -4.56281 0
M  V30 15013 H 657.675 1.93423 -8.4679 0
M  V30 15014 H 657.947 1.68181 -6.71046 0
M  V30 15015 H 657.079 -0.289041 -8.15388 0
M  V30 15016 P 653.116 -1.17771 -8.83182 0
M  V30 15017 O 652.896 -2.07206 -9.98732 0
M  V30 15018 O 652.326 0.0743816 -8.81969 0
M  V30 15019 O 652.866 -1.97652 -7.47304 0
M  V30 15020 C 653.806 -3.01133 -7.08783 0
M  V30 15021 C 653.076 -4.12613 -6.37049 0
M  V30 15022 O 652.866 -3.72827 -4.97879 0
M  V30 15023 C 651.676 -4.45085 -6.88694 0
M  V30 15024 O 651.286 -5.7877 -6.5624 0
M  V30 15025 C 650.796 -3.47817 -6.12078 0
M  V30 15026 C 651.506 -3.39414 -4.77697 0
M  V30 15027 N 651.456 -2.04199 -4.15538 0
M  V30 15028 C 651.536 -0.821545 -4.76977 0
M  V30 15029 N 651.466 0.1794 -3.94592 0
M  V30 15030 C 651.316 -0.419121 -2.70776 0
M  V30 15031 C 651.186 0.109072 -1.40577 0
M  V30 15032 N 651.176 1.4104 -1.1344 0
M  V30 15033 N 651.066 -0.764381 -0.39411 0
M  V30 15034 C 651.076 -2.06587 -0.664135 0
M  V30 15035 N 651.196 -2.67948 -1.82153 0
M  V30 15036 C 651.316 -1.77942 -2.8147 0
M  V30 15037 H 654.295 -3.41248 -7.98759 0
M  V30 15038 H 654.567 -2.57728 -6.42 0
M  V30 15039 H 653.699 -5.02657 -6.42673 0
M  V30 15040 H 651.044 -4.11708 -4.08956 0
M  V30 15041 H 650.764 -2.49626 -6.61679 0
M  V30 15042 H 649.773 -3.8662 -6.00862 0
M  V30 15043 H 651.607 -4.29991 -7.97006 0
M  V30 15044 H 651.648 -0.702451 -5.84696 0
M  V30 15045 H 651.267 2.09647 -1.89651 0
M  V30 15046 H 651.078 1.73358 -0.160575 0
M  V30 15047 H 650.97 -2.71695 0.195838 0
M  V30 15048 P 649.736 -6.144 -6.45285 0
M  V30 15049 O 649.516 -7.54673 -6.86199 0
M  V30 15050 O 648.946 -5.12391 -7.179 0
M  V30 15051 O 649.486 -5.99158 -4.88404 0
M  V30 15052 C 650.426 -6.60062 -3.96313 0
M  V30 15053 C 649.696 -7.08259 -2.72856 0
M  V30 15054 O 649.486 -5.9427 -1.83651 0
M  V30 15055 C 648.296 -7.65087 -2.94749 0
M  V30 15056 O 647.906 -8.53963 -1.90717 0
M  V30 15057 C 647.416 -6.41069 -2.90698 0
M  V30 15058 C 648.126 -5.5528 -1.86931 0
M  V30 15059 N 648.076 -4.09575 -2.15696 0
M  V30 15060 C 647.926 -3.24249 -1.08435 0
M  V30 15061 O 647.836 -3.63946 0.0628747 0
M  V30 15062 N 647.886 -1.90009 -1.39973 0
M  V30 15063 C 647.976 -1.34884 -2.65614 0
M  V30 15064 C 648.126 -2.3145 -3.71736 0
M  V30 15065 C 648.176 -3.63518 -3.44754 0
M  V30 15066 H 650.917 -7.45402 -4.45526 0
M  V30 15067 H 651.186 -5.86062 -3.67208 0
M  V30 15068 H 650.319 -7.84412 -2.24479 0
M  V30 15069 H 647.664 -5.73358 -0.888409 0
M  V30 15070 H 647.385 -5.90877 -3.88583 0
M  V30 15071 H 646.393 -6.65867 -2.58821 0
M  V30 15072 H 648.227 -8.16248 -3.92006 0
M  V30 15073 H 648.298 -4.34551 -4.26383 0
M  V30 15074 P 646.356 -8.7635 -1.60911 0
M  V30 15075 O 646.136 -10.1388 -1.11561 0
M  V30 15076 O 645.566 -8.36503 -2.79617 0
M  V30 15077 O 646.106 -7.71806 -0.42951 0
M  V30 15078 C 647.046 -7.67148 0.673689 0
M  V30 15079 C 646.316 -7.33374 1.95559 0
M  V30 15080 O 646.106 -5.88721 2.00726 0
M  V30 15081 C 644.916 -7.92526 2.10483 0
M  V30 15082 O 644.526 -8.02971 3.47653 0
M  V30 15083 C 644.036 -6.89602 1.41652 0
M  V30 15084 C 644.746 -5.59201 1.75185 0
M  V30 15085 N 644.696 -4.58235 0.662552 0
M  V30 15086 H 647.535 -8.65116 0.777161 0
M  V30 15087 H 647.807 -6.90173 0.474152 0
M  V30 15088 H 646.939 -7.66548 2.79458 0
M  V30 15089 P 642.976 -8.03563 3.84925 0
M  V30 15090 O 642.756 -8.85821 5.0569 0
M  V30 15091 O 642.186 -8.41101 2.65469 0
M  V30 15092 O 642.726 -6.4965 4.18908 0
M  V30 15093 C 643.666 -5.81037 5.05421 0
M  V30 15094 C 642.936 -4.78366 5.89277 0
M  V30 15095 O 642.726 -3.58302 5.08433 0
M  V30 15096 C 641.536 -5.17448 6.36119 0
M  V30 15097 O 641.146 -4.45271 7.53232 0
M  V30 15098 C 640.656 -4.74639 5.19936 0
M  V30 15099 C 641.366 -3.49432 4.70418 0
M  V30 15100 N 641.316 -3.31776 3.22945 0
M  V30 15101 H 644.155 -6.54213 5.71376 0
M  V30 15102 H 644.427 -5.30492 4.44033 0
M  V30 15103 H 643.559 -4.55889 6.76652 0
M  V30 15104 P 639.596 -4.23843 7.83734 0
M  V30 15105 O 639.376 -4.19407 9.29784 0
M  V30 15106 O 638.806 -5.24426 7.09156 0
M  V30 15107 O 639.346 -2.7935 7.20758 0
M  V30 15108 C 640.286 -1.72945 7.50224 0
M  V30 15109 C 639.556 -0.406376 7.57911 0
M  V30 15110 O 639.346 0.0897726 6.21935 0
M  V30 15111 C 638.156 -0.438983 8.18724 0
M  V30 15112 O 637.766 0.825065 8.71101 0
M  V30 15113 C 637.276 -0.783689 6.99524 0
M  V30 15114 C 637.986 -0.0619086 5.85867 0
M  V30 15115 N 637.936 -0.78573 4.56183 0
M  V30 15116 C 637.786 -0.0292889 3.41887 0
M  V30 15117 O 637.696 1.18445 3.4419 0
M  V30 15118 N 637.746 -0.744061 2.23964 0
M  V30 15119 C 637.836 -2.10932 2.10362 0
M  V30 15120 O 637.786 -2.64117 0.98825 0
M  V30 15121 C 637.986 -2.8202 3.34994 0
M  V30 15122 C 638.096 -4.31095 3.25037 0
M  V30 15123 C 638.036 -2.15547 4.52261 0
M  V30 15124 H 640.777 -1.93379 8.46595 0
M  V30 15125 H 641.046 -1.68132 6.70852 0
M  V30 15126 H 640.179 0.289041 8.15388 0
M  V30 15127 H 637.524 0.926847 5.72749 0
M  V30 15128 H 637.245 -1.86973 6.82036 0
M  V30 15129 H 636.253 -0.403896 7.13257 0
M  V30 15130 H 638.087 -1.20585 8.97435 0
M  V30 15131 H 638.158 -2.71231 5.45042 0
M  V30 15132 H 637.128 -4.76966 3.49992 0
M  V30 15133 H 638.865 -4.67047 3.95024 0
M  V30 15134 H 638.377 -4.58996 2.22312 0
M  V30 15135 H 637.641 -0.214893 1.39758 0
M  V30 15136 P 636.216 1.17771 8.83182 0
M  V30 15137 O 635.996 2.07206 9.98732 0
M  V30 15138 O 635.426 -0.0743816 8.81969 0
M  V30 15139 O 635.966 1.97652 7.47304 0
M  V30 15140 C 636.906 3.01055 7.08599 0
M  V30 15141 C 636.176 4.12613 6.37049 0
M  V30 15142 O 635.966 3.72827 4.97879 0
M  V30 15143 C 634.776 4.45719 6.88164 0
M  V30 15144 O 634.386 5.7877 6.5624 0
M  V30 15145 C 633.896 3.47768 6.11991 0
M  V30 15146 C 634.606 3.39356 4.77615 0
M  V30 15147 N 634.556 2.04571 4.15244 0
M  V30 15148 C 634.406 1.98587 2.78314 0
M  V30 15149 O 634.316 2.98134 2.08835 0
M  V30 15150 N 634.366 0.714467 2.24925 0
M  V30 15151 C 634.456 -0.470001 2.94169 0
M  V30 15152 C 634.606 -0.312541 4.36783 0
M  V30 15153 C 634.656 0.914512 4.92583 0
M  V30 15154 H 637.397 3.41169 7.98575 0
M  V30 15155 H 637.666 2.58295 6.41556 0
M  V30 15156 H 636.799 5.02657 6.42673 0
M  V30 15157 H 634.144 4.11637 4.08885 0
M  V30 15158 H 633.865 2.49626 6.61679 0
M  V30 15159 H 632.873 3.86566 6.00778 0
M  V30 15160 H 634.707 4.29943 7.96918 0
M  V30 15161 H 634.778 1.00937 6.00374 0
M  V30 15162 P 632.836 6.144 6.45285 0
M  V30 15163 O 632.616 7.54673 6.86199 0
M  V30 15164 O 632.046 5.12391 7.179 0
M  V30 15165 O 632.586 5.99158 4.88404 0
M  V30 15166 C 633.526 6.60234 3.96415 0
M  V30 15167 C 632.796 7.08259 2.72856 0
M  V30 15168 O 632.586 5.9427 1.83651 0
M  V30 15169 C 631.396 7.64886 2.9555 0
M  V30 15170 O 631.006 8.53963 1.90717 0
M  V30 15171 C 630.516 6.4116 2.90739 0
M  V30 15172 C 631.226 5.55375 1.86963 0
M  V30 15173 N 631.176 4.09448 2.16152 0
M  V30 15174 H 634.015 7.45574 4.45629 0
M  V30 15175 H 634.287 5.85864 3.679 0
M  V30 15176 H 633.419 7.84412 2.24479 0
M  V30 15177 H 630.764 5.73457 0.888562 0
M  V30 15178 H 630.484 5.90877 3.88583 0
M  V30 15179 H 629.493 6.6596 2.58858 0
M  V30 15180 H 631.327 8.16339 3.92049 0
M  V30 15181 P 629.456 8.7635 1.60911 0
M  V30 15182 O 629.236 10.1388 1.11561 0
M  V30 15183 O 628.666 8.36503 2.79617 0
M  V30 15184 O 629.206 7.71806 0.42951 0
M  V30 15185 C 630.146 7.67148 -0.673689 0
M  V30 15186 C 629.416 7.33374 -1.95559 0
M  V30 15187 O 629.206 5.88721 -2.00726 0
M  V30 15188 C 628.016 7.92526 -2.10483 0
M  V30 15189 O 627.626 8.02971 -3.47653 0
M  V30 15190 C 627.136 6.89602 -1.41652 0
M  V30 15191 C 627.846 5.59201 -1.75185 0
M  V30 15192 N 627.796 4.58301 -0.657969 0
M  V30 15193 H 630.635 8.65116 -0.777161 0
M  V30 15194 H 630.907 6.9022 -0.46725 0
M  V30 15195 H 630.039 7.66548 -2.79458 0
M  V30 15196 H 627.384 5.16165 -2.65183 0
M  V30 15197 H 627.104 7.06433 -0.329384 0
M  V30 15198 H 626.113 6.90926 -1.82021 0
M  V30 15199 H 627.947 8.90873 -1.62657 0
M  V30 15200 P 626.076 8.03563 -3.84925 0
M  V30 15201 O 625.856 8.85821 -5.0569 0
M  V30 15202 O 625.286 8.41101 -2.65469 0
M  V30 15203 O 625.826 6.4965 -4.18908 0
M  V30 15204 C 626.766 5.81037 -5.05421 0
M  V30 15205 C 626.036 4.78366 -5.89277 0
M  V30 15206 O 625.826 3.58302 -5.08433 0
M  V30 15207 C 624.636 5.17448 -6.36119 0
M  V30 15208 O 624.246 4.45271 -7.53232 0
M  V30 15209 C 623.756 4.74639 -5.19936 0
M  V30 15210 C 624.466 3.49432 -4.70418 0
M  V30 15211 N 624.416 3.32099 -3.22613 0
M  V30 15212 H 627.255 6.54213 -5.71376 0
M  V30 15213 H 627.527 5.30936 -4.43503 0
M  V30 15214 H 626.659 4.55889 -6.76652 0
M  V30 15215 H 624.004 2.61715 -5.17932 0
M  V30 15216 H 623.724 5.52155 -4.41878 0
M  V30 15217 H 622.733 4.51981 -5.53374 0
M  V30 15218 H 624.567 6.25124 -6.55234 0
M  V30 15219 P 622.696 4.23843 -7.83734 0
M  V30 15220 O 622.476 4.19407 -9.29784 0
M  V30 15221 O 621.906 5.24426 -7.09156 0
M  V30 15222 O 622.446 2.7935 -7.20758 0
M  V30 15223 C 623.386 1.7299 -7.50419 0
M  V30 15224 C 622.656 0.406376 -7.57911 0
M  V30 15225 O 622.446 -0.0897726 -6.21935 0
M  V30 15226 C 621.256 0.447224 -8.1878 0
M  V30 15227 O 620.866 -0.825065 -8.71101 0
M  V30 15228 C 620.376 0.783801 -6.99623 0
M  V30 15229 C 621.086 0.0619192 -5.85967 0
M  V30 15230 N 621.036 0.7859 -4.56281 0
M  V30 15231 H 623.875 1.93423 -8.4679 0
M  V30 15232 H 624.147 1.68181 -6.71046 0
M  V30 15233 H 623.279 -0.289041 -8.15388 0
M  V30 15234 P 619.316 -1.17771 -8.83182 0
M  V30 15235 O 619.096 -2.07206 -9.98732 0
M  V30 15236 O 618.526 0.0743816 -8.81969 0
M  V30 15237 O 619.066 -1.97652 -7.47304 0
M  V30 15238 C 620.006 -3.01133 -7.08783 0
M  V30 15239 C 619.276 -4.12613 -6.37049 0
M  V30 15240 O 619.066 -3.72827 -4.97879 0
M  V30 15241 C 617.876 -4.45085 -6.88694 0
M  V30 15242 O 617.486 -5.7877 -6.5624 0
M  V30 15243 C 616.996 -3.47817 -6.12078 0
M  V30 15244 C 617.706 -3.39414 -4.77697 0
M  V30 15245 N 617.656 -2.04615 -4.15333 0
M  V30 15246 H 620.495 -3.41248 -7.98759 0
M  V30 15247 H 620.767 -2.5837 -6.41742 0
M  V30 15248 H 619.899 -5.02657 -6.42673 0
M  V30 15249 P 615.936 -6.144 -6.45285 0
M  V30 15250 O 615.716 -7.54673 -6.86199 0
M  V30 15251 O 615.146 -5.12391 -7.179 0
M  V30 15252 O 615.686 -5.99158 -4.88404 0
M  V30 15253 C 616.626 -6.60234 -3.96415 0
M  V30 15254 C 615.896 -7.08259 -2.72856 0
M  V30 15255 O 615.686 -5.9427 -1.83651 0
M  V30 15256 C 614.496 -7.64886 -2.9555 0
M  V30 15257 O 614.106 -8.53963 -1.90717 0
M  V30 15258 C 613.616 -6.4116 -2.90739 0
M  V30 15259 C 614.326 -5.55375 -1.86963 0
M  V30 15260 N 614.276 -4.09664 -2.15742 0
M  V30 15261 H 617.115 -7.45574 -4.45629 0
M  V30 15262 H 617.387 -5.86232 -3.67314 0
M  V30 15263 H 616.519 -7.84412 -2.24479 0
M  V30 15264 P 612.556 -8.7635 -1.60911 0
M  V30 15265 O 612.336 -10.1388 -1.11561 0
M  V30 15266 O 611.766 -8.36503 -2.79617 0
M  V30 15267 O 612.306 -7.71806 -0.42951 0
M  V30 15268 C 613.246 -7.67148 0.673689 0
M  V30 15269 C 612.516 -7.33374 1.95559 0
M  V30 15270 O 612.306 -5.88721 2.00726 0
M  V30 15271 C 611.116 -7.92526 2.10483 0
M  V30 15272 O 610.726 -8.02971 3.47653 0
M  V30 15273 C 610.236 -6.89602 1.41652 0
M  V30 15274 C 610.946 -5.59201 1.75185 0
M  V30 15275 N 610.896 -4.58235 0.662552 0
M  V30 15276 H 613.735 -8.65116 0.777161 0
M  V30 15277 H 614.007 -6.90173 0.474152 0
M  V30 15278 H 613.139 -7.66548 2.79458 0
M  V30 15279 P 609.176 -8.03563 3.84925 0
M  V30 15280 O 608.956 -8.85821 5.0569 0
M  V30 15281 O 608.386 -8.41101 2.65469 0
M  V30 15282 O 608.926 -6.4965 4.18908 0
M  V30 15283 C 609.866 -5.81037 5.05421 0
M  V30 15284 C 609.136 -4.78366 5.89277 0
M  V30 15285 O 608.926 -3.58302 5.08433 0
M  V30 15286 C 607.736 -5.17448 6.36119 0
M  V30 15287 O 607.346 -4.45271 7.53232 0
M  V30 15288 C 606.856 -4.74639 5.19936 0
M  V30 15289 C 607.566 -3.49432 4.70418 0
M  V30 15290 N 607.516 -3.31776 3.22945 0
M  V30 15291 C 607.596 -4.27147 2.23315 0
M  V30 15292 N 607.516 -3.78447 1.02186 0
M  V30 15293 C 607.376 -2.41001 1.21732 0
M  V30 15294 C 607.246 -1.36111 0.27694 0
M  V30 15295 N 607.126 -0.113683 0.912949 0
M  V30 15296 C 607.126 0.0846396 2.27943 0
M  V30 15297 N 606.996 1.34737 2.6916 0
M  V30 15298 N 607.256 -0.902521 3.16379 0
M  V30 15299 C 607.376 -2.11937 2.56849 0
M  V30 15300 H 610.355 -6.54213 5.71376 0
M  V30 15301 H 610.627 -5.30492 4.44033 0
M  V30 15302 H 609.759 -4.55889 6.76652 0
M  V30 15303 P 605.796 -4.23843 7.83734 0
M  V30 15304 O 605.576 -4.19407 9.29784 0
M  V30 15305 O 605.006 -5.24426 7.09156 0
M  V30 15306 O 605.546 -2.7935 7.20758 0
M  V30 15307 C 606.486 -1.72945 7.50224 0
M  V30 15308 C 605.756 -0.406376 7.57911 0
M  V30 15309 O 605.546 0.0897726 6.21935 0
M  V30 15310 C 604.356 -0.438983 8.18724 0
M  V30 15311 O 603.966 0.825065 8.71101 0
M  V30 15312 C 603.476 -0.783689 6.99524 0
M  V30 15313 C 604.186 -0.0619086 5.85867 0
M  V30 15314 N 604.136 -0.78573 4.56183 0
M  V30 15315 C 603.986 -0.0292889 3.41887 0
M  V30 15316 O 603.896 1.18445 3.4419 0
M  V30 15317 N 603.946 -0.744061 2.23964 0
M  V30 15318 C 604.036 -2.10932 2.10362 0
M  V30 15319 C 604.186 -2.8202 3.34994 0
M  V30 15320 C 604.236 -2.15547 4.52261 0
M  V30 15321 H 606.977 -1.93379 8.46595 0
M  V30 15322 H 607.246 -1.68132 6.70852 0
M  V30 15323 H 606.379 0.289041 8.15388 0
M  V30 15324 H 603.724 0.926847 5.72749 0
M  V30 15325 H 603.445 -1.86973 6.82036 0
M  V30 15326 H 602.453 -0.403896 7.13257 0
M  V30 15327 H 604.287 -1.20585 8.97435 0
M  V30 15328 H 604.358 -2.71231 5.45042 0
M  V30 15329 P 602.416 1.17771 8.83182 0
M  V30 15330 O 602.196 2.07206 9.98732 0
M  V30 15331 O 601.626 -0.0743816 8.81969 0
M  V30 15332 O 602.166 1.97652 7.47304 0
M  V30 15333 C 603.106 3.01133 7.08783 0
M  V30 15334 C 602.376 4.12613 6.37049 0
M  V30 15335 O 602.166 3.72827 4.97879 0
M  V30 15336 C 600.976 4.45085 6.88694 0
M  V30 15337 O 600.586 5.7877 6.5624 0
M  V30 15338 C 600.096 3.47817 6.12078 0
M  V30 15339 C 600.806 3.39414 4.77697 0
M  V30 15340 N 600.756 2.04615 4.15333 0
M  V30 15341 H 603.595 3.41248 7.98759 0
M  V30 15342 H 603.867 2.5837 6.41742 0
M  V30 15343 H 602.999 5.02657 6.42673 0
M  V30 15344 P 599.036 6.144 6.45285 0
M  V30 15345 O 598.816 7.54673 6.86199 0
M  V30 15346 O 598.246 5.12391 7.179 0
M  V30 15347 O 598.786 5.99236 4.88467 0
M  V30 15348 C 599.726 6.60234 3.96415 0
M  V30 15349 C 598.996 7.08079 2.736 0
M  V30 15350 O 598.786 5.94365 1.8368 0
M  V30 15351 C 597.596 7.64886 2.9555 0
M  V30 15352 O 597.206 8.5406 1.90739 0
M  V30 15353 C 596.716 6.4116 2.90739 0
M  V30 15354 C 597.426 5.55375 1.86963 0
M  V30 15355 N 597.376 4.09664 2.15742 0
M  V30 15356 C 597.226 3.22231 1.08477 0
M  V30 15357 O 597.136 3.68951 -0.0600489 0
M  V30 15358 N 597.176 1.76692 1.48799 0
M  V30 15359 C 597.276 1.41695 2.57602 0
M  V30 15360 N 597.226 0.107296 2.75791 0
M  V30 15361 C 597.426 2.29178 3.69733 0
M  V30 15362 C 597.476 3.62753 3.42653 0
M  V30 15363 H 600.216 7.45488 4.45578 0
M  V30 15364 H 600.486 5.86232 3.67314 0
M  V30 15365 H 599.619 7.84508 2.24507 0
M  V30 15366 H 596.964 5.73556 0.888715 0
M  V30 15367 H 596.684 5.9096 3.88638 0
M  V30 15368 H 595.693 6.66053 2.58894 0
M  V30 15369 H 597.527 8.16339 3.92049 0
M  V30 15370 H 597.599 4.33052 4.24913 0
M  V30 15371 H 597.497 1.9103 4.71577 0
M  V30 15372 H 597.109 -0.521221 1.95056 0
M  V30 15373 H 597.305 -0.286429 3.70695 0
M  V30 15374 P 595.656 8.7635 1.60911 0
M  V30 15375 O 595.437 10.1388 1.11561 0
M  V30 15376 O 594.866 8.36503 2.79617 0
M  V30 15377 O 595.406 7.71806 0.42951 0
M  V30 15378 C 596.346 7.67148 -0.673689 0
M  V30 15379 C 595.616 7.33374 -1.95559 0
M  V30 15380 O 595.406 5.88721 -2.00726 0
M  V30 15381 C 594.216 7.92526 -2.10483 0
M  V30 15382 O 593.827 8.02971 -3.47653 0
M  V30 15383 C 593.337 6.89602 -1.41652 0
M  V30 15384 C 594.046 5.59201 -1.75185 0
M  V30 15385 N 593.996 4.58235 -0.662552 0
M  V30 15386 H 596.836 8.65116 -0.777161 0
M  V30 15387 H 597.107 6.90173 -0.474152 0
M  V30 15388 H 596.24 7.66548 -2.79458 0
M  V30 15389 P 592.277 8.03563 -3.84925 0
M  V30 15390 O 592.057 8.85821 -5.0569 0
M  V30 15391 O 591.487 8.41101 -2.65469 0
M  V30 15392 O 592.027 6.4965 -4.18908 0
M  V30 15393 C 592.967 5.80886 -5.05289 0
M  V30 15394 C 592.237 4.78366 -5.89277 0
M  V30 15395 O 592.027 3.58302 -5.08433 0
M  V30 15396 C 590.837 5.16748 -6.36559 0
M  V30 15397 O 590.447 4.45271 -7.53232 0
M  V30 15398 C 589.957 4.74572 -5.19863 0
M  V30 15399 C 590.667 3.49373 -4.70338 0
M  V30 15400 N 590.617 3.31704 -3.22876 0
M  V30 15401 C 590.467 2.03326 -2.74871 0
M  V30 15402 O 590.377 1.06486 -3.48076 0
M  V30 15403 N 590.427 1.91838 -1.37456 0
M  V30 15404 C 590.517 2.94295 -0.462035 0
M  V30 15405 C 590.667 4.25064 -1.05249 0
M  V30 15406 C 590.717 4.40214 -2.39192 0
M  V30 15407 H 593.458 6.54063 -5.71245 0
M  V30 15408 H 593.727 5.30339 -4.43905 0
M  V30 15409 H 592.86 4.55889 -6.76652 0
M  V30 15410 H 590.205 2.6167 -5.17842 0
M  V30 15411 H 589.926 5.52155 -4.41878 0
M  V30 15412 H 588.934 4.51918 -5.53297 0
M  V30 15413 H 590.768 6.25055 -6.55162 0
M  V30 15414 H 590.839 5.39798 -2.81523 0
M  V30 15415 P 588.897 4.23843 -7.83734 0
M  V30 15416 O 588.677 4.19407 -9.29784 0
M  V30 15417 O 588.107 5.24426 -7.09156 0
M  V30 15418 O 588.647 2.7935 -7.20758 0
M  V30 15419 C 589.587 1.7299 -7.50419 0
M  V30 15420 C 588.857 0.406376 -7.57911 0
M  V30 15421 O 588.647 -0.0897726 -6.21935 0
M  V30 15422 C 587.457 0.447224 -8.1878 0
M  V30 15423 O 587.067 -0.825065 -8.71101 0
M  V30 15424 C 586.577 0.783801 -6.99623 0
M  V30 15425 C 587.287 0.0619192 -5.85967 0
M  V30 15426 N 587.237 0.7859 -4.56281 0
M  V30 15427 H 590.076 1.93423 -8.4679 0
M  V30 15428 H 590.348 1.68181 -6.71046 0
M  V30 15429 H 589.48 -0.289041 -8.15388 0
M  V30 15430 P 585.517 -1.17771 -8.83182 0
M  V30 15431 O 585.297 -2.07206 -9.98732 0
M  V30 15432 O 584.727 0.0743816 -8.81969 0
M  V30 15433 O 585.267 -1.97652 -7.47304 0
M  V30 15434 C 586.207 -3.01133 -7.08783 0
M  V30 15435 C 585.477 -4.12613 -6.37049 0
M  V30 15436 O 585.267 -3.72827 -4.97879 0
M  V30 15437 C 584.077 -4.45085 -6.88694 0
M  V30 15438 O 583.687 -5.7877 -6.5624 0
M  V30 15439 C 583.197 -3.47817 -6.12078 0
M  V30 15440 C 583.907 -3.39414 -4.77697 0
M  V30 15441 N 583.857 -2.04199 -4.15538 0
M  V30 15442 H 586.696 -3.41248 -7.98759 0
M  V30 15443 H 586.968 -2.57728 -6.42 0
M  V30 15444 H 586.1 -5.02657 -6.42673 0
M  V30 15445 H 583.445 -4.11708 -4.08956 0
M  V30 15446 H 583.165 -2.49626 -6.61679 0
M  V30 15447 H 582.174 -3.8662 -6.00862 0
M  V30 15448 H 584.008 -4.29991 -7.97006 0
M  V30 15449 P 582.137 -6.144 -6.45285 0
M  V30 15450 O 581.917 -7.54673 -6.86199 0
M  V30 15451 O 581.347 -5.12391 -7.179 0
M  V30 15452 O 581.887 -5.99158 -4.88404 0
M  V30 15453 C 582.827 -6.60234 -3.96415 0
M  V30 15454 C 582.097 -7.08259 -2.72856 0
M  V30 15455 O 581.887 -5.9427 -1.83651 0
M  V30 15456 C 580.697 -7.64886 -2.9555 0
M  V30 15457 O 580.307 -8.53963 -1.90717 0
M  V30 15458 C 579.817 -6.4116 -2.90739 0
M  V30 15459 C 580.527 -5.55375 -1.86963 0
M  V30 15460 N 580.477 -4.09664 -2.15742 0
M  V30 15461 H 583.316 -7.45574 -4.45629 0
M  V30 15462 H 583.588 -5.86232 -3.67314 0
M  V30 15463 H 582.72 -7.84412 -2.24479 0
M  V30 15464 P 578.757 -8.7635 -1.60911 0
M  V30 15465 O 578.537 -10.1388 -1.11561 0
M  V30 15466 O 577.967 -8.36503 -2.79617 0
M  V30 15467 O 578.507 -7.71806 -0.42951 0
M  V30 15468 C 579.447 -7.67148 0.673689 0
M  V30 15469 C 578.717 -7.33374 1.95559 0
M  V30 15470 O 578.507 -5.88721 2.00726 0
M  V30 15471 C 577.317 -7.92526 2.10483 0
M  V30 15472 O 576.927 -8.02971 3.47653 0
M  V30 15473 C 576.437 -6.89602 1.41652 0
M  V30 15474 C 577.147 -5.59201 1.75185 0
M  V30 15475 N 577.097 -4.58301 0.657969 0
M  V30 15476 H 579.936 -8.65116 0.777161 0
M  V30 15477 H 580.208 -6.9022 0.46725 0
M  V30 15478 H 579.34 -7.66548 2.79458 0
M  V30 15479 H 576.685 -5.16165 2.65183 0
M  V30 15480 H 576.405 -7.06433 0.329384 0
M  V30 15481 H 575.414 -6.90926 1.82021 0
M  V30 15482 H 577.248 -8.90873 1.62657 0
M  V30 15483 P 575.377 -8.03563 3.84925 0
M  V30 15484 O 575.157 -8.85821 5.0569 0
M  V30 15485 O 574.587 -8.41101 2.65469 0
M  V30 15486 O 575.127 -6.4965 4.18908 0
M  V30 15487 C 576.067 -5.81037 5.05421 0
M  V30 15488 C 575.337 -4.78366 5.89277 0
M  V30 15489 O 575.127 -3.58302 5.08433 0
M  V30 15490 C 573.937 -5.17448 6.36119 0
M  V30 15491 O 573.547 -4.45271 7.53232 0
M  V30 15492 C 573.057 -4.74639 5.19936 0
M  V30 15493 C 573.767 -3.49432 4.70418 0
M  V30 15494 N 573.717 -3.32099 3.22613 0
M  V30 15495 H 576.556 -6.54213 5.71376 0
M  V30 15496 H 576.828 -5.30936 4.43503 0
M  V30 15497 H 575.96 -4.55889 6.76652 0
M  V30 15498 H 573.305 -2.61715 5.17932 0
M  V30 15499 H 573.025 -5.52155 4.41878 0
M  V30 15500 H 572.034 -4.51981 5.53374 0
M  V30 15501 H 573.868 -6.25124 6.55234 0
M  V30 15502 P 571.997 -4.23843 7.83734 0
M  V30 15503 O 571.777 -4.19407 9.29784 0
M  V30 15504 O 571.207 -5.24426 7.09156 0
M  V30 15505 O 571.747 -2.7935 7.20758 0
M  V30 15506 C 572.687 -1.7299 7.50419 0
M  V30 15507 C 571.957 -0.406376 7.57911 0
M  V30 15508 O 571.747 0.0897726 6.21935 0
M  V30 15509 C 570.557 -0.447224 8.1878 0
M  V30 15510 O 570.167 0.825065 8.71101 0
M  V30 15511 C 569.677 -0.783801 6.99623 0
M  V30 15512 C 570.387 -0.0619192 5.85967 0
M  V30 15513 N 570.337 -0.7859 4.56281 0
M  V30 15514 H 573.176 -1.93423 8.4679 0
M  V30 15515 H 573.448 -1.68181 6.71046 0
M  V30 15516 H 572.58 0.289041 8.15388 0
M  V30 15517 P 568.617 1.17771 8.83182 0
M  V30 15518 O 568.397 2.07206 9.98732 0
M  V30 15519 O 567.827 -0.0743816 8.81969 0
M  V30 15520 O 568.367 1.97652 7.47304 0
M  V30 15521 C 569.307 3.01055 7.08599 0
M  V30 15522 C 568.577 4.12613 6.37049 0
M  V30 15523 O 568.367 3.72827 4.97879 0
M  V30 15524 C 567.177 4.45719 6.88164 0
M  V30 15525 O 566.787 5.7877 6.5624 0
M  V30 15526 C 566.297 3.47768 6.11991 0
M  V30 15527 C 567.007 3.39356 4.77615 0
M  V30 15528 N 566.957 2.04571 4.15244 0
M  V30 15529 C 566.807 1.98587 2.78314 0
M  V30 15530 O 566.717 2.98134 2.08835 0
M  V30 15531 N 566.767 0.714467 2.24925 0
M  V30 15532 C 566.857 -0.470001 2.94169 0
M  V30 15533 O 566.807 -1.55587 2.35195 0
M  V30 15534 C 567.007 -0.312541 4.36783 0
M  V30 15535 C 567.117 -1.57711 5.16352 0
M  V30 15536 C 567.057 0.914512 4.92583 0
M  V30 15537 H 569.798 3.41169 7.98575 0
M  V30 15538 H 570.067 2.58295 6.41556 0
M  V30 15539 H 569.2 5.02657 6.42673 0
M  V30 15540 H 566.545 4.11637 4.08885 0
M  V30 15541 H 566.266 2.49626 6.61679 0
M  V30 15542 H 565.274 3.86566 6.00778 0
M  V30 15543 H 567.108 4.29943 7.96918 0
M  V30 15544 H 567.179 1.00937 6.00374 0
M  V30 15545 H 566.149 -1.80153 5.63503 0
M  V30 15546 H 567.886 -1.4566 5.94104 0
M  V30 15547 H 567.398 -2.40664 4.49645 0
M  V30 15548 H 566.662 0.647622 1.25697 0
M  V30 15549 P 565.237 6.144 6.45285 0
M  V30 15550 O 565.017 7.54673 6.86199 0
M  V30 15551 O 564.447 5.12391 7.179 0
M  V30 15552 O 564.987 5.99158 4.88404 0
M  V30 15553 C 565.927 6.60234 3.96415 0
M  V30 15554 C 565.197 7.08259 2.72856 0
M  V30 15555 O 564.987 5.9427 1.83651 0
M  V30 15556 C 563.797 7.64886 2.9555 0
M  V30 15557 O 563.407 8.53963 1.90717 0
M  V30 15558 C 562.917 6.4116 2.90739 0
M  V30 15559 C 563.627 5.55375 1.86963 0
M  V30 15560 N 563.577 4.09448 2.16152 0
M  V30 15561 H 566.416 7.45574 4.45629 0
M  V30 15562 H 566.688 5.85864 3.679 0
M  V30 15563 H 565.82 7.84412 2.24479 0
M  V30 15564 H 563.165 5.73457 0.888562 0
M  V30 15565 H 562.885 5.90877 3.88583 0
M  V30 15566 H 561.894 6.6596 2.58858 0
M  V30 15567 H 563.728 8.16339 3.92049 0
M  V30 15568 P 561.857 8.7635 1.60911 0
M  V30 15569 O 561.637 10.1388 1.11561 0
M  V30 15570 O 561.067 8.36503 2.79617 0
M  V30 15571 O 561.607 7.71806 0.42951 0
M  V30 15572 C 562.547 7.67148 -0.673689 0
M  V30 15573 C 561.817 7.33374 -1.95559 0
M  V30 15574 O 561.607 5.88721 -2.00726 0
M  V30 15575 C 560.417 7.92526 -2.10483 0
M  V30 15576 O 560.027 8.02971 -3.47653 0
M  V30 15577 C 559.537 6.89602 -1.41652 0
M  V30 15578 C 560.247 5.59201 -1.75185 0
M  V30 15579 N 560.197 4.58235 -0.662552 0
M  V30 15580 H 563.036 8.65116 -0.777161 0
M  V30 15581 H 563.308 6.90173 -0.474152 0
M  V30 15582 H 562.44 7.66548 -2.79458 0
M  V30 15583 P 558.477 8.03563 -3.84925 0
M  V30 15584 O 558.257 8.85821 -5.0569 0
M  V30 15585 O 557.687 8.41101 -2.65469 0
M  V30 15586 O 558.227 6.4965 -4.18908 0
M  V30 15587 C 559.167 5.80886 -5.05289 0
M  V30 15588 C 558.437 4.78366 -5.89277 0
M  V30 15589 O 558.227 3.58302 -5.08433 0
M  V30 15590 C 557.037 5.16748 -6.36559 0
M  V30 15591 O 556.647 4.45271 -7.53232 0
M  V30 15592 C 556.157 4.74572 -5.19863 0
M  V30 15593 C 556.867 3.49373 -4.70338 0
M  V30 15594 N 556.817 3.31704 -3.22876 0
M  V30 15595 C 556.667 2.03326 -2.74871 0
M  V30 15596 O 556.577 1.06486 -3.48076 0
M  V30 15597 N 556.627 1.91838 -1.37456 0
M  V30 15598 C 556.717 2.94295 -0.462035 0
M  V30 15599 O 556.667 2.71763 0.752928 0
M  V30 15600 C 556.867 4.25064 -1.05249 0
M  V30 15601 C 556.977 5.39815 -0.095697 0
M  V30 15602 C 556.917 4.40214 -2.39192 0
M  V30 15603 H 559.658 6.54063 -5.71245 0
M  V30 15604 H 559.927 5.30339 -4.43905 0
M  V30 15605 H 559.06 4.55889 -6.76652 0
M  V30 15606 H 556.405 2.6167 -5.17842 0
M  V30 15607 H 556.126 5.52155 -4.41878 0
M  V30 15608 H 555.134 4.51918 -5.53297 0
M  V30 15609 H 556.968 6.25055 -6.55162 0
M  V30 15610 H 557.039 5.39798 -2.81523 0
M  V30 15611 H 556.009 5.91593 -0.0279582 0
M  V30 15612 H 557.746 6.10038 -0.450573 0
M  V30 15613 H 557.258 5.02007 0.89937 0
M  V30 15614 H 556.522 0.995326 -1.00435 0
M  V30 15615 P 555.097 4.23843 -7.83734 0
M  V30 15616 O 554.877 4.19407 -9.29784 0
M  V30 15617 O 554.307 5.24426 -7.09156 0
M  V30 15618 O 554.847 2.7935 -7.20758 0
M  V30 15619 C 555.787 1.7299 -7.50419 0
M  V30 15620 C 555.057 0.406376 -7.57911 0
M  V30 15621 O 554.847 -0.0897726 -6.21935 0
M  V30 15622 C 553.657 0.447224 -8.1878 0
M  V30 15623 O 553.267 -0.825065 -8.71101 0
M  V30 15624 C 552.777 0.783801 -6.99623 0
M  V30 15625 C 553.487 0.0619192 -5.85967 0
M  V30 15626 N 553.437 0.7859 -4.56281 0
M  V30 15627 H 556.276 1.93423 -8.4679 0
M  V30 15628 H 556.548 1.68181 -6.71046 0
M  V30 15629 H 555.68 -0.289041 -8.15388 0
M  V30 15630 P 551.717 -1.17771 -8.83182 0
M  V30 15631 O 551.497 -2.07206 -9.98732 0
M  V30 15632 O 550.927 0.0743816 -8.81969 0
M  V30 15633 O 551.467 -1.97652 -7.47304 0
M  V30 15634 C 552.407 -3.01133 -7.08783 0
M  V30 15635 C 551.677 -4.12613 -6.37049 0
M  V30 15636 O 551.467 -3.72827 -4.97879 0
M  V30 15637 C 550.277 -4.45085 -6.88694 0
M  V30 15638 O 549.887 -5.7877 -6.5624 0
M  V30 15639 C 549.397 -3.47817 -6.12078 0
M  V30 15640 C 550.107 -3.39414 -4.77697 0
M  V30 15641 N 550.057 -2.04615 -4.15333 0
M  V30 15642 H 552.896 -3.41248 -7.98759 0
M  V30 15643 H 553.168 -2.5837 -6.41742 0
M  V30 15644 H 552.3 -5.02657 -6.42673 0
M  V30 15645 P 548.337 -6.144 -6.45285 0
M  V30 15646 O 548.117 -7.54673 -6.86199 0
M  V30 15647 O 547.547 -5.12391 -7.179 0
M  V30 15648 O 548.087 -5.99158 -4.88404 0
M  V30 15649 C 549.027 -6.60234 -3.96415 0
M  V30 15650 C 548.297 -7.08259 -2.72856 0
M  V30 15651 O 548.087 -5.9427 -1.83651 0
M  V30 15652 C 546.897 -7.64886 -2.9555 0
M  V30 15653 O 546.507 -8.53963 -1.90717 0
M  V30 15654 C 546.017 -6.4116 -2.90739 0
M  V30 15655 C 546.727 -5.55375 -1.86963 0
M  V30 15656 N 546.677 -4.09664 -2.15742 0
M  V30 15657 H 549.516 -7.45574 -4.45629 0
M  V30 15658 H 549.788 -5.86232 -3.67314 0
M  V30 15659 H 548.92 -7.84412 -2.24479 0
M  V30 15660 P 544.957 -8.7635 -1.60911 0
M  V30 15661 O 544.737 -10.1388 -1.11561 0
M  V30 15662 O 544.167 -8.36503 -2.79617 0
M  V30 15663 O 544.707 -7.71806 -0.42951 0
M  V30 15664 C 545.647 -7.67148 0.673689 0
M  V30 15665 C 544.917 -7.33374 1.95559 0
M  V30 15666 O 544.707 -5.88721 2.00726 0
M  V30 15667 C 543.517 -7.92526 2.10483 0
M  V30 15668 O 543.127 -8.02971 3.47653 0
M  V30 15669 C 542.637 -6.89602 1.41652 0
M  V30 15670 C 543.347 -5.59201 1.75185 0
M  V30 15671 N 543.297 -4.58301 0.657969 0
M  V30 15672 H 546.136 -8.65116 0.777161 0
M  V30 15673 H 546.408 -6.9022 0.46725 0
M  V30 15674 H 545.54 -7.66548 2.79458 0
M  V30 15675 H 542.885 -5.16165 2.65183 0
M  V30 15676 H 542.605 -7.06433 0.329384 0
M  V30 15677 H 541.614 -6.90926 1.82021 0
M  V30 15678 H 543.448 -8.90873 1.62657 0
M  V30 15679 P 541.577 -8.03563 3.84925 0
M  V30 15680 O 541.357 -8.85821 5.0569 0
M  V30 15681 O 540.787 -8.41101 2.65469 0
M  V30 15682 O 541.327 -6.4965 4.18908 0
M  V30 15683 C 542.267 -5.80886 5.05289 0
M  V30 15684 C 541.537 -4.78366 5.89277 0
M  V30 15685 O 541.327 -3.58302 5.08433 0
M  V30 15686 C 540.137 -5.16748 6.36559 0
M  V30 15687 O 539.747 -4.45271 7.53232 0
M  V30 15688 C 539.257 -4.74572 5.19863 0
M  V30 15689 C 539.967 -3.49373 4.70338 0
M  V30 15690 N 539.917 -3.31704 3.22876 0
M  V30 15691 C 539.767 -2.03326 2.74871 0
M  V30 15692 O 539.677 -1.06486 3.48076 0
M  V30 15693 N 539.727 -1.91838 1.37456 0
M  V30 15694 C 539.817 -2.94295 0.462035 0
M  V30 15695 O 539.767 -2.71763 -0.752928 0
M  V30 15696 C 539.967 -4.25064 1.05249 0
M  V30 15697 C 540.077 -5.39815 0.095697 0
M  V30 15698 C 540.017 -4.40214 2.39192 0
M  V30 15699 H 542.758 -6.54063 5.71245 0
M  V30 15700 H 543.027 -5.30339 4.43905 0
M  V30 15701 H 542.16 -4.55889 6.76652 0
M  V30 15702 H 539.505 -2.6167 5.17842 0
M  V30 15703 H 539.226 -5.52155 4.41878 0
M  V30 15704 H 538.234 -4.51918 5.53297 0
M  V30 15705 H 540.068 -6.25055 6.55162 0
M  V30 15706 H 540.139 -5.39798 2.81523 0
M  V30 15707 H 539.109 -5.91593 0.0279582 0
M  V30 15708 H 540.846 -6.10038 0.450573 0
M  V30 15709 H 540.358 -5.02007 -0.89937 0
M  V30 15710 H 539.622 -0.995326 1.00435 0
M  V30 15711 P 538.197 -4.23843 7.83734 0
M  V30 15712 O 537.977 -4.19407 9.29784 0
M  V30 15713 O 537.407 -5.24426 7.09156 0
M  V30 15714 O 537.947 -2.7935 7.20758 0
M  V30 15715 C 538.887 -1.7299 7.50419 0
M  V30 15716 C 538.157 -0.406376 7.57911 0
M  V30 15717 O 537.947 0.0897726 6.21935 0
M  V30 15718 C 536.757 -0.447224 8.1878 0
M  V30 15719 O 536.367 0.825065 8.71101 0
M  V30 15720 C 535.877 -0.783801 6.99623 0
M  V30 15721 C 536.587 -0.0619192 5.85967 0
M  V30 15722 N 536.537 -0.7859 4.56281 0
M  V30 15723 H 539.376 -1.93423 8.4679 0
M  V30 15724 H 539.648 -1.68181 6.71046 0
M  V30 15725 H 538.78 0.289041 8.15388 0
M  V30 15726 P 534.817 1.17771 8.83182 0
M  V30 15727 O 534.597 2.07206 9.98732 0
M  V30 15728 O 534.027 -0.0743816 8.81969 0
M  V30 15729 O 534.567 1.97652 7.47304 0
M  V30 15730 C 535.507 3.01133 7.08783 0
M  V30 15731 C 534.777 4.12613 6.37049 0
M  V30 15732 O 534.567 3.72827 4.97879 0
M  V30 15733 C 533.377 4.45085 6.88694 0
M  V30 15734 O 532.987 5.7877 6.5624 0
M  V30 15735 C 532.497 3.47817 6.12078 0
M  V30 15736 C 533.207 3.39414 4.77697 0
M  V30 15737 N 533.157 2.04615 4.15333 0
M  V30 15738 H 535.996 3.41248 7.98759 0
M  V30 15739 H 536.268 2.5837 6.41742 0
M  V30 15740 H 535.4 5.02657 6.42673 0
M  V30 15741 P 531.437 6.144 6.45285 0
M  V30 15742 O 531.217 7.54673 6.86199 0
M  V30 15743 O 530.647 5.12391 7.179 0
M  V30 15744 O 531.187 5.99158 4.88404 0
M  V30 15745 C 532.127 6.60234 3.96415 0
M  V30 15746 C 531.397 7.08259 2.72856 0
M  V30 15747 O 531.187 5.9427 1.83651 0
M  V30 15748 C 529.997 7.64886 2.9555 0
M  V30 15749 O 529.607 8.53963 1.90717 0
M  V30 15750 C 529.117 6.4116 2.90739 0
M  V30 15751 C 529.827 5.55375 1.86963 0
M  V30 15752 N 529.777 4.09664 2.15742 0
M  V30 15753 H 532.616 7.45574 4.45629 0
M  V30 15754 H 532.888 5.86232 3.67314 0
M  V30 15755 H 532.02 7.84412 2.24479 0
M  V30 15756 P 528.057 8.7635 1.60911 0
M  V30 15757 O 527.837 10.1388 1.11561 0
M  V30 15758 O 527.267 8.36503 2.79617 0
M  V30 15759 O 527.807 7.71806 0.42951 0
M  V30 15760 C 528.747 7.67148 -0.673689 0
M  V30 15761 C 528.017 7.33374 -1.95559 0
M  V30 15762 O 527.807 5.88721 -2.00726 0
M  V30 15763 C 526.617 7.92526 -2.10483 0
M  V30 15764 O 526.227 8.02971 -3.47653 0
M  V30 15765 C 525.737 6.89602 -1.41652 0
M  V30 15766 C 526.447 5.59201 -1.75185 0
M  V30 15767 N 526.397 4.58235 -0.662552 0
M  V30 15768 H 529.236 8.65116 -0.777161 0
M  V30 15769 H 529.508 6.90173 -0.474152 0
M  V30 15770 H 528.64 7.66548 -2.79458 0
M  V30 15771 P 524.677 8.03563 -3.84925 0
M  V30 15772 O 524.457 8.85821 -5.0569 0
M  V30 15773 O 523.887 8.41101 -2.65469 0
M  V30 15774 O 524.427 6.4965 -4.18908 0
M  V30 15775 C 525.367 5.80886 -5.05289 0
M  V30 15776 C 524.637 4.78366 -5.89277 0
M  V30 15777 O 524.427 3.58302 -5.08433 0
M  V30 15778 C 523.237 5.16748 -6.36559 0
M  V30 15779 O 522.847 4.45271 -7.53232 0
M  V30 15780 C 522.357 4.74572 -5.19863 0
M  V30 15781 C 523.067 3.49373 -4.70338 0
M  V30 15782 N 523.017 3.31704 -3.22876 0
M  V30 15783 C 522.867 2.03326 -2.74871 0
M  V30 15784 O 522.777 1.06486 -3.48076 0
M  V30 15785 N 522.827 1.91838 -1.37456 0
M  V30 15786 C 522.917 2.94295 -0.462035 0
M  V30 15787 O 522.867 2.71763 0.752928 0
M  V30 15788 C 523.067 4.25064 -1.05249 0
M  V30 15789 C 523.177 5.39815 -0.095697 0
M  V30 15790 C 523.117 4.40214 -2.39192 0
M  V30 15791 H 525.858 6.54063 -5.71245 0
M  V30 15792 H 526.127 5.30339 -4.43905 0
M  V30 15793 H 525.26 4.55889 -6.76652 0
M  V30 15794 H 522.605 2.6167 -5.17842 0
M  V30 15795 H 522.326 5.52155 -4.41878 0
M  V30 15796 H 521.334 4.51918 -5.53297 0
M  V30 15797 H 523.168 6.25055 -6.55162 0
M  V30 15798 H 523.239 5.39798 -2.81523 0
M  V30 15799 H 522.209 5.91593 -0.0279582 0
M  V30 15800 H 523.946 6.10038 -0.450573 0
M  V30 15801 H 523.458 5.02007 0.89937 0
M  V30 15802 H 522.722 0.995326 -1.00435 0
M  V30 15803 P 521.297 4.23843 -7.83734 0
M  V30 15804 O 521.077 4.19407 -9.29784 0
M  V30 15805 O 520.507 5.24426 -7.09156 0
M  V30 15806 O 521.047 2.7935 -7.20758 0
M  V30 15807 C 521.987 1.7299 -7.50419 0
M  V30 15808 C 521.257 0.406376 -7.57911 0
M  V30 15809 O 521.047 -0.0897726 -6.21935 0
M  V30 15810 C 519.857 0.447224 -8.1878 0
M  V30 15811 O 519.467 -0.825065 -8.71101 0
M  V30 15812 C 518.977 0.783801 -6.99623 0
M  V30 15813 C 519.687 0.0619192 -5.85967 0
M  V30 15814 N 519.637 0.7859 -4.56281 0
M  V30 15815 H 522.476 1.93423 -8.4679 0
M  V30 15816 H 522.748 1.68181 -6.71046 0
M  V30 15817 H 521.88 -0.289041 -8.15388 0
M  V30 15818 P 517.917 -1.17771 -8.83182 0
M  V30 15819 O 517.697 -2.07206 -9.98732 0
M  V30 15820 O 517.127 0.0743816 -8.81969 0
M  V30 15821 O 517.667 -1.97678 -7.474 0
M  V30 15822 C 518.607 -3.01133 -7.08783 0
M  V30 15823 C 517.877 -4.1203 -6.37546 0
M  V30 15824 O 517.667 -3.72887 -4.9796 0
M  V30 15825 C 516.477 -4.45085 -6.88694 0
M  V30 15826 O 516.087 -5.78836 -6.56315 0
M  V30 15827 C 515.597 -3.47817 -6.12078 0
M  V30 15828 C 516.307 -3.39414 -4.77697 0
M  V30 15829 N 516.257 -2.04615 -4.15333 0
M  V30 15830 C 516.107 -1.96929 -2.77162 0
M  V30 15831 O 516.017 -3.02017 -2.12006 0
M  V30 15832 N 516.057 -0.55485 -2.24237 0
M  V30 15833 C 516.157 0.367808 -2.9169 0
M  V30 15834 N 516.107 1.53426 -2.29427 0
M  V30 15835 C 516.307 0.319148 -4.33828 0
M  V30 15836 C 516.357 -0.920672 -4.90433 0
M  V30 15837 H 519.097 -3.41209 -7.98667 0
M  V30 15838 H 519.367 -2.5837 -6.41742 0
M  V30 15839 H 518.5 -5.02718 -6.42752 0
M  V30 15840 H 515.845 -4.11779 -4.09026 0
M  V30 15841 H 515.565 -2.49661 -6.61772 0
M  V30 15842 H 514.574 -3.86674 -6.00946 0
M  V30 15843 H 516.408 -4.29991 -7.97006 0
M  V30 15844 H 516.48 -1.00589 -5.98303 0
M  V30 15845 H 516.378 1.22639 -4.93799 0
M  V30 15846 H 515.99 1.56819 -1.27167 0
M  V30 15847 H 516.186 2.41062 -2.83063 0
M  V30 15848 P 514.537 -6.144 -6.45285 0
M  V30 15849 O 514.317 -7.54673 -6.86199 0
M  V30 15850 O 513.747 -5.12391 -7.179 0
M  V30 15851 O 514.287 -5.99158 -4.88404 0
M  V30 15852 C 515.227 -6.60234 -3.96415 0
M  V30 15853 C 514.497 -7.08259 -2.72856 0
M  V30 15854 O 514.287 -5.9427 -1.83651 0
M  V30 15855 C 513.097 -7.64886 -2.9555 0
M  V30 15856 O 512.707 -8.53963 -1.90717 0
M  V30 15857 C 512.217 -6.4116 -2.90739 0
M  V30 15858 C 512.927 -5.55375 -1.86963 0
M  V30 15859 N 512.877 -4.09448 -2.16152 0
M  V30 15860 C 512.957 -3.46824 -3.37593 0
M  V30 15861 N 512.887 -2.17422 -3.29777 0
M  V30 15862 C 512.737 -1.93065 -1.94427 0
M  V30 15863 C 512.607 -0.738053 -1.20141 0
M  V30 15864 N 512.597 0.474256 -1.74676 0
M  V30 15865 N 512.487 -0.850049 0.13045 0
M  V30 15866 C 512.497 -2.06169 0.676992 0
M  V30 15867 N 512.617 -3.23842 0.101312 0
M  V30 15868 C 512.737 -3.09402 -1.23122 0
M  V30 15869 H 515.716 -7.45574 -4.45629 0
M  V30 15870 H 515.988 -5.85864 -3.679 0
M  V30 15871 H 515.12 -7.84412 -2.24479 0
M  V30 15872 H 512.465 -5.73457 -0.888562 0
M  V30 15873 H 512.185 -5.90877 -3.88583 0
M  V30 15874 H 511.194 -6.6596 -2.58858 0
M  V30 15875 H 513.028 -8.16339 -3.92049 0
M  V30 15876 H 513.069 -4.00505 -4.3174 0
M  V30 15877 H 512.688 0.581337 -2.76658 0
M  V30 15878 H 512.499 1.30811 -1.14888 0
M  V30 15879 H 512.391 -2.08295 1.75542 0
M  V30 15880 P 511.157 -8.7635 -1.60911 0
M  V30 15881 O 510.937 -10.1388 -1.11561 0
M  V30 15882 O 510.367 -8.36503 -2.79617 0
M  V30 15883 O 510.907 -7.71806 -0.42951 0
M  V30 15884 C 511.847 -7.67148 0.673689 0
M  V30 15885 C 511.117 -7.33374 1.95559 0
M  V30 15886 O 510.907 -5.88721 2.00726 0
M  V30 15887 C 509.717 -7.92526 2.10483 0
M  V30 15888 O 509.327 -8.02971 3.47653 0
M  V30 15889 C 508.837 -6.89602 1.41652 0
M  V30 15890 C 509.547 -5.59201 1.75185 0
M  V30 15891 N 509.497 -4.58301 0.657969 0
M  V30 15892 H 512.336 -8.65116 0.777161 0
M  V30 15893 H 512.608 -6.9022 0.46725 0
M  V30 15894 H 511.74 -7.66548 2.79458 0
M  V30 15895 H 509.085 -5.16165 2.65183 0
M  V30 15896 H 508.805 -7.06433 0.329384 0
M  V30 15897 H 507.814 -6.90926 1.82021 0
M  V30 15898 H 509.648 -8.90873 1.62657 0
M  V30 15899 P 507.777 -8.03563 3.84925 0
M  V30 15900 O 507.557 -8.85821 5.0569 0
M  V30 15901 O 506.987 -8.41101 2.65469 0
M  V30 15902 O 507.527 -6.4965 4.18908 0
M  V30 15903 C 508.467 -5.80886 5.05289 0
M  V30 15904 C 507.737 -4.78366 5.89277 0
M  V30 15905 O 507.527 -3.58302 5.08433 0
M  V30 15906 C 506.337 -5.16748 6.36559 0
M  V30 15907 O 505.947 -4.45271 7.53232 0
M  V30 15908 C 505.457 -4.74572 5.19863 0
M  V30 15909 C 506.167 -3.49373 4.70338 0
M  V30 15910 N 506.117 -3.31704 3.22876 0
M  V30 15911 C 505.967 -2.03326 2.74871 0
M  V30 15912 O 505.877 -1.06486 3.48076 0
M  V30 15913 N 505.927 -1.91838 1.37456 0
M  V30 15914 C 506.017 -2.94295 0.462035 0
M  V30 15915 C 506.167 -4.25064 1.05249 0
M  V30 15916 C 506.217 -4.40214 2.39192 0
M  V30 15917 H 508.958 -6.54063 5.71245 0
M  V30 15918 H 509.227 -5.30339 4.43905 0
M  V30 15919 H 508.36 -4.55889 6.76652 0
M  V30 15920 H 505.705 -2.6167 5.17842 0
M  V30 15921 H 505.426 -5.52155 4.41878 0
M  V30 15922 H 504.434 -4.51918 5.53297 0
M  V30 15923 H 506.268 -6.25055 6.55162 0
M  V30 15924 H 506.339 -5.39798 2.81523 0
M  V30 15925 P 504.397 -4.23843 7.83734 0
M  V30 15926 O 504.177 -4.19407 9.29784 0
M  V30 15927 O 503.607 -5.24426 7.09156 0
M  V30 15928 O 504.147 -2.79386 7.20852 0
M  V30 15929 C 505.087 -1.7299 7.50419 0
M  V30 15930 C 504.357 -0.41401 7.5797 0
M  V30 15931 O 504.147 0.089787 6.22035 0
M  V30 15932 C 502.957 -0.447224 8.1878 0
M  V30 15933 O 502.567 0.825159 8.71201 0
M  V30 15934 C 502.077 -0.783801 6.99623 0
M  V30 15935 C 502.787 -0.0619192 5.85967 0
M  V30 15936 N 502.737 -0.7859 4.56281 0
M  V30 15937 C 502.587 -0.0359258 3.39981 0
M  V30 15938 O 502.497 1.19723 3.49038 0
M  V30 15939 N 502.537 -0.869151 2.14025 0
M  V30 15940 C 502.637 -2.01207 2.14363 0
M  V30 15941 N 502.587 -2.58978 0.954287 0
M  V30 15942 C 502.787 -2.80817 3.32215 0
M  V30 15943 C 502.837 -2.13785 4.50884 0
M  V30 15944 H 505.577 -1.93401 8.46693 0
M  V30 15945 H 505.847 -1.68181 6.71046 0
M  V30 15946 H 504.98 0.289076 8.15488 0
M  V30 15947 H 502.325 0.927166 5.72947 0
M  V30 15948 H 502.045 -1.87 6.82132 0
M  V30 15949 H 501.054 -0.404009 7.13457 0
M  V30 15950 H 502.888 -1.20599 8.97534 0
M  V30 15951 H 502.96 -2.70295 5.43162 0
M  V30 15952 H 502.858 -3.89465 3.27406 0
M  V30 15953 H 502.47 -2.01616 0.107046 0
M  V30 15954 H 502.666 -3.61403 0.873101 0
M  V30 15955 P 501.017 1.17771 8.83182 0
M  V30 15956 O 500.797 2.07206 9.98732 0
M  V30 15957 O 500.227 -0.0743816 8.81969 0
M  V30 15958 O 500.767 1.97652 7.47304 0
M  V30 15959 C 501.707 3.01133 7.08783 0
M  V30 15960 C 500.977 4.12613 6.37049 0
M  V30 15961 O 500.767 3.72827 4.97879 0
M  V30 15962 C 499.577 4.45085 6.88694 0
M  V30 15963 O 499.187 5.7877 6.5624 0
M  V30 15964 C 498.697 3.47817 6.12078 0
M  V30 15965 C 499.407 3.39414 4.77697 0
M  V30 15966 N 499.357 2.04615 4.15333 0
M  V30 15967 H 502.196 3.41248 7.98759 0
M  V30 15968 H 502.468 2.5837 6.41742 0
M  V30 15969 H 501.6 5.02657 6.42673 0
M  V30 15970 P 497.637 6.144 6.45285 0
M  V30 15971 O 497.417 7.54673 6.86199 0
M  V30 15972 O 496.847 5.12391 7.179 0
M  V30 15973 O 497.387 5.99158 4.88404 0
M  V30 15974 C 498.327 6.60234 3.96415 0
M  V30 15975 C 497.597 7.08259 2.72856 0
M  V30 15976 O 497.387 5.9427 1.83651 0
M  V30 15977 C 496.197 7.64886 2.9555 0
M  V30 15978 O 495.807 8.53963 1.90717 0
M  V30 15979 C 495.317 6.4116 2.90739 0
M  V30 15980 C 496.027 5.55375 1.86963 0
M  V30 15981 N 495.977 4.09664 2.15742 0
M  V30 15982 H 498.816 7.45574 4.45629 0
M  V30 15983 H 499.088 5.86232 3.67314 0
M  V30 15984 H 498.22 7.84412 2.24479 0
M  V30 15985 P 494.257 8.7635 1.60911 0
M  V30 15986 O 494.037 10.1388 1.11561 0
M  V30 15987 O 493.467 8.36503 2.79617 0
M  V30 15988 O 494.007 7.71806 0.42951 0
M  V30 15989 C 494.947 7.67148 -0.673689 0
M  V30 15990 C 494.217 7.33374 -1.95559 0
M  V30 15991 O 494.007 5.88721 -2.00726 0
M  V30 15992 C 492.817 7.92526 -2.10483 0
M  V30 15993 O 492.427 8.02971 -3.47653 0
M  V30 15994 C 491.937 6.89602 -1.41652 0
M  V30 15995 C 492.647 5.59201 -1.75185 0
M  V30 15996 N 492.597 4.58301 -0.657969 0
M  V30 15997 H 495.436 8.65116 -0.777161 0
M  V30 15998 H 495.708 6.9022 -0.46725 0
M  V30 15999 H 494.84 7.66548 -2.79458 0
M  V30 16000 H 492.185 5.16165 -2.65183 0
M  V30 16001 H 491.905 7.06433 -0.329384 0
M  V30 16002 H 490.914 6.90926 -1.82021 0
M  V30 16003 H 492.748 8.90873 -1.62657 0
M  V30 16004 P 490.877 8.03563 -3.84925 0
M  V30 16005 O 490.657 8.85821 -5.0569 0
M  V30 16006 O 490.087 8.41101 -2.65469 0
M  V30 16007 O 490.627 6.4965 -4.18908 0
M  V30 16008 C 491.567 5.81037 -5.05421 0
M  V30 16009 C 490.837 4.78366 -5.89277 0
M  V30 16010 O 490.627 3.58302 -5.08433 0
M  V30 16011 C 489.437 5.17448 -6.36119 0
M  V30 16012 O 489.047 4.45271 -7.53232 0
M  V30 16013 C 488.557 4.74639 -5.19936 0
M  V30 16014 C 489.267 3.49432 -4.70418 0
M  V30 16015 N 489.217 3.31776 -3.22945 0
M  V30 16016 H 492.056 6.54213 -5.71376 0
M  V30 16017 H 492.328 5.30492 -4.44033 0
M  V30 16018 H 491.46 4.55889 -6.76652 0
M  V30 16019 P 487.497 4.23843 -7.83734 0
M  V30 16020 O 487.277 4.19407 -9.29784 0
M  V30 16021 O 486.707 5.24426 -7.09156 0
M  V30 16022 O 487.247 2.7935 -7.20758 0
M  V30 16023 C 488.187 1.7299 -7.50419 0
M  V30 16024 C 487.457 0.406376 -7.57911 0
M  V30 16025 O 487.247 -0.0897726 -6.21935 0
M  V30 16026 C 486.057 0.447224 -8.1878 0
M  V30 16027 O 485.667 -0.825065 -8.71101 0
M  V30 16028 C 485.177 0.783801 -6.99623 0
M  V30 16029 C 485.887 0.0619192 -5.85967 0
M  V30 16030 N 485.837 0.7859 -4.56281 0
M  V30 16031 H 488.676 1.93423 -8.4679 0
M  V30 16032 H 488.948 1.68181 -6.71046 0
M  V30 16033 H 488.08 -0.289041 -8.15388 0
M  V30 16034 P 484.117 -1.17771 -8.83182 0
M  V30 16035 O 483.897 -2.07206 -9.98732 0
M  V30 16036 O 483.327 0.0743816 -8.81969 0
M  V30 16037 O 483.867 -1.97652 -7.47304 0
M  V30 16038 C 484.807 -3.01133 -7.08783 0
M  V30 16039 C 484.077 -4.12613 -6.37049 0
M  V30 16040 O 483.867 -3.72827 -4.97879 0
M  V30 16041 C 482.677 -4.45085 -6.88694 0
M  V30 16042 O 482.287 -5.7877 -6.5624 0
M  V30 16043 C 481.797 -3.47817 -6.12078 0
M  V30 16044 C 482.507 -3.39414 -4.77697 0
M  V30 16045 N 482.457 -2.04615 -4.15333 0
M  V30 16046 H 485.296 -3.41248 -7.98759 0
M  V30 16047 H 485.568 -2.5837 -6.41742 0
M  V30 16048 H 484.7 -5.02657 -6.42673 0
M  V30 16049 P 480.737 -6.144 -6.45285 0
M  V30 16050 O 480.517 -7.54673 -6.86199 0
M  V30 16051 O 479.947 -5.12391 -7.179 0
M  V30 16052 O 480.487 -5.99158 -4.88404 0
M  V30 16053 C 481.427 -6.60234 -3.96415 0
M  V30 16054 C 480.697 -7.08259 -2.72856 0
M  V30 16055 O 480.487 -5.9427 -1.83651 0
M  V30 16056 C 479.297 -7.64886 -2.9555 0
M  V30 16057 O 478.907 -8.53963 -1.90717 0
M  V30 16058 C 478.417 -6.4116 -2.90739 0
M  V30 16059 C 479.127 -5.55375 -1.86963 0
M  V30 16060 N 479.077 -4.09448 -2.16152 0
M  V30 16061 C 479.157 -3.46824 -3.37593 0
M  V30 16062 N 479.087 -2.17422 -3.29777 0
M  V30 16063 C 478.937 -1.93065 -1.94427 0
M  V30 16064 C 478.807 -0.738053 -1.20141 0
M  V30 16065 N 478.797 0.474256 -1.74676 0
M  V30 16066 N 478.687 -0.850049 0.13045 0
M  V30 16067 C 478.697 -2.06169 0.676992 0
M  V30 16068 N 478.817 -3.23842 0.101312 0
M  V30 16069 C 478.937 -3.09402 -1.23122 0
M  V30 16070 H 481.916 -7.45574 -4.45629 0
M  V30 16071 H 482.188 -5.85864 -3.679 0
M  V30 16072 H 481.32 -7.84412 -2.24479 0
M  V30 16073 H 478.665 -5.73457 -0.888562 0
M  V30 16074 H 478.385 -5.90877 -3.88583 0
M  V30 16075 H 477.394 -6.6596 -2.58858 0
M  V30 16076 H 479.228 -8.16339 -3.92049 0
M  V30 16077 H 479.269 -4.00505 -4.3174 0
M  V30 16078 H 478.888 0.581337 -2.76658 0
M  V30 16079 H 478.699 1.30811 -1.14888 0
M  V30 16080 H 478.591 -2.08295 1.75542 0
M  V30 16081 P 477.357 -8.7635 -1.60911 0
M  V30 16082 O 477.137 -10.1388 -1.11561 0
M  V30 16083 O 476.567 -8.36503 -2.79617 0
M  V30 16084 O 477.107 -7.71806 -0.42951 0
M  V30 16085 C 478.047 -7.67148 0.673689 0
M  V30 16086 C 477.317 -7.33374 1.95559 0
M  V30 16087 O 477.107 -5.88721 2.00726 0
M  V30 16088 C 475.917 -7.92526 2.10483 0
M  V30 16089 O 475.527 -8.02971 3.47653 0
M  V30 16090 C 475.037 -6.89602 1.41652 0
M  V30 16091 C 475.747 -5.59201 1.75185 0
M  V30 16092 N 475.697 -4.58235 0.662552 0
M  V30 16093 H 478.536 -8.65116 0.777161 0
M  V30 16094 H 478.808 -6.90173 0.474152 0
M  V30 16095 H 477.94 -7.66548 2.79458 0
M  V30 16096 P 473.977 -8.03563 3.84925 0
M  V30 16097 O 473.757 -8.85821 5.0569 0
M  V30 16098 O 473.187 -8.41101 2.65469 0
M  V30 16099 O 473.727 -6.49734 4.18962 0
M  V30 16100 C 474.667 -5.81037 5.05421 0
M  V30 16101 C 473.937 -4.79018 5.88876 0
M  V30 16102 O 473.727 -3.58359 5.08515 0
M  V30 16103 C 472.537 -5.17448 6.36119 0
M  V30 16104 O 472.147 -4.45322 7.53318 0
M  V30 16105 C 471.657 -4.74639 5.19936 0
M  V30 16106 C 472.367 -3.49432 4.70418 0
M  V30 16107 N 472.317 -3.31776 3.22945 0
M  V30 16108 C 472.167 -2.02742 2.72939 0
M  V30 16109 O 472.077 -1.08301 3.52749 0
M  V30 16110 N 472.117 -1.96117 1.22063 0
M  V30 16111 C 472.217 -2.8878 0.551566 0
M  V30 16112 N 472.167 -2.65609 -0.750198 0
M  V30 16113 C 472.367 -4.22457 1.03707 0
M  V30 16114 C 472.417 -4.37979 2.39113 0
M  V30 16115 H 475.157 -6.54138 5.7131 0
M  V30 16116 H 475.427 -5.30492 4.44033 0
M  V30 16117 H 474.56 -4.55945 6.76735 0
M  V30 16118 H 471.905 -2.6176 5.18021 0
M  V30 16119 H 471.625 -5.52233 4.41941 0
M  V30 16120 H 470.634 -4.52045 5.53452 0
M  V30 16121 H 472.468 -6.25124 6.55234 0
M  V30 16122 H 472.54 -5.37936 2.80552 0
M  V30 16123 H 472.438 -5.07528 0.359553 0
M  V30 16124 H 472.05 -1.69403 -1.09847 0
M  V30 16125 H 472.246 -3.43701 -1.41792 0
M  V30 16126 P 470.597 -4.23843 7.83734 0
M  V30 16127 O 470.377 -4.19407 9.29784 0
M  V30 16128 O 469.807 -5.24426 7.09156 0
M  V30 16129 O 470.347 -2.7935 7.20758 0
M  V30 16130 C 471.287 -1.7299 7.50419 0
M  V30 16131 C 470.557 -0.406376 7.57911 0
M  V30 16132 O 470.347 0.0897726 6.21935 0
M  V30 16133 C 469.157 -0.447224 8.1878 0
M  V30 16134 O 468.767 0.825065 8.71101 0
M  V30 16135 C 468.277 -0.783801 6.99623 0
M  V30 16136 C 468.987 -0.0619192 5.85967 0
M  V30 16137 N 468.937 -0.7859 4.56281 0
M  V30 16138 H 471.776 -1.93423 8.4679 0
M  V30 16139 H 472.048 -1.68181 6.71046 0
M  V30 16140 H 471.18 0.289041 8.15388 0
M  V30 16141 P 467.217 1.17771 8.83182 0
M  V30 16142 O 466.997 2.07206 9.98732 0
M  V30 16143 O 466.427 -0.0743816 8.81969 0
M  V30 16144 O 466.967 1.97652 7.47304 0
M  V30 16145 C 467.907 3.01133 7.08783 0
M  V30 16146 C 467.177 4.12613 6.37049 0
M  V30 16147 O 466.967 3.72827 4.97879 0
M  V30 16148 C 465.777 4.45085 6.88694 0
M  V30 16149 O 465.387 5.7877 6.5624 0
M  V30 16150 C 464.897 3.47817 6.12078 0
M  V30 16151 C 465.607 3.39414 4.77697 0
M  V30 16152 N 465.557 2.04615 4.15333 0
M  V30 16153 H 468.396 3.41248 7.98759 0
M  V30 16154 H 468.668 2.5837 6.41742 0
M  V30 16155 H 467.8 5.02657 6.42673 0
M  V30 16156 P 463.837 6.144 6.45285 0
M  V30 16157 O 463.617 7.54673 6.86199 0
M  V30 16158 O 463.047 5.12391 7.179 0
M  V30 16159 O 463.587 5.99158 4.88404 0
M  V30 16160 C 464.527 6.60234 3.96415 0
M  V30 16161 C 463.797 7.08259 2.72856 0
M  V30 16162 O 463.587 5.9427 1.83651 0
M  V30 16163 C 462.397 7.64886 2.9555 0
M  V30 16164 O 462.007 8.53963 1.90717 0
M  V30 16165 C 461.517 6.4116 2.90739 0
M  V30 16166 C 462.227 5.55375 1.86963 0
M  V30 16167 N 462.177 4.09664 2.15742 0
M  V30 16168 H 465.016 7.45574 4.45629 0
M  V30 16169 H 465.288 5.86232 3.67314 0
M  V30 16170 H 464.42 7.84412 2.24479 0
M  V30 16171 P 460.457 8.7635 1.60911 0
M  V30 16172 O 460.237 10.1388 1.11561 0
M  V30 16173 O 459.667 8.36503 2.79617 0
M  V30 16174 O 460.207 7.71806 0.42951 0
M  V30 16175 C 461.147 7.67148 -0.673689 0
M  V30 16176 C 460.417 7.33374 -1.95559 0
M  V30 16177 O 460.207 5.88721 -2.00726 0
M  V30 16178 C 459.017 7.92526 -2.10483 0
M  V30 16179 O 458.627 8.02971 -3.47653 0
M  V30 16180 C 458.137 6.89602 -1.41652 0
M  V30 16181 C 458.847 5.59201 -1.75185 0
M  V30 16182 N 458.797 4.58235 -0.662552 0
M  V30 16183 H 461.636 8.65116 -0.777161 0
M  V30 16184 H 461.908 6.90173 -0.474152 0
M  V30 16185 H 461.04 7.66548 -2.79458 0
M  V30 16186 P 457.077 8.03563 -3.84925 0
M  V30 16187 O 456.857 8.85821 -5.0569 0
M  V30 16188 O 456.287 8.41101 -2.65469 0
M  V30 16189 O 456.827 6.4965 -4.18908 0
M  V30 16190 C 457.767 5.81037 -5.05421 0
M  V30 16191 C 457.037 4.78366 -5.89277 0
M  V30 16192 O 456.827 3.58302 -5.08433 0
M  V30 16193 C 455.637 5.17448 -6.36119 0
M  V30 16194 O 455.247 4.45271 -7.53232 0
M  V30 16195 C 454.757 4.74639 -5.19936 0
M  V30 16196 C 455.467 3.49432 -4.70418 0
M  V30 16197 N 455.417 3.31776 -3.22945 0
M  V30 16198 H 458.256 6.54213 -5.71376 0
M  V30 16199 H 458.528 5.30492 -4.44033 0
M  V30 16200 H 457.66 4.55889 -6.76652 0
M  V30 16201 P 453.697 4.23843 -7.83734 0
M  V30 16202 O 453.477 4.19407 -9.29784 0
M  V30 16203 O 452.907 5.24426 -7.09156 0
M  V30 16204 O 453.447 2.7935 -7.20758 0
M  V30 16205 C 454.387 1.7299 -7.50419 0
M  V30 16206 C 453.657 0.406376 -7.57911 0
M  V30 16207 O 453.447 -0.0897726 -6.21935 0
M  V30 16208 C 452.257 0.447224 -8.1878 0
M  V30 16209 O 451.867 -0.825065 -8.71101 0
M  V30 16210 C 451.377 0.783801 -6.99623 0
M  V30 16211 C 452.087 0.0619192 -5.85967 0
M  V30 16212 N 452.037 0.7859 -4.56281 0
M  V30 16213 H 454.876 1.93423 -8.4679 0
M  V30 16214 H 455.148 1.68181 -6.71046 0
M  V30 16215 H 454.28 -0.289041 -8.15388 0
M  V30 16216 P 450.317 -1.17771 -8.83182 0
M  V30 16217 O 450.097 -2.07206 -9.98732 0
M  V30 16218 O 449.527 0.0743816 -8.81969 0
M  V30 16219 O 450.067 -1.97678 -7.474 0
M  V30 16220 C 451.007 -3.01133 -7.08783 0
M  V30 16221 C 450.277 -4.1203 -6.37546 0
M  V30 16222 O 450.067 -3.72887 -4.9796 0
M  V30 16223 C 448.877 -4.45085 -6.88694 0
M  V30 16224 O 448.487 -5.78836 -6.56315 0
M  V30 16225 C 447.997 -3.47817 -6.12078 0
M  V30 16226 C 448.707 -3.39414 -4.77697 0
M  V30 16227 N 448.657 -2.04615 -4.15333 0
M  V30 16228 C 448.507 -1.96929 -2.77162 0
M  V30 16229 O 448.417 -3.02017 -2.12006 0
M  V30 16230 N 448.457 -0.55485 -2.24237 0
M  V30 16231 C 448.557 0.367808 -2.9169 0
M  V30 16232 N 448.507 1.53426 -2.29427 0
M  V30 16233 C 448.707 0.319148 -4.33828 0
M  V30 16234 C 448.757 -0.920672 -4.90433 0
M  V30 16235 H 451.497 -3.41209 -7.98667 0
M  V30 16236 H 451.767 -2.5837 -6.41742 0
M  V30 16237 H 450.9 -5.02718 -6.42752 0
M  V30 16238 H 448.245 -4.11779 -4.09026 0
M  V30 16239 H 447.965 -2.49661 -6.61772 0
M  V30 16240 H 446.974 -3.86674 -6.00946 0
M  V30 16241 H 448.808 -4.29991 -7.97006 0
M  V30 16242 H 448.88 -1.00589 -5.98303 0
M  V30 16243 H 448.778 1.22639 -4.93799 0
M  V30 16244 H 448.39 1.56819 -1.27167 0
M  V30 16245 H 448.586 2.41062 -2.83063 0
M  V30 16246 P 446.937 -6.144 -6.45285 0
M  V30 16247 O 446.717 -7.54673 -6.86199 0
M  V30 16248 O 446.147 -5.12391 -7.179 0
M  V30 16249 O 446.687 -5.99158 -4.88404 0
M  V30 16250 C 447.627 -6.60234 -3.96415 0
M  V30 16251 C 446.897 -7.08259 -2.72856 0
M  V30 16252 O 446.687 -5.9427 -1.83651 0
M  V30 16253 C 445.497 -7.64886 -2.9555 0
M  V30 16254 O 445.107 -8.53963 -1.90717 0
M  V30 16255 C 444.617 -6.4116 -2.90739 0
M  V30 16256 C 445.327 -5.55375 -1.86963 0
M  V30 16257 N 445.277 -4.09448 -2.16152 0
M  V30 16258 H 448.116 -7.45574 -4.45629 0
M  V30 16259 H 448.388 -5.85864 -3.679 0
M  V30 16260 H 447.52 -7.84412 -2.24479 0
M  V30 16261 H 444.865 -5.73457 -0.888562 0
M  V30 16262 H 444.585 -5.90877 -3.88583 0
M  V30 16263 H 443.594 -6.6596 -2.58858 0
M  V30 16264 H 445.428 -8.16339 -3.92049 0
M  V30 16265 P 443.557 -8.7635 -1.60911 0
M  V30 16266 O 443.337 -10.1388 -1.11561 0
M  V30 16267 O 442.767 -8.36503 -2.79617 0
M  V30 16268 O 443.307 -7.71806 -0.42951 0
M  V30 16269 C 444.247 -7.67148 0.673689 0
M  V30 16270 C 443.517 -7.33374 1.95559 0
M  V30 16271 O 443.307 -5.88721 2.00726 0
M  V30 16272 C 442.117 -7.92526 2.10483 0
M  V30 16273 O 441.727 -8.02971 3.47653 0
M  V30 16274 C 441.237 -6.89602 1.41652 0
M  V30 16275 C 441.947 -5.59201 1.75185 0
M  V30 16276 N 441.897 -4.58235 0.662552 0
M  V30 16277 H 444.736 -8.65116 0.777161 0
M  V30 16278 H 445.008 -6.90173 0.474152 0
M  V30 16279 H 444.14 -7.66548 2.79458 0
M  V30 16280 P 440.177 -8.03563 3.84925 0
M  V30 16281 O 439.957 -8.85821 5.0569 0
M  V30 16282 O 439.387 -8.41101 2.65469 0
M  V30 16283 O 439.927 -6.4965 4.18908 0
M  V30 16284 C 440.867 -5.81037 5.05421 0
M  V30 16285 C 440.137 -4.78366 5.89277 0
M  V30 16286 O 439.927 -3.58302 5.08433 0
M  V30 16287 C 438.737 -5.17448 6.36119 0
M  V30 16288 O 438.347 -4.45271 7.53232 0
M  V30 16289 C 437.857 -4.74639 5.19936 0
M  V30 16290 C 438.567 -3.49432 4.70418 0
M  V30 16291 N 438.517 -3.31776 3.22945 0
M  V30 16292 H 441.356 -6.54213 5.71376 0
M  V30 16293 H 441.628 -5.30492 4.44033 0
M  V30 16294 H 440.76 -4.55889 6.76652 0
M  V30 16295 P 436.797 -4.23843 7.83734 0
M  V30 16296 O 436.577 -4.19407 9.29784 0
M  V30 16297 O 436.007 -5.24426 7.09156 0
M  V30 16298 O 436.547 -2.7935 7.20758 0
M  V30 16299 C 437.487 -1.7299 7.50419 0
M  V30 16300 C 436.757 -0.406376 7.57911 0
M  V30 16301 O 436.547 0.0897726 6.21935 0
M  V30 16302 C 435.357 -0.447224 8.1878 0
M  V30 16303 O 434.967 0.825065 8.71101 0
M  V30 16304 C 434.477 -0.783801 6.99623 0
M  V30 16305 C 435.187 -0.0619192 5.85967 0
M  V30 16306 N 435.137 -0.7859 4.56281 0
M  V30 16307 H 437.976 -1.93423 8.4679 0
M  V30 16308 H 438.248 -1.68181 6.71046 0
M  V30 16309 H 437.38 0.289041 8.15388 0
M  V30 16310 P 433.417 1.17771 8.83182 0
M  V30 16311 O 433.197 2.07206 9.98732 0
M  V30 16312 O 432.627 -0.0743816 8.81969 0
M  V30 16313 O 433.167 1.97652 7.47304 0
M  V30 16314 C 434.107 3.01133 7.08783 0
M  V30 16315 C 433.377 4.12613 6.37049 0
M  V30 16316 O 433.167 3.72827 4.97879 0
M  V30 16317 C 431.977 4.45085 6.88694 0
M  V30 16318 O 431.587 5.7877 6.5624 0
M  V30 16319 C 431.097 3.47817 6.12078 0
M  V30 16320 C 431.807 3.39414 4.77697 0
M  V30 16321 N 431.757 2.04615 4.15333 0
M  V30 16322 H 434.596 3.41248 7.98759 0
M  V30 16323 H 434.868 2.5837 6.41742 0
M  V30 16324 H 434 5.02657 6.42673 0
M  V30 16325 P 430.037 6.144 6.45285 0
M  V30 16326 O 429.817 7.54673 6.86199 0
M  V30 16327 O 429.247 5.12391 7.179 0
M  V30 16328 O 429.787 5.99158 4.88404 0
M  V30 16329 C 430.727 6.60234 3.96415 0
M  V30 16330 C 429.997 7.08259 2.72856 0
M  V30 16331 O 429.787 5.9427 1.83651 0
M  V30 16332 C 428.597 7.64886 2.9555 0
M  V30 16333 O 428.207 8.53963 1.90717 0
M  V30 16334 C 427.717 6.4116 2.90739 0
M  V30 16335 C 428.427 5.55375 1.86963 0
M  V30 16336 N 428.377 4.09664 2.15742 0
M  V30 16337 H 431.216 7.45574 4.45629 0
M  V30 16338 H 431.488 5.86232 3.67314 0
M  V30 16339 H 430.62 7.84412 2.24479 0
M  V30 16340 P 426.657 8.7635 1.60911 0
M  V30 16341 O 426.437 10.1388 1.11561 0
M  V30 16342 O 425.867 8.36503 2.79617 0
M  V30 16343 O 426.407 7.71806 0.42951 0
M  V30 16344 C 427.347 7.67148 -0.673689 0
M  V30 16345 C 426.617 7.33374 -1.95559 0
M  V30 16346 O 426.407 5.88721 -2.00726 0
M  V30 16347 C 425.217 7.92526 -2.10483 0
M  V30 16348 O 424.827 8.02971 -3.47653 0
M  V30 16349 C 424.337 6.89602 -1.41652 0
M  V30 16350 C 425.047 5.59201 -1.75185 0
M  V30 16351 N 424.997 4.58235 -0.662552 0
M  V30 16352 H 427.836 8.65116 -0.777161 0
M  V30 16353 H 428.108 6.90173 -0.474152 0
M  V30 16354 H 427.24 7.66548 -2.79458 0
M  V30 16355 P 423.278 8.03563 -3.84925 0
M  V30 16356 O 423.058 8.85821 -5.0569 0
M  V30 16357 O 422.488 8.41101 -2.65469 0
M  V30 16358 O 423.028 6.4965 -4.18908 0
M  V30 16359 C 423.968 5.81037 -5.05421 0
M  V30 16360 C 423.238 4.78366 -5.89277 0
M  V30 16361 O 423.028 3.58302 -5.08433 0
M  V30 16362 C 421.838 5.17448 -6.36119 0
M  V30 16363 O 421.448 4.45271 -7.53232 0
M  V30 16364 C 420.958 4.74639 -5.19936 0
M  V30 16365 C 421.668 3.49432 -4.70418 0
M  V30 16366 N 421.618 3.31776 -3.22945 0
M  V30 16367 H 424.457 6.54213 -5.71376 0
M  V30 16368 H 424.729 5.30492 -4.44033 0
M  V30 16369 H 423.861 4.55889 -6.76652 0
M  V30 16370 P 419.898 4.23843 -7.83734 0
M  V30 16371 O 419.678 4.19407 -9.29784 0
M  V30 16372 O 419.108 5.24426 -7.09156 0
M  V30 16373 O 419.648 2.7935 -7.20758 0
M  V30 16374 C 420.588 1.7299 -7.50419 0
M  V30 16375 C 419.858 0.406376 -7.57911 0
M  V30 16376 O 419.648 -0.0897726 -6.21935 0
M  V30 16377 C 418.458 0.447224 -8.1878 0
M  V30 16378 O 418.068 -0.825065 -8.71101 0
M  V30 16379 C 417.578 0.783801 -6.99623 0
M  V30 16380 C 418.288 0.0619192 -5.85967 0
M  V30 16381 N 418.238 0.790462 -4.56202 0
M  V30 16382 H 421.077 1.93423 -8.4679 0
M  V30 16383 H 421.349 1.68852 -6.70877 0
M  V30 16384 H 420.481 -0.289041 -8.15388 0
M  V30 16385 H 417.826 -0.927006 -5.72848 0
M  V30 16386 H 417.546 1.86973 -6.82036 0
M  V30 16387 H 416.555 0.403953 -7.13357 0
M  V30 16388 H 418.389 1.20599 -8.97534 0
M  V30 16389 P 416.518 -1.17771 -8.83182 0
M  V30 16390 O 416.298 -2.07206 -9.98732 0
M  V30 16391 O 415.728 0.0743816 -8.81969 0
M  V30 16392 O 416.268 -1.97652 -7.47304 0
M  V30 16393 C 417.208 -3.01133 -7.08783 0
M  V30 16394 C 416.478 -4.12613 -6.37049 0
M  V30 16395 O 416.268 -3.72827 -4.97879 0
M  V30 16396 C 415.078 -4.45085 -6.88694 0
M  V30 16397 O 414.688 -5.7877 -6.5624 0
M  V30 16398 C 414.198 -3.47817 -6.12078 0
M  V30 16399 C 414.908 -3.39414 -4.77697 0
M  V30 16400 N 414.858 -2.04199 -4.15538 0
M  V30 16401 H 417.697 -3.41248 -7.98759 0
M  V30 16402 H 417.969 -2.57728 -6.42 0
M  V30 16403 H 417.101 -5.02657 -6.42673 0
M  V30 16404 H 414.446 -4.11708 -4.08956 0
M  V30 16405 H 414.166 -2.49626 -6.61679 0
M  V30 16406 H 413.175 -3.8662 -6.00862 0
M  V30 16407 H 415.009 -4.29991 -7.97006 0
M  V30 16408 P 413.138 -6.144 -6.45285 0
M  V30 16409 O 412.918 -7.54673 -6.86199 0
M  V30 16410 O 412.348 -5.12391 -7.179 0
M  V30 16411 O 412.888 -5.99158 -4.88404 0
M  V30 16412 C 413.828 -6.60234 -3.96415 0
M  V30 16413 C 413.098 -7.08259 -2.72856 0
M  V30 16414 O 412.888 -5.9427 -1.83651 0
M  V30 16415 C 411.698 -7.64886 -2.9555 0
M  V30 16416 O 411.308 -8.53963 -1.90717 0
M  V30 16417 C 410.818 -6.4116 -2.90739 0
M  V30 16418 C 411.528 -5.55375 -1.86963 0
M  V30 16419 N 411.478 -4.09664 -2.15742 0
M  V30 16420 C 411.558 -3.44381 -3.37233 0
M  V30 16421 N 411.478 -2.14131 -3.28347 0
M  V30 16422 C 411.338 -1.90247 -1.91588 0
M  V30 16423 C 411.208 -0.683992 -1.20892 0
M  V30 16424 O 411.188 0.46618 -1.64523 0
M  V30 16425 N 411.088 -0.903396 0.173998 0
M  V30 16426 C 411.088 -2.14171 0.784879 0
M  V30 16427 N 410.958 -2.1435 2.11317 0
M  V30 16428 N 411.218 -3.28784 0.119316 0
M  V30 16429 C 411.338 -3.0977 -1.22194 0
M  V30 16430 H 414.317 -7.45574 -4.45629 0
M  V30 16431 H 414.589 -5.86232 -3.67314 0
M  V30 16432 H 413.721 -7.84412 -2.24479 0
M  V30 16433 H 411.066 -5.73556 -0.888715 0
M  V30 16434 H 410.786 -5.9096 -3.88638 0
M  V30 16435 H 409.795 -6.66053 -2.58894 0
M  V30 16436 H 411.629 -8.16429 -3.92093 0
M  V30 16437 H 411.678 -3.96785 -4.32043 0
M  V30 16438 H 410.996 -0.0999567 0.761467 0
M  V30 16439 H 410.959 -3.03436 2.63076 0
M  V30 16440 H 410.858 -1.25228 2.62233 0
M  V30 16441 P 409.758 -8.7635 -1.60911 0
M  V30 16442 O 409.538 -10.1388 -1.11561 0
M  V30 16443 O 408.968 -8.36503 -2.79617 0
M  V30 16444 O 409.508 -7.71906 -0.429565 0
M  V30 16445 C 410.448 -7.67148 0.673689 0
M  V30 16446 C 409.718 -7.33666 1.94851 0
M  V30 16447 O 409.508 -5.88816 2.00759 0
M  V30 16448 C 408.318 -7.92526 2.10483 0
M  V30 16449 O 407.928 -8.03063 3.47693 0
M  V30 16450 C 407.438 -6.89602 1.41652 0
M  V30 16451 C 408.148 -5.59201 1.75185 0
M  V30 16452 N 408.098 -4.58235 0.662552 0
M  V30 16453 C 407.948 -3.24451 1.01643 0
M  V30 16454 O 407.858 -2.94958 2.21722 0
M  V30 16455 N 407.898 -2.30408 -0.165238 0
M  V30 16456 C 407.998 -2.66048 -1.25118 0
M  V30 16457 N 407.948 -1.70787 -2.16813 0
M  V30 16458 C 408.148 -4.02732 -1.64413 0
M  V30 16459 C 408.198 -4.9488 -0.63991 0
M  V30 16460 H 410.938 -8.65017 0.777072 0
M  V30 16461 H 411.208 -6.90173 0.474152 0
M  V30 16462 H 410.341 -7.66642 2.79492 0
M  V30 16463 H 407.686 -5.16254 2.65229 0
M  V30 16464 H 407.406 -7.06532 0.329431 0
M  V30 16465 H 406.415 -6.91023 1.82047 0
M  V30 16466 H 408.249 -8.90873 1.62657 0
M  V30 16467 H 408.321 -6.00104 -0.892197 0
M  V30 16468 H 408.219 -4.31733 -2.69229 0
M  V30 16469 H 407.831 -0.724835 -1.8844 0
M  V30 16470 H 408.027 -1.94716 -3.16734 0
M  V30 16471 P 406.378 -8.03563 3.84925 0
M  V30 16472 O 406.158 -8.85821 5.0569 0
M  V30 16473 O 405.588 -8.41101 2.65469 0
M  V30 16474 O 406.128 -6.4965 4.18908 0
M  V30 16475 C 407.068 -5.81037 5.05421 0
M  V30 16476 C 406.338 -4.78366 5.89277 0
M  V30 16477 O 406.128 -3.58302 5.08433 0
M  V30 16478 C 404.938 -5.17448 6.36119 0
M  V30 16479 O 404.548 -4.45271 7.53232 0
M  V30 16480 C 404.058 -4.74639 5.19936 0
M  V30 16481 C 404.768 -3.49432 4.70418 0
M  V30 16482 N 404.718 -3.31776 3.22945 0
M  V30 16483 H 407.557 -6.54213 5.71376 0
M  V30 16484 H 407.829 -5.30492 4.44033 0
M  V30 16485 H 406.961 -4.55889 6.76652 0
M  V30 16486 P 402.998 -4.23843 7.83734 0
M  V30 16487 O 402.778 -4.19407 9.29784 0
M  V30 16488 O 402.208 -5.24426 7.09156 0
M  V30 16489 O 402.748 -2.7935 7.20758 0
M  V30 16490 C 403.688 -1.7299 7.50419 0
M  V30 16491 C 402.958 -0.406376 7.57911 0
M  V30 16492 O 402.748 0.0897726 6.21935 0
M  V30 16493 C 401.558 -0.447224 8.1878 0
M  V30 16494 O 401.168 0.825065 8.71101 0
M  V30 16495 C 400.678 -0.783801 6.99623 0
M  V30 16496 C 401.388 -0.0619192 5.85967 0
M  V30 16497 N 401.338 -0.7859 4.56281 0
M  V30 16498 H 404.177 -1.93423 8.4679 0
M  V30 16499 H 404.449 -1.68181 6.71046 0
M  V30 16500 H 403.581 0.289041 8.15388 0
M  V30 16501 P 399.618 1.17771 8.83182 0
M  V30 16502 O 399.398 2.07206 9.98732 0
M  V30 16503 O 398.828 -0.0743816 8.81969 0
M  V30 16504 O 399.368 1.97652 7.47304 0
M  V30 16505 C 400.308 3.01133 7.08783 0
M  V30 16506 C 399.578 4.12613 6.37049 0
M  V30 16507 O 399.368 3.72827 4.97879 0
M  V30 16508 C 398.178 4.45085 6.88694 0
M  V30 16509 O 397.788 5.7877 6.5624 0
M  V30 16510 C 397.298 3.47817 6.12078 0
M  V30 16511 C 398.008 3.39414 4.77697 0
M  V30 16512 N 397.958 2.04615 4.15333 0
M  V30 16513 H 400.797 3.41248 7.98759 0
M  V30 16514 H 401.069 2.5837 6.41742 0
M  V30 16515 H 400.201 5.02657 6.42673 0
M  V30 16516 P 396.238 6.144 6.45285 0
M  V30 16517 O 396.018 7.54673 6.86199 0
M  V30 16518 O 395.448 5.12391 7.179 0
M  V30 16519 O 395.988 5.99236 4.88467 0
M  V30 16520 C 396.928 6.60234 3.96415 0
M  V30 16521 C 396.198 7.08079 2.736 0
M  V30 16522 O 395.988 5.94365 1.8368 0
M  V30 16523 C 394.798 7.64886 2.9555 0
M  V30 16524 O 394.408 8.5406 1.90739 0
M  V30 16525 C 393.918 6.4116 2.90739 0
M  V30 16526 C 394.628 5.55375 1.86963 0
M  V30 16527 N 394.578 4.09664 2.15742 0
M  V30 16528 C 394.428 3.22231 1.08477 0
M  V30 16529 O 394.338 3.68951 -0.0600489 0
M  V30 16530 N 394.378 1.76692 1.48799 0
M  V30 16531 C 394.478 1.41695 2.57602 0
M  V30 16532 N 394.428 0.107296 2.75791 0
M  V30 16533 C 394.628 2.29178 3.69733 0
M  V30 16534 C 394.678 3.62753 3.42653 0
M  V30 16535 H 397.418 7.45488 4.45578 0
M  V30 16536 H 397.688 5.86232 3.67314 0
M  V30 16537 H 396.821 7.84508 2.24507 0
M  V30 16538 H 394.166 5.73556 0.888715 0
M  V30 16539 H 393.886 5.9096 3.88638 0
M  V30 16540 H 392.895 6.66053 2.58894 0
M  V30 16541 H 394.729 8.16339 3.92049 0
M  V30 16542 H 394.801 4.33052 4.24913 0
M  V30 16543 H 394.699 1.9103 4.71577 0
M  V30 16544 H 394.311 -0.521221 1.95056 0
M  V30 16545 H 394.507 -0.286429 3.70695 0
M  V30 16546 P 392.858 8.7635 1.60911 0
M  V30 16547 O 392.638 10.1388 1.11561 0
M  V30 16548 O 392.068 8.36503 2.79617 0
M  V30 16549 O 392.608 7.71806 0.42951 0
M  V30 16550 C 393.548 7.66948 -0.673514 0
M  V30 16551 C 392.818 7.33374 -1.95559 0
M  V30 16552 O 392.608 5.88721 -2.00726 0
M  V30 16553 C 391.418 7.92218 -2.1125 0
M  V30 16554 O 391.028 8.02971 -3.47653 0
M  V30 16555 C 390.538 6.89504 -1.41631 0
M  V30 16556 C 391.248 5.59106 -1.75155 0
M  V30 16557 N 391.198 4.58136 -0.662409 0
M  V30 16558 C 391.048 3.26059 -1.02863 0
M  V30 16559 O 390.958 2.90743 -2.19009 0
M  V30 16560 N 391.008 2.35995 0.0155585 0
M  V30 16561 C 391.098 2.65248 1.35603 0
M  V30 16562 C 391.248 4.05747 1.64698 0
M  V30 16563 C 391.298 4.96734 0.652411 0
M  V30 16564 H 394.039 8.64917 -0.776982 0
M  V30 16565 H 394.308 6.89974 -0.474015 0
M  V30 16566 H 393.441 7.66548 -2.79458 0
M  V30 16567 H 390.786 5.16076 -2.65138 0
M  V30 16568 H 390.507 7.06433 -0.329384 0
M  V30 16569 H 389.515 6.90829 -1.81996 0
M  V30 16570 H 391.349 8.90774 -1.62639 0
M  V30 16571 H 391.42 6.02181 0.895285 0
M  V30 16572 P 389.478 8.03563 -3.84925 0
M  V30 16573 O 389.258 8.85821 -5.0569 0
M  V30 16574 O 388.688 8.41101 -2.65469 0
M  V30 16575 O 389.228 6.4965 -4.18908 0
M  V30 16576 C 390.168 5.81037 -5.05421 0
M  V30 16577 C 389.438 4.78366 -5.89277 0
M  V30 16578 O 389.228 3.58302 -5.08433 0
M  V30 16579 C 388.038 5.17448 -6.36119 0
M  V30 16580 O 387.648 4.45271 -7.53232 0
M  V30 16581 C 387.158 4.74639 -5.19936 0
M  V30 16582 C 387.868 3.49432 -4.70418 0
M  V30 16583 N 387.818 3.31776 -3.22945 0
M  V30 16584 H 390.657 6.54213 -5.71376 0
M  V30 16585 H 390.929 5.30492 -4.44033 0
M  V30 16586 H 390.061 4.55889 -6.76652 0
M  V30 16587 P 386.098 4.23843 -7.83734 0
M  V30 16588 O 385.878 4.19407 -9.29784 0
M  V30 16589 O 385.308 5.24426 -7.09156 0
M  V30 16590 O 385.848 2.7935 -7.20758 0
M  V30 16591 C 386.788 1.72945 -7.50224 0
M  V30 16592 C 386.058 0.406376 -7.57911 0
M  V30 16593 O 385.848 -0.0897726 -6.21935 0
M  V30 16594 C 384.658 0.438983 -8.18724 0
M  V30 16595 O 384.268 -0.825065 -8.71101 0
M  V30 16596 C 383.778 0.783689 -6.99524 0
M  V30 16597 C 384.488 0.0619086 -5.85867 0
M  V30 16598 N 384.438 0.78573 -4.56183 0
M  V30 16599 C 384.288 0.0292889 -3.41887 0
M  V30 16600 O 384.198 -1.18445 -3.4419 0
M  V30 16601 N 384.248 0.744061 -2.23964 0
M  V30 16602 C 384.338 2.10932 -2.10362 0
M  V30 16603 C 384.488 2.8202 -3.34994 0
M  V30 16604 C 384.538 2.15547 -4.52261 0
M  V30 16605 H 387.279 1.93379 -8.46595 0
M  V30 16606 H 387.548 1.68132 -6.70852 0
M  V30 16607 H 386.681 -0.289041 -8.15388 0
M  V30 16608 H 384.026 -0.926847 -5.72749 0
M  V30 16609 H 383.747 1.86973 -6.82036 0
M  V30 16610 H 382.755 0.403896 -7.13257 0
M  V30 16611 H 384.589 1.20585 -8.97435 0
M  V30 16612 H 384.66 2.71231 -5.45042 0
M  V30 16613 P 382.718 -1.17771 -8.83182 0
M  V30 16614 O 382.498 -2.07206 -9.98732 0
M  V30 16615 O 381.928 0.0743816 -8.81969 0
M  V30 16616 O 382.468 -1.97652 -7.47304 0
M  V30 16617 C 383.408 -3.01133 -7.08783 0
M  V30 16618 C 382.678 -4.12613 -6.37049 0
M  V30 16619 O 382.468 -3.72827 -4.97879 0
M  V30 16620 C 381.278 -4.45085 -6.88694 0
M  V30 16621 O 380.888 -5.7877 -6.5624 0
M  V30 16622 C 380.398 -3.47817 -6.12078 0
M  V30 16623 C 381.108 -3.39414 -4.77697 0
M  V30 16624 N 381.058 -2.04615 -4.15333 0
M  V30 16625 H 383.897 -3.41248 -7.98759 0
M  V30 16626 H 384.169 -2.5837 -6.41742 0
M  V30 16627 H 383.301 -5.02657 -6.42673 0
M  V30 16628 P 379.338 -6.144 -6.45285 0
M  V30 16629 O 379.118 -7.54673 -6.86199 0
M  V30 16630 O 378.548 -5.12391 -7.179 0
M  V30 16631 O 379.088 -5.99158 -4.88404 0
M  V30 16632 C 380.028 -6.60234 -3.96415 0
M  V30 16633 C 379.298 -7.08259 -2.72856 0
M  V30 16634 O 379.088 -5.9427 -1.83651 0
M  V30 16635 C 377.898 -7.64886 -2.9555 0
M  V30 16636 O 377.508 -8.53963 -1.90717 0
M  V30 16637 C 377.018 -6.4116 -2.90739 0
M  V30 16638 C 377.728 -5.55375 -1.86963 0
M  V30 16639 N 377.678 -4.09664 -2.15742 0
M  V30 16640 H 380.517 -7.45574 -4.45629 0
M  V30 16641 H 380.789 -5.86232 -3.67314 0
M  V30 16642 H 379.921 -7.84412 -2.24479 0
M  V30 16643 P 375.958 -8.7635 -1.60911 0
M  V30 16644 O 375.738 -10.1388 -1.11561 0
M  V30 16645 O 375.168 -8.36503 -2.79617 0
M  V30 16646 O 375.708 -7.71906 -0.429565 0
M  V30 16647 C 376.648 -7.67148 0.673689 0
M  V30 16648 C 375.918 -7.33666 1.94851 0
M  V30 16649 O 375.708 -5.88816 2.00759 0
M  V30 16650 C 374.518 -7.92526 2.10483 0
M  V30 16651 O 374.128 -8.03063 3.47693 0
M  V30 16652 C 373.638 -6.89602 1.41652 0
M  V30 16653 C 374.348 -5.59201 1.75185 0
M  V30 16654 N 374.298 -4.58235 0.662552 0
M  V30 16655 C 374.148 -3.24451 1.01643 0
M  V30 16656 O 374.058 -2.94958 2.21722 0
M  V30 16657 N 374.098 -2.30408 -0.165238 0
M  V30 16658 C 374.198 -2.66048 -1.25118 0
M  V30 16659 N 374.148 -1.70787 -2.16813 0
M  V30 16660 C 374.348 -4.02732 -1.64413 0
M  V30 16661 C 374.398 -4.9488 -0.63991 0
M  V30 16662 H 377.138 -8.65017 0.777072 0
M  V30 16663 H 377.408 -6.90173 0.474152 0
M  V30 16664 H 376.541 -7.66642 2.79492 0
M  V30 16665 H 373.886 -5.16254 2.65229 0
M  V30 16666 H 373.606 -7.06532 0.329431 0
M  V30 16667 H 372.615 -6.91023 1.82047 0
M  V30 16668 H 374.449 -8.90873 1.62657 0
M  V30 16669 H 374.521 -6.00104 -0.892197 0
M  V30 16670 H 374.419 -4.31733 -2.69229 0
M  V30 16671 H 374.031 -0.724835 -1.8844 0
M  V30 16672 H 374.227 -1.94716 -3.16734 0
M  V30 16673 P 372.578 -8.03563 3.84925 0
M  V30 16674 O 372.358 -8.85821 5.0569 0
M  V30 16675 O 371.788 -8.41101 2.65469 0
M  V30 16676 O 372.328 -6.4965 4.18908 0
M  V30 16677 C 373.268 -5.81037 5.05421 0
M  V30 16678 C 372.538 -4.78366 5.89277 0
M  V30 16679 O 372.328 -3.58302 5.08433 0
M  V30 16680 C 371.138 -5.17448 6.36119 0
M  V30 16681 O 370.748 -4.45271 7.53232 0
M  V30 16682 C 370.258 -4.74639 5.19936 0
M  V30 16683 C 370.968 -3.49432 4.70418 0
M  V30 16684 N 370.918 -3.32099 3.22613 0
M  V30 16685 H 373.757 -6.54213 5.71376 0
M  V30 16686 H 374.029 -5.30936 4.43503 0
M  V30 16687 H 373.161 -4.55889 6.76652 0
M  V30 16688 H 370.506 -2.61715 5.17932 0
M  V30 16689 H 370.226 -5.52155 4.41878 0
M  V30 16690 H 369.235 -4.51981 5.53374 0
M  V30 16691 H 371.069 -6.25124 6.55234 0
M  V30 16692 P 369.198 -4.23843 7.83734 0
M  V30 16693 O 368.978 -4.19407 9.29784 0
M  V30 16694 O 368.408 -5.24426 7.09156 0
M  V30 16695 O 368.948 -2.7935 7.20758 0
M  V30 16696 C 369.888 -1.7299 7.50419 0
M  V30 16697 C 369.158 -0.406376 7.57911 0
M  V30 16698 O 368.948 0.0897726 6.21935 0
M  V30 16699 C 367.758 -0.447224 8.1878 0
M  V30 16700 O 367.368 0.825065 8.71101 0
M  V30 16701 C 366.878 -0.783801 6.99623 0
M  V30 16702 C 367.588 -0.0619192 5.85967 0
M  V30 16703 N 367.538 -0.7859 4.56281 0
M  V30 16704 H 370.377 -1.93423 8.4679 0
M  V30 16705 H 370.649 -1.68181 6.71046 0
M  V30 16706 H 369.781 0.289041 8.15388 0
M  V30 16707 P 365.818 1.17771 8.83182 0
M  V30 16708 O 365.598 2.07206 9.98732 0
M  V30 16709 O 365.028 -0.0743816 8.81969 0
M  V30 16710 O 365.568 1.97652 7.47304 0
M  V30 16711 C 366.508 3.01055 7.08599 0
M  V30 16712 C 365.778 4.12613 6.37049 0
M  V30 16713 O 365.568 3.72827 4.97879 0
M  V30 16714 C 364.378 4.45719 6.88164 0
M  V30 16715 O 363.988 5.7877 6.5624 0
M  V30 16716 C 363.498 3.47768 6.11991 0
M  V30 16717 C 364.208 3.39356 4.77615 0
M  V30 16718 N 364.158 2.04571 4.15244 0
M  V30 16719 C 364.008 1.98587 2.78314 0
M  V30 16720 O 363.918 2.98134 2.08835 0
M  V30 16721 N 363.968 0.714467 2.24925 0
M  V30 16722 C 364.058 -0.470001 2.94169 0
M  V30 16723 O 364.008 -1.55587 2.35195 0
M  V30 16724 C 364.208 -0.312541 4.36783 0
M  V30 16725 C 364.318 -1.57711 5.16352 0
M  V30 16726 C 364.258 0.914512 4.92583 0
M  V30 16727 H 366.999 3.41169 7.98575 0
M  V30 16728 H 367.268 2.58295 6.41556 0
M  V30 16729 H 366.401 5.02657 6.42673 0
M  V30 16730 H 363.746 4.11637 4.08885 0
M  V30 16731 H 363.467 2.49626 6.61679 0
M  V30 16732 H 362.475 3.86566 6.00778 0
M  V30 16733 H 364.309 4.29943 7.96918 0
M  V30 16734 H 364.38 1.00937 6.00374 0
M  V30 16735 H 363.35 -1.80153 5.63503 0
M  V30 16736 H 365.087 -1.4566 5.94104 0
M  V30 16737 H 364.599 -2.40664 4.49645 0
M  V30 16738 H 363.863 0.647622 1.25697 0
M  V30 16739 P 362.438 6.144 6.45285 0
M  V30 16740 O 362.218 7.54673 6.86199 0
M  V30 16741 O 361.648 5.12391 7.179 0
M  V30 16742 O 362.188 5.99158 4.88404 0
M  V30 16743 C 363.128 6.60234 3.96415 0
M  V30 16744 C 362.398 7.08259 2.72856 0
M  V30 16745 O 362.188 5.9427 1.83651 0
M  V30 16746 C 360.998 7.64886 2.9555 0
M  V30 16747 O 360.608 8.53963 1.90717 0
M  V30 16748 C 360.118 6.4116 2.90739 0
M  V30 16749 C 360.828 5.55375 1.86963 0
M  V30 16750 N 360.778 4.09448 2.16152 0
M  V30 16751 C 360.858 3.46824 3.37593 0
M  V30 16752 N 360.788 2.17422 3.29777 0
M  V30 16753 C 360.638 1.93065 1.94427 0
M  V30 16754 C 360.508 0.738053 1.20141 0
M  V30 16755 N 360.498 -0.474256 1.74676 0
M  V30 16756 N 360.388 0.850049 -0.13045 0
M  V30 16757 C 360.398 2.06169 -0.676992 0
M  V30 16758 N 360.518 3.23842 -0.101312 0
M  V30 16759 C 360.638 3.09402 1.23122 0
M  V30 16760 H 363.617 7.45574 4.45629 0
M  V30 16761 H 363.889 5.85864 3.679 0
M  V30 16762 H 363.021 7.84412 2.24479 0
M  V30 16763 H 360.366 5.73457 0.888562 0
M  V30 16764 H 360.086 5.90877 3.88583 0
M  V30 16765 H 359.095 6.6596 2.58858 0
M  V30 16766 H 360.929 8.16339 3.92049 0
M  V30 16767 H 360.97 4.00505 4.3174 0
M  V30 16768 H 360.589 -0.581337 2.76658 0
M  V30 16769 H 360.4 -1.30811 1.14888 0
M  V30 16770 H 360.292 2.08295 -1.75542 0
M  V30 16771 P 359.058 8.7635 1.60911 0
M  V30 16772 O 358.838 10.1388 1.11561 0
M  V30 16773 O 358.268 8.36503 2.79617 0
M  V30 16774 O 358.808 7.71806 0.42951 0
M  V30 16775 C 359.748 7.67148 -0.673689 0
M  V30 16776 C 359.018 7.33374 -1.95559 0
M  V30 16777 O 358.808 5.88721 -2.00726 0
M  V30 16778 C 357.618 7.92526 -2.10483 0
M  V30 16779 O 357.228 8.02971 -3.47653 0
M  V30 16780 C 356.738 6.89602 -1.41652 0
M  V30 16781 C 357.448 5.59201 -1.75185 0
M  V30 16782 N 357.398 4.58301 -0.657969 0
M  V30 16783 H 360.237 8.65116 -0.777161 0
M  V30 16784 H 360.509 6.9022 -0.46725 0
M  V30 16785 H 359.641 7.66548 -2.79458 0
M  V30 16786 H 356.986 5.16165 -2.65183 0
M  V30 16787 H 356.706 7.06433 -0.329384 0
M  V30 16788 H 355.715 6.90926 -1.82021 0
M  V30 16789 H 357.549 8.90873 -1.62657 0
M  V30 16790 P 355.678 8.03563 -3.84925 0
M  V30 16791 O 355.458 8.85821 -5.0569 0
M  V30 16792 O 354.888 8.41101 -2.65469 0
M  V30 16793 O 355.428 6.4965 -4.18908 0
M  V30 16794 C 356.368 5.81037 -5.05421 0
M  V30 16795 C 355.638 4.78366 -5.89277 0
M  V30 16796 O 355.428 3.58302 -5.08433 0
M  V30 16797 C 354.238 5.17448 -6.36119 0
M  V30 16798 O 353.848 4.45271 -7.53232 0
M  V30 16799 C 353.358 4.74639 -5.19936 0
M  V30 16800 C 354.068 3.49432 -4.70418 0
M  V30 16801 N 354.018 3.31776 -3.22945 0
M  V30 16802 H 356.857 6.54213 -5.71376 0
M  V30 16803 H 357.129 5.30492 -4.44033 0
M  V30 16804 H 356.261 4.55889 -6.76652 0
M  V30 16805 P 352.298 4.23843 -7.83734 0
M  V30 16806 O 352.078 4.19407 -9.29784 0
M  V30 16807 O 351.508 5.24426 -7.09156 0
M  V30 16808 O 352.048 2.7935 -7.20758 0
M  V30 16809 C 352.988 1.7299 -7.50419 0
M  V30 16810 C 352.258 0.406376 -7.57911 0
M  V30 16811 O 352.048 -0.0897726 -6.21935 0
M  V30 16812 C 350.858 0.447224 -8.1878 0
M  V30 16813 O 350.468 -0.825065 -8.71101 0
M  V30 16814 C 349.978 0.783801 -6.99623 0
M  V30 16815 C 350.688 0.0619192 -5.85967 0
M  V30 16816 N 350.638 0.790462 -4.56202 0
M  V30 16817 H 353.477 1.93423 -8.4679 0
M  V30 16818 H 353.749 1.68852 -6.70877 0
M  V30 16819 H 352.881 -0.289041 -8.15388 0
M  V30 16820 H 350.226 -0.927006 -5.72848 0
M  V30 16821 H 349.946 1.86973 -6.82036 0
M  V30 16822 H 348.955 0.403953 -7.13357 0
M  V30 16823 H 350.789 1.20599 -8.97534 0
M  V30 16824 P 348.918 -1.17771 -8.83182 0
M  V30 16825 O 348.698 -2.07206 -9.98732 0
M  V30 16826 O 348.128 0.0743816 -8.81969 0
M  V30 16827 O 348.668 -1.97652 -7.47304 0
M  V30 16828 C 349.608 -3.01133 -7.08783 0
M  V30 16829 C 348.878 -4.12613 -6.37049 0
M  V30 16830 O 348.668 -3.72827 -4.97879 0
M  V30 16831 C 347.478 -4.45085 -6.88694 0
M  V30 16832 O 347.088 -5.7877 -6.5624 0
M  V30 16833 C 346.598 -3.47817 -6.12078 0
M  V30 16834 C 347.308 -3.39414 -4.77697 0
M  V30 16835 N 347.258 -2.04615 -4.15333 0
M  V30 16836 H 350.097 -3.41248 -7.98759 0
M  V30 16837 H 350.369 -2.5837 -6.41742 0
M  V30 16838 H 349.501 -5.02657 -6.42673 0
M  V30 16839 P 345.538 -6.144 -6.45285 0
M  V30 16840 O 345.318 -7.54673 -6.86199 0
M  V30 16841 O 344.748 -5.12391 -7.179 0
M  V30 16842 O 345.288 -5.99158 -4.88404 0
M  V30 16843 C 346.228 -6.60234 -3.96415 0
M  V30 16844 C 345.498 -7.08259 -2.72856 0
M  V30 16845 O 345.288 -5.9427 -1.83651 0
M  V30 16846 C 344.098 -7.64886 -2.9555 0
M  V30 16847 O 343.708 -8.53963 -1.90717 0
M  V30 16848 C 343.218 -6.4116 -2.90739 0
M  V30 16849 C 343.928 -5.55375 -1.86963 0
M  V30 16850 N 343.878 -4.09664 -2.15742 0
M  V30 16851 H 346.717 -7.45574 -4.45629 0
M  V30 16852 H 346.989 -5.86232 -3.67314 0
M  V30 16853 H 346.121 -7.84412 -2.24479 0
M  V30 16854 P 342.158 -8.7635 -1.60911 0
M  V30 16855 O 341.938 -10.1388 -1.11561 0
M  V30 16856 O 341.368 -8.36503 -2.79617 0
M  V30 16857 O 341.908 -7.71906 -0.429565 0
M  V30 16858 C 342.848 -7.67148 0.673689 0
M  V30 16859 C 342.118 -7.33666 1.94851 0
M  V30 16860 O 341.908 -5.88816 2.00759 0
M  V30 16861 C 340.718 -7.92526 2.10483 0
M  V30 16862 O 340.328 -8.03063 3.47693 0
M  V30 16863 C 339.838 -6.89602 1.41652 0
M  V30 16864 C 340.548 -5.59201 1.75185 0
M  V30 16865 N 340.498 -4.58235 0.662552 0
M  V30 16866 C 340.348 -3.24451 1.01643 0
M  V30 16867 O 340.258 -2.94958 2.21722 0
M  V30 16868 N 340.298 -2.30408 -0.165238 0
M  V30 16869 C 340.398 -2.66048 -1.25118 0
M  V30 16870 N 340.348 -1.70787 -2.16813 0
M  V30 16871 C 340.548 -4.02732 -1.64413 0
M  V30 16872 C 340.598 -4.9488 -0.63991 0
M  V30 16873 H 343.338 -8.65017 0.777072 0
M  V30 16874 H 343.608 -6.90173 0.474152 0
M  V30 16875 H 342.741 -7.66642 2.79492 0
M  V30 16876 H 340.086 -5.16254 2.65229 0
M  V30 16877 H 339.806 -7.06532 0.329431 0
M  V30 16878 H 338.815 -6.91023 1.82047 0
M  V30 16879 H 340.649 -8.90873 1.62657 0
M  V30 16880 H 340.721 -6.00104 -0.892197 0
M  V30 16881 H 340.619 -4.31733 -2.69229 0
M  V30 16882 H 340.231 -0.724835 -1.8844 0
M  V30 16883 H 340.427 -1.94716 -3.16734 0
M  V30 16884 P 338.778 -8.03563 3.84925 0
M  V30 16885 O 338.558 -8.85821 5.0569 0
M  V30 16886 O 337.988 -8.41101 2.65469 0
M  V30 16887 O 338.528 -6.4965 4.18908 0
M  V30 16888 C 339.468 -5.81037 5.05421 0
M  V30 16889 C 338.738 -4.78366 5.89277 0
M  V30 16890 O 338.528 -3.58302 5.08433 0
M  V30 16891 C 337.338 -5.17448 6.36119 0
M  V30 16892 O 336.948 -4.45271 7.53232 0
M  V30 16893 C 336.458 -4.74639 5.19936 0
M  V30 16894 C 337.168 -3.49432 4.70418 0
M  V30 16895 N 337.118 -3.32099 3.22613 0
M  V30 16896 C 337.198 -4.28245 2.25527 0
M  V30 16897 N 337.128 -3.80823 1.04874 0
M  V30 16898 C 336.978 -2.44571 1.23535 0
M  V30 16899 C 336.848 -1.37068 0.330675 0
M  V30 16900 N 336.838 -1.51472 -0.990824 0
M  V30 16901 N 336.728 -0.138614 0.848756 0
M  V30 16902 C 336.738 0.00675923 2.16999 0
M  V30 16903 N 336.858 -0.904372 3.11122 0
M  V30 16904 C 336.978 -2.12707 2.56212 0
M  V30 16905 H 339.957 -6.54213 5.71376 0
M  V30 16906 H 340.229 -5.30936 4.43503 0
M  V30 16907 H 339.361 -4.55889 6.76652 0
M  V30 16908 H 336.706 -2.61715 5.17932 0
M  V30 16909 H 336.426 -5.52155 4.41878 0
M  V30 16910 H 335.435 -4.51981 5.53374 0
M  V30 16911 H 337.269 -6.25124 6.55234 0
M  V30 16912 H 337.31 -5.34372 2.47488 0
M  V30 16913 H 336.929 -2.45153 -1.4078 0
M  V30 16914 H 336.74 -0.688422 -1.59911 0
M  V30 16915 H 336.632 1.02584 2.52346 0
M  V30 16916 P 335.398 -4.23843 7.83734 0
M  V30 16917 O 335.178 -4.19407 9.29784 0
M  V30 16918 O 334.608 -5.24426 7.09156 0
M  V30 16919 O 335.148 -2.7935 7.20758 0
M  V30 16920 C 336.088 -1.7299 7.50419 0
M  V30 16921 C 335.358 -0.406376 7.57911 0
M  V30 16922 O 335.148 0.0897726 6.21935 0
M  V30 16923 C 333.958 -0.447224 8.1878 0
M  V30 16924 O 333.568 0.825065 8.71101 0
M  V30 16925 C 333.078 -0.783801 6.99623 0
M  V30 16926 C 333.788 -0.0619192 5.85967 0
M  V30 16927 N 333.738 -0.7859 4.56281 0
M  V30 16928 H 336.577 -1.93423 8.4679 0
M  V30 16929 H 336.849 -1.68181 6.71046 0
M  V30 16930 H 335.981 0.289041 8.15388 0
M  V30 16931 P 332.018 1.17771 8.83182 0
M  V30 16932 O 331.798 2.07206 9.98732 0
M  V30 16933 O 331.228 -0.0743816 8.81969 0
M  V30 16934 O 331.768 1.97652 7.47304 0
M  V30 16935 C 332.708 3.01133 7.08783 0
M  V30 16936 C 331.978 4.12613 6.37049 0
M  V30 16937 O 331.768 3.72827 4.97879 0
M  V30 16938 C 330.578 4.45085 6.88694 0
M  V30 16939 O 330.188 5.7877 6.5624 0
M  V30 16940 C 329.698 3.47817 6.12078 0
M  V30 16941 C 330.408 3.39414 4.77697 0
M  V30 16942 N 330.358 2.04199 4.15538 0
M  V30 16943 H 333.197 3.41248 7.98759 0
M  V30 16944 H 333.469 2.57728 6.42 0
M  V30 16945 H 332.601 5.02657 6.42673 0
M  V30 16946 H 329.946 4.11708 4.08956 0
M  V30 16947 H 329.666 2.49626 6.61679 0
M  V30 16948 H 328.675 3.8662 6.00862 0
M  V30 16949 H 330.509 4.29991 7.97006 0
M  V30 16950 P 328.638 6.144 6.45285 0
M  V30 16951 O 328.418 7.54673 6.86199 0
M  V30 16952 O 327.848 5.12391 7.179 0
M  V30 16953 O 328.388 5.99158 4.88404 0
M  V30 16954 C 329.328 6.60234 3.96415 0
M  V30 16955 C 328.598 7.08259 2.72856 0
M  V30 16956 O 328.388 5.9427 1.83651 0
M  V30 16957 C 327.198 7.64886 2.9555 0
M  V30 16958 O 326.808 8.53963 1.90717 0
M  V30 16959 C 326.318 6.4116 2.90739 0
M  V30 16960 C 327.028 5.55375 1.86963 0
M  V30 16961 N 326.978 4.09664 2.15742 0
M  V30 16962 H 329.817 7.45574 4.45629 0
M  V30 16963 H 330.089 5.86232 3.67314 0
M  V30 16964 H 329.221 7.84412 2.24479 0
M  V30 16965 P 325.258 8.7635 1.60911 0
M  V30 16966 O 325.038 10.1388 1.11561 0
M  V30 16967 O 324.468 8.36503 2.79617 0
M  V30 16968 O 325.008 7.71806 0.42951 0
M  V30 16969 C 325.948 7.67148 -0.673689 0
M  V30 16970 C 325.218 7.33374 -1.95559 0
M  V30 16971 O 325.008 5.88721 -2.00726 0
M  V30 16972 C 323.818 7.92526 -2.10483 0
M  V30 16973 O 323.428 8.02971 -3.47653 0
M  V30 16974 C 322.938 6.89602 -1.41652 0
M  V30 16975 C 323.648 5.59201 -1.75185 0
M  V30 16976 N 323.598 4.58235 -0.662552 0
M  V30 16977 H 326.437 8.65116 -0.777161 0
M  V30 16978 H 326.709 6.90173 -0.474152 0
M  V30 16979 H 325.841 7.66548 -2.79458 0
M  V30 16980 P 321.878 8.03563 -3.84925 0
M  V30 16981 O 321.658 8.85821 -5.0569 0
M  V30 16982 O 321.088 8.41101 -2.65469 0
M  V30 16983 O 321.628 6.4965 -4.18908 0
M  V30 16984 C 322.568 5.81037 -5.05421 0
M  V30 16985 C 321.838 4.78366 -5.89277 0
M  V30 16986 O 321.628 3.58302 -5.08433 0
M  V30 16987 C 320.438 5.17448 -6.36119 0
M  V30 16988 O 320.048 4.45271 -7.53232 0
M  V30 16989 C 319.558 4.74639 -5.19936 0
M  V30 16990 C 320.268 3.49432 -4.70418 0
M  V30 16991 N 320.218 3.31776 -3.22945 0
M  V30 16992 H 323.057 6.54213 -5.71376 0
M  V30 16993 H 323.329 5.30492 -4.44033 0
M  V30 16994 H 322.461 4.55889 -6.76652 0
M  V30 16995 P 318.498 4.23843 -7.83734 0
M  V30 16996 O 318.278 4.19407 -9.29784 0
M  V30 16997 O 317.708 5.24426 -7.09156 0
M  V30 16998 O 318.248 2.7935 -7.20758 0
M  V30 16999 C 319.188 1.7299 -7.50419 0
M  V30 17000 C 318.458 0.406376 -7.57911 0
M  V30 17001 O 318.248 -0.0897726 -6.21935 0
M  V30 17002 C 317.058 0.447224 -8.1878 0
M  V30 17003 O 316.668 -0.825065 -8.71101 0
M  V30 17004 C 316.178 0.783801 -6.99623 0
M  V30 17005 C 316.888 0.0619192 -5.85967 0
M  V30 17006 N 316.838 0.790462 -4.56202 0
M  V30 17007 H 319.677 1.93423 -8.4679 0
M  V30 17008 H 319.949 1.68852 -6.70877 0
M  V30 17009 H 319.081 -0.289041 -8.15388 0
M  V30 17010 H 316.426 -0.927006 -5.72848 0
M  V30 17011 H 316.146 1.86973 -6.82036 0
M  V30 17012 H 315.155 0.403953 -7.13357 0
M  V30 17013 H 316.989 1.20599 -8.97534 0
M  V30 17014 P 315.118 -1.17771 -8.83182 0
M  V30 17015 O 314.898 -2.07206 -9.98732 0
M  V30 17016 O 314.328 0.0743816 -8.81969 0
M  V30 17017 O 314.868 -1.97652 -7.47304 0
M  V30 17018 C 315.808 -3.01133 -7.08783 0
M  V30 17019 C 315.078 -4.12613 -6.37049 0
M  V30 17020 O 314.868 -3.72827 -4.97879 0
M  V30 17021 C 313.678 -4.45085 -6.88694 0
M  V30 17022 O 313.288 -5.7877 -6.5624 0
M  V30 17023 C 312.798 -3.47817 -6.12078 0
M  V30 17024 C 313.508 -3.39414 -4.77697 0
M  V30 17025 N 313.458 -2.04615 -4.15333 0
M  V30 17026 H 316.297 -3.41248 -7.98759 0
M  V30 17027 H 316.569 -2.5837 -6.41742 0
M  V30 17028 H 315.701 -5.02657 -6.42673 0
M  V30 17029 P 311.738 -6.144 -6.45285 0
M  V30 17030 O 311.518 -7.54673 -6.86199 0
M  V30 17031 O 310.948 -5.12391 -7.179 0
M  V30 17032 O 311.488 -5.99158 -4.88404 0
M  V30 17033 C 312.428 -6.60234 -3.96415 0
M  V30 17034 C 311.698 -7.08259 -2.72856 0
M  V30 17035 O 311.488 -5.9427 -1.83651 0
M  V30 17036 C 310.298 -7.64886 -2.9555 0
M  V30 17037 O 309.908 -8.53963 -1.90717 0
M  V30 17038 C 309.418 -6.4116 -2.90739 0
M  V30 17039 C 310.128 -5.55375 -1.86963 0
M  V30 17040 N 310.078 -4.09664 -2.15742 0
M  V30 17041 H 312.917 -7.45574 -4.45629 0
M  V30 17042 H 313.189 -5.86232 -3.67314 0
M  V30 17043 H 312.321 -7.84412 -2.24479 0
M  V30 17044 P 308.358 -8.7635 -1.60911 0
M  V30 17045 O 308.138 -10.1388 -1.11561 0
M  V30 17046 O 307.568 -8.36503 -2.79617 0
M  V30 17047 O 308.108 -7.71806 -0.42951 0
M  V30 17048 C 309.048 -7.67148 0.673689 0
M  V30 17049 C 308.318 -7.33374 1.95559 0
M  V30 17050 O 308.108 -5.88721 2.00726 0
M  V30 17051 C 306.918 -7.92526 2.10483 0
M  V30 17052 O 306.528 -8.02971 3.47653 0
M  V30 17053 C 306.038 -6.89602 1.41652 0
M  V30 17054 C 306.748 -5.59201 1.75185 0
M  V30 17055 N 306.698 -4.58235 0.662552 0
M  V30 17056 H 309.537 -8.65116 0.777161 0
M  V30 17057 H 309.809 -6.90173 0.474152 0
M  V30 17058 H 308.941 -7.66548 2.79458 0
M  V30 17059 P 304.978 -8.03563 3.84925 0
M  V30 17060 O 304.758 -8.85821 5.0569 0
M  V30 17061 O 304.188 -8.41101 2.65469 0
M  V30 17062 O 304.728 -6.4965 4.18908 0
M  V30 17063 C 305.668 -5.81037 5.05421 0
M  V30 17064 C 304.938 -4.78366 5.89277 0
M  V30 17065 O 304.728 -3.58302 5.08433 0
M  V30 17066 C 303.538 -5.17448 6.36119 0
M  V30 17067 O 303.148 -4.45271 7.53232 0
M  V30 17068 C 302.658 -4.74639 5.19936 0
M  V30 17069 C 303.368 -3.49432 4.70418 0
M  V30 17070 N 303.318 -3.31776 3.22945 0
M  V30 17071 H 306.157 -6.54213 5.71376 0
M  V30 17072 H 306.429 -5.30492 4.44033 0
M  V30 17073 H 305.561 -4.55889 6.76652 0
M  V30 17074 P 301.598 -4.23843 7.83734 0
M  V30 17075 O 301.378 -4.19407 9.29784 0
M  V30 17076 O 300.808 -5.24426 7.09156 0
M  V30 17077 O 301.348 -2.7935 7.20758 0
M  V30 17078 C 302.288 -1.7299 7.50419 0
M  V30 17079 C 301.558 -0.406376 7.57911 0
M  V30 17080 O 301.348 0.0897726 6.21935 0
M  V30 17081 C 300.158 -0.447224 8.1878 0
M  V30 17082 O 299.768 0.825065 8.71101 0
M  V30 17083 C 299.278 -0.783801 6.99623 0
M  V30 17084 C 299.988 -0.0619192 5.85967 0
M  V30 17085 N 299.938 -0.7859 4.56281 0
M  V30 17086 H 302.777 -1.93423 8.4679 0
M  V30 17087 H 303.049 -1.68181 6.71046 0
M  V30 17088 H 302.181 0.289041 8.15388 0
M  V30 17089 P 298.218 1.17771 8.83182 0
M  V30 17090 O 297.998 2.07206 9.98732 0
M  V30 17091 O 297.428 -0.0743816 8.81969 0
M  V30 17092 O 297.968 1.97652 7.47304 0
M  V30 17093 C 298.908 3.01133 7.08783 0
M  V30 17094 C 298.178 4.12613 6.37049 0
M  V30 17095 O 297.968 3.72827 4.97879 0
M  V30 17096 C 296.778 4.45085 6.88694 0
M  V30 17097 O 296.388 5.7877 6.5624 0
M  V30 17098 C 295.898 3.47817 6.12078 0
M  V30 17099 C 296.608 3.39414 4.77697 0
M  V30 17100 N 296.558 2.04199 4.15538 0
M  V30 17101 H 299.397 3.41248 7.98759 0
M  V30 17102 H 299.669 2.57728 6.42 0
M  V30 17103 H 298.801 5.02657 6.42673 0
M  V30 17104 H 296.146 4.11708 4.08956 0
M  V30 17105 H 295.866 2.49626 6.61679 0
M  V30 17106 H 294.875 3.8662 6.00862 0
M  V30 17107 H 296.709 4.29991 7.97006 0
M  V30 17108 P 294.838 6.144 6.45285 0
M  V30 17109 O 294.618 7.54673 6.86199 0
M  V30 17110 O 294.048 5.12391 7.179 0
M  V30 17111 O 294.588 5.99158 4.88404 0
M  V30 17112 C 295.528 6.60234 3.96415 0
M  V30 17113 C 294.798 7.08259 2.72856 0
M  V30 17114 O 294.588 5.9427 1.83651 0
M  V30 17115 C 293.398 7.64886 2.9555 0
M  V30 17116 O 293.008 8.53963 1.90717 0
M  V30 17117 C 292.518 6.4116 2.90739 0
M  V30 17118 C 293.228 5.55375 1.86963 0
M  V30 17119 N 293.178 4.09448 2.16152 0
M  V30 17120 H 296.017 7.45574 4.45629 0
M  V30 17121 H 296.289 5.85864 3.679 0
M  V30 17122 H 295.421 7.84412 2.24479 0
M  V30 17123 H 292.766 5.73457 0.888562 0
M  V30 17124 H 292.486 5.90877 3.88583 0
M  V30 17125 H 291.495 6.6596 2.58858 0
M  V30 17126 H 293.329 8.16339 3.92049 0
M  V30 17127 P 291.458 8.7635 1.60911 0
M  V30 17128 O 291.238 10.1388 1.11561 0
M  V30 17129 O 290.668 8.36503 2.79617 0
M  V30 17130 O 291.208 7.71806 0.42951 0
M  V30 17131 C 292.148 7.67148 -0.673689 0
M  V30 17132 C 291.418 7.33374 -1.95559 0
M  V30 17133 O 291.208 5.88721 -2.00726 0
M  V30 17134 C 290.018 7.92526 -2.10483 0
M  V30 17135 O 289.628 8.02971 -3.47653 0
M  V30 17136 C 289.138 6.89602 -1.41652 0
M  V30 17137 C 289.848 5.59201 -1.75185 0
M  V30 17138 N 289.798 4.58235 -0.662552 0
M  V30 17139 H 292.637 8.65116 -0.777161 0
M  V30 17140 H 292.909 6.90173 -0.474152 0
M  V30 17141 H 292.041 7.66548 -2.79458 0
M  V30 17142 P 288.078 8.03563 -3.84925 0
M  V30 17143 O 287.858 8.85821 -5.0569 0
M  V30 17144 O 287.288 8.41101 -2.65469 0
M  V30 17145 O 287.828 6.4965 -4.18908 0
M  V30 17146 C 288.768 5.81037 -5.05421 0
M  V30 17147 C 288.038 4.78366 -5.89277 0
M  V30 17148 O 287.828 3.58302 -5.08433 0
M  V30 17149 C 286.638 5.17448 -6.36119 0
M  V30 17150 O 286.248 4.45271 -7.53232 0
M  V30 17151 C 285.758 4.74639 -5.19936 0
M  V30 17152 C 286.468 3.49432 -4.70418 0
M  V30 17153 N 286.418 3.31776 -3.22945 0
M  V30 17154 H 289.257 6.54213 -5.71376 0
M  V30 17155 H 289.529 5.30492 -4.44033 0
M  V30 17156 H 288.661 4.55889 -6.76652 0
M  V30 17157 P 284.698 4.23843 -7.83734 0
M  V30 17158 O 284.478 4.19407 -9.29784 0
M  V30 17159 O 283.908 5.24426 -7.09156 0
M  V30 17160 O 284.448 2.7935 -7.20758 0
M  V30 17161 C 285.388 1.7299 -7.50419 0
M  V30 17162 C 284.658 0.406376 -7.57911 0
M  V30 17163 O 284.448 -0.0897726 -6.21935 0
M  V30 17164 C 283.258 0.447224 -8.1878 0
M  V30 17165 O 282.868 -0.825065 -8.71101 0
M  V30 17166 C 282.378 0.783801 -6.99623 0
M  V30 17167 C 283.088 0.0619192 -5.85967 0
M  V30 17168 N 283.038 0.7859 -4.56281 0
M  V30 17169 H 285.877 1.93423 -8.4679 0
M  V30 17170 H 286.149 1.68181 -6.71046 0
M  V30 17171 H 285.281 -0.289041 -8.15388 0
M  V30 17172 P 281.318 -1.17771 -8.83182 0
M  V30 17173 O 281.098 -2.07206 -9.98732 0
M  V30 17174 O 280.528 0.0743816 -8.81969 0
M  V30 17175 O 281.068 -1.97652 -7.47304 0
M  V30 17176 C 282.008 -3.01133 -7.08783 0
M  V30 17177 C 281.278 -4.12613 -6.37049 0
M  V30 17178 O 281.068 -3.72827 -4.97879 0
M  V30 17179 C 279.878 -4.45085 -6.88694 0
M  V30 17180 O 279.488 -5.7877 -6.5624 0
M  V30 17181 C 278.998 -3.47817 -6.12078 0
M  V30 17182 C 279.708 -3.39414 -4.77697 0
M  V30 17183 N 279.658 -2.04615 -4.15333 0
M  V30 17184 H 282.497 -3.41248 -7.98759 0
M  V30 17185 H 282.769 -2.5837 -6.41742 0
M  V30 17186 H 281.901 -5.02657 -6.42673 0
M  V30 17187 P 277.938 -6.144 -6.45285 0
M  V30 17188 O 277.718 -7.54673 -6.86199 0
M  V30 17189 O 277.148 -5.12391 -7.179 0
M  V30 17190 O 277.688 -5.99158 -4.88404 0
M  V30 17191 C 278.628 -6.60234 -3.96415 0
M  V30 17192 C 277.898 -7.08259 -2.72856 0
M  V30 17193 O 277.688 -5.9427 -1.83651 0
M  V30 17194 C 276.498 -7.64886 -2.9555 0
M  V30 17195 O 276.108 -8.53963 -1.90717 0
M  V30 17196 C 275.618 -6.4116 -2.90739 0
M  V30 17197 C 276.328 -5.55375 -1.86963 0
M  V30 17198 N 276.278 -4.09664 -2.15742 0
M  V30 17199 C 276.358 -3.44381 -3.37233 0
M  V30 17200 N 276.278 -2.14131 -3.28347 0
M  V30 17201 C 276.138 -1.90247 -1.91588 0
M  V30 17202 C 276.008 -0.683992 -1.20892 0
M  V30 17203 N 275.888 -0.903396 0.173998 0
M  V30 17204 C 275.888 -2.14171 0.784879 0
M  V30 17205 N 275.758 -2.1435 2.11317 0
M  V30 17206 N 276.018 -3.28784 0.119316 0
M  V30 17207 C 276.138 -3.0977 -1.22194 0
M  V30 17208 H 279.117 -7.45574 -4.45629 0
M  V30 17209 H 279.389 -5.86232 -3.67314 0
M  V30 17210 H 278.521 -7.84412 -2.24479 0
M  V30 17211 P 274.558 -8.7635 -1.60911 0
M  V30 17212 O 274.338 -10.1388 -1.11561 0
M  V30 17213 O 273.768 -8.36503 -2.79617 0
M  V30 17214 O 274.308 -7.71806 -0.42951 0
M  V30 17215 C 275.248 -7.66948 0.673514 0
M  V30 17216 C 274.518 -7.33374 1.95559 0
M  V30 17217 O 274.308 -5.88721 2.00726 0
M  V30 17218 C 273.118 -7.92218 2.1125 0
M  V30 17219 O 272.728 -8.02971 3.47653 0
M  V30 17220 C 272.238 -6.89504 1.41631 0
M  V30 17221 C 272.948 -5.59106 1.75155 0
M  V30 17222 N 272.898 -4.58136 0.662409 0
M  V30 17223 C 272.748 -3.26059 1.02863 0
M  V30 17224 O 272.658 -2.90743 2.19009 0
M  V30 17225 N 272.708 -2.35995 -0.0155585 0
M  V30 17226 C 272.798 -2.65248 -1.35603 0
M  V30 17227 C 272.948 -4.05747 -1.64698 0
M  V30 17228 C 272.998 -4.96734 -0.652411 0
M  V30 17229 H 275.739 -8.64917 0.776982 0
M  V30 17230 H 276.008 -6.89974 0.474015 0
M  V30 17231 H 275.141 -7.66548 2.79458 0
M  V30 17232 H 272.486 -5.16076 2.65138 0
M  V30 17233 H 272.207 -7.06433 0.329384 0
M  V30 17234 H 271.215 -6.90829 1.81996 0
M  V30 17235 H 273.049 -8.90774 1.62639 0
M  V30 17236 H 273.12 -6.02181 -0.895285 0
M  V30 17237 P 271.178 -8.03563 3.84925 0
M  V30 17238 O 270.958 -8.85821 5.0569 0
M  V30 17239 O 270.388 -8.41101 2.65469 0
M  V30 17240 O 270.928 -6.4965 4.18908 0
M  V30 17241 C 271.868 -5.81037 5.05421 0
M  V30 17242 C 271.138 -4.78366 5.89277 0
M  V30 17243 O 270.928 -3.58302 5.08433 0
M  V30 17244 C 269.738 -5.17448 6.36119 0
M  V30 17245 O 269.348 -4.45271 7.53232 0
M  V30 17246 C 268.858 -4.74639 5.19936 0
M  V30 17247 C 269.568 -3.49432 4.70418 0
M  V30 17248 N 269.518 -3.31776 3.22945 0
M  V30 17249 H 272.357 -6.54213 5.71376 0
M  V30 17250 H 272.629 -5.30492 4.44033 0
M  V30 17251 H 271.761 -4.55889 6.76652 0
M  V30 17252 P 267.798 -4.23843 7.83734 0
M  V30 17253 O 267.578 -4.19407 9.29784 0
M  V30 17254 O 267.008 -5.24426 7.09156 0
M  V30 17255 O 267.548 -2.79386 7.20852 0
M  V30 17256 C 268.488 -1.7299 7.50419 0
M  V30 17257 C 267.758 -0.41401 7.5797 0
M  V30 17258 O 267.548 0.089787 6.22035 0
M  V30 17259 C 266.358 -0.447224 8.1878 0
M  V30 17260 O 265.968 0.825159 8.71201 0
M  V30 17261 C 265.478 -0.783801 6.99623 0
M  V30 17262 C 266.188 -0.0619192 5.85967 0
M  V30 17263 N 266.138 -0.7859 4.56281 0
M  V30 17264 C 265.988 -0.0359258 3.39981 0
M  V30 17265 O 265.898 1.19723 3.49038 0
M  V30 17266 N 265.938 -0.869151 2.14025 0
M  V30 17267 C 266.038 -2.01207 2.14363 0
M  V30 17268 N 265.988 -2.58978 0.954287 0
M  V30 17269 C 266.188 -2.80817 3.32215 0
M  V30 17270 C 266.238 -2.13785 4.50884 0
M  V30 17271 H 268.978 -1.93401 8.46693 0
M  V30 17272 H 269.248 -1.68181 6.71046 0
M  V30 17273 H 268.381 0.289076 8.15488 0
M  V30 17274 H 265.726 0.927166 5.72947 0
M  V30 17275 H 265.446 -1.87 6.82132 0
M  V30 17276 H 264.455 -0.404009 7.13457 0
M  V30 17277 H 266.289 -1.20599 8.97534 0
M  V30 17278 H 266.361 -2.70295 5.43162 0
M  V30 17279 H 266.259 -3.89465 3.27406 0
M  V30 17280 H 265.871 -2.01616 0.107046 0
M  V30 17281 H 266.067 -3.61403 0.873101 0
M  V30 17282 P 264.418 1.17771 8.83182 0
M  V30 17283 O 264.198 2.07206 9.98732 0
M  V30 17284 O 263.628 -0.0743816 8.81969 0
M  V30 17285 O 264.168 1.97652 7.47304 0
M  V30 17286 C 265.108 3.01133 7.08783 0
M  V30 17287 C 264.378 4.12613 6.37049 0
M  V30 17288 O 264.168 3.72827 4.97879 0
M  V30 17289 C 262.978 4.45085 6.88694 0
M  V30 17290 O 262.588 5.7877 6.5624 0
M  V30 17291 C 262.098 3.47817 6.12078 0
M  V30 17292 C 262.808 3.39414 4.77697 0
M  V30 17293 N 262.758 2.04615 4.15333 0
M  V30 17294 H 265.597 3.41248 7.98759 0
M  V30 17295 H 265.869 2.5837 6.41742 0
M  V30 17296 H 265.001 5.02657 6.42673 0
M  V30 17297 P 261.038 6.144 6.45285 0
M  V30 17298 O 260.818 7.54673 6.86199 0
M  V30 17299 O 260.248 5.12391 7.179 0
M  V30 17300 O 260.788 5.99158 4.88404 0
M  V30 17301 C 261.728 6.60234 3.96415 0
M  V30 17302 C 260.998 7.08259 2.72856 0
M  V30 17303 O 260.788 5.9427 1.83651 0
M  V30 17304 C 259.598 7.64886 2.9555 0
M  V30 17305 O 259.208 8.53963 1.90717 0
M  V30 17306 C 258.718 6.4116 2.90739 0
M  V30 17307 C 259.428 5.55375 1.86963 0
M  V30 17308 N 259.378 4.09448 2.16152 0
M  V30 17309 C 259.458 3.46824 3.37593 0
M  V30 17310 N 259.388 2.17422 3.29777 0
M  V30 17311 C 259.238 1.93065 1.94427 0
M  V30 17312 C 259.108 0.738053 1.20141 0
M  V30 17313 N 259.098 -0.474256 1.74676 0
M  V30 17314 N 258.988 0.850049 -0.13045 0
M  V30 17315 C 258.998 2.06169 -0.676992 0
M  V30 17316 N 259.118 3.23842 -0.101312 0
M  V30 17317 C 259.238 3.09402 1.23122 0
M  V30 17318 H 262.217 7.45574 4.45629 0
M  V30 17319 H 262.489 5.85864 3.679 0
M  V30 17320 H 261.621 7.84412 2.24479 0
M  V30 17321 H 258.966 5.73457 0.888562 0
M  V30 17322 H 258.686 5.90877 3.88583 0
M  V30 17323 H 257.695 6.6596 2.58858 0
M  V30 17324 H 259.529 8.16339 3.92049 0
M  V30 17325 H 259.57 4.00505 4.3174 0
M  V30 17326 H 259.189 -0.581337 2.76658 0
M  V30 17327 H 259 -1.30811 1.14888 0
M  V30 17328 H 258.892 2.08295 -1.75542 0
M  V30 17329 P 257.658 8.7635 1.60911 0
M  V30 17330 O 257.438 10.1388 1.11561 0
M  V30 17331 O 256.868 8.36503 2.79617 0
M  V30 17332 O 257.408 7.71806 0.42951 0
M  V30 17333 C 258.348 7.67148 -0.673689 0
M  V30 17334 C 257.618 7.33374 -1.95559 0
M  V30 17335 O 257.408 5.88721 -2.00726 0
M  V30 17336 C 256.218 7.92526 -2.10483 0
M  V30 17337 O 255.828 8.02971 -3.47653 0
M  V30 17338 C 255.338 6.89602 -1.41652 0
M  V30 17339 C 256.048 5.59201 -1.75185 0
M  V30 17340 N 255.998 4.58235 -0.662552 0
M  V30 17341 H 258.837 8.65116 -0.777161 0
M  V30 17342 H 259.109 6.90173 -0.474152 0
M  V30 17343 H 258.241 7.66548 -2.79458 0
M  V30 17344 P 254.279 8.03563 -3.84925 0
M  V30 17345 O 254.059 8.85821 -5.0569 0
M  V30 17346 O 253.489 8.41101 -2.65469 0
M  V30 17347 O 254.029 6.4965 -4.18908 0
M  V30 17348 C 254.969 5.80886 -5.05289 0
M  V30 17349 C 254.239 4.78366 -5.89277 0
M  V30 17350 O 254.029 3.58302 -5.08433 0
M  V30 17351 C 252.839 5.16748 -6.36559 0
M  V30 17352 O 252.449 4.45271 -7.53232 0
M  V30 17353 C 251.959 4.74572 -5.19863 0
M  V30 17354 C 252.669 3.49373 -4.70338 0
M  V30 17355 N 252.619 3.31704 -3.22876 0
M  V30 17356 C 252.469 2.03326 -2.74871 0
M  V30 17357 O 252.379 1.06486 -3.48076 0
M  V30 17358 N 252.429 1.91838 -1.37456 0
M  V30 17359 C 252.519 2.94295 -0.462035 0
M  V30 17360 C 252.669 4.25064 -1.05249 0
M  V30 17361 C 252.719 4.40214 -2.39192 0
M  V30 17362 H 255.46 6.54063 -5.71245 0
M  V30 17363 H 255.729 5.30339 -4.43905 0
M  V30 17364 H 254.862 4.55889 -6.76652 0
M  V30 17365 H 252.207 2.6167 -5.17842 0
M  V30 17366 H 251.928 5.52155 -4.41878 0
M  V30 17367 H 250.936 4.51918 -5.53297 0
M  V30 17368 H 252.77 6.25055 -6.55162 0
M  V30 17369 H 252.841 5.39798 -2.81523 0
M  V30 17370 P 250.899 4.23843 -7.83734 0
M  V30 17371 O 250.679 4.19407 -9.29784 0
M  V30 17372 O 250.109 5.24426 -7.09156 0
M  V30 17373 O 250.649 2.7935 -7.20758 0
M  V30 17374 C 251.589 1.7299 -7.50419 0
M  V30 17375 C 250.859 0.406376 -7.57911 0
M  V30 17376 O 250.649 -0.0897726 -6.21935 0
M  V30 17377 C 249.459 0.447224 -8.1878 0
M  V30 17378 O 249.069 -0.825065 -8.71101 0
M  V30 17379 C 248.579 0.783801 -6.99623 0
M  V30 17380 C 249.289 0.0619192 -5.85967 0
M  V30 17381 N 249.239 0.790462 -4.56202 0
M  V30 17382 H 252.078 1.93423 -8.4679 0
M  V30 17383 H 252.35 1.68852 -6.70877 0
M  V30 17384 H 251.482 -0.289041 -8.15388 0
M  V30 17385 H 248.827 -0.927006 -5.72848 0
M  V30 17386 H 248.547 1.86973 -6.82036 0
M  V30 17387 H 247.556 0.403953 -7.13357 0
M  V30 17388 H 249.39 1.20599 -8.97534 0
M  V30 17389 P 247.519 -1.17771 -8.83182 0
M  V30 17390 O 247.299 -2.07206 -9.98732 0
M  V30 17391 O 246.729 0.0743816 -8.81969 0
M  V30 17392 O 247.269 -1.97652 -7.47304 0
M  V30 17393 C 248.209 -3.01133 -7.08783 0
M  V30 17394 C 247.479 -4.12613 -6.37049 0
M  V30 17395 O 247.269 -3.72827 -4.97879 0
M  V30 17396 C 246.079 -4.45085 -6.88694 0
M  V30 17397 O 245.689 -5.7877 -6.5624 0
M  V30 17398 C 245.199 -3.47817 -6.12078 0
M  V30 17399 C 245.909 -3.39414 -4.77697 0
M  V30 17400 N 245.859 -2.04199 -4.15538 0
M  V30 17401 H 248.698 -3.41248 -7.98759 0
M  V30 17402 H 248.97 -2.57728 -6.42 0
M  V30 17403 H 248.102 -5.02657 -6.42673 0
M  V30 17404 H 245.447 -4.11708 -4.08956 0
M  V30 17405 H 245.167 -2.49626 -6.61679 0
M  V30 17406 H 244.176 -3.8662 -6.00862 0
M  V30 17407 H 246.01 -4.29991 -7.97006 0
M  V30 17408 P 244.139 -6.144 -6.45285 0
M  V30 17409 O 243.919 -7.54673 -6.86199 0
M  V30 17410 O 243.349 -5.12391 -7.179 0
M  V30 17411 O 243.889 -5.99158 -4.88404 0
M  V30 17412 C 244.829 -6.60234 -3.96415 0
M  V30 17413 C 244.099 -7.08259 -2.72856 0
M  V30 17414 O 243.889 -5.9427 -1.83651 0
M  V30 17415 C 242.699 -7.64886 -2.9555 0
M  V30 17416 O 242.309 -8.53963 -1.90717 0
M  V30 17417 C 241.819 -6.4116 -2.90739 0
M  V30 17418 C 242.529 -5.55375 -1.86963 0
M  V30 17419 N 242.479 -4.09448 -2.16152 0
M  V30 17420 H 245.318 -7.45574 -4.45629 0
M  V30 17421 H 245.59 -5.85864 -3.679 0
M  V30 17422 H 244.722 -7.84412 -2.24479 0
M  V30 17423 H 242.067 -5.73457 -0.888562 0
M  V30 17424 H 241.787 -5.90877 -3.88583 0
M  V30 17425 H 240.796 -6.6596 -2.58858 0
M  V30 17426 H 242.63 -8.16339 -3.92049 0
M  V30 17427 P 240.759 -8.7635 -1.60911 0
M  V30 17428 O 240.539 -10.1388 -1.11561 0
M  V30 17429 O 239.969 -8.36503 -2.79617 0
M  V30 17430 O 240.509 -7.71806 -0.42951 0
M  V30 17431 C 241.449 -7.67148 0.673689 0
M  V30 17432 C 240.719 -7.33374 1.95559 0
M  V30 17433 O 240.509 -5.88721 2.00726 0
M  V30 17434 C 239.319 -7.92526 2.10483 0
M  V30 17435 O 238.929 -8.02971 3.47653 0
M  V30 17436 C 238.439 -6.89602 1.41652 0
M  V30 17437 C 239.149 -5.59201 1.75185 0
M  V30 17438 N 239.099 -4.58235 0.662552 0
M  V30 17439 H 241.938 -8.65116 0.777161 0
M  V30 17440 H 242.21 -6.90173 0.474152 0
M  V30 17441 H 241.342 -7.66548 2.79458 0
M  V30 17442 P 237.379 -8.03563 3.84925 0
M  V30 17443 O 237.159 -8.85821 5.0569 0
M  V30 17444 O 236.589 -8.41101 2.65469 0
M  V30 17445 O 237.129 -6.4965 4.18908 0
M  V30 17446 C 238.069 -5.80886 5.05289 0
M  V30 17447 C 237.339 -4.78366 5.89277 0
M  V30 17448 O 237.129 -3.58302 5.08433 0
M  V30 17449 C 235.939 -5.16748 6.36559 0
M  V30 17450 O 235.549 -4.45271 7.53232 0
M  V30 17451 C 235.059 -4.74572 5.19863 0
M  V30 17452 C 235.769 -3.49373 4.70338 0
M  V30 17453 N 235.719 -3.31704 3.22876 0
M  V30 17454 C 235.569 -2.03326 2.74871 0
M  V30 17455 O 235.479 -1.06486 3.48076 0
M  V30 17456 N 235.529 -1.91838 1.37456 0
M  V30 17457 C 235.619 -2.94295 0.462035 0
M  V30 17458 O 235.569 -2.71763 -0.752928 0
M  V30 17459 C 235.769 -4.25064 1.05249 0
M  V30 17460 C 235.879 -5.39815 0.095697 0
M  V30 17461 C 235.819 -4.40214 2.39192 0
M  V30 17462 H 238.56 -6.54063 5.71245 0
M  V30 17463 H 238.829 -5.30339 4.43905 0
M  V30 17464 H 237.962 -4.55889 6.76652 0
M  V30 17465 H 235.307 -2.6167 5.17842 0
M  V30 17466 H 235.028 -5.52155 4.41878 0
M  V30 17467 H 234.036 -4.51918 5.53297 0
M  V30 17468 H 235.87 -6.25055 6.55162 0
M  V30 17469 H 235.941 -5.39798 2.81523 0
M  V30 17470 H 234.911 -5.91593 0.0279582 0
M  V30 17471 H 236.648 -6.10038 0.450573 0
M  V30 17472 H 236.16 -5.02007 -0.89937 0
M  V30 17473 H 235.424 -0.995326 1.00435 0
M  V30 17474 P 233.999 -4.23843 7.83734 0
M  V30 17475 O 233.779 -4.19407 9.29784 0
M  V30 17476 O 233.209 -5.24426 7.09156 0
M  V30 17477 O 233.749 -2.7935 7.20758 0
M  V30 17478 C 234.689 -1.7299 7.50419 0
M  V30 17479 C 233.959 -0.406376 7.57911 0
M  V30 17480 O 233.749 0.0897726 6.21935 0
M  V30 17481 C 232.559 -0.447224 8.1878 0
M  V30 17482 O 232.169 0.825065 8.71101 0
M  V30 17483 C 231.679 -0.783801 6.99623 0
M  V30 17484 C 232.389 -0.0619192 5.85967 0
M  V30 17485 N 232.339 -0.7859 4.56281 0
M  V30 17486 H 235.178 -1.93423 8.4679 0
M  V30 17487 H 235.45 -1.68181 6.71046 0
M  V30 17488 H 234.582 0.289041 8.15388 0
M  V30 17489 P 230.619 1.17771 8.83182 0
M  V30 17490 O 230.399 2.07206 9.98732 0
M  V30 17491 O 229.829 -0.0743816 8.81969 0
M  V30 17492 O 230.369 1.97652 7.47304 0
M  V30 17493 C 231.309 3.01133 7.08783 0
M  V30 17494 C 230.579 4.12613 6.37049 0
M  V30 17495 O 230.369 3.72827 4.97879 0
M  V30 17496 C 229.179 4.45085 6.88694 0
M  V30 17497 O 228.789 5.7877 6.5624 0
M  V30 17498 C 228.299 3.47817 6.12078 0
M  V30 17499 C 229.009 3.39414 4.77697 0
M  V30 17500 N 228.959 2.04199 4.15538 0
M  V30 17501 H 231.798 3.41248 7.98759 0
M  V30 17502 H 232.07 2.57728 6.42 0
M  V30 17503 H 231.202 5.02657 6.42673 0
M  V30 17504 H 228.547 4.11708 4.08956 0
M  V30 17505 H 228.267 2.49626 6.61679 0
M  V30 17506 H 227.276 3.8662 6.00862 0
M  V30 17507 H 229.11 4.29991 7.97006 0
M  V30 17508 P 227.239 6.144 6.45285 0
M  V30 17509 O 227.019 7.54673 6.86199 0
M  V30 17510 O 226.449 5.12391 7.179 0
M  V30 17511 O 226.989 5.99158 4.88404 0
M  V30 17512 C 227.929 6.60234 3.96415 0
M  V30 17513 C 227.199 7.08259 2.72856 0
M  V30 17514 O 226.989 5.9427 1.83651 0
M  V30 17515 C 225.799 7.64886 2.9555 0
M  V30 17516 O 225.409 8.53963 1.90717 0
M  V30 17517 C 224.919 6.4116 2.90739 0
M  V30 17518 C 225.629 5.55375 1.86963 0
M  V30 17519 N 225.579 4.09664 2.15742 0
M  V30 17520 H 228.418 7.45574 4.45629 0
M  V30 17521 H 228.69 5.86232 3.67314 0
M  V30 17522 H 227.822 7.84412 2.24479 0
M  V30 17523 P 223.859 8.7635 1.60911 0
M  V30 17524 O 223.639 10.1388 1.11561 0
M  V30 17525 O 223.069 8.36503 2.79617 0
M  V30 17526 O 223.609 7.71806 0.42951 0
M  V30 17527 C 224.549 7.67148 -0.673689 0
M  V30 17528 C 223.819 7.33374 -1.95559 0
M  V30 17529 O 223.609 5.88721 -2.00726 0
M  V30 17530 C 222.419 7.92526 -2.10483 0
M  V30 17531 O 222.029 8.02971 -3.47653 0
M  V30 17532 C 221.539 6.89602 -1.41652 0
M  V30 17533 C 222.249 5.59201 -1.75185 0
M  V30 17534 N 222.199 4.58235 -0.662552 0
M  V30 17535 H 225.038 8.65116 -0.777161 0
M  V30 17536 H 225.31 6.90173 -0.474152 0
M  V30 17537 H 224.442 7.66548 -2.79458 0
M  V30 17538 P 220.479 8.03563 -3.84925 0
M  V30 17539 O 220.259 8.85821 -5.0569 0
M  V30 17540 O 219.689 8.41101 -2.65469 0
M  V30 17541 O 220.229 6.4965 -4.18908 0
M  V30 17542 C 221.169 5.81037 -5.05421 0
M  V30 17543 C 220.439 4.78366 -5.89277 0
M  V30 17544 O 220.229 3.58302 -5.08433 0
M  V30 17545 C 219.039 5.17448 -6.36119 0
M  V30 17546 O 218.649 4.45271 -7.53232 0
M  V30 17547 C 218.159 4.74639 -5.19936 0
M  V30 17548 C 218.869 3.49432 -4.70418 0
M  V30 17549 N 218.819 3.32099 -3.22613 0
M  V30 17550 H 221.658 6.54213 -5.71376 0
M  V30 17551 H 221.93 5.30936 -4.43503 0
M  V30 17552 H 221.062 4.55889 -6.76652 0
M  V30 17553 H 218.407 2.61715 -5.17932 0
M  V30 17554 H 218.127 5.52155 -4.41878 0
M  V30 17555 H 217.136 4.51981 -5.53374 0
M  V30 17556 H 218.97 6.25124 -6.55234 0
M  V30 17557 P 217.099 4.23843 -7.83734 0
M  V30 17558 O 216.879 4.19407 -9.29784 0
M  V30 17559 O 216.309 5.24426 -7.09156 0
M  V30 17560 O 216.849 2.7935 -7.20758 0
M  V30 17561 C 217.789 1.7299 -7.50419 0
M  V30 17562 C 217.059 0.406376 -7.57911 0
M  V30 17563 O 216.849 -0.0897726 -6.21935 0
M  V30 17564 C 215.659 0.447224 -8.1878 0
M  V30 17565 O 215.269 -0.825065 -8.71101 0
M  V30 17566 C 214.779 0.783801 -6.99623 0
M  V30 17567 C 215.489 0.0619192 -5.85967 0
M  V30 17568 N 215.439 0.7859 -4.56281 0
M  V30 17569 H 218.278 1.93423 -8.4679 0
M  V30 17570 H 218.55 1.68181 -6.71046 0
M  V30 17571 H 217.682 -0.289041 -8.15388 0
M  V30 17572 P 213.719 -1.17771 -8.83182 0
M  V30 17573 O 213.499 -2.07206 -9.98732 0
M  V30 17574 O 212.929 0.0743816 -8.81969 0
M  V30 17575 O 213.469 -1.97652 -7.47304 0
M  V30 17576 C 214.409 -3.01133 -7.08783 0
M  V30 17577 C 213.679 -4.12613 -6.37049 0
M  V30 17578 O 213.469 -3.72827 -4.97879 0
M  V30 17579 C 212.279 -4.45085 -6.88694 0
M  V30 17580 O 211.889 -5.7877 -6.5624 0
M  V30 17581 C 211.399 -3.47817 -6.12078 0
M  V30 17582 C 212.109 -3.39414 -4.77697 0
M  V30 17583 N 212.059 -2.04199 -4.15538 0
M  V30 17584 H 214.898 -3.41248 -7.98759 0
M  V30 17585 H 215.17 -2.57728 -6.42 0
M  V30 17586 H 214.302 -5.02657 -6.42673 0
M  V30 17587 H 211.647 -4.11708 -4.08956 0
M  V30 17588 H 211.367 -2.49626 -6.61679 0
M  V30 17589 H 210.376 -3.8662 -6.00862 0
M  V30 17590 H 212.21 -4.29991 -7.97006 0
M  V30 17591 P 210.339 -6.144 -6.45285 0
M  V30 17592 O 210.119 -7.54673 -6.86199 0
M  V30 17593 O 209.549 -5.12391 -7.179 0
M  V30 17594 O 210.089 -5.99158 -4.88404 0
M  V30 17595 C 211.029 -6.60234 -3.96415 0
M  V30 17596 C 210.299 -7.08259 -2.72856 0
M  V30 17597 O 210.089 -5.9427 -1.83651 0
M  V30 17598 C 208.899 -7.64886 -2.9555 0
M  V30 17599 O 208.509 -8.53963 -1.90717 0
M  V30 17600 C 208.019 -6.4116 -2.90739 0
M  V30 17601 C 208.729 -5.55375 -1.86963 0
M  V30 17602 N 208.679 -4.09664 -2.15742 0
M  V30 17603 H 211.518 -7.45574 -4.45629 0
M  V30 17604 H 211.79 -5.86232 -3.67314 0
M  V30 17605 H 210.922 -7.84412 -2.24479 0
M  V30 17606 P 206.959 -8.7635 -1.60911 0
M  V30 17607 O 206.739 -10.1388 -1.11561 0
M  V30 17608 O 206.169 -8.36503 -2.79617 0
M  V30 17609 O 206.709 -7.71806 -0.42951 0
M  V30 17610 C 207.649 -7.67148 0.673689 0
M  V30 17611 C 206.919 -7.33374 1.95559 0
M  V30 17612 O 206.709 -5.88721 2.00726 0
M  V30 17613 C 205.519 -7.92526 2.10483 0
M  V30 17614 O 205.129 -8.02971 3.47653 0
M  V30 17615 C 204.639 -6.89602 1.41652 0
M  V30 17616 C 205.349 -5.59201 1.75185 0
M  V30 17617 N 205.299 -4.58235 0.662552 0
M  V30 17618 H 208.138 -8.65116 0.777161 0
M  V30 17619 H 208.41 -6.90173 0.474152 0
M  V30 17620 H 207.542 -7.66548 2.79458 0
M  V30 17621 P 203.579 -8.03563 3.84925 0
M  V30 17622 O 203.359 -8.85821 5.0569 0
M  V30 17623 O 202.789 -8.41101 2.65469 0
M  V30 17624 O 203.329 -6.4965 4.18908 0
M  V30 17625 C 204.269 -5.81037 5.05421 0
M  V30 17626 C 203.539 -4.78366 5.89277 0
M  V30 17627 O 203.329 -3.58302 5.08433 0
M  V30 17628 C 202.139 -5.17448 6.36119 0
M  V30 17629 O 201.749 -4.45271 7.53232 0
M  V30 17630 C 201.259 -4.74639 5.19936 0
M  V30 17631 C 201.969 -3.49432 4.70418 0
M  V30 17632 N 201.919 -3.31776 3.22945 0
M  V30 17633 H 204.758 -6.54213 5.71376 0
M  V30 17634 H 205.03 -5.30492 4.44033 0
M  V30 17635 H 204.162 -4.55889 6.76652 0
M  V30 17636 P 200.199 -4.23843 7.83734 0
M  V30 17637 O 199.979 -4.19407 9.29784 0
M  V30 17638 O 199.409 -5.24426 7.09156 0
M  V30 17639 O 199.949 -2.7935 7.20758 0
M  V30 17640 C 200.889 -1.7299 7.50419 0
M  V30 17641 C 200.159 -0.406376 7.57911 0
M  V30 17642 O 199.949 0.0897726 6.21935 0
M  V30 17643 C 198.759 -0.447224 8.1878 0
M  V30 17644 O 198.369 0.825065 8.71101 0
M  V30 17645 C 197.879 -0.783801 6.99623 0
M  V30 17646 C 198.589 -0.0619192 5.85967 0
M  V30 17647 N 198.539 -0.7859 4.56281 0
M  V30 17648 H 201.378 -1.93423 8.4679 0
M  V30 17649 H 201.65 -1.68181 6.71046 0
M  V30 17650 H 200.782 0.289041 8.15388 0
M  V30 17651 P 196.819 1.17771 8.83182 0
M  V30 17652 O 196.599 2.07206 9.98732 0
M  V30 17653 O 196.029 -0.0743816 8.81969 0
M  V30 17654 O 196.569 1.97652 7.47304 0
M  V30 17655 C 197.509 3.01133 7.08783 0
M  V30 17656 C 196.779 4.12613 6.37049 0
M  V30 17657 O 196.569 3.72827 4.97879 0
M  V30 17658 C 195.379 4.45085 6.88694 0
M  V30 17659 O 194.989 5.7877 6.5624 0
M  V30 17660 C 194.499 3.47817 6.12078 0
M  V30 17661 C 195.209 3.39414 4.77697 0
M  V30 17662 N 195.159 2.04615 4.15333 0
M  V30 17663 H 197.998 3.41248 7.98759 0
M  V30 17664 H 198.27 2.5837 6.41742 0
M  V30 17665 H 197.402 5.02657 6.42673 0
M  V30 17666 P 193.439 6.144 6.45285 0
M  V30 17667 O 193.219 7.54673 6.86199 0
M  V30 17668 O 192.649 5.12391 7.179 0
M  V30 17669 O 193.189 5.99158 4.88404 0
M  V30 17670 C 194.129 6.60062 3.96313 0
M  V30 17671 C 193.399 7.08259 2.72856 0
M  V30 17672 O 193.189 5.9427 1.83651 0
M  V30 17673 C 191.999 7.65087 2.94749 0
M  V30 17674 O 191.609 8.53963 1.90717 0
M  V30 17675 C 191.119 6.41069 2.90698 0
M  V30 17676 C 191.829 5.5528 1.86931 0
M  V30 17677 N 191.779 4.09575 2.15696 0
M  V30 17678 C 191.629 3.24249 1.08435 0
M  V30 17679 O 191.539 3.63946 -0.0628747 0
M  V30 17680 N 191.589 1.90009 1.39973 0
M  V30 17681 C 191.679 1.34884 2.65614 0
M  V30 17682 O 191.629 0.123716 2.81728 0
M  V30 17683 C 191.829 2.3145 3.71736 0
M  V30 17684 C 191.939 1.75913 5.10438 0
M  V30 17685 C 191.879 3.63518 3.44754 0
M  V30 17686 H 194.62 7.45402 4.45526 0
M  V30 17687 H 194.889 5.86062 3.67208 0
M  V30 17688 H 194.022 7.84412 2.24479 0
M  V30 17689 H 191.367 5.73358 0.888409 0
M  V30 17690 H 191.088 5.90877 3.88583 0
M  V30 17691 H 190.096 6.65867 2.58821 0
M  V30 17692 H 191.93 8.16248 3.92006 0
M  V30 17693 H 192.001 4.34551 4.26383 0
M  V30 17694 H 190.971 1.85471 5.61775 0
M  V30 17695 H 192.708 2.31364 5.66257 0
M  V30 17696 H 192.22 0.695936 5.05229 0
M  V30 17697 H 191.484 1.26277 0.63625 0
M  V30 17698 P 190.059 8.7635 1.60911 0
M  V30 17699 O 189.839 10.1388 1.11561 0
M  V30 17700 O 189.269 8.36503 2.79617 0
M  V30 17701 O 189.809 7.71806 0.42951 0
M  V30 17702 C 190.749 7.67148 -0.673689 0
M  V30 17703 C 190.019 7.33374 -1.95559 0
M  V30 17704 O 189.809 5.88721 -2.00726 0
M  V30 17705 C 188.619 7.92526 -2.10483 0
M  V30 17706 O 188.229 8.02971 -3.47653 0
M  V30 17707 C 187.739 6.89602 -1.41652 0
M  V30 17708 C 188.449 5.59201 -1.75185 0
M  V30 17709 N 188.399 4.58235 -0.662552 0
M  V30 17710 H 191.238 8.65116 -0.777161 0
M  V30 17711 H 191.51 6.90173 -0.474152 0
M  V30 17712 H 190.642 7.66548 -2.79458 0
M  V30 17713 P 186.679 8.03563 -3.84925 0
M  V30 17714 O 186.459 8.85821 -5.0569 0
M  V30 17715 O 185.889 8.41101 -2.65469 0
M  V30 17716 O 186.429 6.49734 -4.18962 0
M  V30 17717 C 187.369 5.81037 -5.05421 0
M  V30 17718 C 186.639 4.79018 -5.88876 0
M  V30 17719 O 186.429 3.58359 -5.08515 0
M  V30 17720 C 185.239 5.17448 -6.36119 0
M  V30 17721 O 184.849 4.45322 -7.53318 0
M  V30 17722 C 184.359 4.74639 -5.19936 0
M  V30 17723 C 185.069 3.49432 -4.70418 0
M  V30 17724 N 185.019 3.31776 -3.22945 0
M  V30 17725 C 184.869 2.02742 -2.72939 0
M  V30 17726 O 184.779 1.08301 -3.52749 0
M  V30 17727 N 184.819 1.96117 -1.22063 0
M  V30 17728 C 184.919 2.8878 -0.551566 0
M  V30 17729 N 184.869 2.65609 0.750198 0
M  V30 17730 C 185.069 4.22457 -1.03707 0
M  V30 17731 C 185.119 4.37979 -2.39113 0
M  V30 17732 H 187.859 6.54138 -5.7131 0
M  V30 17733 H 188.129 5.30492 -4.44033 0
M  V30 17734 H 187.262 4.55945 -6.76735 0
M  V30 17735 H 184.607 2.6176 -5.18021 0
M  V30 17736 H 184.327 5.52233 -4.41941 0
M  V30 17737 H 183.336 4.52045 -5.53452 0
M  V30 17738 H 185.17 6.25124 -6.55234 0
M  V30 17739 H 185.242 5.37936 -2.80552 0
M  V30 17740 H 185.14 5.07528 -0.359553 0
M  V30 17741 H 184.752 1.69403 1.09847 0
M  V30 17742 H 184.948 3.43701 1.41792 0
M  V30 17743 P 183.299 4.23843 -7.83734 0
M  V30 17744 O 183.079 4.19407 -9.29784 0
M  V30 17745 O 182.509 5.24426 -7.09156 0
M  V30 17746 O 183.049 2.7935 -7.20758 0
M  V30 17747 C 183.989 1.7299 -7.50419 0
M  V30 17748 C 183.259 0.406376 -7.57911 0
M  V30 17749 O 183.049 -0.0897726 -6.21935 0
M  V30 17750 C 181.859 0.447224 -8.1878 0
M  V30 17751 O 181.469 -0.825065 -8.71101 0
M  V30 17752 C 180.979 0.783801 -6.99623 0
M  V30 17753 C 181.689 0.0619192 -5.85967 0
M  V30 17754 N 181.639 0.790462 -4.56202 0
M  V30 17755 H 184.478 1.93423 -8.4679 0
M  V30 17756 H 184.75 1.68852 -6.70877 0
M  V30 17757 H 183.882 -0.289041 -8.15388 0
M  V30 17758 H 181.227 -0.927006 -5.72848 0
M  V30 17759 H 180.947 1.86973 -6.82036 0
M  V30 17760 H 179.956 0.403953 -7.13357 0
M  V30 17761 H 181.79 1.20599 -8.97534 0
M  V30 17762 P 179.919 -1.17771 -8.83182 0
M  V30 17763 O 179.699 -2.07206 -9.98732 0
M  V30 17764 O 179.129 0.0743816 -8.81969 0
M  V30 17765 O 179.669 -1.97652 -7.47304 0
M  V30 17766 C 180.609 -3.01133 -7.08783 0
M  V30 17767 C 179.879 -4.12613 -6.37049 0
M  V30 17768 O 179.669 -3.72827 -4.97879 0
M  V30 17769 C 178.479 -4.45085 -6.88694 0
M  V30 17770 O 178.089 -5.7877 -6.5624 0
M  V30 17771 C 177.599 -3.47817 -6.12078 0
M  V30 17772 C 178.309 -3.39414 -4.77697 0
M  V30 17773 N 178.259 -2.04615 -4.15333 0
M  V30 17774 H 181.098 -3.41248 -7.98759 0
M  V30 17775 H 181.37 -2.5837 -6.41742 0
M  V30 17776 H 180.502 -5.02657 -6.42673 0
M  V30 17777 P 176.539 -6.144 -6.45285 0
M  V30 17778 O 176.319 -7.54673 -6.86199 0
M  V30 17779 O 175.749 -5.12391 -7.179 0
M  V30 17780 O 176.289 -5.99158 -4.88404 0
M  V30 17781 C 177.229 -6.60062 -3.96313 0
M  V30 17782 C 176.499 -7.08259 -2.72856 0
M  V30 17783 O 176.289 -5.9427 -1.83651 0
M  V30 17784 C 175.099 -7.65087 -2.94749 0
M  V30 17785 O 174.709 -8.53963 -1.90717 0
M  V30 17786 C 174.219 -6.41069 -2.90698 0
M  V30 17787 C 174.929 -5.5528 -1.86931 0
M  V30 17788 N 174.879 -4.09575 -2.15696 0
M  V30 17789 C 174.729 -3.24249 -1.08435 0
M  V30 17790 O 174.639 -3.63946 0.0628747 0
M  V30 17791 N 174.689 -1.90009 -1.39973 0
M  V30 17792 C 174.779 -1.34884 -2.65614 0
M  V30 17793 C 174.929 -2.3145 -3.71736 0
M  V30 17794 C 174.979 -3.63518 -3.44754 0
M  V30 17795 H 177.72 -7.45402 -4.45526 0
M  V30 17796 H 177.989 -5.86062 -3.67208 0
M  V30 17797 H 177.122 -7.84412 -2.24479 0
M  V30 17798 H 174.467 -5.73358 -0.888409 0
M  V30 17799 H 174.188 -5.90877 -3.88583 0
M  V30 17800 H 173.196 -6.65867 -2.58821 0
M  V30 17801 H 175.03 -8.16248 -3.92006 0
M  V30 17802 H 175.101 -4.34551 -4.26383 0
M  V30 17803 P 173.159 -8.7635 -1.60911 0
M  V30 17804 O 172.939 -10.1388 -1.11561 0
M  V30 17805 O 172.369 -8.36503 -2.79617 0
M  V30 17806 O 172.909 -7.71906 -0.429565 0
M  V30 17807 C 173.849 -7.67148 0.673689 0
M  V30 17808 C 173.119 -7.33666 1.94851 0
M  V30 17809 O 172.909 -5.88816 2.00759 0
M  V30 17810 C 171.719 -7.92526 2.10483 0
M  V30 17811 O 171.329 -8.03063 3.47693 0
M  V30 17812 C 170.839 -6.89602 1.41652 0
M  V30 17813 C 171.549 -5.59201 1.75185 0
M  V30 17814 N 171.499 -4.58235 0.662552 0
M  V30 17815 C 171.349 -3.24451 1.01643 0
M  V30 17816 O 171.259 -2.94958 2.21722 0
M  V30 17817 N 171.299 -2.30408 -0.165238 0
M  V30 17818 C 171.399 -2.66048 -1.25118 0
M  V30 17819 N 171.349 -1.70787 -2.16813 0
M  V30 17820 C 171.549 -4.02732 -1.64413 0
M  V30 17821 C 171.599 -4.9488 -0.63991 0
M  V30 17822 H 174.339 -8.65017 0.777072 0
M  V30 17823 H 174.609 -6.90173 0.474152 0
M  V30 17824 H 173.742 -7.66642 2.79492 0
M  V30 17825 H 171.087 -5.16254 2.65229 0
M  V30 17826 H 170.807 -7.06532 0.329431 0
M  V30 17827 H 169.816 -6.91023 1.82047 0
M  V30 17828 H 171.65 -8.90873 1.62657 0
M  V30 17829 H 171.722 -6.00104 -0.892197 0
M  V30 17830 H 171.62 -4.31733 -2.69229 0
M  V30 17831 H 171.232 -0.724835 -1.8844 0
M  V30 17832 H 171.428 -1.94716 -3.16734 0
M  V30 17833 P 169.779 -8.03563 3.84925 0
M  V30 17834 O 169.559 -8.85821 5.0569 0
M  V30 17835 O 168.989 -8.41101 2.65469 0
M  V30 17836 O 169.529 -6.4965 4.18908 0
M  V30 17837 C 170.469 -5.81037 5.05421 0
M  V30 17838 C 169.739 -4.78366 5.89277 0
M  V30 17839 O 169.529 -3.58302 5.08433 0
M  V30 17840 C 168.339 -5.17448 6.36119 0
M  V30 17841 O 167.949 -4.45271 7.53232 0
M  V30 17842 C 167.459 -4.74639 5.19936 0
M  V30 17843 C 168.169 -3.49432 4.70418 0
M  V30 17844 N 168.119 -3.31776 3.22945 0
M  V30 17845 H 170.958 -6.54213 5.71376 0
M  V30 17846 H 171.23 -5.30492 4.44033 0
M  V30 17847 H 170.362 -4.55889 6.76652 0
M  V30 17848 P 166.399 -4.23843 7.83734 0
M  V30 17849 O 166.179 -4.19407 9.29784 0
M  V30 17850 O 165.609 -5.24426 7.09156 0
M  V30 17851 O 166.149 -2.7935 7.20758 0
M  V30 17852 C 167.089 -1.72945 7.50224 0
M  V30 17853 C 166.359 -0.406376 7.57911 0
M  V30 17854 O 166.149 0.0897726 6.21935 0
M  V30 17855 C 164.959 -0.438983 8.18724 0
M  V30 17856 O 164.569 0.825065 8.71101 0
M  V30 17857 C 164.079 -0.783689 6.99524 0
M  V30 17858 C 164.789 -0.0619086 5.85867 0
M  V30 17859 N 164.739 -0.78573 4.56183 0
M  V30 17860 C 164.589 -0.0292889 3.41887 0
M  V30 17861 O 164.499 1.18445 3.4419 0
M  V30 17862 N 164.549 -0.744061 2.23964 0
M  V30 17863 C 164.639 -2.10932 2.10362 0
M  V30 17864 C 164.789 -2.8202 3.34994 0
M  V30 17865 C 164.839 -2.15547 4.52261 0
M  V30 17866 H 167.58 -1.93379 8.46595 0
M  V30 17867 H 167.849 -1.68132 6.70852 0
M  V30 17868 H 166.982 0.289041 8.15388 0
M  V30 17869 H 164.327 0.926847 5.72749 0
M  V30 17870 H 164.048 -1.86973 6.82036 0
M  V30 17871 H 163.056 -0.403896 7.13257 0
M  V30 17872 H 164.89 -1.20585 8.97435 0
M  V30 17873 H 164.961 -2.71231 5.45042 0
M  V30 17874 P 163.019 1.17771 8.83182 0
M  V30 17875 O 162.799 2.07206 9.98732 0
M  V30 17876 O 162.229 -0.0743816 8.81969 0
M  V30 17877 O 162.769 1.97652 7.47304 0
M  V30 17878 C 163.709 3.01133 7.08783 0
M  V30 17879 C 162.979 4.12613 6.37049 0
M  V30 17880 O 162.769 3.72827 4.97879 0
M  V30 17881 C 161.579 4.45085 6.88694 0
M  V30 17882 O 161.189 5.7877 6.5624 0
M  V30 17883 C 160.699 3.47817 6.12078 0
M  V30 17884 C 161.409 3.39414 4.77697 0
M  V30 17885 N 161.359 2.04199 4.15538 0
M  V30 17886 C 161.439 0.821545 4.76977 0
M  V30 17887 N 161.369 -0.1794 3.94592 0
M  V30 17888 C 161.219 0.419121 2.70776 0
M  V30 17889 C 161.089 -0.109072 1.40577 0
M  V30 17890 N 161.079 -1.4104 1.1344 0
M  V30 17891 N 160.969 0.764381 0.39411 0
M  V30 17892 C 160.979 2.06587 0.664135 0
M  V30 17893 N 161.099 2.67948 1.82153 0
M  V30 17894 C 161.219 1.77942 2.8147 0
M  V30 17895 H 164.198 3.41248 7.98759 0
M  V30 17896 H 164.47 2.57728 6.42 0
M  V30 17897 H 163.602 5.02657 6.42673 0
M  V30 17898 H 160.947 4.11708 4.08956 0
M  V30 17899 H 160.667 2.49626 6.61679 0
M  V30 17900 H 159.676 3.8662 6.00862 0
M  V30 17901 H 161.51 4.29991 7.97006 0
M  V30 17902 H 161.551 0.702451 5.84696 0
M  V30 17903 H 161.17 -2.09647 1.89651 0
M  V30 17904 H 160.981 -1.73358 0.160575 0
M  V30 17905 H 160.873 2.71695 -0.195838 0
M  V30 17906 P 159.639 6.144 6.45285 0
M  V30 17907 O 159.419 7.54673 6.86199 0
M  V30 17908 O 158.849 5.12391 7.179 0
M  V30 17909 O 159.389 5.99158 4.88404 0
M  V30 17910 C 160.329 6.60234 3.96415 0
M  V30 17911 C 159.599 7.08259 2.72856 0
M  V30 17912 O 159.389 5.9427 1.83651 0
M  V30 17913 C 158.199 7.64886 2.9555 0
M  V30 17914 O 157.809 8.53963 1.90717 0
M  V30 17915 C 157.319 6.4116 2.90739 0
M  V30 17916 C 158.029 5.55375 1.86963 0
M  V30 17917 N 157.979 4.09664 2.15742 0
M  V30 17918 C 158.059 3.44381 3.37233 0
M  V30 17919 N 157.979 2.14131 3.28347 0
M  V30 17920 C 157.839 1.90247 1.91588 0
M  V30 17921 C 157.709 0.683992 1.20892 0
M  V30 17922 N 157.589 0.903396 -0.173998 0
M  V30 17923 C 157.589 2.14171 -0.784879 0
M  V30 17924 N 157.459 2.1435 -2.11317 0
M  V30 17925 N 157.719 3.28784 -0.119316 0
M  V30 17926 C 157.839 3.0977 1.22194 0
M  V30 17927 H 160.818 7.45574 4.45629 0
M  V30 17928 H 161.09 5.86232 3.67314 0
M  V30 17929 H 160.222 7.84412 2.24479 0
M  V30 17930 P 156.259 8.7635 1.60911 0
M  V30 17931 O 156.039 10.1388 1.11561 0
M  V30 17932 O 155.469 8.36503 2.79617 0
M  V30 17933 O 156.009 7.71806 0.42951 0
M  V30 17934 C 156.949 7.67148 -0.673689 0
M  V30 17935 C 156.219 7.33374 -1.95559 0
M  V30 17936 O 156.009 5.88721 -2.00726 0
M  V30 17937 C 154.819 7.92526 -2.10483 0
M  V30 17938 O 154.429 8.02971 -3.47653 0
M  V30 17939 C 153.939 6.89602 -1.41652 0
M  V30 17940 C 154.649 5.59201 -1.75185 0
M  V30 17941 N 154.599 4.58235 -0.662552 0
M  V30 17942 H 157.438 8.65116 -0.777161 0
M  V30 17943 H 157.71 6.90173 -0.474152 0
M  V30 17944 H 156.842 7.66548 -2.79458 0
M  V30 17945 P 152.879 8.03563 -3.84925 0
M  V30 17946 O 152.659 8.85821 -5.0569 0
M  V30 17947 O 152.089 8.41101 -2.65469 0
M  V30 17948 O 152.629 6.4965 -4.18908 0
M  V30 17949 C 153.569 5.81037 -5.05421 0
M  V30 17950 C 152.839 4.78366 -5.89277 0
M  V30 17951 O 152.629 3.58302 -5.08433 0
M  V30 17952 C 151.439 5.17448 -6.36119 0
M  V30 17953 O 151.049 4.45271 -7.53232 0
M  V30 17954 C 150.559 4.74639 -5.19936 0
M  V30 17955 C 151.269 3.49432 -4.70418 0
M  V30 17956 N 151.219 3.31776 -3.22945 0
M  V30 17957 H 154.058 6.54213 -5.71376 0
M  V30 17958 H 154.33 5.30492 -4.44033 0
M  V30 17959 H 153.462 4.55889 -6.76652 0
M  V30 17960 P 149.499 4.23843 -7.83734 0
M  V30 17961 O 149.279 4.19407 -9.29784 0
M  V30 17962 O 148.709 5.24426 -7.09156 0
M  V30 17963 O 149.249 2.7935 -7.20758 0
M  V30 17964 C 150.189 1.72945 -7.50224 0
M  V30 17965 C 149.459 0.406376 -7.57911 0
M  V30 17966 O 149.249 -0.0897726 -6.21935 0
M  V30 17967 C 148.059 0.438983 -8.18724 0
M  V30 17968 O 147.669 -0.825065 -8.71101 0
M  V30 17969 C 147.179 0.783689 -6.99524 0
M  V30 17970 C 147.889 0.0619086 -5.85867 0
M  V30 17971 N 147.839 0.78573 -4.56183 0
M  V30 17972 C 147.689 0.0292889 -3.41887 0
M  V30 17973 O 147.599 -1.18445 -3.4419 0
M  V30 17974 N 147.649 0.744061 -2.23964 0
M  V30 17975 C 147.739 2.10932 -2.10362 0
M  V30 17976 C 147.889 2.8202 -3.34994 0
M  V30 17977 C 147.939 2.15547 -4.52261 0
M  V30 17978 H 150.68 1.93379 -8.46595 0
M  V30 17979 H 150.949 1.68132 -6.70852 0
M  V30 17980 H 150.082 -0.289041 -8.15388 0
M  V30 17981 H 147.427 -0.926847 -5.72749 0
M  V30 17982 H 147.148 1.86973 -6.82036 0
M  V30 17983 H 146.156 0.403896 -7.13257 0
M  V30 17984 H 147.99 1.20585 -8.97435 0
M  V30 17985 H 148.061 2.71231 -5.45042 0
M  V30 17986 P 146.119 -1.17771 -8.83182 0
M  V30 17987 O 145.899 -2.07206 -9.98732 0
M  V30 17988 O 145.329 0.0743816 -8.81969 0
M  V30 17989 O 145.869 -1.97652 -7.47304 0
M  V30 17990 C 146.809 -3.01133 -7.08783 0
M  V30 17991 C 146.079 -4.12613 -6.37049 0
M  V30 17992 O 145.869 -3.72827 -4.97879 0
M  V30 17993 C 144.679 -4.45085 -6.88694 0
M  V30 17994 O 144.289 -5.7877 -6.5624 0
M  V30 17995 C 143.799 -3.47817 -6.12078 0
M  V30 17996 C 144.509 -3.39414 -4.77697 0
M  V30 17997 N 144.459 -2.04615 -4.15333 0
M  V30 17998 H 147.298 -3.41248 -7.98759 0
M  V30 17999 H 147.57 -2.5837 -6.41742 0
M  V30 18000 H 146.702 -5.02657 -6.42673 0
M  V30 18001 P 142.739 -6.144 -6.45285 0
M  V30 18002 O 142.519 -7.54673 -6.86199 0
M  V30 18003 O 141.949 -5.12391 -7.179 0
M  V30 18004 O 142.489 -5.99236 -4.88467 0
M  V30 18005 C 143.429 -6.60234 -3.96415 0
M  V30 18006 C 142.699 -7.08079 -2.736 0
M  V30 18007 O 142.489 -5.94365 -1.8368 0
M  V30 18008 C 141.299 -7.64886 -2.9555 0
M  V30 18009 O 140.909 -8.5406 -1.90739 0
M  V30 18010 C 140.419 -6.4116 -2.90739 0
M  V30 18011 C 141.129 -5.55375 -1.86963 0
M  V30 18012 N 141.079 -4.09664 -2.15742 0
M  V30 18013 C 140.929 -3.22231 -1.08477 0
M  V30 18014 O 140.839 -3.68951 0.0600489 0
M  V30 18015 N 140.879 -1.76692 -1.48799 0
M  V30 18016 C 140.979 -1.41695 -2.57602 0
M  V30 18017 N 140.929 -0.107296 -2.75791 0
M  V30 18018 C 141.129 -2.29178 -3.69733 0
M  V30 18019 C 141.179 -3.62753 -3.42653 0
M  V30 18020 H 143.919 -7.45488 -4.45578 0
M  V30 18021 H 144.189 -5.86232 -3.67314 0
M  V30 18022 H 143.322 -7.84508 -2.24507 0
M  V30 18023 H 140.667 -5.73556 -0.888715 0
M  V30 18024 H 140.387 -5.9096 -3.88638 0
M  V30 18025 H 139.396 -6.66053 -2.58894 0
M  V30 18026 H 141.23 -8.16339 -3.92049 0
M  V30 18027 H 141.302 -4.33052 -4.24913 0
M  V30 18028 H 141.2 -1.9103 -4.71577 0
M  V30 18029 H 140.812 0.521221 -1.95056 0
M  V30 18030 H 141.008 0.286429 -3.70695 0
M  V30 18031 P 139.359 -8.7635 -1.60911 0
M  V30 18032 O 139.139 -10.1388 -1.11561 0
M  V30 18033 O 138.569 -8.36503 -2.79617 0
M  V30 18034 O 139.109 -7.71806 -0.42951 0
M  V30 18035 C 140.049 -7.67148 0.673689 0
M  V30 18036 C 139.319 -7.33374 1.95559 0
M  V30 18037 O 139.109 -5.88721 2.00726 0
M  V30 18038 C 137.919 -7.92526 2.10483 0
M  V30 18039 O 137.529 -8.02971 3.47653 0
M  V30 18040 C 137.039 -6.89602 1.41652 0
M  V30 18041 C 137.749 -5.59201 1.75185 0
M  V30 18042 N 137.699 -4.58235 0.662552 0
M  V30 18043 H 140.538 -8.65116 0.777161 0
M  V30 18044 H 140.81 -6.90173 0.474152 0
M  V30 18045 H 139.942 -7.66548 2.79458 0
M  V30 18046 P 135.979 -8.03563 3.84925 0
M  V30 18047 O 135.759 -8.85821 5.0569 0
M  V30 18048 O 135.189 -8.41101 2.65469 0
M  V30 18049 O 135.729 -6.4965 4.18908 0
M  V30 18050 C 136.669 -5.80886 5.05289 0
M  V30 18051 C 135.939 -4.78366 5.89277 0
M  V30 18052 O 135.729 -3.58302 5.08433 0
M  V30 18053 C 134.539 -5.16748 6.36559 0
M  V30 18054 O 134.149 -4.45271 7.53232 0
M  V30 18055 C 133.659 -4.74572 5.19863 0
M  V30 18056 C 134.369 -3.49373 4.70338 0
M  V30 18057 N 134.319 -3.31704 3.22876 0
M  V30 18058 C 134.169 -2.03326 2.74871 0
M  V30 18059 O 134.079 -1.06486 3.48076 0
M  V30 18060 N 134.129 -1.91838 1.37456 0
M  V30 18061 C 134.219 -2.94295 0.462035 0
M  V30 18062 O 134.169 -2.71763 -0.752928 0
M  V30 18063 C 134.369 -4.25064 1.05249 0
M  V30 18064 C 134.479 -5.39815 0.095697 0
M  V30 18065 C 134.419 -4.40214 2.39192 0
M  V30 18066 H 137.16 -6.54063 5.71245 0
M  V30 18067 H 137.429 -5.30339 4.43905 0
M  V30 18068 H 136.562 -4.55889 6.76652 0
M  V30 18069 H 133.907 -2.6167 5.17842 0
M  V30 18070 H 133.628 -5.52155 4.41878 0
M  V30 18071 H 132.636 -4.51918 5.53297 0
M  V30 18072 H 134.47 -6.25055 6.55162 0
M  V30 18073 H 134.541 -5.39798 2.81523 0
M  V30 18074 H 133.511 -5.91593 0.0279582 0
M  V30 18075 H 135.248 -6.10038 0.450573 0
M  V30 18076 H 134.76 -5.02007 -0.89937 0
M  V30 18077 H 134.024 -0.995326 1.00435 0
M  V30 18078 P 132.599 -4.23843 7.83734 0
M  V30 18079 O 132.379 -4.19407 9.29784 0
M  V30 18080 O 131.809 -5.24426 7.09156 0
M  V30 18081 O 132.349 -2.79386 7.20852 0
M  V30 18082 C 133.289 -1.7299 7.50419 0
M  V30 18083 C 132.559 -0.41401 7.5797 0
M  V30 18084 O 132.349 0.089787 6.22035 0
M  V30 18085 C 131.159 -0.447224 8.1878 0
M  V30 18086 O 130.769 0.825159 8.71201 0
M  V30 18087 C 130.279 -0.783801 6.99623 0
M  V30 18088 C 130.989 -0.0619192 5.85967 0
M  V30 18089 N 130.939 -0.7859 4.56281 0
M  V30 18090 C 130.789 -0.0359258 3.39981 0
M  V30 18091 O 130.699 1.19723 3.49038 0
M  V30 18092 N 130.739 -0.869151 2.14025 0
M  V30 18093 C 130.839 -2.01207 2.14363 0
M  V30 18094 N 130.789 -2.58978 0.954287 0
M  V30 18095 C 130.989 -2.80817 3.32215 0
M  V30 18096 C 131.039 -2.13785 4.50884 0
M  V30 18097 H 133.779 -1.93401 8.46693 0
M  V30 18098 H 134.049 -1.68181 6.71046 0
M  V30 18099 H 133.182 0.289076 8.15488 0
M  V30 18100 H 130.527 0.927166 5.72947 0
M  V30 18101 H 130.247 -1.87 6.82132 0
M  V30 18102 H 129.256 -0.404009 7.13457 0
M  V30 18103 H 131.09 -1.20599 8.97534 0
M  V30 18104 H 131.162 -2.70295 5.43162 0
M  V30 18105 H 131.06 -3.89465 3.27406 0
M  V30 18106 H 130.672 -2.01616 0.107046 0
M  V30 18107 H 130.868 -3.61403 0.873101 0
M  V30 18108 P 129.219 1.17771 8.83182 0
M  V30 18109 O 128.999 2.07206 9.98732 0
M  V30 18110 O 128.429 -0.0743816 8.81969 0
M  V30 18111 O 128.969 1.97652 7.47304 0
M  V30 18112 C 129.909 3.01133 7.08783 0
M  V30 18113 C 129.179 4.12613 6.37049 0
M  V30 18114 O 128.969 3.72827 4.97879 0
M  V30 18115 C 127.779 4.45085 6.88694 0
M  V30 18116 O 127.389 5.7877 6.5624 0
M  V30 18117 C 126.899 3.47817 6.12078 0
M  V30 18118 C 127.609 3.39414 4.77697 0
M  V30 18119 N 127.559 2.04615 4.15333 0
M  V30 18120 H 130.398 3.41248 7.98759 0
M  V30 18121 H 130.67 2.5837 6.41742 0
M  V30 18122 H 129.802 5.02657 6.42673 0
M  V30 18123 P 125.839 6.144 6.45285 0
M  V30 18124 O 125.619 7.54673 6.86199 0
M  V30 18125 O 125.049 5.12391 7.179 0
M  V30 18126 O 125.589 5.99158 4.88404 0
M  V30 18127 C 126.529 6.60234 3.96415 0
M  V30 18128 C 125.799 7.08259 2.72856 0
M  V30 18129 O 125.589 5.9427 1.83651 0
M  V30 18130 C 124.399 7.64886 2.9555 0
M  V30 18131 O 124.009 8.53963 1.90717 0
M  V30 18132 C 123.519 6.4116 2.90739 0
M  V30 18133 C 124.229 5.55375 1.86963 0
M  V30 18134 N 124.179 4.09664 2.15742 0
M  V30 18135 H 127.018 7.45574 4.45629 0
M  V30 18136 H 127.29 5.86232 3.67314 0
M  V30 18137 H 126.422 7.84412 2.24479 0
M  V30 18138 P 122.459 8.7635 1.60911 0
M  V30 18139 O 122.239 10.1388 1.11561 0
M  V30 18140 O 121.669 8.36503 2.79617 0
M  V30 18141 O 122.209 7.71806 0.42951 0
M  V30 18142 C 123.149 7.67148 -0.673689 0
M  V30 18143 C 122.419 7.33374 -1.95559 0
M  V30 18144 O 122.209 5.88721 -2.00726 0
M  V30 18145 C 121.019 7.92526 -2.10483 0
M  V30 18146 O 120.629 8.02971 -3.47653 0
M  V30 18147 C 120.139 6.89602 -1.41652 0
M  V30 18148 C 120.849 5.59201 -1.75185 0
M  V30 18149 N 120.799 4.58235 -0.662552 0
M  V30 18150 H 123.638 8.65116 -0.777161 0
M  V30 18151 H 123.91 6.90173 -0.474152 0
M  V30 18152 H 123.042 7.66548 -2.79458 0
M  V30 18153 P 119.079 8.03563 -3.84925 0
M  V30 18154 O 118.859 8.85821 -5.0569 0
M  V30 18155 O 118.289 8.41101 -2.65469 0
M  V30 18156 O 118.829 6.4965 -4.18908 0
M  V30 18157 C 119.769 5.81037 -5.05421 0
M  V30 18158 C 119.039 4.78366 -5.89277 0
M  V30 18159 O 118.829 3.58302 -5.08433 0
M  V30 18160 C 117.639 5.17448 -6.36119 0
M  V30 18161 O 117.249 4.45271 -7.53232 0
M  V30 18162 C 116.759 4.74639 -5.19936 0
M  V30 18163 C 117.469 3.49432 -4.70418 0
M  V30 18164 N 117.419 3.32099 -3.22613 0
M  V30 18165 H 120.258 6.54213 -5.71376 0
M  V30 18166 H 120.53 5.30936 -4.43503 0
M  V30 18167 H 119.662 4.55889 -6.76652 0
M  V30 18168 H 117.007 2.61715 -5.17932 0
M  V30 18169 H 116.727 5.52155 -4.41878 0
M  V30 18170 H 115.736 4.51981 -5.53374 0
M  V30 18171 H 117.57 6.25124 -6.55234 0
M  V30 18172 P 115.699 4.23843 -7.83734 0
M  V30 18173 O 115.479 4.19407 -9.29784 0
M  V30 18174 O 114.909 5.24426 -7.09156 0
M  V30 18175 O 115.449 2.7935 -7.20758 0
M  V30 18176 C 116.389 1.7299 -7.50419 0
M  V30 18177 C 115.659 0.406376 -7.57911 0
M  V30 18178 O 115.449 -0.0897726 -6.21935 0
M  V30 18179 C 114.259 0.447224 -8.1878 0
M  V30 18180 O 113.869 -0.825065 -8.71101 0
M  V30 18181 C 113.379 0.783801 -6.99623 0
M  V30 18182 C 114.089 0.0619192 -5.85967 0
M  V30 18183 N 114.039 0.7859 -4.56281 0
M  V30 18184 C 114.119 2.14308 -4.31736 0
M  V30 18185 N 114.039 2.46106 -3.05116 0
M  V30 18186 C 113.899 1.23422 -2.4014 0
M  V30 18187 C 113.769 0.938381 -1.02409 0
M  V30 18188 O 113.749 1.70876 -0.0650402 0
M  V30 18189 N 113.649 -0.444647 -0.805413 0
M  V30 18190 C 113.649 -1.40829 -1.79435 0
M  V30 18191 N 113.519 -2.67213 -1.38558 0
M  V30 18192 N 113.779 -1.12947 -3.09005 0
M  V30 18193 C 113.899 0.204887 -3.32369 0
M  V30 18194 H 116.878 1.93423 -8.4679 0
M  V30 18195 H 117.15 1.68181 -6.71046 0
M  V30 18196 H 116.282 -0.289041 -8.15388 0
M  V30 18197 H 113.627 -0.927166 -5.72947 0
M  V30 18198 H 113.347 1.87 -6.82132 0
M  V30 18199 H 112.356 0.404009 -7.13457 0
M  V30 18200 H 114.19 1.20612 -8.97633 0
M  V30 18201 H 114.239 2.88284 -5.10874 0
M  V30 18202 H 113.557 -0.755087 0.140242 0
M  V30 18203 H 113.52 -3.43967 -2.0729 0
M  V30 18204 H 113.419 -2.88096 -0.380644 0
M  V30 18205 P 112.319 -1.17771 -8.83182 0
M  V30 18206 O 112.099 -2.07206 -9.98732 0
M  V30 18207 O 111.529 0.0743816 -8.81969 0
M  V30 18208 O 112.069 -1.97652 -7.47304 0
M  V30 18209 C 113.009 -3.01133 -7.08783 0
M  V30 18210 C 112.279 -4.12613 -6.37049 0
M  V30 18211 O 112.069 -3.72827 -4.97879 0
M  V30 18212 C 110.879 -4.45085 -6.88694 0
M  V30 18213 O 110.489 -5.7877 -6.5624 0
M  V30 18214 C 109.999 -3.47817 -6.12078 0
M  V30 18215 C 110.709 -3.39414 -4.77697 0
M  V30 18216 N 110.659 -2.04199 -4.15538 0
M  V30 18217 H 113.498 -3.41248 -7.98759 0
M  V30 18218 H 113.77 -2.57728 -6.42 0
M  V30 18219 H 112.902 -5.02657 -6.42673 0
M  V30 18220 H 110.247 -4.11708 -4.08956 0
M  V30 18221 H 109.967 -2.49626 -6.61679 0
M  V30 18222 H 108.976 -3.8662 -6.00862 0
M  V30 18223 H 110.81 -4.29991 -7.97006 0
M  V30 18224 P 108.939 -6.144 -6.45285 0
M  V30 18225 O 108.719 -7.54673 -6.86199 0
M  V30 18226 O 108.149 -5.12391 -7.179 0
M  V30 18227 O 108.689 -5.99158 -4.88404 0
M  V30 18228 C 109.629 -6.60234 -3.96415 0
M  V30 18229 C 108.899 -7.08259 -2.72856 0
M  V30 18230 O 108.689 -5.9427 -1.83651 0
M  V30 18231 C 107.499 -7.64886 -2.9555 0
M  V30 18232 O 107.109 -8.53963 -1.90717 0
M  V30 18233 C 106.619 -6.4116 -2.90739 0
M  V30 18234 C 107.329 -5.55375 -1.86963 0
M  V30 18235 N 107.279 -4.09448 -2.16152 0
M  V30 18236 H 110.118 -7.45574 -4.45629 0
M  V30 18237 H 110.39 -5.85864 -3.679 0
M  V30 18238 H 109.522 -7.84412 -2.24479 0
M  V30 18239 H 106.867 -5.73457 -0.888562 0
M  V30 18240 H 106.587 -5.90877 -3.88583 0
M  V30 18241 H 105.596 -6.6596 -2.58858 0
M  V30 18242 H 107.43 -8.16339 -3.92049 0
M  V30 18243 P 105.559 -8.7635 -1.60911 0
M  V30 18244 O 105.339 -10.1388 -1.11561 0
M  V30 18245 O 104.769 -8.36503 -2.79617 0
M  V30 18246 O 105.309 -7.71806 -0.42951 0
M  V30 18247 C 106.249 -7.67148 0.673689 0
M  V30 18248 C 105.519 -7.33374 1.95559 0
M  V30 18249 O 105.309 -5.88721 2.00726 0
M  V30 18250 C 104.119 -7.92526 2.10483 0
M  V30 18251 O 103.729 -8.02971 3.47653 0
M  V30 18252 C 103.239 -6.89602 1.41652 0
M  V30 18253 C 103.949 -5.59201 1.75185 0
M  V30 18254 N 103.899 -4.58235 0.662552 0
M  V30 18255 H 106.738 -8.65116 0.777161 0
M  V30 18256 H 107.01 -6.90173 0.474152 0
M  V30 18257 H 106.142 -7.66548 2.79458 0
M  V30 18258 P 102.179 -8.03563 3.84925 0
M  V30 18259 O 101.959 -8.85821 5.0569 0
M  V30 18260 O 101.389 -8.41101 2.65469 0
M  V30 18261 O 101.929 -6.4965 4.18908 0
M  V30 18262 C 102.869 -5.81037 5.05421 0
M  V30 18263 C 102.139 -4.78366 5.89277 0
M  V30 18264 O 101.929 -3.58302 5.08433 0
M  V30 18265 C 100.739 -5.17448 6.36119 0
M  V30 18266 O 100.349 -4.45271 7.53232 0
M  V30 18267 C 99.8594 -4.74639 5.19936 0
M  V30 18268 C 100.569 -3.49432 4.70418 0
M  V30 18269 N 100.519 -3.31776 3.22945 0
M  V30 18270 H 103.358 -6.54213 5.71376 0
M  V30 18271 H 103.63 -5.30492 4.44033 0
M  V30 18272 H 102.762 -4.55889 6.76652 0
M  V30 18273 P 98.7994 -4.23843 7.83734 0
M  V30 18274 O 98.5794 -4.19407 9.29784 0
M  V30 18275 O 98.0094 -5.24426 7.09156 0
M  V30 18276 O 98.5494 -2.7935 7.20758 0
M  V30 18277 C 99.4894 -1.72945 7.50224 0
M  V30 18278 C 98.7594 -0.406376 7.57911 0
M  V30 18279 O 98.5494 0.0897726 6.21935 0
M  V30 18280 C 97.3594 -0.438983 8.18724 0
M  V30 18281 O 96.9694 0.825065 8.71101 0
M  V30 18282 C 96.4794 -0.783689 6.99524 0
M  V30 18283 C 97.1894 -0.0619086 5.85867 0
M  V30 18284 N 97.1394 -0.78573 4.56183 0
M  V30 18285 C 96.9894 -0.0292889 3.41887 0
M  V30 18286 O 96.8994 1.18445 3.4419 0
M  V30 18287 N 96.9494 -0.744061 2.23964 0
M  V30 18288 C 97.0394 -2.10932 2.10362 0
M  V30 18289 C 97.1894 -2.8202 3.34994 0
M  V30 18290 C 97.2394 -2.15547 4.52261 0
M  V30 18291 H 99.9804 -1.93379 8.46595 0
M  V30 18292 H 100.249 -1.68132 6.70852 0
M  V30 18293 H 99.3824 0.289041 8.15388 0
M  V30 18294 H 96.7274 0.926847 5.72749 0
M  V30 18295 H 96.4484 -1.86973 6.82036 0
M  V30 18296 H 95.4564 -0.403896 7.13257 0
M  V30 18297 H 97.2904 -1.20585 8.97435 0
M  V30 18298 H 97.3614 -2.71231 5.45042 0
M  V30 18299 P 95.4195 1.17771 8.83182 0
M  V30 18300 O 95.1995 2.07206 9.98732 0
M  V30 18301 O 94.6295 -0.0743816 8.81969 0
M  V30 18302 O 95.1695 1.97652 7.47304 0
M  V30 18303 C 96.1095 3.01133 7.08783 0
M  V30 18304 C 95.3795 4.12613 6.37049 0
M  V30 18305 O 95.1695 3.72827 4.97879 0
M  V30 18306 C 93.9795 4.45085 6.88694 0
M  V30 18307 O 93.5895 5.7877 6.5624 0
M  V30 18308 C 93.0995 3.47817 6.12078 0
M  V30 18309 C 93.8095 3.39414 4.77697 0
M  V30 18310 N 93.7595 2.04615 4.15333 0
M  V30 18311 H 96.5985 3.41248 7.98759 0
M  V30 18312 H 96.8705 2.5837 6.41742 0
M  V30 18313 H 96.0025 5.02657 6.42673 0
M  V30 18314 P 92.0395 6.144 6.45285 0
M  V30 18315 O 91.8195 7.54673 6.86199 0
M  V30 18316 O 91.2495 5.12391 7.179 0
M  V30 18317 O 91.7895 5.99158 4.88404 0
M  V30 18318 C 92.7295 6.60234 3.96415 0
M  V30 18319 C 91.9995 7.08259 2.72856 0
M  V30 18320 O 91.7895 5.9427 1.83651 0
M  V30 18321 C 90.5995 7.64886 2.9555 0
M  V30 18322 O 90.2095 8.53963 1.90717 0
M  V30 18323 C 89.7195 6.4116 2.90739 0
M  V30 18324 C 90.4295 5.55375 1.86963 0
M  V30 18325 N 90.3795 4.09664 2.15742 0
M  V30 18326 H 93.2185 7.45574 4.45629 0
M  V30 18327 H 93.4905 5.86232 3.67314 0
M  V30 18328 H 92.6225 7.84412 2.24479 0
M  V30 18329 P 88.6595 8.7635 1.60911 0
M  V30 18330 O 88.4395 10.1388 1.11561 0
M  V30 18331 O 87.8695 8.36503 2.79617 0
M  V30 18332 O 88.4095 7.71806 0.42951 0
M  V30 18333 C 89.3495 7.67148 -0.673689 0
M  V30 18334 C 88.6195 7.33374 -1.95559 0
M  V30 18335 O 88.4095 5.88721 -2.00726 0
M  V30 18336 C 87.2195 7.92526 -2.10483 0
M  V30 18337 O 86.8295 8.02971 -3.47653 0
M  V30 18338 C 86.3395 6.89602 -1.41652 0
M  V30 18339 C 87.0495 5.59201 -1.75185 0
M  V30 18340 N 86.9995 4.58235 -0.662552 0
M  V30 18341 H 89.8385 8.65116 -0.777161 0
M  V30 18342 H 90.1105 6.90173 -0.474152 0
M  V30 18343 H 89.2425 7.66548 -2.79458 0
M  V30 18344 P 85.2795 8.03563 -3.84925 0
M  V30 18345 O 85.0595 8.85821 -5.0569 0
M  V30 18346 O 84.4895 8.41101 -2.65469 0
M  V30 18347 O 85.0295 6.4965 -4.18908 0
M  V30 18348 C 85.9695 5.81037 -5.05421 0
M  V30 18349 C 85.2395 4.78366 -5.89277 0
M  V30 18350 O 85.0295 3.58302 -5.08433 0
M  V30 18351 C 83.8395 5.17448 -6.36119 0
M  V30 18352 O 83.4495 4.45271 -7.53232 0
M  V30 18353 C 82.9595 4.74639 -5.19936 0
M  V30 18354 C 83.6695 3.49432 -4.70418 0
M  V30 18355 N 83.6195 3.32099 -3.22613 0
M  V30 18356 H 86.4585 6.54213 -5.71376 0
M  V30 18357 H 86.7305 5.30936 -4.43503 0
M  V30 18358 H 85.8625 4.55889 -6.76652 0
M  V30 18359 H 83.2075 2.61715 -5.17932 0
M  V30 18360 H 82.9275 5.52155 -4.41878 0
M  V30 18361 H 81.9365 4.51981 -5.53374 0
M  V30 18362 H 83.7705 6.25124 -6.55234 0
M  V30 18363 P 81.8995 4.23843 -7.83734 0
M  V30 18364 O 81.6795 4.19407 -9.29784 0
M  V30 18365 O 81.1095 5.24426 -7.09156 0
M  V30 18366 O 81.6495 2.7935 -7.20758 0
M  V30 18367 C 82.5895 1.72945 -7.50224 0
M  V30 18368 C 81.8595 0.406376 -7.57911 0
M  V30 18369 O 81.6495 -0.0897726 -6.21935 0
M  V30 18370 C 80.4595 0.438983 -8.18724 0
M  V30 18371 O 80.0695 -0.825065 -8.71101 0
M  V30 18372 C 79.5795 0.783689 -6.99524 0
M  V30 18373 C 80.2895 0.0619086 -5.85867 0
M  V30 18374 N 80.2395 0.78573 -4.56183 0
M  V30 18375 C 80.0895 0.0292889 -3.41887 0
M  V30 18376 O 79.9995 -1.18445 -3.4419 0
M  V30 18377 N 80.0495 0.744061 -2.23964 0
M  V30 18378 C 80.1395 2.10932 -2.10362 0
M  V30 18379 O 80.0895 2.64117 -0.98825 0
M  V30 18380 C 80.2895 2.8202 -3.34994 0
M  V30 18381 C 80.3995 4.31095 -3.25037 0
M  V30 18382 C 80.3395 2.15547 -4.52261 0
M  V30 18383 H 83.0805 1.93379 -8.46595 0
M  V30 18384 H 83.3495 1.68132 -6.70852 0
M  V30 18385 H 82.4825 -0.289041 -8.15388 0
M  V30 18386 H 79.8275 -0.926847 -5.72749 0
M  V30 18387 H 79.5485 1.86973 -6.82036 0
M  V30 18388 H 78.5565 0.403896 -7.13257 0
M  V30 18389 H 80.3905 1.20585 -8.97435 0
M  V30 18390 H 80.4615 2.71231 -5.45042 0
M  V30 18391 H 79.4315 4.76966 -3.49992 0
M  V30 18392 H 81.1685 4.67047 -3.95024 0
M  V30 18393 H 80.6805 4.58996 -2.22312 0
M  V30 18394 H 79.9445 0.214893 -1.39758 0
M  V30 18395 P 78.5196 -1.17771 -8.83182 0
M  V30 18396 O 78.2996 -2.07206 -9.98732 0
M  V30 18397 O 77.7296 0.0743816 -8.81969 0
M  V30 18398 O 78.2696 -1.97652 -7.47304 0
M  V30 18399 C 79.2096 -3.01133 -7.08783 0
M  V30 18400 C 78.4796 -4.12613 -6.37049 0
M  V30 18401 O 78.2696 -3.72827 -4.97879 0
M  V30 18402 C 77.0796 -4.45085 -6.88694 0
M  V30 18403 O 76.6896 -5.7877 -6.5624 0
M  V30 18404 C 76.1996 -3.47817 -6.12078 0
M  V30 18405 C 76.9096 -3.39414 -4.77697 0
M  V30 18406 N 76.8596 -2.04199 -4.15538 0
M  V30 18407 H 79.6986 -3.41248 -7.98759 0
M  V30 18408 H 79.9706 -2.57728 -6.42 0
M  V30 18409 H 79.1026 -5.02657 -6.42673 0
M  V30 18410 H 76.4476 -4.11708 -4.08956 0
M  V30 18411 H 76.1676 -2.49626 -6.61679 0
M  V30 18412 H 75.1766 -3.8662 -6.00862 0
M  V30 18413 H 77.0106 -4.29991 -7.97006 0
M  V30 18414 P 75.1396 -6.144 -6.45285 0
M  V30 18415 O 74.9196 -7.54673 -6.86199 0
M  V30 18416 O 74.3496 -5.12391 -7.179 0
M  V30 18417 O 74.8896 -5.99158 -4.88404 0
M  V30 18418 C 75.8296 -6.60234 -3.96415 0
M  V30 18419 C 75.0996 -7.08259 -2.72856 0
M  V30 18420 O 74.8896 -5.9427 -1.83651 0
M  V30 18421 C 73.6996 -7.64886 -2.9555 0
M  V30 18422 O 73.3096 -8.53963 -1.90717 0
M  V30 18423 C 72.8196 -6.4116 -2.90739 0
M  V30 18424 C 73.5296 -5.55375 -1.86963 0
M  V30 18425 N 73.4796 -4.09664 -2.15742 0
M  V30 18426 C 73.5596 -3.44381 -3.37233 0
M  V30 18427 N 73.4796 -2.14131 -3.28347 0
M  V30 18428 C 73.3396 -1.90247 -1.91588 0
M  V30 18429 C 73.2096 -0.683992 -1.20892 0
M  V30 18430 O 73.1896 0.46618 -1.64523 0
M  V30 18431 N 73.0896 -0.903396 0.173998 0
M  V30 18432 C 73.0896 -2.14171 0.784879 0
M  V30 18433 N 72.9596 -2.1435 2.11317 0
M  V30 18434 N 73.2196 -3.28784 0.119316 0
M  V30 18435 C 73.3396 -3.0977 -1.22194 0
M  V30 18436 H 76.3186 -7.45574 -4.45629 0
M  V30 18437 H 76.5906 -5.86232 -3.67314 0
M  V30 18438 H 75.7226 -7.84412 -2.24479 0
M  V30 18439 H 73.0676 -5.73556 -0.888715 0
M  V30 18440 H 72.7876 -5.9096 -3.88638 0
M  V30 18441 H 71.7966 -6.66053 -2.58894 0
M  V30 18442 H 73.6306 -8.16429 -3.92093 0
M  V30 18443 H 73.6796 -3.96785 -4.32043 0
M  V30 18444 H 72.9976 -0.0999567 0.761467 0
M  V30 18445 H 72.9606 -3.03436 2.63076 0
M  V30 18446 H 72.8596 -1.25228 2.62233 0
M  V30 18447 P 71.7596 -8.7635 -1.60911 0
M  V30 18448 O 71.5396 -10.1388 -1.11561 0
M  V30 18449 O 70.9696 -8.36503 -2.79617 0
M  V30 18450 O 71.5096 -7.71806 -0.42951 0
M  V30 18451 C 72.4496 -7.67148 0.673689 0
M  V30 18452 C 71.7196 -7.33374 1.95559 0
M  V30 18453 O 71.5096 -5.88721 2.00726 0
M  V30 18454 C 70.3196 -7.92526 2.10483 0
M  V30 18455 O 69.9296 -8.02971 3.47653 0
M  V30 18456 C 69.4396 -6.89602 1.41652 0
M  V30 18457 C 70.1496 -5.59201 1.75185 0
M  V30 18458 N 70.0996 -4.58301 0.657969 0
M  V30 18459 H 72.9386 -8.65116 0.777161 0
M  V30 18460 H 73.2106 -6.9022 0.46725 0
M  V30 18461 H 72.3426 -7.66548 2.79458 0
M  V30 18462 H 69.6876 -5.16165 2.65183 0
M  V30 18463 H 69.4076 -7.06433 0.329384 0
M  V30 18464 H 68.4166 -6.90926 1.82021 0
M  V30 18465 H 70.2506 -8.90873 1.62657 0
M  V30 18466 P 68.3796 -8.03563 3.84925 0
M  V30 18467 O 68.1596 -8.85821 5.0569 0
M  V30 18468 O 67.5896 -8.41101 2.65469 0
M  V30 18469 O 68.1296 -6.4965 4.18908 0
M  V30 18470 C 69.0696 -5.81037 5.05421 0
M  V30 18471 C 68.3396 -4.78366 5.89277 0
M  V30 18472 O 68.1296 -3.58302 5.08433 0
M  V30 18473 C 66.9396 -5.17448 6.36119 0
M  V30 18474 O 66.5496 -4.45271 7.53232 0
M  V30 18475 C 66.0596 -4.74639 5.19936 0
M  V30 18476 C 66.7696 -3.49432 4.70418 0
M  V30 18477 N 66.7196 -3.31776 3.22945 0
M  V30 18478 H 69.5586 -6.54213 5.71376 0
M  V30 18479 H 69.8306 -5.30492 4.44033 0
M  V30 18480 H 68.9626 -4.55889 6.76652 0
M  V30 18481 P 64.9996 -4.23843 7.83734 0
M  V30 18482 O 64.7796 -4.19407 9.29784 0
M  V30 18483 O 64.2096 -5.24426 7.09156 0
M  V30 18484 O 64.7496 -2.7935 7.20758 0
M  V30 18485 C 65.6896 -1.7299 7.50419 0
M  V30 18486 C 64.9596 -0.406376 7.57911 0
M  V30 18487 O 64.7496 0.0897726 6.21935 0
M  V30 18488 C 63.5596 -0.447224 8.1878 0
M  V30 18489 O 63.1696 0.825065 8.71101 0
M  V30 18490 C 62.6796 -0.783801 6.99623 0
M  V30 18491 C 63.3896 -0.0619192 5.85967 0
M  V30 18492 N 63.3396 -0.7859 4.56281 0
M  V30 18493 H 66.1786 -1.93423 8.4679 0
M  V30 18494 H 66.4506 -1.68181 6.71046 0
M  V30 18495 H 65.5826 0.289041 8.15388 0
M  V30 18496 P 61.6197 1.17771 8.83182 0
M  V30 18497 O 61.3997 2.07206 9.98732 0
M  V30 18498 O 60.8297 -0.0743816 8.81969 0
M  V30 18499 O 61.3697 1.97652 7.47304 0
M  V30 18500 C 62.3097 3.01133 7.08783 0
M  V30 18501 C 61.5797 4.12613 6.37049 0
M  V30 18502 O 61.3697 3.72827 4.97879 0
M  V30 18503 C 60.1797 4.45085 6.88694 0
M  V30 18504 O 59.7897 5.7877 6.5624 0
M  V30 18505 C 59.2997 3.47817 6.12078 0
M  V30 18506 C 60.0097 3.39414 4.77697 0
M  V30 18507 N 59.9597 2.04615 4.15333 0
M  V30 18508 H 62.7987 3.41248 7.98759 0
M  V30 18509 H 63.0707 2.5837 6.41742 0
M  V30 18510 H 62.2027 5.02657 6.42673 0
M  V30 18511 P 58.2397 6.144 6.45285 0
M  V30 18512 O 58.0197 7.54673 6.86199 0
M  V30 18513 O 57.4497 5.12391 7.179 0
M  V30 18514 O 57.9897 5.99236 4.88467 0
M  V30 18515 C 58.9297 6.60234 3.96415 0
M  V30 18516 C 58.1997 7.08079 2.736 0
M  V30 18517 O 57.9897 5.94365 1.8368 0
M  V30 18518 C 56.7997 7.64886 2.9555 0
M  V30 18519 O 56.4097 8.5406 1.90739 0
M  V30 18520 C 55.9197 6.4116 2.90739 0
M  V30 18521 C 56.6297 5.55375 1.86963 0
M  V30 18522 N 56.5797 4.09664 2.15742 0
M  V30 18523 C 56.4297 3.22231 1.08477 0
M  V30 18524 O 56.3397 3.68951 -0.0600489 0
M  V30 18525 N 56.3797 1.76692 1.48799 0
M  V30 18526 C 56.4797 1.41695 2.57602 0
M  V30 18527 N 56.4297 0.107296 2.75791 0
M  V30 18528 C 56.6297 2.29178 3.69733 0
M  V30 18529 C 56.6797 3.62753 3.42653 0
M  V30 18530 H 59.4197 7.45488 4.45578 0
M  V30 18531 H 59.6897 5.86232 3.67314 0
M  V30 18532 H 58.8227 7.84508 2.24507 0
M  V30 18533 H 56.1677 5.73556 0.888715 0
M  V30 18534 H 55.8877 5.9096 3.88638 0
M  V30 18535 H 54.8967 6.66053 2.58894 0
M  V30 18536 H 56.7307 8.16339 3.92049 0
M  V30 18537 H 56.8027 4.33052 4.24913 0
M  V30 18538 H 56.7007 1.9103 4.71577 0
M  V30 18539 H 56.3127 -0.521221 1.95056 0
M  V30 18540 H 56.5087 -0.286429 3.70695 0
M  V30 18541 P 54.8597 8.7635 1.60911 0
M  V30 18542 O 54.6397 10.1388 1.11561 0
M  V30 18543 O 54.0697 8.36503 2.79617 0
M  V30 18544 O 54.6097 7.71806 0.42951 0
M  V30 18545 C 55.5497 7.66948 -0.673514 0
M  V30 18546 C 54.8197 7.33374 -1.95559 0
M  V30 18547 O 54.6097 5.88721 -2.00726 0
M  V30 18548 C 53.4197 7.92218 -2.1125 0
M  V30 18549 O 53.0297 8.02971 -3.47653 0
M  V30 18550 C 52.5397 6.89504 -1.41631 0
M  V30 18551 C 53.2497 5.59106 -1.75155 0
M  V30 18552 N 53.1997 4.58136 -0.662409 0
M  V30 18553 C 53.0497 3.26059 -1.02863 0
M  V30 18554 O 52.9597 2.90743 -2.19009 0
M  V30 18555 N 53.0097 2.35995 0.0155585 0
M  V30 18556 C 53.0997 2.65248 1.35603 0
M  V30 18557 C 53.2497 4.05747 1.64698 0
M  V30 18558 C 53.2997 4.96734 0.652411 0
M  V30 18559 H 56.0407 8.64917 -0.776982 0
M  V30 18560 H 56.3097 6.89974 -0.474015 0
M  V30 18561 H 55.4427 7.66548 -2.79458 0
M  V30 18562 H 52.7877 5.16076 -2.65138 0
M  V30 18563 H 52.5087 7.06433 -0.329384 0
M  V30 18564 H 51.5167 6.90829 -1.81996 0
M  V30 18565 H 53.3507 8.90774 -1.62639 0
M  V30 18566 H 53.4217 6.02181 0.895285 0
M  V30 18567 P 51.4797 8.03563 -3.84925 0
M  V30 18568 O 51.2597 8.85821 -5.0569 0
M  V30 18569 O 50.6897 8.41101 -2.65469 0
M  V30 18570 O 51.2297 6.4965 -4.18908 0
M  V30 18571 C 52.1697 5.81037 -5.05421 0
M  V30 18572 C 51.4397 4.78366 -5.89277 0
M  V30 18573 O 51.2297 3.58302 -5.08433 0
M  V30 18574 C 50.0397 5.17448 -6.36119 0
M  V30 18575 O 49.6497 4.45271 -7.53232 0
M  V30 18576 C 49.1597 4.74639 -5.19936 0
M  V30 18577 C 49.8697 3.49432 -4.70418 0
M  V30 18578 N 49.8197 3.31776 -3.22945 0
M  V30 18579 H 52.6587 6.54213 -5.71376 0
M  V30 18580 H 52.9307 5.30492 -4.44033 0
M  V30 18581 H 52.0627 4.55889 -6.76652 0
M  V30 18582 P 48.0997 4.23843 -7.83734 0
M  V30 18583 O 47.8797 4.19407 -9.29784 0
M  V30 18584 O 47.3097 5.24426 -7.09156 0
M  V30 18585 O 47.8497 2.7935 -7.20758 0
M  V30 18586 C 48.7897 1.7299 -7.50419 0
M  V30 18587 C 48.0597 0.406376 -7.57911 0
M  V30 18588 O 47.8497 -0.0897726 -6.21935 0
M  V30 18589 C 46.6597 0.447224 -8.1878 0
M  V30 18590 O 46.2697 -0.825065 -8.71101 0
M  V30 18591 C 45.7797 0.783801 -6.99623 0
M  V30 18592 C 46.4897 0.0619192 -5.85967 0
M  V30 18593 N 46.4397 0.790462 -4.56202 0
M  V30 18594 H 49.2787 1.93423 -8.4679 0
M  V30 18595 H 49.5507 1.68852 -6.70877 0
M  V30 18596 H 48.6827 -0.289041 -8.15388 0
M  V30 18597 H 46.0277 -0.927006 -5.72848 0
M  V30 18598 H 45.7477 1.86973 -6.82036 0
M  V30 18599 H 44.7567 0.403953 -7.13357 0
M  V30 18600 H 46.5907 1.20599 -8.97534 0
M  V30 18601 P 44.7198 -1.17771 -8.83182 0
M  V30 18602 O 44.4998 -2.07206 -9.98732 0
M  V30 18603 O 43.9298 0.0743816 -8.81969 0
M  V30 18604 O 44.4698 -1.97652 -7.47304 0
M  V30 18605 C 45.4098 -3.01133 -7.08783 0
M  V30 18606 C 44.6798 -4.12613 -6.37049 0
M  V30 18607 O 44.4698 -3.72827 -4.97879 0
M  V30 18608 C 43.2798 -4.45085 -6.88694 0
M  V30 18609 O 42.8898 -5.7877 -6.5624 0
M  V30 18610 C 42.3998 -3.47817 -6.12078 0
M  V30 18611 C 43.1098 -3.39414 -4.77697 0
M  V30 18612 N 43.0598 -2.04615 -4.15333 0
M  V30 18613 H 45.8988 -3.41248 -7.98759 0
M  V30 18614 H 46.1708 -2.5837 -6.41742 0
M  V30 18615 H 45.3028 -5.02657 -6.42673 0
M  V30 18616 P 41.3398 -6.144 -6.45285 0
M  V30 18617 O 41.1198 -7.54673 -6.86199 0
M  V30 18618 O 40.5498 -5.12391 -7.179 0
M  V30 18619 O 41.0898 -5.99158 -4.88404 0
M  V30 18620 C 42.0298 -6.60234 -3.96415 0
M  V30 18621 C 41.2998 -7.08259 -2.72856 0
M  V30 18622 O 41.0898 -5.9427 -1.83651 0
M  V30 18623 C 39.8998 -7.64886 -2.9555 0
M  V30 18624 O 39.5098 -8.53963 -1.90717 0
M  V30 18625 C 39.0198 -6.4116 -2.90739 0
M  V30 18626 C 39.7298 -5.55375 -1.86963 0
M  V30 18627 N 39.6798 -4.09664 -2.15742 0
M  V30 18628 H 42.5188 -7.45574 -4.45629 0
M  V30 18629 H 42.7908 -5.86232 -3.67314 0
M  V30 18630 H 41.9228 -7.84412 -2.24479 0
M  V30 18631 P 37.9598 -8.7635 -1.60911 0
M  V30 18632 O 37.7398 -10.1388 -1.11561 0
M  V30 18633 O 37.1698 -8.36503 -2.79617 0
M  V30 18634 O 37.7098 -7.71806 -0.42951 0
M  V30 18635 C 38.6498 -7.67148 0.673689 0
M  V30 18636 C 37.9198 -7.33374 1.95559 0
M  V30 18637 O 37.7098 -5.88721 2.00726 0
M  V30 18638 C 36.5198 -7.92526 2.10483 0
M  V30 18639 O 36.1298 -8.02971 3.47653 0
M  V30 18640 C 35.6398 -6.89602 1.41652 0
M  V30 18641 C 36.3498 -5.59201 1.75185 0
M  V30 18642 N 36.2998 -4.58235 0.662552 0
M  V30 18643 H 39.1388 -8.65116 0.777161 0
M  V30 18644 H 39.4108 -6.90173 0.474152 0
M  V30 18645 H 38.5428 -7.66548 2.79458 0
M  V30 18646 P 34.5798 -8.03563 3.84925 0
M  V30 18647 O 34.3598 -8.85821 5.0569 0
M  V30 18648 O 33.7898 -8.41101 2.65469 0
M  V30 18649 O 34.3298 -6.49734 4.18962 0
M  V30 18650 C 35.2698 -5.81037 5.05421 0
M  V30 18651 C 34.5398 -4.79018 5.88876 0
M  V30 18652 O 34.3298 -3.58359 5.08515 0
M  V30 18653 C 33.1398 -5.17448 6.36119 0
M  V30 18654 O 32.7498 -4.45322 7.53318 0
M  V30 18655 C 32.2598 -4.74639 5.19936 0
M  V30 18656 C 32.9698 -3.49432 4.70418 0
M  V30 18657 N 32.9198 -3.31776 3.22945 0
M  V30 18658 C 32.7698 -2.02742 2.72939 0
M  V30 18659 O 32.6798 -1.08301 3.52749 0
M  V30 18660 N 32.7198 -1.96117 1.22063 0
M  V30 18661 C 32.8198 -2.8878 0.551566 0
M  V30 18662 N 32.7698 -2.65609 -0.750198 0
M  V30 18663 C 32.9698 -4.22457 1.03707 0
M  V30 18664 C 33.0198 -4.37979 2.39113 0
M  V30 18665 H 35.7598 -6.54138 5.7131 0
M  V30 18666 H 36.0298 -5.30492 4.44033 0
M  V30 18667 H 35.1628 -4.55945 6.76735 0
M  V30 18668 H 32.5078 -2.6176 5.18021 0
M  V30 18669 H 32.2278 -5.52233 4.41941 0
M  V30 18670 H 31.2368 -4.52045 5.53452 0
M  V30 18671 H 33.0708 -6.25124 6.55234 0
M  V30 18672 H 33.1428 -5.37936 2.80552 0
M  V30 18673 H 33.0408 -5.07528 0.359553 0
M  V30 18674 H 32.6528 -1.69403 -1.09847 0
M  V30 18675 H 32.8488 -3.43701 -1.41792 0
M  V30 18676 P 31.1998 -4.23843 7.83734 0
M  V30 18677 O 30.9798 -4.19407 9.29784 0
M  V30 18678 O 30.4098 -5.24426 7.09156 0
M  V30 18679 O 30.9498 -2.7935 7.20758 0
M  V30 18680 C 31.8898 -1.7299 7.50419 0
M  V30 18681 C 31.1598 -0.406376 7.57911 0
M  V30 18682 O 30.9498 0.0897726 6.21935 0
M  V30 18683 C 29.7598 -0.447224 8.1878 0
M  V30 18684 O 29.3698 0.825065 8.71101 0
M  V30 18685 C 28.8798 -0.783801 6.99623 0
M  V30 18686 C 29.5898 -0.0619192 5.85967 0
M  V30 18687 N 29.5398 -0.7859 4.56281 0
M  V30 18688 H 32.3788 -1.93423 8.4679 0
M  V30 18689 H 32.6508 -1.68181 6.71046 0
M  V30 18690 H 31.7828 0.289041 8.15388 0
M  V30 18691 P 27.8199 1.17771 8.83182 0
M  V30 18692 O 27.5999 2.07206 9.98732 0
M  V30 18693 O 27.0299 -0.0743816 8.81969 0
M  V30 18694 O 27.5699 1.97678 7.474 0
M  V30 18695 C 28.5099 3.01133 7.08783 0
M  V30 18696 C 27.7799 4.1203 6.37546 0
M  V30 18697 O 27.5699 3.72887 4.9796 0
M  V30 18698 C 26.3799 4.45085 6.88694 0
M  V30 18699 O 25.9899 5.78836 6.56315 0
M  V30 18700 C 25.4999 3.47817 6.12078 0
M  V30 18701 C 26.2099 3.39414 4.77697 0
M  V30 18702 N 26.1599 2.04615 4.15333 0
M  V30 18703 C 26.0099 1.96929 2.77162 0
M  V30 18704 O 25.9199 3.02017 2.12006 0
M  V30 18705 N 25.9599 0.55485 2.24237 0
M  V30 18706 C 26.0599 -0.367808 2.9169 0
M  V30 18707 N 26.0099 -1.53426 2.29427 0
M  V30 18708 C 26.2099 -0.319148 4.33828 0
M  V30 18709 C 26.2599 0.920672 4.90433 0
M  V30 18710 H 28.9999 3.41209 7.98667 0
M  V30 18711 H 29.2699 2.5837 6.41742 0
M  V30 18712 H 28.4029 5.02718 6.42752 0
M  V30 18713 H 25.7479 4.11779 4.09026 0
M  V30 18714 H 25.4679 2.49661 6.61772 0
M  V30 18715 H 24.4769 3.86674 6.00946 0
M  V30 18716 H 26.3109 4.29991 7.97006 0
M  V30 18717 H 26.3829 1.00589 5.98303 0
M  V30 18718 H 26.2809 -1.22639 4.93799 0
M  V30 18719 H 25.8929 -1.56819 1.27167 0
M  V30 18720 H 26.0889 -2.41062 2.83063 0
M  V30 18721 P 24.4399 6.144 6.45285 0
M  V30 18722 O 24.2199 7.54673 6.86199 0
M  V30 18723 O 23.6499 5.12391 7.179 0
M  V30 18724 O 24.1899 5.99236 4.88467 0
M  V30 18725 C 25.1299 6.60234 3.96415 0
M  V30 18726 C 24.3999 7.08079 2.736 0
M  V30 18727 O 24.1899 5.94365 1.8368 0
M  V30 18728 C 22.9999 7.64886 2.9555 0
M  V30 18729 O 22.6099 8.5406 1.90739 0
M  V30 18730 C 22.1199 6.4116 2.90739 0
M  V30 18731 C 22.8299 5.55375 1.86963 0
M  V30 18732 N 22.7799 4.09664 2.15742 0
M  V30 18733 C 22.6299 3.22231 1.08477 0
M  V30 18734 O 22.5399 3.68951 -0.0600489 0
M  V30 18735 N 22.5799 1.76692 1.48799 0
M  V30 18736 C 22.6799 1.41695 2.57602 0
M  V30 18737 N 22.6299 0.107296 2.75791 0
M  V30 18738 C 22.8299 2.29178 3.69733 0
M  V30 18739 C 22.8799 3.62753 3.42653 0
M  V30 18740 H 25.6199 7.45488 4.45578 0
M  V30 18741 H 25.8899 5.86232 3.67314 0
M  V30 18742 H 25.0229 7.84508 2.24507 0
M  V30 18743 H 22.3679 5.73556 0.888715 0
M  V30 18744 H 22.0879 5.9096 3.88638 0
M  V30 18745 H 21.0969 6.66053 2.58894 0
M  V30 18746 H 22.9309 8.16339 3.92049 0
M  V30 18747 H 23.0029 4.33052 4.24913 0
M  V30 18748 H 22.9009 1.9103 4.71577 0
M  V30 18749 H 22.5129 -0.521221 1.95056 0
M  V30 18750 H 22.7089 -0.286429 3.70695 0
M  V30 18751 P 21.0599 8.7635 1.60911 0
M  V30 18752 O 20.8399 10.1388 1.11561 0
M  V30 18753 O 20.2699 8.36503 2.79617 0
M  V30 18754 O 20.8099 7.71806 0.42951 0
M  V30 18755 C 21.7499 7.67148 -0.673689 0
M  V30 18756 C 21.0199 7.33374 -1.95559 0
M  V30 18757 O 20.8099 5.88721 -2.00726 0
M  V30 18758 C 19.6199 7.92526 -2.10483 0
M  V30 18759 O 19.2299 8.02971 -3.47653 0
M  V30 18760 C 18.7399 6.89602 -1.41652 0
M  V30 18761 C 19.4499 5.59201 -1.75185 0
M  V30 18762 N 19.3999 4.58235 -0.662552 0
M  V30 18763 H 22.2389 8.65116 -0.777161 0
M  V30 18764 H 22.5109 6.90173 -0.474152 0
M  V30 18765 H 21.6429 7.66548 -2.79458 0
M  V30 18766 P 17.6799 8.03563 -3.84925 0
M  V30 18767 O 17.4599 8.85821 -5.0569 0
M  V30 18768 O 16.8899 8.41101 -2.65469 0
M  V30 18769 O 17.4299 6.4965 -4.18908 0
M  V30 18770 C 18.3699 5.81037 -5.05421 0
M  V30 18771 C 17.6399 4.78366 -5.89277 0
M  V30 18772 O 17.4299 3.58302 -5.08433 0
M  V30 18773 C 16.2399 5.17448 -6.36119 0
M  V30 18774 O 15.8499 4.45271 -7.53232 0
M  V30 18775 C 15.3599 4.74639 -5.19936 0
M  V30 18776 C 16.0699 3.49432 -4.70418 0
M  V30 18777 N 16.0199 3.32099 -3.22613 0
M  V30 18778 C 16.0999 4.28245 -2.25527 0
M  V30 18779 N 16.0299 3.80823 -1.04874 0
M  V30 18780 C 15.8799 2.44571 -1.23535 0
M  V30 18781 C 15.7499 1.37068 -0.330675 0
M  V30 18782 N 15.7399 1.51472 0.990824 0
M  V30 18783 N 15.6299 0.138614 -0.848756 0
M  V30 18784 C 15.6399 -0.00675923 -2.16999 0
M  V30 18785 N 15.7599 0.904372 -3.11122 0
M  V30 18786 C 15.8799 2.12707 -2.56212 0
M  V30 18787 H 18.8589 6.54213 -5.71376 0
M  V30 18788 H 19.1309 5.30936 -4.43503 0
M  V30 18789 H 18.2629 4.55889 -6.76652 0
M  V30 18790 H 15.6079 2.61715 -5.17932 0
M  V30 18791 H 15.3279 5.52155 -4.41878 0
M  V30 18792 H 14.3369 4.51981 -5.53374 0
M  V30 18793 H 16.1709 6.25124 -6.55234 0
M  V30 18794 H 16.2119 5.34372 -2.47488 0
M  V30 18795 H 15.8309 2.45153 1.4078 0
M  V30 18796 H 15.6419 0.688422 1.59911 0
M  V30 18797 H 15.5339 -1.02584 -2.52346 0
M  V30 18798 P 14.2999 4.23843 -7.83734 0
M  V30 18799 O 14.0799 4.19407 -9.29784 0
M  V30 18800 O 13.5099 5.24426 -7.09156 0
M  V30 18801 O 14.0499 2.79386 -7.20852 0
M  V30 18802 C 14.9899 1.7299 -7.50419 0
M  V30 18803 C 14.2599 0.41401 -7.5797 0
M  V30 18804 O 14.0499 -0.089787 -6.22035 0
M  V30 18805 C 12.8599 0.447224 -8.1878 0
M  V30 18806 O 12.4699 -0.825159 -8.71201 0
M  V30 18807 C 11.9799 0.783801 -6.99623 0
M  V30 18808 C 12.6899 0.0619192 -5.85967 0
M  V30 18809 N 12.6399 0.7859 -4.56281 0
M  V30 18810 C 12.4899 0.0359258 -3.39981 0
M  V30 18811 O 12.3999 -1.19723 -3.49038 0
M  V30 18812 N 12.4399 0.869151 -2.14025 0
M  V30 18813 C 12.5399 2.01207 -2.14363 0
M  V30 18814 N 12.4899 2.58978 -0.954287 0
M  V30 18815 C 12.6899 2.80817 -3.32215 0
M  V30 18816 C 12.7399 2.13785 -4.50884 0
M  V30 18817 H 15.4799 1.93401 -8.46693 0
M  V30 18818 H 15.7499 1.68181 -6.71046 0
M  V30 18819 H 14.8829 -0.289076 -8.15488 0
M  V30 18820 H 12.2279 -0.927166 -5.72947 0
M  V30 18821 H 11.9479 1.87 -6.82132 0
M  V30 18822 H 10.9569 0.404009 -7.13457 0
M  V30 18823 H 12.7909 1.20599 -8.97534 0
M  V30 18824 H 12.8629 2.70295 -5.43162 0
M  V30 18825 H 12.7609 3.89465 -3.27406 0
M  V30 18826 H 12.3729 2.01616 -0.107046 0
M  V30 18827 H 12.5689 3.61403 -0.873101 0
M  V30 18828 P 10.92 -1.17771 -8.83182 0
M  V30 18829 O 10.7 -2.07206 -9.98732 0
M  V30 18830 O 10.13 0.0743816 -8.81969 0
M  V30 18831 O 10.67 -1.97652 -7.47304 0
M  V30 18832 C 11.61 -3.01133 -7.08783 0
M  V30 18833 C 10.88 -4.12613 -6.37049 0
M  V30 18834 O 10.67 -3.72827 -4.97879 0
M  V30 18835 C 9.47996 -4.45085 -6.88694 0
M  V30 18836 O 9.08996 -5.7877 -6.5624 0
M  V30 18837 C 8.59996 -3.47817 -6.12078 0
M  V30 18838 C 9.30996 -3.39414 -4.77697 0
M  V30 18839 N 9.25996 -2.04615 -4.15333 0
M  V30 18840 H 12.099 -3.41248 -7.98759 0
M  V30 18841 H 12.371 -2.5837 -6.41742 0
M  V30 18842 H 11.503 -5.02657 -6.42673 0
M  V30 18843 P 7.53998 -6.144 -6.45285 0
M  V30 18844 O 7.31998 -7.54673 -6.86199 0
M  V30 18845 O 6.74998 -5.12391 -7.179 0
M  V30 18846 O 7.28998 -5.99158 -4.88404 0
M  V30 18847 C 8.22998 -6.60234 -3.96415 0
M  V30 18848 C 7.49998 -7.08259 -2.72856 0
M  V30 18849 O 7.28998 -5.9427 -1.83651 0
M  V30 18850 C 6.09998 -7.64886 -2.9555 0
M  V30 18851 O 5.70998 -8.53963 -1.90717 0
M  V30 18852 C 5.21998 -6.4116 -2.90739 0
M  V30 18853 C 5.92998 -5.55375 -1.86963 0
M  V30 18854 N 5.87998 -4.09664 -2.15742 0
M  V30 18855 H 8.71898 -7.45574 -4.45629 0
M  V30 18856 H 8.99098 -5.86232 -3.67314 0
M  V30 18857 H 8.12298 -7.84412 -2.24479 0
M  V30 18858 P 4.16 -8.7635 -1.60911 0
M  V30 18859 O 3.94 -10.1388 -1.11561 0
M  V30 18860 O 3.37 -8.36503 -2.79617 0
M  V30 18861 O 3.91 -7.71806 -0.42951 0
M  V30 18862 C 4.85 -7.67148 0.673689 0
M  V30 18863 C 4.12 -7.33374 1.95559 0
M  V30 18864 O 3.91 -5.88721 2.00726 0
M  V30 18865 C 2.72 -7.92526 2.10483 0
M  V30 18866 O 2.33 -8.02971 3.47653 0
M  V30 18867 C 1.84 -6.89602 1.41652 0
M  V30 18868 C 2.55 -5.59201 1.75185 0
M  V30 18869 N 2.5 -4.58235 0.662552 0
M  V30 18870 H 5.339 -8.65116 0.777161 0
M  V30 18871 H 5.611 -6.90173 0.474152 0
M  V30 18872 H 4.743 -7.66548 2.79458 0
M  V30 18873 H 1.613 -8.66322 3.55694 0
M  V30 END ATOM
M  V30 BEGIN BOND
M  V30 END BOND
M  V30 END CTAB
M  END
$$$$
