drugbank_target|P31937 3-hydroxyisobutyrate dehydrogenase, mitochondrial (DB00157)
 OpenBabel12092119243D

  0  0  0     0  0            999 V3000
M  V30 BEGIN CTAB
M  V30 COUNTS 4965 5005 0 0 0
M  V30 BEGIN ATOM
M  V30 1 H -0.908 1.98254 -0.117106 0
M  V30 2 N 0 1.576 0 0
M  V30 3 C 0.933 2.03868 1.02534 0
M  V30 4 C 1.911 0.928543 1.3348 0
M  V30 5 O 3.095 1.19667 1.45644 0
M  V30 6 C 0.222 2.43627 2.35294 0
M  V30 7 C -0.732 3.65373 2.2001 0
M  V30 8 S 0.101 5.13292 1.52614 0
M  V30 9 C 1.257 5.56322 2.86805 0
M  V30 10 H 1.49 2.90518 0.631377 0
M  V30 11 H -0.977 1.52953 0.210867 0
M  V30 12 H 0.981 2.67203 3.11629 0
M  V30 13 H -0.358 1.57376 2.7183 0
M  V30 14 H -1.165 3.90944 3.18086 0
M  V30 15 H -1.563 3.418 1.51819 0
M  V30 16 H 0.729 5.58782 3.83104 0
M  V30 17 H 1.672 6.56266 2.65933 0
M  V30 18 H 2.08 4.83886 2.90714 0
M  V30 19 N 1.4781 -0.272755 1.55222 0
M  V30 20 C 2.4411 -1.32041 1.87344 0
M  V30 21 C 3.4411 -1.42342 0.74803 0
M  V30 22 O 4.6311 -1.41488 1.0162 0
M  V30 23 C 1.7631 -2.70173 2.07893 0
M  V30 24 H 2.9561 -1.04789 2.80997 0
M  V30 25 H 0.5091 -0.51083 1.47717 0
M  V30 26 H 1.2441 -3.02605 1.16622 0
M  V30 27 H 1.0291 -2.64082 2.89833 0
M  V30 28 H 2.5191 -3.45869 2.34017 0
M  V30 29 N 2.9562 -1.48159 -0.537278 0
M  V30 30 C 3.9192 -1.61665 -1.62472 0
M  V30 31 C 4.9192 -0.490395 -1.5314 0
M  V30 32 O 6.1092 -0.755998 -1.5694 0
M  V30 33 C 3.2412 -1.57997 -3.02076 0
M  V30 34 H 4.4342 -2.58621 -1.51839 0
M  V30 35 H 1.9872 -1.36647 -0.758771 0
M  V30 36 H 2.7222 -0.624913 -3.18222 0
M  V30 37 H 2.5072 -2.39755 -3.10258 0
M  V30 38 H 3.9972 -1.70627 -3.81151 0
M  V30 39 N 4.4343 0.785586 -1.36625 0
M  V30 40 C 5.6593 1.57963 -1.34397 0
M  V30 41 C 6.0843 1.87964 0.071526 0
M  V30 42 O 5.4423 1.48182 1.0446 0
M  V30 43 C 5.4903 2.87511 -2.17646 0
M  V30 44 O 4.5943 3.81281 -1.57158 0
M  V30 45 H 3.9353 0.479014 -0.459828 0
M  V30 46 H 6.4653 0.973411 -1.79961 0
M  V30 47 H 6.4753 3.36745 -2.30362 0
M  V30 48 H 5.1503 2.65002 -3.20541 0
M  V30 49 H 3.7273 3.39885 -1.53403 0
M  V30 50 N 5.9124 1.20967 1.01018 0
M  V30 51 C 6.8424 0.988272 2.11555 0
M  V30 52 C 7.8234 -0.0849778 1.69888 0
M  V30 53 O 9.0084 0.0738202 1.9406 0
M  V30 54 C 6.1384 0.546528 3.42973 0
M  V30 55 C 5.0924 1.56375 3.9841 0
M  V30 56 C 4.4184 0.97842 5.25672 0
M  V30 57 C 5.7184 2.94922 4.31066 0
M  V30 58 H 7.4124 1.91276 2.30334 0
M  V30 59 H 4.9584 0.921073 1.1069 0
M  V30 60 H 6.9114 0.378839 4.19694 0
M  V30 61 H 5.6354 -0.413598 3.23971 0
M  V30 62 H 4.2944 1.71891 3.23804 0
M  V30 63 H 3.9424 0.0101688 5.02999 0
M  V30 64 H 3.6424 1.65784 5.63728 0
M  V30 65 H 5.1664 0.821939 6.05043 0
M  V30 66 H 6.5804 2.8288 4.9865 0
M  V30 67 H 4.9774 3.5983 4.80253 0
M  V30 68 H 6.0474 3.4616 3.39561 0
M  V30 69 N 7.3905 -1.2043 1.01659 0
M  V30 70 C 8.8065 -1.41852 0.731442 0
M  V30 71 C 9.0065 -1.89358 -0.688898 0
M  V30 72 O 8.0625 -2.06247 -1.45666 0
M  V30 73 C 9.3755 -2.44019 1.75714 0
M  V30 74 C 10.9235 -2.57785 1.77527 0
M  V30 75 C 11.3985 -3.63194 2.79023 0
M  V30 76 N 12.8895 -3.70678 2.77763 0
M  V30 77 C 13.6245 -4.51897 3.52954 0
M  V30 78 N 13.1205 -5.36921 4.37821 0
M  V30 79 N 14.9135 -4.4643 3.41551 0
M  V30 80 H 7.0645 -0.879093 1.93354 0
M  V30 81 H 9.3275 -0.448425 0.835236 0
M  V30 82 H 9.0335 -2.1611 2.77469 0
M  V30 83 H 8.9075 -3.43007 1.56927 0
M  V30 84 H 11.2945 -2.85023 0.764569 0
M  V30 85 H 11.3755 -1.58992 2.00387 0
M  V30 86 H 11.0195 -3.36699 3.80258 0
M  V30 87 H 10.9495 -4.61609 2.53425 0
M  V30 88 H 13.4405 -3.09944 2.16201 0
M  V30 89 H 13.7535 -5.95981 4.91962 0
M  V30 90 H 12.0985 -5.36424 4.41899 0
M  V30 91 H 15.2895 -3.79042 2.74672 0
M  V30 92 H 15.4625 -5.09491 4.00404 0
M  V30 93 N 8.8686 -0.792821 -1.36206 0
M  V30 94 C 9.7986 -0.207853 -2.32573 0
M  V30 95 C 10.7796 0.659055 -1.56813 0
M  V30 96 O 11.9646 0.592176 -1.84951 0
M  V30 97 C 9.0946 0.655449 -3.41059 0
M  V30 98 C 8.0486 -0.111842 -4.27854 0
M  V30 99 C 7.3746 0.872274 -5.27537 0
M  V30 100 C 8.6746 -1.30299 -5.05786 0
M  V30 101 H 10.3686 -1.01294 -2.81744 0
M  V30 102 H 7.9146 -0.48854 -1.3546 0
M  V30 103 H 9.8676 1.07464 -4.07467 0
M  V30 104 H 8.5916 1.49328 -2.90463 0
M  V30 105 H 7.2506 -0.512053 -3.63006 0
M  V30 106 H 6.8986 1.70523 -4.73214 0
M  V30 107 H 6.5986 0.363291 -5.86476 0
M  V30 108 H 8.1226 1.28996 -5.96818 0
M  V30 109 H 9.5366 -0.959379 -5.65216 0
M  V30 110 H 7.9336 -1.7455 -5.74154 0
M  V30 111 H 9.0036 -2.09663 -4.37229 0
M  V30 112 N 10.3467 1.47872 -0.545128 0
M  V30 113 C 11.2767 2.32661 0.197793 0
M  V30 114 C 12.2577 1.43041 0.920504 0
M  V30 115 O 13.4427 1.71912 0.90333 0
M  V30 116 C 10.5727 3.24569 1.23582 0
M  V30 117 C 9.5267 4.23333 0.630323 0
M  V30 118 C 8.8527 5.0448 1.77211 0
M  V30 119 C 10.1527 5.20704 -0.407974 0
M  V30 120 H 11.8467 2.95024 -0.510045 0
M  V30 121 H 9.3927 1.4187 -0.246731 0
M  V30 122 H 11.3457 3.8272 1.76362 0
M  V30 123 H 10.0697 2.60236 1.97344 0
M  V30 124 H 8.7287 3.6639 0.123922 0
M  V30 125 H 8.3767 4.36561 2.49847 0
M  V30 126 H 8.0767 5.71339 1.37281 0
M  V30 127 H 9.6007 5.65487 2.3034 0
M  V30 128 H 11.0147 5.7329 0.033305 0
M  V30 129 H 9.4117 5.95699 -0.725486 0
M  V30 130 H 10.4817 4.66917 -1.30828 0
M  V30 131 N 11.8248 0.280983 1.55075 0
M  V30 132 C 13.0728 -0.333455 1.9933 0
M  V30 133 C 13.3938 -1.55937 1.17085 0
M  V30 134 O 12.6638 -1.94143 0.261805 0
M  V30 135 H 11.2438 -0.126197 0.736263 0
M  V30 136 H 13.9058 0.387678 1.91005 0
M  V30 137 H 13.0018 -0.619292 3.05894 0
M  V30 138 N 13.3029 -1.57598 0.00835791 0
M  V30 139 C 14.2659 -2.07884 -0.965242 0
M  V30 140 C 15.2659 -0.989825 -1.26725 0
M  V30 141 O 16.4559 -1.25218 -1.21104 0
M  V30 142 C 13.5879 -2.52731 -2.28779 0
M  V30 143 H 14.7809 -2.95178 -0.530112 0
M  V30 144 H 12.3339 -1.54458 -0.239283 0
M  V30 145 H 13.0689 -1.68705 -2.76964 0
M  V30 146 H 12.8539 -3.32272 -2.08177 0
M  V30 147 H 14.3439 -2.91933 -2.98605 0
M  V30 148 N 14.781 0.264519 -1.55364 0
M  V30 149 C 15.744 1.31046 -1.88042 0
M  V30 150 C 16.744 1.41943 -0.755569 0
M  V30 151 O 17.934 1.40947 -1.02369 0
M  V30 152 C 15.066 2.69067 -2.09323 0
M  V30 153 H 16.259 1.03297 -2.81549 0
M  V30 154 H 13.812 0.502989 -1.47986 0
M  V30 155 H 14.547 3.01982 -1.18226 0
M  V30 156 H 14.332 2.62542 -2.91229 0
M  V30 157 H 15.822 3.44623 -2.35848 0
M  V30 158 N 16.2591 1.48442 0.529413 0
M  V30 159 C 17.4841 1.60406 1.31471 0
M  V30 160 C 17.9091 0.264738 1.86228 0
M  V30 161 O 17.2671 -0.763668 1.64432 0
M  V30 162 C 17.3151 2.65419 2.44101 0
M  V30 163 O 16.4191 2.22618 3.47153 0
M  V30 164 H 15.7601 0.537863 0.389357 0
M  V30 165 H 18.2901 1.94432 0.636965 0
M  V30 166 H 18.3001 2.86709 2.90279 0
M  V30 167 H 16.9751 3.62652 2.03608 0
M  V30 168 H 15.5521 2.11543 3.0709 0
M  V30 169 N 17.7372 -0.778329 1.37039 0
M  V30 170 C 18.9852 -1.53361 1.31623 0
M  V30 171 C 19.3062 -1.94739 -0.100831 0
M  V30 172 O 18.5762 -1.65797 -1.04347 0
M  V30 173 H 17.1562 -0.568794 0.484234 0
M  V30 174 H 19.8182 -0.926742 1.71457 0
M  V30 175 H 18.9142 -2.43606 1.95096 0
M  V30 176 N 19.2153 -1.21501 -1.00376 0
M  V30 177 C 20.1453 -0.999478 -2.11028 0
M  V30 178 C 21.1263 0.0759671 -1.6993 0
M  V30 179 O 22.3113 -0.0841106 -1.94018 0
M  V30 180 C 19.4413 -0.564709 -3.42678 0
M  V30 181 C 18.3953 -1.58486 -3.97576 0
M  V30 182 C 17.7213 -1.00628 -5.25146 0
M  V30 183 C 19.0213 -2.97204 -4.29496 0
M  V30 184 H 20.7153 -1.92495 -2.29317 0
M  V30 185 H 18.2613 -0.92693 -1.102 0
M  V30 186 H 20.2143 -0.401091 -4.19487 0
M  V30 187 H 18.9383 0.396411 -3.24185 0
M  V30 188 H 17.5973 -1.73606 -3.22888 0
M  V30 189 H 17.2453 -0.0368439 -5.02987 0
M  V30 190 H 16.9453 -1.68771 -5.62841 0
M  V30 191 H 18.4693 -0.854015 -6.04598 0
M  V30 192 H 19.8833 -2.8552 -4.97143 0
M  V30 193 H 18.2803 -3.62372 -4.78338 0
M  V30 194 H 19.3503 -3.47956 -3.3772 0
M  V30 195 N 20.6934 1.19889 -1.02296 0
M  V30 196 C 22.1094 1.41462 -0.738954 0
M  V30 197 C 22.3094 1.89721 0.678846 0
M  V30 198 O 21.3654 2.07016 1.4457 0
M  V30 199 C 22.6784 2.43083 -1.77005 0
M  V30 200 C 24.2264 2.5684 -1.78892 0
M  V30 201 C 24.7014 3.61709 -2.80945 0
M  V30 202 N 26.1924 3.69199 -2.79725 0
M  V30 203 C 26.9274 4.50019 -3.55345 0
M  V30 204 N 26.4234 5.34592 -4.40662 0
M  V30 205 N 28.2164 4.44612 -3.43914 0
M  V30 206 H 20.3674 0.868827 -1.93817 0
M  V30 207 H 22.6304 0.44399 -0.837602 0
M  V30 208 H 22.3364 2.14636 -2.78612 0
M  V30 209 H 22.2104 3.4217 -1.58744 0
M  V30 210 H 24.5974 2.84614 -0.779674 0
M  V30 211 H 24.6784 1.57927 -2.01228 0
M  V30 212 H 24.3224 3.34678 -3.82038 0
M  V30 213 H 24.2524 4.60259 -2.5587 0
M  V30 214 H 26.7434 3.08794 -2.17842 0
M  V30 215 H 27.0564 5.93363 -4.95116 0
M  V30 216 H 25.4014 5.34073 -4.44737 0
M  V30 217 H 28.5924 3.7758 -2.76679 0
M  V30 218 H 28.7654 5.0736 -4.031 0
M  V30 219 N 22.1715 0.800033 1.35784 0
M  V30 220 C 23.4015 0.389041 2.02904 0
M  V30 221 C 23.8095 -1.0027 1.60445 0
M  V30 222 O 23.1525 -1.65633 0.794453 0
M  V30 223 C 23.2145 0.385495 3.57427 0
M  V30 224 C 22.8785 1.72662 4.23127 0
M  V30 225 C 23.8755 2.68385 4.4527 0
M  V30 226 C 21.5605 2.00883 4.60381 0
M  V30 227 C 23.5545 3.90517 5.03761 0
M  V30 228 C 21.2415 3.2328 5.18588 0
M  V30 229 C 22.2395 4.17915 5.40218 0
M  V30 230 O 21.9275 5.38153 5.97199 0
M  V30 231 H 21.6595 0.157032 0.657508 0
M  V30 232 H 24.2135 1.08311 1.74522 0
M  V30 233 H 22.4435 -0.365128 3.84972 0
M  V30 234 H 24.1325 -0.00228296 4.059 0
M  V30 235 H 24.8985 2.47872 4.16874 0
M  V30 236 H 20.7775 1.28037 4.42863 0
M  V30 237 H 24.3215 4.64395 5.2056 0
M  V30 238 H 20.2185 3.43667 5.4641 0
M  V30 239 H 20.9865 5.3936 6.15656 0
M  V30 240 N 23.6496 -1.47581 0.552962 0
M  V30 241 C 24.8956 -2.03369 0.0355807 0
M  V30 242 C 25.2506 -1.42016 -1.29805 0
M  V30 243 O 24.5436 -0.564917 -1.83083 0
M  V30 244 C 24.7376 -3.57199 -0.119728 0
M  V30 245 C 24.5666 -4.33468 1.1973 0
M  V30 246 C 23.3366 -4.7353 1.76345 0
M  V30 247 C 25.5346 -4.68866 2.11351 0
M  V30 248 N 23.5166 -5.34426 3.02097 0
M  V30 249 C 24.8876 -5.3002 3.21681 0
M  V30 250 C 26.9426 -4.50795 2.11397 0
M  V30 251 C 25.6456 -5.75011 4.32151 0
M  V30 252 C 27.6716 -4.96782 3.20876 0
M  V30 253 C 27.0336 -5.57981 4.29926 0
M  V30 254 H 23.1326 -0.780058 0.0550806 0
M  V30 255 H 25.7166 -1.80117 0.739315 0
M  V30 256 H 23.8876 -3.80227 -0.792579 0
M  V30 257 H 25.6196 -3.99627 -0.638792 0
M  V30 258 H 22.3746 -4.55352 1.30196 0
M  V30 259 H 22.7986 -5.69421 3.66182 0
M  V30 260 H 27.4406 -4.0284 1.28372 0
M  V30 261 H 25.1586 -6.21959 5.15938 0
M  V30 262 H 28.7446 -4.84573 3.21994 0
M  V30 263 H 27.6246 -5.92918 5.13243 0
M  V30 264 N 25.1277 -0.289203 -1.54924 0
M  V30 265 C 26.3527 0.329299 -2.04769 0
M  V30 266 C 26.7777 1.4763 -1.16564 0
M  V30 267 O 26.1357 1.80527 -0.167186 0
M  V30 268 C 26.1837 0.774438 -3.52186 0
M  V30 269 O 25.2877 1.88038 -3.67036 0
M  V30 270 H 24.6287 0.0659259 -0.660719 0
M  V30 271 H 27.1587 -0.42761 -2.00082 0
M  V30 272 H 27.1687 1.06642 -3.93816 0
M  V30 273 H 25.8437 -0.0646707 -4.1585 0
M  V30 274 H 24.4207 1.58985 -3.3731 0
M  V30 275 N 26.6058 1.57591 -0.0167156 0
M  V30 276 C 28.0218 1.55946 0.339557 0
M  V30 277 C 28.2218 1.02109 1.73713 0
M  V30 278 O 27.2778 0.662303 2.43659 0
M  V30 279 C 28.5908 3.00037 0.199499 0
M  V30 280 C 30.1388 3.11805 0.273193 0
M  V30 281 C 30.6138 4.57713 0.162068 0
M  V30 282 N 32.1048 4.6268 0.219444 0
M  V30 283 C 32.8398 5.73185 0.157054 0
M  V30 284 N 32.3358 6.92786 0.0442936 0
M  V30 285 N 34.1288 5.61707 0.21014 0
M  V30 286 H 26.2798 1.90921 -0.930758 0
M  V30 287 H 28.5428 0.877674 -0.358319 0
M  V30 288 H 28.2488 3.4333 -0.76273 0
M  V30 289 H 28.1228 3.64387 0.974786 0
M  V30 290 H 30.5098 2.68433 1.22587 0
M  V30 291 H 30.5908 2.50201 -0.532256 0
M  V30 292 H 30.2348 5.01763 -0.78714 0
M  V30 293 H 30.1648 5.17283 0.986222 0
M  V30 294 H 32.6558 3.76649 0.307246 0
M  V30 295 H 32.9688 7.728 0.00304069 0
M  V30 296 H 31.3138 6.94999 0.00968457 0
M  V30 297 H 34.5048 4.6716 0.296546 0
M  V30 298 H 34.6778 6.47807 0.158054 0
M  V30 299 N 28.0839 -0.256276 1.55502 0
M  V30 300 C 29.4999 -0.604325 1.47716 0
M  V30 301 C 29.6999 -1.88763 0.705039 0
M  V30 302 O 28.7559 -2.51445 0.230613 0
M  V30 303 C 30.0689 -0.715756 2.92057 0
M  V30 304 C 31.6169 -0.808706 3.02372 0
M  V30 305 C 32.0919 -0.951777 4.48001 0
M  V30 306 N 33.5829 -1.01688 4.519 0
M  V30 307 C 34.3179 -1.14668 5.61817 0
M  V30 308 N 33.8139 -1.24261 6.81565 0
M  V30 309 N 35.6069 -1.1791 5.49594 0
M  V30 310 H 27.7579 0.586291 2.04148 0
M  V30 311 H 30.0209 0.201015 0.926443 0
M  V30 312 H 29.7269 0.157027 3.51349 0
M  V30 313 H 29.6009 -1.59071 3.42018 0
M  V30 314 H 31.9879 -1.67195 2.43166 0
M  V30 315 H 32.0689 0.0912063 2.55637 0
M  V30 316 H 31.7129 -0.0931291 5.07815 0
M  V30 317 H 31.6429 -1.86659 4.92408 0
M  V30 318 H 34.1339 -0.954468 3.65648 0
M  V30 319 H 34.4469 -1.34046 7.61086 0
M  V30 320 H 32.7919 -1.21236 6.84344 0
M  V30 321 H 35.9829 -1.10057 4.54978 0
M  V30 322 H 36.1559 -1.27681 6.35296 0
M  V30 323 N 29.562 -1.4872 -0.521534 0
M  V30 324 C 30.492 -1.66771 -1.63431 0
M  V30 325 C 31.473 -0.516499 -1.62069 0
M  V30 326 O 32.658 -0.750013 -1.79132 0
M  V30 327 C 29.788 -1.71515 -3.01993 0
M  V30 328 C 28.742 -2.86222 -3.18216 0
M  V30 329 C 28.068 -2.76061 -4.57924 0
M  V30 330 C 29.368 -4.27419 -3.00184 0
M  V30 331 H 31.062 -2.59932 -1.48579 0
M  V30 332 H 28.608 -1.25089 -0.713358 0
M  V30 333 H 30.561 -1.82731 -3.7972 0
M  V30 334 H 29.285 -0.749393 -3.17886 0
M  V30 335 H 27.944 -2.74575 -2.42908 0
M  V30 336 H 27.592 -1.77437 -4.70665 0
M  V30 337 H 27.292 -3.53037 -4.69722 0
M  V30 338 H 28.816 -2.89256 -5.37739 0
M  V30 339 H 30.23 -4.39855 -3.67697 0
M  V30 340 H 28.627 -5.05458 -3.2347 0
M  V30 341 H 29.697 -4.43293 -1.96518 0
M  V30 342 N 31.0401 0.771051 -1.3745 0
M  V30 343 C 32.4561 1.07171 -1.18265 0
M  V30 344 C 32.6561 2.01491 -0.019287 0
M  V30 345 O 31.7121 2.44244 0.640408 0
M  V30 346 C 33.0251 1.66854 -2.50161 0
M  V30 347 C 34.5731 1.79109 -2.56689 0
M  V30 348 C 35.0481 2.42205 -3.88717 0
M  V30 349 N 36.5391 2.49655 -3.90162 0
M  V30 350 C 37.2741 2.9933 -4.8907 0
M  V30 351 N 36.7701 3.49172 -5.98374 0
M  V30 352 N 38.5631 2.9821 -4.76474 0
M  V30 353 H 30.7141 0.144796 -2.11906 0
M  V30 354 H 32.9771 0.126863 -0.939473 0
M  V30 355 H 32.6831 1.05017 -3.35655 0
M  V30 356 H 32.5571 2.6614 -2.673 0
M  V30 357 H 34.9441 2.40077 -1.71601 0
M  V30 358 H 35.0251 0.785757 -2.43433 0
M  V30 359 H 34.6691 1.81875 -4.74219 0
M  V30 360 H 34.5991 3.43345 -3.99276 0
M  V30 361 H 37.0901 2.14383 -3.11205 0
M  V30 362 H 37.4031 3.8548 -6.69795 0
M  V30 363 H 35.7481 3.47275 -6.02018 0
M  V30 364 H 38.9391 2.58572 -3.90203 0
M  V30 365 H 39.1121 3.36613 -5.53711 0
M  V30 366 N 32.5182 1.22032 0.997298 0
M  V30 367 C 33.9292 1.0397 1.55071 0
M  V30 368 C 34.2802 -0.398192 1.92117 0
M  V30 369 O 33.4052 -1.28254 1.74298 0
M  V30 370 C 34.0002 1.88109 2.81781 0
M  V30 371 C 32.5592 1.74357 3.33581 0
M  V30 372 C 31.7062 1.84846 2.06706 0
M  V30 373 H 34.6572 1.35941 0.818883 0
M  V30 374 H 34.6782 1.39589 3.53971 0
M  V30 375 H 34.1902 2.92754 2.54787 0
M  V30 376 H 32.2912 0.72427 3.65493 0
M  V30 377 H 32.4042 2.56772 4.04481 0
M  V30 378 H 30.7682 1.28238 2.20062 0
M  V30 379 H 31.5512 2.91014 1.82114 0
M  V30 380 N 33.9963 -1.19345 1.0293 0
M  V30 381 C 34.9593 -2.20793 0.615069 0
M  V30 382 C 35.9593 -1.57553 -0.321533 0
M  V30 383 O 37.1493 -1.73862 -0.108483 0
M  V30 384 C 34.2813 -3.40754 -0.0999222 0
M  V30 385 H 35.4743 -2.58955 1.51269 0
M  V30 386 H 33.0273 -1.3303 0.820534 0
M  V30 387 H 33.7623 -3.0811 -1.01187 0
M  V30 388 H 33.5473 -3.87889 0.57309 0
M  V30 389 H 35.0373 -4.15898 -0.376645 0
M  V30 390 N 35.4744 -0.807222 -1.35358 0
M  V30 391 C 36.4374 -0.223665 -2.28106 0
M  V30 392 C 37.4374 0.589354 -1.4961 0
M  V30 393 O 38.6274 0.407745 -1.69361 0
M  V30 394 C 35.7594 0.688149 -3.33882 0
M  V30 395 H 36.9524 -1.04169 -2.81227 0
M  V30 396 H 34.5054 -0.577921 -1.45223 0
M  V30 397 H 35.2404 1.52984 -2.85948 0
M  V30 398 H 35.0254 0.10687 -3.91954 0
M  V30 399 H 36.5154 1.09075 -4.03104 0
M  V30 400 N 36.9525 1.47285 -0.560781 0
M  V30 401 C 38.2005 2.02064 -0.0379868 0
M  V30 402 C 38.5215 1.43711 1.31803 0
M  V30 403 O 37.7915 0.61362 1.86042 0
M  V30 404 H 36.3715 0.746918 -0.0110531 0
M  V30 405 H 39.0335 1.80648 -0.731598 0
M  V30 406 H 38.1295 3.12064 0.0474463 0
M  V30 407 N 38.4306 0.297415 1.54768 0
M  V30 408 C 39.6556 -0.318435 2.04941 0
M  V30 409 C 40.0806 -1.4701 1.17345 0
M  V30 410 O 39.4386 -1.80436 0.176758 0
M  V30 411 C 39.4866 -0.755749 3.52592 0
M  V30 412 O 38.5906 -1.86088 3.68028 0
M  V30 413 H 37.9316 -0.062421 0.661059 0
M  V30 414 H 40.4616 0.438215 1.99852 0
M  V30 415 H 40.4716 -1.04552 3.94376 0
M  V30 416 H 39.1466 0.0867233 4.1581 0
M  V30 417 H 37.7236 -1.57193 3.38149 0
M  V30 418 N 39.9087 -1.5758 0.0250728 0
M  V30 419 C 41.1557 -1.91633 -0.654444 0
M  V30 420 C 41.4837 -0.901103 -1.72367 0
M  V30 421 O 40.7387 0.0905647 -1.9549 0
M  V30 422 C 41.0377 -3.32421 -1.31268 0
M  V30 423 C 40.7037 -4.49344 -0.374223 0
M  V30 424 C 39.3657 -4.8106 -0.115911 0
M  V30 425 C 41.7177 -5.20498 0.270432 0
M  V30 426 C 39.0457 -5.8129 0.79493 0
M  V30 427 C 41.3977 -6.21699 1.1693 0
M  V30 428 C 40.0617 -6.51859 1.43655 0
M  V30 429 H 39.3317 -0.701236 -0.239478 0
M  V30 430 H 41.9787 -1.91307 0.0859734 0
M  V30 431 H 40.2837 -3.28989 -2.12775 0
M  V30 432 H 41.9807 -3.56038 -1.84494 0
M  V30 433 H 38.5707 -4.24579 -0.58573 0
M  V30 434 H 42.7547 -4.96229 0.0839194 0
M  V30 435 H 38.0107 -6.03005 1.00973 0
M  V30 436 H 42.1847 -6.75955 1.67504 0
M  V30 437 H 39.8117 -7.2934 2.144 0
M  V30 438 N 41.3868 0.248026 -1.55636 0
M  V30 439 C 42.3498 1.29044 -1.89421 0
M  V30 440 C 43.3498 1.41134 -0.770581 0
M  V30 441 O 44.5398 1.39854 -1.03858 0
M  V30 442 C 41.6718 2.66831 -2.12165 0
M  V30 443 H 42.8648 1.00305 -2.82629 0
M  V30 444 H 40.4178 0.487265 -1.48511 0
M  V30 445 H 41.1528 3.00711 -1.21422 0
M  V30 446 H 40.9378 2.59438 -2.93997 0
M  V30 447 H 42.4278 3.42103 -2.3949 0
M  V30 448 N 42.8649 1.48995 0.513639 0
M  V30 449 C 43.8279 1.64229 1.59879 0
M  V30 450 C 44.8279 0.514696 1.5234 0
M  V30 451 O 46.0179 0.78087 1.55718 0
M  V30 452 C 43.1499 1.62783 2.99524 0
M  V30 453 H 44.3429 2.61004 1.47705 0
M  V30 454 H 41.8959 1.37837 0.736936 0
M  V30 455 H 42.6309 0.675461 3.17188 0
M  V30 456 H 42.4159 2.4466 3.06404 0
M  V30 457 H 43.9059 1.76669 3.78388 0
M  V30 458 N 44.343 -0.763751 1.37857 0
M  V30 459 C 45.589 -1.52483 1.33704 0
M  V30 460 C 45.922 -1.94051 -0.0759612 0
M  V30 461 O 45.197 -1.64675 -1.03501 0
M  V30 462 C 45.48 -2.78441 2.28348 0
M  V30 463 C 45.333 -2.43075 3.78463 0
M  V30 464 C 46.652 -3.80415 2.21298 0
M  V30 465 H 43.771 -0.553169 0.487005 0
M  V30 466 H 46.413 -0.875562 1.68624 0
M  V30 467 H 44.563 -3.33842 1.987 0
M  V30 468 H 46.235 -1.93527 4.18742 0
M  V30 469 H 44.478 -1.75666 3.96641 0
M  V30 470 H 45.149 -3.33149 4.40132 0
M  V30 471 H 47.625 -3.34527 2.47449 0
M  V30 472 H 46.501 -4.66257 2.89647 0
M  V30 473 H 46.762 -4.25262 1.20849 0
M  V30 474 N 45.8211 -1.22559 -0.990812 0
M  V30 475 C 47.0611 -1.06302 -1.74583 0
M  V30 476 C 47.4251 0.394737 -1.87898 0
M  V30 477 O 48.6261 0.678214 -2.60103 0
M  V30 478 C 46.8971 -1.75699 -3.11231 0
M  V30 479 S 48.4561 -1.74882 -4.02445 0
M  V30 480 H 45.2741 -0.380639 -0.600529 0
M  V30 481 H 47.8761 -1.55532 -1.18449 0
M  V30 482 H 46.5801 -2.80923 -2.99183 0
M  V30 483 H 46.1111 -1.26708 -3.72436 0
M  V30 484 H 48.1261 -0.799997 -4.89709 0
M  V30 485 N 47.2992 1.18797 -1.03562 0
M  V30 486 C 48.5242 1.9314 -0.755764 0
M  V30 487 C 48.9492 1.7537 0.68022 0
M  V30 488 O 48.3072 1.06046 1.47051 0
M  V30 489 C 48.3552 3.42747 -1.12058 0
M  V30 490 O 47.4592 4.11683 -0.243124 0
M  V30 491 H 46.8002 0.602724 -0.278604 0
M  V30 492 H 49.3302 1.50678 -1.3841 0
M  V30 493 H 49.3402 3.93437 -1.08035 0
M  V30 494 H 48.0152 3.55002 -2.16672 0
M  V30 495 H 46.5922 3.71323 -0.342539 0
M  V30 496 N 48.7773 0.814389 1.34928 0
M  V30 497 C 50.1933 0.499084 1.51596 0
M  V30 498 C 50.3933 -0.978319 1.76157 0
M  V30 499 O 49.4493 -1.76309 1.80752 0
M  V30 500 C 50.7623 1.35121 2.68631 0
M  V30 501 C 52.3103 1.34746 2.82511 0
M  V30 502 C 52.7853 2.18388 4.0258 0
M  V30 503 N 54.2763 2.15966 4.09772 0
M  V30 504 C 55.0113 2.77437 5.01813 0
M  V30 505 N 54.5073 3.47866 5.99134 0
M  V30 506 N 56.3003 2.67037 4.94619 0
M  V30 507 H 48.4513 1.7711 1.17243 0
M  V30 508 H 50.7143 0.754256 0.574284 0
M  V30 509 H 50.4203 2.40001 2.57085 0
M  V30 510 H 50.2943 1.00991 3.63429 0
M  V30 511 H 52.6813 0.30648 2.93504 0
M  V30 512 H 52.7623 1.72869 1.88547 0
M  V30 513 H 52.4063 3.2253 3.92347 0
M  V30 514 H 52.3363 1.77621 4.9574 0
M  V30 515 H 54.8273 1.64729 3.40107 0
M  V30 516 H 55.1403 3.92038 6.65977 0
M  V30 517 H 53.4853 3.51972 5.99284 0
M  V30 518 H 56.6763 2.11597 4.17546 0
M  V30 519 H 56.8493 3.15232 5.66156 0
M  V30 520 N 50.2554 -1.46986 0.568584 0
M  V30 521 C 51.4804 -2.07335 0.0520528 0
M  V30 522 C 51.9054 -1.41675 -1.23733 0
M  V30 523 O 51.2634 -0.495623 -1.74394 0
M  V30 524 C 51.3114 -3.60417 -0.11501 0
M  V30 525 O 50.4154 -3.95309 -1.17492 0
M  V30 526 H 49.7564 -0.661597 0.0564385 0
M  V30 527 H 52.2864 -1.88837 0.787507 0
M  V30 528 H 52.2964 -4.06698 -0.325644 0
M  V30 529 H 50.9714 -4.07601 0.826675 0
M  V30 530 H 49.5484 -3.60757 -0.943869 0
M  V30 531 N 51.7335 -0.305618 -1.54608 0
M  V30 532 C 52.9795 0.302746 -2.00528 0
M  V30 533 C 53.3125 1.53184 -1.19367 0
M  V30 534 O 52.5875 1.92598 -0.271321 0
M  V30 535 C 52.8705 0.654756 -3.54097 0
M  V30 536 C 52.7235 -0.583793 -4.45995 0
M  V30 537 C 54.0425 1.47947 -4.14487 0
M  V30 538 H 51.1615 0.108564 -0.72896 0
M  V30 539 H 53.8035 -0.418634 -1.85331 0
M  V30 540 H 51.9535 1.26935 -3.67178 0
M  V30 541 H 53.6255 -1.22224 -4.44814 0
M  V30 542 H 51.8685 -1.21615 -4.16404 0
M  V30 543 H 52.5395 -0.293287 -5.5122 0
M  V30 544 H 55.0155 0.96013 -4.04871 0
M  V30 545 H 53.8915 1.69454 -5.22088 0
M  V30 546 H 54.1525 2.47011 -3.66658 0
M  V30 547 N 53.2116 1.57565 -0.0334293 0
M  V30 548 C 54.1746 2.09393 0.932048 0
M  V30 549 C 55.1746 1.00986 1.25134 0
M  V30 550 O 56.3646 1.27129 1.19096 0
M  V30 551 C 53.4966 2.56338 2.2473 0
M  V30 552 H 54.6896 2.95984 0.483085 0
M  V30 553 H 52.2426 1.54819 0.21468 0
M  V30 554 H 52.9776 1.7309 2.74245 0
M  V30 555 H 52.7626 3.35542 2.02865 0
M  V30 556 H 54.2526 2.96646 2.93923 0
M  V30 557 N 54.6897 -0.239769 1.55765 0
M  V30 558 C 55.9147 -0.988373 1.82335 0
M  V30 559 C 56.3397 -1.77886 0.611421 0
M  V30 560 O 55.6977 -1.75889 -0.439639 0
M  V30 561 C 55.7457 -1.89627 3.06715 0
M  V30 562 O 54.8497 -2.98904 2.84131 0
M  V30 563 H 54.1907 -0.280858 0.601677 0
M  V30 564 H 56.7207 -0.258597 2.02959 0
M  V30 565 H 56.7307 -2.30957 3.36338 0
M  V30 566 H 55.4057 -1.31511 3.9456 0
M  V30 567 H 53.9827 -2.61651 2.65694 0
M  V30 568 N 56.1678 -1.49265 -0.50573 0
M  V30 569 C 57.1148 -1.65585 -1.6078 0
M  V30 570 C 58.0848 -0.497396 -1.58478 0
M  V30 571 O 59.2698 -0.72385 -1.76536 0
M  V30 572 C 56.4098 -1.72408 -2.98948 0
M  V30 573 C 55.5228 -2.99525 -3.11301 0
M  V30 574 C 54.6578 -2.97356 -4.40174 0
M  V30 575 C 53.6968 -4.19074 -4.46143 0
M  V30 576 N 52.8338 -4.14841 -5.66437 0
M  V30 577 H 57.6738 -2.59688 -1.46172 0
M  V30 578 H 55.2108 -1.28761 -0.711261 0
M  V30 579 H 57.1688 -1.74344 -3.79025 0
M  V30 580 H 55.7988 -0.817753 -3.1227 0
M  V30 581 H 54.8508 -3.07222 -2.24318 0
M  V30 582 H 56.1628 -3.89518 -3.11572 0
M  V30 583 H 55.3168 -2.97829 -5.28567 0
M  V30 584 H 54.0558 -2.05133 -4.42461 0
M  V30 585 H 53.0608 -4.1885 -3.56153 0
M  V30 586 H 54.2858 -5.12483 -4.45575 0
M  V30 587 H 52.2318 -3.25453 -5.69575 0
M  V30 588 H 52.1488 -4.98564 -5.68304 0
M  V30 589 H 53.4168 -4.1941 -6.57051 0
M  V30 590 N 57.6459 0.756429 -1.3826 0
M  V30 591 C 58.8739 1.54565 -1.3754 0
M  V30 592 C 59.2889 1.88767 0.0355331 0
M  V30 593 O 58.6459 1.52572 1.0014 0
M  V30 594 C 58.6969 2.84654 -2.22833 0
M  V30 595 O 58.4179 2.51912 -3.5843 0
M  V30 596 C 59.9189 3.78807 -2.30261 0
M  V30 597 H 57.1389 0.478353 -0.470553 0
M  V30 598 H 59.6829 0.936381 -1.81803 0
M  V30 599 H 57.8379 3.41965 -1.8204 0
M  V30 600 H 58.2519 3.35325 -4.03308 0
M  V30 601 H 59.7259 4.67045 -2.94233 0
M  V30 602 H 60.2029 4.19038 -1.31545 0
M  V30 603 H 60.8089 3.2742 -2.71433 0
M  V30 604 N 59.124 1.23083 0.984299 0
M  V30 605 C 60.535 1.05609 1.5396 0
M  V30 606 C 60.886 -0.377793 1.92528 0
M  V30 607 O 60.011 -1.26398 1.75649 0
M  V30 608 C 60.606 1.91087 2.7977 0
M  V30 609 C 59.165 1.77885 3.31713 0
M  V30 610 C 58.312 1.87028 2.04733 0
M  V30 611 H 61.263 1.36802 0.804419 0
M  V30 612 H 61.284 1.43336 3.5247 0
M  V30 613 H 60.796 2.9544 2.51668 0
M  V30 614 H 58.897 0.762995 3.64704 0
M  V30 615 H 59.01 2.61047 4.01735 0
M  V30 616 H 57.374 1.30565 2.18689 0
M  V30 617 H 58.157 2.92929 1.79017 0
M  V30 618 N 60.6021 -1.18246 1.0419 0
M  V30 619 C 61.8481 -1.88536 0.747122 0
M  V30 620 C 62.1811 -1.80223 -0.723409 0
M  V30 621 O 61.4561 -1.20337 -1.52804 0
M  V30 622 C 61.7391 -3.38968 1.21544 0
M  V30 623 C 61.5921 -3.56084 2.74816 0
M  V30 624 C 62.9111 -4.32648 0.806482 0
M  V30 625 H 60.0301 -0.684619 0.272883 0
M  V30 626 H 62.6721 -1.39113 1.29413 0
M  V30 627 H 60.8221 -3.8119 0.750081 0
M  V30 628 H 62.4941 -3.22946 3.29399 0
M  V30 629 H 60.7371 -2.98699 3.14582 0
M  V30 630 H 61.4081 -4.61639 3.02644 0
M  V30 631 H 63.8841 -3.98211 1.20695 0
M  V30 632 H 62.7601 -5.36462 1.1619 0
M  V30 633 H 63.0211 -4.41146 -0.29029 0
M  V30 634 N 62.0802 -0.821533 -1.34494 0
M  V30 635 C 63.3282 -0.408139 -1.97936 0
M  V30 636 C 63.6492 1.03193 -1.65457 0
M  V30 637 O 62.9192 1.71622 -0.944595 0
M  V30 638 H 61.4992 -0.147928 -0.732206 0
M  V30 639 H 64.1612 -1.05067 -1.64155 0
M  V30 640 H 63.2572 -0.52601 -3.07635 0
M  V30 641 N 63.5583 1.46682 -0.576371 0
M  V30 642 C 64.8053 2.02412 -0.0595339 0
M  V30 643 C 65.1333 1.44859 1.29793 0
M  V30 644 O 64.3883 0.601099 1.8624 0
M  V30 645 C 64.6873 3.57345 0.062886 0
M  V30 646 C 64.3533 4.33908 -1.22616 0
M  V30 647 C 63.0153 4.54544 -1.57933 0
M  V30 648 C 65.3673 4.77919 -2.07948 0
M  V30 649 C 62.6953 5.16444 -2.78393 0
M  V30 650 C 65.0473 5.41149 -3.27629 0
M  V30 651 C 63.7113 5.60014 -3.63236 0
M  V30 652 H 62.9813 0.74068 -0.021785 0
M  V30 653 H 65.6283 1.76128 -0.751735 0
M  V30 654 H 63.9333 3.82729 0.838178 0
M  V30 655 H 65.6303 3.98136 0.478439 0
M  V30 656 H 62.2203 4.18138 -0.941202 0
M  V30 657 H 66.4043 4.61738 -1.81967 0
M  V30 658 H 61.6603 5.29242 -3.06126 0
M  V30 659 H 65.8343 5.74211 -3.94023 0
M  V30 660 H 63.4613 6.07748 -4.56669 0
M  V30 661 N 65.0364 0.313813 1.54444 0
M  V30 662 C 66.2854 -0.292519 1.99568 0
M  V30 663 C 66.5984 -1.54011 1.20582 0
M  V30 664 O 67.8044 -2.22183 1.56035 0
M  V30 665 C 66.2604 -0.571752 3.55329 0
M  V30 666 C 65.8684 0.658229 4.43138 0
M  V30 667 C 67.6124 -1.13857 4.08946 0
M  V30 668 C 65.5194 0.351439 5.90355 0
M  V30 669 H 64.4494 -0.113079 0.745472 0
M  V30 670 H 67.1004 0.424518 1.78522 0
M  V30 671 H 65.4824 -1.34872 3.72325 0
M  V30 672 H 66.6564 1.43403 4.37918 0
M  V30 673 H 64.9714 1.14458 4.0036 0
M  V30 674 H 67.5684 -1.38257 5.16516 0
M  V30 675 H 67.9114 -2.08489 3.6033 0
M  V30 676 H 68.4444 -0.423015 3.95544 0
M  V30 677 H 65.1834 1.26667 6.43145 0
M  V30 678 H 64.7034 -0.386842 5.98551 0
M  V30 679 H 66.3824 -0.0423134 6.46986 0
M  V30 680 N 66.5145 -1.57545 0.0417849 0
M  V30 681 C 67.7625 -1.91937 -0.632829 0
M  V30 682 C 68.0835 -0.919978 -1.71934 0
M  V30 683 O 67.3535 0.0366064 -1.95866 0
M  V30 684 H 65.9335 -0.708493 -0.236742 0
M  V30 685 H 68.5955 -1.9468 0.0925745 0
M  V30 686 H 67.6915 -2.92912 -1.07746 0
M  V30 687 N 67.9926 0.231505 -1.5589 0
M  V30 688 C 68.9226 1.29022 -1.94617 0
M  V30 689 C 69.9036 1.4941 -0.813067 0
M  V30 690 O 71.0886 1.6176 -1.07459 0
M  V30 691 C 68.2186 2.64199 -2.25424 0
M  V30 692 C 67.1726 2.58484 -3.41131 0
M  V30 693 C 66.4986 3.97599 -3.57518 0
M  V30 694 C 67.7986 2.1413 -4.76388 0
M  V30 695 H 69.4926 0.968563 -2.83301 0
M  V30 696 H 67.0386 0.464479 -1.36303 0
M  V30 697 H 68.9916 3.38413 -2.51107 0
M  V30 698 H 67.7156 2.98032 -1.33583 0
M  V30 699 H 66.3746 1.86727 -3.15481 0
M  V30 700 H 66.0226 4.28723 -2.6307 0
M  V30 701 H 65.7226 3.94659 -4.35337 0
M  V30 702 H 67.2466 4.7349 -3.85538 0
M  V30 703 H 68.6606 2.78083 -5.01341 0
M  V30 704 H 67.0576 2.2227 -5.57419 0
M  V30 705 H 68.1276 1.09331 -4.72414 0
M  V30 706 N 69.4707 1.49531 0.497807 0
M  V30 707 C 70.7187 1.58865 1.24926 0
M  V30 708 C 71.0397 0.278721 1.92998 0
M  V30 709 O 70.3097 -0.702144 1.82885 0
M  V30 710 H 68.8897 0.585343 0.464094 0
M  V30 711 H 71.5517 1.86174 0.57666 0
M  V30 712 H 70.6477 2.38633 2.01149 0
M  V30 713 N 70.9488 -0.749086 1.3866 0
M  V30 714 C 71.8968 -1.88428 1.36373 0
M  V30 715 C 72.8908 -1.67561 0.248929 0
M  V30 716 O 74.0968 -1.75074 0.41821 0
M  V30 717 H 70.4718 -0.620023 0.42553 0
M  V30 718 H 72.4428 -1.87473 2.32156 0
M  V30 719 C 71.1918 -3.25961 1.21014 0
M  V30 720 H 70.5148 -3.42607 2.06059 0
M  V30 721 H 71.9548 -4.05625 1.23469 0
M  V30 722 C 70.4138 -3.36799 -0.0825941 0
M  V30 723 O 70.9438 -3.87517 -1.05797 0
M  V30 724 N 69.1498 -2.90258 -0.140939 0
M  V30 725 H 68.6968 -2.49174 0.653477 0
M  V30 726 H 68.6548 -2.97889 -1.00545 0
M  V30 727 N 72.4269 -1.23603 -0.977757 0
M  V30 728 C 73.3599 -0.962772 -2.06896 0
M  V30 729 C 74.3379 0.0998743 -1.62293 0
M  V30 730 O 75.5219 -0.0349421 -1.88468 0
M  V30 731 C 72.6489 -0.45095 -3.35685 0
M  V30 732 C 71.6949 -1.50061 -3.99229 0
M  V30 733 S 72.5279 -3.07884 -4.38142 0
M  V30 734 C 73.6839 -2.58378 -5.7008 0
M  V30 735 H 73.9169 -1.88677 -2.29757 0
M  V30 736 H 71.4499 -1.06876 -1.11431 0
M  V30 737 H 73.4079 -0.162261 -4.10179 0
M  V30 738 H 72.0689 0.452179 -3.10828 0
M  V30 739 H 71.2619 -1.09269 -4.92013 0
M  V30 740 H 70.8639 -1.73878 -3.31123 0
M  V30 741 H 73.1559 -2.00563 -6.47133 0
M  V30 742 H 74.0989 -3.49711 -6.15717 0
M  V30 743 H 74.5069 -1.99143 -5.28207 0
M  V30 744 N 73.905 1.17692 -1.04816 0
M  V30 745 C 75.153 1.87488 -0.754497 0
M  V30 746 C 75.474 1.81205 0.720407 0
M  V30 747 O 74.744 1.23544 1.52032 0
M  V30 748 H 73.324 0.694101 -0.276102 0
M  V30 749 H 75.986 1.42793 -1.32651 0
M  V30 750 H 75.082 2.93328 -1.06606 0
M  V30 751 N 75.3831 0.828654 1.34056 0
M  V30 752 C 76.3311 0.242973 2.31327 0
M  V30 753 C 77.3251 -0.61944 1.57668 0
M  V30 754 O 78.5311 -0.51014 1.7262 0
M  V30 755 H 74.9061 0.059834 0.749616 0
M  V30 756 H 76.8771 1.07809 2.78244 0
M  V30 757 C 75.6261 -0.575733 3.429 0
M  V30 758 H 74.9491 0.0785582 3.99723 0
M  V30 759 H 76.3891 -0.951547 4.13185 0
M  V30 760 C 74.8481 -1.75044 2.87856 0
M  V30 761 O 75.3781 -2.84882 2.83205 0
M  V30 762 N 73.5841 -1.56903 2.44602 0
M  V30 763 H 73.1311 -0.675547 2.48584 0
M  V30 764 H 73.0891 -2.35652 2.08124 0
M  V30 765 N 76.8612 -1.46375 0.584142 0
M  V30 766 C 78.2722 -1.86031 0.157959 0
M  V30 767 C 78.6232 -1.48753 -1.27933 0
M  V30 768 O 77.7482 -0.903098 -1.96655 0
M  V30 769 C 78.3432 -3.37642 0.279892 0
M  V30 770 C 76.9022 -3.76289 -0.09143 0
M  V30 771 C 76.0492 -2.7039 0.615178 0
M  V30 772 H 79.0002 -1.37509 0.792274 0
M  V30 773 H 79.0212 -3.77275 -0.494364 0
M  V30 774 H 78.5332 -3.64742 1.32607 0
M  V30 775 H 76.6342 -3.54806 -1.13769 0
M  V30 776 H 76.7472 -4.78246 0.285886 0
M  V30 777 H 75.1112 -2.5464 0.0552833 0
M  V30 778 H 75.8942 -3.0033 1.66303 0
M  V30 779 N 78.3393 -0.321999 -1.54275 0
M  V30 780 C 79.2723 0.58718 -2.20516 0
M  V30 781 C 80.2503 1.11693 -1.18167 0
M  V30 782 O 81.4343 1.18122 -1.46899 0
M  V30 783 C 78.5613 1.80554 -2.86562 0
M  V30 784 C 77.6073 1.40718 -4.02617 0
M  V30 785 S 78.4403 0.445218 -5.33646 0
M  V30 786 C 79.5963 1.6709 -6.03185 0
M  V30 787 H 79.8293 0.0244875 -2.9729 0
M  V30 788 H 77.3623 -0.106087 -1.54035 0
M  V30 789 H 79.3203 2.50462 -3.25237 0
M  V30 790 H 77.9813 2.33942 -2.09595 0
M  V30 791 H 77.1743 2.31501 -4.47687 0
M  V30 792 H 76.7763 0.78782 -3.65608 0
M  V30 793 H 79.0683 2.60856 -6.25268 0
M  V30 794 H 80.0113 1.26239 -6.96756 0
M  V30 795 H 80.4193 1.85716 -5.33076 0
M  V30 796 N 79.8174 1.5752 -0.0501392 0
M  V30 797 C 80.7804 2.1037 0.909786 0
M  V30 798 C 81.7804 1.02308 1.24056 0
M  V30 799 O 82.9704 1.28385 1.17741 0
M  V30 800 C 80.1024 2.58708 2.21998 0
M  V30 801 H 81.2954 2.96479 0.451665 0
M  V30 802 H 78.8484 1.55038 0.198248 0
M  V30 803 H 79.5834 1.75989 2.72394 0
M  V30 804 H 79.3684 3.37675 1.99295 0
M  V30 805 H 80.8584 2.99747 2.9076 0
M  V30 806 N 81.2955 -0.223234 1.56011 0
M  V30 807 C 82.2425 -1.27664 1.92277 0
M  V30 808 C 83.2125 -1.46659 0.779763 0
M  V30 809 O 84.3975 -1.60256 1.03551 0
M  V30 810 C 81.5375 -2.62234 2.24338 0
M  V30 811 C 80.6505 -2.51051 3.51564 0
M  V30 812 C 79.7855 -3.78133 3.7308 0
M  V30 813 C 78.8245 -3.61665 4.93827 0
M  V30 814 N 77.9615 -4.80693 5.11741 0
M  V30 815 H 82.8015 -0.960358 2.82101 0
M  V30 816 H 80.3385 -0.462901 1.39627 0
M  V30 817 H 82.2965 -3.40596 2.40936 0
M  V30 818 H 80.9265 -2.91961 1.3769 0
M  V30 819 H 79.9785 -1.64132 3.43169 0
M  V30 820 H 81.2905 -2.34803 4.40079 0
M  V30 821 H 80.4445 -4.64938 3.89766 0
M  V30 822 H 79.1835 -3.97304 2.82844 0
M  V30 823 H 78.1885 -2.73244 4.77093 0
M  V30 824 H 79.4135 -3.43966 5.85546 0
M  V30 825 H 77.3595 -5.00181 4.24446 0
M  V30 826 H 77.2765 -4.67165 5.94384 0
M  V30 827 H 78.5445 -5.6893 5.3286 0
M  V30 828 N 82.7736 -1.49793 -0.48987 0
M  V30 829 C 83.7216 -1.67783 -1.61095 0
M  V30 830 C 84.7156 -0.543683 -1.60438 0
M  V30 831 O 85.9216 -0.723647 -1.64813 0
M  V30 832 H 82.2966 -0.529255 -0.534222 0
M  V30 833 H 84.2676 -2.61861 -1.43078 0
M  V30 834 C 83.0166 -1.77191 -2.99164 0
M  V30 835 H 82.3396 -2.63841 -3.0038 0
M  V30 836 H 83.7796 -1.93809 -3.77113 0
M  V30 837 C 82.2386 -0.519203 -3.32875 0
M  V30 838 O 82.7686 0.350124 -4.00171 0
M  V30 839 N 80.9746 -0.378816 -2.8812 0
M  V30 840 H 80.5216 -1.08725 -2.33531 0
M  V30 841 H 80.4796 0.458239 -3.11043 0
M  V30 842 N 84.2517 0.741722 -1.39055 0
M  V30 843 C 85.1817 1.869 -1.39966 0
M  V30 844 C 86.1627 1.6804 -0.26392 0
M  V30 845 O 87.3477 1.88458 -0.468755 0
M  V30 846 C 84.4777 3.24572 -1.23574 0
M  V30 847 C 83.4317 3.58056 -2.34477 0
M  V30 848 C 82.7577 4.94593 -2.0318 0
M  V30 849 C 84.0577 3.61716 -3.76774 0
M  V30 850 H 85.7517 1.86395 -2.34302 0
M  V30 851 H 83.2977 0.895361 -1.1278 0
M  V30 852 H 85.2507 4.031 -1.22834 0
M  V30 853 H 83.9747 3.25587 -0.257045 0
M  V30 854 H 82.6337 2.81854 -2.34423 0
M  V30 855 H 82.2817 4.92181 -1.03765 0
M  V30 856 H 81.9817 5.17964 -2.77465 0
M  V30 857 H 83.5057 5.75486 -2.04079 0
M  V30 858 H 84.9197 4.30335 -3.78794 0
M  V30 859 H 83.3167 3.96603 -4.50362 0
M  V30 860 H 84.3867 2.61672 -4.08235 0
M  V30 861 N 85.7298 1.2412 0.971189 0
M  V30 862 C 86.6628 0.97373 2.06382 0
M  V30 863 C 87.6408 -0.0912662 1.62344 0
M  V30 864 O 88.8248 0.0449365 1.88446 0
M  V30 865 C 85.9518 0.468746 3.35441 0
M  V30 866 C 84.9978 1.52176 3.98428 0
M  V30 867 S 85.8308 3.10203 4.36503 0
M  V30 868 C 86.9868 2.61398 5.68702 0
M  V30 869 H 87.2198 1.89893 2.28753 0
M  V30 870 H 84.7528 1.07466 1.10862 0
M  V30 871 H 86.7108 0.184012 4.10087 0
M  V30 872 H 85.3718 -0.435688 3.11064 0
M  V30 873 H 84.5648 1.11876 4.91426 0
M  V30 874 H 84.1668 1.75632 3.30196 0
M  V30 875 H 86.4588 2.03992 6.4606 0
M  V30 876 H 87.4018 3.52972 6.13854 0
M  V30 877 H 87.8098 2.01941 5.27143 0
M  V30 878 N 87.2079 -1.17134 1.05439 0
M  V30 879 C 88.1549 -2.21235 0.657539 0
M  V30 880 C 89.1249 -1.62551 -0.341543 0
M  V30 881 O 90.3099 -1.89379 -0.232393 0
M  V30 882 C 87.4499 -3.45076 0.0410575 0
M  V30 883 C 86.5629 -4.18042 1.08927 0
M  V30 884 C 85.6979 -5.29376 0.439848 0
M  V30 885 C 84.7369 -5.94132 1.4722 0
M  V30 886 N 83.8739 -6.96975 0.846756 0
M  V30 887 H 88.7139 -2.54534 1.54972 0
M  V30 888 H 86.2509 -1.25028 0.775006 0
M  V30 889 H 88.2089 -4.15862 -0.33383 0
M  V30 890 H 86.8389 -3.12353 -0.814568 0
M  V30 891 H 85.8909 -3.45945 1.58196 0
M  V30 892 H 87.2029 -4.62306 1.87282 0
M  V30 893 H 86.3569 -6.06699 0.0115125 0
M  V30 894 H 85.0959 -4.86251 -0.375656 0
M  V30 895 H 84.1009 -5.15538 1.91052 0
M  V30 896 H 85.3259 -6.39337 2.28965 0
M  V30 897 H 83.2719 -6.5598 0.0518075 0
M  V30 898 H 83.1889 -7.39565 1.5678 0
M  V30 899 H 84.4569 -7.78239 0.443277 0
M  V30 900 N 88.686 -0.835752 -1.33615 0
M  V30 901 C 89.636 -0.238856 -2.26745 0
M  V30 902 C 90.62 0.604343 -1.49119 0
M  V30 903 O 91.812 0.456822 -1.71003 0
M  V30 904 C 88.941 0.587725 -3.38232 0
M  V30 905 C 88.027 -0.266811 -4.2326 0
M  V30 906 N 88.418 -1.34403 -4.87616 0
M  V30 907 C 86.716 -0.0533131 -4.45968 0
M  V30 908 C 87.417 -1.86819 -5.50884 0
M  V30 909 N 86.393 -1.17013 -5.30857 0
M  V30 910 H 90.195 -1.06266 -2.74016 0
M  V30 911 H 87.709 -0.679881 -1.47483 0
M  V30 912 H 89.706 1.03161 -4.03935 0
M  V30 913 H 88.366 1.40954 -2.9251 0
M  V30 914 H 89.377 -1.7269 -4.88261 0
M  V30 915 H 86.054 0.735312 -4.10974 0
M  V30 916 H 87.444 -2.7701 -6.1214 0
M  V30 917 N 90.1641 1.46063 -0.591896 0
M  V30 918 C 91.4121 2.01938 -0.0808391 0
M  V30 919 C 91.7331 1.46475 1.28725 0
M  V30 920 O 91.0031 0.652944 1.84698 0
M  V30 921 H 89.5831 0.746516 -0.0268938 0
M  V30 922 H 92.2451 1.79055 -0.769752 0
M  V30 923 H 91.3411 3.12094 -0.0187578 0
M  V30 924 N 91.6422 0.330177 1.54103 0
M  V30 925 C 92.8722 -0.271784 2.04805 0
M  V30 926 C 93.2802 -1.45816 1.20559 0
M  V30 927 O 92.6232 -1.82247 0.2306 0
M  V30 928 C 92.6852 -0.763238 3.51305 0
M  V30 929 C 92.3492 0.301705 4.56003 0
M  V30 930 C 93.3462 1.13999 5.07248 0
M  V30 931 C 91.0312 0.451793 5.00264 0
M  V30 932 C 93.0252 2.11402 6.01322 0
M  V30 933 C 90.7122 1.42924 5.94151 0
M  V30 934 C 91.7102 2.25882 6.44567 0
M  V30 935 O 91.3982 3.21965 7.3661 0
M  V30 936 H 91.1302 -0.058693 0.673447 0
M  V30 937 H 93.6842 0.476395 1.99799 0
M  V30 938 H 91.9142 -1.56244 3.5373 0
M  V30 939 H 93.6032 -1.28427 3.85047 0
M  V30 940 H 94.3692 1.03505 4.73827 0
M  V30 941 H 90.2482 -0.184044 4.60632 0
M  V30 942 H 93.7922 2.76192 6.40596 0
M  V30 943 H 89.6892 1.53479 6.26988 0
M  V30 944 H 90.4572 3.17281 7.54503 0
M  V30 945 N 93.1203 -1.57491 0.0584922 0
M  V30 946 C 94.5313 -1.80526 -0.476138 0
M  V30 947 C 94.8823 -0.971334 -1.70469 0
M  V30 948 O 94.0073 -0.190012 -2.15564 0
M  V30 949 C 94.6023 -3.27424 -0.870587 0
M  V30 950 C 93.1613 -3.51351 -1.35015 0
M  V30 951 C 92.3083 -2.75343 -0.32887 0
M  V30 952 H 95.2593 -1.56133 0.284312 0
M  V30 953 H 95.2803 -3.38745 -1.73299 0
M  V30 954 H 94.7923 -3.88093 0.0237627 0
M  V30 955 H 92.8933 -2.95971 -2.26345 0
M  V30 956 H 93.0063 -4.60059 -1.33726 0
M  V30 957 H 91.3703 -2.417 -0.803321 0
M  V30 958 H 92.1533 -3.38743 0.557521 0
M  V30 959 N 94.5984 0.214957 -1.56127 0
M  V30 960 C 95.5284 1.2695 -1.95974 0
M  V30 961 C 96.5094 1.48539 -0.828868 0
M  V30 962 O 97.6944 1.60611 -1.09168 0
M  V30 963 C 94.8244 2.61794 -2.28214 0
M  V30 964 C 93.7784 2.54851 -3.43853 0
M  V30 965 C 93.1044 3.93785 -3.61715 0
M  V30 966 C 94.4044 2.09065 -4.78632 0
M  V30 967 H 96.0984 0.93846 -2.84312 0
M  V30 968 H 93.6444 0.449996 -1.36788 0
M  V30 969 H 95.5974 3.35731 -2.54682 0
M  V30 970 H 94.3214 2.96599 -1.36736 0
M  V30 971 H 92.9804 1.8337 -3.17444 0
M  V30 972 H 92.6284 4.25908 -2.67602 0
M  V30 973 H 92.3284 3.90019 -4.39498 0
M  V30 974 H 93.8524 4.69374 -3.90539 0
M  V30 975 H 95.2664 2.7275 -5.04262 0
M  V30 976 H 93.6634 2.16346 -5.59745 0
M  V30 977 H 94.7334 1.04315 -4.73547 0
M  V30 978 N 96.0765 1.50051 0.48192 0
M  V30 979 C 97.3255 1.59741 1.23149 0
M  V30 980 C 97.6385 0.298163 1.93314 0
M  V30 981 O 98.8445 0.273835 2.70116 0
M  V30 982 C 97.3005 2.81926 2.23708 0
M  V30 983 C 96.9085 4.18685 1.59396 0
M  V30 984 C 98.6525 3.00956 2.99375 0
M  V30 985 C 96.5595 5.3207 2.58178 0
M  V30 986 H 95.4895 0.594838 0.46334 0
M  V30 987 H 98.1405 1.76467 0.503169 0
M  V30 988 H 96.5225 2.58736 2.99786 0
M  V30 989 H 97.6965 4.52088 0.891811 0
M  V30 990 H 96.0115 4.05171 0.960503 0
M  V30 991 H 98.6085 3.82836 3.73283 0
M  V30 992 H 98.9515 2.12258 3.58123 0
M  V30 993 H 99.4845 3.24277 2.30411 0
M  V30 994 H 96.2235 6.22888 2.04184 0
M  V30 995 H 95.7435 5.03098 3.26577 0
M  V30 996 H 97.4225 5.62196 3.20225 0
M  V30 997 N 97.5546 -0.734337 1.39446 0
M  V30 998 C 98.8036 -1.48937 1.36017 0
M  V30 999 C 99.1166 -1.95557 -0.0409005 0
M  V30 1000 O 100.323 -2.70779 -0.19778 0
M  V30 1001 C 98.7786 -2.69125 2.38955 0
M  V30 1002 C 98.3866 -2.29452 3.8478 0
M  V30 1003 C 100.131 -3.46944 2.44603 0
M  V30 1004 C 98.0376 -3.46366 4.79358 0
M  V30 1005 H 96.9676 -0.559296 0.505672 0
M  V30 1006 H 99.6186 -0.800983 1.65095 0
M  V30 1007 H 98.0006 -3.40041 2.02948 0
M  V30 1008 H 99.1746 -1.66077 4.29831 0
M  V30 1009 H 97.4896 -1.64723 3.82433 0
M  V30 1010 H 100.087 -4.33907 3.12456 0
M  V30 1011 H 100.43 -3.89454 1.47076 0
M  V30 1012 H 100.963 -2.83056 2.79507 0
M  V30 1013 H 97.7016 -3.08905 5.78151 0
M  V30 1014 H 97.2216 -4.08719 4.38986 0
M  V30 1015 H 98.9006 -4.12691 4.98292 0
M  V30 1016 N 99.0327 -1.24633 -0.964593 0
M  V30 1017 C 100.263 -1.11339 -1.74032 0
M  V30 1018 C 100.671 0.336593 -1.86182 0
M  V30 1019 O 100.014 1.24389 -1.35178 0
M  V30 1020 C 100.076 -1.68284 -3.1768 0
M  V30 1021 C 99.7397 -3.17196 -3.28992 0
M  V30 1022 C 100.737 -4.14308 -3.14078 0
M  V30 1023 C 98.4217 -3.57215 -3.53133 0
M  V30 1024 C 100.416 -5.4942 -3.23135 0
M  V30 1025 C 98.1027 -4.92468 -3.61827 0
M  V30 1026 C 99.1007 -5.8838 -3.46841 0
M  V30 1027 O 98.7887 -7.21173 -3.55197 0
M  V30 1028 H 98.5207 -0.389551 -0.552472 0
M  V30 1029 H 101.075 -1.65282 -1.21946 0
M  V30 1030 H 99.3047 -1.08777 -3.71085 0
M  V30 1031 H 100.994 -1.50234 -3.77074 0
M  V30 1032 H 101.76 -3.84731 -2.95308 0
M  V30 1033 H 97.6387 -2.83063 -3.63863 0
M  V30 1034 H 101.183 -6.24263 -3.11355 0
M  V30 1035 H 97.0797 -5.21714 -3.80111 0
M  V30 1036 H 97.8477 -7.29135 -3.71892 0
M  V30 1037 N 100.511 1.16574 -1.06058 0
M  V30 1038 C 101.788 1.83048 -0.689416 0
M  V30 1039 C 102.168 1.94122 0.829443 0
M  V30 1040 O 101.516 1.48249 1.7388 0
M  V30 1041 C 101.726 3.20186 -1.38859 0
M  V30 1042 C 103.074 3.95989 -1.53226 0
M  V30 1043 O 104.098 3.29696 -1.3483 0
M  V30 1044 O 102.957 5.14813 -1.83384 0
M  V30 1045 H 100.051 0.790258 -0.243764 0
M  V30 1046 H 102.597 1.23797 -1.16071 0
M  V30 1047 H 101.369 3.07146 -2.4244 0
M  V30 1048 H 100.992 3.87112 -0.907216 0
M  V30 1049 N 101.989 0.842826 1.3317 0
M  V30 1050 C 103.235 0.441099 1.97945 0
M  V30 1051 C 103.568 -0.998024 1.66593 0
M  V30 1052 O 102.843 -1.69839 0.947898 0
M  V30 1053 C 103.126 0.666841 3.53872 0
M  V30 1054 C 102.979 2.15352 3.94897 0
M  V30 1055 C 104.298 0.115544 4.39948 0
M  V30 1056 H 101.417 0.161739 0.719034 0
M  V30 1057 H 104.059 1.05907 1.57746 0
M  V30 1058 H 102.209 0.140828 3.88245 0
M  V30 1059 H 103.881 2.7447 3.70761 0
M  V30 1060 H 102.124 2.63653 3.44484 0
M  V30 1061 H 102.795 2.26221 5.03516 0
M  V30 1062 H 105.271 0.565213 4.12243 0
M  V30 1063 H 104.147 0.303152 5.48062 0
M  V30 1064 H 104.408 -0.980935 4.3108 0
M  V30 1065 N 103.467 -1.45747 0.599634 0
M  V30 1066 C 104.714 -2.02292 0.0917284 0
M  V30 1067 C 105.042 -1.46906 -1.27472 0
M  V30 1068 O 104.297 -0.630652 -1.8526 0
M  V30 1069 C 104.596 -3.57399 -0.00602758 0
M  V30 1070 C 104.262 -4.31902 1.29503 0
M  V30 1071 C 102.924 -4.51974 1.65144 0
M  V30 1072 C 105.276 -4.74551 2.15525 0
M  V30 1073 C 102.604 -5.11949 2.86574 0
M  V30 1074 C 104.956 -5.35868 3.36196 0
M  V30 1075 C 103.62 -5.54165 3.72099 0
M  V30 1076 H 102.89 -0.740239 0.0335658 0
M  V30 1077 H 105.537 -1.7491 0.779661 0
M  V30 1078 H 103.842 -3.84014 -0.777183 0
M  V30 1079 H 105.539 -3.98846 -0.415038 0
M  V30 1080 H 102.129 -4.16588 1.00761 0
M  V30 1081 H 106.313 -4.58784 1.8929 0
M  V30 1082 H 101.569 -5.24305 3.14507 0
M  V30 1083 H 105.743 -5.6787 4.03109 0
M  V30 1084 H 103.37 -6.00406 4.6628 0
M  V30 1085 N 104.945 -0.338344 -1.53925 0
M  V30 1086 C 106.356 0.146651 -1.86123 0
M  V30 1087 C 106.707 1.5042 -1.2597 0
M  V30 1088 O 105.832 2.08723 -0.571294 0
M  V30 1089 C 106.427 0.272879 -3.37699 0
M  V30 1090 C 104.986 0.702103 -3.69794 0
M  V30 1091 C 104.133 -0.167304 -2.76795 0
M  V30 1092 H 107.084 -0.558123 -1.48562 0
M  V30 1093 H 107.105 1.10128 -3.64214 0
M  V30 1094 H 106.617 -0.715307 -3.81451 0
M  V30 1095 H 104.718 1.6995 -3.31584 0
M  V30 1096 H 104.831 0.495604 -4.7653 0
M  V30 1097 H 103.195 0.359527 -2.5215 0
M  V30 1098 H 103.978 -1.15253 -3.23375 0
M  V30 1099 N 106.423 1.57458 -0.0668435 0
M  V30 1100 C 107.7 1.8469 0.644132 0
M  V30 1101 C 108.08 0.958343 1.88093 0
M  V30 1102 O 107.428 0.0233579 2.28488 0
M  V30 1103 C 107.638 3.34767 0.986509 0
M  V30 1104 C 108.986 4.02159 1.36212 0
M  V30 1105 O 110.01 3.39484 1.07839 0
M  V30 1106 O 108.869 5.12694 1.89227 0
M  V30 1107 H 105.963 0.762816 0.319437 0
M  V30 1108 H 108.509 1.6942 -0.0973986 0
M  V30 1109 H 107.281 3.91151 0.107883 0
M  V30 1110 H 106.904 3.55281 1.78497 0
M  V30 1111 N 107.901 -0.206675 1.56239 0
M  V30 1112 C 108.864 -1.23976 1.92776 0
M  V30 1113 C 109.864 -1.39041 0.807729 0
M  V30 1114 O 111.054 -1.37051 1.0753 0
M  V30 1115 C 108.186 -2.61112 2.19165 0
M  V30 1116 H 109.379 -0.927764 2.85189 0
M  V30 1117 H 106.932 -0.447718 1.4975 0
M  V30 1118 H 107.667 -2.97386 1.29352 0
M  V30 1119 H 107.452 -2.51552 3.00772 0
M  V30 1120 H 108.942 -3.35633 2.48476 0
M  V30 1121 N 109.379 -1.50304 -0.473955 0
M  V30 1122 C 110.619 -1.62786 -1.23612 0
M  V30 1123 C 110.983 -0.319786 -1.89318 0
M  V30 1124 O 112.184 -0.320012 -2.66888 0
M  V30 1125 C 110.455 -2.77351 -2.25414 0
M  V30 1126 S 112.014 -3.09948 -3.10608 0
M  V30 1127 H 108.832 -0.573895 -0.419721 0
M  V30 1128 H 111.434 -1.88076 -0.533623 0
M  V30 1129 H 110.138 -3.70879 -1.75719 0
M  V30 1130 H 109.669 -2.54137 -3.00296 0
M  V30 1131 H 111.684 -2.53553 -4.26527 0
M  V30 1132 N 110.857 0.726932 -1.39834 0
M  V30 1133 C 111.804 1.841 -1.39197 0
M  V30 1134 C 112.774 1.642 -0.250502 0
M  V30 1135 O 113.959 1.85494 -0.446846 0
M  V30 1136 C 111.099 3.21697 -1.24919 0
M  V30 1137 C 110.212 3.53247 -2.48678 0
M  V30 1138 C 109.347 4.80289 -2.26928 0
M  V30 1139 C 108.386 5.04707 -3.4632 0
M  V30 1140 N 107.523 6.22956 -3.23836 0
M  V30 1141 H 112.363 1.83979 -2.34427 0
M  V30 1142 H 109.9 0.898876 -1.16442 0
M  V30 1143 H 111.858 4.01137 -1.1465 0
M  V30 1144 H 110.488 3.21076 -0.333153 0
M  V30 1145 H 109.54 2.68447 -2.69519 0
M  V30 1146 H 110.852 3.67205 -3.37582 0
M  V30 1147 H 110.006 5.67725 -2.13947 0
M  V30 1148 H 108.745 4.68519 -1.35431 0
M  V30 1149 H 107.75 4.1573 -3.5979 0
M  V30 1150 H 108.975 5.18357 -4.38729 0
M  V30 1151 H 106.921 6.12459 -2.35011 0
M  V30 1152 H 106.838 6.37539 -4.063 0
M  V30 1153 H 108.106 7.1321 -3.14566 0
M  V30 1154 N 112.336 1.25143 0.95797 0
M  V30 1155 C 113.246 1.06968 2.08794 0
M  V30 1156 C 114.262 0.00773911 1.73998 0
M  V30 1157 O 115.438 0.207972 2.00323 0
M  V30 1158 C 112.503 0.68691 3.39827 0
M  V30 1159 C 111.564 1.82641 3.88511 0
M  V30 1160 C 110.797 1.46181 5.1329 0
M  V30 1161 O 111.02 0.355971 5.69288 0
M  V30 1162 O 109.954 2.29085 5.566 0
M  V30 1163 H 113.78 2.01723 2.27027 0
M  V30 1164 H 111.365 1.04051 1.07209 0
M  V30 1165 H 113.247 0.485417 4.18595 0
M  V30 1166 H 111.922 -0.231417 3.22872 0
M  V30 1167 H 110.829 2.08274 3.10762 0
M  V30 1168 H 112.162 2.72386 4.09959 0
M  V30 1169 N 113.814 -1.1601 1.06675 0
M  V30 1170 C 115.061 -1.86633 0.785781 0
M  V30 1171 C 115.389 -1.81929 -0.687896 0
M  V30 1172 O 114.644 -1.23253 -1.52011 0
M  V30 1173 C 114.943 -3.35547 1.23057 0
M  V30 1174 C 114.609 -3.60448 2.70902 0
M  V30 1175 C 113.271 -3.66954 3.11285 0
M  V30 1176 C 115.623 -3.7071 3.66365 0
M  V30 1177 C 112.951 -3.81225 4.45965 0
M  V30 1178 C 115.303 -3.86503 5.00797 0
M  V30 1179 C 113.967 -3.91252 5.40813 0
M  V30 1180 H 113.237 -0.682937 0.287538 0
M  V30 1181 H 115.884 -1.37146 1.33654 0
M  V30 1182 H 114.189 -3.87193 0.59907 0
M  V30 1183 H 115.886 -3.88583 0.990163 0
M  V30 1184 H 112.476 -3.56021 2.38636 0
M  V30 1185 H 116.66 -3.64991 3.36296 0
M  V30 1186 H 111.916 -3.83155 4.76447 0
M  V30 1187 H 116.09 -3.93385 5.74649 0
M  V30 1188 H 113.717 -4.02062 6.45174 0
M  V30 1189 N 115.292 -0.849877 -1.32721 0
M  V30 1190 C 116.224 -0.248332 -2.27851 0
M  V30 1191 C 117.237 0.577218 -1.52224 0
M  V30 1192 O 118.426 0.402489 -1.73903 0
M  V30 1193 C 115.526 0.668107 -3.32249 0
M  V30 1194 C 114.699 -0.120534 -4.37234 0
M  V30 1195 C 113.758 0.720932 -5.21238 0
M  V30 1196 O 112.784 0.156166 -5.68986 0
M  V30 1197 N 113.986 2.03647 -5.43607 0
M  V30 1198 H 116.751 -1.06575 -2.80111 0
M  V30 1199 H 114.312 -0.709395 -1.45531 0
M  V30 1200 H 116.304 1.23627 -3.85355 0
M  V30 1201 H 114.874 1.38621 -2.80184 0
M  V30 1202 H 114.094 -0.870108 -3.84477 0
M  V30 1203 H 115.382 -0.662406 -5.0447 0
M  V30 1204 H 114.78 2.51871 -5.06535 0
M  V30 1205 H 113.337 2.55287 -5.99727 0
M  V30 1206 N 116.77 1.45427 -0.607355 0
M  V30 1207 C 118.047 1.9557 -0.0344566 0
M  V30 1208 C 118.427 1.54979 1.43334 0
M  V30 1209 O 117.775 0.812241 2.13576 0
M  V30 1210 C 117.985 3.48226 -0.232321 0
M  V30 1211 C 119.333 4.2445 -0.113001 0
M  V30 1212 O 120.357 3.55829 -0.162431 0
M  V30 1213 O 119.216 5.465 0.00209442 0
M  V30 1214 H 116.31 0.826222 0.0358667 0
M  V30 1215 H 118.856 1.55594 -0.6774 0
M  V30 1216 H 117.628 3.70739 -1.25174 0
M  V30 1217 H 117.251 3.95092 0.445896 0
M  V30 1218 N 118.248 0.346503 1.53744 0
M  V30 1219 C 119.211 -0.496439 2.23759 0
M  V30 1220 C 120.211 -1.0252 1.2388 0
M  V30 1221 O 121.401 -0.913974 1.48297 0
M  V30 1222 C 118.533 -1.69187 2.95954 0
M  V30 1223 H 119.726 0.115952 2.99676 0
M  V30 1224 H 117.279 0.0978939 1.55993 0
M  V30 1225 H 118.014 -2.34288 2.24231 0
M  V30 1226 H 117.799 -1.31989 3.69217 0
M  V30 1227 H 119.289 -2.28969 3.49232 0
M  V30 1228 N 119.726 -1.57421 0.075193 0
M  V30 1229 C 120.974 -1.93236 -0.591974 0
M  V30 1230 C 121.295 -0.956241 -1.69944 0
M  V30 1231 O 120.565 -0.00494792 -1.95899 0
M  V30 1232 H 119.145 -0.713355 -0.22166 0
M  V30 1233 H 121.807 -1.9444 0.133848 0
M  V30 1234 H 120.903 -2.95131 -1.01509 0
M  V30 1235 N 121.204 0.198386 -1.56346 0
M  V30 1236 C 122.114 1.2664 -1.97483 0
M  V30 1237 C 123.13 1.49989 -0.882002 0
M  V30 1238 O 124.306 1.62668 -1.18748 0
M  V30 1239 C 121.371 2.59141 -2.30319 0
M  V30 1240 C 120.432 2.43892 -3.53292 0
M  V30 1241 C 119.665 3.70074 -3.84553 0
M  V30 1242 O 119.888 4.74101 -3.1715 0
M  V30 1243 O 118.822 3.658 -4.7799 0
M  V30 1244 H 122.648 0.947304 -2.88548 0
M  V30 1245 H 120.233 0.403123 -1.43859 0
M  V30 1246 H 122.115 3.37352 -2.5253 0
M  V30 1247 H 120.79 2.90684 -1.42423 0
M  V30 1248 H 119.697 1.63803 -3.36332 0
M  V30 1249 H 121.03 2.17282 -4.41644 0
M  V30 1250 N 122.682 1.50554 0.465978 0
M  V30 1251 C 123.614 1.65949 1.58093 0
M  V30 1252 C 124.627 0.540827 1.53554 0
M  V30 1253 O 125.816 0.814187 1.5885 0
M  V30 1254 C 122.916 1.63261 2.96983 0
M  V30 1255 C 122.089 2.91245 3.26336 0
M  V30 1256 C 121.148 2.8113 4.44806 0
M  V30 1257 O 120.174 3.55086 4.44862 0
M  V30 1258 N 121.376 1.95032 5.46756 0
M  V30 1259 H 124.141 2.62122 1.45301 0
M  V30 1260 H 121.702 1.48082 0.65448 0
M  V30 1261 H 123.694 1.54101 3.74212 0
M  V30 1262 H 122.264 0.748032 3.03518 0
M  V30 1263 H 121.484 3.14493 2.37672 0
M  V30 1264 H 122.772 3.76022 3.42761 0
M  V30 1265 H 122.17 1.3427 5.49534 0
M  V30 1266 H 120.727 1.91772 6.2295 0
M  V30 1267 N 124.16 -0.719506 1.40217 0
M  V30 1268 C 125.406 -1.48152 1.38488 0
M  V30 1269 C 125.739 -1.94195 -0.0141867 0
M  V30 1270 O 125.014 -1.67884 -0.982096 0
M  V30 1271 C 125.297 -2.71035 2.37091 0
M  V30 1272 C 125.15 -2.30912 3.86005 0
M  V30 1273 C 126.469 -3.73182 2.33288 0
M  V30 1274 H 123.588 -0.537395 0.504357 0
M  V30 1275 H 126.23 -0.821472 1.71324 0
M  V30 1276 H 124.38 -3.27352 2.0922 0
M  V30 1277 H 126.052 -1.80107 4.24687 0
M  V30 1278 H 124.295 -1.62958 4.02029 0
M  V30 1279 H 124.966 -3.18978 4.50508 0
M  V30 1280 H 127.442 -3.26485 2.57966 0
M  V30 1281 H 126.318 -4.56806 3.04334 0
M  V30 1282 H 126.579 -4.21202 1.34317 0
M  V30 1283 N 125.638 -1.25649 -0.95132 0
M  V30 1284 C 126.884 -1.10757 -1.69884 0
M  V30 1285 C 127.217 0.350061 -1.91019 0
M  V30 1286 O 126.492 1.25783 -1.48354 0
M  V30 1287 C 126.775 -1.86606 -3.07978 0
M  V30 1288 C 126.628 -3.40217 -2.94232 0
M  V30 1289 C 127.947 -1.65182 -4.07925 0
M  V30 1290 H 125.066 -0.40374 -0.616574 0
M  V30 1291 H 127.708 -1.54521 -1.10558 0
M  V30 1292 H 125.858 -1.49409 -3.58621 0
M  V30 1293 H 127.53 -3.87108 -2.50889 0
M  V30 1294 H 125.773 -3.67759 -2.30078 0
M  V30 1295 H 126.444 -3.88505 -3.92133 0
M  V30 1296 H 128.92 -1.9757 -3.66204 0
M  V30 1297 H 127.796 -2.20683 -5.02583 0
M  V30 1298 H 128.057 -0.593933 -4.38092 0
M  V30 1299 N 127.117 1.15442 -1.07289 0
M  V30 1300 C 128.342 1.90638 -0.816828 0
M  V30 1301 C 128.767 1.77445 0.624083 0
M  V30 1302 O 128.125 1.10671 1.43602 0
M  V30 1303 C 128.173 3.39008 -1.22906 0
M  V30 1304 O 127.277 4.10701 -0.373975 0
M  V30 1305 H 126.618 0.593555 -0.297638 0
M  V30 1306 H 129.148 1.46198 -1.43134 0
M  V30 1307 H 129.158 3.89801 -1.20497 0
M  V30 1308 H 127.833 3.47929 -2.27856 0
M  V30 1309 H 126.41 3.70046 -0.460499 0
M  V30 1310 N 128.595 0.856903 1.32268 0
M  V30 1311 C 129.82 0.474569 2.01897 0
M  V30 1312 C 130.245 -0.921766 1.63967 0
M  V30 1313 O 129.603 -1.60589 0.84148 0
M  V30 1314 C 129.651 0.623799 3.55164 0
M  V30 1315 O 128.755 -0.342459 4.10976 0
M  V30 1316 H 128.096 0.190422 0.63611 0
M  V30 1317 H 130.626 1.15672 1.68764 0
M  V30 1318 H 130.636 0.512169 4.04773 0
M  V30 1319 H 129.311 1.64202 3.82113 0
M  V30 1320 H 127.888 -0.18688 3.72431 0
M  V30 1321 N 130.073 -1.45103 0.615059 0
M  V30 1322 C 131.484 -1.85654 0.197383 0
M  V30 1323 C 131.835 -1.51433 -1.24749 0
M  V30 1324 O 130.96 -0.944608 -1.94695 0
M  V30 1325 C 131.555 -3.36972 0.351448 0
M  V30 1326 C 130.114 -3.76398 -0.011593 0
M  V30 1327 C 129.261 -2.69024 0.672394 0
M  V30 1328 H 132.212 -1.35797 0.821263 0
M  V30 1329 H 132.233 -3.78239 -0.414227 0
M  V30 1330 H 131.745 -3.61847 1.40314 0
M  V30 1331 H 129.846 -3.5714 -1.06217 0
M  V30 1332 H 129.959 -4.77532 0.387265 0
M  V30 1333 H 128.323 -2.54465 0.109284 0
M  V30 1334 H 129.106 -2.96735 1.72636 0
M  V30 1335 N 131.551 -0.354651 -1.53558 0
M  V30 1336 C 132.514 0.484566 -2.24019 0
M  V30 1337 C 133.514 1.01861 -1.24422 0
M  V30 1338 O 134.704 0.906097 -1.4878 0
M  V30 1339 C 131.836 1.67615 -2.96847 0
M  V30 1340 H 133.029 -0.131843 -2.9961 0
M  V30 1341 H 130.582 -0.106165 -1.55939 0
M  V30 1342 H 131.317 2.33095 -2.25471 0
M  V30 1343 H 131.102 1.30029 -3.69912 0
M  V30 1344 H 132.592 2.27114 -3.50441 0
M  V30 1345 N 133.029 1.57378 -0.0835403 0
M  V30 1346 C 134.306 1.85363 0.624507 0
M  V30 1347 C 134.686 0.978239 1.87066 0
M  V30 1348 O 134.034 0.0475908 2.2845 0
M  V30 1349 C 134.244 3.35795 0.950947 0
M  V30 1350 C 135.592 4.03581 1.31939 0
M  V30 1351 O 136.616 3.40609 1.04232 0
M  V30 1352 O 135.475 5.14672 1.83779 0
M  V30 1353 H 132.569 0.766162 0.311329 0
M  V30 1354 H 135.115 1.69307 -0.115362 0
M  V30 1355 H 133.887 3.91244 0.0663899 0
M  V30 1356 H 133.51 3.57154 1.74719 0
M  V30 1357 N 134.507 -0.190092 1.56449 0
M  V30 1358 C 135.753 -0.911052 1.81184 0
M  V30 1359 C 136.086 -1.82699 0.658396 0
M  V30 1360 O 135.361 -1.91491 -0.340775 0
M  V30 1361 C 135.644 -1.72297 3.16205 0
M  V30 1362 C 135.497 -0.831419 4.42049 0
M  V30 1363 C 136.816 -2.69454 3.47969 0
M  V30 1364 H 133.935 -0.32977 0.659106 0
M  V30 1365 H 136.577 -0.178169 1.89163 0
M  V30 1366 H 134.727 -2.34778 3.09534 0
M  V30 1367 H 136.399 -0.220929 4.60771 0
M  V30 1368 H 134.642 -0.138406 4.33579 0
M  V30 1369 H 135.313 -1.43461 5.33032 0
M  V30 1370 H 137.789 -2.17104 3.54972 0
M  V30 1371 H 136.665 -3.23342 4.43555 0
M  V30 1372 H 136.926 -3.48744 2.71717 0
M  V30 1373 N 135.985 -1.50799 -0.457987 0
M  V30 1374 C 136.948 -1.7005 -1.53674 0
M  V30 1375 C 137.948 -0.570881 -1.50325 0
M  V30 1376 O 139.138 -0.838126 -1.52712 0
M  V30 1377 C 136.27 -1.73788 -2.93276 0
M  V30 1378 H 137.463 -2.66306 -1.37917 0
M  V30 1379 H 135.016 -1.40477 -0.685271 0
M  V30 1380 H 135.751 -0.792717 -3.14462 0
M  V30 1381 H 135.536 -2.55864 -2.97113 0
M  V30 1382 H 137.026 -1.90591 -3.71571 0
M  V30 1383 N 137.463 0.71206 -1.40597 0
M  V30 1384 C 138.373 1.8562 -1.43466 0
M  V30 1385 C 139.389 1.70902 -0.326902 0
M  V30 1386 O 140.565 1.93105 -0.572043 0
M  V30 1387 C 137.63 3.21451 -1.29884 0
M  V30 1388 C 136.691 3.48398 -2.50833 0
M  V30 1389 C 135.924 4.77749 -2.3789 0
M  V30 1390 O 136.147 5.53089 -1.39459 0
M  V30 1391 O 135.081 5.05111 -3.27333 0
M  V30 1392 H 138.907 1.86155 -2.39958 0
M  V30 1393 H 136.492 0.86295 -1.21957 0
M  V30 1394 H 138.374 4.02579 -1.24531 0
M  V30 1395 H 137.049 3.21636 -0.364997 0
M  V30 1396 H 135.956 2.67265 -2.61763 0
M  V30 1397 H 137.289 3.53014 -3.4299 0
M  V30 1398 N 138.941 1.26152 0.944643 0
M  V30 1399 C 139.888 1.07408 2.04285 0
M  V30 1400 C 140.858 -0.0198413 1.66088 0
M  V30 1401 O 142.043 0.139264 1.90291 0
M  V30 1402 C 139.183 0.70945 3.37729 0
M  V30 1403 C 138.296 1.87926 3.88983 0
M  V30 1404 C 137.431 1.45807 5.10797 0
M  V30 1405 C 136.47 2.5964 5.54305 0
M  V30 1406 N 135.607 2.18226 6.67324 0
M  V30 1407 H 140.447 2.01389 2.1965 0
M  V30 1408 H 137.984 1.00275 1.07626 0
M  V30 1409 H 139.942 0.478948 4.14442 0
M  V30 1410 H 138.572 -0.193389 3.2222 0
M  V30 1411 H 137.624 2.22279 3.08701 0
M  V30 1412 H 138.936 2.73377 4.17213 0
M  V30 1413 H 138.09 1.18781 5.94959 0
M  V30 1414 H 136.829 0.574414 4.84305 0
M  V30 1415 H 135.834 2.87399 4.68702 0
M  V30 1416 H 137.059 3.48599 5.828 0
M  V30 1417 H 135.005 1.3229 6.42523 0
M  V30 1418 H 134.922 2.97221 6.95123 0
M  V30 1419 H 136.19 1.94403 7.54869 0
M  V30 1420 N 140.419 -1.14872 1.07899 0
M  V30 1421 C 141.382 -2.17986 0.708161 0
M  V30 1422 C 142.382 -1.58775 -0.25442 0
M  V30 1423 O 143.572 -1.74166 -0.034645 0
M  V30 1424 C 140.704 -3.40871 0.0446929 0
M  V30 1425 H 141.897 -2.52306 1.62116 0
M  V30 1426 H 139.45 -1.2943 0.876218 0
M  V30 1427 H 140.185 -3.12124 -0.880281 0
M  V30 1428 H 139.97 -3.8511 0.737091 0
M  V30 1429 H 141.46 -4.17121 -0.19991 0
M  V30 1430 N 141.898 -0.863906 -1.31812 0
M  V30 1431 C 143.175 -0.39275 -1.91616 0
M  V30 1432 C 143.555 1.12461 -1.7865 0
M  V30 1433 O 142.903 1.95045 -1.19037 0
M  V30 1434 C 143.113 -0.867385 -3.38049 0
M  V30 1435 C 144.461 -0.889966 -4.15168 0
M  V30 1436 O 145.485 -0.812635 -3.46806 0
M  V30 1437 O 144.344 -1.00079 -5.37258 0
M  V30 1438 H 141.438 -0.116358 -0.818773 0
M  V30 1439 H 143.984 -0.951418 -1.40521 0
M  V30 1440 H 142.756 -1.91081 -3.41473 0
M  V30 1441 H 142.379 -0.286687 -3.96565 0
M  V30 1442 N 143.376 1.44774 -0.622745 0
M  V30 1443 C 144.792 1.56986 -0.287652 0
M  V30 1444 C 144.992 1.61167 1.20944 0
M  V30 1445 O 144.048 1.55015 1.99315 0
M  V30 1446 C 145.361 2.84551 -0.972188 0
M  V30 1447 C 146.909 2.9825 -0.949536 0
M  V30 1448 C 147.384 4.28605 -1.61437 0
M  V30 1449 N 148.875 4.35399 -1.58057 0
M  V30 1450 C 149.61 5.34964 -2.064 0
M  V30 1451 N 149.106 6.40981 -2.62897 0
M  V30 1452 N 150.899 5.26419 -1.97078 0
M  V30 1453 H 143.05 1.40304 -1.59463 0
M  V30 1454 H 145.313 0.671794 -0.668878 0
M  V30 1455 H 145.019 2.87417 -2.02693 0
M  V30 1456 H 144.893 3.73807 -0.504771 0
M  V30 1457 H 147.28 2.94941 0.0967067 0
M  V30 1458 H 147.361 2.10364 -1.45536 0
M  V30 1459 H 147.005 4.32672 -2.66002 0
M  V30 1460 H 146.935 5.15334 -1.08344 0
M  V30 1461 H 149.426 3.59397 -1.16801 0
M  V30 1462 H 149.739 7.13225 -2.97539 0
M  V30 1463 H 148.084 6.4169 -2.66943 0
M  V30 1464 H 151.275 4.42504 -1.52669 0
M  V30 1465 H 151.448 6.03861 -2.35066 0
M  V30 1466 N 144.854 0.36279 1.53368 0
M  V30 1467 C 146.103 -0.22888 2.00397 0
M  V30 1468 C 146.416 -1.50096 1.25421 0
M  V30 1469 O 147.622 -2.17106 1.63025 0
M  V30 1470 C 146.078 -0.458417 3.56969 0
M  V30 1471 C 145.686 0.798877 4.4082 0
M  V30 1472 C 147.43 -1.00789 4.12361 0
M  V30 1473 C 145.337 0.539078 5.88938 0
M  V30 1474 H 144.267 -0.089305 0.748693 0
M  V30 1475 H 146.918 0.481099 1.77081 0
M  V30 1476 H 145.3 -1.22959 3.76427 0
M  V30 1477 H 146.474 1.57262 4.33134 0
M  V30 1478 H 144.789 1.27137 3.96516 0
M  V30 1479 H 147.386 -1.21754 5.20653 0
M  V30 1480 H 147.729 -1.9692 3.66781 0
M  V30 1481 H 148.262 -0.296961 3.9669 0
M  V30 1482 H 145.001 1.47064 6.3879 0
M  V30 1483 H 144.521 -0.196222 5.99479 0
M  V30 1484 H 146.2 0.163542 6.46793 0
M  V30 1485 N 146.332 -1.57332 0.0918853 0
M  V30 1486 C 147.581 -1.93412 -0.572249 0
M  V30 1487 C 147.894 -0.975515 -1.69538 0
M  V30 1488 O 149.1 -1.22991 -2.42045 0
M  V30 1489 C 147.556 -3.43648 -1.0693 0
M  V30 1490 C 147.164 -4.47994 0.0239049 0
M  V30 1491 C 148.908 -3.88695 -1.70635 0
M  V30 1492 C 146.815 -5.89381 -0.488319 0
M  V30 1493 H 145.745 -0.721939 -0.217532 0
M  V30 1494 H 148.396 -1.82735 0.167369 0
M  V30 1495 H 146.778 -3.49466 -1.8625 0
M  V30 1496 H 147.952 -4.53815 0.799277 0
M  V30 1497 H 146.267 -4.12536 0.565946 0
M  V30 1498 H 148.864 -4.91725 -2.10025 0
M  V30 1499 H 149.207 -3.27166 -2.57426 0
M  V30 1500 H 149.74 -3.85564 -0.979023 0
M  V30 1501 H 146.479 -6.54602 0.342906 0
M  V30 1502 H 145.999 -5.87037 -1.23077 0
M  V30 1503 H 147.678 -6.39863 -0.958317 0
M  V30 1504 N 147.81 0.181792 -1.56548 0
M  V30 1505 C 149.038 0.915947 -1.85521 0
M  V30 1506 C 149.453 1.76282 -0.676016 0
M  V30 1507 O 148.81 1.79012 0.355077 0
M  V30 1508 C 148.861 1.80126 -3.13427 0
M  V30 1509 O 148.582 0.988562 -4.26801 0
M  V30 1510 C 150.083 2.64597 -3.55673 0
M  V30 1511 H 147.303 0.26661 -0.61576 0
M  V30 1512 H 149.847 0.185039 -2.03661 0
M  V30 1513 H 148.002 2.48563 -2.97145 0
M  V30 1514 H 148.416 1.59308 -4.99721 0
M  V30 1515 H 149.89 3.2235 -4.48101 0
M  V30 1516 H 150.367 3.38958 -2.79292 0
M  V30 1517 H 150.973 2.0151 -3.74532 0
M  V30 1518 N 149.288 1.51039 0.449983 0
M  V30 1519 C 150.221 1.66105 1.56474 0
M  V30 1520 C 151.199 0.508776 1.54435 0
M  V30 1521 O 152.383 0.731005 1.73749 0
M  V30 1522 C 149.51 1.66304 2.9506 0
M  V30 1523 C 148.556 2.87346 3.15174 0
M  V30 1524 S 149.389 4.4835 2.92818 0
M  V30 1525 C 150.545 4.51274 4.33708 0
M  V30 1526 H 150.778 2.60397 1.43459 0
M  V30 1527 H 148.311 1.40565 0.638805 0
M  V30 1528 H 150.269 1.67103 3.74949 0
M  V30 1529 H 148.93 0.732108 3.05449 0
M  V30 1530 H 148.123 2.83849 4.16468 0
M  V30 1531 H 147.725 2.84223 2.43091 0
M  V30 1532 H 150.017 4.26136 5.26701 0
M  V30 1533 H 150.96 5.53017 4.42242 0
M  V30 1534 H 151.368 3.80738 4.16772 0
M  V30 1535 N 150.766 -0.704594 1.40972 0
M  V30 1536 C 151.696 -1.83124 1.44872 0
M  V30 1537 C 152.677 -1.67281 0.30838 0
M  V30 1538 O 153.862 -1.87149 0.518556 0
M  V30 1539 C 150.992 -3.21181 1.32136 0
M  V30 1540 C 149.946 -3.51714 2.43888 0
M  V30 1541 C 149.272 -4.89032 2.16222 0
M  V30 1542 C 150.572 -3.516 3.86232 0
M  V30 1543 H 152.266 -1.80117 2.39161 0
M  V30 1544 H 149.812 -0.865145 1.15114 0
M  V30 1545 H 151.765 -3.99702 1.33479 0
M  V30 1546 H 150.489 -3.24791 0.343279 0
M  V30 1547 H 149.148 -2.75539 2.41813 0
M  V30 1548 H 148.796 -4.89256 1.16778 0
M  V30 1549 H 148.496 -5.10426 2.911 0
M  V30 1550 H 150.02 -5.69873 2.19265 0
M  V30 1551 H 151.434 -4.2014 3.9007 0
M  V30 1552 H 149.831 -3.84523 4.60719 0
M  V30 1553 H 150.901 -2.50757 4.15029 0
M  V30 1554 N 152.244 -1.26651 -0.937939 0
M  V30 1555 C 153.655 -1.1125 -1.49934 0
M  V30 1556 C 154.006 0.306077 -1.93798 0
M  V30 1557 O 153.131 1.19792 -1.80219 0
M  V30 1558 C 153.726 -2.01339 -2.72485 0
M  V30 1559 C 152.285 -1.90074 -3.24883 0
M  V30 1560 C 151.432 -1.94498 -1.97651 0
M  V30 1561 H 154.383 -1.39693 -0.753091 0
M  V30 1562 H 154.404 -1.56319 -3.46907 0
M  V30 1563 H 153.916 -3.04577 -2.40529 0
M  V30 1564 H 152.017 -0.897827 -3.61621 0
M  V30 1565 H 152.13 -2.75778 -3.9177 0
M  V30 1566 H 150.494 -1.38591 -2.13693 0
M  V30 1567 H 151.277 -2.99372 -1.68022 0
M  V30 1568 N 153.722 1.14298 -1.08507 0
M  V30 1569 C 154.95 1.89219 -0.836876 0
M  V30 1570 C 155.365 1.78638 0.611054 0
M  V30 1571 O 154.722 1.14643 1.41998 0
M  V30 1572 C 154.773 3.39158 -1.25116 0
M  V30 1573 O 154.494 3.49449 -2.64229 0
M  V30 1574 C 155.995 4.31073 -1.03398 0
M  V30 1575 H 153.215 0.599328 -0.301739 0
M  V30 1576 H 155.759 1.44746 -1.44461 0
M  V30 1577 H 153.914 3.81251 -0.687514 0
M  V30 1578 H 154.328 4.42589 -2.81452 0
M  V30 1579 H 155.802 5.34646 -1.37323 0
M  V30 1580 H 156.279 4.3919 0.0289259 0
M  V30 1581 H 156.885 3.94738 -1.58311 0
M  V30 1582 N 155.201 0.870884 1.31352 0
M  V30 1583 C 156.426 0.495957 2.01383 0
M  V30 1584 C 156.851 -0.904324 1.64935 0
M  V30 1585 O 156.209 -1.59687 0.858466 0
M  V30 1586 C 156.257 0.661433 3.54482 0
M  V30 1587 O 155.361 -0.298851 4.11316 0
M  V30 1588 H 154.702 0.197158 0.634054 0
M  V30 1589 H 157.232 1.17455 1.67527 0
M  V30 1590 H 157.242 0.555072 4.04207 0
M  V30 1591 H 155.917 1.68246 3.8035 0
M  V30 1592 H 154.494 -0.147368 3.72609 0
M  V30 1593 N 156.679 -1.44442 0.630414 0
M  V30 1594 C 157.928 -2.01267 0.132073 0
M  V30 1595 C 158.241 -1.50172 -1.25331 0
M  V30 1596 O 159.447 -1.9912 -1.84562 0
M  V30 1597 C 157.903 -3.59422 0.185362 0
M  V30 1598 C 157.511 -4.19514 1.57201 0
M  V30 1599 C 159.255 -4.23724 -0.256553 0
M  V30 1600 C 157.162 -5.69891 1.58045 0
M  V30 1601 H 156.092 -0.752619 0.0456092 0
M  V30 1602 H 158.743 -1.65666 0.789106 0
M  V30 1603 H 157.125 -3.92318 -0.538759 0
M  V30 1604 H 158.299 -3.98156 2.31966 0
M  V30 1605 H 156.614 -3.67496 1.95795 0
M  V30 1606 H 159.211 -5.34019 -0.269767 0
M  V30 1607 H 159.554 -3.96013 -1.28372 0
M  V30 1608 H 160.087 -3.95629 0.41505 0
M  V30 1609 H 156.826 -6.02336 2.58597 0
M  V30 1610 H 156.346 -5.93373 0.875725 0
M  V30 1611 H 158.025 -6.33515 1.31408 0
M  V30 1612 N 158.157 -0.370918 -1.53173 0
M  V30 1613 C 159.105 0.488101 -2.27421 0
M  V30 1614 C 160.099 1.07884 -1.30604 0
M  V30 1615 O 161.305 1.02143 -1.48212 0
M  V30 1616 H 157.68 0.176134 -0.731082 0
M  V30 1617 H 159.651 -0.159815 -2.97972 0
M  V30 1618 C 158.4 1.61306 -3.08019 0
M  V30 1619 H 157.723 1.1678 -3.82364 0
M  V30 1620 H 159.163 2.18872 -3.63141 0
M  V30 1621 C 157.622 2.55848 -2.19188 0
M  V30 1622 O 158.152 3.58799 -1.80626 0
M  V30 1623 N 156.358 2.2516 -1.83715 0
M  V30 1624 H 155.905 1.41476 -2.15273 0
M  V30 1625 H 155.863 2.8867 -1.24567 0
M  V30 1626 N 159.635 1.57281 -0.100228 0
M  V30 1627 C 160.598 2.13158 0.842398 0
M  V30 1628 C 161.598 1.06202 1.20738 0
M  V30 1629 O 162.788 1.32066 1.13597 0
M  V30 1630 C 159.92 2.65639 2.13655 0
M  V30 1631 H 161.113 2.97766 0.357114 0
M  V30 1632 H 158.666 1.5559 0.148823 0
M  V30 1633 H 159.401 1.84566 2.66657 0
M  V30 1634 H 159.186 3.43844 1.88451 0
M  V30 1635 H 160.676 3.08846 2.81077 0
M  V30 1636 N 161.113 -0.173488 1.56642 0
M  V30 1637 C 162.362 -0.888758 1.81063 0
M  V30 1638 C 162.675 -1.83506 0.67712 0
M  V30 1639 O 163.881 -2.59254 0.806206 0
M  V30 1640 C 162.337 -1.63091 3.20826 0
M  V30 1641 C 161.945 -0.728357 4.4204 0
M  V30 1642 C 163.689 -2.33454 3.54541 0
M  V30 1643 C 161.596 -1.47062 5.72823 0
M  V30 1644 H 160.526 -0.335618 0.675186 0
M  V30 1645 H 163.177 -0.141712 1.82952 0
M  V30 1646 H 161.559 -2.42263 3.13248 0
M  V30 1647 H 162.733 0.0262449 4.60793 0
M  V30 1648 H 161.048 -0.134492 4.16183 0
M  V30 1649 H 163.645 -2.89578 4.49498 0
M  V30 1650 H 163.988 -3.08687 2.79317 0
M  V30 1651 H 164.521 -1.61227 3.63663 0
M  V30 1652 H 161.26 -0.760658 6.51072 0
M  V30 1653 H 160.78 -2.1986 5.58052 0
M  V30 1654 H 162.459 -2.01868 6.14702 0
M  V30 1655 N 162.591 -1.51276 -0.441967 0
M  V30 1656 C 163.501 -1.75092 -1.56141 0
M  V30 1657 C 164.517 -0.634963 -1.62001 0
M  V30 1658 O 165.693 -0.916686 -1.79329 0
M  V30 1659 C 162.758 -1.86666 -2.92158 0
M  V30 1660 C 161.819 -3.10506 -2.96453 0
M  V30 1661 C 161.052 -3.21519 -4.25982 0
M  V30 1662 O 161.275 -2.38586 -5.18105 0
M  V30 1663 O 160.209 -4.14465 -4.36466 0
M  V30 1664 H 164.035 -2.70044 -1.38961 0
M  V30 1665 H 161.62 -1.35722 -0.624499 0
M  V30 1666 H 163.502 -1.96292 -3.72891 0
M  V30 1667 H 162.177 -0.949014 -3.09476 0
M  V30 1668 H 161.084 -3.06363 -2.14692 0
M  V30 1669 H 162.417 -4.01945 -2.84079 0
M  V30 1670 N 164.069 0.697108 -1.41344 0
M  V30 1671 C 165.032 1.79281 -1.42797 0
M  V30 1672 C 166.032 1.57607 -0.318837 0
M  V30 1673 O 167.222 1.64309 -0.578642 0
M  V30 1674 C 164.354 3.17632 -1.23785 0
M  V30 1675 H 165.547 1.79385 -2.40335 0
M  V30 1676 H 163.1 0.904582 -1.27464 0
M  V30 1677 H 163.835 3.23167 -0.270814 0
M  V30 1678 H 163.62 3.34765 -2.04144 0
M  V30 1679 H 165.11 3.97617 -1.27633 0
M  V30 1680 N 165.547 1.27147 0.931209 0
M  V30 1681 C 166.777 1.15914 1.71019 0
M  V30 1682 C 167.185 -0.287112 1.87009 0
M  V30 1683 O 166.528 -1.20761 1.38429 0
M  V30 1684 C 166.59 1.76647 3.13107 0
M  V30 1685 C 166.254 3.25807 3.20467 0
M  V30 1686 C 167.251 4.22489 3.02983 0
M  V30 1687 C 164.936 3.66452 3.43538 0
M  V30 1688 C 166.93 5.57794 3.08454 0
M  V30 1689 C 164.617 5.01888 3.48643 0
M  V30 1690 C 165.615 5.97369 3.31119 0
M  V30 1691 O 165.303 7.30337 3.35952 0
M  V30 1692 H 165.035 0.404062 0.54195 0
M  V30 1693 H 167.589 1.68457 1.17521 0
M  V30 1694 H 165.819 1.18578 3.68071 0
M  V30 1695 H 167.508 1.60179 3.72958 0
M  V30 1696 H 168.274 3.92425 2.85004 0
M  V30 1697 H 164.153 2.92611 3.5623 0
M  V30 1698 H 167.697 6.32298 2.94694 0
M  V30 1699 H 163.594 5.31609 3.66145 0
M  V30 1700 H 164.362 7.38739 3.5243 0
M  V30 1701 N 167.025 -1.13721 1.09112 0
M  V30 1702 C 168.25 -1.89314 0.847053 0
M  V30 1703 C 168.675 -1.78416 -0.595774 0
M  V30 1704 O 168.033 -1.12942 -1.41823 0
M  V30 1705 C 168.081 -3.3701 1.28284 0
M  V30 1706 O 167.185 -4.10054 0.439267 0
M  V30 1707 H 166.526 -0.588745 0.307044 0
M  V30 1708 H 169.056 -1.43902 1.45442 0
M  V30 1709 H 169.066 -3.87834 1.26683 0
M  V30 1710 H 167.741 -3.4426 2.33363 0
M  V30 1711 H 166.318 -3.69266 0.519312 0
M  V30 1712 N 168.503 -0.877838 -1.30888 0
M  V30 1713 C 169.751 -0.491723 -1.96027 0
M  V30 1714 C 170.072 0.960827 -1.69685 0
M  V30 1715 O 169.342 1.67462 -1.01654 0
M  V30 1716 H 167.922 -0.17885 -0.725273 0
M  V30 1717 H 170.584 -1.11935 -1.59551 0
M  V30 1718 H 169.68 -0.656016 -3.05128 0
M  V30 1719 N 169.982 1.44106 -0.638065 0
M  V30 1720 C 170.945 2.29138 0.0531013 0
M  V30 1721 C 171.945 1.41409 0.765506 0
M  V30 1722 O 173.135 1.63206 0.609046 0
M  V30 1723 C 170.267 3.23144 1.08584 0
M  V30 1724 H 171.46 2.91739 -0.694883 0
M  V30 1725 H 169.013 1.51134 -0.398538 0
M  V30 1726 H 169.748 2.65408 1.86357 0
M  V30 1727 H 169.533 3.87804 0.578852 0
M  V30 1728 H 171.023 3.87004 1.56899 0
M  V30 1729 N 171.46 0.379036 1.52974 0
M  V30 1730 C 172.408 -0.476033 2.27677 0
M  V30 1731 C 173.402 -1.0719 1.31174 0
M  V30 1732 O 174.608 -1.01355 1.48752 0
M  V30 1733 H 170.983 -0.172255 0.732006 0
M  V30 1734 H 172.954 0.175615 2.97883 0
M  V30 1735 C 171.703 -1.5967 3.0887 0
M  V30 1736 H 171.026 -1.1475 3.82978 0
M  V30 1737 H 172.466 -2.16943 3.64296 0
M  V30 1738 C 170.925 -2.54682 2.20542 0
M  V30 1739 O 171.455 -3.57836 1.82527 0
M  V30 1740 N 169.661 -2.24183 1.84907 0
M  V30 1741 H 169.208 -1.40333 2.1602 0
M  V30 1742 H 169.166 -2.88006 1.26096 0
M  V30 1743 N 172.938 -1.57226 0.108567 0
M  V30 1744 C 174.186 -1.94448 -0.550853 0
M  V30 1745 C 174.507 -0.992074 -1.67878 0
M  V30 1746 O 173.777 -0.0465 -1.95845 0
M  V30 1747 H 172.357 -0.717897 -0.206479 0
M  V30 1748 H 175.019 -1.94112 0.175062 0
M  V30 1749 H 174.115 -2.97218 -0.952259 0
M  V30 1750 N 174.416 0.165178 -1.56732 0
M  V30 1751 C 175.665 0.879143 -1.81532 0
M  V30 1752 C 175.978 1.83144 -0.686842 0
M  V30 1753 O 177.184 2.58823 -0.819944 0
M  V30 1754 C 175.64 1.61388 -3.21686 0
M  V30 1755 C 175.248 0.704904 -4.4242 0
M  V30 1756 C 176.992 2.3157 -3.55774 0
M  V30 1757 C 174.899 1.44022 -5.73595 0
M  V30 1758 H 173.829 0.332033 -0.676957 0
M  V30 1759 H 176.48 0.132008 -1.83025 0
M  V30 1760 H 174.862 2.40599 -3.14529 0
M  V30 1761 H 176.036 -0.0506815 -4.60772 0
M  V30 1762 H 174.351 0.112419 -4.16248 0
M  V30 1763 H 176.948 2.8719 -4.51028 0
M  V30 1764 H 177.291 3.07201 -2.8095 0
M  V30 1765 H 177.824 1.59297 -3.64513 0
M  V30 1766 H 174.563 0.72612 -6.51466 0
M  V30 1767 H 174.083 2.16898 -5.5921 0
M  V30 1768 H 175.762 1.98606 -6.15764 0
M  V30 1769 N 175.894 1.51508 0.433938 0
M  V30 1770 C 176.824 1.76016 1.53429 0
M  V30 1771 C 177.805 0.610112 1.58782 0
M  V30 1772 O 178.99 0.853177 1.74455 0
M  V30 1773 C 176.12 1.88831 2.9148 0
M  V30 1774 C 175.074 3.04288 3.00987 0
M  V30 1775 C 174.4 3.0229 4.4105 0
M  V30 1776 C 175.7 4.44193 2.74754 0
M  V30 1777 H 177.394 2.68152 1.33171 0
M  V30 1778 H 174.94 1.29035 0.639214 0
M  V30 1779 H 176.893 2.04559 3.6842 0
M  V30 1780 H 175.617 0.933455 3.12976 0
M  V30 1781 H 174.276 2.8827 2.26486 0
M  V30 1782 H 173.924 2.04576 4.59519 0
M  V30 1783 H 173.624 3.79822 4.4834 0
M  V30 1784 H 175.148 3.20116 5.1996 0
M  V30 1785 H 176.562 4.60544 3.41426 0
M  V30 1786 H 174.959 5.23457 2.9345 0
M  V30 1787 H 176.029 4.53996 1.70339 0
M  V30 1788 N 177.372 -0.689602 1.41712 0
M  V30 1789 C 178.319 -1.80345 1.44029 0
M  V30 1790 C 179.289 -1.63478 0.293948 0
M  V30 1791 O 180.474 -1.84244 0.495869 0
M  V30 1792 C 177.614 -3.18272 1.33405 0
M  V30 1793 C 176.727 -3.46529 2.57956 0
M  V30 1794 C 175.862 -4.74103 2.39582 0
M  V30 1795 C 174.901 -4.95347 3.5958 0
M  V30 1796 N 174.038 -6.14151 3.40239 0
M  V30 1797 H 178.878 -1.77698 2.39222 0
M  V30 1798 H 176.415 -0.867688 1.18784 0
M  V30 1799 H 178.373 -3.97956 1.25246 0
M  V30 1800 H 177.003 -3.2008 0.418164 0
M  V30 1801 H 176.055 -2.61207 2.76542 0
M  V30 1802 H 177.367 -3.58126 3.47199 0
M  V30 1803 H 176.521 -5.61853 2.28924 0
M  V30 1804 H 175.26 -4.64763 1.47805 0
M  V30 1805 H 174.265 -4.06044 3.70686 0
M  V30 1806 H 175.49 -5.06542 4.52318 0
M  V30 1807 H 173.436 -6.06013 2.51167 0
M  V30 1808 H 173.353 -6.26543 4.23061 0
M  V30 1809 H 174.621 -7.04619 3.33365 0
M  V30 1810 N 178.85 -1.27639 -0.924453 0
M  V30 1811 C 179.797 -1.10644 -2.0255 0
M  V30 1812 C 180.767 -0.00658438 -1.66099 0
M  V30 1813 O 181.952 -0.16952 -1.90045 0
M  V30 1814 C 179.092 -0.76309 -3.36557 0
M  V30 1815 C 178.205 -1.94091 -3.85944 0
M  V30 1816 C 177.34 -1.53914 -5.08413 0
M  V30 1817 C 176.379 -2.68425 -5.50104 0
M  V30 1818 N 175.516 -2.28815 -6.63768 0
M  V30 1819 H 180.356 -2.04858 -2.16419 0
M  V30 1820 H 177.893 -1.01974 -1.06017 0
M  V30 1821 H 179.851 -0.544822 -4.13627 0
M  V30 1822 H 178.481 0.142102 -3.22487 0
M  V30 1823 H 177.533 -2.27162 -3.05125 0
M  V30 1824 H 178.845 -2.7998 -4.12811 0
M  V30 1825 H 177.999 -1.28231 -5.92994 0
M  V30 1826 H 176.738 -0.651391 -4.8333 0
M  V30 1827 H 175.743 -2.94819 -4.64071 0
M  V30 1828 H 176.968 -3.57826 -5.7718 0
M  V30 1829 H 174.914 -1.42495 -6.40337 0
M  V30 1830 H 174.831 -3.08242 -6.90306 0
M  V30 1831 H 176.099 -2.06387 -7.51681 0
M  V30 1832 N 180.328 1.1314 -1.09713 0
M  V30 1833 C 181.574 1.84757 -0.836224 0
M  V30 1834 C 181.907 1.8347 0.636598 0
M  V30 1835 O 181.182 1.27491 1.46889 0
M  V30 1836 C 181.465 3.32782 -1.37578 0
M  V30 1837 C 181.318 3.42567 -2.91493 0
M  V30 1838 C 182.637 4.28307 -1.01198 0
M  V30 1839 H 179.756 0.67082 -0.305236 0
M  V30 1840 H 182.398 1.3278 -1.35903 0
M  V30 1841 H 180.548 3.77177 -0.931097 0
M  V30 1842 H 182.22 3.06862 -3.44432 0
M  V30 1843 H 180.463 2.83349 -3.28475 0
M  V30 1844 H 181.134 4.46674 -3.24324 0
M  V30 1845 H 183.61 3.91999 -1.39556 0
M  V30 1846 H 182.486 5.30307 -1.41653 0
M  V30 1847 H 182.747 4.42029 0.0794833 0
M  V30 1848 N 181.806 0.884767 1.30421 0
M  V30 1849 C 182.753 0.349642 2.28136 0
M  V30 1850 C 183.723 -0.560061 1.56373 0
M  V30 1851 O 184.908 -0.488524 1.8444 0
M  V30 1852 C 182.048 -0.42999 3.42411 0
M  V30 1853 C 181.161 0.508907 4.28992 0
M  V30 1854 C 180.296 -0.286301 5.30428 0
M  V30 1855 C 179.335 0.648079 6.08659 0
M  V30 1856 N 178.472 -0.111792 7.02011 0
M  V30 1857 H 183.312 1.18807 2.73293 0
M  V30 1858 H 180.849 0.597231 1.3443 0
M  V30 1859 H 182.807 -0.897923 4.07423 0
M  V30 1860 H 181.437 -1.23299 2.98324 0
M  V30 1861 H 180.489 1.09533 3.64289 0
M  V30 1862 H 181.801 1.22475 4.8353 0
M  V30 1863 H 180.955 -0.816098 6.01186 0
M  V30 1864 H 179.694 -1.03536 4.76583 0
M  V30 1865 H 178.699 1.18951 5.36778 0
M  V30 1866 H 179.924 1.39623 6.64592 0
M  V30 1867 H 177.87 -0.843395 6.50556 0
M  V30 1868 H 177.787 0.544429 7.54037 0
M  V30 1869 H 179.055 -0.622339 7.77012 0
M  V30 1870 N 183.284 -1.43765 0.645699 0
M  V30 1871 C 184.231 -2.30745 -0.0504648 0
M  V30 1872 C 185.201 -1.4432 -0.822241 0
M  V30 1873 O 186.386 -1.73202 -0.800358 0
M  V30 1874 C 183.526 -3.29802 -1.0161 0
M  V30 1875 C 182.639 -4.31326 -0.241219 0
M  V30 1876 C 181.774 -5.17469 -1.19998 0
M  V30 1877 C 180.813 -6.10691 -0.415094 0
M  V30 1878 N 179.95 -6.89483 -1.32506 0
M  V30 1879 H 184.79 -2.8973 0.697155 0
M  V30 1880 H 182.327 -1.42738 0.355563 0
M  V30 1881 H 184.285 -3.85734 -1.58949 0
M  V30 1882 H 182.915 -2.72483 -1.73069 0
M  V30 1883 H 181.967 -3.77749 0.448334 0
M  V30 1884 H 183.279 -4.9743 0.369437 0
M  V30 1885 H 182.433 -5.7799 -1.84424 0
M  V30 1886 H 181.172 -4.51473 -1.84455 0
M  V30 1887 H 180.177 -5.49265 0.242565 0
M  V30 1888 H 181.402 -6.78727 0.224966 0
M  V30 1889 H 179.348 -6.26142 -1.95657 0
M  V30 1890 H 179.265 -7.52081 -0.768783 0
M  V30 1891 H 180.533 -7.54516 -1.9577 0
M  V30 1892 N 184.763 -0.387143 -1.52771 0
M  V30 1893 C 186.011 0.195349 -2.01154 0
M  V30 1894 C 186.332 1.475 -1.27549 0
M  V30 1895 O 185.602 1.91878 -0.394924 0
M  V30 1896 H 184.182 0.075178 -0.743207 0
M  V30 1897 H 186.844 -0.518337 -1.87881 0
M  V30 1898 H 185.94 0.407096 -3.09434 0
M  V30 1899 N 186.241 1.57166 -0.116904 0
M  V30 1900 C 187.466 1.999 0.55271 0
M  V30 1901 C 187.891 0.996039 1.59564 0
M  V30 1902 O 187.249 -0.032556 1.81271 0
M  V30 1903 C 187.297 3.4152 1.15742 0
M  V30 1904 O 186.401 3.44106 2.27299 0
M  V30 1905 H 185.742 0.649447 0.138258 0
M  V30 1906 H 188.272 2.03573 -0.204759 0
M  V30 1907 H 188.282 3.79684 1.49346 0
M  V30 1908 H 186.957 4.14034 0.393493 0
M  V30 1909 H 185.534 3.17759 1.9515 0
M  V30 1910 N 187.719 -0.156864 1.56817 0
M  V30 1911 C 188.649 -1.19589 2.00551 0
M  V30 1912 C 189.63 -1.4536 0.883426 0
M  V30 1913 O 190.815 -1.56449 1.15054 0
M  V30 1914 C 187.945 -2.53143 2.37773 0
M  V30 1915 C 186.899 -2.41913 3.53075 0
M  V30 1916 C 186.225 -3.80088 3.76081 0
M  V30 1917 C 187.525 -1.91157 4.86062 0
M  V30 1918 H 189.219 -0.832293 2.87599 0
M  V30 1919 H 186.765 -0.398918 1.38364 0
M  V30 1920 H 188.718 -3.26047 2.66967 0
M  V30 1921 H 187.442 -2.91319 1.4765 0
M  V30 1922 H 186.101 -1.71462 3.24031 0
M  V30 1923 H 185.749 -4.15683 2.83225 0
M  V30 1924 H 185.449 -3.73439 4.53671 0
M  V30 1925 H 186.973 -4.54556 4.0769 0
M  V30 1926 H 188.387 -2.53846 5.14038 0
M  V30 1927 H 186.784 -1.95422 5.67389 0
M  V30 1928 H 187.854 -0.866673 4.77092 0
M  V30 1929 N 189.197 -1.51736 -0.425897 0
M  V30 1930 C 190.127 -1.76827 -1.52494 0
M  V30 1931 C 191.108 -0.618524 -1.58456 0
M  V30 1932 O 192.293 -0.862416 -1.74 0
M  V30 1933 C 189.423 -1.90374 -2.90474 0
M  V30 1934 C 188.377 -3.0588 -2.99369 0
M  V30 1935 C 187.703 -3.04625 -4.3944 0
M  V30 1936 C 189.003 -4.45644 -2.72394 0
M  V30 1937 H 190.697 -2.68855 -1.31748 0
M  V30 1938 H 188.243 -1.29372 -0.632362 0
M  V30 1939 H 190.196 -2.0651 -3.6733 0
M  V30 1940 H 188.92 -0.95004 -3.12477 0
M  V30 1941 H 187.579 -2.89467 -2.24954 0
M  V30 1942 H 187.227 -2.0701 -4.58428 0
M  V30 1943 H 186.927 -3.82195 -4.46319 0
M  V30 1944 H 188.451 -3.22869 -5.18255 0
M  V30 1945 H 189.865 -4.62348 -3.38979 0
M  V30 1946 H 188.262 -5.25006 -2.9067 0
M  V30 1947 H 189.332 -4.54893 -1.67929 0
M  V30 1948 N 190.675 0.682077 -1.42076 0
M  V30 1949 C 191.924 1.43786 -1.41451 0
M  V30 1950 C 192.237 1.95574 -0.0317074 0
M  V30 1951 O 193.443 2.71326 0.0971462 0
M  V30 1952 C 191.899 2.60071 -2.48779 0
M  V30 1953 C 191.507 2.15013 -3.93031 0
M  V30 1954 C 193.251 3.37626 -2.57311 0
M  V30 1955 C 191.158 3.28336 -4.91883 0
M  V30 1956 H 190.088 0.540143 -0.526082 0
M  V30 1957 H 192.739 0.739157 -1.67955 0
M  V30 1958 H 191.121 3.32275 -2.15429 0
M  V30 1959 H 192.295 1.5001 -4.35699 0
M  V30 1960 H 190.61 1.50416 -3.88284 0
M  V30 1961 H 193.207 4.22012 -3.28345 0
M  V30 1962 H 193.55 3.83727 -1.61429 0
M  V30 1963 H 194.083 2.72488 -2.89819 0
M  V30 1964 H 190.822 2.87234 -5.89217 0
M  V30 1965 H 190.342 3.92145 -4.53853 0
M  V30 1966 H 192.021 3.93913 -5.13265 0
M  V30 1967 N 192.153 1.28127 0.917671 0
M  V30 1968 C 193.43 1.05761 1.64542 0
M  V30 1969 C 193.81 -0.404344 2.07191 0
M  V30 1970 O 193.158 -1.38963 1.81388 0
M  V30 1971 C 193.368 2.02857 2.83989 0
M  V30 1972 C 194.716 2.32786 3.551 0
M  V30 1973 O 195.74 2.0091 2.94132 0
M  V30 1974 O 194.599 2.87169 4.64969 0
M  V30 1975 H 191.693 0.403916 0.721652 0
M  V30 1976 H 194.239 1.39431 0.967322 0
M  V30 1977 H 193.011 3.01407 2.49538 0
M  V30 1978 H 192.634 1.69809 3.59514 0
M  V30 1979 N 193.631 -1.12557 1.10312 0
M  V30 1980 C 194.856 -1.88405 0.867085 0
M  V30 1981 C 195.281 -1.79038 -0.576817 0
M  V30 1982 O 194.639 -1.14439 -1.40618 0
M  V30 1983 C 194.687 -3.3563 1.31851 0
M  V30 1984 O 193.791 -4.09565 0.482734 0
M  V30 1985 H 193.132 -0.585455 0.313271 0
M  V30 1986 H 195.662 -1.42352 1.4696 0
M  V30 1987 H 195.672 -3.86469 1.3079 0
M  V30 1988 H 194.347 -3.41765 2.37001 0
M  V30 1989 H 192.924 -3.68695 0.558448 0
M  V30 1990 N 195.109 -0.891671 -1.2995 0
M  V30 1991 C 196.334 -0.527932 -2.00568 0
M  V30 1992 C 196.759 0.877969 -1.66353 0
M  V30 1993 O 196.117 1.58301 -0.883762 0
M  V30 1994 C 196.165 -0.717745 -3.53385 0
M  V30 1995 O 195.269 0.233376 -4.11739 0
M  V30 1996 H 194.61 -0.20722 -0.630837 0
M  V30 1997 H 197.14 -1.20105 -1.65638 0
M  V30 1998 H 197.15 -0.619307 -4.03272 0
M  V30 1999 H 195.825 -1.74276 -3.77625 0
M  V30 2000 H 194.402 0.0880706 -3.72796 0
M  V30 2001 N 196.587 1.43421 -0.653314 0
M  V30 2002 C 197.815 2.06163 -0.174491 0
M  V30 2003 C 198.23 1.48969 1.1599 0
M  V30 2004 O 197.587 0.621042 1.71608 0
M  V30 2005 C 197.638 3.61417 -0.0774865 0
M  V30 2006 O 197.359 4.16485 -1.35912 0
M  V30 2007 C 198.86 4.41235 0.427402 0
M  V30 2008 H 196.08 0.664946 -0.0899353 0
M  V30 2009 H 198.624 1.83924 -0.893988 0
M  V30 2010 H 196.779 3.82841 0.59257 0
M  V30 2011 H 197.193 5.10153 -1.21839 0
M  V30 2012 H 198.667 5.5021 0.44423 0
M  V30 2013 H 199.144 4.14268 1.45873 0
M  V30 2014 H 199.75 4.2478 -0.210167 0
M  V30 2015 N 198.065 0.39524 1.52563 0
M  V30 2016 C 199.314 -0.186321 2.00838 0
M  V30 2017 C 199.627 -1.47402 1.28577 0
M  V30 2018 O 200.833 -2.13599 1.67593 0
M  V30 2019 C 199.289 -0.382595 3.57861 0
M  V30 2020 C 198.897 0.892202 4.39026 0
M  V30 2021 C 200.641 -0.9202 4.14406 0
M  V30 2022 C 198.548 0.66388 5.87662 0
M  V30 2023 H 197.478 -0.0734041 0.750418 0
M  V30 2024 H 200.129 0.518552 1.76021 0
M  V30 2025 H 198.511 -1.14946 3.7895 0
M  V30 2026 H 199.685 1.66414 4.29701 0
M  V30 2027 H 198 1.35519 3.9373 0
M  V30 2028 H 200.597 -1.10683 5.23119 0
M  V30 2029 H 200.94 -1.89096 3.70875 0
M  V30 2030 H 201.473 -0.212751 3.97231 0
M  V30 2031 H 198.212 1.6058 6.35527 0
M  V30 2032 H 197.732 -0.0690193 5.9976 0
M  V30 2033 H 199.411 0.300699 6.46301 0
M  V30 2034 N 199.544 -1.57102 0.125237 0
M  V30 2035 C 200.821 -1.86953 -0.575142 0
M  V30 2036 C 201.201 -1.02749 -1.84407 0
M  V30 2037 O 200.549 -0.108144 -2.28244 0
M  V30 2038 C 200.759 -3.38198 -0.861583 0
M  V30 2039 C 202.107 -4.06937 -1.21192 0
M  V30 2040 O 203.131 -3.43252 -0.951645 0
M  V30 2041 O 201.99 -5.19364 -1.70068 0
M  V30 2042 H 199.084 -0.774147 -0.290906 0
M  V30 2043 H 201.63 -1.68942 0.160211 0
M  V30 2044 H 200.402 -3.91282 0.0373647 0
M  V30 2045 H 200.025 -3.61661 -1.65188 0
M  V30 2046 N 201.022 0.148545 -1.56898 0
M  V30 2047 C 202.433 0.708766 -1.72723 0
M  V30 2048 C 202.784 1.81734 -0.739395 0
M  V30 2049 O 201.909 2.16194 0.0943169 0
M  V30 2050 C 202.504 1.29245 -3.13179 0
M  V30 2051 C 201.063 1.79925 -3.30611 0
M  V30 2052 C 200.21 0.687111 -2.68652 0
M  V30 2053 H 203.161 -0.0771063 -1.58513 0
M  V30 2054 H 203.182 2.16224 -3.13093 0
M  V30 2055 H 202.694 0.485382 -3.85053 0
M  V30 2056 H 200.795 2.63203 -2.63732 0
M  V30 2057 H 200.908 1.92903 -4.38549 0
M  V30 2058 H 199.272 1.11335 -2.29078 0
M  V30 2059 H 200.055 -0.108483 -3.43129 0
M  V30 2060 N 202.5 1.5196 0.417844 0
M  V30 2061 C 203.463 1.74065 1.49111 0
M  V30 2062 C 204.463 0.610537 1.48758 0
M  V30 2063 O 205.653 0.87832 1.50437 0
M  V30 2064 C 202.785 1.81502 2.88565 0
M  V30 2065 H 203.978 2.69869 1.30807 0
M  V30 2066 H 201.531 1.42244 0.647785 0
M  V30 2067 H 202.266 0.875813 3.1225 0
M  V30 2068 H 202.051 2.63651 2.90225 0
M  V30 2069 H 203.541 2.00376 3.66387 0
M  V30 2070 N 203.978 -0.674533 1.42435 0
M  V30 2071 C 205.224 -1.43671 1.43131 0
M  V30 2072 C 205.557 -1.94142 0.0476021 0
M  V30 2073 O 204.832 -1.70924 -0.928188 0
M  V30 2074 C 205.115 -2.63355 2.45594 0
M  V30 2075 C 204.968 -2.18514 3.93156 0
M  V30 2076 C 206.287 -3.65571 2.45043 0
M  V30 2077 H 203.406 -0.521077 0.521198 0
M  V30 2078 H 206.048 -0.766551 1.7385 0
M  V30 2079 H 204.198 -3.2053 2.19528 0
M  V30 2080 H 205.87 -1.66504 4.30202 0
M  V30 2081 H 204.113 -1.50086 4.07009 0
M  V30 2082 H 204.784 -3.04484 4.60428 0
M  V30 2083 H 207.26 -3.18113 2.68223 0
M  V30 2084 H 206.136 -4.46893 3.18713 0
M  V30 2085 H 206.397 -4.16716 1.47649 0
M  V30 2086 N 205.456 -1.28612 -0.910864 0
M  V30 2087 C 206.681 -1.1891 -1.69927 0
M  V30 2088 C 207.106 0.248372 -1.86453 0
M  V30 2089 O 206.464 1.17961 -1.37676 0
M  V30 2090 C 206.512 -1.89578 -3.06745 0
M  V30 2091 O 205.616 -1.20521 -3.94396 0
M  V30 2092 H 204.957 -0.412632 -0.520222 0
M  V30 2093 H 207.487 -1.69985 -1.1387 0
M  V30 2094 H 207.497 -1.97597 -3.56958 0
M  V30 2095 H 206.172 -2.94136 -2.94035 0
M  V30 2096 H 204.749 -1.20684 -3.52831 0
M  V30 2097 N 206.934 1.1197 -1.10907 0
M  V30 2098 C 207.881 2.17846 -0.762345 0
M  V30 2099 C 208.851 1.63995 0.263599 0
M  V30 2100 O 210.036 1.90273 0.141773 0
M  V30 2101 C 207.176 3.44487 -0.205651 0
M  V30 2102 C 206.289 4.12369 -1.28748 0
M  V30 2103 C 205.424 5.26674 -0.691919 0
M  V30 2104 C 204.463 5.86431 -1.75399 0
M  V30 2105 N 203.6 6.92142 -1.17833 0
M  V30 2106 H 208.44 2.46851 -1.6694 0
M  V30 2107 H 205.977 1.21188 -0.833776 0
M  V30 2108 H 207.935 4.16981 0.135037 0
M  V30 2109 H 206.565 3.15884 0.664613 0
M  V30 2110 H 205.617 3.38003 -1.74522 0
M  V30 2111 H 206.929 4.52844 -2.09125 0
M  V30 2112 H 206.083 6.05953 -0.300963 0
M  V30 2113 H 204.822 4.8749 0.143232 0
M  V30 2114 H 203.827 5.05835 -2.15432 0
M  V30 2115 H 205.052 6.27685 -2.59208 0
M  V30 2116 H 202.998 6.54985 -0.364725 0
M  V30 2117 H 202.915 7.31242 -1.91887 0
M  V30 2118 H 204.183 7.75237 -0.81408 0
M  V30 2119 N 208.412 0.89855 1.29475 0
M  V30 2120 C 209.322 0.379974 2.31502 0
M  V30 2121 C 210.338 -0.524695 1.659 0
M  V30 2122 O 211.514 -0.414551 1.97087 0
M  V30 2123 C 208.579 -0.385138 3.44554 0
M  V30 2124 C 207.64 0.550914 4.2575 0
M  V30 2125 C 206.873 -0.177778 5.33404 0
M  V30 2126 O 207.096 -1.40189 5.52904 0
M  V30 2127 O 206.03 0.479106 5.9999 0
M  V30 2128 H 209.856 1.22639 2.77837 0
M  V30 2129 H 207.441 0.662834 1.33891 0
M  V30 2130 H 209.323 -0.817841 4.13388 0
M  V30 2131 H 207.998 -1.20763 3.0033 0
M  V30 2132 H 206.905 1.03271 3.59564 0
M  V30 2133 H 208.238 1.33979 4.73614 0
M  V30 2134 N 209.89 -1.43072 0.660911 0
M  V30 2135 C 210.82 -2.33497 -0.0122829 0
M  V30 2136 C 211.801 -1.49903 -0.803925 0
M  V30 2137 O 212.986 -1.78546 -0.763864 0
M  V30 2138 C 210.116 -3.33363 -0.973994 0
M  V30 2139 C 209.07 -4.27003 -0.291928 0
M  V30 2140 C 208.396 -5.16967 -1.36562 0
M  V30 2141 C 209.696 -5.15816 0.820462 0
M  V30 2142 H 211.39 -2.90038 0.742873 0
M  V30 2143 H 208.936 -1.39461 0.358688 0
M  V30 2144 H 210.889 -3.95524 -1.45392 0
M  V30 2145 H 209.613 -2.75095 -1.7604 0
M  V30 2146 H 208.272 -3.66217 0.167623 0
M  V30 2147 H 207.92 -4.55034 -2.14366 0
M  V30 2148 H 207.62 -5.80441 -0.914454 0
M  V30 2149 H 209.144 -5.82003 -1.84675 0
M  V30 2150 H 210.558 -5.71742 0.422366 0
M  V30 2151 H 208.955 -5.8805 1.19656 0
M  V30 2152 H 210.025 -4.55045 1.67518 0
M  V30 2153 N 211.368 -0.403325 -1.52352 0
M  V30 2154 C 212.331 0.413051 -2.25447 0
M  V30 2155 C 213.331 0.978513 -1.276 0
M  V30 2156 O 214.521 0.858305 -1.51587 0
M  V30 2157 C 211.653 1.58087 -3.02029 0
M  V30 2158 H 212.846 -0.227094 -2.99039 0
M  V30 2159 H 210.399 -0.155722 -1.55522 0
M  V30 2160 H 211.134 2.25804 -2.32772 0
M  V30 2161 H 210.919 1.18195 -3.73861 0
M  V30 2162 H 212.409 2.1585 -3.57489 0
M  V30 2163 N 212.846 1.57033 -0.133567 0
M  V30 2164 C 213.793 2.16074 0.811208 0
M  V30 2165 C 214.763 1.08979 1.2535 0
M  V30 2166 O 215.948 1.36958 1.32843 0
M  V30 2167 C 213.088 2.77595 2.05024 0
M  V30 2168 C 212.201 3.99042 1.65498 0
M  V30 2169 C 211.336 4.48603 2.84479 0
M  V30 2170 C 210.375 5.62547 2.41262 0
M  V30 2171 N 209.512 6.06787 3.53206 0
M  V30 2172 H 214.352 2.96477 0.300906 0
M  V30 2173 H 211.889 1.46462 0.136822 0
M  V30 2174 H 213.847 3.11402 2.77642 0
M  V30 2175 H 212.477 1.99859 2.53488 0
M  V30 2176 H 211.529 3.71302 0.826981 0
M  V30 2177 H 212.841 4.81629 1.29748 0
M  V30 2178 H 211.995 4.84395 3.65303 0
M  V30 2179 H 210.734 3.64995 3.23465 0
M  V30 2180 H 209.739 5.26345 1.58874 0
M  V30 2181 H 210.964 6.47931 2.03377 0
M  V30 2182 H 208.91 5.26117 3.91838 0
M  V30 2183 H 208.827 6.84266 3.21427 0
M  V30 2184 H 210.095 6.4722 4.34427 0
M  V30 2185 N 214.325 -0.140222 1.56975 0
M  V30 2186 C 215.235 -1.19223 2.02047 0
M  V30 2187 C 216.251 -1.46612 0.937062 0
M  V30 2188 O 217.427 -1.58148 1.24704 0
M  V30 2189 C 214.492 -2.50414 2.39778 0
M  V30 2190 C 213.553 -2.30612 3.621 0
M  V30 2191 C 212.786 -3.55547 3.98023 0
M  V30 2192 O 213.009 -4.62004 3.34528 0
M  V30 2193 O 211.943 -3.47808 4.91237 0
M  V30 2194 H 215.769 -0.839559 2.91865 0
M  V30 2195 H 213.354 -0.349453 1.45256 0
M  V30 2196 H 215.236 -3.27747 2.64877 0
M  V30 2197 H 213.911 -2.85198 1.53114 0
M  V30 2198 H 212.818 -1.51207 3.4218 0
M  V30 2199 H 214.151 -2.00741 4.49404 0
M  V30 2200 N 215.803 -1.52179 -0.40978 0
M  V30 2201 C 217.049 -1.66453 -1.15851 0
M  V30 2202 C 217.382 -0.392972 -1.90182 0
M  V30 2203 O 216.657 0.608579 -1.84734 0
M  V30 2204 C 216.94 -2.88612 -2.15349 0
M  V30 2205 C 216.793 -4.25815 -1.44918 0
M  V30 2206 C 218.112 -3.06294 -3.16026 0
M  V30 2207 H 215.231 -0.60575 -0.419805 0
M  V30 2208 H 217.873 -1.84732 -0.444314 0
M  V30 2209 H 216.023 -2.73158 -2.76255 0
M  V30 2210 H 217.695 -4.52995 -0.871365 0
M  V30 2211 H 215.938 -4.27247 -0.751159 0
M  V30 2212 H 216.609 -5.07337 -2.17516 0
M  V30 2213 H 219.085 -3.20641 -2.65195 0
M  V30 2214 H 217.961 -3.93283 -3.8291 0
M  V30 2215 H 218.222 -2.19579 -3.83715 0
M  V30 2216 N 217.281 0.66697 -1.42791 0
M  V30 2217 C 218.191 1.80962 -1.49299 0
M  V30 2218 C 219.207 1.69775 -0.381108 0
M  V30 2219 O 220.383 1.91188 -0.633188 0
M  V30 2220 C 217.448 3.17156 -1.40045 0
M  V30 2221 C 216.509 3.40242 -2.6179 0
M  V30 2222 C 215.742 4.69939 -2.52969 0
M  V30 2223 O 215.965 5.48372 -1.56985 0
M  V30 2224 O 214.899 4.94441 -3.43237 0
M  V30 2225 H 218.725 1.78427 -2.45759 0
M  V30 2226 H 216.31 0.823713 -1.24641 0
M  V30 2227 H 218.192 3.98413 -1.37276 0
M  V30 2228 H 216.867 3.20312 -0.467138 0
M  V30 2229 H 215.774 2.58802 -2.70134 0
M  V30 2230 H 217.107 3.41923 -3.54047 0
M  V30 2231 N 218.759 1.29093 0.90403 0
M  V30 2232 C 219.706 1.13853 2.00764 0
M  V30 2233 C 220.676 0.0330084 1.66067 0
M  V30 2234 O 221.861 0.199733 1.89752 0
M  V30 2235 C 219.001 0.816537 3.35301 0
M  V30 2236 C 218.114 2.00206 3.82807 0
M  V30 2237 C 217.249 1.61983 5.059 0
M  V30 2238 C 216.288 2.77143 5.45764 0
M  V30 2239 N 215.425 2.39346 6.60044 0
M  V30 2240 H 220.265 2.08276 2.13132 0
M  V30 2241 H 217.802 1.03648 1.04381 0
M  V30 2242 H 219.76 0.610557 4.12708 0
M  V30 2243 H 218.39 -0.090779 3.22672 0
M  V30 2244 H 217.442 2.31988 3.01473 0
M  V30 2245 H 218.754 2.86512 4.08304 0
M  V30 2246 H 217.908 1.37649 5.90879 0
M  V30 2247 H 216.647 0.728202 4.82233 0
M  V30 2248 H 215.652 3.02165 4.59322 0
M  V30 2249 H 216.877 3.66964 5.71414 0
M  V30 2250 H 214.823 1.52665 6.37989 0
M  V30 2251 H 214.74 3.19185 6.85315 0
M  V30 2252 H 216.008 2.1832 7.48303 0
M  V30 2253 N 220.237 -1.11381 1.11499 0
M  V30 2254 C 221.17 -2.16621 0.71769 0
M  V30 2255 C 222.148 -1.60058 -0.286413 0
M  V30 2256 O 223.332 -1.87613 -0.182689 0
M  V30 2257 C 220.459 -3.38646 0.0607265 0
M  V30 2258 C 219.505 -4.13874 1.03008 0
M  V30 2259 S 220.338 -4.70731 2.55289 0
M  V30 2260 C 221.494 -5.96079 1.90895 0
M  V30 2261 H 221.727 -2.49987 1.60915 0
M  V30 2262 H 219.26 -1.23015 0.933092 0
M  V30 2263 H 221.218 -4.09313 -0.311965 0
M  V30 2264 H 219.879 -3.03537 -0.807702 0
M  V30 2265 H 219.072 -5.01333 0.517853 0
M  V30 2266 H 218.674 -3.4897 1.34522 0
M  V30 2267 H 220.966 -6.65948 1.24577 0
M  V30 2268 H 221.909 -6.51946 2.76354 0
M  V30 2269 H 222.317 -5.47652 1.36885 0
M  V30 2270 N 221.715 -0.905404 -1.28997 0
M  V30 2271 C 222.963 -0.533192 -1.9494 0
M  V30 2272 C 223.284 0.924618 -1.71685 0
M  V30 2273 O 222.554 1.65268 -1.05183 0
M  V30 2274 H 221.134 -0.194194 -0.721317 0
M  V30 2275 H 223.796 -1.15294 -1.57141 0
M  V30 2276 H 222.892 -0.72059 -3.03667 0
M  V30 2277 N 223.193 1.4272 -0.668489 0
M  V30 2278 C 224.156 2.292 0.00448567 0
M  V30 2279 C 225.156 1.43001 0.735339 0
M  V30 2280 O 226.346 1.64461 0.57429 0
M  V30 2281 C 223.478 3.25375 1.01705 0
M  V30 2282 H 224.671 2.90199 -0.756608 0
M  V30 2283 H 222.224 1.50254 -0.430506 0
M  V30 2284 H 222.959 2.69301 1.80686 0
M  V30 2285 H 222.744 3.88944 0.496463 0
M  V30 2286 H 224.234 3.90245 1.48655 0
M  V30 2287 N 224.671 0.411399 1.52136 0
M  V30 2288 C 225.917 -0.163888 2.02137 0
M  V30 2289 C 226.25 -1.44597 1.29636 0
M  V30 2290 O 225.525 -1.90272 0.403353 0
M  V30 2291 C 225.808 -0.40927 3.57767 0
M  V30 2292 C 225.661 0.889643 4.40914 0
M  V30 2293 C 226.98 -1.19042 4.23694 0
M  V30 2294 H 224.099 -0.0580896 0.734707 0
M  V30 2295 H 226.741 0.54531 1.82007 0
M  V30 2296 H 224.891 -1.0134 3.7505 0
M  V30 2297 H 226.563 1.52575 4.35337 0
M  V30 2298 H 224.806 1.50011 4.07037 0
M  V30 2299 H 225.477 0.672314 5.4789 0
M  V30 2300 H 227.953 -0.678942 4.10524 0
M  V30 2301 H 226.829 -1.33086 5.32522 0
M  V30 2302 H 227.09 -2.21166 3.82803 0
M  V30 2303 N 226.149 -1.5696 0.141893 0
M  V30 2304 C 227.396 -1.9596 -0.510492 0
M  V30 2305 C 227.724 -1.02648 -1.65208 0
M  V30 2306 O 226.979 -0.0546947 -1.95624 0
M  V30 2307 C 227.278 -3.41242 -1.06249 0
M  V30 2308 C 226.944 -4.50882 -0.0398791 0
M  V30 2309 C 225.606 -4.80595 0.241247 0
M  V30 2310 C 227.958 -5.17058 0.65578 0
M  V30 2311 C 225.286 -5.73792 1.22393 0
M  V30 2312 C 227.638 -6.11313 1.62724 0
M  V30 2313 C 226.302 -6.39407 1.91612 0
M  V30 2314 H 225.572 -0.717068 -0.186802 0
M  V30 2315 H 228.219 -1.90142 0.227643 0
M  V30 2316 H 226.524 -3.43866 -1.87785 0
M  V30 2317 H 228.221 -3.68742 -1.57576 0
M  V30 2318 H 224.811 -4.27754 -0.269174 0
M  V30 2319 H 228.995 -4.94239 0.451779 0
M  V30 2320 H 224.251 -5.93853 1.45424 0
M  V30 2321 H 228.425 -6.61668 2.17183 0
M  V30 2322 H 226.052 -7.11427 2.6791 0
M  V30 2323 N 227.627 0.131896 -1.57047 0
M  V30 2324 C 228.56 1.19236 -1.94571 0
M  V30 2325 C 229.538 1.40782 -0.813576 0
M  V30 2326 O 230.722 1.55148 -1.07058 0
M  V30 2327 C 227.849 2.54858 -2.23081 0
M  V30 2328 C 226.895 2.49817 -3.45679 0
M  V30 2329 S 227.728 1.95036 -4.98719 0
M  V30 2330 C 228.884 3.32357 -5.30367 0
M  V30 2331 H 229.117 0.872297 -2.84215 0
M  V30 2332 H 226.65 0.338134 -1.50652 0
M  V30 2333 H 228.608 3.32898 -2.40185 0
M  V30 2334 H 227.269 2.84047 -1.34074 0
M  V30 2335 H 226.462 3.49688 -3.62952 0
M  V30 2336 H 226.064 1.79892 -3.27895 0
M  V30 2337 H 228.356 4.28525 -5.2476 0
M  V30 2338 H 229.299 3.19923 -6.31708 0
M  V30 2339 H 229.707 3.3019 -4.57859 0
M  V30 2340 N 229.106 1.52395 0.401703 0
M  V30 2341 C 230.383 1.57387 1.16141 0
M  V30 2342 C 230.763 0.359359 2.08019 0
M  V30 2343 O 230.111 -0.65326 2.18963 0
M  V30 2344 C 230.321 2.90631 1.93221 0
M  V30 2345 C 231.669 3.43904 2.49028 0
M  V30 2346 O 232.693 2.92421 2.03393 0
M  V30 2347 O 231.552 4.33823 3.32356 0
M  V30 2348 H 228.646 0.634262 0.530698 0
M  V30 2349 H 231.192 1.64725 0.407883 0
M  V30 2350 H 229.964 3.70473 1.25958 0
M  V30 2351 H 229.587 2.8662 2.75563 0
M  V30 2352 N 230.584 -0.659388 1.43143 0
M  V30 2353 C 231.547 -1.75432 1.47501 0
M  V30 2354 C 232.547 -1.56707 0.360512 0
M  V30 2355 O 233.737 -1.62717 0.622002 0
M  V30 2356 C 230.869 -3.14239 1.32162 0
M  V30 2357 H 232.062 -1.7295 2.45006 0
M  V30 2358 H 229.615 -0.870469 1.29817 0
M  V30 2359 H 230.35 -3.22336 0.356401 0
M  V30 2360 H 230.135 -3.29235 2.12948 0
M  V30 2361 H 231.625 -3.94094 1.3813 0
M  V30 2362 N 232.062 -1.29571 -0.897171 0
M  V30 2363 C 233.473 -1.15964 -1.46319 0
M  V30 2364 C 233.824 0.244267 -1.94674 0
M  V30 2365 O 232.949 1.13998 -1.83939 0
M  V30 2366 C 233.544 -2.09906 -2.65942 0
M  V30 2367 C 232.103 -2.00314 -3.18671 0
M  V30 2368 C 231.25 -2.00687 -1.91363 0
M  V30 2369 H 234.201 -1.42019 -0.708268 0
M  V30 2370 H 234.222 -1.67276 -3.41759 0
M  V30 2371 H 233.734 -3.12075 -2.30718 0
M  V30 2372 H 231.835 -1.01242 -3.58582 0
M  V30 2373 H 231.948 -2.88102 -3.82798 0
M  V30 2374 H 230.312 -1.45319 -2.09175 0
M  V30 2375 H 231.095 -3.04566 -1.58413 0
M  V30 2376 N 233.54 1.10788 -1.12088 0
M  V30 2377 C 234.786 1.82942 -0.875226 0
M  V30 2378 C 235.119 1.84779 0.597538 0
M  V30 2379 O 234.394 1.30578 1.44152 0
M  V30 2380 C 234.677 3.29789 -1.44606 0
M  V30 2381 C 234.53 3.36307 -2.98693 0
M  V30 2382 C 235.849 4.26064 -1.10261 0
M  V30 2383 H 232.968 0.664195 -0.319397 0
M  V30 2384 H 235.61 1.29867 -1.38689 0
M  V30 2385 H 233.76 3.75118 -1.01089 0
M  V30 2386 H 235.432 2.99487 -3.50864 0
M  V30 2387 H 233.675 2.76318 -3.34411 0
M  V30 2388 H 234.346 4.39694 -3.33726 0
M  V30 2389 H 236.822 3.88951 -1.4784 0
M  V30 2390 H 235.698 5.27183 -1.52869 0
M  V30 2391 H 235.959 4.42098 -0.0142953 0
M  V30 2392 N 235.018 0.912232 1.28515 0
M  V30 2393 C 236.243 0.559774 1.99703 0
M  V30 2394 C 236.668 -0.851393 1.67729 0
M  V30 2395 O 236.026 -1.56875 0.908834 0
M  V30 2396 C 236.074 0.773874 3.52198 0
M  V30 2397 O 235.178 -0.167842 4.12058 0
M  V30 2398 H 234.519 0.21723 0.627461 0
M  V30 2399 H 237.049 1.22725 1.63706 0
M  V30 2400 H 237.059 0.683386 4.02236 0
M  V30 2401 H 235.734 1.80261 3.74805 0
M  V30 2402 H 234.311 -0.0287509 3.72889 0
M  V30 2403 N 236.496 -1.42363 0.676048 0
M  V30 2404 C 237.744 -2.01123 0.198437 0
M  V30 2405 C 238.065 -1.53731 -1.19966 0
M  V30 2406 O 237.335 -0.759518 -1.80577 0
M  V30 2407 H 235.915 -0.743678 0.0703721 0
M  V30 2408 H 238.577 -1.74263 0.872837 0
M  V30 2409 H 237.673 -3.11454 0.200686 0
M  V30 2410 N 237.974 -0.419461 -1.51915 0
M  V30 2411 C 239.222 0.152637 -2.01523 0
M  V30 2412 C 239.543 1.44762 -1.30649 0
M  V30 2413 O 238.813 1.90997 -0.435535 0
M  V30 2414 H 237.393 0.0593966 -0.744635 0
M  V30 2415 H 240.055 -0.558073 -1.86739 0
M  V30 2416 H 239.151 0.341369 -3.10227 0
M  V30 2417 N 239.452 1.56882 -0.150215 0
M  V30 2418 C 240.698 1.96518 0.500834 0
M  V30 2419 C 241.031 1.03527 1.64304 0
M  V30 2420 O 240.306 0.0782751 1.94342 0
M  V30 2421 C 240.589 3.45822 1.00395 0
M  V30 2422 C 240.442 4.49591 -0.136983 0
M  V30 2423 C 241.761 3.97704 1.88467 0
M  V30 2424 H 238.88 0.714535 0.18058 0
M  V30 2425 H 241.522 1.88577 -0.232091 0
M  V30 2426 H 239.672 3.5272 1.62851 0
M  V30 2427 H 241.344 4.5477 -0.77343 0
M  V30 2428 H 239.587 4.26441 -0.795652 0
M  V30 2429 H 240.258 5.51402 0.256815 0
M  V30 2430 H 242.734 3.93304 1.35834 0
M  V30 2431 H 241.61 5.0263 2.20578 0
M  V30 2432 H 241.871 3.40252 2.82279 0
M  V30 2433 N 240.93 -0.123565 1.57115 0
M  V30 2434 C 242.178 -0.83051 1.84247 0
M  V30 2435 C 242.499 -1.80629 0.73471 0
M  V30 2436 O 241.769 -1.94403 -0.241688 0
M  V30 2437 H 240.349 -0.309694 0.679778 0
M  V30 2438 H 243.011 -0.111976 1.94578 0
M  V30 2439 H 242.107 -1.37852 2.80006 0
M  V30 2440 N 242.408 -1.52605 -0.393616 0
M  V30 2441 C 243.371 -1.76415 -1.46323 0
M  V30 2442 C 244.371 -0.634126 -1.47768 0
M  V30 2443 O 245.561 -0.902142 -1.4902 0
M  V30 2444 C 242.693 -1.8607 -2.85641 0
M  V30 2445 H 243.886 -2.71916 -1.26498 0
M  V30 2446 H 241.439 -1.43257 -0.625073 0
M  V30 2447 H 242.174 -0.925378 -3.10817 0
M  V30 2448 H 241.959 -2.68235 -2.85993 0
M  V30 2449 H 243.449 -2.06179 -3.63153 0
M  V30 2450 N 243.887 0.651787 -1.4349 0
M  V30 2451 C 244.85 1.74647 -1.48429 0
M  V30 2452 C 245.85 1.56513 -0.368817 0
M  V30 2453 O 247.04 1.62385 -0.630623 0
M  V30 2454 C 244.172 3.13533 -1.33827 0
M  V30 2455 H 245.365 1.71649 -2.4592 0
M  V30 2456 H 242.918 0.863573 -1.30277 0
M  V30 2457 H 243.653 3.22142 -0.37349 0
M  V30 2458 H 243.438 3.28101 -2.14691 0
M  V30 2459 H 244.928 3.93356 -1.40218 0
M  V30 2460 N 245.365 1.30045 0.890287 0
M  V30 2461 C 246.781 1.08261 1.17268 0
M  V30 2462 C 246.981 -0.160063 2.00863 0
M  V30 2463 O 246.037 -0.855181 2.37577 0
M  V30 2464 C 247.35 2.34323 1.8845 0
M  V30 2465 C 248.898 2.39735 2.01237 0
M  V30 2466 C 249.373 3.65625 2.7583 0
M  V30 2467 N 250.864 3.66402 2.83379 0
M  V30 2468 C 251.599 4.60498 3.41657 0
M  V30 2469 N 251.095 5.64933 4.01026 0
M  V30 2470 N 252.888 4.48051 3.39421 0
M  V30 2471 H 245.039 2.09777 0.332762 0
M  V30 2472 H 247.302 0.92446 0.209948 0
M  V30 2473 H 247.008 3.2498 1.34465 0
M  V30 2474 H 246.882 2.4256 2.88867 0
M  V30 2475 H 249.269 1.4956 2.54393 0
M  V30 2476 H 249.35 2.35476 0.999232 0
M  V30 2477 H 248.994 4.56156 2.23347 0
M  V30 2478 H 248.924 3.67144 3.77509 0
M  V30 2479 H 251.415 2.90896 2.41222 0
M  V30 2480 H 251.728 6.32841 4.43545 0
M  V30 2481 H 250.073 5.68732 3.99461 0
M  V30 2482 H 253.264 3.65649 2.92264 0
M  V30 2483 H 253.437 5.21565 3.84544 0
M  V30 2484 N 246.843 -1.10192 1.12674 0
M  V30 2485 C 248.068 -1.86523 0.906853 0
M  V30 2486 C 248.493 -1.80221 -0.538711 0
M  V30 2487 O 247.851 -1.17396 -1.38158 0
M  V30 2488 C 247.899 -3.32758 1.3894 0
M  V30 2489 O 247.003 -4.08449 0.5695 0
M  V30 2490 H 246.344 -0.578678 0.325619 0
M  V30 2491 H 248.874 -1.39203 1.49946 0
M  V30 2492 H 248.884 -3.83608 1.38958 0
M  V30 2493 H 247.559 -3.36661 2.44197 0
M  V30 2494 H 246.136 -3.67427 0.636528 0
M  V30 2495 N 248.321 -0.919034 -1.28029 0
M  V30 2496 C 249.569 -0.553838 -1.94363 0
M  V30 2497 C 249.89 0.906357 -1.72656 0
M  V30 2498 O 249.16 1.64143 -1.0693 0
M  V30 2499 H 247.74 -0.201834 -0.719216 0
M  V30 2500 H 250.402 -1.16954 -1.55909 0
M  V30 2501 H 249.498 -0.752758 -3.02886 0
M  V30 2502 N 249.799 1.42003 -0.683588 0
M  V30 2503 C 250.747 2.326 0.000815408 0
M  V30 2504 C 251.741 1.50308 0.781278 0
M  V30 2505 O 252.947 1.66322 0.688251 0
M  V30 2506 H 249.322 0.751758 0.0190616 0
M  V30 2507 H 251.293 2.88011 -0.780528 0
M  V30 2508 C 250.042 3.34978 0.93195 0
M  V30 2509 H 249.365 3.98345 0.340817 0
M  V30 2510 H 250.805 4.00936 1.37936 0
M  V30 2511 C 249.264 2.67925 2.04249 0
M  V30 2512 O 249.794 2.51788 3.12995 0
M  V30 2513 N 248 2.2681 1.81675 0
M  V30 2514 H 247.547 2.40135 0.932363 0
M  V30 2515 H 247.505 1.8228 2.56167 0
M  V30 2516 N 251.277 0.427512 1.51691 0
M  V30 2517 C 252.207 -0.3796 2.30394 0
M  V30 2518 C 253.188 -1.02982 1.35384 0
M  V30 2519 O 254.373 -1.03534 1.643 0
M  V30 2520 C 251.503 -1.48649 3.1388 0
M  V30 2521 C 250.457 -0.960294 4.17088 0
M  V30 2522 C 249.783 -2.16219 4.89033 0
M  V30 2523 C 251.083 -0.00153679 5.223 0
M  V30 2524 H 252.777 0.277164 2.98114 0
M  V30 2525 H 250.323 0.134739 1.43368 0
M  V30 2526 H 252.276 -2.05826 3.67714 0
M  V30 2527 H 251 -2.1714 2.43962 0
M  V30 2528 H 249.659 -0.410806 3.64291 0
M  V30 2529 H 249.307 -2.83307 4.15628 0
M  V30 2530 H 249.007 -1.81654 5.58816 0
M  V30 2531 H 250.531 -2.73968 5.45687 0
M  V30 2532 H 251.945 -0.482687 5.71264 0
M  V30 2533 H 250.342 0.256199 5.99553 0
M  V30 2534 H 251.412 0.938174 4.75738 0
M  V30 2535 N 252.755 -1.56801 0.158532 0
M  V30 2536 C 253.983 -2.00859 -0.496303 0
M  V30 2537 C 254.398 -1.03871 -1.57659 0
M  V30 2538 O 253.755 -0.0375165 -1.82461 0
M  V30 2539 C 253.806 -3.4479 -1.08638 0
M  V30 2540 O 253.527 -4.38072 -0.0492322 0
M  V30 2541 C 255.028 -4.04185 -1.8207 0
M  V30 2542 H 252.248 -0.65864 -0.128199 0
M  V30 2543 H 254.792 -2.02885 0.256506 0
M  V30 2544 H 252.947 -3.43579 -1.78975 0
M  V30 2545 H 253.361 -5.2227 -0.483102 0
M  V30 2546 H 254.835 -5.06857 -2.18633 0
M  V30 2547 H 255.312 -3.45549 -2.71095 0
M  V30 2548 H 255.918 -4.0906 -1.16405 0
M  V30 2549 N 254.233 0.115231 -1.57178 0
M  V30 2550 C 255.48 0.822351 -1.8505 0
M  V30 2551 C 255.808 1.79701 -0.744168 0
M  V30 2552 O 255.063 1.93909 0.26414 0
M  V30 2553 C 255.362 1.60324 -3.19423 0
M  V30 2554 C 255.028 0.772536 -4.44233 0
M  V30 2555 C 253.69 0.543468 -4.78121 0
M  V30 2556 C 256.042 0.193746 -5.2084 0
M  V30 2557 C 253.37 -0.274583 -5.86057 0
M  V30 2558 C 255.722 -0.611517 -6.29637 0
M  V30 2559 C 254.386 -0.850867 -6.62055 0
M  V30 2560 H 253.656 0.30092 -0.677147 0
M  V30 2561 H 256.303 0.0845802 -1.91313 0
M  V30 2562 H 254.608 2.41203 -3.08753 0
M  V30 2563 H 256.305 2.1544 -3.38211 0
M  V30 2564 H 252.895 0.96117 -4.17683 0
M  V30 2565 H 257.079 0.357926 -4.95008 0
M  V30 2566 H 252.335 -0.469206 -6.09597 0
M  V30 2567 H 256.509 -1.06697 -6.88178 0
M  V30 2568 H 254.136 -1.48657 -7.45523 0
M  V30 2569 N 255.711 1.52812 0.385517 0
M  V30 2570 C 256.644 1.72592 1.49289 0
M  V30 2571 C 257.622 0.573819 1.52138 0
M  V30 2572 O 258.806 0.80404 1.70492 0
M  V30 2573 C 255.933 1.78669 2.87741 0
M  V30 2574 C 254.979 3.00455 3.02703 0
M  V30 2575 S 255.812 4.60366 2.73538 0
M  V30 2576 C 256.968 4.69263 4.14177 0
M  V30 2577 H 257.201 2.66248 1.32285 0
M  V30 2578 H 254.734 1.43148 0.578611 0
M  V30 2579 H 256.692 1.82855 3.67524 0
M  V30 2580 H 255.353 0.861 3.02069 0
M  V30 2581 H 254.546 3.01258 4.04054 0
M  V30 2582 H 254.148 2.94278 2.30817 0
M  V30 2583 H 256.44 4.48092 5.08153 0
M  V30 2584 H 257.383 5.71276 4.18388 0
M  V30 2585 H 257.791 3.98072 4.00249 0
M  V30 2586 N 257.189 -0.644168 1.43834 0
M  V30 2587 C 258.435 -1.40603 1.46146 0
M  V30 2588 C 258.768 -1.93997 0.0887717 0
M  V30 2589 O 258.043 -1.72854 -0.891724 0
M  V30 2590 C 258.326 -2.58086 2.51124 0
M  V30 2591 C 258.179 -2.10126 3.97702 0
M  V30 2592 C 259.498 -3.60291 2.52742 0
M  V30 2593 H 256.617 -0.509905 0.532134 0
M  V30 2594 H 259.259 -0.729502 1.75437 0
M  V30 2595 H 257.409 -3.15801 2.26278 0
M  V30 2596 H 259.081 -1.57342 4.33637 0
M  V30 2597 H 257.324 -1.41419 4.10101 0
M  V30 2598 H 257.995 -2.94649 4.66783 0
M  V30 2599 H 260.471 -3.12352 2.7491 0
M  V30 2600 H 259.347 -4.40032 3.28121 0
M  V30 2601 H 259.608 -4.1349 1.56455 0
M  V30 2602 N 258.668 -1.30515 -0.883378 0
M  V30 2603 C 259.916 -1.19194 -1.63209 0
M  V30 2604 C 260.237 0.253205 -1.93349 0
M  V30 2605 O 259.507 1.17025 -1.57105 0
M  V30 2606 H 258.087 -0.438148 -0.605009 0
M  V30 2607 H 260.749 -1.63663 -1.05832 0
M  V30 2608 H 259.845 -1.75396 -2.58153 0
M  V30 2609 N 260.146 1.09593 -1.13257 0
M  V30 2610 C 261.394 1.81375 -0.891492 0
M  V30 2611 C 261.715 1.86049 0.584009 0
M  V30 2612 O 260.985 1.34481 1.42449 0
M  V30 2613 H 259.565 0.671708 -0.326828 0
M  V30 2614 H 262.227 1.3256 -1.42877 0
M  V30 2615 H 261.323 2.84612 -1.28071 0
M  V30 2616 N 261.624 0.925811 1.2754 0
M  V30 2617 C 262.87 0.566092 1.94739 0
M  V30 2618 C 263.203 -0.890057 1.72603 0
M  V30 2619 O 262.478 -1.63467 1.05399 0
M  V30 2620 C 262.761 0.89054 3.48915 0
M  V30 2621 C 262.614 2.4003 3.80402 0
M  V30 2622 C 263.933 0.395101 4.38323 0
M  V30 2623 H 261.052 0.20714 0.707292 0
M  V30 2624 H 263.694 1.15725 1.50691 0
M  V30 2625 H 261.844 0.387452 3.86563 0
M  V30 2626 H 263.516 2.97494 3.52555 0
M  V30 2627 H 261.759 2.85028 3.2702 0
M  V30 2628 H 262.43 2.57785 4.8811 0
M  V30 2629 H 264.906 0.826241 4.07814 0
M  V30 2630 H 263.782 0.651086 5.45025 0
M  V30 2631 H 264.043 -0.704798 4.36446 0
M  V30 2632 N 263.102 -1.41638 0.69111 0
M  V30 2633 C 264.012 -2.34588 0.0233487 0
M  V30 2634 C 265.028 -1.55987 -0.770984 0
M  V30 2635 O 266.204 -1.88486 -0.709569 0
M  V30 2636 C 263.269 -3.34684 -0.904851 0
M  V30 2637 C 262.33 -4.29176 -0.103225 0
M  V30 2638 C 261.563 -5.2449 -0.987216 0
M  V30 2639 O 261.786 -5.2514 -2.22674 0
M  V30 2640 O 260.72 -6.00295 -0.439281 0
M  V30 2641 H 264.546 -2.93261 0.789416 0
M  V30 2642 H 262.131 -1.42417 0.45142 0
M  V30 2643 H 264.013 -3.96133 -1.43724 0
M  V30 2644 H 262.688 -2.78461 -1.65049 0
M  V30 2645 H 261.595 -3.71089 0.473655 0
M  V30 2646 H 262.928 -4.88484 0.60365 0
M  V30 2647 N 264.58 -0.43555 -1.51462 0
M  V30 2648 C 265.857 0.191364 -1.94662 0
M  V30 2649 C 266.237 1.60254 -1.37411 0
M  V30 2650 O 265.585 2.2152 -0.560458 0
M  V30 2651 C 265.795 0.17091 -3.48581 0
M  V30 2652 C 267.143 0.377357 -4.2292 0
M  V30 2653 O 268.167 0.249104 -3.55328 0
M  V30 2654 O 267.026 0.63247 -5.42828 0
M  V30 2655 H 264.12 0.130932 -0.816569 0
M  V30 2656 H 266.666 -0.4934 -1.62369 0
M  V30 2657 H 265.438 -0.815738 -3.82703 0
M  V30 2658 H 265.061 0.898659 -3.87311 0
M  V30 2659 N 266.058 1.56714 -0.166846 0
M  V30 2660 C 266.968 2.21331 0.777791 0
M  V30 2661 C 267.984 1.20358 1.25658 0
M  V30 2662 O 269.16 1.53005 1.30964 0
M  V30 2663 C 266.225 2.83787 1.99163 0
M  V30 2664 C 265.286 3.99947 1.56016 0
M  V30 2665 C 264.519 4.59415 2.71613 0
M  V30 2666 O 264.742 4.17769 3.88362 0
M  V30 2667 O 263.676 5.49359 2.45945 0
M  V30 2668 H 267.502 3.02605 0.257636 0
M  V30 2669 H 265.087 1.49275 0.0611393 0
M  V30 2670 H 266.969 3.23405 2.70161 0
M  V30 2671 H 265.644 2.05513 2.50092 0
M  V30 2672 H 264.551 3.65007 0.819809 0
M  V30 2673 H 265.884 4.79801 1.09782 0
M  V30 2674 N 267.536 -0.106894 1.57237 0
M  V30 2675 C 268.783 -0.812526 1.85484 0
M  V30 2676 C 269.111 -1.79304 0.753687 0
M  V30 2677 O 268.366 -1.94047 -0.253853 0
M  V30 2678 C 268.665 -1.58628 3.20268 0
M  V30 2679 C 268.331 -0.748967 4.44636 0
M  V30 2680 C 266.993 -0.518104 4.78403 0
M  V30 2681 C 269.345 -0.166122 5.20935 0
M  V30 2682 C 266.673 0.305659 5.85903 0
M  V30 2683 C 269.025 0.644899 6.29304 0
M  V30 2684 C 267.689 0.885965 6.61594 0
M  V30 2685 H 266.959 -0.297324 0.678734 0
M  V30 2686 H 269.606 -0.0744332 1.91355 0
M  V30 2687 H 267.911 -2.39562 3.10028 0
M  V30 2688 H 269.608 -2.13643 3.39349 0
M  V30 2689 H 266.198 -0.939006 4.18187 0
M  V30 2690 H 270.382 -0.33167 4.95191 0
M  V30 2691 H 265.638 0.501528 6.0934 0
M  V30 2692 H 269.812 1.10345 6.87602 0
M  V30 2693 H 267.439 1.52609 7.44725 0
M  V30 2694 N 269.014 -1.53014 -0.377408 0
M  V30 2695 C 269.977 -1.77957 -1.44444 0
M  V30 2696 C 270.977 -0.649763 -1.47087 0
M  V30 2697 O 272.167 -0.917897 -1.48055 0
M  V30 2698 C 269.299 -1.89089 -2.83651 0
M  V30 2699 H 270.492 -2.73243 -1.23606 0
M  V30 2700 H 268.045 -1.43912 -0.609844 0
M  V30 2701 H 268.78 -0.958293 -3.09818 0
M  V30 2702 H 268.565 -2.71254 -2.83132 0
M  V30 2703 H 270.055 -2.1002 -3.60945 0
M  V30 2704 N 270.492 0.636531 -1.44174 0
M  V30 2705 C 271.455 1.73063 -1.50273 0
M  V30 2706 C 272.455 1.56113 -0.385397 0
M  V30 2707 O 273.645 1.61707 -0.64781 0
M  V30 2708 C 270.777 3.12096 -1.37145 0
M  V30 2709 H 271.97 1.69031 -2.47727 0
M  V30 2710 H 269.523 0.849706 -1.31186 0
M  V30 2711 H 270.258 3.21728 -0.407636 0
M  V30 2712 H 270.043 3.25805 -2.18159 0
M  V30 2713 H 271.533 3.91846 -1.44382 0
M  V30 2714 N 271.97 1.30982 0.876444 0
M  V30 2715 C 272.933 1.18054 1.96459 0
M  V30 2716 C 273.933 0.109399 1.60427 0
M  V30 2717 O 275.123 0.358173 1.70478 0
M  V30 2718 C 272.255 0.810616 3.31122 0
M  V30 2719 H 273.448 2.14735 2.09354 0
M  V30 2720 H 271.001 1.145 1.06392 0
M  V30 2721 H 271.736 -0.155322 3.23928 0
M  V30 2722 H 271.521 1.58481 3.58645 0
M  V30 2723 H 273.011 0.743876 4.10921 0
M  V30 2724 N 273.449 -1.08991 1.13837 0
M  V30 2725 C 274.381 -2.15606 0.777612 0
M  V30 2726 C 275.394 -1.61533 -0.202739 0
M  V30 2727 O 276.583 -1.78491 0.0181055 0
M  V30 2728 C 273.683 -3.3864 0.132623 0
M  V30 2729 C 272.856 -4.22115 1.1462 0
M  V30 2730 C 271.915 -5.23564 0.526074 0
M  V30 2731 O 270.941 -5.56678 1.18735 0
M  V30 2732 N 272.143 -5.76266 -0.699866 0
M  V30 2733 H 274.908 -2.47159 1.69506 0
M  V30 2734 H 272.469 -1.24747 1.03198 0
M  V30 2735 H 274.461 -4.03626 -0.29459 0
M  V30 2736 H 273.031 -3.04938 -0.687849 0
M  V30 2737 H 272.251 -3.53199 1.75055 0
M  V30 2738 H 273.539 -4.74709 1.83109 0
M  V30 2739 H 272.937 -5.51585 -1.25581 0
M  V30 2740 H 271.494 -6.42963 -1.06968 0
M  V30 2741 N 274.927 -0.932562 -1.27047 0
M  V30 2742 C 275.837 -0.441219 -2.30414 0
M  V30 2743 C 276.853 0.480525 -1.67233 0
M  V30 2744 O 278.029 0.362151 -1.98117 0
M  V30 2745 C 275.094 0.293651 -3.45454 0
M  V30 2746 C 274.155 -0.663601 -4.2414 0
M  V30 2747 C 273.388 0.0362932 -5.33688 0
M  V30 2748 O 273.611 1.2548 -5.56427 0
M  V30 2749 O 272.545 -0.638015 -5.98509 0
M  V30 2750 H 276.371 -1.29962 -2.74488 0
M  V30 2751 H 273.956 -0.6981 -1.32087 0
M  V30 2752 H 275.838 0.707951 -4.15411 0
M  V30 2753 H 274.513 1.12758 -3.03426 0
M  V30 2754 H 273.42 -1.12768 -3.56699 0
M  V30 2755 H 274.753 -1.46489 -4.69896 0
M  V30 2756 N 276.405 1.4127 -0.698611 0
M  V30 2757 C 277.335 2.33447 -0.049629 0
M  V30 2758 C 278.316 1.51982 0.763898 0
M  V30 2759 O 279.501 1.80509 0.716257 0
M  V30 2760 C 276.631 3.35828 0.885267 0
M  V30 2761 C 275.585 4.27627 0.178613 0
M  V30 2762 C 274.911 5.20406 1.22807 0
M  V30 2763 C 276.211 5.13459 -0.956933 0
M  V30 2764 H 277.905 2.87966 -0.81951 0
M  V30 2765 H 275.451 1.38461 -0.395538 0
M  V30 2766 H 277.404 3.9924 1.34854 0
M  V30 2767 H 276.128 2.79666 1.68685 0
M  V30 2768 H 274.787 3.65643 -0.26466 0
M  V30 2769 H 274.435 4.60558 2.02226 0
M  V30 2770 H 274.135 5.82661 0.760239 0
M  V30 2771 H 275.659 5.86695 1.69179 0
M  V30 2772 H 277.073 5.70421 -0.573805 0
M  V30 2773 H 275.47 5.8467 -1.35205 0
M  V30 2774 H 276.54 4.50443 -1.79524 0
M  V30 2775 N 277.883 0.443576 1.51229 0
M  V30 2776 C 278.813 -0.355142 2.30783 0
M  V30 2777 C 279.794 -1.0154 1.36468 0
M  V30 2778 O 280.979 -1.01785 1.65389 0
M  V30 2779 C 278.109 -1.45312 3.15439 0
M  V30 2780 C 277.063 -0.916002 4.18083 0
M  V30 2781 C 276.389 -2.1102 4.91299 0
M  V30 2782 C 277.689 0.0538602 5.22272 0
M  V30 2783 H 279.383 0.308767 2.97804 0
M  V30 2784 H 276.929 0.149937 1.43217 0
M  V30 2785 H 278.882 -2.01914 3.69876 0
M  V30 2786 H 277.606 -2.14541 2.46252 0
M  V30 2787 H 276.265 -0.372145 3.64706 0
M  V30 2788 H 275.913 -2.78882 4.18609 0
M  V30 2789 H 275.613 -1.75717 5.60712 0
M  V30 2790 H 277.137 -2.68164 5.48562 0
M  V30 2791 H 278.551 -0.422069 5.71744 0
M  V30 2792 H 276.948 0.319776 5.99247 0
M  V30 2793 H 278.018 0.98858 4.74716 0
M  V30 2794 N 279.361 -1.56624 0.175154 0
M  V30 2795 C 280.609 -1.96609 -0.467885 0
M  V30 2796 C 280.93 -1.06238 -1.63519 0
M  V30 2797 O 280.2 -0.129523 -1.95471 0
M  V30 2798 H 278.78 -0.726008 -0.175845 0
M  V30 2799 H 281.442 -1.93195 0.257234 0
M  V30 2800 H 280.538 -3.00989 -0.825342 0
M  V30 2801 N 280.839 0.0985539 -1.57292 0
M  V30 2802 C 282.079 0.808332 -1.87737 0
M  V30 2803 C 282.443 1.7607 -0.76572 0
M  V30 2804 O 283.644 2.51358 -0.952499 0
M  V30 2805 C 281.915 1.52093 -3.23423 0
M  V30 2806 S 283.474 2.26947 -3.75554 0
M  V30 2807 H 280.292 0.269377 -0.657995 0
M  V30 2808 H 282.894 0.0656269 -1.9539 0
M  V30 2809 H 281.598 0.81363 -4.02254 0
M  V30 2810 H 281.129 2.30361 -3.189 0
M  V30 2811 H 283.144 3.53027 -3.48692 0
M  V30 2812 N 282.317 1.53212 0.369288 0
M  V30 2813 C 283.25 1.74166 1.4745 0
M  V30 2814 C 284.228 0.589923 1.51521 0
M  V30 2815 O 285.412 0.822078 1.69629 0
M  V30 2816 C 282.539 1.81711 2.8583 0
M  V30 2817 C 281.585 3.03649 2.99499 0
M  V30 2818 S 282.418 4.63242 2.6864 0
M  V30 2819 C 283.574 4.7363 4.09177 0
M  V30 2820 H 283.807 2.67636 1.29454 0
M  V30 2821 H 281.34 1.43754 0.563396 0
M  V30 2822 H 283.298 1.86743 3.65564 0
M  V30 2823 H 281.959 0.89299 3.01139 0
M  V30 2824 H 281.152 3.05526 4.00836 0
M  V30 2825 H 280.754 2.9671 2.27683 0
M  V30 2826 H 283.046 4.53456 5.03372 0
M  V30 2827 H 283.989 5.75682 4.12306 0
M  V30 2828 H 284.397 4.02295 3.96004 0
M  V30 2829 N 283.795 -0.628877 1.44509 0
M  V30 2830 C 285.043 -1.38565 1.4712 0
M  V30 2831 C 285.364 -1.94712 0.105899 0
M  V30 2832 O 284.634 -1.75912 -0.862079 0
M  V30 2833 H 283.214 -0.514333 0.541729 0
M  V30 2834 H 285.876 -0.740018 1.80305 0
M  V30 2835 H 284.972 -2.21583 2.19789 0
M  V30 2836 N 285.273 -1.31445 -0.869486 0
M  V30 2837 C 286.498 -1.24256 -1.66058 0
M  V30 2838 C 286.923 0.188928 -1.87149 0
M  V30 2839 O 286.281 1.13522 -1.4136 0
M  V30 2840 C 286.329 -1.9924 -3.00559 0
M  V30 2841 O 285.433 -1.33007 -3.90362 0
M  V30 2842 H 284.774 -0.428973 -0.506831 0
M  V30 2843 H 287.304 -1.73521 -1.08404 0
M  V30 2844 H 287.314 -2.08854 -3.50491 0
M  V30 2845 H 285.989 -3.03342 -2.84528 0
M  V30 2846 H 284.566 -1.31848 -3.48813 0
M  V30 2847 N 286.751 1.08385 -1.14413 0
M  V30 2848 C 287.699 2.17406 -0.826888 0
M  V30 2849 C 288.693 1.6827 0.195312 0
M  V30 2850 O 289.899 1.79927 0.0513892 0
M  V30 2851 H 286.274 0.70934 -0.249681 0
M  V30 2852 H 288.245 2.41388 -1.75426 0
M  V30 2853 C 286.994 3.46215 -0.320979 0
M  V30 2854 H 286.317 3.84401 -1.0989 0
M  V30 2855 H 287.757 4.23777 -0.137549 0
M  V30 2856 C 286.216 3.23067 0.955472 0
M  V30 2857 O 286.746 3.4668 2.02918 0
M  V30 2858 N 284.952 2.7661 0.890798 0
M  V30 2859 H 284.499 2.57594 0.0168815 0
M  V30 2860 H 284.457 2.61501 1.74542 0
M  V30 2861 N 288.23 0.939286 1.26551 0
M  V30 2862 C 289.476 0.586715 1.94128 0
M  V30 2863 C 289.809 -0.8717 1.73537 0
M  V30 2864 O 289.084 -1.62339 1.07127 0
M  V30 2865 C 289.367 0.927497 3.4795 0
M  V30 2866 C 289.22 2.44052 3.77834 0
M  V30 2867 C 290.539 0.441569 4.37879 0
M  V30 2868 H 287.658 0.21463 0.705055 0
M  V30 2869 H 290.3 1.17316 1.49455 0
M  V30 2870 H 288.45 0.428431 3.8613 0
M  V30 2871 H 290.122 3.01216 3.4938 0
M  V30 2872 H 288.365 2.8848 3.23978 0
M  V30 2873 H 289.036 2.62947 4.85348 0
M  V30 2874 H 291.512 0.869448 4.06915 0
M  V30 2875 H 290.388 0.708856 5.44304 0
M  V30 2876 H 290.649 -0.658467 4.37169 0
M  V30 2877 N 289.708 -1.40897 0.706093 0
M  V30 2878 C 290.954 -2.01352 0.241889 0
M  V30 2879 C 291.287 -1.55832 -1.15888 0
M  V30 2880 O 290.562 -0.774145 -1.7843 0
M  V30 2881 C 290.845 -3.58752 0.311311 0
M  V30 2882 C 290.698 -4.1437 1.74978 0
M  V30 2883 C 292.017 -4.38914 -0.322922 0
M  V30 2884 H 289.136 -0.731562 0.0893687 0
M  V30 2885 H 291.778 -1.67504 0.896802 0
M  V30 2886 H 289.928 -3.87718 -0.246302 0
M  V30 2887 H 291.6 -3.96239 2.36205 0
M  V30 2888 H 289.843 -3.69016 2.28057 0
M  V30 2889 H 290.514 -5.23532 1.74981 0
M  V30 2890 H 292.99 -4.15822 0.152089 0
M  V30 2891 H 291.866 -5.48358 -0.243855 0
M  V30 2892 H 292.127 -4.19176 -1.40513 0
M  V30 2893 N 291.186 -0.45159 -1.50991 0
M  V30 2894 C 292.416 0.108177 -2.06317 0
M  V30 2895 C 292.824 1.35774 -1.31765 0
M  V30 2896 O 292.167 1.79838 -0.374694 0
M  V30 2897 C 292.229 0.481659 -3.56259 0
M  V30 2898 C 291.893 -0.663114 -4.52163 0
M  V30 2899 C 292.89 -1.53947 -4.96585 0
M  V30 2900 C 290.575 -0.8479 -4.95092 0
M  V30 2901 C 292.569 -2.58518 -5.82621 0
M  V30 2902 C 290.256 -1.89686 -5.80915 0
M  V30 2903 C 291.254 -2.76388 -6.24579 0
M  V30 2904 O 290.942 -3.79482 -7.08695 0
M  V30 2905 H 290.674 0.00499183 -0.675982 0
M  V30 2906 H 293.228 -0.633659 -1.95381 0
M  V30 2907 H 291.458 1.27641 -3.65027 0
M  V30 2908 H 293.147 0.974233 -3.94035 0
M  V30 2909 H 293.913 -1.4083 -4.64103 0
M  V30 2910 H 289.792 -0.18258 -4.60638 0
M  V30 2911 H 293.336 -3.26224 -6.16623 0
M  V30 2912 H 289.233 -2.02817 -6.12809 0
M  V30 2913 H 290.001 -3.76234 -7.26905 0
M  V30 2914 N 292.664 1.56529 -0.183458 0
M  V30 2915 C 293.904 1.99141 0.460667 0
M  V30 2916 C 294.268 1.06736 1.59597 0
M  V30 2917 O 295.469 1.38538 2.30349 0
M  V30 2918 C 293.74 3.45358 0.919939 0
M  V30 2919 S 295.299 4.09999 1.56354 0
M  V30 2920 H 292.117 0.695479 0.147748 0
M  V30 2921 H 294.719 1.93429 -0.283782 0
M  V30 2922 H 293.423 4.10315 0.0834208 0
M  V30 2923 H 292.954 3.54862 1.69814 0
M  V30 2924 H 294.969 4.06046 2.85203 0
M  V30 2925 N 294.142 -0.090211 1.57342 0
M  V30 2926 C 295.39 -0.791241 1.85967 0
M  V30 2927 C 295.711 -1.7903 0.772859 0
M  V30 2928 O 294.981 -1.94872 -0.200398 0
M  V30 2929 H 293.561 -0.295205 0.686195 0
M  V30 2930 H 296.223 -0.0706782 1.94772 0
M  V30 2931 H 295.319 -1.31882 2.82867 0
M  V30 2932 N 295.62 -1.53406 -0.361157 0
M  V30 2933 C 296.583 -1.79479 -1.42548 0
M  V30 2934 C 297.583 -0.665327 -1.4639 0
M  V30 2935 O 298.773 -0.933549 -1.47073 0
M  V30 2936 C 295.905 -1.92087 -2.8163 0
M  V30 2937 H 297.098 -2.74538 -1.20701 0
M  V30 2938 H 294.651 -1.4455 -0.594546 0
M  V30 2939 H 295.386 -0.991099 -3.08784 0
M  V30 2940 H 295.171 -2.74241 -2.80239 0
M  V30 2941 H 296.661 -2.13836 -3.58697 0
M  V30 2942 N 297.098 0.621204 -1.44841 0
M  V30 2943 C 298.344 1.3826 -1.48365 0
M  V30 2944 C 298.677 1.93831 -0.119624 0
M  V30 2945 O 297.952 1.74251 0.864111 0
M  V30 2946 C 298.235 2.54058 -2.55199 0
M  V30 2947 C 298.088 2.03772 -4.00995 0
M  V30 2948 C 299.407 3.56225 -2.58442 0
M  V30 2949 H 296.526 0.501374 -0.540179 0
M  V30 2950 H 299.168 0.7015 -1.76576 0
M  V30 2951 H 297.318 3.12162 -2.31274 0
M  V30 2952 H 298.99 1.50423 -4.36086 0
M  V30 2953 H 297.233 1.34876 -4.12299 0
M  V30 2954 H 297.904 2.87185 -4.71411 0
M  V30 2955 H 300.38 3.07939 -2.79844 0
M  V30 2956 H 299.256 4.34756 -3.3508 0
M  V30 2957 H 299.517 4.10949 -1.63013 0
M  V30 2958 N 298.576 1.31904 0.862503 0
M  V30 2959 C 299.824 1.21776 1.61292 0
M  V30 2960 C 300.145 -0.222413 1.93727 0
M  V30 2961 O 299.415 -1.1451 1.58947 0
M  V30 2962 H 297.995 0.447717 0.597962 0
M  V30 2963 H 300.657 1.65326 1.03215 0
M  V30 2964 H 299.753 1.7948 2.5533 0
M  V30 2965 N 300.054 -1.07777 1.14986 0
M  V30 2966 C 301.282 -1.84018 0.945773 0
M  V30 2967 C 301.697 -1.81897 -0.505863 0
M  V30 2968 O 301.054 -1.22726 -1.35072 0
M  V30 2969 C 301.105 -3.31287 1.44677 0
M  V30 2970 O 300.826 -3.33449 2.84154 0
M  V30 2971 C 302.327 -4.24311 1.28355 0
M  V30 2972 H 299.547 -0.580716 0.336169 0
M  V30 2973 H 302.091 -1.36077 1.52654 0
M  V30 2974 H 300.246 -3.76594 0.908625 0
M  V30 2975 H 300.66 -4.25427 3.06777 0
M  V30 2976 H 302.134 -5.2573 1.68261 0
M  V30 2977 H 302.611 -4.38612 0.227184 0
M  V30 2978 H 303.217 -3.84836 1.81056 0
M  V30 2979 N 301.532 -0.945985 -1.26051 0
M  V30 2980 C 302.78 -0.594941 -1.93145 0
M  V30 2981 C 303.101 0.86953 -1.7454 0
M  V30 2982 O 302.371 1.61838 -1.10387 0
M  V30 2983 H 300.951 -0.217044 -0.714773 0
M  V30 2984 H 303.613 -1.20235 -1.53393 0
M  V30 2985 H 302.709 -0.816835 -3.01221 0
M  V30 2986 N 303.011 1.40521 -0.713556 0
M  V30 2987 C 303.943 2.29191 -0.0203126 0
M  V30 2988 C 304.956 1.45723 0.725864 0
M  V30 2989 O 306.145 1.69033 0.573581 0
M  V30 2990 C 303.245 3.2395 0.995486 0
M  V30 2991 C 302.418 4.36262 0.315256 0
M  V30 2992 C 301.477 5.11474 1.23616 0
M  V30 2993 O 300.503 5.64606 0.721719 0
M  V30 2994 N 301.705 5.20638 2.56743 0
M  V30 2995 H 304.47 2.89327 -0.781652 0
M  V30 2996 H 302.031 1.51869 -0.561022 0
M  V30 2997 H 304.023 3.71137 1.61368 0
M  V30 2998 H 302.593 2.64995 1.6582 0
M  V30 2999 H 301.813 3.91228 -0.483106 0
M  V30 3000 H 303.101 5.08558 -0.157004 0
M  V30 3001 H 302.499 4.7895 3.01037 0
M  V30 3002 H 301.056 5.71339 3.13712 0
M  V30 3003 N 304.489 0.459591 1.5075 0
M  V30 3004 C 305.452 -0.329093 2.26825 0
M  V30 3005 C 306.452 -0.930481 1.31144 0
M  V30 3006 O 307.642 -0.801453 1.54669 0
M  V30 3007 C 304.774 -1.46768 3.07688 0
M  V30 3008 H 305.967 0.337924 2.9799 0
M  V30 3009 H 303.52 0.213336 1.54837 0
M  V30 3010 H 304.255 -2.17009 2.40993 0
M  V30 3011 H 304.04 -1.04238 3.77991 0
M  V30 3012 H 305.53 -2.02433 3.65254 0
M  V30 3013 N 305.967 -1.56429 0.191757 0
M  V30 3014 C 306.93 -2.17707 -0.716688 0
M  V30 3015 C 307.93 -1.13061 -1.14341 0
M  V30 3016 O 309.12 -1.38464 -1.05704 0
M  V30 3017 C 306.252 -2.77644 -1.97804 0
M  V30 3018 H 307.445 -2.99342 -0.1829 0
M  V30 3019 H 304.998 -1.56193 -0.0578566 0
M  V30 3020 H 305.733 -1.99799 -2.55443 0
M  V30 3021 H 305.518 -3.54246 -1.68083 0
M  V30 3022 H 307.008 -3.24708 -2.62592 0
M  V30 3023 N 307.445 0.0818655 -1.57387 0
M  V30 3024 C 308.392 1.09834 -2.0299 0
M  V30 3025 C 309.362 1.39043 -0.908639 0
M  V30 3026 O 310.547 1.50282 -1.17559 0
M  V30 3027 C 307.687 2.40971 -2.47037 0
M  V30 3028 C 306.8 2.18379 -3.7274 0
M  V30 3029 C 305.935 3.43008 -4.0561 0
M  V30 3030 C 304.974 3.15736 -5.24383 0
M  V30 3031 N 304.111 4.32667 -5.52941 0
M  V30 3032 H 308.951 0.702472 -2.89602 0
M  V30 3033 H 306.488 0.33531 -1.43227 0
M  V30 3034 H 308.446 3.1752 -2.70623 0
M  V30 3035 H 307.076 2.78379 -1.63417 0
M  V30 3036 H 306.128 1.32569 -3.56552 0
M  V30 3037 H 307.44 1.94227 -4.59431 0
M  V30 3038 H 306.594 4.27958 -4.30043 0
M  V30 3039 H 305.333 3.70225 -3.17466 0
M  V30 3040 H 304.338 2.2918 -4.99757 0
M  V30 3041 H 305.563 2.8985 -6.14136 0
M  V30 3042 H 303.509 4.59935 -4.67756 0
M  V30 3043 H 303.426 4.11753 -6.34031 0
M  V30 3044 H 304.694 5.18644 -5.81918 0
M  V30 3045 N 308.923 1.53595 0.353017 0
M  V30 3046 C 310.172 1.69603 1.09168 0
M  V30 3047 C 310.485 0.460925 1.90092 0
M  V30 3048 O 311.691 0.501774 2.66823 0
M  V30 3049 C 310.147 2.99872 1.9901 0
M  V30 3050 C 309.755 4.30687 1.23339 0
M  V30 3051 C 311.499 3.25246 2.72792 0
M  V30 3052 C 309.406 5.52036 2.12156 0
M  V30 3053 H 308.336 0.631966 0.411261 0
M  V30 3054 H 310.987 1.80096 0.351802 0
M  V30 3055 H 309.369 2.83212 2.7678 0
M  V30 3056 H 310.543 4.58019 0.505456 0
M  V30 3057 H 308.858 4.11853 0.613663 0
M  V30 3058 H 311.455 4.13095 3.39495 0
M  V30 3059 H 311.798 2.41846 3.38846 0
M  V30 3060 H 312.331 3.42638 2.021 0
M  V30 3061 H 309.07 6.37951 1.50659 0
M  V30 3062 H 308.59 5.28966 2.82764 0
M  V30 3063 H 310.269 5.87313 2.71427 0
M  V30 3064 N 310.401 -0.613514 1.45168 0
M  V30 3065 C 311.641 -1.38405 1.5041 0
M  V30 3066 C 312.005 -1.91489 0.139922 0
M  V30 3067 O 313.206 -2.68716 0.067033 0
M  V30 3068 C 311.477 -2.50552 2.5487 0
M  V30 3069 S 313.036 -3.38439 2.79292 0
M  V30 3070 H 309.854 -0.471945 0.531779 0
M  V30 3071 H 312.456 -0.708518 1.82209 0
M  V30 3072 H 311.16 -2.09894 3.52665 0
M  V30 3073 H 310.691 -3.22913 2.24701 0
M  V30 3074 H 312.706 -4.48527 2.12222 0
M  V30 3075 N 311.879 -1.3236 -0.855495 0
M  V30 3076 C 312.827 -1.2118 -1.9854 0
M  V30 3077 C 313.821 -0.116788 -1.68997 0
M  V30 3078 O 315.027 -0.279657 -1.77814 0
M  V30 3079 H 311.402 -0.375608 -0.651477 0
M  V30 3080 H 313.373 -2.16743 -2.05098 0
M  V30 3081 C 312.122 -0.950849 -3.34446 0
M  V30 3082 H 311.445 -1.78563 -3.57708 0
M  V30 3083 H 312.885 -0.912863 -4.14057 0
M  V30 3084 C 311.344 0.346404 -3.35114 0
M  V30 3085 O 311.874 1.35855 -3.7803 0
M  V30 3086 N 310.08 0.36808 -2.88259 0
M  V30 3087 H 309.627 -0.456102 -2.5353 0
M  V30 3088 H 309.585 1.23591 -2.89089 0
M  V30 3089 N 313.357 1.07166 -1.15556 0
M  V30 3090 C 314.305 2.16517 -0.8499 0
M  V30 3091 C 315.299 1.68468 0.177454 0
M  V30 3092 O 316.505 1.79971 0.0323026 0
M  V30 3093 H 312.88 0.706652 -0.25719 0
M  V30 3094 H 314.851 2.39514 -1.77976 0
M  V30 3095 C 313.6 3.45855 -0.357682 0
M  V30 3096 H 312.923 3.83214 -1.13961 0
M  V30 3097 H 314.363 4.23607 -0.182489 0
M  V30 3098 C 312.822 3.24062 0.921152 0
M  V30 3099 O 313.352 3.48813 1.9923 0
M  V30 3100 N 311.558 2.77539 0.86141 0
M  V30 3101 H 311.105 2.57598 -0.0104408 0
M  V30 3102 H 311.063 2.63337 1.71758 0
M  V30 3103 N 314.835 0.952656 1.25548 0
M  V30 3104 C 315.768 0.415525 2.24385 0
M  V30 3105 C 316.746 -0.502046 1.54655 0
M  V30 3106 O 317.93 -0.436875 1.83368 0
M  V30 3107 C 315.057 -0.401734 3.36309 0
M  V30 3108 C 314.103 0.455949 4.24056 0
M  V30 3109 S 314.936 1.88698 5.01152 0
M  V30 3110 C 316.092 1.07809 6.16545 0
M  V30 3111 H 316.325 1.25315 2.69599 0
M  V30 3112 H 313.858 0.756587 1.34592 0
M  V30 3113 H 315.816 -0.867329 4.01233 0
M  V30 3114 H 314.477 -1.21416 2.89684 0
M  V30 3115 H 313.67 -0.170776 5.03711 0
M  V30 3116 H 313.272 0.856675 3.64056 0
M  V30 3117 H 315.564 0.325816 6.76716 0
M  V30 3118 H 316.507 1.84849 6.83547 0
M  V30 3119 H 316.915 0.60909 5.61204 0
M  V30 3120 N 316.313 -1.40141 0.720998 0
M  V30 3121 C 317.243 -2.33339 0.0867621 0
M  V30 3122 C 318.224 -1.53178 -0.739622 0
M  V30 3123 O 319.409 -1.81625 -0.687449 0
M  V30 3124 C 316.539 -3.37194 -0.831728 0
M  V30 3125 C 315.493 -4.27857 -0.110558 0
M  V30 3126 C 314.819 -5.22294 -1.14513 0
M  V30 3127 C 316.119 -5.11872 1.0385 0
M  V30 3128 H 317.813 -2.86626 0.865219 0
M  V30 3129 H 315.359 -1.37814 0.417516 0
M  V30 3130 H 317.312 -4.01335 -1.28485 0
M  V30 3131 H 316.036 -2.82314 -1.64214 0
M  V30 3132 H 314.695 -3.65176 0.322797 0
M  V30 3133 H 314.343 -4.63717 -1.94874 0
M  V30 3134 H 314.043 -5.83797 -0.667446 0
M  V30 3135 H 315.567 -5.89312 -1.59824 0
M  V30 3136 H 316.981 -5.69436 0.664482 0
M  V30 3137 H 315.378 -5.82445 1.4449 0
M  V30 3138 H 316.448 -4.4753 1.86668 0
M  V30 3139 N 317.792 -0.46758 -1.50504 0
M  V30 3140 C 318.722 0.318381 -2.31319 0
M  V30 3141 C 319.703 0.993564 -1.38066 0
M  V30 3142 O 320.888 0.991411 -1.66987 0
M  V30 3143 C 318.018 1.40275 -3.17711 0
M  V30 3144 C 316.972 0.849373 -4.19487 0
M  V30 3145 C 316.298 2.03177 -4.94594 0
M  V30 3146 C 317.598 -0.136942 -5.2212 0
M  V30 3147 H 319.292 -0.356106 -2.97275 0
M  V30 3148 H 316.838 -0.172703 -1.42961 0
M  V30 3149 H 318.791 1.96004 -3.73042 0
M  V30 3150 H 317.515 2.10596 -2.49634 0
M  V30 3151 H 316.174 0.314076 -3.65252 0
M  V30 3152 H 315.822 2.72187 -4.22993 0
M  V30 3153 H 315.522 1.66774 -5.63436 0
M  V30 3154 H 317.046 2.59403 -5.52759 0
M  V30 3155 H 318.46 0.331056 -5.72343 0
M  V30 3156 H 316.857 -0.41507 -5.98663 0
M  V30 3157 H 317.927 -1.06398 -4.73083 0
M  V30 3158 N 319.27 1.56325 -0.20005 0
M  V30 3159 C 320.233 2.18084 0.705132 0
M  V30 3160 C 321.233 1.13666 1.1374 0
M  V30 3161 O 322.423 1.39023 1.04968 0
M  V30 3162 C 319.555 2.78689 1.96329 0
M  V30 3163 H 320.748 2.99435 0.167023 0
M  V30 3164 H 318.301 1.56221 0.0495725 0
M  V30 3165 H 319.036 2.0115 2.5438 0
M  V30 3166 H 318.821 3.55133 1.66202 0
M  V30 3167 H 320.311 3.26096 2.60866 0
M  V30 3168 N 320.748 -0.0735177 1.57428 0
M  V30 3169 C 321.997 -0.771809 1.86349 0
M  V30 3170 C 322.31 -1.78828 0.792452 0
M  V30 3171 O 323.516 -2.53602 0.96945 0
M  V30 3172 C 321.972 -1.42358 3.30548 0
M  V30 3173 C 321.58 -0.445761 4.45777 0
M  V30 3174 C 323.324 -2.10434 3.6867 0
M  V30 3175 C 321.231 -1.10335 5.81016 0
M  V30 3176 H 320.161 -0.291999 0.695164 0
M  V30 3177 H 322.812 -0.0250749 1.83483 0
M  V30 3178 H 321.194 -2.21852 3.28021 0
M  V30 3179 H 322.368 0.319239 4.59693 0
M  V30 3180 H 320.683 0.130457 4.16196 0
M  V30 3181 H 323.28 -2.60405 4.67004 0
M  V30 3182 H 323.623 -2.90298 2.98383 0
M  V30 3183 H 324.156 -1.37773 3.7318 0
M  V30 3184 H 320.895 -0.345061 6.54591 0
M  V30 3185 H 320.415 -1.83925 5.70904 0
M  V30 3186 H 322.094 -1.62367 6.26295 0
M  V30 3187 N 322.226 -1.5378 -0.344866 0
M  V30 3188 C 323.451 -1.75211 -1.10977 0
M  V30 3189 C 323.876 -0.48936 -1.81623 0
M  V30 3190 O 323.234 0.557925 -1.72502 0
M  V30 3191 C 323.282 -2.93147 -2.09993 0
M  V30 3192 O 322.386 -2.63203 -3.17487 0
M  V30 3193 H 321.727 -0.581241 -0.321021 0
M  V30 3194 H 324.257 -2.00738 -0.395661 0
M  V30 3195 H 324.267 -3.19898 -2.53237 0
M  V30 3196 H 322.942 -3.84731 -1.5797 0
M  V30 3197 H 321.519 -2.47336 -2.79069 0
M  V30 3198 N 323.704 0.605807 -1.45491 0
M  V30 3199 C 324.637 1.73022 -1.48791 0
M  V30 3200 C 325.615 1.58917 -0.344112 0
M  V30 3201 O 326.799 1.80453 -0.544876 0
M  V30 3202 C 323.926 3.10865 -1.34463 0
M  V30 3203 C 322.972 3.43554 -2.5273 0
M  V30 3204 S 323.805 3.38196 -4.15191 0
M  V30 3205 C 324.961 4.78616 -4.03333 0
M  V30 3206 H 325.194 1.69961 -2.43928 0
M  V30 3207 H 322.727 0.782611 -1.33096 0
M  V30 3208 H 324.685 3.90398 -1.26884 0
M  V30 3209 H 323.346 3.1144 -0.40794 0
M  V30 3210 H 322.539 4.43924 -2.38637 0
M  V30 3211 H 322.141 2.71541 -2.5718 0
M  V30 3212 H 324.433 5.68463 -3.68587 0
M  V30 3213 H 325.376 4.97767 -5.03621 0
M  V30 3214 H 325.784 4.54381 -3.34959 0
M  V30 3215 N 325.182 1.32811 0.848464 0
M  V30 3216 C 326.431 1.23075 1.59798 0
M  V30 3217 C 326.744 -0.204419 1.94529 0
M  V30 3218 O 327.95 -0.423701 2.68173 0
M  V30 3219 C 326.406 2.15594 2.88179 0
M  V30 3220 C 326.014 3.64228 2.60849 0
M  V30 3221 C 327.758 2.14709 3.66197 0
M  V30 3222 C 325.665 4.48689 3.85269 0
M  V30 3223 H 324.595 0.457091 0.599653 0
M  V30 3224 H 327.246 1.57813 0.936342 0
M  V30 3225 H 325.628 1.73778 3.55833 0
M  V30 3226 H 326.802 4.14424 2.01467 0
M  V30 3227 H 325.117 3.67306 1.96151 0
M  V30 3228 H 327.714 2.75046 4.58534 0
M  V30 3229 H 328.057 1.13966 4.00397 0
M  V30 3230 H 328.59 2.54837 3.05455 0
M  V30 3231 H 325.329 5.5027 3.56207 0
M  V30 3232 H 324.849 4.03241 4.44024 0
M  V30 3233 H 326.528 4.62006 4.52946 0
M  V30 3234 N 326.66 -1.06551 1.16123 0
M  V30 3235 C 327.908 -1.78947 0.939267 0
M  V30 3236 C 328.229 -1.87532 -0.534476 0
M  V30 3237 O 327.499 -1.38211 -1.38833 0
M  V30 3238 H 326.079 -0.662807 0.344523 0
M  V30 3239 H 328.741 -1.28725 1.46342 0
M  V30 3240 H 327.837 -2.81117 1.35572 0
M  V30 3241 N 328.138 -0.959301 -1.25041 0
M  V30 3242 C 329.366 -0.633949 -1.96948 0
M  V30 3243 C 329.781 0.794916 -1.7125 0
M  V30 3244 O 329.138 1.53231 -0.991287 0
M  V30 3245 C 329.189 -0.888805 -3.50403 0
M  V30 3246 O 328.91 -2.26149 -3.75218 0
M  V30 3247 C 330.411 -0.576482 -4.39536 0
M  V30 3248 H 327.631 -0.237263 -0.627652 0
M  V30 3249 H 330.175 -1.28495 -1.59089 0
M  V30 3250 H 328.33 -0.284145 -3.86357 0
M  V30 3251 H 328.744 -2.33514 -4.6965 0
M  V30 3252 H 330.218 -0.805314 -5.46094 0
M  V30 3253 H 330.695 0.489075 -4.36468 0
M  V30 3254 H 331.301 -1.16067 -4.09156 0
M  V30 3255 N 329.616 1.39756 -0.72842 0
M  V30 3256 C 330.579 2.29012 -0.0927297 0
M  V30 3257 C 331.579 1.45992 0.674025 0
M  V30 3258 O 332.769 1.66749 0.50402 0
M  V30 3259 C 329.901 3.29396 0.878137 0
M  V30 3260 H 331.094 2.86729 -0.879011 0
M  V30 3261 H 328.647 1.48293 -0.493847 0
M  V30 3262 H 329.382 2.76722 1.69101 0
M  V30 3263 H 329.167 3.907 0.331051 0
M  V30 3264 H 330.657 3.96199 1.3197 0
M  V30 3265 N 331.094 0.475555 1.50254 0
M  V30 3266 C 332.004 -0.321501 2.32387 0
M  V30 3267 C 333.02 -0.991755 1.42969 0
M  V30 3268 O 334.196 -0.978747 1.76018 0
M  V30 3269 C 331.261 -1.38667 3.17762 0
M  V30 3270 C 330.322 -0.732538 4.23004 0
M  V30 3271 C 329.555 -1.74695 5.04299 0
M  V30 3272 O 329.778 -2.97399 4.86734 0
M  V30 3273 O 328.712 -1.31631 5.8733 0
M  V30 3274 H 332.538 0.350071 3.01676 0
M  V30 3275 H 330.123 0.237321 1.47503 0
M  V30 3276 H 332.005 -2.00354 3.70724 0
M  V30 3277 H 330.68 -2.04163 2.51196 0
M  V30 3278 H 329.587 -0.0765902 3.74022 0
M  V30 3279 H 330.92 -0.120452 4.92053 0
M  V30 3280 N 332.573 -1.56217 0.208337 0
M  V30 3281 C 333.536 -2.18455 -0.693557 0
M  V30 3282 C 334.536 -1.14268 -1.13135 0
M  V30 3283 O 335.726 -1.39577 -1.0423 0
M  V30 3284 C 332.858 -2.79727 -1.94848 0
M  V30 3285 H 334.051 -2.99519 -0.15114 0
M  V30 3286 H 331.604 -1.56245 -0.041287 0
M  V30 3287 H 332.339 -2.02497 -2.53309 0
M  V30 3288 H 332.124 -3.56009 -1.64316 0
M  V30 3289 H 333.614 -3.27475 -2.59133 0
M  V30 3290 N 334.051 0.0651679 -1.57465 0
M  V30 3291 C 334.984 1.10876 -1.99453 0
M  V30 3292 C 335.962 1.37205 -0.872555 0
M  V30 3293 O 337.146 1.50468 -1.13542 0
M  V30 3294 C 334.273 2.45167 -2.3369 0
M  V30 3295 C 333.319 2.3493 -3.55964 0
M  V30 3296 S 334.152 1.73708 -5.06543 0
M  V30 3297 C 335.308 3.09563 -5.43987 0
M  V30 3298 H 335.541 0.750967 -2.87659 0
M  V30 3299 H 333.074 0.273933 -1.51951 0
M  V30 3300 H 335.032 3.22412 -2.54088 0
M  V30 3301 H 333.693 2.78105 -1.46001 0
M  V30 3302 H 332.886 3.3398 -3.77457 0
M  V30 3303 H 332.488 1.65823 -3.3523 0
M  V30 3304 H 334.78 4.05882 -5.42463 0
M  V30 3305 H 335.723 2.92843 -6.44708 0
M  V30 3306 H 336.131 3.10474 -4.71451 0
M  V30 3307 N 335.529 1.53961 0.336706 0
M  V30 3308 C 336.477 1.83136 1.43401 0
M  V30 3309 C 337.471 0.702313 1.54156 0
M  V30 3310 O 338.677 0.885765 1.56698 0
M  V30 3311 H 335.052 0.580309 0.478273 0
M  V30 3312 H 337.023 2.74925 1.16012 0
M  V30 3313 C 335.772 2.06385 2.79822 0
M  V30 3314 H 335.095 2.92718 2.72316 0
M  V30 3315 H 336.535 2.30761 3.55704 0
M  V30 3316 C 334.994 0.851414 3.25964 0
M  V30 3317 O 335.524 0.0541904 4.01663 0
M  V30 3318 N 333.73 0.66672 2.82848 0
M  V30 3319 H 333.277 1.31665 2.21409 0
M  V30 3320 H 333.235 -0.143032 3.14074 0
M  V30 3321 N 337.007 -0.598083 1.45811 0
M  V30 3322 C 337.937 -1.71873 1.58057 0
M  V30 3323 C 338.918 -1.64533 0.431615 0
M  V30 3324 O 340.103 -1.82787 0.65595 0
M  V30 3325 C 337.233 -3.10495 1.55597 0
M  V30 3326 C 336.187 -3.32654 2.69305 0
M  V30 3327 C 335.513 -4.71646 2.51902 0
M  V30 3328 C 336.813 -3.21981 4.11248 0
M  V30 3329 H 338.507 -1.61881 2.51863 0
M  V30 3330 H 336.053 -0.777372 1.21214 0
M  V30 3331 H 338.006 -3.88699 1.6276 0
M  V30 3332 H 336.73 -3.2135 0.583255 0
M  V30 3333 H 335.389 -2.56843 2.61586 0
M  V30 3334 H 335.037 -4.79246 1.52748 0
M  V30 3335 H 334.737 -4.87426 3.2816 0
M  V30 3336 H 336.261 -5.52038 2.60933 0
M  V30 3337 H 337.675 -3.90049 4.20161 0
M  V30 3338 H 336.072 -3.49289 4.87972 0
M  V30 3339 H 337.142 -2.1928 4.32486 0
M  V30 3340 N 338.485 -1.33259 -0.841409 0
M  V30 3341 C 339.733 -1.24326 -1.59334 0
M  V30 3342 C 340.054 0.191564 -1.94057 0
M  V30 3343 O 339.324 1.11967 -1.60749 0
M  V30 3344 H 337.904 -0.457174 -0.590763 0
M  V30 3345 H 340.566 -1.66947 -1.00571 0
M  V30 3346 H 339.662 -1.8352 -2.52442 0
M  V30 3347 N 339.963 1.05934 -1.16686 0
M  V30 3348 C 341.212 1.78188 -0.945085 0
M  V30 3349 C 341.525 1.88338 0.528021 0
M  V30 3350 O 342.731 2.57258 0.867799 0
M  V30 3351 C 341.187 3.20277 -1.64167 0
M  V30 3352 C 340.795 3.18281 -3.15279 0
M  V30 3353 C 342.539 3.97039 -1.502 0
M  V30 3354 C 340.446 4.55112 -3.7766 0
M  V30 3355 H 339.376 0.667866 -0.349959 0
M  V30 3356 H 342.027 1.18794 -1.39858 0
M  V30 3357 H 340.409 3.79952 -1.11589 0
M  V30 3358 H 341.583 2.68167 -3.74731 0
M  V30 3359 H 339.898 2.55018 -3.29173 0
M  V30 3360 H 342.495 4.98194 -1.94183 0
M  V30 3361 H 342.838 4.13845 -0.451461 0
M  V30 3362 H 343.371 3.43894 -1.99954 0
M  V30 3363 H 340.11 4.43512 -4.82677 0
M  V30 3364 H 339.63 5.05406 -3.22994 0
M  V30 3365 H 341.309 5.24064 -3.79428 0
M  V30 3366 N 341.441 0.965919 1.2453 0
M  V30 3367 C 342.857 0.67216 1.44756 0
M  V30 3368 C 343.057 -0.766609 1.86347 0
M  V30 3369 O 342.113 -1.5407 2.00047 0
M  V30 3370 C 343.426 1.65473 2.51076 0
M  V30 3371 C 344.974 1.66716 2.64905 0
M  V30 3372 C 345.449 2.63766 3.74421 0
M  V30 3373 N 346.94 2.62198 3.81846 0
M  V30 3374 C 347.675 3.33966 4.66106 0
M  V30 3375 N 347.171 4.15245 5.54566 0
M  V30 3376 N 348.964 3.22799 4.60171 0
M  V30 3377 H 341.115 1.89553 0.958293 0
M  V30 3378 H 343.378 0.815979 0.482579 0
M  V30 3379 H 343.084 2.68296 2.27399 0
M  V30 3380 H 342.958 1.4261 3.49202 0
M  V30 3381 H 345.345 0.646057 2.87941 0
M  V30 3382 H 345.426 1.93642 1.67142 0
M  V30 3383 H 345.07 3.6601 3.52135 0
M  V30 3384 H 345 2.34121 4.71694 0
M  V30 3385 H 347.491 2.032 3.18619 0
M  V30 3386 H 347.804 4.66898 6.15814 0
M  V30 3387 H 346.149 4.1934 5.54237 0
M  V30 3388 H 349.34 2.58764 3.90075 0
M  V30 3389 H 349.513 3.78994 5.25612 0
M  V30 3390 N 342.919 -1.39368 0.735821 0
M  V30 3391 C 343.849 -2.33234 0.111506 0
M  V30 3392 C 344.83 -1.53954 -0.723334 0
M  V30 3393 O 346.015 -1.82344 -0.668147 0
M  V30 3394 C 343.145 -3.38057 -0.795917 0
M  V30 3395 C 342.099 -4.2795 -0.065172 0
M  V30 3396 C 341.425 -5.23479 -1.08967 0
M  V30 3397 C 342.725 -5.10741 1.09273 0
M  V30 3398 H 344.419 -2.85692 0.895571 0
M  V30 3399 H 341.965 -1.37364 0.432109 0
M  V30 3400 H 343.918 -4.02675 -1.24221 0
M  V30 3401 H 342.642 -2.8404 -1.61211 0
M  V30 3402 H 341.301 -3.64813 0.361511 0
M  V30 3403 H 340.949 -4.65758 -1.89944 0
M  V30 3404 H 340.649 -5.84472 -0.605489 0
M  V30 3405 H 342.173 -5.90974 -1.53565 0
M  V30 3406 H 343.587 -5.68699 0.724841 0
M  V30 3407 H 341.984 -5.8088 1.50659 0
M  V30 3408 H 343.054 -4.45525 1.91404 0
M  V30 3409 N 344.397 -0.483516 -1.5 0
M  V30 3410 C 345.645 0.067027 -2.01989 0
M  V30 3411 C 345.966 1.3909 -1.36671 0
M  V30 3412 O 345.236 1.88978 -0.516152 0
M  V30 3413 H 343.816 0.0277606 -0.746484 0
M  V30 3414 H 346.478 -0.636773 -1.84204 0
M  V30 3415 H 345.574 0.209484 -3.11396 0
M  V30 3416 N 345.875 1.56104 -0.216619 0
M  V30 3417 C 346.805 2.23063 0.690296 0
M  V30 3418 C 347.786 1.20072 1.20485 0
M  V30 3419 O 348.971 1.48643 1.24976 0
M  V30 3420 C 346.101 2.90672 1.90072 0
M  V30 3421 C 345.055 4.00092 1.5202 0
M  V30 3422 C 344.381 4.54972 2.80899 0
M  V30 3423 C 345.681 5.17398 0.71391 0
M  V30 3424 H 347.375 2.99109 0.132038 0
M  V30 3425 H 344.921 1.43866 0.0620664 0
M  V30 3426 H 346.874 3.36204 2.54057 0
M  V30 3427 H 345.598 2.12066 2.48386 0
M  V30 3428 H 344.257 3.55283 0.903839 0
M  V30 3429 H 343.905 3.73102 3.37348 0
M  V30 3430 H 343.605 5.28817 2.56176 0
M  V30 3431 H 345.129 5.0322 3.45836 0
M  V30 3432 H 346.543 5.59342 1.25735 0
M  V30 3433 H 344.94 5.97444 0.563951 0
M  V30 3434 H 346.01 4.84088 -0.280527 0
M  V30 3435 N 347.353 -0.0568162 1.57498 0
M  V30 3436 C 348.63 -0.786954 1.79071 0
M  V30 3437 C 349.01 -1.95028 0.80792 0
M  V30 3438 O 348.358 -2.27968 -0.155858 0
M  V30 3439 C 348.568 -1.24594 3.26002 0
M  V30 3440 C 349.916 -1.67323 3.90241 0
M  V30 3441 O 350.94 -1.34124 3.29984 0
M  V30 3442 O 349.799 -2.28842 4.9628 0
M  V30 3443 H 346.893 -0.378262 0.735423 0
M  V30 3444 H 349.439 -0.035734 1.69662 0
M  V30 3445 H 348.211 -0.41423 3.89101 0
M  V30 3446 H 347.834 -2.05803 3.40192 0
M  V30 3447 N 348.832 -1.54138 -0.328536 0
M  V30 3448 C 350.243 -1.63395 -0.903272 0
M  V30 3449 C 350.594 -0.524828 -1.8905 0
M  V30 3450 O 349.719 0.343068 -2.13663 0
M  V30 3451 C 350.314 -2.9618 -1.64507 0
M  V30 3452 C 348.873 -3.0765 -2.1686 0
M  V30 3453 C 348.02 -2.58933 -0.992416 0
M  V30 3454 H 350.971 -1.58344 -0.106253 0
M  V30 3455 H 350.992 -2.86061 -2.50897 0
M  V30 3456 H 350.504 -3.76884 -0.926302 0
M  V30 3457 H 348.605 -2.31611 -2.91868 0
M  V30 3458 H 348.718 -4.1337 -2.42202 0
M  V30 3459 H 347.082 -2.14706 -1.37016 0
M  V30 3460 H 347.865 -3.42089 -0.288041 0
M  V30 3461 N 350.31 0.590341 -1.46126 0
M  V30 3462 C 351.257 1.69994 -1.56111 0
M  V30 3463 C 352.227 1.61065 -0.405867 0
M  V30 3464 O 353.412 1.8039 -0.621613 0
M  V30 3465 C 350.552 3.08326 -1.55013 0
M  V30 3466 C 349.665 3.27936 -2.81215 0
M  V30 3467 C 348.8 4.56473 -2.71673 0
M  V30 3468 C 347.839 4.694 -3.92849 0
M  V30 3469 N 346.976 5.89254 -3.81738 0
M  V30 3470 H 351.816 1.60797 -2.50895 0
M  V30 3471 H 349.353 0.783799 -1.24479 0
M  V30 3472 H 351.311 3.88383 -1.52362 0
M  V30 3473 H 349.941 3.16439 -0.637667 0
M  V30 3474 H 348.993 2.41536 -2.93879 0
M  V30 3475 H 350.305 3.33357 -3.71045 0
M  V30 3476 H 349.459 5.44748 -2.67085 0
M  V30 3477 H 348.198 4.53477 -1.7947 0
M  V30 3478 H 347.203 3.79544 -3.97777 0
M  V30 3479 H 348.428 4.7418 -4.86138 0
M  V30 3480 H 346.374 5.87271 -2.92317 0
M  V30 3481 H 346.291 5.95911 -4.65217 0
M  V30 3482 H 347.559 6.79981 -3.81112 0
M  V30 3483 N 351.788 1.33704 0.83433 0
M  V30 3484 C 352.718 1.26967 1.95963 0
M  V30 3485 C 353.699 0.149337 1.69443 0
M  V30 3486 O 354.884 0.339852 1.91203 0
M  V30 3487 C 352.014 1.01275 3.32206 0
M  V30 3488 C 350.968 2.09652 3.73136 0
M  V30 3489 C 350.294 1.69166 5.07235 0
M  V30 3490 C 351.594 3.51372 3.86439 0
M  V30 3491 H 353.288 2.2112 2.01857 0
M  V30 3492 H 350.834 1.06447 0.969793 0
M  V30 3493 H 352.787 0.952106 4.10503 0
M  V30 3494 H 351.511 0.0356203 3.26581 0
M  V30 3495 H 350.17 2.14766 2.97104 0
M  V30 3496 H 349.818 0.701437 4.98085 0
M  V30 3497 H 349.518 2.41694 5.35591 0
M  V30 3498 H 351.042 1.64576 5.88003 0
M  V30 3499 H 352.456 3.48734 4.55036 0
M  V30 3500 H 350.853 4.22425 4.26236 0
M  V30 3501 H 351.923 3.89546 2.88759 0
M  V30 3502 N 353.266 -1.05314 1.17247 0
M  V30 3503 C 354.196 -2.1498 0.911362 0
M  V30 3504 C 355.177 -1.69471 -0.146169 0
M  V30 3505 O 356.362 -1.942 0.003812 0
M  V30 3506 C 353.492 -3.4472 0.422528 0
M  V30 3507 C 352.446 -4.03789 1.4191 0
M  V30 3508 C 351.772 -5.28858 0.788274 0
M  V30 3509 C 353.072 -4.41418 2.7919 0
M  V30 3510 H 354.766 -2.3708 1.82848 0
M  V30 3511 H 352.312 -1.13938 0.880569 0
M  V30 3512 H 354.265 -4.20787 0.227289 0
M  V30 3513 H 352.989 -3.22269 -0.530123 0
M  V30 3514 H 351.648 -3.2979 1.60106 0
M  V30 3515 H 351.296 -5.02709 -0.171173 0
M  V30 3516 H 350.996 -5.69338 1.45353 0
M  V30 3517 H 352.52 -6.07612 0.603282 0
M  V30 3518 H 353.934 -5.08524 2.64719 0
M  V30 3519 H 352.331 -4.92913 3.42282 0
M  V30 3520 H 353.401 -3.51819 3.33693 0
M  V30 3521 N 354.744 -0.972509 -1.24016 0
M  V30 3522 C 355.707 -0.511403 -2.23422 0
M  V30 3523 C 356.707 0.394679 -1.55881 0
M  V30 3524 O 357.897 0.189469 -1.73167 0
M  V30 3525 C 355.029 0.258769 -3.39916 0
M  V30 3526 H 356.222 -1.39024 -2.6573 0
M  V30 3527 H 353.775 -0.757585 -1.36713 0
M  V30 3528 H 354.51 1.1545 -3.03054 0
M  V30 3529 H 354.295 -0.391522 -3.9014 0
M  V30 3530 H 355.785 0.570244 -4.13688 0
M  V30 3531 N 356.222 1.38976 -0.743202 0
M  V30 3532 C 357.169 2.30544 -0.10861 0
M  V30 3533 C 358.139 1.49642 0.720869 0
M  V30 3534 O 359.324 1.78304 0.679142 0
M  V30 3535 C 356.464 3.36018 0.786496 0
M  V30 3536 C 355.577 4.31963 -0.0564849 0
M  V30 3537 C 354.712 5.24506 0.840657 0
M  V30 3538 C 353.751 6.121 -0.00658363 0
M  V30 3539 N 352.888 6.96973 0.846943 0
M  V30 3540 H 357.728 2.8424 -0.895088 0
M  V30 3541 H 355.265 1.3995 -0.453048 0
M  V30 3542 H 357.223 3.95768 1.31999 0
M  V30 3543 H 355.853 2.83758 1.53887 0
M  V30 3544 H 354.905 3.73763 -0.707492 0
M  V30 3545 H 356.217 4.93703 -0.711229 0
M  V30 3546 H 355.371 5.89322 1.4417 0
M  V30 3547 H 354.11 4.63107 1.52916 0
M  V30 3548 H 353.115 5.46289 -0.620366 0
M  V30 3549 H 354.34 6.75565 -0.691992 0
M  V30 3550 H 352.286 6.38133 1.52059 0
M  V30 3551 H 352.203 7.5559 0.248864 0
M  V30 3552 H 353.471 7.6621 1.43328 0
M  V30 3553 N 357.7 0.491464 1.49741 0
M  V30 3554 C 358.949 -0.0582189 2.01616 0
M  V30 3555 C 359.262 -1.38927 1.3769 0
M  V30 3556 O 360.468 -2.02509 1.80838 0
M  V30 3557 C 358.924 -0.154235 3.59569 0
M  V30 3558 C 358.532 1.1696 4.32463 0
M  V30 3559 C 360.276 -0.65479 4.1942 0
M  V30 3560 C 358.183 1.03627 5.8225 0
M  V30 3561 H 357.113 -0.0255317 0.753568 0
M  V30 3562 H 359.764 0.629445 1.72367 0
M  V30 3563 H 358.146 -0.906138 3.85493 0
M  V30 3564 H 359.32 1.93405 4.18248 0
M  V30 3565 H 357.635 1.60285 3.84315 0
M  V30 3566 H 360.232 -0.771903 5.29099 0
M  V30 3567 H 360.575 -1.65127 3.8215 0
M  V30 3568 H 361.108 0.040304 3.9778 0
M  V30 3569 H 357.847 2.00672 6.24028 0
M  V30 3570 H 357.367 0.312546 5.98985 0
M  V30 3571 H 359.046 0.711114 6.4308 0
M  V30 3572 N 359.178 -1.55987 0.224894 0
M  V30 3573 C 360.108 -2.23426 -0.678457 0
M  V30 3574 C 361.089 -1.20709 -1.19847 0
M  V30 3575 O 362.274 -1.49304 -1.24186 0
M  V30 3576 C 359.404 -2.91676 -1.88527 0
M  V30 3577 C 358.358 -4.00893 -1.49896 0
M  V30 3578 C 357.684 -4.56455 -2.78483 0
M  V30 3579 C 358.984 -5.17769 -0.686461 0
M  V30 3580 H 360.678 -2.99175 -0.116173 0
M  V30 3581 H 358.224 -1.43897 -0.054436 0
M  V30 3582 H 360.177 -3.37547 -2.5227 0
M  V30 3583 H 358.901 -2.1338 -2.47258 0
M  V30 3584 H 357.56 -3.55758 -0.884985 0
M  V30 3585 H 357.208 -3.74886 -3.35365 0
M  V30 3586 H 356.908 -5.30169 -2.53368 0
M  V30 3587 H 358.432 -5.05047 -3.43162 0
M  V30 3588 H 359.846 -5.60001 -1.22767 0
M  V30 3589 H 358.243 -5.97735 -0.532259 0
M  V30 3590 H 359.313 -4.83932 0.306196 0
M  V30 3591 N 360.656 0.0484629 -1.57525 0
M  V30 3592 C 361.604 1.07359 -2.06341 0
M  V30 3593 C 362.598 1.3865 -0.973269 0
M  V30 3594 O 363.804 1.37783 -1.15827 0
M  V30 3595 H 360.179 0.363662 -0.65822 0
M  V30 3596 H 362.15 0.635916 -2.91545 0
M  V30 3597 C 360.899 2.37198 -2.54229 0
M  V30 3598 H 360.222 2.13977 -3.37719 0
M  V30 3599 H 361.662 3.07319 -2.92115 0
M  V30 3600 C 360.121 3.04805 -1.43511 0
M  V30 3601 O 360.651 3.93848 -0.79034 0
M  V30 3602 N 358.857 2.65811 -1.17444 0
M  V30 3603 H 358.404 1.93488 -1.70059 0
M  V30 3604 H 358.362 3.11366 -0.435737 0
M  V30 3605 N 362.134 1.5431 0.320358 0
M  V30 3606 C 363.067 1.78769 1.41834 0
M  V30 3607 C 364.045 0.63783 1.49568 0
M  V30 3608 O 365.229 0.875628 1.66928 0
M  V30 3609 C 362.356 1.90712 2.79905 0
M  V30 3610 C 361.402 3.13023 2.89687 0
M  V30 3611 S 362.235 4.71554 2.53766 0
M  V30 3612 C 363.391 4.86408 3.93902 0
M  V30 3613 H 363.624 2.71619 1.20874 0
M  V30 3614 H 361.157 1.45474 0.517377 0
M  V30 3615 H 363.115 1.98279 3.59438 0
M  V30 3616 H 361.776 0.988343 2.98145 0
M  V30 3617 H 360.969 3.18124 3.90913 0
M  V30 3618 H 360.571 3.03803 2.18128 0
M  V30 3619 H 362.863 4.69241 4.88691 0
M  V30 3620 H 363.806 5.88508 3.93782 0
M  V30 3621 H 364.214 4.14689 3.83005 0
M  V30 3622 N 363.613 -0.582584 1.46437 0
M  V30 3623 C 364.838 -1.37168 1.55563 0
M  V30 3624 C 365.263 -1.87061 0.19743 0
M  V30 3625 O 364.621 -1.61572 -0.822451 0
M  V30 3626 C 364.669 -2.53511 2.56446 0
M  V30 3627 O 363.773 -3.54953 2.09958 0
M  V30 3628 H 363.114 -0.408494 0.523477 0
M  V30 3629 H 365.644 -0.706646 1.9201 0
M  V30 3630 H 365.654 -3.00426 2.76058 0
M  V30 3631 H 364.329 -2.16549 3.55076 0
M  V30 3632 H 362.906 -3.14516 2.00334 0
M  V30 3633 N 365.091 -1.34144 -0.827227 0
M  V30 3634 C 366.316 -1.29476 -1.62021 0
M  V30 3635 C 366.741 0.129292 -1.87655 0
M  V30 3636 O 366.099 1.08967 -1.449 0
M  V30 3637 C 366.147 -2.08702 -2.94068 0
M  V30 3638 O 365.251 -1.45359 -3.85933 0
M  V30 3639 H 364.592 -0.444881 -0.492927 0
M  V30 3640 H 367.122 -1.76882 -1.02829 0
M  V30 3641 H 367.132 -2.19898 -3.43669 0
M  V30 3642 H 365.807 -3.12241 -2.74734 0
M  V30 3643 H 364.384 -1.42879 -3.44442 0
M  V30 3644 N 366.569 1.04691 -1.17803 0
M  V30 3645 C 367.817 1.7743 -0.967617 0
M  V30 3646 C 368.138 1.88359 0.504574 0
M  V30 3647 O 367.408 1.40402 1.36617 0
M  V30 3648 H 365.988 0.657242 -0.355024 0
M  V30 3649 H 368.65 1.2638 -1.48371 0
M  V30 3650 H 367.746 2.78924 -1.40027 0
M  V30 3651 N 368.047 0.979072 1.23499 0
M  V30 3652 C 369.463 0.687475 1.44034 0
M  V30 3653 C 369.663 -0.746801 1.8715 0
M  V30 3654 O 368.719 -1.51939 2.0167 0
M  V30 3655 C 370.032 1.68127 2.49307 0
M  V30 3656 C 371.58 1.69516 2.63122 0
M  V30 3657 C 372.055 2.67723 3.71603 0
M  V30 3658 N 373.546 2.66233 3.79044 0
M  V30 3659 C 374.281 3.38891 4.62537 0
M  V30 3660 N 373.777 4.21103 5.50131 0
M  V30 3661 N 375.57 3.27661 4.56721 0
M  V30 3662 H 367.721 1.90559 0.938135 0
M  V30 3663 H 369.984 0.821051 0.473897 0
M  V30 3664 H 369.69 2.70693 2.2454 0
M  V30 3665 H 369.564 1.46306 3.4767 0
M  V30 3666 H 371.951 0.676561 2.8724 0
M  V30 3667 H 372.032 1.95404 1.65079 0
M  V30 3668 H 371.676 3.69724 3.48233 0
M  V30 3669 H 371.606 2.39111 4.69184 0
M  V30 3670 H 374.097 2.06568 3.16446 0
M  V30 3671 H 374.41 4.73403 6.10827 0
M  V30 3672 H 372.755 4.25195 5.49759 0
M  V30 3673 H 375.946 2.62887 3.87309 0
M  V30 3674 H 376.119 3.84547 5.21562 0
M  V30 3675 N 369.525 -1.3858 0.750561 0
M  V30 3676 C 370.765 -2.02032 0.310258 0
M  V30 3677 C 371.129 -1.58288 -1.08668 0
M  V30 3678 O 372.33 -2.14049 -1.62593 0
M  V30 3679 C 370.601 -3.54856 0.425647 0
M  V30 3680 S 372.16 -4.38748 0.0674797 0
M  V30 3681 H 368.978 -0.700705 0.120554 0
M  V30 3682 H 371.58 -1.69134 0.980512 0
M  V30 3683 H 370.284 -3.84182 1.44335 0
M  V30 3684 H 369.815 -3.92527 -0.261894 0
M  V30 3685 H 371.83 -4.82835 -1.14388 0
M  V30 3686 N 371.003 -0.499398 -1.49478 0
M  V30 3687 C 372.249 0.0377587 -2.03365 0
M  V30 3688 C 372.604 1.3484 -1.37244 0
M  V30 3689 O 371.897 1.85 -0.498547 0
M  V30 3690 C 372.091 0.248424 -3.56536 0
M  V30 3691 C 371.92 -1.04025 -4.37503 0
M  V30 3692 C 370.69 -1.59159 -4.79579 0
M  V30 3693 C 372.888 -1.9431 -4.76181 0
M  V30 3694 N 370.87 -2.82634 -5.44969 0
M  V30 3695 C 372.241 -3.02364 -5.41272 0
M  V30 3696 C 374.296 -1.95008 -4.58123 0
M  V30 3697 C 372.999 -4.1114 -5.90217 0
M  V30 3698 C 375.025 -3.02758 -5.08027 0
M  V30 3699 C 374.387 -4.09531 -5.73118 0
M  V30 3700 H 370.486 -0.026923 -0.781536 0
M  V30 3701 H 373.07 -0.673901 -1.82665 0
M  V30 3702 H 371.241 0.929139 -3.77123 0
M  V30 3703 H 372.973 0.782445 -3.97064 0
M  V30 3704 H 369.728 -1.13696 -4.5975 0
M  V30 3705 H 370.152 -3.45416 -5.82252 0
M  V30 3706 H 374.794 -1.13766 -4.07207 0
M  V30 3707 H 372.512 -4.93181 -6.40155 0
M  V30 3708 H 376.098 -3.04315 -4.95866 0
M  V30 3709 H 374.978 -4.91534 -6.11035 0
M  V30 3710 N 372.481 1.55866 -0.233164 0
M  V30 3711 C 373.706 2.03449 0.402906 0
M  V30 3712 C 374.131 1.11166 1.51736 0
M  V30 3713 O 373.489 0.101996 1.81013 0
M  V30 3714 C 373.537 3.49165 0.9009 0
M  V30 3715 O 372.641 3.60019 2.01147 0
M  V30 3716 H 371.982 0.657913 0.0897025 0
M  V30 3717 H 374.512 2.01493 -0.355201 0
M  V30 3718 H 374.522 3.89716 1.2077 0
M  V30 3719 H 373.197 4.15813 0.0852889 0
M  V30 3720 H 371.774 3.3136 1.71042 0
M  V30 3721 N 373.959 -0.0401083 1.57549 0
M  V30 3722 C 375.184 -0.748931 1.93406 0
M  V30 3723 C 375.609 -1.68686 0.832274 0
M  V30 3724 O 374.967 -1.80047 -0.212818 0
M  V30 3725 C 375.015 -1.4916 3.28304 0
M  V30 3726 O 374.119 -2.6042 3.19774 0
M  V30 3727 H 373.46 -0.202212 0.63246 0
M  V30 3728 H 375.99 0.00112086 2.046 0
M  V30 3729 H 376 -1.86395 3.62934 0
M  V30 3730 H 374.675 -0.80364 4.08062 0
M  V30 3731 H 373.252 -2.25808 2.96758 0
M  V30 3732 N 375.437 -1.54477 -0.31217 0
M  V30 3733 C 376.714 -1.63891 -1.06767 0
M  V30 3734 C 377.094 -0.480028 -2.0557 0
M  V30 3735 O 376.442 0.524487 -2.22399 0
M  V30 3736 C 376.652 -3.01402 -1.75948 0
M  V30 3737 C 378 -3.57838 -2.28554 0
M  V30 3738 O 379.024 -3.03782 -1.85998 0
M  V30 3739 O 377.883 -4.52462 -3.06497 0
M  V30 3740 H 374.977 -0.664125 -0.492816 0
M  V30 3741 H 377.523 -1.66823 -0.311149 0
M  V30 3742 H 376.295 -3.77187 -1.04144 0
M  V30 3743 H 375.918 -3.02199 -2.58383 0
M  V30 3744 N 376.915 0.57481 -1.46744 0
M  V30 3745 C 378.143 1.35856 -1.56047 0
M  V30 3746 C 378.558 1.87691 -0.204365 0
M  V30 3747 O 377.915 1.64049 0.79963 0
M  V30 3748 C 377.966 2.54066 -2.57163 0
M  V30 3749 O 377.687 2.04377 -3.87507 0
M  V30 3750 C 379.188 3.46514 -2.76483 0
M  V30 3751 H 376.408 0.414754 -0.527466 0
M  V30 3752 H 378.952 0.698035 -1.92218 0
M  V30 3753 H 377.107 3.16092 -2.23974 0
M  V30 3754 H 377.521 2.81419 -4.4261 0
M  V30 3755 H 378.995 4.25919 -3.51137 0
M  V30 3756 H 379.472 3.98951 -1.83671 0
M  V30 3757 H 380.078 2.90318 -3.10799 0
M  V30 3758 N 378.394 1.34581 0.820102 0
M  V30 3759 C 379.624 1.29991 1.6058 0
M  V30 3760 C 380.032 -0.127588 1.88769 0
M  V30 3761 O 379.375 -1.08595 1.48165 0
M  V30 3762 C 379.437 2.02548 2.9701 0
M  V30 3763 C 379.101 3.51794 2.91701 0
M  V30 3764 C 380.098 4.46647 2.66087 0
M  V30 3765 C 377.783 3.94249 3.11245 0
M  V30 3766 C 379.777 5.81929 2.60071 0
M  V30 3767 C 377.464 5.2963 3.04853 0
M  V30 3768 C 378.462 6.23282 2.793 0
M  V30 3769 O 378.15 7.56181 2.72847 0
M  V30 3770 H 377.882 0.448539 0.505756 0
M  V30 3771 H 380.436 1.77811 1.02822 0
M  V30 3772 H 378.666 1.49345 3.56697 0
M  V30 3773 H 380.355 1.91211 3.58041 0
M  V30 3774 H 381.121 4.15168 2.5072 0
M  V30 3775 H 377 3.21749 3.30149 0
M  V30 3776 H 380.544 6.54999 2.40046 0
M  V30 3777 H 376.441 5.60727 3.19774 0
M  V30 3778 H 377.209 7.6595 2.88553 0
M  V30 3779 N 379.872 -1.04064 1.18357 0
M  V30 3780 C 380.82 -2.14187 0.907007 0
M  V30 3781 C 381.814 -1.68879 -0.132725 0
M  V30 3782 O 383.02 -1.79993 0.0154248 0
M  V30 3783 H 379.395 -0.699585 0.275835 0
M  V30 3784 H 381.366 -2.34711 1.84264 0
M  V30 3785 C 380.115 -3.44785 0.449254 0
M  V30 3786 H 379.438 -3.80058 1.24081 0
M  V30 3787 H 380.878 -4.22974 0.294737 0
M  V30 3788 C 379.337 -3.26391 -0.834909 0
M  V30 3789 O 379.867 -3.53973 -1.89911 0
M  V30 3790 N 378.073 -2.79726 -0.787523 0
M  V30 3791 H 377.62 -2.5748 0.0787347 0
M  V30 3792 H 377.578 -2.67798 -1.64716 0
M  V30 3793 N 381.35 -0.985608 -1.22978 0
M  V30 3794 C 382.761 -0.693593 -1.73338 0
M  V30 3795 C 383.112 0.789935 -1.79595 0
M  V30 3796 O 382.237 1.61771 -1.43733 0
M  V30 3797 C 382.832 -1.25235 -3.14804 0
M  V30 3798 C 381.391 -1.00987 -3.626 0
M  V30 3799 C 380.538 -1.37695 -2.40698 0
M  V30 3800 H 383.489 -1.15884 -1.08428 0
M  V30 3801 H 383.51 -0.627329 -3.75293 0
M  V30 3802 H 383.022 -2.33209 -3.10218 0
M  V30 3803 H 381.123 0.0535565 -3.72562 0
M  V30 3804 H 381.236 -1.66812 -4.49122 0
M  V30 3805 H 379.6 -0.795459 -2.4196 0
M  V30 3806 H 380.383 -2.46657 -2.38779 0
M  V30 3807 N 382.828 1.3818 -0.7579 0
M  V30 3808 C 384.074 2.00316 -0.316453 0
M  V30 3809 C 384.407 1.60026 1.10025 0
M  V30 3810 O 383.682 0.839835 1.75434 0
M  V30 3811 C 383.965 3.57349 -0.444245 0
M  V30 3812 C 383.818 4.07591 -1.90236 0
M  V30 3813 C 385.137 4.3981 0.1598 0
M  V30 3814 H 382.256 0.727741 -0.116459 0
M  V30 3815 H 384.898 1.6406 -0.958352 0
M  V30 3816 H 383.048 3.88365 0.102233 0
M  V30 3817 H 384.72 3.87199 -2.50748 0
M  V30 3818 H 382.963 3.60297 -2.41595 0
M  V30 3819 H 383.634 5.16677 -1.94291 0
M  V30 3820 H 386.11 4.14971 -0.306314 0
M  V30 3821 H 384.986 5.48885 0.0401675 0
M  V30 3822 H 385.247 4.24102 1.24859 0
M  V30 3823 N 384.306 0.507319 1.49211 0
M  V30 3824 C 385.717 0.0611118 1.866 0
M  V30 3825 C 386.068 -1.35488 1.41907 0
M  V30 3826 O 385.193 -2.0108 0.799726 0
M  V30 3827 C 385.788 0.104125 3.3864 0
M  V30 3828 C 384.347 -0.28677 3.75306 0
M  V30 3829 C 383.494 0.473893 2.73221 0
M  V30 3830 H 386.445 0.719775 1.41439 0
M  V30 3831 H 386.466 -0.689672 3.74198 0
M  V30 3832 H 385.978 1.13482 3.71138 0
M  V30 3833 H 384.079 -1.32046 3.48417 0
M  V30 3834 H 384.192 0.0370745 4.79086 0
M  V30 3835 H 382.556 -0.0770644 2.54583 0
M  V30 3836 H 383.339 1.50478 3.08563 0
M  V30 3837 N 385.784 -1.5574 0.241426 0
M  V30 3838 C 387.032 -1.98417 -0.384075 0
M  V30 3839 C 387.353 -1.13078 -1.58866 0
M  V30 3840 O 386.623 -0.212312 -1.94746 0
M  V30 3841 H 385.203 -0.732813 -0.144894 0
M  V30 3842 H 387.865 -1.9193 0.338943 0
M  V30 3843 H 386.961 -3.04219 -0.696939 0
M  V30 3844 N 387.262 0.0317525 -1.57568 0
M  V30 3845 C 388.508 0.724175 -1.8943 0
M  V30 3846 C 388.841 1.75149 -0.838836 0
M  V30 3847 O 388.116 1.93948 0.146422 0
M  V30 3848 C 388.399 1.39615 -3.31933 0
M  V30 3849 C 388.252 0.382537 -4.4817 0
M  V30 3850 C 389.571 2.33084 -3.73309 0
M  V30 3851 H 386.69 0.261797 -0.688935 0
M  V30 3852 H 389.332 -0.013017 -1.89996 0
M  V30 3853 H 387.482 2.02451 -3.31581 0
M  V30 3854 H 389.154 -0.243689 -4.60656 0
M  V30 3855 H 387.397 -0.29844 -4.32772 0
M  V30 3856 H 388.068 0.891145 -5.44759 0
M  V30 3857 H 390.544 1.80295 -3.7501 0
M  V30 3858 H 389.42 2.77084 -4.73831 0
M  V30 3859 H 389.681 3.19643 -3.05419 0
M  V30 3860 N 388.74 1.54641 0.303973 0
M  V30 3861 C 389.673 1.80263 1.3993 0
M  V30 3862 C 390.651 0.653657 1.48883 0
M  V30 3863 O 391.835 0.893284 1.6599 0
M  V30 3864 C 388.962 1.9367 2.77866 0
M  V30 3865 C 388.008 3.16078 2.86351 0
M  V30 3866 S 388.841 4.74219 2.4875 0
M  V30 3867 C 389.997 4.90558 3.88721 0
M  V30 3868 H 390.23 2.72886 1.17986 0
M  V30 3869 H 387.763 1.46014 0.501918 0
M  V30 3870 H 389.721 2.0208 3.57315 0
M  V30 3871 H 388.382 1.01991 2.9708 0
M  V30 3872 H 387.575 3.22252 3.87517 0
M  V30 3873 H 387.177 3.06099 2.14893 0
M  V30 3874 H 389.469 4.74398 4.83687 0
M  V30 3875 H 390.412 5.92651 3.87518 0
M  V30 3876 H 390.82 4.18728 3.78585 0
M  V30 3877 N 390.218 -0.567019 1.47046 0
M  V30 3878 C 391.495 -1.3276 1.43646 0
M  V30 3879 C 391.875 -2.1071 0.128186 0
M  V30 3880 O 391.223 -2.10441 -0.890326 0
M  V30 3881 C 391.433 -2.2404 2.67595 0
M  V30 3882 C 392.781 -2.85372 3.14401 0
M  V30 3883 O 393.805 -2.34346 2.68254 0
M  V30 3884 O 392.664 -3.78091 3.946 0
M  V30 3885 H 389.758 -0.597293 0.571988 0
M  V30 3886 H 392.304 -0.586735 1.59234 0
M  V30 3887 H 391.076 -1.65975 3.54356 0
M  V30 3888 H 390.699 -3.05439 2.54544 0
M  V30 3889 N 391.696 -1.35014 -0.812953 0
M  V30 3890 C 392.944 -1.27678 -1.56661 0
M  V30 3891 C 393.265 0.150359 -1.94419 0
M  V30 3892 O 392.535 1.08532 -1.63088 0
M  V30 3893 H 391.115 -0.469602 -0.580933 0
M  V30 3894 H 393.777 -1.69043 -0.970076 0
M  V30 3895 H 392.873 -1.88833 -2.48492 0
M  V30 3896 N 393.175 1.03435 -1.18907 0
M  V30 3897 C 394.421 1.77005 -0.989798 0
M  V30 3898 C 394.754 1.88205 0.478816 0
M  V30 3899 O 394.029 1.39481 1.35556 0
M  V30 3900 C 394.312 3.19925 -1.65287 0
M  V30 3901 C 394.165 3.1663 -3.19477 0
M  V30 3902 C 395.484 4.18189 -1.37134 0
M  V30 3903 H 392.603 0.642538 -0.360991 0
M  V30 3904 H 395.245 1.20784 -1.46667 0
M  V30 3905 H 393.395 3.67929 -1.24741 0
M  V30 3906 H 395.067 2.76567 -3.692 0
M  V30 3907 H 393.31 2.54491 -3.51307 0
M  V30 3908 H 393.981 4.1758 -3.61013 0
M  V30 3909 H 396.457 3.78761 -1.72276 0
M  V30 3910 H 395.333 5.16394 -1.86087 0
M  V30 3911 H 395.594 4.41112 -0.295424 0
M  V30 3912 N 394.653 0.992116 1.22453 0
M  V30 3913 C 396.064 0.702776 1.72968 0
M  V30 3914 C 396.415 -0.780399 1.80012 0
M  V30 3915 O 395.54 -1.61007 1.44589 0
M  V30 3916 C 396.135 1.26903 3.14135 0
M  V30 3917 C 394.694 1.02909 3.62059 0
M  V30 3918 C 393.841 1.38969 2.39964 0
M  V30 3919 H 396.792 1.16457 1.07812 0
M  V30 3920 H 396.813 0.647223 3.74955 0
M  V30 3921 H 396.325 2.34851 3.08977 0
M  V30 3922 H 394.426 -0.0337979 3.72585 0
M  V30 3923 H 394.539 1.69191 4.48231 0
M  V30 3924 H 392.903 0.808279 2.41535 0
M  V30 3925 H 393.686 2.4792 2.37467 0
M  V30 3926 N 396.131 -1.37776 0.765217 0
M  V30 3927 C 397.356 -2.04651 0.336537 0
M  V30 3928 C 397.781 -1.57337 -1.03086 0
M  V30 3929 O 397.139 -0.730621 -1.65927 0
M  V30 3930 C 397.187 -3.58577 0.381468 0
M  V30 3931 O 396.291 -4.07706 -0.62042 0
M  V30 3932 H 395.632 -0.64756 0.146838 0
M  V30 3933 H 398.162 -1.76221 1.03959 0
M  V30 3934 H 398.172 -4.07314 0.236448 0
M  V30 3935 H 396.847 -3.9237 1.37907 0
M  V30 3936 H 395.424 -3.70306 -0.439056 0
M  V30 3937 N 397.609 -0.515225 -1.4894 0
M  V30 3938 C 398.572 0.244681 -2.2789 0
M  V30 3939 C 399.572 0.881166 -1.34507 0
M  V30 3940 O 400.762 0.743497 -1.57537 0
M  V30 3941 C 397.894 1.35247 -3.12923 0
M  V30 3942 H 399.087 -0.448289 -2.96531 0
M  V30 3943 H 396.64 -0.270656 -1.53939 0
M  V30 3944 H 397.375 2.07916 -2.48881 0
M  V30 3945 H 397.16 0.901374 -3.81599 0
M  V30 3946 H 398.65 1.88737 -3.72516 0
M  V30 3947 N 399.087 1.5561 -0.249682 0
M  V30 3948 C 400.035 2.22894 0.664906 0
M  V30 3949 C 401.029 1.21743 1.17792 0
M  V30 3950 O 402.235 1.39748 1.13449 0
M  V30 3951 H 398.61 0.715022 0.232912 0
M  V30 3952 H 400.581 2.98307 0.0742998 0
M  V30 3953 C 399.33 2.94424 1.84959 0
M  V30 3954 H 398.653 3.72031 1.46399 0
M  V30 3955 H 400.093 3.44862 2.4667 0
M  V30 3956 C 398.552 1.98454 2.72245 0
M  V30 3957 O 399.082 1.51939 3.71857 0
M  V30 3958 N 397.288 1.65496 2.38871 0
M  V30 3959 H 396.835 2.03517 1.57919 0
M  V30 3960 H 396.793 1.0155 2.97548 0
M  V30 3961 N 400.565 -0.0233959 1.57583 0
M  V30 3962 C 401.513 -1.04063 2.08023 0
M  V30 3963 C 402.507 -1.37084 0.995204 0
M  V30 3964 O 403.713 -1.35923 1.18004 0
M  V30 3965 H 400.088 -0.353144 0.663922 0
M  V30 3966 H 402.059 -0.589453 2.9252 0
M  V30 3967 C 400.808 -2.33123 2.57971 0
M  V30 3968 H 400.131 -2.08577 3.4108 0
M  V30 3969 H 401.571 -3.02632 2.96967 0
M  V30 3970 C 400.03 -3.02483 1.48342 0
M  V30 3971 O 400.56 -3.92541 0.852898 0
M  V30 3972 N 398.766 -2.63909 1.21658 0
M  V30 3973 H 398.313 -1.90758 1.73116 0
M  V30 3974 H 398.271 -3.10633 0.485218 0
M  V30 3975 N 402.043 -1.548 -0.295768 0
M  V30 3976 C 403.273 -1.78069 -1.04762 0
M  V30 3977 C 403.681 -0.542847 -1.81245 0
M  V30 3978 O 403.024 0.497051 -1.76848 0
M  V30 3979 C 403.086 -2.93881 -2.07061 0
M  V30 3980 C 402.75 -4.31777 -1.49725 0
M  V30 3981 C 403.747 -5.11613 -0.924581 0
M  V30 3982 C 401.432 -4.78389 -1.5313 0
M  V30 3983 C 403.426 -6.36184 -0.393594 0
M  V30 3984 C 401.113 -6.02921 -0.996447 0
M  V30 3985 C 402.111 -6.81654 -0.428569 0
M  V30 3986 O 401.799 -8.0384 0.0981593 0
M  V30 3987 H 401.531 -0.597475 -0.316226 0
M  V30 3988 H 404.085 -2.02584 -0.338973 0
M  V30 3989 H 402.315 -2.65003 -2.81621 0
M  V30 3990 H 404.004 -3.04679 -2.6819 0
M  V30 3991 H 404.77 -4.76743 -0.891136 0
M  V30 3992 H 400.649 -4.17132 -1.9627 0
M  V30 3993 H 404.193 -6.97582 0.0503014 0
M  V30 3994 H 400.09 -6.37277 -1.02706 0
M  V30 3995 H 400.858 -8.18499 -0.0146455 0
M  V30 3996 N 403.521 0.559213 -1.47345 0
M  V30 3997 C 404.453 1.68161 -1.55738 0
M  V30 3998 C 405.466 1.56636 -0.443744 0
M  V30 3999 O 406.655 1.6363 -0.713258 0
M  V30 4000 C 403.755 3.06611 -1.4437 0
M  V30 4001 C 402.928 3.4391 -2.70268 0
M  V30 4002 C 401.987 4.61515 -2.52765 0
M  V30 4003 O 401.013 4.66197 -3.26572 0
M  V30 4004 N 402.215 5.57883 -1.6046 0
M  V30 4005 H 404.98 1.61408 -2.52522 0
M  V30 4006 H 402.541 0.7458 -1.43699 0
M  V30 4007 H 404.533 3.83117 -1.30398 0
M  V30 4008 H 403.103 3.07602 -0.556766 0
M  V30 4009 H 402.323 2.56873 -2.99015 0
M  V30 4010 H 403.611 3.65605 -3.53851 0
M  V30 4011 H 403.009 5.56855 -0.996422 0
M  V30 4012 H 401.566 6.33723 -1.52441 0
M  V30 4013 N 404.999 1.35443 0.805782 0
M  V30 4014 C 406.247 1.28507 1.55982 0
M  V30 4015 C 406.568 -0.140046 1.94496 0
M  V30 4016 O 405.838 -1.07666 1.63661 0
M  V30 4017 H 404.418 0.472676 0.578434 0
M  V30 4018 H 407.08 1.69555 0.961098 0
M  V30 4019 H 406.176 1.90148 2.47488 0
M  V30 4020 N 406.477 -1.02803 1.19454 0
M  V30 4021 C 407.725 -1.75869 0.995722 0
M  V30 4022 C 408.046 -1.89138 -0.474543 0
M  V30 4023 O 407.316 -1.42558 -1.34366 0
M  V30 4024 H 405.896 -0.651511 0.365435 0
M  V30 4025 H 408.558 -1.24004 1.50363 0
M  V30 4026 H 407.654 -2.76661 1.44447 0
M  V30 4027 N 407.956 -0.998596 -1.21925 0
M  V30 4028 C 409.203 -0.677663 -1.90824 0
M  V30 4029 C 409.531 0.790905 -1.77693 0
M  V30 4030 O 408.786 1.58817 -1.14349 0
M  V30 4031 C 409.085 -1.03648 -3.42041 0
M  V30 4032 C 408.751 -2.49825 -3.75364 0
M  V30 4033 C 407.413 -2.8977 -3.8417 0
M  V30 4034 C 409.765 -3.44545 -3.91073 0
M  V30 4035 C 407.093 -4.23412 -4.06127 0
M  V30 4036 C 409.445 -4.77853 -4.14535 0
M  V30 4037 C 408.109 -5.17531 -4.21566 0
M  V30 4038 H 407.379 -0.247975 -0.698276 0
M  V30 4039 H 410.026 -1.25584 -1.44571 0
M  V30 4040 H 408.331 -0.376457 -3.89987 0
M  V30 4041 H 410.028 -0.766113 -3.93614 0
M  V30 4042 H 406.618 -2.17866 -3.69097 0
M  V30 4043 H 410.802 -3.14853 -3.83642 0
M  V30 4044 H 406.058 -4.53734 -4.09799 0
M  V30 4045 H 410.232 -5.51189 -4.25633 0
M  V30 4046 H 407.859 -6.21102 -4.38333 0
M  V30 4047 N 409.434 1.37368 -0.772513 0
M  V30 4048 C 410.682 1.99279 -0.336516 0
M  V30 4049 C 411.003 1.6163 1.09091 0
M  V30 4050 O 410.273 0.882109 1.74916 0
M  V30 4051 H 408.853 0.737063 -0.121435 0
M  V30 4052 H 411.515 1.67836 -0.990809 0
M  V30 4053 H 410.611 3.09332 -0.414763 0
M  V30 4054 N 410.912 0.523116 1.48665 0
M  V30 4055 C 412.14 -0.0096312 2.06898 0
M  V30 4056 C 412.555 -1.28784 1.38059 0
M  V30 4057 O 411.912 -1.76453 0.465893 0
M  V30 4058 C 411.963 -0.244386 3.60673 0
M  V30 4059 O 411.684 0.983172 4.26925 0
M  V30 4060 C 413.185 -0.818289 4.35682 0
M  V30 4061 H 410.405 0.0304161 0.67031 0
M  V30 4062 H 412.949 0.726799 1.91149 0
M  V30 4063 H 411.104 -0.930847 3.76051 0
M  V30 4064 H 411.518 0.759653 5.1897 0
M  V30 4065 H 412.992 -0.93201 5.44075 0
M  V30 4066 H 413.469 -1.82153 3.99646 0
M  V30 4067 H 414.075 -0.168609 4.24966 0
M  V30 4068 N 412.39 -1.55475 0.257931 0
M  V30 4069 C 413.618 -2.03609 -0.367559 0
M  V30 4070 C 414.033 -1.13687 -1.50734 0
M  V30 4071 O 413.39 -0.153479 -1.81853 0
M  V30 4072 C 413.441 -3.51001 -0.864908 0
M  V30 4073 O 413.162 -4.37499 0.229465 0
M  V30 4074 C 414.663 -4.14946 -1.55997 0
M  V30 4075 H 411.883 -0.665459 -0.0860521 0
M  V30 4076 H 414.427 -2.00843 0.385014 0
M  V30 4077 H 412.582 -3.54266 -1.56762 0
M  V30 4078 H 412.996 -5.24286 -0.14998 0
M  V30 4079 H 414.47 -5.19735 -1.85956 0
M  V30 4080 H 414.947 -3.6209 -2.4857 0
M  V30 4081 H 415.553 -4.15635 -0.901543 0
M  V30 4082 N 413.868 0.0150385 -1.57593 0
M  V30 4083 C 414.798 1.01047 -2.10503 0
M  V30 4084 C 415.779 1.36816 -1.01071 0
M  V30 4085 O 416.964 1.45455 -1.28672 0
M  V30 4086 C 414.094 2.30708 -2.59598 0
M  V30 4087 C 413.048 2.09142 -3.73421 0
M  V30 4088 C 412.374 3.44685 -4.08774 0
M  V30 4089 C 413.674 1.46619 -5.01298 0
M  V30 4090 H 415.368 0.569978 -2.93925 0
M  V30 4091 H 412.914 0.272724 -1.41394 0
M  V30 4092 H 414.867 3.00687 -2.95238 0
M  V30 4093 H 413.591 2.76843 -1.73279 0
M  V30 4094 H 412.25 1.41592 -3.38153 0
M  V30 4095 H 411.898 3.88495 -3.195 0
M  V30 4096 H 411.598 3.31077 -4.8545 0
M  V30 4097 H 413.122 4.16004 -4.4696 0
M  V30 4098 H 414.536 2.06535 -5.34805 0
M  V30 4099 H 412.933 1.43544 -5.82679 0
M  V30 4100 H 414.003 0.433611 -4.82957 0
M  V30 4101 N 415.346 1.54954 0.287554 0
M  V30 4102 C 416.279 1.81737 1.3801 0
M  V30 4103 C 417.257 0.669412 1.48181 0
M  V30 4104 O 418.441 0.910839 1.65033 0
M  V30 4105 C 415.568 1.96606 2.75796 0
M  V30 4106 C 414.614 3.19098 2.82982 0
M  V30 4107 S 415.447 4.7683 2.43707 0
M  V30 4108 C 416.603 4.94653 3.83496 0
M  V30 4109 H 416.836 2.74122 1.15085 0
M  V30 4110 H 414.369 1.46538 0.486403 0
M  V30 4111 H 416.327 2.05858 3.55152 0
M  V30 4112 H 414.988 1.05136 2.95982 0
M  V30 4113 H 414.181 3.26344 3.84077 0
M  V30 4114 H 413.783 3.08361 2.11635 0
M  V30 4115 H 416.075 4.79502 4.78628 0
M  V30 4116 H 417.018 5.96728 3.8121 0
M  V30 4117 H 417.426 4.2272 3.74123 0
M  V30 4118 N 416.824 -0.551391 1.4764 0
M  V30 4119 C 417.787 -1.64007 1.60107 0
M  V30 4120 C 418.787 -1.53601 0.47576 0
M  V30 4121 O 419.977 -1.57655 0.740988 0
M  V30 4122 C 417.109 -3.03569 1.55108 0
M  V30 4123 H 418.302 -1.543 2.57161 0
M  V30 4124 H 415.855 -0.771776 1.35917 0
M  V30 4125 H 416.59 -3.18804 0.594519 0
M  V30 4126 H 416.375 -3.12532 2.36783 0
M  V30 4127 H 417.865 -3.82762 1.66982 0
M  V30 4128 N 418.302 -1.35869 -0.798587 0
M  V30 4129 C 419.249 -1.29446 -1.91082 0
M  V30 4130 C 420.219 -0.16487 -1.6528 0
M  V30 4131 O 421.404 -0.349888 -1.87564 0
M  V30 4132 C 418.544 -1.0804 -3.27752 0
M  V30 4133 C 417.657 -2.29993 -3.65687 0
M  V30 4134 C 416.792 -2.01673 -4.91428 0
M  V30 4135 C 415.831 -3.19636 -5.22015 0
M  V30 4136 N 414.968 -2.91039 -6.38937 0
M  V30 4137 H 419.808 -2.24553 -1.95907 0
M  V30 4138 H 417.345 -1.11615 -0.958148 0
M  V30 4139 H 419.303 -0.936586 -4.06551 0
M  V30 4140 H 417.933 -0.16592 -3.22373 0
M  V30 4141 H 416.985 -2.55211 -2.82085 0
M  V30 4142 H 418.297 -3.18052 -3.84245 0
M  V30 4143 H 417.451 -1.84168 -5.78072 0
M  V30 4144 H 416.19 -1.10911 -4.74921 0
M  V30 4145 H 415.195 -3.37709 -4.33858 0
M  V30 4146 H 416.42 -4.11211 -5.40447 0
M  V30 4147 H 414.366 -2.0288 -6.2384 0
M  V30 4148 H 414.283 -3.72635 -6.57784 0
M  V30 4149 H 415.551 -2.77093 -7.28587 0
M  V30 4150 N 419.78 1.02168 -1.19998 0
M  V30 4151 C 421.057 1.72816 -0.916191 0
M  V30 4152 C 421.437 2.03081 0.576325 0
M  V30 4153 O 420.785 1.69122 1.53656 0
M  V30 4154 C 420.995 2.9997 -1.78378 0
M  V30 4155 C 422.343 3.73336 -2.02251 0
M  V30 4156 O 423.367 3.09914 -1.75589 0
M  V30 4157 O 422.226 4.87371 -2.47249 0
M  V30 4158 H 419.32 0.752924 -0.342103 0
M  V30 4159 H 421.866 1.08062 -1.30846 0
M  V30 4160 H 420.638 2.73888 -2.79466 0
M  V30 4161 H 420.261 3.72464 -1.39126 0
M  V30 4162 N 421.258 1.00505 1.21394 0
M  V30 4163 C 422.188 0.585684 2.26035 0
M  V30 4164 C 423.169 -0.393525 1.65485 0
M  V30 4165 O 424.354 -0.281497 1.92149 0
M  V30 4166 C 421.484 -0.0884283 3.47187 0
M  V30 4167 C 420.438 0.810567 4.20254 0
M  V30 4168 C 419.764 0.00286382 5.347 0
M  V30 4169 C 421.064 2.1132 4.77641 0
M  V30 4170 H 422.758 1.46039 2.61368 0
M  V30 4171 H 420.304 0.703648 1.25638 0
M  V30 4172 H 422.257 -0.393286 4.19561 0
M  V30 4173 H 420.981 -0.997766 3.10986 0
M  V30 4174 H 419.64 1.09925 3.49731 0
M  V30 4175 H 419.288 -0.907765 4.94741 0
M  V30 4176 H 418.988 0.601444 5.84514 0
M  V30 4177 H 420.512 -0.295808 6.09883 0
M  V30 4178 H 421.926 1.87148 5.41893 0
M  V30 4179 H 420.323 2.66164 5.37845 0
M  V30 4180 H 421.393 2.78393 3.9702 0
M  V30 4181 N 422.737 -1.36956 0.779787 0
M  V30 4182 C 423.985 -1.99097 0.347079 0
M  V30 4183 C 424.306 -1.62206 -1.08232 0
M  V30 4184 O 423.576 -0.891373 -1.74446 0
M  V30 4185 H 422.156 -0.736409 0.125342 0
M  V30 4186 H 424.818 -1.67308 0.999696 0
M  V30 4187 H 423.914 -3.09107 0.431162 0
M  V30 4188 N 424.215 -0.530993 -1.48385 0
M  V30 4189 C 425.145 0.219985 -2.32461 0
M  V30 4190 C 426.126 0.934111 -1.42156 0
M  V30 4191 O 427.311 0.919694 -1.71042 0
M  V30 4192 C 424.441 1.26674 -3.23375 0
M  V30 4193 C 423.395 0.67069 -4.22712 0
M  V30 4194 C 422.721 1.82017 -5.02766 0
M  V30 4195 C 424.021 -0.358268 -5.2107 0
M  V30 4196 H 425.715 -0.48187 -2.95497 0
M  V30 4197 H 423.261 -0.233182 -1.42099 0
M  V30 4198 H 425.214 1.80006 -3.81019 0
M  V30 4199 H 423.938 1.99818 -2.58341 0
M  V30 4200 H 422.597 0.158878 -3.66256 0
M  V30 4201 H 422.245 2.54002 -4.34157 0
M  V30 4202 H 421.945 1.42727 -5.70003 0
M  V30 4203 H 423.469 2.35725 -5.63264 0
M  V30 4204 H 424.883 0.0880081 -5.73232 0
M  V30 4205 H 423.28 -0.66861 -5.96364 0
M  V30 4206 H 424.35 -1.26367 -4.68145 0
M  V30 4207 N 425.693 1.55336 -0.266172 0
M  V30 4208 C 426.656 2.20878 0.612001 0
M  V30 4209 C 427.656 1.18388 1.08816 0
M  V30 4210 O 428.846 1.4335 0.989774 0
M  V30 4211 C 425.978 2.86765 1.84332 0
M  V30 4212 H 427.171 2.99873 0.0398718 0
M  V30 4213 H 424.724 1.56291 -0.0167309 0
M  V30 4214 H 425.459 2.11759 2.45619 0
M  V30 4215 H 425.244 3.61862 1.5099 0
M  V30 4216 H 426.734 3.36867 2.46801 0
M  V30 4217 N 427.171 -0.0066808 1.57599 0
M  V30 4218 C 428.103 -1.02827 2.04839 0
M  V30 4219 C 429.116 -1.31108 0.965113 0
M  V30 4220 O 430.305 -1.28202 1.24203 0
M  V30 4221 C 427.405 -2.36464 2.42771 0
M  V30 4222 C 426.578 -2.27219 3.73751 0
M  V30 4223 C 425.637 -3.43489 3.98625 0
M  V30 4224 O 424.663 -3.21976 4.69382 0
M  V30 4225 N 425.865 -4.66116 3.46 0
M  V30 4226 H 428.63 -0.625455 2.93101 0
M  V30 4227 H 426.191 -0.194198 1.60731 0
M  V30 4228 H 428.183 -3.13008 2.56531 0
M  V30 4229 H 426.753 -2.68512 1.60063 0
M  V30 4230 H 425.973 -1.35629 3.70133 0
M  V30 4231 H 427.261 -2.18208 4.59633 0
M  V30 4232 H 426.659 -4.86493 2.88688 0
M  V30 4233 H 425.216 -5.39949 3.65101 0
M  V30 4234 N 428.649 -1.55105 -0.279332 0
M  V30 4235 C 429.926 -1.66119 -1.03267 0
M  V30 4236 C 430.306 -0.523525 -2.04505 0
M  V30 4237 O 429.654 0.477194 -2.23462 0
M  V30 4238 C 429.864 -3.05067 -1.69515 0
M  V30 4239 C 431.212 -3.62606 -2.20912 0
M  V30 4240 O 432.236 -3.07659 -1.79512 0
M  V30 4241 O 431.095 -4.58861 -2.96831 0
M  V30 4242 H 428.189 -0.674429 -0.478618 0
M  V30 4243 H 430.735 -1.67446 -0.275694 0
M  V30 4244 H 429.507 -3.79311 -0.9612 0
M  V30 4245 H 429.13 -3.07611 -2.51915 0
M  V30 4246 N 430.127 0.543554 -1.4793 0
M  V30 4247 C 431.352 1.32995 -1.59145 0
M  V30 4248 C 431.777 1.86472 -0.246956 0
M  V30 4249 O 431.135 1.63696 0.779324 0
M  V30 4250 C 431.183 2.46623 -2.63077 0
M  V30 4251 O 430.287 3.49261 -2.19295 0
M  V30 4252 H 429.628 0.394472 -0.534124 0
M  V30 4253 H 432.158 0.655489 -1.93816 0
M  V30 4254 H 432.168 2.93001 -2.83926 0
M  V30 4255 H 430.843 2.07059 -3.60693 0
M  V30 4256 H 429.42 3.09094 -2.08603 0
M  V30 4257 N 431.605 1.3629 0.791371 0
M  V30 4258 C 432.568 1.30309 1.88553 0
M  V30 4259 C 433.568 0.211204 1.59407 0
M  V30 4260 O 434.758 0.465865 1.67855 0
M  V30 4261 C 431.89 1.01956 3.25297 0
M  V30 4262 H 433.083 2.27614 1.95273 0
M  V30 4263 H 430.636 1.21035 0.988953 0
M  V30 4264 H 431.371 0.050998 3.2426 0
M  V30 4265 H 431.156 1.80968 3.4784 0
M  V30 4266 H 432.646 1.0037 4.05359 0
M  V30 4267 N 433.083 -1.0153 1.20538 0
M  V30 4268 C 434.311 -1.78746 1.04199 0
M  V30 4269 C 434.726 -1.84323 -0.408733 0
M  V30 4270 O 434.083 -1.29714 -1.28377 0
M  V30 4271 C 434.134 -3.23152 1.62035 0
M  V30 4272 O 433.855 -3.17918 3.0143 0
M  V30 4273 C 435.356 -4.16911 1.50666 0
M  V30 4274 H 432.576 -0.56208 0.366479 0
M  V30 4275 H 435.12 -1.27794 1.59653 0
M  V30 4276 H 433.275 -3.71248 1.10697 0
M  V30 4277 H 433.689 -4.08567 3.28897 0
M  V30 4278 H 435.163 -5.16072 1.95892 0
M  V30 4279 H 435.64 -4.36791 0.459363 0
M  V30 4280 H 436.246 -3.74698 2.01201 0
M  V30 4281 N 434.561 -1.01147 -1.20859 0
M  V30 4282 C 435.786 -0.716698 -1.94623 0
M  V30 4283 C 436.211 0.715415 -1.73964 0
M  V30 4284 O 435.569 1.49157 -1.03062 0
M  V30 4285 C 435.617 -1.0513 -3.44935 0
M  V30 4286 O 434.721 -0.160131 -4.12089 0
M  V30 4287 H 434.062 -0.266404 -0.608214 0
M  V30 4288 H 436.592 -1.35346 -1.53436 0
M  V30 4289 H 436.602 -1.00086 -3.95533 0
M  V30 4290 H 435.277 -2.09475 -3.59295 0
M  V30 4291 H 433.854 -0.267657 -3.71938 0
M  V30 4292 N 436.039 1.36541 -0.78704 0
M  V30 4293 C 437.267 2.03561 -0.370199 0
M  V30 4294 C 437.682 1.59347 1.01263 0
M  V30 4295 O 437.039 0.781781 1.64907 0
M  V30 4296 C 437.09 3.59033 -0.421614 0
M  V30 4297 O 436.811 4.01634 -1.7499 0
M  V30 4298 C 438.312 4.433 0.00489763 0
M  V30 4299 H 435.532 0.653346 -0.152904 0
M  V30 4300 H 438.076 1.74566 -1.06522 0
M  V30 4301 H 436.231 3.86746 0.224971 0
M  V30 4302 H 436.645 4.96217 -1.69909 0
M  V30 4303 H 438.119 5.51939 -0.0822184 0
M  V30 4304 H 438.596 4.26285 1.05723 0
M  V30 4305 H 439.202 4.20843 -0.614085 0
M  V30 4306 N 437.518 0.538854 1.48102 0
M  V30 4307 C 438.465 -0.219042 2.29758 0
M  V30 4308 C 439.435 -0.925562 1.37922 0
M  V30 4309 O 440.62 -0.924855 1.66886 0
M  V30 4310 C 437.76 -1.25452 3.2149 0
M  V30 4311 C 436.873 -0.555943 4.28408 0
M  V30 4312 C 436.008 -1.57512 5.0731 0
M  V30 4313 C 435.047 -0.860498 6.06021 0
M  V30 4314 N 434.184 -1.82564 6.77949 0
M  V30 4315 H 439.024 0.483449 2.94052 0
M  V30 4316 H 436.561 0.250247 1.44956 0
M  V30 4317 H 438.519 -1.86727 3.7308 0
M  V30 4318 H 437.149 -1.92528 2.591 0
M  V30 4319 H 436.201 0.170938 3.80016 0
M  V30 4320 H 437.513 0.00474616 4.988 0
M  V30 4321 H 436.667 -2.26191 5.62959 0
M  V30 4322 H 435.406 -2.16972 4.36778 0
M  V30 4323 H 434.411 -0.159686 5.49568 0
M  V30 4324 H 435.636 -0.271897 6.78555 0
M  V30 4325 H 433.582 -2.40915 6.10161 0
M  V30 4326 H 433.499 -1.31662 7.44447 0
M  V30 4327 H 434.767 -2.50414 7.38182 0
M  V30 4328 N 438.996 -1.55193 0.274407 0
M  V30 4329 C 440.221 -2.04446 -0.348824 0
M  V30 4330 C 440.646 -1.15149 -1.48735 0
M  V30 4331 O 440.004 -0.149952 -1.80679 0
M  V30 4332 C 440.052 -3.51431 -0.808009 0
M  V30 4333 O 439.156 -3.65225 -1.91531 0
M  V30 4334 H 438.497 -0.66006 -0.0722276 0
M  V30 4335 H 441.027 -2.00481 0.408498 0
M  V30 4336 H 441.037 -3.92781 -1.10395 0
M  V30 4337 H 439.712 -4.15892 0.0249865 0
M  V30 4338 H 438.289 -3.35778 -1.62196 0
M  V30 4339 N 440.474 -0.00167713 -1.576 0
M  V30 4340 C 441.885 0.54091 -1.78693 0
M  V30 4341 C 442.236 1.7386 -0.909247 0
M  V30 4342 O 441.361 2.16109 -0.112176 0
M  V30 4343 C 441.956 0.98806 -3.24072 0
M  V30 4344 C 440.515 1.47594 -3.46256 0
M  V30 4345 C 439.662 0.42792 -2.73978 0
M  V30 4346 H 442.613 -0.22784 -1.57056 0
M  V30 4347 H 442.634 1.85398 -3.32277 0
M  V30 4348 H 442.146 0.116164 -3.87926 0
M  V30 4349 H 440.247 2.36868 -2.87618 0
M  V30 4350 H 440.36 1.50225 -4.54939 0
M  V30 4351 H 438.724 0.889934 -2.38647 0
M  V30 4352 H 439.507 -0.435038 -3.40532 0
M  V30 4353 N 441.952 1.55251 0.271103 0
M  V30 4354 C 443.201 1.75151 1.00025 0
M  V30 4355 C 443.514 0.561041 1.87381 0
M  V30 4356 O 444.72 0.642506 2.63788 0
M  V30 4357 C 443.176 3.09999 1.82835 0
M  V30 4358 C 442.784 4.3662 1.00336 0
M  V30 4359 C 444.528 3.39249 2.55168 0
M  V30 4360 C 442.435 5.62506 1.82595 0
M  V30 4361 H 441.365 0.652877 0.377183 0
M  V30 4362 H 444.016 1.81708 0.255843 0
M  V30 4363 H 442.398 2.97485 2.61378 0
M  V30 4364 H 443.572 4.60055 0.261959 0
M  V30 4365 H 441.887 4.14527 0.394486 0
M  V30 4366 H 444.484 4.3051 3.1712 0
M  V30 4367 H 444.827 2.59467 3.2555 0
M  V30 4368 H 445.36 3.52869 1.83653 0
M  V30 4369 H 442.099 6.45041 1.16631 0
M  V30 4370 H 441.619 5.43211 2.54327 0
M  V30 4371 H 443.298 6.00875 2.39913 0
M  V30 4372 N 443.43 -0.535701 1.48216 0
M  V30 4373 C 444.36 -1.65014 1.65204 0
M  V30 4374 C 445.341 -1.62554 0.501011 0
M  V30 4375 O 446.526 -1.7984 0.732886 0
M  V30 4376 C 443.656 -3.03616 1.68626 0
M  V30 4377 C 442.61 -3.20932 2.83172 0
M  V30 4378 C 441.936 -4.60537 2.71679 0
M  V30 4379 C 443.236 -3.04249 4.24535 0
M  V30 4380 H 444.93 -1.51053 2.58502 0
M  V30 4381 H 442.476 -0.725262 1.24402 0
M  V30 4382 H 444.429 -3.81446 1.79099 0
M  V30 4383 H 443.153 -3.18587 0.719026 0
M  V30 4384 H 441.812 -2.45517 2.72244 0
M  V30 4385 H 441.46 -4.72336 1.72937 0
M  V30 4386 H 441.16 -4.73069 3.48538 0
M  V30 4387 H 442.684 -5.40475 2.84112 0
M  V30 4388 H 444.098 -3.71877 4.36326 0
M  V30 4389 H 442.495 -3.28278 5.02348 0
M  V30 4390 H 443.565 -2.00739 4.41397 0
M  V30 4391 N 444.908 -1.36708 -0.784132 0
M  V30 4392 C 445.838 -1.34153 -1.91116 0
M  V30 4393 C 446.819 -0.212121 -1.68772 0
M  V30 4394 O 448.004 -0.410581 -1.8981 0
M  V30 4395 C 445.134 -1.13535 -3.28218 0
M  V30 4396 C 444.088 -2.23356 -3.65097 0
M  V30 4397 C 443.414 -1.87875 -5.00607 0
M  V30 4398 C 444.714 -3.65473 -3.73131 0
M  V30 4399 H 446.408 -2.28459 -1.93512 0
M  V30 4400 H 443.954 -1.09973 -0.929618 0
M  V30 4401 H 445.907 -1.10381 -4.06687 0
M  V30 4402 H 444.631 -0.156804 -3.26223 0
M  V30 4403 H 443.29 -2.25645 -2.88929 0
M  V30 4404 H 442.938 -0.885814 -4.95139 0
M  V30 4405 H 442.638 -2.61406 -5.26252 0
M  V30 4406 H 444.162 -1.86286 -5.81489 0
M  V30 4407 H 445.576 -3.65382 -4.41779 0
M  V30 4408 H 443.973 -4.37953 -4.10265 0
M  V30 4409 H 445.043 -3.99995 -2.74102 0
M  V30 4410 N 446.386 1.0089 -1.21074 0
M  V30 4411 C 447.634 1.74262 -1.02358 0
M  V30 4412 C 447.955 1.89869 0.444393 0
M  V30 4413 O 447.225 1.44677 1.32081 0
M  V30 4414 H 445.805 0.645615 -0.375754 0
M  V30 4415 H 448.467 1.21596 -1.52317 0
M  V30 4416 H 447.563 2.74328 -1.4883 0
M  V30 4417 N 447.864 1.01787 1.20321 0
M  V30 4418 C 449.089 0.727009 1.9424 0
M  V30 4419 C 449.514 -0.706179 1.74341 0
M  V30 4420 O 448.872 -1.48609 1.03852 0
M  V30 4421 C 448.92 1.06958 3.44372 0
M  V30 4422 O 448.024 0.181983 4.11998 0
M  V30 4423 H 447.365 0.269626 0.606793 0
M  V30 4424 H 449.895 1.36158 1.52716 0
M  V30 4425 H 449.905 1.02182 3.94997 0
M  V30 4426 H 448.58 2.11378 3.58179 0
M  V30 4427 H 447.157 0.287378 3.71791 0
M  V30 4428 N 449.342 -1.36122 0.79427 0
M  V30 4429 C 450.272 -2.32551 0.210328 0
M  V30 4430 C 451.253 -1.56884 -0.657386 0
M  V30 4431 O 452.438 -1.85014 -0.590207 0
M  V30 4432 C 449.568 -3.41128 -0.651819 0
M  V30 4433 C 448.522 -4.27842 0.116395 0
M  V30 4434 C 447.848 -5.2763 -0.86666 0
M  V30 4435 C 449.148 -5.05647 1.30837 0
M  V30 4436 H 450.842 -2.81636 1.01594 0
M  V30 4437 H 448.388 -1.35407 0.489981 0
M  V30 4438 H 450.341 -4.07581 -1.07031 0
M  V30 4439 H 449.065 -2.90622 -1.49019 0
M  V30 4440 H 447.724 -3.62952 0.515915 0
M  V30 4441 H 447.372 -4.73395 -1.70019 0
M  V30 4442 H 447.072 -5.86514 -0.35705 0
M  V30 4443 H 448.596 -5.96955 -1.28361 0
M  V30 4444 H 450.01 -5.65113 0.965393 0
M  V30 4445 H 448.407 -5.73967 1.75161 0
M  V30 4446 H 449.477 -4.37006 2.10128 0
M  V30 4447 N 450.82 -0.546701 -1.47814 0
M  V30 4448 C 451.783 0.196287 -2.28358 0
M  V30 4449 C 452.783 0.852437 -1.36346 0
M  V30 4450 O 453.973 0.709913 -1.59078 0
M  V30 4451 C 451.105 1.28579 -3.15722 0
M  V30 4452 H 452.298 -0.511086 -2.95513 0
M  V30 4453 H 449.851 -0.303248 -1.5333 0
M  V30 4454 H 450.586 2.0259 -2.53235 0
M  V30 4455 H 450.371 0.820229 -3.83425 0
M  V30 4456 H 451.861 1.80793 -3.76435 0
M  V30 4457 N 452.299 1.55045 -0.282633 0
M  V30 4458 C 453.249 2.19514 0.616249 0
M  V30 4459 C 454.233 1.16216 1.11277 0
M  V30 4460 O 455.425 1.42004 1.05659 0
M  V30 4461 C 452.554 2.92548 1.7964 0
M  V30 4462 C 451.64 4.03142 1.31671 0
M  V30 4463 N 452.031 5.0276 0.553695 0
M  V30 4464 C 450.329 4.1635 1.59903 0
M  V30 4465 C 451.03 5.80923 0.30054 0
M  V30 4466 N 450.006 5.3651 0.875116 0
M  V30 4467 H 453.808 2.93889 0.0255363 0
M  V30 4468 H 451.322 1.62169 -0.0865362 0
M  V30 4469 H 453.319 3.37188 2.45173 0
M  V30 4470 H 451.979 2.19685 2.39099 0
M  V30 4471 H 452.99 5.17512 0.20032 0
M  V30 4472 H 449.667 3.54682 2.20243 0
M  V30 4473 H 451.057 6.7118 -0.311053 0
M  V30 4474 N 453.777 0.010035 1.57597 0
M  V30 4475 C 454.709 -1.00649 2.05918 0
M  V30 4476 C 455.722 -1.30077 0.978964 0
M  V30 4477 O 456.911 -1.26878 1.25556 0
M  V30 4478 C 454.011 -2.33876 2.45265 0
M  V30 4479 C 453.184 -2.23242 3.7614 0
M  V30 4480 C 452.243 -3.39242 4.02245 0
M  V30 4481 O 451.269 -3.1698 4.72771 0
M  V30 4482 N 452.471 -4.6242 3.50924 0
M  V30 4483 H 455.236 -0.594333 2.93748 0
M  V30 4484 H 452.797 -0.17714 1.60928 0
M  V30 4485 H 454.789 -3.1027 2.59836 0
M  V30 4486 H 453.359 -2.66799 1.62902 0
M  V30 4487 H 452.579 -1.31696 3.71551 0
M  V30 4488 H 453.867 -2.13321 4.61922 0
M  V30 4489 H 453.265 -4.83404 2.93832 0
M  V30 4490 H 451.822 -5.36046 3.70807 0
M  V30 4491 N 455.255 -1.55392 -0.262866 0
M  V30 4492 C 456.504 -1.75679 -0.990943 0
M  V30 4493 C 456.817 -0.57097 -1.87081 0
M  V30 4494 O 458.023 -0.656486 -2.63444 0
M  V30 4495 C 456.479 -3.10964 -1.81188 0
M  V30 4496 C 456.087 -4.37146 -0.980188 0
M  V30 4497 C 457.831 -3.40597 -2.53365 0
M  V30 4498 C 455.738 -5.63466 -1.7961 0
M  V30 4499 H 454.668 -0.654868 -0.373716 0
M  V30 4500 H 457.319 -1.81841 -0.246203 0
M  V30 4501 H 455.701 -2.98867 -2.59797 0
M  V30 4502 H 456.875 -4.60187 -0.237558 0
M  V30 4503 H 455.19 -4.14731 -0.372497 0
M  V30 4504 H 457.787 -4.32186 -3.14833 0
M  V30 4505 H 458.13 -2.6119 -3.24169 0
M  V30 4506 H 458.663 -3.53838 -1.81779 0
M  V30 4507 H 455.402 -6.4565 -1.13209 0
M  V30 4508 H 454.922 -5.44552 -2.51443 0
M  V30 4509 H 456.601 -6.02139 -2.36723 0
M  V30 4510 N 456.733 0.527833 -1.48498 0
M  V30 4511 C 457.963 1.30633 -1.60058 0
M  V30 4512 C 458.371 1.87394 -0.260786 0
M  V30 4513 O 457.714 1.67227 0.760317 0
M  V30 4514 C 457.776 2.49361 -2.58958 0
M  V30 4515 C 457.44 2.13671 -4.03972 0
M  V30 4516 C 458.437 1.69217 -4.91591 0
M  V30 4517 C 456.122 2.24129 -4.49524 0
M  V30 4518 C 458.116 1.35689 -6.2279 0
M  V30 4519 C 455.803 1.90212 -5.80743 0
M  V30 4520 C 456.801 1.46063 -6.67199 0
M  V30 4521 O 456.489 1.12593 -7.95976 0
M  V30 4522 H 456.221 0.403444 -0.54241 0
M  V30 4523 H 458.775 0.643233 -1.95068 0
M  V30 4524 H 457.005 3.18659 -2.19073 0
M  V30 4525 H 458.694 3.11421 -2.6033 0
M  V30 4526 H 459.46 1.60607 -4.57636 0
M  V30 4527 H 455.339 2.57447 -3.82416 0
M  V30 4528 H 458.883 1.01157 -6.90227 0
M  V30 4529 H 454.78 1.98464 -6.14233 0
M  V30 4530 H 455.548 1.25972 -8.08748 0
M  V30 4531 N 458.211 1.37122 0.776871 0
M  V30 4532 C 459.627 1.1781 1.07671 0
M  V30 4533 C 459.827 0.0107454 2.01497 0
M  V30 4534 O 458.883 -0.650756 2.4397 0
M  V30 4535 C 460.196 2.49451 1.67913 0
M  V30 4536 C 461.744 2.55927 1.80195 0
M  V30 4537 C 462.219 3.87686 2.43851 0
M  V30 4538 N 463.71 3.891 2.51307 0
M  V30 4539 C 464.445 4.87797 3.014 0
M  V30 4540 N 463.941 5.96888 3.51705 0
M  V30 4541 N 465.734 4.75205 3.00227 0
M  V30 4542 H 457.885 2.11843 0.153778 0
M  V30 4543 H 460.148 0.938927 0.130844 0
M  V30 4544 H 459.854 3.35207 1.06439 0
M  V30 4545 H 459.728 2.66169 2.67271 0
M  V30 4546 H 462.115 1.70582 2.40803 0
M  V30 4547 H 462.196 2.43097 0.796069 0
M  V30 4548 H 461.84 4.73444 1.83884 0
M  V30 4549 H 461.77 3.97817 3.45035 0
M  V30 4550 H 464.261 3.10293 2.157 0
M  V30 4551 H 464.574 6.68155 3.88316 0
M  V30 4552 H 462.919 6.0054 3.49824 0
M  V30 4553 H 466.11 3.89103 2.60224 0
M  V30 4554 H 466.283 5.52279 3.38957 0
M  V30 4555 N 459.689 -1.00246 1.21608 0
M  V30 4556 C 460.622 -2.08794 0.920892 0
M  V30 4557 C 461.6 -1.62059 -0.132552 0
M  V30 4558 O 462.784 -1.885 -0.0030366 0
M  V30 4559 C 459.911 -3.36525 0.383226 0
M  V30 4560 C 458.957 -4.02172 1.41987 0
M  V30 4561 S 459.79 -4.44256 2.98994 0
M  V30 4562 C 460.946 -5.7517 2.4684 0
M  V30 4563 H 461.179 -2.33511 1.8401 0
M  V30 4564 H 458.712 -1.13562 1.04609 0
M  V30 4565 H 460.67 -4.10423 0.0795871 0
M  V30 4566 H 459.331 -3.09854 -0.514711 0
M  V30 4567 H 458.524 -4.94114 0.993335 0
M  V30 4568 H 458.126 -3.34559 1.67171 0
M  V30 4569 H 460.418 -6.51042 1.87484 0
M  V30 4570 H 461.361 -6.22638 3.37235 0
M  V30 4571 H 461.769 -5.32112 1.88461 0
M  V30 4572 N 461.167 -1.02423 -1.1978 0
M  V30 4573 C 462.1 -0.545641 -2.21581 0
M  V30 4574 C 463.078 0.411024 -1.57319 0
M  V30 4575 O 464.262 0.329223 -1.85603 0
M  V30 4576 C 461.389 0.204973 -3.38079 0
M  V30 4577 C 460.435 -0.70241 -4.20676 0
M  V30 4578 S 461.268 -2.17595 -4.89298 0
M  V30 4579 C 462.424 -1.43572 -6.09211 0
M  V30 4580 H 462.657 -1.4082 -2.61834 0
M  V30 4581 H 460.19 -0.833771 -1.29952 0
M  V30 4582 H 462.148 0.631924 -4.05607 0
M  V30 4583 H 460.809 1.0432 -2.9627 0
M  V30 4584 H 460.002 -0.123193 -5.03849 0
M  V30 4585 H 459.604 -1.06747 -3.58442 0
M  V30 4586 H 461.896 -0.719806 -6.73665 0
M  V30 4587 H 462.839 -2.24388 -6.71607 0
M  V30 4588 H 463.247 -0.935252 -5.56699 0
M  V30 4589 N 462.645 1.35699 -0.801477 0
M  V30 4590 C 463.885 2.00741 -0.385027 0
M  V30 4591 C 464.249 1.62213 1.02718 0
M  V30 4592 O 465.45 2.19936 1.54537 0
M  V30 4593 C 463.721 3.53032 -0.557057 0
M  V30 4594 S 465.28 4.38195 -0.230272 0
M  V30 4595 H 462.098 0.695748 -0.146477 0
M  V30 4596 H 464.7 1.65378 -1.04261 0
M  V30 4597 H 463.404 3.7856 -1.58494 0
M  V30 4598 H 462.935 3.93229 0.116029 0
M  V30 4599 H 464.95 4.86748 0.963895 0
M  V30 4600 N 464.123 0.554532 1.47522 0
M  V30 4601 C 465.086 -0.184174 2.28459 0
M  V30 4602 C 466.086 -0.845195 1.36796 0
M  V30 4603 O 467.276 -0.701467 1.59452 0
M  V30 4604 C 464.408 -1.26903 3.16399 0
M  V30 4605 H 465.601 0.526751 2.95238 0
M  V30 4606 H 463.154 0.311375 1.53167 0
M  V30 4607 H 463.889 -2.01244 2.54306 0
M  V30 4608 H 463.674 -0.799883 3.83854 0
M  V30 4609 H 465.164 -1.78794 3.77389 0
M  V30 4610 N 465.601 -1.54893 0.290851 0
M  V30 4611 C 466.548 -2.23138 -0.58974 0
M  V30 4612 C 467.518 -1.21036 -1.13752 0
M  V30 4613 O 468.703 -1.49626 -1.18392 0
M  V30 4614 C 465.843 -2.96811 -1.76061 0
M  V30 4615 C 464.956 -4.13665 -1.24519 0
M  V30 4616 C 464.091 -4.74944 -2.3791 0
M  V30 4617 C 463.13 -5.83963 -1.83451 0
M  V30 4618 N 462.267 -6.39239 -2.90376 0
M  V30 4619 H 467.107 -2.98 -0.00114915 0
M  V30 4620 H 464.644 -1.47096 0.0112006 0
M  V30 4621 H 466.602 -3.37751 -2.44909 0
M  V30 4622 H 465.232 -2.24344 -2.32098 0
M  V30 4623 H 464.284 -3.77737 -0.449288 0
M  V30 4624 H 465.596 -4.92238 -0.806424 0
M  V30 4625 H 464.75 -5.18684 -3.14724 0
M  V30 4626 H 463.489 -3.95682 -2.85109 0
M  V30 4627 H 462.494 -5.39657 -1.05122 0
M  V30 4628 H 463.719 -6.65103 -1.37169 0
M  V30 4629 H 461.665 -5.62864 -3.36927 0
M  V30 4630 H 461.582 -7.13129 -2.50965 0
M  V30 4631 H 462.85 -6.87637 -3.67118 0
M  V30 4632 N 467.08 -0.0183926 -1.57589 0
M  V30 4633 C 468.328 0.661253 -1.90976 0
M  V30 4634 C 468.649 1.73281 -0.894353 0
M  V30 4635 O 467.919 1.9579 0.0656788 0
M  V30 4636 H 466.499 0.247233 -0.704901 0
M  V30 4637 H 469.161 -0.0636639 -1.94796 0
M  V30 4638 H 468.257 1.12083 -2.9128 0
M  V30 4639 N 468.558 1.5553 0.254621 0
M  V30 4640 C 469.788 1.80784 1.00004 0
M  V30 4641 C 470.196 0.59071 1.79742 0
M  V30 4642 O 469.539 -0.449988 1.78103 0
M  V30 4643 C 469.601 2.99268 1.99196 0
M  V30 4644 C 469.265 4.35595 1.38224 0
M  V30 4645 C 470.262 5.13884 0.788611 0
M  V30 4646 C 467.947 4.82281 1.40393 0
M  V30 4647 C 469.941 6.37004 0.224783 0
M  V30 4648 C 467.628 6.05351 0.836243 0
M  V30 4649 C 468.626 6.82551 0.24769 0
M  V30 4650 O 468.314 8.03297 -0.311249 0
M  V30 4651 H 468.046 0.60565 0.300274 0
M  V30 4652 H 470.6 2.03411 0.285143 0
M  V30 4653 H 468.83 2.72377 2.74496 0
M  V30 4654 H 470.519 3.11682 2.60018 0
M  V30 4655 H 471.285 4.78938 0.764423 0
M  V30 4656 H 467.164 4.22189 1.85142 0
M  V30 4657 H 470.708 6.97203 -0.235235 0
M  V30 4658 H 466.605 6.39776 0.857733 0
M  V30 4659 H 467.373 8.1825 -0.20237 0
M  V30 4660 N 470.036 -0.519951 1.48776 0
M  V30 4661 C 471.261 -1.30447 1.6124 0
M  V30 4662 C 471.686 -1.86055 0.276591 0
M  V30 4663 O 471.044 -1.64915 -0.753183 0
M  V30 4664 C 471.092 -2.42406 2.66967 0
M  V30 4665 O 470.196 -3.45728 2.24824 0
M  V30 4666 H 469.537 -0.385924 0.540332 0
M  V30 4667 H 472.067 -0.624572 1.94834 0
M  V30 4668 H 472.077 -2.88447 2.88552 0
M  V30 4669 H 470.752 -2.01294 3.63941 0
M  V30 4670 H 469.329 -3.05737 2.13494 0
M  V30 4671 N 471.514 -1.37532 -0.769588 0
M  V30 4672 C 472.461 -1.3347 -1.88293 0
M  V30 4673 C 473.431 -0.199891 -1.64893 0
M  V30 4674 O 474.616 -0.389594 -1.8678 0
M  V30 4675 C 471.756 -1.14968 -3.25387 0
M  V30 4676 C 470.869 -2.37698 -3.60727 0
M  V30 4677 C 470.004 -2.12051 -4.8704 0
M  V30 4678 C 469.043 -3.30636 -5.15117 0
M  V30 4679 N 468.18 -3.04527 -6.3262 0
M  V30 4680 H 473.02 -2.28658 -1.911 0
M  V30 4681 H 470.557 -1.13622 -0.934257 0
M  V30 4682 H 472.515 -1.02261 -4.04473 0
M  V30 4683 H 471.145 -0.234263 -3.21949 0
M  V30 4684 H 470.197 -2.61137 -2.76608 0
M  V30 4685 H 471.509 -3.26131 -3.77413 0
M  V30 4686 H 470.663 -1.96388 -5.74035 0
M  V30 4687 H 469.402 -1.20959 -4.72462 0
M  V30 4688 H 468.407 -3.46836 -4.26597 0
M  V30 4689 H 469.632 -4.22582 -5.31603 0
M  V30 4690 H 467.578 -2.16067 -6.19396 0
M  V30 4691 H 467.495 -3.86503 -6.49732 0
M  V30 4692 H 468.763 -2.92485 -7.22546 0
M  V30 4693 N 472.992 0.995999 -1.22138 0
M  V30 4694 C 473.939 2.08551 -0.988687 0
M  V30 4695 C 474.909 1.65864 0.0885021 0
M  V30 4696 O 476.094 1.90704 -0.0604589 0
M  V30 4697 C 473.234 3.40374 -0.569191 0
M  V30 4698 C 472.347 3.96421 -1.71681 0
M  V30 4699 C 471.482 5.1639 -1.2456 0
M  V30 4700 C 470.521 5.64567 -2.36497 0
M  V30 4701 N 469.658 6.75777 -1.90445 0
M  V30 4702 H 474.498 2.2779 -1.92135 0
M  V30 4703 H 472.035 1.1168 -0.957388 0
M  V30 4704 H 473.993 4.16068 -0.307166 0
M  V30 4705 H 472.623 3.21145 0.326462 0
M  V30 4706 H 471.675 3.17628 -2.09324 0
M  V30 4707 H 472.987 4.2816 -2.55891 0
M  V30 4708 H 472.141 5.99362 -0.940774 0
M  V30 4709 H 470.88 4.86266 -0.373662 0
M  V30 4710 H 469.885 4.80185 -2.67772 0
M  V30 4711 H 471.11 5.96716 -3.24202 0
M  V30 4712 H 469.056 6.47443 -1.05609 0
M  V30 4713 H 468.973 7.06818 -2.68223 0
M  V30 4714 H 470.241 7.62262 -1.63022 0
M  V30 4715 N 474.47 1.03057 1.19235 0
M  V30 4716 C 475.747 0.642608 1.84743 0
M  V30 4717 C 476.127 -0.878577 1.91948 0
M  V30 4718 O 475.475 -1.77597 1.43776 0
M  V30 4719 C 475.685 1.30665 3.23616 0
M  V30 4720 C 477.033 1.43098 3.9976 0
M  V30 4721 O 478.057 1.26396 3.3302 0
M  V30 4722 O 476.916 1.70223 5.19313 0
M  V30 4723 H 474.01 0.223573 0.796206 0
M  V30 4724 H 476.556 1.12883 1.26711 0
M  V30 4725 H 475.328 2.34544 3.13217 0
M  V30 4726 H 474.951 0.808405 3.89295 0
M  V30 4727 N 475.948 -1.35272 0.808662 0
M  V30 4728 C 477.195 -1.98709 0.390003 0
M  V30 4729 C 477.523 -1.64148 -1.04335 0
M  V30 4730 O 476.778 -0.897797 -1.73891 0
M  V30 4731 C 477.077 -3.53556 0.522798 0
M  V30 4732 C 476.743 -4.0799 1.91977 0
M  V30 4733 C 475.405 -4.22568 2.30195 0
M  V30 4734 C 477.757 -4.37442 2.83361 0
M  V30 4735 C 475.085 -4.63918 3.59162 0
M  V30 4736 C 477.437 -4.80232 4.11776 0
M  V30 4737 C 476.101 -4.93016 4.49991 0
M  V30 4738 H 475.371 -0.727127 0.142712 0
M  V30 4739 H 478.018 -1.6145 1.02985 0
M  V30 4740 H 476.323 -3.91287 -0.200494 0
M  V30 4741 H 478.02 -4.00598 0.179608 0
M  V30 4742 H 474.61 -3.97096 1.61284 0
M  V30 4743 H 478.794 -4.25731 2.55083 0
M  V30 4744 H 474.05 -4.72005 3.88615 0
M  V30 4745 H 478.224 -5.01982 4.82687 0
M  V30 4746 H 475.851 -5.24814 5.49976 0
M  V30 4747 N 477.426 -0.562348 -1.47226 0
M  V30 4748 C 478.651 -0.0432632 -2.07355 0
M  V30 4749 C 479.076 1.24332 -1.41149 0
M  V30 4750 O 478.434 1.74603 -0.488226 0
M  V30 4751 C 478.482 0.130288 -3.60365 0
M  V30 4752 O 477.586 1.19166 -3.94808 0
M  V30 4753 H 476.927 -0.0536334 -0.66183 0
M  V30 4754 H 479.457 -0.779495 -1.89169 0
M  V30 4755 H 479.467 0.342881 -4.06557 0
M  V30 4756 H 478.142 -0.809389 -4.07948 0
M  V30 4757 H 476.719 0.959153 -3.60354 0
M  V30 4758 N 478.904 1.54736 -0.299062 0
M  V30 4759 C 480.129 2.04975 0.316254 0
M  V30 4760 C 480.554 1.17501 1.46885 0
M  V30 4761 O 479.912 0.178678 1.80417 0
M  V30 4762 C 479.96 3.52672 0.751997 0
M  V30 4763 O 479.064 3.68226 1.85697 0
M  V30 4764 H 478.405 0.661126 0.0617175 0
M  V30 4765 H 480.935 1.99805 -0.440341 0
M  V30 4766 H 480.945 3.94488 1.04133 0
M  V30 4767 H 479.62 4.158 -0.0911482 0
M  V30 4768 H 478.197 3.38316 1.56834 0
M  V30 4769 N 480.382 0.0267497 1.57577 0
M  V30 4770 C 481.628 -0.653371 1.91987 0
M  V30 4771 C 481.961 -1.71915 0.903263 0
M  V30 4772 O 481.236 -1.94358 -0.0743387 0
M  V30 4773 C 481.519 -1.272 3.36886 0
M  V30 4774 C 481.372 -0.215938 4.49281 0
M  V30 4775 C 482.691 -2.19069 3.81703 0
M  V30 4776 H 479.81 -0.236047 0.698177 0
M  V30 4777 H 482.452 0.0835236 1.89816 0
M  V30 4778 H 480.602 -1.90005 3.38866 0
M  V30 4779 H 482.274 0.41449 4.59434 0
M  V30 4780 H 480.517 0.458855 4.31366 0
M  V30 4781 H 481.188 -0.688347 5.47691 0
M  V30 4782 H 483.664 -1.66253 3.81444 0
M  V30 4783 H 482.54 -2.59307 4.83788 0
M  V30 4784 H 482.801 -3.08087 3.17072 0
M  V30 4785 N 481.861 -1.55662 -0.24637 0
M  V30 4786 C 483.108 -1.77519 -0.974335 0
M  V30 4787 C 483.436 -0.591165 -1.85298 0
M  V30 4788 O 482.691 0.425497 -1.91018 0
M  V30 4789 C 482.99 -3.04885 -1.86494 0
M  V30 4790 C 482.656 -4.36209 -1.14161 0
M  V30 4791 C 481.318 -4.71896 -0.941701 0
M  V30 4792 C 483.67 -5.17391 -0.628957 0
M  V30 4793 C 480.998 -5.86299 -0.216852 0
M  V30 4794 C 483.35 -6.32546 0.0824273 0
M  V30 4795 C 482.014 -6.66853 0.293807 0
M  V30 4796 H 481.284 -0.649588 -0.356535 0
M  V30 4797 H 483.931 -1.89934 -0.244394 0
M  V30 4798 H 482.236 -2.87484 -2.66196 0
M  V30 4799 H 483.933 -3.18994 -2.42989 0
M  V30 4800 H 480.523 -4.08174 -1.30736 0
M  V30 4801 H 484.707 -4.90276 -0.770943 0
M  V30 4802 H 479.963 -6.11385 -0.0426124 0
M  V30 4803 H 484.137 -6.94693 0.487292 0
M  V30 4804 H 481.764 -7.55349 0.857428 0
M  V30 4805 N 483.339 0.512053 -1.4905 0
M  V30 4806 C 484.271 1.63121 -1.6101 0
M  V30 4807 C 485.284 1.55145 -0.493352 0
M  V30 4808 O 486.473 1.61278 -0.764955 0
M  V30 4809 C 483.573 3.01863 -1.54052 0
M  V30 4810 C 482.746 3.35138 -2.81072 0
M  V30 4811 C 481.805 4.5324 -2.67319 0
M  V30 4812 O 480.831 4.55571 -3.41238 0
M  V30 4813 N 482.033 5.52495 -1.78127 0
M  V30 4814 H 484.798 1.53292 -2.5753 0
M  V30 4815 H 482.359 0.699706 -1.45999 0
M  V30 4816 H 484.351 3.78774 -1.42521 0
M  V30 4817 H 482.921 3.05675 -0.654345 0
M  V30 4818 H 482.141 2.4723 -3.07036 0
M  V30 4819 H 483.429 3.54162 -3.65304 0
M  V30 4820 H 482.827 5.53403 -1.17308 0
M  V30 4821 H 481.384 6.28553 -1.72525 0
M  V30 4822 N 484.817 1.37938 0.762283 0
M  V30 4823 C 486.064 1.33668 1.52115 0
M  V30 4824 C 486.392 -0.0759538 1.94352 0
M  V30 4825 O 485.647 -1.05121 1.6507 0
M  V30 4826 C 485.946 2.23042 2.79261 0
M  V30 4827 C 485.612 3.71159 2.56031 0
M  V30 4828 C 484.274 4.11523 2.49404 0
M  V30 4829 C 486.626 4.64955 2.35513 0
M  V30 4830 C 483.954 5.43784 2.20263 0
M  V30 4831 C 486.306 5.97464 2.07894 0
M  V30 4832 C 484.97 6.36922 1.99718 0
M  V30 4833 H 484.24 0.489127 0.556629 0
M  V30 4834 H 486.887 1.70224 0.877262 0
M  V30 4835 H 485.192 1.79512 3.48256 0
M  V30 4836 H 486.889 2.17047 3.37182 0
M  V30 4837 H 483.479 3.39153 2.62056 0
M  V30 4838 H 487.663 4.34623 2.39617 0
M  V30 4839 H 482.919 5.73307 2.12435 0
M  V30 4840 H 487.093 6.6969 1.91019 0
M  V30 4841 H 484.72 7.39331 1.76902 0
M  V30 4842 N 486.295 -0.989507 1.22664 0
M  V30 4843 C 487.225 -2.09847 1.02404 0
M  V30 4844 C 488.206 -1.70007 -0.0561303 0
M  V30 4845 O 489.391 -1.93906 0.106748 0
M  V30 4846 C 486.521 -3.41996 0.604663 0
M  V30 4847 C 485.475 -3.95699 1.63115 0
M  V30 4848 C 484.801 -5.23936 1.0675 0
M  V30 4849 C 486.101 -4.25999 3.02196 0
M  V30 4850 H 487.795 -2.27054 1.95158 0
M  V30 4851 H 485.341 -1.09111 0.939727 0
M  V30 4852 H 487.294 -4.1899 0.45002 0
M  V30 4853 H 486.018 -3.24626 -0.35855 0
M  V30 4854 H 484.677 -3.2084 1.77362 0
M  V30 4855 H 484.325 -5.02909 0.0955422 0
M  V30 4856 H 484.025 -5.60833 1.75328 0
M  V30 4857 H 485.549 -6.0356 0.924516 0
M  V30 4858 H 486.963 -4.93777 2.91303 0
M  V30 4859 H 485.36 -4.74076 3.67929 0
M  V30 4860 H 486.43 -3.33636 3.51873 0
M  V30 4861 N 487.773 -1.03688 -1.18687 0
M  V30 4862 C 489.189 -0.755413 -1.4059 0
M  V30 4863 C 489.389 0.656659 -1.905 0
M  V30 4864 O 488.445 1.42144 -2.08689 0
M  V30 4865 C 489.758 -1.7983 -2.41001 0
M  V30 4866 C 491.306 -1.81877 -2.54735 0
M  V30 4867 C 491.781 -2.85148 -3.58406 0
M  V30 4868 N 493.272 -2.84015 -3.6591 0
M  V30 4869 C 494.007 -3.60573 -4.45841 0
M  V30 4870 N 493.503 -4.46871 -5.29413 0
M  V30 4871 N 495.296 -3.49079 -4.40568 0
M  V30 4872 H 487.447 -1.94818 -0.846148 0
M  V30 4873 H 489.71 -0.842727 -0.434184 0
M  V30 4874 H 489.416 -2.81097 -2.1137 0
M  V30 4875 H 489.29 -1.62727 -3.40294 0
M  V30 4876 H 491.677 -0.812836 -2.83685 0
M  V30 4877 H 491.758 -2.03057 -1.55568 0
M  V30 4878 H 491.402 -3.85918 -3.30197 0
M  V30 4879 H 491.332 -2.61224 -4.57241 0
M  V30 4880 H 493.823 -2.21431 -3.0623 0
M  V30 4881 H 494.136 -5.02007 -5.87545 0
M  V30 4882 H 492.481 -4.5094 -5.28846 0
M  V30 4883 H 495.672 -2.81066 -3.74325 0
M  V30 4884 H 495.845 -4.08994 -5.02621 0
M  V30 4885 N 489.251 1.34841 -0.815825 0
M  V30 4886 C 490.161 2.33425 -0.234462 0
M  V30 4887 C 491.177 1.62295 0.627413 0
M  V30 4888 O 492.353 1.94109 0.536987 0
M  V30 4889 C 489.418 3.41471 0.599849 0
M  V30 4890 C 488.479 4.28362 -0.283596 0
M  V30 4891 C 487.712 5.31248 0.51099 0
M  V30 4892 O 487.935 5.43056 1.7449 0
M  V30 4893 O 486.869 6.01812 -0.10297 0
M  V30 4894 H 490.695 2.84962 -1.05024 0
M  V30 4895 H 488.28 1.37774 -0.577809 0
M  V30 4896 H 490.162 4.07464 1.07475 0
M  V30 4897 H 488.837 2.9219 1.39308 0
M  V30 4898 H 487.744 3.65318 -0.805836 0
M  V30 4899 H 489.077 4.81066 -1.041 0
M  V30 4900 N 490.729 0.570148 1.46925 0
M  V30 4901 C 491.639 -0.173061 2.33961 0
M  V30 4902 C 492.655 -0.898825 1.48987 0
M  V30 4903 O 493.831 -0.864825 1.81887 0
M  V30 4904 C 490.896 -1.18177 3.25937 0
M  V30 4905 C 489.957 -0.462041 4.26806 0
M  V30 4906 C 489.19 -1.4227 5.14388 0
M  V30 4907 O 489.413 -2.65842 5.04662 0
M  V30 4908 O 488.347 -0.940127 5.94513 0
M  V30 4909 H 492.173 0.541216 2.98839 0
M  V30 4910 H 489.758 0.330647 1.45695 0
M  V30 4911 H 491.64 -1.76372 3.82715 0
M  V30 4912 H 490.315 -1.87774 2.63671 0
M  V30 4913 H 489.222 0.161429 3.73752 0
M  V30 4914 H 490.555 0.192719 4.91823 0
M  V30 4915 N 492.207 -1.54576 0.307264 0
M  V30 4916 C 493.117 -2.27435 -0.57536 0
M  V30 4917 C 494.133 -1.31183 -1.14311 0
M  V30 4918 O 495.309 -1.64175 -1.16656 0
M  V30 4919 C 492.374 -3.00566 -1.72803 0
M  V30 4920 C 491.435 -4.12369 -1.19373 0
M  V30 4921 C 490.668 -4.82003 -2.29147 0
M  V30 4922 O 490.891 -4.51038 -3.49171 0
M  V30 4923 O 489.825 -5.69271 -1.95485 0
M  V30 4924 H 493.651 -3.03696 0.0158558 0
M  V30 4925 H 491.236 -1.49219 0.0735064 0
M  V30 4926 H 493.118 -3.46416 -2.39946 0
M  V30 4927 H 491.793 -2.27195 -2.30574 0
M  V30 4928 H 490.7 -3.70905 -0.487851 0
M  V30 4929 H 492.033 -4.87736 -0.661376 0
M  V30 4930 N 493.685 -0.035106 -1.57561 0
M  V30 4931 C 494.913 0.652258 -1.9635 0
M  V30 4932 C 495.328 1.65317 -0.911897 0
M  V30 4933 O 494.685 1.82194 0.105657 0
M  V30 4934 C 494.736 1.35337 -3.35211 0
M  V30 4935 O 494.457 0.392548 -4.36338 0
M  V30 4936 C 495.958 2.13199 -3.88666 0
M  V30 4937 H 493.178 0.179444 -0.646561 0
M  V30 4938 H 495.722 -0.0966459 -2.04271 0
M  V30 4939 H 493.877 2.05362 -3.28489 0
M  V30 4940 H 494.291 0.891097 -5.16875 0
M  V30 4941 H 495.765 2.577 -4.88154 0
M  V30 4942 H 496.242 2.97353 -3.23231 0
M  V30 4943 H 496.848 1.48118 -3.98674 0
M  V30 4944 N 495.163 1.55791 0.238111 0
M  V30 4945 C 496.41 1.78033 0.964907 0
M  V30 4946 C 496.738 0.600984 1.84982 0
M  V30 4947 O 495.993 -0.41536 1.91241 0
M  V30 4948 C 496.292 3.05869 1.84875 0
M  V30 4949 C 495.958 4.36808 1.11846 0
M  V30 4950 C 494.62 4.72388 0.916662 0
M  V30 4951 C 496.972 5.17717 0.60151 0
M  V30 4952 C 494.3 5.86406 0.185756 0
M  V30 4953 C 496.652 6.32494 -0.115972 0
M  V30 4954 C 495.316 6.66688 -0.329168 0
M  V30 4955 H 494.586 0.651469 0.353085 0
M  V30 4956 H 497.233 1.90061 0.234318 0
M  V30 4957 H 495.538 2.88891 2.64668 0
M  V30 4958 H 497.235 3.20278 2.41294 0
M  V30 4959 H 493.825 4.08862 1.28569 0
M  V30 4960 H 498.009 4.90678 0.744932 0
M  V30 4961 H 493.265 6.11399 0.0101886 0
M  V30 4962 H 497.439 6.94425 -0.524127 0
M  V30 4963 H 495.066 7.54884 -0.897474 0
M  V30 4964 O 496.68 -0.383686 1.56876 0
M  V30 4965 H 497.371 -1.03525 1.63714 0
M  V30 END ATOM
M  V30 BEGIN BOND
M  V30 END BOND
M  V30 END CTAB
M  END
$$$$
