drugbank_target|P32004 Neural cell adhesion molecule L1 (DB00898)
 OpenBabel12092121063D

  0  0  0     0  0            999 V3000
M  V30 BEGIN CTAB
M  V30 COUNTS 19514 19769 0 0 0
M  V30 BEGIN ATOM
M  V30 1 H -0.908 1.98254 -0.117106 0
M  V30 2 N 0 1.576 0 0
M  V30 3 C 0.933 2.03868 1.02534 0
M  V30 4 C 1.911 0.928543 1.3348 0
M  V30 5 O 3.095 1.19667 1.45644 0
M  V30 6 C 0.222 2.43627 2.35294 0
M  V30 7 C -0.732 3.65373 2.2001 0
M  V30 8 S 0.101 5.13292 1.52614 0
M  V30 9 C 1.257 5.56322 2.86805 0
M  V30 10 H 1.49 2.90518 0.631377 0
M  V30 11 H -0.977 1.52953 0.210867 0
M  V30 12 H 0.981 2.67203 3.11629 0
M  V30 13 H -0.358 1.57376 2.7183 0
M  V30 14 H -1.165 3.90944 3.18086 0
M  V30 15 H -1.563 3.418 1.51819 0
M  V30 16 H 0.729 5.58782 3.83104 0
M  V30 17 H 1.672 6.56266 2.65933 0
M  V30 18 H 2.08 4.83886 2.90714 0
M  V30 19 N 1.4781 -0.272755 1.55222 0
M  V30 20 C 2.7241 -1.00581 1.761 0
M  V30 21 C 3.0571 -1.85932 0.560625 0
M  V30 22 O 2.3321 -1.89416 -0.441801 0
M  V30 23 C 2.6151 -1.88816 3.06628 0
M  V30 24 C 2.4681 -1.06457 4.37021 0
M  V30 25 C 3.7871 -2.8752 3.33197 0
M  V30 26 H 0.9061 -0.364244 0.640699 0
M  V30 27 H 3.5481 -0.278189 1.87952 0
M  V30 28 H 1.6981 -2.50856 2.96654 0
M  V30 29 H 3.3701 -0.464863 4.58952 0
M  V30 30 H 1.6131 -0.368043 4.32236 0
M  V30 31 H 2.2841 -1.71514 5.24678 0
M  V30 32 H 4.7601 -2.35615 3.42965 0
M  V30 33 H 3.6361 -3.46399 4.25792 0
M  V30 34 H 3.8971 -3.62657 2.52849 0
M  V30 35 N 2.9562 -1.48159 -0.537278 0
M  V30 36 C 4.2022 -1.56035 -1.29541 0
M  V30 37 C 4.5352 -0.230377 -1.92829 0
M  V30 38 O 3.8102 0.762952 -1.78911 0
M  V30 39 C 4.0932 -2.69323 -2.39034 0
M  V30 40 C 3.9462 -4.12002 -1.80485 0
M  V30 41 C 5.2652 -2.78408 -3.40847 0
M  V30 42 H 2.3842 -0.567992 -0.469632 0
M  V30 43 H 5.0262 -1.80302 -0.599277 0
M  V30 44 H 3.1762 -2.48763 -2.98412 0
M  V30 45 H 4.8482 -4.43981 -1.25215 0
M  V30 46 H 3.0912 -4.19344 -1.11055 0
M  V30 47 H 3.7622 -4.87077 -2.59731 0
M  V30 48 H 6.2382 -2.97012 -2.91416 0
M  V30 49 H 5.1142 -3.59416 -4.14863 0
M  V30 50 H 5.3752 -1.86269 -4.00944 0
M  V30 51 N 4.4343 0.785586 -1.36625 0
M  V30 52 C 5.3973 1.87999 -1.31107 0
M  V30 53 C 6.3973 1.59316 -0.217959 0
M  V30 54 O 7.5873 1.67656 -0.472977 0
M  V30 55 C 4.7193 3.24861 -1.03334 0
M  V30 56 H 5.9123 1.94307 -2.2844 0
M  V30 57 H 3.4653 0.983813 -1.21453 0
M  V30 58 H 4.2003 3.24235 -0.0647432 0
M  V30 59 H 3.9853 3.4707 -1.82441 0
M  V30 60 H 5.4753 4.04929 -1.02088 0
M  V30 61 N 5.9124 1.20967 1.01018 0
M  V30 62 C 6.8424 0.988272 2.11555 0
M  V30 63 C 7.8234 -0.0849778 1.69888 0
M  V30 64 O 9.0084 0.0738202 1.9406 0
M  V30 65 C 6.1384 0.546528 3.42973 0
M  V30 66 C 5.0924 1.56375 3.9841 0
M  V30 67 C 4.4184 0.97842 5.25672 0
M  V30 68 C 5.7184 2.94922 4.31066 0
M  V30 69 H 7.4124 1.91276 2.30334 0
M  V30 70 H 4.9584 0.921073 1.1069 0
M  V30 71 H 6.9114 0.378839 4.19694 0
M  V30 72 H 5.6354 -0.413598 3.23971 0
M  V30 73 H 4.2944 1.71891 3.23804 0
M  V30 74 H 3.9424 0.0101688 5.02999 0
M  V30 75 H 3.6424 1.65784 5.63728 0
M  V30 76 H 5.1664 0.821939 6.05043 0
M  V30 77 H 6.5804 2.8288 4.9865 0
M  V30 78 H 4.9774 3.5983 4.80253 0
M  V30 79 H 6.0474 3.4616 3.39561 0
M  V30 80 N 7.3905 -1.2043 1.01659 0
M  V30 81 C 8.8065 -1.41852 0.731442 0
M  V30 82 C 9.0065 -1.89358 -0.688898 0
M  V30 83 O 8.0625 -2.06247 -1.45666 0
M  V30 84 C 9.3755 -2.44019 1.75714 0
M  V30 85 C 10.9235 -2.57785 1.77527 0
M  V30 86 C 11.3985 -3.63194 2.79023 0
M  V30 87 N 12.8895 -3.70678 2.77763 0
M  V30 88 C 13.6245 -4.51897 3.52954 0
M  V30 89 N 13.1205 -5.36921 4.37821 0
M  V30 90 N 14.9135 -4.4643 3.41551 0
M  V30 91 H 7.0645 -0.879093 1.93354 0
M  V30 92 H 9.3275 -0.448425 0.835236 0
M  V30 93 H 9.0335 -2.1611 2.77469 0
M  V30 94 H 8.9075 -3.43007 1.56927 0
M  V30 95 H 11.2945 -2.85023 0.764569 0
M  V30 96 H 11.3755 -1.58992 2.00387 0
M  V30 97 H 11.0195 -3.36699 3.80258 0
M  V30 98 H 10.9495 -4.61609 2.53425 0
M  V30 99 H 13.4405 -3.09944 2.16201 0
M  V30 100 H 13.7535 -5.95981 4.91962 0
M  V30 101 H 12.0985 -5.36424 4.41899 0
M  V30 102 H 15.2895 -3.79042 2.74672 0
M  V30 103 H 15.4625 -5.09491 4.00404 0
M  V30 104 N 8.8686 -0.792821 -1.36206 0
M  V30 105 C 10.0986 -0.378275 -2.03107 0
M  V30 106 C 10.5066 1.01119 -1.59911 0
M  V30 107 O 9.8496 1.66052 -0.785658 0
M  V30 108 C 9.9116 -0.366535 -3.57627 0
M  V30 109 C 9.5756 -1.70416 -4.24037 0
M  V30 110 C 10.5726 -2.6602 -4.46687 0
M  V30 111 C 8.2576 -1.98439 -4.6144 0
M  V30 112 C 10.2516 -3.8784 -5.05825 0
M  V30 113 C 7.9386 -3.20525 -5.20295 0
M  V30 114 C 8.9366 -4.15044 -5.42427 0
M  V30 115 O 8.6246 -5.34978 -6.00045 0
M  V30 116 H 8.3566 -0.153543 -0.658332 0
M  V30 117 H 10.9106 -1.07383 -1.75094 0
M  V30 118 H 9.1406 0.385539 -3.84773 0
M  V30 119 H 10.8296 0.0238088 -4.05893 0
M  V30 120 H 11.5956 -2.45658 -4.18183 0
M  V30 121 H 7.4746 -1.25686 -4.43536 0
M  V30 122 H 11.0186 -4.61628 -5.23015 0
M  V30 123 H 6.9156 -3.40764 -5.48225 0
M  V30 124 H 7.6836 -5.36088 -6.18508 0
M  V30 125 N 10.3467 1.47872 -0.545128 0
M  V30 126 C 11.5927 2.02793 -0.0166104 0
M  V30 127 C 11.9257 1.41987 1.32489 0
M  V30 128 O 11.2007 0.571045 1.85928 0
M  V30 129 C 11.4837 3.59989 0.0893294 0
M  V30 130 C 11.3367 4.3125 -1.27841 0
M  V30 131 C 12.6557 4.32606 0.808724 0
M  V30 132 H 9.7747 0.736962 -0.00751035 0
M  V30 133 H 12.4167 1.76433 -0.705085 0
M  V30 134 H 10.5667 3.82579 0.675681 0
M  V30 135 H 12.2387 4.20035 -1.90704 0
M  V30 136 H 10.4817 3.92076 -1.85632 0
M  V30 137 H 11.1527 5.39736 -1.15713 0
M  V30 138 H 13.6287 4.14936 0.310992 0
M  V30 139 H 12.5047 5.42251 0.851782 0
M  V30 140 H 12.7657 4.00963 1.86229 0
M  V30 141 N 11.8248 0.280983 1.55075 0
M  V30 142 C 13.0708 -0.327573 2.00745 0
M  V30 143 C 13.4258 -1.53045 1.16598 0
M  V30 144 O 12.7188 -1.90221 0.229451 0
M  V30 145 C 12.9128 -0.754656 3.49342 0
M  V30 146 C 12.7418 0.40529 4.4787 0
M  V30 147 C 11.5118 0.890947 4.97383 0
M  V30 148 C 13.7098 1.24371 4.99035 0
M  V30 149 N 11.6918 2.01975 5.79724 0
M  V30 150 C 13.0628 2.22031 5.7888 0
M  V30 151 C 15.1178 1.27638 4.81262 0
M  V30 152 C 13.8208 3.22709 6.42846 0
M  V30 153 C 15.8468 2.27164 5.46031 0
M  V30 154 C 15.2088 3.23556 6.25692 0
M  V30 155 H 11.3078 -0.0848774 0.77738 0
M  V30 156 H 13.8918 0.406342 1.90413 0
M  V30 157 H 12.0628 -1.45778 3.60005 0
M  V30 158 H 13.7948 -1.34105 3.81835 0
M  V30 159 H 10.5498 0.469262 4.71269 0
M  V30 160 H 10.9738 2.58794 6.25584 0
M  V30 161 H 15.6158 0.544936 4.19274 0
M  V30 162 H 13.3338 3.96784 7.0398 0
M  V30 163 H 16.9198 2.30441 5.34217 0
M  V30 164 H 15.7998 3.99309 6.74924 0
M  V30 165 N 13.3029 -1.57598 0.00835791 0
M  V30 166 C 14.7139 -1.7892 -0.53333 0
M  V30 167 C 15.0649 -0.916609 -1.73473 0
M  V30 168 O 14.1899 -0.121336 -2.1606 0
M  V30 169 C 14.7849 -3.24488 -0.974313 0
M  V30 170 C 13.3439 -3.46878 -1.46125 0
M  V30 171 C 12.4909 -2.74157 -0.416302 0
M  V30 172 H 15.4419 -1.56958 0.234495 0
M  V30 173 H 15.4629 -3.3306 -1.83988 0
M  V30 174 H 14.9749 -3.87972 -0.099718 0
M  V30 175 H 13.0759 -2.8862 -2.35646 0
M  V30 176 H 13.1889 -4.55572 -1.48295 0
M  V30 177 H 11.5529 -2.39022 -0.87981 0
M  V30 178 H 12.3359 -3.40345 0.44947 0
M  V30 179 N 14.781 0.264519 -1.55364 0
M  V30 180 C 15.711 1.33121 -1.91836 0
M  V30 181 C 16.692 1.51101 -0.781192 0
M  V30 182 O 17.877 1.64003 -1.04003 0
M  V30 183 C 15.007 2.68921 -2.19769 0
M  V30 184 C 13.961 2.65661 -3.35571 0
M  V30 185 C 13.287 4.05093 -3.49004 0
M  V30 186 C 14.587 2.24187 -4.71739 0
M  V30 187 H 16.281 1.02844 -2.81182 0
M  V30 188 H 13.827 0.493286 -1.35287 0
M  V30 189 H 15.78 3.43663 -2.43872 0
M  V30 190 H 14.504 3.00799 -1.27231 0
M  V30 191 H 13.163 1.93377 -3.1145 0
M  V30 192 H 12.811 4.34206 -2.53917 0
M  V30 193 H 12.511 4.03804 -4.26868 0
M  V30 194 H 14.035 4.81561 -3.75408 0
M  V30 195 H 15.449 2.88654 -4.9533 0
M  V30 196 H 13.846 2.34044 -5.52579 0
M  V30 197 H 14.916 1.19327 -4.69988 0
M  V30 198 N 16.2591 1.48442 0.529413 0
M  V30 199 C 17.1891 1.65902 1.64313 0
M  V30 200 C 18.1701 0.507897 1.6234 0
M  V30 201 O 19.3551 0.740503 1.79528 0
M  V30 202 C 16.4851 1.69911 3.02898 0
M  V30 203 C 15.4391 2.8453 3.19729 0
M  V30 204 C 14.7651 2.73629 4.59381 0
M  V30 205 C 16.0651 4.25821 3.02447 0
M  V30 206 H 17.7591 2.5914 1.49955 0
M  V30 207 H 15.3051 1.24709 0.719982 0
M  V30 208 H 17.2581 1.80715 3.80684 0
M  V30 209 H 15.9821 0.732524 3.18279 0
M  V30 210 H 14.6411 2.73283 2.44361 0
M  V30 211 H 14.2891 1.74938 4.71599 0
M  V30 212 H 13.9891 3.50541 4.71588 0
M  V30 213 H 15.5131 2.86401 5.39265 0
M  V30 214 H 16.9271 4.37898 3.70024 0
M  V30 215 H 15.3241 5.03735 3.26146 0
M  V30 216 H 16.3941 4.42244 1.98867 0
M  V30 217 N 17.7372 -0.778329 1.37039 0
M  V30 218 C 18.6672 -1.90546 1.34962 0
M  V30 219 C 19.6482 -1.68681 0.219274 0
M  V30 220 O 20.8332 -1.89634 0.418624 0
M  V30 221 C 17.9632 -3.27734 1.14925 0
M  V30 222 C 16.9172 -3.64147 2.24902 0
M  V30 223 C 16.2432 -4.99806 1.89996 0
M  V30 224 C 17.5432 -3.71579 3.67051 0
M  V30 225 H 19.2372 -1.92541 2.29277 0
M  V30 226 H 16.7832 -0.924948 1.10366 0
M  V30 227 H 18.7362 -4.06215 1.12104 0
M  V30 228 H 17.4602 -3.26154 0.170631 0
M  V30 229 H 16.1192 -2.8797 2.26868 0
M  V30 230 H 15.7672 -4.94759 0.906796 0
M  V30 231 H 15.4672 -5.25139 2.63634 0
M  V30 232 H 16.9912 -5.80694 1.88749 0
M  V30 233 H 18.4052 -4.40227 3.67251 0
M  V30 234 H 16.8022 -4.08405 4.39688 0
M  V30 235 H 17.8722 -2.72404 4.01154 0
M  V30 236 N 19.2153 -1.21501 -1.00376 0
M  V30 237 C 20.4553 -1.04444 -1.75701 0
M  V30 238 C 20.8193 0.414644 -1.87469 0
M  V30 239 O 22.0203 0.705763 -2.59369 0
M  V30 240 C 20.2913 -1.72389 -3.13077 0
M  V30 241 S 21.8503 -1.70604 -4.04277 0
M  V30 242 H 18.6683 -0.374249 -0.604532 0
M  V30 243 H 21.2703 -1.54267 -1.20091 0
M  V30 244 H 19.9743 -2.77734 -3.02146 0
M  V30 245 H 19.5053 -1.22751 -3.73759 0
M  V30 246 H 21.5203 -0.748012 -4.9053 0
M  V30 247 N 20.6934 1.19889 -1.02296 0
M  V30 248 C 21.9184 1.9393 -0.735237 0
M  V30 249 C 22.3434 1.74639 0.698782 0
M  V30 250 O 21.7014 1.04481 1.48167 0
M  V30 251 C 21.7494 3.43916 -1.08417 0
M  V30 252 O 20.8534 4.11917 -0.199446 0
M  V30 253 H 20.1944 0.605645 -0.272196 0
M  V30 254 H 22.7244 1.52137 -1.36804 0
M  V30 255 H 22.7344 3.9456 -1.03856 0
M  V30 256 H 21.4094 3.5728 -2.12894 0
M  V30 257 H 19.9864 3.71666 -0.303136 0
M  V30 258 N 22.1715 0.800033 1.35784 0
M  V30 259 C 23.5825 0.439142 1.81462 0
M  V30 260 C 23.9335 -1.03813 1.66485 0
M  V30 261 O 23.0585 -1.80626 1.19177 0
M  V30 262 C 23.6535 0.790314 3.29453 0
M  V30 263 C 22.2125 0.482111 3.733 0
M  V30 264 C 21.3595 1.01938 2.57883 0
M  V30 265 H 24.3105 0.992254 1.23855 0
M  V30 266 H 24.3315 0.0853677 3.80404 0
M  V30 267 H 23.8435 1.86554 3.40322 0
M  V30 268 H 21.9445 -0.584652 3.67984 0
M  V30 269 H 22.0575 1.01015 4.6833 0
M  V30 270 H 20.4215 0.442043 2.50835 0
M  V30 271 H 21.2045 2.10059 2.71533 0
M  V30 272 N 23.6496 -1.47581 0.552962 0
M  V30 273 C 24.8896 -2.04379 0.0296245 0
M  V30 274 C 25.2536 -1.4185 -1.29393 0
M  V30 275 O 26.4546 -1.89669 -1.90471 0
M  V30 276 C 24.7256 -3.57339 -0.0661371 0
M  V30 277 S 26.2846 -4.35511 -0.536213 0
M  V30 278 H 23.1026 -0.710625 0.0230991 0
M  V30 279 H 25.7046 -1.81005 0.738734 0
M  V30 280 H 24.4086 -4.00374 0.901596 0
M  V30 281 H 23.9396 -3.85202 -0.798931 0
M  V30 282 H 25.9546 -4.6253 -1.79668 0
M  V30 283 N 25.1277 -0.289203 -1.54924 0
M  V30 284 C 26.0577 0.58549 -2.2604 0
M  V30 285 C 27.0387 1.14753 -1.25562 0
M  V30 286 O 28.2237 1.17906 -1.54311 0
M  V30 287 C 25.3537 1.76305 -2.99222 0
M  V30 288 C 24.3077 1.33191 -4.06748 0
M  V30 289 C 23.6337 2.5937 -4.6758 0
M  V30 290 C 24.9337 0.471775 -5.20165 0
M  V30 291 H 26.6277 -0.00763532 -2.99399 0
M  V30 292 H 24.1737 -0.00511229 -1.43999 0
M  V30 293 H 26.1267 2.38097 -3.47689 0
M  V30 294 H 24.8507 2.38223 -2.23422 0
M  V30 295 H 23.5097 0.737121 -3.59113 0
M  V30 296 H 23.1577 3.19576 -3.88433 0
M  V30 297 H 22.8577 2.31228 -5.40192 0
M  V30 298 H 24.3817 3.21985 -5.18804 0
M  V30 299 H 25.7957 0.995056 -5.64599 0
M  V30 300 H 24.1927 0.284639 -5.99425 0
M  V30 301 H 25.2627 -0.506041 -4.82252 0
M  V30 302 N 26.6058 1.57591 -0.0167156 0
M  V30 303 C 27.5358 2.12496 0.967858 0
M  V30 304 C 28.5168 1.03807 1.34752 0
M  V30 305 O 29.7018 1.31577 1.42833 0
M  V30 306 C 26.8318 2.64194 2.25431 0
M  V30 307 C 25.7858 3.77559 2.01576 0
M  V30 308 C 25.1118 4.15636 3.36379 0
M  V30 309 C 26.4118 5.04151 1.36489 0
M  V30 310 H 28.1058 2.95013 0.510643 0
M  V30 311 H 25.6518 1.41915 0.244181 0
M  V30 312 H 27.6048 3.01236 2.94678 0
M  V30 313 H 26.3288 1.78821 2.73296 0
M  V30 314 H 24.9878 3.40937 1.34751 0
M  V30 315 H 24.6358 3.27263 3.81979 0
M  V30 316 H 24.3358 4.92022 3.21229 0
M  V30 317 H 25.8598 4.5525 4.06915 0
M  V30 318 H 27.2738 5.38857 1.95718 0
M  V30 319 H 25.6708 5.85453 1.31776 0
M  V30 320 H 26.7408 4.83733 0.336219 0
M  V30 321 N 28.0839 -0.256276 1.55502 0
M  V30 322 C 29.3329 -0.983486 1.76098 0
M  V30 323 C 29.6459 -1.86837 0.578896 0
M  V30 324 O 30.8519 -2.63163 0.667648 0
M  V30 325 C 29.3079 -1.79868 3.1173 0
M  V30 326 C 28.9159 -0.961648 4.37557 0
M  V30 327 C 30.6599 -2.51919 3.41668 0
M  V30 328 C 28.5669 -1.77219 5.64223 0
M  V30 329 H 27.4969 -0.370936 0.656447 0
M  V30 330 H 30.1479 -0.238492 1.81944 0
M  V30 331 H 28.5299 -2.58527 2.99966 0
M  V30 332 H 29.7039 -0.218048 4.60284 0
M  V30 333 H 28.0189 -0.354913 4.14885 0
M  V30 334 H 30.6159 -3.12998 4.33516 0
M  V30 335 H 30.9589 -3.23059 2.62562 0
M  V30 336 H 31.4919 -1.80278 3.54605 0
M  V30 337 H 28.2309 -1.10471 6.46124 0
M  V30 338 H 27.7509 -2.49132 5.45613 0
M  V30 339 H 29.4299 -2.34169 6.03137 0
M  V30 340 N 29.562 -1.4872 -0.521534 0
M  V30 341 C 30.494 -1.59968 -1.64143 0
M  V30 342 C 31.507 -0.483463 -1.55456 0
M  V30 343 O 32.696 -0.75467 -1.61762 0
M  V30 344 C 29.796 -1.52127 -3.02838 0
M  V30 345 C 28.969 -2.78932 -3.36921 0
M  V30 346 C 28.028 -2.64428 -4.54933 0
M  V30 347 O 27.054 -3.38331 -4.57735 0
M  V30 348 N 28.256 -1.74606 -5.53618 0
M  V30 349 H 31.021 -2.56548 -1.54929 0
M  V30 350 H 28.582 -1.45551 -0.708988 0
M  V30 351 H 30.574 -1.40106 -3.79674 0
M  V30 352 H 29.144 -0.634868 -3.06085 0
M  V30 353 H 28.364 -3.05455 -2.4918 0
M  V30 354 H 29.652 -3.63041 -3.56481 0
M  V30 355 H 29.05 -1.13782 -5.54139 0
M  V30 356 H 27.607 -1.6852 -6.29638 0
M  V30 357 N 31.0401 0.771051 -1.3745 0
M  V30 358 C 32.2891 1.52491 -1.3202 0
M  V30 359 C 32.6021 1.9538 0.0927347 0
M  V30 360 O 33.8081 2.70159 0.269503 0
M  V30 361 C 32.2641 2.75366 -2.31736 0
M  V30 362 C 31.8721 2.39573 -3.78562 0
M  V30 363 C 33.6161 3.53307 -2.35318 0
M  V30 364 C 31.5231 3.58954 -4.70007 0
M  V30 365 H 30.4531 0.572506 -0.490666 0
M  V30 366 H 33.1041 0.844474 -1.62914 0
M  V30 367 H 31.4861 3.45303 -1.93861 0
M  V30 368 H 32.6601 1.77415 -4.25277 0
M  V30 369 H 30.9751 1.74805 -3.77932 0
M  V30 370 H 33.5721 4.42039 -3.00842 0
M  V30 371 H 33.9151 3.93217 -1.36698 0
M  V30 372 H 34.4481 2.90367 -2.71904 0
M  V30 373 H 31.1871 3.24125 -5.69757 0
M  V30 374 H 30.7071 4.20214 -4.27996 0
M  V30 375 H 32.3861 4.25758 -4.87175 0
M  V30 376 N 32.5182 1.22032 0.997298 0
M  V30 377 C 33.9292 1.0397 1.55071 0
M  V30 378 C 34.2802 -0.398192 1.92117 0
M  V30 379 O 33.4052 -1.28254 1.74298 0
M  V30 380 C 34.0002 1.88109 2.81781 0
M  V30 381 C 32.5592 1.74357 3.33581 0
M  V30 382 C 31.7062 1.84846 2.06706 0
M  V30 383 H 34.6572 1.35941 0.818883 0
M  V30 384 H 34.6782 1.39589 3.53971 0
M  V30 385 H 34.1902 2.92754 2.54787 0
M  V30 386 H 32.2912 0.72427 3.65493 0
M  V30 387 H 32.4042 2.56772 4.04481 0
M  V30 388 H 30.7682 1.28238 2.20062 0
M  V30 389 H 31.5512 2.91014 1.82114 0
M  V30 390 N 33.9963 -1.19345 1.0293 0
M  V30 391 C 34.9063 -2.26245 0.620515 0
M  V30 392 C 35.9223 -1.70486 -0.347928 0
M  V30 393 O 37.0983 -2.00347 -0.205704 0
M  V30 394 C 34.1633 -3.46693 -0.0218957 0
M  V30 395 C 33.2243 -4.17632 0.994102 0
M  V30 396 C 32.4573 -5.32329 0.382253 0
M  V30 397 O 32.6803 -5.64552 -0.814676 0
M  V30 398 O 31.6143 -5.91664 1.10531 0
M  V30 399 H 35.4403 -2.63453 1.51083 0
M  V30 400 H 33.0253 -1.26207 0.799513 0
M  V30 401 H 34.9073 -4.19683 -0.380072 0
M  V30 402 H 33.5823 -3.11333 -0.886209 0
M  V30 403 H 32.4893 -3.4676 1.40387 0
M  V30 404 H 33.8223 -4.56964 1.8288 0
M  V30 405 N 35.4744 -0.807222 -1.35358 0
M  V30 406 C 36.3844 -0.219594 -2.3357 0
M  V30 407 C 37.4004 0.637734 -1.61892 0
M  V30 408 O 38.5764 0.549336 -1.93763 0
M  V30 409 C 35.6414 0.62158 -3.41083 0
M  V30 410 C 34.7024 -0.256315 -4.28534 0
M  V30 411 C 33.9354 0.544807 -5.30912 0
M  V30 412 O 34.1584 1.77944 -5.41934 0
M  V30 413 O 33.0924 -0.0646478 -6.01865 0
M  V30 414 H 36.9184 -1.03208 -2.85625 0
M  V30 415 H 34.5034 -0.569025 -1.38139 0
M  V30 416 H 36.3854 1.10067 -4.06772 0
M  V30 417 H 35.0604 1.41165 -2.91297 0
M  V30 418 H 33.9674 -0.782559 -3.65823 0
M  V30 419 H 35.3004 -1.01034 -4.81719 0
M  V30 420 N 36.9525 1.47285 -0.560781 0
M  V30 421 C 38.1825 2.06555 -0.0429638 0
M  V30 422 C 38.5905 1.41339 1.25777 0
M  V30 423 O 37.9335 0.505182 1.76617 0
M  V30 424 C 37.9955 3.58827 0.219887 0
M  V30 425 C 37.6595 4.46105 -0.991944 0
M  V30 426 C 38.6565 4.84 -1.89843 0
M  V30 427 C 36.3415 4.87567 -1.20762 0
M  V30 428 C 38.3355 5.6216 -3.00425 0
M  V30 429 C 36.0225 5.65491 -2.31653 0
M  V30 430 C 37.0205 6.02699 -3.21315 0
M  V30 431 O 36.7085 6.79052 -4.30283 0
M  V30 432 H 36.4405 0.674537 -0.0444468 0
M  V30 433 H 38.9945 1.90225 -0.774818 0
M  V30 434 H 37.2245 3.73383 1.00609 0
M  V30 435 H 38.9135 4.00103 0.683522 0
M  V30 436 H 39.6795 4.52564 -1.74387 0
M  V30 437 H 35.5585 4.5807 -0.518893 0
M  V30 438 H 39.1025 5.9112 -3.70436 0
M  V30 439 H 34.9995 5.9634 -2.47081 0
M  V30 440 H 35.7675 6.9745 -4.28376 0
M  V30 441 N 38.4306 0.297415 1.54768 0
M  V30 442 C 39.3406 -0.58983 2.27064 0
M  V30 443 C 40.3566 -1.15144 1.30453 0
M  V30 444 O 41.5326 -1.17699 1.63428 0
M  V30 445 C 38.5976 -1.74714 2.9946 0
M  V30 446 C 37.6586 -1.21997 4.11601 0
M  V30 447 C 36.8916 -2.32212 4.80535 0
M  V30 448 O 37.1146 -3.52036 4.48806 0
M  V30 449 O 36.0486 -1.99106 5.68014 0
M  V30 450 H 39.8746 -0.00348199 3.037 0
M  V30 451 H 37.4596 0.0640035 1.49263 0
M  V30 452 H 39.3416 -2.42147 3.44881 0
M  V30 453 H 38.0166 -2.32016 2.25722 0
M  V30 454 H 36.9236 -0.511458 3.70587 0
M  V30 455 H 38.2566 -0.692419 4.87305 0
M  V30 456 N 39.9087 -1.5758 0.0250728 0
M  V30 457 C 41.1567 -1.91255 -0.653151 0
M  V30 458 C 41.4777 -0.901691 -1.729 0
M  V30 459 O 40.7477 0.0573785 -1.95816 0
M  V30 460 H 39.3277 -0.705942 -0.244243 0
M  V30 461 H 41.9897 -1.94767 0.0719209 0
M  V30 462 H 41.0857 -2.91752 -1.10847 0
M  V30 463 N 41.3868 0.248026 -1.55636 0
M  V30 464 C 42.3368 1.30994 -1.86614 0
M  V30 465 C 43.3208 1.43543 -0.726918 0
M  V30 466 O 44.5128 1.46804 -0.988818 0
M  V30 467 C 41.6418 2.6656 -2.16335 0
M  V30 468 C 40.7278 2.58019 -3.36581 0
M  V30 469 N 41.1188 2.1911 -4.55878 0
M  V30 470 C 39.4168 2.89035 -3.39669 0
M  V30 471 C 40.1178 2.21174 -5.38012 0
M  V30 472 N 39.0938 2.60632 -4.77045 0
M  V30 473 H 42.8958 0.999583 -2.76379 0
M  V30 474 H 40.4098 0.456652 -1.55848 0
M  V30 475 H 42.4068 3.43194 -2.36692 0
M  V30 476 H 41.0668 2.98463 -1.27867 0
M  V30 477 H 42.0778 1.90672 -4.81523 0
M  V30 478 H 38.7548 3.25485 -2.61469 0
M  V30 479 H 40.1448 1.9344 -6.43452 0
M  V30 480 N 42.8649 1.48995 0.513639 0
M  V30 481 C 43.8149 1.61127 1.61314 0
M  V30 482 C 44.7989 0.467521 1.53958 0
M  V30 483 O 45.9909 0.719826 1.61702 0
M  V30 484 C 43.1199 1.66937 2.99978 0
M  V30 485 C 42.2059 2.86847 3.12377 0
M  V30 486 N 42.5969 4.11078 2.94701 0
M  V30 487 C 40.8949 2.84521 3.43459 0
M  V30 488 C 41.5959 4.91615 3.10949 0
M  V30 489 N 40.5719 4.24739 3.3926 0
M  V30 490 H 44.3739 2.54909 1.46282 0
M  V30 491 H 41.8879 1.45593 0.719483 0
M  V30 492 H 43.8849 1.73725 3.78979 0
M  V30 493 H 42.5449 0.742831 3.16089 0
M  V30 494 H 43.5559 4.41258 2.71131 0
M  V30 495 H 40.2329 2.01192 3.65825 0
M  V30 496 H 41.6229 6.00264 3.01882 0
M  V30 497 N 44.343 -0.763751 1.37857 0
M  V30 498 C 45.589 -1.52483 1.33704 0
M  V30 499 C 45.922 -1.94051 -0.0759612 0
M  V30 500 O 45.197 -1.64675 -1.03501 0
M  V30 501 C 45.48 -2.78441 2.28348 0
M  V30 502 C 45.333 -2.43075 3.78463 0
M  V30 503 C 46.652 -3.80415 2.21298 0
M  V30 504 H 43.771 -0.553169 0.487005 0
M  V30 505 H 46.413 -0.875562 1.68624 0
M  V30 506 H 44.563 -3.33842 1.987 0
M  V30 507 H 46.235 -1.93527 4.18742 0
M  V30 508 H 44.478 -1.75666 3.96641 0
M  V30 509 H 45.149 -3.33149 4.40132 0
M  V30 510 H 47.625 -3.34527 2.47449 0
M  V30 511 H 46.501 -4.66257 2.89647 0
M  V30 512 H 46.762 -4.25262 1.20849 0
M  V30 513 N 45.8211 -1.22559 -0.990812 0
M  V30 514 C 46.7541 -0.940773 -2.07905 0
M  V30 515 C 47.7321 0.117082 -1.62178 0
M  V30 516 O 48.9161 -0.0149506 -1.88494 0
M  V30 517 C 46.0431 -0.415321 -3.36144 0
M  V30 518 C 45.0891 -1.45818 -4.00799 0
M  V30 519 S 45.9221 -3.03219 -4.41382 0
M  V30 520 C 47.0781 -2.52317 -5.72789 0
M  V30 521 H 47.3111 -1.8623 -2.31745 0
M  V30 522 H 44.8441 -1.05688 -1.12558 0
M  V30 523 H 46.8021 -0.118747 -4.10328 0
M  V30 524 H 45.4631 0.485121 -3.10331 0
M  V30 525 H 44.6561 -1.04044 -4.93144 0
M  V30 526 H 44.2581 -1.70356 -3.32949 0
M  V30 527 H 46.5501 -1.93688 -6.49224 0
M  V30 528 H 47.4931 -3.43161 -6.19392 0
M  V30 529 H 47.9011 -1.93529 -5.30289 0
M  V30 530 N 47.2992 1.18797 -1.03562 0
M  V30 531 C 48.2092 2.25913 -0.632505 0
M  V30 532 C 49.2252 1.70668 0.338882 0
M  V30 533 O 50.4012 2.00453 0.195076 0
M  V30 534 C 47.4662 3.467 0.00350942 0
M  V30 535 C 46.5272 4.17098 -1.01624 0
M  V30 536 C 45.7602 5.32119 -0.410478 0
M  V30 537 O 45.9832 5.64976 0.784725 0
M  V30 538 O 44.9172 5.9107 -1.13667 0
M  V30 539 H 48.7432 2.62648 -1.52478 0
M  V30 540 H 46.3282 1.25781 -0.806195 0
M  V30 541 H 48.2102 4.19878 0.35781 0
M  V30 542 H 46.8852 3.11798 0.869686 0
M  V30 543 H 45.7922 3.4601 -1.42224 0
M  V30 544 H 47.1252 4.55987 -1.85301 0
M  V30 545 N 48.7773 0.814389 1.34928 0
M  V30 546 C 50.1883 0.458364 1.80986 0
M  V30 547 C 50.5393 -1.02042 1.67577 0
M  V30 548 O 49.6643 -1.79352 1.21086 0
M  V30 549 C 50.2593 0.825212 3.28597 0
M  V30 550 C 48.8183 0.521677 3.72767 0
M  V30 551 C 47.9653 1.04668 2.56788 0
M  V30 552 H 50.9163 1.00533 1.22795 0
M  V30 553 H 50.9373 0.12571 3.80292 0
M  V30 554 H 50.4493 1.90154 3.38324 0
M  V30 555 H 48.5503 -0.545589 3.68584 0
M  V30 556 H 48.6633 1.05977 4.67232 0
M  V30 557 H 47.0273 0.468622 2.50352 0
M  V30 558 H 47.8103 2.12927 2.6929 0
M  V30 559 N 50.2554 -1.46986 0.568584 0
M  V30 560 C 51.6664 -1.86188 0.138219 0
M  V30 561 C 52.0174 -1.47388 -1.29504 0
M  V30 562 O 51.1424 -0.88219 -1.97602 0
M  V30 563 C 51.7374 -3.3792 0.244065 0
M  V30 564 C 50.2964 -3.76171 -0.131335 0
M  V30 565 C 49.4434 -2.71027 0.586465 0
M  V30 566 H 52.3944 -1.38342 0.777645 0
M  V30 567 H 52.4154 -3.76729 -0.534351 0
M  V30 568 H 51.9274 -3.66128 1.28731 0
M  V30 569 H 50.0284 -3.5358 -1.17526 0
M  V30 570 H 50.1414 -4.78523 0.235146 0
M  V30 571 H 48.5054 -2.54684 0.0282722 0
M  V30 572 H 49.2884 -3.02077 1.63109 0
M  V30 573 N 51.7335 -0.305618 -1.54608 0
M  V30 574 C 52.9795 0.302746 -2.00528 0
M  V30 575 C 53.3125 1.53184 -1.19367 0
M  V30 576 O 52.5875 1.92598 -0.271321 0
M  V30 577 C 52.8705 0.654756 -3.54097 0
M  V30 578 C 52.7235 -0.583793 -4.45995 0
M  V30 579 C 54.0425 1.47947 -4.14487 0
M  V30 580 H 51.1615 0.108564 -0.72896 0
M  V30 581 H 53.8035 -0.418634 -1.85331 0
M  V30 582 H 51.9535 1.26935 -3.67178 0
M  V30 583 H 53.6255 -1.22224 -4.44814 0
M  V30 584 H 51.8685 -1.21615 -4.16404 0
M  V30 585 H 52.5395 -0.293287 -5.5122 0
M  V30 586 H 55.0155 0.96013 -4.04871 0
M  V30 587 H 53.8915 1.69454 -5.22088 0
M  V30 588 H 54.1525 2.47011 -3.66658 0
M  V30 589 N 53.2116 1.57565 -0.0334293 0
M  V30 590 C 54.4606 1.91155 0.643639 0
M  V30 591 C 54.7736 0.91192 1.73042 0
M  V30 592 O 55.9796 1.13923 2.46442 0
M  V30 593 C 54.4356 3.39443 1.1961 0
M  V30 594 C 54.0436 4.47774 0.142381 0
M  V30 595 C 55.7876 3.82094 1.84944 0
M  V30 596 C 53.6946 5.87162 0.706727 0
M  V30 597 H 52.6246 0.713368 0.244176 0
M  V30 598 H 55.2756 1.8323 -0.0994323 0
M  V30 599 H 53.6576 3.42313 1.99092 0
M  V30 600 H 54.8316 4.56469 -0.630296 0
M  V30 601 H 53.1466 4.14352 -0.412446 0
M  V30 602 H 55.7436 4.83591 2.2813 0
M  V30 603 H 56.0866 3.17386 2.69392 0
M  V30 604 H 56.6196 3.81665 1.12145 0
M  V30 605 H 53.3586 6.55424 -0.0997178 0
M  V30 606 H 52.8786 5.82064 1.44779 0
M  V30 607 H 54.5576 6.35866 1.19514 0
M  V30 608 N 54.6897 -0.239769 1.55765 0
M  V30 609 C 55.9177 -0.98417 1.81994 0
M  V30 610 C 56.3327 -1.7867 0.610124 0
M  V30 611 O 55.6897 -1.77571 -0.421271 0
M  V30 612 C 55.7407 -1.91635 3.06526 0
M  V30 613 O 55.4617 -1.14629 4.22838 0
M  V30 614 C 56.9627 -2.77616 3.45607 0
M  V30 615 H 54.1827 -0.28928 0.605441 0
M  V30 616 H 56.7267 -0.260499 2.02834 0
M  V30 617 H 54.8817 -2.5942 2.87715 0
M  V30 618 H 55.2957 -1.77745 4.93464 0
M  V30 619 H 56.7697 -3.38759 4.35828 0
M  V30 620 H 57.2467 -3.4909 2.6652 0
M  V30 621 H 57.8527 -2.15271 3.66795 0
M  V30 622 N 56.1678 -1.49265 -0.50573 0
M  V30 623 C 57.0778 -1.68312 -1.63427 0
M  V30 624 C 58.0938 -0.565682 -1.64548 0
M  V30 625 O 59.2698 -0.839801 -1.83055 0
M  V30 626 C 56.3348 -1.74107 -2.99813 0
M  V30 627 C 55.3958 -2.97653 -3.09356 0
M  V30 628 C 54.6288 -3.03163 -4.39236 0
M  V30 629 O 54.8518 -2.16396 -5.27758 0
M  V30 630 O 53.7858 -3.9558 -4.53652 0
M  V30 631 H 57.6118 -2.63907 -1.50289 0
M  V30 632 H 55.1968 -1.32951 -0.681502 0
M  V30 633 H 57.0788 -1.803 -3.80881 0
M  V30 634 H 55.7538 -0.816901 -3.13223 0
M  V30 635 H 54.6608 -2.96981 -2.27493 0
M  V30 636 H 55.9938 -3.89535 -3.00871 0
M  V30 637 N 57.6459 0.756429 -1.3826 0
M  V30 638 C 58.5779 1.87971 -1.31147 0
M  V30 639 C 59.5909 1.61248 -0.224239 0
M  V30 640 O 60.7799 1.71881 -0.481581 0
M  V30 641 C 57.8799 3.23545 -1.00857 0
M  V30 642 C 57.0529 3.77794 -2.20432 0
M  V30 643 C 56.1119 4.91877 -1.86931 0
M  V30 644 O 55.1379 5.06659 -2.59395 0
M  V30 645 N 56.3399 5.74643 -0.822568 0
M  V30 646 H 59.1049 1.94585 -2.2794 0
M  V30 647 H 56.6659 0.936234 -1.32084 0
M  V30 648 H 58.6579 3.97403 -0.765021 0
M  V30 649 H 57.2279 3.12335 -0.128687 0
M  V30 650 H 56.4479 2.95534 -2.6087 0
M  V30 651 H 57.7359 4.10771 -3.00241 0
M  V30 652 H 57.1339 5.65266 -0.221575 0
M  V30 653 H 55.6909 6.48661 -0.638899 0
M  V30 654 N 59.124 1.23083 0.984299 0
M  V30 655 C 60.349 1.088 1.76571 0
M  V30 656 C 60.774 -0.356657 1.84688 0
M  V30 657 O 60.132 -1.25788 1.30565 0
M  V30 658 C 60.18 1.71371 3.17277 0
M  V30 659 O 59.284 0.973213 4.00752 0
M  V30 660 H 58.625 0.381599 0.543395 0
M  V30 661 H 61.155 1.63057 1.23587 0
M  V30 662 H 61.165 1.76449 3.67872 0
M  V30 663 H 59.84 2.76493 3.10684 0
M  V30 664 H 58.417 0.999078 3.59267 0
M  V30 665 N 60.6021 -1.18246 1.0419 0
M  V30 666 C 62.0131 -1.69914 0.773698 0
M  V30 667 C 62.3641 -1.83085 -0.705297 0
M  V30 668 O 61.4891 -1.51123 -1.5489 0
M  V30 669 C 62.0841 -3.08619 1.39784 0
M  V30 670 C 60.6431 -3.57494 1.17792 0
M  V30 671 C 59.7901 -2.34013 1.48773 0
M  V30 672 H 62.7411 -1.02904 1.20816 0
M  V30 673 H 62.7621 -3.71958 0.801714 0
M  V30 674 H 62.2741 -2.99001 2.47426 0
M  V30 675 H 60.3751 -3.72406 0.120295 0
M  V30 676 H 60.4881 -4.40852 1.87581 0
M  V30 677 H 58.8521 -2.37986 0.907463 0
M  V30 678 H 59.6351 -2.27013 2.57527 0
M  V30 679 N 62.0802 -0.821533 -1.34494 0
M  V30 680 C 63.4962 -0.507117 -1.51329 0
M  V30 681 C 63.6962 0.968964 -1.76673 0
M  V30 682 O 62.7522 1.75348 -1.81685 0
M  V30 683 C 64.0652 -1.36544 -2.67911 0
M  V30 684 C 65.6132 -1.36242 -2.81793 0
M  V30 685 C 66.0882 -2.2052 -4.01416 0
M  V30 686 N 67.5792 -2.18136 -4.08621 0
M  V30 687 C 68.3142 -2.80095 -5.00334 0
M  V30 688 N 67.8102 -3.51039 -5.9728 0
M  V30 689 N 69.6032 -2.69656 -4.93196 0
M  V30 690 H 61.7542 -1.77729 -1.16302 0
M  V30 691 H 64.0172 -0.757291 -0.570276 0
M  V30 692 H 63.7232 -2.41361 -2.55808 0
M  V30 693 H 63.5972 -1.02917 -3.62888 0
M  V30 694 H 65.9842 -0.322041 -2.93338 0
M  V30 695 H 66.0652 -1.73866 -1.87628 0
M  V30 696 H 65.7092 -3.24607 -3.90631 0
M  V30 697 H 65.6392 -1.80247 -4.94791 0
M  V30 698 H 68.1302 -1.6653 -3.39229 0
M  V30 699 H 68.4432 -3.95565 -6.63889 0
M  V30 700 H 66.7882 -3.55145 -5.97409 0
M  V30 701 H 69.9792 -2.13808 -4.16418 0
M  V30 702 H 70.1522 -3.1823 -5.64476 0
M  V30 703 N 63.5583 1.46682 -0.576371 0
M  V30 704 C 64.9743 1.57822 -0.237562 0
M  V30 705 C 65.1743 1.57237 1.26011 0
M  V30 706 O 64.2303 1.48596 2.04146 0
M  V30 707 C 65.5433 2.87499 -0.881168 0
M  V30 708 C 67.0913 3.01119 -0.85417 0
M  V30 709 C 67.5663 4.33524 -1.4772 0
M  V30 710 N 69.0573 4.40207 -1.44125 0
M  V30 711 C 69.7923 5.4126 -1.89276 0
M  V30 712 N 69.2883 6.49021 -2.42371 0
M  V30 713 N 71.0813 5.32422 -1.80231 0
M  V30 714 H 63.2323 1.45306 -1.54919 0
M  V30 715 H 65.4953 0.692733 -0.647167 0
M  V30 716 H 65.2013 2.9372 -1.93447 0
M  V30 717 H 65.0753 3.75224 -0.385592 0
M  V30 718 H 67.4623 2.94485 0.190491 0
M  V30 719 H 67.5433 2.14887 -1.3877 0
M  V30 720 H 67.1873 4.40916 -2.52103 0
M  V30 721 H 67.1173 5.1852 -0.918947 0
M  V30 722 H 69.6083 3.62931 -1.05307 0
M  V30 723 H 69.9213 7.2233 -2.74698 0
M  V30 724 H 68.2663 6.49858 -2.46393 0
M  V30 725 H 71.4573 4.47137 -1.38514 0
M  V30 726 H 71.6303 6.11034 -2.15735 0
M  V30 727 N 65.0364 0.313813 1.54444 0
M  V30 728 C 65.9664 -0.549454 2.26943 0
M  V30 729 C 66.9474 -1.12741 1.27372 0
M  V30 730 O 68.1324 -1.15436 1.56167 0
M  V30 731 C 65.2624 -1.71523 3.01989 0
M  V30 732 C 64.2164 -1.26703 4.08816 0
M  V30 733 C 63.5424 -2.51898 4.71647 0
M  V30 734 C 64.8424 -0.388962 5.2085 0
M  V30 735 H 66.5364 0.0552661 2.99349 0
M  V30 736 H 64.0824 0.0280207 1.43973 0
M  V30 737 H 66.0354 -2.32535 3.51433 0
M  V30 738 H 64.7594 -2.34639 2.27183 0
M  V30 739 H 63.4184 -0.679896 3.6024 0
M  V30 740 H 63.0664 -3.13356 3.93468 0
M  V30 741 H 62.7664 -2.22605 5.43802 0
M  V30 742 H 64.2904 -3.1369 5.23861 0
M  V30 743 H 65.7044 -0.905107 5.6611 0
M  V30 744 H 64.1014 -0.18924 5.99802 0
M  V30 745 H 65.1714 0.582699 4.81386 0
M  V30 746 N 66.5145 -1.57545 0.0417849 0
M  V30 747 C 67.7605 -1.92601 -0.635021 0
M  V30 748 C 68.0935 -0.919627 -1.71045 0
M  V30 749 O 67.3685 0.0557892 -1.9442 0
M  V30 750 C 67.6515 -3.38085 -1.23979 0
M  V30 751 C 67.5045 -4.49467 -0.173057 0
M  V30 752 C 68.8235 -3.83776 -2.15416 0
M  V30 753 H 65.9425 -0.700397 -0.229374 0
M  V30 754 H 68.5845 -1.89728 0.101633 0
M  V30 755 H 66.7345 -3.40664 -1.86762 0
M  V30 756 H 68.4065 -4.59018 0.458312 0
M  V30 757 H 66.6495 -4.30909 0.499996 0
M  V30 758 H 67.3205 -5.48323 -0.636054 0
M  V30 759 H 69.7965 -3.83013 -1.62605 0
M  V30 760 H 68.6725 -4.8624 -2.54679 0
M  V30 761 H 68.9335 -3.19998 -3.05047 0
M  V30 762 N 67.9926 0.231505 -1.5589 0
M  V30 763 C 69.2386 0.95877 -1.78705 0
M  V30 764 C 69.5716 1.8438 -0.609725 0
M  V30 765 O 68.8466 1.90521 0.391426 0
M  V30 766 C 69.1296 1.8062 -3.11526 0
M  V30 767 C 68.9826 0.948328 -4.39689 0
M  V30 768 C 70.3016 2.78585 -3.40703 0
M  V30 769 H 67.4206 0.347129 -0.650131 0
M  V30 770 H 70.0626 0.228259 -1.88624 0
M  V30 771 H 68.2126 2.42902 -3.03201 0
M  V30 772 H 69.8846 0.343016 -4.60023 0
M  V30 773 H 68.1276 0.253314 -4.3306 0
M  V30 774 H 68.7986 1.57543 -5.29041 0
M  V30 775 H 71.2746 2.26439 -3.49091 0
M  V30 776 H 70.1506 3.34988 -4.34826 0
M  V30 777 H 70.4116 3.55825 -2.62375 0
M  V30 778 N 69.4707 1.49531 0.497807 0
M  V30 779 C 70.7177 1.59179 1.25173 0
M  V30 780 C 71.0457 0.279932 1.92475 0
M  V30 781 O 70.3007 -0.732383 1.81479 0
M  V30 782 C 70.5997 2.70252 2.33878 0
M  V30 783 C 70.2657 4.11644 1.84012 0
M  V30 784 C 68.9277 4.50121 1.70132 0
M  V30 785 C 71.2797 5.00121 1.46725 0
M  V30 786 C 68.6077 5.74845 1.17348 0
M  V30 787 C 70.9597 6.25366 0.95392 0
M  V30 788 C 69.6237 6.6267 0.801538 0
M  V30 789 H 68.8937 0.582478 0.45804 0
M  V30 790 H 71.5407 1.83373 0.551948 0
M  V30 791 H 69.8457 2.40041 3.09657 0
M  V30 792 H 71.5427 2.74925 2.9192 0
M  V30 793 H 68.1327 3.81274 1.95775 0
M  V30 794 H 72.3167 4.71048 1.56294 0
M  V30 795 H 67.5727 6.02444 1.04264 0
M  V30 796 H 71.7467 6.93301 0.656225 0
M  V30 797 H 69.3737 7.59197 0.390351 0
M  V30 798 N 70.9488 -0.749086 1.3866 0
M  V30 799 C 72.3598 -1.32664 1.31366 0
M  V30 800 C 72.7108 -1.96179 -0.028484 0
M  V30 801 O 71.8358 -1.9537 -0.93057 0
M  V30 802 C 72.4308 -2.41219 2.37905 0
M  V30 803 C 70.9898 -2.94684 2.34176 0
M  V30 804 C 70.1368 -1.68108 2.20533 0
M  V30 805 H 73.0878 -0.547628 1.48952 0
M  V30 806 H 73.1088 -3.21268 2.0388 0
M  V30 807 H 72.6208 -1.94962 3.35576 0
M  V30 808 H 70.7218 -3.45258 1.401 0
M  V30 809 H 70.8348 -3.48757 3.2849 0
M  V30 810 H 69.1988 -1.91907 1.67463 0
M  V30 811 H 69.9818 -1.23923 3.20153 0
M  V30 812 N 72.4269 -1.23603 -0.977757 0
M  V30 813 C 73.6549 -1.09646 -1.75458 0
M  V30 814 C 74.0699 0.351859 -1.85492 0
M  V30 815 O 73.4269 1.24327 -1.336 0
M  V30 816 C 73.4779 -1.71895 -3.18016 0
M  V30 817 O 73.1989 -3.11063 -3.08498 0
M  V30 818 C 74.6999 -1.63415 -4.12081 0
M  V30 819 H 71.9199 -0.38359 -0.550545 0
M  V30 820 H 74.4639 -1.63507 -1.22824 0
M  V30 821 H 72.6189 -1.22061 -3.67668 0
M  V30 822 H 73.0329 -3.41305 -3.9826 0
M  V30 823 H 74.5069 -2.11669 -5.09804 0
M  V30 824 H 74.9839 -0.593462 -4.35172 0
M  V30 825 H 75.5899 -2.12628 -3.68334 0
M  V30 826 N 73.905 1.17692 -1.04816 0
M  V30 827 C 75.182 1.83768 -0.669963 0
M  V30 828 C 75.562 1.93232 0.849986 0
M  V30 829 O 74.91 1.46397 1.75443 0
M  V30 830 C 75.12 3.21641 -1.35455 0
M  V30 831 C 76.468 3.97592 -1.49017 0
M  V30 832 O 77.492 3.31107 -1.31326 0
M  V30 833 O 76.351 5.16729 -1.77914 0
M  V30 834 H 73.445 0.792799 -0.235368 0
M  V30 835 H 75.991 1.25021 -1.14751 0
M  V30 836 H 74.763 3.097 -2.39168 0
M  V30 837 H 74.386 3.88052 -0.866107 0
M  V30 838 N 75.3831 0.828654 1.34056 0
M  V30 839 C 76.6601 0.341809 1.9259 0
M  V30 840 C 77.0401 -1.17158 1.75605 0
M  V30 841 O 76.3881 -1.98132 1.13824 0
M  V30 842 C 76.5981 0.777453 3.4023 0
M  V30 843 C 77.9461 0.779579 4.17382 0
M  V30 844 O 78.9701 0.7204 3.48839 0
M  V30 845 O 77.8291 0.857996 5.39723 0
M  V30 846 H 74.9231 0.0946085 0.821571 0
M  V30 847 H 77.4691 0.913827 1.42994 0
M  V30 848 H 76.2411 1.8196 3.46419 0
M  V30 849 H 75.8641 0.181444 3.97186 0
M  V30 850 N 76.8612 -1.46375 0.584142 0
M  V30 851 C 78.1102 -2.01585 0.0679741 0
M  V30 852 C 78.4232 -1.46109 -1.30045 0
M  V30 853 O 79.6292 -1.93148 -1.90804 0
M  V30 854 C 78.0852 -3.5983 0.0709207 0
M  V30 855 C 77.6932 -4.24303 1.43775 0
M  V30 856 C 79.4372 -4.22693 -0.391228 0
M  V30 857 C 77.3442 -5.74631 1.39834 0
M  V30 858 H 76.2742 -0.753689 0.0216421 0
M  V30 859 H 78.9252 -1.68093 0.736001 0
M  V30 860 H 77.3072 -3.90405 -0.663299 0
M  V30 861 H 78.4812 -4.05335 2.19181 0
M  V30 862 H 76.7962 -3.73539 1.84004 0
M  V30 863 H 79.3932 -5.3289 -0.439524 0
M  V30 864 H 79.7362 -3.91728 -1.40906 0
M  V30 865 H 80.2692 -3.96749 0.288974 0
M  V30 866 H 77.0082 -6.10258 2.39303 0
M  V30 867 H 76.5282 -5.95858 0.686505 0
M  V30 868 H 78.2072 -6.37375 1.11187 0
M  V30 869 N 78.3393 -0.321999 -1.54275 0
M  V30 870 C 79.5643 0.285791 -2.05422 0
M  V30 871 C 79.9893 1.45124 -1.19669 0
M  V30 872 O 79.3473 1.80132 -0.205441 0
M  V30 873 C 79.3953 0.69956 -3.53749 0
M  V30 874 O 78.4993 1.8021 -3.70942 0
M  V30 875 H 77.8403 0.0518962 -0.661969 0
M  V30 876 H 80.3703 -0.469954 -1.9913 0
M  V30 877 H 80.3803 0.982649 -3.9599 0
M  V30 878 H 79.0553 -0.152864 -4.15619 0
M  V30 879 H 77.6323 1.51794 -3.40607 0
M  V30 880 N 79.8174 1.5752 -0.0501392 0
M  V30 881 C 80.7474 2.14502 0.922566 0
M  V30 882 C 81.7284 1.06642 1.3252 0
M  V30 883 O 82.9134 1.34577 1.4001 0
M  V30 884 C 80.0434 2.68916 2.19776 0
M  V30 885 C 78.9974 3.8175 1.93523 0
M  V30 886 C 78.3234 4.22677 3.27487 0
M  V30 887 C 79.6234 5.06932 1.25765 0
M  V30 888 H 81.3174 2.9603 0.447952 0
M  V30 889 H 78.8634 1.42401 0.214024 0
M  V30 890 H 80.8164 3.07419 2.88222 0
M  V30 891 H 79.5404 1.84578 2.69441 0
M  V30 892 H 78.1994 3.43718 1.27489 0
M  V30 893 H 77.8474 3.35291 3.74952 0
M  V30 894 H 77.5474 4.98725 3.1072 0
M  V30 895 H 79.0714 4.63779 3.97166 0
M  V30 896 H 80.4854 5.42888 1.84244 0
M  V30 897 H 78.8824 5.88116 1.19328 0
M  V30 898 H 79.9524 4.84337 0.233536 0
M  V30 899 N 81.2955 -0.223234 1.56011 0
M  V30 900 C 82.2425 -1.27664 1.92277 0
M  V30 901 C 83.2125 -1.46659 0.779763 0
M  V30 902 O 84.3975 -1.60256 1.03551 0
M  V30 903 C 81.5375 -2.62234 2.24338 0
M  V30 904 C 80.6505 -2.51051 3.51564 0
M  V30 905 C 79.7855 -3.78133 3.7308 0
M  V30 906 C 78.8245 -3.61665 4.93827 0
M  V30 907 N 77.9615 -4.80693 5.11741 0
M  V30 908 H 82.8015 -0.960358 2.82101 0
M  V30 909 H 80.3385 -0.462901 1.39627 0
M  V30 910 H 82.2965 -3.40596 2.40936 0
M  V30 911 H 80.9265 -2.91961 1.3769 0
M  V30 912 H 79.9785 -1.64132 3.43169 0
M  V30 913 H 81.2905 -2.34803 4.40079 0
M  V30 914 H 80.4445 -4.64938 3.89766 0
M  V30 915 H 79.1835 -3.97304 2.82844 0
M  V30 916 H 78.1885 -2.73244 4.77093 0
M  V30 917 H 79.4135 -3.43966 5.85546 0
M  V30 918 H 77.3595 -5.00181 4.24446 0
M  V30 919 H 77.2765 -4.67165 5.94384 0
M  V30 920 H 78.5445 -5.6893 5.3286 0
M  V30 921 N 82.7736 -1.49793 -0.48987 0
M  V30 922 C 84.0136 -1.61466 -1.25332 0
M  V30 923 C 84.3776 -0.299688 -1.89647 0
M  V30 924 O 85.5786 -0.291687 -2.67213 0
M  V30 925 C 83.8496 -2.74944 -2.28343 0
M  V30 926 S 85.4086 -3.06637 -3.13878 0
M  V30 927 H 82.2266 -0.569411 -0.425784 0
M  V30 928 H 84.8286 -1.875 -0.553541 0
M  V30 929 H 83.5326 -3.68994 -1.79643 0
M  V30 930 H 83.0636 -2.50938 -3.02975 0
M  V30 931 H 85.0786 -2.49015 -4.29192 0
M  V30 932 N 84.2517 0.741722 -1.39055 0
M  V30 933 C 85.1617 1.88621 -1.39496 0
M  V30 934 C 86.1777 1.71557 -0.290578 0
M  V30 935 O 87.3537 1.94275 -0.530954 0
M  V30 936 C 84.4187 3.24134 -1.23037 0
M  V30 937 C 83.4797 3.5364 -2.43387 0
M  V30 938 C 82.7127 4.82687 -2.27703 0
M  V30 939 O 82.9357 5.55922 -1.27696 0
M  V30 940 O 81.8697 5.1194 -3.16545 0
M  V30 941 H 85.6957 1.91203 -2.35956 0
M  V30 942 H 83.2807 0.888625 -1.20099 0
M  V30 943 H 85.1627 4.0513 -1.15964 0
M  V30 944 H 83.8377 3.22337 -0.296691 0
M  V30 945 H 82.7447 2.72758 -2.56035 0
M  V30 946 H 84.0777 3.60209 -3.35425 0
M  V30 947 N 85.7298 1.2412 0.971189 0
M  V30 948 C 86.6928 1.03156 2.04674 0
M  V30 949 C 87.6928 -0.00990322 1.60797 0
M  V30 950 O 88.8828 0.230729 1.72665 0
M  V30 951 C 86.0148 0.562765 3.36223 0
M  V30 952 H 87.2078 1.98614 2.24705 0
M  V30 953 H 84.7608 1.06293 1.14593 0
M  V30 954 H 85.4958 -0.395176 3.21883 0
M  V30 955 H 85.2808 1.31441 3.69413 0
M  V30 956 H 86.7708 0.437015 4.15307 0
M  V30 957 N 87.2079 -1.17134 1.05439 0
M  V30 958 C 88.4329 -1.91913 0.786396 0
M  V30 959 C 88.8579 -1.7643 -0.652234 0
M  V30 960 O 88.2159 -1.08372 -1.45345 0
M  V30 961 C 88.2639 -3.40921 1.17497 0
M  V30 962 O 87.3679 -4.11244 0.308589 0
M  V30 963 H 86.7089 -0.598215 0.288158 0
M  V30 964 H 89.2389 -1.48457 1.4079 0
M  V30 965 H 89.2489 -3.91668 1.14281 0
M  V30 966 H 87.9239 -3.5151 2.22292 0
M  V30 967 H 86.5009 -3.70731 0.40157 0
M  V30 968 N 88.686 -0.835752 -1.33615 0
M  V30 969 C 89.934 -0.429109 -1.97492 0
M  V30 970 C 90.255 1.01433 -1.66543 0
M  V30 971 O 89.525 1.70611 -0.962744 0
M  V30 972 H 88.105 -0.155686 -0.730596 0
M  V30 973 H 90.767 -1.06802 -1.63031 0
M  V30 974 H 89.863 -0.55861 -3.0706 0
M  V30 975 N 90.1641 1.46063 -0.591896 0
M  V30 976 C 91.1111 2.30399 0.136069 0
M  V30 977 C 92.0811 1.41169 0.875238 0
M  V30 978 O 93.2661 1.70112 0.86409 0
M  V30 979 C 90.4061 3.25804 1.13781 0
M  V30 980 C 89.5191 4.30134 0.401137 0
M  V30 981 C 88.6541 5.12659 1.39121 0
M  V30 982 C 87.6931 6.0873 0.641462 0
M  V30 983 N 86.8301 6.8409 1.58004 0
M  V30 984 H 91.6701 2.92118 -0.589144 0
M  V30 985 H 89.2071 1.43959 -0.302342 0
M  V30 986 H 91.1651 3.79569 1.73156 0
M  V30 987 H 89.7951 2.65872 1.83062 0
M  V30 988 H 88.8471 3.79152 -0.307826 0
M  V30 989 H 90.1591 4.98458 -0.184565 0
M  V30 990 H 89.3131 5.70747 2.05749 0
M  V30 991 H 88.0521 4.44316 2.01084 0
M  V30 992 H 87.0571 5.49786 -0.0385419 0
M  V30 993 H 88.2821 6.79095 0.0270945 0
M  V30 994 H 86.2281 6.18449 2.18761 0
M  V30 995 H 86.1451 7.48709 1.04738 0
M  V30 996 H 87.4131 7.4673 2.23639 0
M  V30 997 N 91.6422 0.330177 1.54103 0
M  V30 998 C 93.0532 -0.15652 1.86043 0
M  V30 999 C 93.4042 -1.51086 1.2517 0
M  V30 1000 O 92.5292 -2.09023 0.560217 0
M  V30 1001 C 93.1242 -0.290784 3.3755 0
M  V30 1002 C 91.6832 -0.721705 3.69416 0
M  V30 1003 C 90.8302 0.152622 2.7688 0
M  V30 1004 H 93.7812 0.550237 1.48856 0
M  V30 1005 H 93.8022 -1.12058 3.63625 0
M  V30 1006 H 93.3142 0.695068 3.81825 0
M  V30 1007 H 91.4152 -1.71706 3.30678 0
M  V30 1008 H 91.5282 -0.520869 4.7626 0
M  V30 1009 H 89.8922 -0.372894 2.51956 0
M  V30 1010 H 90.6752 1.13536 3.23982 0
M  V30 1011 N 93.1203 -1.57491 0.0584922 0
M  V30 1012 C 94.0303 -2.15448 -0.928414 0
M  V30 1013 C 95.0463 -1.11416 -1.3365 0
M  V30 1014 O 96.2223 -1.4362 -1.41193 0
M  V30 1015 C 93.2873 -2.69393 -2.18239 0
M  V30 1016 C 92.3483 -3.88249 -1.83196 0
M  V30 1017 C 91.5813 -4.39613 -3.02616 0
M  V30 1018 O 91.8043 -3.90023 -4.16219 0
M  V30 1019 O 90.7383 -5.31111 -2.83204 0
M  V30 1020 H 94.5643 -3.00112 -0.465483 0
M  V30 1021 H 92.1493 -1.48499 -0.163826 0
M  V30 1022 H 94.0313 -3.04026 -2.91798 0
M  V30 1023 H 92.7063 -1.87796 -2.63656 0
M  V30 1024 H 91.6133 -3.58492 -1.06931 0
M  V30 1025 H 92.9463 -4.71098 -1.42573 0
M  V30 1026 N 94.5984 0.214957 -1.56127 0
M  V30 1027 C 95.8444 0.939762 -1.79712 0
M  V30 1028 C 96.1774 1.83723 -0.629247 0
M  V30 1029 O 95.4524 1.90925 0.371197 0
M  V30 1030 C 95.7354 1.77306 -3.13424 0
M  V30 1031 C 95.5884 0.90164 -4.40671 0
M  V30 1032 C 96.9074 2.74956 -3.43638 0
M  V30 1033 H 94.0264 0.340214 -0.653776 0
M  V30 1034 H 96.6684 0.20824 -1.88855 0
M  V30 1035 H 94.8184 2.39673 -3.0576 0
M  V30 1036 H 96.4904 0.294206 -4.60361 0
M  V30 1037 H 94.7334 0.207368 -4.33304 0
M  V30 1038 H 95.4044 1.51923 -5.30682 0
M  V30 1039 H 97.8804 2.22724 -3.51473 0
M  V30 1040 H 96.7564 3.30358 -4.38355 0
M  V30 1041 H 97.0174 3.53023 -2.66134 0
M  V30 1042 N 96.0765 1.50051 0.48192 0
M  V30 1043 C 97.0085 1.64263 1.59844 0
M  V30 1044 C 98.0215 0.52451 1.54119 0
M  V30 1045 O 99.2105 0.797293 1.59704 0
M  V30 1046 C 96.3105 1.60102 2.98698 0
M  V30 1047 C 95.4835 2.87767 3.29407 0
M  V30 1048 C 94.5425 2.76397 4.47762 0
M  V30 1049 O 93.5685 3.50348 4.48603 0
M  V30 1050 N 94.7705 1.89222 5.48794 0
M  V30 1051 H 97.5355 2.60566 1.48073 0
M  V30 1052 H 95.0965 1.47379 0.670149 0
M  V30 1053 H 97.0885 1.50123 3.75826 0
M  V30 1054 H 95.6585 0.715798 3.04294 0
M  V30 1055 H 94.8785 3.11954 2.40994 0
M  V30 1056 H 96.1665 3.72365 3.4673 0
M  V30 1057 H 95.5645 1.28434 5.50928 0
M  V30 1058 H 94.1215 1.85154 6.24949 0
M  V30 1059 N 97.5546 -0.734337 1.39446 0
M  V30 1060 C 98.8016 -1.49391 1.36706 0
M  V30 1061 C 99.1296 -1.94465 -0.0367813 0
M  V30 1062 O 98.3846 -1.67154 -1.01774 0
M  V30 1063 C 98.6836 -2.74711 2.28623 0
M  V30 1064 C 98.3496 -2.48501 3.76242 0
M  V30 1065 C 97.0116 -2.41062 4.16464 0
M  V30 1066 C 99.3636 -2.26098 4.69606 0
M  V30 1067 C 96.6916 -2.09262 5.48112 0
M  V30 1068 C 99.0436 -1.95814 6.01531 0
M  V30 1069 C 97.7076 -1.86845 6.40816 0
M  V30 1070 H 96.9776 -0.546661 0.500243 0
M  V30 1071 H 99.6246 -0.842788 1.71957 0
M  V30 1072 H 97.9296 -3.44569 1.86492 0
M  V30 1073 H 99.6266 -3.32741 2.23796 0
M  V30 1074 H 96.2166 -2.55169 3.44364 0
M  V30 1075 H 100.401 -2.30812 4.39363 0
M  V30 1076 H 95.6566 -2.00841 5.77471 0
M  V30 1077 H 99.8306 -1.77488 6.73403 0
M  V30 1078 H 97.4576 -1.6197 7.42745 0
M  V30 1079 N 99.0327 -1.24633 -0.964593 0
M  V30 1080 C 100.449 -1.01239 -1.2338 0
M  V30 1081 C 100.649 0.2769 -1.99588 0
M  V30 1082 O 99.7047 0.992241 -2.32187 0
M  V30 1083 C 101.018 -2.22937 -2.01791 0
M  V30 1084 C 102.566 -2.27594 -2.14872 0
M  V30 1085 C 103.041 -3.48921 -2.96678 0
M  V30 1086 N 104.532 -3.49257 -3.04259 0
M  V30 1087 C 105.267 -4.39795 -3.67924 0
M  V30 1088 N 104.763 -5.40591 -4.33281 0
M  V30 1089 N 106.556 -4.275 -3.64966 0
M  V30 1090 H 98.7067 -2.0748 -0.454502 0
M  V30 1091 H 100.97 -0.910647 -0.26349 0
M  V30 1092 H 100.676 -3.16587 -1.53184 0
M  V30 1093 H 100.55 -2.25306 -3.02518 0
M  V30 1094 H 102.937 -1.34473 -2.6268 0
M  V30 1095 H 103.018 -2.2925 -1.13482 0
M  V30 1096 H 102.662 -4.42359 -2.49562 0
M  V30 1097 H 102.592 -3.4451 -3.98272 0
M  V30 1098 H 105.083 -2.76337 -2.57771 0
M  V30 1099 H 105.396 -6.05904 -4.79687 0
M  V30 1100 H 103.741 -5.44475 -4.3194 0
M  V30 1101 H 106.932 -3.47987 -3.13086 0
M  V30 1102 H 107.105 -4.98258 -4.14298 0
M  V30 1103 N 100.511 1.16574 -1.06058 0
M  V30 1104 C 101.757 1.87565 -0.78683 0
M  V30 1105 C 102.112 1.80012 0.679214 0
M  V30 1106 O 101.405 1.20327 1.49104 0
M  V30 1107 C 101.599 3.36195 -1.21275 0
M  V30 1108 C 101.428 3.58216 -2.71866 0
M  V30 1109 C 100.198 3.7444 -3.39298 0
M  V30 1110 C 102.396 3.57134 -3.70081 0
M  V30 1111 N 100.378 3.84389 -4.78663 0
M  V30 1112 C 101.749 3.73038 -4.9522 0
M  V30 1113 C 103.804 3.40332 -3.63426 0
M  V30 1114 C 102.507 3.73879 -6.14497 0
M  V30 1115 C 104.533 3.42466 -4.82153 0
M  V30 1116 C 103.895 3.58887 -6.06118 0
M  V30 1117 H 99.9938 0.704081 -0.340284 0
M  V30 1118 H 102.578 1.39885 -1.35426 0
M  V30 1119 H 100.749 3.82522 -0.673179 0
M  V30 1120 H 102.481 3.94839 -0.887917 0
M  V30 1121 H 99.2358 3.74662 -2.89699 0
M  V30 1122 H 99.6598 3.93138 -5.51155 0
M  V30 1123 H 104.302 3.26566 -2.68541 0
M  V30 1124 H 102.02 3.86427 -7.09718 0
M  V30 1125 H 105.606 3.30712 -4.78666 0
M  V30 1126 H 104.486 3.60454 -6.9645 0
M  V30 1127 N 101.989 0.842826 1.3317 0
M  V30 1128 C 103.217 0.454055 2.01856 0
M  V30 1129 C 103.632 -0.94587 1.63397 0
M  V30 1130 O 102.989 -1.61534 0.849302 0
M  V30 1131 C 103.04 0.569715 3.56982 0
M  V30 1132 O 102.761 1.91448 3.94055 0
M  V30 1133 C 104.262 0.178412 4.42941 0
M  V30 1134 H 101.482 0.17979 0.646465 0
M  V30 1135 H 104.026 1.1365 1.70012 0
M  V30 1136 H 102.181 -0.0648587 3.87346 0
M  V30 1137 H 102.595 1.90282 4.88767 0
M  V30 1138 H 104.069 0.310376 5.51127 0
M  V30 1139 H 104.546 -0.880056 4.30293 0
M  V30 1140 H 105.152 0.787579 4.17944 0
M  V30 1141 N 103.467 -1.45747 0.599634 0
M  V30 1142 C 104.883 -1.57424 0.26264 0
M  V30 1143 C 105.083 -1.59222 -1.23493 0
M  V30 1144 O 104.139 -1.51825 -2.01756 0
M  V30 1145 C 105.452 -2.86061 0.926795 0
M  V30 1146 C 107 -2.99722 0.901967 0
M  V30 1147 C 107.475 -4.31119 1.54598 0
M  V30 1148 N 108.966 -4.37858 1.5111 0
M  V30 1149 C 109.701 -5.3818 1.97863 0
M  V30 1150 N 109.197 -6.45083 2.52666 0
M  V30 1151 N 110.99 -5.29487 1.88679 0
M  V30 1152 H 103.141 -1.42823 1.57211 0
M  V30 1153 H 105.404 -0.68235 0.658105 0
M  V30 1154 H 105.11 -2.90605 1.98095 0
M  V30 1155 H 104.984 -3.74563 0.445238 0
M  V30 1156 H 107.371 -2.9475 -0.143617 0
M  V30 1157 H 107.452 -2.12652 1.42171 0
M  V30 1158 H 107.096 -4.36849 2.59085 0
M  V30 1159 H 107.026 -5.16992 1.00132 0
M  V30 1160 H 109.517 -3.61209 1.11068 0
M  V30 1161 H 109.83 -7.17869 2.86155 0
M  V30 1162 H 108.175 -6.45856 2.56701 0
M  V30 1163 H 111.366 -4.44877 1.4561 0
M  V30 1164 H 111.539 -6.07524 2.25429 0
M  V30 1165 N 104.945 -0.338344 -1.53925 0
M  V30 1166 C 106.222 0.314774 -1.93051 0
M  V30 1167 C 106.602 1.68669 -1.26941 0
M  V30 1168 O 105.95 2.24636 -0.418445 0
M  V30 1169 C 106.16 0.392249 -3.46789 0
M  V30 1170 C 107.508 0.645554 -4.19664 0
M  V30 1171 O 108.532 0.474575 -3.53024 0
M  V30 1172 O 107.391 0.976408 -5.37707 0
M  V30 1173 H 104.485 0.182598 -0.80659 0
M  V30 1174 H 107.031 -0.389141 -1.65178 0
M  V30 1175 H 105.803 -0.570702 -3.87116 0
M  V30 1176 H 105.426 1.14316 -3.80812 0
M  V30 1177 N 106.423 1.57458 -0.0668435 0
M  V30 1178 C 107.671 1.92919 0.602214 0
M  V30 1179 C 107.992 0.947215 1.70449 0
M  V30 1180 O 107.262 -0.00544117 1.95899 0
M  V30 1181 H 105.842 0.71217 0.22544 0
M  V30 1182 H 108.504 1.94508 -0.123535 0
M  V30 1183 H 107.6 2.94589 1.03073 0
M  V30 1184 N 107.901 -0.206675 1.56239 0
M  V30 1185 C 109.147 -0.930218 1.80208 0
M  V30 1186 C 109.48 -1.83387 0.638981 0
M  V30 1187 O 108.755 -1.91119 -0.361066 0
M  V30 1188 C 109.038 -1.75641 3.1436 0
M  V30 1189 C 108.891 -0.878257 4.41142 0
M  V30 1190 C 110.21 -2.73129 3.45092 0
M  V30 1191 H 107.329 -0.336742 0.655571 0
M  V30 1192 H 109.971 -0.198222 1.88963 0
M  V30 1193 H 108.121 -2.38048 3.07027 0
M  V30 1194 H 109.793 -0.269787 4.6051 0
M  V30 1195 H 108.036 -0.184385 4.33408 0
M  V30 1196 H 108.707 -1.49106 5.3148 0
M  V30 1197 H 111.183 -2.20856 3.52649 0
M  V30 1198 H 110.059 -3.28028 4.40101 0
M  V30 1199 H 110.32 -3.51606 2.68003 0
M  V30 1200 N 109.379 -1.50304 -0.473955 0
M  V30 1201 C 110.329 -1.65347 -1.56985 0
M  V30 1202 C 111.313 -0.508176 -1.52664 0
M  V30 1203 O 112.505 -0.762446 -1.59737 0
M  V30 1204 C 109.634 -1.74832 -2.95447 0
M  V30 1205 C 108.72 -2.95028 -3.04662 0
M  V30 1206 N 109.111 -4.18747 -2.83698 0
M  V30 1207 C 107.409 -2.93527 -3.35795 0
M  V30 1208 C 108.11 -4.99687 -2.97805 0
M  V30 1209 N 107.086 -4.33585 -3.2788 0
M  V30 1210 H 110.888 -2.58698 -1.39472 0
M  V30 1211 H 108.402 -1.47449 -0.680629 0
M  V30 1212 H 110.399 -1.83712 -3.7424 0
M  V30 1213 H 109.059 -0.826376 -3.14008 0
M  V30 1214 H 110.07 -4.48291 -2.59337 0
M  V30 1215 H 106.747 -2.10821 -3.60362 0
M  V30 1216 H 108.137 -6.08057 -2.85861 0
M  V30 1217 N 110.857 0.726932 -1.39834 0
M  V30 1218 C 112.104 1.48664 -1.37496 0
M  V30 1219 C 112.432 1.94482 0.0264678 0
M  V30 1220 O 111.687 1.67692 1.00886 0
M  V30 1221 C 111.986 2.73495 -2.30077 0
M  V30 1222 C 111.652 2.46502 -3.77555 0
M  V30 1223 C 110.314 2.3885 -4.17737 0
M  V30 1224 C 112.666 2.23604 -4.70798 0
M  V30 1225 C 109.994 2.06352 -5.49214 0
M  V30 1226 C 112.346 1.92622 -6.02561 0
M  V30 1227 C 111.01 1.83444 -6.41798 0
M  V30 1228 H 110.28 0.544001 -0.503135 0
M  V30 1229 H 112.927 0.833657 -1.72402 0
M  V30 1230 H 111.232 3.43575 -1.88317 0
M  V30 1231 H 112.929 3.31549 -2.25558 0
M  V30 1232 H 109.519 2.5334 -3.45712 0
M  V30 1233 H 113.703 2.28479 -4.40581 0
M  V30 1234 H 108.959 1.97776 -5.78528 0
M  V30 1235 H 113.133 1.73914 -6.74334 0
M  V30 1236 H 110.76 1.58029 -7.43593 0
M  V30 1237 N 112.336 1.25143 0.95797 0
M  V30 1238 C 113.283 1.05235 2.05412 0
M  V30 1239 C 114.253 -0.0374561 1.66058 0
M  V30 1240 O 115.438 0.119073 1.90428 0
M  V30 1241 C 112.578 0.673589 3.38462 0
M  V30 1242 C 111.691 1.8379 3.90954 0
M  V30 1243 C 110.826 1.40381 5.12315 0
M  V30 1244 C 109.865 2.53746 5.57027 0
M  V30 1245 N 109.002 2.11136 6.69601 0
M  V30 1246 H 113.842 1.99048 2.21774 0
M  V30 1247 H 111.379 0.991277 1.08683 0
M  V30 1248 H 113.337 0.434964 4.14926 0
M  V30 1249 H 111.967 -0.227554 3.21997 0
M  V30 1250 H 111.019 2.18992 3.11041 0
M  V30 1251 H 112.331 2.68937 4.20089 0
M  V30 1252 H 111.485 1.12464 5.96185 0
M  V30 1253 H 110.224 0.523015 4.84887 0
M  V30 1254 H 109.229 2.82412 4.71724 0
M  V30 1255 H 110.454 3.42398 5.86464 0
M  V30 1256 H 108.4 1.25468 6.4389 0
M  V30 1257 H 108.317 2.89832 6.98236 0
M  V30 1258 H 109.585 1.86385 7.56889 0
M  V30 1259 N 113.814 -1.1601 1.06675 0
M  V30 1260 C 115.225 -1.68235 0.809565 0
M  V30 1261 C 115.576 -1.8454 -0.666303 0
M  V30 1262 O 114.701 -1.54374 -1.5165 0
M  V30 1263 C 115.296 -3.05585 1.46299 0
M  V30 1264 C 113.855 -3.54915 1.25349 0
M  V30 1265 C 113.002 -2.30804 1.53703 0
M  V30 1266 H 115.953 -1.00318 1.22971 0
M  V30 1267 H 115.974 -3.70174 0.880431 0
M  V30 1268 H 115.486 -2.93686 2.53713 0
M  V30 1269 H 113.587 -3.72067 0.199261 0
M  V30 1270 H 113.7 -4.36774 1.9689 0
M  V30 1271 H 112.064 -2.36007 0.957739 0
M  V30 1272 H 112.847 -2.21499 2.62284 0
M  V30 1273 N 115.292 -0.849877 -1.32721 0
M  V30 1274 C 116.239 -0.289033 -2.28983 0
M  V30 1275 C 117.209 0.601324 -1.54833 0
M  V30 1276 O 118.394 0.537253 -1.8308 0
M  V30 1277 C 115.534 0.520623 -3.4115 0
M  V30 1278 C 114.647 -0.394989 -4.3019 0
M  V30 1279 C 113.782 0.426834 -5.29482 0
M  V30 1280 C 112.821 -0.486476 -6.10164 0
M  V30 1281 N 111.958 0.297879 -7.01468 0
M  V30 1282 H 116.798 -1.11519 -2.76347 0
M  V30 1283 H 114.335 -0.56138 -1.35967 0
M  V30 1284 H 116.293 1.00563 -4.04899 0
M  V30 1285 H 114.923 1.31165 -2.9495 0
M  V30 1286 H 113.975 -0.99836 -3.67065 0
M  V30 1287 H 115.287 -1.09612 -4.86607 0
M  V30 1288 H 114.441 0.975205 -5.98811 0
M  V30 1289 H 113.18 1.16136 -4.73671 0
M  V30 1290 H 112.185 -1.04677 -5.39743 0
M  V30 1291 H 113.41 -1.21953 -6.6806 0
M  V30 1292 H 111.356 1.01558 -6.48091 0
M  V30 1293 H 111.273 -0.344318 -7.55216 0
M  V30 1294 H 112.541 0.828131 -7.75089 0
M  V30 1295 N 116.77 1.45427 -0.607355 0
M  V30 1296 C 117.68 2.34325 0.113463 0
M  V30 1297 C 118.696 1.51226 0.860617 0
M  V30 1298 O 119.872 1.84029 0.818255 0
M  V30 1299 C 116.937 3.28839 1.09844 0
M  V30 1300 C 115.998 4.27844 0.353271 0
M  V30 1301 C 115.231 5.17842 1.29133 0
M  V30 1302 O 115.454 5.11264 2.52913 0
M  V30 1303 O 114.388 5.96713 0.788523 0
M  V30 1304 H 118.214 2.97364 -0.617094 0
M  V30 1305 H 115.799 1.44807 -0.367619 0
M  V30 1306 H 117.681 3.8708 1.66575 0
M  V30 1307 H 116.356 2.68365 1.81003 0
M  V30 1308 H 115.263 3.7322 -0.256494 0
M  V30 1309 H 116.596 4.91173 -0.317822 0
M  V30 1310 N 118.248 0.346503 1.53744 0
M  V30 1311 C 119.158 -0.517293 2.28826 0
M  V30 1312 C 120.174 -1.10935 1.3405 0
M  V30 1313 O 121.35 -1.1244 1.6709 0
M  V30 1314 C 118.415 -1.65098 3.04866 0
M  V30 1315 C 117.476 -1.0884 4.15274 0
M  V30 1316 C 116.709 -2.16806 4.87679 0
M  V30 1317 O 116.932 -3.3758 4.59778 0
M  V30 1318 O 115.866 -1.80934 5.74061 0
M  V30 1319 H 119.692 0.0931396 3.03557 0
M  V30 1320 H 117.277 0.111458 1.48984 0
M  V30 1321 H 119.159 -2.31053 3.5241 0
M  V30 1322 H 117.834 -2.24717 2.32989 0
M  V30 1323 H 116.741 -0.3933 3.72027 0
M  V30 1324 H 118.074 -0.537036 4.89261 0
M  V30 1325 N 119.726 -1.57421 0.075193 0
M  V30 1326 C 120.656 -2.15942 -0.888324 0
M  V30 1327 C 121.637 -1.08737 -1.30806 0
M  V30 1328 O 122.822 -1.36787 -1.37851 0
M  V30 1329 C 119.952 -2.72379 -2.1547 0
M  V30 1330 C 118.906 -3.8478 -1.87425 0
M  V30 1331 C 118.232 -4.27834 -3.20721 0
M  V30 1332 C 119.532 -5.08869 -1.17684 0
M  V30 1333 H 121.226 -2.96705 -0.400799 0
M  V30 1334 H 118.772 -1.42723 -0.191342 0
M  V30 1335 H 120.725 -3.11965 -2.83295 0
M  V30 1336 H 119.449 -1.88841 -2.6647 0
M  V30 1337 H 118.108 -3.45703 -1.22004 0
M  V30 1338 H 117.756 -3.41214 -3.6957 0
M  V30 1339 H 117.456 -5.03605 -3.02746 0
M  V30 1340 H 118.98 -4.70039 -3.89738 0
M  V30 1341 H 120.394 -5.4575 -1.75584 0
M  V30 1342 H 118.791 -5.8994 -1.09956 0
M  V30 1343 H 119.861 -4.84648 -0.156453 0
M  V30 1344 N 121.204 0.198386 -1.56346 0
M  V30 1345 C 122.452 0.91747 -1.80075 0
M  V30 1346 C 122.773 1.83929 -0.647692 0
M  V30 1347 O 122.043 1.93029 0.334166 0
M  V30 1348 H 120.623 0.341774 -0.664228 0
M  V30 1349 H 123.285 0.204684 -1.93822 0
M  V30 1350 H 122.381 1.51055 -2.7311 0
M  V30 1351 N 122.682 1.50554 0.465978 0
M  V30 1352 C 123.928 1.62038 1.21949 0
M  V30 1353 C 124.261 0.322116 1.9151 0
M  V30 1354 O 123.536 -0.676723 1.82348 0
M  V30 1355 C 123.819 2.80421 2.25912 0
M  V30 1356 C 123.672 4.20144 1.60622 0
M  V30 1357 C 124.991 2.94354 3.27176 0
M  V30 1358 H 122.11 0.589752 0.441998 0
M  V30 1359 H 124.752 1.82956 0.51257 0
M  V30 1360 H 122.902 2.62717 2.86203 0
M  V30 1361 H 124.574 4.49449 1.03889 0
M  V30 1362 H 122.817 4.24165 0.909211 0
M  V30 1363 H 123.488 4.98914 2.36196 0
M  V30 1364 H 125.964 3.10578 2.76913 0
M  V30 1365 H 124.84 3.788 3.97242 0
M  V30 1366 H 125.101 2.05186 3.916 0
M  V30 1367 N 124.16 -0.719506 1.40217 0
M  V30 1368 C 125.388 -1.50864 1.41589 0
M  V30 1369 C 125.803 -1.88794 0.0145275 0
M  V30 1370 O 125.16 -1.55174 -0.960594 0
M  V30 1371 C 125.211 -2.78646 2.30302 0
M  V30 1372 O 124.932 -2.42321 3.64983 0
M  V30 1373 C 126.433 -3.72569 2.40224 0
M  V30 1374 H 123.653 -0.465709 0.48307 0
M  V30 1375 H 126.197 -0.88785 1.84221 0
M  V30 1376 H 124.352 -3.37019 1.91042 0
M  V30 1377 H 124.766 -3.24514 4.12057 0
M  V30 1378 H 126.24 -4.5908 3.06512 0
M  V30 1379 H 126.717 -4.15403 1.42608 0
M  V30 1380 H 127.323 -3.20109 2.80019 0
M  V30 1381 N 125.638 -1.25649 -0.95132 0
M  V30 1382 C 126.884 -1.10757 -1.69884 0
M  V30 1383 C 127.217 0.350061 -1.91019 0
M  V30 1384 O 126.492 1.25783 -1.48354 0
M  V30 1385 C 126.775 -1.86606 -3.07978 0
M  V30 1386 C 126.628 -3.40217 -2.94232 0
M  V30 1387 C 127.947 -1.65182 -4.07925 0
M  V30 1388 H 125.066 -0.40374 -0.616574 0
M  V30 1389 H 127.708 -1.54521 -1.10558 0
M  V30 1390 H 125.858 -1.49409 -3.58621 0
M  V30 1391 H 127.53 -3.87108 -2.50889 0
M  V30 1392 H 125.773 -3.67759 -2.30078 0
M  V30 1393 H 126.444 -3.88505 -3.92133 0
M  V30 1394 H 128.92 -1.9757 -3.66204 0
M  V30 1395 H 127.796 -2.20683 -5.02583 0
M  V30 1396 H 128.057 -0.593933 -4.38092 0
M  V30 1397 N 127.117 1.15442 -1.07289 0
M  V30 1398 C 128.347 1.89821 -0.815576 0
M  V30 1399 C 128.755 1.7823 0.634867 0
M  V30 1400 O 128.098 1.13152 1.44715 0
M  V30 1401 C 128.16 3.40817 -1.14385 0
M  V30 1402 C 127.824 3.76193 -2.59476 0
M  V30 1403 C 128.821 3.77269 -3.57721 0
M  V30 1404 C 126.506 4.0652 -2.95037 0
M  V30 1405 C 128.5 4.08176 -4.89562 0
M  V30 1406 C 126.187 4.37092 -4.27076 0
M  V30 1407 C 127.185 4.37902 -5.24148 0
M  V30 1408 O 126.873 4.67741 -6.53815 0
M  V30 1409 H 126.605 0.608465 -0.294528 0
M  V30 1410 H 129.159 1.472 -1.43252 0
M  V30 1411 H 127.389 3.83835 -0.469865 0
M  V30 1412 H 129.078 3.96485 -0.869179 0
M  V30 1413 H 129.844 3.5394 -3.3159 0
M  V30 1414 H 125.723 4.05049 -2.20128 0
M  V30 1415 H 129.267 4.08723 -5.65324 0
M  V30 1416 H 125.164 4.59889 -4.5296 0
M  V30 1417 H 125.932 4.85509 -6.58957 0
M  V30 1418 N 128.595 0.856903 1.32268 0
M  V30 1419 C 129.527 0.260412 2.27716 0
M  V30 1420 C 130.54 -0.569137 1.52528 0
M  V30 1421 O 131.729 -0.39326 1.74114 0
M  V30 1422 C 128.829 -0.650477 3.32599 0
M  V30 1423 C 128.002 0.14372 4.37164 0
M  V30 1424 C 127.061 -0.69328 5.21613 0
M  V30 1425 O 126.087 -0.12599 5.69061 0
M  V30 1426 N 127.289 -2.00761 5.44679 0
M  V30 1427 H 130.054 1.08059 2.79541 0
M  V30 1428 H 127.615 0.717103 1.45152 0
M  V30 1429 H 129.607 -1.21581 3.86005 0
M  V30 1430 H 128.177 -1.37133 2.80915 0
M  V30 1431 H 127.397 0.890486 3.8401 0
M  V30 1432 H 128.685 0.68915 5.04111 0
M  V30 1433 H 128.083 -2.49181 5.07863 0
M  V30 1434 H 126.64 -2.52103 6.01072 0
M  V30 1435 N 130.073 -1.45103 0.615059 0
M  V30 1436 C 131.298 -2.07064 0.117988 0
M  V30 1437 C 131.723 -1.4554 -1.19163 0
M  V30 1438 O 131.081 -0.550855 -1.72729 0
M  V30 1439 C 131.129 -3.606 -0.000288387 0
M  V30 1440 O 130.233 -3.98847 -1.04856 0
M  V30 1441 H 129.574 -0.659467 0.0774581 0
M  V30 1442 H 132.104 -1.86236 0.847186 0
M  V30 1443 H 132.114 -4.07529 -0.196091 0
M  V30 1444 H 130.789 -4.04765 0.955932 0
M  V30 1445 H 129.366 -3.63577 -0.828619 0
M  V30 1446 N 131.551 -0.354651 -1.53558 0
M  V30 1447 C 132.962 0.126902 -1.86268 0
M  V30 1448 C 133.313 1.49075 -1.27558 0
M  V30 1449 O 132.438 2.08105 -0.5934 0
M  V30 1450 C 133.033 0.237046 -3.3797 0
M  V30 1451 C 131.592 0.662842 -3.70518 0
M  V30 1452 C 130.739 -0.196652 -2.76602 0
M  V30 1453 H 133.69 -0.573849 -1.47962 0
M  V30 1454 H 133.711 1.06259 -3.65362 0
M  V30 1455 H 133.223 -0.755725 -3.80671 0
M  V30 1456 H 131.324 1.66424 -3.33367 0
M  V30 1457 H 131.437 0.445034 -4.77029 0
M  V30 1458 H 129.801 0.332763 -2.52517 0
M  V30 1459 H 130.584 -1.18676 -3.22135 0
M  V30 1460 N 133.029 1.57378 -0.0835403 0
M  V30 1461 C 133.979 2.09916 0.889905 0
M  V30 1462 C 134.963 1.01151 1.25129 0
M  V30 1463 O 136.155 1.27443 1.2283 0
M  V30 1464 C 133.284 2.67379 2.15322 0
M  V30 1465 C 132.37 3.83167 1.81779 0
M  V30 1466 N 132.761 4.91665 1.18739 0
M  V30 1467 C 131.059 3.92685 2.11459 0
M  V30 1468 C 131.76 5.72409 1.0355 0
M  V30 1469 N 130.736 5.21062 1.54906 0
M  V30 1470 H 134.538 2.91188 0.398378 0
M  V30 1471 H 132.052 1.61956 0.120013 0
M  V30 1472 H 134.049 3.0334 2.8599 0
M  V30 1473 H 132.709 1.87558 2.65051 0
M  V30 1474 H 133.72 5.10784 0.855604 0
M  V30 1475 H 130.397 3.23856 2.63483 0
M  V30 1476 H 131.787 6.69699 0.543425 0
M  V30 1477 N 134.507 -0.190092 1.56449 0
M  V30 1478 C 135.732 -0.929864 1.85387 0
M  V30 1479 C 136.157 -1.7585 0.667704 0
M  V30 1480 O 135.515 -1.77198 -0.383459 0
M  V30 1481 C 135.563 -1.79773 3.12593 0
M  V30 1482 O 134.667 -2.89713 2.93496 0
M  V30 1483 H 134.008 -0.261574 0.610307 0
M  V30 1484 H 136.538 -0.193896 2.03679 0
M  V30 1485 H 136.548 -2.20139 3.43515 0
M  V30 1486 H 135.223 -1.18892 3.98544 0
M  V30 1487 H 133.8 -2.53065 2.73884 0
M  V30 1488 N 135.985 -1.50799 -0.457987 0
M  V30 1489 C 137.233 -1.62121 -1.2067 0
M  V30 1490 C 137.554 -0.329793 -1.92191 0
M  V30 1491 O 136.824 0.653409 -1.84682 0
M  V30 1492 H 135.404 -0.597441 -0.448411 0
M  V30 1493 H 138.066 -1.87637 -0.527096 0
M  V30 1494 H 137.162 -2.43882 -1.94751 0
M  V30 1495 N 137.463 0.71206 -1.40597 0
M  V30 1496 C 138.688 1.50617 -1.42581 0
M  V30 1497 C 139.113 1.88079 -0.0282102 0
M  V30 1498 O 138.471 1.53511 0.964579 0
M  V30 1499 C 138.519 2.7557 -2.3258 0
M  V30 1500 O 137.623 3.72414 -1.77148 0
M  V30 1501 H 136.964 0.453966 -0.484573 0
M  V30 1502 H 139.494 0.876649 -1.84868 0
M  V30 1503 H 139.504 3.2406 -2.47889 0
M  V30 1504 H 138.179 2.47639 -3.34138 0
M  V30 1505 H 136.756 3.31276 -1.71204 0
M  V30 1506 N 138.941 1.26152 0.944643 0
M  V30 1507 C 140.188 1.11492 1.69044 0
M  V30 1508 C 140.516 -0.342366 1.91463 0
M  V30 1509 O 139.771 -1.26812 1.49054 0
M  V30 1510 C 140.07 1.82541 3.07268 0
M  V30 1511 C 139.736 3.32445 3.04616 0
M  V30 1512 C 138.398 3.73337 3.036 0
M  V30 1513 C 140.75 4.28171 2.97185 0
M  V30 1514 C 138.078 5.08348 2.92915 0
M  V30 1515 C 140.43 5.63218 2.88041 0
M  V30 1516 C 139.094 6.03426 2.85366 0
M  V30 1517 H 138.364 0.407977 0.618576 0
M  V30 1518 H 141.011 1.56551 1.10291 0
M  V30 1519 H 139.316 1.29941 3.69625 0
M  V30 1520 H 141.013 1.68642 3.63815 0
M  V30 1521 H 137.603 2.99915 3.06185 0
M  V30 1522 H 141.787 3.97563 2.97081 0
M  V30 1523 H 137.043 5.38667 2.89219 0
M  V30 1524 H 141.217 6.37078 2.81254 0
M  V30 1525 H 138.844 7.07999 2.76842 0
M  V30 1526 N 140.419 -1.14872 1.07899 0
M  V30 1527 C 141.647 -1.89661 0.82683 0
M  V30 1528 C 142.062 -1.78312 -0.620519 0
M  V30 1529 O 141.419 -1.13888 -1.42604 0
M  V30 1530 C 141.47 -3.39817 1.23316 0
M  V30 1531 O 141.191 -3.50845 2.62372 0
M  V30 1532 C 142.692 -4.31615 1.0111 0
M  V30 1533 H 139.912 -0.60092 0.298557 0
M  V30 1534 H 142.456 -1.4551 1.43691 0
M  V30 1535 H 140.611 -3.8161 0.667286 0
M  V30 1536 H 141.025 -4.44076 2.79101 0
M  V30 1537 H 142.499 -5.35367 1.34486 0
M  V30 1538 H 142.976 -4.39169 -0.0522168 0
M  V30 1539 H 143.582 -3.95572 1.56215 0
M  V30 1540 N 141.898 -0.863906 -1.31812 0
M  V30 1541 C 143.147 -0.46801 -1.96195 0
M  V30 1542 C 143.46 0.983474 -1.69077 0
M  V30 1543 O 144.666 1.48523 -2.27273 0
M  V30 1544 C 143.122 -0.785995 -3.51212 0
M  V30 1545 C 142.73 -2.25383 -3.87178 0
M  V30 1546 C 144.474 -0.458274 -4.22019 0
M  V30 1547 C 142.381 -2.51455 -5.3528 0
M  V30 1548 H 141.311 -0.171283 -0.734287 0
M  V30 1549 H 143.962 -1.05597 -1.50072 0
M  V30 1550 H 142.344 -0.127359 -3.95795 0
M  V30 1551 H 143.518 -2.95502 -3.53575 0
M  V30 1552 H 141.833 -2.54698 -3.2942 0
M  V30 1553 H 144.43 -0.630369 -5.30971 0
M  V30 1554 H 144.773 0.600834 -4.11941 0
M  V30 1555 H 145.306 -1.07319 -3.8305 0
M  V30 1556 H 142.045 -3.56025 -5.50387 0
M  V30 1557 H 141.565 -1.85923 -5.70257 0
M  V30 1558 H 143.244 -2.35874 -6.02472 0
M  V30 1559 N 143.376 1.44774 -0.622745 0
M  V30 1560 C 144.604 2.06487 -0.130722 0
M  V30 1561 C 145.019 1.46476 1.19123 0
M  V30 1562 O 144.376 0.584502 1.72887 0
M  V30 1563 C 144.427 3.615 -0.000807207 0
M  V30 1564 O 144.148 4.19274 -1.27048 0
M  V30 1565 C 145.649 4.40229 0.520898 0
M  V30 1566 H 142.869 0.666704 -0.0758106 0
M  V30 1567 H 145.413 1.85779 -0.854774 0
M  V30 1568 H 143.568 3.81498 0.673643 0
M  V30 1569 H 143.982 5.12622 -1.1099 0
M  V30 1570 H 145.456 5.49144 0.560838 0
M  V30 1571 H 145.933 4.1108 1.54627 0
M  V30 1572 H 146.539 4.25131 -0.120018 0
M  V30 1573 N 144.854 0.36279 1.53368 0
M  V30 1574 C 146.102 -0.227326 2.00817 0
M  V30 1575 C 146.423 -1.49511 1.25186 0
M  V30 1576 O 145.693 -1.92482 0.364348 0
M  V30 1577 H 144.273 -0.0869923 0.741917 0
M  V30 1578 H 146.935 0.488381 1.88682 0
M  V30 1579 H 146.031 -0.456273 3.08747 0
M  V30 1580 N 146.332 -1.57332 0.0918853 0
M  V30 1581 C 147.28 -2.15075 -0.885747 0
M  V30 1582 C 148.274 -1.09277 -1.29441 0
M  V30 1583 O 149.48 -1.27627 -1.26931 0
M  V30 1584 H 145.855 -0.687966 -0.303656 0
M  V30 1585 H 147.826 -2.96047 -0.373995 0
M  V30 1586 C 146.575 -2.74325 -2.13638 0
M  V30 1587 H 145.898 -3.55418 -1.8308 0
M  V30 1588 H 147.338 -3.183 -2.80109 0
M  V30 1589 C 145.797 -1.70062 -2.90827 0
M  V30 1590 O 146.327 -1.13763 -3.85254 0
M  V30 1591 N 144.533 -1.40628 -2.54307 0
M  V30 1592 H 144.08 -1.866 -1.7759 0
M  V30 1593 H 144.038 -0.711043 -3.06254 0
M  V30 1594 N 147.81 0.181792 -1.56548 0
M  V30 1595 C 148.758 1.24461 -1.965 0
M  V30 1596 C 149.752 1.464 -0.852261 0
M  V30 1597 O 150.958 1.47103 -1.03733 0
M  V30 1598 H 147.333 0.418138 -0.625031 0
M  V30 1599 H 149.304 0.880714 -2.85107 0
M  V30 1600 C 148.053 2.57891 -2.33212 0
M  V30 1601 H 147.376 2.41829 -3.18369 0
M  V30 1602 H 148.816 3.3097 -2.65019 0
M  V30 1603 C 147.275 3.15871 -1.17163 0
M  V30 1604 O 147.805 3.9913 -0.453708 0
M  V30 1605 N 146.011 2.74808 -0.944936 0
M  V30 1606 H 145.558 2.07205 -1.53049 0
M  V30 1607 H 145.516 3.13939 -0.170286 0
M  V30 1608 N 149.288 1.51039 0.449983 0
M  V30 1609 C 150.513 1.6715 1.22783 0
M  V30 1610 C 150.938 0.363081 1.84563 0
M  V30 1611 O 150.296 -0.675433 1.68249 0
M  V30 1612 C 150.344 2.77985 2.29689 0
M  V30 1613 O 149.448 2.40707 3.34864 0
M  V30 1614 H 148.789 0.557746 0.360299 0
M  V30 1615 H 151.319 1.97535 0.533005 0
M  V30 1616 H 151.329 3.01693 2.74673 0
M  V30 1617 H 150.004 3.72935 1.84098 0
M  V30 1618 H 148.581 2.27523 2.95445 0
M  V30 1619 N 150.766 -0.704594 1.40972 0
M  V30 1620 C 151.714 -1.83994 1.42299 0
M  V30 1621 C 152.708 -1.66684 0.302111 0
M  V30 1622 O 153.914 -1.73655 0.473697 0
M  V30 1623 H 150.289 -0.606171 0.44504 0
M  V30 1624 H 152.26 -1.79992 2.38003 0
M  V30 1625 C 151.009 -3.21946 1.31323 0
M  V30 1626 H 150.332 -3.35878 2.16855 0
M  V30 1627 H 151.772 -4.01491 1.36311 0
M  V30 1628 C 150.231 -3.36891 0.0245977 0
M  V30 1629 O 150.761 -3.90687 -0.934153 0
M  V30 1630 N 148.967 -2.90559 -0.0485243 0
M  V30 1631 H 148.514 -2.46968 0.732419 0
M  V30 1632 H 148.472 -3.00937 -0.910171 0
M  V30 1633 N 152.244 -1.26651 -0.937939 0
M  V30 1634 C 153.491 -1.12387 -1.6845 0
M  V30 1635 C 153.819 0.332208 -1.91642 0
M  V30 1636 O 153.074 1.2602 -1.49725 0
M  V30 1637 C 153.373 -1.84168 -3.06295 0
M  V30 1638 C 153.039 -3.34056 -3.02849 0
M  V30 1639 C 151.701 -3.74942 -3.01616 0
M  V30 1640 C 154.053 -4.29741 -2.9491 0
M  V30 1641 C 151.381 -5.09894 -2.90215 0
M  V30 1642 C 153.733 -5.64738 -2.8505 0
M  V30 1643 C 152.397 -6.0493 -2.82162 0
M  V30 1644 H 151.667 -0.411252 -0.616403 0
M  V30 1645 H 154.314 -1.57134 -1.09459 0
M  V30 1646 H 152.619 -1.319 -3.6893 0
M  V30 1647 H 154.316 -1.70569 -3.62915 0
M  V30 1648 H 150.906 -3.01534 -3.0459 0
M  V30 1649 H 155.09 -3.99133 -2.94969 0
M  V30 1650 H 150.346 -5.40194 -2.86358 0
M  V30 1651 H 154.52 -6.38561 -2.77872 0
M  V30 1652 H 152.147 -7.09457 -2.73084 0
M  V30 1653 N 153.722 1.14298 -1.08507 0
M  V30 1654 C 154.685 2.17607 -0.719711 0
M  V30 1655 C 155.685 1.58907 0.245997 0
M  V30 1656 O 156.875 1.74181 0.0254081 0
M  V30 1657 C 154.007 3.40842 -0.0627695 0
M  V30 1658 H 155.2 2.51443 -1.63452 0
M  V30 1659 H 152.753 1.28963 -0.88307 0
M  V30 1660 H 153.488 3.12587 0.863716 0
M  V30 1661 H 153.273 3.84713 -0.757504 0
M  V30 1662 H 154.763 4.17221 0.177786 0
M  V30 1663 N 155.201 0.870884 1.31352 0
M  V30 1664 C 156.133 0.28455 2.27427 0
M  V30 1665 C 157.146 -0.552927 1.53123 0
M  V30 1666 O 158.335 -0.374771 1.74521 0
M  V30 1667 C 155.435 -0.615164 3.3327 0
M  V30 1668 C 154.608 0.190079 4.36987 0
M  V30 1669 C 153.667 -0.637917 5.22319 0
M  V30 1670 O 152.693 -0.065626 5.69162 0
M  V30 1671 N 153.895 -1.94973 5.46778 0
M  V30 1672 H 156.66 1.11017 2.7838 0
M  V30 1673 H 154.221 0.732458 1.44384 0
M  V30 1674 H 156.213 -1.1748 3.87273 0
M  V30 1675 H 154.783 -1.34146 2.82354 0
M  V30 1676 H 154.003 0.931165 3.83044 0
M  V30 1677 H 155.291 0.742579 5.03352 0
M  V30 1678 H 154.689 -2.4378 5.10478 0
M  V30 1679 H 153.246 -2.45713 6.03712 0
M  V30 1680 N 156.679 -1.44442 0.630414 0
M  V30 1681 C 158.095 -1.56832 0.295973 0
M  V30 1682 C 158.295 -1.61806 -1.20088 0
M  V30 1683 O 157.351 -1.5607 -1.9849 0
M  V30 1684 C 158.664 -2.84031 0.987264 0
M  V30 1685 C 160.212 -2.97742 0.96534 0
M  V30 1686 C 160.687 -4.27743 1.63708 0
M  V30 1687 N 162.178 -4.34555 1.60364 0
M  V30 1688 C 162.913 -5.33862 2.09234 0
M  V30 1689 N 162.409 -6.39578 2.66292 0
M  V30 1690 N 164.202 -5.25366 1.99867 0
M  V30 1691 H 156.353 -1.39457 1.60205 0
M  V30 1692 H 158.616 -0.668237 0.672431 0
M  V30 1693 H 158.322 -2.86338 2.04215 0
M  V30 1694 H 158.196 -3.73534 0.524588 0
M  V30 1695 H 160.583 -2.94989 -0.0810639 0
M  V30 1696 H 160.664 -2.09589 1.4665 0
M  V30 1697 H 160.308 -4.31255 2.68293 0
M  V30 1698 H 160.238 -5.14752 1.11076 0
M  V30 1699 H 162.729 -3.58772 1.18705 0
M  V30 1700 H 163.042 -7.11637 3.01317 0
M  V30 1701 H 161.387 -6.40265 2.70343 0
M  V30 1702 H 164.578 -4.41688 1.55013 0
M  V30 1703 H 164.751 -6.02606 2.38265 0
M  V30 1704 N 158.157 -0.370918 -1.53173 0
M  V30 1705 C 159.404 0.217102 -2.01333 0
M  V30 1706 C 159.732 1.48338 -1.25802 0
M  V30 1707 O 158.987 1.92698 -0.34146 0
M  V30 1708 C 159.286 0.549696 -3.53147 0
M  V30 1709 C 158.952 -0.622872 -4.46577 0
M  V30 1710 C 157.614 -0.944595 -4.71838 0
M  V30 1711 C 159.966 -1.40819 -5.01816 0
M  V30 1712 C 157.294 -2.05351 -5.49589 0
M  V30 1713 C 159.646 -2.50757 -5.80778 0
M  V30 1714 C 158.31 -2.83458 -6.04324 0
M  V30 1715 H 157.58 0.0794431 -0.736729 0
M  V30 1716 H 160.227 -0.504481 -1.84736 0
M  V30 1717 H 158.532 1.35237 -3.6772 0
M  V30 1718 H 160.229 1.017 -3.87889 0
M  V30 1719 H 156.819 -0.36209 -4.27068 0
M  V30 1720 H 161.003 -1.17289 -4.82242 0
M  V30 1721 H 156.259 -2.3108 -5.6605 0
M  V30 1722 H 160.433 -3.12022 -6.22588 0
M  V30 1723 H 158.06 -3.69508 -6.64355 0
M  V30 1724 N 159.635 1.57281 -0.100228 0
M  V30 1725 C 160.567 2.11342 0.886972 0
M  V30 1726 C 161.58 1.05182 1.24261 0
M  V30 1727 O 162.769 1.32613 1.19483 0
M  V30 1728 C 159.869 2.5825 2.19454 0
M  V30 1729 C 159.042 3.88302 2.01346 0
M  V30 1730 C 158.101 4.21004 3.15661 0
M  V30 1731 O 157.127 4.9014 2.89398 0
M  V30 1732 N 158.329 3.76818 4.41575 0
M  V30 1733 H 161.094 2.96668 0.425216 0
M  V30 1734 H 158.655 1.61678 0.0847334 0
M  V30 1735 H 160.647 2.7717 2.94888 0
M  V30 1736 H 159.217 1.77907 2.57037 0
M  V30 1737 H 158.437 3.7848 1.10212 0
M  V30 1738 H 159.725 4.73375 1.8653 0
M  V30 1739 H 159.123 3.2102 4.65792 0
M  V30 1740 H 157.68 4.00882 5.13942 0
M  V30 1741 N 161.113 -0.173488 1.56642 0
M  V30 1742 C 162.361 -0.888706 1.81512 0
M  V30 1743 C 162.682 -1.82875 0.676872 0
M  V30 1744 O 161.952 -1.93536 -0.303414 0
M  V30 1745 H 160.532 -0.331164 0.669582 0
M  V30 1746 H 163.194 -0.173823 1.94123 0
M  V30 1747 H 162.29 -1.46691 2.75478 0
M  V30 1748 N 162.591 -1.51276 -0.441967 0
M  V30 1749 C 163.84 -1.6295 -1.18871 0
M  V30 1750 C 164.153 -0.349312 -1.92456 0
M  V30 1751 O 165.359 -0.345355 -2.69295 0
M  V30 1752 C 163.815 -2.87759 -2.16155 0
M  V30 1753 C 163.423 -4.22764 -1.48239 0
M  V30 1754 C 165.167 -3.08788 -2.91291 0
M  V30 1755 C 163.074 -5.38728 -2.4398 0
M  V30 1756 H 162.004 -0.606913 -0.447406 0
M  V30 1757 H 164.655 -1.77739 -0.456205 0
M  V30 1758 H 163.037 -2.66593 -2.92821 0
M  V30 1759 H 164.211 -4.54293 -0.771635 0
M  V30 1760 H 162.526 -4.07575 -0.852741 0
M  V30 1761 H 165.123 -3.92599 -3.63002 0
M  V30 1762 H 165.466 -2.21679 -3.5237 0
M  V30 1763 H 165.999 -3.30272 -2.21733 0
M  V30 1764 H 162.738 -6.28082 -1.87598 0
M  V30 1765 H 162.258 -5.1158 -3.13123 0
M  V30 1766 H 163.937 -5.70489 -3.05207 0
M  V30 1767 N 164.069 0.697108 -1.41344 0
M  V30 1768 C 165.299 1.48377 -1.43763 0
M  V30 1769 C 165.707 1.89156 -0.0408726 0
M  V30 1770 O 165.05 1.57239 0.949812 0
M  V30 1771 C 165.112 2.7781 -2.2817 0
M  V30 1772 C 164.776 2.59244 -3.76353 0
M  V30 1773 C 165.773 2.25292 -4.68551 0
M  V30 1774 C 163.458 2.74933 -4.20378 0
M  V30 1775 C 165.452 2.07264 -6.02761 0
M  V30 1776 C 163.139 2.56521 -5.54653 0
M  V30 1777 C 164.137 2.22737 -6.4566 0
M  V30 1778 O 163.825 2.04485 -7.77458 0
M  V30 1779 H 163.557 0.463842 -0.491759 0
M  V30 1780 H 166.111 0.865934 -1.86255 0
M  V30 1781 H 164.341 3.41995 -1.8049 0
M  V30 1782 H 166.03 3.39608 -2.22309 0
M  V30 1783 H 166.796 2.12787 -4.35829 0
M  V30 1784 H 162.675 3.00213 -3.49848 0
M  V30 1785 H 166.219 1.80817 -6.73759 0
M  V30 1786 H 162.116 2.68616 -5.86955 0
M  V30 1787 H 162.884 2.1926 -7.88586 0
M  V30 1788 N 165.547 1.27147 0.931209 0
M  V30 1789 C 166.963 1.04475 1.20653 0
M  V30 1790 C 167.163 -0.223885 2.00252 0
M  V30 1791 O 166.219 -0.930332 2.34736 0
M  V30 1792 C 167.532 2.28209 1.95809 0
M  V30 1793 C 169.08 2.33211 2.08762 0
M  V30 1794 C 169.555 3.56665 2.87323 0
M  V30 1795 N 171.046 3.57201 2.94892 0
M  V30 1796 C 171.781 4.49395 3.56134 0
M  V30 1797 N 171.277 5.51889 4.18796 0
M  V30 1798 N 173.07 4.37026 3.53504 0
M  V30 1799 H 165.221 2.08612 0.399333 0
M  V30 1800 H 167.484 0.917312 0.239253 0
M  V30 1801 H 167.19 3.20538 1.44736 0
M  V30 1802 H 167.064 2.33247 2.96438 0
M  V30 1803 H 169.451 1.41391 2.59023 0
M  V30 1804 H 169.532 2.32178 1.07364 0
M  V30 1805 H 169.176 4.4882 2.37746 0
M  V30 1806 H 169.106 3.54948 3.88998 0
M  V30 1807 H 171.597 2.83074 2.50354 0
M  V30 1808 H 171.91 6.18409 4.63454 0
M  V30 1809 H 170.255 5.55735 4.17353 0
M  V30 1810 H 173.446 3.56166 3.03749 0
M  V30 1811 H 173.619 5.09067 4.00942 0
M  V30 1812 N 167.025 -1.13721 1.09112 0
M  V30 1813 C 168.265 -1.86576 0.834801 0
M  V30 1814 C 168.629 -1.81435 -0.628122 0
M  V30 1815 O 169.83 -2.49497 -1.00024 0
M  V30 1816 C 168.101 -3.30872 1.35124 0
M  V30 1817 S 169.66 -4.21257 1.22832 0
M  V30 1818 H 166.478 -0.643666 0.302017 0
M  V30 1819 H 169.08 -1.37085 1.39385 0
M  V30 1820 H 167.784 -3.32166 2.41027 0
M  V30 1821 H 167.315 -3.85423 0.788185 0
M  V30 1822 H 169.33 -4.95884 0.177191 0
M  V30 1823 N 168.503 -0.877838 -1.30888 0
M  V30 1824 C 169.75 -0.492696 -1.96415 0
M  V30 1825 C 170.078 0.956671 -1.69346 0
M  V30 1826 O 169.333 1.68993 -0.986913 0
M  V30 1827 C 169.632 -0.705748 -3.50363 0
M  V30 1828 C 169.298 -2.1291 -3.97467 0
M  V30 1829 C 167.96 -2.51834 -4.1004 0
M  V30 1830 C 170.312 -3.05702 -4.22132 0
M  V30 1831 C 167.64 -3.82775 -4.44635 0
M  V30 1832 C 169.992 -4.36166 -4.58194 0
M  V30 1833 C 168.656 -4.74993 -4.68975 0
M  V30 1834 H 167.926 -0.18029 -0.718733 0
M  V30 1835 H 170.573 -1.11233 -1.55883 0
M  V30 1836 H 168.878 -0.00303058 -3.918 0
M  V30 1837 H 170.575 -0.387456 -3.99124 0
M  V30 1838 H 167.165 -1.81694 -3.88182 0
M  V30 1839 H 171.349 -2.76853 -4.11906 0
M  V30 1840 H 166.605 -4.12609 -4.51181 0
M  V30 1841 H 170.779 -5.08111 -4.76231 0
M  V30 1842 H 168.406 -5.76495 -4.95537 0
M  V30 1843 N 169.982 1.44106 -0.638065 0
M  V30 1844 C 170.945 2.29138 0.0531013 0
M  V30 1845 C 171.945 1.41409 0.765506 0
M  V30 1846 O 173.135 1.63206 0.609046 0
M  V30 1847 C 170.267 3.23144 1.08584 0
M  V30 1848 H 171.46 2.91739 -0.694883 0
M  V30 1849 H 169.013 1.51134 -0.398538 0
M  V30 1850 H 169.748 2.65408 1.86357 0
M  V30 1851 H 169.533 3.87804 0.578852 0
M  V30 1852 H 171.023 3.87004 1.56899 0
M  V30 1853 N 171.46 0.379036 1.52974 0
M  V30 1854 C 172.685 -0.209353 2.06341 0
M  V30 1855 C 173.11 -1.40583 1.24972 0
M  V30 1856 O 172.468 -1.79246 0.272155 0
M  V30 1857 C 172.516 -0.567786 3.56102 0
M  V30 1858 O 171.62 -1.66318 3.77375 0
M  V30 1859 H 170.961 -0.0272919 0.663439 0
M  V30 1860 H 173.491 0.543536 1.97248 0
M  V30 1861 H 173.501 -0.835003 3.99364 0
M  V30 1862 H 172.176 0.307013 4.14765 0
M  V30 1863 H 170.753 -1.39048 3.46006 0
M  V30 1864 N 172.938 -1.57226 0.108567 0
M  V30 1865 C 173.886 -2.16002 -0.862885 0
M  V30 1866 C 174.88 -1.10644 -1.28274 0
M  V30 1867 O 176.086 -1.28966 -1.2557 0
M  V30 1868 H 172.461 -0.691148 -0.296342 0
M  V30 1869 H 174.432 -2.96427 -0.342575 0
M  V30 1870 C 173.181 -2.76576 -2.10716 0
M  V30 1871 H 172.504 -3.5734 -1.793 0
M  V30 1872 H 173.944 -3.21253 -2.76717 0
M  V30 1873 C 172.403 -1.73137 -2.89007 0
M  V30 1874 O 172.933 -1.17842 -3.84026 0
M  V30 1875 N 171.139 -1.43317 -2.52801 0
M  V30 1876 H 170.686 -1.88473 -1.75601 0
M  V30 1877 H 170.644 -0.743485 -3.05483 0
M  V30 1878 N 174.416 0.165178 -1.56732 0
M  V30 1879 C 175.363 1.2044 -1.96883 0
M  V30 1880 C 176.333 1.43664 -0.833657 0
M  V30 1881 O 177.518 1.56302 -1.09427 0
M  V30 1882 C 174.658 2.53727 -2.33916 0
M  V30 1883 C 173.771 2.3783 -3.6064 0
M  V30 1884 C 172.906 3.64026 -3.86857 0
M  V30 1885 C 171.945 3.43088 -5.06909 0
M  V30 1886 N 171.082 4.61369 -5.29229 0
M  V30 1887 H 175.922 0.854996 -2.85471 0
M  V30 1888 H 173.459 0.41076 -1.41249 0
M  V30 1889 H 175.417 3.31419 -2.53411 0
M  V30 1890 H 174.047 2.8665 -1.48431 0
M  V30 1891 H 173.099 1.51282 -3.49024 0
M  V30 1892 H 174.411 2.18308 -4.4849 0
M  V30 1893 H 173.565 4.50152 -4.06753 0
M  V30 1894 H 172.304 3.86533 -2.97394 0
M  V30 1895 H 171.309 2.55349 -4.86906 0
M  V30 1896 H 172.534 3.21997 -5.97909 0
M  V30 1897 H 170.48 4.84084 -4.42718 0
M  V30 1898 H 170.397 4.44783 -6.11313 0
M  V30 1899 H 171.665 5.48761 -5.53608 0
M  V30 1900 N 175.894 1.51508 0.433938 0
M  V30 1901 C 176.824 1.76016 1.53429 0
M  V30 1902 C 177.805 0.610112 1.58782 0
M  V30 1903 O 178.99 0.853177 1.74455 0
M  V30 1904 C 176.12 1.88831 2.9148 0
M  V30 1905 C 175.074 3.04288 3.00987 0
M  V30 1906 C 174.4 3.0229 4.4105 0
M  V30 1907 C 175.7 4.44193 2.74754 0
M  V30 1908 H 177.394 2.68152 1.33171 0
M  V30 1909 H 174.94 1.29035 0.639214 0
M  V30 1910 H 176.893 2.04559 3.6842 0
M  V30 1911 H 175.617 0.933455 3.12976 0
M  V30 1912 H 174.276 2.8827 2.26486 0
M  V30 1913 H 173.924 2.04576 4.59519 0
M  V30 1914 H 173.624 3.79822 4.4834 0
M  V30 1915 H 175.148 3.20116 5.1996 0
M  V30 1916 H 176.562 4.60544 3.41426 0
M  V30 1917 H 174.959 5.23457 2.9345 0
M  V30 1918 H 176.029 4.53996 1.70339 0
M  V30 1919 N 177.372 -0.689602 1.41712 0
M  V30 1920 C 178.62 -1.4468 1.4111 0
M  V30 1921 C 178.941 -1.94986 0.0232196 0
M  V30 1922 O 178.211 -1.72097 -0.935913 0
M  V30 1923 H 176.791 -0.536847 0.519427 0
M  V30 1924 H 179.453 -0.815825 1.77004 0
M  V30 1925 H 178.549 -2.30706 2.10193 0
M  V30 1926 N 178.85 -1.27639 -0.924453 0
M  V30 1927 C 180.078 -1.16989 -1.70649 0
M  V30 1928 C 180.493 0.272869 -1.86818 0
M  V30 1929 O 179.85 1.18549 -1.38753 0
M  V30 1930 C 179.901 -1.85229 -3.10439 0
M  V30 1931 O 179.622 -3.23868 -2.95028 0
M  V30 1932 C 181.123 -1.80746 -4.04779 0
M  V30 1933 H 178.343 -0.406595 -0.53378 0
M  V30 1934 H 180.887 -1.68569 -1.15778 0
M  V30 1935 H 179.042 -1.37545 -3.6216 0
M  V30 1936 H 179.456 -3.57889 -3.83426 0
M  V30 1937 H 180.93 -2.33101 -5.00368 0
M  V30 1938 H 181.407 -0.777499 -4.32263 0
M  V30 1939 H 182.013 -2.28059 -3.58984 0
M  V30 1940 N 180.328 1.1314 -1.09713 0
M  V30 1941 C 181.291 2.16831 -0.742751 0
M  V30 1942 C 182.291 1.59159 0.229129 0
M  V30 1943 O 183.481 1.74199 0.00693237 0
M  V30 1944 C 180.613 3.40756 -0.0989168 0
M  V30 1945 H 181.806 2.49695 -1.66109 0
M  V30 1946 H 179.359 1.2802 -0.896699 0
M  V30 1947 H 180.094 3.13485 0.830514 0
M  V30 1948 H 179.879 3.83888 -0.798265 0
M  V30 1949 H 181.369 4.17386 0.133524 0
M  V30 1950 N 181.806 0.884767 1.30421 0
M  V30 1951 C 182.739 0.295999 2.26272 0
M  V30 1952 C 183.717 -0.58332 1.51777 0
M  V30 1953 O 184.901 -0.53346 1.80794 0
M  V30 1954 C 182.028 -0.57944 3.33707 0
M  V30 1955 C 181.074 0.230525 4.25877 0
M  V30 1956 S 181.907 1.61867 5.1045 0
M  V30 1957 C 183.063 0.749756 6.21393 0
M  V30 1958 H 183.296 1.10848 2.75862 0
M  V30 1959 H 180.829 0.684178 1.38414 0
M  V30 1960 H 182.787 -1.07879 3.96071 0
M  V30 1961 H 181.448 -1.36601 2.82841 0
M  V30 1962 H 180.641 -0.437542 5.02097 0
M  V30 1963 H 180.243 0.662493 3.68086 0
M  V30 1964 H 182.535 -0.0333547 6.77492 0
M  V30 1965 H 183.478 1.48356 6.92384 0
M  V30 1966 H 183.886 0.310751 5.63644 0
M  V30 1967 N 183.284 -1.43765 0.645699 0
M  V30 1968 C 184.509 -2.06767 0.161883 0
M  V30 1969 C 184.934 -1.48034 -1.16049 0
M  V30 1970 O 184.292 -0.587369 -1.71522 0
M  V30 1971 C 184.34 -3.60519 0.0762003 0
M  V30 1972 O 183.444 -4.00982 -0.963721 0
M  V30 1973 H 182.785 -0.657675 0.091429 0
M  V30 1974 H 185.315 -1.84397 0.886499 0
M  V30 1975 H 185.325 -4.07853 -0.109604 0
M  V30 1976 H 184 -4.02646 1.04157 0
M  V30 1977 H 182.577 -3.65253 -0.751312 0
M  V30 1978 N 184.763 -0.387143 -1.52771 0
M  V30 1979 C 185.713 0.465942 -2.23188 0
M  V30 1980 C 186.697 1.03138 -1.23496 0
M  V30 1981 O 187.889 0.957845 -1.48843 0
M  V30 1982 C 185.018 1.59384 -3.04059 0
M  V30 1983 C 184.104 1.04024 -4.11144 0
M  V30 1984 N 184.495 0.211416 -5.05358 0
M  V30 1985 C 182.793 1.31295 -4.26237 0
M  V30 1986 C 183.494 -0.0941698 -5.81624 0
M  V30 1987 N 182.47 0.509207 -5.4121 0
M  V30 1988 H 186.272 -0.173856 -2.93385 0
M  V30 1989 H 183.786 -0.19633 -1.61209 0
M  V30 1990 H 185.783 2.21738 -3.53041 0
M  V30 1991 H 184.443 2.23648 -2.35397 0
M  V30 1992 H 185.454 -0.151151 -5.17679 0
M  V30 1993 H 182.131 1.95679 -3.68803 0
M  V30 1994 H 183.521 -0.765572 -6.67524 0
M  V30 1995 N 186.241 1.57166 -0.116904 0
M  V30 1996 C 187.151 2.18745 0.847812 0
M  V30 1997 C 188.167 1.163 1.29423 0
M  V30 1998 O 189.343 1.48761 1.35765 0
M  V30 1999 C 186.408 2.77307 2.0809 0
M  V30 2000 C 185.469 3.94781 1.68661 0
M  V30 2001 C 184.702 4.50541 2.86091 0
M  V30 2002 O 184.925 4.05202 4.01456 0
M  V30 2003 O 183.859 5.41256 2.63298 0
M  V30 2004 H 187.685 3.01632 0.353778 0
M  V30 2005 H 185.27 1.49005 0.108599 0
M  V30 2006 H 187.152 3.14647 2.80313 0
M  V30 2007 H 185.827 1.97452 2.56504 0
M  V30 2008 H 184.734 3.62214 0.935518 0
M  V30 2009 H 186.067 4.76065 1.24991 0
M  V30 2010 N 187.719 -0.156864 1.56817 0
M  V30 2011 C 188.968 -0.869504 1.81996 0
M  V30 2012 C 189.281 -1.82777 0.696545 0
M  V30 2013 O 190.487 -2.58384 0.833658 0
M  V30 2014 C 188.943 -1.59679 3.22538 0
M  V30 2015 C 188.551 -0.681431 4.42787 0
M  V30 2016 C 190.295 -2.2968 3.56997 0
M  V30 2017 C 188.202 -1.40978 5.74351 0
M  V30 2018 H 187.132 -0.328438 0.678708 0
M  V30 2019 H 189.783 -0.1223 1.83092 0
M  V30 2020 H 188.165 -2.38927 3.158 0
M  V30 2021 H 189.339 0.0751166 4.60739 0
M  V30 2022 H 187.654 -0.0903431 4.16302 0
M  V30 2023 H 190.251 -2.84794 4.52544 0
M  V30 2024 H 190.594 -3.05707 2.82576 0
M  V30 2025 H 191.127 -1.57361 3.65352 0
M  V30 2026 H 187.866 -0.691561 6.51842 0
M  V30 2027 H 187.386 -2.13929 5.60352 0
M  V30 2028 H 189.065 -1.95337 6.16808 0
M  V30 2029 N 189.197 -1.51736 -0.425897 0
M  V30 2030 C 190.613 -1.40166 -0.76326 0
M  V30 2031 C 190.813 -0.492962 -1.95377 0
M  V30 2032 O 189.869 0.0475815 -2.52455 0
M  V30 2033 C 191.182 -2.82403 -1.03291 0
M  V30 2034 C 192.73 -2.91632 -1.13665 0
M  V30 2035 C 193.205 -4.34801 -1.43916 0
M  V30 2036 N 194.696 -4.3796 -1.50816 0
M  V30 2037 C 195.431 -5.4578 -1.75817 0
M  V30 2038 N 194.927 -6.63744 -1.98534 0
M  V30 2039 N 196.72 -5.33274 -1.77694 0
M  V30 2040 H 188.871 -2.09361 0.358 0
M  V30 2041 H 191.134 -0.942941 0.0978094 0
M  V30 2042 H 190.84 -3.50943 -0.230696 0
M  V30 2043 H 190.714 -3.22428 -1.95754 0
M  V30 2044 H 193.101 -2.23284 -1.92947 0
M  V30 2045 H 193.182 -2.55088 -0.190756 0
M  V30 2046 H 192.826 -5.03703 -0.65157 0
M  V30 2047 H 192.756 -4.68868 -2.39729 0
M  V30 2048 H 195.247 -3.52919 -1.35118 0
M  V30 2049 H 195.56 -7.41704 -2.17013 0
M  V30 2050 H 193.905 -6.66839 -1.95832 0
M  V30 2051 H 197.096 -4.40098 -1.59473 0
M  V30 2052 H 197.269 -6.1738 -1.9684 0
M  V30 2053 N 190.675 0.682077 -1.42076 0
M  V30 2054 C 191.605 1.80796 -1.47767 0
M  V30 2055 C 192.586 1.6677 -0.334954 0
M  V30 2056 O 193.771 1.863 -0.548264 0
M  V30 2057 C 190.901 3.19038 -1.37229 0
M  V30 2058 C 189.855 3.47789 -2.49453 0
M  V30 2059 C 189.181 4.8553 -2.23975 0
M  V30 2060 C 190.481 3.45411 -3.91776 0
M  V30 2061 H 192.175 1.7629 -2.41997 0
M  V30 2062 H 189.721 0.846721 -1.16476 0
M  V30 2063 H 191.674 3.97528 -1.39821 0
M  V30 2064 H 190.398 3.24204 -0.394907 0
M  V30 2065 H 189.057 2.71657 -2.46166 0
M  V30 2066 H 188.705 4.87337 -1.24547 0
M  V30 2067 H 188.405 5.0573 -2.99184 0
M  V30 2068 H 189.929 5.66312 -2.28304 0
M  V30 2069 H 191.343 4.13882 -3.96705 0
M  V30 2070 H 189.74 3.77145 -4.66778 0
M  V30 2071 H 190.81 2.44122 -4.18966 0
M  V30 2072 N 192.153 1.28127 0.917671 0
M  V30 2073 C 193.086 1.06039 2.02067 0
M  V30 2074 C 194.064 -0.0223285 1.62585 0
M  V30 2075 O 195.248 0.124823 1.88086 0
M  V30 2076 C 192.375 0.610596 3.33151 0
M  V30 2077 C 191.421 1.68937 3.91615 0
M  V30 2078 S 192.254 3.28437 4.22953 0
M  V30 2079 C 193.41 2.85283 5.57103 0
M  V30 2080 H 193.643 1.99425 2.20493 0
M  V30 2081 H 191.176 1.12071 1.06205 0
M  V30 2082 H 193.134 0.357778 4.08938 0
M  V30 2083 H 191.795 -0.303364 3.12632 0
M  V30 2084 H 190.988 1.32619 4.86239 0
M  V30 2085 H 190.59 1.89478 3.2245 0
M  V30 2086 H 192.882 2.3121 6.36827 0
M  V30 2087 H 193.825 3.7869 5.98331 0
M  V30 2088 H 194.233 2.24118 5.18104 0
M  V30 2089 N 193.631 -1.12557 1.10312 0
M  V30 2090 C 194.594 -2.16434 0.75424 0
M  V30 2091 C 195.594 -1.59278 -0.220685 0
M  V30 2092 O 196.784 -1.742 0.00230591 0
M  V30 2093 C 193.916 -3.40699 0.116987 0
M  V30 2094 H 195.109 -2.48811 1.67431 0
M  V30 2095 H 192.662 -1.27542 0.903475 0
M  V30 2096 H 193.397 -3.13921 -0.813877 0
M  V30 2097 H 193.182 -3.83459 0.818613 0
M  V30 2098 H 194.672 -4.17451 -0.111387 0
M  V30 2099 N 195.109 -0.891671 -1.2995 0
M  V30 2100 C 196.019 -0.367691 -2.31701 0
M  V30 2101 C 197.035 0.533486 -1.6562 0
M  V30 2102 O 198.211 0.424997 -1.96865 0
M  V30 2103 C 195.276 0.403406 -3.44345 0
M  V30 2104 C 194.337 -0.528328 -4.26037 0
M  V30 2105 C 193.57 0.206063 -5.33302 0
M  V30 2106 O 193.793 1.43119 -5.52153 0
M  V30 2107 O 192.727 -0.447281 -6.00236 0
M  V30 2108 H 196.553 -1.21163 -2.78484 0
M  V30 2109 H 194.138 -0.655725 -1.34241 0
M  V30 2110 H 196.02 0.839753 -4.12948 0
M  V30 2111 H 194.695 1.22354 -2.99685 0
M  V30 2112 H 193.602 -1.01362 -3.60106 0
M  V30 2113 H 194.935 -1.31465 -4.74318 0
M  V30 2114 N 196.587 1.43421 -0.653314 0
M  V30 2115 C 197.835 2.01414 -0.166415 0
M  V30 2116 C 198.156 1.51803 1.22397 0
M  V30 2117 O 197.426 0.730693 1.81763 0
M  V30 2118 H 196.006 0.744703 -0.0585319 0
M  V30 2119 H 198.668 1.75629 -0.845003 0
M  V30 2120 H 197.764 3.11734 -0.151111 0
M  V30 2121 N 198.065 0.39524 1.52563 0
M  V30 2122 C 199.028 -0.425001 2.25225 0
M  V30 2123 C 200.028 -0.985266 1.27079 0
M  V30 2124 O 201.218 -0.866332 1.5113 0
M  V30 2125 C 198.35 -1.59686 3.01186 0
M  V30 2126 H 199.543 0.211233 2.99155 0
M  V30 2127 H 197.096 0.147472 1.55603 0
M  V30 2128 H 197.831 -2.27035 2.31572 0
M  V30 2129 H 197.616 -1.20176 3.73229 0
M  V30 2130 H 199.106 -2.17743 3.5634 0
M  V30 2131 N 199.544 -1.57102 0.125237 0
M  V30 2132 C 200.955 -1.82384 -0.399142 0
M  V30 2133 C 201.306 -1.04276 -1.66195 0
M  V30 2134 O 200.431 -0.281269 -2.14564 0
M  V30 2135 C 201.026 -3.30821 -0.730932 0
M  V30 2136 C 199.585 -3.56762 -1.19992 0
M  V30 2137 C 198.732 -2.7649 -0.211792 0
M  V30 2138 H 201.683 -1.54786 0.350277 0
M  V30 2139 H 201.704 -3.4579 -1.58775 0
M  V30 2140 H 201.216 -3.87643 0.188345 0
M  V30 2141 H 199.317 -3.05305 -2.13588 0
M  V30 2142 H 199.43 -4.65317 -1.14093 0
M  V30 2143 H 197.794 -2.4489 -0.700085 0
M  V30 2144 H 198.577 -3.36073 0.700691 0
M  V30 2145 N 201.022 0.148545 -1.56898 0
M  V30 2146 C 201.969 1.18345 -1.98149 0
M  V30 2147 C 202.939 1.42772 -0.848848 0
M  V30 2148 O 204.124 1.55132 -1.11079 0
M  V30 2149 C 201.264 2.51231 -2.36594 0
M  V30 2150 C 200.377 2.33991 -3.63142 0
M  V30 2151 C 199.512 3.59902 -3.90697 0
M  V30 2152 C 198.551 3.37692 -5.1052 0
M  V30 2153 N 197.688 4.5573 -5.34092 0
M  V30 2154 H 202.528 0.82467 -2.86362 0
M  V30 2155 H 200.065 0.395756 -1.41676 0
M  V30 2156 H 202.023 3.28713 -2.56912 0
M  V30 2157 H 200.653 2.85059 -1.51463 0
M  V30 2158 H 199.705 1.47572 -3.50609 0
M  V30 2159 H 201.017 2.13539 -4.5078 0
M  V30 2160 H 200.171 4.45813 -4.11505 0
M  V30 2161 H 198.91 3.83357 -3.01477 0
M  V30 2162 H 197.915 2.5017 -4.89587 0
M  V30 2163 H 199.14 3.15637 -6.0129 0
M  V30 2164 H 197.086 4.79361 -4.47827 0
M  V30 2165 H 197.003 4.38274 -6.15996 0
M  V30 2166 H 198.271 5.42858 -5.59397 0
M  V30 2167 N 202.5 1.5196 0.417844 0
M  V30 2168 C 203.746 1.66793 1.16411 0
M  V30 2169 C 204.101 0.388758 1.88432 0
M  V30 2170 O 203.394 -0.616409 1.81414 0
M  V30 2171 C 203.588 2.82269 2.19223 0
M  V30 2172 C 203.417 4.21293 1.57297 0
M  V30 2173 C 202.187 4.86948 1.34944 0
M  V30 2174 C 204.385 5.03704 1.03858 0
M  V30 2175 N 202.367 6.1003 0.688195 0
M  V30 2176 C 203.738 6.1795 0.503742 0
M  V30 2177 C 205.793 4.89095 0.932203 0
M  V30 2178 C 204.496 7.19188 -0.127034 0
M  V30 2179 C 206.522 5.90559 0.315293 0
M  V30 2180 C 205.884 7.0409 -0.208906 0
M  V30 2181 H 201.983 0.66407 0.412959 0
M  V30 2182 H 204.567 1.89242 0.457772 0
M  V30 2183 H 202.738 2.61451 2.87225 0
M  V30 2184 H 204.47 2.86183 2.86149 0
M  V30 2185 H 201.225 4.45156 1.61657 0
M  V30 2186 H 201.649 6.75964 0.374449 0
M  V30 2187 H 206.291 4.01557 1.32332 0
M  V30 2188 H 204.009 8.06359 -0.530231 0
M  V30 2189 H 207.595 5.81327 0.234625 0
M  V30 2190 H 206.475 7.81257 -0.67875 0
M  V30 2191 N 203.978 -0.674533 1.42435 0
M  V30 2192 C 205.389 -1.25514 1.38214 0
M  V30 2193 C 205.74 -1.96055 0.0755464 0
M  V30 2194 O 204.865 -2.00028 -0.8257 0
M  V30 2195 C 205.46 -2.28269 2.50357 0
M  V30 2196 C 204.019 -2.81856 2.49467 0
M  V30 2197 C 203.166 -1.56182 2.29134 0
M  V30 2198 H 206.117 -0.467902 1.51646 0
M  V30 2199 H 206.138 -3.10009 2.20624 0
M  V30 2200 H 205.65 -1.769 3.45439 0
M  V30 2201 H 203.751 -3.37346 1.58204 0
M  V30 2202 H 203.864 -3.30854 3.46515 0
M  V30 2203 H 202.228 -1.82761 1.774 0
M  V30 2204 H 203.011 -1.06778 3.26272 0
M  V30 2205 N 205.456 -1.28612 -0.910864 0
M  V30 2206 C 206.403 -1.12786 -2.01365 0
M  V30 2207 C 207.373 -0.024201 -1.66082 0
M  V30 2208 O 208.558 -0.189667 -1.89855 0
M  V30 2209 C 205.698 -0.798743 -3.35729 0
M  V30 2210 C 204.811 -1.98173 -3.83864 0
M  V30 2211 C 203.946 -1.59298 -5.06752 0
M  V30 2212 C 202.985 -2.74245 -5.47226 0
M  V30 2213 N 202.122 -2.35842 -6.61304 0
M  V30 2214 H 206.962 -2.07142 -2.14234 0
M  V30 2215 H 204.499 -1.03093 -1.0493 0
M  V30 2216 H 206.457 -0.588662 -4.13026 0
M  V30 2217 H 205.087 0.10789 -3.2262 0
M  V30 2218 H 204.139 -2.30386 -3.02699 0
M  V30 2219 H 205.451 -2.84343 -4.09818 0
M  V30 2220 H 204.605 -1.34513 -5.916 0
M  V30 2221 H 203.344 -0.702618 -4.82612 0
M  V30 2222 H 202.349 -2.99725 -4.60918 0
M  V30 2223 H 203.574 -3.63928 -5.73353 0
M  V30 2224 H 201.52 -1.49279 -6.38789 0
M  V30 2225 H 201.437 -3.15546 -6.86998 0
M  V30 2226 H 202.705 -2.14348 -7.4945 0
M  V30 2227 N 206.934 1.1197 -1.10907 0
M  V30 2228 C 207.844 2.21433 -0.774896 0
M  V30 2229 C 208.86 1.72478 0.229657 0
M  V30 2230 O 210.036 2.01288 0.0672008 0
M  V30 2231 C 207.101 3.4602 -0.216986 0
M  V30 2232 C 206.162 4.09791 -1.27944 0
M  V30 2233 C 205.395 5.28431 -0.748055 0
M  V30 2234 O 205.618 5.68823 0.423833 0
M  V30 2235 O 204.552 5.82644 -1.51027 0
M  V30 2236 H 208.378 2.5242 -1.68873 0
M  V30 2237 H 205.963 1.20399 -0.884555 0
M  V30 2238 H 207.845 4.21304 0.090059 0
M  V30 2239 H 206.52 3.16698 0.669633 0
M  V30 2240 H 205.427 3.36265 -1.63941 0
M  V30 2241 H 206.76 4.4328 -2.13925 0
M  V30 2242 N 208.412 0.89855 1.29475 0
M  V30 2243 C 209.64 0.539261 1.99749 0
M  V30 2244 C 210.055 -0.875716 1.67262 0
M  V30 2245 O 209.412 -1.57786 0.917049 0
M  V30 2246 C 209.463 0.72061 3.54245 0
M  V30 2247 O 209.184 2.07989 3.8558 0
M  V30 2248 C 210.685 0.366118 4.41786 0
M  V30 2249 H 207.905 0.207047 0.638258 0
M  V30 2250 H 210.449 1.20758 1.65039 0
M  V30 2251 H 208.604 0.0994862 3.87272 0
M  V30 2252 H 209.018 2.10841 4.80257 0
M  V30 2253 H 210.492 0.543848 5.49314 0
M  V30 2254 H 210.969 -0.696763 4.33638 0
M  V30 2255 H 211.575 0.964135 4.14228 0
M  V30 2256 N 209.89 -1.43072 0.660911 0
M  V30 2257 C 211.136 -2.0202 0.177708 0
M  V30 2258 C 211.469 -1.52066 -1.20787 0
M  V30 2259 O 210.744 -0.716987 -1.80802 0
M  V30 2260 C 211.027 -3.59561 0.197019 0
M  V30 2261 C 210.88 -4.19727 1.61706 0
M  V30 2262 C 212.199 -4.37664 -0.462396 0
M  V30 2263 H 209.318 -0.734034 0.0660494 0
M  V30 2264 H 211.96 -1.70272 0.843058 0
M  V30 2265 H 210.11 -3.86739 -0.369527 0
M  V30 2266 H 211.782 -4.03553 2.23479 0
M  V30 2267 H 210.025 -3.76084 2.16201 0
M  V30 2268 H 210.696 -5.28834 1.58237 0
M  V30 2269 H 213.172 -4.16095 0.0197215 0
M  V30 2270 H 212.048 -5.47305 -0.418188 0
M  V30 2271 H 212.309 -4.14493 -1.53778 0
M  V30 2272 N 211.368 -0.403325 -1.52352 0
M  V30 2273 C 212.315 0.425011 -2.26853 0
M  V30 2274 C 213.285 1.04598 -1.29029 0
M  V30 2275 O 214.47 1.07135 -1.57882 0
M  V30 2276 C 211.61 1.53888 -3.08889 0
M  V30 2277 C 210.723 0.939396 -4.21663 0
M  V30 2278 C 209.858 2.02547 -4.91068 0
M  V30 2279 C 208.897 1.40263 -5.95813 0
M  V30 2280 N 208.034 2.4286 -6.58759 0
M  V30 2281 H 212.874 -0.21674 -2.97211 0
M  V30 2282 H 210.411 -0.118722 -1.4662 0
M  V30 2283 H 212.369 2.19558 -3.54753 0
M  V30 2284 H 210.999 2.15074 -2.40714 0
M  V30 2285 H 210.051 0.171898 -3.80011 0
M  V30 2286 H 211.363 0.44436 -4.96817 0
M  V30 2287 H 210.517 2.75958 -5.40308 0
M  V30 2288 H 209.256 2.55415 -4.15469 0
M  V30 2289 H 208.261 0.653833 -5.45898 0
M  V30 2290 H 209.486 0.881719 -6.73352 0
M  V30 2291 H 207.432 2.94871 -5.85992 0
M  V30 2292 H 207.349 1.98152 -7.2957 0
M  V30 2293 H 208.617 3.15858 -7.12639 0
M  V30 2294 N 212.846 1.57033 -0.133567 0
M  V30 2295 C 214.257 1.82593 0.389464 0
M  V30 2296 C 214.608 1.05156 1.6564 0
M  V30 2297 O 213.733 0.292644 2.14412 0
M  V30 2298 C 214.328 3.31204 0.713377 0
M  V30 2299 C 212.887 3.57393 1.18098 0
M  V30 2300 C 212.034 2.76598 0.197126 0
M  V30 2301 H 214.985 1.54598 -0.358481 0
M  V30 2302 H 215.006 3.46627 1.56939 0
M  V30 2303 H 214.518 3.87537 -0.2089 0
M  V30 2304 H 212.619 3.06433 2.11966 0
M  V30 2305 H 212.732 4.65915 1.11624 0
M  V30 2306 H 211.096 2.45257 0.687088 0
M  V30 2307 H 211.879 3.35697 -0.718504 0
M  V30 2308 N 214.325 -0.140222 1.56975 0
M  V30 2309 C 215.571 -0.852949 1.83991 0
M  V30 2310 C 215.904 -1.80512 0.716187 0
M  V30 2311 O 215.179 -1.92479 -0.279681 0
M  V30 2312 C 215.462 -1.6215 3.21527 0
M  V30 2313 C 215.315 -0.690363 4.4447 0
M  V30 2314 C 216.634 -2.58247 3.56366 0
M  V30 2315 H 213.753 -0.308634 0.669264 0
M  V30 2316 H 216.395 -0.117898 1.89634 0
M  V30 2317 H 214.545 -2.24812 3.16847 0
M  V30 2318 H 216.217 -0.0742264 4.6124 0
M  V30 2319 H 214.46 -0.000396433 4.338 0
M  V30 2320 H 215.131 -1.2643 5.37326 0
M  V30 2321 H 217.607 -2.05701 3.61699 0
M  V30 2322 H 216.483 -3.09067 4.53617 0
M  V30 2323 H 216.744 -3.39923 2.82674 0
M  V30 2324 N 215.803 -1.52179 -0.40978 0
M  V30 2325 C 216.713 -1.78364 -1.52392 0
M  V30 2326 C 217.729 -0.669183 -1.60617 0
M  V30 2327 O 218.905 -0.954518 -1.77344 0
M  V30 2328 C 215.97 -1.92822 -2.88133 0
M  V30 2329 C 215.031 -3.16725 -2.898 0
M  V30 2330 C 214.264 -3.30483 -4.19067 0
M  V30 2331 O 214.487 -2.49522 -5.12928 0
M  V30 2332 O 213.421 -4.2363 -4.27576 0
M  V30 2333 H 217.247 -2.72931 -1.33201 0
M  V30 2334 H 214.832 -1.37016 -0.59557 0
M  V30 2335 H 216.714 -2.04157 -3.68643 0
M  V30 2336 H 215.389 -1.01444 -3.07393 0
M  V30 2337 H 214.296 -3.10848 -2.08146 0
M  V30 2338 H 215.629 -4.07881 -2.75489 0
M  V30 2339 N 217.281 0.66697 -1.42791 0
M  V30 2340 C 218.527 1.4291 -1.43891 0
M  V30 2341 C 218.86 1.94114 -0.0578972 0
M  V30 2342 O 218.135 1.71414 0.91911 0
M  V30 2343 C 218.418 2.62049 -2.46987 0
M  V30 2344 C 218.271 2.16426 -3.94309 0
M  V30 2345 C 219.59 3.64266 -2.46978 0
M  V30 2346 H 216.709 0.518306 -0.523954 0
M  V30 2347 H 219.351 0.757321 -1.74255 0
M  V30 2348 H 217.501 3.19361 -2.21225 0
M  V30 2349 H 219.173 1.64221 -4.31079 0
M  V30 2350 H 217.416 1.47925 -4.078 0
M  V30 2351 H 218.087 3.02038 -4.62036 0
M  V30 2352 H 220.563 3.16686 -2.69906 0
M  V30 2353 H 219.439 4.45196 -3.21079 0
M  V30 2354 H 219.7 4.15927 -1.49857 0
M  V30 2355 N 218.759 1.29093 0.90403 0
M  V30 2356 C 219.669 1.15727 2.0407 0
M  V30 2357 C 220.685 0.0815308 1.73809 0
M  V30 2358 O 221.861 0.292749 1.99261 0
M  V30 2359 C 218.926 0.830424 3.36608 0
M  V30 2360 C 217.987 1.98955 3.80415 0
M  V30 2361 C 217.22 1.6782 5.06628 0
M  V30 2362 O 217.443 0.597105 5.67266 0
M  V30 2363 O 216.377 2.52486 5.46383 0
M  V30 2364 H 220.203 2.11171 2.18267 0
M  V30 2365 H 217.788 1.08504 1.027 0
M  V30 2366 H 219.67 0.662521 4.16159 0
M  V30 2367 H 218.345 -0.0942678 3.23563 0
M  V30 2368 H 217.252 2.21267 3.01648 0
M  V30 2369 H 218.585 2.89529 3.98037 0
M  V30 2370 N 220.237 -1.11381 1.11499 0
M  V30 2371 C 221.147 -2.21019 0.786628 0
M  V30 2372 C 222.163 -1.72597 -0.220507 0
M  V30 2373 O 223.339 -2.01321 -0.0565251 0
M  V30 2374 C 220.404 -3.459 0.235333 0
M  V30 2375 C 219.465 -4.09107 1.30115 0
M  V30 2376 C 218.698 -5.28027 0.776068 0
M  V30 2377 O 218.921 -5.6904 -0.393661 0
M  V30 2378 O 217.855 -5.81835 1.54114 0
M  V30 2379 H 221.681 -2.51521 1.70209 0
M  V30 2380 H 219.266 -1.19928 0.890928 0
M  V30 2381 H 221.148 -4.21346 -0.067715 0
M  V30 2382 H 219.823 -3.17049 -0.652828 0
M  V30 2383 H 218.73 -3.35391 1.65722 0
M  V30 2384 H 220.063 -4.42139 2.16273 0
M  V30 2385 N 221.715 -0.905404 -1.28997 0
M  V30 2386 C 222.963 -0.533192 -1.9494 0
M  V30 2387 C 223.284 0.924618 -1.71685 0
M  V30 2388 O 222.554 1.65268 -1.05183 0
M  V30 2389 H 221.134 -0.194194 -0.721317 0
M  V30 2390 H 223.796 -1.15294 -1.57141 0
M  V30 2391 H 222.892 -0.72059 -3.03667 0
M  V30 2392 N 223.193 1.4272 -0.668489 0
M  V30 2393 C 224.103 2.34596 0.0139753 0
M  V30 2394 C 225.119 1.5474 0.795703 0
M  V30 2395 O 226.295 1.87334 0.739466 0
M  V30 2396 C 223.36 3.33202 0.957982 0
M  V30 2397 C 222.421 4.28957 0.17149 0
M  V30 2398 C 221.654 5.22853 1.07053 0
M  V30 2399 O 221.877 5.21531 2.31001 0
M  V30 2400 O 220.811 5.9952 0.534727 0
M  V30 2401 H 224.637 2.9448 -0.742661 0
M  V30 2402 H 222.222 1.43117 -0.428705 0
M  V30 2403 H 224.104 3.93796 1.50008 0
M  V30 2404 H 222.779 2.758 1.69458 0
M  V30 2405 H 221.686 3.71796 -0.414558 0
M  V30 2406 H 223.019 4.89383 -0.52586 0
M  V30 2407 N 224.671 0.411399 1.52136 0
M  V30 2408 C 225.896 -0.165538 2.06738 0
M  V30 2409 C 226.321 -1.379 1.27926 0
M  V30 2410 O 225.679 -1.78628 0.310114 0
M  V30 2411 C 225.727 -0.492124 3.57226 0
M  V30 2412 O 224.831 -1.58276 3.80818 0
M  V30 2413 H 224.172 -0.0132132 0.663869 0
M  V30 2414 H 226.702 0.585253 1.96051 0
M  V30 2415 H 226.712 -0.750104 4.01045 0
M  V30 2416 H 225.387 0.394922 4.14021 0
M  V30 2417 H 223.964 -1.31677 3.48877 0
M  V30 2418 N 226.149 -1.5696 0.141893 0
M  V30 2419 C 227.395 -1.9625 -0.511248 0
M  V30 2420 C 227.728 -1.02654 -1.64851 0
M  V30 2421 O 227.003 -0.0679676 -1.94381 0
M  V30 2422 C 227.286 -3.45285 -1.02227 0
M  V30 2423 C 227.139 -4.49658 0.113138 0
M  V30 2424 C 228.458 -3.96698 -1.90574 0
M  V30 2425 H 225.577 -0.713567 -0.184367 0
M  V30 2426 H 228.219 -1.88698 0.222087 0
M  V30 2427 H 226.369 -3.51852 -1.64719 0
M  V30 2428 H 228.041 -4.55174 0.749302 0
M  V30 2429 H 226.284 -4.26857 0.773026 0
M  V30 2430 H 226.955 -5.51258 -0.286053 0
M  V30 2431 H 229.431 -3.92578 -1.37918 0
M  V30 2432 H 228.307 -5.01453 -2.2324 0
M  V30 2433 H 228.568 -3.3875 -2.84079 0
M  V30 2434 N 227.627 0.131896 -1.57047 0
M  V30 2435 C 228.873 0.843179 -1.84441 0
M  V30 2436 C 229.206 1.80129 -0.725749 0
M  V30 2437 O 228.481 1.92624 0.269469 0
M  V30 2438 C 228.764 1.60442 -3.22382 0
M  V30 2439 C 228.617 0.666782 -4.4483 0
M  V30 2440 C 229.936 2.56354 -3.5773 0
M  V30 2441 H 227.055 0.305081 -0.670891 0
M  V30 2442 H 229.697 0.107839 -1.89694 0
M  V30 2443 H 227.847 2.23128 -3.18035 0
M  V30 2444 H 229.519 0.0497646 -4.61273 0
M  V30 2445 H 227.762 -0.022609 -4.33794 0
M  V30 2446 H 228.433 1.23579 -5.37989 0
M  V30 2447 H 230.909 2.0378 -3.62785 0
M  V30 2448 H 229.785 3.06657 -4.5525 0
M  V30 2449 H 230.046 3.38419 -2.84473 0
M  V30 2450 N 229.106 1.52395 0.401703 0
M  V30 2451 C 230.036 1.79231 1.49661 0
M  V30 2452 C 231.017 0.643654 1.57452 0
M  V30 2453 O 232.202 0.889989 1.72606 0
M  V30 2454 C 229.332 1.94971 2.87409 0
M  V30 2455 C 228.286 3.10604 2.94465 0
M  V30 2456 C 227.612 3.11577 4.34538 0
M  V30 2457 C 228.912 4.49921 2.6527 0
M  V30 2458 H 230.606 2.70917 1.27454 0
M  V30 2459 H 228.152 1.30362 0.6117 0
M  V30 2460 H 230.105 2.12328 3.63999 0
M  V30 2461 H 228.829 0.999632 3.10926 0
M  V30 2462 H 227.488 2.93009 2.20321 0
M  V30 2463 H 227.136 2.14277 4.55076 0
M  V30 2464 H 226.836 3.89247 4.40183 0
M  V30 2465 H 228.36 3.31073 5.13053 0
M  V30 2466 H 229.774 4.67683 3.31581 0
M  V30 2467 H 228.171 5.29564 2.82281 0
M  V30 2468 H 229.241 4.57507 1.60671 0
M  V30 2469 N 230.584 -0.659388 1.43143 0
M  V30 2470 C 231.995 -1.24041 1.39537 0
M  V30 2471 C 232.346 -1.95963 0.0963364 0
M  V30 2472 O 231.471 -2.00892 -0.804438 0
M  V30 2473 C 232.066 -2.25601 2.52764 0
M  V30 2474 C 230.625 -2.79195 2.52443 0
M  V30 2475 C 229.772 -1.53743 2.30778 0
M  V30 2476 H 232.723 -0.451792 1.52133 0
M  V30 2477 H 232.744 -3.07651 2.23899 0
M  V30 2478 H 232.256 -1.73226 3.47296 0
M  V30 2479 H 230.357 -3.35649 1.61773 0
M  V30 2480 H 230.47 -3.2716 3.50004 0
M  V30 2481 H 228.834 -1.80869 1.79328 0
M  V30 2482 H 229.617 -1.03312 3.27386 0
M  V30 2483 N 232.062 -1.29571 -0.897171 0
M  V30 2484 C 233.302 -1.18959 -1.66217 0
M  V30 2485 C 233.666 0.254271 -1.90309 0
M  V30 2486 O 234.867 0.483407 -2.64417 0
M  V30 2487 C 233.138 -1.98302 -2.9734 0
M  V30 2488 S 234.697 -2.04253 -3.88364 0
M  V30 2489 H 231.515 -0.424137 -0.570639 0
M  V30 2490 H 234.117 -1.6389 -1.06585 0
M  V30 2491 H 232.821 -3.02342 -2.77521 0
M  V30 2492 H 232.352 -1.53986 -3.62011 0
M  V30 2493 H 234.367 -1.16105 -4.82425 0
M  V30 2494 N 233.54 1.10788 -1.12088 0
M  V30 2495 C 234.488 2.19111 -0.780587 0
M  V30 2496 C 235.482 1.67818 0.230961 0
M  V30 2497 O 236.688 1.79777 0.0895427 0
M  V30 2498 H 233.063 0.714477 -0.234578 0
M  V30 2499 H 235.034 2.45055 -1.70266 0
M  V30 2500 C 233.783 3.46818 -0.24747 0
M  V30 2501 H 233.106 3.86646 -1.01712 0
M  V30 2502 H 234.546 4.23973 -0.0476291 0
M  V30 2503 C 233.005 3.20968 1.02378 0
M  V30 2504 O 233.535 3.42298 2.10226 0
M  V30 2505 N 231.741 2.74658 0.949271 0
M  V30 2506 H 231.288 2.57501 0.0715173 0
M  V30 2507 H 231.246 2.57739 1.80049 0
M  V30 2508 N 235.018 0.912232 1.28515 0
M  V30 2509 C 236.429 0.591352 1.77087 0
M  V30 2510 C 236.78 -0.8933 1.74684 0
M  V30 2511 O 235.905 -1.69876 1.34056 0
M  V30 2512 C 236.5 1.06668 3.2157 0
M  V30 2513 C 235.059 0.79675 3.67871 0
M  V30 2514 C 234.206 1.23427 2.48316 0
M  V30 2515 H 237.157 1.09365 1.15 0
M  V30 2516 H 237.178 0.407455 3.78312 0
M  V30 2517 H 236.69 2.14726 3.23287 0
M  V30 2518 H 234.791 -0.270679 3.71616 0
M  V30 2519 H 234.904 1.40343 4.58084 0
M  V30 2520 H 233.268 0.653036 2.46186 0
M  V30 2521 H 234.051 2.32316 2.52753 0
M  V30 2522 N 236.496 -1.42363 0.676048 0
M  V30 2523 C 237.907 -1.84649 0.275948 0
M  V30 2524 C 238.258 -1.56588 -1.18214 0
M  V30 2525 O 237.383 -1.02634 -1.90513 0
M  V30 2526 C 237.978 -3.35178 0.494053 0
M  V30 2527 C 236.537 -3.76109 0.148061 0
M  V30 2528 C 235.684 -2.65931 0.785891 0
M  V30 2529 H 238.635 -1.32192 0.878121 0
M  V30 2530 H 238.656 -3.79655 -0.25343 0
M  V30 2531 H 238.168 -3.55571 1.55535 0
M  V30 2532 H 236.269 -3.61323 -0.909742 0
M  V30 2533 H 236.382 -4.7546 0.589454 0
M  V30 2534 H 234.746 -2.53773 0.217113 0
M  V30 2535 H 235.529 -2.89146 1.85067 0
M  V30 2536 N 237.974 -0.419461 -1.51915 0
M  V30 2537 C 239.385 0.0477853 -1.86639 0
M  V30 2538 C 239.736 1.43531 -1.33766 0
M  V30 2539 O 238.861 2.05401 -0.68113 0
M  V30 2540 C 239.456 0.0934885 -3.38671 0
M  V30 2541 C 238.015 0.505097 -3.72996 0
M  V30 2542 C 237.162 -0.313792 -2.75519 0
M  V30 2543 H 240.113 -0.636088 -1.45395 0
M  V30 2544 H 240.134 0.906667 -3.6954 0
M  V30 2545 H 239.646 -0.916501 -3.77123 0
M  V30 2546 H 237.747 1.52135 -3.40126 0
M  V30 2547 H 237.86 0.242309 -4.78487 0
M  V30 2548 H 236.224 0.225363 -2.53701 0
M  V30 2549 H 237.007 -1.32232 -3.16812 0
M  V30 2550 N 239.452 1.56882 -0.150215 0
M  V30 2551 C 240.677 2.01027 0.510184 0
M  V30 2552 C 241.102 1.02966 1.57415 0
M  V30 2553 O 240.46 0.00590158 1.81299 0
M  V30 2554 C 240.508 3.43899 1.08472 0
M  V30 2555 O 239.612 3.4885 2.19948 0
M  V30 2556 H 238.953 0.652233 0.124451 0
M  V30 2557 H 241.483 2.03093 -0.247894 0
M  V30 2558 H 241.493 3.82766 1.41259 0
M  V30 2559 H 240.168 4.14776 0.305582 0
M  V30 2560 H 238.745 3.21827 1.88366 0
M  V30 2561 N 240.93 -0.123565 1.57115 0
M  V30 2562 C 241.893 -1.13583 1.99076 0
M  V30 2563 C 242.893 -1.34564 0.880296 0
M  V30 2564 O 244.083 -1.31158 1.14644 0
M  V30 2565 C 241.215 -2.49128 2.32698 0
M  V30 2566 H 242.408 -0.775287 2.89706 0
M  V30 2567 H 239.961 -0.36771 1.51913 0
M  V30 2568 H 240.696 -2.90111 1.44934 0
M  V30 2569 H 240.481 -2.35255 3.13684 0
M  V30 2570 H 241.971 -3.2199 2.65918 0
M  V30 2571 N 242.408 -1.52605 -0.393616 0
M  V30 2572 C 243.318 -1.79971 -1.50492 0
M  V30 2573 C 244.334 -0.686181 -1.59899 0
M  V30 2574 O 245.51 -0.973274 -1.76322 0
M  V30 2575 C 242.575 -1.95867 -2.86072 0
M  V30 2576 C 241.636 -3.19781 -2.86424 0
M  V30 2577 C 240.869 -3.34909 -4.15538 0
M  V30 2578 O 241.092 -2.54948 -5.10253 0
M  V30 2579 O 240.026 -4.28141 -4.23059 0
M  V30 2580 H 243.852 -2.74328 -1.30299 0
M  V30 2581 H 241.437 -1.3764 -0.581005 0
M  V30 2582 H 243.319 -2.08056 -3.66457 0
M  V30 2583 H 241.994 -1.04699 -3.063 0
M  V30 2584 H 240.901 -3.13038 -2.04837 0
M  V30 2585 H 242.234 -4.1078 -2.71147 0
M  V30 2586 N 243.887 0.651787 -1.4349 0
M  V30 2587 C 245.298 1.233 -1.40193 0
M  V30 2588 C 245.649 1.9591 -0.106727 0
M  V30 2589 O 244.774 2.01316 0.793773 0
M  V30 2590 C 245.369 2.24257 -2.53957 0
M  V30 2591 C 243.928 2.77852 -2.5392 0
M  V30 2592 C 243.075 1.52517 -2.3159 0
M  V30 2593 H 246.026 0.443717 -1.52371 0
M  V30 2594 H 246.047 3.0646 -2.25528 0
M  V30 2595 H 245.559 1.71382 -3.4821 0
M  V30 2596 H 243.66 3.34786 -1.63551 0
M  V30 2597 H 243.773 3.25299 -3.51735 0
M  V30 2598 H 242.137 1.79915 -1.80285 0
M  V30 2599 H 242.92 1.01574 -3.27929 0
M  V30 2600 N 245.365 1.30045 0.890287 0
M  V30 2601 C 246.295 1.18541 2.01172 0
M  V30 2602 C 247.276 0.0773356 1.69924 0
M  V30 2603 O 248.461 0.25845 1.92473 0
M  V30 2604 C 245.591 0.870941 3.36202 0
M  V30 2605 C 244.545 1.93637 3.81692 0
M  V30 2606 C 243.871 1.475 5.13953 0
M  V30 2607 C 245.171 3.34666 4.00994 0
M  V30 2608 H 246.865 2.12359 2.11054 0
M  V30 2609 H 244.411 1.02238 1.01407 0
M  V30 2610 H 246.364 0.777141 4.14172 0
M  V30 2611 H 245.088 -0.102926 3.26438 0
M  V30 2612 H 243.747 2.01972 3.05946 0
M  V30 2613 H 243.395 0.489551 5.00612 0
M  V30 2614 H 243.095 2.1876 5.4536 0
M  V30 2615 H 244.619 1.39489 5.94454 0
M  V30 2616 H 246.033 3.2912 4.69417 0
M  V30 2617 H 244.43 4.03966 4.43769 0
M  V30 2618 H 245.5 3.76949 3.05021 0
M  V30 2619 N 246.843 -1.10192 1.12674 0
M  V30 2620 C 248.259 -1.34235 0.863317 0
M  V30 2621 C 248.459 -1.95062 -0.505277 0
M  V30 2622 O 247.515 -2.19192 -1.25345 0
M  V30 2623 C 248.828 -2.2616 1.98172 0
M  V30 2624 C 250.376 -2.3969 2.0129 0
M  V30 2625 C 250.851 -3.34946 3.1237 0
M  V30 2626 N 252.342 -3.42515 3.11829 0
M  V30 2627 C 253.077 -4.16199 3.94419 0
M  V30 2628 N 252.573 -4.92747 4.87004 0
M  V30 2629 N 254.366 -4.11843 3.82547 0
M  V30 2630 H 246.517 -0.690798 2.00853 0
M  V30 2631 H 248.78 -0.366774 0.874174 0
M  V30 2632 H 248.486 -1.8868 2.96804 0
M  V30 2633 H 248.36 -3.26488 1.88906 0
M  V30 2634 H 250.747 -2.76438 1.03276 0
M  V30 2635 H 250.828 -1.39169 2.14629 0
M  V30 2636 H 250.472 -2.98923 4.10619 0
M  V30 2637 H 250.402 -4.35353 2.96269 0
M  V30 2638 H 252.893 -2.87926 2.44759 0
M  V30 2639 H 253.206 -5.46376 5.46528 0
M  V30 2640 H 251.551 -4.91862 4.91016 0
M  V30 2641 H 254.742 -3.51136 3.0955 0
M  V30 2642 H 254.915 -4.69007 4.47142 0
M  V30 2643 N 248.321 -0.919034 -1.28029 0
M  V30 2644 C 249.57 -0.550802 -1.94034 0
M  V30 2645 C 249.883 0.910877 -1.73096 0
M  V30 2646 O 251.089 1.3875 -2.33368 0
M  V30 2647 C 249.545 -0.934249 -3.47563 0
M  V30 2648 C 249.153 -2.41602 -3.7727 0
M  V30 2649 C 250.897 -0.636854 -4.19696 0
M  V30 2650 C 248.804 -2.73932 -5.24133 0
M  V30 2651 H 247.734 -0.202273 -0.726362 0
M  V30 2652 H 250.385 -1.11867 -1.45458 0
M  V30 2653 H 248.767 -0.295115 -3.94899 0
M  V30 2654 H 249.941 -3.10233 -3.40723 0
M  V30 2655 H 248.256 -2.68441 -3.18321 0
M  V30 2656 H 250.853 -0.855005 -5.2782 0
M  V30 2657 H 251.196 0.425575 -4.14119 0
M  V30 2658 H 251.729 -1.23469 -3.78154 0
M  V30 2659 H 248.468 -3.79049 -5.34792 0
M  V30 2660 H 247.988 -2.09942 -5.61858 0
M  V30 2661 H 249.667 -2.61215 -5.91925 0
M  V30 2662 N 249.799 1.42003 -0.683588 0
M  V30 2663 C 251.029 2.05448 -0.217866 0
M  V30 2664 C 251.437 1.51491 1.13346 0
M  V30 2665 O 250.78 0.653048 1.717 0
M  V30 2666 C 250.842 3.59399 -0.0850118 0
M  V30 2667 C 250.506 4.36093 -1.36645 0
M  V30 2668 C 251.503 4.66169 -2.30179 0
M  V30 2669 C 249.188 4.75578 -1.61649 0
M  V30 2670 C 251.182 5.34676 -3.46988 0
M  V30 2671 C 248.869 5.43824 -2.78745 0
M  V30 2672 C 249.867 5.73299 -3.71238 0
M  V30 2673 O 249.555 6.40142 -4.86285 0
M  V30 2674 H 249.287 0.668344 -0.101454 0
M  V30 2675 H 251.841 1.82974 -0.933248 0
M  V30 2676 H 250.071 3.80566 0.686031 0
M  V30 2677 H 251.76 4.04457 0.341973 0
M  V30 2678 H 252.526 4.36156 -2.12115 0
M  V30 2679 H 248.405 4.52025 -0.905243 0
M  V30 2680 H 251.949 5.57599 -4.19201 0
M  V30 2681 H 247.846 5.73254 -2.96732 0
M  V30 2682 H 248.614 6.58636 -4.85944 0
M  V30 2683 N 251.277 0.427512 1.51691 0
M  V30 2684 C 252.523 -0.134744 2.02953 0
M  V30 2685 C 252.878 -1.41235 1.30654 0
M  V30 2686 O 252.171 -1.87168 0.409713 0
M  V30 2687 C 252.365 -0.418249 3.54944 0
M  V30 2688 C 252.194 0.830327 4.41968 0
M  V30 2689 C 250.964 1.36097 4.86627 0
M  V30 2690 C 253.162 1.7137 4.84909 0
M  V30 2691 N 251.144 2.56311 5.57833 0
M  V30 2692 C 252.515 2.76195 5.55082 0
M  V30 2693 C 254.57 1.72928 4.66905 0
M  V30 2694 C 253.273 3.82512 6.09161 0
M  V30 2695 C 255.299 2.78175 5.21894 0
M  V30 2696 C 254.661 3.8172 5.92004 0
M  V30 2697 H 250.76 -0.0103958 0.781931 0
M  V30 2698 H 253.344 0.585981 1.85673 0
M  V30 2699 H 251.515 -1.10801 3.7226 0
M  V30 2700 H 253.247 -0.970999 3.92879 0
M  V30 2701 H 250.002 0.916311 4.64651 0
M  V30 2702 H 250.426 3.17242 5.98069 0
M  V30 2703 H 255.068 0.942081 4.12171 0
M  V30 2704 H 252.786 4.62077 6.62956 0
M  V30 2705 H 256.372 2.8031 5.09821 0
M  V30 2706 H 255.252 4.61821 6.33791 0
M  V30 2707 N 252.755 -1.56801 0.158532 0
M  V30 2708 C 253.688 -2.13148 -0.815065 0
M  V30 2709 C 254.666 -1.0581 -1.23462 0
M  V30 2710 O 255.85 -1.3371 -1.32868 0
M  V30 2711 C 252.977 -2.6606 -2.09594 0
M  V30 2712 C 252.023 -3.85651 -1.82141 0
M  V30 2713 S 252.856 -5.26041 -1.00207 0
M  V30 2714 C 254.012 -5.8235 -2.29389 0
M  V30 2715 H 254.245 -2.95396 -0.335937 0
M  V30 2716 H 251.778 -1.54299 -0.0559391 0
M  V30 2717 H 253.736 -2.97195 -2.8317 0
M  V30 2718 H 252.397 -1.83921 -2.54621 0
M  V30 2719 H 251.59 -4.20958 -2.77147 0
M  V30 2720 H 251.192 -3.55338 -1.16667 0
M  V30 2721 H 253.484 -5.94485 -3.24952 0
M  V30 2722 H 254.427 -6.79688 -1.9857 0
M  V30 2723 H 254.835 -5.10675 -2.40564 0
M  V30 2724 N 254.233 0.115231 -1.57178 0
M  V30 2725 C 255.181 1.16014 -2.01602 0
M  V30 2726 C 256.175 1.42653 -0.913587 0
M  V30 2727 O 257.381 1.42571 -1.09879 0
M  V30 2728 H 253.756 0.391252 -0.642204 0
M  V30 2729 H 255.727 0.758998 -2.88586 0
M  V30 2730 C 254.476 2.47767 -2.4394 0
M  V30 2731 H 253.799 2.28108 -3.28339 0
M  V30 2732 H 255.239 3.19432 -2.78818 0
M  V30 2733 C 253.698 3.10617 -1.30455 0
M  V30 2734 O 254.228 3.96846 -0.622585 0
M  V30 2735 N 252.434 2.70553 -1.06064 0
M  V30 2736 H 251.981 2.00527 -1.61699 0
M  V30 2737 H 251.939 3.12934 -0.303284 0
M  V30 2738 N 255.711 1.52812 0.385517 0
M  V30 2739 C 256.936 1.72207 1.15583 0
M  V30 2740 C 257.361 0.441034 1.82857 0
M  V30 2741 O 256.719 -0.603465 1.70962 0
M  V30 2742 C 256.767 2.87476 2.17692 0
M  V30 2743 O 255.871 2.54693 3.24354 0
M  V30 2744 H 255.212 0.572526 0.336319 0
M  V30 2745 H 257.742 1.99618 0.448744 0
M  V30 2746 H 257.752 3.13072 2.6163 0
M  V30 2747 H 256.427 3.80408 1.68115 0
M  V30 2748 H 255.004 2.3985 2.85529 0
M  V30 2749 N 257.189 -0.644168 1.43834 0
M  V30 2750 C 258.136 -1.75671 1.49694 0
M  V30 2751 C 259.106 -1.6246 0.345809 0
M  V30 2752 O 260.291 -1.82573 0.554234 0
M  V30 2753 C 257.431 -3.13867 1.43463 0
M  V30 2754 C 256.544 -3.38147 2.6885 0
M  V30 2755 C 255.679 -4.66241 2.54544 0
M  V30 2756 C 254.718 -4.83657 3.75157 0
M  V30 2757 N 253.855 -6.03016 3.59605 0
M  V30 2758 H 258.695 -1.69998 2.44754 0
M  V30 2759 H 256.232 -0.829458 1.21484 0
M  V30 2760 H 258.19 -3.9377 1.37843 0
M  V30 2761 H 256.82 -3.18588 0.519783 0
M  V30 2762 H 255.872 -2.52276 2.84712 0
M  V30 2763 H 257.184 -3.46899 3.58417 0
M  V30 2764 H 256.338 -5.54285 2.46683 0
M  V30 2765 H 255.077 -4.59826 1.62516 0
M  V30 2766 H 254.082 -3.94046 3.83416 0
M  V30 2767 H 255.307 -4.91896 4.68204 0
M  V30 2768 H 253.253 -5.97715 2.7032 0
M  V30 2769 H 253.17 -6.12766 4.42779 0
M  V30 2770 H 254.438 -6.93657 3.55613 0
M  V30 2771 N 258.668 -1.30515 -0.883378 0
M  V30 2772 C 259.917 -1.18795 -1.63005 0
M  V30 2773 C 260.23 0.255923 -1.93919 0
M  V30 2774 O 261.436 0.494654 -2.66956 0
M  V30 2775 C 259.892 -2.07878 -2.93794 0
M  V30 2776 C 259.5 -3.57184 -2.70414 0
M  V30 2777 C 261.244 -2.04924 -3.71761 0
M  V30 2778 C 259.151 -4.38317 -3.97029 0
M  V30 2779 H 258.081 -0.441031 -0.611562 0
M  V30 2780 H 260.732 -1.55275 -0.977854 0
M  V30 2781 H 259.114 -1.64283 -3.60315 0
M  V30 2782 H 260.288 -4.08937 -2.12384 0
M  V30 2783 H 258.603 -3.61976 -2.0582 0
M  V30 2784 H 261.2 -2.62792 -4.65665 0
M  V30 2785 H 261.543 -1.0331 -4.03277 0
M  V30 2786 H 262.076 -2.46649 -3.12104 0
M  V30 2787 H 258.815 -5.40632 -3.70671 0
M  V30 2788 H 258.335 -3.91326 -4.54559 0
M  V30 2789 H 260.014 -4.49834 -4.65036 0
M  V30 2790 N 260.146 1.09593 -1.13257 0
M  V30 2791 C 261.076 2.18214 -0.830946 0
M  V30 2792 C 262.057 1.68812 0.208966 0
M  V30 2793 O 263.242 1.9408 0.0682666 0
M  V30 2794 C 260.372 3.46051 -0.294296 0
M  V30 2795 C 259.326 4.08778 -1.26826 0
M  V30 2796 C 258.652 5.31419 -0.591449 0
M  V30 2797 C 259.952 4.51476 -2.62615 0
M  V30 2798 H 261.646 2.43703 -1.73923 0
M  V30 2799 H 259.192 1.17128 -0.837675 0
M  V30 2800 H 261.145 4.2134 -0.0709606 0
M  V30 2801 H 259.869 3.20079 0.649366 0
M  V30 2802 H 258.528 3.35505 -1.47756 0
M  V30 2803 H 258.176 5.01727 0.357633 0
M  V30 2804 H 257.876 5.74341 -1.24123 0
M  V30 2805 H 259.4 6.09433 -0.377355 0
M  V30 2806 H 260.814 5.17999 -2.45663 0
M  V30 2807 H 259.211 5.05277 -3.23752 0
M  V30 2808 H 260.281 3.63962 -3.20406 0
M  V30 2809 N 261.624 0.925811 1.2754 0
M  V30 2810 C 262.574 0.394488 2.24561 0
M  V30 2811 C 263.558 -0.500183 1.52928 0
M  V30 2812 O 264.75 -0.337936 1.73744 0
M  V30 2813 C 261.879 -0.353328 3.41477 0
M  V30 2814 C 260.965 0.557752 4.20416 0
M  V30 2815 N 261.356 1.67674 4.77199 0
M  V30 2816 C 259.654 0.360404 4.44541 0
M  V30 2817 C 260.355 2.24324 5.36706 0
M  V30 2818 N 259.331 1.53305 5.21535 0
M  V30 2819 H 263.133 1.2489 2.66045 0
M  V30 2820 H 260.647 0.779864 1.4245 0
M  V30 2821 H 262.644 -0.7509 4.10082 0
M  V30 2822 H 261.304 -1.20469 3.01525 0
M  V30 2823 H 262.315 2.05915 4.75204 0
M  V30 2824 H 258.992 -0.450454 4.15063 0
M  V30 2825 H 260.382 3.18521 5.91603 0
M  V30 2826 N 263.102 -1.41638 0.69111 0
M  V30 2827 C 264.351 -2.00526 0.217318 0
M  V30 2828 C 264.664 -1.55353 -1.18848 0
M  V30 2829 O 265.87 -2.06769 -1.75951 0
M  V30 2830 C 264.326 -3.58313 0.337639 0
M  V30 2831 C 263.934 -4.12469 1.74852 0
M  V30 2832 C 265.678 -4.24431 -0.0766066 0
M  V30 2833 C 263.585 -5.62675 1.82074 0
M  V30 2834 H 262.515 -0.750008 0.0774893 0
M  V30 2835 H 265.166 -1.6217 0.858661 0
M  V30 2836 H 263.548 -3.9425 -0.371879 0
M  V30 2837 H 264.722 -3.8796 2.48644 0
M  V30 2838 H 263.037 -3.58861 2.11205 0
M  V30 2839 H 265.634 -5.34683 -0.0430284 0
M  V30 2840 H 265.977 -4.01101 -1.1146 0
M  V30 2841 H 266.51 -3.93512 0.582476 0
M  V30 2842 H 263.249 -5.90826 2.83911 0
M  V30 2843 H 262.769 -5.89124 1.12661 0
M  V30 2844 H 264.448 -6.27371 1.58159 0
M  V30 2845 N 264.58 -0.43555 -1.51462 0
M  V30 2846 C 265.527 0.376797 -2.27703 0
M  V30 2847 C 266.497 1.01838 -1.31219 0
M  V30 2848 O 267.682 1.03762 -1.60119 0
M  V30 2849 C 264.822 1.47301 -3.12084 0
M  V30 2850 C 263.935 0.849744 -4.2356 0
M  V30 2851 C 263.07 1.92086 -4.95254 0
M  V30 2852 C 262.109 1.27593 -5.98654 0
M  V30 2853 N 261.246 2.28833 -6.63762 0
M  V30 2854 H 266.086 -0.279734 -2.96684 0
M  V30 2855 H 263.623 -0.149795 -1.46335 0
M  V30 2856 H 265.581 2.11984 -3.59331 0
M  V30 2857 H 264.211 2.0992 -2.45221 0
M  V30 2858 H 263.263 0.0912529 -3.80291 0
M  V30 2859 H 264.575 0.338878 -4.97648 0
M  V30 2860 H 263.729 2.64435 -5.46039 0
M  V30 2861 H 262.468 2.46545 -4.20793 0
M  V30 2862 H 261.473 0.537893 -5.47162 0
M  V30 2863 H 262.698 0.738693 -6.7507 0
M  V30 2864 H 260.644 2.82375 -5.92115 0
M  V30 2865 H 260.561 1.82632 -7.33608 0
M  V30 2866 H 261.829 3.00671 -7.19178 0
M  V30 2867 N 266.058 1.56714 -0.166846 0
M  V30 2868 C 266.99 2.14914 0.796537 0
M  V30 2869 C 268.003 1.10357 1.19688 0
M  V30 2870 O 269.192 1.37561 1.13751 0
M  V30 2871 C 266.292 2.67326 2.08303 0
M  V30 2872 C 265.465 3.96493 1.84696 0
M  V30 2873 C 264.524 4.34014 2.97521 0
M  V30 2874 O 263.55 5.01973 2.6835 0
M  V30 2875 N 264.752 3.95208 4.25196 0
M  V30 2876 H 267.517 2.98205 0.299006 0
M  V30 2877 H 265.078 1.61892 0.0160839 0
M  V30 2878 H 267.07 2.89428 2.82867 0
M  V30 2879 H 265.64 1.88649 2.4926 0
M  V30 2880 H 264.86 3.82814 0.940602 0
M  V30 2881 H 266.148 4.8086 1.66285 0
M  V30 2882 H 265.546 3.40487 4.51758 0
M  V30 2883 H 264.103 4.2232 4.96477 0
M  V30 2884 N 267.536 -0.106894 1.57237 0
M  V30 2885 C 268.813 -0.843526 1.76477 0
M  V30 2886 C 269.193 -1.97499 0.745464 0
M  V30 2887 O 268.541 -2.27357 -0.228306 0
M  V30 2888 C 268.751 -1.34903 3.21873 0
M  V30 2889 C 270.099 -1.79654 3.8472 0
M  V30 2890 O 271.123 -1.44554 3.2555 0
M  V30 2891 O 269.982 -2.44515 4.88748 0
M  V30 2892 H 267.076 -0.401468 0.723016 0
M  V30 2893 H 269.622 -0.0896927 1.69463 0
M  V30 2894 H 268.394 -0.53781 3.87586 0
M  V30 2895 H 268.017 -2.16522 3.33473 0
M  V30 2896 N 269.014 -1.53014 -0.377408 0
M  V30 2897 C 269.924 -1.81557 -1.48574 0
M  V30 2898 C 270.94 -0.703102 -1.59162 0
M  V30 2899 O 272.116 -0.99192 -1.75279 0
M  V30 2900 C 269.181 -1.9889 -2.83978 0
M  V30 2901 C 268.242 -3.22801 -2.83016 0
M  V30 2902 C 267.475 -3.39298 -4.11962 0
M  V30 2903 O 267.698 -2.60345 -5.0752 0
M  V30 2904 O 266.632 -4.32604 -4.18494 0
M  V30 2905 H 270.458 -2.75695 -1.27382 0
M  V30 2906 H 268.043 -1.38248 -0.566373 0
M  V30 2907 H 269.925 -2.11931 -3.6423 0
M  V30 2908 H 268.6 -1.07942 -3.05172 0
M  V30 2909 H 267.507 -3.15193 -2.01505 0
M  V30 2910 H 268.84 -4.13632 -2.66775 0
M  V30 2911 N 270.492 0.636531 -1.44174 0
M  V30 2912 C 271.908 0.954104 -1.27941 0
M  V30 2913 C 272.108 2.0039 -0.211248 0
M  V30 2914 O 271.164 2.49236 0.404695 0
M  V30 2915 C 272.477 1.4225 -2.64925 0
M  V30 2916 C 274.025 1.53827 -2.72592 0
M  V30 2917 C 274.5 2.04053 -4.10032 0
M  V30 2918 N 275.991 2.11331 -4.12182 0
M  V30 2919 C 276.726 2.51352 -5.15374 0
M  V30 2920 N 276.222 2.90549 -6.2893 0
M  V30 2921 N 278.015 2.51438 -5.02728 0
M  V30 2922 H 270.166 -0.0578386 -2.12321 0
M  V30 2923 H 272.429 0.0367406 -0.947288 0
M  V30 2924 H 272.135 0.725466 -3.44136 0
M  V30 2925 H 272.009 2.39451 -2.9145 0
M  V30 2926 H 274.396 2.22628 -1.93702 0
M  V30 2927 H 274.477 0.550154 -2.49814 0
M  V30 2928 H 274.121 1.35848 -4.89395 0
M  V30 2929 H 274.051 3.03726 -4.30184 0
M  V30 2930 H 276.542 1.83745 -3.30222 0
M  V30 2931 H 276.855 3.19884 -7.03487 0
M  V30 2932 H 275.2 2.88313 -6.32377 0
M  V30 2933 H 278.391 2.20203 -4.13072 0
M  V30 2934 H 278.564 2.82304 -5.83274 0
M  V30 2935 N 271.97 1.30982 0.876444 0
M  V30 2936 C 273.216 1.20474 1.63138 0
M  V30 2937 C 273.549 -0.238096 1.92735 0
M  V30 2938 O 272.824 -1.1692 1.55435 0
M  V30 2939 C 273.107 2.04244 2.96574 0
M  V30 2940 C 272.96 3.56793 2.73896 0
M  V30 2941 C 274.279 1.88684 3.97601 0
M  V30 2942 H 271.398 0.439001 0.591985 0
M  V30 2943 H 274.04 1.60704 1.01361 0
M  V30 2944 H 272.19 1.70063 3.493 0
M  V30 2945 H 273.862 4.01077 2.27892 0
M  V30 2946 H 272.105 3.80548 2.08245 0
M  V30 2947 H 272.776 4.10706 3.68815 0
M  V30 2948 H 275.252 2.18584 3.54062 0
M  V30 2949 H 274.128 2.4961 4.88862 0
M  V30 2950 H 274.389 0.848343 4.33884 0
M  V30 2951 N 273.449 -1.08991 1.13837 0
M  V30 2952 C 274.677 -1.85011 0.926202 0
M  V30 2953 C 275.092 -1.8135 -0.525127 0
M  V30 2954 O 274.449 -1.21287 -1.36366 0
M  V30 2955 C 274.5 -3.32802 1.41155 0
M  V30 2956 O 274.221 -3.36444 2.80601 0
M  V30 2957 C 275.722 -4.25649 1.23847 0
M  V30 2958 H 272.942 -0.584249 0.32999 0
M  V30 2959 H 275.486 -1.37688 1.51202 0
M  V30 2960 H 273.641 -3.77536 0.868631 0
M  V30 2961 H 274.055 -4.28657 3.02248 0
M  V30 2962 H 275.529 -5.27485 1.62675 0
M  V30 2963 H 276.006 -4.38828 0.18065 0
M  V30 2964 H 276.612 -3.86735 1.76964 0
M  V30 2965 N 274.927 -0.932562 -1.27047 0
M  V30 2966 C 275.86 -0.379774 -2.25018 0
M  V30 2967 C 276.838 0.526587 -1.53837 0
M  V30 2968 O 278.022 0.465992 -1.82649 0
M  V30 2969 C 275.149 0.455187 -3.35627 0
M  V30 2970 C 274.195 -0.388428 -4.24728 0
M  V30 2971 S 275.028 -1.80701 -5.04091 0
M  V30 2972 C 276.184 -0.979865 -6.18182 0
M  V30 2973 H 276.417 -1.2101 -2.71558 0
M  V30 2974 H 273.95 -0.735078 -1.35779 0
M  V30 2975 H 275.908 0.931052 -3.99802 0
M  V30 2976 H 274.569 1.26009 -2.87716 0
M  V30 2977 H 273.762 0.25089 -5.03375 0
M  V30 2978 H 273.364 -0.798649 -3.65373 0
M  V30 2979 H 275.656 -0.218115 -6.77149 0
M  V30 2980 H 276.599 -1.73951 -6.86401 0
M  V30 2981 H 277.007 -0.51973 -5.62102 0
M  V30 2982 N 276.405 1.4127 -0.698611 0
M  V30 2983 C 277.653 2.00782 -0.230409 0
M  V30 2984 C 277.974 1.5562 1.17505 0
M  V30 2985 O 277.244 0.78815 1.79346 0
M  V30 2986 H 275.824 0.742464 -0.0821944 0
M  V30 2987 H 278.486 1.72852 -0.90045 0
M  V30 2988 H 277.582 3.11095 -0.25021 0
M  V30 2989 N 277.883 0.443576 1.51229 0
M  V30 2990 C 278.815 -0.400608 2.25672 0
M  V30 2991 C 279.828 -0.980945 1.29928 0
M  V30 2992 O 281.017 -0.874024 1.55638 0
M  V30 2993 C 278.117 -1.57304 3.00181 0
M  V30 2994 C 277.29 -1.11046 4.23069 0
M  V30 2995 C 276.349 -2.15374 4.80105 0
M  V30 2996 O 275.375 -1.74554 5.41774 0
M  V30 2997 N 276.577 -3.47922 4.64683 0
M  V30 2998 H 279.342 0.23745 2.98758 0
M  V30 2999 H 276.903 0.272809 1.59585 0
M  V30 3000 H 278.895 -2.26733 3.35223 0
M  V30 3001 H 277.465 -2.11632 2.30066 0
M  V30 3002 H 276.685 -0.243019 3.9345 0
M  V30 3003 H 277.973 -0.778888 5.02803 0
M  V30 3004 H 277.371 -3.83815 4.15575 0
M  V30 3005 H 275.928 -4.13228 5.0407 0
M  V30 3006 N 279.361 -1.56624 0.175154 0
M  V30 3007 C 280.309 -2.19468 -0.770495 0
M  V30 3008 C 281.303 -1.15985 -1.23466 0
M  V30 3009 O 282.509 -1.34176 -1.19987 0
M  V30 3010 H 278.884 -0.703095 -0.266761 0
M  V30 3011 H 280.855 -2.97613 -0.216542 0
M  V30 3012 C 279.604 -2.85264 -1.98796 0
M  V30 3013 H 278.927 -3.64623 -1.63983 0
M  V30 3014 H 280.367 -3.327 -2.62843 0
M  V30 3015 C 278.826 -1.85239 -2.81404 0
M  V30 3016 O 279.356 -1.34024 -3.78682 0
M  V30 3017 N 277.562 -1.53911 -2.46495 0
M  V30 3018 H 277.109 -1.95751 -1.67449 0
M  V30 3019 H 277.067 -0.872382 -3.02054 0
M  V30 3020 N 280.839 0.0985539 -1.57292 0
M  V30 3021 C 282.087 0.801092 -1.85545 0
M  V30 3022 C 282.408 1.79438 -0.763353 0
M  V30 3023 O 281.678 1.94763 0.21073 0
M  V30 3024 H 280.258 0.29884 -0.684619 0
M  V30 3025 H 282.92 0.0810064 -1.94732 0
M  V30 3026 H 282.016 1.3338 -2.82163 0
M  V30 3027 N 282.317 1.53212 0.369288 0
M  V30 3028 C 283.265 1.80054 1.47253 0
M  V30 3029 C 284.259 0.669456 1.55611 0
M  V30 3030 O 285.465 0.852328 1.58541 0
M  V30 3031 H 281.84 0.570034 0.490475 0
M  V30 3032 H 283.811 2.72403 1.21817 0
M  V30 3033 C 282.56 2.00403 2.84137 0
M  V30 3034 H 281.883 2.86876 2.78464 0
M  V30 3035 H 283.323 2.23164 3.60519 0
M  V30 3036 C 281.782 0.782081 3.27697 0
M  V30 3037 O 282.312 -0.0310205 4.01688 0
M  V30 3038 N 280.518 0.606573 2.84199 0
M  V30 3039 H 280.065 1.26939 2.24152 0
M  V30 3040 H 280.023 -0.20962 3.137 0
M  V30 3041 N 283.795 -0.628877 1.44509 0
M  V30 3042 C 284.725 -1.75187 1.54376 0
M  V30 3043 C 285.706 -1.65411 0.396618 0
M  V30 3044 O 286.891 -1.84137 0.617031 0
M  V30 3045 C 284.021 -3.13725 1.48976 0
M  V30 3046 C 282.975 -3.38291 2.62189 0
M  V30 3047 C 282.301 -4.76883 2.41841 0
M  V30 3048 C 283.601 -3.30632 4.04326 0
M  V30 3049 H 285.295 -1.67187 2.48373 0
M  V30 3050 H 282.841 -0.802909 1.19538 0
M  V30 3051 H 284.794 -3.92064 1.54478 0
M  V30 3052 H 283.518 -3.22515 0.514961 0
M  V30 3053 H 282.177 -2.62334 2.56079 0
M  V30 3054 H 281.825 -4.82378 1.42548 0
M  V30 3055 H 281.525 -4.94278 3.17747 0
M  V30 3056 H 283.049 -5.57449 2.49165 0
M  V30 3057 H 284.463 -3.98873 4.11793 0
M  V30 3058 H 282.86 -3.59561 4.80454 0
M  V30 3059 H 283.93 -2.28404 4.27738 0
M  V30 3060 N 285.273 -1.31445 -0.869486 0
M  V30 3061 C 286.503 -1.23942 -1.65294 0
M  V30 3062 C 286.911 0.197561 -1.88166 0
M  V30 3063 O 286.254 1.14019 -1.44033 0
M  V30 3064 C 286.316 -1.91385 -3.04322 0
M  V30 3065 C 285.98 -3.40726 -3.04557 0
M  V30 3066 C 286.977 -4.36464 -2.82481 0
M  V30 3067 C 284.662 -3.82425 -3.25663 0
M  V30 3068 C 286.656 -5.71876 -2.8149 0
M  V30 3069 C 284.343 -5.1795 -3.243 0
M  V30 3070 C 285.341 -6.12486 -3.02241 0
M  V30 3071 O 285.029 -7.45534 -3.00724 0
M  V30 3072 H 284.761 -0.429459 -0.522054 0
M  V30 3073 H 287.315 -1.73873 -1.0935 0
M  V30 3074 H 285.545 -1.36004 -3.61994 0
M  V30 3075 H 287.234 -1.77791 -3.64891 0
M  V30 3076 H 288 -4.05576 -2.65956 0
M  V30 3077 H 283.879 -3.09274 -3.41863 0
M  V30 3078 H 287.423 -6.45638 -2.64191 0
M  V30 3079 H 283.32 -5.48473 -3.40365 0
M  V30 3080 H 284.088 -7.54713 -3.16782 0
M  V30 3081 N 286.751 1.08385 -1.14413 0
M  V30 3082 C 287.998 1.80776 -0.912482 0
M  V30 3083 C 288.326 1.86236 0.560934 0
M  V30 3084 O 287.581 1.33431 1.43159 0
M  V30 3085 C 287.88 3.26273 -1.45879 0
M  V30 3086 C 287.546 3.4093 -2.95089 0
M  V30 3087 C 286.208 3.44638 -3.35824 0
M  V30 3088 C 288.56 3.44591 -3.91033 0
M  V30 3089 C 285.888 3.49597 -4.71167 0
M  V30 3090 C 288.24 3.51086 -5.26233 0
M  V30 3091 C 286.904 3.53067 -5.6648 0
M  V30 3092 H 286.174 0.661507 -0.333901 0
M  V30 3093 H 288.821 1.27613 -1.42784 0
M  V30 3094 H 287.126 3.82146 -0.864376 0
M  V30 3095 H 288.823 3.80839 -1.2555 0
M  V30 3096 H 285.413 3.38736 -2.62594 0
M  V30 3097 H 289.597 3.40957 -3.60641 0
M  V30 3098 H 284.853 3.49424 -5.0171 0
M  V30 3099 H 289.027 3.52864 -6.00383 0
M  V30 3100 H 286.654 3.56662 -6.71339 0
M  V30 3101 N 288.23 0.939286 1.26551 0
M  V30 3102 C 289.193 0.451987 2.24699 0
M  V30 3103 C 290.193 -0.435869 1.5478 0
M  V30 3104 O 291.383 -0.235314 1.72603 0
M  V30 3105 C 288.515 -0.348801 3.39111 0
M  V30 3106 H 289.708 1.3193 2.69322 0
M  V30 3107 H 287.261 0.721072 1.38673 0
M  V30 3108 H 287.996 -1.23444 2.99887 0
M  V30 3109 H 287.781 0.287945 3.91041 0
M  V30 3110 H 289.271 -0.679726 4.12031 0
M  V30 3111 N 289.708 -1.40897 0.706093 0
M  V30 3112 C 290.656 -2.32572 0.0361893 0
M  V30 3113 C 291.65 -1.51532 -0.757266 0
M  V30 3114 O 292.856 -1.67396 -0.661703 0
M  V30 3115 H 289.231 -0.751966 -0.00709935 0
M  V30 3116 H 291.202 -2.86733 0.826249 0
M  V30 3117 C 289.951 -3.36418 -0.87854 0
M  V30 3118 H 289.274 -3.98836 -0.277401 0
M  V30 3119 H 290.714 -4.0308 -1.3154 0
M  V30 3120 C 289.173 -2.71141 -1.99961 0
M  V30 3121 O 289.703 -2.56735 -3.0895 0
M  V30 3122 N 287.909 -2.29671 -1.78043 0
M  V30 3123 H 287.456 -2.41588 -0.894042 0
M  V30 3124 H 287.414 -1.86332 -2.53235 0
M  V30 3125 N 291.186 -0.45159 -1.50991 0
M  V30 3126 C 292.432 0.110237 -2.025 0
M  V30 3127 C 292.765 1.41109 -1.33424 0
M  V30 3128 O 292.04 1.89135 -0.453659 0
M  V30 3129 C 292.323 0.314271 -3.58726 0
M  V30 3130 C 292.176 -1.00623 -4.38401 0
M  V30 3131 C 293.495 1.07767 -4.26702 0
M  V30 3132 H 290.614 0.0385897 -0.735989 0
M  V30 3133 H 293.256 -0.593374 -1.80497 0
M  V30 3134 H 291.406 0.913601 -3.77605 0
M  V30 3135 H 293.078 -1.64064 -4.31139 0
M  V30 3136 H 291.321 -1.6075 -4.02917 0
M  V30 3137 H 291.992 -0.817341 -5.45915 0
M  V30 3138 H 294.468 0.56986 -4.12179 0
M  V30 3139 H 293.344 1.18921 -5.35863 0
M  V30 3140 H 293.605 2.10939 -3.88532 0
M  V30 3141 N 292.664 1.56529 -0.183458 0
M  V30 3142 C 293.594 2.21549 0.737456 0
M  V30 3143 C 294.575 1.17489 1.23005 0
M  V30 3144 O 295.76 1.45959 1.281 0
M  V30 3145 C 292.89 2.86575 1.96194 0
M  V30 3146 C 291.844 3.96778 1.60473 0
M  V30 3147 C 291.17 4.48911 2.90487 0
M  V30 3148 C 292.47 5.15767 0.823497 0
M  V30 3149 H 294.164 2.98761 0.195453 0
M  V30 3150 H 291.71 1.43702 0.0925686 0
M  V30 3151 H 293.663 3.30739 2.61131 0
M  V30 3152 H 292.387 2.06749 2.52828 0
M  V30 3153 H 291.046 3.53286 0.978997 0
M  V30 3154 H 290.694 3.65862 3.45186 0
M  V30 3155 H 290.394 5.23265 2.67335 0
M  V30 3156 H 291.918 4.95771 3.56432 0
M  V30 3157 H 293.332 5.56549 1.37571 0
M  V30 3158 H 291.729 5.96114 0.690551 0
M  V30 3159 H 292.799 4.84574 -0.177782 0
M  V30 3160 N 294.142 -0.090211 1.57342 0
M  V30 3161 C 295.37 -0.806224 1.90546 0
M  V30 3162 C 295.785 -1.72041 0.777644 0
M  V30 3163 O 295.142 -1.80778 -0.250103 0
M  V30 3164 C 295.193 -1.61546 3.23396 0
M  V30 3165 O 294.914 -0.738043 4.31839 0
M  V30 3166 C 296.415 -2.4341 3.70495 0
M  V30 3167 H 293.635 -0.230256 0.630257 0
M  V30 3168 H 296.179 -0.0659843 2.04394 0
M  V30 3169 H 294.334 -2.30816 3.11131 0
M  V30 3170 H 294.748 -1.29901 5.08159 0
M  V30 3171 H 296.222 -2.95676 4.66133 0
M  V30 3172 H 296.699 -3.22098 2.98579 0
M  V30 3173 H 297.305 -1.79331 3.85643 0
M  V30 3174 N 295.62 -1.53406 -0.361157 0
M  V30 3175 C 296.845 -1.74024 -1.12829 0
M  V30 3176 C 297.27 -0.470069 -1.82132 0
M  V30 3177 O 296.628 0.57619 -1.719 0
M  V30 3178 C 296.676 -2.90903 -2.13091 0
M  V30 3179 O 295.78 -2.59821 -3.20261 0
M  V30 3180 H 295.121 -0.577804 -0.327168 0
M  V30 3181 H 297.651 -2.00307 -0.41693 0
M  V30 3182 H 297.661 -3.17194 -2.56616 0
M  V30 3183 H 296.336 -3.83034 -1.62042 0
M  V30 3184 H 294.913 -2.44362 -2.81677 0
M  V30 3185 N 297.098 0.621204 -1.44841 0
M  V30 3186 C 298.375 1.38 -1.38619 0
M  V30 3187 C 298.755 2.11041 -0.0498935 0
M  V30 3188 O 298.103 2.06992 0.967816 0
M  V30 3189 C 298.313 2.33817 -2.59096 0
M  V30 3190 C 299.661 2.96844 -3.03593 0
M  V30 3191 O 300.685 2.44141 -2.59371 0
M  V30 3192 O 299.544 3.92476 -3.80296 0
M  V30 3193 H 296.638 0.61811 -0.549426 0
M  V30 3194 H 299.184 0.645429 -1.56947 0
M  V30 3195 H 297.956 1.79012 -3.47952 0
M  V30 3196 H 297.579 3.14676 -2.43032 0
M  V30 3197 N 298.576 1.31904 0.862503 0
M  V30 3198 C 299.524 1.20125 1.9918 0
M  V30 3199 C 300.518 0.107824 1.69056 0
M  V30 3200 O 301.724 0.270223 1.7796 0
M  V30 3201 H 298.099 0.372148 0.65346 0
M  V30 3202 H 300.07 2.15652 2.06244 0
M  V30 3203 C 298.819 0.933099 3.34946 0
M  V30 3204 H 298.142 1.76664 3.5865 0
M  V30 3205 H 299.582 0.890892 4.14535 0
M  V30 3206 C 298.041 -0.364172 3.34926 0
M  V30 3207 O 298.571 -1.37858 3.77304 0
M  V30 3208 N 296.777 -0.383362 2.8806 0
M  V30 3209 H 296.324 0.442651 2.53768 0
M  V30 3210 H 296.282 -1.25123 2.8843 0
M  V30 3211 N 300.054 -1.07777 1.14986 0
M  V30 3212 C 301.004 -2.13082 0.811181 0
M  V30 3213 C 301.988 -1.59619 -0.202597 0
M  V30 3214 O 303.18 -1.77 -0.00398275 0
M  V30 3215 C 300.309 -3.42009 0.297439 0
M  V30 3216 C 299.395 -4.02337 1.34112 0
M  V30 3217 N 299.786 -4.36982 2.54716 0
M  V30 3218 C 298.084 -4.29752 1.19285 0
M  V30 3219 C 298.785 -4.84729 3.21578 0
M  V30 3220 N 297.761 -4.83233 2.48972 0
M  V30 3221 H 301.563 -2.37696 1.72853 0
M  V30 3222 H 299.077 -1.25173 1.03468 0
M  V30 3223 H 301.074 -4.16884 0.0364777 0
M  V30 3224 H 299.734 -3.18841 -0.614022 0
M  V30 3225 H 300.745 -4.27807 2.91894 0
M  V30 3226 H 297.422 -4.16106 0.340926 0
M  V30 3227 H 298.812 -5.20863 4.24442 0
M  V30 3228 N 301.532 -0.945985 -1.26051 0
M  V30 3229 C 302.757 -0.612525 -1.98149 0
M  V30 3230 C 303.182 0.806623 -1.69927 0
M  V30 3231 O 302.54 1.54411 -0.950108 0
M  V30 3232 C 302.588 -0.866981 -3.50023 0
M  V30 3233 O 301.692 0.0585333 -4.12358 0
M  V30 3234 H 301.033 -0.23379 -0.621481 0
M  V30 3235 H 303.563 -1.27023 -1.60395 0
M  V30 3236 H 303.573 -0.789792 -4.00283 0
M  V30 3237 H 302.248 -1.90135 -3.69894 0
M  V30 3238 H 300.825 -0.0701241 -3.72834 0
M  V30 3239 N 303.011 1.40521 -0.713556 0
M  V30 3240 C 304.288 1.94775 -0.17943 0
M  V30 3241 C 304.668 1.65184 1.31444 0
M  V30 3242 O 304.016 0.968429 2.06963 0
M  V30 3243 C 304.226 3.45543 -0.489986 0
M  V30 3244 C 305.574 4.22442 -0.427536 0
M  V30 3245 O 306.598 3.53644 -0.425929 0
M  V30 3246 O 305.457 5.4501 -0.403292 0
M  V30 3247 H 302.551 0.826606 -0.0255192 0
M  V30 3248 H 305.097 1.5014 -0.790949 0
M  V30 3249 H 303.869 3.60432 -1.5233 0
M  V30 3250 H 303.492 3.97311 0.151598 0
M  V30 3251 N 304.489 0.459591 1.5075 0
M  V30 3252 C 305.719 -0.0972338 2.06371 0
M  V30 3253 C 306.127 -1.35074 1.32483 0
M  V30 3254 O 305.47 -1.79637 0.384226 0
M  V30 3255 C 305.532 -0.462759 3.56509 0
M  V30 3256 C 305.196 0.687084 4.51805 0
M  V30 3257 C 306.193 1.56578 4.95761 0
M  V30 3258 C 303.878 0.874144 4.94635 0
M  V30 3259 C 305.872 2.61604 5.81242 0
M  V30 3260 C 303.559 1.92765 5.79901 0
M  V30 3261 C 304.557 2.79697 6.23104 0
M  V30 3262 O 304.245 3.83235 7.06673 0
M  V30 3263 H 303.977 -0.00140687 0.675999 0
M  V30 3264 H 306.531 0.644011 1.95043 0
M  V30 3265 H 304.761 -1.25703 3.65699 0
M  V30 3266 H 306.45 -0.953323 3.94546 0
M  V30 3267 H 307.216 1.4329 4.6335 0
M  V30 3268 H 303.095 0.207006 4.60535 0
M  V30 3269 H 306.639 3.29489 6.14884 0
M  V30 3270 H 302.536 2.06064 6.11725 0
M  V30 3271 H 303.304 3.80084 7.24899 0
M  V30 3272 N 305.967 -1.56429 0.191757 0
M  V30 3273 C 307.216 -1.9666 -0.448088 0
M  V30 3274 C 307.529 -1.08136 -1.62991 0
M  V30 3275 O 308.735 -1.38135 -2.33733 0
M  V30 3276 C 307.191 -3.49753 -0.848585 0
M  V30 3277 C 306.799 -4.46935 0.308764 0
M  V30 3278 C 308.543 -3.9876 -1.4557 0
M  V30 3279 C 306.45 -5.91293 -0.112506 0
M  V30 3280 H 305.38 -0.734312 -0.171179 0
M  V30 3281 H 308.031 -1.81301 0.283242 0
M  V30 3282 H 306.413 -3.60604 -1.63649 0
M  V30 3283 H 307.587 -4.47813 1.08627 0
M  V30 3284 H 305.902 -4.08102 0.827158 0
M  V30 3285 H 308.499 -5.04086 -1.78328 0
M  V30 3286 H 308.842 -3.42875 -2.36099 0
M  V30 3287 H 309.375 -3.9101 -0.731836 0
M  V30 3288 H 306.114 -6.51097 0.758514 0
M  V30 3289 H 305.634 -5.93676 -0.854941 0
M  V30 3290 H 307.313 -6.44663 -0.549448 0
M  V30 3291 N 307.445 0.0818655 -1.57387 0
M  V30 3292 C 308.685 0.788375 -1.88584 0
M  V30 3293 C 309.049 1.75248 -0.784351 0
M  V30 3294 O 310.25 2.50334 -0.979105 0
M  V30 3295 C 308.521 1.48654 -3.25018 0
M  V30 3296 S 310.08 2.22951 -3.7794 0
M  V30 3297 H 306.898 0.262383 -0.660815 0
M  V30 3298 H 309.5 0.0448995 -1.95448 0
M  V30 3299 H 308.204 0.770919 -4.03094 0
M  V30 3300 H 307.735 2.26965 -3.21326 0
M  V30 3301 H 309.75 3.49309 -3.52417 0
M  V30 3302 N 308.923 1.53595 0.353017 0
M  V30 3303 C 309.873 1.77299 1.43349 0
M  V30 3304 C 310.857 0.627884 1.48143 0
M  V30 3305 O 312.049 0.88697 1.53173 0
M  V30 3306 C 309.178 1.97757 2.80619 0
M  V30 3307 C 308.264 3.18305 2.80254 0
M  V30 3308 N 308.655 4.39967 2.49526 0
M  V30 3309 C 306.953 3.19283 3.11407 0
M  V30 3310 C 307.654 5.21772 2.57156 0
M  V30 3311 N 306.63 4.58269 2.92388 0
M  V30 3312 H 310.432 2.68963 1.18474 0
M  V30 3313 H 307.946 1.52391 0.561306 0
M  V30 3314 H 309.943 2.1287 3.58458 0
M  V30 3315 H 308.603 1.07329 3.06448 0
M  V30 3316 H 309.614 4.67482 2.22893 0
M  V30 3317 H 306.291 2.3879 3.4247 0
M  V30 3318 H 307.681 6.2885 2.36638 0
M  V30 3319 N 310.401 -0.613514 1.45168 0
M  V30 3320 C 311.364 -1.7065 1.53007 0
M  V30 3321 C 312.364 -1.5548 0.410184 0
M  V30 3322 O 313.554 -1.60656 0.673455 0
M  V30 3323 C 310.686 -3.09875 1.42093 0
M  V30 3324 H 311.879 -1.65068 2.50385 0
M  V30 3325 H 309.432 -0.828728 1.32521 0
M  V30 3326 H 310.167 -3.21039 0.458769 0
M  V30 3327 H 309.952 -3.22293 2.23315 0
M  V30 3328 H 311.442 -3.895 1.50598 0
M  V30 3329 N 311.879 -1.3236 -0.855495 0
M  V30 3330 C 312.829 -1.17809 -1.95205 0
M  V30 3331 C 313.813 -0.0852319 -1.60674 0
M  V30 3332 O 315.005 -0.311651 -1.74235 0
M  V30 3333 C 312.134 -0.902437 -3.31226 0
M  V30 3334 C 311.22 -2.03695 -3.7198 0
M  V30 3335 N 311.611 -3.28544 -3.84568 0
M  V30 3336 C 309.909 -1.93993 -4.016 0
M  V30 3337 C 310.61 -4.02847 -4.19629 0
M  V30 3338 N 309.586 -3.31138 -4.31102 0
M  V30 3339 H 313.388 -2.12462 -2.0307 0
M  V30 3340 H 310.902 -1.24127 -1.0472 0
M  V30 3341 H 312.899 -0.77915 -4.09554 0
M  V30 3342 H 311.559 0.0357267 -3.2468 0
M  V30 3343 H 312.57 -3.6349 -3.68911 0
M  V30 3344 H 309.247 -1.07733 -4.03361 0
M  V30 3345 H 310.637 -5.10506 -4.36845 0
M  V30 3346 N 313.357 1.07166 -1.15556 0
M  V30 3347 C 314.604 1.79798 -0.931604 0
M  V30 3348 C 314.932 1.8682 0.54115 0
M  V30 3349 O 314.187 1.34942 1.41736 0
M  V30 3350 C 314.486 3.24707 -1.49332 0
M  V30 3351 C 314.152 3.37781 -2.98688 0
M  V30 3352 C 312.814 3.41057 -3.39461 0
M  V30 3353 C 315.166 3.40424 -3.94665 0
M  V30 3354 C 312.494 3.4458 -4.74849 0
M  V30 3355 C 314.846 3.45485 -5.29927 0
M  V30 3356 C 313.51 3.47039 -5.70193 0
M  V30 3357 H 312.78 0.657928 -0.340898 0
M  V30 3358 H 315.427 1.26091 -1.44129 0
M  V30 3359 H 313.732 3.81208 -0.904859 0
M  V30 3360 H 315.429 3.79486 -1.29582 0
M  V30 3361 H 312.019 3.35932 -2.66172 0
M  V30 3362 H 316.203 3.37113 -3.64237 0
M  V30 3363 H 311.459 3.44083 -5.05388 0
M  V30 3364 H 315.633 3.46476 -6.04092 0
M  V30 3365 H 313.26 3.49522 -6.75084 0
M  V30 3366 N 314.835 0.952656 1.25548 0
M  V30 3367 C 316.246 0.647392 1.75116 0
M  V30 3368 C 316.597 -0.837274 1.77438 0
M  V30 3369 O 315.722 -1.65525 1.39393 0
M  V30 3370 C 316.317 1.16845 3.18014 0
M  V30 3371 C 314.876 0.913382 3.6515 0
M  V30 3372 C 314.023 1.31265 2.44264 0
M  V30 3373 H 316.974 1.12968 1.11462 0
M  V30 3374 H 316.995 0.527606 3.76824 0
M  V30 3375 H 316.507 2.24902 3.16292 0
M  V30 3376 H 314.608 -0.152316 3.72289 0
M  V30 3377 H 314.721 1.54845 4.53387 0
M  V30 3378 H 313.085 0.731028 2.43984 0
M  V30 3379 H 313.868 2.40239 2.45234 0
M  V30 3380 N 316.313 -1.40141 0.720998 0
M  V30 3381 C 317.561 -2.0039 0.262323 0
M  V30 3382 C 317.882 -1.57469 -1.15015 0
M  V30 3383 O 317.152 -0.816582 -1.78069 0
M  V30 3384 H 315.732 -0.741063 0.093996 0
M  V30 3385 H 318.394 -1.71398 0.927835 0
M  V30 3386 H 317.49 -3.10658 0.299671 0
M  V30 3387 N 317.792 -0.46758 -1.50504 0
M  V30 3388 C 319.02 0.0864133 -2.06719 0
M  V30 3389 C 319.435 1.33819 -1.33184 0
M  V30 3390 O 318.792 1.78061 -0.400083 0
M  V30 3391 C 318.843 0.378079 -3.59517 0
M  V30 3392 O 318.564 -0.824044 -4.3028 0
M  V30 3393 C 320.065 0.979426 -4.32345 0
M  V30 3394 H 317.285 -0.00551697 -0.670977 0
M  V30 3395 H 319.829 -0.655354 -1.93715 0
M  V30 3396 H 317.984 1.06977 -3.72337 0
M  V30 3397 H 318.398 -0.566518 -5.21432 0
M  V30 3398 H 319.872 1.1333 -5.40241 0
M  V30 3399 H 320.349 1.9686 -3.9261 0
M  V30 3400 H 320.955 0.326216 -4.24047 0
M  V30 3401 N 319.27 1.56325 -0.20005 0
M  V30 3402 C 320.686 1.58839 0.155716 0
M  V30 3403 C 320.886 1.21636 1.60645 0
M  V30 3404 O 319.942 0.941437 2.34293 0
M  V30 3405 C 321.255 3.0032 -0.151124 0
M  V30 3406 C 322.803 3.12866 -0.0916284 0
M  V30 3407 C 323.278 4.56488 -0.371845 0
M  V30 3408 N 324.769 4.62089 -0.320641 0
M  V30 3409 C 325.504 5.71116 -0.511243 0
M  V30 3410 N 325 6.88592 -0.762461 0
M  V30 3411 N 326.793 5.60335 -0.445157 0
M  V30 3412 H 318.944 1.78788 -1.14668 0
M  V30 3413 H 321.207 0.829996 -0.458051 0
M  V30 3414 H 320.913 3.32117 -1.15721 0
M  V30 3415 H 320.787 3.73257 0.543986 0
M  V30 3416 H 323.174 2.80878 0.905065 0
M  V30 3417 H 323.255 2.42304 -0.81989 0
M  V30 3418 H 322.899 4.89189 -1.36588 0
M  V30 3419 H 322.829 5.25246 0.377362 0
M  V30 3420 H 325.32 3.77665 -0.13329 0
M  V30 3421 H 325.633 7.67581 -0.896576 0
M  V30 3422 H 323.978 6.90387 -0.799412 0
M  V30 3423 H 327.169 4.67436 -0.249278 0
M  V30 3424 H 327.342 6.45243 -0.597116 0
M  V30 3425 N 320.748 -0.0735177 1.57428 0
M  V30 3426 C 321.976 -0.785969 1.9139 0
M  V30 3427 C 322.391 -1.71207 0.795847 0
M  V30 3428 O 321.748 -1.81033 -0.230915 0
M  V30 3429 C 321.799 -1.58107 3.25091 0
M  V30 3430 O 321.52 -0.6922 4.32597 0
M  V30 3431 C 323.021 -2.39467 3.73055 0
M  V30 3432 H 320.241 -0.223558 0.632663 0
M  V30 3433 H 322.785 -0.044302 2.04452 0
M  V30 3434 H 320.94 -2.27503 3.13562 0
M  V30 3435 H 321.354 -1.24504 5.09508 0
M  V30 3436 H 322.828 -2.90716 4.69242 0
M  V30 3437 H 323.305 -3.18913 3.01979 0
M  V30 3438 H 323.911 -1.7523 3.87523 0
M  V30 3439 N 322.226 -1.5378 -0.344866 0
M  V30 3440 C 323.475 -1.7018 -1.08267 0
M  V30 3441 C 323.788 -0.471 -1.89845 0
M  V30 3442 O 324.994 -0.515917 -2.66553 0
M  V30 3443 C 323.45 -3.00923 -1.97417 0
M  V30 3444 C 323.058 -4.31335 -1.21053 0
M  V30 3445 C 324.802 -3.26688 -2.71063 0
M  V30 3446 C 322.709 -5.53153 -2.09225 0
M  V30 3447 H 321.639 -0.634138 -0.407903 0
M  V30 3448 H 324.29 -1.8028 -0.342246 0
M  V30 3449 H 322.672 -2.84676 -2.75274 0
M  V30 3450 H 323.846 -4.58281 -0.481159 0
M  V30 3451 H 322.161 -4.12173 -0.591813 0
M  V30 3452 H 324.758 -4.1489 -3.37299 0
M  V30 3453 H 325.101 -2.43639 -3.37558 0
M  V30 3454 H 325.634 -3.43705 -2.0028 0
M  V30 3455 H 322.373 -6.38741 -1.47274 0
M  V30 3456 H 321.893 -5.30458 -2.79955 0
M  V30 3457 H 323.572 -5.88744 -2.68308 0
M  V30 3458 N 323.704 0.605807 -1.45491 0
M  V30 3459 C 324.953 1.36086 -1.48874 0
M  V30 3460 C 325.266 1.95131 -0.135333 0
M  V30 3461 O 326.472 2.7146 -0.0468144 0
M  V30 3462 C 324.928 2.46518 -2.62215 0
M  V30 3463 C 324.536 1.93877 -4.03876 0
M  V30 3464 C 326.28 3.23512 -2.74846 0
M  V30 3465 C 324.187 3.01801 -5.08596 0
M  V30 3466 H 323.117 0.511497 -0.553974 0
M  V30 3467 H 325.768 0.649089 -1.71636 0
M  V30 3468 H 324.15 3.20388 -2.32739 0
M  V30 3469 H 325.324 1.26704 -4.43038 0
M  V30 3470 H 323.639 1.29622 -3.95711 0
M  V30 3471 H 326.236 4.04013 -3.50253 0
M  V30 3472 H 326.579 3.74631 -1.81542 0
M  V30 3473 H 327.112 2.56742 -3.03856 0
M  V30 3474 H 323.851 2.55597 -6.03614 0
M  V30 3475 H 323.371 3.67535 -4.74002 0
M  V30 3476 H 325.05 3.66152 -5.33424 0
M  V30 3477 N 325.182 1.32811 0.848464 0
M  V30 3478 C 326.114 1.18095 1.96433 0
M  V30 3479 C 327.127 0.114354 1.62398 0
M  V30 3480 O 328.316 0.363892 1.74751 0
M  V30 3481 C 325.416 0.786798 3.2964 0
M  V30 3482 C 324.589 1.943 3.91875 0
M  V30 3483 C 323.648 1.53138 5.03423 0
M  V30 3484 O 322.674 2.24432 5.23086 0
M  V30 3485 N 323.876 0.430915 5.78898 0
M  V30 3486 H 326.641 2.14218 2.09597 0
M  V30 3487 H 324.202 1.2543 1.02367 0
M  V30 3488 H 326.194 0.493715 4.01677 0
M  V30 3489 H 324.764 -0.0834541 3.12489 0
M  V30 3490 H 323.984 2.40224 3.12547 0
M  V30 3491 H 325.272 2.71689 4.30189 0
M  V30 3492 H 324.67 -0.162333 5.65467 0
M  V30 3493 H 323.227 0.197466 6.51501 0
M  V30 3494 N 326.66 -1.06551 1.16123 0
M  V30 3495 C 327.607 -2.13961 0.865414 0
M  V30 3496 C 328.577 -1.65066 -0.185055 0
M  V30 3497 O 329.762 -1.90732 -0.05083 0
M  V30 3498 C 326.902 -3.43113 0.369776 0
M  V30 3499 C 326.015 -4.05756 1.48276 0
M  V30 3500 C 325.15 -5.22773 0.942414 0
M  V30 3501 C 324.189 -5.77395 2.03179 0
M  V30 3502 N 323.326 -6.85731 1.50721 0
M  V30 3503 H 328.166 -2.38605 1.78527 0
M  V30 3504 H 325.703 -1.17072 0.890646 0
M  V30 3505 H 327.661 -4.17151 0.0640643 0
M  V30 3506 H 326.291 -3.18695 -0.513143 0
M  V30 3507 H 325.343 -3.29292 1.9045 0
M  V30 3508 H 326.655 -4.42351 2.30493 0
M  V30 3509 H 325.809 -6.03827 0.589729 0
M  V30 3510 H 324.548 -4.87618 0.0895191 0
M  V30 3511 H 323.553 -4.94981 2.3932 0
M  V30 3512 H 324.778 -6.14603 2.8886 0
M  V30 3513 H 322.724 -6.52499 0.676811 0
M  V30 3514 H 322.641 -7.21254 2.26557 0
M  V30 3515 H 323.909 -7.7047 1.18303 0
M  V30 3516 N 328.138 -0.959301 -1.25041 0
M  V30 3517 C 329.048 -0.489994 -2.29426 0
M  V30 3518 C 330.064 0.444944 -1.68215 0
M  V30 3519 O 331.24 0.320046 -1.98841 0
M  V30 3520 C 328.305 0.220309 -3.45999 0
M  V30 3521 C 327.366 -0.753418 -4.22637 0
M  V30 3522 C 326.599 -0.076918 -5.33645 0
M  V30 3523 O 326.822 1.13649 -5.58963 0
M  V30 3524 O 325.756 -0.764824 -5.97021 0
M  V30 3525 H 329.582 -1.35755 -2.71669 0
M  V30 3526 H 327.167 -0.725961 -1.30576 0
M  V30 3527 H 329.049 0.619677 -4.16819 0
M  V30 3528 H 327.724 1.06296 -3.0575 0
M  V30 3529 H 326.631 -1.20308 -3.54227 0
M  V30 3530 H 327.964 -1.56423 -4.66683 0
M  V30 3531 N 329.616 1.39756 -0.72842 0
M  V30 3532 C 331.027 1.83498 -0.344289 0
M  V30 3533 C 331.378 1.60868 1.12321 0
M  V30 3534 O 330.503 1.09634 1.86573 0
M  V30 3535 C 331.098 3.33114 -0.618112 0
M  V30 3536 C 329.657 3.753 -0.287549 0
M  V30 3537 C 328.804 2.62831 -0.884048 0
M  V30 3538 H 331.755 1.28842 -0.926578 0
M  V30 3539 H 331.776 3.80334 0.112349 0
M  V30 3540 H 331.288 3.49553 -1.68625 0
M  V30 3541 H 329.389 3.64451 0.775012 0
M  V30 3542 H 329.502 4.72945 -0.765512 0
M  V30 3543 H 327.866 2.52792 -0.311149 0
M  V30 3544 H 328.649 2.82078 -1.95671 0
M  V30 3545 N 331.094 0.475555 1.50254 0
M  V30 3546 C 332.343 -0.0795996 2.01543 0
M  V30 3547 C 332.656 -1.4038 1.36209 0
M  V30 3548 O 333.862 -2.04415 1.7868 0
M  V30 3549 C 332.318 -0.192363 3.59386 0
M  V30 3550 C 331.926 1.12367 4.33679 0
M  V30 3551 C 333.67 -0.699238 4.18701 0
M  V30 3552 C 331.577 0.974453 5.83317 0
M  V30 3553 H 330.507 -0.0335228 0.753254 0
M  V30 3554 H 333.158 0.611128 1.73025 0
M  V30 3555 H 331.54 -0.946974 3.84511 0
M  V30 3556 H 332.714 1.88958 4.20276 0
M  V30 3557 H 331.029 1.562 3.85993 0
M  V30 3558 H 333.626 -0.827978 5.28251 0
M  V30 3559 H 333.969 -1.69171 3.80377 0
M  V30 3560 H 334.502 -0.00188807 3.978 0
M  V30 3561 H 331.241 1.94042 6.26121 0
M  V30 3562 H 330.761 0.248998 5.99283 0
M  V30 3563 H 332.44 0.642867 6.43798 0
M  V30 3564 N 332.573 -1.56217 0.208337 0
M  V30 3565 C 333.85 -1.89739 -0.475234 0
M  V30 3566 C 334.23 -1.1238 -1.78701 0
M  V30 3567 O 333.578 -0.228979 -2.2735 0
M  V30 3568 C 333.788 -3.42289 -0.681101 0
M  V30 3569 C 335.136 -4.12789 -0.994507 0
M  V30 3570 O 336.16 -3.47814 -0.768357 0
M  V30 3571 O 335.019 -5.27649 -1.42299 0
M  V30 3572 H 332.113 -0.788478 -0.249461 0
M  V30 3573 H 334.659 -1.67855 0.249538 0
M  V30 3574 H 333.431 -3.90534 0.244722 0
M  V30 3575 H 333.054 -3.69909 -1.45785 0
M  V30 3576 N 334.051 0.0651679 -1.57465 0
M  V30 3577 C 334.981 1.07693 -2.07182 0
M  V30 3578 C 335.962 1.39962 -0.966673 0
M  V30 3579 O 337.147 1.49475 -1.2398 0
M  V30 3580 C 334.277 2.3885 -2.52127 0
M  V30 3581 C 333.231 2.20917 -3.66579 0
M  V30 3582 C 332.557 3.57515 -3.97601 0
M  V30 3583 C 333.857 1.62493 -4.9638 0
M  V30 3584 H 335.551 0.663199 -2.91962 0
M  V30 3585 H 333.097 0.317569 -1.40455 0
M  V30 3586 H 335.05 3.09928 -2.85522 0
M  V30 3587 H 333.774 2.82215 -1.64384 0
M  V30 3588 H 332.433 1.52279 -3.33477 0
M  V30 3589 H 332.081 3.98463 -3.06979 0
M  V30 3590 H 331.781 3.46353 -4.74672 0
M  V30 3591 H 333.305 4.30013 -4.33499 0
M  V30 3592 H 334.719 2.23445 -5.27963 0
M  V30 3593 H 333.116 1.62009 -5.77818 0
M  V30 3594 H 334.186 0.587041 -4.81333 0
M  V30 3595 N 335.529 1.53961 0.336706 0
M  V30 3596 C 336.945 1.44378 0.680241 0
M  V30 3597 C 337.145 0.606034 1.9217 0
M  V30 3598 O 336.201 0.099688 2.52303 0
M  V30 3599 C 337.514 2.87945 0.8665 0
M  V30 3600 C 339.062 2.97763 0.964682 0
M  V30 3601 C 339.537 4.42453 1.18321 0
M  V30 3602 N 341.028 4.46008 1.25025 0
M  V30 3603 C 341.763 5.55102 1.43697 0
M  V30 3604 N 341.259 6.7419 1.59498 0
M  V30 3605 N 343.052 5.42727 1.463 0
M  V30 3606 H 335.203 2.06918 -0.479455 0
M  V30 3607 H 337.466 0.935634 -0.152619 0
M  V30 3608 H 337.172 3.51691 0.0256937 0
M  V30 3609 H 337.046 3.33293 1.76623 0
M  V30 3610 H 339.433 2.34153 1.796 0
M  V30 3611 H 339.514 2.55766 0.041708 0
M  V30 3612 H 339.158 5.06645 0.356788 0
M  V30 3613 H 339.088 4.82048 2.11985 0
M  V30 3614 H 341.579 3.60196 1.14312 0
M  V30 3615 H 341.892 7.53095 1.734 0
M  V30 3616 H 340.237 6.77123 1.56621 0
M  V30 3617 H 343.428 4.48647 1.33543 0
M  V30 3618 H 343.601 6.27806 1.6051 0
M  V30 3619 N 337.007 -0.598083 1.45811 0
M  V30 3620 C 338.253 -1.35882 1.50545 0
M  V30 3621 C 338.586 -1.93616 0.150445 0
M  V30 3622 O 337.861 -1.75604 -0.83628 0
M  V30 3623 C 338.144 -2.49966 2.59208 0
M  V30 3624 C 337.997 -1.97367 4.04186 0
M  V30 3625 C 339.316 -3.52068 2.64076 0
M  V30 3626 H 336.435 -0.492717 0.548087 0
M  V30 3627 H 339.077 -0.673319 1.77669 0
M  V30 3628 H 337.227 -3.08443 2.3621 0
M  V30 3629 H 338.899 -1.43466 4.38423 0
M  V30 3630 H 337.142 -1.283 4.14393 0
M  V30 3631 H 337.813 -2.79649 4.75921 0
M  V30 3632 H 340.289 -3.03448 2.84708 0
M  V30 3633 H 339.165 -4.2937 3.41954 0
M  V30 3634 H 339.426 -4.08304 1.69531 0
M  V30 3635 N 338.485 -1.33259 -0.841409 0
M  V30 3636 C 339.432 -1.23302 -1.95103 0
M  V30 3637 C 340.402 -0.112204 -1.65721 0
M  V30 3638 O 341.587 -0.290038 -1.88583 0
M  V30 3639 C 338.727 -0.975583 -3.31023 0
M  V30 3640 C 337.84 -2.18243 -3.72819 0
M  V30 3641 C 336.975 -1.85936 -4.97595 0
M  V30 3642 C 336.014 -3.02866 -5.3192 0
M  V30 3643 N 335.151 -2.70565 -6.47873 0
M  V30 3644 H 339.991 -2.18207 -2.02952 0
M  V30 3645 H 337.528 -1.0851 -0.993173 0
M  V30 3646 H 339.486 -0.80677 -4.09325 0
M  V30 3647 H 338.116 -0.0632755 -3.22738 0
M  V30 3648 H 337.168 -2.46107 -2.90061 0
M  V30 3649 H 338.48 -3.05666 -3.94169 0
M  V30 3650 H 337.634 -1.65684 -5.83638 0
M  V30 3651 H 336.373 -0.957452 -4.78209 0
M  V30 3652 H 335.378 -3.23736 -4.44382 0
M  V30 3653 H 336.603 -3.93809 -5.53255 0
M  V30 3654 H 334.549 -1.8293 -6.29978 0
M  V30 3655 H 334.466 -3.51519 -6.69306 0
M  V30 3656 H 335.734 -2.53774 -7.37034 0
M  V30 3657 N 339.963 1.05934 -1.16686 0
M  V30 3658 C 340.926 2.11669 -0.879144 0
M  V30 3659 C 341.926 1.60294 0.127445 0
M  V30 3660 O 343.116 1.7389 -0.103865 0
M  V30 3661 C 340.248 3.39438 -0.315425 0
M  V30 3662 H 341.441 2.38626 -1.81653 0
M  V30 3663 H 338.994 1.22058 -0.976299 0
M  V30 3664 H 339.729 3.18132 0.629468 0
M  V30 3665 H 339.514 3.78034 -1.04079 0
M  V30 3666 H 341.004 4.17391 -0.132189 0
M  V30 3667 N 341.441 0.965919 1.2453 0
M  V30 3668 C 342.669 0.644385 1.96609 0
M  V30 3669 C 343.084 -0.785823 1.71669 0
M  V30 3670 O 342.441 -1.52703 0.999399 0
M  V30 3671 C 342.492 0.907375 3.49927 0
M  V30 3672 O 342.213 2.28136 3.74013 0
M  V30 3673 C 343.714 0.599784 4.39224 0
M  V30 3674 H 340.934 0.240588 0.626385 0
M  V30 3675 H 343.478 1.29337 1.58405 0
M  V30 3676 H 341.633 0.304631 3.862 0
M  V30 3677 H 342.047 2.36002 4.68405 0
M  V30 3678 H 343.521 0.834263 5.45659 0
M  V30 3679 H 343.998 -0.465921 4.36722 0
M  V30 3680 H 344.604 1.18235 4.08535 0
M  V30 3681 N 342.919 -1.39368 0.735821 0
M  V30 3682 C 343.867 -2.32443 0.0855131 0
M  V30 3683 C 344.861 -1.53104 -0.724954 0
M  V30 3684 O 346.067 -1.68762 -0.626047 0
M  V30 3685 H 342.442 -0.751948 0.00885257 0
M  V30 3686 H 344.413 -2.84916 0.886883 0
M  V30 3687 C 343.162 -3.38206 -0.806983 0
M  V30 3688 H 342.485 -3.99335 -0.19274 0
M  V30 3689 H 343.925 -4.05779 -1.2296 0
M  V30 3690 C 342.384 -2.75321 -1.94165 0
M  V30 3691 O 342.914 -2.63231 -3.03435 0
M  V30 3692 N 341.12 -2.33396 -1.73132 0
M  V30 3693 H 340.667 -2.4343 -0.842596 0
M  V30 3694 H 340.625 -1.91661 -2.49225 0
M  V30 3695 N 344.397 -0.483516 -1.5 0
M  V30 3696 C 345.622 0.0667119 -2.07293 0
M  V30 3697 C 346.047 1.3164 -1.3436 0
M  V30 3698 O 345.405 1.76945 -0.394987 0
M  V30 3699 C 345.453 0.321126 -3.59167 0
M  V30 3700 O 344.557 1.39927 -3.87936 0
M  V30 3701 H 343.898 -0.0184758 -0.663743 0
M  V30 3702 H 346.428 -0.678125 -1.93035 0
M  V30 3703 H 346.438 0.557906 -4.04168 0
M  V30 3704 H 345.113 -0.592007 -4.11665 0
M  V30 3705 H 343.69 1.14882 -3.54763 0
M  V30 3706 N 345.875 1.56104 -0.216619 0
M  V30 3707 C 346.808 2.16026 0.735395 0
M  V30 3708 C 347.786 1.1032 1.1945 0
M  V30 3709 O 348.97 1.38549 1.27814 0
M  V30 3710 C 346.097 2.73656 1.99575 0
M  V30 3711 C 345.143 3.92146 1.67702 0
M  V30 3712 S 345.976 5.29397 0.806145 0
M  V30 3713 C 347.132 5.90463 2.07617 0
M  V30 3714 H 347.365 2.96439 0.226072 0
M  V30 3715 H 344.898 1.544 -0.00136639 0
M  V30 3716 H 346.856 3.075 2.71945 0
M  V30 3717 H 345.517 1.93245 2.47619 0
M  V30 3718 H 344.71 4.30954 2.61332 0
M  V30 3719 H 344.312 3.59423 1.03398 0
M  V30 3720 H 346.604 6.06136 3.02664 0
M  V30 3721 H 347.547 6.86589 1.73207 0
M  V30 3722 H 347.955 5.19252 2.21445 0
M  V30 3723 N 347.353 -0.0568162 1.57498 0
M  V30 3724 C 348.602 -0.752001 1.87157 0
M  V30 3725 C 348.915 -1.77978 0.811375 0
M  V30 3726 O 350.121 -2.52559 0.996293 0
M  V30 3727 C 348.577 -1.38844 3.3204 0
M  V30 3728 C 348.185 -0.398456 4.46225 0
M  V30 3729 C 349.929 -2.06512 3.70882 0
M  V30 3730 C 347.836 -1.04166 5.82154 0
M  V30 3731 H 346.766 -0.28461 0.698222 0
M  V30 3732 H 349.417 -0.00561272 1.83499 0
M  V30 3733 H 347.799 -2.1836 3.30356 0
M  V30 3734 H 348.973 0.367977 4.59328 0
M  V30 3735 H 347.288 0.174592 4.16034 0
M  V30 3736 H 349.885 -2.55437 4.6974 0
M  V30 3737 H 350.228 -2.87117 3.01445 0
M  V30 3738 H 350.761 -1.33808 3.7462 0
M  V30 3739 H 347.5 -0.275614 6.5492 0
M  V30 3740 H 347.02 -1.7786 5.72823 0
M  V30 3741 H 348.699 -1.55715 6.27982 0
M  V30 3742 N 348.832 -1.54138 -0.328536 0
M  V30 3743 C 350.109 -1.62749 -1.08499 0
M  V30 3744 C 350.489 -0.458198 -2.06067 0
M  V30 3745 O 349.837 0.548046 -2.2183 0
M  V30 3746 C 350.047 -2.99519 -1.79135 0
M  V30 3747 C 351.395 -3.55394 -2.32337 0
M  V30 3748 O 352.419 -3.01792 -1.89209 0
M  V30 3749 O 351.278 -4.49186 -3.11279 0
M  V30 3750 H 348.372 -0.65886 -0.499832 0
M  V30 3751 H 350.918 -1.66484 -0.328826 0
M  V30 3752 H 349.69 -3.76061 -1.08139 0
M  V30 3753 H 349.313 -2.99441 -2.61574 0
M  V30 3754 N 350.31 0.590341 -1.46126 0
M  V30 3755 C 351.726 0.912917 -1.30912 0
M  V30 3756 C 351.926 1.99616 -0.274893 0
M  V30 3757 O 350.982 2.50397 0.325197 0
M  V30 3758 C 352.295 1.3375 -2.69317 0
M  V30 3759 C 353.843 1.45077 -2.77348 0
M  V30 3760 C 354.318 1.90904 -4.16317 0
M  V30 3761 N 355.809 1.9811 -4.18696 0
M  V30 3762 C 356.544 2.34828 -5.23109 0
M  V30 3763 N 356.04 2.70393 -6.37856 0
M  V30 3764 N 357.833 2.35317 -5.10473 0
M  V30 3765 H 349.984 -0.125358 -2.1203 0
M  V30 3766 H 352.247 0.00658481 -0.947977 0
M  V30 3767 H 351.953 0.615614 -3.4627 0
M  V30 3768 H 351.827 2.30058 -2.9892 0
M  V30 3769 H 354.214 2.16353 -2.00687 0
M  V30 3770 H 354.295 0.4704 -2.51438 0
M  V30 3771 H 353.939 1.20209 -4.9347 0
M  V30 3772 H 353.869 2.89886 -4.39629 0
M  V30 3773 H 356.36 1.73146 -3.359 0
M  V30 3774 H 356.673 2.97341 -7.13308 0
M  V30 3775 H 355.018 2.68048 -6.41229 0
M  V30 3776 H 358.209 2.0695 -4.19868 0
M  V30 3777 H 358.382 2.63605 -5.9196 0
M  V30 3778 N 351.788 1.33704 0.83433 0
M  V30 3779 C 352.735 1.24335 1.94447 0
M  V30 3780 C 353.705 0.120991 1.65659 0
M  V30 3781 O 354.89 0.300035 1.88426 0
M  V30 3782 C 352.03 0.993124 3.30501 0
M  V30 3783 C 351.143 2.20217 3.71657 0
M  V30 3784 C 350.278 1.88572 4.96602 0
M  V30 3785 C 349.317 3.05683 5.30306 0
M  V30 3786 N 348.454 2.73997 6.46429 0
M  V30 3787 H 353.294 2.1928 2.01792 0
M  V30 3788 H 350.831 1.09035 0.987404 0
M  V30 3789 H 352.789 0.828467 4.08892 0
M  V30 3790 H 351.419 0.0803902 3.227 0
M  V30 3791 H 350.471 2.47642 2.88752 0
M  V30 3792 H 351.783 3.07752 3.92543 0
M  V30 3793 H 350.937 1.68776 5.82752 0
M  V30 3794 H 349.676 0.982799 4.77695 0
M  V30 3795 H 348.681 3.26088 4.42659 0
M  V30 3796 H 349.906 3.96737 5.51159 0
M  V30 3797 H 347.852 1.86268 6.28999 0
M  V30 3798 H 347.769 3.55064 6.67432 0
M  V30 3799 H 349.037 2.57679 7.35678 0
M  V30 3800 N 353.266 -1.05314 1.17247 0
M  V30 3801 C 354.677 -1.59753 0.96623 0
M  V30 3802 C 355.028 -1.9005 -0.487378 0
M  V30 3803 O 354.153 -1.68126 -1.36245 0
M  V30 3804 C 354.748 -2.90249 1.74759 0
M  V30 3805 C 353.307 -3.41352 1.58606 0
M  V30 3806 C 352.454 -2.15103 1.75002 0
M  V30 3807 H 355.405 -0.881406 1.31973 0
M  V30 3808 H 355.426 -3.60097 1.22925 0
M  V30 3809 H 354.938 -2.68166 2.8055 0
M  V30 3810 H 353.039 -3.68474 0.552985 0
M  V30 3811 H 353.152 -4.16019 2.37624 0
M  V30 3812 H 351.516 -2.25804 1.17833 0
M  V30 3813 H 352.299 -1.95491 2.82202 0
M  V30 3814 N 354.744 -0.972509 -1.24016 0
M  V30 3815 C 356.16 -0.679827 -1.44397 0
M  V30 3816 C 356.36 0.756716 -1.86751 0
M  V30 3817 O 355.416 1.53007 -2.00861 0
M  V30 3818 C 356.729 -1.66803 -2.50195 0
M  V30 3819 C 358.277 -1.68119 -2.64017 0
M  V30 3820 C 358.752 -2.65748 -3.73017 0
M  V30 3821 N 360.243 -2.64219 -3.8045 0
M  V30 3822 C 360.978 -3.36433 -4.64328 0
M  V30 3823 N 360.474 -4.1818 -5.52356 0
M  V30 3824 N 362.267 -3.25235 -4.58453 0
M  V30 3825 H 354.418 -1.90059 -0.948228 0
M  V30 3826 H 356.681 -0.818527 -0.478245 0
M  V30 3827 H 356.387 -2.69498 -2.25973 0
M  V30 3828 H 356.261 -1.4446 -3.48441 0
M  V30 3829 H 358.648 -0.661319 -2.87594 0
M  V30 3830 H 358.729 -1.94525 -1.66113 0
M  V30 3831 H 358.373 -3.67872 -3.50189 0
M  V30 3832 H 358.303 -2.36619 -4.70446 0
M  V30 3833 H 360.794 -2.04887 -3.17537 0
M  V30 3834 H 361.107 -4.70157 -6.13329 0
M  V30 3835 H 359.452 -4.22273 -5.52006 0
M  V30 3836 H 362.643 -2.60829 -3.88698 0
M  V30 3837 H 362.816 -3.81776 -5.23594 0
M  V30 3838 N 356.222 1.38976 -0.743202 0
M  V30 3839 C 357.152 2.33171 -0.123873 0
M  V30 3840 C 358.133 1.54336 0.71516 0
M  V30 3841 O 359.318 1.82696 0.658467 0
M  V30 3842 C 356.448 3.38474 0.777978 0
M  V30 3843 C 355.402 4.27979 0.0424758 0
M  V30 3844 C 354.728 5.2405 1.06189 0
M  V30 3845 C 356.028 5.10155 -1.1198 0
M  V30 3846 H 357.722 2.85213 -0.910709 0
M  V30 3847 H 355.268 1.37133 -0.439388 0
M  V30 3848 H 357.221 4.03328 1.22084 0
M  V30 3849 H 355.945 2.84891 1.59702 0
M  V30 3850 H 354.604 3.64616 -0.380853 0
M  V30 3851 H 354.252 4.66758 1.87472 0
M  V30 3852 H 353.952 5.84785 0.574485 0
M  V30 3853 H 355.476 5.9178 1.50428 0
M  V30 3854 H 356.89 5.68307 -0.75499 0
M  V30 3855 H 355.287 5.80073 -1.53738 0
M  V30 3856 H 356.357 4.44504 -1.93764 0
M  V30 3857 N 357.7 0.491464 1.49741 0
M  V30 3858 C 358.63 -0.28154 2.31796 0
M  V30 3859 C 359.611 -0.971473 1.3963 0
M  V30 3860 O 360.796 -0.964719 1.68543 0
M  V30 3861 C 357.926 -1.35203 3.19902 0
M  V30 3862 C 356.88 -0.782529 4.20786 0
M  V30 3863 C 356.206 -1.95283 4.97764 0
M  V30 3864 C 357.506 0.21999 5.21837 0
M  V30 3865 H 359.2 0.403355 2.96671 0
M  V30 3866 H 356.746 0.195425 1.42668 0
M  V30 3867 H 358.699 -1.90045 3.76113 0
M  V30 3868 H 357.423 -2.06598 2.52953 0
M  V30 3869 H 356.082 -0.255928 3.65706 0
M  V30 3870 H 355.73 -2.65423 4.2727 0
M  V30 3871 H 355.43 -1.57789 5.66018 0
M  V30 3872 H 356.954 -2.50577 5.56816 0
M  V30 3873 H 358.368 -0.23996 5.72798 0
M  V30 3874 H 356.765 0.51026 5.97927 0
M  V30 3875 H 357.835 1.13911 4.7133 0
M  V30 3876 N 359.178 -1.55987 0.224894 0
M  V30 3877 C 360.425 -1.9839 -0.4059 0
M  V30 3878 C 360.753 -1.11261 -1.59535 0
M  V30 3879 O 360.008 -0.158314 -1.95059 0
M  V30 3880 C 360.307 -3.46394 -0.880106 0
M  V30 3881 C 359.973 -4.5046 0.19918 0
M  V30 3882 C 358.635 -4.7864 0.495661 0
M  V30 3883 C 360.987 -5.12855 0.928939 0
M  V30 3884 C 358.315 -5.66497 1.52636 0
M  V30 3885 C 360.667 -6.01828 1.949 0
M  V30 3886 C 359.331 -6.28351 2.25236 0
M  V30 3887 H 358.601 -0.725961 -0.148529 0
M  V30 3888 H 361.248 -1.88668 0.328113 0
M  V30 3889 H 359.553 -3.53337 -1.69294 0
M  V30 3890 H 361.25 -3.76577 -1.37808 0
M  V30 3891 H 357.84 -4.28579 -0.0420526 0
M  V30 3892 H 362.024 -4.9115 0.713129 0
M  V30 3893 H 357.28 -5.8531 1.76698 0
M  V30 3894 H 361.454 -6.49225 2.51951 0
M  V30 3895 H 359.081 -6.96226 3.05244 0
M  V30 3896 N 360.656 0.0484629 -1.57525 0
M  V30 3897 C 362.067 0.597486 -1.76881 0
M  V30 3898 C 362.418 1.76664 -0.853475 0
M  V30 3899 O 361.543 2.16357 -0.0433656 0
M  V30 3900 C 362.138 1.09066 -3.20765 0
M  V30 3901 C 360.697 1.58535 -3.41385 0
M  V30 3902 C 359.844 0.514868 -2.72478 0
M  V30 3903 H 362.795 -0.177758 -1.57701 0
M  V30 3904 H 362.816 1.95875 -3.2621 0
M  V30 3905 H 362.328 0.239521 -3.8736 0
M  V30 3906 H 360.429 2.45898 -2.79937 0
M  V30 3907 H 360.542 1.64622 -4.49929 0
M  V30 3908 H 358.906 0.965407 -2.35695 0
M  V30 3909 H 359.689 -0.32648 -3.41744 0
M  V30 3910 N 362.134 1.5431 0.320358 0
M  V30 3911 C 363.362 1.76636 1.07738 0
M  V30 3912 C 363.777 0.51649 1.81598 0
M  V30 3913 O 363.134 -0.512942 1.75143 0
M  V30 3914 C 363.185 2.96158 2.07299 0
M  V30 3915 O 362.906 4.16313 1.36438 0
M  V30 3916 C 364.407 3.3072 2.95193 0
M  V30 3917 H 361.627 0.589597 0.320339 0
M  V30 3918 H 364.171 2.01207 0.36551 0
M  V30 3919 H 362.326 2.73851 2.74016 0
M  V30 3920 H 362.74 4.83565 2.03138 0
M  V30 3921 H 364.214 4.17643 3.60941 0
M  V30 3922 H 364.691 2.48026 3.62463 0
M  V30 3923 H 365.297 3.55117 2.34034 0
M  V30 3924 N 363.613 -0.582584 1.46437 0
M  V30 3925 C 364.561 -1.71272 1.5738 0
M  V30 3926 C 365.555 -1.63524 0.44229 0
M  V30 3927 O 366.761 -1.69016 0.619166 0
M  V30 3928 H 363.136 -0.566273 0.494813 0
M  V30 3929 H 365.107 -1.59174 2.52401 0
M  V30 3930 C 363.856 -3.09658 1.58136 0
M  V30 3931 H 363.179 -3.16291 2.44541 0
M  V30 3932 H 364.619 -3.88494 1.69847 0
M  V30 3933 C 363.078 -3.3547 0.310026 0
M  V30 3934 O 363.608 -3.97199 -0.599683 0
M  V30 3935 N 361.814 -2.89925 0.197901 0
M  V30 3936 H 361.361 -2.39873 0.93909 0
M  V30 3937 H 361.319 -3.07568 -0.65185 0
M  V30 3938 N 365.091 -1.34144 -0.827227 0
M  V30 3939 C 366.316 -1.29476 -1.62021 0
M  V30 3940 C 366.741 0.129292 -1.87655 0
M  V30 3941 O 366.099 1.08967 -1.449 0
M  V30 3942 C 366.147 -2.08702 -2.94068 0
M  V30 3943 O 365.251 -1.45359 -3.85933 0
M  V30 3944 H 364.592 -0.444881 -0.492927 0
M  V30 3945 H 367.122 -1.76882 -1.02829 0
M  V30 3946 H 367.132 -2.19898 -3.43669 0
M  V30 3947 H 365.807 -3.12241 -2.74734 0
M  V30 3948 H 364.384 -1.42879 -3.44442 0
M  V30 3949 N 366.569 1.04691 -1.17803 0
M  V30 3950 C 367.794 1.81984 -0.994813 0
M  V30 3951 C 368.219 1.82586 0.452112 0
M  V30 3952 O 367.577 1.23854 1.324 0
M  V30 3953 C 367.625 3.2575 -1.54659 0
M  V30 3954 O 366.729 4.05267 -0.763728 0
M  V30 3955 H 366.07 0.562483 -0.352857 0
M  V30 3956 H 368.6 1.3189 -1.56417 0
M  V30 3957 H 368.61 3.76541 -1.57102 0
M  V30 3958 H 367.285 3.24627 -2.59981 0
M  V30 3959 H 365.862 3.63972 -0.811108 0
M  V30 3960 N 368.047 0.979072 1.23499 0
M  V30 3961 C 369.272 0.664845 1.96455 0
M  V30 3962 C 369.697 -0.761287 1.72006 0
M  V30 3963 O 369.055 -1.51837 0.990713 0
M  V30 3964 C 369.103 0.959479 3.47601 0
M  V30 3965 O 368.207 0.0508168 4.12369 0
M  V30 3966 H 367.548 0.250185 0.615064 0
M  V30 3967 H 370.078 1.31231 1.5697 0
M  V30 3968 H 370.088 0.895642 3.98048 0
M  V30 3969 H 368.763 1.99876 3.64723 0
M  V30 3970 H 367.34 0.16895 3.72517 0
M  V30 3971 N 369.525 -1.3858 0.750561 0
M  V30 3972 C 370.475 -2.27795 0.0965949 0
M  V30 3973 C 371.459 -1.45048 -0.696411 0
M  V30 3974 O 372.651 -1.67812 -0.562863 0
M  V30 3975 C 369.78 -3.33894 -0.798085 0
M  V30 3976 C 368.866 -4.241 0.0016067 0
M  V30 3977 N 369.257 -4.95067 1.03647 0
M  V30 3978 C 367.555 -4.45429 -0.225674 0
M  V30 3979 C 368.256 -5.61489 1.52004 0
M  V30 3980 N 367.232 -5.37135 0.835874 0
M  V30 3981 H 371.034 -2.80125 0.889228 0
M  V30 3982 H 368.548 -1.51446 0.586323 0
M  V30 3983 H 370.545 -3.96693 -1.28219 0
M  V30 3984 H 369.205 -2.83123 -1.5897 0
M  V30 3985 H 370.216 -4.98104 1.41819 0
M  V30 3986 H 366.893 -4.05571 -0.990872 0
M  V30 3987 H 368.283 -6.28264 2.38188 0
M  V30 3988 N 371.003 -0.499398 -1.49478 0
M  V30 3989 C 371.933 0.269244 -2.31943 0
M  V30 3990 C 372.914 0.964054 -1.40143 0
M  V30 3991 O 374.099 0.955767 -1.69052 0
M  V30 3992 C 371.229 1.33504 -3.20615 0
M  V30 3993 C 370.183 0.760202 -4.21195 0
M  V30 3994 C 369.509 1.9264 -4.98792 0
M  V30 3995 C 370.809 -0.247661 -5.21712 0
M  V30 3996 H 372.503 -0.419082 -2.96452 0
M  V30 3997 H 370.049 -0.202988 -1.42562 0
M  V30 3998 H 372.002 1.88048 -3.77115 0
M  V30 3999 H 370.726 2.05253 -2.54045 0
M  V30 4000 H 369.385 0.23653 -3.65836 0
M  V30 4001 H 369.033 2.63154 -4.28671 0
M  V30 4002 H 368.733 1.54785 -5.66847 0
M  V30 4003 H 370.257 2.4762 -5.58137 0
M  V30 4004 H 371.671 0.209579 -5.72917 0
M  V30 4005 H 370.068 -0.541962 -5.97648 0
M  V30 4006 H 371.138 -1.16409 -4.7072 0
M  V30 4007 N 372.481 1.55866 -0.233164 0
M  V30 4008 C 373.727 1.98897 0.395959 0
M  V30 4009 C 374.06 1.12091 1.58585 0
M  V30 4010 O 373.335 0.181182 1.93654 0
M  V30 4011 C 373.618 3.50658 0.819224 0
M  V30 4012 C 373.471 4.48233 -0.375109 0
M  V30 4013 C 374.79 4.07135 1.67121 0
M  V30 4014 H 371.909 0.723102 0.142451 0
M  V30 4015 H 374.551 1.87082 -0.331725 0
M  V30 4016 H 372.701 3.60857 1.43925 0
M  V30 4017 H 374.373 4.50031 -1.01341 0
M  V30 4018 H 372.616 4.21624 -1.02058 0
M  V30 4019 H 373.287 5.51988 -0.0358328 0
M  V30 4020 H 375.763 3.99952 1.14795 0
M  V30 4021 H 374.639 5.13615 1.93625 0
M  V30 4022 H 374.9 3.54736 2.63846 0
M  V30 4023 N 373.959 -0.0401083 1.57549 0
M  V30 4024 C 374.922 -1.02871 2.04817 0
M  V30 4025 C 375.922 -1.29708 0.950388 0
M  V30 4026 O 377.112 -1.24897 1.21435 0
M  V30 4027 C 374.244 -2.36443 2.45576 0
M  V30 4028 H 375.437 -0.620631 2.93408 0
M  V30 4029 H 372.99 -0.286667 1.53649 0
M  V30 4030 H 373.725 -2.82021 1.60108 0
M  V30 4031 H 373.51 -2.18296 3.25713 0
M  V30 4032 H 375 -3.07441 2.82612 0
M  V30 4033 N 375.437 -1.54477 -0.31217 0
M  V30 4034 C 376.367 -1.87652 -1.38957 0
M  V30 4035 C 377.348 -0.734358 -1.53431 0
M  V30 4036 O 378.533 -0.98911 -1.67123 0
M  V30 4037 C 375.663 -2.11396 -2.75552 0
M  V30 4038 C 374.617 -3.27243 -2.75855 0
M  V30 4039 C 373.943 -3.36382 -4.15633 0
M  V30 4040 C 375.243 -4.64622 -2.38587 0
M  V30 4041 H 376.937 -2.77887 -1.11442 0
M  V30 4042 H 374.483 -1.33707 -0.534655 0
M  V30 4043 H 376.436 -2.33189 -3.51 0
M  V30 4044 H 375.16 -1.17921 -3.04569 0
M  V30 4045 H 373.819 -3.05356 -2.02863 0
M  V30 4046 H 373.467 -2.40445 -4.41809 0
M  V30 4047 H 373.167 -4.14249 -4.1674 0
M  V30 4048 H 374.691 -3.60422 -4.92877 0
M  V30 4049 H 376.105 -4.86219 -3.03749 0
M  V30 4050 H 374.502 -5.45121 -2.50925 0
M  V30 4051 H 375.572 -4.66097 -1.33723 0
M  V30 4052 N 376.915 0.57481 -1.46744 0
M  V30 4053 C 377.847 1.69804 -1.53946 0
M  V30 4054 C 378.86 1.57098 -0.427106 0
M  V30 4055 O 380.049 1.64378 -0.695863 0
M  V30 4056 C 377.149 3.08125 -1.4111 0
M  V30 4057 C 376.322 3.46757 -2.66605 0
M  V30 4058 C 375.381 4.6417 -2.47855 0
M  V30 4059 O 374.407 4.69634 -3.21609 0
M  V30 4060 N 375.609 5.59553 -1.54534 0
M  V30 4061 H 378.374 1.64077 -2.50796 0
M  V30 4062 H 375.935 0.761 -1.429 0
M  V30 4063 H 377.927 3.84478 -1.26328 0
M  V30 4064 H 376.497 3.08175 -0.524109 0
M  V30 4065 H 375.717 2.6003 -2.96274 0
M  V30 4066 H 377.005 3.69337 -3.49954 0
M  V30 4067 H 376.403 5.57881 -0.937304 0
M  V30 4068 H 374.96 6.35304 -1.45711 0
M  V30 4069 N 378.394 1.34581 0.820102 0
M  V30 4070 C 379.642 1.26845 1.57336 0
M  V30 4071 C 379.963 -0.160667 1.94337 0
M  V30 4072 O 379.233 -1.09396 1.6251 0
M  V30 4073 H 377.813 0.466514 0.583415 0
M  V30 4074 H 380.475 1.68526 0.979027 0
M  V30 4075 H 379.571 1.87513 2.4949 0
M  V30 4076 N 379.872 -1.04064 1.18357 0
M  V30 4077 C 380.804 -2.12114 0.868358 0
M  V30 4078 C 381.817 -1.62247 -0.134045 0
M  V30 4079 O 383.006 -1.78253 0.0937933 0
M  V30 4080 C 380.106 -3.37773 0.276132 0
M  V30 4081 C 379.279 -4.16874 1.3242 0
M  V30 4082 C 378.338 -5.20861 0.747662 0
M  V30 4083 O 377.364 -5.51141 1.42239 0
M  V30 4084 N 378.566 -5.78715 -0.454823 0
M  V30 4085 H 381.331 -2.39748 1.79836 0
M  V30 4086 H 378.892 -1.20258 1.08396 0
M  V30 4087 H 380.884 -4.04513 -0.123133 0
M  V30 4088 H 379.454 -3.07581 -0.557895 0
M  V30 4089 H 378.674 -3.45456 1.89878 0
M  V30 4090 H 379.962 -4.66516 2.03078 0
M  V30 4091 H 379.36 -5.56415 -1.02073 0
M  V30 4092 H 377.917 -6.46921 -0.79601 0
M  V30 4093 N 381.35 -0.985608 -1.22978 0
M  V30 4094 C 382.761 -0.693593 -1.73338 0
M  V30 4095 C 383.112 0.789935 -1.79595 0
M  V30 4096 O 382.237 1.61771 -1.43733 0
M  V30 4097 C 382.832 -1.25235 -3.14804 0
M  V30 4098 C 381.391 -1.00987 -3.626 0
M  V30 4099 C 380.538 -1.37695 -2.40698 0
M  V30 4100 H 383.489 -1.15884 -1.08428 0
M  V30 4101 H 383.51 -0.627329 -3.75293 0
M  V30 4102 H 383.022 -2.33209 -3.10218 0
M  V30 4103 H 381.123 0.0535565 -3.72562 0
M  V30 4104 H 381.236 -1.66812 -4.49122 0
M  V30 4105 H 379.6 -0.795459 -2.4196 0
M  V30 4106 H 380.383 -2.46657 -2.38779 0
M  V30 4107 N 382.828 1.3818 -0.7579 0
M  V30 4108 C 383.758 2.33027 -0.148597 0
M  V30 4109 C 384.739 1.55085 0.69875 0
M  V30 4110 O 385.924 1.83384 0.639053 0
M  V30 4111 C 383.054 3.3928 0.742034 0
M  V30 4112 C 382.008 4.28 -0.00291946 0
M  V30 4113 C 381.334 5.25146 1.00625 0
M  V30 4114 C 382.634 5.08938 -1.17385 0
M  V30 4115 H 384.328 2.84231 -0.940909 0
M  V30 4116 H 381.874 1.36659 -0.453908 0
M  V30 4117 H 383.827 4.046 1.17799 0
M  V30 4118 H 382.551 2.86569 1.56671 0
M  V30 4119 H 381.21 3.64192 -0.419504 0
M  V30 4120 H 380.858 4.68721 1.8251 0
M  V30 4121 H 380.558 5.85361 0.512428 0
M  V30 4122 H 382.082 5.93342 1.44143 0
M  V30 4123 H 383.496 5.67474 -0.815224 0
M  V30 4124 H 381.893 5.7841 -1.59882 0
M  V30 4125 H 382.963 4.42424 -1.98468 0
M  V30 4126 N 384.306 0.507319 1.49211 0
M  V30 4127 C 385.552 -0.0350047 2.0277 0
M  V30 4128 C 385.885 -1.3606 1.38569 0
M  V30 4129 O 385.16 -1.87321 0.523542 0
M  V30 4130 C 385.443 -0.180916 3.59645 0
M  V30 4131 C 385.296 1.16825 4.34364 0
M  V30 4132 C 386.615 -0.918558 4.30407 0
M  V30 4133 H 383.734 -0.0112473 0.736914 0
M  V30 4134 H 386.376 0.659956 1.7817 0
M  V30 4135 H 384.526 -0.772826 3.80736 0
M  V30 4136 H 386.198 1.79952 4.24753 0
M  V30 4137 H 384.441 1.75594 3.96673 0
M  V30 4138 H 385.112 1.01939 5.42506 0
M  V30 4139 H 387.588 -0.41649 4.1401 0
M  V30 4140 H 386.464 -0.989505 5.39907 0
M  V30 4141 H 386.725 -1.96373 3.96093 0
M  V30 4142 N 385.784 -1.5574 0.241426 0
M  V30 4143 C 386.714 -2.24133 -0.654722 0
M  V30 4144 C 387.695 -1.21974 -1.1856 0
M  V30 4145 O 388.88 -1.50612 -1.22595 0
M  V30 4146 C 386.01 -2.93659 -1.85423 0
M  V30 4147 C 384.964 -4.0246 -1.45636 0
M  V30 4148 C 384.29 -4.59383 -2.73626 0
M  V30 4149 C 385.59 -5.18468 -0.631506 0
M  V30 4150 H 387.284 -2.99281 -0.0844353 0
M  V30 4151 H 384.83 -1.43947 -0.0391707 0
M  V30 4152 H 386.783 -3.40203 -2.48676 0
M  V30 4153 H 385.507 -2.15991 -2.44981 0
M  V30 4154 H 384.166 -3.56676 -0.847202 0
M  V30 4155 H 383.814 -3.78422 -3.3137 0
M  V30 4156 H 383.514 -5.32826 -2.4773 0
M  V30 4157 H 385.038 -5.08658 -3.37786 0
M  V30 4158 H 386.452 -5.61272 -1.1682 0
M  V30 4159 H 384.849 -5.98266 -0.468831 0
M  V30 4160 H 385.919 -4.8358 0.357506 0
M  V30 4161 N 387.262 0.0317525 -1.57568 0
M  V30 4162 C 388.172 1.05021 -2.0978 0
M  V30 4163 C 389.188 1.39809 -1.03583 0
M  V30 4164 O 390.364 1.49182 -1.35302 0
M  V30 4165 C 387.429 2.33301 -2.56459 0
M  V30 4166 C 386.49 2.0512 -3.77127 0
M  V30 4167 C 385.723 3.27283 -4.2157 0
M  V30 4168 O 385.946 4.37861 -3.65559 0
M  V30 4169 O 384.88 3.13141 -5.14029 0
M  V30 4170 H 388.706 0.636505 -2.96955 0
M  V30 4171 H 386.291 0.248559 -1.47318 0
M  V30 4172 H 388.173 3.08722 -2.86825 0
M  V30 4173 H 386.848 2.73973 -1.72397 0
M  V30 4174 H 385.755 1.27276 -3.51784 0
M  V30 4175 H 387.088 1.69305 -4.62165 0
M  V30 4176 N 388.74 1.54641 0.303973 0
M  V30 4177 C 389.98 1.75516 1.04755 0
M  V30 4178 C 390.344 0.528211 1.84591 0
M  V30 4179 O 391.545 0.614645 2.61678 0
M  V30 4180 C 389.816 3.00685 1.93193 0
M  V30 4181 S 391.375 3.42549 2.74237 0
M  V30 4182 H 388.193 0.616987 0.353339 0
M  V30 4183 H 390.795 1.92842 0.321292 0
M  V30 4184 H 389.499 3.8811 1.33411 0
M  V30 4185 H 389.03 2.85937 2.70191 0
M  V30 4186 H 391.045 2.99386 3.95705 0
M  V30 4187 N 390.218 -0.567019 1.47046 0
M  V30 4188 C 391.467 -1.32091 1.5243 0
M  V30 4189 C 391.78 -1.94704 0.187021 0
M  V30 4190 O 392.986 -2.7124 0.118771 0
M  V30 4191 C 391.442 -2.39479 2.68659 0
M  V30 4192 C 391.05 -1.831 4.08874 0
M  V30 4193 C 392.794 -3.16111 2.83327 0
M  V30 4194 C 390.701 -2.8821 5.16419 0
M  V30 4195 H 389.631 -0.496629 0.56734 0
M  V30 4196 H 392.282 -0.603354 1.73297 0
M  V30 4197 H 390.664 -3.14105 2.41152 0
M  V30 4198 H 391.838 -1.14913 4.46242 0
M  V30 4199 H 390.153 -1.19085 3.99008 0
M  V30 4200 H 392.75 -3.94585 3.60842 0
M  V30 4201 H 393.093 -3.69686 1.91411 0
M  V30 4202 H 393.626 -2.48595 3.10556 0
M  V30 4203 H 390.365 -2.39504 6.10179 0
M  V30 4204 H 389.885 -3.54839 4.8358 0
M  V30 4205 H 391.564 -3.51881 5.42945 0
M  V30 4206 N 391.696 -1.35014 -0.812953 0
M  V30 4207 C 392.659 -1.27292 -1.90602 0
M  V30 4208 C 393.659 -0.185817 -1.59723 0
M  V30 4209 O 394.849 -0.439102 -1.68575 0
M  V30 4210 C 391.981 -0.967676 -3.26877 0
M  V30 4211 H 393.174 -2.24479 -1.9887 0
M  V30 4212 H 390.727 -1.19446 -1.00808 0
M  V30 4213 H 391.462 0.0005954 -3.243 0
M  V30 4214 H 391.247 -1.75412 -3.50675 0
M  V30 4215 H 392.737 -0.939085 -4.06904 0
M  V30 4216 N 393.175 1.03435 -1.18907 0
M  V30 4217 C 394.085 2.15075 -0.937015 0
M  V30 4218 C 395.101 1.73706 0.101085 0
M  V30 4219 O 396.277 2.01232 -0.0822948 0
M  V30 4220 C 393.342 3.43458 -0.473057 0
M  V30 4221 C 392.403 3.99172 -1.57989 0
M  V30 4222 C 391.636 5.21427 -1.13797 0
M  V30 4223 O 391.859 5.704 0.000725941 0
M  V30 4224 O 390.793 5.69837 -1.9383 0
M  V30 4225 H 394.619 2.39198 -1.87131 0
M  V30 4226 H 392.204 1.13506 -0.971427 0
M  V30 4227 H 394.086 4.20811 -0.222702 0
M  V30 4228 H 392.761 3.20793 0.432869 0
M  V30 4229 H 391.668 3.23178 -1.88433 0
M  V30 4230 H 393.001 4.2619 -2.46217 0
M  V30 4231 N 394.653 0.992116 1.22453 0
M  V30 4232 C 395.901 0.666215 1.90804 0
M  V30 4233 C 396.222 -0.804152 1.77647 0
M  V30 4234 O 395.492 -1.57629 1.16318 0
M  V30 4235 H 394.072 0.243423 0.706225 0
M  V30 4236 H 396.734 1.25845 1.48825 0
M  V30 4237 H 395.83 0.928069 2.97982 0
M  V30 4238 N 396.131 -1.37776 0.765217 0
M  V30 4239 C 397.378 -1.99849 0.326588 0
M  V30 4240 C 397.706 -1.60746 -1.09504 0
M  V30 4241 O 396.961 -0.84202 -1.76659 0
M  V30 4242 C 397.26 -3.5504 0.410053 0
M  V30 4243 C 396.926 -4.13891 1.78899 0
M  V30 4244 C 395.588 -4.29678 2.16635 0
M  V30 4245 C 397.94 -4.46236 2.69301 0
M  V30 4246 C 395.268 -4.7511 3.44221 0
M  V30 4247 C 397.62 -4.93089 3.9629 0
M  V30 4248 C 396.284 -5.07082 4.34078 0
M  V30 4249 H 395.554 -0.7313 0.119507 0
M  V30 4250 H 398.201 -1.64645 0.977968 0
M  V30 4251 H 396.506 -3.90451 -0.324878 0
M  V30 4252 H 398.203 -4.00966 0.0520699 0
M  V30 4253 H 394.793 -4.02026 1.48569 0
M  V30 4254 H 398.977 -4.3363 2.41409 0
M  V30 4255 H 394.233 -4.84129 3.73402 0
M  V30 4256 H 398.407 -5.17084 4.66472 0
M  V30 4257 H 396.034 -5.42046 5.33001 0
M  V30 4258 N 397.609 -0.515225 -1.4894 0
M  V30 4259 C 399.02 -0.0710067 -1.86565 0
M  V30 4260 C 399.371 1.34733 -1.42623 0
M  V30 4261 O 398.496 2.00653 -0.810379 0
M  V30 4262 C 399.091 -0.122083 -3.3858 0
M  V30 4263 C 397.65 0.266863 -3.75453 0
M  V30 4264 C 396.797 -0.488376 -2.72966 0
M  V30 4265 H 399.748 -0.727266 -1.41055 0
M  V30 4266 H 399.769 0.669818 -3.74558 0
M  V30 4267 H 399.281 -1.15448 -3.70531 0
M  V30 4268 H 397.382 1.30196 -3.49113 0
M  V30 4269 H 397.495 -0.0624811 -4.79059 0
M  V30 4270 H 395.859 0.0635622 -2.54621 0
M  V30 4271 H 396.642 -1.52113 -3.07761 0
M  V30 4272 N 399.087 1.5561 -0.249682 0
M  V30 4273 C 400.315 2.03411 0.378352 0
M  V30 4274 C 400.73 1.12886 1.51335 0
M  V30 4275 O 400.087 0.143833 1.81932 0
M  V30 4276 C 400.138 3.50537 0.88351 0
M  V30 4277 O 399.859 4.37614 -0.20626 0
M  V30 4278 C 401.36 4.14113 1.58195 0
M  V30 4279 H 398.58 0.664994 0.08958 0
M  V30 4280 H 401.124 2.01044 -0.374357 0
M  V30 4281 H 399.279 3.5343 1.58639 0
M  V30 4282 H 399.693 5.24199 0.177782 0
M  V30 4283 H 401.167 5.18741 1.8871 0
M  V30 4284 H 401.644 3.60767 2.50487 0
M  V30 4285 H 402.25 4.15151 0.923573 0
M  V30 4286 N 400.565 -0.0233959 1.57583 0
M  V30 4287 C 401.976 -0.56927 1.77809 0
M  V30 4288 C 402.327 -1.75284 0.881472 0
M  V30 4289 O 401.452 -2.1626 0.0777805 0
M  V30 4290 C 402.047 -1.03949 3.22459 0
M  V30 4291 C 400.606 -1.53084 3.43864 0
M  V30 4292 C 399.753 -0.471454 2.73263 0
M  V30 4293 H 402.704 0.202825 1.57399 0
M  V30 4294 H 402.725 -1.90661 3.29285 0
M  V30 4295 H 402.237 -0.177865 3.87692 0
M  V30 4296 H 400.338 -2.41414 2.83814 0
M  V30 4297 H 400.451 -1.57443 4.52491 0
M  V30 4298 H 398.815 -0.927788 2.37201 0
M  V30 4299 H 399.598 0.380808 3.41181 0
M  V30 4300 N 402.043 -1.548 -0.295768 0
M  V30 4301 C 403.271 -1.78327 -1.04914 0
M  V30 4302 C 403.686 -0.545316 -1.80753 0
M  V30 4303 O 403.043 0.485013 -1.75937 0
M  V30 4304 C 403.094 -2.99418 -2.02561 0
M  V30 4305 O 402.815 -4.18431 -1.29798 0
M  V30 4306 C 404.316 -3.35375 -2.89895 0
M  V30 4307 H 401.536 -0.594618 -0.310918 0
M  V30 4308 H 404.08 -2.01763 -0.333454 0
M  V30 4309 H 402.235 -2.78175 -2.69624 0
M  V30 4310 H 402.649 -4.86736 -1.95419 0
M  V30 4311 H 404.123 -4.23332 -3.54251 0
M  V30 4312 H 404.6 -2.53761 -3.58472 0
M  V30 4313 H 405.206 -3.58796 -2.28355 0
M  V30 4314 N 403.521 0.559213 -1.47345 0
M  V30 4315 C 404.77 1.31281 -1.53128 0
M  V30 4316 C 405.083 1.94602 -0.197344 0
M  V30 4317 O 406.289 2.71173 -0.133154 0
M  V30 4318 C 404.745 2.38051 -2.69925 0
M  V30 4319 C 404.353 1.8093 -4.0984 0
M  V30 4320 C 406.097 3.14604 -2.84999 0
M  V30 4321 C 404.004 2.85468 -5.1794 0
M  V30 4322 H 402.934 0.493614 -0.569966 0
M  V30 4323 H 405.585 0.594155 -1.73615 0
M  V30 4324 H 403.967 3.12822 -2.42814 0
M  V30 4325 H 405.141 1.12544 -4.46845 0
M  V30 4326 H 403.456 1.16967 -3.99634 0
M  V30 4327 H 406.053 3.92666 -3.62929 0
M  V30 4328 H 406.396 3.68665 -1.93369 0
M  V30 4329 H 406.929 2.46945 -3.1187 0
M  V30 4330 H 403.668 2.36264 -6.1144 0
M  V30 4331 H 403.188 3.52269 -4.85455 0
M  V30 4332 H 404.867 3.48996 -5.44803 0
M  V30 4333 N 404.999 1.35443 0.805782 0
M  V30 4334 C 405.946 1.28431 1.91766 0
M  V30 4335 C 406.916 0.156102 1.65365 0
M  V30 4336 O 408.101 0.339936 1.87747 0
M  V30 4337 C 405.241 1.06301 3.2832 0
M  V30 4338 C 404.354 2.2805 3.66902 0
M  V30 4339 C 403.489 1.99064 4.92491 0
M  V30 4340 C 402.528 3.16863 5.23703 0
M  V30 4341 N 401.665 2.87647 6.40471 0
M  V30 4342 H 406.505 2.23511 1.97096 0
M  V30 4343 H 404.042 1.11105 0.964054 0
M  V30 4344 H 406 0.915012 4.07042 0
M  V30 4345 H 404.63 0.148822 3.22457 0
M  V30 4346 H 403.682 2.53711 2.83434 0
M  V30 4347 H 404.994 3.1601 3.85927 0
M  V30 4348 H 404.148 1.81099 5.7904 0
M  V30 4349 H 402.887 1.0839 4.75503 0
M  V30 4350 H 401.892 3.35404 4.35642 0
M  V30 4351 H 403.117 4.08339 5.4262 0
M  V30 4352 H 401.063 1.99568 6.24907 0
M  V30 4353 H 400.98 3.69141 6.59751 0
M  V30 4354 H 402.248 2.73226 7.30047 0
M  V30 4355 N 406.477 -1.02803 1.19454 0
M  V30 4356 C 407.723 -1.76598 1.0092 0
M  V30 4357 C 408.078 -1.86939 -0.455142 0
M  V30 4358 O 407.371 -1.37575 -1.33355 0
M  V30 4359 C 407.565 -3.18941 1.6128 0
M  V30 4360 C 407.394 -3.22476 3.13431 0
M  V30 4361 C 406.164 -3.30375 3.82336 0
M  V30 4362 C 408.362 -3.09451 4.10785 0
M  V30 4363 N 406.344 -3.23292 5.21877 0
M  V30 4364 C 407.715 -3.10012 5.36929 0
M  V30 4365 C 409.77 -2.93585 4.02135 0
M  V30 4366 C 408.473 -2.96334 6.55423 0
M  V30 4367 C 410.499 -2.81256 5.20239 0
M  V30 4368 C 409.861 -2.82472 6.45282 0
M  V30 4369 H 405.96 -0.657447 0.423424 0
M  V30 4370 H 408.544 -1.22369 1.5144 0
M  V30 4371 H 406.715 -3.71489 1.1336 0
M  V30 4372 H 408.447 -3.81102 1.36173 0
M  V30 4373 H 405.202 -3.3663 3.33132 0
M  V30 4374 H 405.626 -3.23156 5.94894 0
M  V30 4375 H 410.268 -2.91466 3.0628 0
M  V30 4376 H 407.986 -2.97203 7.51463 0
M  V30 4377 H 411.572 -2.70014 5.15348 0
M  V30 4378 H 410.452 -2.73036 7.35133 0
M  V30 4379 N 407.956 -0.998596 -1.21925 0
M  V30 4380 C 408.886 -0.573688 -2.26343 0
M  V30 4381 C 409.867 0.402296 -1.65274 0
M  V30 4382 O 411.052 0.291683 -1.91997 0
M  V30 4383 C 408.182 0.106839 -3.47136 0
M  V30 4384 C 407.136 -0.788269 -4.20678 0
M  V30 4385 C 406.462 0.0254927 -5.34694 0
M  V30 4386 C 407.762 -2.08784 -4.78755 0
M  V30 4387 H 409.456 -1.44651 -2.62138 0
M  V30 4388 H 407.002 -0.696975 -1.26009 0
M  V30 4389 H 408.955 0.415531 -4.19346 0
M  V30 4390 H 407.679 1.01424 -3.10452 0
M  V30 4391 H 406.338 -1.08069 -3.50309 0
M  V30 4392 H 405.986 0.933989 -4.94253 0
M  V30 4393 H 405.686 -0.570437 -5.84825 0
M  V30 4394 H 407.21 0.328147 -6.09718 0
M  V30 4395 H 408.624 -1.84272 -5.42878 0
M  V30 4396 H 407.021 -2.63307 -5.39249 0
M  V30 4397 H 408.091 -2.76284 -3.98491 0
M  V30 4398 N 409.434 1.37368 -0.772513 0
M  V30 4399 C 410.85 1.53059 -0.452231 0
M  V30 4400 C 411.05 1.73065 1.03203 0
M  V30 4401 O 410.106 1.75245 1.81784 0
M  V30 4402 C 411.419 2.72659 -1.26797 0
M  V30 4403 C 412.967 2.86521 -1.25995 0
M  V30 4404 C 413.442 4.09105 -2.05905 0
M  V30 4405 N 414.933 4.16219 -2.03263 0
M  V30 4406 C 415.668 5.10107 -2.61875 0
M  V30 4407 N 415.164 6.09547 -3.29278 0
M  V30 4408 N 416.957 5.02596 -2.51701 0
M  V30 4409 H 409.108 1.22634 -1.7342 0
M  V30 4410 H 411.371 0.597206 -0.736239 0
M  V30 4411 H 411.077 2.64343 -2.31982 0
M  V30 4412 H 410.951 3.66363 -0.897672 0
M  V30 4413 H 413.338 2.94308 -0.216081 0
M  V30 4414 H 413.419 1.93774 -1.66989 0
M  V30 4415 H 413.063 4.0208 -3.10313 0
M  V30 4416 H 412.993 5.00968 -1.62292 0
M  V30 4417 H 415.484 3.45012 -1.54192 0
M  V30 4418 H 415.797 6.77718 -3.71374 0
M  V30 4419 H 414.142 6.09824 -3.33377 0
M  V30 4420 H 417.333 4.23855 -1.98657 0
M  V30 4421 H 417.506 5.75582 -2.97673 0
M  V30 4422 N 410.912 0.523116 1.48665 0
M  V30 4423 C 412.323 0.0808997 1.86525 0
M  V30 4424 C 412.674 -1.33975 1.43336 0
M  V30 4425 O 411.799 -2.00221 0.821009 0
M  V30 4426 C 412.394 0.140037 3.3851 0
M  V30 4427 C 410.953 -0.246948 3.75589 0
M  V30 4428 C 410.1 0.502845 2.72703 0
M  V30 4429 H 413.051 0.734736 1.40667 0
M  V30 4430 H 413.072 -0.649945 3.74908 0
M  V30 4431 H 412.584 1.17412 3.69914 0
M  V30 4432 H 410.685 -1.28343 3.49798 0
M  V30 4433 H 410.798 0.0878859 4.79019 0
M  V30 4434 H 409.162 -0.0500581 2.54651 0
M  V30 4435 H 409.945 1.53743 3.0695 0
M  V30 4436 N 412.39 -1.55475 0.257931 0
M  V30 4437 C 413.615 -2.04064 -0.370488 0
M  V30 4438 C 414.04 -1.13565 -1.49948 0
M  V30 4439 O 413.398 -0.130781 -1.80828 0
M  V30 4440 C 413.446 -3.50554 -0.845237 0
M  V30 4441 O 412.55 -3.63173 -1.95394 0
M  V30 4442 H 411.891 -0.659257 -0.0792243 0
M  V30 4443 H 414.421 -2.00903 0.387212 0
M  V30 4444 H 414.431 -3.91588 -1.14555 0
M  V30 4445 H 413.106 -4.15896 -0.0191259 0
M  V30 4446 H 411.683 -3.34039 -1.65748 0
M  V30 4447 N 413.868 0.0150385 -1.57593 0
M  V30 4448 C 415.116 0.701613 -1.8953 0
M  V30 4449 C 415.437 1.75139 -0.857396 0
M  V30 4450 O 414.707 1.95607 0.107194 0
M  V30 4451 H 413.287 0.26213 -0.699498 0
M  V30 4452 H 415.949 -0.0223304 -1.94887 0
M  V30 4453 H 415.045 1.18236 -2.88837 0
M  V30 4454 N 415.346 1.54954 0.287554 0
M  V30 4455 C 416.757 1.65732 0.859634 0
M  V30 4456 C 417.108 0.574767 1.87592 0
M  V30 4457 O 416.233 -0.286299 2.14498 0
M  V30 4458 C 416.828 3.00438 1.56597 0
M  V30 4459 C 415.387 3.13292 2.08627 0
M  V30 4460 C 414.534 2.61473 0.923416 0
M  V30 4461 H 417.485 1.5857 0.0642338 0
M  V30 4462 H 417.506 2.92613 2.43224 0
M  V30 4463 H 417.018 3.79207 0.826053 0
M  V30 4464 H 415.119 2.39268 2.85625 0
M  V30 4465 H 415.232 4.19647 2.31157 0
M  V30 4466 H 413.596 2.18264 1.31275 0
M  V30 4467 H 414.379 3.42733 0.197241 0
M  V30 4468 N 416.824 -0.551391 1.4764 0
M  V30 4469 C 417.757 -1.6738 1.5511 0
M  V30 4470 C 418.735 -1.5753 0.402856 0
M  V30 4471 O 419.919 -1.78307 0.611475 0
M  V30 4472 C 417.046 -3.05661 1.45908 0
M  V30 4473 C 416.092 -3.33938 2.65307 0
M  V30 4474 S 416.925 -3.22553 4.27457 0
M  V30 4475 C 418.081 -4.63317 4.20818 0
M  V30 4476 H 418.314 -1.6079 2.50068 0
M  V30 4477 H 415.847 -0.732674 1.35909 0
M  V30 4478 H 417.805 -3.8542 1.41286 0
M  V30 4479 H 416.466 -3.09711 0.523248 0
M  V30 4480 H 415.659 -4.34761 2.54948 0
M  V30 4481 H 415.261 -2.61809 2.67081 0
M  V30 4482 H 417.553 -5.54391 3.89431 0
M  V30 4483 H 418.496 -4.78732 5.21748 0
M  V30 4484 H 418.904 -4.41636 3.51593 0
M  V30 4485 N 418.302 -1.35869 -0.798587 0
M  V30 4486 C 419.713 -1.26498 -1.37314 0
M  V30 4487 C 420.064 0.0991899 -1.95949 0
M  V30 4488 O 419.189 1.0004 -1.91888 0
M  V30 4489 C 419.784 -2.29054 -2.49639 0
M  V30 4490 C 418.343 -2.234 -3.02935 0
M  V30 4491 C 417.49 -2.14329 -1.75949 0
M  V30 4492 H 420.441 -1.46881 -0.600971 0
M  V30 4493 H 420.462 -1.92166 -3.28409 0
M  V30 4494 H 419.974 -3.2833 -2.06933 0
M  V30 4495 H 418.075 -1.27562 -3.50084 0
M  V30 4496 H 418.188 -3.15703 -3.60372 0
M  V30 4497 H 416.552 -1.60435 -1.9782 0
M  V30 4498 H 417.335 -3.15477 -1.35384 0
M  V30 4499 N 419.78 1.02168 -1.19998 0
M  V30 4500 C 420.743 2.08765 -0.94604 0
M  V30 4501 C 421.743 1.60618 0.0763846 0
M  V30 4502 O 422.933 1.73472 -0.159135 0
M  V30 4503 C 420.065 3.38262 -0.423255 0
M  V30 4504 H 421.258 2.32726 -1.89153 0
M  V30 4505 H 418.811 1.1889 -1.01464 0
M  V30 4506 H 419.546 3.19974 0.527938 0
M  V30 4507 H 419.331 3.74532 -1.16053 0
M  V30 4508 H 420.821 4.16759 -0.264911 0
M  V30 4509 N 421.258 1.00505 1.21394 0
M  V30 4510 C 422.535 0.603277 1.86064 0
M  V30 4511 C 422.915 -0.919095 1.90042 0
M  V30 4512 O 422.263 -1.80607 1.39977 0
M  V30 4513 C 422.473 1.23772 3.26315 0
M  V30 4514 C 423.821 1.34586 4.02705 0
M  V30 4515 O 424.845 1.19304 3.35626 0
M  V30 4516 O 423.704 1.59169 5.22807 0
M  V30 4517 H 420.798 0.206634 0.800769 0
M  V30 4518 H 423.344 1.1017 1.29076 0
M  V30 4519 H 422.116 2.27848 3.18121 0
M  V30 4520 H 421.739 0.725648 3.90922 0
M  V30 4521 N 422.737 -1.36956 0.779787 0
M  V30 4522 C 424.153 -1.52817 0.460342 0
M  V30 4523 C 424.353 -1.7361 -1.02283 0
M  V30 4524 O 423.409 -1.76207 -1.80852 0
M  V30 4525 C 424.722 -2.71983 1.28241 0
M  V30 4526 C 426.27 -2.85849 1.27512 0
M  V30 4527 C 426.745 -4.08008 2.08072 0
M  V30 4528 N 428.236 -4.15135 2.05467 0
M  V30 4529 C 428.971 -5.08711 2.64577 0
M  V30 4530 N 428.467 -6.07792 3.32506 0
M  V30 4531 N 430.26 -5.01254 2.54363 0
M  V30 4532 H 422.411 -1.21713 1.74068 0
M  V30 4533 H 424.674 -0.593294 0.739396 0
M  V30 4534 H 424.38 -2.63109 2.33381 0
M  V30 4535 H 424.254 -3.65882 0.917088 0
M  V30 4536 H 426.641 -2.94189 0.231686 0
M  V30 4537 H 426.722 -1.92886 1.68014 0
M  V30 4538 H 426.366 -4.00429 3.12441 0
M  V30 4539 H 426.296 -5.001 1.64947 0
M  V30 4540 H 428.787 -3.44189 1.5602 0
M  V30 4541 H 429.1 -6.75739 3.74963 0
M  V30 4542 H 427.445 -6.08047 3.36606 0
M  V30 4543 H 430.636 -4.22795 2.00902 0
M  V30 4544 H 430.809 -5.73995 3.00722 0
M  V30 4545 N 424.215 -0.530993 -1.48385 0
M  V30 4546 C 425.461 0.00274135 -2.028 0
M  V30 4547 C 425.794 1.33838 -1.40716 0
M  V30 4548 O 425.069 1.86465 -0.553277 0
M  V30 4549 C 425.352 0.123676 -3.59888 0
M  V30 4550 C 425.205 -1.2372 -4.3245 0
M  V30 4551 C 426.524 0.849967 -4.31814 0
M  V30 4552 H 423.643 -0.000477758 -0.737 0
M  V30 4553 H 426.285 -0.688217 -1.77098 0
M  V30 4554 H 424.435 0.712157 -3.81917 0
M  V30 4555 H 426.107 -1.86687 -4.21836 0
M  V30 4556 H 424.35 -1.81882 -3.93829 0
M  V30 4557 H 425.021 -1.10557 -5.40815 0
M  V30 4558 H 427.497 0.350572 -4.14621 0
M  V30 4559 H 426.373 0.903486 -5.41413 0
M  V30 4560 H 426.634 1.90047 -3.99167 0
M  V30 4561 N 425.693 1.55336 -0.266172 0
M  V30 4562 C 426.921 2.03801 0.356756 0
M  V30 4563 C 427.336 1.14485 1.50129 0
M  V30 4564 O 426.693 0.163121 1.8177 0
M  V30 4565 C 426.744 3.51455 0.846281 0
M  V30 4566 O 426.465 4.37371 -0.252663 0
M  V30 4567 C 427.966 4.15767 1.53794 0
M  V30 4568 H 425.186 0.665906 0.0825218 0
M  V30 4569 H 427.73 2.00636 -0.39566 0
M  V30 4570 H 425.885 3.55092 1.54881 0
M  V30 4571 H 426.299 5.24358 0.122173 0
M  V30 4572 H 427.773 5.20714 1.83198 0
M  V30 4573 H 428.25 3.63404 2.46646 0
M  V30 4574 H 428.856 4.16107 0.879488 0
M  V30 4575 N 427.171 -0.0066808 1.57599 0
M  V30 4576 C 428.401 -0.703066 1.94269 0
M  V30 4577 C 428.809 -1.68206 0.866222 0
M  V30 4578 O 428.152 -1.82966 -0.164087 0
M  V30 4579 C 428.214 -1.49616 3.26887 0
M  V30 4580 C 427.878 -0.679494 4.5192 0
M  V30 4581 C 428.875 0.0299508 5.19891 0
M  V30 4582 C 426.56 -0.627433 4.98366 0
M  V30 4583 C 428.554 0.780514 6.32603 0
M  V30 4584 C 426.241 0.126861 6.10968 0
M  V30 4585 C 427.239 0.829574 6.77943 0
M  V30 4586 O 426.927 1.57157 7.88389 0
M  V30 4587 H 426.659 -0.201217 0.645359 0
M  V30 4588 H 429.213 0.0385326 2.05364 0
M  V30 4589 H 427.443 -2.28209 3.12182 0
M  V30 4590 H 429.132 -2.07726 3.48719 0
M  V30 4591 H 429.898 -0.00115963 4.85 0
M  V30 4592 H 425.777 -1.16392 4.46065 0
M  V30 4593 H 429.321 1.32954 6.84813 0
M  V30 4594 H 425.218 0.159815 6.45302 0
M  V30 4595 H 425.986 1.48758 8.04868 0
M  V30 4596 N 428.649 -1.55105 -0.279332 0
M  V30 4597 C 429.581 -1.83952 -1.36727 0
M  V30 4598 C 430.594 -0.723642 -1.45833 0
M  V30 4599 O 431.783 -1.00141 -1.47763 0
M  V30 4600 C 428.883 -1.98183 -2.74912 0
M  V30 4601 C 428.056 -3.28787 -2.88475 0
M  V30 4602 C 427.115 -3.33162 -4.07295 0
M  V30 4603 O 426.141 -4.06576 -3.98353 0
M  V30 4604 N 427.343 -2.60109 -5.18964 0
M  V30 4605 H 430.108 -2.77853 -1.12328 0
M  V30 4606 H 427.669 -1.54945 -0.469442 0
M  V30 4607 H 429.661 -1.98488 -3.52682 0
M  V30 4608 H 428.231 -1.11177 -2.92162 0
M  V30 4609 H 427.451 -3.41075 -1.97641 0
M  V30 4610 H 428.739 -4.14933 -2.94463 0
M  V30 4611 H 428.137 -2.00136 -5.29115 0
M  V30 4612 H 426.694 -2.66143 -5.94988 0
M  V30 4613 N 430.127 0.543554 -1.4793 0
M  V30 4614 C 431.075 1.67039 -1.61866 0
M  V30 4615 C 432.069 1.62294 -0.48549 0
M  V30 4616 O 433.275 1.67315 -0.66376 0
M  V30 4617 H 429.65 0.552954 -0.509652 0
M  V30 4618 H 431.621 1.52426 -2.56533 0
M  V30 4619 C 430.37 3.05357 -1.6629 0
M  V30 4620 H 429.693 3.09696 -2.5284 0
M  V30 4621 H 431.133 3.83855 -1.80088 0
M  V30 4622 C 429.592 3.34531 -0.398861 0
M  V30 4623 O 430.122 3.98649 0.494162 0
M  V30 4624 N 428.328 2.89299 -0.2747 0
M  V30 4625 H 427.875 2.37298 -1.00236 0
M  V30 4626 H 427.833 3.09188 0.570075 0
M  V30 4627 N 431.605 1.3629 0.791371 0
M  V30 4628 C 432.555 1.26988 1.89362 0
M  V30 4629 C 433.539 0.161795 1.60084 0
M  V30 4630 O 434.731 0.394426 1.72549 0
M  V30 4631 C 431.86 1.05944 3.26544 0
M  V30 4632 C 430.946 2.21211 3.61838 0
M  V30 4633 N 431.337 3.46518 3.68455 0
M  V30 4634 C 429.635 2.12933 3.91887 0
M  V30 4635 C 430.336 4.2241 3.99931 0
M  V30 4636 N 429.312 3.51329 4.14812 0
M  V30 4637 H 433.114 2.21908 1.92702 0
M  V30 4638 H 430.628 1.28982 0.986787 0
M  V30 4639 H 432.625 0.973666 4.05371 0
M  V30 4640 H 431.285 0.119223 3.24481 0
M  V30 4641 H 432.296 3.80677 3.51148 0
M  V30 4642 H 428.973 1.26855 3.97761 0
M  V30 4643 H 430.363 5.30767 4.1199 0
M  V30 4644 N 433.083 -1.0153 1.20538 0
M  V30 4645 C 434.031 -2.12215 0.952235 0
M  V30 4646 C 435.025 -1.69123 -0.0968735 0
M  V30 4647 O 436.231 -1.7992 0.0536006 0
M  V30 4648 H 432.606 -0.693576 0.290613 0
M  V30 4649 H 434.577 -2.3075 1.89201 0
M  V30 4650 C 433.326 -3.43755 0.522287 0
M  V30 4651 H 432.649 -3.7734 1.32115 0
M  V30 4652 H 434.089 -4.22254 0.384389 0
M  V30 4653 C 432.548 -3.28088 -0.765489 0
M  V30 4654 O 433.078 -3.57921 -1.8236 0
M  V30 4655 N 431.284 -2.81333 -0.728011 0
M  V30 4656 H 430.831 -2.57255 0.133332 0
M  V30 4657 H 430.789 -2.71232 -1.58999 0
M  V30 4658 N 434.561 -1.01147 -1.20859 0
M  V30 4659 C 435.508 -0.577354 -2.23462 0
M  V30 4660 C 436.478 0.399922 -1.61214 0
M  V30 4661 O 437.663 0.300515 -1.88419 0
M  V30 4662 C 434.803 0.083372 -3.44999 0
M  V30 4663 C 433.916 -0.937856 -4.21697 0
M  V30 4664 C 433.051 -0.248717 -5.30617 0
M  V30 4665 C 432.09 -1.25705 -5.99053 0
M  V30 4666 N 431.227 -0.594939 -6.99575 0
M  V30 4667 H 436.067 -1.45695 -2.59956 0
M  V30 4668 H 433.604 -0.729428 -1.27741 0
M  V30 4669 H 435.562 0.483535 -4.14388 0
M  V30 4670 H 434.192 0.926645 -3.09214 0
M  V30 4671 H 433.244 -1.45622 -3.51423 0
M  V30 4672 H 434.556 -1.70493 -4.68757 0
M  V30 4673 H 433.71 0.207215 -6.06346 0
M  V30 4674 H 432.449 0.55071 -4.84581 0
M  V30 4675 H 431.454 -1.72343 -5.2209 0
M  V30 4676 H 432.679 -2.05767 -6.47176 0
M  V30 4677 H 430.625 0.184713 -6.5574 0
M  V30 4678 H 430.542 -1.30017 -7.44736 0
M  V30 4679 H 431.81 -0.162427 -7.79331 0
M  V30 4680 N 436.039 1.36541 -0.78704 0
M  V30 4681 C 437.267 2.03561 -0.370199 0
M  V30 4682 C 437.682 1.59347 1.01263 0
M  V30 4683 O 437.039 0.781781 1.64907 0
M  V30 4684 C 437.09 3.59033 -0.421614 0
M  V30 4685 O 436.811 4.01634 -1.7499 0
M  V30 4686 C 438.312 4.433 0.00489763 0
M  V30 4687 H 435.532 0.653346 -0.152904 0
M  V30 4688 H 438.076 1.74566 -1.06522 0
M  V30 4689 H 436.231 3.86746 0.224971 0
M  V30 4690 H 436.645 4.96217 -1.69909 0
M  V30 4691 H 438.119 5.51939 -0.0822184 0
M  V30 4692 H 438.596 4.26285 1.05723 0
M  V30 4693 H 439.202 4.20843 -0.614085 0
M  V30 4694 N 437.518 0.538854 1.48102 0
M  V30 4695 C 438.448 -0.207654 2.32575 0
M  V30 4696 C 439.429 -0.926559 1.4265 0
M  V30 4697 O 440.614 -0.91061 1.71527 0
M  V30 4698 C 437.744 -1.24957 3.24042 0
M  V30 4699 C 436.698 -0.648263 4.23062 0
M  V30 4700 C 436.024 -1.79348 5.03725 0
M  V30 4701 C 437.324 0.385897 5.20872 0
M  V30 4702 H 439.018 0.497534 2.95237 0
M  V30 4703 H 436.564 0.240715 1.41974 0
M  V30 4704 H 438.517 -1.77983 3.81969 0
M  V30 4705 H 437.241 -1.98446 2.59397 0
M  V30 4706 H 435.9 -0.139452 3.66335 0
M  V30 4707 H 435.548 -2.51696 4.35498 0
M  V30 4708 H 435.248 -1.39702 5.70751 0
M  V30 4709 H 436.772 -2.32735 5.64506 0
M  V30 4710 H 438.186 -0.057607 5.73271 0
M  V30 4711 H 436.583 0.700227 5.96001 0
M  V30 4712 H 437.653 1.28848 4.67468 0
M  V30 4713 N 438.996 -1.55193 0.274407 0
M  V30 4714 C 439.928 -2.1989 -0.646595 0
M  V30 4715 C 440.941 -1.1834 -1.11801 0
M  V30 4716 O 442.13 -1.4507 -1.04004 0
M  V30 4717 C 439.23 -2.8104 -1.89393 0
M  V30 4718 C 438.403 -4.08274 -1.56943 0
M  V30 4719 C 437.462 -4.53478 -2.66916 0
M  V30 4720 O 436.488 -5.19267 -2.33132 0
M  V30 4721 N 437.69 -4.2356 -3.9696 0
M  V30 4722 H 440.455 -2.99556 -0.0928686 0
M  V30 4723 H 438.016 -1.61618 0.0954783 0
M  V30 4724 H 440.008 -3.08226 -2.62257 0
M  V30 4725 H 438.578 -2.05372 -2.35672 0
M  V30 4726 H 437.798 -3.88384 -0.674655 0
M  V30 4727 H 439.086 -4.91173 -1.32764 0
M  V30 4728 H 438.484 -3.70799 -4.27229 0
M  V30 4729 H 437.041 -4.55518 -4.66205 0
M  V30 4730 N 440.474 -0.00167713 -1.576 0
M  V30 4731 C 441.404 0.988091 -2.11563 0
M  V30 4732 C 442.385 1.35736 -1.02517 0
M  V30 4733 O 443.57 1.44082 -1.30208 0
M  V30 4734 C 440.7 2.27941 -2.62031 0
M  V30 4735 C 439.654 2.0517 -3.75619 0
M  V30 4736 C 438.98 3.4033 -4.12407 0
M  V30 4737 C 440.28 1.41294 -5.02825 0
M  V30 4738 H 441.974 0.538771 -2.94513 0
M  V30 4739 H 439.52 0.257712 -1.41675 0
M  V30 4740 H 441.473 2.97539 -2.9841 0
M  V30 4741 H 440.197 2.74989 -1.76205 0
M  V30 4742 H 438.856 1.37998 -3.39635 0
M  V30 4743 H 438.504 3.85085 -3.23603 0
M  V30 4744 H 438.204 3.25909 -4.88935 0
M  V30 4745 H 439.728 4.1124 -4.51347 0
M  V30 4746 H 441.142 2.00851 -5.36965 0
M  V30 4747 H 439.539 1.37356 -5.84169 0
M  V30 4748 H 440.609 0.382362 -4.8339 0
M  V30 4749 N 441.952 1.55251 0.271103 0
M  V30 4750 C 442.882 1.9127 1.33933 0
M  V30 4751 C 443.863 0.77478 1.5143 0
M  V30 4752 O 445.048 1.03307 1.64442 0
M  V30 4753 C 442.178 2.18627 2.69851 0
M  V30 4754 C 441.132 3.34442 2.67081 0
M  V30 4755 C 440.458 3.47284 4.06569 0
M  V30 4756 C 441.758 4.70784 2.26185 0
M  V30 4757 H 443.452 2.80744 1.04035 0
M  V30 4758 H 440.998 1.35077 0.499017 0
M  V30 4759 H 442.951 2.42413 3.44694 0
M  V30 4760 H 441.675 1.25955 3.01335 0
M  V30 4761 H 440.334 3.10627 1.94695 0
M  V30 4762 H 439.982 2.52074 4.35279 0
M  V30 4763 H 439.682 4.25152 4.0561 0
M  V30 4764 H 441.206 3.73363 4.83148 0
M  V30 4765 H 442.62 4.94102 2.90751 0
M  V30 4766 H 441.017 5.51582 2.36384 0
M  V30 4767 H 442.087 4.69478 1.21319 0
M  V30 4768 N 443.43 -0.535701 1.48216 0
M  V30 4769 C 444.377 -1.64083 1.62312 0
M  V30 4770 C 445.347 -1.59448 0.465365 0
M  V30 4771 O 446.532 -1.77959 0.688135 0
M  V30 4772 C 443.672 -3.0236 1.66349 0
M  V30 4773 C 442.785 -3.17273 2.93193 0
M  V30 4774 C 441.92 -4.46075 2.88427 0
M  V30 4775 C 440.959 -4.54496 4.1 0
M  V30 4776 N 440.096 -5.7468 4.03345 0
M  V30 4777 H 444.936 -1.51374 2.5669 0
M  V30 4778 H 442.473 -0.737059 1.27302 0
M  V30 4779 H 444.431 -3.82461 1.66672 0
M  V30 4780 H 443.061 -3.13854 0.754672 0
M  V30 4781 H 442.113 -2.30462 3.02641 0
M  V30 4782 H 443.425 -3.19357 3.83162 0
M  V30 4783 H 442.579 -5.3446 2.87119 0
M  V30 4784 H 441.318 -4.46504 1.96177 0
M  V30 4785 H 440.323 -3.64519 4.11589 0
M  V30 4786 H 441.548 -4.5581 5.03402 0
M  V30 4787 H 439.494 -5.76017 3.13912 0
M  V30 4788 H 439.411 -5.78234 4.87013 0
M  V30 4789 H 440.679 -6.65367 4.06087 0
M  V30 4790 N 444.908 -1.36708 -0.784132 0
M  V30 4791 C 446.154 -1.31426 -1.54451 0
M  V30 4792 C 446.487 0.10476 -1.93917 0
M  V30 4793 O 445.762 1.05934 -1.6312 0
M  V30 4794 C 446.045 -2.24189 -2.818 0
M  V30 4795 C 445.898 -3.74813 -2.48667 0
M  V30 4796 C 447.217 -2.15626 -3.83658 0
M  V30 4797 H 444.336 -0.478739 -0.560337 0
M  V30 4798 H 446.978 -1.67305 -0.900498 0
M  V30 4799 H 445.128 -1.93722 -3.36755 0
M  V30 4800 H 446.8 -4.15823 -1.99722 0
M  V30 4801 H 445.043 -3.93989 -1.81535 0
M  V30 4802 H 445.714 -4.35138 -3.39646 0
M  V30 4803 H 448.19 -2.42456 -3.38163 0
M  V30 4804 H 447.066 -2.82694 -4.70506 0
M  V30 4805 H 447.327 -1.14522 -4.27009 0
M  V30 4806 N 446.386 1.0089 -1.21074 0
M  V30 4807 C 447.634 1.74262 -1.02358 0
M  V30 4808 C 447.955 1.89869 0.444393 0
M  V30 4809 O 447.225 1.44677 1.32081 0
M  V30 4810 H 445.805 0.645615 -0.375754 0
M  V30 4811 H 448.467 1.21596 -1.52317 0
M  V30 4812 H 447.563 2.74328 -1.4883 0
M  V30 4813 N 447.864 1.01787 1.20321 0
M  V30 4814 C 448.774 0.598898 2.26827 0
M  V30 4815 C 449.79 -0.36418 1.70146 0
M  V30 4816 O 450.966 -0.224812 2.00141 0
M  V30 4817 C 448.031 -0.0549769 3.46656 0
M  V30 4818 C 447.092 0.954205 4.18561 0
M  V30 4819 C 446.325 0.331439 5.3267 0
M  V30 4820 O 446.548 -0.86851 5.63749 0
M  V30 4821 O 445.482 1.0488 5.92692 0
M  V30 4822 H 449.308 1.48562 2.64883 0
M  V30 4823 H 446.893 0.787434 1.26964 0
M  V30 4824 H 448.775 -0.420102 4.19301 0
M  V30 4825 H 447.45 -0.915876 3.10473 0
M  V30 4826 H 446.357 1.37072 3.48083 0
M  V30 4827 H 447.69 1.78511 4.58688 0
M  V30 4828 N 449.342 -1.36122 0.79427 0
M  V30 4829 C 450.252 -2.33769 0.197296 0
M  V30 4830 C 451.268 -1.61276 -0.653153 0
M  V30 4831 O 452.444 -1.9323 -0.5678 0
M  V30 4832 C 449.509 -3.40474 -0.654098 0
M  V30 4833 C 448.57 -4.28759 0.215411 0
M  V30 4834 C 447.803 -5.30368 -0.595443 0
M  V30 4835 O 448.026 -5.40211 -1.83107 0
M  V30 4836 O 446.96 -6.019 0.00721351 0
M  V30 4837 H 450.786 -2.86597 1.00478 0
M  V30 4838 H 448.371 -1.38676 0.555818 0
M  V30 4839 H 450.253 -4.05703 -1.13944 0
M  V30 4840 H 448.928 -2.89937 -1.43938 0
M  V30 4841 H 447.835 -3.66554 0.747615 0
M  V30 4842 H 449.168 -4.82661 0.964332 0
M  V30 4843 N 450.82 -0.546701 -1.47814 0
M  V30 4844 C 452.097 0.0464413 -1.95545 0
M  V30 4845 C 452.477 1.4962 -1.48919 0
M  V30 4846 O 451.825 2.16752 -0.723232 0
M  V30 4847 C 452.035 -0.0881298 -3.48889 0
M  V30 4848 C 453.383 0.0626059 -4.24554 0
M  V30 4849 O 454.407 -0.0151555 -3.56197 0
M  V30 4850 O 453.266 0.228071 -5.46024 0
M  V30 4851 H 450.36 0.0700004 -0.824032 0
M  V30 4852 H 452.906 -0.612482 -1.58262 0
M  V30 4853 H 451.678 -1.09737 -3.75597 0
M  V30 4854 H 451.301 0.608886 -3.9291 0
M  V30 4855 N 452.299 1.55045 -0.282633 0
M  V30 4856 C 453.576 1.9179 0.384166 0
M  V30 4857 C 453.956 1.20778 1.73136 0
M  V30 4858 O 453.304 0.33719 2.25998 0
M  V30 4859 C 453.514 3.45149 0.517014 0
M  V30 4860 C 454.862 4.17064 0.796427 0
M  V30 4861 O 455.886 3.51084 0.601535 0
M  V30 4862 O 454.745 5.33837 1.16962 0
M  V30 4863 H 451.839 0.799483 0.211558 0
M  V30 4864 H 454.385 1.66474 -0.32934 0
M  V30 4865 H 453.157 3.88922 -0.430772 0
M  V30 4866 H 452.78 3.76443 1.2797 0
M  V30 4867 N 453.777 0.010035 1.57597 0
M  V30 4868 C 455.025 -0.671371 1.90623 0
M  V30 4869 C 455.346 -1.73753 0.885151 0
M  V30 4870 O 454.616 -1.95752 -0.0760611 0
M  V30 4871 H 453.196 -0.250968 0.703579 0
M  V30 4872 H 455.858 0.0533325 1.94827 0
M  V30 4873 H 454.954 -1.13626 2.90681 0
M  V30 4874 N 455.255 -1.55392 -0.262866 0
M  V30 4875 C 456.165 -1.92077 -1.34698 0
M  V30 4876 C 457.181 -0.819227 -1.53508 0
M  V30 4877 O 458.357 -1.11921 -1.67439 0
M  V30 4878 C 455.422 -2.19407 -2.68443 0
M  V30 4879 C 454.483 -3.42905 -2.58292 0
M  V30 4880 C 453.716 -3.68921 -3.85659 0
M  V30 4881 O 453.939 -2.97275 -4.8681 0
M  V30 4882 O 452.873 -4.62455 -3.85252 0
M  V30 4883 H 456.699 -2.84384 -1.06581 0
M  V30 4884 H 454.284 -1.42069 -0.462264 0
M  V30 4885 H 456.166 -2.38365 -3.47506 0
M  V30 4886 H 454.841 -1.30282 -2.96325 0
M  V30 4887 H 453.748 -3.29272 -1.7757 0
M  V30 4888 H 455.081 -4.32282 -2.35358 0
M  V30 4889 N 456.733 0.527833 -1.48498 0
M  V30 4890 C 457.963 1.30633 -1.60058 0
M  V30 4891 C 458.371 1.87394 -0.260786 0
M  V30 4892 O 457.714 1.67227 0.760317 0
M  V30 4893 C 457.776 2.49361 -2.58958 0
M  V30 4894 C 457.44 2.13671 -4.03972 0
M  V30 4895 C 458.437 1.69217 -4.91591 0
M  V30 4896 C 456.122 2.24129 -4.49524 0
M  V30 4897 C 458.116 1.35689 -6.2279 0
M  V30 4898 C 455.803 1.90212 -5.80743 0
M  V30 4899 C 456.801 1.46063 -6.67199 0
M  V30 4900 O 456.489 1.12593 -7.95976 0
M  V30 4901 H 456.221 0.403444 -0.54241 0
M  V30 4902 H 458.775 0.643233 -1.95068 0
M  V30 4903 H 457.005 3.18659 -2.19073 0
M  V30 4904 H 458.694 3.11421 -2.6033 0
M  V30 4905 H 459.46 1.60607 -4.57636 0
M  V30 4906 H 455.339 2.57447 -3.82416 0
M  V30 4907 H 458.883 1.01157 -6.90227 0
M  V30 4908 H 454.78 1.98464 -6.14233 0
M  V30 4909 H 455.548 1.25972 -8.08748 0
M  V30 4910 N 458.211 1.37122 0.776871 0
M  V30 4911 C 459.627 1.1781 1.07671 0
M  V30 4912 C 459.827 0.0107454 2.01497 0
M  V30 4913 O 458.883 -0.650756 2.4397 0
M  V30 4914 C 460.196 2.49451 1.67913 0
M  V30 4915 C 461.744 2.55927 1.80195 0
M  V30 4916 C 462.219 3.87686 2.43851 0
M  V30 4917 N 463.71 3.891 2.51307 0
M  V30 4918 C 464.445 4.87797 3.014 0
M  V30 4919 N 463.941 5.96888 3.51705 0
M  V30 4920 N 465.734 4.75205 3.00227 0
M  V30 4921 H 457.885 2.11843 0.153778 0
M  V30 4922 H 460.148 0.938927 0.130844 0
M  V30 4923 H 459.854 3.35207 1.06439 0
M  V30 4924 H 459.728 2.66169 2.67271 0
M  V30 4925 H 462.115 1.70582 2.40803 0
M  V30 4926 H 462.196 2.43097 0.796069 0
M  V30 4927 H 461.84 4.73444 1.83884 0
M  V30 4928 H 461.77 3.97817 3.45035 0
M  V30 4929 H 464.261 3.10293 2.157 0
M  V30 4930 H 464.574 6.68155 3.88316 0
M  V30 4931 H 462.919 6.0054 3.49824 0
M  V30 4932 H 466.11 3.89103 2.60224 0
M  V30 4933 H 466.283 5.52279 3.38957 0
M  V30 4934 N 459.689 -1.00246 1.21608 0
M  V30 4935 C 460.929 -1.75589 1.04631 0
M  V30 4936 C 461.293 -1.87513 -0.412648 0
M  V30 4937 O 462.494 -2.59444 -0.703003 0
M  V30 4938 C 460.765 -3.12893 1.72722 0
M  V30 4939 S 462.324 -4.04095 1.71034 0
M  V30 4940 H 459.142 -0.604133 0.374892 0
M  V30 4941 H 461.744 -1.19927 1.54395 0
M  V30 4942 H 460.448 -3.0185 2.78055 0
M  V30 4943 H 459.979 -3.73628 1.23149 0
M  V30 4944 H 461.994 -4.9045 0.753231 0
M  V30 4945 N 461.167 -1.02423 -1.1978 0
M  V30 4946 C 462.097 -0.62157 -2.25075 0
M  V30 4947 C 463.078 0.367148 -1.6609 0
M  V30 4948 O 464.263 0.250892 -1.92573 0
M  V30 4949 C 461.393 0.0331826 -3.47284 0
M  V30 4950 C 460.347 -0.877323 -4.18912 0
M  V30 4951 C 459.673 -0.0879296 -5.34628 0
M  V30 4952 C 460.973 -2.18892 -4.74219 0
M  V30 4953 H 462.667 -1.50179 -2.59011 0
M  V30 4954 H 460.213 -0.723547 -1.24502 0
M  V30 4955 H 462.166 0.326488 -4.20133 0
M  V30 4956 H 460.89 0.948164 -3.12534 0
M  V30 4957 H 459.549 -1.15475 -3.47938 0
M  V30 4958 H 459.197 0.828941 -4.96123 0
M  V30 4959 H 458.897 -0.694359 -5.83483 0
M  V30 4960 H 460.421 0.198743 -6.10276 0
M  V30 4961 H 461.835 -1.95746 -5.38847 0
M  V30 4962 H 460.232 -2.74686 -5.33542 0
M  V30 4963 H 461.302 -2.84674 -3.92541 0
M  V30 4964 N 462.645 1.35699 -0.801477 0
M  V30 4965 C 463.608 2.28199 -0.213994 0
M  V30 4966 C 464.608 1.49359 0.595691 0
M  V30 4967 O 465.798 1.69186 0.414921 0
M  V30 4968 C 462.93 3.33587 0.702297 0
M  V30 4969 H 464.123 2.81666 -1.02976 0
M  V30 4970 H 461.676 1.45467 -0.571759 0
M  V30 4971 H 462.411 2.85297 1.54195 0
M  V30 4972 H 462.196 3.91906 0.123484 0
M  V30 4973 H 463.686 4.02638 1.10783 0
M  V30 4974 N 464.123 0.554532 1.47522 0
M  V30 4975 C 465.033 -0.197865 2.33764 0
M  V30 4976 C 466.049 -0.914576 1.48025 0
M  V30 4977 O 467.225 -0.884067 1.80959 0
M  V30 4978 C 464.29 -1.21628 3.24665 0
M  V30 4979 C 463.351 -0.507283 4.26292 0
M  V30 4980 C 462.584 -1.47718 5.1285 0
M  V30 4981 O 462.807 -2.7118 5.01814 0
M  V30 4982 O 461.741 -1.00313 5.93482 0
M  V30 4983 H 465.567 0.50949 2.99396 0
M  V30 4984 H 463.152 0.315176 1.46038 0
M  V30 4985 H 465.034 -1.80421 3.80823 0
M  V30 4986 H 463.709 -1.9056 2.61665 0
M  V30 4987 H 462.616 0.121778 3.73902 0
M  V30 4988 H 463.949 0.140544 4.91999 0
M  V30 4989 N 465.601 -1.54893 0.290851 0
M  V30 4990 C 466.549 -2.24579 -0.605576 0
M  V30 4991 C 467.543 -1.24824 -1.14522 0
M  V30 4992 O 468.749 -1.42706 -1.09704 0
M  V30 4993 H 465.124 -0.720946 -0.213872 0
M  V30 4994 H 467.095 -2.984 0.0048173 0
M  V30 4995 C 465.844 -2.99224 -1.77088 0
M  V30 4996 H 465.167 -3.75782 -1.36484 0
M  V30 4997 H 466.607 -3.51281 -2.3744 0
M  V30 4998 C 465.066 -2.05602 -2.66888 0
M  V30 4999 O 465.596 -1.61745 -3.67698 0
M  V30 5000 N 463.802 -1.71771 -2.34399 0
M  V30 5001 H 463.349 -2.07633 -1.52468 0
M  V30 5002 H 463.307 -1.09403 -2.94751 0
M  V30 5003 N 467.08 -0.0183926 -1.57589 0
M  V30 5004 C 468.305 0.676634 -1.96052 0
M  V30 5005 C 468.73 1.6548 -0.894307 0
M  V30 5006 O 468.088 1.80712 0.145849 0
M  V30 5007 C 468.136 1.36872 -3.33614 0
M  V30 5008 O 467.24 2.48372 -3.29219 0
M  V30 5009 H 466.581 0.1786 -0.63953 0
M  V30 5010 H 469.111 -0.077056 -2.04455 0
M  V30 5011 H 469.121 1.72797 -3.69601 0
M  V30 5012 H 467.796 0.651636 -4.10763 0
M  V30 5013 H 466.373 2.14639 -3.04934 0
M  V30 5014 N 468.558 1.5553 0.254621 0
M  V30 5015 C 469.488 1.9268 1.31897 0
M  V30 5016 C 470.469 0.790797 1.506 0
M  V30 5017 O 471.654 1.05045 1.63337 0
M  V30 5018 C 468.784 2.21477 2.67517 0
M  V30 5019 C 467.738 3.37256 2.63519 0
M  V30 5020 C 467.064 3.51576 4.02862 0
M  V30 5021 C 468.364 4.73157 2.21179 0
M  V30 5022 H 470.058 2.81832 1.01051 0
M  V30 5023 H 467.604 1.35599 0.484662 0
M  V30 5024 H 469.557 2.46055 3.42104 0
M  V30 5025 H 468.281 1.29144 2.99982 0
M  V30 5026 H 466.94 3.12675 1.9139 0
M  V30 5027 H 466.588 2.56676 4.32581 0
M  V30 5028 H 466.288 4.2943 4.01078 0
M  V30 5029 H 467.812 3.78467 4.79161 0
M  V30 5030 H 469.226 4.97158 2.85494 0
M  V30 5031 H 467.623 5.54058 2.30521 0
M  V30 5032 H 468.693 4.70739 1.16332 0
M  V30 5033 N 470.036 -0.519951 1.48776 0
M  V30 5034 C 471.284 -1.2727 1.56993 0
M  V30 5035 C 471.605 -1.9339 0.25004 0
M  V30 5036 O 470.875 -1.81822 -0.729216 0
M  V30 5037 H 469.455 -0.472732 0.578389 0
M  V30 5038 H 472.117 -0.604234 1.85297 0
M  V30 5039 H 471.213 -2.04669 2.3562 0
M  V30 5040 N 471.514 -1.37532 -0.769588 0
M  V30 5041 C 472.739 -1.36231 -1.56384 0
M  V30 5042 C 473.164 0.0495849 -1.88035 0
M  V30 5043 O 472.522 1.02723 -1.49391 0
M  V30 5044 C 472.57 -2.20986 -2.84952 0
M  V30 5045 O 471.674 -1.61597 -3.79421 0
M  V30 5046 H 471.015 -0.465387 -0.473615 0
M  V30 5047 H 473.545 -1.81085 -0.952342 0
M  V30 5048 H 473.555 -2.34277 -3.34034 0
M  V30 5049 H 472.23 -3.23612 -2.61243 0
M  V30 5050 H 470.807 -1.57359 -3.38072 0
M  V30 5051 N 472.992 0.995999 -1.22138 0
M  V30 5052 C 473.955 2.06711 -0.990109 0
M  V30 5053 C 474.955 1.60744 0.0422978 0
M  V30 5054 O 476.145 1.73095 -0.195895 0
M  V30 5055 C 473.277 3.37288 -0.49491 0
M  V30 5056 H 474.47 2.28661 -1.94047 0
M  V30 5057 H 472.023 1.16711 -1.03963 0
M  V30 5058 H 472.758 3.21022 0.459948 0
M  V30 5059 H 472.543 3.71986 -1.23971 0
M  V30 5060 H 474.033 4.16103 -0.353253 0
M  V30 5061 N 474.47 1.03057 1.19235 0
M  V30 5062 C 475.886 0.747947 1.40989 0
M  V30 5063 C 476.086 -0.666752 1.90149 0
M  V30 5064 O 475.142 -1.43249 2.07933 0
M  V30 5065 C 476.455 1.7855 2.41951 0
M  V30 5066 C 478.003 1.80524 2.55695 0
M  V30 5067 C 478.478 2.83243 3.59913 0
M  V30 5068 N 479.969 2.8207 3.67411 0
M  V30 5069 C 480.704 3.58204 4.47747 0
M  V30 5070 N 480.2 4.44057 5.31775 0
M  V30 5071 N 481.993 3.46738 4.42413 0
M  V30 5072 H 474.144 1.94367 0.856468 0
M  V30 5073 H 476.407 0.840412 0.438647 0
M  V30 5074 H 476.113 2.79973 2.12857 0
M  V30 5075 H 475.987 1.6092 3.41152 0
M  V30 5076 H 478.374 0.79778 2.84112 0
M  V30 5077 H 478.455 2.02229 1.56643 0
M  V30 5078 H 478.099 3.84161 3.32239 0
M  V30 5079 H 478.029 2.58795 4.5862 0
M  V30 5080 H 480.52 2.19803 3.074 0
M  V30 5081 H 480.833 4.98884 5.90199 0
M  V30 5082 H 479.178 4.48129 5.3123 0
M  V30 5083 H 482.369 2.79077 3.75811 0
M  V30 5084 H 482.542 4.06322 5.04783 0
M  V30 5085 N 475.948 -1.35272 0.808662 0
M  V30 5086 C 476.898 -2.27181 0.193124 0
M  V30 5087 C 477.882 -1.47871 -0.634265 0
M  V30 5088 O 479.074 -1.70048 -0.491182 0
M  V30 5089 C 476.203 -3.36979 -0.655751 0
M  V30 5090 C 475.289 -4.23712 0.181481 0
M  V30 5091 N 475.68 -4.90225 1.24551 0
M  V30 5092 C 473.978 -4.45985 -0.0365493 0
M  V30 5093 C 474.679 -5.54537 1.75682 0
M  V30 5094 N 473.655 -5.33107 1.06294 0
M  V30 5095 H 477.457 -2.76101 1.00724 0
M  V30 5096 H 474.971 -1.48823 0.650029 0
M  V30 5097 H 476.968 -4.01774 -1.11279 0
M  V30 5098 H 475.628 -2.89611 -1.46819 0
M  V30 5099 H 476.639 -4.91641 1.62818 0
M  V30 5100 H 473.316 -4.09409 -0.817964 0
M  V30 5101 H 474.706 -6.17597 2.64621 0
M  V30 5102 N 477.426 -0.562348 -1.47226 0
M  V30 5103 C 478.389 0.172056 -2.28553 0
M  V30 5104 C 479.389 0.837928 -1.37242 0
M  V30 5105 O 480.579 0.693001 -1.59822 0
M  V30 5106 C 477.711 1.25223 -3.17068 0
M  V30 5107 H 478.904 -0.542401 -2.94954 0
M  V30 5108 H 476.457 -0.319493 -1.53 0
M  V30 5109 H 477.192 1.99892 -2.55369 0
M  V30 5110 H 476.977 0.779515 -3.84273 0
M  V30 5111 H 478.467 1.76791 -3.78332 0
M  V30 5112 N 478.904 1.54736 -0.299062 0
M  V30 5113 C 480.134 2.04215 0.312992 0
M  V30 5114 C 480.542 1.17596 1.48215 0
M  V30 5115 O 479.885 0.193835 1.82674 0
M  V30 5116 C 479.947 3.49696 0.833862 0
M  V30 5117 C 479.611 4.56518 -0.20977 0
M  V30 5118 C 480.608 5.09442 -1.03756 0
M  V30 5119 C 478.293 5.01073 -0.35091 0
M  V30 5120 C 480.287 6.05459 -1.99244 0
M  V30 5121 C 477.974 5.9691 -1.30924 0
M  V30 5122 C 478.972 6.48987 -2.1285 0
M  V30 5123 O 478.66 7.42947 -3.07059 0
M  V30 5124 H 478.392 0.672128 0.0722494 0
M  V30 5125 H 480.946 2.00718 -0.436043 0
M  V30 5126 H 479.176 3.5051 1.63339 0
M  V30 5127 H 480.865 3.82381 1.36159 0
M  V30 5128 H 481.631 4.75816 -0.939376 0
M  V30 5129 H 477.51 4.60168 0.276813 0
M  V30 5130 H 481.054 6.46031 -2.63229 0
M  V30 5131 H 476.951 6.29953 -1.40815 0
M  V30 5132 H 477.719 7.60743 -3.02015 0
M  V30 5133 N 480.382 0.0267497 1.57577 0
M  V30 5134 C 481.612 -0.6617 1.95717 0
M  V30 5135 C 482.02 -1.66331 0.901706 0
M  V30 5136 O 481.363 -1.83273 -0.125241 0
M  V30 5137 C 481.425 -1.42649 3.29987 0
M  V30 5138 C 481.089 -0.583482 4.5326 0
M  V30 5139 C 482.086 0.140221 5.19711 0
M  V30 5140 C 479.771 -0.521581 4.99585 0
M  V30 5141 C 481.765 0.914523 6.30805 0
M  V30 5142 C 479.452 0.256428 6.10562 0
M  V30 5143 C 480.45 0.973189 6.76031 0
M  V30 5144 O 480.138 1.73845 7.84878 0
M  V30 5145 H 479.87 -0.187483 0.649481 0
M  V30 5146 H 482.424 0.0820847 2.05236 0
M  V30 5147 H 480.654 -2.21536 3.16952 0
M  V30 5148 H 482.343 -2.00282 3.53047 0
M  V30 5149 H 483.109 0.101716 4.84893 0
M  V30 5150 H 478.988 -1.06904 4.48433 0
M  V30 5151 H 482.532 1.4745 6.81839 0
M  V30 5152 H 478.429 0.296657 6.44818 0
M  V30 5153 H 479.197 1.65797 8.01532 0
M  V30 5154 N 481.861 -1.55662 -0.24637 0
M  V30 5155 C 483.107 -1.77782 -0.975779 0
M  V30 5156 C 483.44 -0.592103 -1.84953 0
M  V30 5157 O 482.715 0.409588 -1.90138 0
M  V30 5158 C 482.998 -3.09788 -1.83584 0
M  V30 5159 C 482.851 -4.38764 -0.990241 0
M  V30 5160 C 484.17 -3.38029 -2.81823 0
M  V30 5161 H 481.289 -0.646789 -0.353317 0
M  V30 5162 H 483.931 -1.88398 -0.246248 0
M  V30 5163 H 482.081 -3.00869 -2.45784 0
M  V30 5164 H 483.753 -4.59675 -0.386897 0
M  V30 5165 H 481.996 -4.32798 -0.294626 0
M  V30 5166 H 482.667 -5.27514 -1.62584 0
M  V30 5167 H 485.143 -3.46915 -2.2976 0
M  V30 5168 H 484.019 -4.3161 -3.39122 0
M  V30 5169 H 484.28 -2.58968 -3.58313 0
M  V30 5170 N 483.339 0.512053 -1.4905 0
M  V30 5171 C 484.567 1.29116 -1.61669 0
M  V30 5172 C 484.982 1.86655 -0.283787 0
M  V30 5173 O 484.339 1.67293 0.729331 0
M  V30 5174 C 484.39 2.4293 -2.67707 0
M  V30 5175 O 484.111 1.87758 -3.95826 0
M  V30 5176 C 485.612 3.34476 -2.90931 0
M  V30 5177 H 482.832 0.392009 -0.544583 0
M  V30 5178 H 485.376 0.615881 -1.95006 0
M  V30 5179 H 483.531 3.06308 -2.37179 0
M  V30 5180 H 483.945 2.62393 -4.54148 0
M  V30 5181 H 485.419 4.10642 -3.68886 0
M  V30 5182 H 485.896 3.90801 -2.00427 0
M  V30 5183 H 486.502 2.76874 -3.22832 0
M  V30 5184 N 484.817 1.37938 0.762283 0
M  V30 5185 C 486.063 1.33866 1.52341 0
M  V30 5186 C 486.396 -0.0738961 1.94059 0
M  V30 5187 O 485.671 -1.03326 1.64785 0
M  V30 5188 C 485.954 2.28644 2.78197 0
M  V30 5189 C 485.807 3.78722 2.42672 0
M  V30 5190 C 487.126 2.21702 3.80179 0
M  V30 5191 H 484.245 0.487593 0.55265 0
M  V30 5192 H 486.887 1.68717 0.873767 0
M  V30 5193 H 485.037 1.99055 3.33631 0
M  V30 5194 H 486.709 4.18948 1.93081 0
M  V30 5195 H 484.952 3.96827 1.75244 0
M  V30 5196 H 485.623 4.40486 3.3268 0
M  V30 5197 H 488.099 2.47805 3.34263 0
M  V30 5198 H 486.975 2.90143 4.65949 0
M  V30 5199 H 487.236 1.21301 4.25133 0
M  V30 5200 N 486.295 -0.989507 1.22664 0
M  V30 5201 C 487.205 -2.11449 1.01619 0
M  V30 5202 C 488.221 -1.73962 -0.036545 0
M  V30 5203 O 489.397 -2.00788 0.156924 0
M  V30 5204 C 486.462 -3.41465 0.600204 0
M  V30 5205 C 485.523 -3.93033 1.72695 0
M  V30 5206 C 484.756 -5.16844 1.33071 0
M  V30 5207 O 484.979 -5.7001 0.210975 0
M  V30 5208 O 483.913 -5.6225 2.14845 0
M  V30 5209 H 487.739 -2.32088 1.9588 0
M  V30 5210 H 485.324 -1.09823 1.01289 0
M  V30 5211 H 487.206 -4.19695 0.37873 0
M  V30 5212 H 485.881 -3.22178 -0.313511 0
M  V30 5213 H 484.788 -3.15961 2.00298 0
M  V30 5214 H 486.121 -4.16758 2.61865 0
M  V30 5215 N 487.773 -1.03688 -1.18687 0
M  V30 5216 C 488.736 -0.629115 -2.20397 0
M  V30 5217 C 489.736 0.311495 -1.57754 0
M  V30 5218 O 490.926 0.0974107 -1.73927 0
M  V30 5219 C 488.058 0.0782231 -3.4081 0
M  V30 5220 H 489.251 -1.52915 -2.57987 0
M  V30 5221 H 486.804 -0.828988 -1.32505 0
M  V30 5222 H 487.539 0.992233 -3.08748 0
M  V30 5223 H 487.324 -0.597776 -3.87517 0
M  V30 5224 H 488.814 0.350156 -4.16129 0
M  V30 5225 N 489.251 1.34841 -0.815825 0
M  V30 5226 C 490.214 2.27959 -0.238185 0
M  V30 5227 C 491.214 1.49983 0.579816 0
M  V30 5228 O 492.404 1.69617 0.396953 0
M  V30 5229 C 489.536 3.34314 0.666876 0
M  V30 5230 H 490.729 2.80558 -1.05958 0
M  V30 5231 H 488.282 1.44852 -0.587156 0
M  V30 5232 H 489.017 2.86916 1.5116 0
M  V30 5233 H 488.802 3.92014 0.0819106 0
M  V30 5234 H 490.292 4.0379 1.06506 0
M  V30 5235 N 490.729 0.570148 1.46925 0
M  V30 5236 C 492.14 0.1402 1.86173 0
M  V30 5237 C 492.491 -1.29347 1.47526 0
M  V30 5238 O 491.616 -1.97508 0.884292 0
M  V30 5239 C 492.211 0.247661 3.37894 0
M  V30 5240 C 490.77 -0.127332 3.76185 0
M  V30 5241 C 489.917 0.589349 2.70965 0
M  V30 5242 H 492.868 0.779117 1.38259 0
M  V30 5243 H 492.889 -0.530341 3.76786 0
M  V30 5244 H 492.401 1.29121 3.65991 0
M  V30 5245 H 490.502 -1.17149 3.53704 0
M  V30 5246 H 490.615 0.240238 4.78497 0
M  V30 5247 H 488.979 0.0309824 2.54681 0
M  V30 5248 H 489.762 1.6343 3.01903 0
M  V30 5249 N 492.207 -1.54576 0.307264 0
M  V30 5250 C 493.437 -2.04378 -0.302158 0
M  V30 5251 C 493.845 -1.18381 -1.47589 0
M  V30 5252 O 493.188 -0.20352 -1.82569 0
M  V30 5253 C 493.25 -3.50133 -0.815305 0
M  V30 5254 C 492.914 -4.56401 0.233977 0
M  V30 5255 C 493.911 -5.08884 1.06456 0
M  V30 5256 C 491.596 -5.0088 0.377478 0
M  V30 5257 C 493.59 -6.04394 2.02452 0
M  V30 5258 C 491.277 -5.96208 1.34088 0
M  V30 5259 C 492.275 -6.47849 2.16288 0
M  V30 5260 O 491.963 -7.41308 3.10994 0
M  V30 5261 H 491.695 -0.672502 -0.0686839 0
M  V30 5262 H 494.249 -2.00484 0.446682 0
M  V30 5263 H 492.479 -3.51371 -1.61478 0
M  V30 5264 H 494.168 -3.83098 -1.34129 0
M  V30 5265 H 494.934 -4.75311 0.964596 0
M  V30 5266 H 490.813 -4.60309 -0.252405 0
M  V30 5267 H 494.357 -6.44626 2.66652 0
M  V30 5268 H 490.254 -6.29198 1.44154 0
M  V30 5269 H 491.022 -7.5913 3.06045 0
M  V30 5270 N 493.685 -0.035106 -1.57561 0
M  V30 5271 C 494.931 0.637362 -1.93156 0
M  V30 5272 C 495.286 1.69391 -0.912392 0
M  V30 5273 O 494.579 1.91469 0.070735 0
M  V30 5274 C 494.773 1.29149 -3.3325 0
M  V30 5275 C 494.602 0.29983 -4.48699 0
M  V30 5276 C 493.372 -0.102454 -5.05196 0
M  V30 5277 C 495.57 -0.448297 -5.12342 0
M  V30 5278 N 493.552 -1.08866 -6.0417 0
M  V30 5279 C 494.923 -1.28807 -6.06472 0
M  V30 5280 C 496.978 -0.508351 -4.95298 0
M  V30 5281 C 495.681 -2.18248 -6.85391 0
M  V30 5282 C 497.707 -1.39013 -5.7483 0
M  V30 5283 C 497.069 -2.21766 -6.6858 0
M  V30 5284 H 493.168 0.205358 -0.754554 0
M  V30 5285 H 495.752 -0.103682 -1.94424 0
M  V30 5286 H 493.923 2.00264 -3.3279 0
M  V30 5287 H 495.655 1.92147 -3.56177 0
M  V30 5288 H 492.41 0.273223 -4.72811 0
M  V30 5289 H 492.834 -1.57817 -6.58348 0
M  V30 5290 H 497.476 0.117197 -4.22638 0
M  V30 5291 H 495.194 -2.81855 -7.57353 0
M  V30 5292 H 498.78 -1.44096 -5.63673 0
M  V30 5293 H 497.66 -2.88892 -7.29048 0
M  V30 5294 N 495.163 1.55791 0.238111 0
M  V30 5295 C 496.093 1.94068 1.29846 0
M  V30 5296 C 497.074 0.806726 1.49753 0
M  V30 5297 O 498.259 1.06772 1.62214 0
M  V30 5298 C 495.389 2.24302 2.65153 0
M  V30 5299 C 494.343 3.40032 2.59927 0
M  V30 5300 C 493.669 3.55829 3.99111 0
M  V30 5301 C 494.969 4.75476 2.16148 0
M  V30 5302 H 496.663 2.82887 0.980563 0
M  V30 5303 H 494.209 1.36105 0.470253 0
M  V30 5304 H 496.162 2.4967 3.39475 0
M  V30 5305 H 494.886 1.32318 2.98596 0
M  V30 5306 H 493.545 3.14687 1.88063 0
M  V30 5307 H 493.193 2.6125 4.29834 0
M  V30 5308 H 492.893 4.3366 3.96501 0
M  V30 5309 H 494.417 3.83528 4.7512 0
M  V30 5310 H 495.831 5.00158 2.80205 0
M  V30 5311 H 494.228 5.56472 2.24631 0
M  V30 5312 H 495.298 4.71946 1.11333 0
M  V30 5313 N 496.642 -0.504142 1.49319 0
M  V30 5314 C 497.592 -1.60284 1.62151 0
M  V30 5315 C 498.576 -1.53657 0.477315 0
M  V30 5316 O 499.768 -1.6124 0.730108 0
M  V30 5317 C 496.897 -2.98909 1.68844 0
M  V30 5318 C 495.983 -3.10544 2.8883 0
M  V30 5319 N 496.374 -2.92078 4.12946 0
M  V30 5320 C 494.672 -3.4164 2.86702 0
M  V30 5321 C 495.373 -3.07812 4.93585 0
M  V30 5322 N 494.349 -3.36549 4.26891 0
M  V30 5323 H 498.151 -1.44656 2.55835 0
M  V30 5324 H 495.665 -0.710198 1.46048 0
M  V30 5325 H 497.662 -3.77865 1.76134 0
M  V30 5326 H 496.322 -3.15609 0.762943 0
M  V30 5327 H 497.333 -2.68316 4.42975 0
M  V30 5328 H 494.01 -3.64537 2.03517 0
M  V30 5329 H 495.4 -2.98054 6.02174 0
M  V30 5330 N 498.12 -1.38341 -0.754957 0
M  V30 5331 C 499.067 -1.3546 -1.86867 0
M  V30 5332 C 500.037 -0.217369 -1.64672 0
M  V30 5333 O 501.222 -0.409383 -1.86356 0
M  V30 5334 C 498.362 -1.18413 -3.24149 0
M  V30 5335 C 497.475 -2.41511 -3.58185 0
M  V30 5336 C 496.61 -2.17205 -4.84763 0
M  V30 5337 C 495.649 -3.36081 -5.11582 0
M  V30 5338 N 494.786 -3.11219 -6.29354 0
M  V30 5339 H 499.626 -2.30672 -1.88664 0
M  V30 5340 H 497.163 -1.14607 -0.922154 0
M  V30 5341 H 499.121 -1.06545 -4.03366 0
M  V30 5342 H 497.751 -0.268397 -3.21682 0
M  V30 5343 H 496.803 -2.64056 -2.73822 0
M  V30 5344 H 498.115 -3.30115 -3.73932 0
M  V30 5345 H 497.269 -2.02465 -5.7192 0
M  V30 5346 H 496.008 -1.25964 -4.71152 0
M  V30 5347 H 495.013 -3.51341 -4.22894 0
M  V30 5348 H 496.238 -4.28196 -5.27091 0
M  V30 5349 H 494.184 -2.22624 -6.17069 0
M  V30 5350 H 494.101 -3.93373 -6.45596 0
M  V30 5351 H 495.369 -3.00132 -7.19403 0
M  V30 5352 N 499.598 0.982988 -1.23187 0
M  V30 5353 C 501.009 1.53847 -1.05773 0
M  V30 5354 C 501.36 1.92568 0.375744 0
M  V30 5355 O 500.485 1.75783 1.26211 0
M  V30 5356 C 501.08 2.79567 -1.91384 0
M  V30 5357 C 499.639 3.31524 -1.78238 0
M  V30 5358 C 498.786 2.04534 -1.87246 0
M  V30 5359 H 501.737 0.802962 -1.36888 0
M  V30 5360 H 501.758 3.52317 -1.43711 0
M  V30 5361 H 501.27 2.51353 -2.95708 0
M  V30 5362 H 499.371 3.64623 -0.766875 0
M  V30 5363 H 499.484 4.01457 -2.61475 0
M  V30 5364 H 497.848 2.1855 -1.30797 0
M  V30 5365 H 498.631 1.78706 -2.9312 0
M  V30 5366 N 501.076 1.04316 1.18135 0
M  V30 5367 C 502.008 0.594444 2.21357 0
M  V30 5368 C 503.021 -0.337215 1.59269 0
M  V30 5369 O 504.21 -0.131337 1.78016 0
M  V30 5370 C 501.31 -0.151251 3.38562 0
M  V30 5371 C 500.483 0.788907 4.30227 0
M  V30 5372 C 499.542 0.0860572 5.2613 0
M  V30 5373 O 498.568 0.717302 5.64662 0
M  V30 5374 N 499.77 -1.17969 5.68387 0
M  V30 5375 H 502.535 1.48227 2.60478 0
M  V30 5376 H 500.096 0.92396 1.32946 0
M  V30 5377 H 502.088 -0.631352 3.99745 0
M  V30 5378 H 500.658 -0.940639 2.98112 0
M  V30 5379 H 499.878 1.44882 3.6661 0
M  V30 5380 H 501.166 1.42738 4.88368 0
M  V30 5381 H 500.564 -1.71302 5.3914 0
M  V30 5382 H 499.121 -1.60402 6.31755 0
M  V30 5383 N 502.554 -1.34406 0.822964 0
M  V30 5384 C 503.779 -2.0304 0.423034 0
M  V30 5385 C 504.204 -1.61568 -0.963196 0
M  V30 5386 O 503.562 -0.800339 -1.62678 0
M  V30 5387 C 503.61 -3.56636 0.53321 0
M  V30 5388 O 502.714 -4.09971 -0.446939 0
M  V30 5389 H 502.055 -0.64075 0.174171 0
M  V30 5390 H 504.585 -1.71653 1.11339 0
M  V30 5391 H 504.595 -4.05945 0.408991 0
M  V30 5392 H 503.27 -3.86168 1.54425 0
M  V30 5393 H 501.847 -3.71835 -0.281601 0
M  V30 5394 N 504.032 -0.577932 -1.46621 0
M  V30 5395 C 504.982 0.178869 -2.27297 0
M  V30 5396 C 505.966 0.866279 -1.35589 0
M  V30 5397 O 507.158 0.761163 -1.59798 0
M  V30 5398 C 504.287 1.19499 -3.2183 0
M  V30 5399 C 503.373 0.50994 -4.21023 0
M  V30 5400 N 503.764 -0.43177 -5.03954 0
M  V30 5401 C 502.062 0.761287 -4.39455 0
M  V30 5402 C 502.763 -0.831693 -5.75724 0
M  V30 5403 N 501.739 -0.181897 -5.43296 0
M  V30 5404 H 505.541 -0.544859 -2.88805 0
M  V30 5405 H 503.055 -0.399373 -1.57413 0
M  V30 5406 H 505.052 1.75131 -3.78332 0
M  V30 5407 H 503.712 1.91959 -2.61881 0
M  V30 5408 H 504.723 -0.807045 -5.11573 0
M  V30 5409 H 501.4 1.47282 -3.90659 0
M  V30 5410 H 502.79 -1.6067 -6.52407 0
M  V30 5411 N 505.51 1.54411 -0.315457 0
M  V30 5412 C 506.44 2.27002 0.547039 0
M  V30 5413 C 507.421 1.27492 1.12605 0
M  V30 5414 O 508.606 1.5629 1.15269 0
M  V30 5415 C 505.736 3.02171 1.71201 0
M  V30 5416 C 504.69 4.0895 1.26268 0
M  V30 5417 C 504.016 4.71915 2.51396 0
M  V30 5418 C 505.316 5.20891 0.383419 0
M  V30 5419 H 507.01 2.99343 -0.0584517 0
M  V30 5420 H 504.556 1.4397 -0.0295527 0
M  V30 5421 H 506.509 3.51681 2.32161 0
M  V30 5422 H 505.233 2.27433 2.34397 0
M  V30 5423 H 503.892 3.60312 0.676062 0
M  V30 5424 H 503.54 3.93801 3.12937 0
M  V30 5425 H 503.24 5.44039 2.22026 0
M  V30 5426 H 504.764 5.24195 3.13133 0
M  V30 5427 H 506.178 5.66206 0.899082 0
M  V30 5428 H 504.575 5.99821 0.182857 0
M  V30 5429 H 505.645 4.81324 -0.587821 0
M  V30 5430 N 506.988 0.0434614 1.5754 0
M  V30 5431 C 508.218 -0.640905 1.96408 0
M  V30 5432 C 508.626 -1.65365 0.919297 0
M  V30 5433 O 507.969 -1.83395 -0.105795 0
M  V30 5434 C 508.031 -1.39141 3.31482 0
M  V30 5435 C 507.695 -0.535375 4.53853 0
M  V30 5436 C 508.692 0.195335 5.19533 0
M  V30 5437 C 506.377 -0.468564 5.0011 0
M  V30 5438 C 508.371 0.981377 6.298 0
M  V30 5439 C 506.058 0.321171 6.10255 0
M  V30 5440 C 507.056 1.04484 6.74961 0
M  V30 5441 O 506.744 1.8216 7.8299 0
M  V30 5442 H 506.476 -0.180584 0.651433 0
M  V30 5443 H 509.03 0.103848 2.05137 0
M  V30 5444 H 507.26 -2.18162 3.19284 0
M  V30 5445 H 508.949 -1.96526 3.55151 0
M  V30 5446 H 509.715 0.15314 4.84758 0
M  V30 5447 H 505.594 -1.02142 4.49542 0
M  V30 5448 H 509.138 1.54674 6.80237 0
M  V30 5449 H 505.035 0.365032 6.44467 0
M  V30 5450 H 505.803 1.74289 7.99728 0
M  V30 5451 N 508.466 -1.55915 -0.229846 0
M  V30 5452 C 509.714 -1.7819 -0.953565 0
M  V30 5453 C 510.035 -0.610504 -1.85197 0
M  V30 5454 O 509.305 0.372988 -1.92316 0
M  V30 5455 H 507.885 -0.657208 -0.355087 0
M  V30 5456 H 510.547 -1.9337 -0.243693 0
M  V30 5457 H 509.643 -2.70011 -1.56527 0
M  V30 5458 N 509.944 0.496216 -1.49584 0
M  V30 5459 C 511.355 1.07765 -1.52459 0
M  V30 5460 C 511.706 1.93679 -0.31353 0
M  V30 5461 O 510.831 2.08588 0.576186 0
M  V30 5462 C 511.426 1.96111 -2.76271 0
M  V30 5463 C 509.985 2.49409 -2.81908 0
M  V30 5464 C 509.132 1.27142 -2.46435 0
M  V30 5465 H 512.083 0.279914 -1.56212 0
M  V30 5466 H 512.104 2.80862 -2.56704 0
M  V30 5467 H 511.616 1.33555 -3.64396 0
M  V30 5468 H 509.717 3.1559 -1.98074 0
M  V30 5469 H 509.83 2.86234 -3.84196 0
M  V30 5470 H 508.194 1.59818 -1.98319 0
M  V30 5471 H 508.977 0.662866 -3.3684 0
M  V30 5472 N 511.423 1.38739 0.74761 0
M  V30 5473 C 512.671 1.35007 1.50391 0
M  V30 5474 C 512.992 -0.0574274 1.94915 0
M  V30 5475 O 512.262 -1.00628 1.6808 0
M  V30 5476 H 510.842 0.496784 0.557866 0
M  V30 5477 H 513.504 1.73479 0.888319 0
M  V30 5478 H 512.6 2.00474 2.392 0
M  V30 5479 N 512.901 -0.976442 1.23707 0
M  V30 5480 C 513.811 -2.10359 1.03856 0
M  V30 5481 C 514.827 -1.73991 -0.0180919 0
M  V30 5482 O 516.003 -2.0061 0.178211 0
M  V30 5483 C 513.068 -3.40809 0.636387 0
M  V30 5484 C 512.129 -3.91179 1.76854 0
M  V30 5485 C 511.362 -5.15404 1.38546 0
M  V30 5486 O 511.585 -5.69754 0.27142 0
M  V30 5487 O 510.519 -5.5994 2.20797 0
M  V30 5488 H 514.345 -2.29997 1.98331 0
M  V30 5489 H 511.93 -1.08742 1.02448 0
M  V30 5490 H 513.812 -4.19269 0.423223 0
M  V30 5491 H 512.487 -3.22493 -0.279322 0
M  V30 5492 H 511.394 -3.13819 2.03638 0
M  V30 5493 H 512.727 -4.13958 2.6627 0
M  V30 5494 N 514.379 -1.04941 -1.1758 0
M  V30 5495 C 515.607 -0.778294 -1.91703 0
M  V30 5496 C 516.022 0.665697 -1.76675 0
M  V30 5497 O 515.379 1.45456 -1.10222 0
M  V30 5498 C 515.43 -1.14628 -3.42845 0
M  V30 5499 O 515.151 -2.53359 -3.57409 0
M  V30 5500 C 516.652 -0.900931 -4.34049 0
M  V30 5501 H 513.872 -0.283167 -0.608323 0
M  V30 5502 H 516.416 -1.39942 -1.49119 0
M  V30 5503 H 514.571 -0.569953 -3.83184 0
M  V30 5504 H 514.985 -2.67709 -4.51035 0
M  V30 5505 H 516.459 -1.20817 -5.38616 0
M  V30 5506 H 516.936 0.163966 -4.38894 0
M  V30 5507 H 517.542 -1.46097 -3.99419 0
M  V30 5508 N 515.857 1.33968 -0.830081 0
M  V30 5509 C 516.82 2.27694 -0.26235 0
M  V30 5510 C 517.82 1.50589 0.563876 0
M  V30 5511 O 519.01 1.70028 0.378941 0
M  V30 5512 C 516.142 3.35002 0.63138 0
M  V30 5513 H 517.335 2.79419 -1.08928 0
M  V30 5514 H 514.888 1.44221 -0.602486 0
M  V30 5515 H 515.623 2.88504 1.48109 0
M  V30 5516 H 515.408 3.92079 0.0403276 0
M  V30 5517 H 516.898 4.04897 1.02217 0
M  V30 5518 N 517.335 0.585699 1.46312 0
M  V30 5519 C 518.751 0.247607 1.57668 0
M  V30 5520 C 518.951 -1.25007 1.58037 0
M  V30 5521 O 518.007 -2.03196 1.49893 0
M  V30 5522 C 519.32 0.899456 2.86933 0
M  V30 5523 C 520.868 0.873326 3.00569 0
M  V30 5524 C 521.343 1.50477 4.32574 0
M  V30 5525 N 522.834 1.46925 4.3928 0
M  V30 5526 C 523.569 1.92719 5.40044 0
M  V30 5527 N 523.065 2.46499 6.47464 0
M  V30 5528 N 524.858 1.83617 5.31264 0
M  V30 5529 H 517.009 1.55841 1.44317 0
M  V30 5530 H 519.272 0.651564 0.688599 0
M  V30 5531 H 518.978 1.95313 2.92482 0
M  V30 5532 H 518.852 0.409476 3.74971 0
M  V30 5533 H 521.239 -0.171736 2.946 0
M  V30 5534 H 521.32 1.40136 2.13999 0
M  V30 5535 H 520.964 2.54905 4.39302 0
M  V30 5536 H 520.894 0.951944 5.17924 0
M  V30 5537 H 523.385 1.07616 3.62253 0
M  V30 5538 H 523.698 2.79291 7.20567 0
M  V30 5539 H 522.043 2.50526 6.48276 0
M  V30 5540 H 525.234 1.41358 4.46246 0
M  V30 5541 H 525.407 2.19622 6.09648 0
M  V30 5542 N 518.813 -1.54241 0.323641 0
M  V30 5543 C 519.743 -2.27289 -0.534993 0
M  V30 5544 C 520.724 -1.28087 -1.11927 0
M  V30 5545 O 521.909 -1.56899 -1.14439 0
M  V30 5546 C 519.039 -3.03075 -1.69596 0
M  V30 5547 C 517.993 -4.09614 -1.24098 0
M  V30 5548 C 517.319 -4.73242 -2.4889 0
M  V30 5549 C 518.619 -5.21087 -0.355789 0
M  V30 5550 H 520.313 -2.99308 0.0743257 0
M  V30 5551 H 517.859 -1.43952 0.0371874 0
M  V30 5552 H 519.812 -3.52907 -2.30293 0
M  V30 5553 H 518.536 -2.28673 -2.33187 0
M  V30 5554 H 517.195 -3.60666 -0.656945 0
M  V30 5555 H 516.843 -3.95455 -3.10845 0
M  V30 5556 H 516.543 -5.45209 -2.19138 0
M  V30 5557 H 518.067 -5.25848 -3.10348 0
M  V30 5558 H 519.481 -5.66675 -0.869042 0
M  V30 5559 H 517.878 -5.9991 -0.151045 0
M  V30 5560 H 518.948 -4.81005 0.613339 0
M  V30 5561 N 520.291 -0.0518155 -1.57515 0
M  V30 5562 C 521.568 0.661727 -1.84067 0
M  V30 5563 C 521.948 1.88999 -0.940351 0
M  V30 5564 O 521.296 2.285 -0.00155404 0
M  V30 5565 C 521.506 1.01841 -3.3381 0
M  V30 5566 C 522.854 1.40043 -4.00841 0
M  V30 5567 O 523.878 1.11073 -3.38439 0
M  V30 5568 O 522.737 1.94111 -5.10865 0
M  V30 5569 H 519.831 0.326702 -0.759733 0
M  V30 5570 H 522.377 -0.0812277 -1.69505 0
M  V30 5571 H 521.149 0.145202 -3.91031 0
M  V30 5572 H 520.772 1.81879 -3.53562 0
M  V30 5573 N 521.769 1.56035 0.221574 0
M  V30 5574 C 523.009 1.80822 0.953038 0
M  V30 5575 C 523.373 0.625316 1.81532 0
M  V30 5576 O 524.574 0.752491 2.58052 0
M  V30 5577 C 522.845 3.10503 1.76983 0
M  V30 5578 S 524.404 3.56604 2.55693 0
M  V30 5579 H 521.222 0.634849 0.320137 0
M  V30 5580 H 523.824 1.94274 0.218619 0
M  V30 5581 H 522.528 3.94636 1.12651 0
M  V30 5582 H 522.059 2.99858 2.54655 0
M  V30 5583 H 524.074 3.1994 3.79279 0
M  V30 5584 N 523.247 -0.488276 1.49845 0
M  V30 5585 C 524.179 -1.60539 1.63584 0
M  V30 5586 C 525.192 -1.5434 0.517972 0
M  V30 5587 O 526.381 -1.60041 0.790516 0
M  V30 5588 C 523.481 -2.99374 1.58835 0
M  V30 5589 C 522.654 -3.30624 2.86368 0
M  V30 5590 C 521.713 -4.4893 2.74496 0
M  V30 5591 O 520.739 -4.50085 3.48443 0
M  V30 5592 N 521.941 -5.49591 1.86894 0
M  V30 5593 H 524.706 -1.49176 2.59936 0
M  V30 5594 H 522.267 -0.67639 1.47094 0
M  V30 5595 H 524.259 -3.76459 1.48529 0
M  V30 5596 H 522.829 -3.04595 0.702892 0
M  V30 5597 H 522.049 -2.42314 3.1093 0
M  V30 5598 H 523.337 -3.48305 3.70892 0
M  V30 5599 H 522.735 -5.51467 1.26097 0
M  V30 5600 H 521.292 -6.25728 1.82503 0
M  V30 5601 N 524.725 -1.39134 -0.740242 0
M  V30 5602 C 525.971 -1.36273 -1.50192 0
M  V30 5603 C 526.304 0.0430136 -1.94152 0
M  V30 5604 O 525.579 1.00691 -1.66408 0
M  V30 5605 C 525.862 -2.33041 -2.74525 0
M  V30 5606 C 525.715 -3.82535 -2.36617 0
M  V30 5607 C 527.034 -2.27723 -3.76604 0
M  V30 5608 H 524.153 -0.496323 -0.544823 0
M  V30 5609 H 526.795 -1.70085 -0.846815 0
M  V30 5610 H 524.945 -2.04337 -3.30422 0
M  V30 5611 H 526.617 -4.21967 -1.86391 0
M  V30 5612 H 524.86 -3.99565 -1.68909 0
M  V30 5613 H 525.531 -4.45723 -3.2563 0
M  V30 5614 H 528.007 -2.53091 -3.30279 0
M  V30 5615 H 526.883 -2.97519 -4.61274 0
M  V30 5616 H 527.144 -1.28049 -4.2315 0
M  V30 5617 N 526.204 0.969867 -1.24223 0
M  V30 5618 C 527.136 2.0669 -0.99055 0
M  V30 5619 C 528.149 1.62753 0.0392222 0
M  V30 5620 O 529.338 1.77403 -0.197561 0
M  V30 5621 C 526.438 3.35589 -0.472594 0
M  V30 5622 C 525.611 4.08444 -1.56499 0
M  V30 5623 C 524.67 5.15616 -1.05007 0
M  V30 5624 O 523.696 5.41911 -1.7413 0
M  V30 5625 N 524.898 5.80383 0.116641 0
M  V30 5626 H 527.663 2.28855 -1.93508 0
M  V30 5627 H 525.224 1.13733 -1.15223 0
M  V30 5628 H 527.216 4.04542 -0.112919 0
M  V30 5629 H 525.786 3.10311 0.377617 0
M  V30 5630 H 525.006 3.33798 -2.09696 0
M  V30 5631 H 526.294 4.53882 -2.29932 0
M  V30 5632 H 525.692 5.6142 0.694589 0
M  V30 5633 H 524.249 6.50462 0.417483 0
M  V30 5634 N 527.682 1.05563 1.17022 0
M  V30 5635 C 528.93 0.76642 1.87004 0
M  V30 5636 C 529.251 -0.708854 1.8166 0
M  V30 5637 O 528.521 -1.51242 1.2451 0
M  V30 5638 H 527.101 0.280516 0.692329 0
M  V30 5639 H 529.763 1.33557 1.41945 0
M  V30 5640 H 528.859 1.08472 2.92644 0
M  V30 5641 N 529.16 -1.33526 0.837174 0
M  V30 5642 C 530.576 -1.50727 0.524743 0
M  V30 5643 C 530.776 -1.77792 -0.948279 0
M  V30 5644 O 529.832 -1.83719 -1.73216 0
M  V30 5645 C 531.145 -2.66299 1.39661 0
M  V30 5646 C 532.693 -2.80183 1.39521 0
M  V30 5647 C 533.168 -3.98815 2.25189 0
M  V30 5648 N 534.659 -4.06047 2.2289 0
M  V30 5649 C 535.394 -4.97032 2.85915 0
M  V30 5650 N 534.89 -5.93143 3.57985 0
M  V30 5651 N 536.683 -4.90015 2.75394 0
M  V30 5652 H 528.834 -1.1422 1.79074 0
M  V30 5653 H 531.097 -0.561399 0.763894 0
M  V30 5654 H 530.803 -2.52974 2.4433 0
M  V30 5655 H 530.677 -3.61663 1.07145 0
M  V30 5656 H 533.064 -2.92942 0.356253 0
M  V30 5657 H 533.145 -1.85586 1.76044 0
M  V30 5658 H 532.789 -3.86817 3.29143 0
M  V30 5659 H 532.719 -4.92654 1.86009 0
M  V30 5660 H 535.21 -3.37262 1.70478 0
M  V30 5661 H 535.523 -6.59227 4.03286 0
M  V30 5662 H 533.868 -5.93223 3.62093 0
M  V30 5663 H 537.059 -4.13894 2.18654 0
M  V30 5664 H 537.232 -5.60724 3.24796 0
M  V30 5665 N 530.638 -0.59345 -1.46 0
M  V30 5666 C 532.049 -0.169801 -1.85926 0
M  V30 5667 C 532.4 1.26984 -1.49565 0
M  V30 5668 O 531.525 1.96076 -0.915602 0
M  V30 5669 C 532.12 -0.301385 -3.37457 0
M  V30 5670 C 530.679 0.0674684 -3.7634 0
M  V30 5671 C 529.826 -0.632383 -2.69993 0
M  V30 5672 H 532.777 -0.801014 -1.37002 0
M  V30 5673 H 532.798 0.470331 -3.77582 0
M  V30 5674 H 532.31 -1.34927 -3.63891 0
M  V30 5675 H 530.411 1.11507 -3.55523 0
M  V30 5676 H 530.524 -0.316332 -4.78055 0
M  V30 5677 H 528.888 -0.0714961 -2.546 0
M  V30 5678 H 529.671 -1.68212 -2.99265 0
M  V30 5679 N 532.116 1.54067 -0.331816 0
M  V30 5680 C 533.048 2.22139 0.564538 0
M  V30 5681 C 534.061 1.22408 1.07332 0
M  V30 5682 O 535.25 1.4883 0.985481 0
M  V30 5683 C 532.35 2.87876 1.78831 0
M  V30 5684 C 531.523 4.13817 1.41682 0
M  V30 5685 C 530.582 4.63072 2.49901 0
M  V30 5686 O 529.608 5.27562 2.13699 0
M  V30 5687 N 530.81 4.38001 3.80967 0
M  V30 5688 H 533.575 2.99694 -0.0183736 0
M  V30 5689 H 531.136 1.61153 -0.155396 0
M  V30 5690 H 533.128 3.17747 2.50637 0
M  V30 5691 H 531.698 2.13977 2.27887 0
M  V30 5692 H 530.918 3.9062 0.530044 0
M  V30 5693 H 532.206 4.95762 1.14443 0
M  V30 5694 H 531.604 3.864 4.13173 0
M  V30 5695 H 530.161 4.72507 4.48977 0
M  V30 5696 N 533.594 0.0601682 1.57485 0
M  V30 5697 C 535.005 -0.474217 1.80577 0
M  V30 5698 C 535.356 -1.70365 0.973147 0
M  V30 5699 O 534.481 -2.15544 0.192306 0
M  V30 5700 C 535.076 -0.867102 3.27516 0
M  V30 5701 C 533.635 -1.34642 3.51495 0
M  V30 5702 C 532.782 -0.32594 2.75378 0
M  V30 5703 H 535.733 0.285973 1.56102 0
M  V30 5704 H 535.754 -1.72938 3.38929 0
M  V30 5705 H 535.266 0.0278927 3.8809 0
M  V30 5706 H 533.367 -2.2603 2.96212 0
M  V30 5707 H 533.48 -1.33237 4.60201 0
M  V30 5708 H 531.844 -0.800749 2.41785 0
M  V30 5709 H 532.627 0.561125 3.38683 0
M  V30 5710 N 535.072 -1.5615 -0.213296 0
M  V30 5711 C 535.982 -1.96265 -1.28519 0
M  V30 5712 C 536.998 -0.86765 -1.50824 0
M  V30 5713 O 538.174 -1.17191 -1.63793 0
M  V30 5714 C 535.239 -2.27836 -2.61327 0
M  V30 5715 C 534.3 -3.50949 -2.47252 0
M  V30 5716 C 533.533 -3.81004 -3.73727 0
M  V30 5717 O 533.756 -3.12612 -4.77106 0
M  V30 5718 O 532.69 -4.74477 -3.70344 0
M  V30 5719 H 536.516 -2.87631 -0.974795 0
M  V30 5720 H 534.101 -1.43467 -0.416832 0
M  V30 5721 H 535.983 -2.49299 -3.39747 0
M  V30 5722 H 534.658 -1.39643 -2.9203 0
M  V30 5723 H 533.565 -3.34754 -1.67004 0
M  V30 5724 H 534.898 -4.39551 -2.21486 0
M  V30 5725 N 536.55 0.480323 -1.50102 0
M  V30 5726 C 537.796 1.23489 -1.60867 0
M  V30 5727 C 538.129 1.91809 -0.303827 0
M  V30 5728 O 537.404 1.81694 0.694092 0
M  V30 5729 C 537.687 2.28578 -2.78252 0
M  V30 5730 C 537.54 1.64624 -4.18592 0
M  V30 5731 C 538.859 3.2997 -2.91218 0
M  V30 5732 H 535.978 0.447605 -0.585507 0
M  V30 5733 H 538.62 0.530005 -1.82458 0
M  V30 5734 H 536.77 2.88697 -2.59974 0
M  V30 5735 H 538.442 1.08173 -4.48438 0
M  V30 5736 H 536.685 0.949645 -4.23278 0
M  V30 5737 H 537.356 2.40946 -4.96638 0
M  V30 5738 H 539.832 2.79864 -3.07921 0
M  V30 5739 H 538.708 4.00839 -3.74993 0
M  V30 5740 H 538.969 3.93541 -2.0144 0
M  V30 5741 N 538.028 1.39524 0.732853 0
M  V30 5742 C 539.256 1.40143 1.52209 0
M  V30 5743 C 539.671 -0.00348836 1.888 0
M  V30 5744 O 539.028 -0.975357 1.5425 0
M  V30 5745 C 539.079 2.27632 2.8083 0
M  V30 5746 O 538.8 3.62654 2.45792 0
M  V30 5747 C 540.301 2.36658 3.74844 0
M  V30 5748 H 537.521 0.478604 0.470297 0
M  V30 5749 H 540.065 1.83366 0.905388 0
M  V30 5750 H 538.22 1.87818 3.38826 0
M  V30 5751 H 538.634 4.08941 3.28431 0
M  V30 5752 H 540.108 3.02118 4.61984 0
M  V30 5753 H 540.585 1.38638 4.16745 0
M  V30 5754 H 541.191 2.76951 3.22766 0
M  V30 5755 N 539.506 -0.963266 1.24736 0
M  V30 5756 C 540.752 -1.71 1.10139 0
M  V30 5757 C 541.107 -1.89089 -0.35541 0
M  V30 5758 O 540.4 -1.44451 -1.25875 0
M  V30 5759 C 540.594 -3.09944 1.7796 0
M  V30 5760 C 540.423 -3.05408 3.30085 0
M  V30 5761 C 539.193 -3.09643 3.99311 0
M  V30 5762 C 541.391 -2.87241 4.26611 0
M  V30 5763 N 539.373 -2.95174 5.3828 0
M  V30 5764 C 540.744 -2.81114 5.52607 0
M  V30 5765 C 542.799 -2.71856 4.17132 0
M  V30 5766 C 541.502 -2.61174 6.70209 0
M  V30 5767 C 543.528 -2.53284 5.34417 0
M  V30 5768 C 542.89 -2.4787 6.59348 0
M  V30 5769 H 538.989 -0.634078 0.457678 0
M  V30 5770 H 541.573 -1.14169 1.57713 0
M  V30 5771 H 539.744 -3.64958 1.32893 0
M  V30 5772 H 541.476 -3.73348 1.56183 0
M  V30 5773 H 538.231 -3.18498 3.50508 0
M  V30 5774 H 538.655 -2.91168 6.11188 0
M  V30 5775 H 543.297 -2.74821 3.21299 0
M  V30 5776 H 541.015 -2.56952 7.6616 0
M  V30 5777 H 544.601 -2.42317 5.28936 0
M  V30 5778 H 543.481 -2.33685 7.48573 0
M  V30 5779 N 540.985 -1.06182 -1.16461 0
M  V30 5780 C 542.401 -0.785065 -1.38956 0
M  V30 5781 C 542.601 0.616103 -1.9185 0
M  V30 5782 O 541.657 1.37686 -2.11657 0
M  V30 5783 C 542.97 -1.84902 -2.37132 0
M  V30 5784 C 544.518 -1.8724 -2.50819 0
M  V30 5785 C 544.993 -2.92686 -3.52277 0
M  V30 5786 N 546.484 -2.91712 -3.59803 0
M  V30 5787 C 547.219 -3.69949 -4.38093 0
M  V30 5788 N 546.715 -4.58 -5.19815 0
M  V30 5789 N 548.508 -3.58346 -4.33064 0
M  V30 5790 H 540.659 -1.96569 -0.804634 0
M  V30 5791 H 542.922 -0.851747 -0.416211 0
M  V30 5792 H 542.628 -2.85518 -2.0536 0
M  V30 5793 H 542.502 -1.69908 -3.36766 0
M  V30 5794 H 544.889 -0.872827 -2.81897 0
M  V30 5795 H 544.97 -2.06311 -1.51226 0
M  V30 5796 H 544.614 -3.92835 -3.21937 0
M  V30 5797 H 544.544 -2.70864 -4.51598 0
M  V30 5798 H 547.035 -2.27876 -3.01464 0
M  V30 5799 H 547.348 -5.14357 -5.76764 0
M  V30 5800 H 545.693 -4.62056 -5.19162 0
M  V30 5801 H 548.884 -2.88943 -3.68279 0
M  V30 5802 H 549.057 -4.19563 -4.93833 0
M  V30 5803 N 542.463 1.3308 -0.844243 0
M  V30 5804 C 543.712 1.96868 -0.438833 0
M  V30 5805 C 544.025 1.67599 1.00846 0
M  V30 5806 O 545.231 2.25043 1.51881 0
M  V30 5807 C 543.687 3.5234 -0.73377 0
M  V30 5808 C 543.295 3.90481 -2.1961 0
M  V30 5809 C 545.039 4.22653 -0.395574 0
M  V30 5810 C 542.946 5.38954 -2.43481 0
M  V30 5811 H 541.876 0.736749 -0.160364 0
M  V30 5812 H 544.527 1.51623 -1.03358 0
M  V30 5813 H 542.909 3.95941 -0.068589 0
M  V30 5814 H 544.083 3.57922 -2.90221 0
M  V30 5815 H 542.398 3.33165 -2.4978 0
M  V30 5816 H 544.995 5.31848 -0.551477 0
M  V30 5817 H 545.338 4.11004 0.661921 0
M  V30 5818 H 545.871 3.84601 -1.01621 0
M  V30 5819 H 542.61 5.55612 -3.47816 0
M  V30 5820 H 542.13 5.72954 -1.77437 0
M  V30 5821 H 543.809 6.05907 -2.26905 0
M  V30 5822 N 543.941 0.601185 1.45683 0
M  V30 5823 C 544.889 -0.133955 2.32214 0
M  V30 5824 C 545.883 -0.866034 1.45589 0
M  V30 5825 O 547.089 -0.782326 1.6211 0
M  V30 5826 H 543.464 -0.0620613 0.749435 0
M  V30 5827 H 545.435 0.614389 2.92007 0
M  V30 5828 C 544.184 -1.12216 3.29094 0
M  V30 5829 H 543.507 -0.568273 3.95741 0
M  V30 5830 H 544.947 -1.60659 3.92383 0
M  V30 5831 C 543.406 -2.19251 2.55794 0
M  V30 5832 O 543.936 -3.26894 2.33459 0
M  V30 5833 N 542.142 -1.9436 2.16039 0
M  V30 5834 H 541.689 -1.06829 2.34404 0
M  V30 5835 H 541.647 -2.66181 1.67318 0
M  V30 5836 N 545.419 -1.53889 0.339982 0
M  V30 5837 C 546.667 -2.00458 -0.257112 0
M  V30 5838 C 546.988 -1.22953 -1.51353 0
M  V30 5839 O 546.258 -0.335734 -1.93002 0
M  V30 5840 H 544.838 -0.740544 -0.0979965 0
M  V30 5841 H 547.5 -1.89386 0.460317 0
M  V30 5842 H 546.596 -3.08035 -0.502057 0
M  V30 5843 N 546.897 -0.0685191 -1.57451 0
M  V30 5844 C 548.146 0.600898 -1.92541 0
M  V30 5845 C 548.459 1.70967 -0.950239 0
M  V30 5846 O 549.665 2.43844 -1.19384 0
M  V30 5847 C 548.121 1.12019 -3.42023 0
M  V30 5848 C 547.729 0.0426028 -4.4798 0
M  V30 5849 C 549.473 1.76386 -3.86119 0
M  V30 5850 C 547.38 0.575759 -5.88591 0
M  V30 5851 H 546.31 0.228225 -0.71863 0
M  V30 5852 H 548.961 -0.140223 -1.82963 0
M  V30 5853 H 547.343 1.91418 -3.46663 0
M  V30 5854 H 548.517 -0.73182 -4.54952 0
M  V30 5855 H 546.832 -0.504642 -4.13331 0
M  V30 5856 H 549.429 2.17302 -4.88553 0
M  V30 5857 H 549.772 2.62255 -3.23308 0
M  V30 5858 H 550.305 1.03615 -3.84069 0
M  V30 5859 H 547.044 -0.245691 -6.55039 0
M  V30 5860 H 546.564 1.31778 -5.85145 0
M  V30 5861 H 548.243 1.0532 -6.3837 0
M  V30 5862 N 548.375 1.56261 0.205012 0
M  V30 5863 C 549.786 1.70056 0.770574 0
M  V30 5864 C 550.137 0.673398 1.84282 0
M  V30 5865 O 549.262 -0.172196 2.15714 0
M  V30 5866 C 549.857 3.08316 1.40451 0
M  V30 5867 C 548.416 3.2391 1.91727 0
M  V30 5868 C 547.563 2.66001 0.783516 0
M  V30 5869 H 550.514 1.58688 -0.019911 0
M  V30 5870 H 550.535 3.05094 2.27371 0
M  V30 5871 H 550.047 3.83053 0.623882 0
M  V30 5872 H 548.148 2.54072 2.7254 0
M  V30 5873 H 548.261 4.3131 2.08588 0
M  V30 5874 H 546.625 2.24915 1.19521 0
M  V30 5875 H 547.408 3.43297 0.0152883 0
M  V30 5876 N 549.853 -0.472356 1.50355 0
M  V30 5877 C 551.099 -1.22634 1.6152 0
M  V30 5878 C 551.432 -1.91645 0.313995 0
M  V30 5879 O 550.707 -1.82059 -0.684446 0
M  V30 5880 C 550.99 -2.27099 2.7946 0
M  V30 5881 C 550.843 -1.62402 4.19459 0
M  V30 5882 C 552.162 -3.28421 2.92964 0
M  V30 5883 H 549.281 -0.444494 0.587873 0
M  V30 5884 H 551.923 -0.520321 1.82737 0
M  V30 5885 H 550.073 -2.87314 2.61501 0
M  V30 5886 H 551.745 -1.05793 4.49005 0
M  V30 5887 H 549.988 -0.927184 4.23776 0
M  V30 5888 H 550.659 -2.38309 4.97909 0
M  V30 5889 H 553.135 -2.78227 3.09401 0
M  V30 5890 H 552.011 -3.98845 3.77113 0
M  V30 5891 H 552.272 -3.92467 2.03525 0
M  V30 5892 N 551.331 -1.39911 -0.725443 0
M  V30 5893 C 552.241 -1.41688 -1.8698 0
M  V30 5894 C 553.257 -0.310579 -1.71206 0
M  V30 5895 O 554.433 -0.55359 -1.93642 0
M  V30 5896 C 551.498 -1.26811 -3.22676 0
M  V30 5897 C 550.559 -2.47497 -3.50776 0
M  V30 5898 C 549.792 -2.3332 -4.79997 0
M  V30 5899 O 550.015 -1.34175 -5.54394 0
M  V30 5900 O 548.949 -3.22498 -5.08211 0
M  V30 5901 H 552.775 -2.38171 -1.88436 0
M  V30 5902 H 550.36 -1.21128 -0.874548 0
M  V30 5903 H 552.242 -1.20684 -4.03749 0
M  V30 5904 H 550.917 -0.334289 -3.21969 0
M  V30 5905 H 549.824 -2.59201 -2.69751 0
M  V30 5906 H 551.157 -3.39606 -3.5627 0
M  V30 5907 N 552.809 0.956637 -1.25245 0
M  V30 5908 C 553.719 2.0868 -1.0719 0
M  V30 5909 C 554.735 1.73997 -0.00959074 0
M  V30 5910 O 555.911 2.00301 -0.210104 0
M  V30 5911 C 552.976 3.39754 -0.690526 0
M  V30 5912 C 552.037 3.88316 -1.83055 0
M  V30 5913 C 551.27 5.13134 -1.46728 0
M  V30 5914 O 551.493 5.6925 -0.362029 0
M  V30 5915 O 550.427 5.56356 -2.29677 0
M  V30 5916 H 554.253 2.26813 -2.01965 0
M  V30 5917 H 551.838 1.07098 -1.04165 0
M  V30 5918 H 553.72 4.18543 -0.489871 0
M  V30 5919 H 552.395 3.22896 0.227981 0
M  V30 5920 H 551.302 3.1054 -2.08604 0
M  V30 5921 H 552.635 4.09669 -2.72822 0
M  V30 5922 N 554.287 1.06798 1.15896 0
M  V30 5923 C 555.217 0.704677 2.22613 0
M  V30 5924 C 556.198 -0.305252 1.67339 0
M  V30 5925 O 557.383 -0.179247 1.93371 0
M  V30 5926 C 554.513 0.0957325 3.47168 0
M  V30 5927 C 553.467 1.0322 4.15367 0
M  V30 5928 C 552.793 0.286293 5.33933 0
M  V30 5929 C 554.093 2.36341 4.65768 0
M  V30 5930 H 555.787 1.59688 2.53259 0
M  V30 5931 H 553.333 0.769257 1.21731 0
M  V30 5932 H 555.286 -0.170333 4.21056 0
M  V30 5933 H 554.01 -0.831516 3.15838 0
M  V30 5934 H 552.669 1.28309 3.43413 0
M  V30 5935 H 552.317 -0.644237 4.98857 0
M  V30 5936 H 552.017 0.910436 5.80504 0
M  V30 5937 H 553.541 0.0278938 6.10594 0
M  V30 5938 H 554.955 2.1561 5.31211 0
M  V30 5939 H 553.352 2.94299 5.2298 0
M  V30 5940 H 554.422 2.99047 3.81705 0
M  V30 5941 N 555.766 -1.3263 0.851289 0
M  V30 5942 C 556.729 -2.27247 0.298541 0
M  V30 5943 C 557.729 -1.51467 -0.539847 0
M  V30 5944 O 558.919 -1.7061 -0.351843 0
M  V30 5945 C 556.051 -3.35964 -0.578004 0
M  V30 5946 H 557.244 -2.7765 1.13359 0
M  V30 5947 H 554.797 -1.43245 0.625354 0
M  V30 5948 H 555.532 -2.90823 -1.435 0
M  V30 5949 H 555.317 -3.92094 0.0220539 0
M  V30 5950 H 556.807 -4.06472 -0.957626 0
M  V30 5951 N 557.244 -0.608902 -1.45362 0
M  V30 5952 C 558.191 0.109172 -2.30542 0
M  V30 5953 C 559.161 0.858704 -1.42181 0
M  V30 5954 O 560.346 0.844178 -1.71109 0
M  V30 5955 C 557.486 1.09971 -3.27109 0
M  V30 5956 C 556.599 0.350911 -4.30572 0
M  V30 5957 C 555.734 1.33129 -5.14247 0
M  V30 5958 C 554.773 0.570377 -6.09437 0
M  V30 5959 N 553.91 1.5001 -6.85887 0
M  V30 5960 H 558.75 -0.623195 -2.91411 0
M  V30 5961 H 556.287 -0.319122 -1.43597 0
M  V30 5962 H 558.245 1.68714 -3.81564 0
M  V30 5963 H 556.875 1.79947 -2.67991 0
M  V30 5964 H 555.927 -0.352054 -3.78767 0
M  V30 5965 H 557.239 -0.242725 -4.98209 0
M  V30 5966 H 556.393 1.99074 -5.73109 0
M  V30 5967 H 555.132 1.95885 -4.46632 0
M  V30 5968 H 554.137 -0.102702 -5.49704 0
M  V30 5969 H 555.362 -0.0521607 -6.7908 0
M  V30 5970 H 553.308 2.11529 -6.2096 0
M  V30 5971 H 553.225 0.959934 -7.49881 0
M  V30 5972 H 554.493 2.14909 -7.49289 0
M  V30 5973 N 558.722 1.53707 -0.348139 0
M  V30 5974 C 559.999 1.93247 0.302475 0
M  V30 5975 C 560.379 1.28012 1.67857 0
M  V30 5976 O 559.727 0.43274 2.24365 0
M  V30 5977 C 559.937 3.47031 0.370159 0
M  V30 5978 C 561.285 4.20066 0.61882 0
M  V30 5979 O 562.309 3.53319 0.452087 0
M  V30 5980 O 561.168 5.38318 0.94215 0
M  V30 5981 H 558.262 0.807736 0.177458 0
M  V30 5982 H 560.808 1.64927 -0.399651 0
M  V30 5983 H 559.58 3.86745 -0.59534 0
M  V30 5984 H 559.203 3.81532 1.11888 0
M  V30 5985 N 560.2 0.0768682 1.57412 0
M  V30 5986 C 561.132 -0.918248 2.10002 0
M  V30 5987 C 562.145 -1.25808 1.03325 0
M  V30 5988 O 563.334 -1.21438 1.30824 0
M  V30 5989 C 560.434 -2.23263 2.54964 0
M  V30 5990 C 559.607 -2.07088 3.8527 0
M  V30 5991 C 558.666 -3.21876 4.16272 0
M  V30 5992 O 557.692 -2.96643 4.8579 0
M  V30 5993 N 558.894 -4.4712 3.70221 0
M  V30 5994 H 561.659 -0.469209 2.96004 0
M  V30 5995 H 559.22 -0.108725 1.61535 0
M  V30 5996 H 561.212 -2.9897 2.72762 0
M  V30 5997 H 559.782 -2.59649 1.74072 0
M  V30 5998 H 559.002 -1.15818 3.76802 0
M  V30 5999 H 560.29 -1.93537 4.70554 0
M  V30 6000 H 559.688 -4.70506 3.1407 0
M  V30 6001 H 558.245 -5.19837 3.93209 0
M  V30 6002 N 561.678 -1.56367 -0.196722 0
M  V30 6003 C 562.625 -1.94417 -1.24382 0
M  V30 6004 C 563.595 -0.804543 -1.45315 0
M  V30 6005 O 564.78 -1.06256 -1.58475 0
M  V30 6006 C 561.92 -2.28757 -2.58388 0
M  V30 6007 C 561.033 -3.55775 -2.45047 0
M  V30 6008 C 560.168 -3.79445 -3.71746 0
M  V30 6009 C 559.207 -4.99894 -3.53231 0
M  V30 6010 N 558.344 -5.19826 -4.71938 0
M  V30 6011 H 563.184 -2.83691 -0.912338 0
M  V30 6012 H 560.721 -1.40392 -0.439135 0
M  V30 6013 H 562.679 -2.46682 -3.36457 0
M  V30 6014 H 561.309 -1.42625 -2.89582 0
M  V30 6015 H 560.361 -3.45905 -1.58284 0
M  V30 6016 H 561.673 -4.44 -2.27299 0
M  V30 6017 H 560.827 -3.97601 -4.58256 0
M  V30 6018 H 559.566 -2.89546 -3.92446 0
M  V30 6019 H 558.571 -4.81662 -2.65107 0
M  V30 6020 H 559.796 -5.913 -3.33978 0
M  V30 6021 H 557.742 -4.32875 -4.92905 0
M  V30 6022 H 557.659 -6.02228 -4.57009 0
M  V30 6023 H 558.927 -5.42439 -5.59803 0
M  V30 6024 N 563.156 0.464375 -1.50603 0
M  V30 6025 C 564.386 1.23727 -1.65454 0
M  V30 6026 C 564.794 1.86119 -0.340032 0
M  V30 6027 O 564.137 1.70301 0.688706 0
M  V30 6028 C 564.199 2.38153 -2.69301 0
M  V30 6029 C 563.863 1.96345 -4.12671 0
M  V30 6030 C 564.86 1.48215 -4.98326 0
M  V30 6031 C 562.545 2.04861 -4.58625 0
M  V30 6032 C 564.539 1.09152 -6.27985 0
M  V30 6033 C 562.226 1.65409 -5.88288 0
M  V30 6034 C 563.224 1.17634 -6.72794 0
M  V30 6035 O 562.912 0.787312 -8.00035 0
M  V30 6036 H 562.644 0.380075 -0.559034 0
M  V30 6037 H 565.198 0.559919 -1.97621 0
M  V30 6038 H 563.428 3.09081 -2.32392 0
M  V30 6039 H 565.117 3.00099 -2.73304 0
M  V30 6040 H 565.883 1.41052 -4.64036 0
M  V30 6041 H 561.762 2.40996 -3.92991 0
M  V30 6042 H 565.306 0.717909 -6.93896 0
M  V30 6043 H 561.203 1.72233 -6.22098 0
M  V30 6044 H 561.971 0.915567 -8.13363 0
M  V30 6045 N 564.634 1.40294 0.718013 0
M  V30 6046 C 566.05 1.2227 1.02577 0
M  V30 6047 C 566.25 0.0961976 2.0127 0
M  V30 6048 O 565.306 -0.546695 2.46511 0
M  V30 6049 C 566.619 2.56348 1.57182 0
M  V30 6050 C 568.167 2.6334 1.69178 0
M  V30 6051 C 568.642 3.9768 2.27188 0
M  V30 6052 N 570.133 3.99409 2.34578 0
M  V30 6053 C 570.868 5.00141 2.8044 0
M  V30 6054 N 570.364 6.11268 3.26073 0
M  V30 6055 N 572.157 4.87511 2.79802 0
M  V30 6056 H 564.308 2.12304 0.0637899 0
M  V30 6057 H 566.571 0.943632 0.0909036 0
M  V30 6058 H 566.277 3.3942 0.921262 0
M  V30 6059 H 566.151 2.77266 2.55741 0
M  V30 6060 H 568.538 1.80641 2.33351 0
M  V30 6061 H 568.619 2.46255 0.692247 0
M  V30 6062 H 568.263 4.80817 1.63638 0
M  V30 6063 H 568.193 4.12093 3.27852 0
M  V30 6064 H 570.684 3.19162 2.02346 0
M  V30 6065 H 570.997 6.84023 3.59628 0
M  V30 6066 H 569.342 6.14837 3.24038 0
M  V30 6067 H 572.533 3.9979 2.43487 0
M  V30 6068 H 572.706 5.66158 3.15228 0
M  V30 6069 N 566.112 -0.949982 1.2575 0
M  V30 6070 C 567.361 -1.68956 1.10168 0
M  V30 6071 C 567.674 -1.92327 -0.356309 0
M  V30 6072 O 568.88 -2.64026 -0.632657 0
M  V30 6073 C 567.336 -3.04196 1.92336 0
M  V30 6074 C 566.944 -2.88603 3.42655 0
M  V30 6075 C 568.688 -3.81904 1.85336 0
M  V30 6076 C 566.595 -4.19262 4.17101 0
M  V30 6077 H 565.525 -0.633645 0.408668 0
M  V30 6078 H 568.176 -1.05719 1.49986 0
M  V30 6079 H 566.558 -3.68363 1.45344 0
M  V30 6080 H 567.732 -2.3334 3.97353 0
M  V30 6081 H 566.047 -2.24345 3.50796 0
M  V30 6082 H 568.644 -4.78688 2.38248 0
M  V30 6083 H 568.987 -4.08099 0.822226 0
M  V30 6084 H 569.52 -3.24495 2.30104 0
M  V30 6085 H 566.259 -3.98254 5.20648 0
M  V30 6086 H 565.779 -4.74273 3.67186 0
M  V30 6087 H 567.458 -4.87775 4.25071 0
M  V30 6088 N 567.59 -1.07411 -1.15328 0
M  V30 6089 C 568.522 -0.652924 -2.19703 0
M  V30 6090 C 569.535 0.294869 -1.60107 0
M  V30 6091 O 570.724 0.0840932 -1.78302 0
M  V30 6092 C 567.824 0.061434 -3.38844 0
M  V30 6093 C 566.997 -0.902696 -4.27984 0
M  V30 6094 C 566.056 -0.225521 -5.25717 0
M  V30 6095 O 565.082 -0.86676 -5.62562 0
M  V30 6096 N 566.284 1.02858 -5.71315 0
M  V30 6097 H 569.049 -1.55081 -2.56457 0
M  V30 6098 H 566.61 -0.958883 -1.30449 0
M  V30 6099 H 568.602 0.525145 -4.01278 0
M  V30 6100 H 567.172 0.861269 -3.00501 0
M  V30 6101 H 566.392 -1.54551 -3.6264 0
M  V30 6102 H 567.68 -1.55636 -4.84412 0
M  V30 6103 H 567.078 1.56948 -5.43492 0
M  V30 6104 H 565.635 1.43596 -6.35786 0
M  V30 6105 N 569.068 1.32177 -0.85831 0
M  V30 6106 C 570.484 1.49873 -0.548656 0
M  V30 6107 C 570.684 1.79278 0.919874 0
M  V30 6108 O 569.74 1.86451 1.70271 0
M  V30 6109 C 571.053 2.64043 -1.4388 0
M  V30 6110 C 572.601 2.77928 -1.43961 0
M  V30 6111 C 573.076 3.95182 -2.31506 0
M  V30 6112 N 574.567 4.0245 -2.29321 0
M  V30 6113 C 575.302 4.9242 -2.93786 0
M  V30 6114 N 574.798 5.87373 -3.67376 0
M  V30 6115 N 576.591 4.85572 -2.83155 0
M  V30 6116 H 568.742 1.11357 -1.80868 0
M  V30 6117 H 571.005 0.549175 -0.772729 0
M  V30 6118 H 570.711 2.49055 -2.48324 0
M  V30 6119 H 570.585 3.59912 -1.12885 0
M  V30 6120 H 572.972 2.92338 -0.402813 0
M  V30 6121 H 573.053 1.82762 -1.78974 0
M  V30 6122 H 572.697 3.81531 -3.35256 0
M  V30 6123 H 572.627 4.89633 -1.93823 0
M  V30 6124 H 575.118 3.34507 -1.75822 0
M  V30 6125 H 575.431 6.52728 -4.13722 0
M  V30 6126 H 573.776 5.87388 -3.71484 0
M  V30 6127 H 576.967 4.10363 -2.25211 0
M  V30 6128 H 577.14 5.55486 -3.33676 0
M  V30 6129 N 570.547 0.616602 1.45037 0
M  V30 6130 C 571.795 0.115103 2.01772 0
M  V30 6131 C 572.116 -1.2622 1.48639 0
M  V30 6132 O 571.386 -1.83563 0.684199 0
M  V30 6133 H 569.966 0.0395607 0.745952 0
M  V30 6134 H 572.628 0.800032 1.77723 0
M  V30 6135 H 571.724 0.0717274 3.12018 0
M  V30 6136 N 572.025 -1.5352 0.356285 0
M  V30 6137 C 572.988 -2.24071 -0.482182 0
M  V30 6138 C 573.988 -1.24531 -1.01729 0
M  V30 6139 O 575.178 -1.48876 -0.904513 0
M  V30 6140 C 572.31 -2.97025 -1.67299 0
M  V30 6141 H 573.503 -2.99596 0.135031 0
M  V30 6142 H 571.056 -1.55928 0.107825 0
M  V30 6143 H 571.791 -2.25719 -2.32855 0
M  V30 6144 H 571.576 -3.7005 -1.29636 0
M  V30 6145 H 573.066 -3.50683 -2.26741 0
M  V30 6146 N 573.503 -0.0852151 -1.57369 0
M  V30 6147 C 574.433 0.874556 -2.16503 0
M  V30 6148 C 575.414 1.30111 -1.09568 0
M  V30 6149 O 576.599 1.36977 -1.37662 0
M  V30 6150 C 573.729 2.13731 -2.73745 0
M  V30 6151 C 572.683 1.84971 -3.85966 0
M  V30 6152 C 572.009 3.17991 -4.29867 0
M  V30 6153 C 573.309 1.14442 -5.09608 0
M  V30 6154 H 575.003 0.381899 -2.96954 0
M  V30 6155 H 572.549 0.18225 -1.42842 0
M  V30 6156 H 574.502 2.81302 -3.13763 0
M  V30 6157 H 573.226 2.65263 -1.90534 0
M  V30 6158 H 571.885 1.19801 -3.46473 0
M  V30 6159 H 571.533 3.6739 -3.4356 0
M  V30 6160 H 571.233 2.99534 -5.05523 0
M  V30 6161 H 572.757 3.86737 -4.72511 0
M  V30 6162 H 574.171 1.72105 -5.46857 0
M  V30 6163 H 572.568 1.06197 -5.90629 0
M  V30 6164 H 573.638 0.12559 -4.84737 0
M  V30 6165 N 574.981 1.5647 0.188427 0
M  V30 6166 C 576.23 1.80207 0.905995 0
M  V30 6167 C 576.543 0.659579 1.84144 0
M  V30 6168 O 577.749 0.781431 2.60011 0
M  V30 6169 C 576.205 3.19255 1.66145 0
M  V30 6170 C 575.813 4.41324 0.770504 0
M  V30 6171 C 577.557 3.52298 2.36826 0
M  V30 6172 C 575.464 5.71394 1.52521 0
M  V30 6173 H 574.394 0.671953 0.342045 0
M  V30 6174 H 577.045 1.82808 0.159164 0
M  V30 6175 H 575.427 3.10922 2.45242 0
M  V30 6176 H 576.601 4.60797 0.0177261 0
M  V30 6177 H 574.916 4.16035 0.174199 0
M  V30 6178 H 577.513 4.46715 2.93854 0
M  V30 6179 H 577.856 2.76359 3.11338 0
M  V30 6180 H 578.389 3.62108 1.6469 0
M  V30 6181 H 575.128 6.50316 0.82275 0
M  V30 6182 H 574.648 5.55928 2.25175 0
M  V30 6183 H 576.327 6.12747 2.07725 0
M  V30 6184 N 576.459 -0.456382 1.50847 0
M  V30 6185 C 577.389 -1.56025 1.73719 0
M  V30 6186 C 578.37 -1.5967 0.586473 0
M  V30 6187 O 579.555 -1.75702 0.827185 0
M  V30 6188 C 576.685 -2.94251 1.84483 0
M  V30 6189 C 575.639 -3.05471 2.99786 0
M  V30 6190 C 574.965 -4.45489 2.95709 0
M  V30 6191 C 576.265 -2.81318 4.40065 0
M  V30 6192 H 577.959 -1.37138 2.66146 0
M  V30 6193 H 575.505 -0.658299 1.28072 0
M  V30 6194 H 577.458 -3.71417 1.99067 0
M  V30 6195 H 576.182 -3.14328 0.886891 0
M  V30 6196 H 574.841 -2.30741 2.84876 0
M  V30 6197 H 574.489 -4.62505 1.97732 0
M  V30 6198 H 574.189 -4.53929 3.73125 0
M  V30 6199 H 575.713 -5.24655 3.12362 0
M  V30 6200 H 577.127 -3.48226 4.55425 0
M  V30 6201 H 575.524 -3.01188 5.19043 0
M  V30 6202 H 576.594 -1.7706 4.51418 0
M  V30 6203 N 577.937 -1.40673 -0.710563 0
M  V30 6204 C 579.162 -1.42741 -1.50465 0
M  V30 6205 C 579.587 -0.0302116 -1.88076 0
M  V30 6206 O 578.945 0.962945 -1.53613 0
M  V30 6207 C 578.993 -2.32873 -2.75322 0
M  V30 6208 O 578.097 -1.77544 -3.72226 0
M  V30 6209 H 577.438 -0.485056 -0.45345 0
M  V30 6210 H 579.968 -1.84961 -0.874681 0
M  V30 6211 H 579.978 -2.48233 -3.23797 0
M  V30 6212 H 578.653 -3.34401 -2.47283 0
M  V30 6213 H 577.23 -1.71556 -3.31093 0
M  V30 6214 N 579.415 0.9433 -1.26252 0
M  V30 6215 C 580.363 2.06302 -1.07434 0
M  V30 6216 C 581.357 1.694 -0.00189471 0
M  V30 6217 O 582.563 1.79302 -0.158408 0
M  V30 6218 H 578.938 0.675453 -0.330556 0
M  V30 6219 H 580.909 2.19326 -2.02333 0
M  V30 6220 C 579.658 3.40125 -0.721817 0
M  V30 6221 H 578.981 3.68996 -1.5389 0
M  V30 6222 H 580.421 4.19295 -0.629922 0
M  V30 6223 C 578.88 3.31993 0.572902 0
M  V30 6224 O 579.41 3.67945 1.61182 0
M  V30 6225 N 577.616 2.85099 0.562748 0
M  V30 6226 H 577.163 2.5604 -0.283092 0
M  V30 6227 H 577.121 2.80041 1.42915 0
M  V30 6228 N 580.893 1.08022 1.14757 0
M  V30 6229 C 582.139 0.808705 1.85978 0
M  V30 6230 C 582.472 -0.663764 1.82504 0
M  V30 6231 O 581.747 -1.48765 1.25296 0
M  V30 6232 C 582.03 1.32623 3.34788 0
M  V30 6233 C 581.883 2.86375 3.46856 0
M  V30 6234 C 583.202 0.948291 4.29762 0
M  V30 6235 H 580.321 0.295244 0.675278 0
M  V30 6236 H 582.963 1.33917 1.34783 0
M  V30 6237 H 581.113 0.875002 3.78518 0
M  V30 6238 H 582.785 3.39839 3.11941 0
M  V30 6239 H 581.028 3.24232 2.88194 0
M  V30 6240 H 581.699 3.17658 4.51439 0
M  V30 6241 H 584.175 1.33722 3.94028 0
M  V30 6242 H 583.051 1.33765 5.32352 0
M  V30 6243 H 583.312 -0.145094 4.41862 0
M  V30 6244 N 582.371 -1.3172 0.865308 0
M  V30 6245 C 583.303 -2.27545 0.274906 0
M  V30 6246 C 584.316 -1.52887 -0.559413 0
M  V30 6247 O 585.505 -1.74361 -0.382166 0
M  V30 6248 C 582.605 -3.33006 -0.629286 0
M  V30 6249 C 581.778 -4.37063 0.171553 0
M  V30 6250 C 580.837 -5.22044 -0.660052 0
M  V30 6251 O 579.863 -5.69129 -0.0897527 0
M  V30 6252 N 581.065 -5.45946 -1.97289 0
M  V30 6253 H 583.83 -2.78848 1.09836 0
M  V30 6254 H 581.391 -1.44693 0.726331 0
M  V30 6255 H 583.383 -3.86772 -1.19121 0
M  V30 6256 H 581.953 -2.81782 -1.35342 0
M  V30 6257 H 581.173 -3.83436 0.914919 0
M  V30 6258 H 582.461 -5.03662 0.721235 0
M  V30 6259 H 581.859 -5.0944 -2.45942 0
M  V30 6260 H 580.416 -6.02665 -2.4827 0
M  V30 6261 N 583.85 -0.624285 -1.44708 0
M  V30 6262 C 585.26 -0.2092 -1.85524 0
M  V30 6263 C 585.611 1.23783 -1.52225 0
M  V30 6264 O 584.736 1.94089 -0.956986 0
M  V30 6265 C 585.332 -0.372897 -3.36742 0
M  V30 6266 C 583.891 -0.012374 -3.76398 0
M  V30 6267 C 583.038 -0.68951 -2.68591 0
M  V30 6268 H 585.989 -0.829894 -1.35272 0
M  V30 6269 H 586.01 0.390134 -3.78495 0
M  V30 6270 H 585.522 -1.42615 -3.60947 0
M  V30 6271 H 583.623 1.03941 -3.57809 0
M  V30 6272 H 583.736 -0.417663 -4.77276 0
M  V30 6273 H 582.1 -0.125484 -2.54391 0
M  V30 6274 H 582.883 -1.74522 -2.9563 0
M  V30 6275 N 585.328 1.53329 -0.364422 0
M  V30 6276 C 586.553 2.06132 0.229033 0
M  V30 6277 C 586.978 1.23625 1.41769 0
M  V30 6278 O 586.336 0.255038 1.79497 0
M  V30 6279 C 586.384 3.55544 0.60174 0
M  V30 6280 O 585.488 3.75771 1.69912 0
M  V30 6281 H 584.829 0.663148 0.0336213 0
M  V30 6282 H 587.359 1.97758 -0.524689 0
M  V30 6283 H 587.369 3.98549 0.873073 0
M  V30 6284 H 586.044 4.15039 -0.267421 0
M  V30 6285 H 584.621 3.44663 1.42343 0
M  V30 6286 N 586.806 0.0935595 1.57322 0
M  V30 6287 C 588.083 -0.612692 1.85756 0
M  V30 6288 C 588.463 -1.86439 0.99013 0
M  V30 6289 O 587.811 -2.28416 0.0621362 0
M  V30 6290 C 588.021 -0.929547 3.36393 0
M  V30 6291 C 589.369 -1.29366 4.04413 0
M  V30 6292 O 590.393 -1.02061 3.41265 0
M  V30 6293 O 589.252 -1.80498 5.15832 0
M  V30 6294 H 586.346 -0.306444 0.768128 0
M  V30 6295 H 588.892 0.126141 1.69231 0
M  V30 6296 H 587.664 -0.0414766 3.91278 0
M  V30 6297 H 587.287 -1.72441 3.5826 0
M  V30 6298 N 588.284 -1.56567 -0.180126 0
M  V30 6299 C 589.512 -1.85618 -0.913972 0
M  V30 6300 C 589.927 -0.677892 -1.7621 0
M  V30 6301 O 589.284 0.353171 -1.7905 0
M  V30 6302 C 589.335 -3.13619 -1.79793 0
M  V30 6303 O 589.056 -4.26906 -0.98402 0
M  V30 6304 C 590.557 -3.55954 -2.64219 0
M  V30 6305 H 587.777 -0.616043 -0.265954 0
M  V30 6306 H 590.321 -2.03681 -0.182872 0
M  V30 6307 H 588.476 -2.97409 -2.48247 0
M  V30 6308 H 588.89 -4.9989 -1.58776 0
M  V30 6309 H 590.364 -4.48444 -3.21873 0
M  V30 6310 H 590.841 -2.79653 -3.38661 0
M  V30 6311 H 591.447 -3.74746 -2.01111 0
M  V30 6312 N 589.762 0.448376 -1.51087 0
M  V30 6313 C 590.695 1.56298 -1.66272 0
M  V30 6314 C 591.673 1.54381 -0.510419 0
M  V30 6315 O 592.857 1.73671 -0.732854 0
M  V30 6316 C 589.984 2.94883 -1.66618 0
M  V30 6317 C 589.03 3.14868 -2.87681 0
M  V30 6318 S 589.863 2.9234 -4.48662 0
M  V30 6319 C 591.019 4.33227 -4.51735 0
M  V30 6320 H 591.252 1.43182 -2.6055 0
M  V30 6321 H 588.785 0.637309 -1.40633 0
M  V30 6322 H 590.743 3.74771 -1.67502 0
M  V30 6323 H 589.404 3.05371 -0.735358 0
M  V30 6324 H 588.597 4.16166 -2.84292 0
M  V30 6325 H 588.199 2.42788 -2.84482 0
M  V30 6326 H 590.491 5.26247 -4.26697 0
M  V30 6327 H 591.434 4.41653 -5.53487 0
M  V30 6328 H 591.842 4.16367 -3.81181 0
M  V30 6329 N 591.24 1.41047 0.703093 0
M  V30 6330 C 592.486 1.40207 1.46526 0
M  V30 6331 C 592.819 0.00847763 1.94198 0
M  V30 6332 O 592.094 -0.962437 1.69019 0
M  V30 6333 C 592.377 2.40238 2.6825 0
M  V30 6334 C 592.23 3.88674 2.26391 0
M  V30 6335 C 593.549 2.37627 3.70434 0
M  V30 6336 H 590.668 0.510594 0.531472 0
M  V30 6337 H 593.31 1.72271 0.801422 0
M  V30 6338 H 591.46 2.13026 3.24888 0
M  V30 6339 H 593.132 4.2676 1.75138 0
M  V30 6340 H 591.375 4.03903 1.58255 0
M  V30 6341 H 592.046 4.542 3.13698 0
M  V30 6342 H 594.522 2.61759 3.23452 0
M  V30 6343 H 593.398 3.09645 4.53223 0
M  V30 6344 H 593.659 1.39223 4.19606 0
M  V30 6345 N 592.718 -0.936591 1.26751 0
M  V30 6346 C 593.946 -1.71758 1.15355 0
M  V30 6347 C 594.361 -1.86549 -0.290683 0
M  V30 6348 O 593.718 -1.37616 -1.19868 0
M  V30 6349 C 593.769 -3.12193 1.82258 0
M  V30 6350 O 593.49 -2.98105 3.21038 0
M  V30 6351 C 594.991 -4.06485 1.76875 0
M  V30 6352 H 592.211 -0.537636 0.401483 0
M  V30 6353 H 594.755 -1.17382 1.67457 0
M  V30 6354 H 592.91 -3.63456 1.34083 0
M  V30 6355 H 593.324 -3.86824 3.54214 0
M  V30 6356 H 594.798 -5.02569 2.28316 0
M  V30 6357 H 595.275 -4.32986 0.736216 0
M  V30 6358 H 595.881 -3.61144 2.24623 0
M  V30 6359 N 594.196 -1.08629 -1.14182 0
M  V30 6360 C 595.128 -0.676189 -2.18998 0
M  V30 6361 C 596.141 0.277871 -1.60411 0
M  V30 6362 O 597.33 0.0651771 -1.78381 0
M  V30 6363 C 594.43 0.0254916 -3.3889 0
M  V30 6364 C 593.603 -0.948039 -4.27002 0
M  V30 6365 C 592.662 -0.281268 -5.25448 0
M  V30 6366 O 591.688 -0.926378 -5.61611 0
M  V30 6367 N 592.89 0.967923 -5.72374 0
M  V30 6368 H 595.655 -1.57792 -2.54798 0
M  V30 6369 H 593.216 -0.972665 -1.29425 0
M  V30 6370 H 595.208 0.482554 -4.01813 0
M  V30 6371 H 593.778 0.829348 -3.01398 0
M  V30 6372 H 592.998 -1.58388 -3.6098 0
M  V30 6373 H 594.286 -1.60765 -4.82734 0
M  V30 6374 H 593.684 1.51175 -5.45126 0
M  V30 6375 H 592.241 1.36844 -6.37273 0
M  V30 6376 N 595.674 1.31259 -0.872281 0
M  V30 6377 C 596.914 1.98418 -0.490894 0
M  V30 6378 C 597.278 1.67429 0.939755 0
M  V30 6379 O 598.479 2.27818 1.42661 0
M  V30 6380 C 596.75 3.49583 -0.743408 0
M  V30 6381 S 598.309 4.36359 -0.462226 0
M  V30 6382 H 595.127 0.687005 -0.183151 0
M  V30 6383 H 597.729 1.59619 -1.12881 0
M  V30 6384 H 596.433 3.69627 -1.78338 0
M  V30 6385 H 595.964 3.93291 -0.0925758 0
M  V30 6386 H 597.979 4.91173 0.704525 0
M  V30 6387 N 597.152 0.631951 1.44375 0
M  V30 6388 C 598.062 -0.073674 2.34484 0
M  V30 6389 C 599.078 -0.834825 1.52665 0
M  V30 6390 O 600.254 -0.786902 1.85391 0
M  V30 6391 C 597.319 -1.04247 3.30656 0
M  V30 6392 C 596.38 -0.280602 4.28382 0
M  V30 6393 C 595.613 -1.20325 5.19959 0
M  V30 6394 O 595.836 -2.44199 5.15484 0
M  V30 6395 O 594.77 -0.687128 5.97965 0
M  V30 6396 H 598.596 0.667477 2.96274 0
M  V30 6397 H 596.181 0.392144 1.44162 0
M  V30 6398 H 598.063 -1.59981 3.89851 0
M  V30 6399 H 596.738 -1.76422 2.71398 0
M  V30 6400 H 595.645 0.319804 3.72731 0
M  V30 6401 H 596.978 0.401144 4.90563 0
M  V30 6402 N 598.631 -1.53133 0.372548 0
M  V30 6403 C 599.594 -2.24569 -0.458389 0
M  V30 6404 C 600.594 -1.25603 -1.00402 0
M  V30 6405 O 601.784 -1.49827 -0.888672 0
M  V30 6406 C 598.916 -2.98783 -1.6414 0
M  V30 6407 H 600.109 -2.99436 0.166799 0
M  V30 6408 H 597.662 -1.55805 0.124357 0
M  V30 6409 H 598.397 -2.28176 -2.30448 0
M  V30 6410 H 598.182 -3.71404 -1.25704 0
M  V30 6411 H 599.672 -3.53068 -2.23008 0
M  V30 6412 N 600.109 -0.101901 -1.5727 0
M  V30 6413 C 601.525 0.254739 -1.57554 0
M  V30 6414 C 601.725 1.67937 -1.11352 0
M  V30 6415 O 600.781 2.39722 -0.793081 0
M  V30 6416 C 602.094 0.036975 -3.00677 0
M  V30 6417 C 603.642 0.104199 -3.12827 0
M  V30 6418 C 604.117 -0.0856565 -4.5792 0
M  V30 6419 N 605.608 -0.0310498 -4.6319 0
M  V30 6420 C 606.343 -0.153099 -5.73196 0
M  V30 6421 N 605.839 -0.330364 -6.92012 0
M  V30 6422 N 607.632 -0.0938854 -5.62022 0
M  V30 6423 H 599.783 -1.03263 -1.85609 0
M  V30 6424 H 602.046 -0.405251 -0.857016 0
M  V30 6425 H 601.752 -0.947254 -3.38703 0
M  V30 6426 H 601.626 0.776335 -3.69124 0
M  V30 6427 H 604.013 1.07894 -2.74669 0
M  V30 6428 H 604.094 -0.666762 -2.46957 0
M  V30 6429 H 603.738 -1.05729 -4.96773 0
M  V30 6430 H 603.668 0.705082 -5.21858 0
M  V30 6431 H 606.159 0.103141 -3.77759 0
M  V30 6432 H 606.472 -0.41482 -7.71686 0
M  V30 6433 H 604.817 -0.366119 -6.94035 0
M  V30 6434 H 608.008 0.0435168 -4.6808 0
M  V30 6435 H 608.181 -0.19245 -6.47714 0
M  V30 6436 N 601.587 1.56661 0.17182 0
M  V30 6437 C 602.535 1.97289 1.23207 0
M  V30 6438 C 603.529 0.861566 1.45854 0
M  V30 6439 O 604.735 1.04668 1.4644 0
M  V30 6440 H 601.11 0.627681 0.41415 0
M  V30 6441 H 603.081 2.85662 0.862542 0
M  V30 6442 C 601.83 2.34849 2.564 0
M  V30 6443 H 601.153 3.19903 2.39797 0
M  V30 6444 H 602.593 2.67121 3.29276 0
M  V30 6445 C 601.052 1.19172 3.15119 0
M  V30 6446 O 601.582 0.479113 3.98833 0
M  V30 6447 N 599.788 0.962415 2.74201 0
M  V30 6448 H 599.335 1.54365 2.06226 0
M  V30 6449 H 599.293 0.190272 3.13824 0
M  V30 6450 N 603.065 -0.440357 1.51323 0
M  V30 6451 C 604.481 -0.7766 1.39431 0
M  V30 6452 C 604.681 -1.95838 0.474296 0
M  V30 6453 O 603.737 -2.52398 -0.0716692 0
M  V30 6454 C 605.05 -1.05981 2.81405 0
M  V30 6455 C 606.598 -1.16442 2.90534 0
M  V30 6456 C 607.073 -1.48058 4.33408 0
M  V30 6457 N 608.564 -1.54988 4.36501 0
M  V30 6458 C 609.299 -1.81017 5.44078 0
M  V30 6459 N 608.795 -2.04858 6.61819 0
M  V30 6460 N 610.588 -1.82774 5.31554 0
M  V30 6461 H 602.739 0.338006 2.09693 0
M  V30 6462 H 605.002 0.0888072 0.943831 0
M  V30 6463 H 604.708 -0.264173 3.50706 0
M  V30 6464 H 604.582 -1.98822 3.20546 0
M  V30 6465 H 606.969 -1.95068 2.21432 0
M  V30 6466 H 607.05 -0.215088 2.54894 0
M  V30 6467 H 606.694 -0.699605 5.03059 0
M  V30 6468 H 606.624 -2.44192 4.66559 0
M  V30 6469 H 609.115 -1.38479 3.51613 0
M  V30 6470 H 609.428 -2.2408 7.396 0
M  V30 6471 H 607.773 -2.02187 6.6494 0
M  V30 6472 H 610.964 -1.63665 4.38556 0
M  V30 6473 H 611.137 -2.02722 6.15474 0
M  V30 6474 N 604.543 -1.41418 -0.695603 0
M  V30 6475 C 605.493 -1.39731 -1.80165 0
M  V30 6476 C 606.477 -0.271689 -1.5859 0
M  V30 6477 O 607.669 -0.512354 -1.69422 0
M  V30 6478 C 604.798 -1.28187 -3.1847 0
M  V30 6479 C 603.884 -2.45612 -3.45739 0
M  V30 6480 N 604.275 -3.71077 -3.43708 0
M  V30 6481 C 602.573 -2.39424 -3.76288 0
M  V30 6482 C 603.274 -4.48957 -3.69882 0
M  V30 6483 N 602.25 -3.7907 -3.89624 0
M  V30 6484 H 606.052 -2.34656 -1.76957 0
M  V30 6485 H 603.566 -1.35473 -0.89559 0
M  V30 6486 H 605.563 -1.2506 -3.977 0
M  V30 6487 H 604.223 -0.342468 -3.22889 0
M  V30 6488 H 605.234 -4.03963 -3.2409 0
M  V30 6489 H 601.911 -1.53955 -3.88077 0
M  V30 6490 H 603.301 -5.57887 -3.74448 0
M  V30 6491 N 606.021 0.929856 -1.27246 0
M  V30 6492 C 607.269 1.674 -1.13233 0
M  V30 6493 C 607.59 1.92311 0.322744 0
M  V30 6494 O 606.86 1.52784 1.22612 0
M  V30 6495 H 605.44 0.620411 -0.416052 0
M  V30 6496 H 608.102 1.11663 -1.59741 0
M  V30 6497 H 607.198 2.64308 -1.65975 0
M  V30 6498 N 607.499 1.09233 1.13605 0
M  V30 6499 C 608.429 0.751738 2.21068 0
M  V30 6500 C 609.41 -0.269688 1.67948 0
M  V30 6501 O 610.595 -0.13819 1.93708 0
M  V30 6502 C 607.725 0.16935 3.46887 0
M  V30 6503 C 606.679 1.12007 4.13084 0
M  V30 6504 C 606.005 0.399483 5.33206 0
M  V30 6505 C 607.305 2.46168 4.6065 0
M  V30 6506 H 608.999 1.65024 2.49815 0
M  V30 6507 H 606.545 0.794905 1.20072 0
M  V30 6508 H 608.498 -0.0809824 4.21322 0
M  V30 6509 H 607.222 -0.764335 3.1753 0
M  V30 6510 H 605.881 1.35564 3.40614 0
M  V30 6511 H 605.529 -0.538277 5.00112 0
M  V30 6512 H 605.229 1.03337 5.78442 0
M  V30 6513 H 606.753 0.157403 6.10397 0
M  V30 6514 H 608.167 2.26829 5.26518 0
M  V30 6515 H 606.564 3.05326 5.1662 0
M  V30 6516 H 607.634 3.07076 3.75276 0
M  V30 6517 N 608.977 -1.30795 0.87923 0
M  V30 6518 C 609.907 -2.30742 0.357796 0
M  V30 6519 C 610.888 -1.60747 -0.556283 0
M  V30 6520 O 612.073 -1.88393 -0.47135 0
M  V30 6521 C 609.203 -3.44583 -0.433555 0
M  V30 6522 C 608.157 -4.26235 0.388251 0
M  V30 6523 C 607.483 -5.32073 -0.529352 0
M  V30 6524 C 608.783 -4.96303 1.62729 0
M  V30 6525 H 610.477 -2.74605 1.19299 0
M  V30 6526 H 608.023 -1.32017 0.575104 0
M  V30 6527 H 609.976 -4.13563 -0.808934 0
M  V30 6528 H 608.7 -2.99511 -1.30234 0
M  V30 6529 H 607.359 -3.58936 0.745695 0
M  V30 6530 H 607.007 -4.83249 -1.39569 0
M  V30 6531 H 606.707 -5.87598 0.0166741 0
M  V30 6532 H 608.231 -6.0391 -0.901373 0
M  V30 6533 H 609.645 -5.5783 1.32283 0
M  V30 6534 H 608.042 -5.61666 2.11309 0
M  V30 6535 H 609.112 -4.22758 2.37494 0
M  V30 6536 N 610.455 -0.639598 -1.44038 0
M  V30 6537 C 611.385 0.0469443 -2.33453 0
M  V30 6538 C 612.366 0.82609 -1.48694 0
M  V30 6539 O 613.551 0.790285 -1.77393 0
M  V30 6540 C 610.681 1.02338 -3.3188 0
M  V30 6541 C 609.635 0.355284 -4.26523 0
M  V30 6542 C 608.961 1.44221 -5.14883 0
M  V30 6543 C 610.261 -0.743798 -5.16977 0
M  V30 6544 H 611.955 -0.699735 -2.91108 0
M  V30 6545 H 609.501 -0.337946 -1.39978 0
M  V30 6546 H 611.454 1.51247 -3.93322 0
M  V30 6547 H 610.178 1.80105 -2.72451 0
M  V30 6548 H 608.837 -0.113239 -3.66425 0
M  V30 6549 H 608.485 2.21097 -4.51802 0
M  V30 6550 H 608.185 1.00052 -5.79019 0
M  V30 6551 H 609.709 1.93295 -5.79197 0
M  V30 6552 H 611.123 -0.337444 -5.72306 0
M  V30 6553 H 609.52 -1.10914 -5.89761 0
M  V30 6554 H 610.59 -1.60745 -4.57481 0
M  V30 6555 N 611.933 1.52934 -0.380664 0
M  V30 6556 C 612.896 2.24809 0.446473 0
M  V30 6557 C 613.896 1.26133 0.997347 0
M  V30 6558 O 615.086 1.50297 0.880714 0
M  V30 6559 C 612.218 2.99649 1.62553 0
M  V30 6560 H 613.411 2.99343 -0.182677 0
M  V30 6561 H 610.964 1.55736 -0.132618 0
M  V30 6562 H 611.699 2.29395 2.29235 0
M  V30 6563 H 611.484 3.72066 1.23732 0
M  V30 6564 H 612.974 3.54246 2.21133 0
M  V30 6565 N 613.412 0.11024 1.57214 0
M  V30 6566 C 614.36 -0.860586 2.16094 0
M  V30 6567 C 615.354 -1.28156 1.1078 0
M  V30 6568 O 616.56 -1.25433 1.29099 0
M  V30 6569 H 612.935 -0.295606 0.691463 0
M  V30 6570 H 614.906 -0.33942 2.96463 0
M  V30 6571 C 613.655 -2.10421 2.768 0
M  V30 6572 H 612.978 -1.7892 3.5753 0
M  V30 6573 H 614.418 -2.76375 3.21547 0
M  V30 6574 C 612.877 -2.88823 1.73444 0
M  V30 6575 O 613.407 -3.839 1.18251 0
M  V30 6576 N 611.613 -2.52649 1.43586 0
M  V30 6577 H 611.16 -1.754 1.8866 0
M  V30 6578 H 611.118 -3.05403 0.746735 0
M  V30 6579 N 614.89 -1.56749 -0.16351 0
M  V30 6580 C 615.853 -1.96121 -1.18613 0
M  V30 6581 C 616.853 -0.845765 -1.36761 0
M  V30 6582 O 618.043 -1.11268 -1.34033 0
M  V30 6583 C 615.175 -2.26282 -2.54969 0
M  V30 6584 H 616.368 -2.87639 -0.848764 0
M  V30 6585 H 613.921 -1.50928 -0.406251 0
M  V30 6586 H 614.656 -1.37504 -2.93706 0
M  V30 6587 H 614.441 -3.07595 -2.43162 0
M  V30 6588 H 615.931 -2.57638 -3.28653 0
M  V30 6589 N 616.368 0.432326 -1.51554 0
M  V30 6590 C 617.598 1.2019 -1.68042 0
M  V30 6591 C 618.006 1.85356 -0.379434 0
M  V30 6592 O 617.349 1.71724 0.652427 0
M  V30 6593 C 617.411 2.32387 -2.74292 0
M  V30 6594 C 617.075 1.87548 -4.16743 0
M  V30 6595 C 618.072 1.37611 -5.01357 0
M  V30 6596 C 615.757 1.95087 -4.62868 0
M  V30 6597 C 617.751 0.958069 -6.30159 0
M  V30 6598 C 615.438 1.52894 -5.91664 0
M  V30 6599 C 616.436 1.03336 -6.75137 0
M  V30 6600 O 616.124 0.617435 -8.01525 0
M  V30 6601 H 615.856 0.368132 -0.56697 0
M  V30 6602 H 618.41 0.517875 -1.98764 0
M  V30 6603 H 616.64 3.04082 -2.38895 0
M  V30 6604 H 618.329 2.94235 -2.79608 0
M  V30 6605 H 619.095 1.31178 -4.66923 0
M  V30 6606 H 614.974 2.32606 -3.98015 0
M  V30 6607 H 618.518 0.570562 -6.95263 0
M  V30 6608 H 614.415 1.58999 -6.25611 0
M  V30 6609 H 615.183 0.742835 -8.15122 0
M  V30 6610 N 617.846 1.41785 0.688094 0
M  V30 6611 C 619.095 1.4084 1.44385 0
M  V30 6612 C 619.408 0.0234166 1.95586 0
M  V30 6613 O 620.614 -0.108647 2.71283 0
M  V30 6614 C 619.07 2.47675 2.61123 0
M  V30 6615 C 618.678 3.92116 2.16677 0
M  V30 6616 C 620.422 2.55877 3.38714 0
M  V30 6617 C 618.329 4.90487 3.30419 0
M  V30 6618 H 617.259 0.523787 0.542368 0
M  V30 6619 H 619.91 1.6764 0.74627 0
M  V30 6620 H 618.292 2.14018 3.33185 0
M  V30 6621 H 619.466 4.35059 1.51856 0
M  V30 6622 H 617.781 3.87642 1.5206 0
M  V30 6623 H 620.378 3.26553 4.234 0
M  V30 6624 H 620.721 1.59801 3.84408 0
M  V30 6625 H 621.254 2.88662 2.73714 0
M  V30 6626 H 617.993 5.87994 2.89729 0
M  V30 6627 H 617.513 4.52187 3.94065 0
M  V30 6628 H 619.192 5.11591 3.96085 0
M  V30 6629 N 619.324 -0.923095 1.27737 0
M  V30 6630 C 620.554 -1.70277 1.17001 0
M  V30 6631 C 620.962 -1.87188 -0.275199 0
M  V30 6632 O 620.305 -1.39195 -1.19877 0
M  V30 6633 C 620.367 -3.11976 1.78637 0
M  V30 6634 C 620.031 -3.18386 3.27841 0
M  V30 6635 C 621.028 -3.00287 4.2441 0
M  V30 6636 C 618.713 -3.41198 3.68632 0
M  V30 6637 C 620.707 -3.04896 5.59747 0
M  V30 6638 C 618.394 -3.4544 5.04097 0
M  V30 6639 C 619.392 -3.27309 5.99465 0
M  V30 6640 O 619.08 -3.31295 7.32461 0
M  V30 6641 H 618.812 -0.539366 0.407505 0
M  V30 6642 H 621.366 -1.16446 1.69202 0
M  V30 6643 H 619.596 -3.67308 1.20919 0
M  V30 6644 H 621.285 -3.7193 1.6255 0
M  V30 6645 H 622.051 -2.825 3.94232 0
M  V30 6646 H 617.93 -3.54359 2.94873 0
M  V30 6647 H 621.474 -2.90662 6.34162 0
M  V30 6648 H 617.371 -3.62753 5.33929 0
M  V30 6649 H 618.139 -3.47719 7.40968 0
M  V30 6650 N 620.802 -1.09834 -1.13024 0
M  V30 6651 C 622.048 -0.83819 -1.84668 0
M  V30 6652 C 622.381 0.634645 -1.83537 0
M  V30 6653 O 621.656 1.46753 -1.27647 0
M  V30 6654 C 621.939 -1.37933 -3.32636 0
M  V30 6655 C 621.792 -2.91857 -3.42257 0
M  V30 6656 C 623.111 -1.01654 -4.28199 0
M  V30 6657 H 620.23 -0.30595 -0.670495 0
M  V30 6658 H 622.872 -1.36044 -1.32635 0
M  V30 6659 H 621.022 -0.935111 -3.77078 0
M  V30 6660 H 622.694 -3.44759 -3.06495 0
M  V30 6661 H 620.937 -3.28776 -2.83 0
M  V30 6662 H 621.608 -3.24799 -4.46329 0
M  V30 6663 H 624.084 -1.39973 -3.9185 0
M  V30 6664 H 622.96 -1.42217 -5.30156 0
M  V30 6665 H 623.221 0.0747794 -4.42037 0
M  V30 6666 N 622.28 1.30327 -0.886154 0
M  V30 6667 C 623.526 1.96388 -0.505941 0
M  V30 6668 C 623.859 1.69784 0.942712 0
M  V30 6669 O 623.134 1.00322 1.6663 0
M  V30 6670 C 623.417 3.51488 -0.782826 0
M  V30 6671 C 623.27 3.87603 -2.28219 0
M  V30 6672 C 624.589 4.39331 -0.260128 0
M  V30 6673 H 621.708 0.713327 -0.185292 0
M  V30 6674 H 624.35 1.54178 -1.11036 0
M  V30 6675 H 622.5 3.87572 -0.268399 0
M  V30 6676 H 624.172 3.61537 -2.86512 0
M  V30 6677 H 622.415 3.3563 -2.74837 0
M  V30 6678 H 623.086 4.95806 -2.42653 0
M  V30 6679 H 625.562 4.10162 -0.700444 0
M  V30 6680 H 624.438 5.46769 -0.483179 0
M  V30 6681 H 624.699 4.34072 0.838674 0
M  V30 6682 N 623.758 0.647228 1.43697 0
M  V30 6683 C 624.69 -0.0866232 2.29036 0
M  V30 6684 C 625.703 -0.793051 1.42178 0
M  V30 6685 O 626.892 -0.651807 1.66174 0
M  V30 6686 C 623.992 -1.14552 3.18953 0
M  V30 6687 C 623.165 -0.518422 4.34317 0
M  V30 6688 C 622.224 -1.4734 5.05151 0
M  V30 6689 O 621.25 -0.984312 5.60625 0
M  V30 6690 N 622.452 -2.8075 5.08094 0
M  V30 6691 H 625.217 0.645834 2.92659 0
M  V30 6692 H 622.778 0.489567 1.54321 0
M  V30 6693 H 624.77 -1.78505 3.63205 0
M  V30 6694 H 623.34 -1.78001 2.56971 0
M  V30 6695 H 622.56 0.300079 3.93056 0
M  V30 6696 H 623.848 -0.080401 5.08736 0
M  V30 6697 H 623.246 -3.23052 4.64386 0
M  V30 6698 H 621.803 -3.40022 5.56083 0
M  V30 6699 N 625.236 -1.5273 0.388769 0
M  V30 6700 C 626.166 -2.29353 -0.438111 0
M  V30 6701 C 627.147 -1.32719 -1.06394 0
M  V30 6702 O 628.332 -1.61612 -1.07681 0
M  V30 6703 C 625.462 -3.09995 -1.56589 0
M  V30 6704 C 624.416 -4.14509 -1.06613 0
M  V30 6705 C 623.742 -4.83372 -2.28594 0
M  V30 6706 C 625.042 -5.22127 -0.134459 0
M  V30 6707 H 626.736 -2.98723 0.201206 0
M  V30 6708 H 624.282 -1.43665 0.0982089 0
M  V30 6709 H 626.235 -3.62357 -2.15118 0
M  V30 6710 H 624.959 -2.38357 -2.23279 0
M  V30 6711 H 623.618 -3.63128 -0.503383 0
M  V30 6712 H 623.266 -4.08283 -2.93792 0
M  V30 6713 H 622.966 -5.54012 -1.95817 0
M  V30 6714 H 624.49 -5.38538 -2.87766 0
M  V30 6715 H 625.904 -5.69851 -0.627914 0
M  V30 6716 H 624.301 -6.00011 0.103534 0
M  V30 6717 H 625.371 -4.77971 0.816798 0
M  V30 6718 N 626.714 -0.118576 -1.57153 0
M  V30 6719 C 628.125 0.40687 -1.82213 0
M  V30 6720 C 628.476 1.66636 -1.03571 0
M  V30 6721 O 627.601 2.14682 -0.272171 0
M  V30 6722 C 628.196 0.744949 -3.30509 0
M  V30 6723 C 626.755 1.21503 -3.5625 0
M  V30 6724 C 625.902 0.223511 -2.76398 0
M  V30 6725 H 628.853 -0.343712 -1.54933 0
M  V30 6726 H 628.874 1.6024 -3.45114 0
M  V30 6727 H 628.386 -0.171911 -3.87719 0
M  V30 6728 H 626.487 2.1488 -3.04396 0
M  V30 6729 H 626.6 1.16065 -4.64829 0
M  V30 6730 H 624.964 0.71046 -2.44591 0
M  V30 6731 H 625.747 -0.686439 -3.36367 0
M  V30 6732 N 628.193 1.56834 0.155195 0
M  V30 6733 C 629.156 1.96748 1.17571 0
M  V30 6734 C 630.156 0.853006 1.3631 0
M  V30 6735 O 631.346 1.11978 1.33441 0
M  V30 6736 C 628.478 2.27631 2.53765 0
M  V30 6737 H 629.671 2.88085 0.833498 0
M  V30 6738 H 627.224 1.51141 0.398242 0
M  V30 6739 H 627.959 1.39059 2.92973 0
M  V30 6740 H 627.744 3.0888 2.41527 0
M  V30 6741 H 629.234 2.59377 3.27282 0
M  V30 6742 N 629.671 -0.424282 1.51781 0
M  V30 6743 C 630.618 -1.51591 1.74037 0
M  V30 6744 C 631.588 -1.55556 0.582358 0
M  V30 6745 O 632.773 -1.72364 0.818245 0
M  V30 6746 C 629.913 -2.89188 1.8832 0
M  V30 6747 C 629.026 -2.9465 3.1592 0
M  V30 6748 C 628.161 -4.23452 3.20721 0
M  V30 6749 C 627.2 -4.22831 4.42584 0
M  V30 6750 N 626.337 -5.43178 4.44862 0
M  V30 6751 H 631.177 -1.31917 2.67212 0
M  V30 6752 H 628.714 -0.640599 1.32419 0
M  V30 6753 H 630.672 -3.69044 1.94583 0
M  V30 6754 H 629.302 -3.07392 0.985402 0
M  V30 6755 H 628.354 -2.07378 3.18902 0
M  V30 6756 H 629.666 -2.90055 4.05795 0
M  V30 6757 H 628.82 -5.1169 3.25973 0
M  V30 6758 H 627.559 -4.30722 2.28757 0
M  V30 6759 H 626.564 -3.32984 4.37495 0
M  V30 6760 H 627.789 -4.17213 5.35826 0
M  V30 6761 H 625.735 -5.51145 3.55775 0
M  V30 6762 H 625.652 -5.40515 5.28563 0
M  V30 6763 H 626.92 -6.33412 4.54324 0
M  V30 6764 N 631.149 -1.42148 -0.680565 0
M  V30 6765 C 632.398 -1.41604 -1.43636 0
M  V30 6766 C 632.711 -0.0337887 -1.95571 0
M  V30 6767 O 633.917 0.0942588 -2.71336 0
M  V30 6768 C 632.373 -2.49056 -2.59806 0
M  V30 6769 C 631.981 -3.9326 -2.14594 0
M  V30 6770 C 633.725 -2.5767 -3.37352 0
M  V30 6771 C 631.632 -4.92232 -3.27813 0
M  V30 6772 H 630.562 -0.526656 -0.539583 0
M  V30 6773 H 633.213 -1.68033 -0.737369 0
M  V30 6774 H 631.595 -2.15782 -3.32045 0
M  V30 6775 H 632.769 -4.35858 -1.49546 0
M  V30 6776 H 631.084 -3.88443 -1.50002 0
M  V30 6777 H 633.681 -3.28794 -4.21662 0
M  V30 6778 H 634.024 -1.61837 -3.83555 0
M  V30 6779 H 634.557 -2.90109 -2.72179 0
M  V30 6780 H 631.296 -5.89522 -2.86607 0
M  V30 6781 H 630.816 -4.5427 -3.91661 0
M  V30 6782 H 632.495 -5.13684 -3.93367 0
M  V30 6783 N 632.627 0.916307 -1.28225 0
M  V30 6784 C 633.557 2.0352 -1.14464 0
M  V30 6785 C 634.538 1.70045 -0.0430844 0
M  V30 6786 O 635.723 1.92954 -0.219619 0
M  V30 6787 C 632.853 3.37889 -0.803027 0
M  V30 6788 C 631.807 3.85516 -1.85908 0
M  V30 6789 C 631.133 5.1682 -1.37116 0
M  V30 6790 C 632.433 4.07655 -3.26519 0
M  V30 6791 H 634.127 2.1529 -2.08064 0
M  V30 6792 H 631.673 1.03446 -1.00174 0
M  V30 6793 H 633.626 4.15654 -0.693537 0
M  V30 6794 H 632.35 3.26164 0.168674 0
M  V30 6795 H 631.009 3.09953 -1.95767 0
M  V30 6796 H 630.657 5.01497 -0.38859 0
M  V30 6797 H 630.357 5.49657 -2.07728 0
M  V30 6798 H 631.881 5.97143 -1.27484 0
M  V30 6799 H 633.295 4.75953 -3.19596 0
M  V30 6800 H 631.692 4.51818 -3.94943 0
M  V30 6801 H 632.762 3.12553 -3.70727 0
M  V30 6802 N 634.105 1.10431 1.1244 0
M  V30 6803 C 635.333 0.868872 1.87772 0
M  V30 6804 C 635.748 -0.580645 1.7965 0
M  V30 6805 O 635.105 -1.40031 1.17036 0
M  V30 6806 C 635.156 1.30855 3.36986 0
M  V30 6807 O 634.877 2.70123 3.44914 0
M  V30 6808 C 636.378 1.107 4.29256 0
M  V30 6809 H 633.598 0.311868 0.59412 0
M  V30 6810 H 636.142 1.46897 1.42273 0
M  V30 6811 H 634.297 0.752126 3.80029 0
M  V30 6812 H 634.711 2.88923 4.37748 0
M  V30 6813 H 636.185 1.46378 5.32238 0
M  V30 6814 H 636.662 0.0456228 4.39176 0
M  V30 6815 H 637.268 1.64988 3.91994 0
M  V30 6816 N 635.583 -1.29855 0.893053 0
M  V30 6817 C 636.546 -2.26183 0.370687 0
M  V30 6818 C 637.546 -1.53108 -0.491385 0
M  V30 6819 O 638.736 -1.71643 -0.297386 0
M  V30 6820 C 635.868 -3.37633 -0.470827 0
M  V30 6821 H 637.061 -2.73903 1.22135 0
M  V30 6822 H 634.614 -1.41183 0.67061 0
M  V30 6823 H 635.349 -2.95241 -1.34175 0
M  V30 6824 H 635.134 -3.91825 0.146784 0
M  V30 6825 H 636.624 -4.09313 -0.827825 0
M  V30 6826 N 637.061 -0.65484 -1.43351 0
M  V30 6827 C 638.338 -0.0987371 -1.95351 0
M  V30 6828 C 638.718 1.38161 -1.59608 0
M  V30 6829 O 638.066 2.10791 -0.882021 0
M  V30 6830 C 638.276 -0.346684 -3.47274 0
M  V30 6831 C 639.624 -0.25249 -4.23849 0
M  V30 6832 O 640.648 -0.279332 -3.55103 0
M  V30 6833 O 639.507 -0.177584 -5.46211 0
M  V30 6834 H 636.601 0.0086829 -0.826954 0
M  V30 6835 H 639.147 -0.728189 -1.53282 0
M  V30 6836 H 637.919 -1.37296 -3.66423 0
M  V30 6837 H 637.542 0.315757 -3.96344 0
M  V30 6838 N 638.539 1.52521 -0.396863 0
M  V30 6839 C 639.487 2.28217 0.44943 0
M  V30 6840 C 640.481 1.32416 1.05652 0
M  V30 6841 O 641.687 1.49925 0.996124 0
M  V30 6842 H 638.062 0.733966 0.1637 0
M  V30 6843 H 640.033 2.97658 -0.210367 0
M  V30 6844 C 638.782 3.10713 1.56054 0
M  V30 6845 H 638.105 3.84291 1.10273 0
M  V30 6846 H 639.545 3.66803 2.12677 0
M  V30 6847 C 638.004 2.23499 2.52091 0
M  V30 6848 O 638.534 1.8669 3.55682 0
M  V30 6849 N 636.74 1.8751 2.2201 0
M  V30 6850 H 636.287 2.17643 1.37802 0
M  V30 6851 H 636.245 1.29448 2.86514 0
M  V30 6852 N 640.017 0.126909 1.57088 0
M  V30 6853 C 640.949 -0.850973 2.12817 0
M  V30 6854 C 641.962 -1.22457 1.07276 0
M  V30 6855 O 643.151 -1.17215 1.34622 0
M  V30 6856 C 640.251 -2.15039 2.61938 0
M  V30 6857 C 639.424 -1.94726 3.91664 0
M  V30 6858 C 638.483 -3.0847 4.26301 0
M  V30 6859 O 637.509 -2.81038 4.94981 0
M  V30 6860 N 638.711 -4.35116 3.84259 0
M  V30 6861 H 641.476 -0.3748 2.97347 0
M  V30 6862 H 639.037 -0.0572793 1.61799 0
M  V30 6863 H 641.029 -2.90141 2.82135 0
M  V30 6864 H 639.599 -2.5398 1.82244 0
M  V30 6865 H 638.819 -1.03772 3.80296 0
M  V30 6866 H 640.107 -1.78469 4.76473 0
M  V30 6867 H 639.505 -4.60276 3.2888 0
M  V30 6868 H 638.062 -5.07064 4.09548 0
M  V30 6869 N 641.495 -1.56914 -0.146875 0
M  V30 6870 C 642.723 -1.87515 -0.874394 0
M  V30 6871 C 643.138 -0.715116 -1.74733 0
M  V30 6872 O 642.495 0.315113 -1.79759 0
M  V30 6873 C 642.546 -3.17362 -1.731 0
M  V30 6874 O 642.267 -4.28897 -0.893245 0
M  V30 6875 C 643.768 -3.61479 -2.56609 0
M  V30 6876 H 640.988 -0.621546 -0.252827 0
M  V30 6877 H 643.532 -2.04023 -0.139627 0
M  V30 6878 H 641.687 -3.02608 -2.41883 0
M  V30 6879 H 642.101 -5.03146 -1.48137 0
M  V30 6880 H 643.575 -4.5517 -3.12289 0
M  V30 6881 H 644.052 -2.86773 -3.32653 0
M  V30 6882 H 644.658 -3.78927 -1.93117 0
M  V30 6883 N 642.974 0.416227 -1.52004 0
M  V30 6884 C 644.204 1.18401 -1.69307 0
M  V30 6885 C 644.612 1.84943 -0.399072 0
M  V30 6886 O 643.955 1.72406 0.634177 0
M  V30 6887 C 644.017 2.29465 -2.76742 0
M  V30 6888 C 643.681 1.83117 -4.18709 0
M  V30 6889 C 644.678 1.32286 -5.02789 0
M  V30 6890 C 642.363 1.90167 -4.64911 0
M  V30 6891 C 644.357 0.891178 -6.31139 0
M  V30 6892 C 642.044 1.4661 -5.93253 0
M  V30 6893 C 643.042 0.961696 -6.76196 0
M  V30 6894 O 642.73 0.532388 -8.02135 0
M  V30 6895 H 642.462 0.362098 -0.570843 0
M  V30 6896 H 645.016 0.496764 -1.99302 0
M  V30 6897 H 643.246 3.01531 -2.42107 0
M  V30 6898 H 644.935 2.91252 -2.82713 0
M  V30 6899 H 645.701 1.26218 -4.68288 0
M  V30 6900 H 641.58 2.28371 -4.00459 0
M  V30 6901 H 645.124 0.496788 -6.95829 0
M  V30 6902 H 641.021 1.52355 -6.27263 0
M  V30 6903 H 641.789 0.656339 -8.15864 0
M  V30 6904 N 644.452 1.42507 0.673017 0
M  V30 6905 C 645.385 1.40557 1.79774 0
M  V30 6906 C 646.363 0.269606 1.60349 0
M  V30 6907 O 647.547 0.460105 1.82798 0
M  V30 6908 C 644.674 1.19815 3.168 0
M  V30 6909 C 643.72 2.36429 3.5497 0
M  V30 6910 S 644.553 3.98963 3.57196 0
M  V30 6911 C 645.709 3.80567 4.9691 0
M  V30 6912 H 645.942 2.35734 1.81154 0
M  V30 6913 H 643.475 1.293 0.843846 0
M  V30 6914 H 645.433 1.08535 3.95892 0
M  V30 6915 H 644.094 0.262215 3.13004 0
M  V30 6916 H 643.287 2.17669 4.54573 0
M  V30 6917 H 642.889 2.44233 2.83242 0
M  V30 6918 H 645.181 3.41668 5.85038 0
M  V30 6919 H 646.124 4.79852 5.20718 0
M  V30 6920 H 646.532 3.13399 4.69512 0
M  V30 6921 N 645.93 -0.909495 1.28709 0
M  V30 6922 C 646.893 -1.99399 1.13016 0
M  V30 6923 C 647.893 -1.60654 0.068536 0
M  V30 6924 O 649.083 -1.71334 0.314671 0
M  V30 6925 C 646.215 -3.33078 0.726085 0
M  V30 6926 H 647.408 -2.14751 2.09338 0
M  V30 6927 H 644.961 -1.09272 1.11756 0
M  V30 6928 H 645.696 -3.23428 -0.23771 0
M  V30 6929 H 645.481 -3.62562 1.49302 0
M  V30 6930 H 646.971 -4.12681 0.639058 0
M  V30 6931 N 647.408 -1.11026 -1.11852 0
M  V30 6932 C 648.654 -0.857729 -1.83768 0
M  V30 6933 C 648.987 0.615143 -1.842 0
M  V30 6934 O 648.262 1.45391 -1.29196 0
M  V30 6935 C 648.545 -1.41453 -3.31154 0
M  V30 6936 C 648.398 -2.95471 -3.39142 0
M  V30 6937 C 649.717 -1.0619 -4.27097 0
M  V30 6938 H 646.836 -0.313044 -0.667212 0
M  V30 6939 H 649.478 -1.37443 -1.31185 0
M  V30 6940 H 647.628 -0.975052 -3.76065 0
M  V30 6941 H 649.3 -3.4799 -3.02821 0
M  V30 6942 H 647.543 -3.31759 -2.79497 0
M  V30 6943 H 648.214 -3.29515 -4.42859 0
M  V30 6944 H 650.69 -1.44122 -3.90344 0
M  V30 6945 H 649.566 -1.47832 -5.28618 0
M  V30 6946 H 649.827 0.0278912 -4.42091 0
M  V30 6947 N 648.886 1.2938 -0.899927 0
M  V30 6948 C 649.818 2.26737 -0.335139 0
M  V30 6949 C 650.831 1.54316 0.518681 0
M  V30 6950 O 652.02 1.75313 0.335803 0
M  V30 6951 C 649.12 3.34558 0.540774 0
M  V30 6952 C 648.293 4.36455 -0.287372 0
M  V30 6953 C 647.352 5.2361 0.52141 0
M  V30 6954 O 646.378 5.69167 -0.0611735 0
M  V30 6955 N 647.58 5.50985 1.82745 0
M  V30 6956 H 650.345 2.75838 -1.17191 0
M  V30 6957 H 647.906 1.42716 -0.764438 0
M  V30 6958 H 649.898 3.89794 1.08825 0
M  V30 6959 H 648.468 2.85272 1.27823 0
M  V30 6960 H 647.688 3.80875 -1.01626 0
M  V30 6961 H 648.976 5.01573 -0.854518 0
M  V30 6962 H 648.374 5.15781 2.32349 0
M  V30 6963 H 646.931 6.09036 2.32204 0
M  V30 6964 N 650.364 0.662433 1.43002 0
M  V30 6965 C 651.612 0.179237 2.01304 0
M  V30 6966 C 651.933 -1.21428 1.52579 0
M  V30 6967 O 651.203 -1.81294 0.742252 0
M  V30 6968 H 649.783 0.0632725 0.744316 0
M  V30 6969 H 652.445 0.856169 1.75088 0
M  V30 6970 H 651.541 0.170957 3.11631 0
M  V30 6971 N 651.842 -1.52309 0.404946 0
M  V30 6972 C 653.067 -2.06666 -0.1743 0
M  V30 6973 C 653.492 -1.27341 -1.38441 0
M  V30 6974 O 652.85 -0.302539 -1.78758 0
M  V30 6975 C 652.898 -3.57014 -0.507262 0
M  V30 6976 O 652.002 -3.80144 -1.59889 0
M  V30 6977 H 651.343 -0.663807 -0.0160273 0
M  V30 6978 H 653.873 -1.96297 0.576937 0
M  V30 6979 H 653.883 -4.00724 -0.767098 0
M  V30 6980 H 652.558 -4.14184 0.377368 0
M  V30 6981 H 651.135 -3.48316 -1.33155 0
M  V30 6982 N 653.32 -0.135238 -1.57019 0
M  V30 6983 C 654.548 0.526066 -2.001 0
M  V30 6984 C 654.963 1.59184 -1.01519 0
M  V30 6985 O 654.32 1.82497 -0.0104258 0
M  V30 6986 C 654.371 1.13744 -3.43139 0
M  V30 6987 O 654.092 0.114259 -4.37951 0
M  V30 6988 C 655.593 1.8805 -4.01438 0
M  V30 6989 H 652.813 0.137962 -0.656664 0
M  V30 6990 H 655.357 -0.226359 -2.03243 0
M  V30 6991 H 653.512 1.84056 -3.40885 0
M  V30 6992 H 653.926 0.56058 -5.21496 0
M  V30 6993 H 655.4 2.26133 -5.03555 0
M  V30 6994 H 655.877 2.76194 -3.41487 0
M  V30 6995 H 656.483 1.22464 -4.07287 0
M  V30 6996 N 654.798 1.5699 0.138552 0
M  V30 6997 C 655.761 1.97984 1.15478 0
M  V30 6998 C 656.761 0.867416 1.35398 0
M  V30 6999 O 657.951 1.13387 1.32246 0
M  V30 7000 C 655.083 2.3031 2.51337 0
M  V30 7001 H 656.276 2.88953 0.802896 0
M  V30 7002 H 653.829 1.51555 0.382189 0
M  V30 7003 H 654.564 1.42159 2.91481 0
M  V30 7004 H 654.349 3.11425 2.38237 0
M  V30 7005 H 655.839 2.62834 3.24512 0
M  V30 7006 N 656.276 -0.40816 1.52223 0
M  V30 7007 C 657.506 -1.17501 1.69932 0
M  V30 7008 C 657.914 -1.84729 0.408874 0
M  V30 7009 O 657.257 -1.7274 -0.625025 0
M  V30 7010 C 657.319 -2.27994 2.77955 0
M  V30 7011 C 656.983 -1.80894 4.19674 0
M  V30 7012 C 657.98 -1.29618 5.03483 0
M  V30 7013 C 655.665 -1.87698 4.65913 0
M  V30 7014 C 657.659 -0.857695 6.31603 0
M  V30 7015 C 655.346 -1.43461 5.94022 0
M  V30 7016 C 656.344 -0.925822 6.76696 0
M  V30 7017 O 656.032 -0.489841 8.02406 0
M  V30 7018 H 655.764 -0.359065 0.572755 0
M  V30 7019 H 658.318 -0.486188 1.99563 0
M  V30 7020 H 656.548 -3.00243 2.43703 0
M  V30 7021 H 658.237 -2.89749 2.84254 0
M  V30 7022 H 659.003 -1.23733 4.68951 0
M  V30 7023 H 654.882 -2.26244 4.01665 0
M  V30 7024 H 658.426 -0.459879 6.96083 0
M  V30 7025 H 654.323 -1.49026 6.28062 0
M  V30 7026 H 655.091 -0.613062 8.16201 0
M  V30 7027 N 657.755 -1.42862 -0.66545 0
M  V30 7028 C 658.685 -1.49867 -1.79059 0
M  V30 7029 C 659.666 -0.354394 -1.66367 0
M  V30 7030 O 660.851 -0.569969 -1.85647 0
M  V30 7031 C 657.981 -1.40943 -3.17415 0
M  V30 7032 C 656.935 -2.53495 -3.44854 0
M  V30 7033 C 656.261 -2.29626 -4.82883 0
M  V30 7034 C 657.561 -3.95781 -3.40815 0
M  V30 7035 H 659.255 -2.44037 -1.73453 0
M  V30 7036 H 656.801 -1.17456 -0.833071 0
M  V30 7037 H 658.754 -1.4445 -3.95869 0
M  V30 7038 H 657.478 -0.432716 -3.23721 0
M  V30 7039 H 656.137 -2.4932 -2.68766 0
M  V30 7040 H 655.785 -1.30226 -4.8585 0
M  V30 7041 H 655.485 -3.05065 -5.02204 0
M  V30 7042 H 657.009 -2.34897 -5.63609 0
M  V30 7043 H 658.423 -4.01508 -4.09224 0
M  V30 7044 H 656.82 -4.71148 -3.71672 0
M  V30 7045 H 657.89 -4.21786 -2.39216 0
M  V30 7046 N 659.233 0.902656 -1.29189 0
M  V30 7047 C 660.163 2.02294 -1.16616 0
M  V30 7048 C 661.144 1.6999 -0.0611175 0
M  V30 7049 O 662.329 1.9271 -0.240072 0
M  V30 7050 C 659.459 3.37018 -0.83882 0
M  V30 7051 C 658.413 3.83522 -1.89986 0
M  V30 7052 C 657.739 5.15337 -1.42589 0
M  V30 7053 C 659.039 4.04169 -3.30824 0
M  V30 7054 H 660.733 2.13071 -2.10336 0
M  V30 7055 H 658.279 1.02378 -1.01266 0
M  V30 7056 H 660.232 4.14895 -0.737584 0
M  V30 7057 H 658.956 3.26325 0.134071 0
M  V30 7058 H 657.615 3.07859 -1.99043 0
M  V30 7059 H 657.263 5.01056 -0.441759 0
M  V30 7060 H 656.963 5.47423 -2.13547 0
M  V30 7061 H 658.487 5.95758 -1.3381 0
M  V30 7062 H 659.901 4.72537 -3.24626 0
M  V30 7063 H 658.298 4.47604 -3.99713 0
M  V30 7064 H 659.368 3.08604 -3.74021 0
M  V30 7065 N 660.711 1.11618 1.11262 0
M  V30 7066 C 661.951 0.876154 1.8467 0
M  V30 7067 C 662.315 -0.587551 1.82789 0
M  V30 7068 O 663.516 -0.944411 2.51663 0
M  V30 7069 C 661.787 1.42461 3.2778 0
M  V30 7070 S 663.346 1.32185 4.18417 0
M  V30 7071 H 660.164 0.31628 0.636779 0
M  V30 7072 H 662.766 1.42404 1.33946 0
M  V30 7073 H 661.47 2.48367 3.26714 0
M  V30 7074 H 661.001 0.873844 3.83572 0
M  V30 7075 H 663.016 0.287607 4.95366 0
M  V30 7076 N 662.189 -1.289 0.906776 0
M  V30 7077 C 663.136 -2.2751 0.388313 0
M  V30 7078 C 664.106 -1.57301 -0.533439 0
M  V30 7079 O 665.291 -1.85243 -0.457148 0
M  V30 7080 C 662.431 -3.43091 -0.37181 0
M  V30 7081 C 661.544 -4.28066 0.581647 0
M  V30 7082 C 660.679 -5.30837 -0.19623 0
M  V30 7083 C 659.718 -6.07472 0.751294 0
M  V30 7084 N 658.855 -7.021 0.00737727 0
M  V30 7085 H 663.695 -2.71237 1.23428 0
M  V30 7086 H 661.232 -1.33397 0.619962 0
M  V30 7087 H 663.19 -4.08888 -0.828641 0
M  V30 7088 H 661.82 -3.00374 -1.18218 0
M  V30 7089 H 660.872 -3.62378 1.157 0
M  V30 7090 H 662.184 -4.81382 1.30665 0
M  V30 7091 H 661.338 -6.02485 -0.71394 0
M  V30 7092 H 660.077 -4.78272 -0.954324 0
M  V30 7093 H 659.082 -5.34682 1.28044 0
M  V30 7094 H 660.307 -6.62126 1.50883 0
M  V30 7095 H 658.253 -6.51894 -0.732854 0
M  V30 7096 H 658.17 -7.53004 0.672334 0
M  V30 7097 H 659.438 -7.77956 -0.490365 0
M  V30 7098 N 663.667 -0.670007 -1.42649 0
M  V30 7099 C 664.63 0.00204659 -2.292 0
M  V30 7100 C 665.63 0.733817 -1.4308 0
M  V30 7101 O 666.82 0.57254 -1.64522 0
M  V30 7102 C 663.952 1.01359 -3.25483 0
M  V30 7103 H 665.145 -0.759696 -2.90118 0
M  V30 7104 H 662.698 -0.432105 -1.50208 0
M  V30 7105 H 663.433 1.80399 -2.69493 0
M  V30 7106 H 663.218 0.492323 -3.88997 0
M  V30 7107 H 664.708 1.4824 -3.90403 0
M  V30 7108 N 665.145 1.52092 -0.413018 0
M  V30 7109 C 666.392 2.01855 0.161497 0
M  V30 7110 C 666.72 1.29845 1.44812 0
M  V30 7111 O 665.975 0.394471 1.91683 0
M  V30 7112 C 666.274 3.54529 0.4521 0
M  V30 7113 C 665.94 4.4469 -0.745788 0
M  V30 7114 C 664.602 4.69053 -1.07435 0
M  V30 7115 C 666.954 4.97742 -1.54604 0
M  V30 7116 C 664.282 5.43717 -2.20429 0
M  V30 7117 C 666.634 5.73642 -2.66678 0
M  V30 7118 C 665.298 5.96277 -3.00016 0
M  V30 7119 H 664.568 0.73864 0.0590961 0
M  V30 7120 H 667.215 1.83274 -0.555234 0
M  V30 7121 H 665.52 3.7131 1.25045 0
M  V30 7122 H 667.217 3.90546 0.909647 0
M  V30 7123 H 663.807 4.25907 -0.479725 0
M  V30 7124 H 667.991 4.78824 -1.30543 0
M  V30 7125 H 663.247 5.59462 -2.46602 0
M  V30 7126 H 667.421 6.13746 -3.29072 0
M  V30 7127 H 665.048 6.53913 -3.87688 0
M  V30 7128 N 666.623 0.143563 1.56945 0
M  V30 7129 C 667.871 -0.507402 1.95627 0
M  V30 7130 C 668.192 -1.65626 1.02922 0
M  V30 7131 O 667.462 -1.95693 0.0901136 0
M  V30 7132 H 666.042 -0.190436 0.722318 0
M  V30 7133 H 668.704 0.218257 1.93674 0
M  V30 7134 H 667.8 -0.885816 2.99265 0
M  V30 7135 N 668.101 -1.57061 -0.130224 0
M  V30 7136 C 669.064 -1.98593 -1.14426 0
M  V30 7137 C 670.064 -0.874584 -1.34936 0
M  V30 7138 O 671.254 -1.14086 -1.31643 0
M  V30 7139 C 668.386 -2.31639 -2.50112 0
M  V30 7140 H 669.579 -2.89374 -0.787561 0
M  V30 7141 H 667.132 -1.51756 -0.374146 0
M  V30 7142 H 667.867 -1.43703 -2.90723 0
M  V30 7143 H 667.652 -3.12684 -2.36583 0
M  V30 7144 H 669.142 -2.64551 -3.23114 0
M  V30 7145 N 669.579 0.400081 -1.52437 0
M  V30 7146 C 670.99 0.97851 -1.59003 0
M  V30 7147 C 671.341 1.91293 -0.436068 0
M  V30 7148 O 670.466 2.1183 0.442365 0
M  V30 7149 C 671.061 1.78145 -2.88184 0
M  V30 7150 C 669.62 2.30976 -2.97199 0
M  V30 7151 C 668.767 1.11212 -2.54022 0
M  V30 7152 H 671.718 0.180002 -1.57676 0
M  V30 7153 H 671.739 2.63968 -2.74046 0
M  V30 7154 H 671.251 1.1011 -3.72152 0
M  V30 7155 H 669.352 3.02355 -2.17744 0
M  V30 7156 H 669.465 2.61221 -4.01622 0
M  V30 7157 H 667.829 1.46882 -2.08081 0
M  V30 7158 H 668.612 0.447307 -3.40373 0
M  V30 7159 N 671.057 1.43213 0.657864 0
M  V30 7160 C 672.303 1.44798 1.41991 0
M  V30 7161 C 672.636 0.070256 1.94073 0
M  V30 7162 O 671.911 -0.908177 1.71995 0
M  V30 7163 C 672.194 2.4865 2.60471 0
M  V30 7164 C 672.047 3.95679 2.13911 0
M  V30 7165 C 673.366 2.49292 3.62686 0
M  V30 7166 H 670.485 0.527244 0.514959 0
M  V30 7167 H 673.127 1.74733 0.74621 0
M  V30 7168 H 671.277 2.23254 3.17946 0
M  V30 7169 H 672.949 4.32116 1.61472 0
M  V30 7170 H 671.192 4.08733 1.45325 0
M  V30 7171 H 671.863 4.6395 2.99089 0
M  V30 7172 H 674.339 2.71917 3.14961 0
M  V30 7173 H 673.215 3.23907 4.43143 0
M  V30 7174 H 673.476 1.52502 4.14964 0
M  V30 7175 N 672.536 -0.895792 1.29666 0
M  V30 7176 C 673.947 -1.46195 1.1612 0
M  V30 7177 C 674.298 -1.94699 -0.242195 0
M  V30 7178 O 673.423 -1.8406 -1.13802 0
M  V30 7179 C 674.018 -2.65718 2.10189 0
M  V30 7180 C 672.577 -3.18458 2.00653 0
M  V30 7181 C 671.724 -1.91149 2.00891 0
M  V30 7182 H 674.675 -0.706756 1.42094 0
M  V30 7183 H 674.696 -3.4158 1.6764 0
M  V30 7184 H 674.208 -2.30386 3.12321 0
M  V30 7185 H 672.309 -3.58474 1.01623 0
M  V30 7186 H 672.422 -3.82491 2.88509 0
M  V30 7187 H 670.786 -2.09021 1.45542 0
M  V30 7188 H 671.569 -1.58089 3.04734 0
M  V30 7189 N 674.014 -1.12206 -1.10668 0
M  V30 7190 C 675.239 -0.898938 -1.86906 0
M  V30 7191 C 675.664 0.546346 -1.79991 0
M  V30 7192 O 675.022 1.38655 -1.1681 0
M  V30 7193 C 675.07 -1.37529 -3.33344 0
M  V30 7194 O 674.174 -0.55218 -4.08687 0
M  V30 7195 H 673.515 -0.323163 -0.580053 0
M  V30 7196 H 676.045 -1.49355 -1.39837 0
M  V30 7197 H 676.055 -1.3733 -3.84193 0
M  V30 7198 H 674.73 -2.42767 -3.37693 0
M  V30 7199 H 673.307 -0.620947 -3.67694 0
M  V30 7200 N 675.492 1.28418 -0.913599 0
M  V30 7201 C 676.738 1.9527 -0.547484 0
M  V30 7202 C 677.071 1.71745 0.906486 0
M  V30 7203 O 676.346 1.03834 1.64465 0
M  V30 7204 C 676.629 3.49748 -0.857205 0
M  V30 7205 C 676.482 3.82675 -2.3639 0
M  V30 7206 C 677.801 4.3868 -0.353258 0
M  V30 7207 H 674.92 0.709236 -0.200381 0
M  V30 7208 H 677.562 1.51789 -1.14281 0
M  V30 7209 H 675.712 3.86915 -0.350548 0
M  V30 7210 H 677.384 3.55378 -2.94116 0
M  V30 7211 H 675.627 3.29724 -2.81894 0
M  V30 7212 H 676.298 4.90547 -2.53115 0
M  V30 7213 H 678.774 4.08584 -0.787288 0
M  V30 7214 H 677.65 5.45621 -0.599049 0
M  V30 7215 H 677.911 4.35753 0.746413 0
M  V30 7216 N 676.97 0.677563 1.42291 0
M  V30 7217 C 677.902 -0.0380218 2.29168 0
M  V30 7218 C 678.915 -0.762714 1.43828 0
M  V30 7219 O 680.104 -0.616413 1.67519 0
M  V30 7220 C 677.204 -1.07761 3.21311 0
M  V30 7221 C 676.377 -0.42618 4.35319 0
M  V30 7222 C 675.436 -1.36592 5.08162 0
M  V30 7223 O 674.462 -0.865174 5.62586 0
M  V30 7224 N 675.664 -2.69909 5.13935 0
M  V30 7225 H 678.429 0.707766 2.91223 0
M  V30 7226 H 675.99 0.52219 1.53247 0
M  V30 7227 H 677.982 -1.70761 3.6691 0
M  V30 7228 H 676.552 -1.72511 2.60689 0
M  V30 7229 H 675.772 0.383385 3.92331 0
M  V30 7230 H 677.06 0.0275277 5.08793 0
M  V30 7231 H 676.458 -3.13129 4.71134 0
M  V30 7232 H 675.015 -3.2815 5.6317 0
M  V30 7233 N 678.448 -1.51871 0.421078 0
M  V30 7234 C 679.694 -2.02894 -0.143346 0
M  V30 7235 C 680.049 -1.30054 -1.41787 0
M  V30 7236 O 679.342 -0.401776 -1.8734 0
M  V30 7237 C 679.536 -3.54764 -0.433292 0
M  V30 7238 C 679.365 -4.42316 0.811584 0
M  V30 7239 C 678.135 -4.872 1.34033 0
M  V30 7240 C 680.333 -4.85631 1.69313 0
M  V30 7241 N 678.315 -5.58915 2.53944 0
M  V30 7242 C 679.686 -5.56248 2.7384 0
M  V30 7243 C 681.741 -4.67634 1.70947 0
M  V30 7244 C 680.444 -6.10777 3.79927 0
M  V30 7245 C 682.47 -5.23068 2.7596 0
M  V30 7246 C 681.832 -5.93617 3.79207 0
M  V30 7247 H 677.931 -0.78188 -0.0137104 0
M  V30 7248 H 680.515 -1.85919 0.578105 0
M  V30 7249 H 678.686 -3.71787 -1.12378 0
M  V30 7250 H 680.418 -3.92464 -0.987644 0
M  V30 7251 H 677.173 -4.65035 0.896606 0
M  V30 7252 H 677.597 -5.99408 3.14704 0
M  V30 7253 H 682.239 -4.12566 0.9246 0
M  V30 7254 H 679.957 -6.64909 4.59262 0
M  V30 7255 H 683.543 -5.11005 2.78147 0
M  V30 7256 H 682.423 -6.35743 4.5913 0
M  V30 7257 N 679.926 -0.151884 -1.56866 0
M  V30 7258 C 680.856 0.781943 -2.20018 0
M  V30 7259 C 681.837 1.25347 -1.14987 0
M  V30 7260 O 683.022 1.31015 -1.43348 0
M  V30 7261 C 680.152 2.01928 -2.82564 0
M  V30 7262 C 679.106 1.68434 -3.93464 0
M  V30 7263 C 678.432 2.99472 -4.42968 0
M  V30 7264 C 679.732 0.927244 -5.14003 0
M  V30 7265 H 681.426 0.255607 -2.98307 0
M  V30 7266 H 678.972 0.121502 -1.43486 0
M  V30 7267 H 680.925 2.67741 -3.25411 0
M  V30 7268 H 679.649 2.56943 -2.01614 0
M  V30 7269 H 678.308 1.04998 -3.51242 0
M  V30 7270 H 677.956 3.52488 -3.58834 0
M  V30 7271 H 677.656 2.77823 -5.17772 0
M  V30 7272 H 679.18 3.66348 -4.88489 0
M  V30 7273 H 680.594 1.48756 -5.53665 0
M  V30 7274 H 678.991 0.810513 -5.94601 0
M  V30 7275 H 680.061 -0.0801163 -4.84834 0
M  V30 7276 N 681.404 1.57128 0.121893 0
M  V30 7277 C 682.681 1.75664 0.860327 0
M  V30 7278 C 683.061 0.726585 1.98202 0
M  V30 7279 O 682.409 -0.24999 2.27128 0
M  V30 7280 C 682.619 3.20571 1.37968 0
M  V30 7281 C 683.967 3.82988 1.83317 0
M  V30 7282 O 684.991 3.24156 1.47654 0
M  V30 7283 O 683.85 4.86393 2.49168 0
M  V30 7284 H 680.944 0.719153 0.408348 0
M  V30 7285 H 683.49 1.6937 0.105859 0
M  V30 7286 H 682.262 3.87056 0.57477 0
M  V30 7287 H 681.885 3.31392 2.19694 0
M  V30 7288 N 682.882 -0.391992 1.52647 0
M  V30 7289 C 683.792 -1.503 1.80131 0
M  V30 7290 C 684.808 -1.59825 0.687882 0
M  V30 7291 O 685.984 -1.76218 0.975149 0
M  V30 7292 C 683.049 -2.85863 1.96171 0
M  V30 7293 C 682.11 -2.86084 3.20085 0
M  V30 7294 C 681.343 -4.15181 3.35351 0
M  V30 7295 O 681.566 -5.09981 2.55491 0
M  V30 7296 O 680.5 -4.22603 4.28591 0
M  V30 7297 H 684.326 -1.30007 2.74466 0
M  V30 7298 H 681.911 -0.579539 1.37701 0
M  V30 7299 H 683.793 -3.66236 2.08445 0
M  V30 7300 H 682.468 -3.06189 1.05025 0
M  V30 7301 H 681.375 -2.04504 3.13256 0
M  V30 7302 H 682.708 -2.7071 4.11068 0
M  V30 7303 N 684.36 -1.4356 -0.65026 0
M  V30 7304 C 685.637 -1.35811 -1.40765 0
M  V30 7305 C 686.017 -0.00736379 -2.11099 0
M  V30 7306 O 685.365 1.00932 -2.05 0
M  V30 7307 C 685.575 -2.54332 -2.3899 0
M  V30 7308 C 686.923 -2.97551 -3.02901 0
M  V30 7309 O 687.947 -2.544 -2.49317 0
M  V30 7310 O 686.806 -3.72311 -4.00059 0
M  V30 7311 H 683.9 -0.536861 -0.629054 0
M  V30 7312 H 686.446 -1.55615 -0.676919 0
M  V30 7313 H 685.218 -3.44274 -1.85986 0
M  V30 7314 H 684.841 -2.36643 -3.19509 0
M  V30 7315 N 685.838 0.888903 -1.30139 0
M  V30 7316 C 687.086 1.63713 -1.18501 0
M  V30 7317 C 687.407 1.9324 0.261399 0
M  V30 7318 O 686.677 1.56608 1.17689 0
M  V30 7319 H 685.257 0.606861 -0.435579 0
M  V30 7320 H 687.919 1.06525 -1.63213 0
M  V30 7321 H 687.015 2.58894 -1.743 0
M  V30 7322 N 687.317 1.12792 1.10072 0
M  V30 7323 C 688.545 0.908506 1.85886 0
M  V30 7324 C 688.96 -0.542408 1.80841 0
M  V30 7325 O 688.317 -1.37517 1.1998 0
M  V30 7326 C 688.368 1.37973 3.34134 0
M  V30 7327 O 688.089 2.77378 3.39106 0
M  V30 7328 C 689.59 1.1978 4.26811 0
M  V30 7329 H 686.81 0.3244 0.587372 0
M  V30 7330 H 689.354 1.49882 1.39125 0
M  V30 7331 H 687.509 0.832566 3.78348 0
M  V30 7332 H 687.923 2.98144 4.31521 0
M  V30 7333 H 689.397 1.57635 5.29014 0
M  V30 7334 H 689.874 0.138768 4.38981 0
M  V30 7335 H 690.48 1.73266 3.88406 0
M  V30 7336 N 688.795 -1.27931 0.920396 0
M  V30 7337 C 690.023 -1.98805 0.573087 0
M  V30 7338 C 690.438 -1.68724 -0.847201 0
M  V30 7339 O 689.795 -0.943699 -1.56207 0
M  V30 7340 C 689.846 -3.52971 0.780633 0
M  V30 7341 O 689.567 -3.81994 2.14504 0
M  V30 7342 C 691.068 -4.411 0.44105 0
M  V30 7343 H 688.288 -0.634651 0.21785 0
M  V30 7344 H 690.832 -1.62965 1.23542 0
M  V30 7345 H 688.987 -3.87048 0.165204 0
M  V30 7346 H 689.401 -4.76609 2.18962 0
M  V30 7347 H 690.875 -5.48312 0.637006 0
M  V30 7348 H 691.352 -4.34758 -0.62306 0
M  V30 7349 H 691.958 -4.12532 1.0343 0
M  V30 7350 N 690.273 -0.685099 -1.4193 0
M  V30 7351 C 691.519 -0.211971 -2.01689 0
M  V30 7352 C 691.852 1.18189 -1.54094 0
M  V30 7353 O 691.127 1.79559 -0.747572 0
M  V30 7354 C 691.41 -0.258019 -3.59174 0
M  V30 7355 C 691.263 -1.68807 -4.16922 0
M  V30 7356 C 692.582 0.388044 -4.38386 0
M  V30 7357 H 689.701 -0.0784987 -0.732808 0
M  V30 7358 H 692.343 -0.871837 -1.68816 0
M  V30 7359 H 690.493 0.303832 -3.8731 0
M  V30 7360 H 692.165 -2.30296 -3.99702 0
M  V30 7361 H 690.408 -2.22553 -3.72361 0
M  V30 7362 H 691.079 -1.6719 -5.26072 0
M  V30 7363 H 693.555 -0.0903432 -4.16002 0
M  V30 7364 H 692.431 0.325232 -5.47936 0
M  V30 7365 H 692.692 1.4672 -4.17044 0
M  V30 7366 N 691.751 1.51645 -0.429126 0
M  V30 7367 C 692.681 2.30434 0.377148 0
M  V30 7368 C 693.662 1.35493 1.02838 0
M  V30 7369 O 694.847 1.6441 1.03359 0
M  V30 7370 C 691.977 3.14038 1.48315 0
M  V30 7371 C 690.931 4.1719 0.955855 0
M  V30 7372 C 690.257 4.89263 2.15698 0
M  V30 7373 C 691.557 5.223 -0.00402136 0
M  V30 7374 H 693.251 2.98085 -0.280336 0
M  V30 7375 H 690.797 1.43354 -0.136265 0
M  V30 7376 H 692.75 3.67933 2.05435 0
M  V30 7377 H 691.474 2.44193 2.16881 0
M  V30 7378 H 690.133 3.64335 0.406929 0
M  V30 7379 H 689.781 4.15929 2.82864 0
M  V30 7380 H 689.481 5.59009 1.81059 0
M  V30 7381 H 691.005 5.45978 2.73387 0
M  V30 7382 H 692.419 5.71315 0.476607 0
M  V30 7383 H 690.816 5.99525 -0.26258 0
M  V30 7384 H 691.886 4.75638 -0.943236 0
M  V30 7385 N 693.229 0.160201 1.56784 0
M  V30 7386 C 694.161 -0.80564 2.14574 0
M  V30 7387 C 695.174 -1.20154 1.09849 0
M  V30 7388 O 696.363 -1.14333 1.37078 0
M  V30 7389 C 693.463 -2.09434 2.6644 0
M  V30 7390 C 692.636 -1.86375 3.95706 0
M  V30 7391 C 691.695 -2.99358 4.32749 0
M  V30 7392 O 690.721 -2.70475 5.00831 0
M  V30 7393 N 691.923 -4.26867 3.93402 0
M  V30 7394 H 694.688 -0.311644 2.98075 0
M  V30 7395 H 692.249 -0.0229465 1.61884 0
M  V30 7396 H 694.241 -2.84091 2.88226 0
M  V30 7397 H 692.811 -2.50057 1.8759 0
M  V30 7398 H 692.031 -0.956821 3.82412 0
M  V30 7399 H 693.319 -1.68322 4.80151 0
M  V30 7400 H 692.717 -4.53197 3.38569 0
M  V30 7401 H 691.274 -4.98263 4.20211 0
M  V30 7402 N 694.707 -1.5719 -0.113559 0
M  V30 7403 C 695.984 -1.76117 -0.850999 0
M  V30 7404 C 696.364 -0.737085 -1.97814 0
M  V30 7405 O 695.712 0.237942 -2.27258 0
M  V30 7406 C 695.922 -3.21298 -1.36266 0
M  V30 7407 C 697.27 -3.83955 -1.81283 0
M  V30 7408 O 698.294 -3.24934 -1.45933 0
M  V30 7409 O 697.153 -4.87707 -2.46585 0
M  V30 7410 H 694.247 -0.721308 -0.404529 0
M  V30 7411 H 696.793 -1.69423 -0.0968756 0
M  V30 7412 H 695.565 -3.87355 -0.554235 0
M  V30 7413 H 695.188 -3.32552 -2.17933 0
M  V30 7414 N 696.185 0.383891 -1.52853 0
M  V30 7415 C 697.095 1.49343 -1.80925 0
M  V30 7416 C 698.111 1.59458 -0.696348 0
M  V30 7417 O 699.287 1.75698 -0.984481 0
M  V30 7418 C 696.352 2.84819 -1.97684 0
M  V30 7419 C 695.413 2.84382 -3.21598 0
M  V30 7420 C 694.646 4.13397 -3.37548 0
M  V30 7421 O 694.869 5.08619 -2.58192 0
M  V30 7422 O 693.803 4.20325 -4.30826 0
M  V30 7423 H 697.629 1.2855 -2.75152 0
M  V30 7424 H 695.214 0.572229 -1.38007 0
M  V30 7425 H 697.096 3.65125 -2.10385 0
M  V30 7426 H 695.771 3.05627 -1.06647 0
M  V30 7427 H 694.678 2.0284 -3.14336 0
M  V30 7428 H 696.011 2.68526 -4.12498 0
M  V30 7429 N 697.663 1.43903 0.642637 0
M  V30 7430 C 699.079 1.27536 0.959519 0
M  V30 7431 C 699.279 0.202751 2.00477 0
M  V30 7432 O 698.335 -0.415256 2.49062 0
M  V30 7433 C 699.648 2.6432 1.43372 0
M  V30 7434 C 701.196 2.71937 1.54981 0
M  V30 7435 C 701.671 4.09164 2.05789 0
M  V30 7436 N 703.162 4.11282 2.13076 0
M  V30 7437 C 703.897 5.14303 2.53534 0
M  V30 7438 N 703.393 6.27693 2.93212 0
M  V30 7439 N 705.186 5.01657 2.53567 0
M  V30 7440 H 697.337 2.12344 -0.0488376 0
M  V30 7441 H 699.6 0.947124 0.0407559 0
M  V30 7442 H 699.306 3.43826 0.740048 0
M  V30 7443 H 699.18 2.90432 2.40685 0
M  V30 7444 H 701.567 1.92757 2.23448 0
M  V30 7445 H 701.648 2.49578 0.560739 0
M  V30 7446 H 701.292 4.88815 1.37921 0
M  V30 7447 H 701.222 4.28893 3.05546 0
M  V30 7448 H 703.713 3.2944 1.85143 0
M  V30 7449 H 704.026 7.02125 3.22863 0
M  V30 7450 H 702.371 6.31149 2.90991 0
M  V30 7451 H 705.562 4.12134 2.21952 0
M  V30 7452 H 705.735 5.82072 2.84774 0
M  V30 7453 N 699.141 -0.881989 1.30609 0
M  V30 7454 C 700.388 -1.63405 1.19604 0
M  V30 7455 C 700.716 -1.92905 -0.248574 0
M  V30 7456 O 699.971 -1.55062 -1.19391 0
M  V30 7457 C 700.27 -2.97999 1.97311 0
M  V30 7458 C 699.936 -2.88039 3.46907 0
M  V30 7459 C 698.598 -2.85029 3.877 0
M  V30 7460 C 700.95 -2.75948 4.42156 0
M  V30 7461 C 698.278 -2.67772 5.2203 0
M  V30 7462 C 700.63 -2.60228 5.76597 0
M  V30 7463 C 699.294 -2.55595 6.16626 0
M  V30 7464 H 698.564 -0.597941 0.437662 0
M  V30 7465 H 701.211 -1.02524 1.61744 0
M  V30 7466 H 699.516 -3.62847 1.47815 0
M  V30 7467 H 701.213 -3.55156 1.86186 0
M  V30 7468 H 697.803 -2.91192 3.14492 0
M  V30 7469 H 701.987 -2.77337 4.1158 0
M  V30 7470 H 697.243 -2.62601 5.52133 0
M  V30 7471 H 701.417 -2.49847 6.50038 0
M  V30 7472 H 699.044 -2.41981 7.20659 0
M  V30 7473 N 700.619 -1.13374 -1.09472 0
M  V30 7474 C 701.866 -0.89519 -1.81639 0
M  V30 7475 C 702.194 0.57868 -1.85692 0
M  V30 7476 O 701.449 1.44426 -1.32059 0
M  V30 7477 C 701.748 -1.42759 -3.2765 0
M  V30 7478 C 701.414 -2.91822 -3.43731 0
M  V30 7479 C 700.076 -3.32521 -3.47827 0
M  V30 7480 C 702.428 -3.87727 -3.48307 0
M  V30 7481 C 699.756 -4.6781 -3.54078 0
M  V30 7482 C 702.108 -5.22859 -3.56091 0
M  V30 7483 C 700.772 -5.63086 -3.58456 0
M  V30 7484 H 700.042 -0.327573 -0.664663 0
M  V30 7485 H 702.689 -1.4156 -1.28969 0
M  V30 7486 H 700.994 -0.827871 -3.82954 0
M  V30 7487 H 702.691 -1.2191 -3.8202 0
M  V30 7488 H 699.281 -2.5935 -3.41226 0
M  V30 7489 H 703.465 -3.57371 -3.44383 0
M  V30 7490 H 698.721 -4.98353 -3.54195 0
M  V30 7491 H 702.895 -5.96989 -3.58577 0
M  V30 7492 H 700.522 -6.67905 -3.63052 0
M  V30 7493 N 702.098 1.27442 -0.927168 0
M  V30 7494 C 703.509 1.76385 -0.611979 0
M  V30 7495 C 703.86 1.75715 0.872853 0
M  V30 7496 O 702.985 1.3603 1.683 0
M  V30 7497 C 703.58 3.20303 -1.10414 0
M  V30 7498 C 702.139 3.66916 -0.839628 0
M  V30 7499 C 701.286 2.46859 -1.26317 0
M  V30 7500 H 704.237 1.13716 -1.107 0
M  V30 7501 H 704.258 3.77811 -0.451578 0
M  V30 7502 H 703.77 3.20759 -2.18484 0
M  V30 7503 H 701.871 3.71906 0.227292 0
M  V30 7504 H 701.984 4.56415 -1.45679 0
M  V30 7505 H 700.348 2.45407 -0.681723 0
M  V30 7506 H 701.131 2.50025 -2.3525 0
M  V30 7507 N 703.576 0.692616 1.41565 0
M  V30 7508 C 704.806 0.230943 2.05305 0
M  V30 7509 C 705.214 -1.12379 1.52209 0
M  V30 7510 O 704.557 -1.71281 0.663968 0
M  V30 7511 C 704.619 0.107894 3.59338 0
M  V30 7512 C 704.283 1.39419 4.35214 0
M  V30 7513 C 705.28 2.33143 4.64694 0
M  V30 7514 C 702.965 1.64674 4.74539 0
M  V30 7515 C 704.959 3.50385 5.32456 0
M  V30 7516 C 702.646 2.82202 5.42038 0
M  V30 7517 C 703.644 3.74881 5.70923 0
M  V30 7518 O 703.332 4.90351 6.37033 0
M  V30 7519 H 703.064 0.105708 0.667684 0
M  V30 7520 H 705.618 0.94488 1.82376 0
M  V30 7521 H 703.848 -0.661785 3.80995 0
M  V30 7522 H 705.537 -0.316213 4.04666 0
M  V30 7523 H 706.303 2.14887 4.34797 0
M  V30 7524 H 702.182 0.934007 4.51439 0
M  V30 7525 H 705.726 4.22743 5.54918 0
M  V30 7526 H 701.623 3.00376 5.71353 0
M  V30 7527 H 702.391 4.90128 6.55528 0
M  V30 7528 N 705.054 -1.51416 0.437162 0
M  V30 7529 C 706.017 -2.26312 -0.362729 0
M  V30 7530 C 707.017 -1.29748 -0.949847 0
M  V30 7531 O 708.207 -1.53462 -0.824325 0
M  V30 7532 C 705.339 -3.05475 -1.5132 0
M  V30 7533 H 706.532 -2.98459 0.29365 0
M  V30 7534 H 704.085 -1.55137 0.190327 0
M  V30 7535 H 704.82 -2.37744 -2.20563 0
M  V30 7536 H 704.605 -3.76401 -1.09838 0
M  V30 7537 H 706.095 -3.62209 -2.07833 0
M  V30 7538 N 706.532 -0.168513 -1.56696 0
M  V30 7539 C 707.48 0.779791 -2.19139 0
M  V30 7540 C 708.474 1.23957 -1.1546 0
M  V30 7541 O 709.68 1.20555 -1.33666 0
M  V30 7542 H 706.055 0.269739 -0.701958 0
M  V30 7543 H 708.026 0.229156 -2.97519 0
M  V30 7544 C 706.775 2.00003 -2.84419 0
M  V30 7545 H 706.098 1.65527 -3.63924 0
M  V30 7546 H 707.538 2.64251 -3.31583 0
M  V30 7547 C 705.997 2.82187 -1.84044 0
M  V30 7548 O 706.527 3.79247 -1.32418 0
M  V30 7549 N 704.733 2.47145 -1.52864 0
M  V30 7550 H 704.28 1.68277 -1.9504 0
M  V30 7551 H 704.238 3.02422 -0.859569 0
M  V30 7552 N 708.01 1.57248 0.105221 0
M  V30 7553 C 709.258 1.85204 0.808951 0
M  V30 7554 C 709.579 0.75574 1.7976 0
M  V30 7555 O 708.849 -0.218984 1.94672 0
M  V30 7556 H 707.429 0.683346 0.301739 0
M  V30 7557 H 710.091 1.94695 0.0892605 0
M  V30 7558 H 709.187 2.81595 1.34575 0
M  V30 7559 N 709.488 -0.375779 1.53054 0
M  V30 7560 C 710.716 -1.14036 1.72637 0
M  V30 7561 C 711.131 -1.83342 0.450687 0
M  V30 7562 O 710.488 -1.7318 -0.575749 0
M  V30 7563 C 710.539 -2.17841 2.88492 0
M  V30 7564 O 710.26 -1.51358 4.11123 0
M  V30 7565 C 711.761 -3.06924 3.19863 0
M  V30 7566 H 708.981 -0.341386 0.577665 0
M  V30 7567 H 711.525 -0.437809 1.99759 0
M  V30 7568 H 709.68 -2.8371 2.63794 0
M  V30 7569 H 710.094 -2.20439 4.75928 0
M  V30 7570 H 711.568 -3.75763 4.04359 0
M  V30 7571 H 712.045 -3.71169 2.34798 0
M  V30 7572 H 712.651 -2.46684 3.46449 0
M  V30 7573 N 710.966 -1.44241 -0.634997 0
M  V30 7574 C 711.896 -1.53632 -1.7584 0
M  V30 7575 C 712.877 -0.389603 -1.65578 0
M  V30 7576 O 714.062 -0.609219 -1.84397 0
M  V30 7577 C 711.192 -1.47644 -3.14354 0
M  V30 7578 C 710.146 -2.60752 -3.394 0
M  V30 7579 C 709.472 -2.39817 -4.77904 0
M  V30 7580 C 710.772 -4.02921 -3.32343 0
M  V30 7581 H 712.466 -2.47662 -1.68238 0
M  V30 7582 H 710.012 -1.19197 -0.807969 0
M  V30 7583 H 711.965 -1.52815 -3.92716 0
M  V30 7584 H 710.689 -0.501284 -3.2273 0
M  V30 7585 H 709.348 -2.54965 -2.63417 0
M  V30 7586 H 708.996 -1.40502 -4.82978 0
M  V30 7587 H 708.696 -3.15649 -4.9562 0
M  V30 7588 H 710.22 -2.46799 -5.585 0
M  V30 7589 H 711.634 -4.10098 -4.00615 0
M  V30 7590 H 710.031 -4.78925 -3.61595 0
M  V30 7591 H 711.101 -4.26766 -2.30215 0
M  V30 7592 N 712.444 0.87505 -1.31075 0
M  V30 7593 C 713.692 1.62447 -1.20231 0
M  V30 7594 C 714.013 1.93506 0.240888 0
M  V30 7595 O 713.283 1.57847 1.16022 0
M  V30 7596 H 711.863 0.602207 -0.441991 0
M  V30 7597 H 714.525 1.04788 -1.64334 0
M  V30 7598 H 713.621 2.57031 -1.77036 0
M  V30 7599 N 713.922 1.13953 1.08869 0
M  V30 7600 C 715.171 0.899431 1.80536 0
M  V30 7601 C 715.484 -0.575781 1.86933 0
M  V30 7602 O 716.69 -0.932988 2.54966 0
M  V30 7603 C 715.146 1.55963 3.24351 0
M  V30 7604 C 714.754 3.07077 3.26202 0
M  V30 7605 C 716.498 1.40046 4.00733 0
M  V30 7606 C 714.405 3.65955 4.64576 0
M  V30 7607 H 713.335 0.332849 0.676556 0
M  V30 7608 H 715.986 1.3679 1.22314 0
M  V30 7609 H 714.368 1.01883 3.82669 0
M  V30 7610 H 715.542 3.67785 2.77617 0
M  V30 7611 H 713.857 3.22576 2.63312 0
M  V30 7612 H 716.454 1.81441 5.02974 0
M  V30 7613 H 716.797 0.345993 4.1486 0
M  V30 7614 H 717.33 1.91137 3.48872 0
M  V30 7615 H 714.069 4.71234 4.55652 0
M  V30 7616 H 713.589 3.10027 5.13462 0
M  V30 7617 H 715.268 3.65968 5.33551 0
M  V30 7618 N 715.4 -1.26948 0.933913 0
M  V30 7619 C 716.816 -1.46419 0.635103 0
M  V30 7620 C 717.016 -1.84336 -0.813785 0
M  V30 7621 O 716.072 -1.96061 -1.59111 0
M  V30 7622 C 717.385 -2.55206 1.5903 0
M  V30 7623 C 718.933 -2.69062 1.5992 0
M  V30 7624 C 719.408 -3.81013 2.54152 0
M  V30 7625 N 720.899 -3.88395 2.52395 0
M  V30 7626 C 721.634 -4.74454 3.21996 0
M  V30 7627 N 721.13 -5.64954 4.00997 0
M  V30 7628 N 722.923 -4.68237 3.10983 0
M  V30 7629 H 715.074 -1.00622 1.87053 0
M  V30 7630 H 717.337 -0.503189 0.803433 0
M  V30 7631 H 717.043 -2.34153 2.62422 0
M  V30 7632 H 716.917 -3.52719 1.33677 0
M  V30 7633 H 719.304 -2.89492 0.572569 0
M  V30 7634 H 719.385 -1.72016 1.89325 0
M  V30 7635 H 719.029 -3.61336 3.5693 0
M  V30 7636 H 718.959 -4.77499 2.22041 0
M  V30 7637 H 721.45 -3.23687 1.95025 0
M  V30 7638 H 721.763 -6.27496 4.51074 0
M  V30 7639 H 720.108 -5.6473 4.05099 0
M  V30 7640 H 723.299 -3.96535 2.48753 0
M  V30 7641 H 723.472 -5.35087 3.65494 0
M  V30 7642 N 716.879 -0.700114 -1.41195 0
M  V30 7643 C 718.156 -0.160836 -1.94938 0
M  V30 7644 C 718.536 1.33014 -1.63922 0
M  V30 7645 O 717.884 2.07878 -0.948636 0
M  V30 7646 C 718.094 -0.456991 -3.45995 0
M  V30 7647 C 719.442 -0.387207 -4.22831 0
M  V30 7648 O 720.466 -0.392164 -3.54035 0
M  V30 7649 O 719.325 -0.351267 -5.4537 0
M  V30 7650 H 716.419 -0.0176304 -0.826812 0
M  V30 7651 H 718.965 -0.776586 -1.50888 0
M  V30 7652 H 717.737 -1.48884 -3.61869 0
M  V30 7653 H 717.36 0.189503 -3.97148 0
M  V30 7654 N 718.357 1.51182 -0.445186 0
M  V30 7655 C 719.287 2.30821 0.352686 0
M  V30 7656 C 720.268 1.36576 1.01395 0
M  V30 7657 O 721.453 1.65497 1.01609 0
M  V30 7658 C 718.583 3.15593 1.44976 0
M  V30 7659 C 717.537 4.1818 0.911553 0
M  V30 7660 C 716.863 4.91523 2.10497 0
M  V30 7661 C 718.163 5.22266 -0.059418 0
M  V30 7662 H 719.857 2.97771 -0.311936 0
M  V30 7663 H 717.403 1.43201 -0.151461 0
M  V30 7664 H 719.356 3.70091 2.01521 0
M  V30 7665 H 718.08 2.4648 2.14278 0
M  V30 7666 H 716.739 3.64746 0.368264 0
M  V30 7667 H 716.387 4.18906 2.78437 0
M  V30 7668 H 716.087 5.60898 1.7512 0
M  V30 7669 H 717.611 5.48847 2.6758 0
M  V30 7670 H 719.025 5.71789 0.415985 0
M  V30 7671 H 717.422 5.99213 -0.326152 0
M  V30 7672 H 718.492 4.7461 -0.993631 0
M  V30 7673 N 719.835 0.176821 1.56605 0
M  V30 7674 C 720.767 -0.782836 2.15417 0
M  V30 7675 C 721.78 -1.18982 1.11117 0
M  V30 7676 O 722.969 -1.12872 1.38283 0
M  V30 7677 C 720.069 -2.06596 2.68647 0
M  V30 7678 C 719.242 -1.82167 3.9766 0
M  V30 7679 C 718.301 -2.94751 4.35899 0
M  V30 7680 O 717.327 -2.65148 5.03672 0
M  V30 7681 N 718.529 -4.2267 3.97907 0
M  V30 7682 H 721.294 -0.280012 2.98389 0
M  V30 7683 H 718.855 -0.00577529 1.61899 0
M  V30 7684 H 720.847 -2.81018 2.91223 0
M  V30 7685 H 719.417 -2.48054 1.90232 0
M  V30 7686 H 718.637 -0.916208 3.83405 0
M  V30 7687 H 719.925 -1.6322 4.81909 0
M  V30 7688 H 719.323 -4.4958 3.43357 0
M  V30 7689 H 717.88 -4.93778 4.25472 0
M  V30 7690 N 721.313 -1.57302 -0.09688 0
M  V30 7691 C 722.276 -2.00976 -1.10188 0
M  V30 7692 C 723.276 -0.903009 -1.3305 0
M  V30 7693 O 724.466 -1.16853 -1.29194 0
M  V30 7694 C 721.598 -2.36893 -2.45142 0
M  V30 7695 H 722.791 -2.9098 -0.726003 0
M  V30 7696 H 720.344 -1.52515 -0.341872 0
M  V30 7697 H 721.079 -1.49837 -2.8761 0
M  V30 7698 H 720.864 -3.17632 -2.29897 0
M  V30 7699 H 722.354 -2.71345 -3.1743 0
M  V30 7700 N 722.791 0.367657 -1.53252 0
M  V30 7701 C 723.739 1.47061 -1.8021 0
M  V30 7702 C 724.733 1.55539 -0.671112 0
M  V30 7703 O 725.939 1.58451 -0.854014 0
M  V30 7704 H 722.314 0.489868 -0.570555 0
M  V30 7705 H 724.285 1.21527 -2.72532 0
M  V30 7706 C 723.034 2.83924 -2.00706 0
M  V30 7707 H 722.357 2.78158 -2.87172 0
M  V30 7708 H 723.797 3.60281 -2.23547 0
M  V30 7709 C 722.256 3.27613 -0.785568 0
M  V30 7710 O 722.786 4.01691 0.0267459 0
M  V30 7711 N 720.992 2.84134 -0.609597 0
M  V30 7712 H 720.539 2.24017 -1.27178 0
M  V30 7713 H 720.497 3.13723 0.206281 0
M  V30 7714 N 724.269 1.44576 0.627338 0
M  V30 7715 C 725.546 1.38033 1.38586 0
M  V30 7716 C 725.926 0.0409468 2.1106 0
M  V30 7717 O 725.274 -0.976582 2.0658 0
M  V30 7718 C 725.484 2.58102 2.34913 0
M  V30 7719 C 726.832 3.02332 2.98129 0
M  V30 7720 O 727.856 2.58334 2.45238 0
M  V30 7721 O 726.715 3.78628 3.94085 0
M  V30 7722 H 723.809 0.546801 0.620434 0
M  V30 7723 H 726.355 1.56672 0.652077 0
M  V30 7724 H 725.127 3.4719 1.80485 0
M  V30 7725 H 724.75 2.41696 3.15703 0
M  V30 7726 N 725.747 -0.868086 1.31537 0
M  V30 7727 C 726.975 -1.65402 1.24298 0
M  V30 7728 C 727.39 -1.87827 -0.191389 0
M  V30 7729 O 726.747 -1.43776 -1.12404 0
M  V30 7730 C 726.798 -3.02093 1.9855 0
M  V30 7731 O 726.519 -2.80668 3.36388 0
M  V30 7732 C 728.02 -3.96538 1.98173 0
M  V30 7733 H 725.24 -0.515598 0.429417 0
M  V30 7734 H 727.784 -1.0834 1.73444 0
M  V30 7735 H 725.939 -3.55838 1.53161 0
M  V30 7736 H 726.353 -3.67504 3.74221 0
M  V30 7737 H 727.827 -4.8976 2.54635 0
M  V30 7738 H 728.304 -4.28474 0.964697 0
M  V30 7739 H 728.91 -3.48729 2.4345 0
M  V30 7740 N 727.225 -1.14528 -1.08264 0
M  V30 7741 C 728.473 -0.912599 -1.80322 0
M  V30 7742 C 728.794 0.562256 -1.86718 0
M  V30 7743 O 728.064 1.40869 -1.36135 0
M  V30 7744 H 726.644 -0.334645 -0.667849 0
M  V30 7745 H 729.306 -1.44415 -1.30883 0
M  V30 7746 H 728.402 -1.31384 -2.83098 0
M  V30 7747 N 728.703 1.26451 -0.940633 0
M  V30 7748 C 730.119 1.4608 -0.642859 0
M  V30 7749 C 730.319 1.84765 0.803998 0
M  V30 7750 O 729.375 1.96902 1.58069 0
M  V30 7751 C 730.688 2.54359 -1.60381 0
M  V30 7752 C 732.236 2.6821 -1.61345 0
M  V30 7753 C 732.711 3.79659 -2.56169 0
M  V30 7754 N 734.202 3.87051 -2.54452 0
M  V30 7755 C 734.937 4.72739 -3.24507 0
M  V30 7756 N 734.433 5.6282 -4.03987 0
M  V30 7757 N 736.226 4.66581 -3.13462 0
M  V30 7758 H 728.377 0.996289 -1.87584 0
M  V30 7759 H 730.64 0.498921 -0.80609 0
M  V30 7760 H 730.346 2.32758 -2.6366 0
M  V30 7761 H 730.22 3.52005 -1.35545 0
M  V30 7762 H 732.607 2.89184 -0.587913 0
M  V30 7763 H 732.688 1.7101 -1.90235 0
M  V30 7764 H 732.332 3.59438 -3.58841 0
M  V30 7765 H 732.262 4.76315 -2.2457 0
M  V30 7766 H 734.753 3.22649 -1.96739 0
M  V30 7767 H 735.066 6.25095 -4.54396 0
M  V30 7768 H 733.411 5.62574 -4.08088 0
M  V30 7769 H 736.602 3.9521 -2.50852 0
M  V30 7770 H 736.775 5.33141 -3.68327 0
M  V30 7771 N 730.181 0.707592 1.40822 0
M  V30 7772 C 731.411 0.252706 2.05049 0
M  V30 7773 C 731.819 -1.10758 1.53393 0
M  V30 7774 O 731.162 -1.70567 0.682097 0
M  V30 7775 C 731.224 0.146001 3.59203 0
M  V30 7776 C 730.888 1.44027 4.33711 0
M  V30 7777 C 731.885 2.38058 4.62195 0
M  V30 7778 C 729.57 1.69698 4.72766 0
M  V30 7779 C 731.564 3.56013 5.28709 0
M  V30 7780 C 729.251 2.87936 5.39014 0
M  V30 7781 C 730.249 3.80915 5.66915 0
M  V30 7782 O 729.937 4.9708 6.31796 0
M  V30 7783 H 729.669 0.112784 0.666525 0
M  V30 7784 H 732.223 0.96417 1.81364 0
M  V30 7785 H 730.453 -0.621338 3.81676 0
M  V30 7786 H 732.142 -0.273275 4.04979 0
M  V30 7787 H 732.908 2.19487 4.32493 0
M  V30 7788 H 728.787 0.981835 4.50423 0
M  V30 7789 H 732.331 4.28604 5.50404 0
M  V30 7790 H 728.228 3.06419 5.68135 0
M  V30 7791 H 728.996 4.97053 6.50293 0
M  V30 7792 N 731.66 -1.50943 0.453197 0
M  V30 7793 C 732.907 -2.02212 -0.107922 0
M  V30 7794 C 733.235 -1.33639 -1.41318 0
M  V30 7795 O 732.49 -0.445154 -1.9057 0
M  V30 7796 C 732.789 -3.55603 -0.357944 0
M  V30 7797 C 732.455 -4.42556 0.863427 0
M  V30 7798 C 731.117 -4.6604 1.19834 0
M  V30 7799 C 733.469 -4.93468 1.67747 0
M  V30 7800 C 730.797 -5.37681 2.34768 0
M  V30 7801 C 733.149 -5.6637 2.81793 0
M  V30 7802 C 731.813 -5.88113 3.1572 0
M  V30 7803 H 731.083 -0.739947 -0.0394916 0
M  V30 7804 H 733.73 -1.81738 0.60363 0
M  V30 7805 H 732.035 -3.74495 -1.15156 0
M  V30 7806 H 733.732 -3.92821 -0.805781 0
M  V30 7807 H 730.322 -4.24485 0.592478 0
M  V30 7808 H 734.506 -4.75194 1.43192 0
M  V30 7809 H 729.762 -5.52727 2.61348 0
M  V30 7810 H 733.936 -6.04806 3.45229 0
M  V30 7811 H 731.563 -6.43404 4.04889 0
M  V30 7812 N 733.138 -0.185124 -1.56509 0
M  V30 7813 C 734.378 0.458547 -1.9919 0
M  V30 7814 C 734.742 1.59484 -1.06906 0
M  V30 7815 O 735.943 2.30201 -1.38783 0
M  V30 7816 C 734.214 0.916263 -3.45455 0
M  V30 7817 S 735.773 1.55918 -4.10165 0
M  V30 7818 H 732.591 0.147008 -0.695636 0
M  V30 7819 H 735.193 -0.285841 -1.93399 0
M  V30 7820 H 733.897 0.0790543 -4.10324 0
M  V30 7821 H 733.428 1.69436 -3.55042 0
M  V30 7822 H 735.443 2.84771 -4.0635 0
M  V30 7823 N 734.616 1.57351 0.0885366 0
M  V30 7824 C 735.546 2.05561 1.10757 0
M  V30 7825 C 736.527 0.945789 1.41382 0
M  V30 7826 O 737.712 1.21747 1.51299 0
M  V30 7827 C 734.842 2.48554 2.42566 0
M  V30 7828 C 733.796 3.63259 2.26334 0
M  V30 7829 C 733.122 3.9225 3.63378 0
M  V30 7830 C 734.422 4.93913 1.69844 0
M  V30 7831 H 736.116 2.90946 0.706468 0
M  V30 7832 H 733.662 1.39968 0.338385 0
M  V30 7833 H 735.615 2.8089 3.14132 0
M  V30 7834 H 734.339 1.60176 2.84625 0
M  V30 7835 H 732.998 3.31179 1.57213 0
M  V30 7836 H 732.646 3.0103 4.02976 0
M  V30 7837 H 732.346 4.69478 3.53362 0
M  V30 7838 H 733.87 4.27067 4.36401 0
M  V30 7839 H 735.284 5.24588 2.31258 0
M  V30 7840 H 733.681 5.75349 1.70569 0
M  V30 7841 H 734.751 4.80409 0.65843 0
M  V30 7842 N 736.094 -0.359525 1.53444 0
M  V30 7843 C 737.057 -1.42357 1.7963 0
M  V30 7844 C 738.057 -1.46319 0.666884 0
M  V30 7845 O 739.247 -1.46974 0.935113 0
M  V30 7846 C 736.379 -2.81425 1.92387 0
M  V30 7847 H 737.572 -1.20409 2.74666 0
M  V30 7848 H 735.125 -0.593007 1.44614 0
M  V30 7849 H 735.86 -3.08679 0.994384 0
M  V30 7850 H 735.645 -2.79947 2.74539 0
M  V30 7851 H 737.135 -3.5847 2.14218 0
M  V30 7852 N 737.572 -1.44907 -0.619662 0
M  V30 7853 C 738.535 -1.52282 -1.71297 0
M  V30 7854 C 739.535 -0.40359 -1.55653 0
M  V30 7855 O 740.725 -0.666638 -1.6094 0
M  V30 7856 C 737.857 -1.40778 -3.10474 0
M  V30 7857 H 739.05 -2.49683 -1.66128 0
M  V30 7858 H 736.603 -1.32168 -0.834339 0
M  V30 7859 H 737.338 -0.445156 -3.2123 0
M  V30 7860 H 737.123 -2.21947 -3.23237 0
M  V30 7861 H 738.613 -1.48946 -3.90135 0
M  V30 7862 N 739.05 0.861098 -1.31996 0
M  V30 7863 C 739.998 1.99052 -1.20337 0
M  V30 7864 C 740.992 1.69045 -0.109623 0
M  V30 7865 O 742.198 1.77931 -0.272117 0
M  V30 7866 H 738.573 0.653064 -0.372843 0
M  V30 7867 H 740.544 2.06015 -2.15872 0
M  V30 7868 C 739.293 3.34846 -0.936663 0
M  V30 7869 H 738.616 3.58462 -1.77045 0
M  V30 7870 H 740.056 4.1444 -0.895302 0
M  V30 7871 C 738.515 3.34965 0.360607 0
M  V30 7872 O 739.045 3.7745 1.37456 0
M  V30 7873 N 737.251 2.88101 0.380296 0
M  V30 7874 H 736.798 2.53721 -0.445351 0
M  V30 7875 H 736.756 2.88563 1.24816 0
M  V30 7876 N 740.528 1.15101 1.07655 0
M  V30 7877 C 741.805 0.834578 1.76902 0
M  V30 7878 C 742.185 -0.670431 2.00171 0
M  V30 7879 O 741.533 -1.61378 1.6177 0
M  V30 7880 C 741.743 1.64191 3.07965 0
M  V30 7881 C 743.091 1.84615 3.82364 0
M  V30 7882 O 744.115 1.60941 3.17768 0
M  V30 7883 O 742.974 2.24244 4.98374 0
M  V30 7884 H 740.068 0.306608 0.768063 0
M  V30 7885 H 742.614 1.25663 1.14048 0
M  V30 7886 H 741.386 2.66386 2.86626 0
M  V30 7887 H 741.009 1.216 3.78549 0
M  V30 7888 N 742.006 -1.2595 0.947325 0
M  V30 7889 C 742.938 -2.25336 0.41906 0
M  V30 7890 C 743.951 -1.56135 -0.461051 0
M  V30 7891 O 745.14 -1.76438 -0.270505 0
M  V30 7892 C 742.24 -3.36334 -0.416233 0
M  V30 7893 C 741.413 -4.35088 0.449162 0
M  V30 7894 C 740.472 -5.25185 -0.326716 0
M  V30 7895 O 739.498 -5.68548 0.272374 0
M  V30 7896 N 740.7 -5.57388 -1.6217 0
M  V30 7897 H 743.465 -2.71298 1.27348 0
M  V30 7898 H 741.026 -1.39781 0.81688 0
M  V30 7899 H 743.018 -3.93564 -0.942826 0
M  V30 7900 H 741.588 -2.89819 -1.17148 0
M  V30 7901 H 740.808 -3.76841 1.15692 0
M  V30 7902 H 742.096 -4.98056 1.04008 0
M  V30 7903 H 741.494 -5.2405 -2.13046 0
M  V30 7904 H 740.051 -6.17234 -2.0944 0
M  V30 7905 N 743.484 -0.715051 -1.40445 0
M  V30 7906 C 744.432 -0.0509974 -2.32544 0
M  V30 7907 C 745.426 0.747602 -1.52011 0
M  V30 7908 O 746.632 0.651031 -1.67814 0
M  V30 7909 H 743.007 0.00231113 -0.751996 0
M  V30 7910 H 744.978 -0.84449 -2.86201 0
M  V30 7911 C 743.727 0.857101 -3.3697 0
M  V30 7912 H 743.05 0.252 -3.99005 0
M  V30 7913 H 744.49 1.28971 -4.03909 0
M  V30 7914 C 742.949 1.98231 -2.72408 0
M  V30 7915 O 743.479 3.07309 -2.58697 0
M  V30 7916 N 741.685 1.76577 -2.308 0
M  V30 7917 H 741.232 0.878641 -2.42152 0
M  V30 7918 H 741.19 2.52043 -1.87941 0
M  V30 7919 N 744.962 1.50701 -0.461195 0
M  V30 7920 C 745.91 2.29918 0.352231 0
M  V30 7921 C 746.904 1.36778 0.999403 0
M  V30 7922 O 748.11 1.54015 0.931639 0
M  V30 7923 H 744.485 0.740249 0.132423 0
M  V30 7924 H 746.456 2.96497 -0.336424 0
M  V30 7925 C 745.205 3.17052 1.42736 0
M  V30 7926 H 744.528 3.88623 0.938747 0
M  V30 7927 H 745.968 3.75493 1.96928 0
M  V30 7928 C 744.427 2.3399 2.42384 0
M  V30 7929 O 744.957 2.01608 3.47444 0
M  V30 7930 N 743.163 1.96758 2.13857 0
M  V30 7931 H 742.71 2.23292 1.28447 0
M  V30 7932 H 742.668 1.41484 2.80766 0
M  V30 7933 N 746.441 0.193421 1.56409 0
M  V30 7934 C 747.687 -0.446449 1.97825 0
M  V30 7935 C 748.02 -1.61386 1.08019 0
M  V30 7936 O 747.295 -1.94053 0.131839 0
M  V30 7937 C 747.578 -0.908199 3.48459 0
M  V30 7938 C 747.431 0.260914 4.49043 0
M  V30 7939 C 748.75 -1.77428 4.0275 0
M  V30 7940 H 745.869 -0.160807 0.719243 0
M  V30 7941 H 748.511 0.284006 1.87865 0
M  V30 7942 H 746.661 -1.53062 3.57077 0
M  V30 7943 H 748.333 0.898548 4.52464 0
M  V30 7944 H 746.576 0.912949 4.24085 0
M  V30 7945 H 747.247 -0.104657 5.51901 0
M  V30 7946 H 749.723 -1.24936 3.96901 0
M  V30 7947 H 748.599 -2.06633 5.08521 0
M  V30 7948 H 748.86 -2.72788 3.47907 0
M  V30 7949 N 747.919 -1.57396 -0.0801906 0
M  V30 7950 C 749.147 -1.91055 -0.794075 0
M  V30 7951 C 749.562 -0.788583 -1.71542 0
M  V30 7952 O 748.919 0.238587 -1.80934 0
M  V30 7953 C 748.97 -3.24418 -1.59484 0
M  V30 7954 O 748.691 -4.323 -0.710532 0
M  V30 7955 C 750.192 -3.72037 -2.41046 0
M  V30 7956 H 747.412 -0.63171 -0.226238 0
M  V30 7957 H 749.956 -2.04431 -0.0529685 0
M  V30 7958 H 748.111 -3.12595 -2.2883 0
M  V30 7959 H 748.525 -5.08976 -1.26663 0
M  V30 7960 H 749.999 -4.68006 -2.92702 0
M  V30 7961 H 750.476 -3.00624 -3.2019 0
M  V30 7962 H 751.082 -3.86777 -1.76871 0
M  V30 7963 N 749.397 0.351382 -1.53633 0
M  V30 7964 C 750.646 1.08988 -1.69719 0
M  V30 7965 C 750.959 1.90043 -0.462948 0
M  V30 7966 O 752.165 2.66769 -0.504613 0
M  V30 7967 C 750.621 1.98691 -3.00083 0
M  V30 7968 C 750.229 1.22881 -4.30818 0
M  V30 7969 C 751.973 2.72446 -3.25536 0
M  V30 7970 C 749.88 2.11568 -5.52262 0
M  V30 7971 H 748.81 0.410588 -0.632403 0
M  V30 7972 H 751.461 0.349886 -1.80133 0
M  V30 7973 H 749.843 2.76478 -2.83506 0
M  V30 7974 H 751.017 0.500582 -4.58073 0
M  V30 7975 H 749.332 0.60928 -4.11918 0
M  V30 7976 H 751.929 3.39055 -4.13456 0
M  V30 7977 H 752.272 3.38588 -2.42206 0
M  V30 7978 H 752.805 2.01735 -3.42852 0
M  V30 7979 H 749.544 1.4998 -6.38111 0
M  V30 7980 H 749.064 2.82201 -5.29266 0
M  V30 7981 H 750.743 2.70802 -5.87601 0
M  V30 7982 N 750.875 1.45233 0.611969 0
M  V30 7983 C 751.808 1.48056 1.73651 0
M  V30 7984 C 752.786 0.337373 1.59061 0
M  V30 7985 O 753.97 0.537222 1.80683 0
M  V30 7986 C 751.097 1.33144 3.11433 0
M  V30 7987 C 750.143 2.51272 3.44623 0
M  V30 7988 S 750.976 4.13754 3.39953 0
M  V30 7989 C 752.132 4.013 4.80322 0
M  V30 7990 H 752.365 2.43205 1.70993 0
M  V30 7991 H 749.898 1.32763 0.788246 0
M  V30 7992 H 751.856 1.25228 3.90932 0
M  V30 7993 H 750.517 0.394734 3.1161 0
M  V30 7994 H 749.71 2.36753 4.44932 0
M  V30 7995 H 749.312 2.56027 2.72629 0
M  V30 7996 H 751.604 3.66174 5.7002 0
M  V30 7997 H 752.547 5.01506 4.99897 0
M  V30 7998 H 752.955 3.3303 4.55797 0
M  V30 7999 N 752.353 -0.854086 1.3245 0
M  V30 8000 C 753.316 -1.94427 1.21371 0
M  V30 8001 C 754.316 -1.60219 0.136613 0
M  V30 8002 O 755.506 -1.69846 0.387057 0
M  V30 8003 C 752.638 -3.29698 0.866701 0
M  V30 8004 H 753.831 -2.05679 2.18257 0
M  V30 8005 H 751.384 -1.04434 1.1629 0
M  V30 8006 H 752.119 -3.24145 -0.100319 0
M  V30 8007 H 751.904 -3.55903 1.64545 0
M  V30 8008 H 753.394 -4.09599 0.813515 0
M  V30 8009 N 753.831 -1.1567 -1.07043 0
M  V30 8010 C 754.779 -0.852204 -2.16426 0
M  V30 8011 C 755.773 0.175661 -1.68487 0
M  V30 8012 O 756.979 0.0303874 -1.79974 0
M  V30 8013 H 753.354 -0.257942 -0.706378 0
M  V30 8014 H 755.325 -1.78231 -2.39324 0
M  V30 8015 C 754.074 -0.361362 -3.45817 0
M  V30 8016 H 753.397 -1.14369 -3.83092 0
M  V30 8017 H 754.837 -0.186997 -4.23587 0
M  V30 8018 C 753.296 0.917703 -3.2416 0
M  V30 8019 O 753.826 1.98858 -3.49025 0
M  V30 8020 N 752.032 0.858456 -2.77631 0
M  V30 8021 H 751.579 -0.0131821 -2.57597 0
M  V30 8022 H 751.537 1.71478 -2.6352 0
M  V30 8023 N 755.309 1.25446 -0.953992 0
M  V30 8024 C 756.239 2.28264 -0.491717 0
M  V30 8025 C 757.22 1.63717 0.461617 0
M  V30 8026 O 758.405 1.90821 0.36071 0
M  V30 8027 C 755.535 3.46525 0.231915 0
M  V30 8028 C 754.489 4.23247 -0.636098 0
M  V30 8029 C 753.815 5.34254 0.218238 0
M  V30 8030 C 755.115 4.85971 -1.91389 0
M  V30 8031 H 756.809 2.67183 -1.35106 0
M  V30 8032 H 754.355 1.2844 -0.651095 0
M  V30 8033 H 756.308 4.17576 0.566439 0
M  V30 8034 H 755.032 3.06594 1.12551 0
M  V30 8035 H 753.691 3.53978 -0.953696 0
M  V30 8036 H 753.339 4.90564 1.11156 0
M  V30 8037 H 753.039 5.86501 -0.359232 0
M  V30 8038 H 754.563 6.08138 0.547743 0
M  V30 8039 H 755.977 5.49168 -1.64581 0
M  V30 8040 H 754.374 5.48391 -2.43696 0
M  V30 8041 H 755.444 4.08192 -2.61738 0
M  V30 8042 N 756.787 0.722489 1.40064 0
M  V30 8043 C 757.734 0.0743738 2.3068 0
M  V30 8044 C 758.704 -0.743004 1.48555 0
M  V30 8045 O 759.889 -0.705536 1.77276 0
M  V30 8046 C 757.029 -0.836292 3.34814 0
M  V30 8047 C 756.142 -0.00764663 4.31999 0
M  V30 8048 C 755.277 -0.918428 5.232 0
M  V30 8049 C 754.316 -0.0842838 6.12042 0
M  V30 8050 N 753.453 -0.950316 6.95639 0
M  V30 8051 H 758.293 0.852794 2.85537 0
M  V30 8052 H 755.83 0.432222 1.40607 0
M  V30 8053 H 757.788 -1.3786 3.93765 0
M  V30 8054 H 756.418 -1.58082 2.81443 0
M  V30 8055 H 755.47 0.651928 3.74772 0
M  V30 8056 H 756.782 0.63786 4.94705 0
M  V30 8057 H 755.936 -1.52902 5.87116 0
M  V30 8058 H 754.675 -1.59774 4.60786 0
M  V30 8059 H 753.68 0.5392 5.4715 0
M  V30 8060 H 754.905 0.591628 6.76518 0
M  V30 8061 H 752.851 -1.61515 6.35806 0
M  V30 8062 H 752.768 -0.361004 7.55138 0
M  V30 8063 H 754.036 -1.54687 7.63997 0
M  V30 8064 N 758.265 -1.50454 0.469181 0
M  V30 8065 C 759.511 -2.02615 -0.0865971 0
M  V30 8066 C 759.844 -1.35062 -1.39542 0
M  V30 8067 O 759.119 -0.475701 -1.88593 0
M  V30 8068 C 759.402 -3.59068 -0.272385 0
M  V30 8069 C 759.255 -4.37196 1.05733 0
M  V30 8070 C 760.574 -4.2793 -1.0278 0
M  V30 8071 H 757.693 -0.736389 -0.0299977 0
M  V30 8072 H 760.335 -1.79792 0.614399 0
M  V30 8073 H 758.485 -3.78646 -0.869471 0
M  V30 8074 H 760.157 -4.29195 1.69084 0
M  V30 8075 H 758.4 -4.01013 1.65442 0
M  V30 8076 H 759.071 -5.44924 0.880997 0
M  V30 8077 H 761.547 -4.12816 -0.521718 0
M  V30 8078 H 760.423 -5.37214 -1.12659 0
M  V30 8079 H 760.684 -3.90968 -2.0639 0
M  V30 8080 N 759.743 -0.201713 -1.56304 0
M  V30 8081 C 760.69 0.716499 -2.19397 0
M  V30 8082 C 761.66 1.20494 -1.14326 0
M  V30 8083 O 762.845 1.26763 -1.42604 0
M  V30 8084 C 759.985 1.92762 -2.86246 0
M  V30 8085 C 759.098 1.47993 -4.0586 0
M  V30 8086 C 758.233 2.64706 -4.60547 0
M  V30 8087 C 757.272 2.16576 -5.72504 0
M  V30 8088 N 756.409 3.26491 -6.21569 0
M  V30 8089 H 761.249 0.171724 -2.97505 0
M  V30 8090 H 758.786 0.073016 -1.46919 0
M  V30 8091 H 760.744 2.6384 -3.23178 0
M  V30 8092 H 759.374 2.44559 -2.10691 0
M  V30 8093 H 758.426 0.66477 -3.74546 0
M  V30 8094 H 759.738 1.08686 -4.86815 0
M  V30 8095 H 758.892 3.43898 -4.99819 0
M  V30 8096 H 757.631 3.0729 -3.78713 0
M  V30 8097 H 756.636 1.3584 -5.32755 0
M  V30 8098 H 757.861 1.75015 -6.56161 0
M  V30 8099 H 755.807 3.68594 -5.42655 0
M  V30 8100 H 755.724 2.91374 -6.97594 0
M  V30 8101 H 756.992 4.05877 -6.65495 0
M  V30 8102 N 761.222 1.57436 0.0718424 0
M  V30 8103 C 762.499 1.78312 0.804006 0
M  V30 8104 C 762.879 0.789273 1.9579 0
M  V30 8105 O 762.227 -0.177605 2.27809 0
M  V30 8106 C 762.437 3.24798 1.277 0
M  V30 8107 C 763.785 3.88627 1.71039 0
M  V30 8108 O 764.809 3.28689 1.37266 0
M  V30 8109 O 763.668 4.94073 2.33567 0
M  V30 8110 H 760.762 0.73178 0.385262 0
M  V30 8111 H 763.308 1.69621 0.0519219 0
M  V30 8112 H 762.08 3.88688 0.45134 0
M  V30 8113 H 761.703 3.38213 2.0904 0
M  V30 8114 N 762.7 -0.34323 1.53817 0
M  V30 8115 C 763.663 -1.40444 1.8113 0
M  V30 8116 C 764.663 -1.45604 0.682366 0
M  V30 8117 O 765.853 -1.45974 0.950649 0
M  V30 8118 C 762.985 -2.79369 1.95361 0
M  V30 8119 H 764.178 -1.17489 2.75928 0
M  V30 8120 H 761.731 -0.577636 1.45234 0
M  V30 8121 H 762.466 -3.07607 1.02707 0
M  V30 8122 H 762.251 -2.7702 2.77493 0
M  V30 8123 H 763.741 -3.56178 2.18008 0
M  V30 8124 N 764.178 -1.45556 -0.604258 0
M  V30 8125 C 765.406 -1.53278 -1.38973 0
M  V30 8126 C 765.821 -0.166509 -1.88064 0
M  V30 8127 O 765.178 0.832519 -1.62405 0
M  V30 8128 C 765.229 -2.51992 -2.59195 0
M  V30 8129 O 764.95 -3.8331 -2.12143 0
M  V30 8130 C 766.451 -2.69445 -3.52015 0
M  V30 8131 H 763.671 -0.519003 -0.425297 0
M  V30 8132 H 766.215 -1.90773 -0.736621 0
M  V30 8133 H 764.37 -2.17561 -3.2054 0
M  V30 8134 H 764.784 -4.3685 -2.90279 0
M  V30 8135 H 766.258 -3.42485 -4.32907 0
M  V30 8136 H 766.735 -1.75596 -4.0257 0
M  V30 8137 H 767.341 -3.04886 -2.9652 0
M  V30 8138 N 765.656 0.84705 -1.32902 0
M  V30 8139 C 766.588 1.96308 -1.18304 0
M  V30 8140 C 767.601 1.62386 -0.116082 0
M  V30 8141 O 768.79 1.74713 -0.365751 0
M  V30 8142 C 765.89 3.29556 -0.790305 0
M  V30 8143 C 765.063 3.91668 -1.94717 0
M  V30 8144 C 764.122 5.0326 -1.53674 0
M  V30 8145 O 763.148 5.22847 -2.24989 0
M  V30 8146 N 764.35 5.78852 -0.437075 0
M  V30 8147 H 767.115 2.09369 -2.14441 0
M  V30 8148 H 764.676 1.02233 -1.25539 0
M  V30 8149 H 766.668 4.01624 -0.49799 0
M  V30 8150 H 765.238 3.12497 0.0801286 0
M  V30 8151 H 764.458 3.12292 -2.40557 0
M  V30 8152 H 765.746 4.299 -2.72146 0
M  V30 8153 H 765.144 5.65484 0.156316 0
M  V30 8154 H 763.701 6.51479 -0.204399 0
M  V30 8155 N 767.134 1.16236 1.06428 0
M  V30 8156 C 768.383 0.937523 1.78587 0
M  V30 8157 C 768.696 -0.536 1.88113 0
M  V30 8158 O 769.902 -0.878697 2.56887 0
M  V30 8159 C 768.358 1.62808 3.2097 0
M  V30 8160 C 767.966 3.13927 3.19615 0
M  V30 8161 C 769.71 1.48515 3.97673 0
M  V30 8162 C 767.617 3.75727 4.56709 0
M  V30 8163 H 766.547 0.347125 0.669343 0
M  V30 8164 H 769.198 1.39353 1.19385 0
M  V30 8165 H 767.58 1.09977 3.80422 0
M  V30 8166 H 768.754 3.7359 2.69753 0
M  V30 8167 H 767.069 3.28089 2.56411 0
M  V30 8168 H 769.666 1.92069 4.99013 0
M  V30 8169 H 770.009 0.433913 4.14032 0
M  V30 8170 H 770.542 1.98494 3.44739 0
M  V30 8171 H 767.281 4.80793 4.45554 0
M  V30 8172 H 766.801 3.20849 5.0677 0
M  V30 8173 H 768.48 3.77203 5.25668 0
M  V30 8174 N 768.612 -1.24939 0.960631 0
M  V30 8175 C 769.84 -1.96881 0.636045 0
M  V30 8176 C 770.255 -1.71334 -0.793093 0
M  V30 8177 O 769.612 -0.992917 -1.53125 0
M  V30 8178 C 769.663 -3.50309 0.892533 0
M  V30 8179 O 769.384 -3.74977 2.26548 0
M  V30 8180 C 770.885 -4.39474 0.581159 0
M  V30 8181 H 768.105 -0.627399 0.237931 0
M  V30 8182 H 770.649 -1.58952 1.28664 0
M  V30 8183 H 768.804 -3.86326 0.288257 0
M  V30 8184 H 769.218 -4.69401 2.34014 0
M  V30 8185 H 770.692 -5.46008 0.811125 0
M  V30 8186 H 771.169 -4.3652 -0.48443 0
M  V30 8187 H 771.775 -4.09032 1.16502 0
M  V30 8188 N 770.09 -0.729906 -1.39679 0
M  V30 8189 C 771.022 -0.0470588 -2.29152 0
M  V30 8190 C 772.035 0.708808 -1.4656 0
M  V30 8191 O 773.224 0.553815 -1.69691 0
M  V30 8192 C 770.324 0.957612 -3.25089 0
M  V30 8193 C 769.497 0.264321 -4.36601 0
M  V30 8194 C 768.556 1.17638 -5.12882 0
M  V30 8195 O 767.582 0.655777 -5.6541 0
M  V30 8196 N 768.784 2.50649 -5.23598 0
M  V30 8197 H 771.549 -0.815364 -2.88395 0
M  V30 8198 H 769.11 -0.578707 -1.51204 0
M  V30 8199 H 771.102 1.57026 -3.72995 0
M  V30 8200 H 769.672 1.62716 -2.66912 0
M  V30 8201 H 768.892 -0.528732 -3.90638 0
M  V30 8202 H 770.18 -0.216344 -5.0834 0
M  V30 8203 H 769.578 2.95427 -4.82431 0
M  V30 8204 H 768.135 3.07022 -5.74961 0
M  V30 8205 N 771.568 1.50203 -0.477153 0
M  V30 8206 C 772.816 2.01959 0.0755889 0
M  V30 8207 C 773.137 1.3608 1.39668 0
M  V30 8208 O 772.407 0.508136 1.89195 0
M  V30 8209 H 770.987 0.74636 0.0309248 0
M  V30 8210 H 773.649 1.84473 -0.628959 0
M  V30 8211 H 772.745 3.11305 0.222683 0
M  V30 8212 N 773.046 0.209999 1.56195 0
M  V30 8213 C 774.457 -0.299943 1.84275 0
M  V30 8214 C 774.808 -1.60314 1.1311 0
M  V30 8215 O 773.933 -2.1273 0.396874 0
M  V30 8216 C 774.528 -0.550986 3.3429 0
M  V30 8217 C 773.087 -1.00526 3.62728 0
M  V30 8218 C 772.234 -0.0619828 2.77231 0
M  V30 8219 H 775.185 0.433458 1.52666 0
M  V30 8220 H 775.206 -1.39846 3.53869 0
M  V30 8221 H 774.718 0.397669 3.86057 0
M  V30 8222 H 772.819 -1.96768 3.16407 0
M  V30 8223 H 772.932 -0.887664 4.70805 0
M  V30 8224 H 771.296 -0.566648 2.48317 0
M  V30 8225 H 772.079 0.881383 3.31793 0
M  V30 8226 N 774.524 -1.57472 -0.0634922 0
M  V30 8227 C 775.94 -1.54016 -0.418466 0
M  V30 8228 C 776.14 -0.931376 -1.78683 0
M  V30 8229 O 775.196 -0.537465 -2.46714 0
M  V30 8230 C 776.509 -2.98634 -0.351906 0
M  V30 8231 C 778.057 -3.10012 -0.431494 0
M  V30 8232 C 778.532 -4.56296 -0.394754 0
M  V30 8233 N 780.023 -4.60964 -0.454583 0
M  V30 8234 C 780.758 -5.71643 -0.448501 0
M  V30 8235 N 780.254 -6.91663 -0.396742 0
M  V30 8236 N 782.047 -5.5991 -0.495677 0
M  V30 8237 H 774.198 -1.95409 0.832408 0
M  V30 8238 H 776.461 -0.894769 0.313197 0
M  V30 8239 H 776.167 -3.46766 0.587048 0
M  V30 8240 H 776.041 -3.58955 -1.15893 0
M  V30 8241 H 778.428 -2.61848 -1.36087 0
M  V30 8242 H 778.509 -2.52585 0.404258 0
M  V30 8243 H 778.153 -5.05119 0.530811 0
M  V30 8244 H 778.083 -5.11594 -1.24815 0
M  V30 8245 H 780.574 -3.74598 -0.498496 0
M  V30 8246 H 780.887 -7.71783 -0.396256 0
M  V30 8247 H 779.232 -6.9405 -0.363304 0
M  V30 8248 H 782.423 -4.65046 -0.533864 0
M  V30 8249 H 782.596 -6.46164 -0.487469 0
M  V30 8250 N 776.003 0.335068 -1.53997 0
M  V30 8251 C 777.228 1.09859 -1.75914 0
M  V30 8252 C 777.653 1.81308 -0.500915 0
M  V30 8253 O 777.011 1.72854 0.54693 0
M  V30 8254 C 777.059 2.08122 -2.94478 0
M  V30 8255 O 776.163 3.15805 -2.65219 0
M  V30 8256 H 775.504 0.317313 -0.583274 0
M  V30 8257 H 778.034 0.382872 -2.00986 0
M  V30 8258 H 778.044 2.51195 -3.21504 0
M  V30 8259 H 776.719 1.55517 -3.8573 0
M  V30 8260 H 775.296 2.77489 -2.49107 0
M  V30 8261 N 777.481 1.45874 0.596531 0
M  V30 8262 C 778.709 1.54013 1.38158 0
M  V30 8263 C 779.124 0.17648 1.87973 0
M  V30 8264 O 778.481 -0.823895 1.62844 0
M  V30 8265 C 778.532 2.53363 2.57855 0
M  V30 8266 O 778.253 3.8443 2.10108 0
M  V30 8267 C 779.754 2.71308 3.50581 0
M  V30 8268 H 776.974 0.521251 0.422538 0
M  V30 8269 H 779.518 1.9116 0.726493 0
M  V30 8270 H 777.673 2.19257 3.19382 0
M  V30 8271 H 778.087 4.38384 2.87958 0
M  V30 8272 H 779.561 3.44776 4.31084 0
M  V30 8273 H 780.038 1.77728 4.01633 0
M  V30 8274 H 780.644 3.06455 2.94899 0
M  V30 8275 N 778.959 -0.83999 1.33349 0
M  V30 8276 C 780.208 -1.59011 1.2409 0
M  V30 8277 C 780.521 -1.94655 -0.192029 0
M  V30 8278 O 781.727 -2.68438 -0.406617 0
M  V30 8279 C 780.183 -2.86801 2.17425 0
M  V30 8280 C 779.791 -2.58525 3.65881 0
M  V30 8281 C 781.535 -3.64823 2.17036 0
M  V30 8282 C 779.442 -3.82404 4.51133 0
M  V30 8283 H 778.372 -0.596731 0.460899 0
M  V30 8284 H 781.023 -0.926274 1.58406 0
M  V30 8285 H 779.405 -3.54719 1.7604 0
M  V30 8286 H 780.579 -1.98824 4.15699 0
M  V30 8287 H 778.894 -1.93808 3.68548 0
M  V30 8288 H 781.491 -4.56774 2.7796 0
M  V30 8289 H 781.834 -3.99663 1.16513 0
M  V30 8290 H 782.367 -3.03826 2.56777 0
M  V30 8291 H 779.106 -3.52696 5.52527 0
M  V30 8292 H 778.626 -4.41447 4.0606 0
M  V30 8293 H 780.305 -4.49995 4.6488 0
M  V30 8294 N 780.437 -1.16799 -1.0581 0
M  V30 8295 C 781.347 -0.893492 -2.16919 0
M  V30 8296 C 782.363 0.136061 -1.73467 0
M  V30 8297 O 783.539 -0.0417348 -2.01357 0
M  V30 8298 C 780.604 -0.403763 -3.44341 0
M  V30 8299 C 779.665 -1.49914 -4.02274 0
M  V30 8300 C 778.898 -1.03269 -5.23614 0
M  V30 8301 O 779.121 0.115647 -5.70283 0
M  V30 8302 O 778.055 -1.8231 -5.73626 0
M  V30 8303 H 781.881 -1.82274 -2.42919 0
M  V30 8304 H 779.466 -0.948361 -1.1544 0
M  V30 8305 H 781.348 -0.137874 -4.21174 0
M  V30 8306 H 780.023 0.497413 -3.19855 0
M  V30 8307 H 778.93 -1.81883 -3.26909 0
M  V30 8308 H 780.263 -2.3758 -4.31064 0
M  V30 8309 N 781.915 1.24427 -0.967243 0
M  V30 8310 C 782.862 2.25398 -0.496419 0
M  V30 8311 C 783.832 1.59667 0.457781 0
M  V30 8312 O 785.017 1.87213 0.368246 0
M  V30 8313 C 782.157 3.44474 0.207693 0
M  V30 8314 C 781.27 4.24804 -0.785221 0
M  V30 8315 C 780.405 5.31169 -0.0572631 0
M  V30 8316 C 779.444 6.03195 -1.04027 0
M  V30 8317 N 778.581 7.01265 -0.34235 0
M  V30 8318 H 783.421 2.65039 -1.36229 0
M  V30 8319 H 780.958 1.30288 -0.682902 0
M  V30 8320 H 782.916 4.12376 0.632612 0
M  V30 8321 H 781.546 3.05672 1.03752 0
M  V30 8322 H 780.598 3.56445 -1.32858 0
M  V30 8323 H 781.91 4.74599 -1.53483 0
M  V30 8324 H 781.064 6.05205 0.425674 0
M  V30 8325 H 779.803 4.8228 0.725047 0
M  V30 8326 H 778.808 5.27964 -1.53409 0
M  V30 8327 H 780.033 6.54173 -1.82302 0
M  V30 8328 H 777.979 6.54648 0.420993 0
M  V30 8329 H 777.896 7.48939 -1.03084 0
M  V30 8330 H 779.164 7.7941 0.118634 0
M  V30 8331 N 783.393 0.737304 1.3929 0
M  V30 8332 C 784.34 0.0988364 2.30588 0
M  V30 8333 C 785.31 -0.727206 1.49335 0
M  V30 8334 O 786.495 -0.686694 1.78014 0
M  V30 8335 C 783.635 -0.800734 3.35682 0
M  V30 8336 C 782.748 0.0381731 4.31983 0
M  V30 8337 C 781.883 -0.862884 5.24145 0
M  V30 8338 C 780.922 -0.0193639 6.12097 0
M  V30 8339 N 780.059 -0.87648 6.96608 0
M  V30 8340 H 784.899 0.883031 2.84617 0
M  V30 8341 H 782.436 0.447111 1.4014 0
M  V30 8342 H 784.394 -1.33676 3.95205 0
M  V30 8343 H 783.024 -1.55088 2.83103 0
M  V30 8344 H 782.076 0.691641 3.74059 0
M  V30 8345 H 783.388 0.690294 4.94 0
M  V30 8346 H 782.542 -1.46667 5.88705 0
M  V30 8347 H 781.281 -1.54878 4.62454 0
M  V30 8348 H 780.286 0.597202 5.46547 0
M  V30 8349 H 781.511 0.663348 6.75852 0
M  V30 8350 H 779.457 -1.54762 6.37483 0
M  V30 8351 H 779.374 -0.280892 7.55478 0
M  V30 8352 H 780.642 -1.46575 7.65595 0
M  V30 8353 N 784.871 -1.49948 0.485112 0
M  V30 8354 C 786.119 -2.01996 -0.0648775 0
M  V30 8355 C 786.44 -1.36819 -1.38945 0
M  V30 8356 O 785.71 -0.518163 -1.88923 0
M  V30 8357 H 784.29 -0.746513 -0.0269662 0
M  V30 8358 H 786.952 -1.84136 0.638733 0
M  V30 8359 H 786.048 -3.11418 -0.20617 0
M  V30 8360 N 786.349 -0.21828 -1.56081 0
M  V30 8361 C 787.574 0.422302 -2.03055 0
M  V30 8362 C 787.999 1.5279 -1.09713 0
M  V30 8363 O 787.357 1.81102 -0.0847187 0
M  V30 8364 C 787.405 0.934177 -3.48289 0
M  V30 8365 O 786.509 2.04574 -3.58083 0
M  V30 8366 H 785.85 0.0959764 -0.657027 0
M  V30 8367 H 788.38 -0.335958 -2.01823 0
M  V30 8368 H 788.39 1.24484 -3.88546 0
M  V30 8369 H 787.065 0.124963 -4.15712 0
M  V30 8370 H 785.642 1.74196 -3.29712 0
M  V30 8371 N 787.827 1.57504 0.0551401 0
M  V30 8372 C 789.243 1.54236 0.410292 0
M  V30 8373 C 789.443 0.940839 1.78187 0
M  V30 8374 O 788.499 0.550541 2.46425 0
M  V30 8375 C 789.812 2.98816 0.336064 0
M  V30 8376 C 791.36 3.10236 0.415047 0
M  V30 8377 C 791.835 4.56499 0.37055 0
M  V30 8378 N 793.326 4.61199 0.43013 0
M  V30 8379 C 794.061 5.71873 0.418179 0
M  V30 8380 N 793.557 6.91864 0.360056 0
M  V30 8381 N 795.35 5.60165 0.465977 0
M  V30 8382 H 787.501 1.94965 -0.842759 0
M  V30 8383 H 789.764 0.893096 -0.317937 0
M  V30 8384 H 789.47 3.4645 -0.605429 0
M  V30 8385 H 789.344 3.59564 1.13988 0
M  V30 8386 H 791.731 2.62566 1.34697 0
M  V30 8387 H 791.812 2.52367 -0.417648 0
M  V30 8388 H 791.456 5.0483 -0.557592 0
M  V30 8389 H 791.386 5.12249 1.221 0
M  V30 8390 H 793.877 3.74857 0.478623 0
M  V30 8391 H 794.19 7.71983 0.35532 0
M  V30 8392 H 792.535 6.94233 0.326492 0
M  V30 8393 H 795.726 4.65322 0.509194 0
M  V30 8394 H 795.899 6.46413 0.453194 0
M  V30 8395 N 789.305 -0.326896 1.54172 0
M  V30 8396 C 790.551 -1.06681 1.72473 0
M  V30 8397 C 790.884 -1.87779 0.49523 0
M  V30 8398 O 790.159 -1.87754 -0.507803 0
M  V30 8399 C 790.442 -1.99429 2.99834 0
M  V30 8400 C 790.295 -1.21682 4.33028 0
M  V30 8401 C 791.614 -2.99002 3.22933 0
M  V30 8402 H 788.733 -0.386438 0.627563 0
M  V30 8403 H 791.375 -0.343779 1.86864 0
M  V30 8404 H 789.525 -2.61081 2.87696 0
M  V30 8405 H 791.197 -0.625153 4.57044 0
M  V30 8406 H 789.44 -0.519045 4.30684 0
M  V30 8407 H 790.111 -1.89766 5.18356 0
M  V30 8408 H 792.587 -2.4747 3.34511 0
M  V30 8409 H 791.463 -3.61085 4.13412 0
M  V30 8410 H 791.724 -3.71281 2.40006 0
M  V30 8411 N 790.784 -1.46188 -0.588786 0
M  V30 8412 C 792.012 -1.54743 -1.37339 0
M  V30 8413 C 792.427 -0.186446 -1.87877 0
M  V30 8414 O 791.784 0.815247 -1.63279 0
M  V30 8415 C 791.835 -2.54727 -2.56508 0
M  V30 8416 O 791.556 -3.85539 -2.08066 0
M  V30 8417 C 793.057 -2.73163 -3.49137 0
M  V30 8418 H 790.277 -0.523484 -0.419768 0
M  V30 8419 H 792.821 -1.91543 -0.716345 0
M  V30 8420 H 790.976 -2.20948 -3.18215 0
M  V30 8421 H 791.39 -4.39905 -2.85629 0
M  V30 8422 H 792.864 -3.47057 -4.2925 0
M  V30 8423 H 793.341 -1.79856 -4.00685 0
M  V30 8424 H 793.947 -3.08014 -2.9327 0
M  V30 8425 N 792.262 0.832906 -1.33792 0
M  V30 8426 C 793.509 1.58853 -1.25586 0
M  V30 8427 C 793.837 1.93695 0.176807 0
M  V30 8428 O 793.092 1.59386 1.13554 0
M  V30 8429 C 793.391 2.9047 -2.08235 0
M  V30 8430 C 793.057 2.74965 -3.57358 0
M  V30 8431 C 791.719 2.70444 -3.98012 0
M  V30 8432 C 794.071 2.59347 -4.52093 0
M  V30 8433 C 791.399 2.48212 -5.31608 0
M  V30 8434 C 793.751 2.38649 -5.85858 0
M  V30 8435 C 792.415 2.32533 -6.25687 0
M  V30 8436 H 791.685 0.581285 -0.459553 0
M  V30 8437 H 794.332 0.964501 -1.65438 0
M  V30 8438 H 792.637 3.57111 -1.6118 0
M  V30 8439 H 794.334 3.48001 -1.99239 0
M  V30 8440 H 790.924 2.79319 -3.25083 0
M  V30 8441 H 795.108 2.6187 -4.2159 0
M  V30 8442 H 790.364 2.41929 -5.61498 0
M  V30 8443 H 794.538 2.25549 -6.58863 0
M  V30 8444 H 792.165 2.15067 -7.29143 0
M  V30 8445 N 793.74 1.17359 1.05189 0
M  V30 8446 C 794.968 0.986529 1.81866 0
M  V30 8447 C 795.383 -0.46522 1.82979 0
M  V30 8448 O 794.74 -1.32305 1.25705 0
M  V30 8449 C 794.791 1.52021 3.27982 0
M  V30 8450 O 794.512 2.91511 3.27037 0
M  V30 8451 C 796.013 1.37774 4.21347 0
M  V30 8452 H 793.233 0.349021 0.573084 0
M  V30 8453 H 795.777 1.55648 1.32643 0
M  V30 8454 H 793.932 0.992287 3.74476 0
M  V30 8455 H 794.346 3.16178 4.18488 0
M  V30 8456 H 795.82 1.7993 5.21852 0
M  V30 8457 H 796.297 0.32483 4.37997 0
M  V30 8458 H 796.903 1.89583 3.80708 0
M  V30 8459 N 795.218 -1.23913 0.973828 0
M  V30 8460 C 796.458 -1.93889 0.647015 0
M  V30 8461 C 796.822 -1.74368 -0.803735 0
M  V30 8462 O 798.023 -2.38435 -1.24106 0
M  V30 8463 C 796.294 -3.4257 1.01885 0
M  V30 8464 S 797.853 -4.31306 0.807517 0
M  V30 8465 H 794.671 -0.670279 0.237165 0
M  V30 8466 H 797.273 -1.50144 1.25208 0
M  V30 8467 H 795.977 -3.54286 2.07146 0
M  V30 8468 H 795.508 -3.91312 0.404812 0
M  V30 8469 H 797.523 -4.95218 -0.311986 0
M  V30 8470 N 796.696 -0.74468 -1.38897 0
M  V30 8471 C 797.628 -0.0713608 -2.29089 0
M  V30 8472 C 798.641 0.693224 -1.47303 0
M  V30 8473 O 799.83 0.535785 -1.70269 0
M  V30 8474 C 796.93 0.923078 -3.26087 0
M  V30 8475 C 796.103 0.217998 -4.36856 0
M  V30 8476 C 795.162 1.12192 -5.14101 0
M  V30 8477 O 794.188 0.595771 -5.66073 0
M  V30 8478 N 795.39 2.45082 -5.26227 0
M  V30 8479 H 798.155 -0.845906 -2.87514 0
M  V30 8480 H 795.716 -0.594712 -1.50581 0
M  V30 8481 H 797.708 1.53061 -3.74639 0
M  V30 8482 H 796.278 1.59876 -2.68623 0
M  V30 8483 H 795.498 -0.570134 -3.90055 0
M  V30 8484 H 796.786 -0.270248 -5.08082 0
M  V30 8485 H 796.184 2.90294 -4.85537 0
M  V30 8486 H 794.741 3.00907 -5.78185 0
M  V30 8487 N 798.174 1.49689 -0.493057 0
M  V30 8488 C 799.137 2.27502 0.278485 0
M  V30 8489 C 800.137 1.33184 0.901037 0
M  V30 8490 O 801.327 1.56415 0.766801 0
M  V30 8491 C 798.459 3.10881 1.39878 0
M  V30 8492 H 799.652 2.97163 -0.404219 0
M  V30 8493 H 797.205 1.54324 -0.247774 0
M  V30 8494 H 797.94 2.45767 2.11587 0
M  V30 8495 H 797.725 3.80219 0.957924 0
M  V30 8496 H 799.215 3.69673 1.94247 0
M  V30 8497 N 799.652 0.226554 1.55963 0
M  V30 8498 C 800.877 -0.411527 2.03276 0
M  V30 8499 C 801.302 -1.52206 1.10521 0
M  V30 8500 O 800.66 -1.81054 0.0943217 0
M  V30 8501 C 800.708 -0.915694 3.4878 0
M  V30 8502 O 799.812 -2.02672 3.59163 0
M  V30 8503 H 799.153 -0.0924907 0.657527 0
M  V30 8504 H 801.683 0.346656 2.01642 0
M  V30 8505 H 801.693 -1.22421 3.892 0
M  V30 8506 H 800.368 -0.102915 4.15773 0
M  V30 8507 H 798.945 -1.72445 3.30632 0
M  V30 8508 N 801.13 -1.57531 -0.0467866 0
M  V30 8509 C 802.377 -1.88451 -0.74112 0
M  V30 8510 C 802.705 -0.821592 -1.76296 0
M  V30 8511 O 801.96 0.179585 -1.94874 0
M  V30 8512 C 802.259 -3.26091 -1.46285 0
M  V30 8513 C 801.925 -4.47171 -0.578669 0
M  V30 8514 C 800.587 -4.80032 -0.335083 0
M  V30 8515 C 802.939 -5.2119 0.0328809 0
M  V30 8516 C 800.267 -5.84309 0.529121 0
M  V30 8517 C 802.619 -6.26383 0.884684 0
M  V30 8518 C 801.283 -6.57729 1.1379 0
M  V30 8519 H 800.553 -0.68959 -0.271195 0
M  V30 8520 H 803.2 -1.915 -0.00132378 0
M  V30 8521 H 801.505 -3.18948 -2.27551 0
M  V30 8522 H 803.202 -3.47258 -2.00532 0
M  V30 8523 H 799.792 -4.21467 -0.778666 0
M  V30 8524 H 803.976 -4.96096 -0.142375 0
M  V30 8525 H 799.232 -6.06981 0.733794 0
M  V30 8526 H 803.406 -6.82888 1.36516 0
M  V30 8527 H 801.033 -7.38355 1.80929 0
M  V30 8528 N 802.608 0.318715 -1.54344 0
M  V30 8529 C 803.885 1.07461 -1.63437 0
M  V30 8530 C 804.265 2.05771 -0.47131 0
M  V30 8531 O 803.613 2.22175 0.53391 0
M  V30 8532 C 803.823 1.77224 -3.00654 0
M  V30 8533 C 805.171 2.30069 -3.56866 0
M  V30 8534 O 806.195 1.87284 -3.0299 0
M  V30 8535 O 805.054 3.08412 -4.51159 0
M  V30 8536 H 802.148 0.495627 -0.66203 0
M  V30 8537 H 804.694 0.318218 -1.6669 0
M  V30 8538 H 803.466 1.05742 -3.76742 0
M  V30 8539 H 803.089 2.59662 -3.01101 0
M  V30 8540 N 804.086 1.46499 0.581025 0
M  V30 8541 C 805.497 1.4604 1.16315 0
M  V30 8542 C 805.848 0.202154 1.95156 0
M  V30 8543 O 804.973 -0.694638 2.04948 0
M  V30 8544 C 805.568 2.64593 2.11604 0
M  V30 8545 C 804.127 2.6717 2.65136 0
M  V30 8546 C 803.274 2.38753 1.4104 0
M  V30 8547 H 806.225 1.54354 0.368871 0
M  V30 8548 H 806.246 2.40207 2.95095 0
M  V30 8549 H 805.758 3.56154 1.54194 0
M  V30 8550 H 803.859 1.79685 3.26411 0
M  V30 8551 H 803.972 3.67182 3.07757 0
M  V30 8552 H 802.336 1.88845 1.70908 0
M  V30 8553 H 803.119 3.32493 0.854588 0
M  V30 8554 N 805.565 -0.825799 1.34232 0
M  V30 8555 C 806.79 -1.61883 1.29648 0
M  V30 8556 C 807.215 -1.87669 -0.127295 0
M  V30 8557 O 806.573 -1.45016 -1.08813 0
M  V30 8558 C 806.621 -2.93846 2.09014 0
M  V30 8559 O 805.725 -3.85778 1.4577 0
M  V30 8560 H 805.066 -0.492454 0.445405 0
M  V30 8561 H 807.596 -1.02641 1.76992 0
M  V30 8562 H 807.606 -3.43435 2.20264 0
M  V30 8563 H 806.281 -2.74401 3.12533 0
M  V30 8564 H 804.858 -3.4429 1.43245 0
M  V30 8565 N 807.043 -1.17915 -1.04565 0
M  V30 8566 C 807.973 -0.925033 -2.14395 0
M  V30 8567 C 808.954 0.135375 -1.6956 0
M  V30 8568 O 810.139 -0.0161774 -1.94193 0
M  V30 8569 C 807.269 -0.444469 -3.44444 0
M  V30 8570 C 806.223 -1.44478 -4.02877 0
M  V30 8571 C 805.549 -0.821933 -5.28345 0
M  V30 8572 C 806.849 -2.81995 -4.39632 0
M  V30 8573 H 808.543 -1.84354 -2.35911 0
M  V30 8574 H 806.089 -0.887806 -1.13375 0
M  V30 8575 H 808.042 -0.254078 -4.20633 0
M  V30 8576 H 806.766 0.509592 -3.226 0
M  V30 8577 H 805.425 -1.62203 -3.28764 0
M  V30 8578 H 805.073 0.139161 -5.02807 0
M  V30 8579 H 804.773 -1.48976 -5.68401 0
M  V30 8580 H 806.297 -0.641959 -6.07216 0
M  V30 8581 H 807.711 -2.67952 -5.06828 0
M  V30 8582 H 806.108 -3.45414 -4.90723 0
M  V30 8583 H 807.178 -3.35927 -3.49687 0
M  V30 8584 N 808.521 1.23394 -0.980386 0
M  V30 8585 C 809.453 2.24146 -0.478657 0
M  V30 8586 C 810.466 1.57303 0.419492 0
M  V30 8587 O 811.655 1.77094 0.223631 0
M  V30 8588 C 808.755 3.3732 0.326913 0
M  V30 8589 C 807.928 4.33744 -0.56436 0
M  V30 8590 C 806.987 5.25866 0.187358 0
M  V30 8591 O 806.013 5.67626 -0.423019 0
M  V30 8592 N 807.215 5.61492 1.47335 0
M  V30 8593 H 809.98 2.67826 -1.34496 0
M  V30 8594 H 807.541 1.37566 -0.853653 0
M  V30 8595 H 809.533 3.95926 0.838148 0
M  V30 8596 H 808.103 2.92823 1.09422 0
M  V30 8597 H 807.323 3.73641 -1.25642 0
M  V30 8598 H 808.611 4.95123 -1.17177 0
M  V30 8599 H 808.009 5.29514 1.99077 0
M  V30 8600 H 806.566 6.2257 1.93002 0
M  V30 8601 N 809.999 0.752036 1.385 0
M  V30 8602 C 811.41 0.375385 1.82887 0
M  V30 8603 C 811.761 -1.09575 1.62751 0
M  V30 8604 O 810.886 -1.84685 1.12785 0
M  V30 8605 C 811.481 0.674563 3.32017 0
M  V30 8606 C 810.04 0.351208 3.74758 0
M  V30 8607 C 809.187 0.928531 2.61292 0
M  V30 8608 H 812.138 0.948313 1.27251 0
M  V30 8609 H 812.159 -0.0477781 3.8047 0
M  V30 8610 H 811.671 1.74533 3.46641 0
M  V30 8611 H 809.772 -0.713042 3.65714 0
M  V30 8612 H 809.885 0.845675 4.71577 0
M  V30 8613 H 808.249 0.354012 2.52228 0
M  V30 8614 H 809.032 2.0043 2.78716 0
M  V30 8615 N 811.477 -1.49425 0.500989 0
M  V30 8616 C 812.702 -2.07356 -0.0425154 0
M  V30 8617 C 813.127 -1.35887 -1.30063 0
M  V30 8618 O 812.485 -0.41561 -1.76472 0
M  V30 8619 C 812.533 -3.59518 -0.279188 0
M  V30 8620 O 811.637 -3.89542 -1.3539 0
M  V30 8621 H 810.978 -0.663482 0.0262207 0
M  V30 8622 H 813.508 -1.92231 0.700607 0
M  V30 8623 H 813.518 -4.04791 -0.5107 0
M  V30 8624 H 812.193 -4.10946 0.640009 0
M  V30 8625 H 810.77 -3.56079 -1.10734 0
M  V30 8626 N 812.955 -0.234822 -1.55841 0
M  V30 8627 C 814.204 0.393685 -1.97821 0
M  V30 8628 C 814.517 1.59947 -1.1259 0
M  V30 8629 O 815.723 2.29835 -1.44528 0
M  V30 8630 C 814.179 0.751811 -3.5196 0
M  V30 8631 C 813.787 -0.431898 -4.45913 0
M  V30 8632 C 815.531 1.34518 -4.02623 0
M  V30 8633 C 813.438 -0.0505976 -5.91378 0
M  V30 8634 H 812.368 0.150864 -0.738753 0
M  V30 8635 H 815.019 -0.333132 -1.80451 0
M  V30 8636 H 813.401 1.53642 -3.6498 0
M  V30 8637 H 814.575 -1.20935 -4.44647 0
M  V30 8638 H 812.89 -0.939385 -4.05666 0
M  V30 8639 H 815.487 1.64359 -5.08813 0
M  V30 8640 H 815.83 2.26554 -3.49255 0
M  V30 8641 H 816.363 0.623729 -3.9288 0
M  V30 8642 H 813.102 -0.937779 -6.48757 0
M  V30 8643 H 812.622 0.690898 -5.95808 0
M  V30 8644 H 814.301 0.37146 -6.45933 0
M  V30 8645 N 814.433 1.57553 0.0384317 0
M  V30 8646 C 815.661 1.93093 0.743141 0
M  V30 8647 C 816.076 0.833787 1.69391 0
M  V30 8648 O 815.433 -0.190532 1.81503 0
M  V30 8649 C 815.484 3.28533 1.50826 0
M  V30 8650 O 815.205 4.34032 0.595665 0
M  V30 8651 C 816.706 3.78297 2.31098 0
M  V30 8652 H 813.926 0.637486 0.20941 0
M  V30 8653 H 816.47 2.045 -0.00125154 0
M  V30 8654 H 814.625 3.18552 2.20462 0
M  V30 8655 H 815.039 5.12155 1.13124 0
M  V30 8656 H 816.513 4.75602 2.80191 0
M  V30 8657 H 816.99 3.09008 3.12107 0
M  V30 8658 H 817.596 3.91331 1.66555 0
M  V30 8659 N 815.911 -0.310526 1.54511 0
M  V30 8660 C 817.157 -1.04459 1.74528 0
M  V30 8661 C 817.512 -1.85251 0.519613 0
M  V30 8662 O 816.805 -1.85281 -0.488001 0
M  V30 8663 C 816.999 -1.98942 2.96912 0
M  V30 8664 C 816.828 -1.27442 4.31264 0
M  V30 8665 C 815.598 -1.00552 4.95194 0
M  V30 8666 C 817.796 -0.683695 5.09735 0
M  V30 8667 N 815.778 -0.259797 6.1335 0
M  V30 8668 C 817.149 -0.0702549 6.1996 0
M  V30 8669 C 819.204 -0.587799 4.94418 0
M  V30 8670 C 817.907 0.629791 7.16538 0
M  V30 8671 C 819.933 0.0985719 5.91318 0
M  V30 8672 C 819.295 0.700902 7.00904 0
M  V30 8673 H 815.394 -0.365496 0.69133 0
M  V30 8674 H 817.978 -0.324277 1.91981 0
M  V30 8675 H 816.149 -2.68233 2.80902 0
M  V30 8676 H 817.881 -2.6543 3.05498 0
M  V30 8677 H 814.636 -1.30123 4.55374 0
M  V30 8678 H 815.06 0.099301 6.76927 0
M  V30 8679 H 819.702 -1.03919 4.0983 0
M  V30 8680 H 817.42 1.09298 8.00674 0
M  V30 8681 H 821.006 0.172585 5.81544 0
M  V30 8682 H 819.886 1.22357 7.74596 0
M  V30 8683 N 817.389 -1.46805 -0.573248 0
M  V30 8684 C 818.805 -1.31969 -0.897577 0
M  V30 8685 C 819.005 -0.298171 -1.99282 0
M  V30 8686 O 818.061 0.295953 -2.5076 0
M  V30 8687 C 819.374 -2.70859 -1.30598 0
M  V30 8688 C 820.922 -2.79022 -1.4183 0
M  V30 8689 C 821.397 -4.18516 -1.86033 0
M  V30 8690 N 822.888 -4.2098 -1.9321 0
M  V30 8691 C 823.623 -5.25814 -2.28707 0
M  V30 8692 N 823.119 -6.40968 -2.6293 0
M  V30 8693 N 824.912 -5.13184 -2.29343 0
M  V30 8694 H 817.063 -2.11869 0.150094 0
M  V30 8695 H 819.326 -0.947989 0.00447895 0
M  V30 8696 H 819.032 -3.46965 -0.575161 0
M  V30 8697 H 818.906 -3.01585 -2.26554 0
M  V30 8698 H 821.293 -2.03198 -2.13996 0
M  V30 8699 H 821.374 -2.51969 -0.441024 0
M  V30 8700 H 821.018 -4.94839 -1.14442 0
M  V30 8701 H 820.948 -4.42982 -2.84735 0
M  V30 8702 H 823.439 -3.37898 -1.69214 0
M  V30 8703 H 823.752 -7.16729 -2.88996 0
M  V30 8704 H 822.097 -6.44314 -2.60547 0
M  V30 8705 H 825.288 -4.22255 -2.02036 0
M  V30 8706 H 825.461 -5.94996 -2.56679 0
M  V30 8707 N 818.867 0.818669 -1.34668 0
M  V30 8708 C 820.115 1.57201 -1.27013 0
M  V30 8709 C 820.436 1.94354 0.158599 0
M  V30 8710 O 819.706 1.62626 1.09223 0
M  V30 8711 H 818.286 0.582919 -0.467135 0
M  V30 8712 H 820.948 0.977234 -1.6863 0
M  V30 8713 H 820.044 2.49291 -1.87778 0
M  V30 8714 N 820.346 1.18468 1.03938 0
M  V30 8715 C 821.623 0.890435 1.74157 0
M  V30 8716 C 822.003 -0.606409 2.02203 0
M  V30 8717 O 821.351 -1.5615 1.66822 0
M  V30 8718 C 821.561 1.73906 3.02585 0
M  V30 8719 C 822.909 1.96686 3.76297 0
M  V30 8720 O 823.933 1.70969 3.12487 0
M  V30 8721 O 822.792 2.39986 4.90988 0
M  V30 8722 H 819.886 0.330889 0.757919 0
M  V30 8723 H 822.432 1.29228 1.09992 0
M  V30 8724 H 821.204 2.75369 2.78006 0
M  V30 8725 H 820.827 1.33581 3.74489 0
M  V30 8726 N 821.824 -1.22873 0.986916 0
M  V30 8727 C 823.072 -1.91084 0.658121 0
M  V30 8728 C 823.393 -1.77304 -0.811675 0
M  V30 8729 O 822.663 -1.15649 -1.58121 0
M  V30 8730 H 821.243 -0.707251 0.240427 0
M  V30 8731 H 823.905 -1.49357 1.25213 0
M  V30 8732 H 823.001 -2.98373 0.915428 0
M  V30 8733 N 823.302 -0.75937 -1.38099 0
M  V30 8734 C 824.718 -0.437606 -1.53483 0
M  V30 8735 C 824.918 1.04849 -1.72072 0
M  V30 8736 O 823.974 1.83448 -1.73502 0
M  V30 8737 C 825.287 -1.24189 -2.73857 0
M  V30 8738 C 826.835 -1.23255 -2.8771 0
M  V30 8739 C 827.31 -2.01992 -4.11051 0
M  V30 8740 N 828.801 -1.99282 -4.1814 0
M  V30 8741 C 829.536 -2.56996 -5.12583 0
M  V30 8742 N 829.032 -3.23446 -6.12662 0
M  V30 8743 N 830.825 -2.46894 -5.04975 0
M  V30 8744 H 822.976 -1.72242 -1.24283 0
M  V30 8745 H 825.239 -0.730507 -0.604205 0
M  V30 8746 H 824.945 -2.29449 -2.66545 0
M  V30 8747 H 824.819 -0.862672 -3.67203 0
M  V30 8748 H 827.206 -0.187988 -2.94501 0
M  V30 8749 H 827.287 -1.65132 -1.95359 0
M  V30 8750 H 826.931 -3.06462 -4.05023 0
M  V30 8751 H 826.861 -1.57505 -5.02494 0
M  V30 8752 H 829.352 -1.50893 -3.46467 0
M  V30 8753 H 829.665 -3.6489 -6.81231 0
M  V30 8754 H 828.01 -3.27543 -6.12977 0
M  V30 8755 H 831.201 -1.94604 -4.25731 0
M  V30 8756 H 831.374 -2.92168 -5.78396 0
M  V30 8757 N 824.78 1.49157 -0.508906 0
M  V30 8758 C 826.057 1.95363 0.0961913 0
M  V30 8759 C 826.437 1.45064 1.53362 0
M  V30 8760 O 825.785 0.667835 2.18523 0
M  V30 8761 C 825.995 3.49 0.000688881 0
M  V30 8762 C 827.343 4.24257 0.170632 0
M  V30 8763 O 828.367 3.5612 0.0754994 0
M  V30 8764 O 827.226 5.45267 0.366957 0
M  V30 8765 H 824.32 0.821984 0.0909489 0
M  V30 8766 H 826.866 1.59769 -0.572007 0
M  V30 8767 H 825.638 3.78269 -1.00143 0
M  V30 8768 H 825.261 3.91233 0.708682 0
M  V30 8769 N 826.258 0.243083 1.55714 0
M  V30 8770 C 827.188 -0.652336 2.24203 0
M  V30 8771 C 828.169 -1.1843 1.221 0
M  V30 8772 O 829.354 -1.22435 1.50743 0
M  V30 8773 C 826.484 -1.85111 2.93856 0
M  V30 8774 C 825.438 -1.45208 4.02615 0
M  V30 8775 C 824.764 -2.73137 4.59674 0
M  V30 8776 C 826.064 -0.625988 5.18535 0
M  V30 8777 H 827.758 -0.0812504 2.9929 0
M  V30 8778 H 825.304 -0.0376388 1.43951 0
M  V30 8779 H 827.257 -2.48314 3.40468 0
M  V30 8780 H 825.981 -2.44751 2.16251 0
M  V30 8781 H 824.64 -0.843406 3.56766 0
M  V30 8782 H 824.288 -3.30967 3.78774 0
M  V30 8783 H 823.988 -2.47163 5.33089 0
M  V30 8784 H 825.512 -3.37245 5.09017 0
M  V30 8785 H 826.926 -1.16223 5.61396 0
M  V30 8786 H 825.323 -0.462465 5.98315 0
M  V30 8787 H 826.393 0.362652 4.83542 0
M  V30 8788 N 827.736 -1.57571 -0.0300757 0
M  V30 8789 C 828.668 -2.0329 -1.05857 0
M  V30 8790 C 829.681 -0.945543 -1.32527 0
M  V30 8791 O 830.87 -1.22287 -1.30032 0
M  V30 8792 C 827.97 -2.39234 -2.40042 0
M  V30 8793 C 827.143 -3.70337 -2.32743 0
M  V30 8794 C 826.202 -3.93482 -3.49369 0
M  V30 8795 O 825.228 -4.64551 -3.28909 0
M  V30 8796 N 826.43 -3.39042 -4.71201 0
M  V30 8797 H 829.195 -2.9214 -0.668897 0
M  V30 8798 H 826.756 -1.60425 -0.218038 0
M  V30 8799 H 828.748 -2.51856 -3.16782 0
M  V30 8800 H 827.318 -1.5606 -2.70858 0
M  V30 8801 H 826.538 -3.68079 -1.41109 0
M  V30 8802 H 827.826 -4.56343 -2.25007 0
M  V30 8803 H 827.224 -2.81434 -4.90725 0
M  V30 8804 H 825.781 -3.57045 -5.45309 0
M  V30 8805 N 829.214 0.302327 -1.54673 0
M  V30 8806 C 830.124 1.39542 -1.88587 0
M  V30 8807 C 831.14 1.55543 -0.779895 0
M  V30 8808 O 832.316 1.70233 -1.07623 0
M  V30 8809 C 829.381 2.7394 -2.12504 0
M  V30 8810 C 828.442 2.66935 -3.3622 0
M  V30 8811 C 827.675 3.94923 -3.58987 0
M  V30 8812 O 827.898 4.94218 -2.84789 0
M  V30 8813 O 826.832 3.96896 -4.52501 0
M  V30 8814 H 830.658 1.13784 -2.81579 0
M  V30 8815 H 828.243 0.49827 -1.40846 0
M  V30 8816 H 830.125 3.5346 -2.29443 0
M  V30 8817 H 828.8 2.99544 -1.22698 0
M  V30 8818 H 827.707 1.85892 -3.24646 0
M  V30 8819 H 829.04 2.46283 -4.26152 0
M  V30 8820 N 830.692 1.47107 0.565454 0
M  V30 8821 C 831.622 1.61846 1.68309 0
M  V30 8822 C 832.603 0.468159 1.63531 0
M  V30 8823 O 833.788 0.696504 1.8128 0
M  V30 8824 C 830.918 1.62474 3.06952 0
M  V30 8825 C 829.872 2.76649 3.26572 0
M  V30 8826 C 829.198 2.62345 4.65917 0
M  V30 8827 C 830.498 4.18319 3.12741 0
M  V30 8828 H 832.192 2.55407 1.5623 0
M  V30 8829 H 829.738 1.22916 0.750179 0
M  V30 8830 H 831.691 1.71378 3.84977 0
M  V30 8831 H 830.415 0.654692 3.19971 0
M  V30 8832 H 829.074 2.67242 2.50952 0
M  V30 8833 H 828.722 1.63386 4.75725 0
M  V30 8834 H 828.422 3.38936 4.79996 0
M  V30 8835 H 829.946 2.73165 5.46089 0
M  V30 8836 H 831.36 4.28745 3.80593 0
M  V30 8837 H 829.757 4.95632 3.38333 0
M  V30 8838 H 830.827 4.37263 2.09592 0
M  V30 8839 N 832.17 -0.811516 1.35101 0
M  V30 8840 C 833.418 -1.56525 1.27845 0
M  V30 8841 C 833.739 -1.94435 -0.14829 0
M  V30 8842 O 833.009 -1.63203 -1.08359 0
M  V30 8843 H 831.589 -0.580433 0.47022 0
M  V30 8844 H 834.251 -0.968277 1.69146 0
M  V30 8845 H 833.347 -2.48291 1.89097 0
M  V30 8846 N 833.648 -1.19017 -1.03309 0
M  V30 8847 C 834.925 -0.899659 -1.73682 0
M  V30 8848 C 835.305 0.595677 -2.02521 0
M  V30 8849 O 834.653 1.55263 -1.67648 0
M  V30 8850 C 834.863 -1.75508 -3.01659 0
M  V30 8851 C 836.211 -1.98679 -3.75249 0
M  V30 8852 O 837.235 -1.72624 -3.11576 0
M  V30 8853 O 836.094 -2.42587 -4.89708 0
M  V30 8854 H 833.188 -0.334903 -0.756154 0
M  V30 8855 H 835.734 -1.29809 -1.09305 0
M  V30 8856 H 834.506 -2.7684 -2.76542 0
M  V30 8857 H 834.129 -1.35565 -3.73775 0
M  V30 8858 N 835.127 1.22348 -0.993418 0
M  V30 8859 C 836.352 1.95666 -0.687727 0
M  V30 8860 C 836.777 1.72883 0.741161 0
M  V30 8861 O 836.135 1.00837 1.50671 0
M  V30 8862 C 836.183 3.46457 -0.99998 0
M  V30 8863 O 835.287 4.12281 -0.0989386 0
M  V30 8864 H 834.628 0.612102 -0.257346 0
M  V30 8865 H 837.158 1.55428 -1.33054 0
M  V30 8866 H 837.168 3.96976 -0.942035 0
M  V30 8867 H 835.843 3.62365 -2.04118 0
M  V30 8868 H 834.42 3.72295 -0.212413 0
M  V30 8869 N 836.605 0.766683 1.37694 0
M  V30 8870 C 837.882 0.25366 1.93948 0
M  V30 8871 C 838.262 -1.25041 1.70082 0
M  V30 8872 O 837.61 -2.03115 1.04674 0
M  V30 8873 C 837.82 0.621549 3.43421 0
M  V30 8874 C 839.168 0.588504 4.20502 0
M  V30 8875 O 840.192 0.560632 3.5176 0
M  V30 8876 O 839.051 0.61107 5.43073 0
M  V30 8877 H 836.145 0.0570586 0.825029 0
M  V30 8878 H 838.691 0.847693 1.47011 0
M  V30 8879 H 837.463 1.65979 3.54354 0
M  V30 8880 H 837.086 0.000197027 3.976 0
M  V30 8881 N 838.083 -1.48885 0.516809 0
M  V30 8882 C 839.03 -2.29408 -0.253125 0
M  V30 8883 C 840 -1.36533 -0.945935 0
M  V30 8884 O 841.185 -1.65495 -0.949527 0
M  V30 8885 C 838.325 -3.19592 -1.30211 0
M  V30 8886 C 837.438 -4.27535 -0.61948 0
M  V30 8887 C 836.573 -5.04916 -1.65026 0
M  V30 8888 C 835.612 -6.04677 -0.950368 0
M  V30 8889 N 834.749 -6.75164 -1.92608 0
M  V30 8890 H 839.589 -2.94738 0.439744 0
M  V30 8891 H 837.126 -1.45311 0.2287 0
M  V30 8892 H 839.084 -3.70267 -1.92245 0
M  V30 8893 H 837.714 -2.56213 -1.96353 0
M  V30 8894 H 836.766 -3.80228 0.114505 0
M  V30 8895 H 838.078 -4.98752 -0.0693016 0
M  V30 8896 H 837.232 -5.59539 -2.34523 0
M  V30 8897 H 835.971 -4.33508 -2.23432 0
M  V30 8898 H 834.976 -5.4927 -0.241252 0
M  V30 8899 H 836.201 -6.78077 -0.372599 0
M  V30 8900 H 834.147 -6.06517 -2.49946 0
M  V30 8901 H 834.064 -7.4241 -1.42699 0
M  V30 8902 H 835.332 -7.34384 -2.61345 0
M  V30 8903 N 839.561 -0.251338 -1.55583 0
M  V30 8904 C 840.791 0.375642 -2.03156 0
M  V30 8905 C 841.199 1.51761 -1.12983 0
M  V30 8906 O 840.542 1.83184 -0.13757 0
M  V30 8907 C 840.604 0.941001 -3.46966 0
M  V30 8908 C 840.268 -0.0692886 -4.56947 0
M  V30 8909 C 841.265 -0.88041 -5.12391 0
M  V30 8910 C 838.95 -0.196661 -5.01915 0
M  V30 8911 C 840.944 -1.80532 -6.11299 0
M  V30 8912 C 838.631 -1.12507 -6.00654 0
M  V30 8913 C 839.629 -1.92792 -6.55225 0
M  V30 8914 O 839.317 -2.84067 -7.52038 0
M  V30 8915 H 839.049 0.0928836 -0.669588 0
M  V30 8916 H 841.603 -0.374115 -2.01964 0
M  V30 8917 H 839.833 1.7404 -3.45322 0
M  V30 8918 H 841.522 1.47853 -3.78014 0
M  V30 8919 H 842.288 -0.792615 -4.78479 0
M  V30 8920 H 838.167 0.418187 -4.59099 0
M  V30 8921 H 841.711 -2.43239 -6.5382 0
M  V30 8922 H 837.608 -1.21377 -6.33986 0
M  V30 8923 H 838.376 -2.78479 -7.6967 0
M  V30 8924 N 841.039 1.57585 0.0217189 0
M  V30 8925 C 842.286 1.89606 0.711045 0
M  V30 8926 C 842.614 0.849535 1.74966 0
M  V30 8927 O 841.869 -0.14856 1.95135 0
M  V30 8928 C 842.168 3.28377 1.41079 0
M  V30 8929 C 841.834 4.48035 0.507454 0
M  V30 8930 C 840.496 4.80504 0.258672 0
M  V30 8931 C 842.848 5.21071 -0.115793 0
M  V30 8932 C 840.176 5.83393 -0.622013 0
M  V30 8933 C 842.528 6.24897 -0.984224 0
M  V30 8934 C 841.192 6.55836 -1.2424 0
M  V30 8935 H 840.462 0.693817 0.26019 0
M  V30 8936 H 843.109 1.91478 -0.0291424 0
M  V30 8937 H 841.414 3.22528 2.22448 0
M  V30 8938 H 843.111 3.50404 1.94982 0
M  V30 8939 H 839.701 4.22653 0.711516 0
M  V30 8940 H 843.885 4.96259 0.0634327 0
M  V30 8941 H 839.141 6.05736 -0.830267 0
M  V30 8942 H 843.315 6.8063 -1.47363 0
M  V30 8943 H 840.942 7.35383 -1.92653 0
M  V30 8944 N 842.517 -0.29412 1.54831 0
M  V30 8945 C 843.766 -1.02614 1.73647 0
M  V30 8946 C 844.079 -1.88193 0.533162 0
M  V30 8947 O 845.285 -2.64713 0.603275 0
M  V30 8948 C 843.741 -1.87417 3.07251 0
M  V30 8949 C 843.349 -1.06806 4.35082 0
M  V30 8950 C 845.093 -2.60176 3.35423 0
M  V30 8951 C 843 -1.90926 5.59733 0
M  V30 8952 H 841.93 -0.386834 0.647206 0
M  V30 8953 H 844.581 -0.282789 1.81308 0
M  V30 8954 H 842.963 -2.65765 2.93572 0
M  V30 8955 H 844.137 -0.330226 4.59615 0
M  V30 8956 H 842.452 -0.455979 4.13896 0
M  V30 8957 H 845.049 -3.23476 4.25755 0
M  V30 8958 H 845.392 -3.29365 2.54606 0
M  V30 8959 H 845.925 -1.88871 3.50103 0
M  V30 8960 H 842.664 -1.26194 6.43238 0
M  V30 8961 H 842.184 -2.62363 5.39375 0
M  V30 8962 H 843.863 -2.48807 5.97247 0
M  V30 8963 N 843.995 -1.47404 -0.557645 0
M  V30 8964 C 844.905 -1.62491 -1.69216 0
M  V30 8965 C 845.921 -0.507764 -1.66426 0
M  V30 8966 O 847.097 -0.775241 -1.85882 0
M  V30 8967 C 844.162 -1.63511 -3.05721 0
M  V30 8968 C 843.223 -2.86648 -3.1958 0
M  V30 8969 C 842.456 -2.87609 -4.49574 0
M  V30 8970 O 842.679 -1.97799 -5.35006 0
M  V30 8971 O 841.613 -3.79465 -4.67215 0
M  V30 8972 H 845.439 -2.58487 -1.59431 0
M  V30 8973 H 843.024 -1.30485 -0.7276 0
M  V30 8974 H 844.906 -1.66863 -3.86956 0
M  V30 8975 H 843.581 -0.706812 -3.15889 0
M  V30 8976 H 842.488 -2.8884 -2.37744 0
M  V30 8977 H 843.821 -3.7877 -3.14316 0
M  V30 8978 N 845.473 0.80434 -1.35529 0
M  V30 8979 C 846.75 1.5486 -1.1949 0
M  V30 8980 C 847.13 2.09897 0.22506 0
M  V30 8981 O 846.478 1.92643 1.22886 0
M  V30 8982 C 846.688 2.65535 -2.26478 0
M  V30 8983 C 848.036 3.33814 -2.62399 0
M  V30 8984 O 849.06 2.75807 -2.25409 0
M  V30 8985 O 847.919 4.38612 -3.26009 0
M  V30 8986 H 845.013 0.68433 -0.464351 0
M  V30 8987 H 847.559 0.844107 -1.47217 0
M  V30 8988 H 846.331 2.22754 -3.21709 0
M  V30 8989 H 845.954 3.43617 -2.00033 0
M  V30 8990 N 846.951 1.19563 1.02676 0
M  V30 8991 C 848.199 0.997593 1.75763 0
M  V30 8992 C 848.52 -0.47253 1.89188 0
M  V30 8993 O 847.79 -1.34214 1.42701 0
M  V30 8994 H 846.37 0.366128 0.651122 0
M  V30 8995 H 849.032 1.50495 1.23844 0
M  V30 8996 H 848.128 1.44741 2.76508 0
M  V30 8997 N 848.429 -1.21819 0.999893 0
M  V30 8998 C 849.845 -1.42847 0.711824 0
M  V30 8999 C 850.045 -1.88391 -0.714928 0
M  V30 9000 O 849.101 -2.0422 -1.48494 0
M  V30 9001 C 850.414 -2.46417 1.72334 0
M  V30 9002 C 851.962 -2.60207 1.73958 0
M  V30 9003 C 852.437 -3.67005 2.73992 0
M  V30 9004 N 853.928 -3.7447 2.72628 0
M  V30 9005 C 854.663 -4.56718 3.46693 0
M  V30 9006 N 854.159 -5.42904 4.3038 0
M  V30 9007 N 855.952 -4.51094 3.35366 0
M  V30 9008 H 848.103 -0.905656 1.92124 0
M  V30 9009 H 850.366 -0.459893 0.828977 0
M  V30 9010 H 850.072 -2.19914 2.74465 0
M  V30 9011 H 849.946 -3.45137 1.52186 0
M  V30 9012 H 852.333 -2.8605 0.725217 0
M  V30 9013 H 852.414 -1.61739 1.98177 0
M  V30 9014 H 852.058 -3.41908 3.75582 0
M  V30 9015 H 851.988 -4.65058 2.4704 0
M  V30 9016 H 854.479 -3.12895 2.11909 0
M  V30 9017 H 854.792 -6.02704 4.83702 0
M  V30 9018 H 853.137 -5.42463 4.34464 0
M  V30 9019 H 856.328 -3.82791 2.69423 0
M  V30 9020 H 856.501 -5.1496 3.93344 0
M  V30 9021 N 849.908 -0.773975 -1.37286 0
M  V30 9022 C 850.838 -0.175782 -2.32837 0
M  V30 9023 C 851.819 0.680603 -1.5589 0
M  V30 9024 O 853.004 0.617607 -1.84117 0
M  V30 9025 C 850.134 0.702388 -3.40123 0
M  V30 9026 C 849.088 -0.0528687 -4.27967 0
M  V30 9027 C 848.414 0.944891 -5.26285 0
M  V30 9028 C 849.714 -1.23316 -5.07534 0
M  V30 9029 H 851.408 -0.974016 -2.83114 0
M  V30 9030 H 848.954 -0.469826 -1.3612 0
M  V30 9031 H 850.907 1.13069 -4.05947 0
M  V30 9032 H 849.631 1.53316 -2.88378 0
M  V30 9033 H 848.29 -0.461978 -3.63678 0
M  V30 9034 H 847.938 1.77028 -4.70819 0
M  V30 9035 H 847.638 0.444079 -5.8592 0
M  V30 9036 H 849.162 1.37209 -5.94984 0
M  V30 9037 H 850.576 -0.881395 -5.66484 0
M  V30 9038 H 848.973 -1.66621 -5.76504 0
M  V30 9039 H 850.043 -2.03617 -4.40077 0
M  V30 9040 N 851.386 1.48609 -0.524698 0
M  V30 9041 C 852.632 2.02797 0.0113382 0
M  V30 9042 C 852.965 1.40147 1.34433 0
M  V30 9043 O 852.24 0.545368 1.86698 0
M  V30 9044 C 852.523 3.59832 0.138931 0
M  V30 9045 C 852.376 4.32971 -1.21886 0
M  V30 9046 C 853.695 4.3145 0.868265 0
M  V30 9047 H 850.814 0.736995 0.00264645 0
M  V30 9048 H 853.456 1.77388 -0.680704 0
M  V30 9049 H 851.606 3.81612 0.72834 0
M  V30 9050 H 853.278 4.22624 -1.84897 0
M  V30 9051 H 851.521 3.94597 -1.80211 0
M  V30 9052 H 852.192 5.41279 -1.08263 0
M  V30 9053 H 854.668 4.14468 0.368145 0
M  V30 9054 H 853.544 5.41025 0.926428 0
M  V30 9055 H 853.805 3.98358 1.91737 0
M  V30 9056 N 852.864 0.259585 1.55447 0
M  V30 9057 C 854.113 -0.362163 1.98422 0
M  V30 9058 C 854.426 -1.58135 1.1512 0
M  V30 9059 O 855.632 -2.27506 1.48166 0
M  V30 9060 C 854.088 -0.695722 3.53111 0
M  V30 9061 C 853.696 0.502784 4.4517 0
M  V30 9062 C 855.44 -1.28096 4.04712 0
M  V30 9063 C 853.347 0.144674 5.91223 0
M  V30 9064 H 852.277 -0.139092 0.74106 0
M  V30 9065 H 854.928 0.361798 1.79898 0
M  V30 9066 H 853.31 -1.47816 3.67378 0
M  V30 9067 H 854.484 1.27994 4.42667 0
M  V30 9068 H 852.799 1.0038 4.0412 0
M  V30 9069 H 855.396 -1.56243 5.11363 0
M  V30 9070 H 855.739 -2.20969 3.52815 0
M  V30 9071 H 856.272 -0.561146 3.93822 0
M  V30 9072 H 853.011 1.04087 6.47183 0
M  V30 9073 H 852.531 -0.596023 5.96831 0
M  V30 9074 H 854.21 -0.268651 6.46442 0
M  V30 9075 N 854.342 -1.57594 -0.0133615 0
M  V30 9076 C 855.292 -2.04048 -1.01726 0
M  V30 9077 C 856.276 -0.932682 -1.3111 0
M  V30 9078 O 857.468 -1.19652 -1.30432 0
M  V30 9079 C 854.597 -2.53637 -2.31351 0
M  V30 9080 C 853.683 -3.71269 -2.04989 0
M  V30 9081 N 854.074 -4.83436 -1.48739 0
M  V30 9082 C 852.372 -3.78943 -2.35198 0
M  V30 9083 C 853.073 -5.64961 -1.38542 0
M  V30 9084 N 852.049 -5.10554 -1.86643 0
M  V30 9085 H 855.851 -2.88188 -0.576623 0
M  V30 9086 H 853.365 -1.60912 -0.219344 0
M  V30 9087 H 855.362 -2.85186 -3.04096 0
M  V30 9088 H 854.022 -1.7091 -2.76079 0
M  V30 9089 H 855.033 -5.04558 -1.16798 0
M  V30 9090 H 851.71 -3.07047 -2.82893 0
M  V30 9091 H 853.1 -6.65092 -0.954075 0
M  V30 9092 N 855.82 0.285905 -1.54985 0
M  V30 9093 C 857.045 1.04207 -1.7932 0
M  V30 9094 C 857.47 1.79622 -0.558343 0
M  V30 9095 O 856.828 1.74506 0.491661 0
M  V30 9096 C 856.876 1.98648 -3.0095 0
M  V30 9097 O 855.98 3.07207 -2.75132 0
M  V30 9098 H 855.321 0.298596 -0.593074 0
M  V30 9099 H 857.851 0.318736 -2.02102 0
M  V30 9100 H 857.861 2.4084 -3.29333 0
M  V30 9101 H 856.536 1.43167 -3.90482 0
M  V30 9102 H 855.113 2.69423 -2.57809 0
M  V30 9103 N 857.298 1.47698 0.54982 0
M  V30 9104 C 858.228 1.63622 1.66583 0
M  V30 9105 C 859.209 0.485477 1.63025 0
M  V30 9106 O 860.394 0.715692 1.80531 0
M  V30 9107 C 857.524 1.65721 3.05211 0
M  V30 9108 C 856.478 2.80097 3.2362 0
M  V30 9109 C 855.804 2.67272 4.63109 0
M  V30 9110 C 857.104 4.21612 3.08286 0
M  V30 9111 H 858.798 2.57049 1.53512 0
M  V30 9112 H 856.344 1.23705 0.737099 0
M  V30 9113 H 858.297 1.75451 3.83138 0
M  V30 9114 H 857.021 0.688593 3.19258 0
M  V30 9115 H 855.68 2.69889 2.48104 0
M  V30 9116 H 855.328 1.68422 4.73965 0
M  V30 9117 H 855.028 3.44008 4.76374 0
M  V30 9118 H 856.552 2.78942 5.43161 0
M  V30 9119 H 857.966 4.32758 3.76024 0
M  V30 9120 H 856.363 4.99193 3.33057 0
M  V30 9121 H 857.433 4.39462 2.04942 0
M  V30 9122 N 858.776 -0.797141 1.35954 0
M  V30 9123 C 860.053 -1.54224 1.2031 0
M  V30 9124 C 860.433 -2.10013 -0.213926 0
M  V30 9125 O 859.781 -1.93292 -1.21862 0
M  V30 9126 C 859.991 -2.6433 2.27883 0
M  V30 9127 C 861.339 -3.32418 2.64165 0
M  V30 9128 O 862.363 -2.74607 2.26868 0
M  V30 9129 O 861.222 -4.36876 3.28331 0
M  V30 9130 H 858.316 -0.681857 0.467974 0
M  V30 9131 H 860.862 -0.836288 1.47663 0
M  V30 9132 H 859.634 -2.21044 3.22885 0
M  V30 9133 H 859.257 -3.42551 2.01853 0
M  V30 9134 N 860.254 -1.20106 -1.0204 0
M  V30 9135 C 861.484 -1.0329 -1.78927 0
M  V30 9136 C 861.892 0.421115 -1.84454 0
M  V30 9137 O 861.235 1.30422 -1.29367 0
M  V30 9138 C 861.297 -1.53627 -3.25021 0
M  V30 9139 C 860.961 -3.01869 -3.4311 0
M  V30 9140 C 861.958 -3.9956 -3.32638 0
M  V30 9141 C 859.643 -3.40746 -3.6905 0
M  V30 9142 C 861.637 -5.34119 -3.47844 0
M  V30 9143 C 859.324 -4.75462 -3.839 0
M  V30 9144 C 860.322 -5.71957 -3.73302 0
M  V30 9145 O 860.01 -7.04231 -3.87703 0
M  V30 9146 H 859.742 -0.363962 -0.569656 0
M  V30 9147 H 862.296 -1.59551 -1.29354 0
M  V30 9148 H 860.526 -0.917481 -3.75658 0
M  V30 9149 H 862.215 -1.32889 -3.8353 0
M  V30 9150 H 862.981 -3.70869 -3.12539 0
M  V30 9151 H 858.86 -2.66182 -3.76388 0
M  V30 9152 H 862.404 -6.09421 -3.39488 0
M  V30 9153 H 858.301 -5.03844 -4.03499 0
M  V30 9154 H 859.069 -7.11425 -4.04744 0
M  V30 9155 N 861.732 1.21287 -1.00634 0
M  V30 9156 C 862.957 1.94925 -0.708441 0
M  V30 9157 C 863.382 1.73659 0.722783 0
M  V30 9158 O 862.74 1.02429 1.49593 0
M  V30 9159 C 862.788 3.45377 -1.03667 0
M  V30 9160 O 861.892 4.12153 -0.142661 0
M  V30 9161 H 861.233 0.609338 -0.263824 0
M  V30 9162 H 863.763 1.54008 -1.34695 0
M  V30 9163 H 863.773 3.95954 -0.984086 0
M  V30 9164 H 862.448 3.6018 -2.0795 0
M  V30 9165 H 861.025 3.72048 -0.251888 0
M  V30 9166 N 863.21 0.781244 1.36873 0
M  V30 9167 C 864.487 0.274217 1.93668 0
M  V30 9168 C 864.867 -1.2323 1.71399 0
M  V30 9169 O 864.215 -2.01993 1.06822 0
M  V30 9170 C 864.425 0.657939 3.42742 0
M  V30 9171 C 865.773 0.63307 4.19854 0
M  V30 9172 O 866.797 0.597909 3.51146 0
M  V30 9173 O 865.656 0.668636 5.42394 0
M  V30 9174 H 862.75 0.0658059 0.824378 0
M  V30 9175 H 865.296 0.863238 1.46104 0
M  V30 9176 H 864.068 1.69728 3.52573 0
M  V30 9177 H 863.691 0.0423678 3.97577 0
M  V30 9178 N 864.689 -1.48329 0.532571 0
M  V30 9179 C 865.621 -2.27652 -0.265931 0
M  V30 9180 C 866.634 -1.35522 -0.902083 0
M  V30 9181 O 867.823 -1.60552 -0.780088 0
M  V30 9182 C 864.923 -3.0899 -1.39207 0
M  V30 9183 C 864.096 -4.28915 -0.857349 0
M  V30 9184 C 863.155 -4.92044 -1.86493 0
M  V30 9185 O 862.181 -5.51181 -1.42084 0
M  V30 9186 N 863.383 -4.84518 -3.19723 0
M  V30 9187 H 866.148 -2.96821 0.414389 0
M  V30 9188 H 863.709 -1.57684 0.367066 0
M  V30 9189 H 865.701 -3.48091 -2.06433 0
M  V30 9190 H 864.271 -2.42224 -1.97601 0
M  V30 9191 H 863.491 -3.94199 -0.00901765 0
M  V30 9192 H 864.779 -5.0654 -0.479025 0
M  V30 9193 H 864.177 -4.37628 -3.58467 0
M  V30 9194 H 862.734 -5.27712 -3.82575 0
M  V30 9195 N 866.167 -0.267825 -1.55308 0
M  V30 9196 C 867.415 0.350343 -1.9904 0
M  V30 9197 C 867.736 1.56924 -1.15758 0
M  V30 9198 O 867.006 1.94358 -0.245336 0
M  V30 9199 H 865.586 0.132435 -0.735167 0
M  V30 9200 H 868.248 -0.371471 -1.91327 0
M  V30 9201 H 867.344 0.645203 -3.05358 0
M  V30 9202 N 867.645 1.57599 0.00500368 0
M  V30 9203 C 868.593 2.09223 1.01628 0
M  V30 9204 C 869.587 1.01113 1.35913 0
M  V30 9205 O 870.793 1.19583 1.34536 0
M  V30 9206 H 867.168 0.667999 0.345372 0
M  V30 9207 H 869.139 2.93188 0.555274 0
M  V30 9208 C 867.888 2.60674 2.30097 0
M  V30 9209 H 867.211 3.43491 2.04582 0
M  V30 9210 H 868.651 3.00479 2.99146 0
M  V30 9211 C 867.11 1.51862 3.00731 0
M  V30 9212 O 867.64 0.898651 3.91519 0
M  V30 9213 N 865.846 1.24729 2.62471 0
M  V30 9214 H 865.393 1.7533 1.88725 0
M  V30 9215 H 865.351 0.521437 3.10046 0
M  V30 9216 N 869.123 -0.277682 1.55134 0
M  V30 9217 C 870.353 -1.02677 1.79279 0
M  V30 9218 C 870.761 -1.80599 0.563962 0
M  V30 9219 O 870.104 -1.77416 -0.476378 0
M  V30 9220 C 870.166 -2.03617 2.96277 0
M  V30 9221 C 869.83 -1.44676 4.33495 0
M  V30 9222 C 870.827 -0.864811 5.12657 0
M  V30 9223 C 868.512 -1.47537 4.80144 0
M  V30 9224 C 870.506 -0.319322 6.366 0
M  V30 9225 C 868.193 -0.926016 6.04043 0
M  V30 9226 C 869.191 -0.348988 6.82108 0
M  V30 9227 O 868.879 0.191964 8.03671 0
M  V30 9228 H 868.611 -0.309232 0.601125 0
M  V30 9229 H 871.165 -0.315308 2.02965 0
M  V30 9230 H 869.395 -2.78509 2.68272 0
M  V30 9231 H 871.084 -2.64616 3.07788 0
M  V30 9232 H 871.85 -0.835438 4.7775 0
M  V30 9233 H 867.729 -1.91389 4.19394 0
M  V30 9234 H 871.273 0.131709 6.97476 0
M  V30 9235 H 867.17 -0.952613 6.38432 0
M  V30 9236 H 867.938 0.0808779 8.1846 0
M  V30 9237 N 870.601 -1.47988 -0.541979 0
M  V30 9238 C 871.826 -1.59286 -1.32826 0
M  V30 9239 C 872.251 -0.24894 -1.86445 0
M  V30 9240 O 871.609 0.777581 -1.63778 0
M  V30 9241 C 871.657 -2.6334 -2.46343 0
M  V30 9242 O 870.761 -2.19667 -3.49028 0
M  V30 9243 H 870.102 -0.534543 -0.393903 0
M  V30 9244 H 872.632 -1.93885 -0.653427 0
M  V30 9245 H 872.642 -2.84238 -2.92699 0
M  V30 9246 H 871.317 -3.60913 -2.06675 0
M  V30 9247 H 869.894 -2.08932 -3.08872 0
M  V30 9248 N 872.079 0.78992 -1.36375 0
M  V30 9249 C 873.319 1.56098 -1.31958 0
M  V30 9250 C 873.683 1.91738 0.100197 0
M  V30 9251 O 874.884 2.67451 0.268913 0
M  V30 9252 C 873.155 2.80406 -2.21601 0
M  V30 9253 S 874.714 3.70655 -2.34863 0
M  V30 9254 H 871.532 0.534632 -0.46871 0
M  V30 9255 H 874.134 0.930417 -1.7194 0
M  V30 9256 H 872.838 2.52273 -3.23707 0
M  V30 9257 H 872.369 3.48436 -1.82637 0
M  V30 9258 H 874.384 4.71509 -1.54575 0
M  V30 9259 N 873.557 1.20646 1.01402 0
M  V30 9260 C 874.803 1.0197 1.753 0
M  V30 9261 C 875.136 -0.446803 1.8899 0
M  V30 9262 O 874.411 -1.33169 1.41762 0
M  V30 9263 C 874.694 1.70693 3.17074 0
M  V30 9264 C 874.547 3.24805 3.11162 0
M  V30 9265 C 875.866 1.44212 4.15802 0
M  V30 9266 H 872.985 0.371844 0.636318 0
M  V30 9267 H 875.627 1.48696 1.18277 0
M  V30 9268 H 873.777 1.30968 3.65759 0
M  V30 9269 H 875.449 3.73841 2.70261 0
M  V30 9270 H 873.692 3.55576 2.48492 0
M  V30 9271 H 874.363 3.68049 4.11393 0
M  V30 9272 H 876.839 1.7868 3.75783 0
M  V30 9273 H 875.715 1.94825 5.13161 0
M  V30 9274 H 875.976 0.370252 4.40547 0
M  V30 9275 N 875.035 -1.20752 1.01276 0
M  V30 9276 C 875.998 -2.2162 0.584583 0
M  V30 9277 C 876.998 -1.57094 -0.343215 0
M  V30 9278 O 878.188 -1.73696 -0.132433 0
M  V30 9279 C 875.32 -3.40583 -0.146872 0
M  V30 9280 H 876.513 -2.61015 1.47686 0
M  V30 9281 H 874.066 -1.34148 0.802123 0
M  V30 9282 H 874.801 -3.06686 -1.05424 0
M  V30 9283 H 874.586 -3.88642 0.51958 0
M  V30 9284 H 876.076 -4.15339 -0.433924 0
M  V30 9285 N 876.513 -0.788492 -1.36457 0
M  V30 9286 C 877.738 -0.371224 -2.04051 0
M  V30 9287 C 878.163 1.004 -1.59064 0
M  V30 9288 O 877.521 1.64663 -0.758679 0
M  V30 9289 C 877.569 -0.442275 -3.57877 0
M  V30 9290 O 876.673 0.55113 -4.08701 0
M  V30 9291 H 876.014 -0.157808 -0.644975 0
M  V30 9292 H 878.544 -1.06935 -1.74431 0
M  V30 9293 H 878.554 -0.305548 -4.06854 0
M  V30 9294 H 877.229 -1.44547 -3.89973 0
M  V30 9295 H 875.806 0.37614 -3.70998 0
M  V30 9296 N 877.991 1.48044 -0.54043 0
M  V30 9297 C 879.219 2.06895 -0.0145153 0
M  V30 9298 C 879.634 1.39552 1.27164 0
M  V30 9299 O 878.991 0.486454 1.75897 0
M  V30 9300 C 879.042 3.60934 0.202278 0
M  V30 9301 O 878.763 4.25749 -1.03293 0
M  V30 9302 C 880.264 4.36607 0.767387 0
M  V30 9303 H 877.484 0.66991 -0.0382368 0
M  V30 9304 H 880.028 1.90288 -0.749057 0
M  V30 9305 H 878.183 3.77111 0.886897 0
M  V30 9306 H 878.597 5.18048 -0.820167 0
M  V30 9307 H 880.071 5.45126 0.86845 0
M  V30 9308 H 880.548 4.01745 1.77477 0
M  V30 9309 H 881.154 4.25133 0.119002 0
M  V30 9310 N 879.47 0.276058 1.55163 0
M  V30 9311 C 880.38 -0.621066 2.2623 0
M  V30 9312 C 881.396 -1.16931 1.28853 0
M  V30 9313 O 882.572 -1.1994 1.61791 0
M  V30 9314 C 879.637 -1.78824 2.97023 0
M  V30 9315 C 878.698 -1.27657 4.09881 0
M  V30 9316 C 877.931 -2.38812 4.77289 0
M  V30 9317 O 878.154 -3.58188 4.43912 0
M  V30 9318 O 877.088 -2.06915 5.65217 0
M  V30 9319 H 880.914 -0.0453346 3.03666 0
M  V30 9320 H 878.499 0.0434275 1.49337 0
M  V30 9321 H 880.381 -2.46877 3.41511 0
M  V30 9322 H 879.056 -2.35104 2.22503 0
M  V30 9323 H 877.963 -0.56248 3.69847 0
M  V30 9324 H 879.296 -0.759509 4.86305 0
M  V30 9325 N 880.948 -1.576 0.00335426 0
M  V30 9326 C 881.878 -2.11668 -0.985839 0
M  V30 9327 C 882.859 -1.02661 -1.35627 0
M  V30 9328 O 884.044 -1.30361 -1.43943 0
M  V30 9329 C 881.174 -2.62273 -2.27662 0
M  V30 9330 C 880.128 -3.75837 -2.0477 0
M  V30 9331 C 879.454 -4.12769 -3.39891 0
M  V30 9332 C 880.754 -5.02975 -1.40759 0
M  V30 9333 H 882.448 -2.9457 -0.535637 0
M  V30 9334 H 879.994 -1.41702 -0.256204 0
M  V30 9335 H 881.947 -2.98727 -2.97221 0
M  V30 9336 H 880.671 -1.76498 -2.74802 0
M  V30 9337 H 879.33 -3.39782 -1.37636 0
M  V30 9338 H 878.978 -3.24013 -3.8474 0
M  V30 9339 H 878.678 -4.89281 -3.25389 0
M  V30 9340 H 880.202 -4.51784 -4.1076 0
M  V30 9341 H 881.616 -5.37179 -2.00279 0
M  V30 9342 H 880.013 -5.84315 -1.36734 0
M  V30 9343 H 881.083 -4.83431 -0.377218 0
M  V30 9344 N 882.426 0.269451 -1.5528 0
M  V30 9345 C 883.703 1.02207 -1.66773 0
M  V30 9346 C 884.083 2.04168 -0.536536 0
M  V30 9347 O 883.431 2.23761 0.462956 0
M  V30 9348 C 883.641 1.67569 -3.0614 0
M  V30 9349 C 884.989 2.18599 -3.64005 0
M  V30 9350 O 886.013 1.7755 -3.08795 0
M  V30 9351 O 884.872 2.93903 -4.60742 0
M  V30 9352 H 881.966 0.474314 -0.677462 0
M  V30 9353 H 884.512 0.265026 -1.67618 0
M  V30 9354 H 883.284 0.937029 -3.79915 0
M  V30 9355 H 882.907 2.49951 -3.09209 0
M  V30 9356 N 883.904 1.48273 0.534124 0
M  V30 9357 C 885.15 1.56311 1.29208 0
M  V30 9358 C 885.483 0.234481 1.92779 0
M  V30 9359 O 884.758 -0.759143 1.79073 0
M  V30 9360 C 885.041 2.69831 2.3846 0
M  V30 9361 C 884.894 4.12385 1.79608 0
M  V30 9362 C 886.213 2.79133 3.40254 0
M  V30 9363 H 883.332 0.56899 0.468422 0
M  V30 9364 H 885.974 1.80429 0.595438 0
M  V30 9365 H 884.124 2.49397 2.97881 0
M  V30 9366 H 885.796 4.44246 1.24269 0
M  V30 9367 H 884.039 4.19579 1.10162 0
M  V30 9368 H 884.71 4.87629 2.58693 0
M  V30 9369 H 887.186 2.97632 2.90783 0
M  V30 9370 H 886.062 3.60298 4.14097 0
M  V30 9371 H 886.323 1.87122 4.00547 0
M  V30 9372 N 885.382 -0.782676 1.36792 0
M  V30 9373 C 886.628 -1.54311 1.3159 0
M  V30 9374 C 886.961 -1.93928 -0.102696 0
M  V30 9375 O 886.236 -1.63233 -1.05761 0
M  V30 9376 C 886.519 -2.81561 2.24489 0
M  V30 9377 C 886.372 -2.48268 3.75078 0
M  V30 9378 C 887.691 -3.83428 2.16034 0
M  V30 9379 H 884.81 -0.559828 0.479335 0
M  V30 9380 H 887.452 -0.898717 1.67401 0
M  V30 9381 H 885.602 -3.36549 1.9408 0
M  V30 9382 H 887.274 -1.99279 4.16036 0
M  V30 9383 H 885.517 -1.81116 3.94182 0
M  V30 9384 H 886.188 -3.39183 4.35499 0
M  V30 9385 H 888.664 -3.37905 2.42815 0
M  V30 9386 H 887.54 -4.70204 2.83194 0
M  V30 9387 H 887.801 -4.26887 1.14976 0
M  V30 9388 N 886.86 -1.21182 -1.00761 0
M  V30 9389 C 887.77 -0.984691 -2.12934 0
M  V30 9390 C 888.786 0.0623657 -1.73888 0
M  V30 9391 O 889.962 -0.1271 -2.00999 0
M  V30 9392 C 887.027 -0.549447 -3.42319 0
M  V30 9393 C 886.088 -1.66841 -3.95553 0
M  V30 9394 C 885.321 -1.25384 -5.18763 0
M  V30 9395 O 885.544 -0.126333 -5.7026 0
M  V30 9396 O 884.478 -2.06475 -5.65377 0
M  V30 9397 H 888.304 -1.92413 -2.3497 0
M  V30 9398 H 885.889 -0.99647 -1.11314 0
M  V30 9399 H 887.771 -0.316384 -4.20211 0
M  V30 9400 H 886.446 0.361304 -3.21677 0
M  V30 9401 H 885.353 -1.95585 -3.189 0
M  V30 9402 H 886.686 -2.55649 -4.206 0
M  V30 9403 N 888.338 1.20213 -1.01915 0
M  V30 9404 C 889.563 1.94163 -0.729076 0
M  V30 9405 C 889.988 1.74416 0.704323 0
M  V30 9406 O 889.346 1.0401 1.48498 0
M  V30 9407 C 889.394 3.44258 -1.07324 0
M  V30 9408 O 888.498 4.11979 -0.186367 0
M  V30 9409 H 887.839 0.606506 -0.270272 0
M  V30 9410 H 890.369 1.52571 -1.3632 0
M  V30 9411 H 890.379 3.94888 -1.02603 0
M  V30 9412 H 889.054 3.57954 -2.11759 0
M  V30 9413 H 887.631 3.7176 -0.291334 0
M  V30 9414 N 889.816 0.795718 1.36037 0
M  V30 9415 C 891.232 0.478145 1.52269 0
M  V30 9416 C 891.432 -1.0025 1.74792 0
M  V30 9417 O 890.488 -1.78783 1.78305 0
M  V30 9418 C 891.801 1.31406 2.70468 0
M  V30 9419 C 893.349 1.3084 2.84341 0
M  V30 9420 C 893.824 2.12819 4.05551 0
M  V30 9421 N 895.315 2.10298 4.12709 0
M  V30 9422 C 896.05 2.70495 5.05589 0
M  V30 9423 N 895.546 3.39576 6.03871 0
M  V30 9424 N 897.339 2.60195 4.98252 0
M  V30 9425 H 889.49 1.75477 1.19673 0
M  V30 9426 H 891.753 0.74627 0.584624 0
M  V30 9427 H 891.459 2.36435 2.60368 0
M  V30 9428 H 891.333 0.959726 3.64786 0
M  V30 9429 H 893.72 0.266003 2.93899 0
M  V30 9430 H 893.801 1.70254 1.90912 0
M  V30 9431 H 893.445 3.17093 3.96755 0
M  V30 9432 H 893.375 1.70772 4.98141 0
M  V30 9433 H 895.866 1.60026 3.42345 0
M  V30 9434 H 896.179 3.82823 6.71317 0
M  V30 9435 H 894.524 3.43679 6.04077 0
M  V30 9436 H 897.715 2.05823 4.20422 0
M  V30 9437 H 897.888 3.074 5.70447 0
M  V30 9438 N 891.294 -1.47756 0.548274 0
M  V30 9439 C 892.257 -2.28379 -0.193857 0
M  V30 9440 C 893.257 -1.36436 -0.850986 0
M  V30 9441 O 894.447 -1.59154 -0.70822 0
M  V30 9442 C 891.579 -3.15858 -1.28243 0
M  V30 9443 H 892.772 -2.95458 0.514231 0
M  V30 9444 H 890.325 -1.53298 0.304879 0
M  V30 9445 H 891.06 -2.5345 -2.0232 0
M  V30 9446 H 890.845 -3.83512 -0.816148 0
M  V30 9447 H 892.335 -3.76627 -1.80393 0
M  V30 9448 N 892.772 -0.284283 -1.55015 0
M  V30 9449 C 893.704 0.63258 -2.20298 0
M  V30 9450 C 894.717 1.11045 -1.1905 0
M  V30 9451 O 895.906 1.03078 -1.4573 0
M  V30 9452 C 893.006 1.87599 -2.82241 0
M  V30 9453 C 892.179 1.5434 -4.09265 0
M  V30 9454 C 891.238 2.64023 -4.55169 0
M  V30 9455 O 890.264 2.29821 -5.20741 0
M  V30 9456 N 891.466 3.94255 -4.26079 0
M  V30 9457 H 894.231 0.0737928 -2.99609 0
M  V30 9458 H 891.792 -0.105767 -1.61554 0
M  V30 9459 H 893.784 2.60289 -3.0989 0
M  V30 9460 H 892.354 2.3436 -2.06868 0
M  V30 9461 H 891.574 0.649912 -3.88806 0
M  V30 9462 H 892.862 1.29634 -4.92009 0
M  V30 9463 H 892.26 4.24859 -3.73512 0
M  V30 9464 H 890.817 4.63295 -4.58477 0
M  V30 9465 N 894.251 1.57596 -0.0117121 0
M  V30 9466 C 895.181 2.12188 0.9746 0
M  V30 9467 C 896.162 1.03379 1.35081 0
M  V30 9468 O 897.347 1.31123 1.4325 0
M  V30 9469 C 894.477 2.63477 2.26268 0
M  V30 9470 C 893.431 3.76917 2.02774 0
M  V30 9471 C 892.757 4.14566 3.37697 0
M  V30 9472 C 894.057 5.03715 1.38089 0
M  V30 9473 H 895.751 2.9485 0.520007 0
M  V30 9474 H 893.297 1.41836 0.248685 0
M  V30 9475 H 895.25 3.00299 2.95633 0
M  V30 9476 H 893.974 1.77953 2.73862 0
M  V30 9477 H 892.633 3.40507 1.35832 0
M  V30 9478 H 892.281 3.26048 3.83016 0
M  V30 9479 H 891.981 4.91 3.22789 0
M  V30 9480 H 893.505 4.53956 4.08358 0
M  V30 9481 H 894.919 5.38233 1.97428 0
M  V30 9482 H 893.316 5.85032 1.33634 0
M  V30 9483 H 894.386 4.83624 0.351575 0
M  V30 9484 N 895.729 -0.261212 1.5542 0
M  V30 9485 C 896.659 -1.32712 1.92119 0
M  V30 9486 C 897.64 -1.50934 0.784406 0
M  V30 9487 O 898.825 -1.63781 1.04352 0
M  V30 9488 C 895.955 -2.68453 2.20341 0
M  V30 9489 C 894.909 -2.64947 3.36136 0
M  V30 9490 C 894.235 -4.04349 3.49865 0
M  V30 9491 C 895.535 -2.23182 4.72215 0
M  V30 9492 H 897.229 -1.02245 2.81401 0
M  V30 9493 H 894.775 -0.490406 1.35392 0
M  V30 9494 H 896.728 -3.43144 2.44603 0
M  V30 9495 H 895.452 -3.00527 1.27871 0
M  V30 9496 H 894.111 -1.92714 3.11861 0
M  V30 9497 H 893.759 -4.33665 2.5484 0
M  V30 9498 H 893.459 -4.02895 4.27726 0
M  V30 9499 H 894.983 -4.80761 3.76432 0
M  V30 9500 H 896.397 -2.87599 4.95943 0
M  V30 9501 H 894.794 -2.32867 5.53076 0
M  V30 9502 H 895.864 -1.18327 4.70241 0
M  V30 9503 N 897.207 -1.48554 -0.526253 0
M  V30 9504 C 898.453 -1.56994 -1.28378 0
M  V30 9505 C 898.786 -0.244701 -1.92652 0
M  V30 9506 O 898.061 0.749636 -1.79473 0
M  V30 9507 C 898.344 -2.71092 -2.37026 0
M  V30 9508 C 898.197 -4.13331 -1.77418 0
M  V30 9509 C 899.516 -2.80934 -3.38769 0
M  V30 9510 H 896.635 -0.571466 -0.465398 0
M  V30 9511 H 899.277 -1.80742 -0.585861 0
M  V30 9512 H 897.427 -2.50973 -2.96555 0
M  V30 9513 H 899.099 -4.44899 -1.21912 0
M  V30 9514 H 897.342 -4.20158 -1.07936 0
M  V30 9515 H 898.013 -4.88994 -2.56104 0
M  V30 9516 H 900.489 -2.9917 -2.892 0
M  V30 9517 H 899.365 -3.62489 -4.12181 0
M  V30 9518 H 899.626 -1.89244 -3.99549 0
M  V30 9519 N 898.685 0.775411 -1.37205 0
M  V30 9520 C 899.931 1.53611 -1.32407 0
M  V30 9521 C 900.264 1.9398 0.0924103 0
M  V30 9522 O 899.539 1.63791 1.04893 0
M  V30 9523 C 899.822 2.80367 -2.25979 0
M  V30 9524 C 899.675 2.46275 -3.76389 0
M  V30 9525 C 900.994 3.82277 -2.18064 0
M  V30 9526 H 898.113 0.557278 -0.482297 0
M  V30 9527 H 900.755 0.889826 -1.67875 0
M  V30 9528 H 898.905 3.35515 -1.95862 0
M  V30 9529 H 900.577 1.9707 -4.17087 0
M  V30 9530 H 898.82 1.79023 -3.95137 0
M  V30 9531 H 899.491 3.36868 -4.37291 0
M  V30 9532 H 901.967 3.36613 -2.44604 0
M  V30 9533 H 900.843 4.68696 -2.85684 0
M  V30 9534 H 901.104 4.26272 -1.17239 0
M  V30 9535 N 900.163 1.21714 1.00117 0
M  V30 9536 C 901.411 1.03465 1.73607 0
M  V30 9537 C 901.732 -0.432295 1.90148 0
M  V30 9538 O 901.002 -1.31157 1.45515 0
M  V30 9539 H 899.582 0.379857 0.643209 0
M  V30 9540 H 902.244 1.53088 1.20624 0
M  V30 9541 H 901.34 1.50574 2.73375 0
M  V30 9542 N 901.641 -1.19671 1.02551 0
M  V30 9543 C 902.866 -1.93774 0.739363 0
M  V30 9544 C 903.291 -1.74787 -0.695064 0
M  V30 9545 O 902.649 -1.04796 -1.47944 0
M  V30 9546 C 902.697 -3.43684 1.09149 0
M  V30 9547 O 901.801 -4.11874 0.208213 0
M  V30 9548 H 901.142 -0.605064 0.273484 0
M  V30 9549 H 903.672 -1.51846 1.37128 0
M  V30 9550 H 903.682 -3.94339 1.04695 0
M  V30 9551 H 902.357 -3.56826 2.13654 0
M  V30 9552 H 900.934 -3.716 0.311045 0
M  V30 9553 N 903.119 -0.802921 -1.35613 0
M  V30 9554 C 904.53 -0.443004 -1.81368 0
M  V30 9555 C 904.881 1.03459 -1.66706 0
M  V30 9556 O 904.006 1.80372 -1.19561 0
M  V30 9557 C 904.601 -0.797324 -3.29284 0
M  V30 9558 C 903.16 -0.490055 -3.73196 0
M  V30 9559 C 902.307 -1.02487 -2.57666 0
M  V30 9560 H 905.258 -0.994888 -1.23643 0
M  V30 9561 H 905.279 -0.0934638 -3.80385 0
M  V30 9562 H 904.791 -1.87278 -3.39924 0
M  V30 9563 H 902.892 0.576818 -3.68108 0
M  V30 9564 H 903.005 -1.02012 -4.68114 0
M  V30 9565 H 901.369 -0.44738 -2.5074 0
M  V30 9566 H 902.152 -2.10636 -2.71085 0
M  V30 9567 N 904.597 1.47463 -0.556102 0
M  V30 9568 C 905.845 2.02075 -0.0315712 0
M  V30 9569 C 906.166 1.43292 1.32259 0
M  V30 9570 O 905.436 0.60771 1.86236 0
M  V30 9571 H 904.016 0.74695 -0.0086816 0
M  V30 9572 H 906.678 1.80879 -0.725859 0
M  V30 9573 H 905.774 3.12047 0.0573538 0
M  V30 9574 N 906.075 0.2925 1.54862 0
M  V30 9575 C 907.486 -0.201841 1.85606 0
M  V30 9576 C 907.837 -1.54093 1.21449 0
M  V30 9577 O 906.962 -2.10327 0.509079 0
M  V30 9578 C 907.557 -0.373011 3.3674 0
M  V30 9579 C 906.116 -0.811574 3.67547 0
M  V30 9580 C 905.263 0.0850583 2.7717 0
M  V30 9581 H 908.214 0.513774 1.50153 0
M  V30 9582 H 908.235 -1.20892 3.60785 0
M  V30 9583 H 907.747 0.601751 3.83407 0
M  V30 9584 H 905.848 -1.79719 3.26392 0
M  V30 9585 H 905.961 -0.636853 4.74848 0
M  V30 9586 H 904.325 -0.434224 2.50971 0
M  V30 9587 H 905.108 1.05602 3.26654 0
M  V30 9588 N 907.553 -1.57587 0.0200696 0
M  V30 9589 C 908.799 -1.91708 -0.661503 0
M  V30 9590 C 909.132 -0.895968 -1.72296 0
M  V30 9591 O 908.407 0.082577 -1.94325 0
M  V30 9592 C 908.69 -3.36344 -1.28627 0
M  V30 9593 C 908.543 -4.49186 -0.234982 0
M  V30 9594 C 909.862 -3.80771 -2.20685 0
M  V30 9595 H 906.981 -0.69717 -0.239005 0
M  V30 9596 H 909.623 -1.8985 0.0754764 0
M  V30 9597 H 907.773 -3.38058 -1.91439 0
M  V30 9598 H 909.445 -4.59606 0.395011 0
M  V30 9599 H 907.688 -4.31557 0.440565 0
M  V30 9600 H 908.359 -5.47395 -0.711558 0
M  V30 9601 H 910.835 -3.80735 -1.67868 0
M  V30 9602 H 909.711 -4.82685 -2.61356 0
M  V30 9603 H 909.972 -3.15764 -3.09428 0
M  V30 9604 N 909.032 0.252966 -1.55557 0
M  V30 9605 C 910.443 0.822503 -1.67606 0
M  V30 9606 C 910.794 1.86265 -0.616411 0
M  V30 9607 O 909.919 2.15082 0.238447 0
M  V30 9608 C 910.514 1.49866 -3.03852 0
M  V30 9609 C 909.073 2.01597 -3.17861 0
M  V30 9610 C 908.22 0.864943 -2.63465 0
M  V30 9611 H 911.171 0.0288958 -1.58674 0
M  V30 9612 H 911.192 2.36646 -2.97958 0
M  V30 9613 H 910.704 0.741378 -3.80953 0
M  V30 9614 H 908.805 2.80224 -2.45571 0
M  V30 9615 H 908.918 2.21752 -4.24692 0
M  V30 9616 H 907.282 1.2638 -2.21134 0
M  V30 9617 H 908.065 0.120847 -3.43087 0
M  V30 9618 N 910.51 1.48831 0.518367 0
M  V30 9619 C 911.926 1.35209 0.847979 0
M  V30 9620 C 912.126 0.371927 1.98038 0
M  V30 9621 O 911.182 -0.202681 2.51685 0
M  V30 9622 C 912.495 2.7552 1.20455 0
M  V30 9623 C 914.043 2.84094 1.31377 0
M  V30 9624 C 914.518 4.25132 1.70372 0
M  V30 9625 N 916.009 4.27861 1.77453 0
M  V30 9626 C 916.744 5.3394 2.09035 0
M  V30 9627 N 916.24 6.50285 2.3896 0
M  V30 9628 N 918.033 5.21343 2.10139 0
M  V30 9629 H 910.184 2.11166 -0.228624 0
M  V30 9630 H 912.447 0.94717 -0.0396599 0
M  V30 9631 H 912.153 3.48861 0.445991 0
M  V30 9632 H 912.027 3.09785 2.15204 0
M  V30 9633 H 914.414 2.11001 2.06307 0
M  V30 9634 H 914.495 2.53433 0.347203 0
M  V30 9635 H 914.139 4.98745 0.959975 0
M  V30 9636 H 914.069 4.53245 2.68098 0
M  V30 9637 H 916.56 3.43945 1.56557 0
M  V30 9638 H 916.873 7.26961 2.62196 0
M  V30 9639 H 915.218 6.5354 2.36454 0
M  V30 9640 H 918.409 4.29462 1.86225 0
M  V30 9641 H 918.582 6.04112 2.34419 0
M  V30 9642 N 911.988 -0.768124 1.37614 0
M  V30 9643 C 912.918 -1.89537 1.36374 0
M  V30 9644 C 913.899 -1.68513 0.231803 0
M  V30 9645 O 915.084 -1.89318 0.432705 0
M  V30 9646 C 912.214 -3.26871 1.17358 0
M  V30 9647 C 911.168 -3.62466 2.27602 0
M  V30 9648 C 910.494 -4.9838 1.93705 0
M  V30 9649 C 911.794 -3.68841 3.69802 0
M  V30 9650 H 913.488 -1.90832 2.30702 0
M  V30 9651 H 911.034 -0.91672 1.11051 0
M  V30 9652 H 912.987 -4.05371 1.15119 0
M  V30 9653 H 911.711 -3.26018 0.194865 0
M  V30 9654 H 910.37 -2.86276 2.29002 0
M  V30 9655 H 910.018 -4.94071 0.943539 0
M  V30 9656 H 909.718 -5.23165 2.6753 0
M  V30 9657 H 911.242 -5.79276 1.93059 0
M  V30 9658 H 912.656 -4.37485 3.70513 0
M  V30 9659 H 911.053 -4.05126 4.42711 0
M  V30 9660 H 912.123 -2.69415 4.03167 0
M  V30 9661 N 913.466 -1.22244 -0.994698 0
M  V30 9662 C 914.712 -1.04746 -1.73655 0
M  V30 9663 C 915.045 0.41668 -1.89677 0
M  V30 9664 O 914.32 1.30897 -1.43862 0
M  V30 9665 C 914.603 -1.75716 -3.14318 0
M  V30 9666 C 914.456 -3.29714 -3.05955 0
M  V30 9667 C 915.775 -1.50809 -4.13455 0
M  V30 9668 H 912.894 -0.381921 -0.630322 0
M  V30 9669 H 915.536 -1.50559 -1.15897 0
M  V30 9670 H 913.686 -1.3677 -3.63629 0
M  V30 9671 H 915.358 -3.78093 -2.64279 0
M  V30 9672 H 913.601 -3.59484 -2.42804 0
M  V30 9673 H 914.272 -3.74547 -4.05485 0
M  V30 9674 H 916.748 -1.84636 -3.72892 0
M  V30 9675 H 915.624 -2.02964 -5.09997 0
M  V30 9676 H 915.885 -0.440292 -4.39902 0
M  V30 9677 N 914.944 1.19125 -1.03184 0
M  V30 9678 C 915.874 2.24675 -0.635889 0
M  V30 9679 C 916.855 1.66321 0.356565 0
M  V30 9680 O 918.04 1.92728 0.238625 0
M  V30 9681 C 915.17 3.47298 0.011069 0
M  V30 9682 C 914.124 4.18345 -0.903979 0
M  V30 9683 C 913.45 5.34561 -0.12197 0
M  V30 9684 C 914.75 4.72816 -2.21907 0
M  V30 9685 H 916.444 2.5805 -1.51825 0
M  V30 9686 H 913.99 1.24039 -0.73146 0
M  V30 9687 H 915.943 4.20333 0.299729 0
M  V30 9688 H 914.667 3.13131 0.928245 0
M  V30 9689 H 913.326 3.47196 -1.17688 0
M  V30 9690 H 912.974 4.9664 0.797334 0
M  V30 9691 H 912.674 5.83029 -0.731498 0
M  V30 9692 H 914.198 6.10391 0.159881 0
M  V30 9693 H 915.612 5.3759 -1.99173 0
M  V30 9694 H 914.009 5.31782 -2.78078 0
M  V30 9695 H 915.079 3.9072 -2.87168 0
M  V30 9696 N 916.422 0.810101 1.35185 0
M  V30 9697 C 917.647 0.40364 2.03434 0
M  V30 9698 C 918.072 -0.97857 1.60641 0
M  V30 9699 O 917.43 -1.63435 0.784779 0
M  V30 9700 C 917.478 0.499154 3.57129 0
M  V30 9701 O 916.582 -0.486039 4.09526 0
M  V30 9702 H 915.923 0.168049 0.642383 0
M  V30 9703 H 918.453 1.09696 1.72708 0
M  V30 9704 H 918.463 0.370236 4.06317 0
M  V30 9705 H 917.138 1.50733 3.87624 0
M  V30 9706 H 915.715 -0.31707 3.7155 0
M  V30 9707 N 917.9 -1.47166 0.563914 0
M  V30 9708 C 919.177 -1.95586 -0.0236172 0
M  V30 9709 C 919.557 -1.50655 -1.47872 0
M  V30 9710 O 918.905 -0.748479 -2.15894 0
M  V30 9711 C 919.115 -3.48762 0.128841 0
M  V30 9712 C 920.463 -4.24598 -0.0130544 0
M  V30 9713 O 921.487 -3.56155 0.0567242 0
M  V30 9714 O 920.346 -5.46253 -0.164332 0
M  V30 9715 H 917.44 -0.824793 -0.0603789 0
M  V30 9716 H 919.986 -1.57536 0.63091 0
M  V30 9717 H 918.758 -3.74291 1.14113 0
M  V30 9718 H 918.381 -3.93594 -0.56299 0
M  V30 9719 N 919.378 -0.300708 -1.54705 0
M  V30 9720 C 920.308 0.568675 -2.26469 0
M  V30 9721 C 921.289 1.13817 -1.26411 0
M  V30 9722 O 922.474 1.16756 -1.55183 0
M  V30 9723 C 919.604 1.74077 -3.00524 0
M  V30 9724 C 918.558 1.30165 -4.07727 0
M  V30 9725 C 917.884 2.55888 -4.69495 0
M  V30 9726 C 919.184 0.433106 -5.20501 0
M  V30 9727 H 920.878 -0.0298851 -2.99385 0
M  V30 9728 H 918.424 -0.0158135 -1.43991 0
M  V30 9729 H 920.377 2.35506 -3.49449 0
M  V30 9730 H 919.101 2.36556 -2.25186 0
M  V30 9731 H 917.76 0.710414 -3.59651 0
M  V30 9732 H 917.408 3.16681 -3.90797 0
M  V30 9733 H 917.108 2.27207 -5.41895 0
M  V30 9734 H 918.632 3.18121 -5.21183 0
M  V30 9735 H 920.046 0.95307 -5.65322 0
M  V30 9736 H 918.443 0.240085 -5.9962 0
M  V30 9737 H 919.513 -0.541866 -4.81863 0
M  V30 9738 N 920.856 1.57574 -0.0284266 0
M  V30 9739 C 921.806 2.06674 0.962804 0
M  V30 9740 C 922.79 0.967115 1.28591 0
M  V30 9741 O 923.982 1.23068 1.27214 0
M  V30 9742 C 921.111 2.59682 2.24545 0
M  V30 9743 C 920.197 3.76573 1.95073 0
M  V30 9744 N 920.588 4.8721 1.35869 0
M  V30 9745 C 918.886 3.85046 2.25068 0
M  V30 9746 C 919.587 5.68436 1.23514 0
M  V30 9747 N 918.563 5.15323 1.73041 0
M  V30 9748 H 922.365 2.89615 0.500013 0
M  V30 9749 H 919.879 1.61437 0.176604 0
M  V30 9750 H 921.876 2.93148 2.96428 0
M  V30 9751 H 920.536 1.7817 2.71451 0
M  V30 9752 H 921.547 5.07477 1.03379 0
M  V30 9753 H 918.224 3.14439 2.74653 0
M  V30 9754 H 919.614 6.67387 0.777403 0
M  V30 9755 N 922.334 -0.244713 1.55689 0
M  V30 9756 C 923.264 -1.30667 1.93516 0
M  V30 9757 C 924.245 -1.50094 0.800371 0
M  V30 9758 O 925.43 -1.62665 1.06083 0
M  V30 9759 C 922.56 -2.66101 2.23176 0
M  V30 9760 C 921.514 -2.61366 3.38927 0
M  V30 9761 C 920.84 -4.00616 3.54134 0
M  V30 9762 C 922.14 -2.18161 4.74555 0
M  V30 9763 H 923.834 -0.992546 2.82469 0
M  V30 9764 H 921.38 -0.476018 1.35905 0
M  V30 9765 H 923.333 -3.4053 2.48228 0
M  V30 9766 H 922.057 -2.99154 1.31051 0
M  V30 9767 H 920.716 -1.89395 3.13887 0
M  V30 9768 H 920.364 -4.30938 2.59426 0
M  V30 9769 H 920.064 -3.98335 4.31975 0
M  V30 9770 H 921.588 -4.76741 3.8151 0
M  V30 9771 H 923.002 -2.82323 4.98965 0
M  V30 9772 H 921.399 -2.26988 5.55515 0
M  V30 9773 H 922.469 -1.13333 4.7147 0
M  V30 9774 N 923.813 -1.49104 -0.510467 0
M  V30 9775 C 924.743 -1.67981 -1.62187 0
M  V30 9776 C 925.724 -0.528529 -1.6168 0
M  V30 9777 O 926.909 -0.763305 -1.7857 0
M  V30 9778 C 924.039 -1.73755 -3.0071 0
M  V30 9779 C 922.993 -2.88579 -3.1608 0
M  V30 9780 C 922.319 -2.79457 -4.5586 0
M  V30 9781 C 923.619 -4.29638 -2.97 0
M  V30 9782 H 925.313 -2.61029 -1.46643 0
M  V30 9783 H 922.859 -1.25615 -0.704042 0
M  V30 9784 H 924.812 -1.85548 -3.78352 0
M  V30 9785 H 923.536 -0.772996 -3.17321 0
M  V30 9786 H 922.195 -2.76372 -2.40861 0
M  V30 9787 H 921.843 -1.80929 -4.69333 0
M  V30 9788 H 921.543 -3.56518 -4.67086 0
M  V30 9789 H 923.067 -2.93245 -5.35574 0
M  V30 9790 H 924.481 -4.42575 -3.64418 0
M  V30 9791 H 922.878 -5.07847 -3.19704 0
M  V30 9792 H 923.948 -4.44741 -1.93219 0
M  V30 9793 N 925.291 0.760815 -1.38019 0
M  V30 9794 C 926.519 1.55001 -1.37048 0
M  V30 9795 C 926.934 1.88754 0.0415261 0
M  V30 9796 O 926.291 1.52254 1.00624 0
M  V30 9797 C 926.342 2.8536 -2.21928 0
M  V30 9798 O 926.063 2.53049 -3.57628 0
M  V30 9799 C 927.564 3.79536 -2.29057 0
M  V30 9800 H 924.784 0.479844 -0.469032 0
M  V30 9801 H 927.328 0.942148 -1.81504 0
M  V30 9802 H 925.483 3.42542 -1.80953 0
M  V30 9803 H 925.897 3.36604 -4.02241 0
M  V30 9804 H 927.371 4.67977 -2.92749 0
M  V30 9805 H 927.848 4.19453 -1.30213 0
M  V30 9806 H 928.454 3.28281 -2.70392 0
M  V30 9807 N 926.769 1.22769 0.988202 0
M  V30 9808 C 927.701 0.959757 2.08138 0
M  V30 9809 C 928.714 -0.0633787 1.62677 0
M  V30 9810 O 929.903 0.171203 1.77677 0
M  V30 9811 C 927.003 0.422724 3.36253 0
M  V30 9812 C 926.176 1.50419 4.10722 0
M  V30 9813 C 925.235 0.973407 5.17118 0
M  V30 9814 O 924.261 1.66066 5.44436 0
M  V30 9815 N 925.463 -0.202787 5.80146 0
M  V30 9816 H 928.228 1.9009 2.31702 0
M  V30 9817 H 925.789 1.13522 1.15431 0
M  V30 9818 H 927.781 0.0528514 4.04665 0
M  V30 9819 H 926.351 -0.423642 3.09716 0
M  V30 9820 H 925.571 2.04718 3.36874 0
M  V30 9821 H 926.859 2.23169 4.57245 0
M  V30 9822 H 926.257 -0.777856 5.60327 0
M  V30 9823 H 924.814 -0.513998 6.4977 0
M  V30 9824 N 928.247 -1.18576 1.03814 0
M  V30 9825 C 929.472 -1.92978 0.759873 0
M  V30 9826 C 929.897 -1.75514 -0.676486 0
M  V30 9827 O 929.255 -1.06359 -1.46824 0
M  V30 9828 C 929.303 -3.42507 1.12788 0
M  V30 9829 O 928.407 -4.1163 0.251886 0
M  V30 9830 H 927.748 -0.602129 0.279886 0
M  V30 9831 H 930.278 -1.50383 1.3873 0
M  V30 9832 H 930.288 -3.93206 1.08872 0
M  V30 9833 H 928.963 -3.5454 2.17427 0
M  V30 9834 H 927.54 -3.7125 0.350441 0
M  V30 9835 N 929.725 -0.817259 -1.34754 0
M  V30 9836 C 930.657 -0.192695 -2.28389 0
M  V30 9837 C 931.67 0.614167 -1.50771 0
M  V30 9838 O 932.859 0.444776 -1.7287 0
M  V30 9839 C 929.959 0.748929 -3.30521 0
M  V30 9840 C 929.132 -0.0138762 -4.37398 0
M  V30 9841 C 928.191 0.847825 -5.19325 0
M  V30 9842 O 927.217 0.29487 -5.68436 0
M  V30 9843 N 928.419 2.16843 -5.38479 0
M  V30 9844 H 931.184 -0.997122 -2.82626 0
M  V30 9845 H 928.745 -0.673696 -1.47217 0
M  V30 9846 H 930.737 1.32987 -3.82226 0
M  V30 9847 H 929.307 1.45412 -2.7672 0
M  V30 9848 H 928.527 -0.776093 -3.86485 0
M  V30 9849 H 929.815 -0.539191 -5.05935 0
M  V30 9850 H 929.213 2.64148 -5.00242 0
M  V30 9851 H 927.77 2.69835 -5.93323 0
M  V30 9852 N 931.203 1.46865 -0.571711 0
M  V30 9853 C 932.449 2.0273 -0.0531858 0
M  V30 9854 C 932.782 1.44353 1.29907 0
M  V30 9855 O 932.057 0.604488 1.84868 0
M  V30 9856 C 932.34 3.60092 0.0243831 0
M  V30 9857 C 932.193 4.28874 -1.35599 0
M  V30 9858 C 933.512 4.33994 0.730563 0
M  V30 9859 H 930.631 0.736706 -0.0208018 0
M  V30 9860 H 933.273 1.75132 -0.736794 0
M  V30 9861 H 931.423 3.83736 0.606565 0
M  V30 9862 H 933.095 4.16527 -1.98249 0
M  V30 9863 H 931.338 3.88664 -1.92674 0
M  V30 9864 H 932.009 5.37561 -1.25429 0
M  V30 9865 H 934.485 4.1543 0.236098 0
M  V30 9866 H 933.361 5.43699 0.753836 0
M  V30 9867 H 933.622 4.04257 1.78967 0
M  V30 9868 N 932.681 0.308908 1.54543 0
M  V30 9869 C 934.097 -0.0442273 1.59539 0
M  V30 9870 C 934.297 -1.51743 1.32575 0
M  V30 9871 O 933.353 -2.27134 1.10302 0
M  V30 9872 C 934.666 0.360826 2.98527 0
M  V30 9873 C 936.214 0.310252 3.11459 0
M  V30 9874 C 936.689 0.690246 4.52769 0
M  V30 9875 N 938.18 0.643084 4.58714 0
M  V30 9876 C 938.915 0.909483 5.66141 0
M  V30 9877 N 938.411 1.24226 6.81572 0
M  V30 9878 N 940.204 0.836018 5.55848 0
M  V30 9879 H 932.355 1.26893 1.70329 0
M  V30 9880 H 934.618 0.514986 0.795923 0
M  V30 9881 H 934.324 1.38669 3.23209 0
M  V30 9882 H 934.198 -0.281563 3.76148 0
M  V30 9883 H 936.585 -0.706375 2.86521 0
M  V30 9884 H 936.666 0.987373 2.35976 0
M  V30 9885 H 936.31 1.70472 4.78437 0
M  V30 9886 H 936.24 -0.00903075 5.26599 0
M  V30 9887 H 938.731 0.397138 3.75807 0
M  V30 9888 H 939.044 1.4313 7.5943 0
M  V30 9889 H 937.389 1.28038 6.83104 0
M  V30 9890 H 940.58 0.575637 4.64547 0
M  V30 9891 H 940.753 1.047 6.39486 0
M  V30 9892 N 934.159 -1.57557 0.0367827 0
M  V30 9893 C 935.405 -1.92399 -0.641133 0
M  V30 9894 C 935.738 -0.914191 -1.71336 0
M  V30 9895 O 935.013 0.0619616 -1.94401 0
M  V30 9896 C 935.296 -3.37689 -1.25052 0
M  V30 9897 C 935.149 -4.4941 -0.187326 0
M  V30 9898 C 936.468 -3.8309 -2.16634 0
M  V30 9899 H 933.587 -0.699666 -0.231597 0
M  V30 9900 H 936.229 -1.89759 0.0956083 0
M  V30 9901 H 934.379 -3.40069 -1.87843 0
M  V30 9902 H 936.051 -4.59161 0.443736 0
M  V30 9903 H 934.294 -4.31065 0.486313 0
M  V30 9904 H 934.965 -5.48119 -0.653459 0
M  V30 9905 H 937.441 -3.82494 -1.63821 0
M  V30 9906 H 936.317 -4.85429 -2.56222 0
M  V30 9907 H 936.578 -3.19028 -3.06062 0
M  V30 9908 N 935.637 0.236453 -1.55816 0
M  V30 9909 C 936.862 0.98449 -1.82545 0
M  V30 9910 C 937.287 1.77755 -0.615206 0
M  V30 9911 O 936.645 1.75982 0.435895 0
M  V30 9912 C 936.693 1.88973 -3.07118 0
M  V30 9913 O 935.797 2.98298 -2.84766 0
M  V30 9914 H 935.138 0.279577 -0.602273 0
M  V30 9915 H 937.668 0.254277 -2.03014 0
M  V30 9916 H 937.678 2.3024 -3.36829 0
M  V30 9917 H 936.353 1.30671 -3.94839 0
M  V30 9918 H 934.93 2.61085 -2.6625 0
M  V30 9919 N 937.115 1.49373 0.502552 0
M  V30 9920 C 938.361 1.5999 1.25597 0
M  V30 9921 C 938.716 0.282287 1.90318 0
M  V30 9922 O 938.009 -0.71735 1.77664 0
M  V30 9923 C 938.203 2.69508 2.34735 0
M  V30 9924 C 938.032 4.11791 1.80716 0
M  V30 9925 C 936.802 4.78598 1.62087 0
M  V30 9926 C 939 4.97074 1.31991 0
M  V30 9927 N 936.982 6.05201 1.02981 0
M  V30 9928 C 938.353 6.14144 0.850098 0
M  V30 9929 C 940.408 4.83086 1.20549 0
M  V30 9930 C 939.111 7.18766 0.277192 0
M  V30 9931 C 941.137 5.87855 0.64656 0
M  V30 9932 C 940.499 7.04152 0.186968 0
M  V30 9933 H 936.598 0.639822 0.449613 0
M  V30 9934 H 939.182 1.86371 0.563361 0
M  V30 9935 H 937.353 2.44902 3.01459 0
M  V30 9936 H 939.085 2.69656 3.01774 0
M  V30 9937 H 935.84 4.35372 1.8641 0
M  V30 9938 H 936.264 6.72793 0.753601 0
M  V30 9939 H 940.906 3.93489 1.54681 0
M  V30 9940 H 938.624 8.08064 -0.0763971 0
M  V30 9941 H 942.21 5.79091 0.560832 0
M  V30 9942 H 941.09 7.83836 -0.238784 0
M  V30 9943 N 938.594 -0.753485 1.38421 0
M  V30 9944 C 939.819 -1.54783 1.38047 0
M  V30 9945 C 940.244 -1.8808 -0.0276371 0
M  V30 9946 O 939.602 -1.5058 -1.00973 0
M  V30 9947 C 939.65 -2.82353 2.24297 0
M  V30 9948 O 938.754 -3.77509 1.66014 0
M  V30 9949 H 938.095 -0.468151 0.470883 0
M  V30 9950 H 940.625 -0.931144 1.82184 0
M  V30 9951 H 940.635 -3.31277 2.38159 0
M  V30 9952 H 939.31 -2.57449 3.26639 0
M  V30 9953 H 937.887 -3.36212 1.61294 0
M  V30 9954 N 940.072 -1.23292 -0.981677 0
M  V30 9955 C 941.483 -1.05936 -1.53735 0
M  V30 9956 C 941.834 0.373695 -1.92608 0
M  V30 9957 O 940.959 1.26024 -1.75917 0
M  V30 9958 C 941.554 -1.91682 -2.79363 0
M  V30 9959 C 940.113 -1.78591 -3.31334 0
M  V30 9960 C 939.26 -1.87463 -2.04335 0
M  V30 9961 H 942.211 -1.36973 -0.801505 0
M  V30 9962 H 942.232 -1.44085 -3.52164 0
M  V30 9963 H 941.744 -2.95975 -2.51039 0
M  V30 9964 H 939.845 -0.770755 -3.64541 0
M  V30 9965 H 939.958 -2.61902 -4.01179 0
M  V30 9966 H 938.322 -1.3103 -2.18411 0
M  V30 9967 H 939.105 -2.9331 -1.78394 0
M  V30 9968 N 941.55 1.18024 -1.04442 0
M  V30 9969 C 942.513 2.19992 -0.643136 0
M  V30 9970 C 943.513 1.57949 0.301444 0
M  V30 9971 O 944.703 1.73986 0.0863341 0
M  V30 9972 C 941.835 3.40853 0.0565208 0
M  V30 9973 H 943.028 2.57008 -1.54554 0
M  V30 9974 H 940.581 1.31974 -0.837408 0
M  V30 9975 H 941.316 3.09373 0.972553 0
M  V30 9976 H 941.101 3.87128 -0.622439 0
M  V30 9977 H 942.591 4.16344 0.323652 0
M  V30 9978 N 943.028 0.824394 1.34319 0
M  V30 9979 C 943.938 0.24932 2.33271 0
M  V30 9980 C 944.954 -0.617066 1.62691 0
M  V30 9981 O 946.13 -0.524616 1.94447 0
M  V30 9982 C 943.195 -0.578094 3.41846 0
M  V30 9983 C 942.256 0.310866 4.28173 0
M  V30 9984 C 941.489 -0.477153 5.31563 0
M  V30 9985 O 941.712 -1.71028 5.44156 0
M  V30 9986 O 940.646 0.141287 6.01734 0
M  V30 9987 H 944.472 1.06837 2.84288 0
M  V30 9988 H 942.057 0.58657 1.37403 0
M  V30 9989 H 943.939 -1.04878 4.0814 0
M  V30 9990 H 942.614 -1.37444 2.93071 0
M  V30 9991 H 941.521 0.829081 3.64797 0
M  V30 9992 H 942.854 1.07161 4.80393 0
M  V30 9993 N 944.506 -1.46559 0.579492 0
M  V30 9994 C 945.783 -1.956 -0.00287136 0
M  V30 9995 C 946.163 -1.52215 -1.46266 0
M  V30 9996 O 945.511 -0.771335 -2.15088 0
M  V30 9997 C 945.721 -3.48606 0.165824 0
M  V30 9998 C 947.069 -4.24588 0.0319807 0
M  V30 9999 O 948.093 -3.56075 0.094496 0
M  V30 10000 O 946.952 -5.46396 -0.106386 0
M  V30 10001 H 944.046 -0.825387 -0.0516274 0
M  V30 10002 H 946.592 -1.56858 0.647584 0
M  V30 10003 H 945.364 -3.7306 1.18076 0
M  V30 10004 H 944.987 -3.94169 -0.521212 0
M  V30 10005 N 945.984 -0.3171 -1.54377 0
M  V30 10006 C 946.934 0.567199 -2.20832 0
M  V30 10007 C 947.918 1.08661 -1.18666 0
M  V30 10008 O 949.11 1.0247 -1.44322 0
M  V30 10009 C 946.239 1.73079 -2.96477 0
M  V30 10010 C 945.325 1.22658 -4.05975 0
M  V30 10011 N 945.716 0.441565 -5.03869 0
M  V30 10012 C 944.014 1.50589 -4.19808 0
M  V30 10013 C 944.715 0.171063 -5.81448 0
M  V30 10014 N 943.691 0.755389 -5.38326 0
M  V30 10015 H 947.493 -0.0399349 -2.93873 0
M  V30 10016 H 945.007 -0.122639 -1.61936 0
M  V30 10017 H 947.004 2.37601 -3.42566 0
M  V30 10018 H 945.664 2.34146 -2.24957 0
M  V30 10019 H 946.675 0.0849921 -5.1783 0
M  V30 10020 H 943.352 2.12288 -3.595 0
M  V30 10021 H 944.742 -0.460484 -6.7032 0
M  V30 10022 N 947.462 1.57535 -0.0451378 0
M  V30 10023 C 948.41 2.12351 0.949205 0
M  V30 10024 C 949.404 1.05386 1.32628 0
M  V30 10025 O 950.61 1.23802 1.30664 0
M  V30 10026 H 946.985 0.678648 0.323945 0
M  V30 10027 H 948.956 2.94806 0.461718 0
M  V30 10028 C 947.705 2.67862 2.21687 0
M  V30 10029 H 947.028 3.49826 1.93551 0
M  V30 10030 H 948.468 3.09844 2.89435 0
M  V30 10031 C 946.927 1.61353 2.95748 0
M  V30 10032 O 947.457 1.02276 3.88462 0
M  V30 10033 N 945.663 1.33017 2.5837 0
M  V30 10034 H 945.21 1.81246 1.83051 0
M  V30 10035 H 945.168 0.619812 3.0823 0
M  V30 10036 N 948.94 -0.228186 1.55939 0
M  V30 10037 C 949.903 -1.26621 1.91049 0
M  V30 10038 C 950.903 -1.40141 0.788491 0
M  V30 10039 O 952.093 -1.3852 1.05631 0
M  V30 10040 C 949.225 -2.64108 2.15545 0
M  V30 10041 H 950.418 -0.966978 2.83883 0
M  V30 10042 H 947.971 -0.468313 1.49119 0
M  V30 10043 H 948.706 -2.99141 1.25241 0
M  V30 10044 H 948.491 -2.55673 2.97277 0
M  V30 10045 H 949.981 -3.39025 2.43827 0
M  V30 10046 N 950.418 -1.49637 -0.494624 0
M  V30 10047 C 951.829 -1.52573 -1.07603 0
M  V30 10048 C 952.18 -0.315591 -1.93645 0
M  V30 10049 O 951.305 0.573966 -2.08649 0
M  V30 10050 C 951.9 -2.7648 -1.95817 0
M  V30 10051 C 950.459 -2.82173 -2.49109 0
M  V30 10052 C 949.606 -2.4657 -1.2688 0
M  V30 10053 H 952.557 -1.56242 -0.278251 0
M  V30 10054 H 952.578 -2.57003 -2.80588 0
M  V30 10055 H 952.09 -3.64538 -1.33167 0
M  V30 10056 H 950.191 -1.9841 -3.15379 0
M  V30 10057 H 950.304 -3.84501 -2.85825 0
M  V30 10058 H 948.668 -1.98489 -1.59607 0
M  V30 10059 H 949.451 -3.3691 -0.659281 0
M  V30 10060 N 951.896 0.746133 -1.38819 0
M  V30 10061 C 953.145 1.50085 -1.34749 0
M  V30 10062 C 953.458 1.95516 0.0574786 0
M  V30 10063 O 954.664 2.70601 0.22073 0
M  V30 10064 C 953.12 2.71141 -2.36665 0
M  V30 10065 C 952.728 2.32706 -3.82821 0
M  V30 10066 C 954.472 3.49005 -2.41652 0
M  V30 10067 C 952.379 3.50418 -4.76405 0
M  V30 10068 H 951.309 0.563563 -0.500912 0
M  V30 10069 H 953.96 0.814951 -1.6441 0
M  V30 10070 H 952.342 3.4175 -2.00058 0
M  V30 10071 H 953.516 1.69715 -4.28408 0
M  V30 10072 H 951.831 1.67959 -3.81023 0
M  V30 10073 H 954.428 4.36541 -3.08766 0
M  V30 10074 H 954.771 3.90687 -1.43769 0
M  V30 10075 H 955.304 2.85416 -2.77097 0
M  V30 10076 H 952.043 3.13795 -5.75511 0
M  V30 10077 H 951.563 4.12426 -4.35505 0
M  V30 10078 H 953.242 4.16901 -4.94775 0
M  V30 10079 N 953.375 1.23811 0.975125 0
M  V30 10080 C 954.285 1.0408 2.10249 0
M  V30 10081 C 955.301 -0.0162404 1.73992 0
M  V30 10082 O 956.477 0.180346 2.00591 0
M  V30 10083 C 953.542 0.640013 3.40741 0
M  V30 10084 C 952.603 1.7727 3.90991 0
M  V30 10085 C 951.836 1.39094 5.15256 0
M  V30 10086 O 952.059 0.277483 5.69725 0
M  V30 10087 O 950.993 2.21392 5.59704 0
M  V30 10088 H 954.819 1.98575 2.29786 0
M  V30 10089 H 952.404 1.02563 1.08633 0
M  V30 10090 H 954.286 0.427684 4.19224 0
M  V30 10091 H 952.961 -0.27589 3.22522 0
M  V30 10092 H 951.868 2.03971 3.13602 0
M  V30 10093 H 953.201 2.66711 4.13674 0
M  V30 10094 N 954.853 -1.17469 1.05066 0
M  V30 10095 C 955.8 -2.21443 0.650512 0
M  V30 10096 C 956.77 -1.62441 -0.346702 0
M  V30 10097 O 957.955 -1.89305 -0.238404 0
M  V30 10098 C 955.095 -3.45087 0.0301014 0
M  V30 10099 C 954.208 -4.18385 1.07599 0
M  V30 10100 C 953.343 -5.29513 0.423038 0
M  V30 10101 C 952.382 -5.94596 1.45333 0
M  V30 10102 N 951.519 -6.97241 0.824623 0
M  V30 10103 H 956.359 -2.55025 1.54163 0
M  V30 10104 H 953.896 -1.25274 0.771032 0
M  V30 10105 H 955.854 -4.15754 -0.347032 0
M  V30 10106 H 954.484 -3.12093 -0.824481 0
M  V30 10107 H 953.536 -3.46446 1.57097 0
M  V30 10108 H 954.848 -4.62899 1.85813 0
M  V30 10109 H 954.002 -6.067 -0.00774975 0
M  V30 10110 H 952.741 -4.86129 -0.391092 0
M  V30 10111 H 951.746 -5.16142 1.89415 0
M  V30 10112 H 952.971 -6.40061 2.26934 0
M  V30 10113 H 950.917 -6.55993 0.0309804 0
M  V30 10114 H 950.834 -7.40059 1.54432 0
M  V30 10115 H 952.102 -7.78375 0.418567 0
M  V30 10116 N 956.331 -0.831506 -1.3388 0
M  V30 10117 C 957.561 -0.436292 -2.01941 0
M  V30 10118 C 957.969 0.964979 -1.62741 0
M  V30 10119 O 957.312 1.63733 -0.832894 0
M  V30 10120 C 957.374 -0.468811 -3.5643 0
M  V30 10121 C 957.038 -1.82491 -4.18982 0
M  V30 10122 C 958.035 -2.78705 -4.38885 0
M  V30 10123 C 955.72 -2.11574 -4.55568 0
M  V30 10124 C 957.714 -4.02168 -4.94509 0
M  V30 10125 C 955.401 -3.35296 -5.10901 0
M  V30 10126 C 956.399 -4.3041 -5.30317 0
M  V30 10127 O 956.087 -5.51944 -5.84477 0
M  V30 10128 H 955.819 -0.172335 -0.653664 0
M  V30 10129 H 958.373 -1.12354 -1.71947 0
M  V30 10130 H 956.603 0.275179 -3.8572 0
M  V30 10131 H 958.292 -0.0924518 -4.05795 0
M  V30 10132 H 959.058 -2.57534 -4.10976 0
M  V30 10133 H 954.937 -1.38338 -4.39754 0
M  V30 10134 H 958.481 -4.76418 -5.09579 0
M  V30 10135 H 954.378 -3.56326 -5.3824 0
M  V30 10136 H 955.146 -5.53582 -6.029 0
M  V30 10137 N 957.809 1.4625 -0.587256 0
M  V30 10138 C 959.086 1.95599 -0.00750181 0
M  V30 10139 C 959.466 1.52989 1.45457 0
M  V30 10140 O 958.814 0.782731 2.14676 0
M  V30 10141 C 959.024 3.48513 -0.184309 0
M  V30 10142 C 960.372 4.24565 -0.0544972 0
M  V30 10143 O 961.396 3.5602 -0.113378 0
M  V30 10144 O 960.255 5.46445 0.0774075 0
M  V30 10145 H 957.349 0.825649 0.0472495 0
M  V30 10146 H 959.895 1.56512 -0.655893 0
M  V30 10147 H 958.667 3.72428 -1.20053 0
M  V30 10148 H 958.29 3.9444 0.500301 0
M  V30 10149 N 959.287 0.325282 1.54207 0
M  V30 10150 C 960.536 -0.27768 1.99779 0
M  V30 10151 C 960.849 -1.5311 1.21723 0
M  V30 10152 O 962.055 -2.21017 1.57682 0
M  V30 10153 C 960.511 -0.545329 3.55745 0
M  V30 10154 C 960.119 0.691143 4.42637 0
M  V30 10155 C 961.863 -1.10815 4.09781 0
M  V30 10156 C 959.77 0.395302 5.90077 0
M  V30 10157 H 958.7 -0.107536 0.746292 0
M  V30 10158 H 961.351 0.437773 1.78202 0
M  V30 10159 H 959.733 -1.32101 3.73317 0
M  V30 10160 H 960.907 1.46653 4.3684 0
M  V30 10161 H 959.222 1.1743 3.99499 0
M  V30 10162 H 961.819 -1.34414 5.1753 0
M  V30 10163 H 962.162 -2.05806 3.6187 0
M  V30 10164 H 962.695 -0.393608 3.95848 0
M  V30 10165 H 959.434 1.31443 6.42186 0
M  V30 10166 H 958.954 -0.34235 5.98822 0
M  V30 10167 H 960.633 0.00576877 6.47 0
M  V30 10168 N 960.765 -1.57509 0.0534917 0
M  V30 10169 C 961.675 -2.15152 -0.935249 0
M  V30 10170 C 962.691 -1.10991 -1.34003 0
M  V30 10171 O 963.867 -1.43171 -1.41648 0
M  V30 10172 C 960.932 -2.68699 -2.19093 0
M  V30 10173 C 959.993 -3.87666 -1.84428 0
M  V30 10174 C 959.226 -4.3865 -3.0401 0
M  V30 10175 O 959.449 -3.887 -4.17455 0
M  V30 10176 O 958.383 -5.30209 -2.84889 0
M  V30 10177 H 962.209 -2.99962 -0.475009 0
M  V30 10178 H 959.794 -1.48446 -0.16854 0
M  V30 10179 H 961.676 -3.03098 -2.92762 0
M  V30 10180 H 960.351 -1.86958 -2.6425 0
M  V30 10181 H 959.258 -3.58151 -1.08068 0
M  V30 10182 H 960.591 -4.70643 -1.44068 0
M  V30 10183 N 962.243 0.219913 -1.56058 0
M  V30 10184 C 963.49 0.944064 -1.79147 0
M  V30 10185 C 963.818 1.84268 -0.622531 0
M  V30 10186 O 963.073 1.91713 0.393013 0
M  V30 10187 C 963.372 1.81293 -3.08006 0
M  V30 10188 C 963.038 1.0674 -4.38084 0
M  V30 10189 C 961.7 0.86147 -4.73426 0
M  V30 10190 C 964.052 0.541049 -5.18384 0
M  V30 10191 C 961.38 0.117307 -5.86583 0
M  V30 10192 C 963.732 -0.189779 -6.32315 0
M  V30 10193 C 962.396 -0.406951 -6.66258 0
M  V30 10194 H 961.666 0.345458 -0.655546 0
M  V30 10195 H 964.313 0.212121 -1.90322 0
M  V30 10196 H 962.618 2.61278 -2.9196 0
M  V30 10197 H 964.315 2.3754 -3.23072 0
M  V30 10198 H 960.905 1.23789 -4.10334 0
M  V30 10199 H 965.089 0.687617 -4.91514 0
M  V30 10200 H 960.345 -0.0611651 -6.11369 0
M  V30 10201 H 964.519 -0.605134 -6.93766 0
M  V30 10202 H 962.146 -0.985511 -7.53785 0
M  V30 10203 N 963.721 1.49897 0.486681 0
M  V30 10204 C 964.631 1.70379 1.6127 0
M  V30 10205 C 965.647 0.58659 1.63814 0
M  V30 10206 O 966.823 0.863044 1.81971 0
M  V30 10207 C 963.888 1.77911 2.97571 0
M  V30 10208 C 962.949 3.01569 3.0554 0
M  V30 10209 C 962.182 3.08732 4.35339 0
M  V30 10210 O 962.405 2.23099 5.2496 0
M  V30 10211 O 961.339 4.01325 4.48578 0
M  V30 10212 H 965.165 2.65799 1.46916 0
M  V30 10213 H 962.75 1.33808 0.664516 0
M  V30 10214 H 964.632 1.85135 3.78554 0
M  V30 10215 H 963.307 0.856722 3.12157 0
M  V30 10216 H 962.214 2.99854 2.23693 0
M  V30 10217 H 963.547 3.93335 2.95886 0
M  V30 10218 N 965.199 -0.738761 1.39212 0
M  V30 10219 C 966.476 -1.48982 1.26742 0
M  V30 10220 C 966.856 -2.10732 -0.12466 0
M  V30 10221 O 966.204 -1.98287 -1.13554 0
M  V30 10222 C 966.414 -2.54427 2.38889 0
M  V30 10223 C 967.762 -3.20915 2.78027 0
M  V30 10224 O 968.786 -2.64738 2.38311 0
M  V30 10225 O 967.645 -4.22558 3.46565 0
M  V30 10226 H 964.739 -0.661395 0.496473 0
M  V30 10227 H 967.285 -0.772907 1.51077 0
M  V30 10228 H 966.057 -2.07151 3.3197 0
M  V30 10229 H 965.68 -3.33682 2.162 0
M  V30 10230 N 966.677 -1.24326 -0.968545 0
M  V30 10231 C 967.624 -1.0349 -2.06297 0
M  V30 10232 C 968.594 0.0515333 -1.6602 0
M  V30 10233 O 969.779 -0.102924 -1.90522 0
M  V30 10234 C 966.919 -0.64487 -3.39021 0
M  V30 10235 C 966.032 -1.80469 -3.92498 0
M  V30 10236 C 965.167 -1.36032 -5.13487 0
M  V30 10237 C 964.206 -2.49014 -5.59159 0
M  V30 10238 N 963.343 -2.05451 -6.71367 0
M  V30 10239 H 968.183 -1.97161 -2.23454 0
M  V30 10240 H 965.72 -0.982028 -1.0952 0
M  V30 10241 H 967.678 -0.399771 -4.1528 0
M  V30 10242 H 966.308 0.254845 -3.21792 0
M  V30 10243 H 965.36 -2.16348 -3.12886 0
M  V30 10244 H 966.672 -2.65365 -4.22354 0
M  V30 10245 H 965.826 -1.07405 -5.97117 0
M  V30 10246 H 964.565 -0.481887 -4.85313 0
M  V30 10247 H 963.57 -2.78402 -4.74102 0
M  V30 10248 H 964.795 -3.37413 -5.89346 0
M  V30 10249 H 962.741 -1.20004 -6.4493 0
M  V30 10250 H 962.658 -2.83901 -7.00668 0
M  V30 10251 H 963.926 -1.79962 -7.58442 0
M  V30 10252 N 968.156 1.1691 -1.05688 0
M  V30 10253 C 969.066 2.24735 -0.67315 0
M  V30 10254 C 970.082 1.71252 0.308043 0
M  V30 10255 O 971.258 2.00772 0.158889 0
M  V30 10256 C 968.323 3.4665 -0.059026 0
M  V30 10257 C 967.384 4.15198 -1.0913 0
M  V30 10258 C 966.617 5.31292 -0.50639 0
M  V30 10259 O 966.84 5.663 0.682692 0
M  V30 10260 O 965.774 5.88923 -1.2431 0
M  V30 10261 H 969.6 2.59855 -1.57191 0
M  V30 10262 H 967.185 1.24306 -0.828751 0
M  V30 10263 H 969.067 4.20455 0.282018 0
M  V30 10264 H 967.742 3.13316 0.813304 0
M  V30 10265 H 966.649 3.43389 -1.48442 0
M  V30 10266 H 967.982 4.52571 -1.93495 0
M  V30 10267 N 969.634 0.838594 1.33437 0
M  V30 10268 C 970.567 0.216651 2.27169 0
M  V30 10269 C 971.545 -0.636065 1.49643 0
M  V30 10270 O 972.729 -0.596388 1.78817 0
M  V30 10271 C 969.856 -0.69584 3.31475 0
M  V30 10272 C 968.902 0.0813808 4.26422 0
M  V30 10273 S 969.735 1.43909 5.15801 0
M  V30 10274 C 970.891 0.531887 6.23636 0
M  V30 10275 H 971.124 1.01128 2.79572 0
M  V30 10276 H 968.657 0.635332 1.40723 0
M  V30 10277 H 970.615 -1.21671 3.92054 0
M  V30 10278 H 969.276 -1.46413 2.77888 0
M  V30 10279 H 968.469 -0.612944 5.00259 0
M  V30 10280 H 968.071 0.533304 3.70178 0
M  V30 10281 H 970.363 -0.270371 6.7696 0
M  V30 10282 H 971.306 1.24041 6.97151 0
M  V30 10283 H 971.714 0.113357 5.64386 0
M  V30 10284 N 971.112 -1.45937 0.595003 0
M  V30 10285 C 972.075 -2.2888 -0.121102 0
M  V30 10286 C 973.075 -1.39075 -0.807149 0
M  V30 10287 O 974.265 -1.61326 -0.657228 0
M  V30 10288 C 971.397 -3.19778 -1.1813 0
M  V30 10289 H 972.59 -2.93673 0.607968 0
M  V30 10290 H 970.143 -1.5225 0.353495 0
M  V30 10291 H 970.878 -2.59759 -1.94154 0
M  V30 10292 H 970.663 -3.85914 -0.693724 0
M  V30 10293 H 972.153 -3.82176 -1.68319 0
M  V30 10294 N 972.59 -0.333456 -1.54032 0
M  V30 10295 C 974.001 0.15256 -1.86076 0
M  V30 10296 C 974.352 1.50819 -1.25492 0
M  V30 10297 O 973.477 2.08903 -0.564665 0
M  V30 10298 C 974.072 0.283599 -3.37611 0
M  V30 10299 C 972.631 0.713841 -3.69569 0
M  V30 10300 C 971.778 -0.158515 -2.76847 0
M  V30 10301 H 974.729 -0.553404 -1.48738 0
M  V30 10302 H 974.75 1.11284 -3.63863 0
M  V30 10303 H 974.262 -0.703193 -3.81676 0
M  V30 10304 H 972.363 1.71002 -3.31042 0
M  V30 10305 H 972.476 0.510731 -4.7637 0
M  V30 10306 H 970.84 0.367531 -2.52034 0
M  V30 10307 H 971.623 -1.14226 -3.2374 0
M  V30 10308 N 974.068 1.57479 -0.061844 0
M  V30 10309 C 974.978 2.15645 0.923826 0
M  V30 10310 C 975.994 1.117 1.33413 0
M  V30 10311 O 977.17 1.4392 1.40887 0
M  V30 10312 C 974.235 2.69857 2.17665 0
M  V30 10313 C 973.296 3.88638 1.8237 0
M  V30 10314 C 972.529 4.40256 3.01679 0
M  V30 10315 O 972.752 3.90908 4.15388 0
M  V30 10316 O 971.686 5.31713 2.82073 0
M  V30 10317 H 975.512 3.0021 0.459094 0
M  V30 10318 H 973.097 1.48534 0.160665 0
M  V30 10319 H 974.979 3.04647 2.9115 0
M  V30 10320 H 973.654 1.88357 2.63255 0
M  V30 10321 H 972.561 3.58719 1.06167 0
M  V30 10322 H 973.894 4.71401 1.4157 0
M  V30 10323 N 975.546 -0.211634 1.56173 0
M  V30 10324 C 976.493 -1.26231 1.93221 0
M  V30 10325 C 977.463 -1.46076 0.790641 0
M  V30 10326 O 978.648 -1.59482 1.04739 0
M  V30 10327 C 975.788 -2.60559 2.26281 0
M  V30 10328 C 974.901 -2.48431 3.5342 0
M  V30 10329 C 974.036 -3.7535 3.7588 0
M  V30 10330 C 973.075 -3.57985 4.96501 0
M  V30 10331 N 972.212 -4.76877 5.15299 0
M  V30 10332 H 977.052 -0.939367 2.82807 0
M  V30 10333 H 974.589 -0.452511 1.39967 0
M  V30 10334 H 976.547 -3.38796 2.43461 0
M  V30 10335 H 975.177 -2.9093 1.39855 0
M  V30 10336 H 974.229 -1.61577 3.44379 0
M  V30 10337 H 975.541 -2.31526 4.41811 0
M  V30 10338 H 974.695 -4.62029 3.9321 0
M  V30 10339 H 973.434 -3.95191 2.85788 0
M  V30 10340 H 972.439 -2.69691 4.79111 0
M  V30 10341 H 973.664 -3.39605 5.88086 0
M  V30 10342 H 971.61 -4.97013 4.28152 0
M  V30 10343 H 971.527 -4.62735 5.9784 0
M  V30 10344 H 972.795 -5.64954 5.37073 0
M  V30 10345 N 977.024 -1.50153 -0.478725 0
M  V30 10346 C 978.27 -1.61968 -1.23036 0
M  V30 10347 C 978.625 -0.312529 -1.89845 0
M  V30 10348 O 977.918 0.688995 -1.78783 0
M  V30 10349 C 978.112 -2.73208 -2.30417 0
M  V30 10350 C 977.941 -4.14614 -1.74142 0
M  V30 10351 C 976.711 -4.81116 -1.54452 0
M  V30 10352 C 978.909 -4.99111 -1.24066 0
M  V30 10353 N 976.891 -6.06763 -0.933399 0
M  V30 10354 C 978.262 -6.15419 -0.752286 0
M  V30 10355 C 980.317 -4.84943 -1.12849 0
M  V30 10356 C 979.02 -7.19116 -0.162808 0
M  V30 10357 C 981.046 -5.88809 -0.552955 0
M  V30 10358 C 980.408 -7.0436 -0.0749195 0
M  V30 10359 H 976.507 -0.646894 -0.439377 0
M  V30 10360 H 979.091 -1.87244 -0.53364 0
M  V30 10361 H 977.262 -2.49667 -2.97525 0
M  V30 10362 H 978.994 -2.74423 -2.97446 0
M  V30 10363 H 975.749 -4.38282 -1.7946 0
M  V30 10364 H 976.173 -6.73906 -0.64647 0
M  V30 10365 H 980.815 -3.959 -1.48402 0
M  V30 10366 H 978.533 -8.0784 0.204943 0
M  V30 10367 H 982.119 -5.7991 -0.468633 0
M  V30 10368 H 980.999 -7.83357 0.363455 0
M  V30 10369 N 978.502 0.731368 -1.39602 0
M  V30 10370 C 979.732 1.51839 -1.40102 0
M  V30 10371 C 980.14 1.89199 0.00526634 0
M  V30 10372 O 979.483 1.54877 0.987874 0
M  V30 10373 C 979.545 2.83292 -2.21328 0
M  V30 10374 C 979.209 2.68345 -3.69919 0
M  V30 10375 C 980.206 2.36651 -4.62917 0
M  V30 10376 C 977.891 2.85102 -4.13548 0
M  V30 10377 C 979.885 2.21901 -5.97527 0
M  V30 10378 C 977.572 2.69971 -5.48233 0
M  V30 10379 C 978.57 2.38416 -6.40037 0
M  V30 10380 O 978.258 2.23383 -7.72241 0
M  V30 10381 H 977.99 0.475695 -0.480302 0
M  V30 10382 H 980.544 0.911096 -1.84087 0
M  V30 10383 H 978.774 3.46294 -1.72096 0
M  V30 10384 H 980.463 3.44928 -2.13961 0
M  V30 10385 H 981.229 2.23352 -4.3051 0
M  V30 10386 H 977.108 3.08655 -3.42423 0
M  V30 10387 H 980.652 1.97193 -6.69149 0
M  V30 10388 H 976.549 2.82849 -5.8023 0
M  V30 10389 H 977.317 2.38425 -7.83004 0
M  V30 10390 N 979.98 1.24838 0.961938 0
M  V30 10391 C 981.205 1.11967 1.7458 0
M  V30 10392 C 981.63 -0.323287 1.85301 0
M  V30 10393 O 980.988 -1.23412 1.32812 0
M  V30 10394 C 981.036 1.77066 3.14134 0
M  V30 10395 O 980.14 1.04534 3.98932 0
M  V30 10396 H 979.481 0.391338 0.536424 0
M  V30 10397 H 982.011 1.65259 1.20626 0
M  V30 10398 H 982.021 1.83056 3.64629 0
M  V30 10399 H 980.696 2.82052 3.05646 0
M  V30 10400 H 979.273 1.06372 3.57407 0
M  V30 10401 N 981.458 -1.16348 1.06306 0
M  V30 10402 C 982.388 -2.2291 0.695234 0
M  V30 10403 C 983.369 -1.67208 -0.312343 0
M  V30 10404 O 984.554 -1.93293 -0.187442 0
M  V30 10405 C 981.684 -3.47205 0.0810149 0
M  V30 10406 C 980.638 -4.15801 1.01458 0
M  V30 10407 C 979.964 -5.3405 0.263656 0
M  V30 10408 C 981.264 -4.66766 2.34365 0
M  V30 10409 H 982.958 -2.53934 1.58613 0
M  V30 10410 H 980.504 -1.22056 0.76409 0
M  V30 10411 H 982.457 -4.2098 -0.18818 0
M  V30 10412 H 981.181 -3.15482 -0.844897 0
M  V30 10413 H 979.84 -3.43954 1.26852 0
M  V30 10414 H 979.488 -4.9858 -0.665378 0
M  V30 10415 H 979.188 -5.80885 0.88582 0
M  V30 10416 H 980.712 -6.106 0.00200994 0
M  V30 10417 H 982.126 -5.3212 2.13356 0
M  V30 10418 H 980.523 -5.24223 2.9208 0
M  V30 10419 H 981.593 -3.82969 2.97426 0
M  V30 10420 N 982.937 -0.845659 -1.3299 0
M  V30 10421 C 984.185 -0.443774 -1.97168 0
M  V30 10422 C 984.506 1.00192 -1.67292 0
M  V30 10423 O 983.776 1.69891 -0.975397 0
M  V30 10424 H 982.356 -0.161111 -0.729419 0
M  V30 10425 H 985.018 -1.08011 -1.62233 0
M  V30 10426 H 984.114 -0.581414 -3.06637 0
M  V30 10427 N 984.415 1.45619 -0.602734 0
M  V30 10428 C 985.362 2.30493 0.118944 0
M  V30 10429 C 986.332 1.41816 0.864723 0
M  V30 10430 O 987.517 1.7075 0.851424 0
M  V30 10431 C 984.657 3.2664 1.11356 0
M  V30 10432 C 983.77 4.3042 0.369161 0
M  V30 10433 C 982.905 5.13678 1.35307 0
M  V30 10434 C 981.944 6.09189 0.596207 0
M  V30 10435 N 981.081 6.85245 1.52916 0
M  V30 10436 H 985.921 2.91672 -0.610836 0
M  V30 10437 H 983.458 1.43731 -0.313032 0
M  V30 10438 H 985.416 3.80846 1.7033 0
M  V30 10439 H 984.046 2.67225 1.81081 0
M  V30 10440 H 983.098 3.78913 -0.335994 0
M  V30 10441 H 984.41 4.98307 -0.221603 0
M  V30 10442 H 983.564 5.7226 2.01502 0
M  V30 10443 H 982.303 4.45798 1.97777 0
M  V30 10444 H 981.308 5.49743 -0.0793984 0
M  V30 10445 H 982.533 6.79096 -0.0233734 0
M  V30 10446 H 980.479 6.20058 2.14159 0
M  V30 10447 H 980.396 7.49467 0.991713 0
M  V30 10448 H 981.664 7.48371 2.18083 0
M  V30 10449 N 985.893 0.34162 1.53853 0
M  V30 10450 C 987.139 -0.255862 2.01179 0
M  V30 10451 C 987.472 -1.50356 1.22909 0
M  V30 10452 O 986.747 -1.91913 0.316198 0
M  V30 10453 C 987.03 -0.571934 3.55529 0
M  V30 10454 C 986.883 0.687727 4.44511 0
M  V30 10455 C 988.202 -1.38233 4.17827 0
M  V30 10456 H 985.321 -0.091521 0.731295 0
M  V30 10457 H 987.963 0.461775 1.84303 0
M  V30 10458 H 986.113 -1.18331 3.70041 0
M  V30 10459 H 987.785 1.32572 4.4184 0
M  V30 10460 H 986.028 1.313 4.13452 0
M  V30 10461 H 986.699 0.421858 5.50386 0
M  V30 10462 H 989.175 -0.865374 4.07002 0
M  V30 10463 H 988.051 -1.57223 5.25901 0
M  V30 10464 H 988.312 -2.38386 3.72323 0
M  V30 10465 N 987.371 -1.57444 0.0701946 0
M  V30 10466 C 988.782 -1.80875 -0.462709 0
M  V30 10467 C 989.133 -0.983975 -1.69742 0
M  V30 10468 O 988.258 -0.206027 -2.15417 0
M  V30 10469 C 988.853 -3.28062 -0.84623 0
M  V30 10470 C 987.412 -3.52345 -1.32401 0
M  V30 10471 C 986.559 -2.7558 -0.308399 0
M  V30 10472 H 989.51 -1.55917 0.295907 0
M  V30 10473 H 989.531 -3.40023 -1.70776 0
M  V30 10474 H 989.043 -3.88064 0.0526033 0
M  V30 10475 H 987.144 -2.97645 -2.24139 0
M  V30 10476 H 987.257 -4.6104 -1.30304 0
M  V30 10477 H 985.621 -2.4229 -0.785337 0
M  V30 10478 H 986.404 -3.38319 0.582679 0
M  V30 10479 N 988.849 0.203349 -1.56283 0
M  V30 10480 C 990.097 0.923183 -1.79782 0
M  V30 10481 C 990.418 1.84134 -0.64185 0
M  V30 10482 O 989.688 1.92922 0.340292 0
M  V30 10483 H 988.268 0.343881 -0.66314 0
M  V30 10484 H 990.93 0.210837 -1.93756 0
M  V30 10485 H 990.026 1.51921 -2.72629 0
M  V30 10486 N 990.327 1.50405 0.470755 0
M  V30 10487 C 991.275 1.6982 1.58946 0
M  V30 10488 C 992.269 0.56407 1.59733 0
M  V30 10489 O 993.475 0.744576 1.63878 0
M  V30 10490 H 989.85 0.536016 0.527438 0
M  V30 10491 H 991.821 2.63662 1.39732 0
M  V30 10492 C 990.57 1.80986 2.96883 0
M  V30 10493 H 989.893 2.67645 2.96996 0
M  V30 10494 H 991.333 1.98596 3.74614 0
M  V30 10495 C 989.792 0.561551 3.32187 0
M  V30 10496 O 990.322 -0.299136 4.00585 0
M  V30 10497 N 988.528 0.415476 2.87615 0
M  V30 10498 H 988.075 1.11691 2.32127 0
M  V30 10499 H 988.033 -0.418592 3.11601 0
M  V30 10500 N 991.805 -0.723954 1.39988 0
M  V30 10501 C 992.737 -1.84859 1.35498 0
M  V30 10502 C 993.75 -1.60681 0.261812 0
M  V30 10503 O 994.939 -1.7071 0.521566 0
M  V30 10504 C 992.039 -3.21103 1.08381 0
M  V30 10505 C 991.212 -3.72546 2.2919 0
M  V30 10506 C 990.271 -4.8738 1.9836 0
M  V30 10507 O 989.297 -5.00467 2.71149 0
M  V30 10508 N 990.499 -5.72566 0.956461 0
M  V30 10509 H 993.264 -1.89212 2.3242 0
M  V30 10510 H 990.825 -0.905152 1.34233 0
M  V30 10511 H 992.817 -3.9551 0.857564 0
M  V30 10512 H 991.387 -3.1195 0.201549 0
M  V30 10513 H 990.607 -2.89365 2.67697 0
M  V30 10514 H 991.895 -4.03652 3.09746 0
M  V30 10515 H 991.293 -5.64595 0.353444 0
M  V30 10516 H 989.85 -6.46993 0.790118 0
M  V30 10517 N 993.283 -1.25346 -0.955304 0
M  V30 10518 C 994.511 -1.12793 -1.73451 0
M  V30 10519 C 994.926 0.318344 -1.86097 0
M  V30 10520 O 994.283 1.21897 -1.35821 0
M  V30 10521 C 994.334 -1.77603 -3.14864 0
M  V30 10522 O 994.055 -3.16577 -3.02837 0
M  V30 10523 C 995.556 -1.70821 -4.09066 0
M  V30 10524 H 992.776 -0.393457 -0.543537 0
M  V30 10525 H 995.32 -1.65696 -1.19855 0
M  V30 10526 H 993.475 -1.28673 -3.65407 0
M  V30 10527 H 993.889 -3.48433 -3.92039 0
M  V30 10528 H 995.363 -2.2083 -5.05903 0
M  V30 10529 H 995.84 -0.671858 -4.34031 0
M  V30 10530 H 996.446 -2.19237 -3.64438 0
M  V30 10531 N 994.761 1.15782 -1.06922 0
M  V30 10532 C 995.986 1.90896 -0.810771 0
M  V30 10533 C 996.411 1.77246 0.629714 0
M  V30 10534 O 995.769 1.10215 1.43953 0
M  V30 10535 C 995.817 3.39397 -1.21829 0
M  V30 10536 O 994.921 4.10818 -0.360934 0
M  V30 10537 H 994.262 0.594497 -0.295752 0
M  V30 10538 H 996.792 1.46652 -1.42669 0
M  V30 10539 H 996.802 3.90181 -1.19259 0
M  V30 10540 H 995.477 3.4865 -2.2675 0
M  V30 10541 H 994.054 3.7019 -0.448748 0
M  V30 10542 N 996.239 0.8527 1.3254 0
M  V30 10543 C 997.467 0.469044 2.01513 0
M  V30 10544 C 997.882 -0.933701 1.64096 0
M  V30 10545 O 997.239 -1.60898 0.861283 0
M  V30 10546 C 997.29 0.596228 3.56549 0
M  V30 10547 O 997.011 1.94371 3.92621 0
M  V30 10548 C 998.512 0.211324 4.42796 0
M  V30 10549 H 995.732 0.184589 0.645111 0
M  V30 10550 H 998.276 1.1491 1.69163 0
M  V30 10551 H 996.431 -0.0360712 3.87383 0
M  V30 10552 H 996.845 1.93909 4.87339 0
M  V30 10553 H 998.319 0.351324 5.50881 0
M  V30 10554 H 998.796 -0.848055 4.30935 0
M  V30 10555 H 999.402 0.818617 4.17347 0
M  V30 10556 N 997.718 -1.45297 0.610449 0
M  V30 10557 C 998.946 -2.0659 0.113211 0
M  V30 10558 C 999.361 -1.4546 -1.20361 0
M  V30 10559 O 998.718 -0.569823 -1.73376 0
M  V30 10560 C 998.769 -3.61488 -0.0298411 0
M  V30 10561 O 998.49 -4.20336 1.23488 0
M  V30 10562 C 999.991 -4.39772 -0.558202 0
M  V30 10563 H 997.211 -0.667322 0.0701555 0
M  V30 10564 H 999.755 -1.86497 0.838993 0
M  V30 10565 H 997.91 -3.80913 -0.705963 0
M  V30 10566 H 998.324 -5.13545 1.0664 0
M  V30 10567 H 999.798 -5.48648 -0.607375 0
M  V30 10568 H 1000.27 -4.09755 -1.58107 0
M  V30 10569 H 1000.88 -4.25217 0.0839704 0
M  V30 10570 N 999.196 -0.349774 -1.5367 0
M  V30 10571 C 1000.13 0.496338 -2.28164 0
M  V30 10572 C 1001.11 1.09737 -1.29968 0
M  V30 10573 O 1002.29 1.11759 -1.58819 0
M  V30 10574 C 999.422 1.64428 -3.0591 0
M  V30 10575 C 998.376 1.17127 -4.11661 0
M  V30 10576 C 997.702 2.40822 -4.77398 0
M  V30 10577 C 999.002 0.267293 -5.21616 0
M  V30 10578 H 1000.7 -0.125117 -2.99138 0
M  V30 10579 H 998.242 -0.0616152 -1.43868 0
M  V30 10580 H 1000.19 2.2427 -3.56765 0
M  V30 10581 H 998.919 2.29272 -2.32598 0
M  V30 10582 H 997.578 0.595634 -3.61729 0
M  V30 10583 H 997.226 3.04088 -4.00674 0
M  V30 10584 H 996.926 2.09852 -5.48849 0
M  V30 10585 H 998.45 3.01378 -5.3104 0
M  V30 10586 H 999.864 0.772734 -5.68068 0
M  V30 10587 H 998.261 0.0491991 -6.0008 0
M  V30 10588 H 999.331 -0.694892 -4.79895 0
M  V30 10589 N 1000.67 1.57404 -0.0785433 0
M  V30 10590 C 1001.62 2.13104 0.88631 0
M  V30 10591 C 1002.59 1.04527 1.29086 0
M  V30 10592 O 1003.78 1.32226 1.37553 0
M  V30 10593 C 1000.92 2.70252 2.14611 0
M  V30 10594 C 1000.03 3.93007 1.79358 0
M  V30 10595 C 999.164 4.38376 3 0
M  V30 10596 C 998.203 5.53761 2.60796 0
M  V30 10597 N 997.34 5.94058 3.74219 0
M  V30 10598 H 1002.18 2.95243 0.404452 0
M  V30 10599 H 999.717 1.45894 0.187982 0
M  V30 10600 H 1001.67 3.01497 2.88367 0
M  V30 10601 H 1000.3 1.90868 2.60326 0
M  V30 10602 H 999.357 3.68181 0.956384 0
M  V30 10603 H 1000.67 4.76795 1.4652 0
M  V30 10604 H 999.823 4.71317 3.82027 0
M  V30 10605 H 998.562 3.53455 3.36037 0
M  V30 10606 H 997.567 5.20464 1.77192 0
M  V30 10607 H 998.792 6.40419 2.25922 0
M  V30 10608 H 996.738 5.12085 4.10005 0
M  V30 10609 H 996.655 6.72602 3.45171 0
M  V30 10610 H 997.923 6.31624 4.56805 0
M  V30 10611 N 1002.15 -0.195058 1.56388 0
M  V30 10612 C 1003.08 -1.24444 1.97575 0
M  V30 10613 C 1004.06 -1.47471 0.847717 0
M  V30 10614 O 1005.25 -1.59208 1.11205 0
M  V30 10615 C 1002.38 -2.58866 2.31529 0
M  V30 10616 C 1001.33 -2.50451 3.47071 0
M  V30 10617 C 1000.66 -3.89146 3.667 0
M  V30 10618 C 1001.96 -2.02953 4.81256 0
M  V30 10619 H 1003.65 -0.902178 2.85484 0
M  V30 10620 H 1001.2 -0.43254 1.3735 0
M  V30 10621 H 1003.15 -3.3246 2.58936 0
M  V30 10622 H 1001.87 -2.94833 1.40502 0
M  V30 10623 H 1000.53 -1.79313 3.19754 0
M  V30 10624 H 1000.18 -4.22466 2.73004 0
M  V30 10625 H 999.882 -3.84391 4.44429 0
M  V30 10626 H 1001.41 -4.64363 3.96484 0
M  V30 10627 H 1002.82 -2.66306 5.07695 0
M  V30 10628 H 1001.22 -2.092 5.62455 0
M  V30 10629 H 1002.29 -0.982757 4.74837 0
M  V30 10630 N 1003.63 -1.50653 -0.462772 0
M  V30 10631 C 1004.85 -1.66103 -1.24196 0
M  V30 10632 C 1005.28 -0.347421 -1.84864 0
M  V30 10633 O 1004.64 0.689673 -1.6767 0
M  V30 10634 C 1004.69 -2.76027 -2.32037 0
M  V30 10635 O 1003.79 -2.37859 -3.36893 0
M  V30 10636 H 1003.13 -0.554672 -0.365014 0
M  V30 10637 H 1005.66 -1.97076 -0.549734 0
M  V30 10638 H 1005.67 -2.99354 -2.77221 0
M  V30 10639 H 1004.35 -3.71361 -1.87253 0
M  V30 10640 H 1002.92 -2.2501 -2.97363 0
M  V30 10641 N 1005.11 0.71652 -1.4037 0
M  V30 10642 C 1006.52 1.29562 -1.34427 0
M  V30 10643 C 1006.87 1.96192 -0.0173106 0
M  V30 10644 O 1006 1.97488 0.884719 0
M  V30 10645 C 1006.59 2.35601 -2.4347 0
M  V30 10646 C 1005.15 2.89138 -2.4099 0
M  V30 10647 C 1004.3 1.62915 -2.24397 0
M  V30 10648 H 1007.25 0.512715 -1.5019 0
M  V30 10649 H 1007.27 3.16422 -2.11323 0
M  V30 10650 H 1006.78 1.87077 -3.40035 0
M  V30 10651 H 1004.88 3.41894 -1.4812 0
M  V30 10652 H 1004.99 3.40995 -3.3654 0
M  V30 10653 H 1003.36 1.87947 -1.71896 0
M  V30 10654 H 1004.14 1.16417 -3.22958 0
M  V30 10655 N 1006.59 1.25851 0.948643 0
M  V30 10656 C 1007.82 1.13546 1.726 0
M  V30 10657 C 1008.22 -0.312857 1.86595 0
M  V30 10658 O 1007.57 -1.22657 1.36751 0
M  V30 10659 C 1007.63 1.72315 3.15512 0
M  V30 10660 C 1007.29 3.2136 3.24926 0
M  V30 10661 C 1008.29 4.18274 3.08777 0
M  V30 10662 C 1005.98 3.61683 3.48555 0
M  V30 10663 C 1007.97 5.53491 3.16112 0
M  V30 10664 C 1005.66 4.97035 3.55526 0
M  V30 10665 C 1006.65 5.92749 3.3932 0
M  V30 10666 O 1006.34 7.25637 3.45985 0
M  V30 10667 H 1006.07 0.396555 0.547467 0
M  V30 10668 H 1008.63 1.66822 1.19832 0
M  V30 10669 H 1006.86 1.13494 3.6967 0
M  V30 10670 H 1008.55 1.55024 3.7513 0
M  V30 10671 H 1009.31 3.88461 2.90385 0
M  V30 10672 H 1005.19 2.87674 3.60229 0
M  V30 10673 H 1008.74 6.28177 3.0338 0
M  V30 10674 H 1004.63 5.26512 3.73437 0
M  V30 10675 H 1005.4 7.33812 3.62577 0
M  V30 10676 N 1008.06 -1.15214 1.07534 0
M  V30 10677 C 1009.31 -1.86319 0.800814 0
M  V30 10678 C 1009.64 -1.82221 -0.671494 0
M  V30 10679 O 1008.92 -1.24664 -1.49295 0
M  V30 10680 C 1009.2 -3.35347 1.31203 0
M  V30 10681 C 1009.05 -3.48067 2.84902 0
M  V30 10682 C 1010.37 -4.3016 0.930064 0
M  V30 10683 H 1007.49 -0.676523 0.292379 0
M  V30 10684 H 1010.13 -1.35349 1.33344 0
M  V30 10685 H 1008.28 -3.78886 0.858949 0
M  V30 10686 H 1009.96 -3.13379 3.38514 0
M  V30 10687 H 1008.2 -2.89566 3.23008 0
M  V30 10688 H 1008.87 -4.52782 3.15741 0
M  V30 10689 H 1011.35 -3.94591 1.3205 0
M  V30 10690 H 1010.22 -5.32914 1.31507 0
M  V30 10691 H 1010.48 -4.41796 -0.163824 0
M  V30 10692 N 1009.54 -0.859717 -1.32086 0
M  V30 10693 C 1010.49 -0.279715 -2.26278 0
M  V30 10694 C 1011.48 0.577348 -1.50185 0
M  V30 10695 O 1012.67 0.425903 -1.71799 0
M  V30 10696 C 1009.8 0.526622 -3.39237 0
M  V30 10697 C 1008.88 -0.343112 -4.2271 0
M  V30 10698 N 1009.27 -1.43176 -4.85113 0
M  V30 10699 C 1007.57 -0.133744 -4.45799 0
M  V30 10700 C 1008.27 -1.96725 -5.47425 0
M  V30 10701 N 1007.25 -1.26569 -5.2866 0
M  V30 10702 H 1011.05 -1.11191 -2.72055 0
M  V30 10703 H 1008.57 -0.706372 -1.46233 0
M  V30 10704 H 1010.56 0.958587 -4.0573 0
M  V30 10705 H 1009.22 1.35655 -2.95005 0
M  V30 10706 H 1010.23 -1.81469 -4.85066 0
M  V30 10707 H 1006.91 0.661064 -4.12233 0
M  V30 10708 H 1008.3 -2.88006 -6.07044 0
M  V30 10709 N 1011.02 1.44971 -0.618145 0
M  V30 10710 C 1012.25 2.06228 -0.123985 0
M  V30 10711 C 1012.66 1.46166 1.20134 0
M  V30 10712 O 1012 0.574099 1.74499 0
M  V30 10713 C 1012.06 3.59413 0.0789098 0
M  V30 10714 C 1011.73 4.41869 -1.16624 0
M  V30 10715 C 1012.72 4.76177 -2.0869 0
M  V30 10716 C 1010.41 4.82453 -1.39802 0
M  V30 10717 C 1012.4 5.49938 -3.22254 0
M  V30 10718 C 1010.09 5.55965 -2.53665 0
M  V30 10719 C 1011.09 5.89626 -3.44718 0
M  V30 10720 O 1010.78 6.61644 -4.56598 0
M  V30 10721 H 1010.51 0.672274 -0.0708822 0
M  V30 10722 H 1013.06 1.87038 -0.848868 0
M  V30 10723 H 1011.29 3.77043 0.8588 0
M  V30 10724 H 1012.98 4.02478 0.52599 0
M  V30 10725 H 1013.75 4.45372 -1.92012 0
M  V30 10726 H 1009.63 4.55681 -0.698245 0
M  V30 10727 H 1013.17 5.76129 -3.93347 0
M  V30 10728 H 1009.07 5.86185 -2.70291 0
M  V30 10729 H 1009.84 6.80103 -4.55414 0
M  V30 10730 N 1012.5 0.357919 1.53482 0
M  V30 10731 C 1013.73 -0.23514 2.05559 0
M  V30 10732 C 1014.14 -1.43068 1.23195 0
M  V30 10733 O 1013.5 -1.80481 0.270741 0
M  V30 10734 C 1013.55 -0.636147 3.55859 0
M  V30 10735 O 1013.27 0.511864 4.35099 0
M  V30 10736 C 1014.77 -1.28841 4.24164 0
M  V30 10737 H 1011.99 -0.0428446 0.669631 0
M  V30 10738 H 1014.54 0.51407 1.97933 0
M  V30 10739 H 1012.69 -1.33528 3.63661 0
M  V30 10740 H 1013.1 0.189328 5.24158 0
M  V30 10741 H 1014.58 -1.51962 5.30671 0
M  V30 10742 H 1015.06 -2.24638 3.77405 0
M  V30 10743 H 1015.66 -0.630914 4.20594 0
M  V30 10744 N 1013.98 -1.5736 0.0868897 0
M  V30 10745 C 1015.22 -1.94054 -0.578741 0
M  V30 10746 C 1015.55 -0.968047 -1.68698 0
M  V30 10747 O 1014.81 0.0137824 -1.95695 0
M  V30 10748 C 1015.11 -3.37316 -1.18123 0
M  V30 10749 C 1014.77 -4.50467 -0.197607 0
M  V30 10750 C 1013.43 -4.81145 0.072952 0
M  V30 10751 C 1015.79 -5.19036 0.474473 0
M  V30 10752 C 1013.11 -5.77723 1.02242 0
M  V30 10753 C 1015.47 -6.16632 1.41236 0
M  V30 10754 C 1014.13 -6.45719 1.69124 0
M  V30 10755 H 1013.4 -0.710093 -0.211776 0
M  V30 10756 H 1016.05 -1.90822 0.160978 0
M  V30 10757 H 1014.35 -3.37085 -1.99701 0
M  V30 10758 H 1016.05 -3.63003 -1.7038 0
M  V30 10759 H 1012.64 -4.2655 -0.418669 0
M  V30 10760 H 1016.82 -4.95518 0.278581 0
M  V30 10761 H 1012.08 -5.98578 1.24557 0
M  V30 10762 H 1016.25 -6.68862 1.939 0
M  V30 10763 H 1013.88 -7.20365 2.42855 0
M  V30 10764 N 1015.45 0.186762 -1.56489 0
M  V30 10765 C 1016.87 0.537933 -1.50261 0
M  V30 10766 C 1017.07 1.85435 -0.788414 0
M  V30 10767 O 1016.13 2.50168 -0.342377 0
M  V30 10768 C 1017.44 0.584965 -2.94955 0
M  V30 10769 C 1018.99 0.673228 -3.05674 0
M  V30 10770 C 1019.46 0.751294 -4.51796 0
M  V30 10771 N 1020.95 0.814599 -4.55981 0
M  V30 10772 C 1021.69 0.895313 -5.66367 0
M  V30 10773 N 1021.18 0.937814 -6.86423 0
M  V30 10774 N 1022.98 0.933145 -5.543 0
M  V30 10775 H 1015.13 -0.676636 -2.01334 0
M  V30 10776 H 1017.39 -0.242079 -0.916571 0
M  V30 10777 H 1017.1 -0.313361 -3.50301 0
M  V30 10778 H 1016.97 1.4368 -3.48763 0
M  V30 10779 H 1019.36 1.56198 -2.50372 0
M  V30 10780 H 1019.44 -0.204976 -2.54977 0
M  V30 10781 H 1019.08 -0.133143 -5.07725 0
M  V30 10782 H 1019.01 1.64542 -5.00233 0
M  V30 10783 H 1021.5 0.790662 -3.69536 0
M  V30 10784 H 1021.82 1.00015 -7.66301 0
M  V30 10785 H 1020.16 0.906351 -6.89065 0
M  V30 10786 H 1023.35 0.896836 -4.59428 0
M  V30 10787 H 1023.53 0.992588 -6.40353 0
M  V30 10788 N 1016.93 1.50896 0.454776 0
M  V30 10789 C 1018.18 1.6294 1.20741 0
M  V30 10790 C 1018.51 0.336339 1.91265 0
M  V30 10791 O 1017.79 -0.663153 1.82846 0
M  V30 10792 C 1018.07 2.82092 2.23822 0
M  V30 10793 C 1017.92 4.21326 1.57495 0
M  V30 10794 C 1019.24 2.96777 3.24979 0
M  V30 10795 H 1016.36 0.59302 0.437603 0
M  V30 10796 H 1019 1.83331 0.498959 0
M  V30 10797 H 1017.15 2.64837 2.84243 0
M  V30 10798 H 1018.82 4.50209 1.00546 0
M  V30 10799 H 1017.07 4.24829 0.877664 0
M  V30 10800 H 1017.74 5.00656 2.32482 0
M  V30 10801 H 1020.21 3.12627 2.74597 0
M  V30 10802 H 1019.09 3.81742 3.94416 0
M  V30 10803 H 1019.35 2.08091 3.90065 0
M  V30 10804 N 1018.41 -0.709066 1.40748 0
M  V30 10805 C 1019.64 -1.49808 1.42707 0
M  V30 10806 C 1020.05 -1.88778 0.0285574 0
M  V30 10807 O 1019.41 -1.55883 -0.949035 0
M  V30 10808 C 1019.46 -2.76926 2.32366 0
M  V30 10809 O 1019.18 -2.39602 3.66773 0
M  V30 10810 C 1020.68 -3.70773 2.42986 0
M  V30 10811 H 1017.9 -0.462106 0.486517 0
M  V30 10812 H 1020.45 -0.874135 1.84876 0
M  V30 10813 H 1018.6 -3.3559 1.93541 0
M  V30 10814 H 1019.02 -3.21443 4.14457 0
M  V30 10815 H 1020.49 -4.56789 3.09916 0
M  V30 10816 H 1020.97 -4.14332 1.45691 0
M  V30 10817 H 1021.57 -3.18019 2.8239 0
M  V30 10818 N 1019.89 -1.26353 -0.941956 0
M  V30 10819 C 1020.85 -1.07904 -2.02211 0
M  V30 10820 C 1021.85 -0.0276283 -1.60776 0
M  V30 10821 O 1023.04 -0.270965 -1.7208 0
M  V30 10822 C 1020.17 -0.641084 -3.34818 0
M  V30 10823 H 1021.37 -2.03804 -2.20009 0
M  V30 10824 H 1018.92 -1.08939 -1.12081 0
M  V30 10825 H 1019.66 0.319943 -3.22718 0
M  V30 10826 H 1019.44 -1.40027 -3.66244 0
M  V30 10827 H 1020.93 -0.533826 -4.14174 0
M  V30 10828 N 1021.37 1.14642 -1.08144 0
M  V30 10829 C 1022.62 1.84964 -0.804437 0
M  V30 10830 C 1022.93 1.8369 0.672106 0
M  V30 10831 O 1024.14 2.49775 1.06417 0
M  V30 10832 C 1022.59 3.32015 -1.38904 0
M  V30 10833 C 1022.2 3.41713 -2.89718 0
M  V30 10834 C 1023.94 4.07467 -1.19041 0
M  V30 10835 C 1021.85 4.82958 -3.41329 0
M  V30 10836 H 1020.78 0.692932 -0.297256 0
M  V30 10837 H 1023.43 1.29255 -1.30251 0
M  V30 10838 H 1021.81 3.87445 -0.818679 0
M  V30 10839 H 1022.99 2.96347 -3.52867 0
M  V30 10840 H 1021.3 2.79713 -3.08463 0
M  V30 10841 H 1023.9 5.1172 -1.55069 0
M  V30 10842 H 1024.24 4.16097 -0.130027 0
M  V30 10843 H 1024.78 3.58329 -1.72757 0
M  V30 10844 H 1021.51 4.79515 -4.46929 0
M  V30 10845 H 1021.03 5.28873 -2.82937 0
M  V30 10846 H 1022.71 5.51841 -3.37759 0
M  V30 10847 N 1022.85 0.866709 1.31628 0
M  V30 10848 C 1023.79 0.309128 2.30537 0
M  V30 10849 C 1024.79 -0.574028 1.59378 0
M  V30 10850 O 1025.99 -0.460491 1.7401 0
M  V30 10851 H 1022.37 0.081279 0.747595 0
M  V30 10852 H 1024.34 1.15734 2.75042 0
M  V30 10853 C 1023.09 -0.477287 3.44409 0
M  V30 10854 H 1022.41 0.19301 3.99334 0
M  V30 10855 H 1023.85 -0.832818 4.1574 0
M  V30 10856 C 1022.31 -1.66727 2.92752 0
M  V30 10857 O 1022.84 -2.76654 2.91248 0
M  V30 10858 N 1021.05 -1.49833 2.48995 0
M  V30 10859 H 1020.59 -0.604073 2.50417 0
M  V30 10860 H 1020.55 -2.29594 2.14788 0
M  V30 10861 N 1024.32 -1.44642 0.625825 0
M  V30 10862 C 1025.27 -2.30653 -0.082259 0
M  V30 10863 C 1026.24 -1.43174 -0.842052 0
M  V30 10864 O 1027.43 -1.72082 -0.824151 0
M  V30 10865 C 1024.57 -3.2837 -1.06146 0
M  V30 10866 C 1023.68 -4.30953 -0.300638 0
M  V30 10867 C 1022.81 -5.15766 -1.27118 0
M  V30 10868 C 1021.85 -6.10061 -0.499215 0
M  V30 10869 N 1020.99 -6.87591 -1.41995 0
M  V30 10870 H 1025.83 -2.90664 0.657161 0
M  V30 10871 H 1023.37 -1.43215 0.335859 0
M  V30 10872 H 1025.32 -3.83507 -1.6425 0
M  V30 10873 H 1023.95 -2.70072 -1.76807 0
M  V30 10874 H 1023.01 -3.78331 0.396234 0
M  V30 10875 H 1024.32 -4.97892 0.300851 0
M  V30 10876 H 1023.47 -5.75394 -1.92372 0
M  V30 10877 H 1022.21 -4.48888 -1.9066 0
M  V30 10878 H 1021.22 -5.49547 0.166848 0
M  V30 10879 H 1022.44 -6.78973 0.131409 0
M  V30 10880 H 1020.39 -6.23387 -2.04267 0
M  V30 10881 H 1020.3 -7.5095 -0.872354 0
M  V30 10882 H 1021.57 -7.51746 -2.0615 0
M  V30 10883 N 1025.8 -0.366053 -1.5329 0
M  V30 10884 C 1027.03 0.22391 -2.05383 0
M  V30 10885 C 1027.44 1.42962 -1.23929 0
M  V30 10886 O 1026.78 1.81659 -0.273072 0
M  V30 10887 C 1026.84 0.681038 -3.5299 0
M  V30 10888 C 1026.51 -0.40805 -4.55175 0
M  V30 10889 C 1027.51 -1.25806 -5.04449 0
M  V30 10890 C 1025.19 -0.568428 -4.99073 0
M  V30 10891 C 1027.18 -2.25379 -5.96224 0
M  V30 10892 C 1024.87 -1.56752 -5.90654 0
M  V30 10893 C 1025.87 -2.40864 -6.39119 0
M  V30 10894 O 1025.56 -3.39069 -7.28895 0
M  V30 10895 H 1025.29 0.0429593 -0.674634 0
M  V30 10896 H 1027.84 -0.522897 -1.98633 0
M  V30 10897 H 1026.07 1.47945 -3.5728 0
M  V30 10898 H 1027.76 1.19406 -3.8794 0
M  V30 10899 H 1028.53 -1.14536 -4.71282 0
M  V30 10900 H 1024.41 0.0764858 -4.60937 0
M  V30 10901 H 1027.95 -2.91068 -6.33976 0
M  V30 10902 H 1023.85 -1.6807 -6.23236 0
M  V30 10903 H 1024.62 -3.34804 -7.46893 0
M  V30 10904 N 1027.28 1.57312 -0.0952337 0
M  V30 10905 C 1028.53 1.93974 0.567319 0
M  V30 10906 C 1028.85 0.977805 1.68713 0
M  V30 10907 O 1028.12 0.0298944 1.95877 0
M  V30 10908 H 1026.7 0.71612 0.212558 0
M  V30 10909 H 1029.36 1.94254 -0.158598 0
M  V30 10910 H 1028.46 2.964 0.977423 0
M  V30 10911 N 1028.76 -0.17846 1.56586 0
M  V30 10912 C 1030.17 -0.741599 1.71339 0
M  V30 10913 C 1030.52 -1.83112 0.704579 0
M  V30 10914 O 1029.64 -2.15975 -0.135557 0
M  V30 10915 C 1030.24 -1.35198 3.10656 0
M  V30 10916 C 1028.8 -1.86202 3.27118 0
M  V30 10917 C 1027.95 -0.738255 2.67292 0
M  V30 10918 H 1030.9 0.0468424 1.58631 0
M  V30 10919 H 1030.92 -2.2216 3.0891 0
M  V30 10920 H 1030.43 -0.558776 3.84056 0
M  V30 10921 H 1028.53 -2.68188 2.58661 0
M  V30 10922 H 1028.64 -2.01237 4.34788 0
M  V30 10923 H 1027.01 -1.15686 2.26912 0
M  V30 10924 H 1027.79 0.0429821 3.43273 0
M  V30 10925 N 1030.24 -1.51135 -0.446768 0
M  V30 10926 C 1031.48 -1.63013 -1.19461 0
M  V30 10927 C 1031.8 -0.344067 -1.91941 0
M  V30 10928 O 1031.07 0.639666 -1.85162 0
M  V30 10929 H 1029.65 -0.600757 -0.443959 0
M  V30 10930 H 1032.32 -1.88024 -0.513137 0
M  V30 10931 H 1031.41 -2.45322 -1.92933 0
M  V30 10932 N 1031.71 0.701592 -1.41122 0
M  V30 10933 C 1032.62 1.84548 -1.44841 0
M  V30 10934 C 1033.64 1.70654 -0.339594 0
M  V30 10935 O 1034.82 1.92675 -0.586378 0
M  V30 10936 C 1031.88 3.20477 -1.3227 0
M  V30 10937 C 1030.94 3.46524 -2.53415 0
M  V30 10938 C 1030.17 4.75968 -2.41434 0
M  V30 10939 O 1030.4 5.52037 -1.43566 0
M  V30 10940 O 1029.33 5.02664 -3.31078 0
M  V30 10941 H 1033.16 1.84367 -2.41335 0
M  V30 10942 H 1030.74 0.853863 -1.22595 0
M  V30 10943 H 1032.62 4.01642 -1.2752 0
M  V30 10944 H 1031.3 3.21355 -0.388889 0
M  V30 10945 H 1030.21 2.65313 -2.63742 0
M  V30 10946 H 1031.54 3.50455 -3.45604 0
M  V30 10947 N 1033.19 1.2685 0.935242 0
M  V30 10948 C 1034.6 1.11569 1.49697 0
M  V30 10949 C 1034.95 -0.301952 1.93863 0
M  V30 10950 O 1034.08 -1.19408 1.80473 0
M  V30 10951 C 1034.67 2.01918 2.72056 0
M  V30 10952 C 1033.23 1.90765 3.24477 0
M  V30 10953 C 1032.38 1.94918 1.97237 0
M  V30 10954 H 1035.33 1.39853 0.750116 0
M  V30 10955 H 1035.35 1.57056 3.46574 0
M  V30 10956 H 1034.86 3.05088 2.39881 0
M  V30 10957 H 1032.96 0.905521 3.61429 0
M  V30 10958 H 1033.08 2.76611 3.91182 0
M  V30 10959 H 1031.44 1.39046 2.13397 0
M  V30 10960 H 1032.22 2.99729 1.67385 0
M  V30 10961 N 1034.67 -1.14067 1.0875 0
M  V30 10962 C 1035.9 -1.89582 0.841038 0
M  V30 10963 C 1036.32 -1.78226 -0.601436 0
M  V30 10964 O 1035.68 -1.12491 -1.42181 0
M  V30 10965 C 1035.73 -3.37415 1.27213 0
M  V30 10966 O 1034.83 -4.10191 0.426246 0
M  V30 10967 H 1034.17 -0.589716 0.305173 0
M  V30 10968 H 1036.7 -1.44364 1.44984 0
M  V30 10969 H 1036.71 -3.88234 1.25451 0
M  V30 10970 H 1035.39 -3.44999 2.32268 0
M  V30 10971 H 1033.96 -3.69429 0.507585 0
M  V30 10972 N 1036.15 -0.873678 -1.31166 0
M  V30 10973 C 1037.56 -0.53852 -1.78765 0
M  V30 10974 C 1037.91 0.944765 -1.71955 0
M  V30 10975 O 1037.04 1.73781 -1.28954 0
M  V30 10976 C 1037.63 -0.970749 -3.24595 0
M  V30 10977 C 1036.19 -0.687189 -3.70074 0
M  V30 10978 C 1035.34 -1.16001 -2.51871 0
M  V30 10979 H 1038.29 -1.05903 -1.18196 0
M  V30 10980 H 1038.31 -0.294966 -3.79355 0
M  V30 10981 H 1037.82 -2.05034 -3.29519 0
M  V30 10982 H 1035.92 0.380881 -3.70648 0
M  V30 10983 H 1036.03 -1.26682 -4.62048 0
M  V30 10984 H 1034.4 -0.579663 -2.48016 0
M  V30 10985 H 1035.18 -2.2471 -2.59539 0
M  V30 10986 N 1037.63 1.44308 -0.633487 0
M  V30 10987 C 1038.87 2.02322 -0.139123 0
M  V30 10988 C 1039.21 1.49733 1.23667 0
M  V30 10989 O 1038.48 0.682353 1.82138 0
M  V30 10990 C 1038.76 3.59871 -0.128366 0
M  V30 10991 C 1038.62 4.22737 -1.53667 0
M  V30 10992 C 1039.94 4.36702 0.545834 0
M  V30 10993 H 1037.05 0.735161 -0.0520293 0
M  V30 10994 H 1039.7 1.7185 -0.810411 0
M  V30 10995 H 1037.85 3.85963 0.443263 0
M  V30 10996 H 1039.52 4.07744 -2.15737 0
M  V30 10997 H 1037.76 3.80142 -2.08985 0
M  V30 10998 H 1038.43 5.31757 -1.48116 0
M  V30 10999 H 1040.91 4.16057 0.0596879 0
M  V30 11000 H 1039.78 5.46407 0.522557 0
M  V30 11001 H 1040.05 4.11483 1.6166 0
M  V30 11002 N 1039.1 0.374177 1.53094 0
M  V30 11003 C 1040.33 -0.215903 2.06273 0
M  V30 11004 C 1040.75 -1.40979 1.24526 0
M  V30 11005 O 1040.11 -1.79331 0.266462 0
M  V30 11006 C 1040.16 -0.579089 3.5592 0
M  V30 11007 O 1039.26 -1.67516 3.76845 0
M  V30 11008 H 1038.61 -0.0293981 0.663349 0
M  V30 11009 H 1041.14 0.537271 1.9742 0
M  V30 11010 H 1041.15 -0.847678 3.99097 0
M  V30 11011 H 1039.82 0.293843 4.14861 0
M  V30 11012 H 1038.4 -1.40146 3.45563 0
M  V30 11013 N 1040.58 -1.57259 0.103575 0
M  V30 11014 C 1041.49 -2.18018 -0.866327 0
M  V30 11015 C 1042.51 -1.15198 -1.30404 0
M  V30 11016 O 1043.68 -1.47605 -1.37021 0
M  V30 11017 C 1040.75 -2.75533 -2.10434 0
M  V30 11018 C 1039.81 -3.93337 -1.72002 0
M  V30 11019 C 1039.04 -4.481 -2.89901 0
M  V30 11020 O 1039.27 -4.01784 -4.04877 0
M  V30 11021 O 1038.2 -5.39004 -2.67877 0
M  V30 11022 H 1042.03 -3.01322 -0.379338 0
M  V30 11023 H 1039.61 -1.48907 -0.121228 0
M  V30 11024 H 1041.49 -3.12259 -2.8297 0
M  V30 11025 H 1040.17 -1.9527 -2.58169 0
M  V30 11026 H 1039.08 -3.61408 -0.966193 0
M  V30 11027 H 1040.41 -4.74989 -1.29022 0
M  V30 11028 N 1042.06 0.170153 -1.56679 0
M  V30 11029 C 1043.29 0.902134 -1.86197 0
M  V30 11030 C 1043.7 1.75775 -0.689098 0
M  V30 11031 O 1043.06 1.79271 0.341763 0
M  V30 11032 C 1043.11 1.77792 -3.14757 0
M  V30 11033 O 1042.83 0.956817 -4.27524 0
M  V30 11034 C 1044.33 2.61947 -3.57629 0
M  V30 11035 H 1041.55 0.262026 -0.617724 0
M  V30 11036 H 1044.1 0.169899 -2.03793 0
M  V30 11037 H 1042.25 2.46348 -2.98984 0
M  V30 11038 H 1042.67 1.5559 -5.00891 0
M  V30 11039 H 1044.14 3.19011 -4.50484 0
M  V30 11040 H 1044.62 3.36873 -2.81803 0
M  V30 11041 H 1045.22 1.98721 -3.76019 0
M  V30 11042 N 1043.54 1.5137 0.438746 0
M  V30 11043 C 1044.78 1.64211 1.19006 0
M  V30 11044 C 1045.12 0.356607 1.90898 0
M  V30 11045 O 1044.39 -0.643722 1.83539 0
M  V30 11046 C 1044.68 2.8445 2.20817 0
M  V30 11047 C 1044.53 4.22972 1.53018 0
M  V30 11048 C 1045.85 3.00207 3.21813 0
M  V30 11049 H 1042.97 0.597628 0.431288 0
M  V30 11050 H 1045.61 1.8385 0.479487 0
M  V30 11051 H 1043.76 2.67836 2.81418 0
M  V30 11052 H 1045.43 4.5125 0.957654 0
M  V30 11053 H 1043.67 4.25736 0.832556 0
M  V30 11054 H 1044.34 5.03094 2.27158 0
M  V30 11055 H 1046.82 3.15522 2.71266 0
M  V30 11056 H 1045.7 3.85904 3.90345 0
M  V30 11057 H 1045.96 2.12216 3.87836 0
M  V30 11058 N 1045.02 -0.694098 1.41492 0
M  V30 11059 C 1046.26 -1.4563 1.41137 0
M  V30 11060 C 1046.6 -1.94189 0.0208428 0
M  V30 11061 O 1045.87 -1.69628 -0.951655 0
M  V30 11062 C 1046.15 -2.66714 2.41941 0
M  V30 11063 C 1046.01 -2.23912 3.90107 0
M  V30 11064 C 1047.33 -3.68913 2.39981 0
M  V30 11065 H 1044.44 -0.52821 0.513968 0
M  V30 11066 H 1047.09 -0.790437 1.72778 0
M  V30 11067 H 1045.24 -3.23525 2.1509 0
M  V30 11068 H 1046.91 -1.72417 4.27867 0
M  V30 11069 H 1045.15 -1.5568 4.04903 0
M  V30 11070 H 1045.82 -3.108 4.56188 0
M  V30 11071 H 1048.3 -3.21779 2.63813 0
M  V30 11072 H 1047.17 -4.51242 3.12524 0
M  V30 11073 H 1047.44 -4.18711 1.41892 0
M  V30 11074 N 1046.49 -1.27344 -0.928501 0
M  V30 11075 C 1047.72 -1.16447 -1.7102 0
M  V30 11076 C 1048.14 0.278799 -1.8673 0
M  V30 11077 O 1047.49 1.18989 -1.38376 0
M  V30 11078 C 1047.55 -1.84242 -3.11026 0
M  V30 11079 O 1047.27 -3.2293 -2.96054 0
M  V30 11080 C 1048.77 -1.7946 -4.05351 0
M  V30 11081 H 1045.99 -0.404898 -0.535069 0
M  V30 11082 H 1048.53 -1.68201 -1.16313 0
M  V30 11083 H 1046.69 -1.36395 -3.62595 0
M  V30 11084 H 1047.1 -3.5667 -3.8456 0
M  V30 11085 H 1048.57 -2.31511 -5.01105 0
M  V30 11086 H 1049.05 -0.763771 -4.32508 0
M  V30 11087 H 1049.66 -2.26918 -3.59706 0
M  V30 11088 N 1047.97 1.13488 -1.09353 0
M  V30 11089 C 1049.38 1.66299 -0.848609 0
M  V30 11090 C 1049.73 1.86044 0.623051 0
M  V30 11091 O 1048.86 1.57871 1.48005 0
M  V30 11092 C 1049.45 3.02087 -1.53391 0
M  V30 11093 C 1048.01 3.51893 -1.33598 0
M  V30 11094 C 1047.16 2.27154 -1.59048 0
M  V30 11095 H 1050.11 0.974208 -1.25279 0
M  V30 11096 H 1050.13 3.68018 -0.966587 0
M  V30 11097 H 1049.64 2.87684 -2.60498 0
M  V30 11098 H 1047.75 3.715 -0.286045 0
M  V30 11099 H 1047.86 4.32059 -2.0703 0
M  V30 11100 H 1046.22 2.33708 -1.01256 0
M  V30 11101 H 1047.01 2.15317 -2.67383 0
M  V30 11102 N 1049.45 0.880621 1.30701 0
M  V30 11103 C 1050.36 0.348034 2.32004 0
M  V30 11104 C 1051.38 -0.547508 1.65162 0
M  V30 11105 O 1052.55 -0.441673 1.96497 0
M  V30 11106 C 1049.62 -0.432585 3.43991 0
M  V30 11107 C 1048.68 0.492189 4.26469 0
M  V30 11108 C 1047.91 -0.25127 5.33108 0
M  V30 11109 O 1048.14 -1.47795 5.5092 0
M  V30 11110 O 1047.07 0.396376 6.00593 0
M  V30 11111 H 1050.9 1.18798 2.79501 0
M  V30 11112 H 1048.48 0.64432 1.34792 0
M  V30 11113 H 1050.36 -0.874733 4.12221 0
M  V30 11114 H 1049.04 -1.2489 2.98637 0
M  V30 11115 H 1047.94 0.983058 3.60953 0
M  V30 11116 H 1049.28 1.27439 4.75416 0
M  V30 11117 N 1050.93 -1.4397 0.641131 0
M  V30 11118 C 1051.89 -2.29149 -0.0482243 0
M  V30 11119 C 1052.89 -1.41572 -0.762495 0
M  V30 11120 O 1054.08 -1.63335 -0.605571 0
M  V30 11121 C 1051.21 -3.23375 -1.07896 0
M  V30 11122 H 1052.41 -2.9159 0.70109 0
M  V30 11123 H 1049.96 -1.51048 0.401754 0
M  V30 11124 H 1050.7 -2.65804 -1.85792 0
M  V30 11125 H 1050.48 -3.87926 -0.570597 0
M  V30 11126 H 1051.97 -3.87337 -1.56075 0
M  V30 11127 N 1052.41 -0.382291 -1.52893 0
M  V30 11128 C 1053.37 0.44408 -2.24857 0
M  V30 11129 C 1054.37 0.996004 -1.26239 0
M  V30 11130 O 1055.56 0.879114 -1.5039 0
M  V30 11131 C 1052.69 1.62234 -2.99822 0
M  V30 11132 H 1053.89 -0.185862 -2.99324 0
M  V30 11133 H 1051.44 -0.134275 -1.55722 0
M  V30 11134 H 1052.17 2.28991 -2.29638 0
M  V30 11135 H 1051.96 1.23336 -3.72197 0
M  V30 11136 H 1053.45 2.20756 -3.54481 0
M  V30 11137 N 1053.89 1.57202 -0.111913 0
M  V30 11138 C 1055.3 1.82039 0.414591 0
M  V30 11139 C 1055.65 1.02863 1.67074 0
M  V30 11140 O 1054.77 0.263068 2.14795 0
M  V30 11141 C 1055.37 3.3019 0.758953 0
M  V30 11142 C 1053.93 3.55732 1.23012 0
M  V30 11143 C 1053.07 2.76301 0.235226 0
M  V30 11144 H 1056.02 1.55078 -0.337142 0
M  V30 11145 H 1056.05 3.44431 1.61701 0
M  V30 11146 H 1055.56 3.87788 -0.155473 0
M  V30 11147 H 1053.66 3.03483 2.16169 0
M  V30 11148 H 1053.77 4.64333 1.18034 0
M  V30 11149 H 1052.14 2.44287 0.720822 0
M  V30 11150 H 1052.92 3.36655 -0.672173 0
M  V30 11151 N 1055.36 -0.161842 1.56767 0
M  V30 11152 C 1056.27 -1.21996 2.00385 0
M  V30 11153 C 1057.29 -1.4789 0.916768 0
M  V30 11154 O 1058.47 -1.59852 1.22513 0
M  V30 11155 C 1055.53 -2.53695 2.36305 0
M  V30 11156 C 1054.59 -2.3558 3.58888 0
M  V30 11157 C 1053.82 -3.60998 3.93085 0
M  V30 11158 O 1054.05 -4.6657 3.28129 0
M  V30 11159 O 1052.98 -3.54544 4.86397 0
M  V30 11160 H 1056.81 -0.879701 2.9068 0
M  V30 11161 H 1054.39 -0.369437 1.4476 0
M  V30 11162 H 1056.27 -3.31366 2.60335 0
M  V30 11163 H 1054.95 -2.87281 1.49169 0
M  V30 11164 H 1053.86 -1.55908 3.40064 0
M  V30 11165 H 1055.19 -2.06915 4.46595 0
M  V30 11166 N 1056.84 -1.516 -0.430713 0
M  V30 11167 C 1057.79 -1.73392 -1.52328 0
M  V30 11168 C 1058.76 -0.575758 -1.55802 0
M  V30 11169 O 1059.94 -0.810931 -1.72709 0
M  V30 11170 C 1057.08 -1.87092 -2.89984 0
M  V30 11171 C 1056.2 -3.14668 -2.95987 0
M  V30 11172 C 1055.33 -3.18923 -4.24807 0
M  V30 11173 C 1054.37 -4.40787 -4.24703 0
M  V30 11174 N 1053.51 -4.42556 -5.45059 0
M  V30 11175 H 1058.35 -2.6665 -1.33048 0
M  V30 11176 H 1055.88 -1.32146 -0.646207 0
M  V30 11177 H 1057.84 -1.93017 -3.69865 0
M  V30 11178 H 1056.47 -0.972363 -3.07807 0
M  V30 11179 H 1055.52 -3.1802 -2.08728 0
M  V30 11180 H 1056.84 -4.04562 -2.91772 0
M  V30 11181 H 1055.99 -3.23801 -5.13067 0
M  V30 11182 H 1054.73 -2.2693 -4.31688 0
M  V30 11183 H 1053.73 -4.36079 -3.34836 0
M  V30 11184 H 1054.96 -5.34053 -4.19481 0
M  V30 11185 H 1052.91 -3.53435 -5.52648 0
M  V30 11186 H 1052.82 -5.26267 -5.42751 0
M  V30 11187 H 1054.09 -4.51634 -6.35332 0
M  V30 11188 N 1058.32 0.686584 -1.41858 0
M  V30 11189 C 1059.27 1.82167 -1.4463 0
M  V30 11190 C 1060.26 1.66286 -0.323313 0
M  V30 11191 O 1061.47 1.73038 -0.495773 0
M  V30 11192 H 1057.84 0.600454 -0.452724 0
M  V30 11193 H 1059.81 1.76947 -2.40276 0
M  V30 11194 C 1058.56 3.20248 -1.35412 0
M  V30 11195 H 1057.89 3.33089 -2.21115 0
M  V30 11196 H 1059.33 3.99723 -1.41413 0
M  V30 11197 C 1057.78 3.36832 -0.0674972 0
M  V30 11198 O 1058.31 3.91845 0.884325 0
M  V30 11199 N 1056.52 2.90598 0.011519 0
M  V30 11200 H 1056.07 2.46016 -0.76381 0
M  V30 11201 H 1056.03 3.02072 0.871774 0
M  V30 11202 N 1059.8 1.27835 0.921735 0
M  V30 11203 C 1061.21 1.13151 1.48505 0
M  V30 11204 C 1061.56 -0.281373 1.94172 0
M  V30 11205 O 1060.68 -1.17487 1.8173 0
M  V30 11206 C 1061.28 2.04792 2.69899 0
M  V30 11207 C 1059.84 1.94196 3.22436 0
M  V30 11208 C 1058.99 1.96999 1.95158 0
M  V30 11209 H 1061.94 1.40641 0.735241 0
M  V30 11210 H 1061.96 1.60724 3.44889 0
M  V30 11211 H 1061.47 3.07615 2.36631 0
M  V30 11212 H 1059.57 0.943805 3.60448 0
M  V30 11213 H 1059.68 2.80744 3.88226 0
M  V30 11214 H 1058.05 1.41301 2.11911 0
M  V30 11215 H 1058.83 3.01487 1.64196 0
M  V30 11216 N 1061.28 -1.12907 1.09954 0
M  V30 11217 C 1062.52 -1.84579 0.840155 0
M  V30 11218 C 1062.85 -1.83605 -0.632692 0
M  V30 11219 O 1062.13 -1.27803 -1.46617 0
M  V30 11220 C 1062.41 -3.32489 1.38286 0
M  V30 11221 C 1062.27 -3.41946 2.92221 0
M  V30 11222 C 1063.58 -4.28091 1.0211 0
M  V30 11223 H 1060.7 -0.670169 0.306663 0
M  V30 11224 H 1063.35 -1.3249 1.36185 0
M  V30 11225 H 1061.5 -3.76978 0.939123 0
M  V30 11226 H 1063.17 -3.06128 3.45085 0
M  V30 11227 H 1061.41 -2.8265 3.29077 0
M  V30 11228 H 1062.08 -4.45983 3.25274 0
M  V30 11229 H 1064.56 -3.91701 1.4039 0
M  V30 11230 H 1063.43 -5.30005 1.42781 0
M  V30 11231 H 1063.69 -4.42044 -0.0700753 0
M  V30 11232 N 1062.75 -0.88754 -1.30232 0
M  V30 11233 C 1064.03 -0.427249 -1.90877 0
M  V30 11234 C 1064.41 1.0922 -1.80649 0
M  V30 11235 O 1063.76 1.92866 -1.22536 0
M  V30 11236 C 1063.97 -0.928219 -3.3643 0
M  V30 11237 C 1065.32 -0.964706 -4.13496 0
M  V30 11238 O 1066.34 -0.875057 -3.45284 0
M  V30 11239 O 1065.2 -1.09754 -5.35366 0
M  V30 11240 H 1062.29 -0.131107 -0.816541 0
M  V30 11241 H 1064.84 -0.976609 -1.38782 0
M  V30 11242 H 1063.61 -1.97209 -3.37971 0
M  V30 11243 H 1063.23 -0.358169 -3.95983 0
M  V30 11244 N 1064.23 1.43628 -0.648757 0
M  V30 11245 C 1065.48 2.02163 -0.160574 0
M  V30 11246 C 1065.81 1.51037 1.22072 0
M  V30 11247 O 1065.09 0.701633 1.81404 0
M  V30 11248 C 1065.37 3.59715 -0.166528 0
M  V30 11249 C 1065.22 4.21083 -1.58142 0
M  V30 11250 C 1066.54 4.37256 0.499485 0
M  V30 11251 H 1063.66 0.734568 -0.0598238 0
M  V30 11252 H 1066.3 1.70981 -0.828592 0
M  V30 11253 H 1064.45 3.86411 0.402302 0
M  V30 11254 H 1066.12 4.05433 -2.2005 0
M  V30 11255 H 1064.37 3.77904 -2.13005 0
M  V30 11256 H 1065.04 5.30156 -1.53748 0
M  V30 11257 H 1067.51 4.16097 0.0155561 0
M  V30 11258 H 1066.39 5.4693 0.464574 0
M  V30 11259 H 1066.65 4.13175 1.57286 0
M  V30 11260 N 1065.71 0.390394 1.52688 0
M  V30 11261 C 1066.66 -0.444229 2.26485 0
M  V30 11262 C 1067.63 -1.05688 1.28138 0
M  V30 11263 O 1068.81 -1.0847 1.56968 0
M  V30 11264 C 1065.95 -1.56501 3.07574 0
M  V30 11265 C 1065.07 -0.975111 4.20851 0
M  V30 11266 C 1064.2 -2.06704 4.89333 0
M  V30 11267 C 1063.24 -1.45309 5.94602 0
M  V30 11268 N 1062.38 -2.48437 6.56676 0
M  V30 11269 H 1067.22 0.191535 2.97384 0
M  V30 11270 H 1064.75 0.106287 1.46716 0
M  V30 11271 H 1066.71 -2.22558 3.52879 0
M  V30 11272 H 1065.34 -2.17107 2.38881 0
M  V30 11273 H 1064.39 -0.204109 3.79852 0
M  V30 11274 H 1065.71 -0.486465 4.96422 0
M  V30 11275 H 1064.86 -2.80528 5.37949 0
M  V30 11276 H 1063.6 -2.58928 4.13289 0
M  V30 11277 H 1062.6 -0.700091 5.45324 0
M  V30 11278 H 1063.83 -0.938775 6.7258 0
M  V30 11279 H 1061.77 -2.99829 5.83471 0
M  V30 11280 H 1061.69 -2.04331 7.27863 0
M  V30 11281 H 1062.96 -3.21888 7.09935 0
M  V30 11282 N 1067.19 -1.57141 0.120249 0
M  V30 11283 C 1068.44 -1.94852 -0.536387 0
M  V30 11284 C 1068.76 -1.00452 -1.67136 0
M  V30 11285 O 1068.03 -0.061053 -1.95805 0
M  V30 11286 H 1066.61 -0.719411 -0.201138 0
M  V30 11287 H 1069.27 -1.93977 0.189482 0
M  V30 11288 H 1068.37 -2.97917 -0.930145 0
M  V30 11289 N 1068.67 0.153526 -1.5685 0
M  V30 11290 C 1069.58 1.20932 -2.01029 0
M  V30 11291 C 1070.59 1.47401 -0.924598 0
M  V30 11292 O 1071.77 1.592 -1.23359 0
M  V30 11293 C 1068.83 2.52438 -2.37647 0
M  V30 11294 C 1067.89 2.33673 -3.60132 0
M  V30 11295 C 1067.13 3.58909 -3.94994 0
M  V30 11296 O 1067.35 4.64823 -3.30599 0
M  V30 11297 O 1066.28 3.5196 -4.8827 0
M  V30 11298 H 1070.11 0.864273 -2.91143 0
M  V30 11299 H 1067.7 0.361755 -1.44954 0
M  V30 11300 H 1069.58 3.29981 -2.62088 0
M  V30 11301 H 1068.25 2.86486 -1.5069 0
M  V30 11302 H 1067.16 1.54102 -3.40886 0
M  V30 11303 H 1068.49 2.04544 -4.47686 0
M  V30 11304 N 1070.14 1.51827 0.422667 0
M  V30 11305 C 1071.39 1.64893 1.16853 0
M  V30 11306 C 1071.71 0.37456 1.91369 0
M  V30 11307 O 1070.98 -0.610128 1.86157 0
M  V30 11308 H 1069.56 0.607744 0.434345 0
M  V30 11309 H 1072.23 1.88816 0.483159 0
M  V30 11310 H 1071.32 2.48361 1.89006 0
M  V30 11311 N 1071.62 -0.679052 1.4222 0
M  V30 11312 C 1072.57 -1.81398 1.45594 0
M  V30 11313 C 1073.56 -1.66112 0.332127 0
M  V30 11314 O 1074.77 -1.72772 0.504942 0
M  V30 11315 H 1071.15 -0.598045 0.455902 0
M  V30 11316 H 1073.12 -1.7567 2.41211 0
M  V30 11317 C 1071.87 -3.19525 1.37109 0
M  V30 11318 H 1071.19 -3.31912 2.22878 0
M  V30 11319 H 1072.63 -3.98967 1.43531 0
M  V30 11320 C 1071.09 -3.36792 0.0853593 0
M  V30 11321 O 1071.62 -3.92309 -0.863532 0
M  V30 11322 N 1069.82 -2.906 0.00389229 0
M  V30 11323 H 1069.37 -2.45607 0.776846 0
M  V30 11324 H 1069.33 -3.0253 -0.855742 0
M  V30 11325 N 1073.1 -1.28322 -0.914942 0
M  V30 11326 C 1074.01 -1.13993 -2.05043 0
M  V30 11327 C 1075.03 -0.0667921 -1.73872 0
M  V30 11328 O 1076.2 -0.275845 -1.99502 0
M  V30 11329 C 1073.27 -0.801856 -3.373 0
M  V30 11330 C 1072.33 -1.95723 -3.82088 0
M  V30 11331 C 1071.56 -1.63519 -5.08033 0
M  V30 11332 O 1071.78 -0.54899 -5.67752 0
M  V30 11333 O 1070.72 -2.47844 -5.48504 0
M  V30 11334 H 1074.54 -2.09313 -2.2005 0
M  V30 11335 H 1072.13 -1.0763 -1.03616 0
M  V30 11336 H 1074.01 -0.627214 -4.16706 0
M  V30 11337 H 1072.69 0.121696 -3.23471 0
M  V30 11338 H 1071.59 -2.18702 -3.03514 0
M  V30 11339 H 1072.93 -2.86144 -4.00478 0
M  V30 11340 N 1074.58 1.12322 -1.10551 0
M  V30 11341 C 1075.81 1.87679 -0.87087 0
M  V30 11342 C 1076.22 1.79711 0.578733 0
M  V30 11343 O 1075.58 1.17185 1.39907 0
M  V30 11344 C 1075.63 3.36846 -1.31213 0
M  V30 11345 O 1075.35 3.44626 -2.70489 0
M  V30 11346 C 1076.85 4.29138 -1.11156 0
M  V30 11347 H 1074.07 0.593788 -0.3125 0
M  V30 11348 H 1076.62 1.42116 -1.47048 0
M  V30 11349 H 1074.77 3.79948 -0.756169 0
M  V30 11350 H 1075.18 4.37441 -2.89389 0
M  V30 11351 H 1076.66 5.32082 -1.46944 0
M  V30 11352 H 1077.14 4.39171 -0.0502963 0
M  V30 11353 H 1077.74 3.91818 -1.65405 0
M  V30 11354 N 1076.06 0.894434 1.2976 0
M  V30 11355 C 1077.28 0.532916 1.99919 0
M  V30 11356 C 1077.7 -0.881022 1.66983 0
M  V30 11357 O 1077.06 -1.58076 0.912035 0
M  V30 11358 C 1077.11 0.70936 3.54472 0
M  V30 11359 O 1076.83 2.06764 3.86239 0
M  V30 11360 C 1078.33 0.352089 4.419 0
M  V30 11361 H 1075.55 0.205019 0.638912 0
M  V30 11362 H 1078.09 1.20233 1.65421 0
M  V30 11363 H 1076.25 0.0871901 3.87302 0
M  V30 11364 H 1076.66 2.09315 4.80924 0
M  V30 11365 H 1078.14 0.526405 5.49484 0
M  V30 11366 H 1078.61 -0.710527 4.33415 0
M  V30 11367 H 1079.22 0.950979 4.14532 0
M  V30 11368 N 1077.53 -1.43282 0.656365 0
M  V30 11369 C 1078.48 -2.32556 -0.0452037 0
M  V30 11370 C 1079.48 -1.48789 -0.80982 0
M  V30 11371 O 1080.68 -1.64979 -0.719865 0
M  V30 11372 H 1077.06 -0.751258 -0.0334043 0
M  V30 11373 H 1079.03 -2.89448 0.725423 0
M  V30 11374 C 1077.78 -3.33138 -0.995706 0
M  V30 11375 H 1077.1 -3.97622 -0.416774 0
M  V30 11376 H 1078.54 -3.98231 -1.45562 0
M  V30 11377 C 1077 -2.63978 -2.09325 0
M  V30 11378 O 1077.53 -2.45769 -3.17743 0
M  V30 11379 N 1075.74 -2.23301 -1.8597 0
M  V30 11380 H 1075.28 -2.38312 -0.97802 0
M  V30 11381 H 1075.24 -1.77358 -2.59599 0
M  V30 11382 N 1079.01 -0.398486 -1.52479 0
M  V30 11383 C 1079.95 0.476551 -2.23169 0
M  V30 11384 C 1080.92 1.05665 -1.23587 0
M  V30 11385 O 1082.11 1.10654 -1.52604 0
M  V30 11386 C 1079.24 1.66048 -2.95204 0
M  V30 11387 C 1078.28 1.20478 -4.0913 0
M  V30 11388 S 1079.11 0.178711 -5.35202 0
M  V30 11389 C 1080.27 1.36821 -6.10762 0
M  V30 11390 H 1080.5 -0.123704 -2.97043 0
M  V30 11391 H 1078.04 -0.182722 -1.53315 0
M  V30 11392 H 1079.99 2.33942 -3.37315 0
M  V30 11393 H 1078.66 2.23206 -2.20993 0
M  V30 11394 H 1077.85 2.08901 -4.58668 0
M  V30 11395 H 1077.45 0.604632 -3.6908 0
M  V30 11396 H 1079.74 2.2937 -6.37492 0
M  V30 11397 H 1080.69 0.913579 -7.02182 0
M  V30 11398 H 1081.09 1.58919 -5.41669 0
M  V30 11399 N 1080.49 1.57075 -0.12858 0
M  V30 11400 C 1081.74 1.9581 0.527868 0
M  V30 11401 C 1082.07 1.01253 1.65715 0
M  V30 11402 O 1081.35 0.0514853 1.94432 0
M  V30 11403 C 1081.63 3.44406 1.05151 0
M  V30 11404 C 1081.48 4.49737 -0.0750113 0
M  V30 11405 C 1082.8 3.95069 1.9393 0
M  V30 11406 H 1079.92 0.711978 0.19041 0
M  V30 11407 H 1082.56 1.88879 -0.206081 0
M  V30 11408 H 1080.71 3.50443 1.67697 0
M  V30 11409 H 1082.38 4.55793 -0.710685 0
M  V30 11410 H 1080.63 4.27497 -0.736809 0
M  V30 11411 H 1081.3 5.50996 0.332779 0
M  V30 11412 H 1083.77 3.91395 1.41241 0
M  V30 11413 H 1082.65 4.99542 2.27484 0
M  V30 11414 H 1082.91 3.36329 2.86941 0
M  V30 11415 N 1081.97 -0.145205 1.5693 0
M  V30 11416 C 1083.22 -0.855955 1.82637 0
M  V30 11417 C 1083.53 -1.82255 0.710109 0
M  V30 11418 O 1084.74 -2.57758 0.852837 0
M  V30 11419 C 1083.19 -1.57278 3.23715 0
M  V30 11420 C 1082.8 -0.648507 4.43281 0
M  V30 11421 C 1084.55 -2.27021 3.58695 0
M  V30 11422 C 1082.45 -1.36706 5.75383 0
M  V30 11423 H 1081.38 -0.323385 0.68113 0
M  V30 11424 H 1084.03 -0.10869 1.83178 0
M  V30 11425 H 1082.42 -2.36574 3.17567 0
M  V30 11426 H 1083.59 0.109355 4.6067 0
M  V30 11427 H 1081.9 -0.0594029 4.16358 0
M  V30 11428 H 1084.5 -2.81423 4.54648 0
M  V30 11429 H 1084.84 -3.03598 2.8484 0
M  V30 11430 H 1085.38 -1.54642 3.66512 0
M  V30 11431 H 1082.12 -0.6431 6.52338 0
M  V30 11432 H 1081.64 -2.09759 5.61926 0
M  V30 11433 H 1083.32 -1.90748 6.18243 0
M  V30 11434 N 1083.45 -1.52049 -0.414609 0
M  V30 11435 C 1084.68 -1.69679 -1.18392 0
M  V30 11436 C 1085.09 -0.403881 -1.84429 0
M  V30 11437 O 1084.45 0.619636 -1.71659 0
M  V30 11438 C 1084.5 -2.82855 -2.25112 0
M  V30 11439 O 1084.22 -4.07138 -1.61772 0
M  V30 11440 C 1085.72 -3.11948 -3.14965 0
M  V30 11441 H 1082.94 -0.56879 -0.355977 0
M  V30 11442 H 1085.48 -1.9858 -0.488505 0
M  V30 11443 H 1083.64 -2.56488 -2.90332 0
M  V30 11444 H 1084.05 -4.70163 -2.32479 0
M  V30 11445 H 1085.53 -3.94665 -3.85932 0
M  V30 11446 H 1086 -2.25276 -3.77024 0
M  V30 11447 H 1086.61 -3.40059 -2.55421 0
M  V30 11448 N 1084.93 0.6715 -1.42579 0
M  V30 11449 C 1086.17 1.43214 -1.44435 0
M  V30 11450 C 1086.53 1.92304 -0.0608703 0
M  V30 11451 O 1085.82 1.68204 0.917499 0
M  V30 11452 C 1086.01 2.64256 -2.40632 0
M  V30 11453 C 1085.84 2.2701 -3.88197 0
M  V30 11454 C 1084.61 2.16211 -4.56706 0
M  V30 11455 C 1086.81 1.88447 -4.78531 0
M  V30 11456 N 1084.79 1.72104 -5.89282 0
M  V30 11457 C 1086.16 1.55284 -6.00239 0
M  V30 11458 C 1088.22 1.75469 -4.65956 0
M  V30 11459 C 1086.92 1.10444 -7.1077 0
M  V30 11460 C 1088.95 1.32034 -5.76473 0
M  V30 11461 C 1088.31 0.997961 -6.97295 0
M  V30 11462 H 1084.41 0.520415 -0.583688 0
M  V30 11463 H 1086.99 0.774581 -1.78629 0
M  V30 11464 H 1085.16 3.27696 -2.08494 0
M  V30 11465 H 1086.9 3.30865 -2.33046 0
M  V30 11466 H 1083.65 2.35386 -4.10963 0
M  V30 11467 H 1084.07 1.52464 -6.59609 0
M  V30 11468 H 1088.72 1.99038 -3.7302 0
M  V30 11469 H 1086.43 0.856218 -8.03551 0
M  V30 11470 H 1090.02 1.22507 -5.68756 0
M  V30 11471 H 1088.9 0.666968 -7.81359 0
M  V30 11472 N 1086.4 1.28806 0.908124 0
M  V30 11473 C 1087.35 1.13215 2.01125 0
M  V30 11474 C 1088.32 0.0277357 1.66077 0
M  V30 11475 O 1089.51 0.193707 1.89814 0
M  V30 11476 C 1086.65 0.805887 3.35558 0
M  V30 11477 C 1085.76 1.9899 3.83441 0
M  V30 11478 C 1084.89 1.60376 5.06412 0
M  V30 11479 C 1083.93 2.75409 5.46641 0
M  V30 11480 N 1083.07 2.37249 6.60801 0
M  V30 11481 H 1087.91 2.07598 2.13792 0
M  V30 11482 H 1085.45 1.03316 1.0471 0
M  V30 11483 H 1087.4 0.597451 4.129 0
M  V30 11484 H 1086.03 -0.101023 3.22642 0
M  V30 11485 H 1085.09 2.31029 3.02208 0
M  V30 11486 H 1086.4 2.85214 4.09212 0
M  V30 11487 H 1085.55 1.35772 5.91313 0
M  V30 11488 H 1084.29 0.712888 4.82462 0
M  V30 11489 H 1083.3 3.00705 4.60279 0
M  V30 11490 H 1084.52 3.65148 5.72577 0
M  V30 11491 H 1082.47 1.50638 6.3847 0
M  V30 11492 H 1082.38 3.17008 6.86325 0
M  V30 11493 H 1083.65 2.15943 7.48992 0
M  V30 11494 N 1087.88 -1.11734 1.11145 0
M  V30 11495 C 1089.29 -1.64928 0.874959 0
M  V30 11496 C 1089.64 -1.87012 -0.593375 0
M  V30 11497 O 1088.77 -1.60206 -1.45475 0
M  V30 11498 C 1089.36 -2.99608 1.58178 0
M  V30 11499 C 1087.92 -3.49723 1.39179 0
M  V30 11500 C 1087.07 -2.24595 1.62642 0
M  V30 11501 H 1090.02 -0.954154 1.26813 0
M  V30 11502 H 1090.04 -3.66434 1.02501 0
M  V30 11503 H 1089.55 -2.83504 2.65042 0
M  V30 11504 H 1087.65 -3.70998 0.345111 0
M  V30 11505 H 1087.77 -4.28711 2.13878 0
M  V30 11506 H 1086.13 -2.32067 1.04961 0
M  V30 11507 H 1086.91 -2.11036 2.70774 0
M  V30 11508 N 1089.36 -0.901303 -1.29284 0
M  V30 11509 C 1090.29 -0.396909 -2.30102 0
M  V30 11510 C 1091.27 0.528919 -1.61668 0
M  V30 11511 O 1092.46 0.439306 -1.89166 0
M  V30 11512 C 1089.59 0.375006 -3.45269 0
M  V30 11513 C 1088.54 -0.46054 -4.25515 0
M  V30 11514 C 1087.87 0.438967 -5.32895 0
M  V30 11515 C 1089.17 -1.7113 -4.93469 0
M  V30 11516 H 1090.86 -1.23943 -2.72541 0
M  V30 11517 H 1088.41 -0.597428 -1.31022 0
M  V30 11518 H 1090.36 0.738622 -4.14876 0
M  V30 11519 H 1089.08 1.25132 -3.01678 0
M  V30 11520 H 1087.74 -0.80651 -3.57618 0
M  V30 11521 H 1087.39 1.31346 -4.85548 0
M  V30 11522 H 1087.09 -0.116406 -5.87485 0
M  V30 11523 H 1088.61 0.79874 -6.05353 0
M  V30 11524 H 1090.03 -1.41732 -5.55504 0
M  V30 11525 H 1088.42 -2.20811 -5.57999 0
M  V30 11526 H 1089.49 -2.44636 -4.18666 0
M  V30 11527 N 1090.84 1.42931 -0.663954 0
M  V30 11528 C 1092.25 1.56098 -0.332496 0
M  V30 11529 C 1092.45 1.64564 1.16279 0
M  V30 11530 O 1091.51 1.6066 1.94794 0
M  V30 11531 C 1092.82 2.81649 -1.05329 0
M  V30 11532 C 1094.37 2.95408 -1.03457 0
M  V30 11533 C 1094.85 4.23805 -1.73647 0
M  V30 11534 N 1096.34 4.30693 -1.70462 0
M  V30 11535 C 1097.07 5.28833 -2.21637 0
M  V30 11536 N 1096.57 6.33189 -2.81147 0
M  V30 11537 N 1098.36 5.20558 -2.12075 0
M  V30 11538 H 1090.51 1.3568 -1.63416 0
M  V30 11539 H 1092.77 0.652361 -0.687844 0
M  V30 11540 H 1092.48 2.81494 -2.10842 0
M  V30 11541 H 1092.35 3.72208 -0.611626 0
M  V30 11542 H 1094.74 2.95097 0.0121936 0
M  V30 11543 H 1094.82 2.06109 -1.51502 0
M  V30 11544 H 1094.47 4.24876 -2.78285 0
M  V30 11545 H 1094.4 5.12019 -1.2306 0
M  V30 11546 H 1096.89 3.55904 -1.27046 0
M  V30 11547 H 1097.2 7.04411 -3.17844 0
M  V30 11548 H 1095.55 6.33781 -2.85212 0
M  V30 11549 H 1098.74 4.3795 -1.6528 0
M  V30 11550 H 1098.91 5.96881 -2.52264 0
M  V30 11551 N 1092.32 0.406567 1.52266 0
M  V30 11552 C 1093.56 -0.1627 2.02748 0
M  V30 11553 C 1093.92 -1.43022 1.28695 0
M  V30 11554 O 1093.21 -1.87715 0.383881 0
M  V30 11555 C 1093.4 -0.467124 3.54334 0
M  V30 11556 C 1093.23 0.76934 4.4307 0
M  V30 11557 C 1092 1.29377 4.88456 0
M  V30 11558 C 1094.2 1.64671 4.87225 0
M  V30 11559 N 1092.18 2.48599 5.61313 0
M  V30 11560 C 1093.55 2.68519 5.58836 0
M  V30 11561 C 1095.61 1.66477 4.69244 0
M  V30 11562 C 1094.31 3.74081 6.14374 0
M  V30 11563 C 1096.34 2.70956 5.25677 0
M  V30 11564 C 1095.7 3.73525 5.97209 0
M  V30 11565 H 1091.8 -0.0211706 0.781713 0
M  V30 11566 H 1094.38 0.560338 1.86463 0
M  V30 11567 H 1092.55 -1.15921 3.70698 0
M  V30 11568 H 1094.29 -1.02505 3.91503 0
M  V30 11569 H 1091.04 0.85219 4.6587 0
M  V30 11570 H 1091.46 3.0897 6.02384 0
M  V30 11571 H 1096.11 0.88519 4.1343 0
M  V30 11572 H 1093.82 4.52896 6.69261 0
M  V30 11573 H 1097.41 2.73258 5.13635 0
M  V30 11574 H 1096.29 4.53043 6.40095 0
M  V30 11575 N 1093.79 -1.57004 0.136909 0
M  V30 11576 C 1094.73 -2.12004 -0.844362 0
M  V30 11577 C 1095.71 -1.04099 -1.24909 0
M  V30 11578 O 1096.89 -1.31866 -1.34698 0
M  V30 11579 C 1094.02 -2.63147 -2.13241 0
M  V30 11580 C 1093.06 -3.83105 -1.87438 0
M  V30 11581 S 1093.9 -5.2461 -1.07447 0
M  V30 11582 C 1095.05 -5.79134 -2.37392 0
M  V30 11583 H 1095.28 -2.94905 -0.376614 0
M  V30 11584 H 1092.82 -1.54207 -0.0771977 0
M  V30 11585 H 1094.78 -2.93264 -2.87239 0
M  V30 11586 H 1093.44 -1.80395 -2.57131 0
M  V30 11587 H 1092.63 -4.17099 -2.82922 0
M  V30 11588 H 1092.23 -3.53696 -1.21553 0
M  V30 11589 H 1094.52 -5.8995 -3.33114 0
M  V30 11590 H 1095.47 -6.76887 -2.07918 0
M  V30 11591 H 1095.87 -5.07311 -2.47579 0
M  V30 11592 N 1095.27 0.136881 -1.57004 0
M  V30 11593 C 1096.55 0.87705 -1.74835 0
M  V30 11594 C 1096.93 1.98886 -0.707639 0
M  V30 11595 O 1096.28 2.26879 0.271652 0
M  V30 11596 C 1096.49 1.41021 -3.1924 0
M  V30 11597 C 1097.84 1.86963 -3.81222 0
M  V30 11598 O 1098.86 1.5074 -3.22732 0
M  V30 11599 O 1097.72 2.53798 -4.83993 0
M  V30 11600 H 1094.81 0.415192 -0.715223 0
M  V30 11601 H 1097.36 0.122016 -1.69261 0
M  V30 11602 H 1096.13 0.611677 -3.8649 0
M  V30 11603 H 1095.75 2.22846 -3.2928 0
M  V30 11604 N 1096.75 1.52266 0.40654 0
M  V30 11605 C 1098 1.67654 1.15168 0
M  V30 11606 C 1098.35 0.402751 1.88137 0
M  V30 11607 O 1097.64 -0.60291 1.81867 0
M  V30 11608 C 1097.84 2.8389 2.1712 0
M  V30 11609 C 1097.67 4.2245 1.54162 0
M  V30 11610 C 1096.44 4.87937 1.31322 0
M  V30 11611 C 1098.64 5.04462 1.00112 0
M  V30 11612 N 1096.62 6.10525 0.642842 0
M  V30 11613 C 1097.99 6.18307 0.457805 0
M  V30 11614 C 1100.04 4.89775 0.89583 0
M  V30 11615 C 1098.75 7.19074 -0.180477 0
M  V30 11616 C 1100.77 5.90777 0.271397 0
M  V30 11617 C 1100.13 7.03915 -0.261225 0
M  V30 11618 H 1096.23 0.667121 0.408012 0
M  V30 11619 H 1098.82 1.89577 0.443695 0
M  V30 11620 H 1096.99 2.63578 2.85274 0
M  V30 11621 H 1098.72 2.88302 2.84014 0
M  V30 11622 H 1095.48 4.46345 1.58344 0
M  V30 11623 H 1095.9 6.76223 0.324204 0
M  V30 11624 H 1100.54 4.0253 1.29344 0
M  V30 11625 H 1098.26 8.05942 -0.590141 0
M  V30 11626 H 1101.85 5.81485 0.191417 0
M  V30 11627 H 1100.73 7.80731 -0.736791 0
M  V30 11628 N 1098.23 -0.663929 1.42933 0
M  V30 11629 C 1099.18 -1.79843 1.4751 0
M  V30 11630 C 1100.17 -1.65751 0.349727 0
M  V30 11631 O 1101.38 -1.72227 0.523239 0
M  V30 11632 H 1097.75 -0.593176 0.462219 0
M  V30 11633 H 1099.72 -1.73102 2.4306 0
M  V30 11634 C 1098.47 -3.18053 1.4049 0
M  V30 11635 H 1097.79 -3.29529 2.26386 0
M  V30 11636 H 1099.23 -3.97423 1.47754 0
M  V30 11637 C 1097.69 -3.36682 0.121076 0
M  V30 11638 O 1098.22 -3.93202 -0.821874 0
M  V30 11639 N 1096.43 -2.90579 0.0347141 0
M  V30 11640 H 1095.98 -2.44769 0.802852 0
M  V30 11641 H 1095.93 -3.03421 -0.823607 0
M  V30 11642 N 1099.71 -1.29285 -0.901281 0
M  V30 11643 C 1100.67 -1.14283 -1.98676 0
M  V30 11644 C 1101.67 -0.0787641 -1.60607 0
M  V30 11645 O 1102.86 -0.325574 -1.71131 0
M  V30 11646 C 1099.99 -0.747279 -3.32609 0
M  V30 11647 H 1101.18 -2.10701 -2.13413 0
M  V30 11648 H 1098.74 -1.12449 -1.08558 0
M  V30 11649 H 1099.47 0.217111 -3.23572 0
M  V30 11650 H 1099.26 -1.51608 -3.61604 0
M  V30 11651 H 1100.75 -0.665322 -4.12266 0
M  V30 11652 N 1101.18 1.11143 -1.11736 0
M  V30 11653 C 1102.6 1.64462 -0.883693 0
M  V30 11654 C 1102.95 1.87324 0.583448 0
M  V30 11655 O 1102.07 1.60975 1.44623 0
M  V30 11656 C 1102.67 2.98765 -1.59764 0
M  V30 11657 C 1101.23 3.4898 -1.41032 0
M  V30 11658 C 1100.37 2.23729 -1.63831 0
M  V30 11659 H 1103.32 0.947415 -1.27317 0
M  V30 11660 H 1103.34 3.65885 -1.04443 0
M  V30 11661 H 1102.86 2.82094 -2.66542 0
M  V30 11662 H 1100.96 3.7081 -0.364781 0
M  V30 11663 H 1101.07 4.27571 -2.16148 0
M  V30 11664 H 1099.43 2.31507 -1.06191 0
M  V30 11665 H 1100.22 2.09597 -2.7189 0
M  V30 11666 N 1102.66 0.908147 1.28804 0
M  V30 11667 C 1103.59 0.34957 2.26519 0
M  V30 11668 C 1104.61 -0.508845 1.54643 0
M  V30 11669 O 1105.8 -0.324633 1.75523 0
M  V30 11670 C 1102.9 -0.519461 3.34895 0
M  V30 11671 C 1102.07 0.315157 4.36263 0
M  V30 11672 C 1101.13 -0.488059 5.23932 0
M  V30 11673 O 1100.15 0.0974133 5.69117 0
M  V30 11674 N 1101.36 -1.79233 5.52137 0
M  V30 11675 H 1104.12 1.18945 2.75086 0
M  V30 11676 H 1101.68 0.77351 1.42227 0
M  V30 11677 H 1103.67 -1.0634 3.90479 0
M  V30 11678 H 1102.24 -1.26004 2.8608 0
M  V30 11679 H 1101.46 1.04049 3.8022 0
M  V30 11680 H 1102.75 0.886438 5.01019 0
M  V30 11681 H 1102.15 -2.2906 5.1725 0
M  V30 11682 H 1100.71 -2.28322 6.10502 0
M  V30 11683 N 1104.14 -1.42577 0.671525 0
M  V30 11684 C 1105.39 -2.01882 0.192716 0
M  V30 11685 C 1105.72 -1.52959 -1.19654 0
M  V30 11686 O 1104.99 -0.730404 -1.80265 0
M  V30 11687 C 1105.28 -3.59404 0.223734 0
M  V30 11688 C 1105.13 -4.18514 1.64821 0
M  V30 11689 C 1106.45 -4.37996 -0.429858 0
M  V30 11690 H 1103.57 -0.733523 0.0715026 0
M  V30 11691 H 1106.21 -1.69641 0.855689 0
M  V30 11692 H 1104.36 -3.87003 -0.340776 0
M  V30 11693 H 1106.03 -4.01881 2.26472 0
M  V30 11694 H 1104.28 -3.74467 2.1899 0
M  V30 11695 H 1104.95 -5.27643 1.62162 0
M  V30 11696 H 1107.42 -4.16069 0.0506433 0
M  V30 11697 H 1106.3 -5.476 -0.377503 0
M  V30 11698 H 1106.56 -4.15625 -1.50693 0
M  V30 11699 N 1105.62 -0.414636 -1.52048 0
M  V30 11700 C 1106.55 0.443601 -2.24866 0
M  V30 11701 C 1107.56 1.00556 -1.28032 0
M  V30 11702 O 1108.75 0.903566 -1.53941 0
M  V30 11703 C 1105.85 1.63004 -2.97124 0
M  V30 11704 C 1105.03 1.191 -4.20873 0
M  V30 11705 C 1104.08 2.24497 -4.75907 0
M  V30 11706 O 1103.11 1.84861 -5.38345 0
M  V30 11707 N 1104.31 3.56727 -4.57959 0
M  V30 11708 H 1107.08 -0.180393 -2.99157 0
M  V30 11709 H 1104.64 -0.242305 -1.60077 0
M  V30 11710 H 1106.63 2.33089 -3.30835 0
M  V30 11711 H 1105.2 2.15984 -2.25986 0
M  V30 11712 H 1104.42 0.318059 -3.92915 0
M  V30 11713 H 1105.71 0.874699 -5.01225 0
M  V30 11714 H 1105.11 3.91675 -4.08175 0
M  V30 11715 H 1103.66 4.22772 -4.96092 0
M  V30 11716 N 1107.1 1.56929 -0.145233 0
M  V30 11717 C 1108.33 2.00141 0.51257 0
M  V30 11718 C 1108.73 1.0243 1.59075 0
M  V30 11719 O 1108.08 0.0130063 1.83695 0
M  V30 11720 C 1108.14 3.39785 1.17417 0
M  V30 11721 C 1107.8 4.56365 0.240801 0
M  V30 11722 C 1108.8 5.17183 -0.530847 0
M  V30 11723 C 1106.49 5.02093 0.144221 0
M  V30 11724 C 1108.48 6.22136 -1.38654 0
M  V30 11725 C 1106.17 6.06902 -0.71508 0
M  V30 11726 C 1107.16 6.66793 -1.47907 0
M  V30 11727 O 1106.85 7.69573 -2.32405 0
M  V30 11728 H 1106.58 0.661747 0.138085 0
M  V30 11729 H 1109.14 2.04037 -0.236269 0
M  V30 11730 H 1107.37 3.32722 1.97061 0
M  V30 11731 H 1109.06 3.67115 1.73152 0
M  V30 11732 H 1109.82 4.82754 -0.466256 0
M  V30 11733 H 1105.7 4.55206 0.728613 0
M  V30 11734 H 1109.25 6.68812 -1.98333 0
M  V30 11735 H 1105.14 6.40758 -0.78097 0
M  V30 11736 H 1105.91 7.86786 -2.25634 0
M  V30 11737 N 1108.58 -0.128553 1.57075 0
M  V30 11738 C 1109.99 -0.481794 1.52154 0
M  V30 11739 C 1110.19 -1.82381 0.856694 0
M  V30 11740 O 1109.25 -2.48725 0.434989 0
M  V30 11741 C 1110.56 -0.475091 2.96923 0
M  V30 11742 C 1112.11 -0.559315 3.07962 0
M  V30 11743 C 1112.58 -0.583095 4.54273 0
M  V30 11744 N 1114.07 -0.644803 4.5869 0
M  V30 11745 C 1114.81 -0.684493 5.693 0
M  V30 11746 N 1114.31 -0.682407 6.89431 0
M  V30 11747 N 1116.1 -0.726777 5.57382 0
M  V30 11748 H 1108.25 0.750894 1.98684 0
M  V30 11749 H 1110.51 0.27593 0.906955 0
M  V30 11750 H 1110.22 0.443157 3.48897 0
M  V30 11751 H 1110.09 -1.30637 3.53856 0
M  V30 11752 H 1112.48 -1.46798 2.55997 0
M  V30 11753 H 1112.56 0.299468 2.54041 0
M  V30 11754 H 1112.2 0.32149 5.06881 0
M  V30 11755 H 1112.13 -1.45863 5.05996 0
M  V30 11756 H 1114.63 -0.652967 3.72216 0
M  V30 11757 H 1114.94 -0.715051 7.69485 0
M  V30 11758 H 1113.28 -0.649984 6.91954 0
M  V30 11759 H 1116.47 -0.725704 4.6244 0
M  V30 11760 H 1116.65 -0.754242 6.43596 0
M  V30 11761 N 1110.05 -1.5248 -0.398459 0
M  V30 11762 C 1111.3 -1.67309 -1.1461 0
M  V30 11763 C 1111.63 -0.407095 -1.89885 0
M  V30 11764 O 1110.91 0.594834 -1.85181 0
M  V30 11765 C 1111.19 -2.90204 -2.13198 0
M  V30 11766 C 1111.04 -4.26881 -1.4175 0
M  V30 11767 C 1112.36 -3.08634 -3.13741 0
M  V30 11768 H 1109.48 -0.608853 -0.415292 0
M  V30 11769 H 1112.12 -1.85057 -0.430573 0
M  V30 11770 H 1110.27 -2.75204 -2.74218 0
M  V30 11771 H 1111.95 -4.53631 -0.837676 0
M  V30 11772 H 1110.19 -4.27793 -0.719387 0
M  V30 11773 H 1110.86 -5.08939 -2.1374 0
M  V30 11774 H 1113.34 -3.22603 -2.62805 0
M  V30 11775 H 1112.21 -3.96117 -3.79977 0
M  V30 11776 H 1112.47 -2.22425 -3.82073 0
M  V30 11777 N 1111.53 0.65634 -1.43283 0
M  V30 11778 C 1112.46 1.78184 -1.44164 0
M  V30 11779 C 1113.48 1.59249 -0.338177 0
M  V30 11780 O 1114.67 1.68027 -0.60242 0
M  V30 11781 C 1111.77 3.15566 -1.23577 0
M  V30 11782 C 1110.94 3.61187 -2.46704 0
M  V30 11783 C 1110 4.77361 -2.21388 0
M  V30 11784 O 1109.02 4.8696 -2.94718 0
M  V30 11785 N 1110.23 5.67351 -1.22855 0
M  V30 11786 H 1112.99 1.77907 -2.41183 0
M  V30 11787 H 1110.55 0.840076 -1.38399 0
M  V30 11788 H 1112.54 3.90968 -1.04529 0
M  V30 11789 H 1111.11 3.10633 -0.350155 0
M  V30 11790 H 1110.33 2.76263 -2.81198 0
M  V30 11791 H 1111.62 3.88413 -3.28652 0
M  V30 11792 H 1111.02 5.62265 -0.622417 0
M  V30 11793 H 1109.58 6.42487 -1.09791 0
M  V30 11794 N 1113.01 1.29761 0.894412 0
M  V30 11795 C 1114.26 1.19224 1.64794 0
M  V30 11796 C 1114.61 -0.252648 1.90734 0
M  V30 11797 O 1113.9 -1.17881 1.51045 0
M  V30 11798 C 1114.1 1.94458 2.99868 0
M  V30 11799 C 1113.93 3.46115 2.87114 0
M  V30 11800 C 1112.7 4.15469 2.87599 0
M  V30 11801 C 1114.89 4.41518 2.63754 0
M  V30 11802 N 1112.88 5.53453 2.65637 0
M  V30 11803 C 1114.25 5.66999 2.50823 0
M  V30 11804 C 1116.3 4.31221 2.48903 0
M  V30 11805 C 1115.01 6.83351 2.24554 0
M  V30 11806 C 1117.03 5.4733 2.24018 0
M  V30 11807 C 1116.39 6.71786 2.11856 0
M  V30 11808 H 1112.49 0.491294 0.608403 0
M  V30 11809 H 1115.08 1.63656 1.05474 0
M  V30 11810 H 1113.25 1.52432 3.57238 0
M  V30 11811 H 1114.98 1.76142 3.64357 0
M  V30 11812 H 1111.73 3.67217 2.9908 0
M  V30 11813 H 1112.16 6.26037 2.57695 0
M  V30 11814 H 1116.8 3.35689 2.57046 0
M  V30 11815 H 1114.52 7.78933 2.15149 0
M  V30 11816 H 1118.1 5.41265 2.13363 0
M  V30 11817 H 1116.98 7.60113 1.92867 0
M  V30 11818 N 1114.49 -1.10549 1.12324 0
M  V30 11819 C 1115.9 -1.34508 0.85905 0
M  V30 11820 C 1116.1 -1.94901 -0.511468 0
M  V30 11821 O 1115.16 -2.18793 -1.2604 0
M  V30 11822 C 1116.47 -2.26788 1.97453 0
M  V30 11823 C 1118.02 -2.40328 2.00528 0
M  V30 11824 C 1118.5 -3.35936 3.11305 0
M  V30 11825 N 1119.99 -3.43504 3.1074 0
M  V30 11826 C 1120.72 -4.17449 3.93096 0
M  V30 11827 N 1120.22 -4.9429 4.85437 0
M  V30 11828 N 1122.01 -4.13055 3.81237 0
M  V30 11829 H 1114.16 -0.697171 2.00632 0
M  V30 11830 H 1116.42 -0.369548 0.873005 0
M  V30 11831 H 1116.13 -1.89621 2.96204 0
M  V30 11832 H 1116 -3.27086 1.87869 0
M  V30 11833 H 1118.39 -2.76765 1.02397 0
M  V30 11834 H 1118.47 -1.39849 2.14186 0
M  V30 11835 H 1118.12 -3.00225 4.09667 0
M  V30 11836 H 1118.05 -4.36291 2.94886 0
M  V30 11837 H 1120.54 -2.88702 2.43843 0
M  V30 11838 H 1120.85 -5.48109 5.4479 0
M  V30 11839 H 1119.2 -4.93419 4.89452 0
M  V30 11840 H 1122.39 -3.52117 3.08433 0
M  V30 11841 H 1122.56 -4.70424 4.45651 0
M  V30 11842 N 1115.97 -0.914965 -1.28321 0
M  V30 11843 C 1117.38 -0.59512 -1.76961 0
M  V30 11844 C 1117.73 0.88958 -1.74874 0
M  V30 11845 O 1116.85 1.6959 -1.34418 0
M  V30 11846 C 1117.45 -1.07353 -3.21342 0
M  V30 11847 C 1116.01 -0.804577 -3.677 0
M  V30 11848 C 1115.15 -1.23955 -2.48053 0
M  V30 11849 H 1118.1 -1.0961 -1.14767 0
M  V30 11850 H 1118.13 -0.415506 -3.78225 0
M  V30 11851 H 1117.64 -2.15413 -3.22829 0
M  V30 11852 H 1115.74 0.26277 -3.71672 0
M  V30 11853 H 1115.85 -1.41317 -4.57784 0
M  V30 11854 H 1114.22 -0.658274 -2.46046 0
M  V30 11855 H 1115 -2.32853 -2.52258 0
M  V30 11856 N 1117.44 1.42219 -0.679077 0
M  V30 11857 C 1118.38 2.29172 0.035583 0
M  V30 11858 C 1119.39 1.43909 0.761183 0
M  V30 11859 O 1120.58 1.67584 0.61463 0
M  V30 11860 C 1117.68 3.21426 1.07419 0
M  V30 11861 C 1116.85 4.35364 0.421547 0
M  V30 11862 C 1115.91 5.08307 1.36051 0
M  V30 11863 O 1114.94 5.62678 0.859186 0
M  V30 11864 N 1116.14 5.14222 2.69362 0
M  V30 11865 H 1118.9 2.91147 -0.710865 0
M  V30 11866 H 1116.46 1.53192 -0.523821 0
M  V30 11867 H 1118.46 3.67091 1.70371 0
M  V30 11868 H 1117.03 2.60873 1.72233 0
M  V30 11869 H 1116.25 3.9229 -0.387559 0
M  V30 11870 H 1117.53 5.08789 -0.0329421 0
M  V30 11871 H 1116.93 4.71467 3.12627 0
M  V30 11872 H 1115.49 5.63519 3.27551 0
M  V30 11873 N 1118.92 0.422693 1.51826 0
M  V30 11874 C 1120.17 -0.148348 2.01555 0
M  V30 11875 C 1120.49 -1.44483 1.30956 0
M  V30 11876 O 1119.76 -1.90904 0.439599 0
M  V30 11877 H 1118.34 -0.0578116 0.74476 0
M  V30 11878 H 1121 0.562046 1.8662 0
M  V30 11879 H 1120.1 -0.334766 3.10299 0
M  V30 11880 N 1120.4 -1.5685 0.153553 0
M  V30 11881 C 1121.63 -2.00701 -0.502678 0
M  V30 11882 C 1122.04 -1.0337 -1.57988 0
M  V30 11883 O 1121.4 -0.0317233 -1.82472 0
M  V30 11884 C 1121.45 -3.44443 -1.09732 0
M  V30 11885 O 1121.17 -4.38054 -0.0631405 0
M  V30 11886 C 1122.67 -4.03605 -1.83352 0
M  V30 11887 H 1119.89 -0.658229 -0.130289 0
M  V30 11888 H 1122.44 -2.02965 0.250063 0
M  V30 11889 H 1120.59 -3.43009 -1.80065 0
M  V30 11890 H 1121.01 -5.22114 -0.499681 0
M  V30 11891 H 1122.48 -5.0616 -2.20241 0
M  V30 11892 H 1122.96 -3.44687 -2.7219 0
M  V30 11893 H 1123.56 -4.08688 -1.17703 0
M  V30 11894 N 1121.88 0.120221 -1.57141 0
M  V30 11895 C 1123.29 0.473718 -1.52408 0
M  V30 11896 C 1123.49 1.81925 -0.866354 0
M  V30 11897 O 1122.55 2.48491 -0.448173 0
M  V30 11898 C 1123.86 0.459338 -2.97171 0
M  V30 11899 C 1125.41 0.542975 -3.08254 0
M  V30 11900 C 1125.89 0.558996 -4.54576 0
M  V30 11901 N 1127.38 0.620469 -4.59026 0
M  V30 11902 C 1128.11 0.654292 -5.69655 0
M  V30 11903 N 1127.61 0.645835 -6.89783 0
M  V30 11904 N 1129.4 0.697208 -5.57759 0
M  V30 11905 H 1121.55 -0.76142 -1.98283 0
M  V30 11906 H 1123.81 -0.280736 -0.905479 0
M  V30 11907 H 1123.52 -0.461654 -3.48657 0
M  V30 11908 H 1123.39 1.28759 -3.54543 0
M  V30 11909 H 1125.78 1.45439 -2.56772 0
M  V30 11910 H 1125.86 -0.312936 -2.53879 0
M  V30 11911 H 1125.51 -0.348367 -5.06704 0
M  V30 11912 H 1125.44 1.43177 -5.06762 0
M  V30 11913 H 1127.93 0.633218 -3.72557 0
M  V30 11914 H 1128.24 0.674233 -7.69853 0
M  V30 11915 H 1126.59 0.613279 -6.92289 0
M  V30 11916 H 1129.78 0.70117 -4.62819 0
M  V30 11917 H 1129.95 0.7201 -6.43986 0
M  V30 11918 N 1123.36 1.52689 0.390367 0
M  V30 11919 C 1124.6 1.67335 1.13329 0
M  V30 11920 C 1124.93 0.415068 1.90531 0
M  V30 11921 O 1124.2 -0.570504 1.87409 0
M  V30 11922 H 1122.78 0.616821 0.421356 0
M  V30 11923 H 1125.44 1.89799 0.443 0
M  V30 11924 H 1124.53 2.52314 1.83696 0
M  V30 11925 N 1124.83 -0.648732 1.43629 0
M  V30 11926 C 1126.25 -1.23001 1.40455 0
M  V30 11927 C 1126.6 -1.95886 0.110897 0
M  V30 11928 O 1125.72 -2.01485 -0.789487 0
M  V30 11929 C 1126.32 -2.23716 2.54434 0
M  V30 11930 C 1124.88 -2.77311 2.54511 0
M  V30 11931 C 1124.02 -1.52024 2.31914 0
M  V30 11932 H 1126.97 -0.440473 1.52465 0
M  V30 11933 H 1126.99 -3.05979 2.26179 0
M  V30 11934 H 1126.51 -1.7064 3.48574 0
M  V30 11935 H 1124.61 -3.34437 1.64263 0
M  V30 11936 H 1124.72 -3.2455 3.52426 0
M  V30 11937 H 1123.08 -1.79531 1.80667 0
M  V30 11938 H 1123.87 -1.00876 3.28145 0
M  V30 11939 N 1126.31 -1.30234 -0.887518 0
M  V30 11940 C 1127.56 -1.20096 -1.6416 0
M  V30 11941 C 1127.91 0.24253 -1.90865 0
M  V30 11942 O 1127.21 1.17078 -1.51668 0
M  V30 11943 C 1127.4 -1.96046 -2.98832 0
M  V30 11944 C 1127.23 -3.47633 -2.85274 0
M  V30 11945 C 1126 -4.16989 -2.85392 0
M  V30 11946 C 1128.2 -4.42911 -2.61409 0
M  V30 11947 N 1126.18 -5.54854 -2.62699 0
M  V30 11948 C 1127.55 -5.68321 -2.47813 0
M  V30 11949 C 1129.61 -4.32535 -2.46613 0
M  V30 11950 C 1128.31 -6.84532 -2.20927 0
M  V30 11951 C 1130.33 -5.4851 -2.21112 0
M  V30 11952 C 1129.7 -6.729 -2.08291 0
M  V30 11953 H 1125.8 -0.494513 -0.605789 0
M  V30 11954 H 1128.38 -1.64213 -1.04605 0
M  V30 11955 H 1126.55 -1.54324 -3.56425 0
M  V30 11956 H 1128.28 -1.78072 -3.63418 0
M  V30 11957 H 1125.04 -3.68798 -2.97128 0
M  V30 11958 H 1125.46 -6.27395 -2.54371 0
M  V30 11959 H 1130.1 -3.37047 -2.55262 0
M  V30 11960 H 1127.82 -7.80063 -2.11015 0
M  V30 11961 H 1131.41 -5.42389 -2.1049 0
M  V30 11962 H 1130.29 -7.61125 -1.88833 0
M  V30 11963 N 1127.79 1.09952 -1.12909 0
M  V30 11964 C 1128.72 2.16257 -0.759305 0
M  V30 11965 C 1129.74 1.61355 0.216427 0
M  V30 11966 O 1130.92 1.785 -0.00297224 0
M  V30 11967 C 1128.02 3.38741 -0.103908 0
M  V30 11968 C 1127.2 4.23072 -1.11037 0
M  V30 11969 C 1126.26 5.23991 -0.481667 0
M  V30 11970 O 1125.28 5.57665 -1.14011 0
M  V30 11971 N 1126.48 5.75652 0.748698 0
M  V30 11972 H 1129.25 2.48588 -1.67405 0
M  V30 11973 H 1126.81 1.25617 -1.02137 0
M  V30 11974 H 1128.8 4.03362 0.328799 0
M  V30 11975 H 1127.37 3.04344 0.713677 0
M  V30 11976 H 1126.59 3.5467 -1.72054 0
M  V30 11977 H 1127.88 4.76244 -1.79078 0
M  V30 11978 H 1127.28 5.505 1.30253 0
M  V30 11979 H 1125.84 6.42033 1.12415 0
M  V30 11980 N 1129.27 0.921757 1.27833 0
M  V30 11981 C 1130.18 0.421668 2.30779 0
M  V30 11982 C 1131.19 -0.494686 1.6682 0
M  V30 11983 O 1132.37 -0.378935 1.97803 0
M  V30 11984 C 1129.44 -0.322928 3.45193 0
M  V30 11985 C 1128.5 0.627618 4.24687 0
M  V30 11986 C 1127.73 -0.0815385 5.33638 0
M  V30 11987 O 1127.95 -1.30193 5.55343 0
M  V30 11988 O 1126.89 0.58725 5.99028 0
M  V30 11989 H 1130.71 1.2763 2.7558 0
M  V30 11990 H 1128.3 0.686877 1.32674 0
M  V30 11991 H 1130.18 -0.743145 4.14796 0
M  V30 11992 H 1128.85 -1.15326 3.02459 0
M  V30 11993 H 1127.76 1.09739 3.57642 0
M  V30 11994 H 1129.09 1.425 4.71121 0
M  V30 11995 N 1130.75 -1.41857 0.686609 0
M  V30 11996 C 1131.68 -2.29188 -0.0234289 0
M  V30 11997 C 1132.69 -1.44311 -0.753541 0
M  V30 11998 O 1133.88 -1.67908 -0.605734 0
M  V30 11999 C 1130.98 -3.21991 -1.05713 0
M  V30 12000 C 1130.15 -4.35581 -0.398453 0
M  V30 12001 C 1129.21 -5.09022 -1.33354 0
M  V30 12002 O 1128.24 -5.63126 -0.829334 0
M  V30 12003 N 1129.44 -5.15643 -2.66632 0
M  V30 12004 H 1132.21 -2.90766 0.726295 0
M  V30 12005 H 1129.77 -1.52912 0.531937 0
M  V30 12006 H 1131.76 -3.6799 -1.68421 0
M  V30 12007 H 1130.33 -2.61782 -1.70847 0
M  V30 12008 H 1129.55 -3.92079 0.408358 0
M  V30 12009 H 1130.84 -5.08765 0.0599239 0
M  V30 12010 H 1130.23 -4.73118 -3.10122 0
M  V30 12011 H 1128.79 -5.65248 -3.24558 0
M  V30 12012 N 1132.22 -0.430739 -1.51599 0
M  V30 12013 C 1133.47 0.139396 -2.01218 0
M  V30 12014 C 1133.79 1.44361 -1.31982 0
M  V30 12015 O 1134.99 2.0963 -1.72533 0
M  V30 12016 C 1133.45 0.298969 -3.58656 0
M  V30 12017 C 1133.06 -0.994424 -4.36824 0
M  V30 12018 C 1134.8 0.82323 -4.16441 0
M  V30 12019 C 1132.71 -0.800855 -5.85952 0
M  V30 12020 H 1131.64 0.0558698 -0.751927 0
M  V30 12021 H 1134.29 -0.559493 -1.74762 0
M  V30 12022 H 1132.67 1.06071 -3.8153 0
M  V30 12023 H 1133.84 -1.76398 -4.257 0
M  V30 12024 H 1132.16 -1.44672 -3.9046 0
M  V30 12025 H 1134.76 0.984434 -5.2556 0
M  V30 12026 H 1135.1 1.80388 -3.75188 0
M  V30 12027 H 1135.63 0.119982 -3.97619 0
M  V30 12028 H 1132.37 -1.75369 -6.31606 0
M  V30 12029 H 1131.89 -0.0709793 -5.99758 0
M  V30 12030 H 1133.57 -0.451459 -6.45423 0
M  V30 12031 N 1133.7 1.56767 -0.161869 0
M  V30 12032 C 1134.95 1.96885 0.486215 0
M  V30 12033 C 1135.28 1.04745 1.6353 0
M  V30 12034 O 1134.56 0.0927156 1.94279 0
M  V30 12035 C 1134.84 3.46559 0.97822 0
M  V30 12036 C 1134.69 4.49477 -0.17039 0
M  V30 12037 C 1136.01 3.99093 1.85506 0
M  V30 12038 H 1133.13 0.715857 0.175265 0
M  V30 12039 H 1135.77 1.88399 -0.246098 0
M  V30 12040 H 1133.92 3.53921 1.60225 0
M  V30 12041 H 1135.59 4.54183 -0.807205 0
M  V30 12042 H 1133.84 4.25838 -0.827322 0
M  V30 12043 H 1134.51 5.51578 0.21583 0
M  V30 12044 H 1136.98 3.94303 1.32908 0
M  V30 12045 H 1135.86 5.04255 2.16837 0
M  V30 12046 H 1136.12 3.4234 2.79742 0
M  V30 12047 N 1135.18 -0.111886 1.57202 0
M  V30 12048 C 1136.41 -0.836317 1.89791 0
M  V30 12049 C 1136.83 -1.72304 0.754513 0
M  V30 12050 O 1136.19 -1.78889 -0.294672 0
M  V30 12051 C 1136.24 -1.63971 3.21164 0
M  V30 12052 O 1135.34 -2.74726 3.0757 0
M  V30 12053 H 1134.68 -0.230833 0.622585 0
M  V30 12054 H 1137.21 -0.0921478 2.04392 0
M  V30 12055 H 1137.22 -2.02746 3.54059 0
M  V30 12056 H 1135.9 -0.98882 4.03974 0
M  V30 12057 H 1134.47 -2.39101 2.86156 0
M  V30 12058 N 1136.66 -1.52894 -0.382264 0
M  V30 12059 C 1137.94 -1.58853 -1.14127 0
M  V30 12060 C 1138.32 -0.38582 -2.07544 0
M  V30 12061 O 1137.66 0.625323 -2.19777 0
M  V30 12062 C 1137.87 -2.93068 -1.89504 0
M  V30 12063 C 1139.22 -3.47048 -2.44629 0
M  V30 12064 O 1140.25 -2.94987 -1.99652 0
M  V30 12065 O 1139.1 -4.3802 -3.26804 0
M  V30 12066 H 1136.2 -0.640969 -0.522578 0
M  V30 12067 H 1138.74 -1.65231 -0.386873 0
M  V30 12068 H 1137.52 -3.72047 -1.2123 0
M  V30 12069 H 1137.14 -2.90106 -2.7189 0
M  V30 12070 N 1138.14 0.641106 -1.43971 0
M  V30 12071 C 1139.55 1.22254 -1.41106 0
M  V30 12072 C 1139.9 1.95825 -0.121284 0
M  V30 12073 O 1139.02 2.01901 0.77879 0
M  V30 12074 C 1139.62 2.22364 -2.55617 0
M  V30 12075 C 1138.18 2.75957 -2.55978 0
M  V30 12076 C 1137.33 1.50792 -2.32717 0
M  V30 12077 H 1140.28 0.432381 -1.52696 0
M  V30 12078 H 1140.3 3.04775 -2.27799 0
M  V30 12079 H 1139.81 1.68789 -3.49474 0
M  V30 12080 H 1137.91 3.33562 -1.66034 0
M  V30 12081 H 1138.02 3.22676 -3.54142 0
M  V30 12082 H 1136.39 1.7857 -1.81617 0
M  V30 12083 H 1137.17 0.991343 -3.28675 0
M  V30 12084 N 1139.62 1.30703 0.880598 0
M  V30 12085 C 1140.86 1.19778 1.63277 0
M  V30 12086 C 1141.19 -0.246521 1.92931 0
M  V30 12087 O 1140.45 -1.19226 1.55189 0
M  V30 12088 C 1140.74 1.97628 2.97789 0
M  V30 12089 C 1140.41 3.47213 2.87669 0
M  V30 12090 C 1139.07 3.88004 2.84617 0
M  V30 12091 C 1141.42 4.4245 2.75477 0
M  V30 12092 C 1138.75 5.22315 2.67216 0
M  V30 12093 C 1141.1 5.76874 2.59614 0
M  V30 12094 C 1139.77 6.16898 2.54939 0
M  V30 12095 H 1139.04 0.438298 0.597475 0
M  V30 12096 H 1141.69 1.61853 1.02352 0
M  V30 12097 H 1139.99 1.48201 3.6269 0
M  V30 12098 H 1141.69 1.86563 3.54958 0
M  V30 12099 H 1138.28 3.14802 2.90857 0
M  V30 12100 H 1142.46 4.11875 2.76899 0
M  V30 12101 H 1137.72 5.52412 2.62014 0
M  V30 12102 H 1141.89 6.50304 2.49155 0
M  V30 12103 H 1139.52 7.20916 2.41214 0
M  V30 12104 N 1141.09 -1.09351 1.1349 0
M  V30 12105 C 1142.02 -2.18037 0.835588 0
M  V30 12106 C 1143 -1.68856 -0.205373 0
M  V30 12107 O 1144.19 -1.94094 -0.0641357 0
M  V30 12108 C 1141.32 -3.45987 0.301661 0
M  V30 12109 C 1140.27 -4.08507 1.27696 0
M  V30 12110 C 1139.6 -5.31292 0.602758 0
M  V30 12111 C 1140.9 -4.50916 2.63575 0
M  V30 12112 H 1142.59 -2.43332 1.74441 0
M  V30 12113 H 1140.14 -1.1695 0.840166 0
M  V30 12114 H 1142.09 -4.21324 0.079928 0
M  V30 12115 H 1140.82 -3.20217 -0.642552 0
M  V30 12116 H 1139.48 -3.3519 1.4847 0
M  V30 12117 H 1139.12 -5.01802 -0.346953 0
M  V30 12118 H 1138.82 -5.74075 1.25345 0
M  V30 12119 H 1140.35 -6.09351 0.390325 0
M  V30 12120 H 1141.76 -5.17474 2.46765 0
M  V30 12121 H 1140.16 -5.04586 3.24827 0
M  V30 12122 H 1141.23 -3.63279 3.2118 0
M  V30 12123 N 1142.57 -0.928524 -1.27343 0
M  V30 12124 C 1143.82 -0.570235 -1.94618 0
M  V30 12125 C 1144.15 0.886381 -1.72792 0
M  V30 12126 O 1143.43 1.63242 -1.05747 0
M  V30 12127 C 1143.71 -0.897964 -3.48724 0
M  V30 12128 C 1143.56 -2.40839 -3.7989 0
M  V30 12129 C 1144.88 -0.404429 -4.38238 0
M  V30 12130 H 1142 -0.208645 -0.70685 0
M  V30 12131 H 1144.64 -1.16045 -1.50444 0
M  V30 12132 H 1142.79 -0.395679 -3.8648 0
M  V30 12133 H 1144.46 -2.98243 -3.51921 0
M  V30 12134 H 1142.71 -2.85723 -3.26412 0
M  V30 12135 H 1143.38 -2.58823 -4.8756 0
M  V30 12136 H 1145.85 -0.834918 -4.07637 0
M  V30 12137 H 1144.73 -0.662684 -5.44885 0
M  V30 12138 H 1144.99 0.695507 -4.36595 0
M  V30 12139 N 1144.05 1.41491 -0.694123 0
M  V30 12140 C 1145.3 2.0155 -0.224809 0
M  V30 12141 C 1145.63 1.54844 1.17205 0
M  V30 12142 O 1144.9 0.75899 1.7908 0
M  V30 12143 C 1145.19 3.59003 -0.280884 0
M  V30 12144 C 1145.04 4.15839 -1.71458 0
M  V30 12145 C 1146.36 4.38624 0.360122 0
M  V30 12146 H 1143.48 0.732293 -0.0831632 0
M  V30 12147 H 1146.12 1.68258 -0.882569 0
M  V30 12148 H 1144.27 3.87496 0.279164 0
M  V30 12149 H 1145.94 3.98227 -2.32837 0
M  V30 12150 H 1144.18 3.70936 -2.2492 0
M  V30 12151 H 1144.86 5.24997 -1.70536 0
M  V30 12152 H 1147.33 4.15936 -0.11683 0
M  V30 12153 H 1146.21 5.48132 0.290337 0
M  V30 12154 H 1146.47 4.1797 1.44062 0
M  V30 12155 N 1145.53 0.438773 1.51369 0
M  V30 12156 C 1146.75 -0.128221 2.07003 0
M  V30 12157 C 1147.18 -1.3557 1.30393 0
M  V30 12158 O 1146.54 -1.7804 0.342283 0
M  V30 12159 C 1146.58 -0.42761 3.58056 0
M  V30 12160 O 1145.69 -1.51382 3.83611 0
M  V30 12161 H 1145.03 -0.00123679 0.663999 0
M  V30 12162 H 1147.56 0.62052 1.94963 0
M  V30 12163 H 1147.57 -0.677645 4.02333 0
M  V30 12164 H 1146.24 0.469535 4.13241 0
M  V30 12165 H 1144.82 -1.25363 3.51196 0
M  V30 12166 N 1147.01 -1.56678 0.170181 0
M  V30 12167 C 1147.95 -2.19222 -0.777459 0
M  V30 12168 C 1148.95 -1.15592 -1.23834 0
M  V30 12169 O 1150.15 -1.33794 -1.20412 0
M  V30 12170 H 1146.53 -0.702244 -0.268992 0
M  V30 12171 H 1148.5 -2.97543 -0.225989 0
M  V30 12172 C 1147.25 -2.84631 -1.997 0
M  V30 12173 H 1146.57 -3.641 -1.65139 0
M  V30 12174 H 1148.01 -3.31864 -2.63898 0
M  V30 12175 C 1146.47 -1.84345 -2.81991 0
M  V30 12176 O 1147 -1.32821 -3.79106 0
M  V30 12177 N 1145.21 -1.53127 -2.46983 0
M  V30 12178 H 1144.75 -1.95219 -1.6807 0
M  V30 12179 H 1144.71 -0.862787 -3.0233 0
M  V30 12180 N 1148.48 0.103547 -1.57259 0
M  V30 12181 C 1149.71 0.82235 -1.89855 0
M  V30 12182 C 1150.13 1.72694 -0.76303 0
M  V30 12183 O 1149.48 1.8056 0.265421 0
M  V30 12184 C 1149.53 1.64282 -3.22015 0
M  V30 12185 O 1149.26 0.774628 -4.31197 0
M  V30 12186 C 1150.76 2.46543 -3.68418 0
M  V30 12187 H 1147.98 0.235591 -0.628282 0
M  V30 12188 H 1150.52 0.0833106 -2.0433 0
M  V30 12189 H 1148.68 2.33446 -3.09163 0
M  V30 12190 H 1149.09 1.34205 -5.0704 0
M  V30 12191 H 1150.56 2.99618 -4.63609 0
M  V30 12192 H 1151.04 3.24618 -2.95838 0
M  V30 12193 H 1151.65 1.82594 -3.84109 0
M  V30 12194 N 1149.96 1.53094 0.37415 0
M  V30 12195 C 1151.19 1.73061 1.143 0
M  V30 12196 C 1151.61 0.454611 1.82524 0
M  V30 12197 O 1150.97 -0.590743 1.71406 0
M  V30 12198 C 1151.02 2.89086 2.15549 0
M  V30 12199 O 1150.12 2.57096 3.22452 0
M  V30 12200 H 1149.46 0.575009 0.332055 0
M  V30 12201 H 1151.99 1.99946 0.433897 0
M  V30 12202 H 1152 3.15007 2.59296 0
M  V30 12203 H 1150.68 3.81647 1.65283 0
M  V30 12204 H 1149.25 2.41965 2.83738 0
M  V30 12205 N 1151.44 -0.633461 1.44309 0
M  V30 12206 C 1152.67 -1.42033 1.50447 0
M  V30 12207 C 1153.08 -1.88362 0.128585 0
M  V30 12208 O 1152.44 -1.60695 -0.865071 0
M  V30 12209 C 1152.49 -2.6422 2.46719 0
M  V30 12210 O 1152.21 -2.19823 3.78958 0
M  V30 12211 C 1153.71 -3.57372 2.62298 0
M  V30 12212 H 1150.93 -0.435667 0.510329 0
M  V30 12213 H 1153.48 -0.774907 1.8925 0
M  V30 12214 H 1151.63 -3.24859 2.11058 0
M  V30 12215 H 1152.05 -2.99022 4.30913 0
M  V30 12216 H 1153.52 -4.39719 3.33693 0
M  V30 12217 H 1154 -4.06026 1.67449 0
M  V30 12218 H 1154.6 -3.02603 2.9885 0
M  V30 12219 N 1152.92 -1.31168 -0.873655 0
M  V30 12220 C 1154.17 -1.20642 -1.6264 0
M  V30 12221 C 1154.49 0.236286 -1.93059 0
M  V30 12222 O 1153.75 1.18401 -1.55819 0
M  V30 12223 C 1154.05 -1.99204 -2.96736 0
M  V30 12224 C 1153.71 -3.48734 -2.85824 0
M  V30 12225 C 1152.38 -3.89507 -2.82555 0
M  V30 12226 C 1154.73 -4.43905 -2.73127 0
M  V30 12227 C 1152.06 -5.23724 -2.64442 0
M  V30 12228 C 1154.41 -5.78242 -2.56551 0
M  V30 12229 C 1153.07 -6.18241 -2.51663 0
M  V30 12230 H 1152.34 -0.44146 -0.595142 0
M  V30 12231 H 1154.99 -1.62394 -1.01492 0
M  V30 12232 H 1153.29 -1.50122 -3.61899 0
M  V30 12233 H 1154.99 -1.88443 -3.53963 0
M  V30 12234 H 1151.58 -3.1634 -2.89184 0
M  V30 12235 H 1155.76 -4.13338 -2.7471 0
M  V30 12236 H 1151.02 -5.53794 -2.59081 0
M  V30 12237 H 1155.19 -6.51616 -2.45702 0
M  V30 12238 H 1152.82 -7.22185 -2.37387 0
M  V30 12239 N 1154.4 1.08748 -1.14068 0
M  V30 12240 C 1155.64 1.81333 -0.908081 0
M  V30 12241 C 1155.98 1.85826 0.564112 0
M  V30 12242 O 1155.25 1.33157 1.41773 0
M  V30 12243 C 1155.53 3.27127 -1.50531 0
M  V30 12244 C 1155.39 3.30865 -3.04711 0
M  V30 12245 C 1156.71 4.24006 -1.17928 0
M  V30 12246 H 1153.82 0.658326 -0.331325 0
M  V30 12247 H 1156.47 1.27345 -1.41008 0
M  V30 12248 H 1154.62 3.73233 -1.07839 0
M  V30 12249 H 1156.29 2.93109 -3.56209 0
M  V30 12250 H 1154.53 2.70241 -3.39341 0
M  V30 12251 H 1155.2 4.33603 -3.41603 0
M  V30 12252 H 1157.68 3.86221 -1.54831 0
M  V30 12253 H 1156.55 5.2434 -1.62353 0
M  V30 12254 H 1156.82 4.42 -0.0940349 0
M  V30 12255 N 1155.87 0.935264 1.26849 0
M  V30 12256 C 1157.29 0.623198 1.75992 0
M  V30 12257 C 1157.64 -0.861647 1.76267 0
M  V30 12258 O 1156.76 -1.6743 1.37099 0
M  V30 12259 C 1157.36 1.12451 3.19594 0
M  V30 12260 C 1155.92 0.862974 3.66374 0
M  V30 12261 C 1155.06 1.27886 2.4605 0
M  V30 12262 H 1158.01 1.11422 1.13008 0
M  V30 12263 H 1158.03 0.475626 3.77516 0
M  V30 12264 H 1157.55 2.20522 3.19361 0
M  V30 12265 H 1155.65 -0.203606 3.72043 0
M  V30 12266 H 1155.76 1.48582 4.55478 0
M  V30 12267 H 1154.12 0.697335 2.44968 0
M  V30 12268 H 1154.91 2.36837 2.48522 0
M  V30 12269 N 1157.35 -1.41121 0.701616 0
M  V30 12270 C 1158.58 -2.05154 0.244011 0
M  V30 12271 C 1158.99 -1.52922 -1.11407 0
M  V30 12272 O 1158.33 -0.67486 -1.70855 0
M  V30 12273 C 1158.4 -3.59262 0.130773 0
M  V30 12274 C 1158.06 -4.34318 1.42187 0
M  V30 12275 C 1159.06 -4.632 2.36097 0
M  V30 12276 C 1156.74 -4.73481 1.67693 0
M  V30 12277 C 1158.74 -5.30214 3.53768 0
M  V30 12278 C 1156.42 -5.4023 2.85648 0
M  V30 12279 C 1157.42 -5.68524 3.78509 0
M  V30 12280 O 1157.11 -6.33898 4.94397 0
M  V30 12281 H 1156.84 -0.666997 0.109957 0
M  V30 12282 H 1159.39 -1.81771 0.956473 0
M  V30 12283 H 1157.62 -3.81409 -0.637512 0
M  V30 12284 H 1159.31 -4.0486 -0.29044 0
M  V30 12285 H 1160.08 -4.3342 2.17652 0
M  V30 12286 H 1155.96 -4.50835 0.962733 0
M  V30 12287 H 1159.5 -5.52215 4.26267 0
M  V30 12288 H 1155.4 -5.69429 3.04008 0
M  V30 12289 H 1156.17 -6.52394 4.94292 0
M  V30 12290 N 1158.83 -0.446794 -1.51134 0
M  V30 12291 C 1159.74 0.36579 -2.31731 0
M  V30 12292 C 1160.76 1.01886 -1.41051 0
M  V30 12293 O 1161.93 1.01216 -1.74119 0
M  V30 12294 C 1159 1.44705 -3.15058 0
M  V30 12295 C 1158.06 0.813129 -4.21529 0
M  V30 12296 C 1157.29 1.84287 -5.00873 0
M  V30 12297 O 1157.51 3.06633 -4.8097 0
M  V30 12298 O 1156.45 1.42816 -5.84711 0
M  V30 12299 H 1160.27 -0.292436 -3.02289 0
M  V30 12300 H 1157.86 -0.209129 -1.47929 0
M  V30 12301 H 1159.74 2.07393 -3.66833 0
M  V30 12302 H 1158.42 2.08919 -2.47254 0
M  V30 12303 H 1157.32 0.147953 -3.73807 0
M  V30 12304 H 1158.66 0.214331 -4.91733 0
M  V30 12305 N 1160.31 1.56586 -0.178487 0
M  V30 12306 C 1161.56 1.96273 0.464745 0
M  V30 12307 C 1161.87 1.0675 1.63902 0
M  V30 12308 O 1163.08 1.36148 2.34896 0
M  V30 12309 C 1161.53 3.49021 0.878207 0
M  V30 12310 C 1161.14 4.4718 -0.270861 0
M  V30 12311 C 1162.88 3.97512 1.48946 0
M  V30 12312 C 1160.79 5.91176 0.162632 0
M  V30 12313 H 1159.72 0.732834 0.177398 0
M  V30 12314 H 1162.37 1.81534 -0.267861 0
M  V30 12315 H 1160.75 3.59203 1.667 0
M  V30 12316 H 1161.93 4.48718 -1.04826 0
M  V30 12317 H 1160.24 4.08788 -0.792529 0
M  V30 12318 H 1162.84 5.02556 1.82595 0
M  V30 12319 H 1163.18 3.40861 2.38997 0
M  V30 12320 H 1163.72 3.90376 0.76496 0
M  V30 12321 H 1160.46 6.51716 -0.703286 0
M  V30 12322 H 1159.98 5.9293 0.905243 0
M  V30 12323 H 1161.65 6.44174 0.604084 0
M  V30 12324 N 1161.79 -0.095206 1.57312 0
M  V30 12325 C 1162.73 -1.11551 2.02052 0
M  V30 12326 C 1163.7 -1.39808 0.896818 0
M  V30 12327 O 1164.89 -1.51273 1.1628 0
M  V30 12328 C 1162.03 -2.43056 2.44985 0
M  V30 12329 C 1161.14 -2.21531 3.70875 0
M  V30 12330 C 1160.28 -3.46434 4.02687 0
M  V30 12331 C 1159.32 -3.2017 5.21687 0
M  V30 12332 N 1158.45 -4.37339 5.49253 0
M  V30 12333 H 1163.29 -0.727 2.88996 0
M  V30 12334 H 1160.83 -0.347441 1.42938 0
M  V30 12335 H 1162.79 -3.19803 2.67921 0
M  V30 12336 H 1161.42 -2.79754 1.61051 0
M  V30 12337 H 1160.47 -1.35587 3.55416 0
M  V30 12338 H 1161.78 -1.98116 4.57768 0
M  V30 12339 H 1160.94 -4.31589 4.26399 0
M  V30 12340 H 1159.67 -3.72904 3.14315 0
M  V30 12341 H 1158.68 -2.33409 4.97796 0
M  V30 12342 H 1159.9 -2.95047 6.11657 0
M  V30 12343 H 1157.85 -4.63885 4.6384 0
M  V30 12344 H 1157.77 -4.17114 6.30517 0
M  V30 12345 H 1159.04 -5.23559 5.775 0
M  V30 12346 N 1163.26 -1.53291 -0.366026 0
M  V30 12347 C 1164.51 -1.69702 -1.11036 0
M  V30 12348 C 1164.84 -0.44728 -1.88979 0
M  V30 12349 O 1164.12 0.55542 -1.86401 0
M  V30 12350 C 1164.4 -2.94661 -2.06995 0
M  V30 12351 C 1164.25 -4.29791 -1.32663 0
M  V30 12352 C 1165.57 -3.15219 -3.07123 0
M  V30 12353 H 1162.69 -0.617525 -0.402284 0
M  V30 12354 H 1165.33 -1.85929 -0.391223 0
M  V30 12355 H 1163.48 -2.80958 -2.68318 0
M  V30 12356 H 1165.16 -4.55305 -0.741266 0
M  V30 12357 H 1163.4 -4.29223 -0.628484 0
M  V30 12358 H 1164.07 -5.13359 -2.02896 0
M  V30 12359 H 1166.55 -3.28105 -2.55903 0
M  V30 12360 H 1165.42 -4.04088 -3.71489 0
M  V30 12361 H 1165.68 -2.30479 -3.77269 0
M  V30 12362 N 1164.74 0.6258 -1.44643 0
M  V30 12363 C 1165.67 1.75086 -1.47911 0
M  V30 12364 C 1166.69 1.58496 -0.37188 0
M  V30 12365 O 1167.88 1.66712 -0.637925 0
M  V30 12366 C 1164.98 3.12874 -1.30243 0
M  V30 12367 C 1164.15 3.55873 -2.54309 0
M  V30 12368 C 1163.21 4.72558 -2.31464 0
M  V30 12369 O 1162.23 4.80599 -3.04981 0
M  V30 12370 N 1163.44 5.64617 -1.34862 0
M  V30 12371 H 1166.2 1.72751 -2.44902 0
M  V30 12372 H 1163.76 0.810531 -1.4015 0
M  V30 12373 H 1165.75 3.88663 -1.12798 0
M  V30 12374 H 1164.32 3.0982 -0.415966 0
M  V30 12375 H 1163.54 2.70237 -2.86994 0
M  V30 12376 H 1164.83 3.81355 -3.36817 0
M  V30 12377 H 1164.23 5.60819 -0.741542 0
M  V30 12378 H 1162.79 6.40013 -1.23394 0
M  V30 12379 N 1166.22 1.31629 0.866686 0
M  V30 12380 C 1167.18 1.1951 1.95576 0
M  V30 12381 C 1168.18 0.121319 1.60342 0
M  V30 12382 O 1169.37 0.370832 1.70207 0
M  V30 12383 C 1166.51 0.835201 3.30511 0
M  V30 12384 H 1167.7 2.16285 2.07752 0
M  V30 12385 H 1165.25 1.15288 1.05539 0
M  V30 12386 H 1165.99 -0.131245 3.24034 0
M  V30 12387 H 1165.77 1.61142 3.57457 0
M  V30 12388 H 1167.26 0.774393 4.10357 0
M  V30 12389 N 1167.7 -1.08142 1.14644 0
M  V30 12390 C 1168.95 -1.80849 0.917685 0
M  V30 12391 C 1169.28 -1.86123 -0.554249 0
M  V30 12392 O 1168.55 -1.33907 -1.41065 0
M  V30 12393 C 1168.84 -3.26325 1.52264 0
M  V30 12394 C 1168.69 -3.29244 3.06461 0
M  V30 12395 C 1170.01 -4.23375 1.20175 0
M  V30 12396 H 1167.13 -0.656559 0.334812 0
M  V30 12397 H 1169.77 -1.26595 1.41682 0
M  V30 12398 H 1167.92 -3.72656 1.09817 0
M  V30 12399 H 1169.59 -2.91216 3.57758 0
M  V30 12400 H 1167.83 -2.68438 3.40769 0
M  V30 12401 H 1168.51 -4.31785 3.43897 0
M  V30 12402 H 1170.98 -3.85394 1.56877 0
M  V30 12403 H 1169.86 -5.23472 1.65132 0
M  V30 12404 H 1170.12 -4.41944 0.117474 0
M  V30 12405 N 1169.18 -0.941978 -1.26351 0
M  V30 12406 C 1170.13 -0.443011 -2.28342 0
M  V30 12407 C 1171.12 0.48013 -1.62453 0
M  V30 12408 O 1172.33 0.358255 -1.76399 0
M  V30 12409 H 1168.7 -0.124728 -0.741584 0
M  V30 12410 H 1170.67 -1.31573 -2.67827 0
M  V30 12411 C 1169.42 0.275675 -3.46605 0
M  V30 12412 H 1168.74 -0.425504 -3.97529 0
M  V30 12413 H 1170.18 0.589012 -4.19889 0
M  V30 12414 C 1168.64 1.49376 -3.01974 0
M  V30 12415 O 1169.17 2.59203 -3.06883 0
M  V30 12416 N 1167.38 1.35061 -2.57307 0
M  V30 12417 H 1166.93 0.457045 -2.53513 0
M  V30 12418 H 1166.88 2.16681 -2.27809 0
M  V30 12419 N 1170.66 1.40747 -0.709091 0
M  V30 12420 C 1171.88 2.05841 -0.253816 0
M  V30 12421 C 1172.31 1.53056 1.09341 0
M  V30 12422 O 1171.66 0.663181 1.68735 0
M  V30 12423 C 1171.71 3.59822 -0.236699 0
M  V30 12424 O 1170.82 4.04876 0.784168 0
M  V30 12425 H 1170.16 0.65295 -0.120631 0
M  V30 12426 H 1172.69 1.80266 -0.967749 0
M  V30 12427 H 1172.7 4.07936 -0.0721616 0
M  V30 12428 H 1171.37 3.97608 -1.21988 0
M  V30 12429 H 1169.95 3.68237 0.587884 0
M  V30 12430 N 1172.13 0.454803 1.50895 0
M  V30 12431 C 1173.07 -0.383826 2.25963 0
M  V30 12432 C 1174.08 -0.971263 1.30653 0
M  V30 12433 O 1175.27 -0.862434 1.56283 0
M  V30 12434 C 1172.37 -1.55069 3.01342 0
M  V30 12435 C 1171.54 -1.07899 4.23883 0
M  V30 12436 C 1170.6 -2.118 4.81692 0
M  V30 12437 O 1169.63 -1.70523 5.43057 0
M  V30 12438 N 1170.83 -3.44459 4.67256 0
M  V30 12439 H 1173.59 0.259646 2.98573 0
M  V30 12440 H 1171.15 0.284661 1.59378 0
M  V30 12441 H 1173.15 -2.24236 3.36898 0
M  V30 12442 H 1171.72 -2.09917 2.31633 0
M  V30 12443 H 1170.94 -0.213773 3.9362 0
M  V30 12444 H 1172.22 -0.741501 5.03368 0
M  V30 12445 H 1171.62 -3.80716 4.18416 0
M  V30 12446 H 1170.18 -4.0947 5.07127 0
M  V30 12447 N 1173.61 -1.56489 0.186789 0
M  V30 12448 C 1174.86 -1.96952 -0.453261 0
M  V30 12449 C 1175.18 -1.07451 -1.62725 0
M  V30 12450 O 1174.45 -0.144046 -1.9537 0
M  V30 12451 H 1173.03 -0.727295 -0.170445 0
M  V30 12452 H 1175.69 -1.92999 0.271584 0
M  V30 12453 H 1174.79 -3.01594 -0.802951 0
M  V30 12454 N 1175.09 0.086862 -1.5736 0
M  V30 12455 C 1176.04 1.10478 -2.02641 0
M  V30 12456 C 1177.01 1.39331 -0.904219 0
M  V30 12457 O 1178.19 1.50654 -1.17081 0
M  V30 12458 C 1175.33 2.41754 -2.4627 0
M  V30 12459 C 1174.44 2.19561 -3.72044 0
M  V30 12460 C 1173.58 3.44294 -4.04519 0
M  V30 12461 C 1172.62 3.17399 -5.23378 0
M  V30 12462 N 1171.76 4.3442 -5.51564 0
M  V30 12463 H 1176.6 0.711663 -2.89378 0
M  V30 12464 H 1174.13 0.339856 -1.4312 0
M  V30 12465 H 1176.09 3.18378 -2.69613 0
M  V30 12466 H 1174.72 2.78896 -1.62532 0
M  V30 12467 H 1173.77 1.337 -3.5613 0
M  V30 12468 H 1175.08 1.95685 -4.58812 0
M  V30 12469 H 1174.24 4.29321 -4.28682 0
M  V30 12470 H 1172.98 3.71232 -3.16289 0
M  V30 12471 H 1171.98 2.30765 -4.99026 0
M  V30 12472 H 1173.21 2.91799 -6.13213 0
M  V30 12473 H 1171.15 4.61418 -4.66293 0
M  V30 12474 H 1171.07 4.13764 -6.3272 0
M  V30 12475 H 1172.34 5.20489 -5.80269 0
M  V30 12476 N 1176.57 1.53483 0.357892 0
M  V30 12477 C 1177.82 1.69701 1.09754 0
M  V30 12478 C 1178.14 0.455389 1.89608 0
M  V30 12479 O 1177.41 -0.530623 1.88577 0
M  V30 12480 H 1175.99 0.62562 0.408178 0
M  V30 12481 H 1178.65 1.90696 0.402641 0
M  V30 12482 H 1177.74 2.56154 1.78302 0
M  V30 12483 N 1178.05 -0.61812 1.44973 0
M  V30 12484 C 1179.46 -1.19994 1.43033 0
M  V30 12485 C 1179.81 -1.95607 0.152422 0
M  V30 12486 O 1178.93 -2.03114 -0.746571 0
M  V30 12487 C 1179.53 -2.18269 2.59122 0
M  V30 12488 C 1178.09 -2.7185 2.60336 0
M  V30 12489 C 1177.23 -1.4707 2.35086 0
M  V30 12490 H 1180.18 -0.408034 1.53365 0
M  V30 12491 H 1180.21 -3.01113 2.32619 0
M  V30 12492 H 1179.72 -1.63208 3.52115 0
M  V30 12493 H 1177.82 -3.30878 1.7132 0
M  V30 12494 H 1177.93 -3.17001 3.59231 0
M  V30 12495 H 1176.3 -1.75658 1.84435 0
M  V30 12496 H 1177.08 -0.938928 3.30211 0
M  V30 12497 N 1179.52 -1.32087 -0.859693 0
M  V30 12498 C 1180.43 -1.22587 -2.00024 0
M  V30 12499 C 1181.45 -0.140477 -1.73432 0
M  V30 12500 O 1182.63 -0.360213 -1.98153 0
M  V30 12501 C 1179.69 -0.944195 -3.33595 0
M  V30 12502 C 1178.75 -2.11752 -3.73443 0
M  V30 12503 C 1177.98 -1.84919 -5.0064 0
M  V30 12504 O 1178.21 -0.789299 -5.64913 0
M  V30 12505 O 1177.14 -2.70885 -5.37499 0
M  V30 12506 H 1180.97 -2.18457 -2.10974 0
M  V30 12507 H 1178.55 -1.11927 -0.989577 0
M  V30 12508 H 1180.43 -0.803389 -4.13671 0
M  V30 12509 H 1179.11 -0.0156083 -3.23696 0
M  V30 12510 H 1178.02 -2.31378 -2.93965 0
M  V30 12511 H 1179.35 -3.02872 -3.87981 0
M  V30 12512 N 1181 1.07532 -1.15215 0
M  V30 12513 C 1182.41 1.61567 -0.935568 0
M  V30 12514 C 1182.76 1.89085 0.523557 0
M  V30 12515 O 1181.89 1.65495 1.39429 0
M  V30 12516 C 1182.48 2.93531 -1.69189 0
M  V30 12517 C 1181.04 3.44316 -1.52063 0
M  V30 12518 C 1180.19 2.18404 -1.70866 0
M  V30 12519 H 1183.14 0.906431 -1.30267 0
M  V30 12520 H 1183.16 3.62377 -1.16031 0
M  V30 12521 H 1182.67 2.73471 -2.75381 0
M  V30 12522 H 1180.77 3.69462 -0.482567 0
M  V30 12523 H 1180.89 4.20478 -2.29642 0
M  V30 12524 H 1179.25 2.28012 -1.13502 0
M  V30 12525 H 1180.03 2.00841 -2.7842 0
M  V30 12526 N 1182.48 0.948665 1.2585 0
M  V30 12527 C 1183.41 0.421458 2.25292 0
M  V30 12528 C 1184.43 -0.459389 1.56184 0
M  V30 12529 O 1185.61 -0.268627 1.76467 0
M  V30 12530 C 1182.71 -0.412653 3.36378 0
M  V30 12531 C 1181.89 0.453792 4.3504 0
M  V30 12532 C 1180.95 -0.321127 5.25219 0
M  V30 12533 O 1179.97 0.278424 5.68519 0
M  V30 12534 N 1181.17 -1.61576 5.5756 0
M  V30 12535 H 1183.94 1.27636 2.71162 0
M  V30 12536 H 1181.5 0.818367 1.39694 0
M  V30 12537 H 1183.49 -0.938637 3.93664 0
M  V30 12538 H 1182.06 -1.16839 2.89944 0
M  V30 12539 H 1181.28 1.16093 3.76718 0
M  V30 12540 H 1182.57 1.04538 4.97945 0
M  V30 12541 H 1181.97 -2.12488 5.24276 0
M  V30 12542 H 1180.53 -2.08783 6.17457 0
M  V30 12543 N 1183.96 -1.40369 0.716545 0
M  V30 12544 C 1185.2 -2.01167 0.256846 0
M  V30 12545 C 1185.54 -1.56689 -1.14727 0
M  V30 12546 O 1184.81 -0.787384 -1.7785 0
M  V30 12547 C 1185.1 -3.58511 0.337963 0
M  V30 12548 C 1184.95 -4.13059 1.78052 0
M  V30 12549 C 1186.27 -4.39142 -0.290295 0
M  V30 12550 H 1183.39 -0.730877 0.0948028 0
M  V30 12551 H 1186.03 -1.66833 0.909225 0
M  V30 12552 H 1184.18 -3.87891 -0.217482 0
M  V30 12553 H 1185.85 -3.94472 2.39143 0
M  V30 12554 H 1184.09 -3.67311 2.30793 0
M  V30 12555 H 1184.76 -5.22217 1.78867 0
M  V30 12556 H 1187.24 -4.15697 0.182987 0
M  V30 12557 H 1186.12 -5.48524 -0.203097 0
M  V30 12558 H 1186.38 -4.20209 -1.37394 0
M  V30 12559 N 1185.44 -0.462799 -1.50652 0
M  V30 12560 C 1186.66 0.0929761 -2.06691 0
M  V30 12561 C 1187.08 1.34241 -1.32758 0
M  V30 12562 O 1186.44 1.78187 -0.394427 0
M  V30 12563 C 1186.49 0.389492 -3.59396 0
M  V30 12564 O 1186.21 -0.810379 -4.3054 0
M  V30 12565 C 1187.71 0.993147 -4.32032 0
M  V30 12566 H 1184.93 -0.00338664 -0.670991 0
M  V30 12567 H 1187.47 -0.649201 -1.93922 0
M  V30 12568 H 1185.63 1.08159 -3.71995 0
M  V30 12569 H 1186.04 -0.54996 -5.21609 0
M  V30 12570 H 1187.52 1.15044 -5.39878 0
M  V30 12571 H 1187.99 1.98106 -3.91983 0
M  V30 12572 H 1188.6 0.339677 -4.23941 0
M  V30 12573 N 1186.91 1.56388 -0.195085 0
M  V30 12574 C 1188.16 1.96755 0.443901 0
M  V30 12575 C 1188.48 1.08483 1.6276 0
M  V30 12576 O 1189.68 1.38632 2.33438 0
M  V30 12577 C 1188.14 3.49933 0.841139 0
M  V30 12578 C 1187.75 4.46868 -0.318275 0
M  V30 12579 C 1189.49 3.99069 1.44721 0
M  V30 12580 C 1187.4 5.91316 0.0999211 0
M  V30 12581 H 1186.33 0.734674 0.169616 0
M  V30 12582 H 1188.98 1.8124 -0.287101 0
M  V30 12583 H 1187.36 3.60951 1.62881 0
M  V30 12584 H 1188.53 4.47581 -1.0958 0
M  V30 12585 H 1186.85 4.07925 -0.835842 0
M  V30 12586 H 1189.45 5.04465 1.77255 0
M  V30 12587 H 1189.79 3.43376 2.35369 0
M  V30 12588 H 1190.32 3.91165 0.723513 0
M  V30 12589 H 1187.06 6.50934 -0.77237 0
M  V30 12590 H 1186.58 5.93856 0.842304 0
M  V30 12591 H 1188.26 6.44778 0.535726 0
M  V30 12592 N 1188.39 -0.0785156 1.57404 0
M  V30 12593 C 1189.64 -0.777399 1.8655 0
M  V30 12594 C 1189.96 -1.78451 0.786142 0
M  V30 12595 O 1189.23 -1.95016 -0.185911 0
M  V30 12596 H 1187.81 -0.290097 0.688369 0
M  V30 12597 H 1190.47 -0.0562017 1.94819 0
M  V30 12598 H 1189.57 -1.29776 2.83839 0
M  V30 12599 N 1189.87 -1.5367 -0.349747 0
M  V30 12600 C 1191.1 -1.74294 -1.10928 0
M  V30 12601 C 1191.51 -0.479102 -1.83033 0
M  V30 12602 O 1190.85 0.558621 -1.75 0
M  V30 12603 C 1190.91 -2.86457 -2.17216 0
M  V30 12604 C 1190.58 -4.26274 -1.6474 0
M  V30 12605 C 1191.57 -5.08065 -1.10302 0
M  V30 12606 C 1189.26 -4.72739 -1.69774 0
M  V30 12607 C 1191.25 -6.34417 -0.615938 0
M  V30 12608 C 1188.94 -5.99066 -1.20678 0
M  V30 12609 C 1189.94 -6.79737 -0.6668 0
M  V30 12610 O 1189.63 -8.03691 -0.183143 0
M  V30 12611 H 1189.36 -0.586046 -0.336937 0
M  V30 12612 H 1191.91 -2.01274 -0.409645 0
M  V30 12613 H 1190.14 -2.54988 -2.9072 0
M  V30 12614 H 1191.83 -2.95109 -2.78686 0
M  V30 12615 H 1192.6 -4.73333 -1.05739 0
M  V30 12616 H 1188.48 -4.1001 -2.10744 0
M  V30 12617 H 1192.02 -6.97331 -0.193795 0
M  V30 12618 H 1187.92 -6.33293 -1.24939 0
M  V30 12619 H 1188.69 -8.17946 -0.301008 0
M  V30 12620 N 1191.35 0.610423 -1.45298 0
M  V30 12621 C 1192.57 1.40112 -1.52917 0
M  V30 12622 C 1193 1.87404 -0.161696 0
M  V30 12623 O 1192.36 1.59973 0.853135 0
M  V30 12624 C 1192.4 2.58359 -2.51561 0
M  V30 12625 O 1191.51 3.58895 -2.03146 0
M  V30 12626 H 1190.85 0.41841 -0.515586 0
M  V30 12627 H 1193.38 0.743159 -1.90626 0
M  V30 12628 H 1193.39 3.0564 -2.70275 0
M  V30 12629 H 1192.06 2.23286 -3.50879 0
M  V30 12630 H 1190.64 3.18282 -1.94296 0
M  V30 12631 N 1192.83 1.32541 0.852676 0
M  V30 12632 C 1194.07 1.22971 1.60383 0
M  V30 12633 C 1194.4 -0.208009 1.93887 0
M  V30 12634 O 1193.67 -1.13326 1.59794 0
M  V30 12635 H 1192.25 0.452149 0.594618 0
M  V30 12636 H 1194.91 1.66089 1.01983 0
M  V30 12637 H 1194 1.81373 2.53989 0
M  V30 12638 N 1194.3 -1.0692 1.15784 0
M  V30 12639 C 1195.21 -2.17762 0.872753 0
M  V30 12640 C 1196.23 -1.73329 -0.152608 0
M  V30 12641 O 1197.41 -2.01387 0.022519 0
M  V30 12642 C 1194.47 -3.4471 0.370887 0
M  V30 12643 C 1193.53 -4.03686 1.46069 0
M  V30 12644 C 1192.77 -5.24575 0.982675 0
M  V30 12645 O 1192.99 -5.70146 -0.17006 0
M  V30 12646 O 1191.92 -5.7534 1.76828 0
M  V30 12647 H 1195.75 -2.44648 1.79948 0
M  V30 12648 H 1193.33 -1.1634 0.937303 0
M  V30 12649 H 1195.22 -4.21287 0.0976779 0
M  V30 12650 H 1193.89 -3.19366 -0.527912 0
M  V30 12651 H 1192.8 -3.28629 1.78756 0
M  V30 12652 H 1194.13 -4.33312 2.33456 0
M  V30 12653 N 1195.78 -0.955326 -1.25345 0
M  V30 12654 C 1197.06 -0.527828 -1.88344 0
M  V30 12655 C 1197.44 0.994911 -1.86185 0
M  V30 12656 O 1196.79 1.86099 -1.32587 0
M  V30 12657 C 1197 -1.10525 -3.31037 0
M  V30 12658 C 1198.35 -1.18253 -4.07801 0
M  V30 12659 O 1199.37 -1.05685 -3.4016 0
M  V30 12660 O 1198.23 -1.37978 -5.28795 0
M  V30 12661 H 1195.32 -0.174206 -0.808444 0
M  V30 12662 H 1197.87 -1.0488 -1.3341 0
M  V30 12663 H 1196.64 -2.14847 -3.27042 0
M  V30 12664 H 1196.26 -0.567568 -3.93528 0
M  V30 12665 N 1197.26 1.39987 -0.723979 0
M  V30 12666 C 1198.49 2.0474 -0.276618 0
M  V30 12667 C 1198.9 1.54675 1.0896 0
M  V30 12668 O 1198.24 0.701956 1.69759 0
M  V30 12669 C 1198.3 3.59009 -0.187912 0
M  V30 12670 C 1197.97 4.32 -1.49079 0
M  V30 12671 C 1198.97 4.59385 -2.43436 0
M  V30 12672 C 1196.65 4.70753 -1.75204 0
M  V30 12673 C 1198.64 5.24519 -3.62159 0
M  V30 12674 C 1196.33 5.35617 -2.94206 0
M  V30 12675 C 1197.33 5.62431 -3.87506 0
M  V30 12676 O 1197.02 6.25952 -5.0442 0
M  V30 12677 H 1196.75 0.665164 -0.120554 0
M  V30 12678 H 1199.3 1.80226 -0.98527 0
M  V30 12679 H 1197.53 3.82375 0.576753 0
M  V30 12680 H 1199.22 4.0527 0.225993 0
M  V30 12681 H 1199.99 4.29902 -2.24519 0
M  V30 12682 H 1195.87 4.49247 -1.03433 0
M  V30 12683 H 1199.41 5.45364 -4.34999 0
M  V30 12684 H 1195.31 5.64521 -3.13029 0
M  V30 12685 H 1196.08 6.44448 -5.04608 0
M  V30 12686 N 1198.74 0.470782 1.50404 0
M  V30 12687 C 1200.15 0.0155901 1.86693 0
M  V30 12688 C 1200.5 -1.38908 1.38561 0
M  V30 12689 O 1199.63 -2.02971 0.750454 0
M  V30 12690 C 1200.22 0.0215152 3.38793 0
M  V30 12691 C 1198.78 -0.378206 3.74495 0
M  V30 12692 C 1197.93 0.407126 2.74295 0
M  V30 12693 H 1200.88 0.68507 1.43152 0
M  V30 12694 H 1200.9 -0.780717 3.72404 0
M  V30 12695 H 1200.41 1.04397 3.73795 0
M  V30 12696 H 1198.51 -1.40503 3.45094 0
M  V30 12697 H 1198.63 -0.0797643 4.79034 0
M  V30 12698 H 1196.99 -0.139123 2.5432 0
M  V30 12699 H 1197.77 1.42909 3.12141 0
M  V30 12700 N 1200.22 -1.56282 0.203376 0
M  V30 12701 C 1201.15 -2.16714 -0.74616 0
M  V30 12702 C 1202.16 -1.13121 -1.17079 0
M  V30 12703 O 1203.35 -1.40179 -1.10509 0
M  V30 12704 C 1200.45 -2.72115 -2.02007 0
M  V30 12705 C 1199.62 -4.00695 -1.75391 0
M  V30 12706 C 1198.68 -4.40839 -2.8731 0
M  V30 12707 O 1197.71 -5.081 -2.56561 0
M  V30 12708 N 1198.91 -4.05024 -4.15856 0
M  V30 12709 H 1201.68 -2.98821 -0.229326 0
M  V30 12710 H 1199.24 -1.61885 0.0217049 0
M  V30 12711 H 1201.23 -2.95951 -2.76035 0
M  V30 12712 H 1199.8 -1.94415 -2.44789 0
M  V30 12713 H 1199.02 -3.84905 -0.851 0
M  V30 12714 H 1200.31 -4.8461 -1.55017 0
M  V30 12715 H 1199.71 -3.50938 -4.43688 0
M  V30 12716 H 1198.26 -4.33792 -4.86485 0
M  V30 12717 N 1201.7 0.070167 -1.57444 0
M  V30 12718 C 1202.66 1.06761 -2.02817 0
M  V30 12719 C 1203.66 1.31498 -0.925462 0
M  V30 12720 O 1204.85 1.27192 -1.19029 0
M  V30 12721 C 1201.98 2.41086 -2.41019 0
M  V30 12722 H 1203.17 0.67651 -2.9217 0
M  V30 12723 H 1200.73 0.315936 -1.53074 0
M  V30 12724 H 1201.46 2.85025 -1.54697 0
M  V30 12725 H 1201.25 2.24472 -3.21488 0
M  V30 12726 H 1202.74 3.12778 -2.76694 0
M  V30 12727 N 1203.17 1.53854 0.341593 0
M  V30 12728 C 1204.42 1.7041 1.07905 0
M  V30 12729 C 1204.74 0.475039 1.89744 0
M  V30 12730 O 1205.94 0.521589 2.66443 0
M  V30 12731 C 1204.4 3.01342 1.96776 0
M  V30 12732 C 1204.01 4.31592 1.20135 0
M  V30 12733 C 1205.75 3.27264 2.70367 0
M  V30 12734 C 1203.66 5.53598 2.08047 0
M  V30 12735 H 1202.59 0.635005 0.406553 0
M  V30 12736 H 1205.24 1.80353 0.338409 0
M  V30 12737 H 1203.62 2.85261 2.74667 0
M  V30 12738 H 1204.79 4.58382 0.471404 0
M  V30 12739 H 1203.11 4.12298 0.583039 0
M  V30 12740 H 1205.71 4.15607 3.36415 0
M  V30 12741 H 1206.05 2.44357 3.37039 0
M  V30 12742 H 1206.58 3.4413 1.99548 0
M  V30 12743 H 1203.32 6.39053 1.45914 0
M  V30 12744 H 1202.84 5.31052 2.78825 0
M  V30 12745 H 1204.52 5.89314 2.67055 0
M  V30 12746 N 1204.65 -0.602709 1.4562 0
M  V30 12747 C 1206.06 -1.1847 1.44297 0
M  V30 12748 C 1206.41 -1.95434 0.17316 0
M  V30 12749 O 1205.54 -2.03894 -0.724986 0
M  V30 12750 C 1206.13 -2.15508 2.61422 0
M  V30 12751 C 1204.69 -2.69073 2.63204 0
M  V30 12752 C 1203.84 -1.44568 2.36633 0
M  V30 12753 H 1206.79 -0.391745 1.53789 0
M  V30 12754 H 1206.81 -2.98628 2.35799 0
M  V30 12755 H 1206.32 -1.59464 3.53826 0
M  V30 12756 H 1204.42 -3.29042 1.7482 0
M  V30 12757 H 1204.54 -3.13173 3.62573 0
M  V30 12758 H 1202.9 -1.73692 1.86287 0
M  V30 12759 H 1203.68 -0.903852 3.31188 0
M  V30 12760 N 1206.13 -1.32992 -0.845635 0
M  V30 12761 C 1207.04 -1.24701 -1.98713 0
M  V30 12762 C 1208.06 -0.158864 -1.73273 0
M  V30 12763 O 1209.23 -0.381209 -1.97759 0
M  V30 12764 C 1206.3 -0.979524 -3.32575 0
M  V30 12765 C 1205.36 -2.15701 -3.71176 0
M  V30 12766 C 1204.59 -1.90219 -4.98651 0
M  V30 12767 O 1204.81 -0.849171 -5.64044 0
M  V30 12768 O 1203.75 -2.76571 -5.34595 0
M  V30 12769 H 1207.57 -2.20683 -2.08645 0
M  V30 12770 H 1205.16 -1.12971 -0.97765 0
M  V30 12771 H 1207.04 -0.847219 -4.12796 0
M  V30 12772 H 1205.72 -0.0499398 -3.23661 0
M  V30 12773 H 1204.62 -2.34483 -2.91494 0
M  V30 12774 H 1205.96 -3.0697 -3.84747 0
M  V30 12775 N 1207.61 1.06304 -1.1635 0
M  V30 12776 C 1208.54 2.15745 -0.893103 0
M  V30 12777 C 1209.52 1.69341 0.160531 0
M  V30 12778 O 1210.7 1.94196 0.0126526 0
M  V30 12779 C 1207.83 3.45066 -0.393287 0
M  V30 12780 C 1206.79 4.04978 -1.38482 0
M  V30 12781 C 1206.11 5.29507 -0.743409 0
M  V30 12782 C 1207.41 4.4377 -2.75438 0
M  V30 12783 H 1209.11 2.38622 -1.80831 0
M  V30 12784 H 1206.65 1.14681 -0.870878 0
M  V30 12785 H 1208.61 4.20964 -0.191607 0
M  V30 12786 H 1207.33 3.21808 0.557426 0
M  V30 12787 H 1205.99 3.31136 -1.57304 0
M  V30 12788 H 1205.64 5.02545 0.213787 0
M  V30 12789 H 1205.34 5.7055 -1.40521 0
M  V30 12790 H 1206.86 6.08102 -0.551746 0
M  V30 12791 H 1208.28 5.1075 -2.60398 0
M  V30 12792 H 1206.67 4.95797 -3.38091 0
M  V30 12793 H 1207.74 3.54636 -3.30699 0
M  V30 12794 N 1209.09 0.96196 1.24836 0
M  V30 12795 C 1210 0.494876 2.29321 0
M  V30 12796 C 1211.01 -0.441363 1.68309 0
M  V30 12797 O 1212.19 -0.315814 1.98908 0
M  V30 12798 C 1209.25 -0.212944 3.46045 0
M  V30 12799 C 1208.31 0.762411 4.22476 0
M  V30 12800 C 1207.55 0.0882756 5.33627 0
M  V30 12801 O 1207.77 -1.12459 5.59204 0
M  V30 12802 O 1206.7 0.777529 5.96857 0
M  V30 12803 H 1210.53 1.36333 2.7138 0
M  V30 12804 H 1208.11 0.728738 1.30421 0
M  V30 12805 H 1210 -0.610805 4.1695 0
M  V30 12806 H 1208.67 -1.05645 3.05975 0
M  V30 12807 H 1207.58 1.21062 3.5397 0
M  V30 12808 H 1208.91 1.57416 4.66349 0
M  V30 12809 N 1210.56 -1.39601 0.731392 0
M  V30 12810 C 1211.81 -2.0019 0.277208 0
M  V30 12811 C 1212.13 -1.5832 -1.13841 0
M  V30 12812 O 1211.4 -0.829793 -1.77458 0
M  V30 12813 H 1209.98 -0.740344 0.0995006 0
M  V30 12814 H 1212.64 -1.70704 0.940547 0
M  V30 12815 H 1211.74 -3.10427 0.322749 0
M  V30 12816 N 1212.04 -0.478751 -1.50152 0
M  V30 12817 C 1213.29 0.07531 -2.01559 0
M  V30 12818 C 1213.6 1.40089 -1.36508 0
M  V30 12819 O 1214.81 2.04035 -1.79115 0
M  V30 12820 C 1213.27 0.184714 -3.59426 0
M  V30 12821 C 1212.87 -1.13289 -4.33439 0
M  V30 12822 C 1214.62 0.690326 -4.18849 0
M  V30 12823 C 1212.53 -0.986866 -5.83108 0
M  V30 12824 H 1211.46 0.0319196 -0.753324 0
M  V30 12825 H 1214.11 -0.614809 -1.72894 0
M  V30 12826 H 1212.49 0.938788 -3.84711 0
M  V30 12827 H 1213.66 -1.89852 -4.19872 0
M  V30 12828 H 1211.98 -1.57021 -3.8566 0
M  V30 12829 H 1214.57 0.816733 -5.28426 0
M  V30 12830 H 1214.92 1.68361 -3.80737 0
M  V30 12831 H 1215.45 -0.00657846 -3.97799 0
M  V30 12832 H 1212.19 -1.95375 -6.25707 0
M  V30 12833 H 1211.71 -0.261752 -5.99229 0
M  V30 12834 H 1213.39 -0.656567 -6.4366 0
M  V30 12835 N 1213.52 1.56172 -0.211661 0
M  V30 12836 C 1214.43 2.23468 0.714081 0
M  V30 12837 C 1215.45 1.23908 1.22159 0
M  V30 12838 O 1216.62 1.56693 1.26528 0
M  V30 12839 C 1213.69 2.89375 1.90953 0
M  V30 12840 C 1212.75 4.04251 1.44497 0
M  V30 12841 C 1211.98 4.67006 2.58343 0
M  V30 12842 O 1212.2 4.28721 3.76237 0
M  V30 12843 O 1211.14 5.56177 2.3011 0
M  V30 12844 H 1214.96 3.03219 0.170862 0
M  V30 12845 H 1212.55 1.49389 0.0183607 0
M  V30 12846 H 1214.43 3.3101 2.60787 0
M  V30 12847 H 1213.11 2.12591 2.44104 0
M  V30 12848 H 1212.01 3.67205 0.714932 0
M  V30 12849 H 1213.35 4.82748 0.959947 0
M  V30 12850 N 1215 -0.0618163 1.57479 0
M  V30 12851 C 1216.25 -0.75794 1.86918 0
M  V30 12852 C 1216.56 -1.78234 0.80572 0
M  V30 12853 O 1217.77 -2.52874 0.98827 0
M  V30 12854 C 1216.22 -1.39898 3.31597 0
M  V30 12855 C 1215.83 -0.412621 4.46096 0
M  V30 12856 C 1217.57 -2.07688 3.70224 0
M  V30 12857 C 1215.48 -1.06014 5.8182 0
M  V30 12858 H 1214.41 -0.286825 0.697314 0
M  V30 12859 H 1217.06 -0.0114386 1.83496 0
M  V30 12860 H 1215.44 -2.19408 3.29661 0
M  V30 12861 H 1216.62 0.353392 4.59443 0
M  V30 12862 H 1214.93 0.161383 4.16087 0
M  V30 12863 H 1217.53 -2.56928 4.68927 0
M  V30 12864 H 1217.87 -2.88073 3.00532 0
M  V30 12865 H 1218.41 -1.34996 3.74194 0
M  V30 12866 H 1215.15 -0.296405 6.5483 0
M  V30 12867 H 1214.67 -1.79677 5.72255 0
M  V30 12868 H 1216.34 -1.57708 6.27485 0
M  V30 12869 N 1216.48 -1.54033 -0.333429 0
M  V30 12870 C 1217.41 -1.85719 -1.4153 0
M  V30 12871 C 1218.39 -0.713144 -1.54429 0
M  V30 12872 O 1219.57 -0.965984 -1.68471 0
M  V30 12873 C 1216.7 -2.07578 -2.78439 0
M  V30 12874 C 1215.66 -3.23411 -2.80338 0
M  V30 12875 C 1214.98 -3.30622 -4.2023 0
M  V30 12876 C 1216.28 -4.6129 -2.44968 0
M  V30 12877 H 1217.98 -2.76325 -1.15261 0
M  V30 12878 H 1215.52 -1.32957 -0.55303 0
M  V30 12879 H 1217.48 -2.28329 -3.5418 0
M  V30 12880 H 1216.2 -1.13713 -3.06165 0
M  V30 12881 H 1214.86 -3.02531 -2.07052 0
M  V30 12882 H 1214.51 -2.34333 -4.45081 0
M  V30 12883 H 1214.21 -4.08466 -4.22409 0
M  V30 12884 H 1215.73 -3.53596 -4.97798 0
M  V30 12885 H 1217.14 -4.81987 -3.10421 0
M  V30 12886 H 1215.54 -5.41611 -2.58414 0
M  V30 12887 H 1216.61 -4.6421 -1.40134 0
M  V30 12888 N 1217.95 0.594978 -1.45938 0
M  V30 12889 C 1218.9 1.726 -1.55923 0
M  V30 12890 C 1219.9 1.63893 -0.428411 0
M  V30 12891 O 1221.1 1.69535 -0.604815 0
M  V30 12892 H 1217.48 0.570447 -0.489994 0
M  V30 12893 H 1219.45 1.61308 -2.51043 0
M  V30 12894 C 1218.2 3.10988 -1.55505 0
M  V30 12895 H 1217.52 3.18353 -2.4185 0
M  V30 12896 H 1218.96 3.8992 -1.66548 0
M  V30 12897 C 1217.42 3.35721 -0.281573 0
M  V30 12898 O 1217.95 3.96676 0.633336 0
M  V30 12899 N 1216.16 2.90083 -0.173314 0
M  V30 12900 H 1215.7 2.4066 -0.91872 0
M  V30 12901 H 1215.66 3.07005 0.677903 0
M  V30 12902 N 1219.43 1.33438 0.838571 0
M  V30 12903 C 1220.66 1.28097 1.63113 0
M  V30 12904 C 1221.08 -0.145197 1.87539 0
M  V30 12905 O 1220.44 -1.10191 1.43971 0
M  V30 12906 C 1220.49 2.06201 2.95827 0
M  V30 12907 O 1219.59 1.42082 3.87152 0
M  V30 12908 H 1218.93 0.440685 0.496681 0
M  V30 12909 H 1221.46 1.76004 1.04325 0
M  V30 12910 H 1221.47 2.16977 3.45521 0
M  V30 12911 H 1220.15 3.099 2.77371 0
M  V30 12912 H 1218.73 1.39953 3.45641 0
M  V30 12913 N 1220.91 -1.05686 1.16912 0
M  V30 12914 C 1222.14 -1.82821 0.979348 0
M  V30 12915 C 1222.56 -1.82196 -0.467575 0
M  V30 12916 O 1221.92 -1.22727 -1.33445 0
M  V30 12917 C 1221.97 -3.2705 1.51891 0
M  V30 12918 O 1221.07 -4.05899 0.729341 0
M  V30 12919 H 1220.41 -0.565455 0.348076 0
M  V30 12920 H 1222.94 -1.33211 1.55293 0
M  V30 12921 H 1222.95 -3.77859 1.53904 0
M  V30 12922 H 1221.63 -3.26819 2.5722 0
M  V30 12923 H 1220.2 -3.64646 0.780221 0
M  V30 12924 N 1222.39 -0.968567 -1.24324 0
M  V30 12925 C 1223.35 -0.504307 -2.23583 0
M  V30 12926 C 1224.35 0.399626 -1.55755 0
M  V30 12927 O 1225.54 0.194966 -1.73106 0
M  V30 12928 C 1222.67 0.26956 -3.39833 0
M  V30 12929 H 1223.87 -1.3818 -2.6617 0
M  V30 12930 H 1221.42 -0.753241 -1.36952 0
M  V30 12931 H 1222.15 1.16411 -3.02686 0
M  V30 12932 H 1221.94 -0.379133 -3.90263 0
M  V30 12933 H 1223.43 0.583376 -4.13505 0
M  V30 12934 N 1223.87 1.39211 -0.738786 0
M  V30 12935 C 1225.11 2.00733 -0.288817 0
M  V30 12936 C 1225.45 1.58494 1.1222 0
M  V30 12937 O 1224.72 0.815579 1.76575 0
M  V30 12938 C 1225 3.57928 -0.394956 0
M  V30 12939 C 1224.86 4.10174 -1.84601 0
M  V30 12940 C 1226.18 4.39548 0.220395 0
M  V30 12941 H 1223.29 0.729276 -0.106418 0
M  V30 12942 H 1225.94 1.65365 -0.935652 0
M  V30 12943 H 1224.09 3.88188 0.155744 0
M  V30 12944 H 1225.76 3.90618 -2.45388 0
M  V30 12945 H 1224 3.63593 -2.36607 0
M  V30 12946 H 1224.67 5.19305 -1.87152 0
M  V30 12947 H 1227.15 4.15354 -0.249098 0
M  V30 12948 H 1226.02 5.48778 0.115806 0
M  V30 12949 H 1226.29 4.22341 1.30691 0
M  V30 12950 N 1225.34 0.486708 1.49896 0
M  V30 12951 C 1226.27 -0.288898 2.31706 0
M  V30 12952 C 1227.26 -0.975901 1.3932 0
M  V30 12953 O 1228.44 -0.970065 1.68236 0
M  V30 12954 C 1225.57 -1.36218 3.19471 0
M  V30 12955 C 1224.52 -0.795884 4.20535 0
M  V30 12956 C 1223.85 -1.96862 4.97141 0
M  V30 12957 C 1225.15 0.203421 5.21904 0
M  V30 12958 H 1226.84 0.393934 2.96797 0
M  V30 12959 H 1224.39 0.190894 1.42729 0
M  V30 12960 H 1226.34 -1.91238 3.75508 0
M  V30 12961 H 1225.07 -2.074 2.52295 0
M  V30 12962 H 1223.73 -0.267538 3.65622 0
M  V30 12963 H 1223.37 -2.66779 4.26425 0
M  V30 12964 H 1223.07 -1.59585 5.65514 0
M  V30 12965 H 1224.6 -2.52343 5.56017 0
M  V30 12966 H 1226.01 -0.258144 5.72719 0
M  V30 12967 H 1224.41 0.491273 5.98086 0
M  V30 12968 H 1225.48 1.12414 4.7169 0
M  V30 12969 N 1226.82 -1.56058 0.219941 0
M  V30 12970 C 1228.07 -1.98554 -0.412808 0
M  V30 12971 C 1228.4 -1.10742 -1.5953 0
M  V30 12972 O 1227.68 -0.164757 -1.93801 0
M  V30 12973 C 1227.96 -3.4995 -0.848923 0
M  V30 12974 C 1227.81 -4.48535 0.337094 0
M  V30 12975 C 1229.13 -4.05703 -1.70567 0
M  V30 12976 H 1226.25 -0.721869 -0.148576 0
M  V30 12977 H 1228.89 -1.87356 0.315852 0
M  V30 12978 H 1227.04 -3.59624 -1.46979 0
M  V30 12979 H 1228.72 -4.50874 0.975216 0
M  V30 12980 H 1226.96 -4.22474 0.984798 0
M  V30 12981 H 1227.63 -5.51999 -0.0109665 0
M  V30 12982 H 1230.11 -3.98964 -1.18182 0
M  V30 12983 H 1228.98 -5.11955 -1.97972 0
M  V30 12984 H 1229.24 -3.52487 -2.66844 0
M  V30 12985 N 1228.3 0.053464 -1.57509 0
M  V30 12986 C 1229.25 1.06155 -2.04939 0
M  V30 12987 C 1230.22 1.37382 -0.93357 0
M  V30 12988 O 1231.4 1.48137 -1.2025 0
M  V30 12989 C 1228.54 2.36476 -2.51343 0
M  V30 12990 C 1227.66 2.1162 -3.76618 0
M  V30 12991 C 1226.79 3.35636 -4.11731 0
M  V30 12992 C 1225.83 3.06226 -5.29993 0
M  V30 12993 N 1224.97 4.22623 -5.60655 0
M  V30 12994 H 1229.81 0.650122 -2.90822 0
M  V30 12995 H 1227.34 0.309421 -1.43809 0
M  V30 12996 H 1229.3 3.12588 -2.76306 0
M  V30 12997 H 1227.93 2.75386 -1.68411 0
M  V30 12998 H 1226.98 1.26116 -3.58886 0
M  V30 12999 H 1228.3 1.85909 -4.6286 0
M  V30 13000 H 1227.45 4.20132 -4.37692 0
M  V30 13001 H 1226.19 3.64439 -3.24092 0
M  V30 13002 H 1225.19 2.20128 -5.03809 0
M  V30 13003 H 1226.42 2.78726 -6.19265 0
M  V30 13004 H 1224.37 4.51424 -4.75976 0
M  V30 13005 H 1224.28 4.0025 -6.41355 0
M  V30 13006 H 1225.55 5.08063 -5.91178 0
M  V30 13007 N 1229.78 1.54207 0.325255 0
M  V30 13008 C 1231.03 1.73523 1.06119 0
M  V30 13009 C 1231.38 0.501912 1.85738 0
M  V30 13010 O 1230.67 -0.505659 1.84807 0
M  V30 13011 C 1230.87 2.95 2.01766 0
M  V30 13012 C 1230.7 4.30028 1.31552 0
M  V30 13013 C 1229.47 4.94212 1.05273 0
M  V30 13014 C 1231.66 5.0906 0.732304 0
M  V30 13015 N 1229.65 6.13074 0.318312 0
M  V30 13016 C 1231.02 6.19865 0.12941 0
M  V30 13017 C 1233.07 4.93835 0.634951 0
M  V30 13018 C 1231.78 7.17106 -0.561389 0
M  V30 13019 C 1233.8 5.91385 -0.0421426 0
M  V30 13020 C 1233.16 7.01541 -0.633988 0
M  V30 13021 H 1229.26 0.687811 0.372076 0
M  V30 13022 H 1231.85 1.91662 0.342581 0
M  V30 13023 H 1230.02 2.78329 2.70901 0
M  V30 13024 H 1231.75 3.02952 2.68333 0
M  V30 13025 H 1228.5 4.54111 1.34462 0
M  V30 13026 H 1228.93 6.76991 -0.0347026 0
M  V30 13027 H 1233.57 4.0882 1.07825 0
M  V30 13028 H 1231.29 8.01681 -1.01652 0
M  V30 13029 H 1234.87 5.81682 -0.117085 0
M  V30 13030 H 1233.75 7.75728 -1.1496 0
M  V30 13031 N 1231.26 -0.58723 1.46251 0
M  V30 13032 C 1232.67 -0.910129 1.31106 0
M  V30 13033 C 1232.87 -1.99557 0.279141 0
M  V30 13034 O 1231.93 -2.50466 -0.319867 0
M  V30 13035 C 1233.24 -1.33177 2.69601 0
M  V30 13036 C 1234.79 -1.44486 2.77656 0
M  V30 13037 C 1235.27 -1.90018 4.16722 0
M  V30 13038 N 1236.76 -1.97219 4.19117 0
M  V30 13039 C 1237.49 -2.33714 5.23608 0
M  V30 13040 N 1236.99 -2.69034 6.3843 0
M  V30 13041 N 1238.78 -2.3423 5.10972 0
M  V30 13042 H 1230.93 0.12987 2.12003 0
M  V30 13043 H 1233.19 -0.00456718 0.947989 0
M  V30 13044 H 1232.9 -0.608243 3.464 0
M  V30 13045 H 1232.77 -2.29421 2.99409 0
M  V30 13046 H 1235.16 -2.15926 2.01147 0
M  V30 13047 H 1235.24 -0.465047 2.51537 0
M  V30 13048 H 1234.89 -1.19159 4.93724 0
M  V30 13049 H 1234.82 -2.88949 4.40245 0
M  V30 13050 H 1237.31 -1.72431 3.36268 0
M  V30 13051 H 1237.62 -2.95822 7.13939 0
M  V30 13052 H 1235.97 -2.66683 6.41798 0
M  V30 13053 H 1239.16 -2.06056 4.20308 0
M  V30 13054 H 1239.33 -2.62345 5.92519 0
M  V30 13055 N 1232.74 -1.33881 -0.831482 0
M  V30 13056 C 1234.15 -1.23112 -1.40358 0
M  V30 13057 C 1234.5 0.146944 -1.95649 0
M  V30 13058 O 1233.62 1.04689 -1.89391 0
M  V30 13059 C 1234.22 -2.22899 -2.5515 0
M  V30 13060 C 1232.78 -2.15946 -3.08292 0
M  V30 13061 C 1231.92 -2.09975 -1.81124 0
M  V30 13062 H 1234.87 -1.45372 -0.63661 0
M  V30 13063 H 1234.9 -1.841 -3.32997 0
M  V30 13064 H 1234.41 -3.23186 -2.14878 0
M  V30 13065 H 1232.51 -1.18987 -3.53091 0
M  V30 13066 H 1232.62 -3.06822 -3.67964 0
M  V30 13067 H 1230.99 -1.55564 -2.01673 0
M  V30 13068 H 1231.77 -3.12082 -1.43037 0
M  V30 13069 N 1234.21 1.05064 -1.1747 0
M  V30 13070 C 1235.46 1.78352 -0.965311 0
M  V30 13071 C 1235.79 1.87527 0.504707 0
M  V30 13072 O 1235.07 1.376 1.37465 0
M  V30 13073 C 1235.35 3.22173 -1.60862 0
M  V30 13074 C 1235.2 3.21003 -3.15083 0
M  V30 13075 C 1236.52 4.2004 -1.31358 0
M  V30 13076 H 1233.64 0.647452 -0.352101 0
M  V30 13077 H 1236.28 1.22794 -1.44988 0
M  V30 13078 H 1234.43 3.69613 -1.19658 0
M  V30 13079 H 1236.11 2.81629 -3.65353 0
M  V30 13080 H 1234.35 2.59309 -3.47766 0
M  V30 13081 H 1235.02 4.22516 -3.55224 0
M  V30 13082 H 1237.5 3.81099 -1.6704 0
M  V30 13083 H 1236.37 5.1891 -1.78953 0
M  V30 13084 H 1236.63 4.41477 -0.234606 0
M  V30 13085 N 1235.69 0.975146 1.23809 0
M  V30 13086 C 1236.97 0.557725 1.8748 0
M  V30 13087 C 1237.35 -0.965164 1.87744 0
M  V30 13088 O 1236.7 -1.83966 1.35531 0
M  V30 13089 C 1236.91 1.15777 3.29236 0
M  V30 13090 C 1238.25 1.24726 4.05868 0
M  V30 13091 O 1239.28 1.11084 3.38436 0
M  V30 13092 O 1238.14 1.46373 5.26533 0
M  V30 13093 H 1235.23 0.187045 0.80557 0
M  V30 13094 H 1237.78 1.06989 1.31725 0
M  V30 13095 H 1236.55 2.20023 3.23583 0
M  V30 13096 H 1236.17 0.630103 3.92575 0
M  V30 13097 N 1237.17 -1.38817 0.746158 0
M  V30 13098 C 1238.1 -2.33144 0.128836 0
M  V30 13099 C 1239.08 -1.54487 -0.711873 0
M  V30 13100 O 1240.27 -1.82836 -0.654577 0
M  V30 13101 C 1237.4 -3.38639 -0.770772 0
M  V30 13102 C 1236.35 -4.27987 -0.0333669 0
M  V30 13103 C 1235.68 -5.24274 -1.05073 0
M  V30 13104 C 1236.98 -5.09915 1.13066 0
M  V30 13105 H 1238.67 -2.85019 0.916778 0
M  V30 13106 H 1236.22 -1.37039 0.442306 0
M  V30 13107 H 1238.17 -4.03587 -1.21225 0
M  V30 13108 H 1236.89 -2.8523 -1.59095 0
M  V30 13109 H 1235.55 -3.64534 0.388612 0
M  V30 13110 H 1235.2 -4.67156 -1.86478 0
M  V30 13111 H 1234.9 -5.84906 -0.562037 0
M  V30 13112 H 1236.42 -5.92099 -1.49169 0
M  V30 13113 H 1237.84 -5.68145 0.767084 0
M  V30 13114 H 1236.23 -5.79744 1.54972 0
M  V30 13115 H 1237.3 -4.4409 1.94709 0
M  V30 13116 N 1238.65 -0.49465 -1.49636 0
M  V30 13117 C 1239.61 0.276064 -2.27531 0
M  V30 13118 C 1240.61 0.899619 -1.3328 0
M  V30 13119 O 1241.8 0.765136 -1.56497 0
M  V30 13120 C 1238.93 1.39547 -3.1103 0
M  V30 13121 H 1240.13 -0.407381 -2.9712 0
M  V30 13122 H 1237.68 -0.249416 -1.54297 0
M  V30 13123 H 1238.41 2.11326 -2.45992 0
M  V30 13124 H 1238.2 0.953877 -3.8032 0
M  V30 13125 H 1239.69 1.93853 -3.69879 0
M  V30 13126 N 1240.13 1.55939 -0.228214 0
M  V30 13127 C 1241.06 2.17874 0.711589 0
M  V30 13128 C 1242.07 1.14969 1.15265 0
M  V30 13129 O 1243.26 1.41919 1.08265 0
M  V30 13130 C 1240.36 2.75294 1.97652 0
M  V30 13131 C 1239.53 4.03435 1.68994 0
M  V30 13132 C 1238.59 4.45354 2.8026 0
M  V30 13133 O 1237.62 5.12117 2.48445 0
M  V30 13134 N 1238.82 4.11588 4.0936 0
M  V30 13135 H 1241.58 2.99148 0.181757 0
M  V30 13136 H 1239.15 1.6183 -0.0474567 0
M  V30 13137 H 1241.14 3.00305 2.71292 0
M  V30 13138 H 1239.71 1.98285 2.41665 0
M  V30 13139 H 1238.93 3.8621 0.789657 0
M  V30 13140 H 1240.22 4.87015 1.47287 0
M  V30 13141 H 1239.61 3.57953 4.38048 0
M  V30 13142 H 1238.17 4.41477 4.79522 0
M  V30 13143 N 1241.6 -0.0451101 1.57535 0
M  V30 13144 C 1242.85 -0.740209 1.88809 0
M  V30 13145 C 1243.18 -1.75854 0.823956 0
M  V30 13146 O 1242.46 -1.93817 -0.16286 0
M  V30 13147 C 1242.74 -1.42424 3.30737 0
M  V30 13148 C 1242.59 -0.42052 4.4783 0
M  V30 13149 C 1243.91 -2.36241 3.7132 0
M  V30 13150 H 1241.03 -0.267628 0.686691 0
M  V30 13151 H 1243.67 -0.00309149 1.9 0
M  V30 13152 H 1241.82 -2.05254 3.29853 0
M  V30 13153 H 1243.5 0.204625 4.60846 0
M  V30 13154 H 1241.74 0.261739 4.3301 0
M  V30 13155 H 1242.41 -0.937298 5.43984 0
M  V30 13156 H 1244.89 -1.83468 3.73468 0
M  V30 13157 H 1243.76 -2.81091 4.71465 0
M  V30 13158 H 1244.02 -3.2222 3.02699 0
M  V30 13159 N 1243.08 -1.54377 -0.317073 0
M  V30 13160 C 1244.03 -1.84214 -1.39046 0
M  V30 13161 C 1245 -0.689742 -1.51102 0
M  V30 13162 O 1246.18 -0.936809 -1.66218 0
M  V30 13163 C 1243.32 -2.08087 -2.75307 0
M  V30 13164 C 1242.44 -3.35756 -2.7183 0
M  V30 13165 C 1241.57 -3.49556 -3.9998 0
M  V30 13166 C 1240.61 -4.71076 -3.90837 0
M  V30 13167 N 1239.75 -4.81767 -5.10729 0
M  V30 13168 H 1244.59 -2.75785 -1.12902 0
M  V30 13169 H 1242.13 -1.36575 -0.546404 0
M  V30 13170 H 1244.08 -2.19921 -3.54529 0
M  V30 13171 H 1242.71 -1.19801 -2.99746 0
M  V30 13172 H 1241.77 -3.32627 -1.84563 0
M  V30 13173 H 1243.08 -4.2509 -2.60959 0
M  V30 13174 H 1242.23 -3.60967 -4.87635 0
M  V30 13175 H 1240.97 -2.58326 -4.13665 0
M  V30 13176 H 1239.98 -4.59715 -3.01566 0
M  V30 13177 H 1241.2 -5.63698 -3.78711 0
M  V30 13178 H 1239.15 -3.93455 -5.24908 0
M  V30 13179 H 1239.06 -5.65077 -5.02219 0
M  V30 13180 H 1240.33 -4.97517 -6.00081 0
M  V30 13181 N 1244.56 0.579466 -1.4656 0
M  V30 13182 C 1245.81 1.33492 -1.51738 0
M  V30 13183 C 1246.13 1.94241 -0.171926 0
M  V30 13184 O 1245.4 1.78737 0.801875 0
M  V30 13185 H 1243.98 0.49565 -0.558874 0
M  V30 13186 H 1246.64 0.678394 -1.82712 0
M  V30 13187 H 1245.74 2.13995 -2.27183 0
M  V30 13188 N 1246.04 1.3432 0.824371 0
M  V30 13189 C 1246.99 1.22332 1.92403 0
M  V30 13190 C 1247.97 0.122709 1.60431 0
M  V30 13191 O 1249.16 0.352231 1.7346 0
M  V30 13192 C 1246.29 0.979497 3.2903 0
M  V30 13193 C 1245.38 2.12322 3.67124 0
M  V30 13194 N 1245.77 3.3743 3.76795 0
M  V30 13195 C 1244.07 2.03314 3.96963 0
M  V30 13196 C 1244.77 4.12532 4.10113 0
M  V30 13197 N 1243.75 3.41109 4.23256 0
M  V30 13198 H 1247.55 2.17143 1.98056 0
M  V30 13199 H 1245.06 1.26537 1.01795 0
M  V30 13200 H 1247.06 0.874525 4.07624 0
M  V30 13201 H 1245.72 0.0400611 3.24675 0
M  V30 13202 H 1246.73 3.72001 3.60327 0
M  V30 13203 H 1243.41 1.17118 4.00736 0
M  V30 13204 H 1244.8 5.20562 4.24811 0
M  V30 13205 N 1247.52 -1.0444 1.18026 0
M  V30 13206 C 1248.45 -2.14297 0.927314 0
M  V30 13207 C 1249.43 -1.69575 -0.13357 0
M  V30 13208 O 1250.61 -1.94191 0.0182439 0
M  V30 13209 C 1247.74 -3.44397 0.448134 0
M  V30 13210 C 1246.7 -4.02723 1.44907 0
M  V30 13211 C 1246.02 -5.28257 0.827555 0
M  V30 13212 C 1247.32 -4.39331 2.82463 0
M  V30 13213 H 1249.02 -2.35715 1.84605 0
M  V30 13214 H 1246.56 -1.13281 0.889012 0
M  V30 13215 H 1248.52 -4.20606 0.258554 0
M  V30 13216 H 1247.24 -3.22654 -0.506159 0
M  V30 13217 H 1245.9 -3.28591 1.62552 0
M  V30 13218 H 1245.55 -5.02822 -0.13381 0
M  V30 13219 H 1245.25 -5.68242 1.49581 0
M  V30 13220 H 1246.77 -6.07147 0.64842 0
M  V30 13221 H 1248.18 -5.06543 2.68491 0
M  V30 13222 H 1246.58 -4.90355 3.45936 0
M  V30 13223 H 1247.65 -3.4933 3.36299 0
M  V30 13224 N 1248.99 -0.981699 -1.2329 0
M  V30 13225 C 1250.41 -0.690539 -1.43888 0
M  V30 13226 C 1250.61 0.742816 -1.87309 0
M  V30 13227 O 1249.67 1.5151 -2.01993 0
M  V30 13228 C 1250.98 -1.68657 -2.48948 0
M  V30 13229 C 1252.53 -1.70076 -2.62761 0
M  V30 13230 C 1253 -2.68513 -3.71032 0
M  V30 13231 N 1254.49 -2.67039 -3.78476 0
M  V30 13232 C 1255.23 -3.39874 -4.61815 0
M  V30 13233 N 1254.72 -4.22273 -5.49233 0
M  V30 13234 N 1256.52 -3.28633 -4.56023 0
M  V30 13235 H 1248.67 -1.90758 -0.934077 0
M  V30 13236 H 1250.93 -0.822058 -0.472149 0
M  V30 13237 H 1250.64 -2.7117 -2.23964 0
M  V30 13238 H 1250.51 -1.47045 -3.47358 0
M  V30 13239 H 1252.9 -0.682673 -2.87095 0
M  V30 13240 H 1252.98 -1.95754 -1.64663 0
M  V30 13241 H 1252.62 -3.70464 -3.47446 0
M  V30 13242 H 1252.55 -2.40109 -4.68674 0
M  V30 13243 H 1255.04 -2.07241 -3.16006 0
M  V30 13244 H 1255.36 -4.74702 -6.09818 0
M  V30 13245 H 1253.7 -4.26364 -5.48852 0
M  V30 13246 H 1256.89 -2.6371 -3.86749 0
M  V30 13247 H 1257.07 -3.85656 -5.20743 0
M  V30 13248 N 1250.47 1.3842 -0.753509 0
M  V30 13249 C 1251.72 1.99723 -0.309021 0
M  V30 13250 C 1252.04 1.60111 1.11308 0
M  V30 13251 O 1251.31 0.85792 1.76115 0
M  V30 13252 H 1249.89 0.738667 -0.111266 0
M  V30 13253 H 1252.55 1.69186 -0.967586 0
M  V30 13254 H 1251.65 3.09874 -0.372095 0
M  V30 13255 N 1251.95 0.502579 1.49372 0
M  V30 13256 C 1253.18 -0.0380876 2.06565 0
M  V30 13257 C 1253.59 -1.31224 1.36297 0
M  V30 13258 O 1252.93 -1.78463 0.435517 0
M  V30 13259 C 1252.99 -0.360462 3.57688 0
M  V30 13260 C 1252.66 0.816203 4.49652 0
M  V30 13261 C 1253.65 1.70713 4.91073 0
M  V30 13262 C 1251.34 1.01545 4.91929 0
M  V30 13263 C 1253.33 2.78144 5.73511 0
M  V30 13264 C 1251.02 2.09294 5.74142 0
M  V30 13265 C 1252.02 2.97428 6.14838 0
M  V30 13266 O 1251.71 4.03317 6.95407 0
M  V30 13267 H 1251.44 0.0179548 0.675762 0
M  V30 13268 H 1253.99 0.699609 1.93118 0
M  V30 13269 H 1252.22 -1.15177 3.69149 0
M  V30 13270 H 1253.91 -0.839931 3.97115 0
M  V30 13271 H 1254.68 1.56502 4.59056 0
M  V30 13272 H 1250.56 0.338822 4.59753 0
M  V30 13273 H 1254.1 3.46965 6.05195 0
M  V30 13274 H 1250 2.235 6.05572 0
M  V30 13275 H 1250.77 4.00689 7.13716 0
M  V30 13276 N 1253.43 -1.55816 0.23648 0
M  V30 13277 C 1254.38 -2.22322 -0.68378 0
M  V30 13278 C 1255.37 -1.2074 -1.1882 0
M  V30 13279 O 1256.58 -1.38781 -1.14629 0
M  V30 13280 H 1252.95 -0.713021 -0.238966 0
M  V30 13281 H 1254.92 -2.98234 -0.0995879 0
M  V30 13282 C 1253.67 -2.92845 -1.87449 0
M  V30 13283 H 1252.99 -3.70777 -1.49548 0
M  V30 13284 H 1254.43 -3.42758 -2.49585 0
M  V30 13285 C 1252.89 -1.96139 -2.73918 0
M  V30 13286 O 1253.42 -1.48781 -3.73132 0
M  V30 13287 N 1251.63 -1.63465 -2.40266 0
M  V30 13288 H 1251.18 -2.02171 -1.59639 0
M  V30 13289 H 1251.13 -0.990239 -2.98398 0
M  V30 13290 N 1254.91 0.036755 -1.57557 0
M  V30 13291 C 1256.15 0.730186 -1.89199 0
M  V30 13292 C 1256.49 1.75414 -0.833271 0
M  V30 13293 O 1255.76 1.93901 0.152579 0
M  V30 13294 C 1256.04 1.40669 -3.31488 0
M  V30 13295 C 1255.9 0.396764 -4.48047 0
M  V30 13296 C 1257.22 2.34268 -3.72567 0
M  V30 13297 H 1254.33 0.263983 -0.6881 0
M  V30 13298 H 1256.98 -0.0069847 -1.89999 0
M  V30 13299 H 1255.13 2.03502 -3.30937 0
M  V30 13300 H 1256.8 -0.229062 -4.60731 0
M  V30 13301 H 1255.04 -0.284698 -4.32865 0
M  V30 13302 H 1255.71 0.908436 -5.44474 0
M  V30 13303 H 1258.19 1.81485 -3.74436 0
M  V30 13304 H 1257.06 2.78587 -4.72949 0
M  V30 13305 H 1257.33 3.20611 -3.04403 0
M  V30 13306 N 1256.39 1.54543 0.308881 0
M  V30 13307 C 1257.61 1.77431 1.06422 0
M  V30 13308 C 1258.03 0.529972 1.81209 0
M  V30 13309 O 1257.39 -0.499912 1.7552 0
M  V30 13310 C 1257.44 2.9769 2.05092 0
M  V30 13311 O 1257.16 4.17315 1.33341 0
M  V30 13312 C 1258.66 3.32905 2.92727 0
M  V30 13313 H 1255.88 0.591961 0.315948 0
M  V30 13314 H 1258.42 2.01473 0.350547 0
M  V30 13315 H 1256.58 2.7588 2.71973 0
M  V30 13316 H 1256.99 4.85061 1.99539 0
M  V30 13317 H 1258.47 4.20314 3.57827 0
M  V30 13318 H 1258.94 2.50713 3.6061 0
M  V30 13319 H 1259.55 3.56847 2.31388 0
M  V30 13320 N 1257.86 -0.571685 1.46866 0
M  V30 13321 C 1259.09 -1.35327 1.56109 0
M  V30 13322 C 1259.5 -1.88086 0.20504 0
M  V30 13323 O 1258.84 -1.64896 -0.809626 0
M  V30 13324 C 1258.91 -2.56939 2.51441 0
M  V30 13325 C 1258.57 -2.2557 3.97451 0
M  V30 13326 C 1259.57 -1.83737 4.86351 0
M  V30 13327 C 1257.25 -2.37375 4.42672 0
M  V30 13328 C 1259.25 -1.54118 6.18487 0
M  V30 13329 C 1256.93 -2.07368 5.7484 0
M  V30 13330 C 1257.93 -1.65806 6.62569 0
M  V30 13331 O 1257.62 -1.36173 7.92283 0
M  V30 13332 H 1257.35 -0.419368 0.530194 0
M  V30 13333 H 1259.91 -0.700859 1.93073 0
M  V30 13334 H 1258.14 -3.25023 2.09517 0
M  V30 13335 H 1259.82 -3.19012 2.5097 0
M  V30 13336 H 1260.59 -1.74122 4.52666 0
M  V30 13337 H 1256.47 -2.68686 3.74605 0
M  V30 13338 H 1260.01 -1.21603 6.8692 0
M  V30 13339 H 1255.91 -2.16611 6.08071 0
M  V30 13340 H 1256.68 -1.49926 8.04652 0
M  V30 13341 N 1259.34 -1.34755 -0.817236 0
M  V30 13342 C 1260.59 -1.28629 -1.57563 0
M  V30 13343 C 1260.94 0.141015 -1.91883 0
M  V30 13344 O 1260.24 1.08874 -1.57661 0
M  V30 13345 C 1260.43 -2.11611 -2.8802 0
M  V30 13346 C 1260.26 -3.62266 -2.66446 0
M  V30 13347 C 1259.03 -4.3153 -2.62887 0
M  V30 13348 C 1261.23 -4.56145 -2.37564 0
M  V30 13349 N 1259.21 -5.67999 -2.32918 0
M  V30 13350 C 1260.58 -5.80658 -2.17339 0
M  V30 13351 C 1262.63 -4.44999 -2.23339 0
M  V30 13352 C 1261.34 -6.9528 -1.8433 0
M  V30 13353 C 1263.36 -5.5946 -1.91726 0
M  V30 13354 C 1262.73 -6.82995 -1.72329 0
M  V30 13355 H 1258.82 -0.52593 -0.578724 0
M  V30 13356 H 1261.41 -1.69527 -0.957533 0
M  V30 13357 H 1259.58 -1.73 -3.47743 0
M  V30 13358 H 1261.31 -1.97085 -3.53468 0
M  V30 13359 H 1258.07 -3.84029 -2.77162 0
M  V30 13360 H 1258.49 -6.39996 -2.20757 0
M  V30 13361 H 1263.13 -3.50104 -2.37037 0
M  V30 13362 H 1260.85 -7.90152 -1.69369 0
M  V30 13363 H 1264.44 -5.52784 -1.81443 0
M  V30 13364 H 1263.32 -7.70065 -1.48222 0
M  V30 13365 N 1260.82 1.03812 -1.18578 0
M  V30 13366 C 1262.24 1.29271 -0.936011 0
M  V30 13367 C 1262.44 1.97551 0.396965 0
M  V30 13368 O 1261.49 2.25769 1.13069 0
M  V30 13369 C 1262.8 2.1489 -2.1034 0
M  V30 13370 C 1264.35 2.28228 -2.14198 0
M  V30 13371 C 1264.83 3.17214 -3.30362 0
M  V30 13372 N 1266.32 3.24802 -3.30239 0
M  V30 13373 C 1267.05 3.9382 -4.16765 0
M  V30 13374 N 1266.55 4.65147 -5.1343 0
M  V30 13375 N 1268.34 3.90125 -4.04671 0
M  V30 13376 H 1260.49 0.579011 -2.04356 0
M  V30 13377 H 1262.76 0.318021 -0.893066 0
M  V30 13378 H 1262.46 1.72029 -3.06755 0
M  V30 13379 H 1262.34 3.15576 -2.06619 0
M  V30 13380 H 1264.72 2.70324 -1.18359 0
M  V30 13381 H 1264.8 1.27124 -2.21976 0
M  V30 13382 H 1264.45 2.75829 -4.26475 0
M  V30 13383 H 1264.38 4.18356 -3.19821 0
M  V30 13384 H 1266.87 2.73994 -2.60261 0
M  V30 13385 H 1267.18 5.15414 -5.7582 0
M  V30 13386 H 1265.53 4.64043 -5.17387 0
M  V30 13387 H 1268.72 3.33536 -3.28438 0
M  V30 13388 H 1268.89 4.43641 -4.7232 0
M  V30 13389 N 1262.3 0.988223 1.22768 0
M  V30 13390 C 1263.21 0.543407 2.2822 0
M  V30 13391 C 1264.22 -0.405563 1.69208 0
M  V30 13392 O 1265.4 -0.273551 1.99534 0
M  V30 13393 C 1262.46 -0.139495 3.46419 0
M  V30 13394 C 1261.53 0.851853 4.20764 0
M  V30 13395 C 1260.76 0.201446 5.3332 0
M  V30 13396 O 1260.98 -1.00573 5.61464 0
M  V30 13397 O 1259.92 0.903956 5.95073 0
M  V30 13398 H 1263.74 1.42059 2.68427 0
M  V30 13399 H 1261.33 0.756239 1.28846 0
M  V30 13400 H 1263.21 -0.522226 4.18152 0
M  V30 13401 H 1261.88 -0.991315 3.08147 0
M  V30 13402 H 1260.79 1.28543 3.51322 0
M  V30 13403 H 1262.12 1.67273 4.62905 0
M  V30 13404 N 1263.78 -1.38018 0.760839 0
M  V30 13405 C 1265.02 -1.99557 0.319609 0
M  V30 13406 C 1265.34 -1.60699 -1.10457 0
M  V30 13407 O 1264.61 -0.867248 -1.75658 0
M  V30 13408 H 1263.19 -0.738066 0.115182 0
M  V30 13409 H 1265.86 -1.6867 0.976544 0
M  V30 13410 H 1264.95 -3.09672 0.388523 0
M  V30 13411 N 1265.25 -0.510493 -1.49103 0
M  V30 13412 C 1266.48 0.0293113 -2.07379 0
M  V30 13413 C 1266.9 1.29195 -1.36713 0
M  V30 13414 O 1266.26 1.76204 -0.426838 0
M  V30 13415 C 1266.31 0.25629 -3.59688 0
M  V30 13416 O 1265.41 1.32907 -3.90397 0
M  V30 13417 H 1264.75 -0.0304449 -0.663302 0
M  V30 13418 H 1267.28 -0.712832 -1.91781 0
M  V30 13419 H 1267.29 0.484915 -4.05108 0
M  V30 13420 H 1265.97 -0.666163 -4.1053 0
M  V30 13421 H 1264.55 1.08464 -3.56777 0
M  V30 13422 N 1266.73 1.55688 -0.24474 0
M  V30 13423 C 1267.66 2.18616 0.68844 0
M  V30 13424 C 1268.68 1.16185 1.14039 0
M  V30 13425 O 1269.87 1.43059 1.06754 0
M  V30 13426 C 1266.97 2.77375 1.94721 0
M  V30 13427 C 1266.14 4.05204 1.64706 0
M  V30 13428 C 1265.2 4.48302 2.75521 0
M  V30 13429 O 1264.22 5.14723 2.42999 0
M  V30 13430 N 1265.43 4.15907 4.04971 0
M  V30 13431 H 1268.19 2.99324 0.150018 0
M  V30 13432 H 1265.75 1.61771 -0.0646183 0
M  V30 13433 H 1267.74 3.03165 2.68091 0
M  V30 13434 H 1266.31 2.00837 2.39548 0
M  V30 13435 H 1265.53 3.87026 0.74865 0
M  V30 13436 H 1266.82 4.8855 1.42114 0
M  V30 13437 H 1266.22 3.62579 4.34227 0
M  V30 13438 H 1264.78 4.46538 4.74813 0
M  V30 13439 N 1268.21 -0.0283989 1.57574 0
M  V30 13440 C 1269.63 -0.384054 1.5491 0
M  V30 13441 C 1269.83 -1.76564 0.970947 0
M  V30 13442 O 1268.88 -2.45455 0.592288 0
M  V30 13443 C 1270.19 -0.285297 2.99344 0
M  V30 13444 C 1271.74 -0.36233 3.10896 0
M  V30 13445 C 1272.22 -0.293014 4.57062 0
M  V30 13446 N 1273.71 -0.351788 4.61862 0
M  V30 13447 C 1274.44 -0.321054 5.725 0
M  V30 13448 N 1273.94 -0.242573 6.92375 0
M  V30 13449 N 1275.73 -0.370832 5.60875 0
M  V30 13450 H 1267.88 0.87573 1.93506 0
M  V30 13451 H 1270.15 0.33305 0.887571 0
M  V30 13452 H 1269.85 0.664146 3.45372 0
M  V30 13453 H 1269.73 -1.07869 3.61447 0
M  V30 13454 H 1272.11 -1.30221 2.64814 0
M  V30 13455 H 1272.19 0.460422 2.51622 0
M  V30 13456 H 1271.84 0.643197 5.03811 0
M  V30 13457 H 1271.77 -1.13388 5.14248 0
M  V30 13458 H 1274.26 -0.414929 3.75615 0
M  V30 13459 H 1274.57 -0.224239 7.72475 0
M  V30 13460 H 1272.92 -0.208612 6.94687 0
M  V30 13461 H 1276.11 -0.430141 4.6612 0
M  V30 13462 H 1276.28 -0.343412 6.47089 0
M  V30 13463 N 1269.69 -1.54705 -0.300681 0
M  V30 13464 C 1270.63 -1.85678 -1.37084 0
M  V30 13465 C 1271.6 -0.70573 -1.50362 0
M  V30 13466 O 1272.79 -0.954385 -1.65215 0
M  V30 13467 C 1269.93 -2.10995 -2.73084 0
M  V30 13468 C 1269.04 -3.38621 -2.68254 0
M  V30 13469 C 1268.18 -3.53779 -3.9625 0
M  V30 13470 C 1267.22 -4.75195 -3.85818 0
M  V30 13471 N 1266.35 -4.87157 -5.05591 0
M  V30 13472 H 1271.19 -2.76967 -1.09971 0
M  V30 13473 H 1268.73 -1.37147 -0.531887 0
M  V30 13474 H 1270.69 -2.23669 -3.52176 0
M  V30 13475 H 1269.32 -1.22973 -2.98458 0
M  V30 13476 H 1268.37 -3.34566 -1.81025 0
M  V30 13477 H 1269.68 -4.27834 -2.56436 0
M  V30 13478 H 1268.84 -3.66119 -4.83779 0
M  V30 13479 H 1267.58 -2.62699 -4.10902 0
M  V30 13480 H 1266.58 -4.62888 -2.96673 0
M  V30 13481 H 1267.81 -5.67683 -3.72711 0
M  V30 13482 H 1265.75 -3.99001 -5.20706 0
M  V30 13483 H 1265.67 -5.70372 -4.96197 0
M  V30 13484 H 1266.94 -5.03854 -5.9477 0
M  V30 13485 N 1271.17 0.563888 -1.47167 0
M  V30 13486 C 1272.12 1.66687 -1.55562 0
M  V30 13487 C 1273.1 1.55455 -0.415024 0
M  V30 13488 O 1274.29 1.64051 -0.664557 0
M  V30 13489 C 1271.42 3.05469 -1.56665 0
M  V30 13490 C 1270.51 3.21928 -2.76085 0
M  V30 13491 N 1270.9 3.08477 -4.00844 0
M  V30 13492 C 1269.2 3.52913 -2.72706 0
M  V30 13493 C 1269.9 3.27447 -4.80784 0
M  V30 13494 N 1268.87 3.53474 -4.12986 0
M  V30 13495 H 1272.68 1.54846 -2.498 0
M  V30 13496 H 1270.19 0.76846 -1.43068 0
M  V30 13497 H 1272.19 3.84655 -1.60768 0
M  V30 13498 H 1270.85 3.18427 -0.635174 0
M  V30 13499 H 1271.86 2.85944 -4.31806 0
M  V30 13500 H 1268.53 3.7244 -1.88666 0
M  V30 13501 H 1269.92 3.22072 -5.89677 0
M  V30 13502 N 1272.64 1.35187 0.810078 0
M  V30 13503 C 1273.87 1.31528 1.60359 0
M  V30 13504 C 1274.29 -0.105385 1.87805 0
M  V30 13505 O 1273.65 -1.07113 1.46276 0
M  V30 13506 C 1273.7 2.12429 2.91386 0
M  V30 13507 O 1272.8 1.50262 3.84051 0
M  V30 13508 H 1272.15 0.451122 0.487222 0
M  V30 13509 H 1274.68 1.78178 1.00568 0
M  V30 13510 H 1274.69 2.24257 3.40841 0
M  V30 13511 H 1273.36 3.15714 2.70735 0
M  V30 13512 H 1271.94 1.47253 3.42594 0
M  V30 13513 N 1274.12 -1.03182 1.19127 0
M  V30 13514 C 1275.07 -2.11394 0.926339 0
M  V30 13515 C 1276.04 -1.65528 -0.137703 0
M  V30 13516 O 1277.22 -1.908 0.00381804 0
M  V30 13517 C 1274.36 -3.41913 0.467894 0
M  V30 13518 C 1273.48 -4.01343 1.59837 0
M  V30 13519 C 1272.61 -5.1986 1.09175 0
M  V30 13520 C 1271.65 -5.71339 2.19632 0
M  V30 13521 N 1270.79 -6.81133 1.703 0
M  V30 13522 H 1275.63 -2.33393 1.85288 0
M  V30 13523 H 1273.17 -1.14473 0.923811 0
M  V30 13524 H 1275.12 -4.16796 0.183513 0
M  V30 13525 H 1273.75 -3.20034 -0.421656 0
M  V30 13526 H 1272.81 -3.23702 1.99803 0
M  V30 13527 H 1274.12 -4.35568 2.43068 0
M  V30 13528 H 1273.27 -6.0189 0.762427 0
M  V30 13529 H 1272.01 -4.87161 0.22914 0
M  V30 13530 H 1271.02 -4.87923 2.53399 0
M  V30 13531 H 1272.24 -6.06078 3.06344 0
M  V30 13532 H 1270.19 -6.50293 0.863415 0
M  V30 13533 H 1270.1 -7.1447 2.47122 0
M  V30 13534 H 1271.37 -7.66766 1.40321 0
M  V30 13535 N 1275.6 -0.99472 -1.22242 0
M  V30 13536 C 1277.02 -0.705762 -1.43147 0
M  V30 13537 C 1277.22 0.722908 -1.88086 0
M  V30 13538 O 1276.27 1.49359 -2.03588 0
M  V30 13539 C 1277.59 -1.71288 -2.47145 0
M  V30 13540 C 1279.13 -1.72853 -2.60942 0
M  V30 13541 C 1279.61 -2.72433 -3.68163 0
M  V30 13542 N 1281.1 -2.71039 -3.75623 0
M  V30 13543 C 1281.83 -3.44753 -4.58184 0
M  V30 13544 N 1281.33 -4.28075 -5.44724 0
M  V30 13545 N 1283.12 -3.33451 -4.52512 0
M  V30 13546 H 1275.27 -1.91738 -0.913792 0
M  V30 13547 H 1277.54 -0.82702 -0.463403 0
M  V30 13548 H 1277.24 -2.7353 -2.21075 0
M  V30 13549 H 1277.12 -1.50721 -3.45779 0
M  V30 13550 H 1279.5 -0.713085 -2.86355 0
M  V30 13551 H 1279.59 -1.9749 -1.62577 0
M  V30 13552 H 1279.23 -3.74129 -3.43497 0
M  V30 13553 H 1279.16 -2.45066 -4.66101 0
M  V30 13554 H 1281.65 -2.10581 -3.1379 0
M  V30 13555 H 1281.96 -4.81143 -6.04749 0
M  V30 13556 H 1280.31 -4.32161 -5.44299 0
M  V30 13557 H 1283.5 -2.67797 -3.8393 0
M  V30 13558 H 1283.67 -3.91158 -5.16623 0
M  V30 13559 N 1277.08 1.37613 -0.768148 0
M  V30 13560 C 1278.03 2.27654 -0.125596 0
M  V30 13561 C 1279.01 1.45923 0.677883 0
M  V30 13562 O 1280.2 1.68515 0.541448 0
M  V30 13563 C 1277.33 3.34884 0.7555 0
M  V30 13564 C 1276.42 4.24064 -0.0556137 0
M  V30 13565 N 1276.81 4.93707 -1.09943 0
M  V30 13566 C 1275.11 4.4568 0.168932 0
M  V30 13567 C 1275.81 5.59508 -1.59142 0
M  V30 13568 N 1274.79 5.36027 -0.904208 0
M  V30 13569 H 1278.59 2.7897 -0.924828 0
M  V30 13570 H 1276.1 1.50687 -0.605561 0
M  V30 13571 H 1278.1 3.98294 1.23157 0
M  V30 13572 H 1276.76 2.85124 1.55352 0
M  V30 13573 H 1277.77 4.96258 -1.48151 0
M  V30 13574 H 1274.45 4.068 0.939144 0
M  V30 13575 H 1275.84 6.2518 -2.4617 0
M  V30 13576 N 1278.56 0.518393 1.4883 0
M  V30 13577 C 1279.81 -0.0218436 2.01688 0
M  V30 13578 C 1280.12 -1.36421 1.40174 0
M  V30 13579 O 1281.32 -1.99214 1.84461 0
M  V30 13580 C 1279.78 -0.0893538 3.59789 0
M  V30 13581 C 1279.39 1.24741 4.30283 0
M  V30 13582 C 1281.13 -0.579032 4.20532 0
M  V30 13583 C 1279.04 1.14112 5.80286 0
M  V30 13584 H 1277.97 -0.0119353 0.753906 0
M  V30 13585 H 1280.62 0.660432 1.71203 0
M  V30 13586 H 1279 -0.836458 3.87065 0
M  V30 13587 H 1280.18 2.00917 4.14691 0
M  V30 13588 H 1278.49 1.67191 3.81361 0
M  V30 13589 H 1281.09 -0.676343 5.30405 0
M  V30 13590 H 1281.43 -1.58207 3.85067 0
M  V30 13591 H 1281.96 0.112046 3.97642 0
M  V30 13592 H 1278.7 2.11895 6.20307 0
M  V30 13593 H 1278.22 0.420535 5.98324 0
M  V30 13594 H 1279.9 0.826992 6.41693 0
M  V30 13595 N 1280.03 -1.55556 0.252993 0
M  V30 13596 C 1280.98 -2.18298 -0.658028 0
M  V30 13597 C 1281.97 -1.14072 -1.13474 0
M  V30 13598 O 1283.16 -1.39962 -1.0835 0
M  V30 13599 C 1280.29 -2.89067 -1.8519 0
M  V30 13600 C 1279.38 -4.00556 -1.3934 0
M  V30 13601 N 1279.77 -5.01612 -0.649538 0
M  V30 13602 C 1278.06 -4.13222 -1.67819 0
M  V30 13603 C 1278.77 -5.80244 -0.411347 0
M  V30 13604 N 1277.74 -5.34742 -0.977342 0
M  V30 13605 H 1281.54 -2.93787 -0.0816162 0
M  V30 13606 H 1279.06 -1.62305 0.0555728 0
M  V30 13607 H 1281.05 -3.32448 -2.51563 0
M  V30 13608 H 1279.71 -2.15082 -2.43248 0
M  V30 13609 H 1280.73 -5.17036 -0.299043 0
M  V30 13610 H 1277.4 -3.50414 -2.26972 0
M  V30 13611 H 1278.79 -6.71651 0.182911 0
M  V30 13612 N 1281.51 0.0200419 -1.57587 0
M  V30 13613 C 1282.46 1.01784 -2.07144 0
M  V30 13614 C 1283.43 1.3537 -0.962501 0
M  V30 13615 O 1284.61 1.45553 -1.23365 0
M  V30 13616 C 1281.75 2.31091 -2.56302 0
M  V30 13617 C 1280.87 2.03584 -3.81022 0
M  V30 13618 C 1280 3.26827 -4.18757 0
M  V30 13619 C 1279.04 2.94915 -5.36369 0
M  V30 13620 N 1278.18 4.10636 -5.69493 0
M  V30 13621 H 1283.02 0.588288 -2.92136 0
M  V30 13622 H 1280.56 0.278848 -1.44433 0
M  V30 13623 H 1282.51 3.06656 -2.82874 0
M  V30 13624 H 1281.14 2.71752 -1.74215 0
M  V30 13625 H 1280.2 1.18475 -3.6148 0
M  V30 13626 H 1281.51 1.76049 -4.66699 0
M  V30 13627 H 1280.66 4.10753 -4.46505 0
M  V30 13628 H 1279.4 3.57483 -3.31749 0
M  V30 13629 H 1278.41 2.09392 -5.08365 0
M  V30 13630 H 1279.63 2.65528 -6.25037 0
M  V30 13631 H 1277.58 4.41226 -4.85444 0
M  V30 13632 H 1277.49 3.86556 -6.497 0
M  V30 13633 H 1278.76 4.95409 -6.01822 0
M  V30 13634 N 1282.99 1.54862 0.292472 0
M  V30 13635 C 1284.27 1.65237 1.04671 0
M  V30 13636 C 1284.65 0.506168 2.04942 0
M  V30 13637 O 1284 -0.496123 2.23049 0
M  V30 13638 C 1284.21 3.03618 1.72095 0
M  V30 13639 C 1285.55 3.6072 2.23979 0
M  V30 13640 O 1286.58 3.06126 1.82114 0
M  V30 13641 O 1285.44 4.56328 3.0071 0
M  V30 13642 H 1282.53 0.670347 0.484319 0
M  V30 13643 H 1285.08 1.67206 0.28988 0
M  V30 13644 H 1283.85 3.78482 0.993324 0
M  V30 13645 H 1283.47 3.05464 2.54514 0
M  V30 13646 N 1284.47 -0.556076 1.47464 0
M  V30 13647 C 1285.42 -1.6586 1.56444 0
M  V30 13648 C 1286.4 -1.55233 0.423262 0
M  V30 13649 O 1287.59 -1.63696 0.673247 0
M  V30 13650 C 1284.72 -3.04633 1.58283 0
M  V30 13651 C 1283.81 -3.2046 2.77788 0
M  V30 13652 N 1284.2 -3.06347 4.02474 0
M  V30 13653 C 1282.5 -3.51462 2.74573 0
M  V30 13654 C 1283.2 -3.24893 4.82514 0
M  V30 13655 N 1282.18 -3.51278 4.14855 0
M  V30 13656 H 1285.98 -1.53519 2.50618 0
M  V30 13657 H 1283.49 -0.760862 1.43474 0
M  V30 13658 H 1285.49 -3.83797 1.62806 0
M  V30 13659 H 1284.15 -3.18085 0.652052 0
M  V30 13660 H 1285.16 -2.8365 4.33316 0
M  V30 13661 H 1281.84 -3.71434 1.90639 0
M  V30 13662 H 1283.23 -3.1894 5.91377 0
M  V30 13663 N 1285.95 -1.35615 -0.802897 0
M  V30 13664 C 1287.19 -1.29285 -1.56247 0
M  V30 13665 C 1287.53 0.131474 -1.93754 0
M  V30 13666 O 1286.8 1.08172 -1.61645 0
M  V30 13667 C 1287.08 -2.20285 -2.84863 0
M  V30 13668 C 1286.94 -3.71351 -2.53808 0
M  V30 13669 C 1288.26 -2.10318 -3.86593 0
M  V30 13670 H 1285.38 -0.470972 -0.566882 0
M  V30 13671 H 1288.02 -1.66048 -0.923469 0
M  V30 13672 H 1286.17 -1.89063 -3.39393 0
M  V30 13673 H 1287.84 -4.13031 -2.05433 0
M  V30 13674 H 1286.08 -3.9145 -1.86947 0
M  V30 13675 H 1286.75 -4.30416 -3.4561 0
M  V30 13676 H 1289.23 -2.37772 -3.41473 0
M  V30 13677 H 1288.11 -2.76183 -4.74357 0
M  V30 13678 H 1288.37 -1.08627 -4.28547 0
M  V30 13679 N 1287.43 1.02549 -1.19673 0
M  V30 13680 C 1288.67 1.76265 -1.00293 0
M  V30 13681 C 1289 1.88555 0.464816 0
M  V30 13682 O 1288.28 1.40484 1.34515 0
M  V30 13683 C 1288.56 3.18688 -1.6766 0
M  V30 13684 C 1288.42 3.14247 -3.21821 0
M  V30 13685 C 1289.73 4.17159 -1.40238 0
M  V30 13686 H 1286.85 0.639837 -0.365756 0
M  V30 13687 H 1289.5 1.19691 -1.4756 0
M  V30 13688 H 1287.65 3.66992 -1.27472 0
M  V30 13689 H 1289.32 2.73815 -3.71245 0
M  V30 13690 H 1287.56 2.51874 -3.53188 0
M  V30 13691 H 1288.23 4.14886 -3.64107 0
M  V30 13692 H 1290.71 3.77471 -1.75086 0
M  V30 13693 H 1289.58 5.14997 -1.89919 0
M  V30 13694 H 1289.84 4.4088 -0.328197 0
M  V30 13695 N 1288.9 1.00119 1.21713 0
M  V30 13696 C 1290.15 0.682733 1.90962 0
M  V30 13697 C 1290.48 -0.784131 1.77665 0
M  V30 13698 O 1289.76 -1.56799 1.15084 0
M  V30 13699 C 1290.04 1.09975 3.42896 0
M  V30 13700 C 1289.89 2.62578 3.65202 0
M  V30 13701 C 1291.21 0.659247 4.35134 0
M  V30 13702 H 1288.33 0.249501 0.693483 0
M  V30 13703 H 1290.97 1.24619 1.43423 0
M  V30 13704 H 1289.12 0.620334 3.83515 0
M  V30 13705 H 1290.8 3.18254 3.33934 0
M  V30 13706 H 1289.04 3.04268 3.09198 0
M  V30 13707 H 1289.71 2.86809 4.7164 0
M  V30 13708 H 1292.19 1.07116 4.02076 0
M  V30 13709 H 1291.06 0.979241 5.40095 0
M  V30 13710 H 1291.32 -0.439777 4.39907 0
M  V30 13711 N 1290.38 -1.37203 0.775435 0
M  V30 13712 C 1291.79 -1.82224 0.406372 0
M  V30 13713 C 1292.14 -1.64587 -1.06796 0
M  V30 13714 O 1291.27 -1.15903 -1.82744 0
M  V30 13715 C 1291.86 -3.30824 0.730819 0
M  V30 13716 C 1290.42 -3.74108 0.414766 0
M  V30 13717 C 1289.57 -2.59679 0.972747 0
M  V30 13718 H 1292.52 -1.25623 0.969775 0
M  V30 13719 H 1292.54 -3.80496 0.0168066 0
M  V30 13720 H 1292.05 -3.43628 1.80392 0
M  V30 13721 H 1290.15 -3.66871 -0.650866 0
M  V30 13722 H 1290.27 -4.70074 0.925595 0
M  V30 13723 H 1288.63 -2.51591 0.396772 0
M  V30 13724 H 1289.41 -2.75274 2.05132 0
M  V30 13725 N 1291.86 -0.526279 -1.48553 0
M  V30 13726 C 1292.82 0.227739 -2.28066 0
M  V30 13727 C 1293.82 0.871146 -1.35158 0
M  V30 13728 O 1295.01 0.731769 -1.58085 0
M  V30 13729 C 1292.14 1.32918 -3.1392 0
M  V30 13730 H 1293.34 -0.470313 -2.96189 0
M  V30 13731 H 1290.89 -0.282089 -1.53733 0
M  V30 13732 H 1291.63 2.0606 -2.50419 0
M  V30 13733 H 1291.41 0.872991 -3.82258 0
M  V30 13734 H 1292.9 1.85964 -3.73908 0
M  V30 13735 N 1293.34 1.5542 -0.261239 0
M  V30 13736 C 1294.29 2.23382 0.648324 0
M  V30 13737 C 1295.28 1.22615 1.16884 0
M  V30 13738 O 1296.49 1.40587 1.12407 0
M  V30 13739 H 1292.86 0.716733 0.227592 0
M  V30 13740 H 1294.83 2.98354 0.0521289 0
M  V30 13741 C 1293.58 2.9579 1.82766 0
M  V30 13742 H 1292.9 3.73109 1.4363 0
M  V30 13743 H 1294.34 3.46686 2.441 0
M  V30 13744 C 1292.8 2.00472 2.70763 0
M  V30 13745 O 1293.33 1.54698 3.70717 0
M  V30 13746 N 1291.54 1.67267 2.37635 0
M  V30 13747 H 1291.09 2.04685 1.56402 0
M  V30 13748 H 1291.04 1.03759 2.96785 0
M  V30 13749 N 1294.82 -0.0116844 1.57596 0
M  V30 13750 C 1296.04 -0.71026 1.94327 0
M  V30 13751 C 1296.46 -1.67952 0.862418 0
M  V30 13752 O 1295.82 -1.818 -0.159698 0
M  V30 13753 C 1295.87 -1.45228 3.31045 0
M  V30 13754 O 1295.59 -0.52191 4.3498 0
M  V30 13755 C 1297.09 -2.24644 3.82165 0
M  V30 13756 H 1294.31 -0.198559 0.640949 0
M  V30 13757 H 1296.85 0.0359615 2.04468 0
M  V30 13758 H 1295.01 -2.15023 3.22248 0
M  V30 13759 H 1295.42 -1.04415 5.14002 0
M  V30 13760 H 1296.9 -2.72078 4.80289 0
M  V30 13761 H 1297.37 -3.06817 3.14261 0
M  V30 13762 H 1297.98 -1.59888 3.94101 0
M  V30 13763 N 1296.29 -1.55015 -0.284256 0
M  V30 13764 C 1297.52 -1.79102 -1.03586 0
M  V30 13765 C 1297.94 -0.558733 -1.80343 0
M  V30 13766 O 1297.29 0.471925 -1.76293 0
M  V30 13767 C 1297.34 -3.00915 -2.0033 0
M  V30 13768 O 1297.07 -4.19384 -1.26685 0
M  V30 13769 C 1298.57 -3.3752 -2.87394 0
M  V30 13770 H 1295.79 -0.596912 -0.306491 0
M  V30 13771 H 1298.33 -2.02005 -0.31845 0
M  V30 13772 H 1296.49 -2.80171 -2.67549 0
M  V30 13773 H 1296.9 -4.88175 -1.91796 0
M  V30 13774 H 1298.37 -4.25953 -3.51095 0
M  V30 13775 H 1298.85 -2.56418 -3.56576 0
M  V30 13776 H 1299.46 -3.60483 -2.25682 0
M  V30 13777 N 1297.77 0.548248 -1.47757 0
M  V30 13778 C 1299 1.335 -1.58722 0
M  V30 13779 C 1299.42 1.86549 -0.241034 0
M  V30 13780 O 1298.78 1.63447 0.784517 0
M  V30 13781 C 1298.83 2.47457 -2.62293 0
M  V30 13782 O 1297.93 3.49956 -2.18185 0
M  V30 13783 H 1297.27 0.396166 -0.532868 0
M  V30 13784 H 1299.8 0.66164 -1.93607 0
M  V30 13785 H 1299.81 2.93901 -2.82995 0
M  V30 13786 H 1298.49 2.08203 -3.60034 0
M  V30 13787 H 1297.06 3.09755 -2.0762 0
M  V30 13788 N 1299.25 1.36039 0.795694 0
M  V30 13789 C 1300.5 1.30112 1.5556 0
M  V30 13790 C 1300.83 -0.121197 1.93821 0
M  V30 13791 O 1300.1 -1.07313 1.62216 0
M  V30 13792 C 1300.39 2.21792 2.8369 0
M  V30 13793 C 1300.24 3.72691 2.51836 0
M  V30 13794 C 1301.56 2.12365 3.85472 0
M  V30 13795 H 1298.68 0.473971 0.564376 0
M  V30 13796 H 1301.32 1.66536 0.91465 0
M  V30 13797 H 1299.47 1.9086 3.38386 0
M  V30 13798 H 1301.14 4.14115 2.0324 0
M  V30 13799 H 1299.38 3.92436 1.84869 0
M  V30 13800 H 1300.06 4.32242 3.43323 0
M  V30 13801 H 1302.53 2.3958 3.40207 0
M  V30 13802 H 1301.41 2.78695 4.72885 0
M  V30 13803 H 1301.67 1.10898 4.27965 0
M  V30 13804 N 1300.73 -1.01913 1.20215 0
M  V30 13805 C 1301.98 -1.74878 1.00502 0
M  V30 13806 C 1302.29 -1.90022 -0.463792 0
M  V30 13807 O 1303.5 -2.60055 -0.779982 0
M  V30 13808 C 1301.95 -3.1452 1.74943 0
M  V30 13809 C 1301.56 -3.07397 3.259 0
M  V30 13810 C 1303.3 -3.91713 1.63589 0
M  V30 13811 C 1301.21 -4.42032 3.92889 0
M  V30 13812 H 1300.14 -0.655603 0.372426 0
M  V30 13813 H 1302.79 -1.13978 1.4381 0
M  V30 13814 H 1301.17 -3.75946 1.24421 0
M  V30 13815 H 1302.35 -2.55294 3.83617 0
M  V30 13816 H 1300.66 -2.43698 3.37639 0
M  V30 13817 H 1303.26 -4.91316 2.1098 0
M  V30 13818 H 1303.6 -4.12074 0.591665 0
M  V30 13819 H 1304.14 -3.3691 2.11511 0
M  V30 13820 H 1300.88 -4.26874 4.97453 0
M  V30 13821 H 1300.4 -4.94151 3.39962 0
M  V30 13822 H 1302.07 -5.10884 3.96997 0
M  V30 13823 N 1302.21 -1.00763 -1.2118 0
M  V30 13824 C 1303.14 -0.590493 -2.2591 0
M  V30 13825 C 1304.12 0.390002 -1.65569 0
M  V30 13826 O 1305.3 0.277406 -1.92208 0
M  V30 13827 C 1302.43 0.0810388 -3.47205 0
M  V30 13828 C 1301.39 -0.81951 -4.20081 0
M  V30 13829 C 1300.71 -0.014244 -5.34698 0
M  V30 13830 C 1302.01 -2.12336 -4.7719 0
M  V30 13831 H 1303.71 -1.46595 -2.61056 0
M  V30 13832 H 1301.25 -0.706321 -1.25487 0
M  V30 13833 H 1303.21 0.384355 -4.19644 0
M  V30 13834 H 1301.93 0.991145 -3.11197 0
M  V30 13835 H 1300.59 -1.10669 -3.49497 0
M  V30 13836 H 1300.24 0.897233 -4.94933 0
M  V30 13837 H 1299.94 -0.613883 -5.84384 0
M  V30 13838 H 1301.46 0.282827 -6.09945 0
M  V30 13839 H 1302.87 -1.88301 -5.41494 0
M  V30 13840 H 1301.27 -2.67308 -5.37277 0
M  V30 13841 H 1302.34 -2.79238 -3.96427 0
M  V30 13842 N 1303.68 1.3679 -0.7827 0
M  V30 13843 C 1304.91 2.04206 -0.362571 0
M  V30 13844 C 1305.33 1.58637 1.01074 0
M  V30 13845 O 1304.69 0.751692 1.64983 0
M  V30 13846 C 1304.74 3.58062 -0.4271 0
M  V30 13847 O 1303.84 4.08463 0.56845 0
M  V30 13848 H 1303.19 0.645638 -0.155073 0
M  V30 13849 H 1305.72 1.74883 -1.06194 0
M  V30 13850 H 1305.73 4.0698 -0.288298 0
M  V30 13851 H 1304.4 3.90582 -1.42893 0
M  V30 13852 H 1302.98 3.70835 0.391863 0
M  V30 13853 N 1305.16 0.53415 1.48272 0
M  V30 13854 C 1306.41 0.00156948 2.021 0
M  V30 13855 C 1306.73 -1.34371 1.41313 0
M  V30 13856 O 1306 -1.87117 0.579996 0
M  V30 13857 H 1304.58 -0.00240789 0.746996 0
M  V30 13858 H 1307.24 0.698928 1.81937 0
M  V30 13859 H 1306.34 -0.103671 3.11928 0
M  V30 13860 N 1306.64 -1.55279 0.269478 0
M  V30 13861 C 1307.57 -2.25278 -0.614188 0
M  V30 13862 C 1308.55 -1.24092 -1.1634 0
M  V30 13863 O 1309.74 -1.52799 -1.19858 0
M  V30 13864 C 1306.87 -2.96956 -1.80096 0
M  V30 13865 C 1305.82 -4.05021 -1.38353 0
M  V30 13866 C 1305.15 -4.64244 -2.65295 0
M  V30 13867 C 1306.45 -5.19523 -0.537886 0
M  V30 13868 H 1308.14 -2.99385 -0.0304397 0
M  V30 13869 H 1305.69 -1.43994 -0.0132004 0
M  V30 13870 H 1307.64 -3.44633 -2.42499 0
M  V30 13871 H 1306.36 -2.20374 -2.41045 0
M  V30 13872 H 1305.02 -3.58146 -0.78273 0
M  V30 13873 H 1304.67 -3.84337 -3.2449 0
M  V30 13874 H 1304.37 -5.37208 -2.38079 0
M  V30 13875 H 1305.89 -5.14668 -3.28557 0
M  V30 13876 H 1307.31 -5.63287 -1.06677 0
M  V30 13877 H 1305.71 -5.99014 -0.360845 0
M  V30 13878 H 1306.78 -4.82857 0.444672 0
M  V30 13879 N 1308.12 0.00332656 -1.576 0
M  V30 13880 C 1309.53 0.359361 -1.55502 0
M  V30 13881 C 1309.73 1.74997 -0.998914 0
M  V30 13882 O 1308.79 2.44482 -0.631263 0
M  V30 13883 C 1310.1 0.237638 -2.9976 0
M  V30 13884 C 1311.65 0.312824 -3.11433 0
M  V30 13885 C 1312.13 0.220262 -4.5747 0
M  V30 13886 N 1313.62 0.278265 -4.62363 0
M  V30 13887 C 1314.35 0.229933 -5.72939 0
M  V30 13888 N 1313.85 0.132391 -6.92673 0
M  V30 13889 N 1315.64 0.281555 -5.61394 0
M  V30 13890 H 1307.79 -0.906404 -1.92089 0
M  V30 13891 H 1310.06 -0.347129 -0.88216 0
M  V30 13892 H 1309.76 -0.719007 -3.44272 0
M  V30 13893 H 1309.64 1.02105 -3.63118 0
M  V30 13894 H 1312.02 1.25991 -2.66852 0
M  V30 13895 H 1312.1 -0.500395 -2.50858 0
M  V30 13896 H 1311.75 -0.723267 -5.02724 0
M  V30 13897 H 1311.68 1.05192 -5.15987 0
M  V30 13898 H 1314.17 0.35512 -3.76228 0
M  V30 13899 H 1314.48 0.101317 -7.72734 0
M  V30 13900 H 1312.83 0.0980665 -6.94931 0
M  V30 13901 H 1316.02 0.355931 -4.66745 0
M  V30 13902 H 1316.19 0.240423 -6.47554 0
M  V30 13903 N 1309.6 1.55164 0.276031 0
M  V30 13904 C 1311.01 1.66367 0.847293 0
M  V30 13905 C 1311.36 0.588692 1.8716 0
M  V30 13906 O 1310.48 -0.27035 2.14705 0
M  V30 13907 C 1311.08 3.01593 1.5436 0
M  V30 13908 C 1309.64 3.14833 2.06293 0
M  V30 13909 C 1308.78 2.62152 0.903959 0
M  V30 13910 H 1311.74 1.58613 0.0524478 0
M  V30 13911 H 1311.76 2.94412 2.41043 0
M  V30 13912 H 1311.27 3.7981 0.797849 0
M  V30 13913 H 1309.37 2.41384 2.83839 0
M  V30 13914 H 1309.48 4.21353 2.28032 0
M  V30 13915 H 1307.85 2.19233 1.29649 0
M  V30 13916 H 1308.63 3.4287 0.171765 0
M  V30 13917 N 1311.07 -0.540404 1.48045 0
M  V30 13918 C 1312.3 -1.31986 1.58944 0
M  V30 13919 C 1312.71 -1.87608 0.244889 0
M  V30 13920 O 1312.06 -1.66576 -0.774467 0
M  V30 13921 C 1312.12 -2.51547 2.56835 0
M  V30 13922 C 1311.78 -2.17089 4.02146 0
M  V30 13923 C 1312.78 -1.73379 4.90138 0
M  V30 13924 C 1310.46 -2.27932 4.47607 0
M  V30 13925 C 1312.46 -1.40964 6.21617 0
M  V30 13926 C 1310.14 -1.95129 5.7911 0
M  V30 13927 C 1311.14 -1.51715 6.65937 0
M  V30 13928 O 1310.83 -1.19337 7.94993 0
M  V30 13929 H 1310.56 -0.408028 0.538971 0
M  V30 13930 H 1313.12 -0.659748 1.94516 0
M  V30 13931 H 1311.35 -3.20505 2.16364 0
M  V30 13932 H 1313.04 -3.13617 2.57681 0
M  V30 13933 H 1313.8 -1.64481 4.56258 0
M  V30 13934 H 1309.68 -2.6068 3.8022 0
M  V30 13935 H 1313.22 -1.07005 6.89344 0
M  V30 13936 H 1309.12 -2.03664 6.12528 0
M  V30 13937 H 1309.89 -1.32824 8.07651 0
M  V30 13938 N 1312.55 -1.36459 -0.788468 0
M  V30 13939 C 1313.78 -1.34063 -1.58246 0
M  V30 13940 C 1314.2 0.0754933 -1.87948 0
M  V30 13941 O 1313.56 1.04772 -1.47961 0
M  V30 13942 C 1313.61 -2.17038 -2.8797 0
M  V30 13943 O 1312.71 -1.56353 -3.81612 0
M  V30 13944 H 1312.05 -0.458816 -0.479983 0
M  V30 13945 H 1314.58 -1.79755 -0.977207 0
M  V30 13946 H 1314.59 -2.29651 -3.3723 0
M  V30 13947 H 1313.27 -3.19981 -2.65678 0
M  V30 13948 H 1311.85 -1.52685 -3.40208 0
M  V30 13949 N 1314.03 1.01274 -1.20754 0
M  V30 13950 C 1315.26 1.7906 -1.04653 0
M  V30 13951 C 1315.68 1.83806 0.399632 0
M  V30 13952 O 1315.04 1.27596 1.28798 0
M  V30 13953 C 1315.09 3.21187 -1.63925 0
M  V30 13954 O 1314.19 4.02913 -0.879486 0
M  V30 13955 H 1313.53 0.552147 -0.368823 0
M  V30 13956 H 1316.06 1.27356 -1.6013 0
M  V30 13957 H 1316.07 3.71887 -1.67822 0
M  V30 13958 H 1314.75 3.17048 -2.69172 0
M  V30 13959 H 1313.32 3.61499 -0.915019 0
M  V30 13960 N 1315.51 1.01404 1.20644 0
M  V30 13961 C 1316.74 0.719995 1.93648 0
M  V30 13962 C 1317.15 -0.722872 1.74846 0
M  V30 13963 O 1316.49 -1.50172 1.05802 0
M  V30 13964 C 1316.55 0.972637 3.46092 0
M  V30 13965 C 1316.22 2.40412 3.88653 0
M  V30 13966 C 1317.21 3.38481 3.94622 0
M  V30 13967 C 1314.9 2.74418 4.20714 0
M  V30 13968 C 1316.89 4.68619 4.32059 0
M  V30 13969 C 1314.58 4.04769 4.57826 0
M  V30 13970 C 1315.58 5.01681 4.63471 0
M  V30 13971 O 1315.27 6.297 4.99733 0
M  V30 13972 H 1315 0.263849 0.622382 0
M  V30 13973 H 1317.55 1.35741 1.54154 0
M  V30 13974 H 1315.78 0.278057 3.85699 0
M  V30 13975 H 1317.47 0.670572 4.00323 0
M  V30 13976 H 1318.24 3.13545 3.7002 0
M  V30 13977 H 1314.12 1.99675 4.15513 0
M  V30 13978 H 1317.66 5.4426 4.3638 0
M  V30 13979 H 1313.56 4.29486 4.81884 0
M  V30 13980 H 1314.32 6.3395 5.17735 0
M  V30 13981 N 1316.99 -1.36373 0.789944 0
M  V30 13982 C 1317.94 -2.27425 0.161798 0
M  V30 13983 C 1318.92 -1.46983 -0.654583 0
M  V30 13984 O 1320.11 -1.69355 -0.51457 0
M  V30 13985 C 1317.24 -3.36043 -0.702128 0
M  V30 13986 C 1316.33 -4.23921 0.123071 0
M  V30 13987 N 1316.72 -4.91895 1.17784 0
M  V30 13988 C 1315.02 -4.45892 -0.0980072 0
M  V30 13989 C 1315.72 -5.56905 1.68023 0
M  V30 13990 N 1314.69 -5.34521 0.989371 0
M  V30 13991 H 1318.5 -2.77463 0.969093 0
M  V30 13992 H 1316.01 -1.49705 0.629458 0
M  V30 13993 H 1318.01 -4.00203 -1.16805 0
M  V30 13994 H 1316.67 -2.8756 -1.50796 0
M  V30 13995 H 1317.68 -4.93838 1.56027 0
M  V30 13996 H 1314.36 -4.08243 -0.874307 0
M  V30 13997 H 1315.75 -6.21185 2.56085 0
M  V30 13998 N 1318.47 -0.542005 -1.47987 0
M  V30 13999 C 1319.4 0.202703 -2.32618 0
M  V30 14000 C 1320.38 0.923521 -1.42846 0
M  V30 14001 O 1321.56 0.906957 -1.7172 0
M  V30 14002 C 1318.69 1.24267 -3.24307 0
M  V30 14003 C 1317.65 0.639257 -4.23199 0
M  V30 14004 C 1316.97 1.78275 -5.04105 0
M  V30 14005 C 1318.27 -0.396982 -5.20789 0
M  V30 14006 H 1319.97 -0.503817 -2.95131 0
M  V30 14007 H 1317.51 -0.243736 -1.41922 0
M  V30 14008 H 1319.46 1.7717 -3.82347 0
M  V30 14009 H 1318.19 1.97893 -2.59819 0
M  V30 14010 H 1316.85 0.131655 -3.66364 0
M  V30 14011 H 1316.5 2.50768 -4.36032 0
M  V30 14012 H 1316.2 1.38487 -5.71047 0
M  V30 14013 H 1317.72 2.31533 -5.65 0
M  V30 14014 H 1319.13 0.0454057 -5.73282 0
M  V30 14015 H 1317.53 -0.712911 -5.9585 0
M  V30 14016 H 1318.6 -1.29843 -4.67193 0
M  V30 14017 N 1319.94 1.55134 -0.277709 0
M  V30 14018 C 1320.85 2.26296 0.618658 0
M  V30 14019 C 1321.87 1.28978 1.16794 0
M  V30 14020 O 1323.05 1.61918 1.19768 0
M  V30 14021 C 1320.11 2.97214 1.78508 0
M  V30 14022 C 1319.17 4.10016 1.27221 0
M  V30 14023 C 1318.4 4.77543 2.38304 0
M  V30 14024 O 1318.63 4.44293 3.57715 0
M  V30 14025 O 1317.56 5.65437 2.06313 0
M  V30 14026 H 1321.39 3.03671 0.0421031 0
M  V30 14027 H 1318.97 1.49332 -0.0450166 0
M  V30 14028 H 1320.85 3.41773 2.46513 0
M  V30 14029 H 1319.53 2.22753 2.34867 0
M  V30 14030 H 1318.44 3.69907 0.558544 0
M  V30 14031 H 1319.77 4.86385 0.754333 0
M  V30 14032 N 1321.42 0.00503138 1.57599 0
M  V30 14033 C 1322.67 -0.679766 1.91068 0
M  V30 14034 C 1323 -1.73144 0.879486 0
M  V30 14035 O 1322.28 -1.94237 -0.101116 0
M  V30 14036 C 1322.56 -1.3183 3.35101 0
M  V30 14037 C 1322.41 -0.277833 4.48941 0
M  V30 14038 C 1323.73 -2.24308 3.78647 0
M  V30 14039 H 1320.85 -0.245646 0.694857 0
M  V30 14040 H 1323.49 0.057357 1.89913 0
M  V30 14041 H 1321.64 -1.94657 3.36216 0
M  V30 14042 H 1323.31 0.351136 4.59962 0
M  V30 14043 H 1321.56 0.399365 4.31958 0
M  V30 14044 H 1322.23 -0.763759 5.46691 0
M  V30 14045 H 1324.7 -1.71494 3.79116 0
M  V30 14046 H 1323.58 -2.6595 4.80169 0
M  V30 14047 H 1323.84 -3.12427 3.12797 0
M  V30 14048 N 1322.9 -1.55308 -0.267798 0
M  V30 14049 C 1323.83 -1.84963 -1.35356 0
M  V30 14050 C 1324.84 -0.73446 -1.45291 0
M  V30 14051 O 1326.03 -1.01237 -1.47015 0
M  V30 14052 C 1323.13 -2.00221 -2.73432 0
M  V30 14053 C 1322.31 -3.30922 -2.86024 0
M  V30 14054 C 1321.37 -3.3618 -4.04808 0
M  V30 14055 O 1320.39 -4.09525 -3.9532 0
M  V30 14056 N 1321.59 -2.63958 -5.17017 0
M  V30 14057 H 1324.36 -2.7868 -1.1026 0
M  V30 14058 H 1321.92 -1.55289 -0.457914 0
M  V30 14059 H 1323.91 -2.01103 -3.51197 0
M  V30 14060 H 1322.48 -1.13346 -2.91327 0
M  V30 14061 H 1321.7 -3.42534 -1.951 0
M  V30 14062 H 1322.99 -4.17109 -2.91371 0
M  V30 14063 H 1322.39 -2.04062 -5.27613 0
M  V30 14064 H 1320.94 -2.70558 -5.92994 0
M  V30 14065 N 1324.38 0.532545 -1.4833 0
M  V30 14066 C 1325.34 1.61955 -1.62183 0
M  V30 14067 C 1326.34 1.52982 -0.495281 0
M  V30 14068 O 1327.53 1.56698 -0.761005 0
M  V30 14069 C 1324.66 3.0157 -1.58961 0
M  V30 14070 H 1325.86 1.51013 -2.59105 0
M  V30 14071 H 1323.41 0.754405 -1.36888 0
M  V30 14072 H 1324.14 3.18021 -0.635069 0
M  V30 14073 H 1323.93 3.09491 -2.40744 0
M  V30 14074 H 1325.42 3.80604 -1.71843 0
M  V30 14075 N 1325.86 1.36875 0.78122 0
M  V30 14076 C 1327.1 1.31559 1.53943 0
M  V30 14077 C 1327.43 -0.10273 1.94229 0
M  V30 14078 O 1326.69 -1.07386 1.63605 0
M  V30 14079 C 1326.98 2.19173 2.82309 0
M  V30 14080 C 1326.65 3.67595 2.61121 0
M  V30 14081 C 1325.31 4.08047 2.55051 0
M  V30 14082 C 1327.66 4.61665 2.41898 0
M  V30 14083 C 1324.99 5.40697 2.27736 0
M  V30 14084 C 1327.34 5.94542 2.16108 0
M  V30 14085 C 1326.01 6.34109 2.08476 0
M  V30 14086 H 1325.28 0.48141 0.563317 0
M  V30 14087 H 1327.93 1.68999 0.900638 0
M  V30 14088 H 1326.23 1.74696 3.50697 0
M  V30 14089 H 1327.93 2.12379 3.40141 0
M  V30 14090 H 1324.52 3.35509 2.66705 0
M  V30 14091 H 1328.7 4.3128 2.45584 0
M  V30 14092 H 1323.96 5.70325 2.20315 0
M  V30 14093 H 1328.13 6.66994 2.0023 0
M  V30 14094 H 1325.76 7.36823 1.87073 0
M  V30 14095 N 1327.33 -1.00632 1.21289 0
M  V30 14096 C 1328.28 -2.11502 0.96798 0
M  V30 14097 C 1329.28 -1.6919 -0.0843024 0
M  V30 14098 O 1330.48 -1.79875 0.06697 0
M  V30 14099 H 1326.86 -0.691398 0.295759 0
M  V30 14100 H 1328.83 -2.29337 1.90911 0
M  V30 14101 C 1327.58 -3.43357 0.547818 0
M  V30 14102 H 1326.9 -3.76348 1.34915 0
M  V30 14103 H 1328.34 -4.21957 0.415759 0
M  V30 14104 C 1326.8 -3.28648 -0.741086 0
M  V30 14105 O 1327.33 -3.59267 -1.79695 0
M  V30 14106 N 1325.53 -2.81866 -0.707084 0
M  V30 14107 H 1325.08 -2.57149 0.152447 0
M  V30 14108 H 1325.04 -2.72406 -1.56979 0
M  V30 14109 N 1328.81 -1.02043 -1.20104 0
M  V30 14110 C 1330.06 -0.710566 -1.89197 0
M  V30 14111 C 1330.38 0.762471 -1.79475 0
M  V30 14112 O 1329.65 1.54871 -1.19965 0
M  V30 14113 H 1328.23 -0.259839 -0.700352 0
M  V30 14114 H 1330.89 -1.29285 -1.45848 0
M  V30 14115 H 1329.99 -0.997363 -2.95735 0
M  V30 14116 N 1330.29 1.35952 -0.797165 0
M  V30 14117 C 1331.71 1.52218 -0.479765 0
M  V30 14118 C 1331.91 1.74898 1.00064 0
M  V30 14119 O 1330.96 1.78495 1.78594 0
M  V30 14120 C 1332.28 2.70328 -1.31694 0
M  V30 14121 C 1333.82 2.84202 -1.31142 0
M  V30 14122 C 1334.3 4.05325 -2.13251 0
M  V30 14123 N 1335.79 4.12485 -2.10737 0
M  V30 14124 C 1336.52 5.053 -2.71033 0
M  V30 14125 N 1336.02 6.03509 -3.40219 0
M  V30 14126 N 1337.81 4.97975 -2.60725 0
M  V30 14127 H 1329.96 1.19486 -1.75604 0
M  V30 14128 H 1332.23 0.58383 -0.746892 0
M  V30 14129 H 1331.93 2.60116 -2.36712 0
M  V30 14130 H 1331.81 3.64684 -0.963607 0
M  V30 14131 H 1334.19 2.9387 -0.269131 0
M  V30 14132 H 1334.28 1.9073 -1.70457 0
M  V30 14133 H 1333.92 3.96417 -3.17515 0
M  V30 14134 H 1333.85 4.97959 -1.71302 0
M  V30 14135 H 1336.34 3.42174 -1.6039 0
M  V30 14136 H 1336.65 6.70909 -3.83537 0
M  V30 14137 H 1335 6.03711 -3.44322 0
M  V30 14138 H 1338.19 4.20203 -2.0627 0
M  V30 14139 H 1338.36 5.70119 -3.08007 0
M  V30 14140 N 1331.77 0.549846 1.47697 0
M  V30 14141 C 1333.02 0.0230048 2.02087 0
M  V30 14142 C 1333.34 -1.32865 1.4273 0
M  V30 14143 O 1332.61 -1.86492 0.59981 0
M  V30 14144 H 1331.19 0.00551514 0.74698 0
M  V30 14145 H 1333.85 0.718185 1.81185 0
M  V30 14146 H 1332.95 -0.0705813 3.1202 0
M  V30 14147 N 1333.25 -1.54984 0.285932 0
M  V30 14148 C 1334.47 -2.04699 -0.333621 0
M  V30 14149 C 1334.9 -1.16252 -1.47875 0
M  V30 14150 O 1334.25 -0.163376 -1.80562 0
M  V30 14151 C 1334.3 -3.52022 -0.78187 0
M  V30 14152 O 1333.41 -3.66639 -1.88812 0
M  V30 14153 H 1332.75 -0.660579 -0.0673203 0
M  V30 14154 H 1335.28 -2.00171 0.423386 0
M  V30 14155 H 1335.29 -3.93591 -1.07473 0
M  V30 14156 H 1333.96 -4.15862 0.055893 0
M  V30 14157 H 1332.54 -3.36974 -1.59696 0
M  V30 14158 N 1334.72 -0.0133892 -1.57594 0
M  V30 14159 C 1335.97 0.667313 -1.90765 0
M  V30 14160 C 1336.29 1.73564 -0.888847 0
M  V30 14161 O 1335.56 1.95768 0.0718946 0
M  V30 14162 H 1334.14 0.24947 -0.704112 0
M  V30 14163 H 1336.81 -0.0574789 -1.94815 0
M  V30 14164 H 1335.9 1.13007 -2.90922 0
M  V30 14165 N 1336.2 1.55448 0.259558 0
M  V30 14166 C 1337.61 1.67256 0.8296 0
M  V30 14167 C 1337.96 0.60851 1.86525 0
M  V30 14168 O 1337.09 -0.247563 2.14979 0
M  V30 14169 C 1337.68 3.03213 1.51152 0
M  V30 14170 C 1336.24 3.17004 2.02943 0
M  V30 14171 C 1335.39 2.63096 0.876103 0
M  V30 14172 H 1338.34 1.5866 0.0356218 0
M  V30 14173 H 1338.36 2.96952 2.37906 0
M  V30 14174 H 1337.87 3.80635 0.75752 0
M  V30 14175 H 1335.98 2.44381 2.81263 0
M  V30 14176 H 1336.09 4.23748 2.2355 0
M  V30 14177 H 1334.45 2.20596 1.27317 0
M  V30 14178 H 1335.24 3.43033 0.13539 0
M  V30 14179 N 1337.68 -0.524672 1.4861 0
M  V30 14180 C 1338.64 -1.61092 1.63039 0
M  V30 14181 C 1339.64 -1.52718 0.503387 0
M  V30 14182 O 1340.83 -1.56293 0.769304 0
M  V30 14183 C 1337.97 -3.00722 1.60558 0
M  V30 14184 H 1339.16 -1.49636 2.59902 0
M  V30 14185 H 1336.71 -0.747135 1.37287 0
M  V30 14186 H 1337.45 -3.1768 0.651926 0
M  V30 14187 H 1337.23 -3.0821 2.42382 0
M  V30 14188 H 1338.72 -3.79688 1.73859 0
M  V30 14189 N 1339.16 -1.37287 -0.77395 0
M  V30 14190 C 1340.38 -1.35734 -1.56815 0
M  V30 14191 C 1340.81 0.0555546 -1.88018 0
M  V30 14192 O 1340.17 1.03197 -1.49064 0
M  V30 14193 C 1340.21 -2.2008 -2.85652 0
M  V30 14194 O 1339.32 -1.60391 -3.79932 0
M  V30 14195 H 1338.66 -0.463881 -0.47509 0
M  V30 14196 H 1341.19 -1.80781 -0.958087 0
M  V30 14197 H 1341.2 -2.33215 -3.34776 0
M  V30 14198 H 1339.87 -3.22781 -2.6227 0
M  V30 14199 H 1338.45 -1.56285 -3.3857 0
M  V30 14200 N 1340.64 0.999871 -1.21821 0
M  V30 14201 C 1341.55 2.12303 -0.99823 0
M  V30 14202 C 1342.56 1.73924 0.0512923 0
M  V30 14203 O 1343.74 2.00914 -0.139895 0
M  V30 14204 C 1340.8 3.41962 -0.571232 0
M  V30 14205 C 1339.86 3.94483 -1.69356 0
M  V30 14206 C 1339.1 5.17954 -1.28685 0
M  V30 14207 O 1339.32 5.70168 -0.162641 0
M  V30 14208 O 1338.25 5.64051 -2.10071 0
M  V30 14209 H 1342.08 2.3374 -1.93905 0
M  V30 14210 H 1339.67 1.10677 -1.00354 0
M  V30 14211 H 1341.55 4.20001 -0.343134 0
M  V30 14212 H 1340.22 3.21901 0.340814 0
M  V30 14213 H 1339.13 3.17648 -1.97612 0
M  V30 14214 H 1340.46 4.18964 -2.58322 0
M  V30 14215 N 1342.11 1.02678 1.19562 0
M  V30 14216 C 1343.36 0.722016 1.89191 0
M  V30 14217 C 1343.69 -0.749217 1.79491 0
M  V30 14218 O 1342.94 -1.56105 1.18025 0
M  V30 14219 C 1343.24 1.11603 3.39529 0
M  V30 14220 C 1342.91 2.58518 3.69431 0
M  V30 14221 C 1341.57 2.98658 3.77302 0
M  V30 14222 C 1343.92 3.53579 3.82925 0
M  V30 14223 C 1341.25 4.32776 3.96134 0
M  V30 14224 C 1343.6 4.87398 4.0327 0
M  V30 14225 C 1342.27 5.27229 4.09373 0
M  V30 14226 H 1341.54 0.264204 0.692298 0
M  V30 14227 H 1344.18 1.28924 1.41601 0
M  V30 14228 H 1342.49 0.467374 3.89002 0
M  V30 14229 H 1344.19 0.857771 3.91718 0
M  V30 14230 H 1340.78 2.26421 3.63911 0
M  V30 14231 H 1344.96 3.23721 3.76189 0
M  V30 14232 H 1340.22 4.63175 3.99098 0
M  V30 14233 H 1344.39 5.60973 4.12653 0
M  V30 14234 H 1342.02 6.31164 4.23718 0
M  V30 14235 N 1343.59 -1.35528 0.804364 0
M  V30 14236 C 1344.82 -2.03073 0.396091 0
M  V30 14237 C 1345.24 -1.60623 -0.992252 0
M  V30 14238 O 1344.59 -0.802718 -1.63898 0
M  V30 14239 C 1344.64 -3.58467 0.467301 0
M  V30 14240 O 1344.36 -3.99373 1.80091 0
M  V30 14241 C 1345.87 -4.4327 0.0515549 0
M  V30 14242 H 1343.09 -0.651346 0.161212 0
M  V30 14243 H 1345.63 -1.73195 1.08737 0
M  V30 14244 H 1343.78 -3.87001 -0.175703 0
M  V30 14245 H 1344.2 -4.94013 1.76214 0
M  V30 14246 H 1345.67 -5.51789 0.152499 0
M  V30 14247 H 1346.15 -4.27597 -1.00286 0
M  V30 14248 H 1346.76 -4.20027 0.667628 0
M  V30 14249 N 1345.07 -0.557671 -1.47404 0
M  V30 14250 C 1346.32 -0.0337884 -2.02472 0
M  V30 14251 C 1346.65 1.31624 -1.43197 0
M  V30 14252 O 1345.9 1.86989 -0.577366 0
M  V30 14253 C 1346.2 0.108324 -3.57236 0
M  V30 14254 C 1345.87 -1.17088 -4.35432 0
M  V30 14255 C 1344.53 -1.5214 -4.56516 0
M  V30 14256 C 1346.88 -2.01854 -4.80525 0
M  V30 14257 C 1344.21 -2.71803 -5.19942 0
M  V30 14258 C 1346.56 -3.2072 -5.45272 0
M  V30 14259 C 1345.22 -3.56085 -5.64588 0
M  V30 14260 H 1344.49 -0.012364 -0.740897 0
M  V30 14261 H 1347.14 -0.729276 -1.7707 0
M  V30 14262 H 1345.45 0.886781 -3.81633 0
M  V30 14263 H 1347.14 0.529031 -3.97495 0
M  V30 14264 H 1343.73 -0.887952 -4.19301 0
M  V30 14265 H 1347.92 -1.76081 -4.64014 0
M  V30 14266 H 1343.17 -2.99371 -5.33092 0
M  V30 14267 H 1347.35 -3.86689 -5.79176 0
M  V30 14268 H 1344.97 -4.48903 -6.13506 0
M  V30 14269 N 1346.55 1.54831 -0.294147 0
M  V30 14270 C 1347.77 2.04873 0.32276 0
M  V30 14271 C 1348.2 1.17034 1.47257 0
M  V30 14272 O 1347.56 0.172949 1.80473 0
M  V30 14273 C 1347.61 3.52431 0.76319 0
M  V30 14274 O 1346.71 3.67635 1.86865 0
M  V30 14275 H 1346.05 0.660926 0.0638162 0
M  V30 14276 H 1348.58 1.99944 -0.433995 0
M  V30 14277 H 1348.59 3.94155 1.05385 0
M  V30 14278 H 1347.27 4.15827 -0.0779464 0
M  V30 14279 H 1345.84 3.37816 1.57907 0
M  V30 14280 N 1348.03 0.0217466 1.57585 0
M  V30 14281 C 1349.26 -0.668881 1.9579 0
M  V30 14282 C 1349.67 -1.66085 0.897849 0
M  V30 14283 O 1349.03 -1.82098 -0.121099 0
M  V30 14284 C 1349.08 -1.38174 3.34051 0
M  V30 14285 O 1348.8 -0.429527 4.35989 0
M  V30 14286 C 1350.3 -2.16487 3.86844 0
M  V30 14287 H 1347.52 -0.184919 0.645016 0
M  V30 14288 H 1350.06 0.0793241 2.04346 0
M  V30 14289 H 1348.22 -2.0814 3.26736 0
M  V30 14290 H 1348.63 -0.934887 5.16101 0
M  V30 14291 H 1350.11 -2.61829 4.85952 0
M  V30 14292 H 1350.58 -3.00082 3.20698 0
M  V30 14293 H 1351.19 -1.51493 3.97404 0
M  V30 14294 N 1349.51 -1.55583 -0.251311 0
M  V30 14295 C 1350.92 -1.67693 -0.820719 0
M  V30 14296 C 1351.27 -0.618393 -1.862 0
M  V30 14297 O 1350.39 0.236158 -2.15108 0
M  V30 14298 C 1350.99 -3.04011 -1.49542 0
M  V30 14299 C 1349.55 -3.18075 -2.01259 0
M  V30 14300 C 1348.69 -2.63557 -0.862138 0
M  V30 14301 H 1351.64 -1.58677 -0.0272072 0
M  V30 14302 H 1351.67 -2.9821 -2.36328 0
M  V30 14303 H 1351.18 -3.81032 -0.737323 0
M  V30 14304 H 1349.28 -2.45869 -2.79963 0
M  V30 14305 H 1349.39 -4.24927 -2.213 0
M  V30 14306 H 1347.76 -2.21268 -1.26145 0
M  V30 14307 H 1348.54 -3.431 -0.117196 0
M  V30 14308 N 1350.98 0.516783 -1.48886 0
M  V30 14309 C 1351.89 1.6467 -1.67095 0
M  V30 14310 C 1352.91 1.64963 -0.553466 0
M  V30 14311 O 1354.09 1.83673 -0.826206 0
M  V30 14312 C 1351.15 3.01095 -1.71879 0
M  V30 14313 C 1350.21 3.11554 -2.95352 0
M  V30 14314 C 1349.44 4.41471 -2.99898 0
M  V30 14315 O 1349.67 5.29348 -2.12477 0
M  V30 14316 O 1348.6 4.56573 -3.92205 0
M  V30 14317 H 1352.43 1.52242 -2.62785 0
M  V30 14318 H 1350.01 0.69134 -1.32442 0
M  V30 14319 H 1351.89 3.82207 -1.77471 0
M  V30 14320 H 1350.57 3.1382 -0.793656 0
M  V30 14321 H 1349.48 2.29689 -2.95286 0
M  V30 14322 H 1350.81 3.03751 -3.87294 0
M  V30 14323 N 1352.46 1.37696 0.766659 0
M  V30 14324 C 1353.71 1.32922 1.52237 0
M  V30 14325 C 1354.03 -0.0842833 1.94818 0
M  V30 14326 O 1353.3 -1.02934 1.66677 0
M  V30 14327 H 1351.88 0.489049 0.564659 0
M  V30 14328 H 1354.54 1.72238 0.912142 0
M  V30 14329 H 1353.64 1.97158 2.4194 0
M  V30 14330 N 1353.94 -0.993397 1.22349 0
M  V30 14331 C 1355.19 -1.73544 1.04931 0
M  V30 14332 C 1355.52 -1.89721 -0.414661 0
M  V30 14333 O 1354.79 -1.44001 -1.30743 0
M  V30 14334 C 1355.08 -3.14131 1.7605 0
M  V30 14335 C 1354.93 -3.05604 3.30039 0
M  V30 14336 C 1356.25 -4.13294 1.51249 0
M  V30 14337 H 1353.37 -0.629915 0.382591 0
M  V30 14338 H 1356.01 -1.15737 1.50682 0
M  V30 14339 H 1354.16 -3.63483 1.37157 0
M  V30 14340 H 1355.83 -2.63876 3.78374 0
M  V30 14341 H 1354.07 -2.42421 3.59742 0
M  V30 14342 H 1354.75 -4.05086 3.74979 0
M  V30 14343 H 1357.22 -3.72696 1.85033 0
M  V30 14344 H 1356.1 -5.09781 2.03507 0
M  V30 14345 H 1356.36 -4.39855 0.444973 0
M  V30 14346 N 1355.42 -1.03311 -1.19015 0
M  V30 14347 C 1356.83 -0.761079 -1.70483 0
M  V30 14348 C 1357.18 0.718851 -1.82557 0
M  V30 14349 O 1356.3 1.56006 -1.4997 0
M  V30 14350 C 1356.9 -1.37492 -3.09647 0
M  V30 14351 C 1355.46 -1.15138 -3.58358 0
M  V30 14352 C 1354.61 -1.47034 -2.35109 0
M  V30 14353 H 1357.56 -1.2005 -1.03797 0
M  V30 14354 H 1357.58 -0.774115 -3.72542 0
M  V30 14355 H 1357.09 -2.45203 -3.00828 0
M  V30 14356 H 1355.19 -0.0926822 -3.72485 0
M  V30 14357 H 1355.3 -1.84307 -4.4223 0
M  V30 14358 H 1353.67 -0.889794 -2.38652 0
M  V30 14359 H 1354.45 -2.55837 -2.28916 0
M  V30 14360 N 1356.9 1.35099 -0.81154 0
M  V30 14361 C 1358.14 1.98233 -0.393453 0
M  V30 14362 C 1358.46 1.64688 1.04417 0
M  V30 14363 O 1357.73 0.931845 1.72318 0
M  V30 14364 H 1356.31 0.733283 -0.142496 0
M  V30 14365 H 1358.98 1.6493 -1.03847 0
M  V30 14366 H 1358.07 3.08017 -0.503188 0
M  V30 14367 N 1358.37 0.56548 1.47106 0
M  V30 14368 C 1359.32 -0.198133 2.27137 0
M  V30 14369 C 1360.31 -0.877743 1.3485 0
M  V30 14370 O 1361.5 -0.774683 1.59147 0
M  V30 14371 C 1358.63 -1.22223 3.20806 0
M  V30 14372 C 1357.71 -0.545616 4.20576 0
M  V30 14373 N 1358.11 0.389029 5.04302 0
M  V30 14374 C 1356.4 -0.798517 4.38793 0
M  V30 14375 C 1357.1 0.782852 5.76408 0
M  V30 14376 N 1356.08 0.13583 5.4343 0
M  V30 14377 H 1359.88 0.520354 2.89257 0
M  V30 14378 H 1357.4 0.386013 1.57746 0
M  V30 14379 H 1359.39 -1.78332 3.76833 0
M  V30 14380 H 1358.05 -1.94172 2.60244 0
M  V30 14381 H 1359.06 0.763644 5.12239 0
M  V30 14382 H 1355.74 -1.50589 3.89396 0
M  V30 14383 H 1357.13 1.55133 6.53746 0
M  V30 14384 N 1359.85 -1.54672 0.302354 0
M  V30 14385 C 1361.26 -1.85731 -0.190019 0
M  V30 14386 C 1361.61 -1.22427 -1.53317 0
M  V30 14387 O 1360.74 -0.522461 -2.09998 0
M  V30 14388 C 1361.33 -3.36971 -0.351562 0
M  V30 14389 C 1359.89 -3.68056 -0.788155 0
M  V30 14390 C 1359.04 -2.7711 0.102705 0
M  V30 14391 H 1361.99 -1.49823 0.523324 0
M  V30 14392 H 1362.01 -3.61547 -1.18592 0
M  V30 14393 H 1361.52 -3.83016 0.626152 0
M  V30 14394 H 1359.63 -3.2753 -1.77637 0
M  V30 14395 H 1359.74 -4.75244 -0.606604 0
M  V30 14396 H 1358.1 -2.51243 -0.418235 0
M  V30 14397 H 1358.89 -3.25975 1.0768 0
M  V30 14398 N 1361.33 -0.0301034 -1.57571 0
M  V30 14399 C 1362.24 0.967086 -2.1374 0
M  V30 14400 C 1363.26 1.35636 -1.0899 0
M  V30 14401 O 1364.43 1.43758 -1.41052 0
M  V30 14402 C 1361.5 2.23058 -2.65417 0
M  V30 14403 C 1360.56 1.90163 -3.84885 0
M  V30 14404 C 1359.79 3.10488 -4.34088 0
M  V30 14405 O 1360.01 4.23179 -3.8246 0
M  V30 14406 O 1358.95 2.92729 -5.25921 0
M  V30 14407 H 1362.77 0.519486 -2.99224 0
M  V30 14408 H 1360.36 0.190559 -1.4818 0
M  V30 14409 H 1362.24 2.97229 -2.98719 0
M  V30 14410 H 1360.92 2.66997 -1.83015 0
M  V30 14411 H 1359.82 1.13373 -3.56507 0
M  V30 14412 H 1361.16 1.51039 -4.68453 0
M  V30 14413 N 1362.81 1.55714 0.243056 0
M  V30 14414 C 1363.77 1.89832 1.28438 0
M  V30 14415 C 1364.77 0.775083 1.40887 0
M  V30 14416 O 1365.96 1.04304 1.39521 0
M  V30 14417 C 1363.09 2.13016 2.66153 0
M  V30 14418 H 1364.29 2.82947 0.994022 0
M  V30 14419 H 1361.84 1.48665 0.482521 0
M  V30 14420 H 1362.57 1.22381 3.00322 0
M  V30 14421 H 1362.36 2.94824 2.58498 0
M  V30 14422 H 1363.85 2.40581 3.41336 0
M  V30 14423 N 1364.29 -0.50888 1.49158 0
M  V30 14424 C 1365.22 -1.62008 1.68154 0
M  V30 14425 C 1366.2 -1.61624 0.53025 0
M  V30 14426 O 1367.38 -1.78489 0.765205 0
M  V30 14427 C 1364.51 -3.00525 1.74075 0
M  V30 14428 C 1363.47 -3.15773 2.88915 0
M  V30 14429 C 1362.79 -4.55562 2.79942 0
M  V30 14430 C 1364.09 -2.96542 4.29953 0
M  V30 14431 H 1365.79 -1.46365 2.61185 0
M  V30 14432 H 1363.33 -0.702705 1.2569 0
M  V30 14433 H 1365.29 -3.78154 1.8595 0
M  V30 14434 H 1364.01 -3.17238 0.776373 0
M  V30 14435 H 1362.67 -2.40567 2.76628 0
M  V30 14436 H 1362.32 -4.6914 1.81429 0
M  V30 14437 H 1362.02 -4.66706 3.57015 0
M  V30 14438 H 1363.54 -5.35262 2.93814 0
M  V30 14439 H 1364.95 -3.63947 4.42963 0
M  V30 14440 H 1363.35 -3.19164 5.08187 0
M  V30 14441 H 1364.42 -1.92745 4.44946 0
M  V30 14442 N 1365.76 -1.381 -0.759346 0
M  V30 14443 C 1366.71 -1.31373 -1.86347 0
M  V30 14444 C 1367.7 -0.199113 -1.59663 0
M  V30 14445 O 1368.89 -0.43459 -1.71582 0
M  V30 14446 C 1366.02 -1.13537 -3.23982 0
M  V30 14447 C 1365.11 -2.29596 -3.56576 0
M  V30 14448 N 1365.5 -3.55023 -3.60267 0
M  V30 14449 C 1363.79 -2.22022 -3.86811 0
M  V30 14450 C 1364.5 -4.31629 -3.89963 0
M  V30 14451 N 1363.47 -3.60915 -4.06499 0
M  V30 14452 H 1367.27 -2.26345 -1.8747 0
M  V30 14453 H 1364.79 -1.3125 -0.956415 0
M  V30 14454 H 1366.78 -1.06801 -4.02988 0
M  V30 14455 H 1365.44 -0.194922 -3.24114 0
M  V30 14456 H 1366.46 -3.88769 -3.42168 0
M  V30 14457 H 1363.13 -1.36104 -3.94692 0
M  V30 14458 H 1364.52 -5.40238 -3.9949 0
M  V30 14459 N 1367.24 0.986894 -1.22875 0
M  V30 14460 C 1368.17 2.09628 -1.0285 0
M  V30 14461 C 1369.15 1.70019 0.0525118 0
M  V30 14462 O 1370.34 1.93883 -0.110874 0
M  V30 14463 C 1367.47 3.41866 -0.61194 0
M  V30 14464 C 1366.42 3.95351 -1.63956 0
M  V30 14465 C 1365.75 5.23707 -1.07865 0
M  V30 14466 C 1367.05 4.25354 -3.03102 0
M  V30 14467 H 1368.74 2.26639 -1.95641 0
M  V30 14468 H 1366.29 1.0891 -0.942048 0
M  V30 14469 H 1368.24 4.18893 -0.458936 0
M  V30 14470 H 1366.97 3.24701 0.35164 0
M  V30 14471 H 1365.62 3.20462 -1.78045 0
M  V30 14472 H 1365.27 5.02888 -0.106246 0
M  V30 14473 H 1364.97 5.60459 -1.76522 0
M  V30 14474 H 1366.5 6.03362 -0.937359 0
M  V30 14475 H 1367.91 4.93156 -2.92353 0
M  V30 14476 H 1366.31 4.73292 -3.68938 0
M  V30 14477 H 1367.38 3.32887 -3.52583 0
M  V30 14478 N 1368.72 1.0394 1.18466 0
M  V30 14479 C 1369.63 0.639714 2.2571 0
M  V30 14480 C 1370.65 -0.333431 1.70775 0
M  V30 14481 O 1371.82 -0.188676 2.00514 0
M  V30 14482 C 1368.89 0.007559 3.46699 0
M  V30 14483 C 1367.95 1.02955 4.16772 0
M  V30 14484 C 1367.18 0.427464 5.31985 0
M  V30 14485 O 1367.4 -0.766684 5.65224 0
M  V30 14486 O 1366.34 1.15553 5.90704 0
M  V30 14487 H 1370.16 1.53316 2.6216 0
M  V30 14488 H 1367.75 0.810206 1.25523 0
M  V30 14489 H 1369.63 -0.344404 4.1999 0
M  V30 14490 H 1368.31 -0.859727 3.12074 0
M  V30 14491 H 1367.21 1.43328 3.45554 0
M  V30 14492 H 1368.55 1.86756 4.55393 0
M  V30 14493 N 1370.2 -1.34667 0.818693 0
M  V30 14494 C 1371.44 -2.00234 0.41056 0
M  V30 14495 C 1371.8 -1.63507 -1.00644 0
M  V30 14496 O 1373 -2.21886 -1.51723 0
M  V30 14497 C 1371.27 -3.52294 0.601968 0
M  V30 14498 S 1372.83 -4.37867 0.286055 0
M  V30 14499 H 1369.65 -0.693826 0.155325 0
M  V30 14500 H 1372.25 -1.64037 1.06359 0
M  V30 14501 H 1370.96 -3.76511 1.63302 0
M  V30 14502 H 1370.49 -3.93345 -0.0659441 0
M  V30 14503 H 1372.5 -4.87936 -0.901832 0
M  V30 14504 N 1371.68 -0.573274 -1.46804 0
M  V30 14505 C 1372.61 0.20305 -2.28299 0
M  V30 14506 C 1373.62 0.864367 -1.37958 0
M  V30 14507 O 1374.81 0.735516 -1.62642 0
M  V30 14508 C 1371.91 1.30633 -3.12711 0
M  V30 14509 C 1371.08 0.738741 -4.31116 0
M  V30 14510 C 1370.14 1.72853 -4.96999 0
M  V30 14511 O 1369.17 1.2683 -5.5489 0
M  V30 14512 N 1370.37 3.06239 -4.93151 0
M  V30 14513 H 1373.14 -0.496086 -2.95566 0
M  V30 14514 H 1370.7 -0.410411 -1.56612 0
M  V30 14515 H 1372.69 1.96755 -3.53652 0
M  V30 14516 H 1371.26 1.90846 -2.47581 0
M  V30 14517 H 1370.48 -0.0996941 -3.94074 0
M  V30 14518 H 1371.77 0.339154 -5.07668 0
M  V30 14519 H 1371.16 3.46262 -4.47347 0
M  V30 14520 H 1369.72 3.67876 -5.38062 0
M  V30 14521 N 1373.15 1.5451 -0.310553 0
M  V30 14522 C 1374.38 2.05204 0.301013 0
M  V30 14523 C 1374.8 1.1859 1.46007 0
M  V30 14524 O 1374.16 0.192081 1.8028 0
M  V30 14525 C 1374.21 3.53221 0.725767 0
M  V30 14526 O 1373.31 3.69596 1.82955 0
M  V30 14527 H 1372.66 0.661566 0.0568026 0
M  V30 14528 H 1375.19 1.99473 -0.455178 0
M  V30 14529 H 1375.2 3.9525 1.01198 0
M  V30 14530 H 1373.87 4.15721 -0.122046 0
M  V30 14531 H 1372.45 3.39472 1.54315 0
M  V30 14532 N 1374.63 0.0384594 1.57553 0
M  V30 14533 C 1375.58 -0.958199 2.11946 0
M  V30 14534 C 1376.58 -1.33073 1.04823 0
M  V30 14535 O 1377.78 -1.31187 1.23247 0
M  V30 14536 H 1374.16 -0.326819 0.677269 0
M  V30 14537 H 1376.13 -0.474211 2.94608 0
M  V30 14538 C 1374.88 -2.22821 2.6692 0
M  V30 14539 H 1374.2 -1.95032 3.49002 0
M  V30 14540 H 1375.64 -2.90746 3.08614 0
M  V30 14541 C 1374.1 -2.96429 1.60098 0
M  V30 14542 O 1374.63 -3.88892 1.00628 0
M  V30 14543 N 1372.83 -2.58931 1.3192 0
M  V30 14544 H 1372.38 -1.83818 1.80468 0
M  V30 14545 H 1372.34 -3.0849 0.60674 0
M  V30 14546 N 1376.11 -1.55841 -0.234795 0
M  V30 14547 C 1377.34 -1.82307 -0.978355 0
M  V30 14548 C 1377.75 -0.615825 -1.78474 0
M  V30 14549 O 1377.11 0.4156 -1.77705 0
M  V30 14550 C 1377.16 -3.07136 -1.90655 0
M  V30 14551 O 1376.88 -4.23202 -1.13278 0
M  V30 14552 C 1378.38 -3.46492 -2.76511 0
M  V30 14553 H 1375.6 -0.606361 -0.287345 0
M  V30 14554 H 1378.15 -2.02916 -0.254023 0
M  V30 14555 H 1376.3 -2.88542 -2.58501 0
M  V30 14556 H 1376.72 -4.94029 -1.76168 0
M  V30 14557 H 1378.19 -4.36908 -3.37366 0
M  V30 14558 H 1378.67 -2.67633 -3.48238 0
M  V30 14559 H 1379.27 -3.6748 -2.14099 0
M  V30 14560 N 1377.59 0.500963 -1.49426 0
M  V30 14561 C 1378.81 1.28383 -1.62888 0
M  V30 14562 C 1379.24 1.85688 -0.300262 0
M  V30 14563 O 1378.6 1.6586 0.73212 0
M  V30 14564 C 1378.65 2.38987 -2.70033 0
M  V30 14565 O 1377.75 3.42837 -2.29208 0
M  V30 14566 H 1377.09 0.379012 -0.545202 0
M  V30 14567 H 1379.62 0.59971 -1.95613 0
M  V30 14568 H 1379.63 2.84749 -2.92202 0
M  V30 14569 H 1378.31 1.96643 -3.66475 0
M  V30 14570 H 1376.88 3.02993 -2.1737 0
M  V30 14571 N 1379.07 1.38501 0.752011 0
M  V30 14572 C 1380 1.38577 1.87933 0
M  V30 14573 C 1380.98 0.251454 1.68231 0
M  V30 14574 O 1382.16 0.45477 1.888 0
M  V30 14575 C 1379.29 1.21164 3.25479 0
M  V30 14576 C 1378.25 2.31816 3.59785 0
M  V30 14577 C 1377.57 1.99508 4.96085 0
M  V30 14578 C 1378.87 3.74082 3.645 0
M  V30 14579 H 1380.57 2.32913 1.88127 0
M  V30 14580 H 1378.11 1.12113 0.903698 0
M  V30 14581 H 1380.07 1.19842 4.04 0
M  V30 14582 H 1378.79 0.232899 3.25769 0
M  V30 14583 H 1377.45 2.32327 2.83584 0
M  V30 14584 H 1377.1 1.00114 4.92936 0
M  V30 14585 H 1376.8 2.73617 5.20007 0
M  V30 14586 H 1378.32 1.99807 5.76983 0
M  V30 14587 H 1379.74 3.75593 4.33131 0
M  V30 14588 H 1378.13 4.47409 3.99931 0
M  V30 14589 H 1379.2 4.06284 2.64692 0
M  V30 14590 N 1380.55 -0.980364 1.23396 0
M  V30 14591 C 1381.48 -2.0908 1.0396 0
M  V30 14592 C 1382.46 -1.70044 -0.0434946 0
M  V30 14593 O 1383.64 -1.93822 0.121155 0
M  V30 14594 C 1380.77 -3.41537 0.630061 0
M  V30 14595 C 1379.73 -3.94476 1.66051 0
M  V30 14596 C 1379.05 -5.23128 1.10641 0
M  V30 14597 C 1380.35 -4.23741 3.05354 0
M  V30 14598 H 1382.05 -2.25598 1.9684 0
M  V30 14599 H 1379.59 -1.08409 0.94781 0
M  V30 14600 H 1381.54 -4.18644 0.481145 0
M  V30 14601 H 1380.27 -3.24883 -0.334416 0
M  V30 14602 H 1378.93 -3.19513 1.79742 0
M  V30 14603 H 1378.58 -5.02824 0.132913 0
M  V30 14604 H 1378.28 -5.59515 1.79492 0
M  V30 14605 H 1379.8 -6.02857 0.969344 0
M  V30 14606 H 1381.21 -4.91598 2.94964 0
M  V30 14607 H 1379.61 -4.71329 3.71442 0
M  V30 14608 H 1380.68 -3.31012 3.54343 0
M  V30 14609 N 1382.02 -1.04567 -1.17913 0
M  V30 14610 C 1382.95 -0.662066 -2.23917 0
M  V30 14611 C 1383.93 0.33713 -1.66726 0
M  V30 14612 O 1385.12 0.216116 -1.92994 0
M  V30 14613 C 1382.25 -0.029463 -3.47288 0
M  V30 14614 C 1381.2 -0.95274 -4.17261 0
M  V30 14615 C 1380.53 -0.184347 -5.34382 0
M  V30 14616 C 1381.83 -2.2741 -4.70194 0
M  V30 14617 H 1383.52 -1.54826 -2.5626 0
M  V30 14618 H 1381.07 -0.745886 -1.23177 0
M  V30 14619 H 1383.02 0.250654 -4.20654 0
M  V30 14620 H 1381.75 0.891638 -3.14193 0
M  V30 14621 H 1380.41 -1.21732 -3.45799 0
M  V30 14622 H 1380.05 0.73932 -4.97537 0
M  V30 14623 H 1379.75 -0.79949 -5.82136 0
M  V30 14624 H 1381.28 0.0886344 -6.10536 0
M  V30 14625 H 1382.69 -2.05433 -5.35229 0
M  V30 14626 H 1381.09 -2.84265 -5.28501 0
M  V30 14627 H 1382.16 -2.91708 -3.87342 0
M  V30 14628 N 1383.5 1.34231 -0.825823 0
M  V30 14629 C 1384.92 1.51166 -0.511945 0
M  V30 14630 C 1385.12 1.76981 0.963318 0
M  V30 14631 O 1384.17 1.82243 1.74767 0
M  V30 14632 C 1385.49 2.67474 -1.37399 0
M  V30 14633 C 1387.03 2.81356 -1.37141 0
M  V30 14634 C 1387.51 4.0071 -2.218 0
M  V30 14635 N 1389 4.07922 -2.19439 0
M  V30 14636 C 1389.74 4.99438 -2.81691 0
M  V30 14637 N 1389.23 5.96157 -3.52944 0
M  V30 14638 N 1391.02 4.92332 -2.7123 0
M  V30 14639 H 1383.18 1.15734 -1.78099 0
M  V30 14640 H 1385.44 0.567856 -0.759107 0
M  V30 14641 H 1385.14 2.55036 -2.42176 0
M  V30 14642 H 1385.02 3.62558 -1.04075 0
M  V30 14643 H 1387.41 2.93233 -0.331405 0
M  V30 14644 H 1387.49 1.87072 -1.74464 0
M  V30 14645 H 1387.13 3.89593 -3.25852 0
M  V30 14646 H 1387.06 4.94213 -1.81826 0
M  V30 14647 H 1389.55 3.38695 -1.67612 0
M  V30 14648 H 1389.86 6.62623 -3.97682 0
M  V30 14649 H 1388.21 5.96272 -3.5705 0
M  V30 14650 H 1391.4 4.15733 -2.15137 0
M  V30 14651 H 1391.57 5.63458 -3.20031 0
M  V30 14652 N 1384.98 0.581051 1.46498 0
M  V30 14653 C 1386.23 0.07442 2.03264 0
M  V30 14654 C 1386.58 -1.27069 1.44469 0
M  V30 14655 O 1385.87 -1.8197 0.599785 0
M  V30 14656 C 1386.07 -0.0514774 3.57363 0
M  V30 14657 C 1385.9 1.27988 4.31102 0
M  V30 14658 C 1384.67 1.85358 4.70075 0
M  V30 14659 C 1386.86 2.20268 4.64743 0
M  V30 14660 N 1384.85 3.1225 5.28558 0
M  V30 14661 C 1386.22 3.31746 5.23779 0
M  V30 14662 C 1388.27 2.19969 4.46675 0
M  V30 14663 C 1386.98 4.43056 5.66652 0
M  V30 14664 C 1389 3.30307 4.90562 0
M  V30 14665 C 1388.36 4.40505 5.49667 0
M  V30 14666 H 1384.46 0.0699705 0.778863 0
M  V30 14667 H 1387.05 0.773585 1.78672 0
M  V30 14668 H 1385.22 -0.719807 3.81672 0
M  V30 14669 H 1386.95 -0.562342 4.00774 0
M  V30 14670 H 1383.7 1.3887 4.52782 0
M  V30 14671 H 1384.13 3.76992 5.62322 0
M  V30 14672 H 1388.77 1.36044 4.00315 0
M  V30 14673 H 1386.49 5.27724 6.11991 0
M  V30 14674 H 1390.07 3.31191 4.78334 0
M  V30 14675 H 1388.95 5.24475 5.83006 0
M  V30 14676 N 1386.46 -1.54343 0.318742 0
M  V30 14677 C 1387.39 -2.21652 -0.583351 0
M  V30 14678 C 1388.4 -1.21494 -1.08366 0
M  V30 14679 O 1389.59 -1.4799 -0.998064 0
M  V30 14680 C 1386.69 -2.86349 -1.81266 0
M  V30 14681 C 1385.86 -4.12601 -1.45186 0
M  V30 14682 C 1384.92 -4.60937 -2.53818 0
M  V30 14683 O 1383.95 -5.25731 -2.18164 0
M  V30 14684 N 1385.15 -4.34755 -3.84667 0
M  V30 14685 H 1387.92 -2.99699 -0.00703539 0
M  V30 14686 H 1385.48 -1.61278 0.141728 0
M  V30 14687 H 1387.47 -3.15611 -2.53321 0
M  V30 14688 H 1386.04 -2.12037 -2.29693 0
M  V30 14689 H 1385.26 -3.90157 -0.563143 0
M  V30 14690 H 1386.55 -4.94774 -1.18642 0
M  V30 14691 H 1385.95 -3.82883 -4.16434 0
M  V30 14692 H 1384.5 -4.68683 -4.52967 0
M  V30 14693 N 1387.94 -0.0468143 -1.5753 0
M  V30 14694 C 1389.35 0.489509 -1.80169 0
M  V30 14695 C 1389.7 1.71184 -0.958669 0
M  V30 14696 O 1388.82 2.15699 -0.174025 0
M  V30 14697 C 1389.42 0.894838 -3.26769 0
M  V30 14698 C 1387.98 1.37617 -3.50341 0
M  V30 14699 C 1387.12 0.349275 -2.75092 0
M  V30 14700 H 1390.07 -0.272728 -1.56339 0
M  V30 14701 H 1390.1 1.75805 -3.3745 0
M  V30 14702 H 1389.61 0.00501096 -3.881 0
M  V30 14703 H 1387.71 2.28533 -2.94285 0
M  V30 14704 H 1387.82 1.37133 -4.59055 0
M  V30 14705 H 1386.19 0.821219 -2.41098 0
M  V30 14706 H 1386.97 -0.532391 -3.39147 0
M  V30 14707 N 1389.41 1.55964 0.226527 0
M  V30 14708 C 1390.83 1.68978 0.793936 0
M  V30 14709 C 1391.18 0.647938 1.85192 0
M  V30 14710 O 1390.3 -0.201907 2.15456 0
M  V30 14711 C 1390.9 3.06351 1.44687 0
M  V30 14712 C 1389.46 3.21237 1.96173 0
M  V30 14713 C 1388.6 2.64896 0.8201 0
M  V30 14714 H 1391.55 1.587 0.00195967 0
M  V30 14715 H 1391.57 3.01932 2.31554 0
M  V30 14716 H 1391.09 3.82156 0.676611 0
M  V30 14717 H 1389.19 2.50292 2.76016 0
M  V30 14718 H 1389.3 4.28394 2.14512 0
M  V30 14719 H 1387.66 2.23247 1.22609 0
M  V30 14720 H 1388.45 3.43243 0.0625967 0
M  V30 14721 N 1390.89 -0.493031 1.4969 0
M  V30 14722 C 1391.82 -1.60215 1.69863 0
M  V30 14723 C 1392.8 -1.61053 0.547362 0
M  V30 14724 O 1393.99 -1.77667 0.784093 0
M  V30 14725 C 1391.12 -2.98662 1.77252 0
M  V30 14726 C 1390.07 -3.1269 2.92248 0
M  V30 14727 C 1389.4 -4.52567 2.84758 0
M  V30 14728 C 1390.7 -2.91965 4.33074 0
M  V30 14729 H 1392.39 -1.43587 2.62723 0
M  V30 14730 H 1389.94 -0.689334 1.26429 0
M  V30 14731 H 1391.89 -3.7616 1.89951 0
M  V30 14732 H 1390.62 -3.16397 0.809976 0
M  V30 14733 H 1389.27 -2.37619 2.79164 0
M  V30 14734 H 1388.92 -4.6719 1.86394 0
M  V30 14735 H 1388.62 -4.62893 3.61944 0
M  V30 14736 H 1390.15 -5.32116 2.99475 0
M  V30 14737 H 1391.56 -3.59228 4.46798 0
M  V30 14738 H 1389.96 -3.13756 5.11544 0
M  V30 14739 H 1391.03 -1.88015 4.46966 0
M  V30 14740 N 1392.37 -1.38898 -0.744656 0
M  V30 14741 C 1393.6 -1.3903 -1.53901 0
M  V30 14742 C 1394.02 0.0156607 -1.88093 0
M  V30 14743 O 1393.38 1.00012 -1.51219 0
M  V30 14744 C 1393.43 -2.2609 -2.80919 0
M  V30 14745 O 1392.53 -1.68414 -3.76444 0
M  V30 14746 H 1391.87 -0.473854 -0.465144 0
M  V30 14747 H 1394.4 -1.82773 -0.919525 0
M  V30 14748 H 1394.41 -2.40264 -3.29754 0
M  V30 14749 H 1393.09 -3.28271 -2.55364 0
M  V30 14750 H 1391.66 -1.63431 -3.35179 0
M  V30 14751 N 1393.85 0.973806 -1.23914 0
M  V30 14752 C 1394.8 2.05229 -0.993221 0
M  V30 14753 C 1395.78 1.60776 0.0631684 0
M  V30 14754 O 1396.97 1.76365 -0.149794 0
M  V30 14755 C 1394.1 3.38132 -0.593421 0
M  V30 14756 C 1393.19 3.89165 -1.68556 0
M  V30 14757 N 1393.58 4.13203 -2.91714 0
M  V30 14758 C 1391.88 4.17765 -1.56167 0
M  V30 14759 C 1392.58 4.54961 -3.62471 0
M  V30 14760 N 1391.56 4.59778 -2.90009 0
M  V30 14761 H 1395.36 2.21781 -1.92848 0
M  V30 14762 H 1392.87 1.15711 -1.1395 0
M  V30 14763 H 1394.87 4.14991 -0.398491 0
M  V30 14764 H 1393.53 3.2297 0.33472 0
M  V30 14765 H 1394.54 4.00832 -3.27954 0
M  V30 14766 H 1391.22 4.11571 -0.701112 0
M  V30 14767 H 1392.61 4.82022 -4.68085 0
M  V30 14768 N 1395.33 1.05191 1.17357 0
M  V30 14769 C 1396.27 0.646796 2.23426 0
M  V30 14770 C 1397.27 -0.331918 1.66116 0
M  V30 14771 O 1398.47 -0.197982 1.78908 0
M  V30 14772 H 1394.85 0.190988 0.727343 0
M  V30 14773 H 1396.82 1.55152 2.54893 0
M  V30 14774 C 1395.57 0.037505 3.4768 0
M  V30 14775 H 1394.89 0.781686 3.92084 0
M  V30 14776 H 1396.33 -0.20858 4.23487 0
M  V30 14777 C 1394.79 -1.21581 3.14197 0
M  V30 14778 O 1395.32 -2.3052 3.28973 0
M  V30 14779 N 1393.53 -1.11346 2.68422 0
M  V30 14780 H 1393.07 -0.226943 2.56598 0
M  V30 14781 H 1393.03 -1.95291 2.46392 0
M  V30 14782 N 1396.8 -1.33791 0.83293 0
M  V30 14783 C 1398.05 -1.97582 0.42494 0
M  V30 14784 C 1398.37 -1.66328 -1.01784 0
M  V30 14785 O 1397.64 -0.959141 -1.70814 0
M  V30 14786 H 1396.22 -0.730923 0.154143 0
M  V30 14787 H 1398.89 -1.63257 1.06458 0
M  V30 14788 H 1397.98 -3.07177 0.552127 0
M  V30 14789 N 1398.28 -0.588812 -1.46187 0
M  V30 14790 C 1399.53 -0.0768417 -2.02654 0
M  V30 14791 C 1399.86 1.28213 -1.4586 0
M  V30 14792 O 1399.14 1.8415 -0.626022 0
M  V30 14793 C 1399.42 -0.0176429 -3.60096 0
M  V30 14794 C 1399.27 -1.40595 -4.27262 0
M  V30 14795 C 1400.59 0.679864 -4.34817 0
M  V30 14796 H 1397.71 -0.0293981 -0.736413 0
M  V30 14797 H 1400.35 -0.757183 -1.74261 0
M  V30 14798 H 1398.5 0.56174 -3.84417 0
M  V30 14799 H 1400.17 -2.03097 -4.14185 0
M  V30 14800 H 1398.42 -1.97196 -3.86388 0
M  V30 14801 H 1399.09 -1.31694 -5.3606 0
M  V30 14802 H 1401.56 0.1876 -4.15677 0
M  V30 14803 H 1400.44 0.690333 -5.44542 0
M  V30 14804 H 1400.7 1.74237 -4.06318 0
M  V30 14805 N 1399.76 1.54172 -0.326923 0
M  V30 14806 C 1400.69 2.27402 0.530154 0
M  V30 14807 C 1401.67 1.28325 1.11655 0
M  V30 14808 O 1402.86 1.57142 1.14105 0
M  V30 14809 C 1399.99 3.03435 1.68951 0
M  V30 14810 C 1398.94 4.09877 1.23226 0
M  V30 14811 C 1398.27 4.7377 2.47882 0
M  V30 14812 C 1399.57 5.21161 0.344698 0
M  V30 14813 H 1401.26 2.99291 -0.0806959 0
M  V30 14814 H 1398.81 1.43944 -0.0402511 0
M  V30 14815 H 1400.76 3.53396 2.29541 0
M  V30 14816 H 1399.48 2.29169 2.327 0
M  V30 14817 H 1398.14 3.60805 0.649267 0
M  V30 14818 H 1397.79 3.96116 3.10002 0
M  V30 14819 H 1397.49 5.45674 2.17977 0
M  V30 14820 H 1399.01 5.26507 3.09229 0
M  V30 14821 H 1400.43 5.66859 0.856979 0
M  V30 14822 H 1398.83 5.99941 0.138276 0
M  V30 14823 H 1399.9 4.80874 -0.623575 0
M  V30 14824 N 1401.24 0.0551678 1.57503 0
M  V30 14825 C 1402.47 -0.6272 1.97164 0
M  V30 14826 C 1402.88 -1.64143 0.932876 0
M  V30 14827 O 1402.24 -1.82314 -0.0824465 0
M  V30 14828 C 1402.29 -1.31057 3.36907 0
M  V30 14829 O 1402.01 -0.336951 4.36802 0
M  V30 14830 C 1403.51 -2.08232 3.91349 0
M  V30 14831 H 1400.73 -0.171196 0.648793 0
M  V30 14832 H 1403.28 0.122651 2.04132 0
M  V30 14833 H 1401.43 -2.01162 3.31078 0
M  V30 14834 H 1401.84 -0.825204 5.17968 0
M  V30 14835 H 1403.32 -2.51463 4.91397 0
M  V30 14836 H 1403.8 -2.93212 3.26991 0
M  V30 14837 H 1404.4 -1.43029 4.00528 0
M  V30 14838 N 1402.72 -1.56081 -0.218252 0
M  V30 14839 C 1403.96 -1.78893 -0.940296 0
M  V30 14840 C 1404.29 -0.62425 -1.84738 0
M  V30 14841 O 1403.56 0.358686 -1.92588 0
M  V30 14842 H 1402.14 -0.659828 -0.350193 0
M  V30 14843 H 1404.8 -1.93546 -0.229316 0
M  V30 14844 H 1403.89 -2.71167 -1.54516 0
M  V30 14845 N 1404.2 0.485086 -1.49949 0
M  V30 14846 C 1405.43 1.25996 -1.63733 0
M  V30 14847 C 1405.83 1.8657 -0.31435 0
M  V30 14848 O 1405.18 1.69336 0.71211 0
M  V30 14849 C 1405.24 2.41842 -2.65994 0
M  V30 14850 C 1404.9 2.02014 -4.09926 0
M  V30 14851 C 1405.9 1.55068 -4.96236 0
M  V30 14852 C 1403.58 2.11162 -4.55759 0
M  V30 14853 C 1405.58 1.17796 -6.26421 0
M  V30 14854 C 1403.27 1.73501 -5.85953 0
M  V30 14855 C 1404.26 1.26894 -6.71109 0
M  V30 14856 O 1403.95 0.89749 -7.98874 0
M  V30 14857 H 1403.68 0.387743 -0.553743 0
M  V30 14858 H 1406.24 0.5871 -1.96831 0
M  V30 14859 H 1404.47 3.12254 -2.2811 0
M  V30 14860 H 1406.16 3.03837 -2.69143 0
M  V30 14861 H 1406.92 1.47434 -4.62048 0
M  V30 14862 H 1402.8 2.46389 -3.89633 0
M  V30 14863 H 1406.35 0.813467 -6.92841 0
M  V30 14864 H 1402.24 1.8079 -6.19665 0
M  V30 14865 H 1403.01 1.02757 -8.12024 0
M  V30 14866 N 1405.67 1.39291 0.737279 0
M  V30 14867 C 1406.92 1.36592 1.49901 0
M  V30 14868 C 1407.25 -0.0388812 1.94161 0
M  V30 14869 O 1406.53 -1.00337 1.66622 0
M  V30 14870 C 1406.81 2.33625 2.74028 0
M  V30 14871 C 1406.66 3.83037 2.35802 0
M  V30 14872 C 1407.98 2.28524 3.76118 0
M  V30 14873 H 1405.1 0.497482 0.543765 0
M  V30 14874 H 1407.74 1.70265 0.843193 0
M  V30 14875 H 1405.89 2.0504 3.29986 0
M  V30 14876 H 1407.57 4.22363 1.85493 0
M  V30 14877 H 1405.81 3.99924 1.68058 0
M  V30 14878 H 1406.48 4.46415 3.24681 0
M  V30 14879 H 1408.96 2.53794 3.29739 0
M  V30 14880 H 1407.83 2.98501 4.60639 0
M  V30 14881 H 1408.09 1.28949 4.22876 0
M  V30 14882 N 1407.15 -0.967221 1.24429 0
M  V30 14883 C 1408.08 -2.07966 1.06172 0
M  V30 14884 C 1409.06 -1.70081 -0.0254566 0
M  V30 14885 O 1410.25 -1.93682 0.141705 0
M  V30 14886 C 1407.38 -3.4085 0.666251 0
M  V30 14887 C 1406.33 -3.92692 1.70225 0
M  V30 14888 C 1405.66 -5.21925 1.16183 0
M  V30 14889 C 1406.96 -4.20478 3.09831 0
M  V30 14890 H 1408.65 -2.23497 1.99222 0
M  V30 14891 H 1406.2 -1.07398 0.959255 0
M  V30 14892 H 1408.15 -4.1811 0.52552 0
M  V30 14893 H 1406.87 -3.2522 -0.299939 0
M  V30 14894 H 1405.53 -3.17588 1.83121 0
M  V30 14895 H 1405.18 -5.02655 0.186237 0
M  V30 14896 H 1404.88 -5.57579 1.85416 0
M  V30 14897 H 1406.41 -6.01795 1.03323 0
M  V30 14898 H 1407.82 -4.88442 3.00162 0
M  V30 14899 H 1406.22 -4.67362 3.7642 0
M  V30 14900 H 1407.29 -3.27235 3.57834 0
M  V30 14901 N 1408.63 -1.05812 -1.16797 0
M  V30 14902 C 1409.85 -0.792518 -1.91661 0
M  V30 14903 C 1410.28 0.646598 -1.76637 0
M  V30 14904 O 1409.64 1.44998 -1.08836 0
M  V30 14905 C 1409.69 -1.18585 -3.40544 0
M  V30 14906 O 1408.79 -0.321716 -4.11143 0
M  V30 14907 H 1408.13 -0.290066 -0.597292 0
M  V30 14908 H 1410.66 -1.41263 -1.48007 0
M  V30 14909 H 1410.67 -1.1553 -3.91301 0
M  V30 14910 H 1409.35 -2.23413 -3.50798 0
M  V30 14911 H 1407.92 -0.413403 -3.70601 0
M  V30 14912 N 1410.11 1.33347 -0.840014 0
M  V30 14913 C 1411.34 2.01659 -0.449141 0
M  V30 14914 C 1411.75 1.63353 0.954597 0
M  V30 14915 O 1411.09 0.843303 1.632 0
M  V30 14916 C 1411.15 3.56124 -0.491497 0
M  V30 14917 C 1410.81 4.17812 -1.85155 0
M  V30 14918 C 1411.81 4.37101 -2.81494 0
M  V30 14919 C 1409.5 4.54211 -2.1447 0
M  V30 14920 C 1411.49 4.91938 -4.05309 0
M  V30 14921 C 1409.18 5.08756 -3.38542 0
M  V30 14922 C 1410.18 5.27566 -4.33778 0
M  V30 14923 O 1409.86 5.8095 -5.55655 0
M  V30 14924 H 1409.6 0.652553 -0.176494 0
M  V30 14925 H 1412.15 1.71228 -1.13447 0
M  V30 14926 H 1410.38 3.85887 0.250613 0
M  V30 14927 H 1412.07 4.05728 -0.118288 0
M  V30 14928 H 1412.83 4.09328 -2.60146 0
M  V30 14929 H 1408.71 4.38864 -1.41135 0
M  V30 14930 H 1412.26 5.06536 -4.79654 0
M  V30 14931 H 1408.15 5.3596 -3.59746 0
M  V30 14932 H 1408.92 5.99363 -5.5741 0
M  V30 14933 N 1411.59 0.596556 1.45873 0
M  V30 14934 C 1412.54 -0.14991 2.27507 0
M  V30 14935 C 1413.52 -0.848942 1.36681 0
M  V30 14936 O 1414.71 -0.740752 1.60754 0
M  V30 14937 C 1411.84 -1.15391 3.23326 0
M  V30 14938 C 1410.93 -0.456283 4.21638 0
M  V30 14939 N 1411.32 0.495911 5.03363 0
M  V30 14940 C 1409.62 -0.705263 4.40389 0
M  V30 14941 C 1410.32 0.904941 5.74618 0
M  V30 14942 N 1409.29 0.251069 5.4302 0
M  V30 14943 H 1413.09 0.581593 2.88088 0
M  V30 14944 H 1410.61 0.419386 1.56891 0
M  V30 14945 H 1412.61 -1.70299 3.80531 0
M  V30 14946 H 1411.27 -1.88609 2.64305 0
M  V30 14947 H 1412.28 0.872126 5.10504 0
M  V30 14948 H 1408.95 -1.42296 3.92502 0
M  V30 14949 H 1410.34 1.68965 6.50308 0
M  V30 14950 N 1413.06 -1.53996 0.335095 0
M  V30 14951 C 1414.47 -1.86092 -0.15058 0
M  V30 14952 C 1414.83 -1.25652 -1.50685 0
M  V30 14953 O 1413.95 -0.566887 -2.08843 0
M  V30 14954 C 1414.55 -3.37641 -0.280007 0
M  V30 14955 C 1413.1 -3.69645 -0.709907 0
M  V30 14956 C 1412.25 -2.7683 0.161461 0
M  V30 14957 H 1415.2 -1.4868 0.554986 0
M  V30 14958 H 1415.22 -3.63981 -1.10896 0
M  V30 14959 H 1414.74 -3.81601 0.707254 0
M  V30 14960 H 1412.84 -3.31224 -1.7065 0
M  V30 14961 H 1412.95 -4.76424 -0.505661 0
M  V30 14962 H 1411.31 -2.52073 -0.364849 0
M  V30 14963 H 1412.1 -3.23618 1.1457 0
M  V30 14964 N 1414.54 -0.0635198 -1.57472 0
M  V30 14965 C 1415.47 0.90431 -2.15278 0
M  V30 14966 C 1416.45 1.31609 -1.07764 0
M  V30 14967 O 1417.64 1.38861 -1.35762 0
M  V30 14968 C 1414.77 2.17483 -2.70774 0
M  V30 14969 C 1413.72 1.90272 -3.8338 0
M  V30 14970 C 1413.05 3.23885 -4.25444 0
M  V30 14971 C 1414.35 1.21454 -5.07983 0
M  V30 14972 H 1416.04 0.422786 -2.964 0
M  V30 14973 H 1413.59 0.201918 -1.42577 0
M  V30 14974 H 1415.54 2.856 -3.09856 0
M  V30 14975 H 1414.26 2.67863 -1.86861 0
M  V30 14976 H 1412.92 1.24564 -3.44789 0
M  V30 14977 H 1412.57 3.72089 -3.38465 0
M  V30 14978 H 1412.27 3.06472 -5.01347 0
M  V30 14979 H 1413.8 3.93212 -4.67137 0
M  V30 14980 H 1415.21 1.79625 -5.44433 0
M  V30 14981 H 1413.61 1.14327 -5.89109 0
M  V30 14982 H 1414.68 0.19238 -4.84518 0
M  V30 14983 N 1416.02 1.56195 0.209972 0
M  V30 14984 C 1417.3 1.70553 0.957653 0
M  V30 14985 C 1417.68 0.614091 2.01971 0
M  V30 14986 O 1417.02 -0.377192 2.25365 0
M  V30 14987 C 1417.23 3.12314 1.55759 0
M  V30 14988 C 1418.58 3.72085 2.04543 0
M  V30 14989 O 1419.61 3.15349 1.65631 0
M  V30 14990 O 1418.47 4.71627 2.76099 0
M  V30 14991 H 1415.56 0.695077 0.448104 0
M  V30 14992 H 1418.11 1.68507 0.20084 0
M  V30 14993 H 1416.88 3.83215 0.791302 0
M  V30 14994 H 1416.5 3.18526 2.37964 0
M  V30 14995 N 1417.5 -0.477127 1.50204 0
M  V30 14996 C 1418.41 -1.60182 1.71403 0
M  V30 14997 C 1419.42 -1.63437 0.597009 0
M  V30 14998 O 1420.6 -1.81418 0.874614 0
M  V30 14999 C 1417.66 -2.96432 1.79802 0
M  V30 15000 C 1416.73 -3.03614 3.03508 0
M  V30 15001 C 1415.96 -4.33365 3.11497 0
M  V30 15002 O 1416.18 -5.23529 2.26438 0
M  V30 15003 O 1415.12 -4.46013 4.04173 0
M  V30 15004 H 1418.94 -1.45221 2.66729 0
M  V30 15005 H 1416.53 -0.655982 1.34228 0
M  V30 15006 H 1418.41 -3.77367 1.87542 0
M  V30 15007 H 1417.08 -3.11605 0.876581 0
M  V30 15008 H 1415.99 -2.21779 3.01272 0
M  V30 15009 H 1417.32 -2.93376 3.95211 0
M  V30 15010 N 1418.98 -1.3968 -0.729882 0
M  V30 15011 C 1420.22 -1.36911 -1.4866 0
M  V30 15012 C 1420.55 0.0326011 -1.94973 0
M  V30 15013 O 1419.82 0.984789 -1.69348 0
M  V30 15014 H 1418.4 -0.503848 -0.551495 0
M  V30 15015 H 1421.06 -1.74596 -0.866155 0
M  V30 15016 H 1420.15 -2.03504 -2.36628 0
M  V30 15017 N 1420.45 0.960609 -1.2494 0
M  V30 15018 C 1421.7 1.70111 -1.09117 0
M  V30 15019 C 1422.02 1.91466 0.369544 0
M  V30 15020 O 1421.29 1.49749 1.26302 0
M  V30 15021 H 1419.87 0.630372 -0.400799 0
M  V30 15022 H 1422.54 1.15525 -1.56971 0
M  V30 15023 H 1421.63 2.68277 -1.5948 0
M  V30 15024 N 1421.93 1.0643 1.16234 0
M  V30 15025 C 1422.88 0.676311 2.20669 0
M  V30 15026 C 1423.85 -0.327721 1.62835 0
M  V30 15027 O 1425.03 -0.216296 1.8957 0
M  V30 15028 C 1422.17 0.0703726 3.45028 0
M  V30 15029 C 1421.29 1.12475 4.17101 0
M  V30 15030 C 1420.42 0.484806 5.28983 0
M  V30 15031 C 1419.46 1.52262 5.9286 0
M  V30 15032 N 1418.6 0.905938 6.96231 0
M  V30 15033 H 1423.44 1.57129 2.53209 0
M  V30 15034 H 1420.98 0.7856 1.24365 0
M  V30 15035 H 1422.93 -0.298488 4.16131 0
M  V30 15036 H 1421.56 -0.788002 3.13034 0
M  V30 15037 H 1420.62 1.6113 3.44589 0
M  V30 15038 H 1421.93 1.91202 4.60698 0
M  V30 15039 H 1421.08 0.0630553 6.06667 0
M  V30 15040 H 1419.82 -0.334332 4.86553 0
M  V30 15041 H 1418.83 1.95425 5.13896 0
M  V30 15042 H 1420.05 2.34388 6.37369 0
M  V30 15043 H 1418 0.107536 6.55912 0
M  V30 15044 H 1417.91 1.63058 7.38206 0
M  V30 15045 H 1419.18 0.509378 7.77834 0
M  V30 15046 N 1423.41 -1.329 0.847073 0
M  V30 15047 C 1424.66 -1.9712 0.445872 0
M  V30 15048 C 1424.98 -1.67398 -1.00014 0
M  V30 15049 O 1424.25 -0.977204 -1.69787 0
M  V30 15050 H 1422.83 -0.729247 0.161887 0
M  V30 15051 H 1425.49 -1.62118 1.08184 0
M  V30 15052 H 1424.59 -3.06575 0.584676 0
M  V30 15053 N 1424.89 -0.604284 -1.45555 0
M  V30 15054 C 1425.82 0.154579 -2.28678 0
M  V30 15055 C 1426.83 0.83491 -1.39761 0
M  V30 15056 O 1428.02 0.700852 -1.64166 0
M  V30 15057 C 1425.12 1.2397 -3.15412 0
M  V30 15058 C 1424.3 0.647128 -4.32586 0
M  V30 15059 C 1423.35 1.62272 -5.00554 0
M  V30 15060 O 1422.38 1.15031 -5.57455 0
M  V30 15061 N 1423.58 2.9571 -4.99536 0
M  V30 15062 H 1426.35 -0.558668 -2.94447 0
M  V30 15063 H 1423.91 -0.443538 -1.55706 0
M  V30 15064 H 1425.9 1.89209 -3.57746 0
M  V30 15065 H 1424.47 1.85552 -2.51574 0
M  V30 15066 H 1423.69 -0.183261 -3.93774 0
M  V30 15067 H 1424.98 0.231394 -5.08274 0
M  V30 15068 H 1424.38 3.36695 -4.54591 0
M  V30 15069 H 1422.93 3.56381 -5.45744 0
M  V30 15070 N 1426.37 1.53816 -0.343257 0
M  V30 15071 C 1427.3 2.27951 0.506005 0
M  V30 15072 C 1428.28 1.29502 1.10287 0
M  V30 15073 O 1429.46 1.58344 1.12432 0
M  V30 15074 C 1426.59 3.0521 1.65723 0
M  V30 15075 C 1425.55 4.11161 1.18871 0
M  V30 15076 C 1424.87 4.76373 2.42843 0
M  V30 15077 C 1426.17 5.21498 0.289403 0
M  V30 15078 H 1427.87 2.99189 -0.112435 0
M  V30 15079 H 1425.41 1.43893 -0.055516 0
M  V30 15080 H 1427.37 3.55811 2.2578 0
M  V30 15081 H 1426.09 2.31624 2.30256 0
M  V30 15082 H 1424.75 3.61473 0.610962 0
M  V30 15083 H 1424.4 3.99381 3.05784 0
M  V30 15084 H 1424.1 5.47955 2.12177 0
M  V30 15085 H 1425.62 5.29758 3.03627 0
M  V30 15086 H 1427.03 5.67736 0.796808 0
M  V30 15087 H 1425.43 6.00054 0.0746366 0
M  V30 15088 H 1426.5 4.80185 -0.674543 0
M  V30 15089 N 1427.84 0.0718701 1.57436 0
M  V30 15090 C 1429.07 -0.609701 1.98236 0
M  V30 15091 C 1429.49 -1.6235 0.949959 0
M  V30 15092 O 1428.85 -1.81103 -0.0844281 0
M  V30 15093 C 1428.9 -1.2547 3.38068 0
M  V30 15094 O 1428 -2.37055 3.37459 0
M  V30 15095 H 1427.35 -0.15679 0.645223 0
M  V30 15096 H 1429.88 0.146407 2.04076 0
M  V30 15097 H 1429.89 -1.60152 3.75254 0
M  V30 15098 H 1428.56 -0.511842 4.12738 0
M  V30 15099 H 1427.14 -2.04165 3.12043 0
M  V30 15100 N 1429.32 -1.56304 -0.201686 0
M  V30 15101 C 1430.57 -1.80237 -0.923093 0
M  V30 15102 C 1430.9 -0.643994 -1.83529 0
M  V30 15103 O 1430.15 0.370613 -1.92159 0
M  V30 15104 C 1430.45 -3.10101 -1.77686 0
M  V30 15105 C 1430.12 -4.393 -1.0162 0
M  V30 15106 C 1428.78 -4.74399 -0.806161 0
M  V30 15107 C 1431.13 -5.1898 -0.480515 0
M  V30 15108 C 1428.46 -5.8668 -0.0488423 0
M  V30 15109 C 1430.81 -6.32051 0.26356 0
M  V30 15110 C 1429.48 -6.65738 0.484679 0
M  V30 15111 H 1428.75 -0.659533 -0.337784 0
M  V30 15112 H 1431.39 -1.90556 -0.189895 0
M  V30 15113 H 1429.7 -2.9499 -2.57853 0
M  V30 15114 H 1431.39 -3.25823 -2.33753 0
M  V30 15115 H 1427.98 -4.11751 -1.18992 0
M  V30 15116 H 1432.17 -4.92283 -0.630208 0
M  V30 15117 H 1427.42 -6.11256 0.13251 0
M  V30 15118 H 1431.6 -6.93012 0.686058 0
M  V30 15119 H 1429.23 -7.52583 1.07341 0
M  V30 15120 N 1430.8 0.469154 -1.50455 0
M  V30 15121 C 1431.75 1.58765 -1.6999 0
M  V30 15122 C 1432.74 1.59673 -0.56577 0
M  V30 15123 O 1433.95 1.63799 -0.74632 0
M  V30 15124 H 1430.32 0.526868 -0.536577 0
M  V30 15125 H 1432.29 1.39451 -2.6381 0
M  V30 15126 C 1431.04 2.9669 -1.81302 0
M  V30 15127 H 1430.37 2.96711 -2.67961 0
M  V30 15128 H 1431.81 3.74403 -1.98994 0
M  V30 15129 C 1430.27 3.32127 -0.565086 0
M  V30 15130 O 1430.8 4.00616 0.294873 0
M  V30 15131 N 1429 2.8757 -0.418537 0
M  V30 15132 H 1428.55 2.32008 -1.11938 0
M  V30 15133 H 1428.51 3.11645 0.415276 0
M  V30 15134 N 1432.28 1.40065 0.722464 0
M  V30 15135 C 1433.21 1.42532 1.84951 0
M  V30 15136 C 1434.19 0.287082 1.6766 0
M  V30 15137 O 1435.37 0.494715 1.87793 0
M  V30 15138 C 1432.5 1.28041 3.22836 0
M  V30 15139 C 1431.46 2.39396 3.54787 0
M  V30 15140 C 1430.78 2.09986 4.91742 0
M  V30 15141 C 1432.08 3.81729 3.56483 0
M  V30 15142 H 1433.78 2.36851 1.83144 0
M  V30 15143 H 1431.32 1.14005 0.879714 0
M  V30 15144 H 1433.28 1.28385 4.01367 0
M  V30 15145 H 1432 0.301947 3.25201 0
M  V30 15146 H 1430.66 2.3829 2.78592 0
M  V30 15147 H 1430.31 1.10547 4.90702 0
M  V30 15148 H 1430.01 2.84586 5.14086 0
M  V30 15149 H 1431.53 2.12 5.72615 0
M  V30 15150 H 1432.95 3.84696 4.25067 0
M  V30 15151 H 1431.34 4.55791 3.90351 0
M  V30 15152 H 1432.41 4.11807 2.56014 0
M  V30 15153 N 1433.76 -0.95397 1.25448 0
M  V30 15154 C 1435.17 -1.22516 1.02284 0
M  V30 15155 C 1435.37 -1.99816 -0.259933 0
M  V30 15156 O 1434.43 -2.33022 -0.972479 0
M  V30 15157 C 1435.74 -1.9989 2.24643 0
M  V30 15158 C 1437.29 -2.1293 2.29412 0
M  V30 15159 C 1437.77 -2.93703 3.51429 0
M  V30 15160 N 1439.26 -3.01281 3.51829 0
M  V30 15161 C 1439.99 -3.64174 4.42905 0
M  V30 15162 N 1439.49 -4.28673 5.44253 0
M  V30 15163 N 1441.28 -3.61321 4.30585 0
M  V30 15164 H 1433.43 -0.436859 2.07859 0
M  V30 15165 H 1435.69 -0.255744 0.912852 0
M  V30 15166 H 1435.4 -1.50489 3.17877 0
M  V30 15167 H 1435.27 -3.00593 2.27868 0
M  V30 15168 H 1437.66 -2.61528 1.367 0
M  V30 15169 H 1437.74 -1.1153 2.30206 0
M  V30 15170 H 1437.39 -2.45795 4.44463 0
M  V30 15171 H 1437.32 -3.95331 3.47881 0
M  V30 15172 H 1439.81 -2.55414 2.78517 0
M  V30 15173 H 1440.12 -4.74522 6.09958 0
M  V30 15174 H 1438.47 -4.27299 5.48125 0
M  V30 15175 H 1441.66 -3.10118 3.50634 0
M  V30 15176 H 1441.83 -4.1005 5.0176 0
M  V30 15177 N 1435.24 -1.07045 -1.15668 0
M  V30 15178 C 1436.51 -0.704942 -1.82455 0
M  V30 15179 C 1436.89 0.812921 -1.9482 0
M  V30 15180 O 1436.24 1.72615 -1.49721 0
M  V30 15181 C 1436.45 -1.41574 -3.18995 0
M  V30 15182 C 1437.8 -1.56584 -3.94673 0
M  V30 15183 O 1438.82 -1.37626 -3.28538 0
M  V30 15184 O 1437.68 -1.87751 -5.13237 0
M  V30 15185 H 1434.78 -0.250469 -0.788159 0
M  V30 15186 H 1437.32 -1.17118 -1.22806 0
M  V30 15187 H 1436.09 -2.4504 -3.05075 0
M  V30 15188 H 1435.72 -0.940071 -3.86327 0
M  V30 15189 N 1436.71 1.32449 -0.85411 0
M  V30 15190 C 1438.12 1.79545 -0.511923 0
M  V30 15191 C 1438.48 1.70534 0.970188 0
M  V30 15192 O 1437.6 1.2636 1.75676 0
M  V30 15193 C 1438.2 3.26 -0.922456 0
M  V30 15194 C 1436.75 3.71053 -0.632176 0
M  V30 15195 C 1435.9 2.53565 -1.12249 0
M  V30 15196 H 1438.85 1.19755 -1.04137 0
M  V30 15197 H 1438.87 3.79751 -0.238618 0
M  V30 15198 H 1438.39 3.32526 -2.00119 0
M  V30 15199 H 1436.49 3.70042 0.435862 0
M  V30 15200 H 1436.6 4.63878 -1.19809 0
M  V30 15201 H 1434.96 2.48849 -0.542781 0
M  V30 15202 H 1435.75 2.62846 -2.20832 0
M  V30 15203 N 1438.19 0.611994 1.45232 0
M  V30 15204 C 1439.1 -0.105981 2.3436 0
M  V30 15205 C 1440.12 -0.855785 1.515 0
M  V30 15206 O 1441.29 -0.812376 1.84289 0
M  V30 15207 C 1438.36 -1.08794 3.29188 0
M  V30 15208 C 1437.42 -0.339611 4.27955 0
M  V30 15209 C 1436.65 -1.27479 5.18252 0
M  V30 15210 O 1436.88 -2.51279 5.12069 0
M  V30 15211 O 1435.81 -0.769469 5.96961 0
M  V30 15212 H 1439.64 0.626584 2.97166 0
M  V30 15213 H 1437.22 0.37224 1.44688 0
M  V30 15214 H 1439.1 -1.65338 3.8761 0
M  V30 15215 H 1437.78 -1.80145 2.68941 0
M  V30 15216 H 1436.68 0.268408 3.73136 0
M  V30 15217 H 1438.02 0.333501 4.91069 0
M  V30 15218 N 1439.67 -1.53632 0.351409 0
M  V30 15219 C 1440.6 -2.28217 -0.49391 0
M  V30 15220 C 1441.58 -1.30085 -1.09599 0
M  V30 15221 O 1442.77 -1.58938 -1.1159 0
M  V30 15222 C 1439.9 -3.06085 -1.64102 0
M  V30 15223 C 1438.85 -4.11786 -1.16689 0
M  V30 15224 C 1438.18 -4.77654 -2.40314 0
M  V30 15225 C 1439.48 -5.21644 -0.261742 0
M  V30 15226 H 1441.17 -2.99125 0.1283 0
M  V30 15227 H 1438.72 -1.43861 0.0631462 0
M  V30 15228 H 1440.67 -3.57003 -2.2389 0
M  V30 15229 H 1439.39 -2.32842 -2.29025 0
M  V30 15230 H 1438.05 -3.61792 -0.591784 0
M  V30 15231 H 1437.7 -4.00997 -3.03661 0
M  V30 15232 H 1437.4 -5.49072 -2.09268 0
M  V30 15233 H 1438.92 -5.3136 -3.00813 0
M  V30 15234 H 1440.34 -5.6815 -0.766689 0
M  V30 15235 H 1438.73 -6.00085 -0.0428132 0
M  V30 15236 H 1439.8 -4.79821 0.699999 0
M  V30 15237 N 1441.15 -0.0802183 -1.57396 0
M  V30 15238 C 1442.56 0.276428 -1.57188 0
M  V30 15239 C 1442.76 1.69456 -1.09027 0
M  V30 15240 O 1441.82 2.40792 -0.75997 0
M  V30 15241 C 1443.13 0.0784079 -3.00598 0
M  V30 15242 C 1444.68 0.1473 -3.12653 0
M  V30 15243 C 1445.16 -0.0225423 -4.57994 0
M  V30 15244 N 1446.65 0.0327854 -4.63188 0
M  V30 15245 C 1447.38 -0.0740922 -5.73352 0
M  V30 15246 N 1446.88 -0.234966 -6.92401 0
M  V30 15247 N 1448.67 -0.0164241 -5.62098 0
M  V30 15248 H 1440.82 -1.00695 -1.87014 0
M  V30 15249 H 1443.08 -0.393402 -0.862519 0
M  V30 15250 H 1442.79 -0.900488 -3.39977 0
M  V30 15251 H 1442.66 0.82713 -3.6802 0
M  V30 15252 H 1445.05 1.11669 -2.73156 0
M  V30 15253 H 1445.13 -0.632666 -2.47853 0
M  V30 15254 H 1444.78 -0.988733 -4.98183 0
M  V30 15255 H 1444.71 0.776933 -5.20837 0
M  V30 15256 H 1447.2 0.15519 -3.77581 0
M  V30 15257 H 1447.51 -0.308435 -7.72184 0
M  V30 15258 H 1445.86 -0.270439 -6.94474 0
M  V30 15259 H 1449.05 0.108019 -4.67975 0
M  V30 15260 H 1449.22 -0.10317 -6.47918 0
M  V30 15261 N 1442.63 1.56409 0.193394 0
M  V30 15262 C 1443.85 1.84837 0.929676 0
M  V30 15263 C 1444.27 0.662928 1.76779 0
M  V30 15264 O 1443.63 -0.368339 1.78744 0
M  V30 15265 C 1443.68 3.12083 1.82445 0
M  V30 15266 O 1443.4 4.26056 1.02018 0
M  V30 15267 C 1444.9 3.53701 2.67227 0
M  V30 15268 H 1442.12 0.613766 0.271168 0
M  V30 15269 H 1444.66 2.03518 0.200134 0
M  V30 15270 H 1442.82 2.95294 2.5076 0
M  V30 15271 H 1443.23 4.98526 1.63008 0
M  V30 15272 H 1444.71 4.45699 3.25663 0
M  V30 15273 H 1445.18 2.76771 3.41019 0
M  V30 15274 H 1445.79 3.73027 2.04281 0
M  V30 15275 N 1444.1 -0.461169 1.50702 0
M  V30 15276 C 1445.05 -1.55575 1.66675 0
M  V30 15277 C 1446.04 -1.52227 0.521128 0
M  V30 15278 O 1447.23 -1.59083 0.775989 0
M  V30 15279 C 1444.36 -2.93951 1.77336 0
M  V30 15280 C 1443.44 -3.02145 2.97606 0
M  V30 15281 N 1443.84 -2.80131 4.21142 0
M  V30 15282 C 1442.13 -3.33289 2.96369 0
M  V30 15283 C 1442.83 -2.93549 5.02199 0
M  V30 15284 N 1441.81 -3.24184 4.36355 0
M  V30 15285 H 1445.61 -1.3727 2.59874 0
M  V30 15286 H 1443.13 -0.668078 1.48022 0
M  V30 15287 H 1445.12 -3.72666 1.86884 0
M  V30 15288 H 1443.78 -3.13295 0.853023 0
M  V30 15289 H 1444.79 -2.55519 4.50478 0
M  V30 15290 H 1441.47 -3.58558 2.13875 0
M  V30 15291 H 1442.86 -2.80685 6.10463 0
M  V30 15292 N 1445.58 -1.40446 -0.715026 0
M  V30 15293 C 1446.53 -1.40931 -1.85044 0
M  V30 15294 C 1447.52 -0.289745 -1.66904 0
M  V30 15295 O 1448.73 -0.460809 -1.74002 0
M  V30 15296 H 1445.1 -0.440534 -0.609454 0
M  V30 15297 H 1447.08 -2.36662 -1.81752 0
M  V30 15298 C 1445.82 -1.28933 -3.22911 0
M  V30 15299 H 1445.15 -2.14359 -3.37476 0
M  V30 15300 H 1446.59 -1.33331 -4.02491 0
M  V30 15301 C 1445.05 0.000379936 -3.369 0
M  V30 15302 O 1445.58 0.963093 -3.89984 0
M  V30 15303 N 1443.78 0.0700649 -2.90516 0
M  V30 15304 H 1443.33 -0.714088 -2.47505 0
M  V30 15305 H 1443.29 0.932457 -3.00254 0
M  V30 15306 N 1447.06 0.947303 -1.25952 0
M  V30 15307 C 1447.99 2.0625 -1.09467 0
M  V30 15308 C 1448.97 1.701 -0.00160498 0
M  V30 15309 O 1450.16 1.93432 -0.172501 0
M  V30 15310 C 1447.29 3.39746 -0.720392 0
M  V30 15311 C 1446.24 3.89935 -1.76451 0
M  V30 15312 C 1445.57 5.2001 -1.24472 0
M  V30 15313 C 1446.87 4.15496 -3.16481 0
M  V30 15314 H 1448.56 2.203 -2.02752 0
M  V30 15315 H 1446.11 1.05858 -0.97622 0
M  V30 15316 H 1448.06 4.17221 -0.591972 0
M  V30 15317 H 1446.78 3.25656 0.248161 0
M  V30 15318 H 1445.44 3.14635 -1.8815 0
M  V30 15319 H 1445.09 5.02295 -0.266182 0
M  V30 15320 H 1444.79 5.54559 -1.94263 0
M  V30 15321 H 1446.31 6.00075 -1.12884 0
M  V30 15322 H 1447.73 4.83605 -3.07894 0
M  V30 15323 H 1446.12 4.61315 -3.83808 0
M  V30 15324 H 1447.19 3.21501 -3.62995 0
M  V30 15325 N 1448.54 1.07657 1.15099 0
M  V30 15326 C 1449.77 0.822825 1.89835 0
M  V30 15327 C 1450.18 -0.624281 1.7818 0
M  V30 15328 O 1449.54 -1.42844 1.13587 0
M  V30 15329 C 1449.59 1.22598 3.40076 0
M  V30 15330 O 1449.31 2.61631 3.51398 0
M  V30 15331 C 1450.81 1.00199 4.31828 0
M  V30 15332 H 1448.03 0.297288 0.601549 0
M  V30 15333 H 1450.58 1.43384 1.45813 0
M  V30 15334 H 1448.73 0.65923 3.8175 0
M  V30 15335 H 1449.14 2.78163 4.44664 0
M  V30 15336 H 1450.62 1.33355 5.35649 0
M  V30 15337 H 1451.1 -0.0614865 4.39157 0
M  V30 15338 H 1451.7 1.5538 3.959 0
M  V30 15339 N 1450.02 -1.31994 0.861122 0
M  V30 15340 C 1451.29 -1.91699 0.388705 0
M  V30 15341 C 1451.67 -1.78412 -1.12838 0
M  V30 15342 O 1451.02 -1.18625 -1.95296 0
M  V30 15343 C 1451.23 -3.38232 0.860248 0
M  V30 15344 C 1452.58 -4.15355 0.881201 0
M  V30 15345 O 1453.6 -3.46977 0.805313 0
M  V30 15346 O 1452.46 -5.37468 0.98945 0
M  V30 15347 H 1449.56 -0.819017 0.114629 0
M  V30 15348 H 1452.1 -1.40721 0.94845 0
M  V30 15349 H 1450.87 -3.41876 1.9036 0
M  V30 15350 H 1450.5 -3.96625 0.278316 0
M  V30 15351 N 1451.49 -0.619688 -1.44906 0
M  V30 15352 C 1452.42 0.0791121 -2.33366 0
M  V30 15353 C 1453.41 0.846503 -1.47541 0
M  V30 15354 O 1454.59 0.814657 -1.76287 0
M  V30 15355 C 1451.72 1.06901 -3.30438 0
M  V30 15356 C 1450.67 0.41403 -4.25993 0
M  V30 15357 C 1450 1.51303 -5.12846 0
M  V30 15358 C 1451.3 -0.672483 -5.17953 0
M  V30 15359 H 1452.99 -0.659551 -2.92045 0
M  V30 15360 H 1450.54 -0.318623 -1.40431 0
M  V30 15361 H 1452.49 1.56653 -3.912 0
M  V30 15362 H 1451.22 1.83842 -2.69944 0
M  V30 15363 H 1449.88 -0.0627315 -3.66546 0
M  V30 15364 H 1449.52 2.27303 -4.48712 0
M  V30 15365 H 1449.22 1.08022 -5.77586 0
M  V30 15366 H 1450.75 2.01258 -5.76479 0
M  V30 15367 H 1452.16 -0.258542 -5.72717 0
M  V30 15368 H 1450.56 -1.02776 -5.91234 0
M  V30 15369 H 1451.63 -1.54425 -4.59653 0
M  V30 15370 N 1452.97 1.53444 -0.359552 0
M  V30 15371 C 1454.2 2.06058 0.235576 0
M  V30 15372 C 1454.62 1.23175 1.42161 0
M  V30 15373 O 1453.98 0.249338 1.79577 0
M  V30 15374 C 1454.03 3.55351 0.613025 0
M  V30 15375 O 1453.13 3.75229 1.71104 0
M  V30 15376 H 1452.47 0.663038 0.0357266 0
M  V30 15377 H 1455 1.97923 -0.518408 0
M  V30 15378 H 1455.01 3.9827 0.885722 0
M  V30 15379 H 1453.69 4.15122 -0.254243 0
M  V30 15380 H 1452.27 3.4421 1.43437 0
M  V30 15381 N 1454.45 0.0885642 1.57351 0
M  V30 15382 C 1455.86 -0.441569 1.81403 0
M  V30 15383 C 1456.21 -1.68582 1.00372 0
M  V30 15384 O 1455.34 -2.15162 0.231153 0
M  V30 15385 C 1455.93 -0.807886 3.29027 0
M  V30 15386 C 1454.49 -1.2828 3.53866 0
M  V30 15387 C 1453.64 -0.276217 2.75921 0
M  V30 15388 H 1456.59 0.314083 1.55561 0
M  V30 15389 H 1456.61 -1.66797 3.41993 0
M  V30 15390 H 1456.12 0.0978886 3.87977 0
M  V30 15391 H 1454.22 -2.2065 3.0024 0
M  V30 15392 H 1454.34 -1.24914 4.62529 0
M  V30 15393 H 1452.7 -0.757007 2.4319 0
M  V30 15394 H 1453.48 0.622123 3.37616 0
M  V30 15395 N 1455.93 -1.56509 -0.185096 0
M  V30 15396 C 1456.88 -1.91742 -1.23366 0
M  V30 15397 C 1457.86 -0.784182 -1.40497 0
M  V30 15398 O 1459.05 -1.04718 -1.42699 0
M  V30 15399 C 1456.18 -2.26903 -2.57624 0
M  V30 15400 C 1455.27 -3.46707 -2.44244 0
M  V30 15401 N 1455.66 -4.64338 -2.00558 0
M  V30 15402 C 1453.96 -3.51042 -2.7511 0
M  V30 15403 C 1454.66 -5.46489 -1.9931 0
M  V30 15404 N 1453.64 -4.87162 -2.41193 0
M  V30 15405 H 1457.44 -2.80184 -0.887378 0
M  V30 15406 H 1454.95 -1.57561 -0.393468 0
M  V30 15407 H 1456.95 -2.50332 -3.33376 0
M  V30 15408 H 1455.61 -1.39792 -2.93067 0
M  V30 15409 H 1456.62 -4.88817 -1.7111 0
M  V30 15410 H 1453.3 -2.74375 -3.14682 0
M  V30 15411 H 1454.69 -6.50726 -1.67349 0
M  V30 15412 N 1457.41 0.45317 -1.50944 0
M  V30 15413 C 1458.34 1.55655 -1.74051 0
M  V30 15414 C 1459.32 1.59545 -0.58987 0
M  V30 15415 O 1460.5 1.75526 -0.830922 0
M  V30 15416 C 1457.63 2.93857 -1.85109 0
M  V30 15417 C 1456.59 3.04832 -3.00435 0
M  V30 15418 C 1455.91 4.44858 -2.96657 0
M  V30 15419 C 1457.21 2.80381 -4.40663 0
M  V30 15420 H 1458.91 1.36571 -2.66437 0
M  V30 15421 H 1456.45 0.655572 -1.28212 0
M  V30 15422 H 1458.41 3.70992 -1.99857 0
M  V30 15423 H 1457.13 3.14138 -0.893579 0
M  V30 15424 H 1455.79 2.30134 -2.85366 0
M  V30 15425 H 1455.44 4.62083 -1.98716 0
M  V30 15426 H 1455.14 4.53134 -3.7409 0
M  V30 15427 H 1456.66 5.23989 -3.13478 0
M  V30 15428 H 1458.07 3.47255 -4.56165 0
M  V30 15429 H 1456.47 3.00083 -5.19683 0
M  V30 15430 H 1457.54 1.76099 -4.51793 0
M  V30 15431 N 1458.88 1.40823 0.707568 0
M  V30 15432 C 1460.3 1.23029 1.01666 0
M  V30 15433 C 1460.5 0.111152 2.01193 0
M  V30 15434 O 1459.56 -0.52836 2.4691 0
M  V30 15435 C 1460.87 2.57509 1.55272 0
M  V30 15436 C 1462.42 2.6459 1.67216 0
M  V30 15437 C 1462.89 3.99357 2.24227 0
M  V30 15438 N 1464.38 4.01141 2.31603 0
M  V30 15439 C 1465.12 5.02211 2.76715 0
M  V30 15440 N 1464.61 6.13674 3.21521 0
M  V30 15441 N 1466.41 4.89577 2.76172 0
M  V30 15442 H 1458.56 2.12346 0.0480107 0
M  V30 15443 H 1460.82 0.944281 0.0838885 0
M  V30 15444 H 1460.53 3.40095 0.896012 0
M  V30 15445 H 1460.4 2.79158 2.53674 0
M  V30 15446 H 1462.79 1.8237 2.32002 0
M  V30 15447 H 1462.87 2.46763 0.673927 0
M  V30 15448 H 1462.51 4.8202 1.6006 0
M  V30 15449 H 1462.44 4.14518 3.2478 0
M  V30 15450 H 1464.93 3.20657 1.99968 0
M  V30 15451 H 1465.25 6.86677 3.54534 0
M  V30 15452 H 1463.59 6.17228 3.1946 0
M  V30 15453 H 1466.78 4.01588 2.40509 0
M  V30 15454 H 1466.96 5.68485 3.11012 0
M  V30 15455 N 1460.36 -0.94061 1.26453 0
M  V30 15456 C 1461.59 -1.71874 1.14643 0
M  V30 15457 C 1462 -1.86791 -0.300969 0
M  V30 15458 O 1461.34 -1.37529 -1.21784 0
M  V30 15459 C 1461.41 -3.14408 1.74321 0
M  V30 15460 C 1461.07 -3.22873 3.23422 0
M  V30 15461 C 1462.07 -3.06107 4.20231 0
M  V30 15462 C 1459.75 -3.46245 3.63895 0
M  V30 15463 C 1461.75 -3.12581 5.55492 0
M  V30 15464 C 1459.43 -3.52354 4.99289 0
M  V30 15465 C 1460.43 -3.35539 5.94897 0
M  V30 15466 O 1460.12 -3.41357 7.27826 0
M  V30 15467 H 1459.85 -0.544931 0.400033 0
M  V30 15468 H 1462.4 -1.18767 1.67581 0
M  V30 15469 H 1460.63 -3.6894 1.15846 0
M  V30 15470 H 1462.32 -3.74135 1.57409 0
M  V30 15471 H 1463.09 -2.87906 3.90302 0
M  V30 15472 H 1458.97 -3.58389 2.89962 0
M  V30 15473 H 1462.51 -2.99374 6.30096 0
M  V30 15474 H 1458.41 -3.70077 5.2888 0
M  V30 15475 H 1459.18 -3.57897 7.36106 0
M  V30 15476 N 1461.84 -1.08266 -1.14527 0
M  V30 15477 C 1463.26 -0.810001 -1.37518 0
M  V30 15478 C 1463.46 0.581399 -1.9293 0
M  V30 15479 O 1462.51 1.33846 -2.14107 0
M  V30 15480 C 1463.83 -1.89149 -2.33759 0
M  V30 15481 C 1465.37 -1.91733 -2.47401 0
M  V30 15482 C 1465.85 -2.98992 -3.4694 0
M  V30 15483 N 1467.34 -2.98155 -3.54483 0
M  V30 15484 C 1468.07 -3.77791 -4.31349 0
M  V30 15485 N 1467.57 -4.67302 -5.11469 0
M  V30 15486 N 1469.36 -3.66099 -4.2653 0
M  V30 15487 H 1461.51 -1.97988 -0.769048 0
M  V30 15488 H 1463.78 -0.859115 -0.40078 0
M  V30 15489 H 1463.48 -2.89175 -2.00176 0
M  V30 15490 H 1463.36 -1.75955 -3.33646 0
M  V30 15491 H 1465.74 -0.923531 -2.80276 0
M  V30 15492 H 1465.83 -2.09005 -1.4748 0
M  V30 15493 H 1465.47 -3.98578 -3.14799 0
M  V30 15494 H 1465.4 -2.78965 -4.46639 0
M  V30 15495 H 1467.89 -2.33277 -2.97305 0
M  V30 15496 H 1468.2 -5.24676 -5.67393 0
M  V30 15497 H 1466.55 -4.71345 -5.10743 0
M  V30 15498 H 1469.74 -2.95539 -3.63008 0
M  V30 15499 H 1469.91 -4.28402 -4.86185 0
M  V30 15500 N 1463.32 1.31536 -0.86811 0
M  V30 15501 C 1464.57 1.96775 -0.47812 0
M  V30 15502 C 1464.89 1.68632 0.9692 0
M  V30 15503 O 1464.15 0.974357 1.6972 0
M  V30 15504 C 1464.45 3.50876 -0.679752 0
M  V30 15505 C 1464.11 3.99034 -2.09958 0
M  V30 15506 C 1462.78 4.11896 -2.48787 0
M  V30 15507 C 1465.13 4.24387 -3.02564 0
M  V30 15508 C 1462.46 4.47461 -3.79468 0
M  V30 15509 C 1464.81 4.61415 -4.32757 0
M  V30 15510 C 1463.47 4.72484 -4.71503 0
M  V30 15511 H 1462.74 0.720049 -0.174957 0
M  V30 15512 H 1465.39 1.56703 -1.10074 0
M  V30 15513 H 1463.69 3.91791 0.0260174 0
M  V30 15514 H 1465.39 3.994 -0.357855 0
M  V30 15515 H 1461.98 3.89518 -1.78811 0
M  V30 15516 H 1466.17 4.13947 -2.73791 0
M  V30 15517 H 1461.42 4.54227 -4.09252 0
M  V30 15518 H 1465.6 4.79985 -5.04566 0
M  V30 15519 H 1463.22 4.99798 -5.72806 0
M  V30 15520 N 1464.8 0.627364 1.44575 0
M  V30 15521 C 1465.73 -0.118179 2.28895 0
M  V30 15522 C 1466.74 -0.812569 1.41071 0
M  V30 15523 O 1467.93 -0.674646 1.6526 0
M  V30 15524 C 1465.03 -1.18937 3.17344 0
M  V30 15525 C 1464.2 -0.578226 4.33561 0
M  V30 15526 C 1463.26 -1.54288 5.03072 0
M  V30 15527 O 1462.29 -1.06148 5.59215 0
M  V30 15528 N 1463.49 -2.87725 5.04177 0
M  V30 15529 H 1466.26 0.605442 2.93521 0
M  V30 15530 H 1463.82 0.468253 1.54981 0
M  V30 15531 H 1465.81 -1.83494 3.60711 0
M  V30 15532 H 1464.38 -1.81526 2.54494 0
M  V30 15533 H 1463.6 0.245883 3.93432 0
M  V30 15534 H 1464.89 -0.150502 5.08577 0
M  V30 15535 H 1464.29 -3.29421 4.5989 0
M  V30 15536 H 1462.84 -3.47653 5.51344 0
M  V30 15537 N 1466.28 -1.53251 0.367684 0
M  V30 15538 C 1467.21 -2.28728 -0.469676 0
M  V30 15539 C 1468.19 -1.3124 -1.08213 0
M  V30 15540 O 1469.37 -1.60112 -1.09898 0
M  V30 15541 C 1466.5 -3.07808 -1.60846 0
M  V30 15542 C 1465.46 -4.13 -1.12315 0
M  V30 15543 C 1464.78 -4.80176 -2.35234 0
M  V30 15544 C 1466.08 -5.21892 -0.2064 0
M  V30 15545 H 1467.78 -2.98972 0.160019 0
M  V30 15546 H 1465.32 -1.43786 0.0784011 0
M  V30 15547 H 1467.27 -3.59358 -2.20091 0
M  V30 15548 H 1466 -2.35258 -2.26542 0
M  V30 15549 H 1464.66 -3.62399 -0.553378 0
M  V30 15550 H 1464.31 -4.04196 -2.99391 0
M  V30 15551 H 1464.01 -5.51261 -2.03433 0
M  V30 15552 H 1465.53 -5.34521 -2.9516 0
M  V30 15553 H 1466.94 -5.68932 -0.706386 0
M  V30 15554 H 1465.34 -6.00096 0.0208362 0
M  V30 15555 H 1466.41 -4.79051 0.750851 0
M  V30 15556 N 1467.75 -0.0969077 -1.57302 0
M  V30 15557 C 1468.69 0.891431 -2.11154 0
M  V30 15558 C 1469.7 1.24482 -1.04919 0
M  V30 15559 O 1470.89 1.19762 -1.3236 0
M  V30 15560 C 1467.99 2.19998 -2.57787 0
M  V30 15561 C 1467.16 2.02165 -3.87876 0
M  V30 15562 C 1466.22 3.16549 -4.20337 0
M  V30 15563 O 1465.25 2.90432 -4.89528 0
M  V30 15564 N 1466.45 4.42369 -3.75885 0
M  V30 15565 H 1469.21 0.431477 -2.96578 0
M  V30 15566 H 1466.77 0.0881458 -1.6166 0
M  V30 15567 H 1468.77 2.95472 -2.76547 0
M  V30 15568 H 1467.34 2.57412 -1.77364 0
M  V30 15569 H 1466.56 1.11011 -3.78246 0
M  V30 15570 H 1467.84 1.87529 -4.7298 0
M  V30 15571 H 1467.24 4.66469 -3.20036 0
M  V30 15572 H 1465.8 5.14787 -3.99797 0
M  V30 15573 N 1469.23 1.56605 0.176793 0
M  V30 15574 C 1470.19 1.95109 1.20271 0
M  V30 15575 C 1471.19 0.83414 1.37473 0
M  V30 15576 O 1472.38 1.10128 1.34972 0
M  V30 15577 C 1469.52 2.24112 2.56878 0
M  V30 15578 H 1470.71 2.86909 0.87312 0
M  V30 15579 H 1468.26 1.50578 0.419033 0
M  V30 15580 H 1469 1.35009 2.94861 0
M  V30 15581 H 1468.78 3.05523 2.45761 0
M  V30 15582 H 1470.27 2.54842 3.30825 0
M  V30 15583 N 1470.71 -0.445159 1.51182 0
M  V30 15584 C 1471.94 -1.21787 1.67259 0
M  V30 15585 C 1472.35 -1.85206 0.366641 0
M  V30 15586 O 1471.71 -1.70376 -0.654095 0
M  V30 15587 C 1471.76 -2.30765 2.78262 0
M  V30 15588 O 1471.48 -1.69942 4.03796 0
M  V30 15589 C 1472.98 -3.21186 3.05539 0
M  V30 15590 H 1470.2 -0.367364 0.561502 0
M  V30 15591 H 1472.75 -0.528415 1.97555 0
M  V30 15592 H 1470.9 -2.9544 2.50587 0
M  V30 15593 H 1471.32 -2.41905 4.65384 0
M  V30 15594 H 1472.79 -3.93805 3.8681 0
M  V30 15595 H 1473.27 -3.81487 2.17634 0
M  V30 15596 H 1473.87 -2.62221 3.34844 0
M  V30 15597 N 1472.19 -1.41197 -0.700089 0
M  V30 15598 C 1473.42 -1.43658 -1.48896 0
M  V30 15599 C 1473.83 -0.0405771 -1.88756 0
M  V30 15600 O 1473.19 0.93909 -1.56484 0
M  V30 15601 C 1473.24 -2.34125 -2.75441 0
M  V30 15602 O 1472.96 -3.68291 -2.37261 0
M  V30 15603 C 1474.46 -2.45342 -3.69218 0
M  V30 15604 H 1471.68 -0.48945 -0.458999 0
M  V30 15605 H 1474.22 -1.85429 -0.862345 0
M  V30 15606 H 1472.38 -1.95674 -3.34351 0
M  V30 15607 H 1472.79 -4.16495 -3.18798 0
M  V30 15608 H 1474.27 -3.12818 -4.54807 0
M  V30 15609 H 1474.74 -1.48327 -4.13395 0
M  V30 15610 H 1475.35 -2.84409 -3.16214 0
M  V30 15611 N 1473.67 0.933891 -1.2695 0
M  V30 15612 C 1474.61 2.03365 -1.09139 0
M  V30 15613 C 1475.58 1.66099 0.00573029 0
M  V30 15614 O 1476.77 1.90166 -0.155425 0
M  V30 15615 C 1473.91 3.37114 -0.738117 0
M  V30 15616 C 1473.02 3.87372 -1.91224 0
M  V30 15617 C 1472.16 5.0954 -1.50141 0
M  V30 15618 C 1471.19 5.52079 -2.64339 0
M  V30 15619 N 1470.33 6.65446 -2.23887 0
M  V30 15620 H 1475.17 2.17932 -2.03248 0
M  V30 15621 H 1472.71 1.0677 -1.01186 0
M  V30 15622 H 1474.67 4.1402 -0.514141 0
M  V30 15623 H 1473.3 3.22373 0.166007 0
M  V30 15624 H 1472.35 3.06801 -2.24894 0
M  V30 15625 H 1473.66 4.14875 -2.76912 0
M  V30 15626 H 1472.81 5.93928 -1.23831 0
M  V30 15627 H 1471.55 4.838 -0.615539 0
M  V30 15628 H 1470.56 4.66244 -2.9137 0
M  V30 15629 H 1471.78 5.79817 -3.53537 0
M  V30 15630 H 1469.73 6.41376 -1.37744 0
M  V30 15631 H 1469.65 6.92573 -3.03116 0
M  V30 15632 H 1470.91 7.53191 -2.00809 0
M  V30 15633 N 1475.14 1.08871 1.13951 0
M  V30 15634 C 1476.05 0.734869 2.22793 0
M  V30 15635 C 1477.07 -0.260699 1.72036 0
M  V30 15636 O 1478.25 -0.103461 2.01134 0
M  V30 15637 C 1475.31 0.154599 3.46355 0
M  V30 15638 C 1474.37 1.20539 4.1203 0
M  V30 15639 C 1473.6 0.652712 5.29694 0
M  V30 15640 O 1473.83 -0.526264 5.67967 0
M  V30 15641 O 1472.76 1.40503 5.85271 0
M  V30 15642 H 1476.59 1.64297 2.55422 0
M  V30 15643 H 1474.17 0.862716 1.21974 0
M  V30 15644 H 1476.05 -0.165962 4.21073 0
M  V30 15645 H 1474.73 -0.726592 3.1544 0
M  V30 15646 H 1473.64 1.57855 3.39164 0
M  V30 15647 H 1474.97 2.05902 4.47063 0
M  V30 15648 N 1476.62 -1.31073 0.875073 0
M  V30 15649 C 1477.87 -1.9613 0.487584 0
M  V30 15650 C 1478.19 -1.69482 -0.964407 0
M  V30 15651 O 1477.46 -1.013 -1.67676 0
M  V30 15652 H 1476.04 -0.725649 0.177319 0
M  V30 15653 H 1478.7 -1.59787 1.11598 0
M  V30 15654 H 1477.8 -3.05265 0.649574 0
M  V30 15655 N 1478.1 -0.635022 -1.4424 0
M  V30 15656 C 1479.51 -0.222982 -1.85364 0
M  V30 15657 C 1479.86 1.22648 -1.5314 0
M  V30 15658 O 1478.99 1.93373 -0.971384 0
M  V30 15659 C 1479.58 -0.397912 -3.36455 0
M  V30 15660 C 1478.14 -0.0403458 -3.76378 0
M  V30 15661 C 1477.29 -0.709451 -2.68071 0
M  V30 15662 H 1480.24 -0.839923 -1.34651 0
M  V30 15663 H 1480.26 0.361996 -3.78774 0
M  V30 15664 H 1479.77 -1.45294 -3.59877 0
M  V30 15665 H 1477.87 1.01279 -3.58571 0
M  V30 15666 H 1477.99 -0.453121 -4.76952 0
M  V30 15667 H 1476.35 -0.144386 -2.5429 0
M  V30 15668 H 1477.13 -1.76715 -2.94324 0
M  V30 15669 N 1479.58 1.53054 -0.375806 0
M  V30 15670 C 1480.83 2.01003 0.210257 0
M  V30 15671 C 1481.15 1.26451 1.48442 0
M  V30 15672 O 1480.42 0.380687 1.92166 0
M  V30 15673 H 1479 0.74263 0.0806861 0
M  V30 15674 H 1481.66 1.8826 -0.504393 0
M  V30 15675 H 1480.76 3.09123 0.430027 0
M  V30 15676 N 1481.06 0.105248 1.57248 0
M  V30 15677 C 1481.97 -0.864007 2.1811 0
M  V30 15678 C 1482.98 -1.30282 1.15337 0
M  V30 15679 O 1484.16 -1.36864 1.4775 0
M  V30 15680 C 1481.22 -2.1014 2.75757 0
M  V30 15681 C 1480.28 -1.71583 3.9352 0
M  V30 15682 C 1479.52 -2.89424 4.48408 0
M  V30 15683 O 1479.74 -4.04449 4.02215 0
M  V30 15684 O 1478.67 -2.67303 5.39289 0
M  V30 15685 H 1482.5 -0.376131 3.01362 0
M  V30 15686 H 1480.09 -0.119643 1.4892 0
M  V30 15687 H 1481.97 -2.82638 3.1256 0
M  V30 15688 H 1480.64 -2.57961 1.95545 0
M  V30 15689 H 1479.55 -0.962347 3.6151 0
M  V30 15690 H 1480.88 -1.28517 4.75126 0
M  V30 15691 N 1482.53 -1.56697 -0.168486 0
M  V30 15692 C 1483.5 -1.95744 -1.19235 0
M  V30 15693 C 1484.5 -0.841419 -1.37028 0
M  V30 15694 O 1485.69 -1.10842 -1.34386 0
M  V30 15695 C 1482.82 -2.25471 -2.55686 0
M  V30 15696 H 1484.01 -2.87368 -0.857892 0
M  V30 15697 H 1481.57 -1.50798 -0.411041 0
M  V30 15698 H 1482.3 -1.36571 -2.94141 0
M  V30 15699 H 1482.09 -3.06822 -2.44137 0
M  V30 15700 H 1483.58 -2.56593 -3.29469 0
M  V30 15701 N 1484.01 0.437135 -1.51416 0
M  V30 15702 C 1485.26 1.1835 -1.63328 0
M  V30 15703 C 1485.57 1.92343 -0.355455 0
M  V30 15704 O 1486.78 2.69183 -0.353951 0
M  V30 15705 C 1485.24 2.15235 -2.88447 0
M  V30 15706 C 1484.84 1.46889 -4.23235 0
M  V30 15707 C 1486.59 2.90303 -3.09716 0
M  V30 15708 C 1484.5 2.42259 -5.39504 0
M  V30 15709 H 1483.43 0.445467 -0.608338 0
M  V30 15710 H 1486.08 0.450528 -1.77883 0
M  V30 15711 H 1484.46 2.91968 -2.67527 0
M  V30 15712 H 1485.63 0.757128 -4.54537 0
M  V30 15713 H 1483.95 0.839725 -4.07845 0
M  V30 15714 H 1486.54 3.61747 -3.93756 0
M  V30 15715 H 1486.89 3.5166 -2.22802 0
M  V30 15716 H 1487.42 2.20677 -3.30978 0
M  V30 15717 H 1484.16 1.85591 -6.28678 0
M  V30 15718 H 1483.68 3.11488 -5.12577 0
M  V30 15719 H 1485.36 3.03384 -5.7146 0
M  V30 15720 N 1485.49 1.41566 0.692592 0
M  V30 15721 C 1486.74 1.41292 1.4548 0
M  V30 15722 C 1487.07 0.0229093 1.94186 0
M  V30 15723 O 1486.34 -0.949849 1.6973 0
M  V30 15724 C 1486.63 2.42225 2.66457 0
M  V30 15725 C 1486.48 3.90345 2.23496 0
M  V30 15726 C 1487.8 2.40374 3.68658 0
M  V30 15727 H 1484.92 0.51453 0.527663 0
M  V30 15728 H 1487.56 1.72862 0.788598 0
M  V30 15729 H 1485.71 2.15435 3.23296 0
M  V30 15730 H 1487.38 4.2805 1.71962 0
M  V30 15731 H 1485.63 4.05068 1.55249 0
M  V30 15732 H 1486.3 4.56518 3.10314 0
M  V30 15733 H 1488.77 2.64156 3.21498 0
M  V30 15734 H 1487.65 3.13004 4.5091 0
M  V30 15735 H 1487.91 1.42338 4.1856 0
M  V30 15736 N 1486.97 -0.927146 1.27443 0
M  V30 15737 C 1488.38 -1.20319 1.0486 0
M  V30 15738 C 1488.58 -2.00323 -0.217491 0
M  V30 15739 O 1487.64 -2.35032 -0.922833 0
M  V30 15740 C 1488.95 -1.9508 2.28833 0
M  V30 15741 C 1490.5 -2.08016 2.33877 0
M  V30 15742 C 1490.98 -2.86183 3.5758 0
M  V30 15743 N 1492.47 -2.93751 3.58141 0
M  V30 15744 C 1493.2 -3.54698 4.5053 0
M  V30 15745 N 1492.7 -4.17032 5.53223 0
M  V30 15746 N 1494.49 -3.52107 4.38152 0
M  V30 15747 H 1486.64 -0.392671 2.08739 0
M  V30 15748 H 1488.91 -0.236323 0.918072 0
M  V30 15749 H 1488.61 -1.43712 3.20998 0
M  V30 15750 H 1488.49 -2.95692 2.34193 0
M  V30 15751 H 1490.87 -2.5857 1.42217 0
M  V30 15752 H 1490.95 -1.06622 2.3252 0
M  V30 15753 H 1490.6 -2.36312 4.49576 0
M  V30 15754 H 1490.53 -3.87863 3.56188 0
M  V30 15755 H 1493.02 -2.49449 2.83872 0
M  V30 15756 H 1493.33 -4.61477 6.19886 0
M  V30 15757 H 1491.68 -4.15576 5.57065 0
M  V30 15758 H 1494.87 -3.02611 3.57134 0
M  V30 15759 H 1495.04 -3.99315 5.10344 0
M  V30 15760 N 1488.45 -1.09474 -1.13372 0
M  V30 15761 C 1489.36 -0.746674 -2.224 0
M  V30 15762 C 1490.37 0.251572 -1.72172 0
M  V30 15763 O 1491.55 0.092793 -2.01186 0
M  V30 15764 C 1488.61 -0.172965 -3.46268 0
M  V30 15765 C 1487.67 -1.22722 -4.11385 0
M  V30 15766 C 1486.91 -0.680794 -5.2934 0
M  V30 15767 O 1487.13 0.496135 -5.68238 0
M  V30 15768 O 1486.06 -1.43605 -5.84518 0
M  V30 15769 H 1489.89 -1.65649 -2.54547 0
M  V30 15770 H 1487.48 -0.869172 -1.21514 0
M  V30 15771 H 1489.36 0.143629 -4.21155 0
M  V30 15772 H 1488.03 0.709853 -3.15821 0
M  V30 15773 H 1486.94 -1.59652 -3.38323 0
M  V30 15774 H 1488.27 -2.0827 -4.45965 0
M  V30 15775 N 1489.92 1.30607 -0.882012 0
M  V30 15776 C 1491.17 1.95869 -0.497978 0
M  V30 15777 C 1491.49 1.69991 0.955405 0
M  V30 15778 O 1490.76 1.02188 1.67136 0
M  V30 15779 H 1489.34 0.724699 -0.181165 0
M  V30 15780 H 1492.01 1.59193 -1.12444 0
M  V30 15781 H 1491.1 3.04917 -0.665754 0
M  V30 15782 N 1491.4 0.642663 1.43901 0
M  V30 15783 C 1492.65 0.151478 2.01532 0
M  V30 15784 C 1492.97 -1.23519 1.50891 0
M  V30 15785 O 1492.24 -1.82299 0.717197 0
M  V30 15786 H 1490.82 0.0530091 0.745117 0
M  V30 15787 H 1493.48 0.831958 1.76251 0
M  V30 15788 H 1492.58 0.127995 3.11837 0
M  V30 15789 N 1492.88 -1.52852 0.383918 0
M  V30 15790 C 1494.11 -2.05929 -0.200216 0
M  V30 15791 C 1494.52 -1.25606 -1.40956 0
M  V30 15792 O 1493.88 -0.301336 -1.79995 0
M  V30 15793 C 1493.93 -3.56887 -0.575655 0
M  V30 15794 O 1493.65 -4.34168 0.58564 0
M  V30 15795 C 1495.15 -4.2629 -1.21623 0
M  V30 15796 H 1492.37 -0.670261 -0.0314727 0
M  V30 15797 H 1494.92 -1.97032 0.547591 0
M  V30 15798 H 1493.07 -3.65875 -1.27336 0
M  V30 15799 H 1493.49 -5.23761 0.278267 0
M  V30 15800 H 1494.96 -5.33174 -1.42933 0
M  V30 15801 H 1495.44 -3.81163 -2.182 0
M  V30 15802 H 1496.04 -4.21605 -0.559435 0
M  V30 15803 N 1494.36 -0.113586 -1.5719 0
M  V30 15804 C 1495.29 0.875741 -2.10727 0
M  V30 15805 C 1496.27 1.2644 -1.02233 0
M  V30 15806 O 1497.45 1.36641 -1.29852 0
M  V30 15807 C 1494.58 2.17123 -2.59952 0
M  V30 15808 C 1493.63 1.93105 -3.8028 0
M  V30 15809 S 1494.46 1.15223 -5.22957 0
M  V30 15810 C 1495.62 2.45963 -5.75546 0
M  V30 15811 H 1495.85 0.420351 -2.94313 0
M  V30 15812 H 1493.38 0.100081 -1.54075 0
M  V30 15813 H 1495.34 2.91561 -2.88968 0
M  V30 15814 H 1494 2.59781 -1.76558 0
M  V30 15815 H 1493.19 2.89082 -4.12853 0
M  V30 15816 H 1492.8 1.2679 -3.51853 0
M  V30 15817 H 1495.09 3.41835 -5.8494 0
M  V30 15818 H 1496.03 2.17943 -6.73726 0
M  V30 15819 H 1496.44 2.55083 -5.0358 0
M  V30 15820 N 1495.84 1.56784 0.160173 0
M  V30 15821 C 1496.8 1.96373 1.18195 0
M  V30 15822 C 1497.8 0.848674 1.3658 0
M  V30 15823 O 1498.99 1.11553 1.33796 0
M  V30 15824 C 1496.12 2.26824 2.54487 0
M  V30 15825 H 1497.32 2.87819 0.842641 0
M  V30 15826 H 1494.87 1.51014 0.403038 0
M  V30 15827 H 1495.6 1.38129 2.93413 0
M  V30 15828 H 1495.39 3.08112 2.42507 0
M  V30 15829 H 1496.88 2.58337 3.28104 0
M  V30 15830 N 1497.32 -0.429099 1.51646 0
M  V30 15831 C 1498.25 -1.52867 1.76505 0
M  V30 15832 C 1499.23 -1.58586 0.615178 0
M  V30 15833 O 1500.41 -1.74182 0.858742 0
M  V30 15834 C 1497.54 -2.90875 1.8976 0
M  V30 15835 C 1496.5 -3.00014 3.05247 0
M  V30 15836 C 1495.82 -4.40082 3.03696 0
M  V30 15837 C 1497.12 -2.73334 4.45068 0
M  V30 15838 H 1498.82 -1.32315 2.68576 0
M  V30 15839 H 1496.36 -0.635091 1.29238 0
M  V30 15840 H 1498.31 -3.67765 2.05734 0
M  V30 15841 H 1497.04 -3.12677 0.943442 0
M  V30 15842 H 1495.7 -2.25565 2.88991 0
M  V30 15843 H 1495.35 -4.58864 2.06042 0
M  V30 15844 H 1495.05 -4.47125 3.81252 0
M  V30 15845 H 1496.57 -5.18935 3.21774 0
M  V30 15846 H 1497.98 -3.39954 4.61632 0
M  V30 15847 H 1496.38 -2.91777 5.24391 0
M  V30 15848 H 1497.45 -1.68889 4.54538 0
M  V30 15849 N 1498.79 -1.41931 -0.685074 0
M  V30 15850 C 1500.02 -1.45432 -1.47866 0
M  V30 15851 C 1500.44 -0.0641302 -1.87991 0
M  V30 15852 O 1499.8 0.935081 -1.55325 0
M  V30 15853 C 1499.85 -2.37801 -2.71077 0
M  V30 15854 O 1498.95 -1.84229 -3.68963 0
M  V30 15855 H 1498.29 -0.493156 -0.444627 0
M  V30 15856 H 1500.82 -1.86508 -0.841177 0
M  V30 15857 H 1500.83 -2.54033 -3.19266 0
M  V30 15858 H 1499.51 -3.38807 -2.41211 0
M  V30 15859 H 1498.09 -1.775 -3.27945 0
M  V30 15860 N 1500.27 0.920374 -1.27933 0
M  V30 15861 C 1501.52 1.66554 -1.14474 0
M  V30 15862 C 1501.84 1.92545 0.308444 0
M  V30 15863 O 1501.11 1.53691 1.21473 0
M  V30 15864 H 1499.69 0.617302 -0.420651 0
M  V30 15865 H 1502.35 1.10473 -1.60567 0
M  V30 15866 H 1501.45 2.63067 -1.67935 0
M  V30 15867 N 1501.75 1.10074 1.1279 0
M  V30 15868 C 1503 0.835715 1.83572 0
M  V30 15869 C 1503.31 -0.640831 1.84805 0
M  V30 15870 O 1504.52 -1.02162 2.51545 0
M  V30 15871 C 1502.97 1.44519 3.29609 0
M  V30 15872 C 1502.58 2.95476 3.36746 0
M  V30 15873 C 1504.33 1.2594 4.05388 0
M  V30 15874 C 1502.23 3.49477 4.77095 0
M  V30 15875 H 1501.16 0.308974 0.687787 0
M  V30 15876 H 1503.81 1.32427 1.27025 0
M  V30 15877 H 1502.2 0.884323 3.86 0
M  V30 15878 H 1503.37 3.57846 2.90315 0
M  V30 15879 H 1501.68 3.13166 2.74437 0
M  V30 15880 H 1504.28 1.63732 5.09015 0
M  V30 15881 H 1504.62 0.200633 4.15816 0
M  V30 15882 H 1505.16 1.78814 3.55346 0
M  V30 15883 H 1501.9 4.55003 4.7186 0
M  V30 15884 H 1501.42 2.91873 5.23995 0
M  V30 15885 H 1503.1 3.47077 5.46028 0
M  V30 15886 N 1503.23 -1.30138 0.888926 0
M  V30 15887 C 1504.45 -2.00679 0.523697 0
M  V30 15888 C 1504.88 -1.66167 -0.881479 0
M  V30 15889 O 1504.24 -0.880418 -1.58488 0
M  V30 15890 C 1504.28 -3.53535 0.710284 0
M  V30 15891 O 1503.39 -4.11689 -0.242066 0
M  V30 15892 H 1502.73 -0.631273 0.205888 0
M  V30 15893 H 1505.26 -1.65891 1.19756 0
M  V30 15894 H 1505.27 -4.03402 0.610794 0
M  V30 15895 H 1503.94 -3.77992 1.73478 0
M  V30 15896 H 1502.52 -3.72777 -0.0959393 0
M  V30 15897 N 1504.71 -0.650285 -1.43559 0
M  V30 15898 C 1505.98 -0.0925343 -1.95381 0
M  V30 15899 C 1506.36 1.38668 -1.59168 0
M  V30 15900 O 1505.71 2.11069 -0.875324 0
M  V30 15901 C 1505.92 -0.335657 -3.47382 0
M  V30 15902 C 1507.27 -0.239032 -4.23927 0
M  V30 15903 O 1508.29 -0.268056 -3.5519 0
M  V30 15904 O 1507.15 -0.160241 -5.46265 0
M  V30 15905 H 1504.25 0.0113084 -0.826923 0
M  V30 15906 H 1506.79 -0.723319 -1.53513 0
M  V30 15907 H 1505.56 -1.36132 -3.66857 0
M  V30 15908 H 1505.19 0.328339 -3.96242 0
M  V30 15909 N 1506.18 1.52647 -0.392018 0
M  V30 15910 C 1507.43 2.01613 0.1893 0
M  V30 15911 C 1507.76 1.27837 1.46588 0
M  V30 15912 O 1507.01 0.368018 1.92209 0
M  V30 15913 C 1507.31 3.53872 0.500914 0
M  V30 15914 C 1506.98 4.45675 -0.684434 0
M  V30 15915 C 1505.64 4.70489 -1.00961 0
M  V30 15916 C 1507.99 4.99825 -1.4773 0
M  V30 15917 C 1505.32 5.46703 -2.12915 0
M  V30 15918 C 1507.67 5.77263 -2.58747 0
M  V30 15919 C 1506.34 6.00355 -2.9177 0
M  V30 15920 H 1505.61 0.737755 0.0692697 0
M  V30 15921 H 1508.25 1.84022 -0.529924 0
M  V30 15922 H 1506.56 3.69551 1.3015 0
M  V30 15923 H 1508.26 3.89256 0.963382 0
M  V30 15924 H 1504.85 4.26527 -0.420985 0
M  V30 15925 H 1509.03 4.80577 -1.23932 0
M  V30 15926 H 1504.29 5.62807 -2.38868 0
M  V30 15927 H 1508.46 6.18223 -3.20583 0
M  V30 15928 H 1506.09 6.59194 -3.7864 0
M  V30 15929 N 1507.66 0.121921 1.57128 0
M  V30 15930 C 1508.91 -0.534313 1.94909 0
M  V30 15931 C 1509.23 -1.67029 1.0063 0
M  V30 15932 O 1508.5 -1.95798 0.0631366 0
M  V30 15933 H 1507.08 -0.200372 0.719625 0
M  V30 15934 H 1509.74 0.191546 1.93956 0
M  V30 15935 H 1508.84 -0.926974 2.98016 0
M  V30 15936 N 1509.14 -1.56867 -0.151857 0
M  V30 15937 C 1510.09 -1.98842 -1.20685 0
M  V30 15938 C 1511.08 -0.88007 -1.44745 0
M  V30 15939 O 1512.29 -1.06524 -1.45095 0
M  V30 15940 H 1508.66 -0.632904 -0.406123 0
M  V30 15941 H 1510.63 -2.86737 -0.826095 0
M  V30 15942 C 1509.38 -2.38095 -2.53389 0
M  V30 15943 H 1508.71 -3.2293 -2.35703 0
M  V30 15944 H 1510.15 -2.71292 -3.25847 0
M  V30 15945 C 1508.61 -1.23175 -3.13575 0
M  V30 15946 O 1509.14 -0.529864 -3.9819 0
M  V30 15947 N 1507.34 -0.997255 -2.72953 0
M  V30 15948 H 1506.89 -1.56979 -2.04243 0
M  V30 15949 H 1506.85 -0.23022 -3.13556 0
M  V30 15950 N 1510.62 0.421051 -1.51871 0
M  V30 15951 C 1511.87 1.16611 -1.64574 0
M  V30 15952 C 1512.18 1.91955 -0.375835 0
M  V30 15953 O 1513.39 2.68792 -0.382481 0
M  V30 15954 C 1511.84 2.12164 -2.90714 0
M  V30 15955 C 1511.45 1.42392 -4.24769 0
M  V30 15956 C 1513.19 2.87002 -3.12778 0
M  V30 15957 C 1511.1 2.36523 -5.42043 0
M  V30 15958 H 1510.03 0.438989 -0.613029 0
M  V30 15959 H 1512.68 0.431636 -1.78351 0
M  V30 15960 H 1511.06 2.89114 -2.70608 0
M  V30 15961 H 1512.24 0.708875 -4.55315 0
M  V30 15962 H 1510.55 0.796421 -4.08713 0
M  V30 15963 H 1513.15 3.5755 -3.9757 0
M  V30 15964 H 1513.49 3.49277 -2.2652 0
M  V30 15965 H 1514.03 2.17154 -3.333 0
M  V30 15966 H 1510.77 1.78913 -6.30611 0
M  V30 15967 H 1510.29 3.06034 -5.15852 0
M  V30 15968 H 1511.96 2.97306 -5.74646 0
M  V30 15969 N 1512.1 1.42293 0.677538 0
M  V30 15970 C 1513.32 1.46214 1.47092 0
M  V30 15971 C 1513.75 0.0740989 1.87954 0
M  V30 15972 O 1513.1 -0.926831 1.55819 0
M  V30 15973 C 1513.15 2.39236 2.69812 0
M  V30 15974 O 1512.26 1.86183 3.6798 0
M  V30 15975 H 1511.6 0.495507 0.442006 0
M  V30 15976 H 1514.13 1.86952 0.831274 0
M  V30 15977 H 1514.14 2.55723 3.17915 0
M  V30 15978 H 1512.81 3.40081 2.39411 0
M  V30 15979 H 1511.39 1.79237 3.26999 0
M  V30 15980 N 1513.57 -0.913576 1.28419 0
M  V30 15981 C 1514.54 -1.99757 1.12382 0
M  V30 15982 C 1515.54 -1.60675 0.063435 0
M  V30 15983 O 1516.73 -1.71433 0.30923 0
M  V30 15984 C 1513.86 -3.33307 0.715506 0
M  V30 15985 H 1515.05 -2.15414 2.08655 0
M  V30 15986 H 1512.61 -1.09626 1.11408 0
M  V30 15987 H 1513.34 -3.23351 -0.247977 0
M  V30 15988 H 1513.13 -3.63034 1.4815 0
M  V30 15989 H 1514.62 -4.12882 0.625953 0
M  V30 15990 N 1515.05 -1.1067 -1.12204 0
M  V30 15991 C 1516.28 -0.872867 -1.87586 0
M  V30 15992 C 1516.7 0.57682 -1.79773 0
M  V30 15993 O 1516.05 1.39782 -1.17334 0
M  V30 15994 C 1516.1 -1.31572 -3.36706 0
M  V30 15995 O 1515.82 -2.70856 -3.44338 0
M  V30 15996 C 1517.33 -1.11613 -4.29019 0
M  V30 15997 H 1514.55 -0.313132 -0.593455 0
M  V30 15998 H 1517.09 -1.47199 -1.4196 0
M  V30 15999 H 1515.24 -0.760212 -3.79868 0
M  V30 16000 H 1515.66 -2.89854 -4.37132 0
M  V30 16001 H 1517.13 -1.4751 -5.31925 0
M  V30 16002 H 1517.61 -0.0549698 -4.39166 0
M  V30 16003 H 1518.22 -1.65822 -3.91642 0
M  V30 16004 N 1516.53 1.29665 -0.895815 0
M  V30 16005 C 1517.49 2.26103 -0.3755 0
M  V30 16006 C 1518.49 1.53212 0.488126 0
M  V30 16007 O 1519.68 1.71706 0.293733 0
M  V30 16008 C 1516.82 3.37732 0.46364 0
M  V30 16009 H 1518.01 2.73643 -1.22718 0
M  V30 16010 H 1515.56 1.4104 -0.673613 0
M  V30 16011 H 1516.3 2.95526 1.33546 0
M  V30 16012 H 1516.08 3.91793 -0.155123 0
M  V30 16013 H 1517.57 4.09488 0.819112 0
M  V30 16014 N 1518.01 0.657889 1.43212 0
M  V30 16015 C 1519.26 0.172845 2.0136 0
M  V30 16016 C 1519.58 -1.21911 1.52193 0
M  V30 16017 O 1518.85 -1.81529 0.736492 0
M  V30 16018 H 1517.43 0.0609091 0.744513 0
M  V30 16019 H 1520.09 0.850605 1.75359 0
M  V30 16020 H 1519.19 0.161062 3.11684 0
M  V30 16021 N 1519.49 -1.52437 0.400108 0
M  V30 16022 C 1520.4 -2.30496 -0.436875 0
M  V30 16023 C 1521.41 -1.37851 -1.06175 0
M  V30 16024 O 1522.59 -1.70924 -1.06522 0
M  V30 16025 C 1519.65 -3.10459 -1.54325 0
M  V30 16026 C 1518.71 -4.18829 -0.942367 0
M  V30 16027 C 1517.95 -4.94969 -1.99602 0
M  V30 16028 O 1518.17 -4.71314 -3.21278 0
M  V30 16029 O 1517.1 -5.80043 -1.60728 0
M  V30 16030 H 1520.93 -3.03045 0.199343 0
M  V30 16031 H 1518.52 -1.48502 0.163541 0
M  V30 16032 H 1520.4 -3.60282 -2.18575 0
M  V30 16033 H 1519.07 -2.40713 -2.16423 0
M  V30 16034 H 1517.98 -3.73176 -0.262831 0
M  V30 16035 H 1519.31 -4.90841 -0.365441 0
M  V30 16036 N 1520.96 -0.130252 -1.57061 0
M  V30 16037 C 1521.91 0.832998 -2.17173 0
M  V30 16038 C 1522.91 1.26735 -1.12403 0
M  V30 16039 O 1524.11 1.23778 -1.30686 0
M  V30 16040 H 1520.49 0.286777 -0.695171 0
M  V30 16041 H 1522.46 0.301639 -2.96872 0
M  V30 16042 C 1521.21 2.06879 -2.79457 0
M  V30 16043 H 1520.53 1.74352 -3.5978 0
M  V30 16044 H 1521.97 2.72258 -3.25041 0
M  V30 16045 C 1520.43 2.86591 -1.77108 0
M  V30 16046 O 1520.96 3.82363 -1.2313 0
M  V30 16047 N 1519.17 2.508 -1.46792 0
M  V30 16048 H 1518.71 1.72984 -1.90878 0
M  V30 16049 H 1518.67 3.04428 -0.785566 0
M  V30 16050 N 1522.44 1.56945 0.143535 0
M  V30 16051 C 1523.67 1.87429 0.869139 0
M  V30 16052 C 1524.08 0.716856 1.75094 0
M  V30 16053 O 1523.42 -0.322379 1.80849 0
M  V30 16054 C 1523.49 3.12657 1.77442 0
M  V30 16055 C 1523.15 4.44311 1.06943 0
M  V30 16056 C 1524.15 5.18187 0.421706 0
M  V30 16057 C 1521.83 4.91033 1.05791 0
M  V30 16058 C 1523.83 6.36992 -0.228127 0
M  V30 16059 C 1521.51 6.09761 0.404266 0
M  V30 16060 C 1522.51 6.82587 -0.237621 0
M  V30 16061 O 1522.2 7.99059 -0.880893 0
M  V30 16062 H 1521.93 0.625443 0.256508 0
M  V30 16063 H 1524.49 2.04922 0.139979 0
M  V30 16064 H 1522.72 2.91181 2.54461 0
M  V30 16065 H 1524.4 3.29359 2.37228 0
M  V30 16066 H 1525.17 4.83157 0.422395 0
M  V30 16067 H 1521.05 4.3427 1.54694 0
M  V30 16068 H 1524.59 6.93773 -0.729732 0
M  V30 16069 H 1520.49 6.44252 0.401256 0
M  V30 16070 H 1521.26 8.14747 -0.782907 0
M  V30 16071 N 1523.92 -0.412991 1.52093 0
M  V30 16072 C 1525.15 -1.18667 1.70096 0
M  V30 16073 C 1525.57 -1.83622 0.408012 0
M  V30 16074 O 1524.93 -1.69847 -0.634174 0
M  V30 16075 C 1524.98 -2.22837 2.83507 0
M  V30 16076 O 1524.08 -3.2889 2.48807 0
M  V30 16077 H 1523.42 -0.346581 0.566373 0
M  V30 16078 H 1525.95 -0.484642 1.98777 0
M  V30 16079 H 1525.96 -2.67229 3.08306 0
M  V30 16080 H 1524.64 -1.74942 3.77317 0
M  V30 16081 H 1523.21 -2.89804 2.34665 0
M  V30 16082 N 1525.4 -1.4265 -0.669982 0
M  V30 16083 C 1526.65 -1.43589 -1.43213 0
M  V30 16084 C 1526.98 -0.0537998 -1.94125 0
M  V30 16085 O 1526.25 0.922727 -1.71219 0
M  V30 16086 C 1526.54 -2.46433 -2.62569 0
M  V30 16087 C 1526.39 -3.93851 -2.17258 0
M  V30 16088 C 1527.71 -2.46208 -3.64787 0
M  V30 16089 H 1524.83 -0.522859 -0.519411 0
M  V30 16090 H 1527.47 -1.74094 -0.760997 0
M  V30 16091 H 1525.62 -2.20551 -3.19828 0
M  V30 16092 H 1527.29 -4.30732 -1.6513 0
M  V30 16093 H 1525.53 -4.07487 -1.48786 0
M  V30 16094 H 1526.21 -4.61398 -3.03012 0
M  V30 16095 H 1528.68 -2.69237 -3.17255 0
M  V30 16096 H 1527.56 -3.20138 -4.45873 0
M  V30 16097 H 1527.82 -1.48979 -4.16242 0
M  V30 16098 N 1526.88 0.906753 -1.28902 0
M  V30 16099 C 1528.12 1.65903 -1.16636 0
M  V30 16100 C 1528.46 1.92127 0.282981 0
M  V30 16101 O 1527.73 1.52666 1.20513 0
M  V30 16102 C 1528.01 3.01257 -1.97272 0
M  V30 16103 C 1527.87 2.82143 -3.50308 0
M  V30 16104 C 1529.19 4.01893 -1.7936 0
M  V30 16105 H 1526.31 0.602063 -0.425076 0
M  V30 16106 H 1528.95 1.05081 -1.58297 0
M  V30 16107 H 1527.1 3.53172 -1.61871 0
M  V30 16108 H 1528.77 2.37184 -3.95653 0
M  V30 16109 H 1527.01 2.17063 -3.75588 0
M  V30 16110 H 1527.68 3.78293 -4.01993 0
M  V30 16111 H 1530.16 3.59064 -2.10267 0
M  V30 16112 H 1529.04 4.9455 -2.38141 0
M  V30 16113 H 1529.3 4.35745 -0.746923 0
M  V30 16114 N 1528.36 1.11264 1.11616 0
M  V30 16115 C 1529.58 0.88306 1.87661 0
M  V30 16116 C 1530.01 -0.561586 1.79521 0
M  V30 16117 O 1529.36 -1.3964 1.1563 0
M  V30 16118 C 1529.41 1.34698 3.34498 0
M  V30 16119 O 1528.52 0.517512 4.0914 0
M  V30 16120 H 1527.86 0.318233 0.582772 0
M  V30 16121 H 1530.39 1.48164 1.41098 0
M  V30 16122 H 1530.4 1.34068 3.85344 0
M  V30 16123 H 1529.07 2.39896 3.39739 0
M  V30 16124 H 1527.65 0.589751 3.68207 0
M  V30 16125 N 1529.83 -1.29188 0.902679 0
M  V30 16126 C 1531.08 -1.96092 0.540328 0
M  V30 16127 C 1531.43 -1.6984 -0.903997 0
M  V30 16128 O 1530.73 -1.00257 -1.63276 0
M  V30 16129 C 1530.92 -3.48951 0.772542 0
M  V30 16130 C 1530.75 -3.90062 2.23789 0
M  V30 16131 C 1529.52 -4.14782 2.8859 0
M  V30 16132 C 1531.72 -4.01557 3.21335 0
M  V30 16133 N 1529.7 -4.42484 4.25536 0
M  V30 16134 C 1531.07 -4.33346 4.43409 0
M  V30 16135 C 1533.13 -3.84043 3.16884 0
M  V30 16136 C 1531.83 -4.49444 5.61598 0
M  V30 16137 C 1533.86 -4.01353 4.34362 0
M  V30 16138 C 1533.22 -4.33503 5.55207 0
M  V30 16139 H 1529.32 -0.741839 0.247383 0
M  V30 16140 H 1531.9 -1.56066 1.16411 0
M  V30 16141 H 1530.07 -3.87991 0.178119 0
M  V30 16142 H 1531.8 -4.02956 0.375328 0
M  V30 16143 H 1528.56 -4.08655 2.3937 0
M  V30 16144 H 1528.98 -4.60438 4.96312 0
M  V30 16145 H 1533.62 -3.58247 2.24541 0
M  V30 16146 H 1531.34 -4.74075 6.5443 0
M  V30 16147 H 1534.93 -3.89249 4.32408 0
M  V30 16148 H 1533.81 -4.46617 6.44595 0
M  V30 16149 N 1531.31 -0.665475 -1.42861 0
M  V30 16150 C 1532.56 -0.184156 -2.01962 0
M  V30 16151 C 1532.89 1.20301 -1.52451 0
M  V30 16152 O 1532.17 1.80573 -0.722756 0
M  V30 16153 C 1532.45 -0.208497 -3.59496 0
M  V30 16154 C 1532.3 -1.63045 -4.19209 0
M  V30 16155 C 1533.62 0.448421 -4.3781 0
M  V30 16156 H 1530.74 -0.0683924 -0.73382 0
M  V30 16157 H 1533.38 -0.84849 -1.70002 0
M  V30 16158 H 1531.53 0.357179 -3.86855 0
M  V30 16159 H 1533.2 -2.24766 -4.02837 0
M  V30 16160 H 1531.45 -2.17401 -3.75392 0
M  V30 16161 H 1532.12 -1.59924 -5.28326 0
M  V30 16162 H 1534.59 -0.0330053 -4.16087 0
M  V30 16163 H 1533.47 0.400713 -5.47435 0
M  V30 16164 H 1533.73 1.52454 -4.14982 0
M  V30 16165 N 1532.79 1.52222 -0.408187 0
M  V30 16166 C 1534.2 1.86598 0.0616213 0
M  V30 16167 C 1534.55 1.32698 1.44519 0
M  V30 16168 O 1533.68 0.665883 2.059 0
M  V30 16169 C 1534.27 3.38592 0.118595 0
M  V30 16170 C 1532.83 3.72611 0.532737 0
M  V30 16171 C 1531.98 2.75744 -0.293356 0
M  V30 16172 H 1534.93 1.45862 -0.625291 0
M  V30 16173 H 1534.95 3.68858 0.934039 0
M  V30 16174 H 1534.46 3.77792 -0.888516 0
M  V30 16175 H 1532.56 3.38989 1.54652 0
M  V30 16176 H 1532.68 4.78294 0.277777 0
M  V30 16177 H 1531.04 2.53527 0.244166 0
M  V30 16178 H 1531.82 3.17783 -1.2988 0
M  V30 16179 N 1534.27 0.138579 1.5699 0
M  V30 16180 C 1535.21 -0.804305 2.16332 0
M  V30 16181 C 1536.18 -1.25002 1.09379 0
M  V30 16182 O 1537.37 -1.32405 1.37381 0
M  V30 16183 C 1534.51 -2.04137 2.78248 0
M  V30 16184 C 1533.62 -1.64223 3.99568 0
M  V30 16185 C 1532.76 -2.83046 4.49509 0
M  V30 16186 C 1531.8 -2.39465 5.63314 0
M  V30 16187 N 1530.93 -3.51267 6.07911 0
M  V30 16188 H 1535.77 -0.29144 2.96571 0
M  V30 16189 H 1533.31 -0.132146 1.46505 0
M  V30 16190 H 1535.27 -2.76646 3.12286 0
M  V30 16191 H 1533.9 -2.52849 2.00667 0
M  V30 16192 H 1532.95 -0.815123 3.71564 0
M  V30 16193 H 1534.26 -1.2821 4.82041 0
M  V30 16194 H 1533.42 -3.63755 4.85559 0
M  V30 16195 H 1532.16 -3.22298 3.66026 0
M  V30 16196 H 1531.16 -1.57193 5.2685 0
M  V30 16197 H 1532.39 -2.01307 6.48577 0
M  V30 16198 H 1530.33 -3.90156 5.27365 0
M  V30 16199 H 1530.25 -3.19241 6.85289 0
M  V30 16200 H 1531.52 -4.32358 6.48604 0
M  V30 16201 N 1535.75 -1.57019 -0.13521 0
M  V30 16202 C 1536.66 -2.02427 -1.18578 0
M  V30 16203 C 1537.67 -0.941738 -1.46312 0
M  V30 16204 O 1538.85 -1.25208 -1.57749 0
M  V30 16205 C 1535.91 -2.40577 -2.49647 0
M  V30 16206 C 1534.97 -3.62835 -2.29455 0
M  V30 16207 C 1534.21 -3.99156 -3.54274 0
M  V30 16208 O 1534.43 -3.36001 -4.60933 0
M  V30 16209 O 1533.36 -4.92345 -3.46238 0
M  V30 16210 H 1537.19 -2.92131 -0.830237 0
M  V30 16211 H 1534.77 -1.45366 -0.344814 0
M  V30 16212 H 1536.66 -2.65922 -3.269 0
M  V30 16213 H 1535.33 -1.54023 -2.84708 0
M  V30 16214 H 1534.24 -3.42661 -1.50114 0
M  V30 16215 H 1535.57 -4.50043 -1.99305 0
M  V30 16216 N 1537.22 0.404919 -1.52309 0
M  V30 16217 C 1538.47 1.14921 -1.66246 0
M  V30 16218 C 1538.79 1.90919 -0.396868 0
M  V30 16219 O 1538.06 1.86856 0.588361 0
M  V30 16220 H 1536.64 0.427223 -0.612772 0
M  V30 16221 H 1539.31 0.461091 -1.89367 0
M  V30 16222 H 1538.4 1.86095 -2.5055 0
M  V30 16223 N 1538.7 1.43003 0.662408 0
M  V30 16224 C 1539.63 1.43407 1.78793 0
M  V30 16225 C 1540.65 0.331423 1.59391 0
M  V30 16226 O 1541.84 0.595291 1.68281 0
M  V30 16227 C 1538.94 1.22239 3.16087 0
M  V30 16228 C 1538.11 2.4517 3.6223 0
M  V30 16229 C 1537.17 2.19362 4.78296 0
M  V30 16230 O 1536.19 2.92651 4.88205 0
M  V30 16231 N 1537.4 1.20449 5.67866 0
M  V30 16232 H 1540.16 2.40426 1.78928 0
M  V30 16233 H 1537.72 1.38042 0.845936 0
M  V30 16234 H 1539.71 1.02871 3.91407 0
M  V30 16235 H 1538.28 0.336983 3.10778 0
M  V30 16236 H 1537.5 2.80024 2.77453 0
M  V30 16237 H 1538.79 3.27003 3.89803 0
M  V30 16238 H 1538.19 0.598577 5.62524 0
M  V30 16239 H 1536.75 1.07066 6.42946 0
M  V30 16240 N 1540.18 -0.899904 1.29381 0
M  V30 16241 C 1541.42 -1.66468 1.18608 0
M  V30 16242 C 1541.78 -1.90255 -0.258287 0
M  V30 16243 O 1542.99 -2.64315 -0.488987 0
M  V30 16244 C 1541.26 -2.97758 1.97674 0
M  V30 16245 S 1542.82 -3.88794 2.03433 0
M  V30 16246 H 1539.63 -0.571533 0.422931 0
M  V30 16247 H 1542.24 -1.06931 1.63664 0
M  V30 16248 H 1540.94 -2.78158 3.01755 0
M  V30 16249 H 1540.47 -3.62335 1.53221 0
M  V30 16250 H 1542.49 -4.82669 1.15086 0
M  V30 16251 N 1541.66 -1.11854 -1.11024 0
M  V30 16252 C 1542.61 -0.77596 -2.19275 0
M  V30 16253 C 1543.6 0.234503 -1.67769 0
M  V30 16254 O 1544.81 0.0933372 -1.79758 0
M  V30 16255 H 1541.18 -0.23307 -0.71497 0
M  V30 16256 H 1543.15 -1.69749 -2.45414 0
M  V30 16257 C 1541.9 -0.240148 -3.4687 0
M  V30 16258 H 1541.22 -1.00895 -3.86859 0
M  V30 16259 H 1542.66 -0.0386799 -4.23982 0
M  V30 16260 C 1541.12 1.03056 -3.20751 0
M  V30 16261 O 1541.65 2.10948 -3.41854 0
M  V30 16262 N 1539.86 0.955066 -2.74457 0
M  V30 16263 H 1539.41 0.0769523 -2.57485 0
M  V30 16264 H 1539.36 1.80593 -2.57359 0
M  V30 16265 N 1543.14 1.28707 -0.909517 0
M  V30 16266 C 1544.38 1.95154 -0.540481 0
M  V30 16267 C 1544.71 1.7163 0.91506 0
M  V30 16268 O 1543.97 1.02786 1.66534 0
M  V30 16269 C 1544.27 3.48536 -0.791037 0
M  V30 16270 C 1543.93 3.92153 -2.22546 0
M  V30 16271 C 1542.59 4.03772 -2.61766 0
M  V30 16272 C 1544.95 4.14547 -3.15912 0
M  V30 16273 C 1542.27 4.35162 -3.93511 0
M  V30 16274 C 1544.63 4.47414 -4.47218 0
M  V30 16275 C 1543.29 4.57244 -4.86296 0
M  V30 16276 H 1542.56 0.714119 -0.197776 0
M  V30 16277 H 1545.21 1.53122 -1.15004 0
M  V30 16278 H 1543.51 3.91676 -0.0986412 0
M  V30 16279 H 1545.21 3.98059 -0.48474 0
M  V30 16280 H 1541.8 3.83633 -1.91113 0
M  V30 16281 H 1545.98 4.05027 -2.86822 0
M  V30 16282 H 1541.24 4.40977 -4.23496 0
M  V30 16283 H 1545.41 4.6369 -5.19581 0
M  V30 16284 H 1543.04 4.81321 -5.88416 0
M  V30 16285 N 1544.61 0.673042 1.42506 0
M  V30 16286 C 1546.03 0.342429 1.55883 0
M  V30 16287 C 1546.23 -1.15229 1.65302 0
M  V30 16288 O 1545.29 -1.93767 1.61897 0
M  V30 16289 C 1546.6 1.0712 2.80973 0
M  V30 16290 C 1548.15 1.05336 2.94743 0
M  V30 16291 C 1548.62 1.76342 4.22691 0
M  V30 16292 N 1550.11 1.73201 4.29599 0
M  V30 16293 C 1550.85 2.25 5.27411 0
M  V30 16294 N 1550.34 2.85173 6.31386 0
M  V30 16295 N 1552.14 2.15385 5.19197 0
M  V30 16296 H 1544.29 1.64277 1.34636 0
M  V30 16297 H 1546.55 0.691984 0.647968 0
M  V30 16298 H 1546.26 2.1263 2.80145 0
M  V30 16299 H 1546.13 0.635313 3.71811 0
M  V30 16300 H 1548.52 0.00659669 2.95099 0
M  V30 16301 H 1548.6 1.52811 2.0514 0
M  V30 16302 H 1548.24 2.80985 4.23096 0
M  V30 16303 H 1548.17 1.26317 5.11225 0
M  V30 16304 H 1550.66 1.2931 3.55088 0
M  V30 16305 H 1550.98 3.22323 7.02373 0
M  V30 16306 H 1549.32 2.89242 6.31953 0
M  V30 16307 H 1552.51 1.68065 4.36889 0
M  V30 16308 H 1552.69 2.5606 5.95262 0
M  V30 16309 N 1546.09 -1.52004 0.416254 0
M  V30 16310 C 1547.34 -2.01889 -0.157201 0
M  V30 16311 C 1547.67 -1.30153 -1.44535 0
M  V30 16312 O 1546.92 -0.39855 -1.91599 0
M  V30 16313 C 1547.22 -3.54624 -0.444553 0
M  V30 16314 C 1546.89 -4.4453 0.755251 0
M  V30 16315 C 1545.55 -4.68824 1.08433 0
M  V30 16316 C 1547.9 -4.97412 1.55663 0
M  V30 16317 C 1545.23 -5.43246 2.21586 0
M  V30 16318 C 1547.58 -5.73074 2.67898 0
M  V30 16319 C 1546.25 -5.95637 3.01285 0
M  V30 16320 H 1545.52 -0.738764 -0.0575239 0
M  V30 16321 H 1548.16 -1.83156 0.559133 0
M  V30 16322 H 1546.47 -3.71575 -1.24254 0
M  V30 16323 H 1548.16 -3.90739 -0.901333 0
M  V30 16324 H 1544.75 -4.25804 0.488789 0
M  V30 16325 H 1548.94 -4.78545 1.31562 0
M  V30 16326 H 1544.19 -5.58936 2.47792 0
M  V30 16327 H 1548.37 -6.13044 3.30378 0
M  V30 16328 H 1546 -6.53086 3.89079 0
M  V30 16329 N 1547.57 -0.146903 -1.56914 0
M  V30 16330 C 1548.52 0.804576 -2.13332 0
M  V30 16331 C 1549.5 1.2095 -1.06112 0
M  V30 16332 O 1550.7 1.17594 -1.3229 0
M  V30 16333 C 1547.83 2.0437 -2.7584 0
M  V30 16334 C 1546.91 1.66188 -3.90183 0
M  V30 16335 N 1547.3 0.988267 -4.96051 0
M  V30 16336 C 1545.6 1.9546 -4.00888 0
M  V30 16337 C 1546.3 0.803957 -5.76118 0
M  V30 16338 N 1545.28 1.33779 -5.26882 0
M  V30 16339 H 1549.08 0.280693 -2.92557 0
M  V30 16340 H 1546.59 0.0546404 -1.62308 0
M  V30 16341 H 1548.59 2.73532 -3.1462 0
M  V30 16342 H 1547.25 2.57276 -1.98089 0
M  V30 16343 H 1548.26 0.64904 -5.13817 0
M  V30 16344 H 1544.94 2.50216 -3.34213 0
M  V30 16345 H 1546.33 0.273065 -6.71345 0
M  V30 16346 N 1549.05 1.57088 0.126881 0
M  V30 16347 C 1550.3 1.83624 0.834582 0
M  V30 16348 C 1550.61 0.731331 1.81414 0
M  V30 16349 O 1551.82 0.88286 2.56745 0
M  V30 16350 C 1550.27 3.25529 1.5349 0
M  V30 16351 C 1549.88 4.44008 0.59673 0
M  V30 16352 C 1551.62 3.6132 2.22819 0
M  V30 16353 C 1549.53 5.76939 1.29982 0
M  V30 16354 H 1548.46 0.684858 0.315414 0
M  V30 16355 H 1551.11 1.83292 0.087305 0
M  V30 16356 H 1549.49 3.20306 2.32852 0
M  V30 16357 H 1550.67 4.60511 -0.163109 0
M  V30 16358 H 1548.98 4.16399 0.0108081 0
M  V30 16359 H 1551.58 4.57902 2.76098 0
M  V30 16360 H 1551.92 2.88363 3.00254 0
M  V30 16361 H 1552.46 3.68291 1.50354 0
M  V30 16362 H 1549.2 6.53044 0.566925 0
M  V30 16363 H 1548.72 5.64336 2.03187 0
M  V30 16364 H 1550.39 6.20427 1.8352 0
M  V30 16365 N 1550.53 -0.396836 1.52522 0
M  V30 16366 C 1551.46 -1.49088 1.79708 0
M  V30 16367 C 1552.44 -1.57246 0.648678 0
M  V30 16368 O 1553.62 -1.72321 0.895495 0
M  V30 16369 C 1550.75 -2.86785 1.95887 0
M  V30 16370 C 1549.71 -2.93472 3.11542 0
M  V30 16371 C 1549.03 -4.33542 3.12963 0
M  V30 16372 C 1550.33 -2.63832 4.50766 0
M  V30 16373 H 1552.03 -1.26588 2.71322 0
M  V30 16374 H 1549.57 -0.607535 1.30557 0
M  V30 16375 H 1551.53 -3.63319 2.13489 0
M  V30 16376 H 1550.25 -3.10605 1.00955 0
M  V30 16377 H 1548.91 -2.19384 2.93711 0
M  V30 16378 H 1548.56 -4.5439 2.15729 0
M  V30 16379 H 1548.26 -4.38938 3.9065 0
M  V30 16380 H 1549.78 -5.11993 3.32709 0
M  V30 16381 H 1551.19 -3.30086 4.68739 0
M  V30 16382 H 1549.59 -2.80589 5.30462 0
M  V30 16383 H 1550.66 -1.59209 4.58018 0
M  V30 16384 N 1552.01 -1.43353 -0.654814 0
M  V30 16385 C 1553.25 -1.44885 -1.41473 0
M  V30 16386 C 1553.58 -0.0725577 -1.94365 0
M  V30 16387 O 1552.84 0.9222 -1.72609 0
M  V30 16388 C 1553.13 -2.437 -2.61429 0
M  V30 16389 C 1552.8 -3.89612 -2.26965 0
M  V30 16390 C 1551.46 -4.29353 -2.17278 0
M  V30 16391 C 1553.81 -4.81569 -1.99351 0
M  V30 16392 C 1551.14 -5.59005 -1.7813 0
M  V30 16393 C 1553.49 -6.11584 -1.61702 0
M  V30 16394 C 1552.16 -6.50303 -1.50539 0
M  V30 16395 H 1551.43 -0.530172 -0.517686 0
M  V30 16396 H 1554.08 -1.76422 -0.744824 0
M  V30 16397 H 1552.38 -2.05561 -3.33544 0
M  V30 16398 H 1554.08 -2.42141 -3.19638 0
M  V30 16399 H 1550.67 -3.58159 -2.35414 0
M  V30 16400 H 1554.85 -4.51639 -2.05757 0
M  V30 16401 H 1550.11 -5.87845 -1.68072 0
M  V30 16402 H 1554.28 -6.82312 -1.39365 0
M  V30 16403 H 1551.91 -7.50673 -1.19975 0
M  V30 16404 N 1553.48 0.89303 -1.29857 0
M  V30 16405 C 1554.43 1.9979 -1.15554 0
M  V30 16406 C 1555.4 1.66033 -0.0471157 0
M  V30 16407 O 1556.59 1.89575 -0.215846 0
M  V30 16408 C 1553.73 3.34595 -0.844993 0
M  V30 16409 C 1552.84 3.81093 -2.03451 0
M  V30 16410 C 1551.97 5.04506 -1.66275 0
M  V30 16411 C 1551.01 5.4339 -2.8177 0
M  V30 16412 N 1550.15 6.57987 -2.44945 0
M  V30 16413 H 1554.99 2.11355 -2.10079 0
M  V30 16414 H 1552.53 1.03497 -1.04531 0
M  V30 16415 H 1554.48 4.12175 -0.645598 0
M  V30 16416 H 1553.11 3.22738 0.0633626 0
M  V30 16417 H 1552.17 2.99491 -2.34541 0
M  V30 16418 H 1553.48 4.05855 -2.8997 0
M  V30 16419 H 1552.63 5.89688 -1.42664 0
M  V30 16420 H 1551.37 4.81597 -0.769144 0
M  V30 16421 H 1550.38 4.56738 -3.06056 0
M  V30 16422 H 1551.6 5.68276 -3.71805 0
M  V30 16423 H 1549.55 6.36669 -1.58079 0
M  V30 16424 H 1549.46 6.82579 -3.24996 0
M  V30 16425 H 1550.73 7.46421 -2.24669 0
M  V30 16426 N 1554.96 1.12442 1.10429 0
M  V30 16427 C 1555.92 0.795443 2.14954 0
M  V30 16428 C 1556.92 -0.19022 1.59671 0
M  V30 16429 O 1558.11 0.0355797 1.74164 0
M  V30 16430 C 1555.25 0.182043 3.40414 0
M  V30 16431 H 1556.44 1.72153 2.45567 0
M  V30 16432 H 1553.99 0.927672 1.25793 0
M  V30 16433 H 1554.73 -0.753766 3.15419 0
M  V30 16434 H 1554.51 0.891708 3.81826 0
M  V30 16435 H 1556 -0.0316286 4.17588 0
M  V30 16436 N 1556.44 -1.28223 0.91633 0
M  V30 16437 C 1557.37 -2.29623 0.423735 0
M  V30 16438 C 1558.35 -1.62274 -0.510016 0
M  V30 16439 O 1559.54 -1.89666 -0.4172 0
M  V30 16440 C 1556.67 -3.45684 -0.334686 0
M  V30 16441 C 1555.62 -4.24949 0.510169 0
M  V30 16442 C 1554.95 -5.33371 -0.376745 0
M  V30 16443 C 1556.25 -4.91438 1.76877 0
M  V30 16444 H 1557.94 -2.71076 1.27115 0
M  V30 16445 H 1555.49 -1.30316 0.612678 0
M  V30 16446 H 1557.44 -4.1571 -0.690154 0
M  V30 16447 H 1556.16 -3.03118 -1.21603 0
M  V30 16448 H 1554.82 -3.56653 0.848191 0
M  V30 16449 H 1554.47 -4.87048 -1.25671 0
M  V30 16450 H 1554.17 -5.87309 0.18496 0
M  V30 16451 H 1555.69 -6.06244 -0.728039 0
M  V30 16452 H 1557.11 -5.53812 1.48205 0
M  V30 16453 H 1555.5 -5.55384 2.27308 0
M  V30 16454 H 1556.57 -4.15783 2.49505 0
M  V30 16455 N 1557.92 -0.68059 -1.42147 0
M  V30 16456 C 1559.17 -0.204857 -2.01059 0
M  V30 16457 C 1559.49 1.19475 -1.54113 0
M  V30 16458 O 1558.76 1.80334 -0.765279 0
M  V30 16459 H 1557.34 -0.0727459 -0.743449 0
M  V30 16460 H 1560 -0.878396 -1.73983 0
M  V30 16461 H 1559.09 -0.210628 -3.11388 0
M  V30 16462 N 1559.4 1.51781 -0.424309 0
M  V30 16463 C 1560.31 2.31162 0.40015 0
M  V30 16464 C 1561.32 1.39523 1.03969 0
M  V30 16465 O 1562.5 1.72597 1.0379 0
M  V30 16466 C 1559.56 3.12875 1.49366 0
M  V30 16467 C 1558.62 4.20275 0.875616 0
M  V30 16468 C 1557.86 4.98082 1.91702 0
M  V30 16469 O 1558.08 4.76365 3.13739 0
M  V30 16470 O 1557.01 5.82527 1.5148 0
M  V30 16471 H 1560.84 3.0269 -0.247529 0
M  V30 16472 H 1558.42 1.48223 -0.187146 0
M  V30 16473 H 1560.31 3.63714 2.12815 0
M  V30 16474 H 1558.98 2.44125 2.12567 0
M  V30 16475 H 1557.89 3.73546 0.203429 0
M  V30 16476 H 1559.22 4.91361 0.287306 0
M  V30 16477 N 1560.87 0.155222 1.56834 0
M  V30 16478 C 1561.78 -0.794179 2.20749 0
M  V30 16479 C 1562.8 -1.26546 1.19424 0
M  V30 16480 O 1563.98 -1.32094 1.5203 0
M  V30 16481 C 1561.04 -2.01261 2.82303 0
M  V30 16482 C 1560.1 -1.58976 3.98779 0
M  V30 16483 C 1559.33 -2.75011 4.57389 0
M  V30 16484 O 1559.56 -3.91449 4.14879 0
M  V30 16485 O 1558.49 -2.50011 5.4752 0
M  V30 16486 H 1562.32 -0.280064 3.02406 0
M  V30 16487 H 1559.9 -0.0722048 1.49225 0
M  V30 16488 H 1561.78 -2.72551 3.21394 0
M  V30 16489 H 1560.46 -2.51609 2.03653 0
M  V30 16490 H 1559.37 -0.846848 3.64389 0
M  V30 16491 H 1560.7 -1.13336 4.78974 0
M  V30 16492 N 1562.35 -1.57153 -0.118549 0
M  V30 16493 C 1563.3 -2.00374 -1.14538 0
M  V30 16494 C 1564.27 -0.875964 -1.41124 0
M  V30 16495 O 1565.45 -1.14022 -1.52982 0
M  V30 16496 C 1562.59 -2.4135 -2.46666 0
M  V30 16497 C 1561.71 -3.67545 -2.27012 0
M  V30 16498 C 1560.84 -3.975 -3.52374 0
M  V30 16499 C 1559.88 -5.16877 -3.27879 0
M  V30 16500 N 1559.02 -5.427 -4.45445 0
M  V30 16501 H 1563.86 -2.87885 -0.769821 0
M  V30 16502 H 1561.39 -1.42406 -0.368622 0
M  V30 16503 H 1563.35 -2.63144 -3.23745 0
M  V30 16504 H 1561.98 -1.5688 -2.82114 0
M  V30 16505 H 1561.03 -3.53364 -1.40848 0
M  V30 16506 H 1562.35 -4.54777 -2.04889 0
M  V30 16507 H 1561.5 -4.19945 -4.37871 0
M  V30 16508 H 1560.24 -3.08745 -3.77529 0
M  V30 16509 H 1559.24 -4.94276 -2.40773 0
M  V30 16510 H 1560.47 -6.0721 -3.04094 0
M  V30 16511 H 1558.42 -4.56902 -4.70719 0
M  V30 16512 H 1558.33 -6.24256 -4.26428 0
M  V30 16513 H 1559.6 -5.69664 -5.32074 0
M  V30 16514 N 1563.83 0.388742 -1.5273 0
M  V30 16515 C 1565.08 1.13151 -1.67455 0
M  V30 16516 C 1565.4 1.90487 -0.417095 0
M  V30 16517 O 1564.67 1.87469 0.568509 0
M  V30 16518 H 1563.25 0.4207 -0.617269 0
M  V30 16519 H 1565.91 0.44098 -1.89846 0
M  V30 16520 H 1565.01 1.83427 -2.52509 0
M  V30 16521 N 1565.31 1.43698 0.647203 0
M  V30 16522 C 1566.56 1.45346 1.40425 0
M  V30 16523 C 1566.88 0.081129 1.94831 0
M  V30 16524 O 1566.15 -0.884379 1.74801 0
M  V30 16525 H 1564.73 0.535145 0.521181 0
M  V30 16526 H 1567.39 1.79349 0.762887 0
M  V30 16527 H 1566.48 2.16954 2.2436 0
M  V30 16528 N 1566.79 -0.886131 1.30328 0
M  V30 16529 C 1567.75 -1.97328 1.16594 0
M  V30 16530 C 1568.75 -1.60504 0.0975023 0
M  V30 16531 O 1569.94 -1.70739 0.345524 0
M  V30 16532 C 1567.07 -3.31714 0.786045 0
M  V30 16533 H 1568.26 -2.1094 2.13177 0
M  V30 16534 H 1565.82 -1.07238 1.13708 0
M  V30 16535 H 1566.55 -3.23804 -0.179334 0
M  V30 16536 H 1566.34 -3.5981 1.55817 0
M  V30 16537 H 1567.83 -4.11461 0.71339 0
M  V30 16538 N 1568.26 -1.13026 -1.09832 0
M  V30 16539 C 1569.49 -0.912803 -1.86233 0
M  V30 16540 C 1569.91 0.532955 -1.80392 0
M  V30 16541 O 1569.27 1.37783 -1.17837 0
M  V30 16542 C 1569.32 -1.40002 -3.32313 0
M  V30 16543 O 1568.42 -0.582537 -4.08265 0
M  V30 16544 H 1567.77 -0.327464 -0.577636 0
M  V30 16545 H 1570.3 -1.5039 -1.38723 0
M  V30 16546 H 1570.31 -1.40182 -3.83162 0
M  V30 16547 H 1568.98 -2.4527 -3.3588 0
M  V30 16548 H 1567.56 -0.648255 -3.67222 0
M  V30 16549 N 1569.74 1.27735 -0.923117 0
M  V30 16550 C 1570.67 2.29395 -0.435907 0
M  V30 16551 C 1571.65 1.62542 0.501403 0
M  V30 16552 O 1572.84 1.89884 0.407135 0
M  V30 16553 C 1569.97 3.45856 0.316348 0
M  V30 16554 C 1568.92 4.24672 -0.532697 0
M  V30 16555 C 1568.25 5.33563 0.348454 0
M  V30 16556 C 1569.55 4.90494 -1.79481 0
M  V30 16557 H 1571.24 2.70398 -1.28551 0
M  V30 16558 H 1568.79 1.29989 -0.619581 0
M  V30 16559 H 1570.74 4.1607 0.668098 0
M  V30 16560 H 1569.47 3.03758 1.19994 0
M  V30 16561 H 1568.12 3.56198 -0.867093 0
M  V30 16562 H 1567.77 4.87708 1.23086 0
M  V30 16563 H 1567.47 5.87202 -0.216104 0
M  V30 16564 H 1569 6.06622 0.695878 0
M  V30 16565 H 1570.41 5.53019 -1.5114 0
M  V30 16566 H 1568.81 5.5417 -2.30251 0
M  V30 16567 H 1569.88 4.14454 -2.51707 0
M  V30 16568 N 1571.22 0.688118 1.41784 0
M  V30 16569 C 1572.45 0.223231 2.06195 0
M  V30 16570 C 1572.87 -1.11601 1.51416 0
M  V30 16571 O 1572.23 -1.69701 0.638059 0
M  V30 16572 C 1572.28 0.183257 3.60134 0
M  V30 16573 O 1571.38 -0.844186 4.03667 0
M  V30 16574 H 1570.72 0.110925 0.654669 0
M  V30 16575 H 1573.25 0.940882 1.81683 0
M  V30 16576 H 1573.26 0.0115951 4.07998 0
M  V30 16577 H 1571.94 1.16072 3.99375 0
M  V30 16578 H 1570.51 -0.642484 3.67323 0
M  V30 16579 N 1572.7 -1.51554 0.432352 0
M  V30 16580 C 1574.11 -1.86673 -0.0319274 0
M  V30 16581 C 1574.46 -1.34981 -1.42389 0
M  V30 16582 O 1573.59 -0.698556 -2.04815 0
M  V30 16583 C 1574.18 -3.38738 -0.0647127 0
M  V30 16584 C 1572.74 -3.73411 -0.47339 0
M  V30 16585 C 1571.89 -2.75242 0.337187 0
M  V30 16586 H 1574.84 -1.44849 0.648417 0
M  V30 16587 H 1574.86 -3.70297 -0.875239 0
M  V30 16588 H 1574.37 -3.76331 0.948507 0
M  V30 16589 H 1572.47 -3.41406 -1.4924 0
M  V30 16590 H 1572.58 -4.78675 -0.20165 0
M  V30 16591 H 1570.95 -2.53883 -0.203801 0
M  V30 16592 H 1571.73 -3.15677 1.34919 0
M  V30 16593 N 1574.18 -0.163538 -1.56749 0
M  V30 16594 C 1575.11 0.801071 -2.14745 0
M  V30 16595 C 1576.12 1.1992 -1.10104 0
M  V30 16596 O 1577.31 1.14041 -1.37321 0
M  V30 16597 C 1574.41 2.08867 -2.66886 0
M  V30 16598 C 1573.58 1.85532 -3.96102 0
M  V30 16599 C 1572.64 2.98436 -4.33385 0
M  V30 16600 O 1571.67 2.69408 -5.01406 0
M  V30 16601 N 1572.87 4.26029 -3.94309 0
M  V30 16602 H 1575.64 0.3053 -2.98141 0
M  V30 16603 H 1573.2 0.019501 -1.61888 0
M  V30 16604 H 1575.19 2.83477 -2.8883 0
M  V30 16605 H 1573.76 2.49657 -1.88122 0
M  V30 16606 H 1572.98 0.94868 -3.82614 0
M  V30 16607 H 1574.27 1.673 -4.80508 0
M  V30 16608 H 1573.66 4.52475 -3.39533 0
M  V30 16609 H 1572.22 4.97367 -4.21271 0
M  V30 16610 N 1575.65 1.57214 0.110213 0
M  V30 16611 C 1576.88 1.8923 0.829187 0
M  V30 16612 C 1577.29 0.753834 1.73534 0
M  V30 16613 O 1576.64 -0.283946 1.81492 0
M  V30 16614 C 1576.7 3.16351 1.7077 0
M  V30 16615 C 1576.36 4.46479 0.974949 0
M  V30 16616 C 1577.36 5.18965 0.311696 0
M  V30 16617 C 1575.04 4.93167 0.953516 0
M  V30 16618 C 1577.04 6.36364 -0.363191 0
M  V30 16619 C 1574.72 6.10482 0.274836 0
M  V30 16620 C 1575.72 6.81929 -0.382355 0
M  V30 16621 O 1575.41 7.97011 -1.05019 0
M  V30 16622 H 1575.14 0.630744 0.243184 0
M  V30 16623 H 1577.7 2.05173 0.09648 0
M  V30 16624 H 1575.93 2.96513 2.48227 0
M  V30 16625 H 1577.62 3.34317 2.30189 0
M  V30 16626 H 1578.38 4.83944 0.319815 0
M  V30 16627 H 1574.26 4.37454 1.45448 0
M  V30 16628 H 1577.8 6.92069 -0.876728 0
M  V30 16629 H 1573.7 6.44958 0.26451 0
M  V30 16630 H 1574.47 8.12903 -0.95555 0
M  V30 16631 N 1577.13 -0.380637 1.52934 0
M  V30 16632 C 1578.38 -1.1265 1.68635 0
M  V30 16633 C 1578.71 -1.89397 0.429227 0
M  V30 16634 O 1577.99 -1.85863 -0.573182 0
M  V30 16635 C 1578.27 -2.09797 2.92673 0
M  V30 16636 C 1578.12 -1.36758 4.28506 0
M  V30 16637 C 1579.44 -3.10117 3.12274 0
M  V30 16638 H 1576.56 -0.408158 0.613658 0
M  V30 16639 H 1579.2 -0.408947 1.85547 0
M  V30 16640 H 1577.35 -2.70987 2.78385 0
M  V30 16641 H 1579.02 -0.784679 4.54577 0
M  V30 16642 H 1577.27 -0.669413 4.28604 0
M  V30 16643 H 1577.94 -2.07786 5.11399 0
M  V30 16644 H 1580.41 -2.59022 3.25648 0
M  V30 16645 H 1579.29 -3.75328 4.00525 0
M  V30 16646 H 1579.55 -3.79451 2.26868 0
M  V30 16647 N 1578.61 -1.44039 -0.639573 0
M  V30 16648 C 1579.84 -1.50063 -1.43164 0
M  V30 16649 C 1580.26 -0.123906 -1.87691 0
M  V30 16650 O 1579.62 0.885192 -1.58221 0
M  V30 16651 C 1579.67 -2.46305 -2.63375 0
M  V30 16652 O 1578.77 -1.95874 -3.62915 0
M  V30 16653 H 1578.11 -0.507052 -0.428713 0
M  V30 16654 H 1580.64 -1.8909 -0.781415 0
M  V30 16655 H 1580.65 -2.64062 -3.11023 0
M  V30 16656 H 1579.33 -3.46309 -2.3031 0
M  V30 16657 H 1577.9 -1.87844 -3.22132 0
M  V30 16658 N 1580.09 0.879207 -1.30796 0
M  V30 16659 C 1581.32 1.66208 -1.22713 0
M  V30 16660 C 1581.73 1.88014 0.211506 0
M  V30 16661 O 1581.07 1.43183 1.15084 0
M  V30 16662 C 1581.13 3.05733 -1.89123 0
M  V30 16663 C 1580.8 3.07075 -3.38458 0
M  V30 16664 C 1581.79 2.85709 -4.34358 0
M  V30 16665 C 1579.48 3.28489 -3.8 0
M  V30 16666 C 1581.47 2.85722 -5.69773 0
M  V30 16667 C 1579.16 3.28131 -5.15532 0
M  V30 16668 C 1580.16 3.06773 -6.10229 0
M  V30 16669 O 1579.84 3.06243 -7.43283 0
M  V30 16670 H 1579.58 0.525224 -0.425577 0
M  V30 16671 H 1582.13 1.10636 -1.73057 0
M  V30 16672 H 1580.36 3.62993 -1.33316 0
M  V30 16673 H 1582.05 3.66199 -1.7508 0
M  V30 16674 H 1582.82 2.68956 -4.03593 0
M  V30 16675 H 1578.69 3.44147 -3.06731 0
M  V30 16676 H 1582.24 2.6897 -6.43662 0
M  V30 16677 H 1578.14 3.44422 -5.45934 0
M  V30 16678 H 1578.9 3.22369 -7.52343 0
M  V30 16679 N 1581.57 1.13606 1.09231 0
M  V30 16680 C 1582.52 0.810747 2.18013 0
M  V30 16681 C 1583.51 -0.207782 1.68121 0
M  V30 16682 O 1584.72 -0.0647274 1.79884 0
M  V30 16683 H 1581.09 0.244415 0.711172 0
M  V30 16684 H 1583.06 1.73632 2.42682 0
M  V30 16685 C 1581.81 0.295302 3.46444 0
M  V30 16686 H 1581.13 1.07037 3.85205 0
M  V30 16687 H 1582.57 0.106127 4.23867 0
M  V30 16688 C 1581.03 -0.979398 3.2235 0
M  V30 16689 O 1581.56 -2.05483 3.45166 0
M  V30 16690 N 1579.77 -0.911282 2.75942 0
M  V30 16691 H 1579.32 -0.035979 2.57575 0
M  V30 16692 H 1579.27 -1.76476 2.60199 0
M  V30 16693 N 1583.05 -1.27244 0.929878 0
M  V30 16694 C 1583.98 -2.25893 0.387967 0
M  V30 16695 C 1584.99 -1.55485 -0.482524 0
M  V30 16696 O 1586.18 -1.76049 -0.294795 0
M  V30 16697 C 1583.28 -3.35729 -0.462544 0
M  V30 16698 C 1582.45 -4.35665 0.38916 0
M  V30 16699 C 1581.51 -5.24685 -0.399061 0
M  V30 16700 O 1580.54 -5.68869 0.193996 0
M  V30 16701 N 1581.74 -5.551 -1.69836 0
M  V30 16702 H 1584.5 -2.73027 1.23597 0
M  V30 16703 H 1582.07 -1.40893 0.797539 0
M  V30 16704 H 1584.06 -3.92228 -0.996974 0
M  V30 16705 H 1582.63 -2.88177 -1.2113 0
M  V30 16706 H 1581.85 -3.78399 1.10488 0
M  V30 16707 H 1583.14 -4.99442 0.971349 0
M  V30 16708 H 1582.53 -5.21064 -2.20248 0
M  V30 16709 H 1581.09 -6.14289 -2.17927 0
M  V30 16710 N 1584.52 -0.695628 -1.41417 0
M  V30 16711 C 1585.75 -0.234163 -2.06074 0
M  V30 16712 C 1586.17 1.10796 -1.52006 0
M  V30 16713 O 1585.53 1.6936 -0.64705 0
M  V30 16714 C 1585.58 -0.202353 -3.60032 0
M  V30 16715 O 1584.68 0.822767 -4.04109 0
M  V30 16716 H 1584.02 -0.114395 -0.654072 0
M  V30 16717 H 1586.55 -0.950503 -1.81181 0
M  V30 16718 H 1586.56 -0.0332321 -4.07986 0
M  V30 16719 H 1585.24 -1.18188 -3.98754 0
M  V30 16720 H 1583.82 0.622995 -3.67659 0
M  V30 16721 N 1586 1.51322 -0.440383 0
M  V30 16722 C 1587.23 2.07017 0.126018 0
M  V30 16723 C 1587.65 1.30537 1.35431 0
M  V30 16724 O 1587.01 0.344178 1.78003 0
M  V30 16725 C 1587.06 3.58101 0.4238 0
M  V30 16726 O 1586.16 3.83772 1.50973 0
M  V30 16727 H 1585.5 0.664 0.000530178 0
M  V30 16728 H 1588.03 1.94897 -0.622594 0
M  V30 16729 H 1588.04 4.02405 0.673363 0
M  V30 16730 H 1586.72 4.13191 -0.473932 0
M  V30 16731 H 1585.29 3.51329 1.24989 0
M  V30 16732 N 1587.48 0.171848 1.5666 0
M  V30 16733 C 1588.71 -0.478526 2.00982 0
M  V30 16734 C 1589.12 -1.57313 1.05115 0
M  V30 16735 O 1588.46 -1.83647 0.0441833 0
M  V30 16736 C 1588.52 -1.11633 3.41729 0
M  V30 16737 C 1588.19 -0.163307 4.56708 0
M  V30 16738 C 1589.18 0.618553 5.16207 0
M  V30 16739 C 1586.87 -0.0589794 5.02265 0
M  V30 16740 C 1588.86 1.49194 6.19693 0
M  V30 16741 C 1586.55 0.817987 6.05601 0
M  V30 16742 C 1587.55 1.59203 6.64186 0
M  V30 16743 O 1587.24 2.45434 7.65518 0
M  V30 16744 H 1586.97 -0.126833 0.663995 0
M  V30 16745 H 1589.52 0.270866 2.03606 0
M  V30 16746 H 1587.75 -1.91385 3.36019 0
M  V30 16747 H 1589.44 -1.66896 3.70001 0
M  V30 16748 H 1590.21 0.548127 4.81893 0
M  V30 16749 H 1586.09 -0.651245 4.56377 0
M  V30 16750 H 1589.63 2.09656 6.6535 0
M  V30 16751 H 1585.53 0.889614 6.3934 0
M  V30 16752 H 1586.29 2.38955 7.82843 0
M  V30 16753 N 1588.96 -1.5727 -0.101874 0
M  V30 16754 C 1590.19 -1.89943 -0.820329 0
M  V30 16755 C 1590.6 -0.764867 -1.72613 0
M  V30 16756 O 1589.96 0.263499 -1.80588 0
M  V30 16757 C 1590.01 -3.2219 -1.63939 0
M  V30 16758 O 1589.73 -4.31279 -0.770039 0
M  V30 16759 C 1591.23 -3.6868 -2.46151 0
M  V30 16760 H 1588.45 -0.628532 -0.234922 0
M  V30 16761 H 1590.99 -2.04339 -0.0811362 0
M  V30 16762 H 1589.15 -3.09411 -2.33117 0
M  V30 16763 H 1589.56 -5.07182 -1.33665 0
M  V30 16764 H 1591.04 -4.63928 -2.99124 0
M  V30 16765 H 1591.51 -2.96183 -3.24303 0
M  V30 16766 H 1592.12 -3.84303 -1.82185 0
M  V30 16767 N 1590.44 0.372521 -1.53134 0
M  V30 16768 C 1591.37 1.4759 -1.75357 0
M  V30 16769 C 1592.38 1.49938 -0.634223 0
M  V30 16770 O 1593.57 1.53543 -0.910322 0
M  V30 16771 C 1590.67 2.86382 -1.81214 0
M  V30 16772 C 1589.84 3.0781 -3.1076 0
M  V30 16773 C 1588.9 4.26677 -3.07949 0
M  V30 16774 O 1587.93 4.22186 -3.81769 0
M  V30 16775 N 1589.13 5.33729 -2.28283 0
M  V30 16776 H 1591.89 1.28908 -2.7056 0
M  V30 16777 H 1589.46 0.562186 -1.51826 0
M  V30 16778 H 1591.45 3.64029 -1.7682 0
M  V30 16779 H 1590.02 2.98344 -0.933249 0
M  V30 16780 H 1589.24 2.17884 -3.28512 0
M  V30 16781 H 1590.53 3.18991 -3.96386 0
M  V30 16782 H 1589.92 5.40238 -1.67806 0
M  V30 16783 H 1588.48 6.09979 -2.29714 0
M  V30 16784 N 1591.91 1.44376 0.631925 0
M  V30 16785 C 1593.16 1.48329 1.39176 0
M  V30 16786 C 1593.51 0.113879 1.92063 0
M  V30 16787 O 1592.81 -0.870764 1.7067 0
M  V30 16788 C 1593 2.47828 2.57519 0
M  V30 16789 C 1592.83 3.94309 2.16218 0
M  V30 16790 C 1591.6 4.62495 2.03534 0
M  V30 16791 C 1593.8 4.83546 1.75179 0
M  V30 16792 N 1591.78 5.93804 1.55788 0
M  V30 16793 C 1593.15 6.04293 1.38672 0
M  V30 16794 C 1595.21 4.70618 1.62553 0
M  V30 16795 C 1593.91 7.13546 0.908012 0
M  V30 16796 C 1595.94 5.79895 1.16086 0
M  V30 16797 C 1595.3 6.99782 0.805289 0
M  V30 16798 H 1591.4 0.597818 0.504121 0
M  V30 16799 H 1593.98 1.80697 0.725026 0
M  V30 16800 H 1592.15 2.17452 3.21822 0
M  V30 16801 H 1593.88 2.42082 3.24312 0
M  V30 16802 H 1590.64 4.17298 2.23963 0
M  V30 16803 H 1591.06 6.63562 1.34216 0
M  V30 16804 H 1595.7 3.78367 1.88675 0
M  V30 16805 H 1593.42 8.05607 0.634297 0
M  V30 16806 H 1597.01 5.71918 1.06776 0
M  V30 16807 H 1595.89 7.82901 0.451239 0
M  V30 16808 N 1593.39 -0.872258 1.31261 0
M  V30 16809 C 1594.67 -1.60739 1.11456 0
M  V30 16810 C 1595.05 -2.0848 -0.331569 0
M  V30 16811 O 1594.4 -1.86141 -1.32528 0
M  V30 16812 C 1594.61 -2.76714 2.12674 0
M  V30 16813 C 1595.95 -3.46734 2.45074 0
M  V30 16814 O 1596.98 -2.86919 2.11083 0
M  V30 16815 O 1595.84 -4.54632 3.0327 0
M  V30 16816 H 1592.93 -0.70707 0.428929 0
M  V30 16817 H 1595.48 -0.917922 1.42732 0
M  V30 16818 H 1594.25 -2.38834 3.09958 0
M  V30 16819 H 1593.87 -3.5335 1.8229 0
M  V30 16820 N 1594.87 -1.14184 -1.08627 0
M  V30 16821 C 1595.8 -0.849455 -2.17501 0
M  V30 16822 C 1596.78 0.194617 -1.68983 0
M  V30 16823 O 1597.97 0.0517757 -1.94131 0
M  V30 16824 C 1595.1 -0.323685 -3.45788 0
M  V30 16825 C 1594.05 -1.30294 -4.07685 0
M  V30 16826 C 1593.38 -0.636575 -5.30897 0
M  V30 16827 C 1594.68 -2.66441 -4.49229 0
M  V30 16828 H 1596.37 -1.75987 -2.42217 0
M  V30 16829 H 1593.92 -0.847595 -1.16412 0
M  V30 16830 H 1595.87 -0.106754 -4.21265 0
M  V30 16831 H 1594.59 0.62215 -3.20619 0
M  V30 16832 H 1593.25 -1.50601 -3.34238 0
M  V30 16833 H 1592.9 0.314995 -5.02013 0
M  V30 16834 H 1592.6 -1.28998 -5.73266 0
M  V30 16835 H 1594.12 -0.429117 -6.0909 0
M  V30 16836 H 1595.54 -2.50055 -5.15893 0
M  V30 16837 H 1593.93 -3.28033 -5.02508 0
M  V30 16838 H 1595 -3.23486 -3.61226 0
M  V30 16839 N 1596.35 1.26749 -0.936613 0
M  V30 16840 C 1597.28 2.25684 -0.399941 0
M  V30 16841 C 1598.29 1.55739 0.474271 0
M  V30 16842 O 1599.48 1.76203 0.285454 0
M  V30 16843 C 1596.58 3.35969 0.444733 0
M  V30 16844 C 1595.76 4.35453 -0.412258 0
M  V30 16845 C 1594.81 5.24889 0.37123 0
M  V30 16846 O 1593.84 5.68758 -0.224162 0
M  V30 16847 N 1595.04 5.55993 1.66889 0
M  V30 16848 H 1597.81 2.72368 -1.25043 0
M  V30 16849 H 1595.37 1.40468 -0.805 0
M  V30 16850 H 1597.36 3.92751 0.976159 0
M  V30 16851 H 1595.93 2.88816 1.196 0
M  V30 16852 H 1595.15 3.77808 -1.12493 0
M  V30 16853 H 1596.44 4.9892 -0.997822 0
M  V30 16854 H 1595.84 5.22224 2.17481 0
M  V30 16855 H 1594.39 6.15436 2.14666 0
M  V30 16856 N 1597.83 0.703118 1.41046 0
M  V30 16857 C 1599.24 0.311167 1.84089 0
M  V30 16858 C 1599.59 -1.15202 1.58818 0
M  V30 16859 O 1598.71 -1.88518 1.06254 0
M  V30 16860 C 1599.31 0.557986 3.34174 0
M  V30 16861 C 1597.87 0.219875 3.75757 0
M  V30 16862 C 1597.01 0.836543 2.64381 0
M  V30 16863 H 1599.97 0.903211 1.30491 0
M  V30 16864 H 1599.99 -0.180865 3.8007 0
M  V30 16865 H 1599.5 1.62298 3.52535 0
M  V30 16866 H 1597.6 -0.840559 3.62995 0
M  V30 16867 H 1597.71 0.680165 4.74247 0
M  V30 16868 H 1596.08 0.265547 2.53312 0
M  V30 16869 H 1596.86 1.90556 2.85558 0
M  V30 16870 N 1599.3 -1.51086 0.448402 0
M  V30 16871 C 1600.58 -1.94817 -0.174819 0
M  V30 16872 C 1600.96 -1.38767 -1.59081 0
M  V30 16873 O 1600.31 -0.579257 -2.21036 0
M  V30 16874 C 1600.52 -3.48714 -0.14129 0
M  V30 16875 C 1601.87 -4.23225 -0.341414 0
M  V30 16876 O 1602.89 -3.55527 -0.218908 0
M  V30 16877 O 1601.75 -5.43346 -0.586331 0
M  V30 16878 H 1598.84 -0.817652 -0.12399 0
M  V30 16879 H 1601.39 -1.61944 0.507177 0
M  V30 16880 H 1600.16 -3.81996 0.848222 0
M  V30 16881 H 1599.79 -3.88061 -0.865722 0
M  V30 16882 N 1600.78 -0.180154 -1.56567 0
M  V30 16883 C 1602.01 0.46854 -2.01525 0
M  V30 16884 C 1602.43 1.56211 -1.06036 0
M  V30 16885 O 1601.78 1.82392 -0.06269 0
M  V30 16886 C 1601.83 1.0387 -3.46256 0
M  V30 16887 O 1601.55 -0.0112203 -4.38099 0
M  V30 16888 C 1603.06 1.76475 -4.06659 0
M  V30 16889 H 1600.28 0.119098 -0.660346 0
M  V30 16890 H 1602.82 -0.284477 -2.02512 0
M  V30 16891 H 1600.97 1.74217 -3.46016 0
M  V30 16892 H 1601.39 0.41099 -5.22887 0
M  V30 16893 H 1602.86 2.11618 -5.09825 0
M  V30 16894 H 1603.34 2.66301 -3.49257 0
M  V30 16895 H 1603.95 1.10749 -4.10627 0
M  V30 16896 N 1602.26 1.57322 0.0935319 0
M  V30 16897 C 1603.54 1.77187 0.828503 0
M  V30 16898 C 1603.92 0.762216 1.96859 0
M  V30 16899 O 1603.27 -0.208982 2.27542 0
M  V30 16900 C 1603.48 3.23007 1.32163 0
M  V30 16901 C 1604.82 3.86233 1.76379 0
M  V30 16902 O 1605.85 3.26766 1.41783 0
M  V30 16903 O 1604.71 4.90808 2.40354 0
M  V30 16904 H 1601.8 0.726401 0.395311 0
M  V30 16905 H 1604.35 1.69533 0.0752924 0
M  V30 16906 H 1603.12 3.88029 0.504863 0
M  V30 16907 H 1602.74 3.353 2.13681 0
M  V30 16908 N 1603.74 -0.364395 1.53329 0
M  V30 16909 C 1604.97 -1.12586 1.73228 0
M  V30 16910 C 1605.38 -1.83482 0.461614 0
M  V30 16911 O 1604.72 -1.74459 -0.575295 0
M  V30 16912 C 1604.78 -2.1994 2.84371 0
M  V30 16913 C 1604.45 -1.688 4.24683 0
M  V30 16914 C 1605.44 -1.15145 5.06989 0
M  V30 16915 C 1603.13 -1.74277 4.71097 0
M  V30 16916 C 1605.12 -0.676447 6.338 0
M  V30 16917 C 1602.81 -1.26389 5.97887 0
M  V30 16918 C 1603.81 -0.731632 6.7907 0
M  V30 16919 O 1603.49 -0.259825 8.0348 0
M  V30 16920 H 1603.23 -0.342514 0.582804 0
M  V30 16921 H 1605.78 -0.428832 2.00874 0
M  V30 16922 H 1604.01 -2.9314 2.52202 0
M  V30 16923 H 1605.7 -2.81489 2.92436 0
M  V30 16924 H 1606.47 -1.10251 4.72303 0
M  V30 16925 H 1602.34 -2.14647 4.0798 0
M  V30 16926 H 1605.89 -0.260327 6.97114 0
M  V30 16927 H 1601.79 -1.30977 6.32072 0
M  V30 16928 H 1602.55 -0.379044 8.17622 0
M  V30 16929 N 1605.22 -1.44709 -0.62426 0
M  V30 16930 C 1606.13 -1.54608 -1.76447 0
M  V30 16931 C 1607.14 -0.43137 -1.68568 0
M  V30 16932 O 1608.32 -0.6897 -1.89222 0
M  V30 16933 C 1605.38 -1.49404 -3.12857 0
M  V30 16934 C 1604.44 -2.71782 -3.32315 0
M  V30 16935 C 1603.68 -2.66817 -4.62217 0
M  V30 16936 O 1603.9 -1.73205 -5.43467 0
M  V30 16937 O 1602.83 -3.57773 -4.84027 0
M  V30 16938 H 1606.66 -2.50951 -1.71048 0
M  V30 16939 H 1604.25 -1.27033 -0.786326 0
M  V30 16940 H 1606.13 -1.4905 -3.9416 0
M  V30 16941 H 1604.8 -0.562078 -3.18783 0
M  V30 16942 H 1603.71 -2.77702 -2.50664 0
M  V30 16943 H 1605.04 -3.64048 -3.31255 0
M  V30 16944 N 1606.69 0.865285 -1.31722 0
M  V30 16945 C 1607.94 1.6135 -1.21033 0
M  V30 16946 C 1608.26 1.94253 0.229141 0
M  V30 16947 O 1609.46 2.67613 0.457771 0
M  V30 16948 C 1607.92 2.90898 -2.11912 0
M  V30 16949 C 1607.53 2.6546 -3.60881 0
M  V30 16950 C 1609.27 3.68898 -2.10035 0
M  V30 16951 C 1607.18 3.90943 -4.43754 0
M  V30 16952 H 1606.11 0.605418 -0.449428 0
M  V30 16953 H 1608.76 0.956335 -1.56609 0
M  V30 16954 H 1607.14 3.58014 -1.69239 0
M  V30 16955 H 1608.31 2.06721 -4.11829 0
M  V30 16956 H 1606.63 2.00806 -3.64782 0
M  V30 16957 H 1609.23 4.61995 -2.69193 0
M  V30 16958 H 1609.57 4.01813 -1.08865 0
M  V30 16959 H 1610.1 3.08671 -2.50932 0
M  V30 16960 H 1606.84 3.63176 -5.45696 0
M  V30 16961 H 1606.36 4.49116 -3.97561 0
M  V30 16962 H 1608.04 4.58784 -4.56208 0
M  V30 16963 N 1608.17 1.14759 1.0802 0
M  V30 16964 C 1609.12 0.806682 2.13253 0
M  V30 16965 C 1610.11 -0.205966 1.59576 0
M  V30 16966 O 1611.3 -0.00771878 1.76998 0
M  V30 16967 C 1608.43 0.290219 3.42071 0
M  V30 16968 C 1607.51 1.33262 4.02619 0
M  V30 16969 N 1607.9 2.53793 4.37519 0
M  V30 16970 C 1606.2 1.18377 4.30003 0
M  V30 16971 C 1606.9 3.20554 4.85407 0
M  V30 16972 N 1605.88 2.47951 4.83757 0
M  V30 16973 H 1609.68 1.72351 2.3806 0
M  V30 16974 H 1607.2 1.03203 1.25391 0
M  V30 16975 H 1609.19 0.0276782 4.16891 0
M  V30 16976 H 1607.85 -0.620751 3.18711 0
M  V30 16977 H 1608.86 2.9099 4.28422 0
M  V30 16978 H 1605.54 0.332142 4.16177 0
M  V30 16979 H 1606.93 4.23342 5.21758 0
M  V30 16980 N 1609.65 -1.26251 0.943322 0
M  V30 16981 C 1610.58 -2.28673 0.472347 0
M  V30 16982 C 1611.56 -1.63319 -0.475481 0
M  V30 16983 O 1612.75 -1.90508 -0.376875 0
M  V30 16984 C 1609.88 -3.46316 -0.261286 0
M  V30 16985 C 1608.83 -4.23771 0.600192 0
M  V30 16986 C 1608.16 -5.3405 -0.263525 0
M  V30 16987 C 1609.46 -4.87576 1.87262 0
M  V30 16988 H 1611.15 -2.68319 1.32836 0
M  V30 16989 H 1608.7 -1.28987 0.640182 0
M  V30 16990 H 1610.65 -4.1708 -0.601821 0
M  V30 16991 H 1609.37 -3.05629 -1.15146 0
M  V30 16992 H 1608.03 -3.54774 0.923651 0
M  V30 16993 H 1607.68 -4.89604 -1.15312 0
M  V30 16994 H 1607.38 -5.86784 0.309495 0
M  V30 16995 H 1608.9 -6.07652 -0.599281 0
M  V30 16996 H 1610.32 -5.50544 1.59919 0
M  V30 16997 H 1608.72 -5.50437 2.39038 0
M  V30 16998 H 1609.79 -4.10397 2.58268 0
M  V30 16999 N 1611.13 -0.710588 -1.40671 0
M  V30 17000 C 1612.38 -0.247949 -2.00976 0
M  V30 17001 C 1612.7 1.15725 -1.56327 0
M  V30 17002 O 1611.96 1.79826 -0.77208 0
M  V30 17003 C 1612.26 -0.270478 -3.56375 0
M  V30 17004 C 1611.92 -1.62528 -4.2059 0
M  V30 17005 C 1610.59 -1.99614 -4.37844 0
M  V30 17006 C 1612.94 -2.51591 -4.56455 0
M  V30 17007 C 1610.27 -3.2532 -4.88246 0
M  V30 17008 C 1612.62 -3.76644 -5.08254 0
M  V30 17009 C 1611.28 -4.13855 -5.23718 0
M  V30 17010 H 1610.55 -0.0907308 -0.735424 0
M  V30 17011 H 1613.2 -0.912636 -1.68354 0
M  V30 17012 H 1611.5 0.477777 -3.88876 0
M  V30 17013 H 1613.2 0.105243 -4.00862 0
M  V30 17014 H 1609.79 -1.32686 -4.07544 0
M  V30 17015 H 1613.98 -2.24215 -4.42766 0
M  V30 17016 H 1609.23 -3.54125 -4.98403 0
M  V30 17017 H 1613.41 -4.45832 -5.34983 0
M  V30 17018 H 1611.03 -5.1133 -5.62535 0
M  V30 17019 N 1612.61 1.50847 -0.456408 0
M  V30 17020 C 1613.55 2.28202 0.345341 0
M  V30 17021 C 1614.52 1.32611 1.00017 0
M  V30 17022 O 1615.71 1.61535 1.01543 0
M  V30 17023 C 1612.85 3.14087 1.42981 0
M  V30 17024 C 1611.96 4.24693 0.791217 0
M  V30 17025 C 1611.1 4.97857 1.85234 0
M  V30 17026 C 1610.14 6.00357 1.1932 0
M  V30 17027 N 1609.27 6.66856 2.19652 0
M  V30 17028 H 1614.11 2.9627 -0.320646 0
M  V30 17029 H 1611.65 1.46115 -0.169973 0
M  V30 17030 H 1613.61 3.62222 2.07006 0
M  V30 17031 H 1612.24 2.48095 2.06516 0
M  V30 17032 H 1611.29 3.8038 0.0387694 0
M  V30 17033 H 1612.6 4.98068 0.270177 0
M  V30 17034 H 1611.76 5.49636 2.56875 0
M  V30 17035 H 1610.5 4.24155 2.40715 0
M  V30 17036 H 1609.5 5.47853 0.462341 0
M  V30 17037 H 1610.73 6.76025 0.645473 0
M  V30 17038 H 1608.67 5.95955 2.74178 0
M  V30 17039 H 1608.59 7.36059 1.72492 0
M  V30 17040 H 1609.86 7.23259 2.90719 0
M  V30 17041 N 1614.09 0.188454 1.56469 0
M  V30 17042 C 1615 -0.747176 2.22384 0
M  V30 17043 C 1616.01 -1.23985 1.22081 0
M  V30 17044 O 1617.19 -1.2884 1.54797 0
M  V30 17045 C 1614.25 -1.95228 2.86508 0
M  V30 17046 C 1613.31 -1.50482 4.02062 0
M  V30 17047 C 1612.55 -2.65248 4.63119 0
M  V30 17048 O 1612.77 -3.8256 4.23088 0
M  V30 17049 O 1611.7 -2.38341 5.527 0
M  V30 17050 H 1615.53 -0.215857 3.02932 0
M  V30 17051 H 1613.11 -0.0405356 1.49345 0
M  V30 17052 H 1615 -2.65673 3.27103 0
M  V30 17053 H 1613.67 -2.47233 2.08944 0
M  V30 17054 H 1612.58 -0.769365 3.66103 0
M  V30 17055 H 1613.91 -1.03151 4.8127 0
M  V30 17056 N 1615.56 -1.5737 -0.0851874 0
M  V30 17057 C 1616.98 -1.53425 -0.439651 0
M  V30 17058 C 1617.18 -0.906663 -1.7995 0
M  V30 17059 O 1616.24 -0.503414 -2.47431 0
M  V30 17060 C 1617.55 -2.9812 -0.393028 0
M  V30 17061 C 1619.1 -3.09387 -0.474175 0
M  V30 17062 C 1619.57 -4.55708 -0.457598 0
M  V30 17063 N 1621.06 -4.60294 -0.518065 0
M  V30 17064 C 1621.8 -5.70971 -0.527237 0
M  V30 17065 N 1621.29 -6.91051 -0.492023 0
M  V30 17066 N 1623.09 -5.59174 -0.572792 0
M  V30 17067 H 1615.24 -1.96538 0.805399 0
M  V30 17068 H 1617.5 -0.899 0.300836 0
M  V30 17069 H 1617.21 -3.47542 0.539204 0
M  V30 17070 H 1617.08 -3.57324 -1.20829 0
M  V30 17071 H 1619.47 -2.59948 -1.39683 0
M  V30 17072 H 1619.55 -2.53119 0.369411 0
M  V30 17073 H 1619.19 -5.05802 0.46115 0
M  V30 17074 H 1619.12 -5.09826 -1.31853 0
M  V30 17075 H 1621.61 -3.73875 -0.550072 0
M  V30 17076 H 1621.93 -7.71164 -0.502578 0
M  V30 17077 H 1620.27 -6.93483 -0.458917 0
M  V30 17078 H 1623.46 -4.64266 -0.597901 0
M  V30 17079 H 1623.64 -6.45431 -0.576471 0
M  V30 17080 N 1617.04 0.356258 -1.53521 0
M  V30 17081 C 1617.97 1.45965 -1.75413 0
M  V30 17082 C 1618.95 1.51015 -0.602774 0
M  V30 17083 O 1620.14 1.68925 -0.836459 0
M  V30 17084 C 1617.26 2.84276 -1.84132 0
M  V30 17085 C 1616.31 2.96909 -3.06182 0
M  V30 17086 S 1617.14 2.64695 -4.65507 0
M  V30 17087 C 1618.3 4.05138 -4.77089 0
M  V30 17088 H 1618.53 1.27176 -2.68726 0
M  V30 17089 H 1616.06 0.551163 -1.44227 0
M  V30 17090 H 1618.02 3.63965 -1.89842 0
M  V30 17091 H 1616.68 3.00369 -0.918542 0
M  V30 17092 H 1615.88 3.98226 -3.08921 0
M  V30 17093 H 1615.48 2.25154 -2.98633 0
M  V30 17094 H 1617.77 4.99502 -4.57717 0
M  V30 17095 H 1618.71 4.074 -5.79164 0
M  V30 17096 H 1619.12 3.92572 -4.05644 0
M  V30 17097 N 1618.52 1.45038 0.616577 0
M  V30 17098 C 1619.77 1.48585 1.37582 0
M  V30 17099 C 1620.09 0.124065 1.94104 0
M  V30 17100 O 1619.35 -0.876112 1.74994 0
M  V30 17101 C 1619.65 2.50545 2.54876 0
M  V30 17102 C 1619.31 3.95493 2.16555 0
M  V30 17103 C 1617.98 4.34963 2.05818 0
M  V30 17104 C 1620.33 4.86685 1.86512 0
M  V30 17105 C 1617.66 5.63531 1.63246 0
M  V30 17106 C 1620.01 6.15657 1.4543 0
M  V30 17107 C 1618.67 6.54066 1.33244 0
M  V30 17108 H 1617.94 0.543711 0.503447 0
M  V30 17109 H 1620.59 1.78334 0.697787 0
M  V30 17110 H 1618.89 2.14332 3.27977 0
M  V30 17111 H 1620.59 2.50531 3.13106 0
M  V30 17112 H 1617.18 3.64275 2.25836 0
M  V30 17113 H 1621.37 4.56936 1.9371 0
M  V30 17114 H 1616.62 5.92094 1.52427 0
M  V30 17115 H 1620.8 6.85768 1.21226 0
M  V30 17116 H 1618.42 7.5359 1.0003 0
M  V30 17117 N 1620 -0.858287 1.32179 0
M  V30 17118 C 1621.41 -1.14591 1.1109 0
M  V30 17119 C 1621.61 -2.01194 -0.110998 0
M  V30 17120 O 1620.67 -2.39593 -0.79695 0
M  V30 17121 C 1621.98 -1.82675 2.38852 0
M  V30 17122 C 1623.53 -1.95326 2.44574 0
M  V30 17123 C 1624.01 -2.66826 3.72247 0
M  V30 17124 N 1625.5 -2.74353 3.73208 0
M  V30 17125 C 1626.23 -3.30317 4.68698 0
M  V30 17126 N 1625.73 -3.87121 5.74552 0
M  V30 17127 N 1627.52 -3.28386 4.562 0
M  V30 17128 H 1619.67 -0.281471 2.10527 0
M  V30 17129 H 1621.93 -0.187326 0.929308 0
M  V30 17130 H 1621.64 -1.26495 3.28165 0
M  V30 17131 H 1621.51 -2.82862 2.49537 0
M  V30 17132 H 1623.9 -2.50668 1.55723 0
M  V30 17133 H 1623.98 -0.94147 2.37844 0
M  V30 17134 H 1623.63 -2.12149 4.61471 0
M  V30 17135 H 1623.56 -3.68437 3.76247 0
M  V30 17136 H 1626.05 -2.34051 2.96696 0
M  V30 17137 H 1626.36 -4.2797 6.43476 0
M  V30 17138 H 1624.71 -3.85463 5.78311 0
M  V30 17139 H 1627.9 -2.83254 3.72672 0
M  V30 17140 H 1628.07 -3.71701 5.30794 0
M  V30 17141 N 1621.48 -1.1533 -1.07409 0
M  V30 17142 C 1622.43 -0.81798 -2.12822 0
M  V30 17143 C 1623.41 0.1975 -1.59683 0
M  V30 17144 O 1624.6 -0.00166798 -1.77 0
M  V30 17145 C 1621.73 -0.308356 -3.41912 0
M  V30 17146 C 1620.82 -1.35396 -4.01906 0
M  V30 17147 N 1621.21 -2.5611 -4.36167 0
M  V30 17148 C 1619.51 -1.20656 -4.29369 0
M  V30 17149 C 1620.21 -3.23124 -4.837 0
M  V30 17150 N 1619.18 -2.50513 -4.82436 0
M  V30 17151 H 1622.98 -1.73611 -2.37143 0
M  V30 17152 H 1620.5 -1.03867 -1.24842 0
M  V30 17153 H 1622.5 -0.0497865 -4.1687 0
M  V30 17154 H 1621.16 0.60384 -3.19036 0
M  V30 17155 H 1622.17 -2.93258 -4.26873 0
M  V30 17156 H 1618.84 -0.354208 -4.15995 0
M  V30 17157 H 1620.23 -4.26103 -5.19505 0
M  V30 17158 N 1622.95 1.25748 -0.950004 0
M  V30 17159 C 1623.89 2.25247 -0.423855 0
M  V30 17160 C 1624.9 1.56233 0.457726 0
M  V30 17161 O 1626.09 1.76496 0.266749 0
M  V30 17162 C 1623.19 3.36422 0.409074 0
M  V30 17163 C 1622.36 4.34991 -0.458421 0
M  V30 17164 C 1621.42 5.25253 0.315537 0
M  V30 17165 O 1620.45 5.68489 -0.284474 0
M  V30 17166 N 1621.65 5.57732 1.60983 0
M  V30 17167 H 1624.41 2.71026 -1.27925 0
M  V30 17168 H 1621.97 1.39607 -0.819853 0
M  V30 17169 H 1623.97 3.93764 0.934447 0
M  V30 17170 H 1622.54 2.90068 1.1653 0
M  V30 17171 H 1621.76 3.76594 -1.16494 0
M  V30 17172 H 1623.04 4.97833 -1.05068 0
M  V30 17173 H 1622.44 5.24502 2.1193 0
M  V30 17174 H 1621 6.17678 2.08126 0
M  V30 17175 N 1624.43 0.718038 1.40292 0
M  V30 17176 C 1625.36 0.0160994 2.28194 0
M  V30 17177 C 1626.34 -0.765159 1.43472 0
M  V30 17178 O 1627.53 -0.751283 1.72881 0
M  V30 17179 C 1624.65 -0.984558 3.24074 0
M  V30 17180 C 1623.7 -0.293817 4.25487 0
M  V30 17181 S 1624.53 0.980059 5.26455 0
M  V30 17182 C 1625.69 -0.0184326 6.25897 0
M  V30 17183 H 1625.92 0.761585 2.8738 0
M  V30 17184 H 1623.45 0.509158 1.45763 0
M  V30 17185 H 1625.41 -1.55667 3.7984 0
M  V30 17186 H 1624.07 -1.70276 2.63941 0
M  V30 17187 H 1623.27 -1.05037 4.92933 0
M  V30 17188 H 1622.87 0.205802 3.73433 0
M  V30 17189 H 1625.16 -0.864464 6.71962 0
M  V30 17190 H 1626.1 0.622712 7.05357 0
M  V30 17191 H 1626.51 -0.383254 5.63197 0
M  V30 17192 N 1625.91 -1.50602 0.464402 0
M  V30 17193 C 1626.87 -2.26929 -0.32185 0
M  V30 17194 C 1627.87 -1.3144 -0.926289 0
M  V30 17195 O 1629.06 -1.54924 -0.796511 0
M  V30 17196 C 1626.2 -3.08155 -1.45785 0
M  V30 17197 H 1627.39 -2.97881 0.347436 0
M  V30 17198 H 1624.94 -1.54768 0.218278 0
M  V30 17199 H 1625.68 -2.41684 -2.16239 0
M  V30 17200 H 1625.46 -3.78321 -1.03031 0
M  V30 17201 H 1626.95 -3.65899 -2.01266 0
M  V30 17202 N 1627.39 -0.19675 -1.56367 0
M  V30 17203 C 1628.63 0.442238 -1.97919 0
M  V30 17204 C 1628.97 1.61156 -1.08362 0
M  V30 17205 O 1628.24 1.94024 -0.135969 0
M  V30 17206 C 1628.53 0.90078 -3.48652 0
M  V30 17207 C 1628.38 -0.270471 -4.48986 0
M  V30 17208 C 1629.7 1.7657 -4.03126 0
M  V30 17209 H 1626.82 0.159276 -0.719583 0
M  V30 17210 H 1629.46 -0.288004 -1.87805 0
M  V30 17211 H 1627.61 1.52302 -3.57402 0
M  V30 17212 H 1629.28 -0.908176 -4.52272 0
M  V30 17213 H 1627.52 -0.921973 -4.23889 0
M  V30 17214 H 1628.19 0.0929101 -5.51922 0
M  V30 17215 H 1630.67 1.24091 -3.97166 0
M  V30 17216 H 1629.55 2.0555 -5.0896 0
M  V30 17217 H 1629.81 2.72047 -3.48486 0
M  V30 17218 N 1628.87 1.57413 0.0768405 0
M  V30 17219 C 1629.81 2.0334 1.09185 0
M  V30 17220 C 1630.78 0.913073 1.38752 0
M  V30 17221 O 1631.97 1.18038 1.49906 0
M  V30 17222 C 1629.11 2.47805 2.40181 0
M  V30 17223 C 1628.22 3.73435 2.17188 0
M  V30 17224 C 1627.36 4.06703 3.41711 0
M  V30 17225 C 1626.4 5.25388 3.1406 0
M  V30 17226 N 1625.53 5.54319 4.309 0
M  V30 17227 H 1630.37 2.89825 0.693223 0
M  V30 17228 H 1627.91 1.43334 0.330736 0
M  V30 17229 H 1629.87 2.71635 3.16655 0
M  V30 17230 H 1628.5 1.64305 2.77856 0
M  V30 17231 H 1627.55 3.56974 1.3143 0
M  V30 17232 H 1628.86 4.60049 1.9276 0
M  V30 17233 H 1628.02 4.31407 4.26583 0
M  V30 17234 H 1626.75 3.18646 3.6921 0
M  V30 17235 H 1625.76 5.00486 2.27583 0
M  V30 17236 H 1626.98 6.15059 2.87888 0
M  V30 17237 H 1624.93 4.69222 4.5844 0
M  V30 17238 H 1624.85 6.35342 4.09727 0
M  V30 17239 H 1626.12 5.83571 5.16783 0
M  V30 17240 N 1630.34 -0.348112 1.53707 0
M  V30 17241 C 1631.57 -1.10903 1.74666 0
M  V30 17242 C 1631.99 -1.82499 0.483683 0
M  V30 17243 O 1631.34 -1.74191 -0.544419 0
M  V30 17244 C 1631.4 -2.12602 2.92374 0
M  V30 17245 O 1631.12 -1.43918 4.13787 0
M  V30 17246 C 1632.62 -3.01105 3.25347 0
M  V30 17247 H 1629.84 -0.330911 0.583728 0
M  V30 17248 H 1632.38 -0.401707 2.00516 0
M  V30 17249 H 1630.54 -2.78906 2.68869 0
M  V30 17250 H 1630.95 -2.11818 4.79826 0
M  V30 17251 H 1632.42 -3.68408 4.11071 0
M  V30 17252 H 1632.9 -3.66874 2.41455 0
M  V30 17253 H 1633.51 -2.40395 3.50842 0
M  V30 17254 N 1631.82 -1.45363 -0.608876 0
M  V30 17255 C 1632.77 -1.54268 -1.7408 0
M  V30 17256 C 1633.76 -0.412752 -1.64295 0
M  V30 17257 O 1634.97 -0.58861 -1.70104 0
M  V30 17258 H 1631.35 -0.484528 -0.575097 0
M  V30 17259 H 1633.32 -2.49492 -1.63696 0
M  V30 17260 C 1632.07 -1.5253 -3.12458 0
M  V30 17261 H 1631.39 -2.38801 -3.20646 0
M  V30 17262 H 1632.83 -1.62819 -3.91492 0
M  V30 17263 C 1631.29 -0.249525 -3.35975 0
M  V30 17264 O 1631.82 0.671159 -3.96053 0
M  V30 17265 N 1630.02 -0.145625 -2.90235 0
M  V30 17266 H 1629.57 -0.895714 -2.41526 0
M  V30 17267 H 1629.53 0.707167 -3.06344 0
M  V30 17268 N 1633.3 0.851265 -1.32632 0
M  V30 17269 C 1634.55 1.60252 -1.23141 0
M  V30 17270 C 1634.87 1.93909 0.205946 0
M  V30 17271 O 1634.14 1.59914 1.13156 0
M  V30 17272 H 1632.72 0.594137 -0.452781 0
M  V30 17273 H 1635.38 1.01806 -1.66197 0
M  V30 17274 H 1634.48 2.53796 -1.81643 0
M  V30 17275 N 1634.78 1.15898 1.06796 0
M  V30 17276 C 1636.01 0.961372 1.83208 0
M  V30 17277 C 1636.42 -0.490392 1.8232 0
M  V30 17278 O 1635.78 -1.34025 1.2387 0
M  V30 17279 C 1635.83 1.47486 3.30045 0
M  V30 17280 O 1635.55 2.86976 3.31023 0
M  V30 17281 C 1637.05 1.31955 4.23205 0
M  V30 17282 H 1634.27 0.34109 0.57784 0
M  V30 17283 H 1636.82 1.53805 1.34775 0
M  V30 17284 H 1634.97 0.940586 3.75808 0
M  V30 17285 H 1635.38 3.1038 4.22805 0
M  V30 17286 H 1636.86 1.72721 5.24282 0
M  V30 17287 H 1637.34 0.264439 4.38403 0
M  V30 17288 H 1637.94 1.84319 3.83284 0
M  V30 17289 N 1636.26 -1.25243 0.956659 0
M  V30 17290 C 1637.5 -1.92632 0.611328 0
M  V30 17291 C 1637.83 -1.75272 -0.85467 0
M  V30 17292 O 1637.1 -1.11758 -1.60894 0
M  V30 17293 H 1635.68 -0.712904 0.223109 0
M  V30 17294 H 1638.34 -1.52366 1.21534 0
M  V30 17295 H 1637.43 -3.00516 0.842396 0
M  V30 17296 N 1637.73 -0.725468 -1.3991 0
M  V30 17297 C 1639.15 -0.400048 -1.54505 0
M  V30 17298 C 1639.35 1.09014 -1.69464 0
M  V30 17299 O 1638.41 1.87624 -1.68977 0
M  V30 17300 C 1639.72 -1.17474 -2.76804 0
M  V30 17301 C 1641.27 -1.16202 -2.9063 0
M  V30 17302 C 1641.74 -1.91908 -4.15855 0
M  V30 17303 N 1643.23 -1.89026 -4.22875 0
M  V30 17304 C 1643.97 -2.4442 -5.18697 0
M  V30 17305 N 1643.46 -3.0841 -6.20367 0
M  V30 17306 N 1645.26 -2.34506 -5.10846 0
M  V30 17307 H 1637.41 -1.6916 -1.28447 0
M  V30 17308 H 1639.67 -0.715556 -0.621839 0
M  V30 17309 H 1639.38 -2.22881 -2.72061 0
M  V30 17310 H 1639.25 -0.772871 -3.69197 0
M  V30 17311 H 1641.64 -0.116116 -2.94871 0
M  V30 17312 H 1641.72 -1.60319 -1.99327 0
M  V30 17313 H 1641.36 -2.96494 -4.12375 0
M  V30 17314 H 1641.29 -1.45204 -5.06185 0
M  V30 17315 H 1643.78 -1.42399 -3.50044 0
M  V30 17316 H 1644.1 -3.48169 -6.89926 0
M  V30 17317 H 1642.44 -3.12497 -6.20782 0
M  V30 17318 H 1645.63 -1.84164 -4.3035 0
M  V30 17319 H 1645.81 -2.77976 -5.85349 0
M  V30 17320 N 1639.21 1.50354 -0.472382 0
M  V30 17321 C 1640.46 2.02633 0.0822846 0
M  V30 17322 C 1640.79 1.35358 1.39254 0
M  V30 17323 O 1640.07 0.479714 1.88491 0
M  V30 17324 C 1640.35 3.59126 0.264742 0
M  V30 17325 C 1640.2 4.3697 -1.06663 0
M  V30 17326 C 1641.52 4.28148 1.01869 0
M  V30 17327 H 1638.64 0.736451 0.0284304 0
M  V30 17328 H 1641.28 1.79661 -0.618224 0
M  V30 17329 H 1639.43 3.7883 0.86141 0
M  V30 17330 H 1641.1 4.28834 -1.69997 0
M  V30 17331 H 1639.35 4.0066 -1.66295 0
M  V30 17332 H 1640.02 5.44736 -0.892592 0
M  V30 17333 H 1642.49 4.12926 0.512931 0
M  V30 17334 H 1641.37 5.37453 1.11515 0
M  V30 17335 H 1641.63 3.91406 2.05557 0
M  V30 17336 N 1640.69 0.205039 1.56261 0
M  V30 17337 C 1642.11 -0.150644 1.58887 0
M  V30 17338 C 1642.31 -1.60256 1.22148 0
M  V30 17339 O 1641.36 -2.33991 0.948912 0
M  V30 17340 C 1642.68 0.160711 3.0027 0
M  V30 17341 C 1644.22 0.101616 3.12835 0
M  V30 17342 C 1644.7 0.386417 4.56367 0
M  V30 17343 N 1646.19 0.335392 4.61984 0
M  V30 17344 C 1646.93 0.529473 5.7095 0
M  V30 17345 N 1646.42 0.784441 6.88345 0
M  V30 17346 N 1648.21 0.463044 5.6019 0
M  V30 17347 H 1640.37 1.15238 1.78421 0
M  V30 17348 H 1642.63 0.460698 0.82853 0
M  V30 17349 H 1642.33 1.1678 3.31746 0
M  V30 17350 H 1642.21 -0.532067 3.73429 0
M  V30 17351 H 1644.6 -0.896093 2.81166 0
M  V30 17352 H 1644.68 0.827622 2.42041 0
M  V30 17353 H 1644.32 1.38149 4.88751 0
M  V30 17354 H 1644.25 -0.360592 5.25364 0
M  V30 17355 H 1646.74 0.145346 3.7762 0
M  V30 17356 H 1647.05 0.921077 7.67291 0
M  V30 17357 H 1645.4 0.821448 6.90128 0
M  V30 17358 H 1648.59 0.2642 4.67354 0
M  V30 17359 H 1648.76 0.617712 6.45049 0
M  V30 17360 N 1642.17 -1.57451 -0.0684915 0
M  V30 17361 C 1643.1 -2.06954 -1.0813 0
M  V30 17362 C 1644.08 -0.963716 -1.40166 0
M  V30 17363 O 1645.27 -1.23664 -1.49736 0
M  V30 17364 C 1642.4 -2.51622 -2.39381 0
M  V30 17365 C 1641.35 -3.66111 -2.2169 0
M  V30 17366 C 1640.68 -3.96846 -3.58354 0
M  V30 17367 C 1641.98 -4.96036 -1.63541 0
M  V30 17368 H 1643.67 -2.91822 -0.66936 0
M  V30 17369 H 1641.22 -1.40387 -0.320533 0
M  V30 17370 H 1643.17 -2.84867 -3.1053 0
M  V30 17371 H 1641.89 -1.63788 -2.82562 0
M  V30 17372 H 1640.55 -3.33155 -1.52982 0
M  V30 17373 H 1640.2 -3.06137 -3.9911 0
M  V30 17374 H 1639.9 -4.73939 -3.47354 0
M  V30 17375 H 1641.42 -4.3259 -4.30927 0
M  V30 17376 H 1642.84 -5.27491 -2.24559 0
M  V30 17377 H 1641.23 -5.77474 -1.63228 0
M  V30 17378 H 1642.3 -4.81208 -0.597199 0
M  V30 17379 N 1643.65 0.339955 -1.5389 0
M  V30 17380 C 1645.06 0.915362 -1.62721 0
M  V30 17381 C 1645.41 1.89434 -0.510798 0
M  V30 17382 O 1644.53 2.13403 0.3589 0
M  V30 17383 C 1645.13 1.66699 -2.94953 0
M  V30 17384 C 1643.69 2.19135 -3.06034 0
M  V30 17385 C 1642.84 1.01159 -2.5819 0
M  V30 17386 H 1645.79 0.11799 -1.58261 0
M  V30 17387 H 1645.81 2.53011 -2.84193 0
M  V30 17388 H 1645.32 0.954219 -3.76186 0
M  V30 17389 H 1643.42 2.93577 -2.29441 0
M  V30 17390 H 1643.53 2.4526 -4.11563 0
M  V30 17391 H 1641.9 1.38604 -2.13685 0
M  V30 17392 H 1642.68 0.313396 -3.41867 0
M  V30 17393 N 1645.13 1.45684 0.601159 0
M  V30 17394 C 1646.54 1.44423 1.18317 0
M  V30 17395 C 1646.89 0.17524 1.95416 0
M  V30 17396 O 1646.01 -0.722816 2.03971 0
M  V30 17397 C 1646.61 2.61651 2.1523 0
M  V30 17398 C 1645.17 2.6349 2.68793 0
M  V30 17399 C 1644.31 2.36787 1.44317 0
M  V30 17400 H 1647.26 1.53831 0.390108 0
M  V30 17401 H 1647.29 2.36117 2.98377 0
M  V30 17402 H 1646.8 3.53995 1.59088 0
M  V30 17403 H 1644.9 1.7517 3.28856 0
M  V30 17404 H 1645.01 3.62906 3.12787 0
M  V30 17405 H 1643.38 1.86472 1.73494 0
M  V30 17406 H 1644.16 3.31284 0.900327 0
M  V30 17407 N 1646.6 -0.84422 1.33082 0
M  V30 17408 C 1647.57 -1.93519 1.22813 0
M  V30 17409 C 1648.57 -1.60113 0.148516 0
M  V30 17410 O 1649.76 -1.69553 0.399668 0
M  V30 17411 C 1646.89 -3.29045 0.891179 0
M  V30 17412 H 1648.08 -2.04051 2.1978 0
M  V30 17413 H 1645.63 -1.03567 1.17063 0
M  V30 17414 H 1646.37 -3.2421 -0.0762276 0
M  V30 17415 H 1646.15 -3.54671 1.67186 0
M  V30 17416 H 1647.64 -4.08984 0.843932 0
M  V30 17417 N 1648.08 -1.16463 -1.0618 0
M  V30 17418 C 1649.33 -0.944975 -1.78647 0
M  V30 17419 C 1649.65 0.528486 -1.87702 0
M  V30 17420 O 1648.92 1.38391 -1.38653 0
M  V30 17421 H 1647.5 -0.346637 -0.661704 0
M  V30 17422 H 1650.16 -1.46752 -1.28257 0
M  V30 17423 H 1649.26 -1.36469 -2.80683 0
M  V30 17424 N 1649.56 1.24734 -0.963288 0
M  V30 17425 C 1650.81 1.92686 -0.622766 0
M  V30 17426 C 1651.13 1.75357 0.841442 0
M  V30 17427 O 1650.39 1.09757 1.62025 0
M  V30 17428 C 1650.69 3.44867 -0.938151 0
M  V30 17429 C 1650.35 3.82361 -2.38979 0
M  V30 17430 C 1649.02 3.92307 -2.78655 0
M  V30 17431 C 1651.37 4.00775 -3.3321 0
M  V30 17432 C 1648.7 4.1808 -4.11614 0
M  V30 17433 C 1651.05 4.28043 -4.65792 0
M  V30 17434 C 1649.71 4.36207 -5.05252 0
M  V30 17435 H 1648.98 0.705088 -0.227886 0
M  V30 17436 H 1651.63 1.48107 -1.21395 0
M  V30 17437 H 1649.93 3.90905 -0.264676 0
M  V30 17438 H 1651.63 3.95645 -0.653134 0
M  V30 17439 H 1648.22 3.75182 -2.07212 0
M  V30 17440 H 1652.41 3.92497 -3.03743 0
M  V30 17441 H 1647.66 4.22619 -4.41818 0
M  V30 17442 H 1651.84 4.41236 -5.3878 0
M  V30 17443 H 1649.46 4.55931 -6.08301 0
M  V30 17444 N 1651.04 0.732878 1.39523 0
M  V30 17445 C 1652 0.10004 2.28982 0
M  V30 17446 C 1653 -0.669361 1.46206 0
M  V30 17447 O 1654.19 -0.498694 1.66909 0
M  V30 17448 C 1651.32 -0.867616 3.29674 0
M  V30 17449 H 1652.52 0.88816 2.86447 0
M  V30 17450 H 1650.07 0.498578 1.48135 0
M  V30 17451 H 1650.8 -1.68217 2.77261 0
M  V30 17452 H 1650.59 -0.318577 3.90804 0
M  V30 17453 H 1652.08 -1.30704 3.96618 0
M  V30 17454 N 1652.52 -1.50101 0.480349 0
M  V30 17455 C 1653.74 -2.06785 -0.068848 0
M  V30 17456 C 1654.16 -1.34316 -1.32683 0
M  V30 17457 O 1653.52 -0.415196 -1.77714 0
M  V30 17458 C 1653.57 -3.59826 -0.347522 0
M  V30 17459 O 1653.29 -4.29565 0.860569 0
M  V30 17460 C 1654.79 -4.33161 -0.94266 0
M  V30 17461 H 1652.01 -0.670906 0.0112172 0
M  V30 17462 H 1654.55 -1.93151 0.671788 0
M  V30 17463 H 1652.71 -3.73232 -1.0381 0
M  V30 17464 H 1653.12 -5.20931 0.610796 0
M  V30 17465 H 1654.6 -5.41184 -1.08736 0
M  V30 17466 H 1655.07 -3.94268 -1.93518 0
M  V30 17467 H 1655.68 -4.24309 -0.290178 0
M  V30 17468 N 1653.99 -0.213323 -1.5615 0
M  V30 17469 C 1654.9 0.711703 -2.23544 0
M  V30 17470 C 1655.92 1.22027 -1.24038 0
M  V30 17471 O 1657.1 1.26361 -1.56828 0
M  V30 17472 C 1654.16 1.90645 -2.89578 0
M  V30 17473 C 1653.22 1.44066 -4.04405 0
M  V30 17474 C 1652.45 2.57846 -4.6728 0
M  V30 17475 O 1652.68 3.75781 -4.29121 0
M  V30 17476 O 1651.61 2.29518 -5.56422 0
M  V30 17477 H 1655.44 0.167635 -3.03237 0
M  V30 17478 H 1653.02 0.016771 -1.49391 0
M  V30 17479 H 1654.9 2.60435 -3.31288 0
M  V30 17480 H 1653.58 2.43877 -2.12851 0
M  V30 17481 H 1652.49 0.711024 -3.67281 0
M  V30 17482 H 1653.82 0.954809 -4.8285 0
M  V30 17483 N 1655.47 1.57485 0.0601405 0
M  V30 17484 C 1656.72 1.87445 0.755575 0
M  V30 17485 C 1657.04 0.806915 1.77522 0
M  V30 17486 O 1656.31 -0.163139 1.9522 0
M  V30 17487 H 1654.89 0.691708 0.282044 0
M  V30 17488 H 1657.55 1.94871 0.0334616 0
M  V30 17489 H 1656.65 2.85334 1.26455 0
M  V30 17490 N 1656.95 -0.331789 1.54068 0
M  V30 17491 C 1658.2 -1.06854 1.73072 0
M  V30 17492 C 1658.55 -1.85949 0.494034 0
M  V30 17493 O 1657.84 -1.84591 -0.513489 0
M  V30 17494 C 1658.04 -2.03015 2.94142 0
M  V30 17495 C 1657.87 -1.33374 4.29467 0
M  V30 17496 C 1656.64 -1.07367 4.93762 0
M  V30 17497 C 1658.84 -0.753877 5.08745 0
M  V30 17498 N 1656.82 -0.344298 6.12934 0
M  V30 17499 C 1658.19 -0.155685 6.19805 0
M  V30 17500 C 1660.24 -0.655879 4.93561 0
M  V30 17501 C 1658.95 0.530985 7.17337 0
M  V30 17502 C 1660.97 0.0170729 5.91398 0
M  V30 17503 C 1660.33 0.604244 7.01804 0
M  V30 17504 H 1656.43 -0.374988 0.686227 0
M  V30 17505 H 1659.02 -0.350703 1.91515 0
M  V30 17506 H 1657.19 -2.72078 2.77178 0
M  V30 17507 H 1658.92 -2.69615 3.01811 0
M  V30 17508 H 1655.68 -1.36386 4.53537 0
M  V30 17509 H 1656.1 0.00600404 6.77 0
M  V30 17510 H 1660.74 -1.09557 4.08359 0
M  V30 17511 H 1658.46 0.982531 8.02105 0
M  V30 17512 H 1662.05 0.0924259 5.81727 0
M  V30 17513 H 1660.93 1.11671 7.76208 0
M  V30 17514 N 1658.43 -1.46001 -0.593424 0
M  V30 17515 C 1659.68 -1.50755 -1.352 0
M  V30 17516 C 1660 -0.154929 -1.93882 0
M  V30 17517 O 1659.26 0.848161 -1.76365 0
M  V30 17518 C 1659.56 -2.54568 -2.50858 0
M  V30 17519 C 1659.22 -3.98888 -2.10236 0
M  V30 17520 C 1657.89 -4.38182 -1.98872 0
M  V30 17521 C 1660.24 -4.89591 -1.78746 0
M  V30 17522 C 1657.57 -5.66057 -1.5426 0
M  V30 17523 C 1659.92 -6.17892 -1.35617 0
M  V30 17524 C 1658.58 -6.56103 -1.22822 0
M  V30 17525 H 1657.85 -0.551652 -0.494734 0
M  V30 17526 H 1660.5 -1.79422 -0.669327 0
M  V30 17527 H 1658.8 -2.19523 -3.24526 0
M  V30 17528 H 1660.5 -2.5548 -3.09081 0
M  V30 17529 H 1657.09 -3.67822 -2.20012 0
M  V30 17530 H 1661.27 -4.59959 -1.86416 0
M  V30 17531 H 1656.53 -5.94444 -1.42988 0
M  V30 17532 H 1660.7 -6.87609 -1.10301 0
M  V30 17533 H 1658.33 -7.55086 -0.880285 0
M  V30 17534 N 1659.91 0.83715 -1.33527 0
M  V30 17535 C 1661.16 1.58747 -1.24428 0
M  V30 17536 C 1661.47 1.94696 0.187885 0
M  V30 17537 O 1662.67 2.68524 0.400903 0
M  V30 17538 C 1661.13 2.86337 -2.18035 0
M  V30 17539 C 1660.74 2.57745 -3.66431 0
M  V30 17540 C 1662.48 3.6436 -2.17812 0
M  V30 17541 C 1660.39 3.81443 -4.51946 0
M  V30 17542 H 1659.32 0.595749 -0.462168 0
M  V30 17543 H 1661.97 0.922901 -1.58603 0
M  V30 17544 H 1660.35 3.54344 -1.76795 0
M  V30 17545 H 1661.53 1.97939 -4.16121 0
M  V30 17546 H 1659.84 1.93023 -3.68959 0
M  V30 17547 H 1662.44 4.56181 -2.78932 0
M  V30 17548 H 1662.78 3.99414 -1.17364 0
M  V30 17549 H 1663.31 3.03279 -2.57423 0
M  V30 17550 H 1660.05 3.51519 -5.53276 0
M  V30 17551 H 1659.57 4.40582 -4.06998 0
M  V30 17552 H 1661.25 4.49004 -4.65837 0
M  V30 17553 N 1661.38 1.17024 1.05561 0
M  V30 17554 C 1662.63 0.954436 1.78143 0
M  V30 17555 C 1662.95 -0.518525 1.8798 0
M  V30 17556 O 1662.22 -1.37654 1.39385 0
M  V30 17557 H 1660.8 0.350141 0.659856 0
M  V30 17558 H 1663.47 1.4743 1.27477 0
M  V30 17559 H 1662.56 1.37955 2.79955 0
M  V30 17560 N 1662.86 -1.24221 0.969889 0
M  V30 17561 C 1664.11 -1.92353 0.632976 0
M  V30 17562 C 1664.44 -1.75801 -0.832131 0
M  V30 17563 O 1663.69 -1.10614 -1.6144 0
M  V30 17564 C 1663.99 -3.44365 0.956427 0
M  V30 17565 C 1663.66 -3.81088 2.41003 0
M  V30 17566 C 1662.32 -3.90823 2.80732 0
M  V30 17567 C 1664.67 -3.99002 3.35331 0
M  V30 17568 C 1662 -4.15891 4.13825 0
M  V30 17569 C 1664.35 -4.25567 4.68055 0
M  V30 17570 C 1663.02 -4.33522 5.07558 0
M  V30 17571 H 1662.29 -0.703869 0.231622 0
M  V30 17572 H 1664.93 -1.47461 1.22179 0
M  V30 17573 H 1663.24 -3.90759 0.285402 0
M  V30 17574 H 1664.93 -3.95293 0.674107 0
M  V30 17575 H 1661.52 -3.74077 2.09199 0
M  V30 17576 H 1665.71 -3.90881 3.0582 0
M  V30 17577 H 1660.96 -4.2027 4.44053 0
M  V30 17578 H 1665.14 -4.38372 5.41113 0
M  V30 17579 H 1662.77 -4.52699 6.10711 0
M  V30 17580 N 1664.34 -0.740267 -1.39132 0
M  V30 17581 C 1665.59 -0.290953 -2.00702 0
M  V30 17582 C 1665.92 1.12051 -1.58613 0
M  V30 17583 O 1665.19 1.76488 -0.817457 0
M  V30 17584 C 1665.48 -0.398765 -3.57885 0
M  V30 17585 C 1665.33 -1.85038 -4.09977 0
M  V30 17586 C 1666.65 0.215717 -4.39571 0
M  V30 17587 H 1663.77 -0.107194 -0.729163 0
M  V30 17588 H 1666.41 -0.937411 -1.65265 0
M  V30 17589 H 1664.56 0.151613 -3.88204 0
M  V30 17590 H 1666.23 -2.45804 -3.90357 0
M  V30 17591 H 1664.48 -2.36994 -3.63341 0
M  V30 17592 H 1665.15 -1.87705 -5.19106 0
M  V30 17593 H 1667.62 -0.253518 -4.15327 0
M  V30 17594 H 1666.5 0.109966 -5.4879 0
M  V30 17595 H 1666.76 1.30242 -4.2248 0
M  V30 17596 N 1665.82 1.49844 -0.488302 0
M  V30 17597 C 1667.04 2.07313 0.0600937 0
M  V30 17598 C 1667.47 1.3478 1.3121 0
M  V30 17599 O 1666.83 0.400634 1.76818 0
M  V30 17600 C 1666.87 3.59268 0.309658 0
M  V30 17601 O 1665.98 3.88381 1.38688 0
M  V30 17602 H 1665.32 0.663681 -0.0205947 0
M  V30 17603 H 1667.85 1.92818 -0.684284 0
M  V30 17604 H 1667.86 4.04344 0.545 0
M  V30 17605 H 1666.53 4.11474 -0.605146 0
M  V30 17606 H 1665.11 3.55128 1.13749 0
M  V30 17607 N 1667.3 0.221601 1.56034 0
M  V30 17608 C 1668.26 -0.674973 2.19036 0
M  V30 17609 C 1669.26 -1.1216 1.15225 0
M  V30 17610 O 1670.45 -1.0304 1.40458 0
M  V30 17611 C 1667.58 -1.92465 2.81372 0
M  V30 17612 H 1668.77 -0.125689 2.99637 0
M  V30 17613 H 1666.33 -0.0280114 1.56275 0
M  V30 17614 H 1667.06 -2.5158 2.04641 0
M  V30 17615 H 1666.85 -1.61286 3.57392 0
M  V30 17616 H 1668.34 -2.56342 3.29664 0
M  V30 17617 N 1668.77 -1.57515 -0.0517878 0
M  V30 17618 C 1670.02 -1.87396 -0.746022 0
M  V30 17619 C 1670.34 -0.817053 -1.77718 0
M  V30 17620 O 1671.54 -1.00435 -2.5224 0
M  V30 17621 C 1670 -3.32481 -1.37783 0
M  V30 17622 C 1669.61 -4.46349 -0.384208 0
M  V30 17623 C 1671.35 -3.71539 -2.05327 0
M  V30 17624 C 1669.26 -5.82484 -1.02307 0
M  V30 17625 H 1668.19 -0.699127 -0.282379 0
M  V30 17626 H 1670.84 -1.835 0.000245524 0
M  V30 17627 H 1669.22 -3.31051 -2.17304 0
M  V30 17628 H 1670.39 -4.59209 0.382639 0
M  V30 17629 H 1668.71 -4.15976 0.187873 0
M  V30 17630 H 1671.31 -4.70553 -2.53936 0
M  V30 17631 H 1671.65 -3.02361 -2.86153 0
M  V30 17632 H 1672.18 -3.75046 -1.32611 0
M  V30 17633 H 1668.92 -6.55005 -0.254704 0
M  V30 17634 H 1668.44 -5.73388 -1.7603 0
M  V30 17635 H 1670.12 -6.28476 -1.5371 0
M  V30 17636 N 1670.25 0.323614 -1.54242 0
M  V30 17637 C 1671.5 1.05909 -1.71657 0
M  V30 17638 C 1671.82 1.89177 -0.497151 0
M  V30 17639 O 1673.02 2.65816 -0.552649 0
M  V30 17640 C 1671.48 1.93246 -3.03618 0
M  V30 17641 C 1671.09 1.1509 -4.32965 0
M  V30 17642 C 1672.83 2.6653 -3.30397 0
M  V30 17643 C 1670.74 2.01573 -5.55988 0
M  V30 17644 H 1669.67 0.399114 -0.639706 0
M  V30 17645 H 1672.32 0.317338 -1.80735 0
M  V30 17646 H 1670.7 2.71319 -2.88447 0
M  V30 17647 H 1671.87 0.417877 -4.58901 0
M  V30 17648 H 1670.19 0.534882 -4.1295 0
M  V30 17649 H 1672.79 3.31542 -4.19504 0
M  V30 17650 H 1673.13 3.34164 -2.48274 0
M  V30 17651 H 1673.66 1.95518 -3.46435 0
M  V30 17652 H 1670.4 1.38446 -6.40713 0
M  V30 17653 H 1669.92 2.72609 -5.3427 0
M  V30 17654 H 1671.6 2.60159 -5.9239 0
M  V30 17655 N 1671.73 1.46313 0.585673 0
M  V30 17656 C 1672.66 1.59511 1.70524 0
M  V30 17657 C 1673.64 0.445578 1.6416 0
M  V30 17658 O 1674.83 0.671455 1.82223 0
M  V30 17659 C 1671.96 1.58229 3.09162 0
M  V30 17660 C 1670.91 2.72122 3.30354 0
M  V30 17661 C 1670.24 2.559 4.69489 0
M  V30 17662 C 1671.54 4.13969 3.18476 0
M  V30 17663 H 1673.23 2.53229 1.59735 0
M  V30 17664 H 1670.78 1.2187 0.767046 0
M  V30 17665 H 1672.73 1.66056 3.87303 0
M  V30 17666 H 1671.45 0.610535 3.20843 0
M  V30 17667 H 1670.11 2.63759 2.54611 0
M  V30 17668 H 1669.76 1.56814 4.77931 0
M  V30 17669 H 1669.46 3.32289 4.84621 0
M  V30 17670 H 1670.99 2.65613 5.49802 0
M  V30 17671 H 1672.4 4.23459 3.86465 0
M  V30 17672 H 1670.8 4.90922 3.45131 0
M  V30 17673 H 1671.87 4.34334 2.15598 0
M  V30 17674 N 1673.21 -0.830057 1.33969 0
M  V30 17675 C 1674.14 -1.95557 1.27592 0
M  V30 17676 C 1675.12 -1.69395 0.154745 0
M  V30 17677 O 1676.31 -1.91094 0.345954 0
M  V30 17678 C 1673.44 -3.31881 1.02335 0
M  V30 17679 C 1672.39 -3.72464 2.10842 0
M  V30 17680 C 1671.72 -5.06692 1.70785 0
M  V30 17681 C 1673.02 -3.85315 3.52604 0
M  V30 17682 H 1674.71 -2.0115 2.21763 0
M  V30 17683 H 1672.26 -0.96639 1.06756 0
M  V30 17684 H 1674.21 -4.10197 0.965206 0
M  V30 17685 H 1672.93 -3.26568 0.0460462 0
M  V30 17686 H 1671.59 -2.96417 2.15714 0
M  V30 17687 H 1671.24 -4.97859 0.717334 0
M  V30 17688 H 1670.94 -5.34817 2.43403 0
M  V30 17689 H 1672.46 -5.87474 1.66452 0
M  V30 17690 H 1673.88 -4.5392 3.50185 0
M  V30 17691 H 1672.27 -4.24886 4.23783 0
M  V30 17692 H 1673.34 -2.87514 3.90466 0
M  V30 17693 N 1674.69 -1.17582 -1.04939 0
M  V30 17694 C 1675.62 -0.918221 -2.14688 0
M  V30 17695 C 1676.6 0.140757 -1.69517 0
M  V30 17696 O 1677.78 -0.0100118 -1.94197 0
M  V30 17697 C 1674.91 -0.433531 -3.44584 0
M  V30 17698 C 1673.87 -1.43199 -4.03334 0
M  V30 17699 C 1673.19 -0.805154 -5.28603 0
M  V30 17700 C 1674.49 -2.80598 -4.40525 0
M  V30 17701 H 1676.19 -1.83604 -2.36495 0
M  V30 17702 H 1673.73 -0.884202 -1.13657 0
M  V30 17703 H 1675.69 -0.240722 -4.20712 0
M  V30 17704 H 1674.41 0.519832 -3.22437 0
M  V30 17705 H 1673.07 -1.61158 -3.29277 0
M  V30 17706 H 1672.72 0.155124 -5.02761 0
M  V30 17707 H 1672.42 -1.4717 -5.68871 0
M  V30 17708 H 1673.94 -0.622677 -6.07417 0
M  V30 17709 H 1675.36 -2.66341 -5.07676 0
M  V30 17710 H 1673.75 -3.43854 -4.91817 0
M  V30 17711 H 1674.82 -3.34815 -3.50752 0
M  V30 17712 N 1676.17 1.23705 -0.976463 0
M  V30 17713 C 1677.1 2.2734 -0.532809 0
M  V30 17714 C 1678.08 1.64523 0.432012 0
M  V30 17715 O 1679.26 1.9144 0.326233 0
M  V30 17716 C 1676.39 3.46887 0.169374 0
M  V30 17717 C 1675.35 4.22031 -0.712336 0
M  V30 17718 C 1674.67 5.34561 0.121838 0
M  V30 17719 C 1675.97 4.8244 -2.00123 0
M  V30 17720 H 1677.67 2.64702 -1.39904 0
M  V30 17721 H 1675.21 1.27244 -0.674156 0
M  V30 17722 H 1677.16 4.18529 0.491028 0
M  V30 17723 H 1675.89 3.08574 1.07002 0
M  V30 17724 H 1674.55 3.522 -1.01739 0
M  V30 17725 H 1674.2 4.92489 1.0229 0
M  V30 17726 H 1673.9 5.85758 -0.464962 0
M  V30 17727 H 1675.42 6.09027 0.437963 0
M  V30 17728 H 1676.83 5.46111 -1.7446 0
M  V30 17729 H 1675.23 5.43906 -2.53548 0
M  V30 17730 H 1676.3 4.03405 -2.69059 0
M  V30 17731 N 1677.64 0.747635 1.38738 0
M  V30 17732 C 1678.89 0.301593 2.00545 0
M  V30 17733 C 1679.22 -1.11208 1.59205 0
M  V30 17734 O 1678.5 -1.76052 0.826806 0
M  V30 17735 C 1678.78 0.417739 3.57669 0
M  V30 17736 C 1678.63 1.87209 4.0899 0
M  V30 17737 C 1679.95 -0.192403 4.39679 0
M  V30 17738 H 1677.07 0.11106 0.728584 0
M  V30 17739 H 1679.71 0.946162 1.64766 0
M  V30 17740 H 1677.86 -0.131024 3.88279 0
M  V30 17741 H 1679.54 2.4787 3.89048 0
M  V30 17742 H 1677.78 2.38917 3.62079 0
M  V30 17743 H 1678.45 1.90455 5.18103 0
M  V30 17744 H 1680.93 0.27554 4.15187 0
M  V30 17745 H 1679.8 -0.0808605 5.4884 0
M  V30 17746 H 1680.06 -1.28 4.23165 0
M  V30 17747 N 1679.12 -1.49583 0.496242 0
M  V30 17748 C 1680.05 -2.31885 -0.274139 0
M  V30 17749 C 1681.03 -1.39939 -0.96701 0
M  V30 17750 O 1682.22 -1.6885 -0.959333 0
M  V30 17751 C 1679.35 -3.20332 -1.34181 0
M  V30 17752 C 1678.3 -4.21033 -0.769091 0
M  V30 17753 C 1677.63 -4.98385 -1.93693 0
M  V30 17754 C 1678.93 -5.21764 0.236648 0
M  V30 17755 H 1680.62 -2.9654 0.412824 0
M  V30 17756 H 1678.17 -1.42605 0.199979 0
M  V30 17757 H 1680.12 -3.76718 -1.88843 0
M  V30 17758 H 1678.84 -2.53611 -2.05789 0
M  V30 17759 H 1677.5 -3.65785 -0.244252 0
M  V30 17760 H 1677.15 -4.28115 -2.64058 0
M  V30 17761 H 1676.85 -5.66519 -1.55981 0
M  V30 17762 H 1678.38 -5.57613 -2.48798 0
M  V30 17763 H 1679.79 -5.72871 -0.221672 0
M  V30 17764 H 1678.19 -5.97761 0.529346 0
M  V30 17765 H 1679.26 -4.70964 1.15415 0
M  V30 17766 N 1680.6 -0.229873 -1.55915 0
M  V30 17767 C 1681.53 0.671321 -2.23642 0
M  V30 17768 C 1682.51 1.19461 -1.21091 0
M  V30 17769 O 1683.7 1.23708 -1.49699 0
M  V30 17770 C 1680.83 1.87595 -2.92276 0
M  V30 17771 C 1679.78 1.48616 -4.01369 0
M  V30 17772 C 1679.11 2.77024 -4.57342 0
M  V30 17773 C 1680.41 0.669928 -5.17986 0
M  V30 17774 H 1682.1 0.106622 -2.9921 0
M  V30 17775 H 1679.65 0.0498418 -1.43914 0
M  V30 17776 H 1681.6 2.51191 -3.3835 0
M  V30 17777 H 1680.32 2.46576 -2.14168 0
M  V30 17778 H 1678.98 0.873623 -3.56038 0
M  V30 17779 H 1678.63 3.34166 -3.75955 0
M  V30 17780 H 1678.33 2.51674 -5.30975 0
M  V30 17781 H 1679.85 3.41548 -5.0614 0
M  V30 17782 H 1681.27 1.20978 -5.6039 0
M  V30 17783 H 1679.66 0.513174 -5.97902 0
M  V30 17784 H 1680.73 -0.321644 -4.83832 0
M  V30 17785 N 1682.08 1.5754 0.0434337 0
M  V30 17786 C 1683.33 1.87789 0.736074 0
M  V30 17787 C 1683.64 0.826466 1.77282 0
M  V30 17788 O 1684.85 1.01771 2.51704 0
M  V30 17789 C 1683.3 3.33207 1.36018 0
M  V30 17790 C 1682.91 4.46547 0.360532 0
M  V30 17791 C 1684.65 3.72623 2.03353 0
M  V30 17792 C 1682.56 5.83018 0.992167 0
M  V30 17793 H 1681.49 0.700614 0.278667 0
M  V30 17794 H 1684.14 1.83497 -0.00997697 0
M  V30 17795 H 1682.52 3.32199 2.15546 0
M  V30 17796 H 1683.7 4.58999 -0.406987 0
M  V30 17797 H 1682.01 4.1587 -0.209931 0
M  V30 17798 H 1684.61 4.71893 2.51437 0
M  V30 17799 H 1684.95 3.03874 2.84546 0
M  V30 17800 H 1685.49 3.75744 1.3062 0
M  V30 17801 H 1682.22 6.55131 0.219964 0
M  V30 17802 H 1681.74 5.74313 1.72987 0
M  V30 17803 H 1683.42 6.29283 1.50374 0
M  V30 17804 N 1683.56 -0.31543 1.54411 0
M  V30 17805 C 1684.49 -1.39353 1.87358 0
M  V30 17806 C 1685.47 -1.53586 0.731118 0
M  V30 17807 O 1686.65 -1.67332 0.98558 0
M  V30 17808 C 1683.78 -2.75998 2.10814 0
M  V30 17809 C 1682.74 -2.76545 3.2666 0
M  V30 17810 C 1682.06 -4.16343 3.35504 0
M  V30 17811 C 1683.36 -2.39567 4.64117 0
M  V30 17812 H 1685.06 -1.12028 2.77651 0
M  V30 17813 H 1682.6 -0.537476 1.33593 0
M  V30 17814 H 1684.55 -3.51491 2.32447 0
M  V30 17815 H 1683.28 -3.04817 1.17278 0
M  V30 17816 H 1681.94 -2.03507 3.04927 0
M  V30 17817 H 1681.59 -4.42316 2.39512 0
M  V30 17818 H 1681.29 -4.17613 4.13368 0
M  V30 17819 H 1682.81 -4.93637 3.59381 0
M  V30 17820 H 1684.22 -3.04775 4.85577 0
M  V30 17821 H 1682.62 -2.52075 5.4459 0
M  V30 17822 H 1683.69 -1.34707 4.65813 0
M  V30 17823 N 1685.03 -1.46622 -0.577906 0
M  V30 17824 C 1686.27 -1.53743 -1.34694 0
M  V30 17825 C 1686.64 -0.186609 -1.91091 0
M  V30 17826 O 1687.84 -0.132588 -2.68473 0
M  V30 17827 C 1686.11 -2.60908 -2.44258 0
M  V30 17828 S 1687.67 -2.87468 -3.31523 0
M  V30 17829 H 1684.49 -0.543138 -0.458827 0
M  V30 17830 H 1687.09 -1.83884 -0.663842 0
M  V30 17831 H 1685.79 -3.57682 -2.01225 0
M  V30 17832 H 1685.32 -2.32515 -3.17333 0
M  V30 17833 H 1687.34 -2.23104 -4.43214 0
M  V30 17834 N 1686.51 0.822941 -1.34408 0
M  V30 17835 C 1687.76 1.57916 -1.26763 0
M  V30 17836 C 1688.09 1.93821 0.162408 0
M  V30 17837 O 1687.34 1.60226 1.12366 0
M  V30 17838 C 1687.64 2.88915 -2.10388 0
M  V30 17839 C 1687.31 2.72302 -3.59392 0
M  V30 17840 C 1685.97 2.67479 -4.00011 0
M  V30 17841 C 1688.32 2.5598 -4.54008 0
M  V30 17842 C 1685.65 2.44255 -5.33438 0
M  V30 17843 C 1688 2.34288 -5.87615 0
M  V30 17844 C 1686.67 2.27877 -6.27398 0
M  V30 17845 H 1685.94 0.577854 -0.46386 0
M  V30 17846 H 1688.58 0.95218 -1.6615 0
M  V30 17847 H 1686.89 3.55903 -1.63829 0
M  V30 17848 H 1688.58 3.46511 -2.01819 0
M  V30 17849 H 1685.17 2.76896 -3.27149 0
M  V30 17850 H 1689.36 2.5873 -4.23524 0
M  V30 17851 H 1684.61 2.37749 -5.63281 0
M  V30 17852 H 1688.79 2.20646 -6.60521 0
M  V30 17853 H 1686.42 2.09643 -7.30722 0
M  V30 17854 N 1687.99 1.18137 1.04314 0
M  V30 17855 C 1689.24 0.969582 1.76867 0
M  V30 17856 C 1689.55 -0.501982 1.89049 0
M  V30 17857 O 1690.76 -0.832218 2.58431 0
M  V30 17858 C 1689.21 1.68571 3.17981 0
M  V30 17859 C 1688.82 3.19641 3.13901 0
M  V30 17860 C 1690.57 1.55664 3.94929 0
M  V30 17861 C 1688.47 3.83904 4.49858 0
M  V30 17862 H 1687.4 0.359141 0.662973 0
M  V30 17863 H 1690.05 1.41484 1.16852 0
M  V30 17864 H 1688.44 1.16821 3.78377 0
M  V30 17865 H 1689.61 3.78395 2.62971 0
M  V30 17866 H 1687.93 3.32661 2.50451 0
M  V30 17867 H 1690.52 2.01039 4.95467 0
M  V30 17868 H 1690.87 0.508522 4.13182 0
M  V30 17869 H 1691.4 2.0468 3.41103 0
M  V30 17870 H 1688.14 4.88751 4.36809 0
M  V30 17871 H 1687.66 3.29937 5.00901 0
M  V30 17872 H 1689.34 3.86623 5.18779 0
M  V30 17873 N 1689.47 -1.23186 0.98301 0
M  V30 17874 C 1690.42 -2.24748 0.525082 0
M  V30 17875 C 1691.39 -1.60237 -0.437411 0
M  V30 17876 O 1692.57 -1.87666 -0.344376 0
M  V30 17877 C 1689.71 -3.44711 -0.163809 0
M  V30 17878 C 1688.82 -4.23769 0.839254 0
M  V30 17879 C 1687.96 -5.31053 0.1249 0
M  V30 17880 C 1687 -6.01822 1.117 0
M  V30 17881 N 1686.13 -7.00772 0.431625 0
M  V30 17882 H 1690.97 -2.63283 1.39593 0
M  V30 17883 H 1688.51 -1.29407 0.699438 0
M  V30 17884 H 1690.47 -4.13148 -0.580046 0
M  V30 17885 H 1689.1 -3.06969 -0.998507 0
M  V30 17886 H 1688.15 -3.54724 1.37386 0
M  V30 17887 H 1689.46 -4.72606 1.59515 0
M  V30 17888 H 1688.62 -6.05698 -0.348569 0
M  V30 17889 H 1687.36 -4.83165 -0.663573 0
M  V30 17890 H 1686.36 -5.25967 1.6012 0
M  V30 17891 H 1687.59 -6.51799 1.90618 0
M  V30 17892 H 1685.53 -6.55131 -0.337592 0
M  V30 17893 H 1685.45 -7.47566 1.12613 0
M  V30 17894 H 1686.72 -7.79498 -0.0193703 0
M  V30 17895 N 1690.95 -0.754982 -1.38339 0
M  V30 17896 C 1692.36 -0.43273 -1.53622 0
M  V30 17897 C 1692.56 1.05395 -1.71739 0
M  V30 17898 O 1691.62 1.83998 -1.72919 0
M  V30 17899 C 1692.93 -1.23319 -2.7425 0
M  V30 17900 C 1694.48 -1.22341 -2.881 0
M  V30 17901 C 1694.95 -2.00686 -4.11691 0
M  V30 17902 N 1696.45 -1.97953 -4.1877 0
M  V30 17903 C 1697.18 -2.55367 -5.13396 0
M  V30 17904 N 1696.68 -3.215 -6.13685 0
M  V30 17905 N 1698.47 -2.45289 -5.05757 0
M  V30 17906 H 1690.62 -1.71847 -1.2483 0
M  V30 17907 H 1692.88 -0.728585 -0.606521 0
M  V30 17908 H 1692.59 -2.28602 -2.67272 0
M  V30 17909 H 1692.46 -0.851009 -3.67475 0
M  V30 17910 H 1694.85 -0.178637 -2.94559 0
M  V30 17911 H 1694.93 -1.64511 -1.95882 0
M  V30 17912 H 1694.58 -3.05175 -4.05994 0
M  V30 17913 H 1694.51 -1.55908 -5.02991 0
M  V30 17914 H 1697 -1.49792 -3.46945 0
M  V30 17915 H 1697.31 -3.62725 -6.82386 0
M  V30 17916 H 1695.65 -3.25595 -6.14014 0
M  V30 17917 H 1698.85 -1.93251 -4.26347 0
M  V30 17918 H 1699.02 -2.9033 -5.79321 0
M  V30 17919 N 1692.42 1.49318 -0.504168 0
M  V30 17920 C 1693.65 2.07365 0.038102 0
M  V30 17921 C 1694.07 1.36164 1.29773 0
M  V30 17922 O 1693.43 0.419365 1.76383 0
M  V30 17923 C 1693.48 3.59576 0.271535 0
M  V30 17924 O 1692.58 3.8983 1.34561 0
M  V30 17925 H 1691.93 0.663425 -0.0276328 0
M  V30 17926 H 1694.46 1.92081 -0.704696 0
M  V30 17927 H 1694.47 4.04899 0.502083 0
M  V30 17928 H 1693.14 4.10809 -0.648754 0
M  V30 17929 H 1691.72 3.56314 1.09976 0
M  V30 17930 N 1693.9 0.238138 1.5579 0
M  V30 17931 C 1694.85 -0.665098 2.21009 0
M  V30 17932 C 1695.82 -1.17793 1.17107 0
M  V30 17933 O 1697 -1.234 1.45523 0
M  V30 17934 C 1694.14 -1.86028 2.90667 0
M  V30 17935 C 1693.26 -1.3848 4.09203 0
M  V30 17936 C 1692.39 -2.53885 4.666 0
M  V30 17937 C 1691.43 -2.03155 5.77403 0
M  V30 17938 N 1690.57 -3.11895 6.2902 0
M  V30 17939 H 1695.41 -0.102242 2.97825 0
M  V30 17940 H 1692.95 -0.0387064 1.47049 0
M  V30 17941 H 1694.9 -2.56226 3.29248 0
M  V30 17942 H 1693.53 -2.39575 2.16341 0
M  V30 17943 H 1692.59 -0.577172 3.75996 0
M  V30 17944 H 1693.9 -0.972946 4.89219 0
M  V30 17945 H 1693.05 -3.32139 5.07709 0
M  V30 17946 H 1691.79 -2.98368 3.85782 0
M  V30 17947 H 1690.8 -1.23369 5.3578 0
M  V30 17948 H 1692.02 -1.59653 6.60067 0
M  V30 17949 H 1689.97 -3.55828 5.5111 0
M  V30 17950 H 1689.88 -2.75013 7.04204 0
M  V30 17951 H 1691.15 -3.90234 6.74787 0
M  V30 17952 N 1695.38 -1.57561 -0.0350783 0
M  V30 17953 C 1696.63 -1.88623 -0.725659 0
M  V30 17954 C 1696.95 -0.835055 -1.76215 0
M  V30 17955 O 1696.22 0.13206 -1.95454 0
M  V30 17956 H 1694.8 -0.696108 -0.271004 0
M  V30 17957 H 1697.46 -1.949 -0.00245508 0
M  V30 17958 H 1696.56 -2.8731 -1.21899 0
M  V30 17959 N 1696.86 0.307236 -1.54576 0
M  V30 17960 C 1698.11 1.04115 -1.73218 0
M  V30 17961 C 1698.43 1.88008 -0.517482 0
M  V30 17962 O 1697.7 1.90219 0.468336 0
M  V30 17963 H 1696.28 0.387388 -0.638701 0
M  V30 17964 H 1698.94 0.339727 -1.91916 0
M  V30 17965 H 1698.04 1.69784 -2.61877 0
M  V30 17966 N 1698.34 1.46926 0.570122 0
M  V30 17967 C 1699.28 1.58442 1.67824 0
M  V30 17968 C 1700.25 0.428053 1.6049 0
M  V30 17969 O 1701.44 0.646445 1.79515 0
M  V30 17970 C 1698.58 1.59253 3.06158 0
M  V30 17971 C 1697.69 2.85714 3.24024 0
M  V30 17972 C 1696.83 2.77945 4.52681 0
M  V30 17973 C 1695.87 3.99289 4.63934 0
M  V30 17974 N 1695 3.89833 5.83931 0
M  V30 17975 H 1699.84 2.5309 1.5732 0
M  V30 17976 H 1697.38 1.25549 0.766548 0
M  V30 17977 H 1699.34 1.57707 3.86244 0
M  V30 17978 H 1697.97 0.68127 3.15529 0
M  V30 17979 H 1697.02 2.97184 2.37458 0
M  V30 17980 H 1698.33 3.7561 3.28206 0
M  V30 17981 H 1697.49 2.74576 5.41011 0
M  V30 17982 H 1696.22 1.85711 4.50958 0
M  V30 17983 H 1695.23 4.02976 3.74019 0
M  V30 17984 H 1696.45 4.92635 4.67427 0
M  V30 17985 H 1694.4 3.00393 5.83181 0
M  V30 17986 H 1694.32 4.73395 5.89434 0
M  V30 17987 H 1695.59 3.90459 6.74657 0
M  V30 17988 N 1699.82 -0.815801 1.34842 0
M  V30 17989 C 1701.05 -1.60164 1.30503 0
M  V30 17990 C 1701.45 -1.88809 -0.121561 0
M  V30 17991 O 1700.8 -1.48511 -1.08121 0
M  V30 17992 C 1700.86 -2.96361 2.03495 0
M  V30 17993 C 1700.52 -2.90577 3.52724 0
M  V30 17994 C 1701.52 -2.6466 4.47495 0
M  V30 17995 C 1699.2 -3.09985 3.9524 0
M  V30 17996 C 1701.2 -2.58212 5.82757 0
M  V30 17997 C 1698.89 -3.03161 5.306 0
M  V30 17998 C 1699.88 -2.77309 6.2417 0
M  V30 17999 O 1699.57 -2.70431 7.57048 0
M  V30 18000 H 1699.3 -0.504321 0.450151 0
M  V30 18001 H 1701.86 -1.02254 1.78139 0
M  V30 18002 H 1700.09 -3.56219 1.50483 0
M  V30 18003 H 1701.78 -3.57429 1.92353 0
M  V30 18004 H 1702.54 -2.49394 4.15966 0
M  V30 18005 H 1698.42 -3.2912 3.22801 0
M  V30 18006 H 1701.97 -2.37954 6.55762 0
M  V30 18007 H 1697.86 -3.17982 5.61745 0
M  V30 18008 H 1698.63 -2.86107 7.66867 0
M  V30 18009 N 1701.29 -1.18689 -1.03686 0
M  V30 18010 C 1702.52 -1.01024 -1.81132 0
M  V30 18011 C 1702.94 0.436584 -1.82963 0
M  V30 18012 O 1702.3 1.31343 -1.24975 0
M  V30 18013 C 1702.35 -1.5742 -3.24424 0
M  V30 18014 O 1701.45 -0.79813 -4.04603 0
M  V30 18015 H 1700.79 -0.357623 -0.559465 0
M  V30 18016 H 1703.32 -1.57532 -1.30556 0
M  V30 18017 H 1703.33 -1.60295 -3.75193 0
M  V30 18018 H 1702.01 -2.6273 -3.22406 0
M  V30 18019 H 1700.59 -0.842 -3.6327 0
M  V30 18020 N 1702.77 1.22662 -0.989529 0
M  V30 18021 C 1704.02 1.91605 -0.66448 0
M  V30 18022 C 1704.35 1.76909 0.801048 0
M  V30 18023 O 1703.63 1.13583 1.5789 0
M  V30 18024 C 1703.91 3.43929 -1.06698 0
M  V30 18025 C 1703.76 3.67691 -2.59082 0
M  V30 18026 C 1705.08 4.35744 -0.617695 0
M  V30 18027 H 1702.2 0.695832 -0.242872 0
M  V30 18028 H 1704.84 1.44605 -1.23245 0
M  V30 18029 H 1702.99 3.8409 -0.58371 0
M  V30 18030 H 1704.66 3.36956 -3.15053 0
M  V30 18031 H 1702.91 3.12088 -3.01303 0
M  V30 18032 H 1703.58 4.74356 -2.82295 0
M  V30 18033 H 1706.05 4.0308 -1.03275 0
M  V30 18034 H 1704.93 5.41004 -0.927659 0
M  V30 18035 H 1705.19 4.39468 0.481734 0
M  V30 18036 N 1704.25 0.762308 1.37937 0
M  V30 18037 C 1705.2 0.140412 2.30372 0
M  V30 18038 C 1706.17 -0.700152 1.50622 0
M  V30 18039 O 1707.35 -0.654474 1.79224 0
M  V30 18040 C 1704.49 -0.740056 3.37071 0
M  V30 18041 C 1703.6 0.116084 4.31844 0
M  V30 18042 C 1702.74 -0.768203 5.25616 0
M  V30 18043 C 1701.78 0.0910442 6.12032 0
M  V30 18044 N 1700.92 -0.75069 6.98075 0
M  V30 18045 H 1705.76 0.934224 2.82977 0
M  V30 18046 H 1703.29 0.472316 1.39311 0
M  V30 18047 H 1705.25 -1.26525 3.97551 0
M  V30 18048 H 1703.88 -1.49956 2.85855 0
M  V30 18049 H 1702.93 0.758999 3.72751 0
M  V30 18050 H 1704.24 0.779285 4.92675 0
M  V30 18051 H 1703.4 -1.36024 5.91255 0
M  V30 18052 H 1702.14 -1.46511 4.65173 0
M  V30 18053 H 1701.14 0.695687 5.45381 0
M  V30 18054 H 1702.37 0.785145 6.74546 0
M  V30 18055 H 1700.31 -1.43239 6.40171 0
M  V30 18056 H 1700.23 -0.144579 7.55862 0
M  V30 18057 H 1701.5 -1.32742 7.68114 0
M  V30 18058 N 1705.73 -1.49049 0.51208 0
M  V30 18059 C 1707 -1.95383 -0.0920331 0
M  V30 18060 C 1707.38 -1.4539 -1.53053 0
M  V30 18061 O 1706.73 -0.672485 -2.1838 0
M  V30 18062 C 1706.94 -3.48999 0.00673901 0
M  V30 18063 C 1708.29 -4.24292 -0.161602 0
M  V30 18064 O 1709.31 -3.56135 -0.0679198 0
M  V30 18065 O 1708.17 -5.45343 -0.355351 0
M  V30 18066 H 1705.27 -0.822175 -0.0891992 0
M  V30 18067 H 1707.81 -1.59647 0.575406 0
M  V30 18068 H 1706.59 -3.78055 1.00948 0
M  V30 18069 H 1706.21 -3.91383 -0.700353 0
M  V30 18070 N 1707.21 -0.246397 -1.55662 0
M  V30 18071 C 1708.15 0.653368 -2.21359 0
M  V30 18072 C 1709.12 1.1717 -1.1773 0
M  V30 18073 O 1710.31 1.22626 -1.46176 0
M  V30 18074 C 1707.45 1.84484 -2.9165 0
M  V30 18075 C 1706.56 1.36308 -4.09932 0
M  V30 18076 C 1705.7 2.51407 -4.6794 0
M  V30 18077 C 1704.73 2.0009 -5.78472 0
M  V30 18078 N 1703.87 3.08555 -6.30665 0
M  V30 18079 H 1708.71 0.0864458 -2.97875 0
M  V30 18080 H 1706.25 0.0309074 -1.47068 0
M  V30 18081 H 1708.21 2.54476 -3.30602 0
M  V30 18082 H 1706.84 2.38425 -2.17609 0
M  V30 18083 H 1705.89 0.557224 -3.76297 0
M  V30 18084 H 1707.2 0.946988 -4.89728 0
M  V30 18085 H 1706.35 3.29442 -5.09463 0
M  V30 18086 H 1705.09 2.96318 -3.87359 0
M  V30 18087 H 1704.1 1.20526 -5.36427 0
M  V30 18088 H 1705.32 1.5615 -6.60904 0
M  V30 18089 H 1703.27 3.529 -5.52989 0
M  V30 18090 H 1703.19 2.71274 -7.05653 0
M  V30 18091 H 1704.45 3.8665 -6.76847 0
M  V30 18092 N 1708.68 1.57577 0.026722 0
M  V30 18093 C 1709.59 2.10114 1.04351 0
M  V30 18094 C 1710.61 1.04029 1.39477 0
M  V30 18095 O 1711.79 1.35778 1.48749 0
M  V30 18096 C 1708.85 2.57203 2.32481 0
M  V30 18097 C 1707.91 3.77779 2.03915 0
M  V30 18098 C 1707.14 4.22613 3.25936 0
M  V30 18099 O 1707.37 3.66955 4.36692 0
M  V30 18100 O 1706.3 5.15026 3.11499 0
M  V30 18101 H 1710.13 2.97157 0.627021 0
M  V30 18102 H 1707.71 1.47396 0.243855 0
M  V30 18103 H 1709.59 2.87809 3.07805 0
M  V30 18104 H 1708.27 1.7327 2.73421 0
M  V30 18105 H 1707.18 3.52188 1.26152 0
M  V30 18106 H 1708.51 4.62703 1.67829 0
M  V30 18107 N 1710.16 -0.299034 1.54737 0
M  V30 18108 C 1711.44 -1.05371 1.64792 0
M  V30 18109 C 1711.82 -2.05155 0.497475 0
M  V30 18110 O 1711.17 -2.22837 -0.505573 0
M  V30 18111 C 1711.38 -1.73381 3.02886 0
M  V30 18112 C 1712.72 -2.25506 3.59767 0
M  V30 18113 O 1713.75 -1.8341 3.05351 0
M  V30 18114 O 1712.61 -3.02642 4.55049 0
M  V30 18115 H 1709.7 -0.487156 0.668287 0
M  V30 18116 H 1712.25 -0.296965 1.67081 0
M  V30 18117 H 1711.02 -1.00936 3.78058 0
M  V30 18118 H 1710.64 -2.55806 3.04383 0
M  V30 18119 N 1711.64 -1.47227 -0.562322 0
M  V30 18120 C 1712.87 -1.57196 -1.34526 0
M  V30 18121 C 1713.28 -0.220303 -1.8751 0
M  V30 18122 O 1712.64 0.785664 -1.64723 0
M  V30 18123 C 1712.69 -2.59312 -2.51872 0
M  V30 18124 O 1712.41 -3.89229 -2.01078 0
M  V30 18125 C 1713.91 -2.79416 -3.44153 0
M  V30 18126 H 1711.13 -0.530971 -0.410257 0
M  V30 18127 H 1713.68 -1.92804 -0.68168 0
M  V30 18128 H 1711.83 -2.26652 -3.14178 0
M  V30 18129 H 1712.25 -4.44985 -2.77648 0
M  V30 18130 H 1713.72 -3.54743 -4.2292 0
M  V30 18131 H 1714.2 -1.87054 -3.97376 0
M  V30 18132 H 1714.8 -3.13254 -2.87667 0
M  V30 18133 N 1713.12 0.808639 -1.35273 0
M  V30 18134 C 1714.05 1.92839 -1.23878 0
M  V30 18135 C 1715.06 1.61987 -0.162543 0
M  V30 18136 O 1716.25 1.73593 -0.41564 0
M  V30 18137 C 1713.35 3.27158 -0.884369 0
M  V30 18138 C 1712.52 3.85931 -2.05855 0
M  V30 18139 C 1711.58 4.98652 -1.68025 0
M  V30 18140 O 1710.61 5.16188 -2.39871 0
M  V30 18141 N 1711.81 5.77363 -0.602684 0
M  V30 18142 H 1714.58 2.03141 -2.20349 0
M  V30 18143 H 1712.14 0.985956 -1.28415 0
M  V30 18144 H 1714.13 4.00033 -0.612814 0
M  V30 18145 H 1712.7 3.12599 -0.00940584 0
M  V30 18146 H 1711.92 3.05274 -2.49402 0
M  V30 18147 H 1713.21 4.21929 -2.84347 0
M  V30 18148 H 1712.61 5.657 -0.00570741 0
M  V30 18149 H 1711.16 6.50627 -0.390903 0
M  V30 18150 N 1714.6 1.19237 1.03055 0
M  V30 18151 C 1715.84 0.995444 1.76688 0
M  V30 18152 C 1716.18 -0.472805 1.88357 0
M  V30 18153 O 1715.45 -1.3511 1.39913 0
M  V30 18154 C 1715.73 1.66308 3.19396 0
M  V30 18155 C 1715.59 3.20486 3.15609 0
M  V30 18156 C 1716.91 1.38468 4.17749 0
M  V30 18157 H 1714.02 0.36304 0.641382 0
M  V30 18158 H 1716.67 1.47052 1.20315 0
M  V30 18159 H 1714.82 1.25915 3.67529 0
M  V30 18160 H 1716.49 3.70081 2.75387 0
M  V30 18161 H 1714.73 3.52118 2.53369 0
M  V30 18162 H 1715.4 3.62345 4.16426 0
M  V30 18163 H 1717.88 1.73485 3.78209 0
M  V30 18164 H 1716.75 1.87735 5.15797 0
M  V30 18165 H 1717.02 0.309505 4.41015 0
M  V30 18166 N 1716.07 -1.22136 0.99602 0
M  V30 18167 C 1717.35 -1.86506 0.589466 0
M  V30 18168 C 1717.73 -1.89355 -0.933159 0
M  V30 18169 O 1717.08 -1.38634 -1.8164 0
M  V30 18170 C 1717.29 -3.27224 1.21349 0
M  V30 18171 C 1718.64 -4.03692 1.31597 0
M  V30 18172 O 1719.66 -3.36502 1.16812 0
M  V30 18173 O 1718.52 -5.23973 1.55289 0
M  V30 18174 H 1715.61 -0.802279 0.200692 0
M  V30 18175 H 1718.16 -1.2989 1.0921 0
M  V30 18176 H 1716.93 -3.19802 2.25483 0
M  V30 18177 H 1716.56 -3.91449 0.696645 0
M  V30 18178 N 1717.55 -0.769612 -1.37531 0
M  V30 18179 C 1718.78 -0.343069 -2.04543 0
M  V30 18180 C 1719.2 1.02583 -1.57665 0
M  V30 18181 O 1718.56 1.65692 -0.735915 0
M  V30 18182 C 1718.61 -0.392914 -3.58453 0
M  V30 18183 O 1717.71 0.607401 -4.07902 0
M  V30 18184 H 1717.05 -0.148905 -0.647088 0
M  V30 18185 H 1719.58 -1.04521 -1.75888 0
M  V30 18186 H 1719.59 -0.24945 -4.07237 0
M  V30 18187 H 1718.27 -1.39159 -3.91928 0
M  V30 18188 H 1716.85 0.427231 -3.70445 0
M  V30 18189 N 1719.03 1.48775 -0.519977 0
M  V30 18190 C 1719.94 2.33239 0.252329 0
M  V30 18191 C 1720.96 1.45852 0.948849 0
M  V30 18192 O 1722.13 1.78848 0.92603 0
M  V30 18193 C 1719.2 3.2174 1.29166 0
M  V30 18194 C 1718.26 4.24993 0.606564 0
M  V30 18195 C 1717.49 5.09266 1.59638 0
M  V30 18196 O 1717.71 4.95353 2.82809 0
M  V30 18197 O 1716.65 5.90981 1.14127 0
M  V30 18198 H 1720.47 3.00503 -0.439527 0
M  V30 18199 H 1718.06 1.46733 -0.281032 0
M  V30 18200 H 1719.94 3.76512 1.89254 0
M  V30 18201 H 1718.62 2.5715 1.96611 0
M  V30 18202 H 1717.52 3.74084 -0.0345447 0
M  V30 18203 H 1718.86 4.92193 -0.0257627 0
M  V30 18204 N 1720.51 0.254649 1.55529 0
M  V30 18205 C 1721.47 -0.62836 2.20418 0
M  V30 18206 C 1722.47 -1.09691 1.17578 0
M  V30 18207 O 1723.66 -1.00037 1.42612 0
M  V30 18208 C 1720.79 -1.86453 2.85391 0
M  V30 18209 H 1721.99 -0.0621032 2.99836 0
M  V30 18210 H 1719.54 0.00514311 1.56299 0
M  V30 18211 H 1720.27 -2.47182 2.09932 0
M  V30 18212 H 1720.06 -1.53669 3.60733 0
M  V30 18213 H 1721.55 -2.49291 3.35028 0
M  V30 18214 N 1721.99 -1.57589 -0.0183649 0
M  V30 18215 C 1723.4 -1.55152 -0.374183 0
M  V30 18216 C 1723.6 -0.98217 -1.75942 0
M  V30 18217 O 1722.66 -0.607905 -2.45073 0
M  V30 18218 C 1723.97 -2.99519 -0.266231 0
M  V30 18219 C 1725.52 -3.1112 -0.342527 0
M  V30 18220 C 1725.99 -4.57239 -0.263905 0
M  V30 18221 N 1727.49 -4.62077 -0.322372 0
M  V30 18222 C 1728.22 -5.72693 -0.284594 0
M  V30 18223 N 1727.72 -6.92516 -0.198482 0
M  V30 18224 N 1729.51 -5.611 -0.335111 0
M  V30 18225 H 1721.66 -1.92945 0.888033 0
M  V30 18226 H 1723.92 -0.885432 0.338695 0
M  V30 18227 H 1723.63 -3.44942 0.686123 0
M  V30 18228 H 1723.5 -3.62127 -1.05565 0
M  V30 18229 H 1725.89 -2.65638 -1.28532 0
M  V30 18230 H 1725.97 -2.51324 0.476435 0
M  V30 18231 H 1725.62 -5.03391 0.675263 0
M  V30 18232 H 1725.55 -5.14959 -1.10111 0
M  V30 18233 H 1728.04 -3.75872 -0.391004 0
M  V30 18234 H 1728.35 -7.72602 -0.175048 0
M  V30 18235 H 1726.69 -6.94806 -0.164374 0
M  V30 18236 H 1729.89 -4.66384 -0.400452 0
M  V30 18237 H 1730.06 -6.47295 -0.302203 0
M  V30 18238 N 1723.46 0.290824 -1.54893 0
M  V30 18239 C 1724.88 0.86313 -1.6555 0
M  V30 18240 C 1725.23 1.87713 -0.570806 0
M  V30 18241 O 1724.35 2.14437 0.290826 0
M  V30 18242 C 1724.95 1.57231 -3.00107 0
M  V30 18243 C 1723.51 2.09288 -3.1285 0
M  V30 18244 C 1722.65 0.928933 -2.61278 0
M  V30 18245 H 1725.6 0.0675807 -1.58556 0
M  V30 18246 H 1725.62 2.43841 -2.92099 0
M  V30 18247 H 1725.14 0.834055 -3.79032 0
M  V30 18248 H 1723.24 2.86129 -2.38665 0
M  V30 18249 H 1723.35 2.32042 -4.19158 0
M  V30 18250 H 1721.71 1.31735 -2.17986 0
M  V30 18251 H 1722.5 0.204475 -3.42691 0
M  V30 18252 N 1724.94 1.47523 0.554506 0
M  V30 18253 C 1725.88 1.54756 1.67707 0
M  V30 18254 C 1726.85 0.39953 1.57615 0
M  V30 18255 O 1728.04 0.60771 1.78435 0
M  V30 18256 C 1725.16 1.45263 3.05968 0
M  V30 18257 C 1724.21 2.64602 3.34497 0
M  V30 18258 S 1725.04 4.26775 3.23455 0
M  V30 18259 C 1726.2 4.19839 4.64204 0
M  V30 18260 H 1726.43 2.49728 1.61318 0
M  V30 18261 H 1723.97 1.35754 0.735541 0
M  V30 18262 H 1725.92 1.40473 3.85717 0
M  V30 18263 H 1724.58 0.516709 3.09821 0
M  V30 18264 H 1723.78 2.5403 4.35298 0
M  V30 18265 H 1723.38 2.66528 2.62372 0
M  V30 18266 H 1725.67 3.8826 5.55212 0
M  V30 18267 H 1726.61 5.20736 4.79833 0
M  V30 18268 H 1727.02 3.5066 4.42378 0
M  V30 18269 N 1726.42 -0.801453 1.357 0
M  V30 18270 C 1727.37 -1.91355 1.29043 0
M  V30 18271 C 1728.34 -1.65314 0.161381 0
M  V30 18272 O 1729.52 -1.87638 0.345928 0
M  V30 18273 C 1726.66 -3.27979 1.07348 0
M  V30 18274 C 1725.78 -3.66172 2.29221 0
M  V30 18275 C 1724.91 -4.91853 2.00635 0
M  V30 18276 C 1723.95 -5.22688 3.18533 0
M  V30 18277 N 1723.09 -6.3955 2.8969 0
M  V30 18278 H 1727.93 -1.96381 2.24139 0
M  V30 18279 H 1725.46 -0.960502 1.11413 0
M  V30 18280 H 1727.42 -4.06748 0.928002 0
M  V30 18281 H 1726.05 -3.22408 0.159115 0
M  V30 18282 H 1725.1 -2.82623 2.54615 0
M  V30 18283 H 1726.42 -3.84916 3.1724 0
M  V30 18284 H 1725.57 -5.78459 1.82947 0
M  V30 18285 H 1724.31 -4.75154 1.09908 0
M  V30 18286 H 1723.31 -4.34569 3.36793 0
M  V30 18287 H 1724.54 -5.41313 4.10069 0
M  V30 18288 H 1722.48 -6.24266 2.01562 0
M  V30 18289 H 1722.4 -6.58569 3.71245 0
M  V30 18290 H 1723.67 -7.29171 2.75555 0
M  V30 18291 N 1727.9 -1.19782 -1.02421 0
M  V30 18292 C 1729.18 -0.912541 -1.73009 0
M  V30 18293 C 1729.56 0.58061 -2.02958 0
M  V30 18294 O 1728.9 1.54013 -1.68797 0
M  V30 18295 C 1729.11 -1.77745 -3.00346 0
M  V30 18296 C 1730.46 -2.01462 -3.73762 0
M  V30 18297 O 1731.49 -1.74935 -3.10284 0
M  V30 18298 O 1730.34 -2.46219 -4.87892 0
M  V30 18299 H 1727.44 -0.340513 -0.753644 0
M  V30 18300 H 1729.98 -1.30618 -1.08338 0
M  V30 18301 H 1728.76 -2.78887 -2.74477 0
M  V30 18302 H 1728.38 -1.38339 -3.72757 0
M  V30 18303 N 1729.38 1.21606 -1.00248 0
M  V30 18304 C 1730.29 2.2757 -0.570004 0
M  V30 18305 C 1731.3 1.69669 0.385788 0
M  V30 18306 O 1732.48 1.99839 0.250246 0
M  V30 18307 C 1729.54 3.46558 0.0990566 0
M  V30 18308 C 1728.61 4.19741 -0.9009 0
M  V30 18309 C 1727.84 5.33048 -0.263673 0
M  V30 18310 O 1728.06 5.62599 0.940131 0
M  V30 18311 O 1727 5.93978 -0.973342 0
M  V30 18312 H 1730.82 2.66751 -1.45182 0
M  V30 18313 H 1728.41 1.27955 -0.771224 0
M  V30 18314 H 1730.29 4.18733 0.47339 0
M  V30 18315 H 1728.96 3.09283 0.955285 0
M  V30 18316 H 1727.87 3.49798 -1.32634 0
M  V30 18317 H 1729.2 4.60921 -1.72664 0
M  V30 18318 N 1730.86 0.776895 1.37121 0
M  V30 18319 C 1732.08 0.355097 2.0383 0
M  V30 18320 C 1732.5 -1.02441 1.58591 0
M  V30 18321 O 1731.86 -1.65482 0.769533 0
M  V30 18322 C 1731.91 0.394984 3.59336 0
M  V30 18323 O 1731.63 1.72008 4.0292 0
M  V30 18324 C 1733.13 -0.0377636 4.43284 0
M  V30 18325 H 1730.35 0.148056 0.654462 0
M  V30 18326 H 1732.89 1.05225 1.75351 0
M  V30 18327 H 1731.05 -0.253638 3.86569 0
M  V30 18328 H 1731.46 1.66225 4.97463 0
M  V30 18329 H 1732.94 0.0412956 5.51985 0
M  V30 18330 H 1733.41 -1.08881 4.2549 0
M  V30 18331 H 1734.02 0.582867 4.21287 0
M  V30 18332 N 1732.33 -1.48497 0.527859 0
M  V30 18333 C 1733.58 -2.02499 -0.00701157 0
M  V30 18334 C 1733.91 -1.40516 -1.34483 0
M  V30 18335 O 1733.16 -0.539575 -1.88115 0
M  V30 18336 C 1733.46 -3.56945 -0.180276 0
M  V30 18337 C 1733.13 -4.37703 1.08291 0
M  V30 18338 C 1731.79 -4.59489 1.42911 0
M  V30 18339 C 1734.14 -4.84495 1.92131 0
M  V30 18340 C 1731.47 -5.25313 2.61272 0
M  V30 18341 C 1733.82 -5.51623 3.09669 0
M  V30 18342 C 1732.49 -5.71648 3.44637 0
M  V30 18343 H 1731.76 -0.740996 -0.00256572 0
M  V30 18344 H 1734.4 -1.78503 0.693453 0
M  V30 18345 H 1732.71 -3.79768 -0.963491 0
M  V30 18346 H 1734.41 -3.96348 -0.609009 0
M  V30 18347 H 1731 -4.21005 0.803293 0
M  V30 18348 H 1735.18 -4.67468 1.66696 0
M  V30 18349 H 1730.44 -5.39015 2.8857 0
M  V30 18350 H 1734.61 -5.86849 3.74942 0
M  V30 18351 H 1732.24 -6.22426 4.36451 0
M  V30 18352 N 1733.81 -0.262893 -1.55392 0
M  V30 18353 C 1735.06 0.35666 -1.98928 0
M  V30 18354 C 1735.38 1.5729 -1.1526 0
M  V30 18355 O 1734.65 1.94435 -0.239164 0
M  V30 18356 H 1733.23 0.134768 -0.734742 0
M  V30 18357 H 1735.89 -0.365394 -1.91444 0
M  V30 18358 H 1734.99 0.654895 -3.05152 0
M  V30 18359 N 1735.29 1.57597 0.0100073 0
M  V30 18360 C 1736.2 2.11209 1.02117 0
M  V30 18361 C 1737.22 1.05503 1.38366 0
M  V30 18362 O 1738.39 1.37348 1.47301 0
M  V30 18363 C 1735.46 2.59654 2.2974 0
M  V30 18364 C 1734.52 3.79921 1.99896 0
M  V30 18365 C 1733.75 4.26046 3.21435 0
M  V30 18366 O 1733.97 3.71566 4.32775 0
M  V30 18367 O 1732.91 5.18301 3.06018 0
M  V30 18368 H 1736.73 2.97805 0.595469 0
M  V30 18369 H 1734.32 1.47647 0.228208 0
M  V30 18370 H 1736.2 2.91058 3.04735 0
M  V30 18371 H 1734.88 1.76161 2.71568 0
M  V30 18372 H 1733.78 3.53506 1.22409 0
M  V30 18373 H 1735.12 4.64457 1.62912 0
M  V30 18374 N 1736.77 -0.282606 1.55045 0
M  V30 18375 C 1738 -1.03245 1.78952 0
M  V30 18376 C 1738.41 -1.80777 0.558225 0
M  V30 18377 O 1737.75 -1.77264 -0.482009 0
M  V30 18378 C 1737.81 -2.04557 2.95629 0
M  V30 18379 C 1737.47 -1.46051 4.33034 0
M  V30 18380 C 1738.47 -0.881083 5.1238 0
M  V30 18381 C 1736.16 -1.4906 4.79673 0
M  V30 18382 C 1738.15 -0.339532 6.36495 0
M  V30 18383 C 1735.84 -0.945189 6.03746 0
M  V30 18384 C 1736.84 -0.370643 6.81994 0
M  V30 18385 O 1736.52 0.166447 8.03728 0
M  V30 18386 H 1736.26 -0.311139 0.60014 0
M  V30 18387 H 1738.81 -0.32175 2.02864 0
M  V30 18388 H 1737.04 -2.79359 2.67386 0
M  V30 18389 H 1738.73 -2.65592 3.06946 0
M  V30 18390 H 1739.49 -0.850602 4.77483 0
M  V30 18391 H 1735.37 -1.92719 4.18784 0
M  V30 18392 H 1738.92 0.109564 6.97514 0
M  V30 18393 H 1734.81 -0.972878 6.38126 0
M  V30 18394 H 1735.58 0.054892 8.18482 0
M  V30 18395 N 1738.25 -1.47815 -0.546675 0
M  V30 18396 C 1739.66 -1.33566 -0.873628 0
M  V30 18397 C 1739.86 -0.334067 -1.98711 0
M  V30 18398 O 1738.92 0.250675 -2.51253 0
M  V30 18399 C 1740.23 -2.73171 -1.25691 0
M  V30 18400 C 1741.78 -2.81535 -1.36774 0
M  V30 18401 C 1742.25 -4.21804 -1.78454 0
M  V30 18402 N 1743.74 -4.24396 -1.85586 0
M  V30 18403 C 1744.48 -5.29854 -2.19186 0
M  V30 18404 N 1743.98 -6.45606 -2.51326 0
M  V30 18405 N 1745.77 -5.17237 -2.2005 0
M  V30 18406 H 1737.92 -2.11564 0.188285 0
M  V30 18407 H 1740.18 -0.947754 0.0215773 0
M  V30 18408 H 1739.89 -3.47946 -0.512485 0
M  V30 18409 H 1739.76 -3.05622 -2.21077 0
M  V30 18410 H 1742.15 -2.07025 -2.10297 0
M  V30 18411 H 1742.23 -2.52724 -0.395504 0
M  V30 18412 H 1741.87 -4.96823 -1.05498 0
M  V30 18413 H 1741.8 -4.48046 -2.76699 0
M  V30 18414 H 1744.3 -3.40895 -1.63092 0
M  V30 18415 H 1744.61 -7.21825 -2.76022 0
M  V30 18416 H 1742.95 -6.48909 -2.48883 0
M  V30 18417 H 1746.14 -4.2583 -1.94387 0
M  V30 18418 H 1746.32 -5.99529 -2.45905 0
M  V30 18419 N 1739.72 0.794246 -1.36123 0
M  V30 18420 C 1740.95 1.58813 -1.33391 0
M  V30 18421 C 1741.37 1.87915 0.0834599 0
M  V30 18422 O 1740.73 1.47516 1.05398 0
M  V30 18423 C 1740.78 2.88887 -2.15816 0
M  V30 18424 O 1739.88 3.82271 -1.54734 0
M  V30 18425 H 1739.22 0.481924 -0.456777 0
M  V30 18426 H 1741.75 0.984818 -1.79339 0
M  V30 18427 H 1741.76 3.38201 -2.2822 0
M  V30 18428 H 1740.44 2.67032 -3.18852 0
M  V30 18429 H 1739.02 3.40852 -1.51242 0
M  V30 18430 N 1741.2 1.20323 1.01785 0
M  V30 18431 C 1742.13 0.974819 2.12178 0
M  V30 18432 C 1743.11 -0.0957637 1.6983 0
M  V30 18433 O 1744.3 0.0614963 1.94103 0
M  V30 18434 C 1741.43 0.524739 3.43313 0
M  V30 18435 C 1740.38 1.53842 3.99395 0
M  V30 18436 C 1739.71 0.945021 5.26283 0
M  V30 18437 C 1741.01 2.92179 4.3293 0
M  V30 18438 H 1742.7 1.8981 2.31544 0
M  V30 18439 H 1740.25 0.914025 1.11273 0
M  V30 18440 H 1742.2 0.352182 4.19926 0
M  V30 18441 H 1740.92 -0.434161 3.23701 0
M  V30 18442 H 1739.58 1.69832 3.24889 0
M  V30 18443 H 1739.23 -0.0217709 5.02995 0
M  V30 18444 H 1738.93 1.62201 5.64769 0
M  V30 18445 H 1740.46 0.783504 6.05552 0
M  V30 18446 H 1741.87 2.79708 5.00436 0
M  V30 18447 H 1740.27 3.56773 4.82528 0
M  V30 18448 H 1741.34 3.43997 3.41752 0
M  V30 18449 N 1742.68 -1.21073 1.00892 0
M  V30 18450 C 1743.59 -2.27265 0.582065 0
M  V30 18451 C 1744.61 -1.69872 -0.376785 0
M  V30 18452 O 1745.78 -1.99969 -0.239644 0
M  V30 18453 C 1742.85 -3.46606 -0.0806764 0
M  V30 18454 C 1741.91 -4.19257 0.923147 0
M  V30 18455 C 1741.14 -5.32901 0.291938 0
M  V30 18456 O 1741.36 -5.6309 -0.910282 0
M  V30 18457 O 1740.3 -5.93453 1.00483 0
M  V30 18458 H 1744.12 -2.65977 1.46594 0
M  V30 18459 H 1741.71 -1.27544 0.777999 0
M  V30 18460 H 1743.59 -4.18978 -0.451177 0
M  V30 18461 H 1742.27 -3.09785 -0.93887 0
M  V30 18462 H 1741.17 -3.4909 1.34488 0
M  V30 18463 H 1742.51 -4.59999 1.75106 0
M  V30 18464 N 1744.16 -0.784156 -1.36707 0
M  V30 18465 C 1745.38 -0.364744 -2.04168 0
M  V30 18466 C 1745.81 1.00905 -1.58745 0
M  V30 18467 O 1745.17 1.64903 -0.753447 0
M  V30 18468 C 1745.21 -0.43091 -3.58016 0
M  V30 18469 O 1744.32 0.564103 -4.08524 0
M  V30 18470 H 1743.66 -0.15576 -0.645473 0
M  V30 18471 H 1746.19 -1.0638 -1.74769 0
M  V30 18472 H 1746.2 -0.292629 -4.06949 0
M  V30 18473 H 1744.87 -1.43308 -3.9043 0
M  V30 18474 H 1743.45 0.387917 -3.70877 0
M  V30 18475 N 1745.64 1.48215 -0.535727 0
M  V30 18476 C 1746.91 1.95505 0.0609376 0
M  V30 18477 C 1747.29 1.47806 1.5072 0
M  V30 18478 O 1746.64 0.707142 2.17283 0
M  V30 18479 C 1746.85 3.48944 -0.0622609 0
M  V30 18480 C 1748.2 4.24496 0.0940805 0
M  V30 18481 O 1749.22 3.56198 0.0112532 0
M  V30 18482 O 1748.08 5.4584 0.268547 0
M  V30 18483 H 1745.18 0.82349 0.0761079 0
M  V30 18484 H 1747.72 1.58711 -0.600732 0
M  V30 18485 H 1746.49 3.76401 -1.06949 0
M  V30 18486 H 1746.12 3.92448 0.637999 0
M  V30 18487 N 1747.11 0.27113 1.5525 0
M  V30 18488 C 1748.06 -0.634087 2.2379 0
M  V30 18489 C 1749.06 -1.16101 1.23357 0
M  V30 18490 O 1750.26 -1.1151 1.413 0
M  V30 18491 H 1746.64 -0.223023 0.718168 0
M  V30 18492 H 1748.61 -0.0331304 2.98382 0
M  V30 18493 C 1747.36 -1.80879 2.96948 0
M  V30 18494 H 1746.68 -1.41252 3.74016 0
M  V30 18495 H 1748.12 -2.41888 3.48233 0
M  V30 18496 C 1746.58 -2.69481 2.02192 0
M  V30 18497 O 1747.11 -3.69725 1.57056 0
M  V30 18498 N 1745.32 -2.36565 1.68776 0
M  V30 18499 H 1744.86 -1.55096 2.05677 0
M  V30 18500 H 1744.82 -2.96119 1.05646 0
M  V30 18501 N 1748.59 -1.576 -0.00164943 0
M  V30 18502 C 1749.5 -2.11748 -1.00995 0
M  V30 18503 C 1750.52 -1.06235 -1.37805 0
M  V30 18504 O 1751.69 -1.38127 -1.4657 0
M  V30 18505 C 1748.76 -2.60869 -2.2836 0
M  V30 18506 C 1747.82 -3.80976 -1.97879 0
M  V30 18507 C 1747.05 -4.27745 -3.19171 0
M  V30 18508 O 1747.28 -3.73856 -4.30799 0
M  V30 18509 O 1746.21 -5.19917 -3.03265 0
M  V30 18510 H 1750.04 -2.98117 -0.579667 0
M  V30 18511 H 1747.62 -1.47766 -0.220375 0
M  V30 18512 H 1749.5 -2.9267 -3.03187 0
M  V30 18513 H 1748.18 -1.77598 -2.7063 0
M  V30 18514 H 1747.09 -3.54151 -1.20533 0
M  V30 18515 H 1748.42 -4.65315 -1.60447 0
M  V30 18516 N 1750.07 0.274379 -1.55193 0
M  V30 18517 C 1750.98 1.36118 -1.91073 0
M  V30 18518 C 1752 1.54111 -0.807823 0
M  V30 18519 O 1753.17 1.68264 -1.10676 0
M  V30 18520 C 1750.24 2.70062 -2.17411 0
M  V30 18521 C 1749.3 2.60827 -3.4098 0
M  V30 18522 C 1748.53 3.88384 -3.66052 0
M  V30 18523 O 1748.75 4.89 -2.93657 0
M  V30 18524 O 1747.69 3.8867 -4.59586 0
M  V30 18525 H 1751.51 1.08686 -2.83586 0
M  V30 18526 H 1749.1 0.472784 -1.41722 0
M  V30 18527 H 1750.98 3.49264 -2.35782 0
M  V30 18528 H 1749.66 2.97283 -1.28081 0
M  V30 18529 H 1748.56 1.80006 -3.27946 0
M  V30 18530 H 1749.9 2.38556 -4.30525 0
M  V30 18531 N 1751.55 1.48103 0.538828 0
M  V30 18532 C 1752.5 1.61966 1.64425 0
M  V30 18533 C 1753.47 0.461999 1.59546 0
M  V30 18534 O 1754.65 0.684377 1.78104 0
M  V30 18535 C 1751.79 1.65711 3.02711 0
M  V30 18536 C 1750.9 2.92522 3.17891 0
M  V30 18537 C 1750.04 2.87485 4.46683 0
M  V30 18538 C 1749.08 4.0904 4.5536 0
M  V30 18539 N 1748.21 4.02131 5.7553 0
M  V30 18540 H 1753.05 2.5637 1.51916 0
M  V30 18541 H 1750.59 1.27146 0.739745 0
M  V30 18542 H 1752.55 1.65864 3.82812 0
M  V30 18543 H 1751.18 0.748045 3.14013 0
M  V30 18544 H 1750.23 3.02154 2.311 0
M  V30 18545 H 1751.54 3.82487 3.20165 0
M  V30 18546 H 1750.7 2.8599 5.35065 0
M  V30 18547 H 1749.44 1.95234 4.46917 0
M  V30 18548 H 1748.44 4.10819 3.65387 0
M  V30 18549 H 1749.67 5.02439 4.56872 0
M  V30 18550 H 1747.61 3.12695 5.76678 0
M  V30 18551 H 1747.53 4.85791 5.7926 0
M  V30 18552 H 1748.8 4.04682 6.66223 0
M  V30 18553 N 1753.03 -0.787016 1.36542 0
M  V30 18554 C 1753.99 -1.88136 1.3091 0
M  V30 18555 C 1754.99 -1.59339 0.216292 0
M  V30 18556 O 1756.18 -1.67706 0.471222 0
M  V30 18557 C 1753.31 -3.24969 1.02994 0
M  V30 18558 H 1754.5 -1.94546 2.28237 0
M  V30 18559 H 1752.06 -0.985084 1.2135 0
M  V30 18560 H 1752.79 -3.24242 0.0613497 0
M  V30 18561 H 1752.58 -3.47261 1.82078 0
M  V30 18562 H 1754.07 -4.05036 1.01664 0
M  V30 18563 N 1754.5 -1.20861 -1.01145 0
M  V30 18564 C 1755.75 -1.02191 -1.74823 0
M  V30 18565 C 1756.08 0.445357 -1.89333 0
M  V30 18566 O 1755.33 1.34684 -1.41982 0
M  V30 18567 C 1755.63 -1.65666 -3.16685 0
M  V30 18568 C 1755.3 -3.15494 -3.2214 0
M  V30 18569 C 1753.96 -3.56381 -3.23336 0
M  V30 18570 C 1756.31 -4.11481 -3.19895 0
M  V30 18571 C 1753.64 -4.91772 -3.19964 0
M  V30 18572 C 1755.99 -5.46826 -3.18064 0
M  V30 18573 C 1754.66 -5.87118 -3.17566 0
M  V30 18574 H 1753.93 -0.373945 -0.639724 0
M  V30 18575 H 1756.57 -1.50361 -1.18592 0
M  V30 18576 H 1754.88 -1.09772 -3.76108 0
M  V30 18577 H 1756.58 -1.4873 -3.72398 0
M  V30 18578 H 1753.17 -2.82926 -3.21948 0
M  V30 18579 H 1757.35 -3.80924 -3.18136 0
M  V30 18580 H 1752.61 -5.22247 -3.17913 0
M  V30 18581 H 1756.78 -6.20945 -3.15279 0
M  V30 18582 H 1754.41 -6.92 -3.14707 0
M  V30 18583 N 1755.98 1.20536 -1.01532 0
M  V30 18584 C 1757.23 1.89496 -0.70254 0
M  V30 18585 C 1757.55 1.7915 0.770072 0
M  V30 18586 O 1756.82 1.19308 1.55379 0
M  V30 18587 H 1755.4 0.701447 -0.256868 0
M  V30 18588 H 1758.06 1.46394 -1.28665 0
M  V30 18589 H 1757.16 2.96155 -0.984817 0
M  V30 18590 N 1757.46 0.791395 1.36289 0
M  V30 18591 C 1758.69 0.375566 2.03971 0
M  V30 18592 C 1759.11 -1.00061 1.59277 0
M  V30 18593 O 1758.47 -1.64501 0.762182 0
M  V30 18594 C 1758.52 0.449891 3.57783 0
M  V30 18595 O 1757.62 -0.54243 4.08817 0
M  V30 18596 H 1756.96 0.159181 0.644637 0
M  V30 18597 H 1759.49 1.07306 1.74203 0
M  V30 18598 H 1759.5 0.314206 4.06788 0
M  V30 18599 H 1758.18 1.45377 3.89665 0
M  V30 18600 H 1756.75 -0.368243 3.71077 0
M  V30 18601 N 1758.94 -1.47929 0.54358 0
M  V30 18602 C 1760.16 -2.07393 0.0168905 0
M  V30 18603 C 1760.59 -1.39557 -1.26117 0
M  V30 18604 O 1759.95 -0.465983 -1.75209 0
M  V30 18605 C 1760 -3.6017 -0.176105 0
M  V30 18606 O 1759.1 -3.9326 -1.24178 0
M  V30 18607 H 1758.44 -0.662459 0.0452126 0
M  V30 18608 H 1760.97 -1.90145 0.755376 0
M  V30 18609 H 1760.98 -4.06088 -0.394555 0
M  V30 18610 H 1759.66 -4.08944 0.757445 0
M  V30 18611 H 1758.23 -3.59105 -1.0049 0
M  V30 18612 N 1760.42 -0.27936 -1.55104 0
M  V30 18613 C 1761.35 0.639572 -2.20096 0
M  V30 18614 C 1762.36 1.11423 -1.18696 0
M  V30 18615 O 1763.55 1.0354 -1.45402 0
M  V30 18616 C 1760.65 1.88494 -2.81644 0
M  V30 18617 C 1759.82 1.55639 -4.08773 0
M  V30 18618 C 1758.88 2.65466 -4.54328 0
M  V30 18619 O 1757.91 2.31473 -5.20008 0
M  V30 18620 N 1759.11 3.95606 -4.24825 0
M  V30 18621 H 1761.88 0.0833048 -2.99584 0
M  V30 18622 H 1759.44 -0.100637 -1.61587 0
M  V30 18623 H 1761.43 2.61272 -3.09062 0
M  V30 18624 H 1760 2.35015 -2.06123 0
M  V30 18625 H 1759.22 0.662253 -3.88597 0
M  V30 18626 H 1760.51 1.31196 -4.91594 0
M  V30 18627 H 1759.91 4.26043 -3.72161 0
M  V30 18628 H 1758.46 4.64748 -4.57004 0
M  V30 18629 N 1761.9 1.57599 -0.0067085 0
M  V30 18630 C 1763.31 1.78864 0.535202 0
M  V30 18631 C 1763.66 0.914793 1.73568 0
M  V30 18632 O 1762.78 0.119075 2.16072 0
M  V30 18633 C 1763.38 3.24386 0.977709 0
M  V30 18634 C 1761.94 3.46725 1.46488 0
M  V30 18635 C 1761.08 2.74114 0.419171 0
M  V30 18636 H 1764.03 1.56982 -0.232853 0
M  V30 18637 H 1764.06 3.32867 1.84336 0
M  V30 18638 H 1763.57 3.87961 0.103778 0
M  V30 18639 H 1761.67 2.88373 2.35948 0
M  V30 18640 H 1761.78 4.55416 1.48772 0
M  V30 18641 H 1760.15 2.3893 0.882311 0
M  V30 18642 H 1760.93 3.40392 -0.445908 0
M  V30 18643 N 1763.37 -0.266145 1.55336 0
M  V30 18644 C 1764.6 -1.01915 1.80633 0
M  V30 18645 C 1765.02 -1.78897 0.581172 0
M  V30 18646 O 1764.38 -1.75118 -0.469399 0
M  V30 18647 C 1764.43 -1.948 3.03456 0
M  V30 18648 O 1763.53 -3.03678 2.79022 0
M  V30 18649 H 1762.87 -0.29102 0.596828 0
M  V30 18650 H 1765.4 -0.292973 2.02492 0
M  V30 18651 H 1765.41 -2.36626 3.32373 0
M  V30 18652 H 1764.09 -1.38182 3.92273 0
M  V30 18653 H 1762.67 -2.66118 2.61219 0
M  V30 18654 N 1764.85 -1.48386 -0.530967 0
M  V30 18655 C 1765.78 -1.6573 -1.64486 0
M  V30 18656 C 1766.76 -0.506198 -1.62393 0
M  V30 18657 O 1767.95 -0.738623 -1.79605 0
M  V30 18658 C 1765.08 -1.69594 -3.03076 0
M  V30 18659 C 1764.03 -2.84195 -3.20027 0
M  V30 18660 C 1763.36 -2.73148 -4.59668 0
M  V30 18661 C 1764.66 -4.25504 -3.02892 0
M  V30 18662 H 1766.35 -2.58983 -1.50227 0
M  V30 18663 H 1763.9 -1.24633 -0.721286 0
M  V30 18664 H 1765.85 -1.80316 -3.80873 0
M  V30 18665 H 1764.57 -0.729193 -3.18356 0
M  V30 18666 H 1763.23 -2.73027 -2.44647 0
M  V30 18667 H 1762.88 -1.74444 -4.71782 0
M  V30 18668 H 1762.58 -3.50047 -4.71954 0
M  V30 18669 H 1764.11 -2.85836 -5.39565 0
M  V30 18670 H 1765.52 -4.37511 -3.70482 0
M  V30 18671 H 1763.92 -5.03393 -3.26673 0
M  V30 18672 H 1764.99 -4.42036 -1.99329 0
M  V30 18673 N 1766.33 0.779763 -1.36958 0
M  V30 18674 C 1767.28 1.91417 -1.32145 0
M  V30 18675 C 1768.27 1.68074 -0.211572 0
M  V30 18676 O 1769.48 1.75962 -0.379139 0
M  V30 18677 H 1765.85 0.62934 -0.411624 0
M  V30 18678 H 1767.82 1.92594 -2.27926 0
M  V30 18679 C 1766.57 3.28574 -1.13729 0
M  V30 18680 H 1765.9 3.47109 -1.98383 0
M  V30 18681 H 1767.34 4.08272 -1.1441 0
M  V30 18682 C 1765.79 3.36531 0.157538 0
M  V30 18683 O 1766.32 3.85067 1.14397 0
M  V30 18684 N 1764.53 2.89872 0.205509 0
M  V30 18685 H 1764.08 2.50566 -0.597854 0
M  V30 18686 H 1764.04 2.95578 1.07151 0
M  V30 18687 N 1767.81 1.21396 1.00503 0
M  V30 18688 C 1769.06 1.02913 1.73935 0
M  V30 18689 C 1769.38 -0.438329 1.9001 0
M  V30 18690 O 1768.65 -1.31618 1.45098 0
M  V30 18691 H 1767.23 0.377813 0.644412 0
M  V30 18692 H 1769.89 1.52704 1.21109 0
M  V30 18693 H 1768.98 1.49705 2.73852 0
M  V30 18694 N 1769.29 -1.19996 1.0217 0
M  V30 18695 C 1770.56 -1.85214 0.628894 0
M  V30 18696 C 1770.94 -1.91292 -0.892784 0
M  V30 18697 O 1770.29 -1.42455 -1.78658 0
M  V30 18698 C 1770.5 -3.24576 1.28262 0
M  V30 18699 C 1771.85 -4.0081 1.4013 0
M  V30 18700 O 1772.87 -3.33948 1.23923 0
M  V30 18701 O 1771.73 -5.20561 1.66368 0
M  V30 18702 H 1768.83 -0.797842 0.217664 0
M  V30 18703 H 1771.37 -1.27544 1.1194 0
M  V30 18704 H 1770.14 -3.14947 2.32216 0
M  V30 18705 H 1769.77 -3.89884 0.77952 0
M  V30 18706 N 1770.76 -0.798611 -1.35867 0
M  V30 18707 C 1772.01 -0.371795 -1.98244 0
M  V30 18708 C 1772.33 1.06474 -1.64081 0
M  V30 18709 O 1773.53 1.59428 -2.19761 0
M  V30 18710 C 1771.99 -0.613821 -3.54627 0
M  V30 18711 C 1771.6 -2.06237 -3.97706 0
M  V30 18712 C 1773.34 -0.251966 -4.23752 0
M  V30 18713 C 1771.25 -2.25057 -5.46903 0
M  V30 18714 H 1770.18 -0.135278 -0.741765 0
M  V30 18715 H 1772.83 -0.981544 -1.55042 0
M  V30 18716 H 1771.21 0.0657688 -3.95945 0
M  V30 18717 H 1772.38 -2.77912 -3.67562 0
M  V30 18718 H 1770.7 -2.38334 -3.41447 0
M  V30 18719 H 1773.3 -0.370736 -5.33413 0
M  V30 18720 H 1773.64 0.800968 -4.08522 0
M  V30 18721 H 1774.17 -0.885155 -3.87827 0
M  V30 18722 H 1770.91 -3.28767 -5.67091 0
M  V30 18723 H 1770.43 -1.57898 -5.78643 0
M  V30 18724 H 1772.11 -2.06219 -6.13256 0
M  V30 18725 N 1772.24 1.47639 -0.551417 0
M  V30 18726 C 1773.19 2.29936 0.199514 0
M  V30 18727 C 1774.16 1.38704 0.913811 0
M  V30 18728 O 1775.34 1.67666 0.910643 0
M  V30 18729 C 1772.48 3.22544 1.22717 0
M  V30 18730 C 1771.6 4.28865 0.519527 0
M  V30 18731 C 1770.73 5.0863 1.53197 0
M  V30 18732 C 1769.77 6.06731 0.808981 0
M  V30 18733 N 1768.91 6.79476 1.76798 0
M  V30 18734 H 1773.75 2.93631 -0.508414 0
M  V30 18735 H 1771.28 1.44738 -0.262553 0
M  V30 18736 H 1773.24 3.74653 1.83551 0
M  V30 18737 H 1771.87 2.60726 1.9032 0
M  V30 18738 H 1770.92 3.79857 -0.203217 0
M  V30 18739 H 1772.24 4.98778 -0.0471224 0
M  V30 18740 H 1771.39 5.6486 2.214 0
M  V30 18741 H 1770.13 4.38605 2.13253 0
M  V30 18742 H 1769.13 5.49684 0.112991 0
M  V30 18743 H 1770.36 6.78762 0.214239 0
M  V30 18744 H 1768.31 6.12185 2.35722 0
M  V30 18745 H 1768.22 7.45539 1.25333 0
M  V30 18746 H 1769.49 7.40283 2.44133 0
M  V30 18747 N 1773.72 0.287581 1.54954 0
M  V30 18748 C 1775.13 -0.207733 1.85541 0
M  V30 18749 C 1775.48 -1.54478 1.20959 0
M  V30 18750 O 1774.61 -2.10487 0.502399 0
M  V30 18751 C 1775.2 -0.383701 3.3662 0
M  V30 18752 C 1773.76 -0.82324 3.67287 0
M  V30 18753 C 1772.91 0.0762579 2.77195 0
M  V30 18754 H 1775.86 0.509004 1.50316 0
M  V30 18755 H 1775.88 -1.22036 3.60399 0
M  V30 18756 H 1775.39 0.589575 3.83596 0
M  V30 18757 H 1773.49 -1.80754 3.2582 0
M  V30 18758 H 1773.61 -0.651925 4.74644 0
M  V30 18759 H 1771.97 -0.44219 2.50832 0
M  V30 18760 H 1772.75 1.04564 3.26988 0
M  V30 18761 N 1775.2 -1.57593 0.0150662 0
M  V30 18762 C 1776.13 -2.12395 -0.970081 0
M  V30 18763 C 1777.11 -1.03666 -1.34861 0
M  V30 18764 O 1778.29 -1.31427 -1.4297 0
M  V30 18765 C 1775.42 -2.63958 -2.25707 0
M  V30 18766 C 1774.38 -3.77348 -2.01971 0
M  V30 18767 C 1773.7 -4.15284 -3.36814 0
M  V30 18768 C 1775 -5.04008 -1.37017 0
M  V30 18769 H 1776.7 -2.9496 -0.513731 0
M  V30 18770 H 1774.24 -1.41889 -0.245666 0
M  V30 18771 H 1776.2 -3.00927 -2.94993 0
M  V30 18772 H 1774.92 -1.78535 -2.73483 0
M  V30 18773 H 1773.58 -3.40795 -1.35107 0
M  V30 18774 H 1773.23 -3.26863 -3.82321 0
M  V30 18775 H 1772.93 -4.91686 -3.21744 0
M  V30 18776 H 1774.45 -4.54824 -4.07391 0
M  V30 18777 H 1775.87 -5.38652 -1.96282 0
M  V30 18778 H 1774.26 -5.85315 -1.32388 0
M  V30 18779 H 1775.33 -4.83698 -0.341281 0
M  V30 18780 N 1776.68 0.257904 -1.55475 0
M  V30 18781 C 1777.92 0.985519 -1.76442 0
M  V30 18782 C 1778.25 1.86267 -0.577033 0
M  V30 18783 O 1777.52 1.91613 0.407582 0
M  V30 18784 H 1776.1 0.366872 -0.650702 0
M  V30 18785 H 1778.76 0.278498 -1.929 0
M  V30 18786 H 1777.85 1.61367 -2.67146 0
M  V30 18787 N 1778.15 1.48666 0.52309 0
M  V30 18788 C 1779.38 1.60965 1.30787 0
M  V30 18789 C 1779.8 0.272663 1.86113 0
M  V30 18790 O 1779.16 -0.756662 1.64755 0
M  V30 18791 C 1779.21 2.66455 2.42969 0
M  V30 18792 O 1778.31 2.24094 3.46202 0
M  V30 18793 H 1777.66 0.539516 0.387064 0
M  V30 18794 H 1780.19 1.94702 0.628683 0
M  V30 18795 H 1780.2 2.87942 2.89056 0
M  V30 18796 H 1778.87 3.63516 2.02062 0
M  V30 18797 H 1777.45 2.12848 3.06186 0
M  V30 18798 N 1779.63 -0.772489 1.37369 0
M  V30 18799 C 1780.91 -1.52029 1.23072 0
M  V30 18800 C 1781.29 -2.10365 -0.176011 0
M  V30 18801 O 1780.64 -1.95459 -1.18356 0
M  V30 18802 C 1780.85 -2.60176 2.32614 0
M  V30 18803 C 1782.2 -3.27599 2.70118 0
M  V30 18804 O 1783.22 -2.70471 2.31785 0
M  V30 18805 O 1782.08 -4.30883 3.36158 0
M  V30 18806 H 1779.17 -0.673306 0.480196 0
M  V30 18807 H 1781.72 -0.809518 1.49147 0
M  V30 18808 H 1780.49 -2.15185 3.2682 0
M  V30 18809 H 1780.11 -3.38855 2.07998 0
M  V30 18810 N 1781.11 -1.21927 -0.998575 0
M  V30 18811 C 1782.39 -0.949034 -1.71034 0
M  V30 18812 C 1782.77 0.537429 -2.04144 0
M  V30 18813 O 1782.12 1.50398 -1.72026 0
M  V30 18814 C 1782.33 -1.84076 -2.96508 0
M  V30 18815 C 1783.67 -2.09345 -3.69405 0
M  V30 18816 O 1784.7 -1.81477 -3.06504 0
M  V30 18817 O 1783.56 -2.56513 -4.82559 0
M  V30 18818 H 1780.65 -0.356423 -0.746252 0
M  V30 18819 H 1783.2 -1.32886 -1.05543 0
M  V30 18820 H 1781.97 -2.84647 -2.68499 0
M  V30 18821 H 1781.59 -1.46215 -3.69739 0
M  V30 18822 N 1782.59 1.19452 -1.02805 0
M  V30 18823 C 1783.81 1.93616 -0.743485 0
M  V30 18824 C 1784.24 1.74934 0.691342 0
M  V30 18825 O 1783.6 1.05111 1.47721 0
M  V30 18826 C 1783.64 3.43451 -1.0988 0
M  V30 18827 O 1782.75 4.11829 -0.216978 0
M  V30 18828 H 1782.09 0.60448 -0.274771 0
M  V30 18829 H 1784.62 1.51554 -1.37451 0
M  V30 18830 H 1784.63 3.94115 -1.05535 0
M  V30 18831 H 1783.3 3.5637 -2.14413 0
M  V30 18832 H 1781.88 3.71533 -0.318954 0
M  V30 18833 N 1784.07 0.805805 1.35442 0
M  V30 18834 C 1785 0.230077 2.32364 0
M  V30 18835 C 1785.98 -0.644034 1.57436 0
M  V30 18836 O 1787.16 -0.574467 1.85509 0
M  V30 18837 C 1784.29 -0.622814 3.4167 0
M  V30 18838 C 1783.25 0.152739 4.27727 0
M  V30 18839 C 1782.57 -0.821803 5.28347 0
M  V30 18840 C 1783.87 1.35128 5.04517 0
M  V30 18841 H 1785.57 1.03983 2.80763 0
M  V30 18842 H 1783.11 0.501467 1.34986 0
M  V30 18843 H 1785.07 -1.03564 4.08476 0
M  V30 18844 H 1783.79 -1.46544 2.91877 0
M  V30 18845 H 1782.45 0.546732 3.625 0
M  V30 18846 H 1782.1 -1.65991 4.74822 0
M  V30 18847 H 1781.8 -0.307209 5.86796 0
M  V30 18848 H 1783.32 -1.23285 5.98024 0
M  V30 18849 H 1784.73 1.01337 5.64273 0
M  V30 18850 H 1783.13 1.80031 5.72459 0
M  V30 18851 H 1784.2 2.13833 4.35205 0
M  V30 18852 N 1785.54 -1.47344 0.559239 0
M  V30 18853 C 1786.51 -2.28516 -0.17688 0
M  V30 18854 C 1787.51 -1.37065 -0.840823 0
M  V30 18855 O 1788.7 -1.59676 -0.696373 0
M  V30 18856 C 1785.83 -3.16803 -1.25892 0
M  V30 18857 H 1787.02 -2.95068 0.536174 0
M  V30 18858 H 1784.58 -1.53067 0.316263 0
M  V30 18859 H 1785.31 -2.54947 -2.00431 0
M  V30 18860 H 1785.1 -3.84108 -0.787625 0
M  V30 18861 H 1786.59 -3.77958 -1.77589 0
M  V30 18862 N 1787.02 -0.295795 -1.54799 0
M  V30 18863 C 1788.3 0.367858 -1.9211 0
M  V30 18864 C 1788.68 1.72103 -1.22244 0
M  V30 18865 O 1788.03 2.25704 -0.356377 0
M  V30 18866 C 1788.24 0.487673 -3.45576 0
M  V30 18867 C 1789.59 0.760966 -4.17725 0
M  V30 18868 O 1790.61 0.571687 -3.51582 0
M  V30 18869 O 1789.47 1.12423 -5.34812 0
M  V30 18870 H 1786.56 0.204758 -0.801251 0
M  V30 18871 H 1789.11 -0.343471 -1.66188 0
M  V30 18872 H 1787.88 -0.463798 -3.88542 0
M  V30 18873 H 1787.5 1.24767 -3.77517 0
M  V30 18874 N 1788.5 1.57583 -0.0234236 0
M  V30 18875 C 1789.73 1.95577 0.66583 0
M  V30 18876 C 1790.14 0.898193 1.66521 0
M  V30 18877 O 1789.48 -0.129109 1.83246 0
M  V30 18878 C 1789.54 3.29685 1.43345 0
M  V30 18879 C 1789.21 4.53136 0.593048 0
M  V30 18880 C 1790.21 5.19739 -0.129251 0
M  V30 18881 C 1787.89 4.99473 0.532125 0
M  V30 18882 C 1789.88 6.30997 -0.901206 0
M  V30 18883 C 1787.57 6.10615 -0.24354 0
M  V30 18884 C 1788.57 6.76235 -0.958917 0
M  V30 18885 O 1788.26 7.85243 -1.72188 0
M  V30 18886 H 1787.99 0.649084 0.188853 0
M  V30 18887 H 1790.54 2.05253 -0.0777525 0
M  V30 18888 H 1788.77 3.16484 2.22205 0
M  V30 18889 H 1790.46 3.52623 2.01027 0
M  V30 18890 H 1791.23 4.84914 -0.0914812 0
M  V30 18891 H 1787.11 4.48207 1.0785 0
M  V30 18892 H 1790.65 6.82149 -1.46011 0
M  V30 18893 H 1786.55 6.44879 -0.283046 0
M  V30 18894 H 1787.32 8.0188 -1.64105 0
M  V30 18895 N 1789.98 -0.249655 1.5561 0
M  V30 18896 C 1791.23 -0.976148 1.76963 0
M  V30 18897 C 1791.55 -1.85958 0.586903 0
M  V30 18898 O 1790.82 -1.91827 -0.397415 0
M  V30 18899 H 1789.4 -0.363416 0.652639 0
M  V30 18900 H 1792.06 -0.268264 1.93045 0
M  V30 18901 H 1791.16 -1.59948 2.67998 0
M  V30 18902 N 1791.46 -1.48941 -0.515198 0
M  V30 18903 C 1792.71 -1.57398 -1.26768 0
M  V30 18904 C 1793.03 -0.256213 -1.93309 0
M  V30 18905 O 1792.3 0.723408 -1.82054 0
M  V30 18906 H 1790.88 -0.579895 -0.470883 0
M  V30 18907 H 1793.54 -1.85489 -0.598315 0
M  V30 18908 H 1792.63 -2.36272 -2.03916 0
M  V30 18909 N 1792.94 0.765193 -1.37777 0
M  V30 18910 C 1794.16 1.55948 -1.3673 0
M  V30 18911 C 1794.59 1.8805 0.0435817 0
M  V30 18912 O 1793.94 1.49718 1.02246 0
M  V30 18913 C 1793.99 2.84245 -2.21895 0
M  V30 18914 O 1793.1 3.78903 -1.62807 0
M  V30 18915 H 1792.44 0.472127 -0.466897 0
M  V30 18916 H 1794.97 0.946556 -1.81388 0
M  V30 18917 H 1794.98 3.33284 -2.35342 0
M  V30 18918 H 1793.65 2.60209 -3.24444 0
M  V30 18919 H 1792.23 3.37568 -1.58437 0
M  V30 18920 N 1794.41 1.22455 0.992094 0
M  V30 18921 C 1795.66 1.05115 1.73432 0
M  V30 18922 C 1795.99 -0.412642 1.89765 0
M  V30 18923 O 1795.27 -1.3059 1.44141 0
M  V30 18924 C 1795.55 1.76385 3.13943 0
M  V30 18925 C 1795.4 3.30364 3.05253 0
M  V30 18926 C 1796.72 1.51688 4.13133 0
M  V30 18927 H 1793.84 0.383261 0.629508 0
M  V30 18928 H 1796.48 1.50805 1.15576 0
M  V30 18929 H 1794.63 1.37544 3.63337 0
M  V30 18930 H 1796.31 3.78655 2.63474 0
M  V30 18931 H 1794.55 3.6 2.42038 0
M  V30 18932 H 1795.22 3.75409 4.04687 0
M  V30 18933 H 1797.7 1.85429 3.72499 0
M  V30 18934 H 1796.57 2.04049 5.09564 0
M  V30 18935 H 1796.83 0.449654 4.39807 0
M  V30 18936 N 1795.89 -1.18905 1.03437 0
M  V30 18937 C 1797.17 -1.84537 0.648503 0
M  V30 18938 C 1797.55 -1.92228 -0.872445 0
M  V30 18939 O 1796.9 -1.44342 -1.77137 0
M  V30 18940 C 1797.11 -3.23198 1.31698 0
M  V30 18941 C 1798.45 -3.99301 1.44374 0
M  V30 18942 O 1799.48 -3.32615 1.27458 0
M  V30 18943 O 1798.34 -5.18767 1.7188 0
M  V30 18944 H 1795.43 -0.795488 0.226114 0
M  V30 18945 H 1797.98 -1.2635 1.13287 0
M  V30 18946 H 1796.75 -3.12466 2.35543 0
M  V30 18947 H 1796.37 -3.89035 0.820829 0
M  V30 18948 N 1797.37 -0.812977 -1.35013 0
M  V30 18949 C 1798.62 -0.396932 -1.98878 0
M  V30 18950 C 1798.95 1.03486 -1.6433 0
M  V30 18951 O 1798.22 1.71906 -0.90986 0
M  V30 18952 C 1798.51 -0.587911 -3.55268 0
M  V30 18953 C 1798.36 -2.06509 -3.99592 0
M  V30 18954 C 1799.68 -0.017593 -4.40096 0
M  V30 18955 H 1796.8 -0.145695 -0.722455 0
M  V30 18956 H 1799.44 -1.0237 -1.60064 0
M  V30 18957 H 1797.59 -0.0543785 -3.88462 0
M  V30 18958 H 1799.26 -2.6615 -3.76778 0
M  V30 18959 H 1797.5 -2.55921 -3.50267 0
M  V30 18960 H 1798.18 -2.14958 -5.08426 0
M  V30 18961 H 1800.65 -0.473317 -4.13399 0
M  V30 18962 H 1799.53 -0.18109 -5.48601 0
M  V30 18963 H 1799.79 1.07664 -4.2879 0
M  V30 18964 N 1798.85 1.47045 -0.567045 0
M  V30 18965 C 1799.78 2.28211 0.212726 0
M  V30 18966 C 1800.79 1.37591 0.870207 0
M  V30 18967 O 1801.98 1.62329 0.742404 0
M  V30 18968 C 1799.08 3.12155 1.31957 0
M  V30 18969 C 1798.25 4.30799 0.75701 0
M  V30 18970 C 1797.31 4.96262 1.74958 0
M  V30 18971 O 1796.34 5.54347 1.29181 0
M  V30 18972 N 1797.54 4.91848 3.08327 0
M  V30 18973 H 1800.31 2.95773 -0.483552 0
M  V30 18974 H 1797.87 1.56784 -0.403768 0
M  V30 18975 H 1799.86 3.52815 1.98252 0
M  V30 18976 H 1798.43 2.4677 1.91894 0
M  V30 18977 H 1797.65 3.94113 -0.0829881 0
M  V30 18978 H 1798.94 5.0752 0.360671 0
M  V30 18979 H 1798.34 4.45875 3.48155 0
M  V30 18980 H 1796.89 5.36497 3.70154 0
M  V30 18981 N 1800.33 0.304 1.5464 0
M  V30 18982 C 1801.57 -0.304394 2.00199 0
M  V30 18983 C 1801.9 -1.53665 1.19237 0
M  V30 18984 O 1801.16 -1.94 0.257393 0
M  V30 18985 C 1801.45 -0.702651 3.50425 0
M  V30 18986 C 1801.12 0.428205 4.48862 0
M  V30 18987 C 1799.78 0.738646 4.75497 0
M  V30 18988 C 1802.13 1.18878 5.07462 0
M  V30 18989 C 1799.46 1.81273 5.57994 0
M  V30 18990 C 1801.81 2.2528 5.91127 0
M  V30 18991 C 1800.48 2.56927 6.16072 0
M  V30 18992 H 1799.75 -0.111386 0.732581 0
M  V30 18993 H 1802.4 0.42372 1.86753 0
M  V30 18994 H 1800.7 -1.5109 3.61496 0
M  V30 18995 H 1802.4 -1.18461 3.83103 0
M  V30 18996 H 1798.99 0.176148 4.28238 0
M  V30 18997 H 1803.17 0.9622 4.86883 0
M  V30 18998 H 1798.43 2.06261 5.75557 0
M  V30 18999 H 1802.6 2.8467 6.3556 0
M  V30 19000 H 1800.23 3.40286 6.79786 0
M  V30 19001 N 1801.8 -1.57568 0.0317802 0
M  V30 19002 C 1802.75 -2.11538 -0.967175 0
M  V30 19003 C 1803.75 -1.04258 -1.33516 0
M  V30 19004 O 1804.95 -1.2269 -1.31709 0
M  V30 19005 H 1801.33 -0.675877 -0.329687 0
M  V30 19006 H 1803.3 -2.94404 -0.486695 0
M  V30 19007 C 1802.05 -2.65973 -2.2395 0
M  V30 19008 H 1801.37 -3.48172 -1.96509 0
M  V30 19009 H 1802.81 -3.07379 -2.92052 0
M  V30 19010 C 1801.27 -1.5884 -2.97105 0
M  V30 19011 O 1801.8 -0.989784 -3.89315 0
M  V30 19012 N 1800 -1.30821 -2.59488 0
M  V30 19013 H 1799.55 -1.79687 -1.84581 0
M  V30 19014 H 1799.51 -0.593658 -3.08744 0
M  V30 19015 N 1803.28 0.241399 -1.5574 0
M  V30 19016 C 1804.19 1.32034 -1.93918 0
M  V30 19017 C 1805.21 1.52363 -0.840331 0
M  V30 19018 O 1806.38 1.65879 -1.1422 0
M  V30 19019 C 1803.45 2.6539 -2.2309 0
M  V30 19020 C 1802.51 2.53536 -3.46436 0
M  V30 19021 C 1801.74 3.80532 -3.74208 0
M  V30 19022 O 1801.97 4.82662 -3.03964 0
M  V30 19023 O 1800.9 3.78834 -4.67727 0
M  V30 19024 H 1804.73 1.02647 -2.85827 0
M  V30 19025 H 1802.31 0.442616 -1.42693 0
M  V30 19026 H 1804.19 3.44184 -2.43137 0
M  V30 19027 H 1802.87 2.94499 -1.34358 0
M  V30 19028 H 1801.78 1.73009 -3.3169 0
M  V30 19029 H 1803.11 2.29371 -4.35488 0
M  V30 19030 N 1804.76 1.49212 0.507292 0
M  V30 19031 C 1806.04 1.4888 1.26863 0
M  V30 19032 C 1806.42 0.213007 2.10023 0
M  V30 19033 O 1805.77 -0.804785 2.13858 0
M  V30 19034 C 1805.98 2.76407 2.13073 0
M  V30 19035 C 1807.32 3.25647 2.72468 0
M  V30 19036 O 1808.35 2.77481 2.23344 0
M  V30 19037 O 1807.21 4.09518 3.6188 0
M  V30 19038 H 1804.3 0.595597 0.573754 0
M  V30 19039 H 1806.85 1.6147 0.52208 0
M  V30 19040 H 1805.62 3.60758 1.51558 0
M  V30 19041 H 1805.24 2.66648 2.94932 0
M  V30 19042 N 1806.24 -0.757876 1.38181 0
M  V30 19043 C 1807.49 -1.51388 1.33888 0
M  V30 19044 C 1807.81 -1.94867 -0.0718767 0
M  V30 19045 O 1807.08 -1.67329 -1.01871 0
M  V30 19046 H 1805.66 -0.561534 0.492634 0
M  V30 19047 H 1808.32 -0.901156 1.72815 0
M  V30 19048 H 1807.42 -2.4068 1.98695 0
M  V30 19049 N 1807.72 -1.22979 -0.985586 0
M  V30 19050 C 1808.94 -1.08615 -1.76685 0
M  V30 19051 C 1809.37 0.35859 -1.8465 0
M  V30 19052 O 1808.72 1.25924 -1.30433 0
M  V30 19053 C 1808.77 -1.71039 -3.17456 0
M  V30 19054 O 1807.88 -0.969018 -4.00854 0
M  V30 19055 H 1807.22 -0.38103 -0.543794 0
M  V30 19056 H 1809.75 -1.62927 -1.23757 0
M  V30 19057 H 1809.76 -1.76064 -3.68056 0
M  V30 19058 H 1808.43 -2.76168 -3.10973 0
M  V30 19059 H 1807.01 -0.995318 -3.59371 0
M  V30 19060 N 1809.19 1.18355 -1.04066 0
M  V30 19061 C 1810.44 1.88335 -0.744046 0
M  V30 19062 C 1810.77 1.80353 0.728219 0
M  V30 19063 O 1810.02 1.19839 1.54717 0
M  V30 19064 C 1810.32 3.38203 -1.15557 0
M  V30 19065 C 1809.99 3.66389 -2.62812 0
M  V30 19066 C 1808.65 3.73791 -3.03041 0
M  V30 19067 C 1811 3.78773 -3.58023 0
M  V30 19068 C 1808.33 3.91056 -4.37369 0
M  V30 19069 C 1810.68 3.97554 -4.92071 0
M  V30 19070 C 1809.35 4.03192 -5.3197 0
M  V30 19071 H 1808.62 0.689168 -0.272266 0
M  V30 19072 H 1811.26 1.40087 -1.30568 0
M  V30 19073 H 1809.57 3.8843 -0.512741 0
M  V30 19074 H 1811.27 3.90691 -0.903428 0
M  V30 19075 H 1807.86 3.61244 -2.30652 0
M  V30 19076 H 1812.04 3.72386 -3.28089 0
M  V30 19077 H 1807.3 3.93665 -4.67801 0
M  V30 19078 H 1811.47 4.06078 -5.65751 0
M  V30 19079 H 1809.1 4.16323 -6.36066 0
M  V30 19080 N 1810.67 0.820125 1.3458 0
M  V30 19081 C 1811.92 0.403287 1.97627 0
M  V30 19082 C 1812.23 -1.0385 1.65754 0
M  V30 19083 O 1813.44 -1.55911 2.2227 0
M  V30 19084 C 1811.9 0.670161 3.53606 0
M  V30 19085 C 1811.5 2.12538 3.94375 0
M  V30 19086 C 1813.25 0.31935 4.23297 0
M  V30 19087 C 1811.16 2.3373 5.43254 0
M  V30 19088 H 1810.09 0.147062 0.739519 0
M  V30 19089 H 1812.74 1.00609 1.53461 0
M  V30 19090 H 1811.12 -0.00276896 3.96 0
M  V30 19091 H 1812.29 2.83724 3.63094 0
M  V30 19092 H 1810.61 2.43736 3.37612 0
M  V30 19093 H 1813.2 0.45555 5.32756 0
M  V30 19094 H 1813.55 -0.735875 4.09745 0
M  V30 19095 H 1814.08 0.946743 3.8637 0
M  V30 19096 H 1810.82 3.37747 5.61789 0
M  V30 19097 H 1810.34 1.67084 5.76058 0
M  V30 19098 H 1812.02 2.1595 6.09897 0
M  V30 19099 N 1812.15 -1.46743 0.574835 0
M  V30 19100 C 1813.4 -2.02019 0.057302 0
M  V30 19101 C 1813.72 -1.44965 -1.30423 0
M  V30 19102 O 1812.99 -0.631377 -1.85447 0
M  V30 19103 H 1811.57 -0.746778 0.018193 0
M  V30 19104 H 1814.23 -1.7994 0.748834 0
M  V30 19105 H 1813.33 -3.12095 -0.0176114 0
M  V30 19106 N 1813.63 -0.312197 -1.54477 0
M  V30 19107 C 1814.56 0.592742 -2.21403 0
M  V30 19108 C 1815.57 1.0888 -1.21033 0
M  V30 19109 O 1816.76 1.00433 -1.47565 0
M  V30 19110 C 1813.86 1.82478 -2.85578 0
M  V30 19111 C 1813.04 1.46933 -4.11982 0
M  V30 19112 C 1812.09 2.5577 -4.59857 0
M  V30 19113 O 1811.12 2.20391 -5.24801 0
M  V30 19114 N 1812.32 3.86506 -4.3312 0
M  V30 19115 H 1815.09 0.0197398 -2.99693 0
M  V30 19116 H 1812.65 -0.13489 -1.61337 0
M  V30 19117 H 1814.64 2.54657 -3.14534 0
M  V30 19118 H 1813.21 2.3059 -2.11062 0
M  V30 19119 H 1812.43 0.579677 -3.89915 0
M  V30 19120 H 1813.72 1.20739 -4.94267 0
M  V30 19121 H 1813.12 4.18053 -3.81114 0
M  V30 19122 H 1811.67 4.5495 -4.66759 0
M  V30 19123 N 1815.11 1.57549 -0.040136 0
M  V30 19124 C 1816.34 1.96272 0.645049 0
M  V30 19125 C 1816.74 0.915804 1.65559 0
M  V30 19126 O 1816.09 -0.109666 1.83372 0
M  V30 19127 C 1816.15 3.31187 1.3984 0
M  V30 19128 C 1815.81 4.53739 0.544953 0
M  V30 19129 C 1816.81 5.19573 -0.184369 0
M  V30 19130 C 1814.5 5.0001 0.479119 0
M  V30 19131 C 1816.49 6.30006 -0.968081 0
M  V30 19132 C 1814.18 6.10322 -0.30829 0
M  V30 19133 C 1815.17 6.7518 -1.03059 0
M  V30 19134 O 1814.86 7.83373 -1.80507 0
M  V30 19135 H 1814.59 0.651051 0.181958 0
M  V30 19136 H 1817.15 2.05159 -0.0995179 0
M  V30 19137 H 1815.38 3.18823 2.18835 0
M  V30 19138 H 1817.07 3.54735 1.97276 0
M  V30 19139 H 1817.83 4.84789 -0.142908 0
M  V30 19140 H 1813.71 4.49325 1.0309 0
M  V30 19141 H 1817.26 6.80562 -1.53237 0
M  V30 19142 H 1813.15 6.44543 -0.351428 0
M  V30 19143 H 1813.92 8.00094 -1.72601 0
M  V30 19144 N 1816.58 -0.233136 1.55866 0
M  V30 19145 C 1817.81 -0.980602 1.82754 0
M  V30 19146 C 1818.23 -1.77624 0.618988 0
M  V30 19147 O 1817.59 -1.76074 -0.432148 0
M  V30 19148 C 1817.64 -1.88319 3.07519 0
M  V30 19149 O 1816.74 -2.97692 2.85401 0
M  V30 19150 H 1816.09 -0.278295 0.602867 0
M  V30 19151 H 1818.62 -0.249956 2.03067 0
M  V30 19152 H 1818.63 -2.29523 3.37318 0
M  V30 19153 H 1817.3 -1.29831 3.95116 0
M  V30 19154 H 1815.88 -2.60517 2.66805 0
M  V30 19155 N 1818.06 -1.49479 -0.499372 0
M  V30 19156 C 1819.31 -1.58734 -1.25092 0
M  V30 19157 C 1819.63 -0.276701 -1.93027 0
M  V30 19158 O 1818.9 0.704058 -1.82811 0
M  V30 19159 H 1817.48 -0.584857 -0.464706 0
M  V30 19160 H 1820.14 -1.86113 -0.578608 0
M  V30 19161 H 1819.24 -2.38422 -2.01399 0
M  V30 19162 N 1819.54 0.750537 -1.38581 0
M  V30 19163 C 1820.49 1.86434 -1.36056 0
M  V30 19164 C 1821.46 1.64601 -0.222625 0
M  V30 19165 O 1822.64 1.86225 -0.41533 0
M  V30 19166 C 1819.78 3.23769 -1.19447 0
M  V30 19167 C 1818.9 3.57412 -2.42653 0
M  V30 19168 C 1818.03 4.84067 -2.18751 0
M  V30 19169 C 1817.07 5.10506 -3.37713 0
M  V30 19170 N 1816.21 6.28358 -3.13227 0
M  V30 19171 H 1821.05 1.87927 -2.31274 0
M  V30 19172 H 1818.58 0.91849 -1.14901 0
M  V30 19173 H 1820.54 4.03024 -1.07832 0
M  V30 19174 H 1819.17 3.21595 -0.278665 0
M  V30 19175 H 1818.22 2.72978 -2.64929 0
M  V30 19176 H 1819.54 3.72876 -3.31307 0
M  V30 19177 H 1818.69 5.71271 -2.0429 0
M  V30 19178 H 1817.43 4.70748 -1.27467 0
M  V30 19179 H 1816.43 4.2177 -3.5269 0
M  V30 19180 H 1817.66 5.25721 -4.29877 0
M  V30 19181 H 1815.61 6.16355 -2.24593 0
M  V30 19182 H 1815.52 6.44337 -3.95432 0
M  V30 19183 H 1816.79 7.18441 -3.02428 0
M  V30 19184 N 1821.02 1.235 0.979051 0
M  V30 19185 C 1821.97 1.01737 2.07167 0
M  V30 19186 C 1822.94 -0.0656067 1.6597 0
M  V30 19187 O 1824.12 0.0867676 1.90603 0
M  V30 19188 C 1821.26 0.616104 3.39556 0
M  V30 19189 C 1820.37 1.77135 3.94014 0
M  V30 19190 C 1819.51 1.31674 5.14622 0
M  V30 19191 C 1818.55 2.44265 5.6125 0
M  V30 19192 N 1817.69 1.99752 6.73085 0
M  V30 19193 H 1822.53 1.9526 2.25117 0
M  V30 19194 H 1820.06 0.972707 1.10349 0
M  V30 19195 H 1822.02 0.364549 4.15604 0
M  V30 19196 H 1820.65 -0.282117 3.21565 0
M  V30 19197 H 1819.7 2.13687 3.14709 0
M  V30 19198 H 1821.01 2.61775 4.24588 0
M  V30 19199 H 1820.17 1.02339 5.98006 0
M  V30 19200 H 1818.91 0.440724 4.85705 0
M  V30 19201 H 1817.91 2.74373 4.76445 0
M  V30 19202 H 1819.14 3.32405 5.92186 0
M  V30 19203 H 1817.08 1.14532 6.45924 0
M  V30 19204 H 1817 2.77951 7.0305 0
M  V30 19205 H 1818.27 1.73525 7.5994 0
M  V30 19206 N 1822.5 -1.17802 1.04693 0
M  V30 19207 C 1823.41 -2.25298 0.654072 0
M  V30 19208 C 1824.42 -1.70984 -0.32255 0
M  V30 19209 O 1825.6 -2.0063 -0.175904 0
M  V30 19210 C 1822.66 -3.46687 0.0296345 0
M  V30 19211 C 1821.73 -4.16108 1.05606 0
M  V30 19212 C 1820.96 -5.31702 0.461329 0
M  V30 19213 O 1821.18 -5.65701 -0.730679 0
M  V30 19214 O 1820.12 -5.89956 1.19312 0
M  V30 19215 H 1823.94 -2.61179 1.54982 0
M  V30 19216 H 1821.53 -1.25005 0.818182 0
M  V30 19217 H 1823.41 -4.20201 -0.317654 0
M  V30 19218 H 1822.08 -3.12615 -0.839839 0
M  V30 19219 H 1820.99 -3.44635 1.45526 0
M  V30 19220 H 1822.32 -4.54195 1.89651 0
M  V30 19221 N 1823.98 -0.827251 -1.34143 0
M  V30 19222 C 1824.92 -0.250166 -2.2944 0
M  V30 19223 C 1825.89 0.62749 -1.53791 0
M  V30 19224 O 1827.08 0.568218 -1.82143 0
M  V30 19225 C 1824.22 0.578392 -3.40219 0
M  V30 19226 C 1823.33 -0.321991 -4.30798 0
M  V30 19227 C 1822.47 0.51655 -5.28683 0
M  V30 19228 C 1821.5 -0.382949 -6.10901 0
M  V30 19229 N 1820.64 0.416774 -7.00862 0
M  V30 19230 H 1825.48 -1.06817 -2.78198 0
M  V30 19231 H 1823.02 -0.538245 -1.36899 0
M  V30 19232 H 1824.98 1.07414 -4.03135 0
M  V30 19233 H 1823.61 1.36147 -2.92684 0
M  V30 19234 H 1822.66 -0.935979 -3.68705 0
M  V30 19235 H 1823.97 -1.01346 -4.88396 0
M  V30 19236 H 1823.12 1.0766 -5.97071 0
M  V30 19237 H 1821.86 1.2415 -4.71633 0
M  V30 19238 H 1820.87 -0.955103 -5.41441 0
M  V30 19239 H 1822.09 -1.10609 -6.70032 0
M  V30 19240 H 1820.04 1.12532 -6.46276 0
M  V30 19241 H 1819.96 -0.216217 -7.55691 0
M  V30 19242 H 1821.22 0.959432 -7.73573 0
M  V30 19243 N 1825.45 1.46436 -0.582609 0
M  V30 19244 C 1826.36 2.34099 0.153178 0
M  V30 19245 C 1827.38 1.49745 0.886135 0
M  V30 19246 O 1828.56 1.82615 0.849341 0
M  V30 19247 C 1825.62 3.26929 1.15404 0
M  V30 19248 C 1824.68 4.27183 0.425764 0
M  V30 19249 C 1823.91 5.15578 1.37895 0
M  V30 19250 O 1824.14 5.06903 2.61545 0
M  V30 19251 O 1823.07 5.9529 0.889585 0
M  V30 19252 H 1826.9 2.98368 -0.566585 0
M  V30 19253 H 1824.48 1.45409 -0.343013 0
M  V30 19254 H 1826.36 3.842 1.73114 0
M  V30 19255 H 1825.04 2.65257 1.85527 0
M  V30 19256 H 1823.95 3.73601 -0.193175 0
M  V30 19257 H 1825.28 4.91641 -0.234496 0
M  V30 19258 N 1826.93 0.320385 1.54309 0
M  V30 19259 C 1827.89 -0.534308 2.22885 0
M  V30 19260 C 1828.89 -1.04605 1.22124 0
M  V30 19261 O 1830.08 -0.938988 1.46726 0
M  V30 19262 C 1827.22 -1.74181 2.93042 0
M  V30 19263 H 1828.41 0.0651232 2.99829 0
M  V30 19264 H 1825.96 0.0714303 1.56137 0
M  V30 19265 H 1826.7 -2.38056 2.20227 0
M  V30 19266 H 1826.48 -1.38231 3.66926 0
M  V30 19267 H 1827.97 -2.34857 3.45299 0
M  V30 19268 N 1828.41 -1.57525 0.0484906 0
M  V30 19269 C 1829.37 -2.10275 -0.911987 0
M  V30 19270 C 1830.37 -1.02178 -1.24163 0
M  V30 19271 O 1831.56 -1.28262 -1.17875 0
M  V30 19272 C 1828.69 -2.58475 -2.22269 0
M  V30 19273 H 1829.89 -2.96432 -0.454768 0
M  V30 19274 H 1827.44 -1.55017 -0.19987 0
M  V30 19275 H 1828.18 -1.75704 -2.72578 0
M  V30 19276 H 1827.96 -3.37466 -1.99648 0
M  V30 19277 H 1829.45 -2.99443 -2.91074 0
M  V30 19278 N 1829.89 0.224867 -1.55988 0
M  V30 19279 C 1831.14 0.947871 -1.78493 0
M  V30 19280 C 1831.46 1.85001 -0.616413 0
M  V30 19281 O 1830.73 1.92435 0.366847 0
M  V30 19282 H 1829.31 0.352987 -0.658338 0
M  V30 19283 H 1831.97 0.237519 -1.93447 0
M  V30 19284 H 1831.06 1.55664 -2.70509 0
M  V30 19285 N 1831.37 1.49742 0.491438 0
M  V30 19286 C 1832.61 1.59395 1.24248 0
M  V30 19287 C 1832.93 0.286934 1.92877 0
M  V30 19288 O 1832.2 -0.694353 1.83182 0
M  V30 19289 H 1830.78 0.587313 0.461598 0
M  V30 19290 H 1833.45 1.86417 0.56873 0
M  V30 19291 H 1832.54 2.39487 2.00131 0
M  V30 19292 N 1832.84 -0.743177 1.38977 0
M  V30 19293 C 1833.79 -1.87846 1.37174 0
M  V30 19294 C 1834.79 -1.67454 0.256059 0
M  V30 19295 O 1835.99 -1.74895 0.425658 0
M  V30 19296 H 1832.37 -0.618206 0.428166 0
M  V30 19297 H 1834.34 -1.86483 2.32952 0
M  V30 19298 C 1833.09 -3.25443 1.22401 0
M  V30 19299 H 1832.41 -3.41727 2.07516 0
M  V30 19300 H 1833.85 -4.05095 1.25195 0
M  V30 19301 C 1832.31 -3.36831 -0.0682569 0
M  V30 19302 O 1832.84 -3.87964 -1.04147 0
M  V30 19303 N 1831.05 -2.90315 -0.128582 0
M  V30 19304 H 1830.59 -2.48893 0.664077 0
M  V30 19305 H 1830.55 -2.98315 -0.992762 0
M  V30 19306 N 1834.32 -1.24018 -0.972487 0
M  V30 19307 C 1835.6 -0.985099 -1.68983 0
M  V30 19308 C 1835.98 0.494006 -2.05238 0
M  V30 19309 O 1835.33 1.46715 -1.75177 0
M  V30 19310 C 1835.54 -1.90324 -2.92537 0
M  V30 19311 C 1836.89 -2.17134 -3.64881 0
M  V30 19312 O 1837.91 -1.87938 -3.02585 0
M  V30 19313 O 1836.77 -2.66691 -4.7701 0
M  V30 19314 H 1833.86 -0.372172 -0.738524 0
M  V30 19315 H 1836.41 -1.35095 -1.027 0
M  V30 19316 H 1835.18 -2.90278 -2.62401 0
M  V30 19317 H 1834.8 -1.54025 -3.66554 0
M  V30 19318 N 1835.8 1.17245 -1.05316 0
M  V30 19319 C 1837.03 1.91995 -0.784387 0
M  V30 19320 C 1837.45 1.76362 0.65408 0
M  V30 19321 O 1836.81 1.0822 1.45458 0
M  V30 19322 C 1836.86 3.41043 -1.1714 0
M  V30 19323 O 1835.96 4.11276 -0.304285 0
M  V30 19324 H 1835.3 0.598516 -0.287532 0
M  V30 19325 H 1837.83 1.48604 -1.40634 0
M  V30 19326 H 1837.84 3.91788 -1.13871 0
M  V30 19327 H 1836.52 3.51742 -2.21924 0
M  V30 19328 H 1835.09 3.70773 -0.39769 0
M  V30 19329 N 1837.28 0.834353 1.33702 0
M  V30 19330 C 1838.5 0.440268 2.02673 0
M  V30 19331 C 1838.93 -0.949435 1.6238 0
M  V30 19332 O 1838.29 -1.61993 0.814131 0
M  V30 19333 C 1838.33 0.563489 3.5617 0
M  V30 19334 O 1837.44 -0.412093 4.10336 0
M  V30 19335 H 1836.78 0.179609 0.639247 0
M  V30 19336 H 1839.31 1.12794 1.70701 0
M  V30 19337 H 1839.32 0.443464 4.05583 0
M  V30 19338 H 1837.99 1.577 3.84842 0
M  V30 19339 H 1836.57 -0.250001 3.72061 0
M  V30 19340 N 1838.76 -1.46125 0.590367 0
M  V30 19341 C 1840 -2.01947 0.0787256 0
M  V30 19342 C 1840.33 -1.4634 -1.28878 0
M  V30 19343 O 1839.6 -0.651011 -1.84767 0
M  V30 19344 H 1838.18 -0.746543 0.0261125 0
M  V30 19345 H 1840.84 -1.79136 0.767877 0
M  V30 19346 H 1839.93 -3.12096 0.0154914 0
M  V30 19347 N 1840.23 -0.328564 -1.54137 0
M  V30 19348 C 1841.2 0.52248 -2.23165 0
M  V30 19349 C 1842.2 1.03956 -1.22677 0
M  V30 19350 O 1843.39 0.931193 -1.47222 0
M  V30 19351 C 1840.52 1.72624 -2.93962 0
M  V30 19352 H 1841.71 -0.081023 -2.99791 0
M  V30 19353 H 1839.27 -0.0797096 -1.56097 0
M  V30 19354 H 1840 2.36885 -2.21486 0
M  V30 19355 H 1839.79 1.36283 -3.67654 0
M  V30 19356 H 1841.28 2.33023 -3.4654 0
M  V30 19357 N 1841.71 1.57497 -0.0568439 0
M  V30 19358 C 1842.94 1.97231 0.625102 0
M  V30 19359 C 1843.36 0.934622 1.64043 0
M  V30 19360 O 1842.71 -0.0805064 1.82322 0
M  V30 19361 C 1842.76 3.37046 1.30698 0
M  V30 19362 O 1842.48 4.36838 0.332302 0
M  V30 19363 C 1843.99 3.9157 2.07816 0
M  V30 19364 H 1841.21 0.648975 0.170505 0
M  V30 19365 H 1843.75 2.04119 -0.124823 0
M  V30 19366 H 1841.9 3.31292 2.0081 0
M  V30 19367 H 1842.32 5.18055 0.819691 0
M  V30 19368 H 1843.79 4.91664 2.5094 0
M  V30 19369 H 1844.27 3.27303 2.92864 0
M  V30 19370 H 1844.88 4.0068 1.42603 0
M  V30 19371 N 1843.19 -0.216591 1.56105 0
M  V30 19372 C 1844.42 -0.961164 1.83784 0
M  V30 19373 C 1844.84 -1.76957 0.637792 0
M  V30 19374 O 1844.2 -1.76523 -0.413449 0
M  V30 19375 C 1844.25 -1.85047 3.095 0
M  V30 19376 O 1843.35 -2.94648 2.88542 0
M  V30 19377 H 1842.69 -0.271885 0.605784 0
M  V30 19378 H 1845.22 -0.228404 2.03321 0
M  V30 19379 H 1845.23 -2.25932 3.39733 0
M  V30 19380 H 1843.91 -1.25633 3.96471 0
M  V30 19381 H 1842.48 -2.57673 2.69554 0
M  V30 19382 N 1844.67 -1.5 -0.48349 0
M  V30 19383 C 1846.08 -1.53369 -1.06466 0
M  V30 19384 C 1846.43 -0.329973 -1.93405 0
M  V30 19385 O 1845.56 0.558444 -2.0907 0
M  V30 19386 C 1846.15 -2.77927 -1.93757 0
M  V30 19387 C 1844.71 -2.84017 -2.47005 0
M  V30 19388 C 1843.86 -2.47506 -1.25044 0
M  V30 19389 H 1846.81 -1.56444 -0.266633 0
M  V30 19390 H 1846.83 -2.59081 -2.78671 0
M  V30 19391 H 1846.34 -3.65518 -1.30454 0
M  V30 19392 H 1844.44 -2.00748 -3.13896 0
M  V30 19393 H 1844.55 -3.86614 -2.8296 0
M  V30 19394 H 1842.92 -1.99669 -1.58127 0
M  V30 19395 H 1843.7 -3.37391 -0.634225 0
M  V30 19396 N 1846.15 0.735796 -1.39369 0
M  V30 19397 C 1847.4 1.49079 -1.35861 0
M  V30 19398 C 1847.71 1.95553 0.0429472 0
M  V30 19399 O 1848.91 2.70758 0.200614 0
M  V30 19400 C 1847.37 2.69375 -2.38674 0
M  V30 19401 C 1846.98 2.29854 -3.8454 0
M  V30 19402 C 1848.72 3.47199 -2.44239 0
M  V30 19403 C 1846.63 3.46868 -4.78996 0
M  V30 19404 H 1845.56 0.559825 -0.505086 0
M  V30 19405 H 1848.21 0.80271 -1.65012 0
M  V30 19406 H 1846.59 3.40253 -2.02592 0
M  V30 19407 H 1847.77 1.66527 -4.29657 0
M  V30 19408 H 1846.08 1.65123 -3.82261 0
M  V30 19409 H 1848.68 4.34234 -3.12002 0
M  V30 19410 H 1849.02 3.89608 -1.46668 0
M  V30 19411 H 1849.55 2.83349 -2.7921 0
M  V30 19412 H 1846.29 3.0951 -5.77827 0
M  V30 19413 H 1845.81 4.09178 -4.38558 0
M  V30 19414 H 1847.49 4.13213 -4.9786 0
M  V30 19415 N 1847.63 1.24532 0.965897 0
M  V30 19416 C 1848.57 1.03699 2.08205 0
M  V30 19417 C 1849.57 -0.0286308 1.69376 0
M  V30 19418 O 1850.77 0.126073 1.79558 0
M  V30 19419 H 1847.15 0.318331 0.6813 0
M  V30 19420 H 1849.12 1.98348 2.22937 0
M  V30 19421 C 1847.87 0.660411 3.41371 0
M  V30 19422 H 1847.19 1.47216 3.71709 0
M  V30 19423 H 1848.63 0.554264 4.20362 0
M  V30 19424 C 1847.09 -0.632633 3.30907 0
M  V30 19425 O 1847.62 -1.67786 3.6498 0
M  V30 19426 N 1845.83 -0.61403 2.84039 0
M  V30 19427 H 1845.37 0.236909 2.56508 0
M  V30 19428 H 1845.33 -1.47938 2.7742 0
M  V30 19429 N 1849.1 -1.16685 1.05936 0
M  V30 19430 C 1850.51 -1.68745 0.798866 0
M  V30 19431 C 1850.87 -1.84113 -0.678008 0
M  V30 19432 O 1849.99 -1.53408 -1.52627 0
M  V30 19433 C 1850.59 -3.06508 1.44356 0
M  V30 19434 C 1849.14 -3.55704 1.23092 0
M  V30 19435 C 1848.29 -2.31776 1.52235 0
M  V30 19436 H 1851.24 -1.01097 1.22332 0
M  V30 19437 H 1851.26 -3.70725 0.856908 0
M  V30 19438 H 1850.78 -2.95291 2.51843 0
M  V30 19439 H 1848.88 -3.72186 0.175632 0
M  V30 19440 H 1848.99 -4.38015 1.94112 0
M  V30 19441 H 1847.35 -2.36611 0.942734 0
M  V30 19442 H 1848.14 -2.2316 2.60873 0
M  V30 19443 N 1850.58 -0.841432 -1.33258 0
M  V30 19444 C 1851.54 -0.281685 -2.27462 0
M  V30 19445 C 1852.54 0.551062 -1.51063 0
M  V30 19446 O 1853.73 0.364482 -1.70344 0
M  V30 19447 C 1850.87 0.602896 -3.35526 0
M  V30 19448 H 1852.06 -1.11298 -2.78483 0
M  V30 19449 H 1849.61 -0.614717 -1.43704 0
M  V30 19450 H 1850.35 1.45652 -2.89751 0
M  V30 19451 H 1850.13 0.00701634 -3.92099 0
M  V30 19452 H 1851.62 0.987735 -4.05751 0
M  V30 19453 N 1852.06 1.4581 -0.598108 0
M  V30 19454 C 1853.31 2.02601 -0.089744 0
M  V30 19455 C 1853.64 1.46673 1.27282 0
M  V30 19456 O 1852.91 0.637735 1.83748 0
M  V30 19457 C 1853.2 3.60077 -0.0405712 0
M  V30 19458 C 1853.05 4.26358 -1.43313 0
M  V30 19459 C 1854.37 4.35241 0.652164 0
M  V30 19460 H 1851.49 0.736211 -0.0340865 0
M  V30 19461 H 1854.13 1.73775 -0.768263 0
M  V30 19462 H 1852.28 3.84767 0.537251 0
M  V30 19463 H 1853.95 4.12884 -2.0573 0
M  V30 19464 H 1852.19 3.85125 -1.99653 0
M  V30 19465 H 1852.87 5.35211 -1.35105 0
M  V30 19466 H 1855.34 4.15788 0.161128 0
M  V30 19467 H 1854.22 5.4497 0.655646 0
M  V30 19468 H 1854.48 4.07419 1.71646 0
M  V30 19469 N 1853.54 0.336733 1.53961 0
M  V30 19470 C 1854.5 -0.510638 2.23439 0
M  V30 19471 C 1855.5 -1.03304 1.23227 0
M  V30 19472 O 1856.69 -0.923373 1.47714 0
M  V30 19473 C 1853.82 -1.71063 2.94873 0
M  V30 19474 H 1855.02 0.0969205 2.99743 0
M  V30 19475 H 1852.57 0.0879867 1.56052 0
M  V30 19476 H 1853.3 -2.35707 2.22739 0
M  V30 19477 H 1853.09 -1.34331 3.68371 0
M  V30 19478 H 1854.58 -2.31182 3.47771 0
M  V30 19479 N 1855.02 -1.57465 0.0651956 0
M  V30 19480 C 1855.95 -2.15374 -0.902018 0
M  V30 19481 C 1856.93 -1.07904 -1.31494 0
M  V30 19482 O 1858.11 -1.35909 -1.38717 0
M  V30 19483 C 1855.24 -2.71005 -2.17195 0
M  V30 19484 C 1854.2 -3.83583 -1.89864 0
M  V30 19485 C 1853.52 -4.25789 -3.23432 0
M  V30 19486 C 1854.82 -5.08112 -1.20913 0
M  V30 19487 H 1856.52 -2.96445 -0.419631 0
M  V30 19488 H 1854.06 -1.42599 -0.200401 0
M  V30 19489 H 1856.01 -3.1016 -2.8527 0
M  V30 19490 H 1854.74 -1.87146 -2.67664 0
M  V30 19491 H 1853.4 -3.44921 -1.24197 0
M  V30 19492 H 1853.05 -3.38861 -3.71729 0
M  V30 19493 H 1852.75 -5.01673 -3.05938 0
M  V30 19494 H 1854.27 -4.67555 -3.92715 0
M  V30 19495 H 1855.68 -5.44624 -1.79046 0
M  V30 19496 H 1854.08 -5.8923 -1.137 0
M  V30 19497 H 1855.15 -4.84538 -0.187224 0
M  V30 19498 N 1856.49 0.20831 -1.56217 0
M  V30 19499 C 1857.4 1.27891 -1.96675 0
M  V30 19500 C 1858.42 1.50546 -0.87246 0
M  V30 19501 O 1859.6 1.63418 -1.17713 0
M  V30 19502 C 1856.66 2.60598 -2.28669 0
M  V30 19503 C 1855.72 2.4613 -3.51736 0
M  V30 19504 C 1854.95 3.72509 -3.82195 0
M  V30 19505 O 1855.18 4.76105 -3.14133 0
M  V30 19506 O 1854.11 3.68828 -4.75657 0
M  V30 19507 H 1857.94 0.965607 -2.8794 0
M  V30 19508 H 1855.52 0.412249 -1.436 0
M  V30 19509 H 1857.4 3.38949 -2.50383 0
M  V30 19510 H 1856.08 2.91583 -1.40575 0
M  V30 19511 H 1854.99 1.65935 -3.35286 0
M  V30 19512 H 1856.32 2.20082 -4.40255 0
M  V30 19513 O 1858.01 1.5758 0.353651 0
M  V30 19514 H 1858.7 1.65661 1.00379 0
M  V30 END ATOM
M  V30 BEGIN BOND
M  V30 END BOND
M  V30 END CTAB
M  END
$$$$
