drugbank_target|P32019 Type II inositol 1,4,5-trisphosphate 5-phosphatase (DB03158)
 OpenBabel12092120533D

  0  0  0     0  0            999 V3000
M  V30 BEGIN CTAB
M  V30 COUNTS 15687 15865 0 0 0
M  V30 BEGIN ATOM
M  V30 1 H -0.908 1.98254 -0.117106 0
M  V30 2 N 0 1.576 0 0
M  V30 3 C 0.933 2.03868 1.02534 0
M  V30 4 C 1.911 0.928543 1.3348 0
M  V30 5 O 3.095 1.19667 1.45644 0
M  V30 6 C 0.222 2.43627 2.35294 0
M  V30 7 C -0.732 3.65373 2.2001 0
M  V30 8 S 0.101 5.13292 1.52614 0
M  V30 9 C 1.257 5.56322 2.86805 0
M  V30 10 H 1.49 2.90518 0.631377 0
M  V30 11 H -0.977 1.52953 0.210867 0
M  V30 12 H 0.981 2.67203 3.11629 0
M  V30 13 H -0.358 1.57376 2.7183 0
M  V30 14 H -1.165 3.90944 3.18086 0
M  V30 15 H -1.563 3.418 1.51819 0
M  V30 16 H 0.729 5.58782 3.83104 0
M  V30 17 H 1.672 6.56266 2.65933 0
M  V30 18 H 2.08 4.83886 2.90714 0
M  V30 19 N 1.4781 -0.272755 1.55222 0
M  V30 20 C 2.7551 -1.02562 1.66555 0
M  V30 21 C 3.1351 -2.04282 0.532189 0
M  V30 22 O 2.4831 -2.23662 -0.467717 0
M  V30 23 C 2.6931 -1.6822 3.05782 0
M  V30 24 C 4.0411 -2.19373 3.63539 0
M  V30 25 O 5.0651 -1.78206 3.08417 0
M  V30 26 O 3.9241 -2.94883 4.60115 0
M  V30 27 H 1.0181 -0.475755 0.676451 0
M  V30 28 H 3.5641 -0.268593 1.67561 0
M  V30 29 H 2.3361 -0.945112 3.79715 0
M  V30 30 H 1.9591 -2.50609 3.08676 0
M  V30 31 N 2.9562 -1.48159 -0.537278 0
M  V30 32 C 3.8882 -1.58218 -1.65831 0
M  V30 33 C 4.9012 -0.466948 -1.5596 0
M  V30 34 O 6.0902 -0.73747 -1.62553 0
M  V30 35 C 3.1902 -1.48906 -3.04434 0
M  V30 36 C 2.3632 -2.75343 -3.3986 0
M  V30 37 C 1.4222 -2.59588 -4.57712 0
M  V30 38 O 0.4482 -3.33457 -4.61297 0
M  V30 39 N 1.6502 -1.68724 -5.55439 0
M  V30 40 H 4.4152 -2.54891 -1.57641 0
M  V30 41 H 1.9762 -1.4479 -0.724386 0
M  V30 42 H 3.9682 -1.36072 -3.81139 0
M  V30 43 H 2.5382 -0.602368 -3.06741 0
M  V30 44 H 1.7582 -3.02795 -2.52406 0
M  V30 45 H 3.0462 -3.5924 -3.60311 0
M  V30 46 H 2.4442 -1.07898 -5.55315 0
M  V30 47 H 1.0012 -1.61832 -6.3139 0
M  V30 48 N 4.4343 0.785586 -1.36625 0
M  V30 49 C 5.6593 1.57963 -1.34397 0
M  V30 50 C 6.0843 1.87964 0.071526 0
M  V30 51 O 5.4423 1.48182 1.0446 0
M  V30 52 C 5.4903 2.87511 -2.17646 0
M  V30 53 O 4.5943 3.81281 -1.57158 0
M  V30 54 H 3.9353 0.479014 -0.459828 0
M  V30 55 H 6.4653 0.973411 -1.79961 0
M  V30 56 H 6.4753 3.36745 -2.30362 0
M  V30 57 H 5.1503 2.65002 -3.20541 0
M  V30 58 H 3.7273 3.39885 -1.53403 0
M  V30 59 N 5.9124 1.20967 1.01018 0
M  V30 60 C 7.1584 1.02526 1.74975 0
M  V30 61 C 7.4914 -0.4408 1.89131 0
M  V30 62 O 6.7664 -1.32718 1.42184 0
M  V30 63 C 7.0494 1.71699 3.1653 0
M  V30 64 C 6.9024 3.25791 3.10129 0
M  V30 65 C 8.2214 1.45531 4.15342 0
M  V30 66 H 5.3404 0.373863 0.635134 0
M  V30 67 H 7.9824 1.49071 1.17805 0
M  V30 68 H 6.1324 1.32128 3.65341 0
M  V30 69 H 7.8044 3.74697 2.69072 0
M  V30 70 H 6.0474 3.56363 2.47362 0
M  V30 71 H 6.7184 3.69353 4.10222 0
M  V30 72 H 9.1944 1.79872 3.75213 0
M  V30 73 H 8.0704 1.96453 5.1254 0
M  V30 74 H 8.3314 0.384237 4.40427 0
M  V30 75 N 7.3905 -1.2043 1.01659 0
M  V30 76 C 8.3535 -2.21433 0.591616 0
M  V30 77 C 9.3535 -1.57203 -0.338226 0
M  V30 78 O 10.5435 -1.73737 -0.126918 0
M  V30 79 C 7.6755 -3.40628 -0.136058 0
M  V30 80 H 8.8685 -2.60545 1.48514 0
M  V30 81 H 6.4215 -1.33893 0.806379 0
M  V30 82 H 7.1565 -3.07019 -1.04449 0
M  V30 83 H 6.9415 -3.88475 0.531917 0
M  V30 84 H 8.4315 -4.15475 -0.420735 0
M  V30 85 N 8.8686 -0.792821 -1.36206 0
M  V30 86 C 10.1176 -0.363353 -1.984 0
M  V30 87 C 10.4306 1.07172 -1.63626 0
M  V30 88 O 11.6366 1.60362 -2.19081 0
M  V30 89 C 10.0926 -0.59872 -3.54885 0
M  V30 90 C 9.7006 -2.04543 -3.9858 0
M  V30 91 C 11.4446 -0.233926 -4.23855 0
M  V30 92 C 9.3516 -2.22727 -5.47856 0
M  V30 93 H 8.2816 -0.13212 -0.742334 0
M  V30 94 H 10.9326 -0.974935 -1.55458 0
M  V30 95 H 9.3146 0.0826222 -3.95914 0
M  V30 96 H 10.4886 -2.76345 -3.68741 0
M  V30 97 H 8.8036 -2.36879 -3.42458 0
M  V30 98 H 11.4006 -0.348027 -5.33566 0
M  V30 99 H 11.7436 0.818351 -4.08177 0
M  V30 100 H 12.2766 -0.868639 -3.882 0
M  V30 101 H 9.0156 -3.2635 -5.68486 0
M  V30 102 H 8.5356 -1.55434 -5.7931 0
M  V30 103 H 10.2146 -2.03607 -6.14128 0
M  V30 104 N 10.3467 1.47872 -0.545128 0
M  V30 105 C 11.2787 2.27869 0.246621 0
M  V30 106 C 12.2917 1.36282 0.890561 0
M  V30 107 O 13.4807 1.61207 0.766449 0
M  V30 108 C 10.5807 3.10159 1.36582 0
M  V30 109 C 9.7537 4.29627 0.820954 0
M  V30 110 C 8.8127 4.93607 1.82314 0
M  V30 111 O 7.8387 5.52366 1.37406 0
M  V30 112 N 9.0407 4.87211 3.15603 0
M  V30 113 H 11.8057 2.96459 -0.439539 0
M  V30 114 H 9.3667 1.57367 -0.380421 0
M  V30 115 H 11.3587 3.49829 2.03474 0
M  V30 116 H 9.9287 2.43891 1.9554 0
M  V30 117 H 9.1487 3.94192 -0.0244032 0
M  V30 118 H 10.4367 5.06928 0.436063 0
M  V30 119 H 9.8347 4.40651 3.54744 0
M  V30 120 H 8.3917 5.30937 3.78087 0
M  V30 121 N 11.8248 0.280983 1.55075 0
M  V30 122 C 12.7348 -0.61388 2.26426 0
M  V30 123 C 13.7508 -1.16521 1.29224 0
M  V30 124 O 14.9268 -1.19426 1.62171 0
M  V30 125 C 11.9918 -1.7788 2.9759 0
M  V30 126 C 11.0528 -1.26355 4.10284 0
M  V30 127 C 10.2858 -2.37295 4.78045 0
M  V30 128 O 10.5088 -3.56777 4.45047 0
M  V30 129 O 9.4428 -2.05119 5.65871 0
M  V30 130 H 13.2688 -0.0356932 3.03679 0
M  V30 131 H 10.8538 0.0481686 1.49322 0
M  V30 132 H 12.7358 -2.45791 3.42293 0
M  V30 133 H 11.4108 -2.34397 2.23249 0
M  V30 134 H 10.3178 -0.550735 3.70024 0
M  V30 135 H 11.6508 -0.744065 4.86543 0
M  V30 136 N 13.3029 -1.57598 0.00835791 0
M  V30 137 C 14.5309 -1.95214 -0.68549 0
M  V30 138 C 14.9459 -0.883706 -1.66841 0
M  V30 139 O 14.3029 0.136565 -1.81988 0
M  V30 140 C 14.3539 -3.32865 -1.41007 0
M  V30 141 O 14.0749 -4.35609 -0.466552 0
M  V30 142 C 15.5759 -3.84991 -2.19765 0
M  V30 143 H 12.7959 -0.643422 -0.190392 0
M  V30 144 H 15.3399 -2.04406 0.0619607 0
M  V30 145 H 13.4949 -3.24956 -2.10908 0
M  V30 146 H 13.9089 -5.15288 -0.978699 0
M  V30 147 H 15.3829 -4.8371 -2.65948 0
M  V30 148 H 15.8599 -3.18137 -3.02796 0
M  V30 149 H 16.4659 -3.96103 -1.54864 0
M  V30 150 N 14.781 0.264519 -1.55364 0
M  V30 151 C 15.711 1.33121 -1.91836 0
M  V30 152 C 16.692 1.51101 -0.781192 0
M  V30 153 O 17.877 1.64003 -1.04003 0
M  V30 154 C 15.007 2.68921 -2.19769 0
M  V30 155 C 13.961 2.65661 -3.35571 0
M  V30 156 C 13.287 4.05093 -3.49004 0
M  V30 157 C 14.587 2.24187 -4.71739 0
M  V30 158 H 16.281 1.02844 -2.81182 0
M  V30 159 H 13.827 0.493286 -1.35287 0
M  V30 160 H 15.78 3.43663 -2.43872 0
M  V30 161 H 14.504 3.00799 -1.27231 0
M  V30 162 H 13.163 1.93377 -3.1145 0
M  V30 163 H 12.811 4.34206 -2.53917 0
M  V30 164 H 12.511 4.03804 -4.26868 0
M  V30 165 H 14.035 4.81561 -3.75408 0
M  V30 166 H 15.449 2.88654 -4.9533 0
M  V30 167 H 13.846 2.34044 -5.52579 0
M  V30 168 H 14.916 1.19327 -4.69988 0
M  V30 169 N 16.2591 1.48442 0.529413 0
M  V30 170 C 17.2221 1.62524 1.61612 0
M  V30 171 C 18.2221 0.498509 1.52877 0
M  V30 172 O 19.4121 0.76431 1.56537 0
M  V30 173 C 16.5441 1.59597 3.01233 0
M  V30 174 H 17.7371 2.59423 1.50465 0
M  V30 175 H 15.2901 1.37047 0.751514 0
M  V30 176 H 16.0251 0.641781 3.17886 0
M  V30 177 H 15.8101 2.41397 3.08982 0
M  V30 178 H 17.3001 1.72646 3.80241 0
M  V30 179 N 17.7372 -0.778329 1.37039 0
M  V30 180 C 18.6472 -1.92253 1.34446 0
M  V30 181 C 19.6632 -1.72267 0.244991 0
M  V30 182 O 20.8392 -1.95615 0.479258 0
M  V30 183 C 17.9042 -3.27282 1.144 0
M  V30 184 C 16.9652 -3.59969 2.33925 0
M  V30 185 C 16.1982 -4.88555 2.14825 0
M  V30 186 O 16.4212 -5.59113 1.12912 0
M  V30 187 O 15.3552 -5.20153 3.02861 0
M  V30 188 H 19.1812 -1.97392 2.30803 0
M  V30 189 H 16.7662 -0.920154 1.17701 0
M  V30 190 H 18.6482 -4.08062 1.05182 0
M  V30 191 H 17.3232 -3.23011 0.211124 0
M  V30 192 H 16.2302 -2.7945 2.48714 0
M  V30 193 H 17.5632 -3.68976 3.25757 0
M  V30 194 N 19.2153 -1.21501 -1.00376 0
M  V30 195 C 20.4633 -1.03095 -1.73827 0
M  V30 196 C 20.7843 0.436341 -1.90055 0
M  V30 197 O 20.0543 1.31466 -1.45236 0
M  V30 198 H 18.6343 -0.378487 -0.644016 0
M  V30 199 H 21.2963 -1.52831 -1.20949 0
M  V30 200 H 20.3923 -1.49991 -2.73695 0
M  V30 201 N 20.6934 1.19889 -1.02296 0
M  V30 202 C 21.6034 2.26571 -0.608508 0
M  V30 203 C 22.6194 1.70299 0.356964 0
M  V30 204 O 23.7954 2.00235 0.216326 0
M  V30 205 C 20.8604 3.46677 0.0402814 0
M  V30 206 C 19.9214 4.18153 -0.97194 0
M  V30 207 C 19.1544 5.32525 -0.354016 0
M  V30 208 O 19.3774 5.64112 0.844604 0
M  V30 209 O 18.3114 5.92242 -1.07391 0
M  V30 210 H 22.1374 2.64251 -1.49684 0
M  V30 211 H 19.7224 1.26629 -0.792809 0
M  V30 212 H 21.6044 4.19475 0.402324 0
M  V30 213 H 20.2794 3.10858 0.902707 0
M  V30 214 H 19.1864 3.47499 -1.38546 0
M  V30 215 H 20.5194 4.57927 -1.80454 0
M  V30 216 N 22.1715 0.800033 1.35784 0
M  V30 217 C 23.4015 0.389041 2.02904 0
M  V30 218 C 23.8095 -1.0027 1.60445 0
M  V30 219 O 23.1525 -1.65633 0.794453 0
M  V30 220 C 23.2145 0.385495 3.57427 0
M  V30 221 C 22.8785 1.72662 4.23127 0
M  V30 222 C 23.8755 2.68385 4.4527 0
M  V30 223 C 21.5605 2.00883 4.60381 0
M  V30 224 C 23.5545 3.90517 5.03761 0
M  V30 225 C 21.2415 3.2328 5.18588 0
M  V30 226 C 22.2395 4.17915 5.40218 0
M  V30 227 O 21.9275 5.38153 5.97199 0
M  V30 228 H 21.6595 0.157032 0.657508 0
M  V30 229 H 24.2135 1.08311 1.74522 0
M  V30 230 H 22.4435 -0.365128 3.84972 0
M  V30 231 H 24.1325 -0.00228296 4.059 0
M  V30 232 H 24.8985 2.47872 4.16874 0
M  V30 233 H 20.7775 1.28037 4.42863 0
M  V30 234 H 24.3215 4.64395 5.2056 0
M  V30 235 H 20.2185 3.43667 5.4641 0
M  V30 236 H 20.9865 5.3936 6.15656 0
M  V30 237 N 23.6496 -1.47581 0.552962 0
M  V30 238 C 24.8896 -2.04379 0.0296245 0
M  V30 239 C 25.2536 -1.4185 -1.29393 0
M  V30 240 O 26.4546 -1.89669 -1.90471 0
M  V30 241 C 24.7256 -3.57339 -0.0661371 0
M  V30 242 S 26.2846 -4.35511 -0.536213 0
M  V30 243 H 23.1026 -0.710625 0.0230991 0
M  V30 244 H 25.7046 -1.81005 0.738734 0
M  V30 245 H 24.4086 -4.00374 0.901596 0
M  V30 246 H 23.9396 -3.85202 -0.798931 0
M  V30 247 H 25.9546 -4.6253 -1.79668 0
M  V30 248 N 25.1277 -0.289203 -1.54924 0
M  V30 249 C 26.3737 0.323998 -2.00195 0
M  V30 250 C 26.7067 1.54441 -1.17735 0
M  V30 251 O 25.9817 1.92875 -0.250878 0
M  V30 252 C 26.2647 0.692276 -3.53383 0
M  V30 253 C 26.1177 -0.536457 -4.46589 0
M  V30 254 C 27.4367 1.52335 -4.12895 0
M  V30 255 H 24.5557 0.116289 -0.727768 0
M  V30 256 H 27.1977 -0.398954 -1.85764 0
M  V30 257 H 25.3477 1.30822 -3.65811 0
M  V30 258 H 27.0197 -1.17499 -4.46085 0
M  V30 259 H 25.2627 -1.17192 -4.1767 0
M  V30 260 H 25.9337 -0.234806 -5.515 0
M  V30 261 H 28.4097 1.00302 -4.0383 0
M  V30 262 H 27.2857 1.74982 -5.20262 0
M  V30 263 H 27.5467 2.50886 -3.64018 0
M  V30 264 N 26.6058 1.57591 -0.0167156 0
M  V30 265 C 27.8548 1.90461 0.663877 0
M  V30 266 C 28.1678 0.893515 1.73999 0
M  V30 267 O 29.3738 1.11302 2.47637 0
M  V30 268 C 27.8298 3.38155 1.23204 0
M  V30 269 C 27.4378 4.47597 0.189866 0
M  V30 270 C 29.1818 3.80111 1.88986 0
M  V30 271 C 27.0888 5.86379 0.768964 0
M  V30 272 H 26.0188 0.710738 0.251729 0
M  V30 273 H 28.6698 1.83326 -0.0799926 0
M  V30 274 H 27.0518 3.40182 2.02712 0
M  V30 275 H 28.2258 4.57112 -0.581846 0
M  V30 276 H 26.5408 4.14766 -0.368475 0
M  V30 277 H 29.1378 4.81145 2.33247 0
M  V30 278 H 29.4808 3.14511 2.72743 0
M  V30 279 H 30.0138 3.80454 1.16187 0
M  V30 280 H 26.7528 6.55493 -0.0301957 0
M  V30 281 H 26.2728 5.80496 1.50945 0
M  V30 282 H 27.9518 6.34563 1.26251 0
M  V30 283 N 28.0839 -0.256276 1.55502 0
M  V30 284 C 29.0469 -1.30047 1.88734 0
M  V30 285 C 30.0469 -1.4154 0.763086 0
M  V30 286 O 31.2369 -1.40403 1.03115 0
M  V30 287 C 28.3689 -2.67953 2.10747 0
M  V30 288 H 29.5619 -1.01802 2.82093 0
M  V30 289 H 27.1149 -0.495134 1.4825 0
M  V30 290 H 27.8499 -3.01351 1.19825 0
M  V30 291 H 27.6349 -2.60993 2.92617 0
M  V30 292 H 29.1249 -3.43368 2.37673 0
M  V30 293 N 29.562 -1.4872 -0.521534 0
M  V30 294 C 30.808 -1.574 -1.27879 0
M  V30 295 C 31.141 -0.250817 -1.92573 0
M  V30 296 O 30.416 0.743934 -1.79711 0
M  V30 297 C 30.699 -2.71843 -2.36164 0
M  V30 298 C 30.552 -4.13893 -1.76105 0
M  V30 299 C 31.871 -2.82008 -3.37875 0
M  V30 300 H 28.99 -0.572941 -0.463581 0
M  V30 301 H 31.632 -1.80927 -0.580119 0
M  V30 302 H 29.782 -2.51914 -2.95756 0
M  V30 303 H 31.454 -4.45284 -1.20499 0
M  V30 304 H 29.697 -4.20498 -1.06601 0
M  V30 305 H 30.368 -4.89804 -2.5455 0
M  V30 306 H 32.844 -3.00086 -2.88249 0
M  V30 307 H 31.72 -3.63796 -4.11028 0
M  V30 308 H 31.981 -1.90511 -3.98946 0
M  V30 309 N 31.0401 0.771051 -1.3745 0
M  V30 310 C 31.9721 1.89352 -1.29146 0
M  V30 311 C 32.9851 1.61477 -0.207124 0
M  V30 312 O 34.1741 1.72382 -0.463324 0
M  V30 313 C 31.2741 3.24596 -0.974195 0
M  V30 314 C 30.4471 3.80111 -2.16413 0
M  V30 315 C 29.5061 4.93832 -1.81703 0
M  V30 316 O 28.5321 5.09382 -2.54006 0
M  V30 317 N 29.7341 5.75483 -0.761573 0
M  V30 318 H 32.4991 1.96991 -2.25864 0
M  V30 319 H 30.0601 0.950191 -1.31084 0
M  V30 320 H 32.0521 3.98193 -0.722828 0
M  V30 321 H 30.6221 3.12454 -0.0955527 0
M  V30 322 H 29.8421 2.98284 -2.57721 0
M  V30 323 H 31.1301 4.13932 -2.95867 0
M  V30 324 H 30.5281 5.65469 -0.161609 0
M  V30 325 H 29.0851 6.49302 -0.570064 0
M  V30 326 N 32.5182 1.22032 0.997298 0
M  V30 327 C 33.7662 1.04016 1.73278 0
M  V30 328 C 34.0872 -0.426255 1.90284 0
M  V30 329 O 33.3572 -1.30694 1.45931 0
M  V30 330 H 31.9372 0.381897 0.642 0
M  V30 331 H 34.5992 1.5347 1.20137 0
M  V30 332 H 33.6952 1.51441 2.72896 0
M  V30 333 N 33.9963 -1.19345 1.0293 0
M  V30 334 C 35.2423 -1.89318 0.727083 0
M  V30 335 C 35.5753 -1.79446 -0.742483 0
M  V30 336 O 34.8503 -1.1871 -1.54072 0
M  V30 337 C 35.1333 -3.40238 1.17942 0
M  V30 338 C 34.9863 -3.58979 2.71024 0
M  V30 339 C 36.3053 -4.33479 0.760548 0
M  V30 340 H 33.4243 -0.687475 0.265606 0
M  V30 341 H 36.0663 -1.40477 1.2793 0
M  V30 342 H 34.2163 -3.81964 0.709608 0
M  V30 343 H 35.8883 -3.26421 3.25955 0
M  V30 344 H 34.1313 -3.02018 3.11396 0
M  V30 345 H 34.8023 -4.64823 2.9773 0
M  V30 346 H 37.2783 -3.99469 1.16464 0
M  V30 347 H 36.1543 -5.37664 1.10493 0
M  V30 348 H 36.4153 -4.40813 -0.337063 0
M  V30 349 N 35.4744 -0.807222 -1.35358 0
M  V30 350 C 36.4044 -0.232509 -2.3234 0
M  V30 351 C 37.3854 0.642386 -1.57504 0
M  V30 352 O 38.5704 0.572526 -1.85569 0
M  V30 353 C 35.7004 0.619238 -3.41735 0
M  V30 354 C 34.6544 -0.157215 -4.27711 0
M  V30 355 C 33.9804 0.816273 -5.28433 0
M  V30 356 C 35.2804 -1.35656 -5.04376 0
M  V30 357 H 36.9744 -1.04276 -2.80654 0
M  V30 358 H 34.5204 -0.50288 -1.34934 0
M  V30 359 H 36.4734 1.03137 -4.08584 0
M  V30 360 H 35.1974 1.46239 -2.92031 0
M  V30 361 H 33.8564 -0.550525 -3.62443 0
M  V30 362 H 33.5044 1.65494 -4.74996 0
M  V30 363 H 33.2044 0.301067 -5.86828 0
M  V30 364 H 34.7284 1.22659 -5.98153 0
M  V30 365 H 36.1424 -1.01927 -5.64166 0
M  V30 366 H 34.5394 -1.8063 -5.7227 0
M  V30 367 H 35.6094 -2.14288 -4.34981 0
M  V30 368 N 36.9525 1.47285 -0.560781 0
M  V30 369 C 38.1925 2.0436 -0.0404627 0
M  V30 370 C 38.5565 1.42534 1.28639 0
M  V30 371 O 39.7575 1.90677 1.89462 0
M  V30 372 C 38.0285 3.57369 0.0471856 0
M  V30 373 S 39.5875 4.3579 0.513109 0
M  V30 374 H 36.4055 0.710492 -0.0268674 0
M  V30 375 H 39.0075 1.80611 -0.748323 0
M  V30 376 H 37.7115 3.9989 -0.922817 0
M  V30 377 H 37.2425 3.8562 0.778491 0
M  V30 378 H 39.2575 4.63476 1.77212 0
M  V30 379 N 38.4306 0.297415 1.54768 0
M  V30 380 C 39.3406 -0.58983 2.27064 0
M  V30 381 C 40.3566 -1.15144 1.30453 0
M  V30 382 O 41.5326 -1.17699 1.63428 0
M  V30 383 C 38.5976 -1.74714 2.9946 0
M  V30 384 C 37.6586 -1.21997 4.11601 0
M  V30 385 C 36.8916 -2.32212 4.80535 0
M  V30 386 O 37.1146 -3.52036 4.48806 0
M  V30 387 O 36.0486 -1.99106 5.68014 0
M  V30 388 H 39.8746 -0.00348199 3.037 0
M  V30 389 H 37.4596 0.0640035 1.49263 0
M  V30 390 H 39.3416 -2.42147 3.44881 0
M  V30 391 H 38.0166 -2.32016 2.25722 0
M  V30 392 H 36.9236 -0.511458 3.70587 0
M  V30 393 H 38.2566 -0.692419 4.87305 0
M  V30 394 N 39.9087 -1.5758 0.0250728 0
M  V30 395 C 41.1567 -1.91255 -0.653151 0
M  V30 396 C 41.4777 -0.901691 -1.729 0
M  V30 397 O 40.7477 0.0573785 -1.95816 0
M  V30 398 H 39.3277 -0.705942 -0.244243 0
M  V30 399 H 41.9897 -1.94767 0.0719209 0
M  V30 400 H 41.0857 -2.91752 -1.10847 0
M  V30 401 N 41.3868 0.248026 -1.55636 0
M  V30 402 C 42.6638 0.998988 -1.68165 0
M  V30 403 C 43.0438 2.03409 -0.564621 0
M  V30 404 O 42.3918 2.24378 0.432076 0
M  V30 405 C 42.6018 1.63334 -3.0842 0
M  V30 406 C 43.9498 2.13562 -3.66983 0
M  V30 407 O 44.9738 1.73277 -3.11213 0
M  V30 408 O 43.8328 2.87526 -4.64749 0
M  V30 409 H 40.9268 0.464933 -0.683935 0
M  V30 410 H 43.4728 0.241902 -1.67967 0
M  V30 411 H 42.2448 0.884583 -3.8117 0
M  V30 412 H 41.8678 2.45666 -3.12624 0
M  V30 413 N 42.8649 1.48995 0.513639 0
M  V30 414 C 44.0899 1.61792 1.29762 0
M  V30 415 C 44.5149 0.284475 1.85936 0
M  V30 416 O 43.8729 -0.746185 1.65232 0
M  V30 417 C 43.9209 2.67993 2.41272 0
M  V30 418 O 43.0249 2.26287 3.44772 0
M  V30 419 H 42.3659 0.541963 0.38363 0
M  V30 420 H 44.8959 1.95097 0.616307 0
M  V30 421 H 44.9059 2.89772 2.87221 0
M  V30 422 H 43.5809 3.64791 1.9975 0
M  V30 423 H 42.1579 2.14788 3.04829 0
M  V30 424 N 44.343 -0.763751 1.37857 0
M  V30 425 C 45.759 -1.06542 1.18832 0
M  V30 426 C 45.959 -2.01478 0.0299722 0
M  V30 427 O 45.015 -2.4458 -0.627447 0
M  V30 428 C 46.328 -1.65525 2.51042 0
M  V30 429 C 47.876 -1.77745 2.57635 0
M  V30 430 C 48.351 -2.4014 3.89996 0
M  V30 431 N 49.842 -2.47582 3.91481 0
M  V30 432 C 50.577 -2.96732 4.9065 0
M  V30 433 N 50.073 -3.45993 6.00217 0
M  V30 434 N 51.866 -2.95679 4.78048 0
M  V30 435 H 44.017 -0.133556 2.1198 0
M  V30 436 H 46.28 -0.121879 0.940133 0
M  V30 437 H 45.986 -1.03236 3.36207 0
M  V30 438 H 45.86 -2.64719 2.68707 0
M  V30 439 H 48.247 -2.39164 1.72872 0
M  V30 440 H 48.328 -0.772836 2.43846 0
M  V30 441 H 47.972 -1.79358 4.75177 0
M  V30 442 H 47.902 -3.41223 4.01092 0
M  V30 443 H 50.393 -2.1273 3.12337 0
M  V30 444 H 50.706 -3.81922 6.7183 0
M  V30 445 H 49.051 -3.44077 6.03851 0
M  V30 446 H 52.242 -2.56499 3.91568 0
M  V30 447 H 52.415 -3.33672 5.55488 0
M  V30 448 N 45.8211 -1.22559 -0.990812 0
M  V30 449 C 46.7531 -0.955325 -2.08342 0
M  V30 450 C 47.7661 0.0668408 -1.62663 0
M  V30 451 O 48.9551 -0.167421 -1.77713 0
M  V30 452 C 46.0551 -0.415566 -3.36342 0
M  V30 453 C 45.2281 -1.49544 -4.11042 0
M  V30 454 C 44.2871 -0.962399 -5.17324 0
M  V30 455 O 43.3131 -1.64907 -5.44788 0
M  V30 456 N 44.5151 0.215134 -5.80101 0
M  V30 457 H 47.2801 -1.89596 -2.32106 0
M  V30 458 H 44.8411 -1.13276 -1.15673 0
M  V30 459 H 46.8331 -0.0442386 -4.04676 0
M  V30 460 H 45.4031 0.430232 -3.09625 0
M  V30 461 H 44.6231 -2.04 -3.37309 0
M  V30 462 H 45.9111 -2.22195 -4.57719 0
M  V30 463 H 45.3091 0.789779 -5.6016 0
M  V30 464 H 43.8661 0.527826 -6.49659 0
M  V30 465 N 47.2992 1.18797 -1.03562 0
M  V30 466 C 48.5242 1.9314 -0.755764 0
M  V30 467 C 48.9492 1.7537 0.68022 0
M  V30 468 O 48.3072 1.06046 1.47051 0
M  V30 469 C 48.3552 3.42747 -1.12058 0
M  V30 470 O 47.4592 4.11683 -0.243124 0
M  V30 471 H 46.8002 0.602724 -0.278604 0
M  V30 472 H 49.3302 1.50678 -1.3841 0
M  V30 473 H 49.3402 3.93437 -1.08035 0
M  V30 474 H 48.0152 3.55002 -2.16672 0
M  V30 475 H 46.5922 3.71323 -0.342539 0
M  V30 476 N 48.7773 0.814389 1.34928 0
M  V30 477 C 50.1933 0.499084 1.51596 0
M  V30 478 C 50.3933 -0.978319 1.76157 0
M  V30 479 O 49.4493 -1.76309 1.80752 0
M  V30 480 C 50.7623 1.35121 2.68631 0
M  V30 481 C 52.3103 1.34746 2.82511 0
M  V30 482 C 52.7853 2.18388 4.0258 0
M  V30 483 N 54.2763 2.15966 4.09772 0
M  V30 484 C 55.0113 2.77437 5.01813 0
M  V30 485 N 54.5073 3.47866 5.99134 0
M  V30 486 N 56.3003 2.67037 4.94619 0
M  V30 487 H 48.4513 1.7711 1.17243 0
M  V30 488 H 50.7143 0.754256 0.574284 0
M  V30 489 H 50.4203 2.40001 2.57085 0
M  V30 490 H 50.2943 1.00991 3.63429 0
M  V30 491 H 52.6813 0.30648 2.93504 0
M  V30 492 H 52.7623 1.72869 1.88547 0
M  V30 493 H 52.4063 3.2253 3.92347 0
M  V30 494 H 52.3363 1.77621 4.9574 0
M  V30 495 H 54.8273 1.64729 3.40107 0
M  V30 496 H 55.1403 3.92038 6.65977 0
M  V30 497 H 53.4853 3.51972 5.99284 0
M  V30 498 H 56.6763 2.11597 4.17546 0
M  V30 499 H 56.8493 3.15232 5.66156 0
M  V30 500 N 50.2554 -1.46986 0.568584 0
M  V30 501 C 51.1854 -2.32946 -0.160753 0
M  V30 502 C 52.1664 -1.44487 -0.897631 0
M  V30 503 O 53.3514 -1.73327 -0.875867 0
M  V30 504 C 50.4814 -3.26494 -1.18403 0
M  V30 505 C 49.4354 -4.24282 -0.562895 0
M  V30 506 C 48.7614 -5.07236 -1.69163 0
M  V30 507 C 50.0614 -5.19989 0.490761 0
M  V30 508 H 51.7554 -2.94175 0.556916 0
M  V30 509 H 49.3014 -1.4146 0.26927 0
M  V30 510 H 51.2544 -3.85477 -1.70251 0
M  V30 511 H 49.9784 -2.63343 -1.93179 0
M  V30 512 H 48.6374 -3.66541 -0.0656164 0
M  V30 513 H 48.2854 -4.4048 -2.42871 0
M  V30 514 H 47.9854 -5.7345 -1.28174 0
M  V30 515 H 49.5094 -5.6908 -2.21314 0
M  V30 516 H 50.9234 -5.73271 0.0579047 0
M  V30 517 H 49.3204 -5.94469 0.820165 0
M  V30 518 H 50.3904 -4.64777 1.3824 0
M  V30 519 N 51.7335 -0.305618 -1.54608 0
M  V30 520 C 52.6635 0.561482 -2.26649 0
M  V30 521 C 53.6445 1.13415 -1.26772 0
M  V30 522 O 54.8295 1.16262 -1.55553 0
M  V30 523 C 51.9595 1.73122 -3.01075 0
M  V30 524 C 50.9135 1.2887 -4.08138 0
M  V30 525 C 50.2395 2.54396 -4.70305 0
M  V30 526 C 51.5395 0.416578 -5.20636 0
M  V30 527 H 53.2335 -0.0393902 -2.99374 0
M  V30 528 H 50.7795 -0.020385 -1.43986 0
M  V30 529 H 52.7325 2.34396 -3.50195 0
M  V30 530 H 51.4565 2.3584 -2.25936 0
M  V30 531 H 50.1155 0.698991 -3.59875 0
M  V30 532 H 49.7635 3.15439 -3.918 0
M  V30 533 H 49.4635 2.25486 -5.42614 0
M  V30 534 H 50.9875 3.16464 -5.2219 0
M  V30 535 H 52.4015 0.935116 -5.65622 0
M  V30 536 H 50.7985 0.221046 -5.99693 0
M  V30 537 H 51.8685 -0.557162 -4.81688 0
M  V30 538 N 53.2116 1.57565 -0.0334293 0
M  V30 539 C 54.4596 1.91598 0.642999 0
M  V30 540 C 54.7806 0.910847 1.7242 0
M  V30 541 O 54.0506 -0.0469931 1.95844 0
M  V30 542 H 52.6306 0.707228 0.240496 0
M  V30 543 H 55.2926 1.94726 -0.0822488 0
M  V30 544 H 54.3886 2.92336 1.09298 0
M  V30 545 N 54.6897 -0.239769 1.55765 0
M  V30 546 C 55.6197 -1.30052 1.9393 0
M  V30 547 C 56.6007 -1.49839 0.805132 0
M  V30 548 O 57.7857 -1.62328 1.06599 0
M  V30 549 C 54.9157 -2.65391 2.2402 0
M  V30 550 C 53.8697 -2.60289 3.39755 0
M  V30 551 C 53.1957 -3.99489 3.55405 0
M  V30 552 C 54.4957 -2.16654 4.75246 0
M  V30 553 H 56.1897 -0.983573 2.82783 0
M  V30 554 H 53.7357 -0.471701 1.36055 0
M  V30 555 H 55.6887 -3.3974 2.49308 0
M  V30 556 H 54.4127 -2.98736 1.32 0
M  V30 557 H 53.0717 -1.88398 3.14487 0
M  V30 558 H 52.7197 -4.30112 2.60793 0
M  V30 559 H 52.4197 -3.96962 4.33238 0
M  V30 560 H 53.9437 -4.75528 3.83022 0
M  V30 561 H 55.3577 -2.80737 4.99859 0
M  V30 562 H 53.7547 -2.25223 5.56232 0
M  V30 563 H 54.8247 -1.11835 4.71827 0
M  V30 564 N 56.1678 -1.49265 -0.50573 0
M  V30 565 C 57.4138 -1.58748 -1.26202 0
M  V30 566 C 57.7468 -0.271227 -1.92297 0
M  V30 567 O 57.0218 0.724831 -1.80489 0
M  V30 568 C 57.3048 -2.74332 -2.33268 0
M  V30 569 C 57.1578 -4.15737 -1.71705 0
M  V30 570 C 58.4768 -2.85576 -3.34865 0
M  V30 571 H 55.5958 -0.577826 -0.457478 0
M  V30 572 H 58.2378 -1.81532 -0.560897 0
M  V30 573 H 56.3878 -2.55036 -2.93068 0
M  V30 574 H 58.0598 -4.46537 -1.15769 0
M  V30 575 H 56.3028 -4.21605 -1.02135 0
M  V30 576 H 56.9738 -4.92477 -2.49341 0
M  V30 577 H 59.4498 -3.03127 -2.8505 0
M  V30 578 H 58.3258 -3.68135 -4.07146 0
M  V30 579 H 58.5868 -1.94732 -3.96903 0
M  V30 580 N 57.6459 0.756429 -1.3826 0
M  V30 581 C 59.0619 1.0591 -1.19395 0
M  V30 582 C 59.2619 2.01459 -0.0406567 0
M  V30 583 O 58.3179 2.44909 0.614467 0
M  V30 584 C 59.6309 1.64191 -2.51916 0
M  V30 585 C 61.1789 1.76376 -2.58574 0
M  V30 586 C 61.6539 2.38069 -3.91264 0
M  V30 587 N 63.1449 2.45503 -3.92788 0
M  V30 588 C 63.8799 2.94126 -4.92217 0
M  V30 589 N 63.3759 3.42805 -6.02043 0
M  V30 590 N 65.1689 2.9314 -4.7961 0
M  V30 591 H 57.3199 0.122313 -2.12048 0
M  V30 592 H 59.5829 0.116892 -0.940766 0
M  V30 593 H 59.2889 1.01451 -3.3675 0
M  V30 594 H 59.1629 2.6329 -2.70108 0
M  V30 595 H 61.5499 2.38244 -1.74137 0
M  V30 596 H 61.6309 0.759894 -2.44252 0
M  V30 597 H 61.2749 1.76835 -4.76121 0
M  V30 598 H 61.2049 3.39091 -4.02895 0
M  V30 599 H 63.6959 2.1107 -3.13461 0
M  V30 600 H 64.0089 3.78354 -6.73846 0
M  V30 601 H 62.3539 3.4087 -6.05667 0
M  V30 602 H 65.5449 2.54419 -3.92923 0
M  V30 603 H 65.7179 3.30721 -5.5725 0
M  V30 604 N 59.124 1.23083 0.984299 0
M  V30 605 C 60.354 1.08556 1.75781 0
M  V30 606 C 60.762 -0.366171 1.85623 0
M  V30 607 O 60.105 -1.26524 1.33182 0
M  V30 608 C 60.167 1.63208 3.20318 0
M  V30 609 C 59.831 3.11922 3.33997 0
M  V30 610 C 60.828 4.09259 3.2063 0
M  V30 611 C 58.513 3.51552 3.58771 0
M  V30 612 C 60.507 5.4421 3.31835 0
M  V30 613 C 58.194 4.86649 3.69616 0
M  V30 614 C 59.192 5.82787 3.56157 0
M  V30 615 O 58.88 7.15431 3.66626 0
M  V30 616 H 58.612 0.380713 0.5586 0
M  V30 617 H 61.166 1.63321 1.2456 0
M  V30 618 H 59.396 1.0286 3.72769 0
M  V30 619 H 61.085 1.44216 3.79416 0
M  V30 620 H 61.851 3.79984 3.01392 0
M  V30 621 H 57.73 2.77239 3.6832 0
M  V30 622 H 61.274 6.1923 3.21247 0
M  V30 623 H 57.171 5.15601 3.88363 0
M  V30 624 H 57.939 7.23127 3.83445 0
M  V30 625 N 60.6021 -1.18246 1.0419 0
M  V30 626 C 62.0181 -1.40269 0.761366 0
M  V30 627 C 62.2181 -1.90777 -0.648578 0
M  V30 628 O 61.2741 -2.0929 -1.41258 0
M  V30 629 C 62.5871 -2.40237 1.8085 0
M  V30 630 C 64.1351 -2.53961 1.82955 0
M  V30 631 C 64.6101 -3.57194 2.86664 0
M  V30 632 N 66.1011 -3.64702 2.85563 0
M  V30 633 C 66.8361 -4.44309 3.6246 0
M  V30 634 N 66.3321 -5.27514 4.49111 0
M  V30 635 N 68.1251 -4.39084 3.50944 0
M  V30 636 H 60.2761 -0.837882 1.95175 0
M  V30 637 H 62.5391 -0.430608 0.84456 0
M  V30 638 H 62.2451 -2.10176 2.81991 0
M  V30 639 H 62.1191 -3.39601 1.64168 0
M  V30 640 H 64.5061 -2.83338 0.824855 0
M  V30 641 H 64.5871 -1.54706 2.03715 0
M  V30 642 H 64.2311 -3.28558 3.87314 0
M  V30 643 H 64.1611 -4.5613 2.6316 0
M  V30 644 H 66.6521 -3.05289 2.22727 0
M  V30 645 H 66.9651 -5.85411 5.04493 0
M  V30 646 H 65.3101 -5.2693 4.53178 0
M  V30 647 H 68.5011 -3.7313 2.82651 0
M  V30 648 H 68.6741 -5.00883 4.11121 0
M  V30 649 N 62.0802 -0.821533 -1.34494 0
M  V30 650 C 63.0102 -0.257138 -2.3208 0
M  V30 651 C 63.9912 0.625645 -1.58176 0
M  V30 652 O 65.1762 0.552811 -1.86166 0
M  V30 653 C 62.3062 0.582958 -3.42372 0
M  V30 654 C 61.2602 -0.202571 -4.2752 0
M  V30 655 C 60.5862 0.760179 -5.29269 0
M  V30 656 C 61.8862 -1.40998 -5.02908 0
M  V30 657 H 63.5802 -1.07247 -2.79532 0
M  V30 658 H 61.1262 -0.517163 -1.34393 0
M  V30 659 H 63.0792 0.987972 -4.09655 0
M  V30 660 H 61.8032 1.43133 -2.93565 0
M  V30 661 H 60.4622 -0.588936 -3.61838 0
M  V30 662 H 60.1102 1.60447 -4.76724 0
M  V30 663 H 59.8102 0.238809 -5.87115 0
M  V30 664 H 61.3342 1.16308 -5.9942 0
M  V30 665 H 62.7482 -1.07905 -5.63054 0
M  V30 666 H 61.1452 -1.86689 -5.70322 0
M  V30 667 H 62.2152 -2.1889 -4.32684 0
M  V30 668 N 63.5583 1.46682 -0.576371 0
M  V30 669 C 64.4683 2.34032 0.163141 0
M  V30 670 C 65.4843 1.49367 0.892501 0
M  V30 671 O 66.6603 1.82252 0.857106 0
M  V30 672 C 63.7253 3.26435 1.16795 0
M  V30 673 C 62.7863 4.26998 0.443944 0
M  V30 674 C 62.0193 5.14986 1.40088 0
M  V30 675 O 62.2423 5.05785 2.637 0
M  V30 676 O 61.1763 5.94906 0.914917 0
M  V30 677 H 65.0023 2.98607 -0.55388 0
M  V30 678 H 62.5873 1.45554 -0.336821 0
M  V30 679 H 64.4693 3.83459 1.74748 0
M  V30 680 H 63.1443 2.64465 1.86655 0
M  V30 681 H 62.0513 3.7368 -0.177271 0
M  V30 682 H 63.3843 4.91736 -0.213566 0
M  V30 683 N 65.0364 0.313813 1.54444 0
M  V30 684 C 65.9864 -0.571898 2.20711 0
M  V30 685 C 66.9704 -1.08913 1.18435 0
M  V30 686 O 68.1624 -1.02777 1.44104 0
M  V30 687 C 65.2914 -1.7371 2.96108 0
M  V30 688 C 64.3774 -1.23522 4.05713 0
M  V30 689 N 64.7684 -0.452288 5.03774 0
M  V30 690 C 63.0664 -1.51482 4.19487 0
M  V30 691 C 63.7674 -0.183438 5.81411 0
M  V30 692 N 62.7434 -0.766845 5.38164 0
M  V30 693 H 66.5454 0.0336802 2.93881 0
M  V30 694 H 64.0594 0.119192 1.61962 0
M  V30 695 H 66.0564 -2.38329 3.4206 0
M  V30 696 H 64.7164 -2.34625 2.24458 0
M  V30 697 H 65.7274 -0.0960131 5.17811 0
M  V30 698 H 62.4044 -2.13053 3.59047 0
M  V30 699 H 63.7944 0.446216 6.70417 0
M  V30 700 N 66.5145 -1.57545 0.0417849 0
M  V30 701 C 67.7625 -1.91937 -0.632829 0
M  V30 702 C 68.0835 -0.919978 -1.71934 0
M  V30 703 O 67.3535 0.0366064 -1.95866 0
M  V30 704 H 65.9335 -0.708493 -0.236742 0
M  V30 705 H 68.5955 -1.9468 0.0925745 0
M  V30 706 H 67.6915 -2.92912 -1.07746 0
M  V30 707 N 67.9926 0.231505 -1.5589 0
M  V30 708 C 69.2406 0.955461 -1.78088 0
M  V30 709 C 69.5616 1.85262 -0.608533 0
M  V30 710 O 68.8316 1.92277 0.375035 0
M  V30 711 H 67.4116 0.355787 -0.656829 0
M  V30 712 H 70.0736 0.245751 -1.93344 0
M  V30 713 H 69.1696 1.56814 -2.69844 0
M  V30 714 N 69.4707 1.49531 0.497807 0
M  V30 715 C 70.4027 1.62559 1.61578 0
M  V30 716 C 71.4157 0.508134 1.54667 0
M  V30 717 O 72.6047 0.780309 1.60541 0
M  V30 718 C 69.7047 1.56925 3.00379 0
M  V30 719 C 68.8777 2.84257 3.3244 0
M  V30 720 C 67.9367 2.71632 4.50669 0
M  V30 721 O 66.9627 3.4557 4.52294 0
M  V30 722 N 68.1647 1.83391 5.5077 0
M  V30 723 H 70.9297 2.58981 1.50828 0
M  V30 724 H 68.4907 1.4666 0.685743 0
M  V30 725 H 70.4827 1.46129 3.77397 0
M  V30 726 H 69.0527 0.683483 3.05037 0
M  V30 727 H 68.2727 3.09381 2.44289 0
M  V30 728 H 69.5607 3.68666 3.5066 0
M  V30 729 H 68.9587 1.22583 5.52259 0
M  V30 730 H 67.5157 1.78515 6.26878 0
M  V30 731 N 70.9488 -0.749086 1.3866 0
M  V30 732 C 71.8588 -1.89358 1.38494 0
M  V30 733 C 72.8748 -1.71708 0.281476 0
M  V30 734 O 74.0508 -1.94554 0.520643 0
M  V30 735 C 71.1158 -3.24782 1.21316 0
M  V30 736 C 70.1768 -3.54926 2.41508 0
M  V30 737 C 69.4098 -4.83888 2.2514 0
M  V30 738 O 69.6328 -5.56592 1.24746 0
M  V30 739 O 68.5668 -5.13612 3.13826 0
M  V30 740 H 72.3928 -1.92452 2.34938 0
M  V30 741 H 69.9778 -0.894981 1.19626 0
M  V30 742 H 71.8598 -4.05739 1.13814 0
M  V30 743 H 70.5348 -3.2249 0.279592 0
M  V30 744 H 69.4418 -2.74112 2.54585 0
M  V30 745 H 70.7748 -3.61983 3.3351 0
M  V30 746 N 72.4269 -1.23603 -0.977757 0
M  V30 747 C 73.3769 -0.986664 -2.05545 0
M  V30 748 C 74.3609 0.0683009 -1.60755 0
M  V30 749 O 75.5529 -0.144162 -1.76412 0
M  V30 750 C 72.6819 -0.582623 -3.3832 0
M  V30 751 C 71.7679 -1.67313 -3.89701 0
M  V30 752 N 72.1589 -2.90394 -4.14132 0
M  V30 753 C 70.4569 -1.54832 -4.18262 0
M  V30 754 C 71.1579 -3.61017 -4.56116 0
M  V30 755 N 70.1339 -2.8854 -4.60701 0
M  V30 756 H 73.9359 -1.92139 -2.22396 0
M  V30 757 H 71.4499 -1.1358 -1.16074 0
M  V30 758 H 73.4469 -0.38524 -4.15116 0
M  V30 759 H 72.1069 0.34503 -3.22862 0
M  V30 760 H 73.1179 -3.26673 -4.01877 0
M  V30 761 H 69.7949 -0.687969 -4.11793 0
M  V30 762 H 71.1849 -4.66544 -4.83514 0
M  V30 763 N 73.905 1.17692 -1.04816 0
M  V30 764 C 74.868 2.19787 -0.650117 0
M  V30 765 C 75.868 1.58044 0.296427 0
M  V30 766 O 77.058 1.74012 0.0808097 0
M  V30 767 C 74.19 3.40869 0.0456987 0
M  V30 768 H 75.383 2.56516 -1.5537 0
M  V30 769 H 72.936 1.31708 -0.841594 0
M  V30 770 H 73.671 3.09681 0.962726 0
M  V30 771 H 73.456 3.86928 -0.634727 0
M  V30 772 H 74.946 4.16445 0.310432 0
M  V30 773 N 75.3831 0.828654 1.34056 0
M  V30 774 C 76.3131 0.269443 2.3194 0
M  V30 775 C 77.2941 -0.617247 1.58506 0
M  V30 776 O 78.4791 -0.542931 1.86456 0
M  V30 777 C 75.6091 -0.564793 3.42677 0
M  V30 778 C 74.5631 0.225241 4.27407 0
M  V30 779 C 73.8891 -0.7321 5.29664 0
M  V30 780 C 75.1891 1.43663 5.02154 0
M  V30 781 H 76.8831 1.08728 2.7896 0
M  V30 782 H 74.4291 0.524283 1.34117 0
M  V30 783 H 76.3821 -0.966233 4.10173 0
M  V30 784 H 75.1061 -1.41574 2.9432 0
M  V30 785 H 73.7651 0.608117 3.61521 0
M  V30 786 H 73.4131 -1.57916 4.77568 0
M  V30 787 H 73.1131 -0.20767 5.87233 0
M  V30 788 H 74.6371 -1.13128 6.00029 0
M  V30 789 H 76.0511 1.1089 5.62473 0
M  V30 790 H 74.4481 1.89711 5.69324 0
M  V30 791 H 75.5181 2.21181 4.31517 0
M  V30 792 N 76.8612 -1.46375 0.584142 0
M  V30 793 C 78.1082 -2.02378 0.0702675 0
M  V30 794 C 78.4362 -1.45545 -1.29023 0
M  V30 795 O 77.6912 -0.610967 -1.85918 0
M  V30 796 C 77.9902 -3.57373 -0.0439342 0
M  V30 797 C 77.6562 -4.33252 1.24915 0
M  V30 798 C 76.3182 -4.53701 1.60341 0
M  V30 799 C 78.6702 -4.7681 2.1048 0
M  V30 800 C 75.9982 -5.1496 2.81128 0
M  V30 801 C 78.3502 -5.39404 3.30494 0
M  V30 802 C 77.0142 -5.5808 3.66201 0
M  V30 803 H 76.2842 -0.740554 0.0257127 0
M  V30 804 H 78.9312 -1.75727 0.761065 0
M  V30 805 H 77.2362 -3.83169 -0.817869 0
M  V30 806 H 78.9332 -3.98384 -0.457318 0
M  V30 807 H 75.5232 -4.17633 0.963364 0
M  V30 808 H 79.7072 -4.60766 1.84414 0
M  V30 809 H 74.9632 -5.27611 3.08928 0
M  V30 810 H 79.1372 -5.72114 3.97063 0
M  V30 811 H 76.7642 -6.05318 4.59885 0
M  V30 812 N 78.3393 -0.321999 -1.54275 0
M  V30 813 C 79.2693 0.537411 -2.27231 0
M  V30 814 C 80.2503 1.12064 -1.27968 0
M  V30 815 O 81.4353 1.14606 -1.56777 0
M  V30 816 C 78.5653 1.69919 -3.02894 0
M  V30 817 C 77.5193 1.24534 -4.09482 0
M  V30 818 C 76.8453 2.49394 -4.72977 0
M  V30 819 C 78.1453 0.361335 -5.21049 0
M  V30 820 H 79.8393 -0.0711406 -2.99315 0
M  V30 821 H 77.3853 -0.0356555 -1.43956 0
M  V30 822 H 79.3383 2.30668 -3.52662 0
M  V30 823 H 78.0623 2.33431 -2.28424 0
M  V30 824 H 76.7213 0.660782 -3.60596 0
M  V30 825 H 76.3693 3.11265 -3.95124 0
M  V30 826 H 76.0693 2.19718 -5.44975 0
M  V30 827 H 77.5933 3.10908 -5.25517 0
M  V30 828 H 79.0073 0.875072 -5.66582 0
M  V30 829 H 77.4043 0.157428 -5.99893 0
M  V30 830 H 78.4743 -0.60822 -4.8107 0
M  V30 831 N 79.8174 1.5752 -0.0501392 0
M  V30 832 C 81.0474 1.96678 0.632573 0
M  V30 833 C 81.4554 0.926298 1.64974 0
M  V30 834 O 80.7984 -0.09802 1.83438 0
M  V30 835 C 80.8604 3.32068 1.37735 0
M  V30 836 C 80.5244 4.54076 0.516131 0
M  V30 837 C 81.5214 5.19445 -0.217357 0
M  V30 838 C 79.2064 5.00304 0.44736 0
M  V30 839 C 81.2004 6.29378 -1.00807 0
M  V30 840 C 78.8874 6.10114 -0.347038 0
M  V30 841 C 79.8854 6.74512 -1.07344 0
M  V30 842 O 79.5734 7.82211 -1.85477 0
M  V30 843 H 79.3054 0.652193 0.177821 0
M  V30 844 H 81.8594 2.05091 -0.112543 0
M  V30 845 H 80.0894 3.20206 2.16807 0
M  V30 846 H 81.7784 3.55981 1.95019 0
M  V30 847 H 82.5444 4.84689 -0.173688 0
M  V30 848 H 78.4234 4.49971 1.00235 0
M  V30 849 H 81.9674 6.79575 -1.57556 0
M  V30 850 H 77.8644 6.44307 -0.392349 0
M  V30 851 H 78.6324 7.98982 -1.77678 0
M  V30 852 N 81.2955 -0.223234 1.56011 0
M  V30 853 C 82.5235 -0.964812 1.83027 0
M  V30 854 C 82.9385 -1.78013 0.62904 0
M  V30 855 O 82.2955 -1.78008 -0.402414 0
M  V30 856 C 82.3465 -1.88373 3.08542 0
M  V30 857 O 82.0675 -1.10137 4.2403 0
M  V30 858 C 83.5685 -2.73934 3.48533 0
M  V30 859 H 80.7885 -0.282842 0.608475 0
M  V30 860 H 83.3325 -0.238971 2.03099 0
M  V30 861 H 81.4875 -2.56354 2.9045 0
M  V30 862 H 81.9015 -1.72501 4.95322 0
M  V30 863 H 83.3755 -3.34117 4.39397 0
M  V30 864 H 83.8525 -3.46244 2.70207 0
M  V30 865 H 84.4585 -2.11369 3.69057 0
M  V30 866 N 82.7736 -1.49793 -0.48987 0
M  V30 867 C 83.7236 -1.63673 -1.5873 0
M  V30 868 C 84.7076 -0.491956 -1.53195 0
M  V30 869 O 85.8996 -0.745461 -1.60536 0
M  V30 870 C 83.0286 -1.71689 -2.97284 0
M  V30 871 C 82.1146 -2.91781 -3.07774 0
M  V30 872 N 82.5056 -4.15714 -2.88124 0
M  V30 873 C 80.8036 -2.89949 -3.38889 0
M  V30 874 C 81.5046 -4.965 -3.03088 0
M  V30 875 N 80.4806 -4.30083 -3.3246 0
M  V30 876 H 84.2826 -2.57204 -1.42208 0
M  V30 877 H 81.7966 -1.46719 -0.69623 0
M  V30 878 H 83.7936 -1.79732 -3.76168 0
M  V30 879 H 82.4536 -0.793024 -3.14867 0
M  V30 880 H 83.4646 -4.45515 -2.64077 0
M  V30 881 H 80.1416 -2.06987 -3.62578 0
M  V30 882 H 81.5316 -6.04991 -2.92294 0
M  V30 883 N 84.2517 0.741722 -1.39055 0
M  V30 884 C 85.6677 1.04638 -1.20512 0
M  V30 885 C 85.8677 2.01405 -0.0620218 0
M  V30 886 O 84.9237 2.45547 0.588457 0
M  V30 887 C 86.2367 1.6151 -2.53643 0
M  V30 888 C 87.7847 1.73623 -2.6043 0
M  V30 889 C 88.2597 2.33906 -3.93767 0
M  V30 890 N 89.7507 2.41323 -3.9537 0
M  V30 891 C 90.4857 2.88888 -4.95309 0
M  V30 892 N 89.9817 3.36401 -6.05645 0
M  V30 893 N 91.7747 2.88037 -4.82692 0
M  V30 894 H 83.9257 0.0998155 -2.12165 0
M  V30 895 H 86.1887 0.106907 -0.941953 0
M  V30 896 H 85.8947 0.978739 -3.37807 0
M  V30 897 H 85.7687 2.60411 -2.72885 0
M  V30 898 H 88.1557 2.36384 -1.76655 0
M  V30 899 H 88.2367 0.733945 -2.45045 0
M  V30 900 H 87.8807 1.71776 -4.7797 0
M  V30 901 H 87.8107 3.34799 -4.06469 0
M  V30 902 H 90.3017 2.07734 -3.15682 0
M  V30 903 H 90.6147 3.71186 -6.77821 0
M  V30 904 H 88.9597 3.34427 -6.09248 0
M  V30 905 H 92.1507 2.50237 -3.95599 0
M  V30 906 H 92.3237 3.24792 -5.60726 0
M  V30 907 N 85.7298 1.2412 0.971189 0
M  V30 908 C 87.1458 1.00584 1.23916 0
M  V30 909 C 87.3458 -0.287481 1.99439 0
M  V30 910 O 86.4018 -1.00454 2.31658 0
M  V30 911 C 87.7148 2.21864 2.0297 0
M  V30 912 C 89.2628 2.26452 2.16076 0
M  V30 913 C 89.7378 3.47343 2.98524 0
M  V30 914 N 91.2288 3.47639 3.06107 0
M  V30 915 C 91.9638 4.37837 3.70251 0
M  V30 916 N 91.4598 5.38286 4.36142 0
M  V30 917 N 93.2528 4.25558 3.67228 0
M  V30 918 H 85.4038 2.07236 0.465499 0
M  V30 919 H 87.6668 0.909236 0.268315 0
M  V30 920 H 87.3728 3.15771 1.54861 0
M  V30 921 H 87.2468 2.23698 3.03709 0
M  V30 922 H 89.6338 1.33078 2.6339 0
M  V30 923 H 89.7148 2.28645 1.14696 0
M  V30 924 H 89.3588 4.41029 2.51905 0
M  V30 925 H 89.2888 3.42393 4.00093 0
M  V30 926 H 91.7798 2.74966 2.59233 0
M  V30 927 H 92.0928 6.03352 4.82894 0
M  V30 928 H 90.4378 5.42176 4.34822 0
M  V30 929 H 93.6288 3.46322 3.14927 0
M  V30 930 H 93.8018 4.96054 4.16935 0
M  V30 931 N 87.2079 -1.17134 1.05439 0
M  V30 932 C 88.1409 -2.2012 0.601855 0
M  V30 933 C 89.1189 -1.58314 -0.370854 0
M  V30 934 O 90.3029 -1.8638 -0.281882 0
M  V30 935 C 87.4299 -3.38491 -0.118868 0
M  V30 936 C 86.4759 -4.18752 0.809242 0
M  V30 937 S 87.3089 -4.83602 2.29977 0
M  V30 938 C 88.4649 -6.0536 1.59029 0
M  V30 939 H 88.6979 -2.58165 1.47438 0
M  V30 940 H 86.2309 -1.27788 0.866573 0
M  V30 941 H 88.1889 -4.07084 -0.528495 0
M  V30 942 H 86.8499 -2.98829 -0.967465 0
M  V30 943 H 86.0429 -5.03373 0.251379 0
M  V30 944 H 85.6449 -3.5561 1.15835 0
M  V30 945 H 87.9369 -6.71615 0.891017 0
M  V30 946 H 88.8799 -6.65679 2.41407 0
M  V30 947 H 89.2879 -5.54138 1.07663 0
M  V30 948 N 88.686 -0.835752 -1.33615 0
M  V30 949 C 89.649 -0.272 -2.2758 0
M  V30 950 C 90.649 0.557487 -1.50827 0
M  V30 951 O 91.839 0.37173 -1.70188 0
M  V30 952 C 88.971 0.617173 -3.35267 0
M  V30 953 H 90.164 -1.10111 -2.78954 0
M  V30 954 H 87.717 -0.608594 -1.43965 0
M  V30 955 H 88.452 1.46884 -2.89129 0
M  V30 956 H 88.237 0.0237066 -3.92093 0
M  V30 957 H 89.727 1.005 -4.05326 0
M  V30 958 N 90.1641 1.46063 -0.591896 0
M  V30 959 C 91.4131 2.01547 -0.0786637 0
M  V30 960 C 91.7261 1.46796 1.29268 0
M  V30 961 O 92.9321 1.94157 1.89777 0
M  V30 962 C 91.3881 3.59787 -0.0900024 0
M  V30 963 C 90.9961 4.23534 -1.46023 0
M  V30 964 C 92.7401 4.22895 0.368806 0
M  V30 965 C 90.6471 5.73881 -1.4288 0
M  V30 966 H 89.5771 0.753564 -0.0256388 0
M  V30 967 H 92.2281 1.677 -0.744905 0
M  V30 968 H 90.6101 3.90752 0.642586 0
M  V30 969 H 91.7841 4.04167 -2.21328 0
M  V30 970 H 90.0991 3.72558 -1.85982 0
M  V30 971 H 92.6961 5.33116 0.411258 0
M  V30 972 H 93.0391 3.9247 1.38827 0
M  V30 973 H 93.5721 3.9659 -0.31001 0
M  V30 974 H 90.3111 6.0898 -2.42536 0
M  V30 975 H 89.8311 5.95486 -0.718095 0
M  V30 976 H 91.5101 6.36776 -1.14565 0
M  V30 977 N 91.6422 0.330177 1.54103 0
M  V30 978 C 92.8702 -0.272179 2.05102 0
M  V30 979 C 93.2852 -1.45267 1.20595 0
M  V30 980 O 92.6422 -1.8094 0.238144 0
M  V30 981 C 92.6932 -0.70023 3.54653 0
M  V30 982 O 92.4142 0.433301 4.35952 0
M  V30 983 C 93.9152 -1.3647 4.21771 0
M  V30 984 H 91.1352 -0.0549159 0.668749 0
M  V30 985 H 93.6792 0.478285 1.98828 0
M  V30 986 H 91.8342 -1.40066 3.61193 0
M  V30 987 H 92.2482 0.0947539 5.24414 0
M  V30 988 H 93.7222 -1.61509 5.27843 0
M  V30 989 H 94.1992 -2.31409 3.73292 0
M  V30 990 H 94.8052 -0.706675 4.19388 0
M  V30 991 N 93.1203 -1.57491 0.0584922 0
M  V30 992 C 94.3683 -1.92597 -0.612436 0
M  V30 993 C 94.6893 -0.938162 -1.70949 0
M  V30 994 O 93.9593 0.0158301 -1.95894 0
M  V30 995 H 92.5393 -0.710964 -0.229214 0
M  V30 996 H 95.2013 -1.94571 0.113218 0
M  V30 997 H 94.2973 -2.94038 -1.04633 0
M  V30 998 N 94.5984 0.214957 -1.56127 0
M  V30 999 C 95.8754 0.963093 -1.70247 0
M  V30 1000 C 96.2554 2.02166 -0.60764 0
M  V30 1001 O 95.6034 2.25244 0.384385 0
M  V30 1002 C 95.8134 1.56756 -3.11815 0
M  V30 1003 C 97.1614 2.0573 -3.7143 0
M  V30 1004 O 98.1854 1.66637 -3.14818 0
M  V30 1005 O 97.0444 2.77603 -4.70743 0
M  V30 1006 H 94.1384 0.450321 -0.693643 0
M  V30 1007 H 96.6844 0.206219 -1.68442 0
M  V30 1008 H 95.4564 0.803533 -3.82961 0
M  V30 1009 H 95.0794 2.3898 -3.17765 0
M  V30 1010 N 96.0765 1.50051 0.48192 0
M  V30 1011 C 97.3535 1.51009 1.2432 0
M  V30 1012 C 97.7335 0.248587 2.09631 0
M  V30 1013 O 97.0815 -0.768409 2.15192 0
M  V30 1014 C 97.2915 2.79981 2.08355 0
M  V30 1015 C 98.6395 3.3022 2.66908 0
M  V30 1016 O 99.6635 2.81228 2.18607 0
M  V30 1017 O 98.5225 4.15595 3.54884 0
M  V30 1018 H 95.6165 0.605239 0.563573 0
M  V30 1019 H 98.1625 1.62332 0.494627 0
M  V30 1020 H 96.9345 3.63275 1.45419 0
M  V30 1021 H 96.5575 2.7161 2.90368 0
M  V30 1022 N 97.5546 -0.734337 1.39446 0
M  V30 1023 C 98.8006 -1.49613 1.36908 0
M  V30 1024 C 99.1336 -1.94169 -0.0347829 0
M  V30 1025 O 98.4086 -1.66833 -0.999847 0
M  V30 1026 C 98.6916 -2.73534 2.34203 0
M  V30 1027 C 98.5446 -2.34993 3.83534 0
M  V30 1028 C 99.8636 -3.75635 2.29317 0
M  V30 1029 H 96.9826 -0.542714 0.498629 0
M  V30 1030 H 99.6246 -0.839597 1.70443 0
M  V30 1031 H 97.7746 -3.29553 2.05736 0
M  V30 1032 H 99.4466 -1.84601 4.22753 0
M  V30 1033 H 97.6896 -1.67213 4.00278 0
M  V30 1034 H 98.3606 -3.23738 4.47099 0
M  V30 1035 H 100.837 -3.29203 2.54489 0
M  V30 1036 H 99.7126 -4.60008 2.99472 0
M  V30 1037 H 99.9736 -4.22603 1.29842 0
M  V30 1038 N 99.0327 -1.24633 -0.964593 0
M  V30 1039 C 100.258 -1.11596 -1.74818 0
M  V30 1040 C 100.683 0.32723 -1.85232 0
M  V30 1041 O 100.041 1.23695 -1.32549 0
M  V30 1042 C 100.089 -1.76397 -3.1451 0
M  V30 1043 O 99.1927 -1.03685 -3.99153 0
M  V30 1044 H 98.5337 -0.390196 -0.537255 0
M  V30 1045 H 101.064 -1.65002 -1.20977 0
M  V30 1046 H 101.074 -1.8228 -3.65018 0
M  V30 1047 H 99.7487 -2.81401 -3.06246 0
M  V30 1048 H 98.3257 -1.05611 -3.57632 0
M  V30 1049 N 100.511 1.16574 -1.06058 0
M  V30 1050 C 101.441 2.23057 -0.690488 0
M  V30 1051 C 102.422 1.67141 0.315901 0
M  V30 1052 O 103.607 1.93253 0.191556 0
M  V30 1053 C 100.737 3.47222 -0.073625 0
M  V30 1054 C 99.6908 4.16016 -1.00573 0
M  V30 1055 C 99.0168 5.34104 -0.252289 0
M  V30 1056 C 100.317 4.67264 -2.33371 0
M  V30 1057 H 102.011 2.54271 -1.58072 0
M  V30 1058 H 99.5568 1.22218 -0.76149 0
M  V30 1059 H 101.51 4.20939 0.19714 0
M  V30 1060 H 100.234 3.15302 0.85161 0
M  V30 1061 H 98.8928 3.44223 -1.2612 0
M  V30 1062 H 98.5408 4.98437 0.675988 0
M  V30 1063 H 98.2408 5.81072 -0.873455 0
M  V30 1064 H 99.7648 6.10599 0.0109857 0
M  V30 1065 H 101.179 5.32573 -2.12223 0
M  V30 1066 H 99.5758 5.24843 -2.90963 0
M  V30 1067 H 100.646 3.83602 -2.96611 0
M  V30 1068 N 101.989 0.842826 1.3317 0
M  V30 1069 C 103.266 0.362216 1.92217 0
M  V30 1070 C 103.646 -1.15289 1.76838 0
M  V30 1071 O 102.994 -1.96914 1.15919 0
M  V30 1072 C 103.204 0.813495 3.39387 0
M  V30 1073 C 104.552 0.823804 4.16532 0
M  V30 1074 O 105.576 0.757358 3.48055 0
M  V30 1075 O 104.435 0.915193 5.38782 0
M  V30 1076 H 101.529 0.103317 0.820521 0
M  V30 1077 H 104.075 0.928942 1.42017 0
M  V30 1078 H 102.847 1.85624 3.4447 0
M  V30 1079 H 102.47 0.223561 3.96971 0
M  V30 1080 N 103.467 -1.45747 0.599634 0
M  V30 1081 C 104.399 -2.28628 -0.161879 0
M  V30 1082 C 105.412 -1.39494 -0.839367 0
M  V30 1083 O 106.601 -1.63941 -0.706089 0
M  V30 1084 C 103.701 -3.15014 -1.24976 0
M  V30 1085 C 102.874 -4.32378 -0.660935 0
M  V30 1086 C 101.933 -5.00033 -1.63869 0
M  V30 1087 O 100.959 -5.57085 -1.1681 0
M  V30 1088 N 102.161 -4.98589 -2.97303 0
M  V30 1089 H 104.926 -2.94624 0.549265 0
M  V30 1090 H 102.487 -1.55847 0.438565 0
M  V30 1091 H 104.479 -3.5714 -1.9035 0
M  V30 1092 H 103.049 -2.5098 -1.86354 0
M  V30 1093 H 102.269 -3.9383 0.170688 0
M  V30 1094 H 103.557 -5.08197 -0.247619 0
M  V30 1095 H 102.955 -4.53514 -3.38145 0
M  V30 1096 H 101.512 -5.44603 -3.58121 0
M  V30 1097 N 104.945 -0.338344 -1.53925 0
M  V30 1098 C 106.194 0.260732 -2.00008 0
M  V30 1099 C 106.507 1.52073 -1.23017 0
M  V30 1100 O 107.713 2.19672 -1.5955 0
M  V30 1101 C 106.169 0.51515 -3.56194 0
M  V30 1102 C 105.777 -0.728645 -4.42035 0
M  V30 1103 C 107.521 1.07337 -4.10706 0
M  V30 1104 C 105.428 -0.445315 -5.89721 0
M  V30 1105 H 104.358 0.101205 -0.747177 0
M  V30 1106 H 107.009 -0.452866 -1.77824 0
M  V30 1107 H 105.391 1.28932 -3.74423 0
M  V30 1108 H 106.565 -1.50352 -4.35581 0
M  V30 1109 H 104.88 -1.20813 -3.98489 0
M  V30 1110 H 107.477 1.30022 -5.18651 0
M  V30 1111 H 107.82 2.0273 -3.63602 0
M  V30 1112 H 108.353 0.360034 -3.96167 0
M  V30 1113 H 105.092 -1.36883 -6.41049 0
M  V30 1114 H 104.612 0.291569 -5.99091 0
M  V30 1115 H 106.291 -0.0606218 -6.46972 0
M  V30 1116 N 106.423 1.57458 -0.0668435 0
M  V30 1117 C 107.669 1.93587 0.6043 0
M  V30 1118 C 108.002 0.946722 1.69561 0
M  V30 1119 O 107.277 -0.0248516 1.94484 0
M  V30 1120 C 107.56 3.40014 1.18585 0
M  V30 1121 C 107.413 4.49685 0.101529 0
M  V30 1122 C 108.732 3.87154 2.09284 0
M  V30 1123 H 105.851 0.703958 0.218202 0
M  V30 1124 H 108.493 1.89542 -0.131804 0
M  V30 1125 H 106.643 3.43592 1.81319 0
M  V30 1126 H 108.315 4.5823 -0.531279 0
M  V30 1127 H 106.558 4.30059 -0.568487 0
M  V30 1128 H 107.229 5.49266 0.54874 0
M  V30 1129 H 109.705 3.85551 1.56491 0
M  V30 1130 H 108.581 4.90231 2.46911 0
M  V30 1131 H 108.842 3.2481 2.99918 0
M  V30 1132 N 107.901 -0.206675 1.56239 0
M  V30 1133 C 109.312 -0.772383 1.69974 0
M  V30 1134 C 109.663 -1.84353 0.671436 0
M  V30 1135 O 108.788 -2.15695 -0.174491 0
M  V30 1136 C 109.383 -1.40779 3.08167 0
M  V30 1137 C 107.942 -1.92072 3.23706 0
M  V30 1138 C 107.089 -0.786347 2.65917 0
M  V30 1139 H 110.04 0.0182223 1.5869 0
M  V30 1140 H 110.061 -2.27696 3.04852 0
M  V30 1141 H 109.573 -0.627958 3.82986 0
M  V30 1142 H 107.674 -2.7281 2.53782 0
M  V30 1143 H 107.787 -2.09046 4.31087 0
M  V30 1144 H 106.151 -1.1976 2.24788 0
M  V30 1145 H 106.934 -0.0189416 3.43295 0
M  V30 1146 N 109.379 -1.50304 -0.473955 0
M  V30 1147 C 110.625 -1.61389 -1.22806 0
M  V30 1148 C 110.958 -0.311955 -1.91678 0
M  V30 1149 O 110.233 0.686384 -1.81986 0
M  V30 1150 C 110.516 -2.79219 -2.27396 0
M  V30 1151 C 110.369 -4.19286 -1.62848 0
M  V30 1152 C 111.688 -2.92614 -3.28732 0
M  V30 1153 H 108.807 -0.587399 -0.445119 0
M  V30 1154 H 111.449 -1.82681 -0.522265 0
M  V30 1155 H 109.599 -2.61195 -2.87592 0
M  V30 1156 H 111.271 -4.48892 -1.06271 0
M  V30 1157 H 109.514 -4.23677 -0.931693 0
M  V30 1158 H 110.185 -4.97655 -2.38838 0
M  V30 1159 H 112.661 -3.09105 -2.78556 0
M  V30 1160 H 111.537 -3.76688 -3.99246 0
M  V30 1161 H 111.798 -2.03107 -3.92683 0
M  V30 1162 N 110.857 0.726932 -1.39834 0
M  V30 1163 C 112.082 1.52121 -1.40976 0
M  V30 1164 C 112.507 1.88098 -0.00826029 0
M  V30 1165 O 111.865 1.52479 0.980807 0
M  V30 1166 C 111.913 2.78021 -2.29644 0
M  V30 1167 O 111.017 3.74272 -1.73188 0
M  V30 1168 H 110.358 0.45908 -0.479731 0
M  V30 1169 H 112.888 0.896207 -1.83927 0
M  V30 1170 H 112.898 3.26671 -2.44438 0
M  V30 1171 H 111.573 2.51169 -3.31492 0
M  V30 1172 H 110.15 3.33073 -1.6768 0
M  V30 1173 N 112.336 1.25143 0.95797 0
M  V30 1174 C 113.752 1.01892 1.22842 0
M  V30 1175 C 113.952 -0.266311 1.99732 0
M  V30 1176 O 113.008 -0.979913 2.3271 0
M  V30 1177 C 114.321 2.24004 2.00606 0
M  V30 1178 C 115.869 2.28731 2.13662 0
M  V30 1179 C 116.344 3.5049 2.94823 0
M  V30 1180 N 117.835 3.50866 3.02403 0
M  V30 1181 C 118.57 4.4174 3.65586 0
M  V30 1182 N 118.066 5.42882 4.30408 0
M  V30 1183 N 119.859 4.29429 3.62694 0
M  V30 1184 H 112.01 2.07718 0.443493 0
M  V30 1185 H 114.273 0.912031 0.258657 0
M  V30 1186 H 113.979 3.17395 1.51503 0
M  V30 1187 H 113.853 2.26907 3.01319 0
M  V30 1188 H 116.24 1.35865 2.61963 0
M  V30 1189 H 116.321 2.29848 1.12265 0
M  V30 1190 H 115.965 4.43676 2.47213 0
M  V30 1191 H 115.895 3.46617 3.96439 0
M  V30 1192 H 118.386 2.777 2.56302 0
M  V30 1193 H 118.699 6.0844 4.76467 0
M  V30 1194 H 117.044 5.46758 4.29047 0
M  V30 1195 H 120.235 3.49643 3.11236 0
M  V30 1196 H 120.408 5.00448 4.1165 0
M  V30 1197 N 113.814 -1.1601 1.06675 0
M  V30 1198 C 115.091 -1.82679 0.699114 0
M  V30 1199 C 115.471 -1.94559 -0.819137 0
M  V30 1200 O 114.819 -1.49169 -1.73092 0
M  V30 1201 C 115.029 -3.19445 1.40555 0
M  V30 1202 C 116.377 -3.95171 1.55323 0
M  V30 1203 O 117.401 -3.28976 1.36577 0
M  V30 1204 O 116.26 -5.13833 1.86112 0
M  V30 1205 H 113.354 -0.788954 0.247951 0
M  V30 1206 H 115.9 -1.23179 1.16726 0
M  V30 1207 H 114.672 -3.05856 2.44065 0
M  V30 1208 H 114.295 -3.86625 0.927733 0
M  V30 1209 N 115.292 -0.849877 -1.32721 0
M  V30 1210 C 116.539 -0.450923 -1.97416 0
M  V30 1211 C 116.867 0.992376 -1.67279 0
M  V30 1212 O 116.122 1.71048 -0.950845 0
M  V30 1213 C 116.421 -0.631272 -3.51781 0
M  V30 1214 C 116.087 -2.04432 -4.01894 0
M  V30 1215 C 114.749 -2.4308 -4.1529 0
M  V30 1216 C 117.101 -2.96679 -4.28522 0
M  V30 1217 C 114.429 -3.73257 -4.52654 0
M  V30 1218 C 116.781 -4.26349 -4.67343 0
M  V30 1219 C 115.445 -4.64939 -4.78945 0
M  V30 1220 H 114.715 -0.165004 -0.722395 0
M  V30 1221 H 117.362 -1.07901 -1.58207 0
M  V30 1222 H 115.667 0.0800767 -3.91718 0
M  V30 1223 H 117.364 -0.302709 -3.99856 0
M  V30 1224 H 113.954 -1.73419 -3.91949 0
M  V30 1225 H 118.138 -2.68054 -4.17685 0
M  V30 1226 H 113.394 -4.02946 -4.59831 0
M  V30 1227 H 117.568 -4.97895 -4.86902 0
M  V30 1228 H 115.195 -5.65855 -5.07654 0
M  V30 1229 N 116.77 1.45427 -0.607355 0
M  V30 1230 C 117.998 2.06614 -0.108814 0
M  V30 1231 C 118.413 1.45204 1.2067 0
M  V30 1232 O 117.77 0.566132 1.73497 0
M  V30 1233 C 117.821 3.61481 0.0375347 0
M  V30 1234 O 117.542 4.20598 -1.22593 0
M  V30 1235 C 119.043 4.39652 0.567561 0
M  V30 1236 H 116.263 0.66747 -0.0687351 0
M  V30 1237 H 118.807 1.86675 -0.835022 0
M  V30 1238 H 116.962 3.80762 0.714068 0
M  V30 1239 H 117.376 5.1377 -1.05547 0
M  V30 1240 H 118.85 5.48518 0.61905 0
M  V30 1241 H 119.327 4.09417 1.58978 0
M  V30 1242 H 119.933 4.25234 -0.0749202 0
M  V30 1243 N 118.248 0.346503 1.53744 0
M  V30 1244 C 119.178 -0.501193 2.28058 0
M  V30 1245 C 120.159 -1.10014 1.29734 0
M  V30 1246 O 121.344 -1.12097 1.58581 0
M  V30 1247 C 118.474 -1.65078 3.05559 0
M  V30 1248 C 117.428 -1.18003 4.11411 0
M  V30 1249 C 116.754 -2.41837 4.76884 0
M  V30 1250 C 118.054 -0.278394 5.21558 0
M  V30 1251 H 119.748 0.11875 2.99164 0
M  V30 1252 H 117.294 0.0585531 1.43881 0
M  V30 1253 H 119.247 -2.25028 3.56287 0
M  V30 1254 H 117.971 -2.29767 2.32109 0
M  V30 1255 H 116.63 -0.603331 3.61601 0
M  V30 1256 H 116.278 -3.0494 4.00026 0
M  V30 1257 H 115.978 -2.1102 5.48402 0
M  V30 1258 H 117.502 -3.02508 5.30397 0
M  V30 1259 H 118.916 -0.784823 5.67903 0
M  V30 1260 H 117.313 -0.0619707 6.00068 0
M  V30 1261 H 118.383 0.684677 4.80042 0
M  V30 1262 N 119.726 -1.57421 0.075193 0
M  V30 1263 C 120.636 -2.1642 -0.905511 0
M  V30 1264 C 121.652 -1.12828 -1.32461 0
M  V30 1265 O 122.828 -1.45109 -1.39661 0
M  V30 1266 C 119.893 -2.71693 -2.15369 0
M  V30 1267 C 118.954 -3.90171 -1.79068 0
M  V30 1268 C 118.187 -4.42798 -2.97936 0
M  V30 1269 O 118.41 -3.94416 -4.12058 0
M  V30 1270 O 117.344 -5.34085 -2.77555 0
M  V30 1271 H 121.17 -3.00588 -0.433626 0
M  V30 1272 H 118.755 -1.48664 -0.148067 0
M  V30 1273 H 120.637 -3.07104 -2.88557 0
M  V30 1274 H 119.312 -1.90582 -2.61649 0
M  V30 1275 H 118.219 -3.59606 -1.03122 0
M  V30 1276 H 119.552 -4.72584 -1.37569 0
M  V30 1277 N 121.204 0.198386 -1.56346 0
M  V30 1278 C 122.114 1.2664 -1.97483 0
M  V30 1279 C 123.13 1.49989 -0.882002 0
M  V30 1280 O 124.306 1.62668 -1.18748 0
M  V30 1281 C 121.371 2.59141 -2.30319 0
M  V30 1282 C 120.432 2.43892 -3.53292 0
M  V30 1283 C 119.665 3.70074 -3.84553 0
M  V30 1284 O 119.888 4.74101 -3.1715 0
M  V30 1285 O 118.822 3.658 -4.7799 0
M  V30 1286 H 122.648 0.947304 -2.88548 0
M  V30 1287 H 120.233 0.403123 -1.43859 0
M  V30 1288 H 122.115 3.37352 -2.5253 0
M  V30 1289 H 120.79 2.90684 -1.42423 0
M  V30 1290 H 119.697 1.63803 -3.36332 0
M  V30 1291 H 121.03 2.17282 -4.41644 0
M  V30 1292 N 122.682 1.50554 0.465978 0
M  V30 1293 C 123.928 1.62038 1.21949 0
M  V30 1294 C 124.261 0.322116 1.9151 0
M  V30 1295 O 123.536 -0.676723 1.82348 0
M  V30 1296 C 123.819 2.80421 2.25912 0
M  V30 1297 C 123.672 4.20144 1.60622 0
M  V30 1298 C 124.991 2.94354 3.27176 0
M  V30 1299 H 122.11 0.589752 0.441998 0
M  V30 1300 H 124.752 1.82956 0.51257 0
M  V30 1301 H 122.902 2.62717 2.86203 0
M  V30 1302 H 124.574 4.49449 1.03889 0
M  V30 1303 H 122.817 4.24165 0.909211 0
M  V30 1304 H 123.488 4.98914 2.36196 0
M  V30 1305 H 125.964 3.10578 2.76913 0
M  V30 1306 H 124.84 3.788 3.97242 0
M  V30 1307 H 125.101 2.05186 3.916 0
M  V30 1308 N 124.16 -0.719506 1.40217 0
M  V30 1309 C 125.385 -1.51371 1.4178 0
M  V30 1310 C 125.81 -1.88091 0.0182355 0
M  V30 1311 O 125.168 -1.52997 -0.972707 0
M  V30 1312 C 125.216 -2.768 2.31115 0
M  V30 1313 O 124.32 -3.73349 1.7517 0
M  V30 1314 H 123.661 -0.456529 0.482159 0
M  V30 1315 H 126.191 -0.88644 1.844 0
M  V30 1316 H 126.201 -3.25371 2.46167 0
M  V30 1317 H 124.876 -2.49407 3.3282 0
M  V30 1318 H 123.453 -3.32179 1.69444 0
M  V30 1319 N 125.638 -1.25649 -0.95132 0
M  V30 1320 C 127.049 -1.09654 -1.51106 0
M  V30 1321 C 127.4 0.326615 -1.93462 0
M  V30 1322 O 126.525 1.21697 -1.78938 0
M  V30 1323 C 127.12 -1.98437 -2.74605 0
M  V30 1324 C 125.679 -1.86618 -3.2688 0
M  V30 1325 C 124.826 -1.9239 -1.99703 0
M  V30 1326 H 127.777 -1.38887 -0.767865 0
M  V30 1327 H 127.798 -1.5263 -3.48546 0
M  V30 1328 H 127.31 -3.02009 -2.43746 0
M  V30 1329 H 125.411 -0.859421 -3.62553 0
M  V30 1330 H 125.524 -2.71607 -3.94673 0
M  V30 1331 H 123.888 -1.36317 -2.15151 0
M  V30 1332 H 124.671 -2.97573 -1.71188 0
M  V30 1333 N 127.117 1.15442 -1.07289 0
M  V30 1334 C 128.394 1.82306 -0.708792 0
M  V30 1335 C 128.774 1.94991 0.808807 0
M  V30 1336 O 128.122 1.50085 1.72298 0
M  V30 1337 C 128.332 3.18695 -1.42247 0
M  V30 1338 C 129.68 3.94341 -1.57417 0
M  V30 1339 O 130.704 3.28247 -1.38319 0
M  V30 1340 O 129.563 5.12839 -1.88834 0
M  V30 1341 H 126.657 0.787628 -0.252132 0
M  V30 1342 H 129.203 1.22559 -1.17377 0
M  V30 1343 H 127.975 3.04557 -2.45684 0
M  V30 1344 H 127.598 3.86128 -0.948223 0
M  V30 1345 N 128.595 0.856903 1.32268 0
M  V30 1346 C 129.843 0.460474 1.96784 0
M  V30 1347 C 130.164 -0.987701 1.68135 0
M  V30 1348 O 129.434 -1.69058 0.989765 0
M  V30 1349 H 128.014 0.167289 0.728027 0
M  V30 1350 H 130.676 1.09383 1.61312 0
M  V30 1351 H 129.772 0.60739 3.06133 0
M  V30 1352 N 130.073 -1.45103 0.615059 0
M  V30 1353 C 130.983 -2.34382 -0.101034 0
M  V30 1354 C 131.999 -1.51681 -0.852585 0
M  V30 1355 O 133.175 -1.8446 -0.808484 0
M  V30 1356 C 130.24 -3.29417 -1.08099 0
M  V30 1357 C 129.301 -4.28025 -0.330577 0
M  V30 1358 C 128.534 -5.1852 -1.26385 0
M  V30 1359 O 128.757 -5.12598 -2.50198 0
M  V30 1360 O 127.691 -5.97122 -0.756866 0
M  V30 1361 H 131.517 -2.97033 0.632855 0
M  V30 1362 H 129.102 -1.4461 0.375293 0
M  V30 1363 H 130.984 -3.87958 -1.6452 0
M  V30 1364 H 129.659 -2.69321 -1.79577 0
M  V30 1365 H 128.566 -3.73078 0.276283 0
M  V30 1366 H 129.899 -4.90997 0.343866 0
M  V30 1367 N 131.551 -0.354651 -1.53558 0
M  V30 1368 C 132.481 0.489091 -2.2832 0
M  V30 1369 C 133.462 1.09324 -1.30316 0
M  V30 1370 O 134.647 1.11255 -1.59173 0
M  V30 1371 C 131.777 1.63456 -3.0643 0
M  V30 1372 C 130.731 1.1582 -4.12031 0
M  V30 1373 C 130.057 2.39305 -4.7816 0
M  V30 1374 C 131.357 0.250731 -5.21698 0
M  V30 1375 H 133.051 -0.134614 -2.99097 0
M  V30 1376 H 130.597 -0.0661826 -1.43848 0
M  V30 1377 H 132.55 2.23136 -3.57475 0
M  V30 1378 H 131.274 2.28533 -2.33325 0
M  V30 1379 H 129.933 0.584146 -3.61916 0
M  V30 1380 H 129.581 3.02814 -4.01637 0
M  V30 1381 H 129.281 2.08109 -5.49513 0
M  V30 1382 H 130.805 2.99691 -5.31994 0
M  V30 1383 H 132.219 0.754695 -5.68311 0
M  V30 1384 H 130.616 0.0301468 -6.00092 0
M  V30 1385 H 131.686 -0.710125 -4.79672 0
M  V30 1386 N 133.029 1.57378 -0.0835403 0
M  V30 1387 C 134.259 1.97975 0.590713 0
M  V30 1388 C 134.667 0.961083 1.62972 0
M  V30 1389 O 134.01 -0.0590879 1.83605 0
M  V30 1390 C 134.072 3.34915 1.3066 0
M  V30 1391 C 133.736 4.55069 0.419698 0
M  V30 1392 C 134.733 5.18868 -0.32749 0
M  V30 1393 C 132.418 5.0114 0.341137 0
M  V30 1394 C 134.412 6.27098 -1.14134 0
M  V30 1395 C 132.099 6.0924 -0.476374 0
M  V30 1396 C 133.097 6.72083 -1.21627 0
M  V30 1397 O 132.785 7.781 -2.02028 0
M  V30 1398 H 132.517 0.655818 0.163947 0
M  V30 1399 H 135.071 2.04807 -0.156021 0
M  V30 1400 H 133.301 3.24733 2.09966 0
M  V30 1401 H 134.99 3.60037 1.87424 0
M  V30 1402 H 135.756 4.84211 -0.276459 0
M  V30 1403 H 131.635 4.51996 0.90668 0
M  V30 1404 H 135.179 6.7608 -1.71935 0
M  V30 1405 H 131.076 6.43329 -0.528927 0
M  V30 1406 H 131.844 7.95034 -1.94586 0
M  V30 1407 N 134.507 -0.190092 1.56449 0
M  V30 1408 C 135.756 -0.907912 1.80111 0
M  V30 1409 C 136.069 -1.84214 0.657619 0
M  V30 1410 O 137.275 -2.60094 0.778663 0
M  V30 1411 C 135.731 -1.66485 3.19078 0
M  V30 1412 C 135.339 -0.7752 4.41242 0
M  V30 1413 C 137.083 -2.37201 3.52045 0
M  V30 1414 C 134.99 -1.53129 5.71231 0
M  V30 1415 H 133.92 -0.34276 0.671589 0
M  V30 1416 H 136.571 -0.161109 1.82791 0
M  V30 1417 H 134.953 -2.45572 3.10661 0
M  V30 1418 H 136.127 -0.0226298 4.60794 0
M  V30 1419 H 134.442 -0.178627 4.16017 0
M  V30 1420 H 137.039 -2.94329 4.46402 0
M  V30 1421 H 137.382 -3.11632 2.76028 0
M  V30 1422 H 137.915 -1.65075 3.61932 0
M  V30 1423 H 134.654 -0.82967 6.50228 0
M  V30 1424 H 134.174 -2.25767 5.55688 0
M  V30 1425 H 135.853 -2.08377 6.12526 0
M  V30 1426 N 135.985 -1.50799 -0.457987 0
M  V30 1427 C 136.915 -1.73553 -1.5621 0
M  V30 1428 C 137.896 -0.584774 -1.59732 0
M  V30 1429 O 139.081 -0.825314 -1.7579 0
M  V30 1430 C 136.211 -1.84169 -2.94447 0
M  V30 1431 C 135.165 -2.99461 -3.0579 0
M  V30 1432 C 134.491 -2.95235 -4.45803 0
M  V30 1433 C 135.791 -4.39766 -2.81786 0
M  V30 1434 H 137.485 -2.66 -1.37421 0
M  V30 1435 H 135.031 -1.28002 -0.659662 0
M  V30 1436 H 136.984 -1.98672 -3.71628 0
M  V30 1437 H 135.708 -0.883545 -3.14422 0
M  V30 1438 H 134.367 -2.8463 -2.31044 0
M  V30 1439 H 134.015 -1.97239 -4.62715 0
M  V30 1440 H 133.715 -3.72642 -4.54326 0
M  V30 1441 H 135.239 -3.11803 -5.24987 0
M  V30 1442 H 136.653 -4.55054 -3.4871 0
M  V30 1443 H 135.05 -5.18722 -3.0174 0
M  V30 1444 H 136.12 -4.51229 -1.7754 0
M  V30 1445 N 137.463 0.71206 -1.40597 0
M  V30 1446 C 138.711 1.46907 -1.38791 0
M  V30 1447 C 139.032 1.94998 0.00780391 0
M  V30 1448 O 138.302 1.70587 0.963174 0
M  V30 1449 H 136.882 0.545043 -0.51082 0
M  V30 1450 H 139.544 0.843882 -1.75683 0
M  V30 1451 H 138.64 2.34021 -2.06496 0
M  V30 1452 N 138.941 1.26152 0.944643 0
M  V30 1453 C 140.166 1.14363 1.7302 0
M  V30 1454 C 140.591 -0.29772 1.85729 0
M  V30 1455 O 139.949 -1.2157 1.34501 0
M  V30 1456 C 139.997 1.81378 3.11664 0
M  V30 1457 O 139.101 1.10022 3.97453 0
M  V30 1458 H 138.442 0.398694 0.53098 0
M  V30 1459 H 140.972 1.66906 1.18337 0
M  V30 1460 H 140.982 1.88064 3.62072 0
M  V30 1461 H 139.657 2.86237 3.0173 0
M  V30 1462 H 138.234 1.11287 3.55907 0
M  V30 1463 N 140.419 -1.14872 1.07899 0
M  V30 1464 C 141.696 -1.81928 0.71845 0
M  V30 1465 C 142.076 -1.95417 -0.798455 0
M  V30 1466 O 141.424 -1.50997 -1.715 0
M  V30 1467 C 141.634 -3.17937 1.43935 0
M  V30 1468 C 142.982 -3.93501 1.59506 0
M  V30 1469 O 144.006 -3.27509 1.40058 0
M  V30 1470 O 142.865 -5.1183 1.91551 0
M  V30 1471 H 139.959 -0.78628 0.256305 0
M  V30 1472 H 142.505 -1.21934 1.18026 0
M  V30 1473 H 141.277 -3.0325 2.47295 0
M  V30 1474 H 140.9 -3.85619 0.968687 0
M  V30 1475 N 141.898 -0.863906 -1.31812 0
M  V30 1476 C 143.144 -0.472535 -1.97218 0
M  V30 1477 C 143.477 0.971394 -1.68159 0
M  V30 1478 O 142.752 1.68309 -0.974798 0
M  V30 1479 C 143.035 -0.723054 -3.52766 0
M  V30 1480 C 142.888 -2.21608 -3.91421 0
M  V30 1481 C 144.207 -0.185522 -4.39709 0
M  V30 1482 H 141.326 -0.173158 -0.71637 0
M  V30 1483 H 143.968 -1.08403 -1.56041 0
M  V30 1484 H 142.118 -0.202577 -3.87971 0
M  V30 1485 H 143.79 -2.80334 -3.66347 0
M  V30 1486 H 142.033 -2.691 -3.40246 0
M  V30 1487 H 142.704 -2.34203 -4.99853 0
M  V30 1488 H 145.18 -0.630726 -4.11292 0
M  V30 1489 H 144.056 -0.390306 -5.47511 0
M  V30 1490 H 144.317 0.912229 -4.32586 0
M  V30 1491 N 143.376 1.44774 -0.622745 0
M  V30 1492 C 144.604 2.06487 -0.130722 0
M  V30 1493 C 145.019 1.46476 1.19123 0
M  V30 1494 O 144.376 0.584502 1.72887 0
M  V30 1495 C 144.427 3.615 -0.000807207 0
M  V30 1496 O 144.148 4.19274 -1.27048 0
M  V30 1497 C 145.649 4.40229 0.520898 0
M  V30 1498 H 142.869 0.666704 -0.0758106 0
M  V30 1499 H 145.413 1.85779 -0.854774 0
M  V30 1500 H 143.568 3.81498 0.673643 0
M  V30 1501 H 143.982 5.12622 -1.1099 0
M  V30 1502 H 145.456 5.49144 0.560838 0
M  V30 1503 H 145.933 4.1108 1.54627 0
M  V30 1504 H 146.539 4.25131 -0.120018 0
M  V30 1505 N 144.854 0.36279 1.53368 0
M  V30 1506 C 146.1 -0.228113 2.01513 0
M  V30 1507 C 146.433 -1.48648 1.2497 0
M  V30 1508 O 145.708 -1.91459 0.342616 0
M  V30 1509 C 145.991 -0.522884 3.56284 0
M  V30 1510 C 145.844 0.74892 4.43521 0
M  V30 1511 C 147.163 -1.32461 4.19693 0
M  V30 1512 H 144.282 -0.0814343 0.732487 0
M  V30 1513 H 146.924 0.48713 1.83649 0
M  V30 1514 H 145.074 -1.1322 3.71636 0
M  V30 1515 H 146.746 1.38648 4.39971 0
M  V30 1516 H 144.989 1.36986 4.11603 0
M  V30 1517 H 145.66 0.497667 5.49752 0
M  V30 1518 H 148.136 -0.809203 4.08156 0
M  V30 1519 H 147.012 -1.49961 5.28018 0
M  V30 1520 H 147.273 -2.33232 3.75573 0
M  V30 1521 N 146.332 -1.57332 0.0918853 0
M  V30 1522 C 147.264 -2.10869 -0.898168 0
M  V30 1523 C 148.277 -1.04521 -1.24817 0
M  V30 1524 O 149.466 -1.31977 -1.20184 0
M  V30 1525 C 146.566 -2.57083 -2.2082 0
M  V30 1526 C 145.739 -3.87229 -2.03402 0
M  V30 1527 C 144.798 -4.19324 -3.17889 0
M  V30 1528 O 143.824 -4.88598 -2.91994 0
M  V30 1529 N 145.026 -3.74471 -4.43567 0
M  V30 1530 H 147.791 -2.96439 -0.440943 0
M  V30 1531 H 145.352 -1.61631 -0.0933064 0
M  V30 1532 H 147.344 -2.75602 -2.96354 0
M  V30 1533 H 145.914 -1.76541 -2.57977 0
M  V30 1534 H 145.134 -3.7789 -1.12218 0
M  V30 1535 H 146.422 -4.72379 -1.89038 0
M  V30 1536 H 145.82 -3.18546 -4.67488 0
M  V30 1537 H 144.377 -3.98151 -5.16061 0
M  V30 1538 N 147.81 0.181792 -1.56548 0
M  V30 1539 C 148.74 1.22765 -1.98623 0
M  V30 1540 C 149.721 1.46747 -0.860189 0
M  V30 1541 O 150.906 1.58259 -1.12551 0
M  V30 1542 C 148.036 2.56894 -2.33715 0
M  V30 1543 C 146.99 2.475 -3.49182 0
M  V30 1544 C 146.316 3.86023 -3.69986 0
M  V30 1545 C 147.616 1.98866 -4.82959 0
M  V30 1546 H 149.31 0.877942 -2.86239 0
M  V30 1547 H 146.856 0.42088 -1.37712 0
M  V30 1548 H 148.809 3.30253 -2.61746 0
M  V30 1549 H 147.533 2.93632 -1.42997 0
M  V30 1550 H 146.192 1.76596 -3.21262 0
M  V30 1551 H 145.84 4.20136 -2.76576 0
M  V30 1552 H 145.54 3.80609 -4.47672 0
M  V30 1553 H 147.064 4.60984 -4.00407 0
M  V30 1554 H 148.478 2.61992 -5.09934 0
M  V30 1555 H 146.875 2.04424 -5.64208 0
M  V30 1556 H 147.945 0.942465 -4.75653 0
M  V30 1557 N 149.288 1.51039 0.449983 0
M  V30 1558 C 150.565 1.53612 1.21089 0
M  V30 1559 C 150.945 0.292997 2.09057 0
M  V30 1560 O 150.293 -0.72259 2.16774 0
M  V30 1561 C 150.503 2.84337 2.0237 0
M  V30 1562 C 151.851 3.35807 2.59843 0
M  V30 1563 O 152.875 2.85802 2.12593 0
M  V30 1564 O 151.734 4.23029 3.45989 0
M  V30 1565 H 148.828 0.617057 0.550608 0
M  V30 1566 H 151.374 1.63344 0.460082 0
M  V30 1567 H 150.146 3.66278 1.37681 0
M  V30 1568 H 149.769 2.77708 2.84542 0
M  V30 1569 N 150.766 -0.704594 1.40972 0
M  V30 1570 C 151.994 -1.49354 1.43182 0
M  V30 1571 C 152.409 -1.88768 0.0345508 0
M  V30 1572 O 151.766 -1.56184 -0.944081 0
M  V30 1573 C 151.817 -2.76187 2.33244 0
M  V30 1574 O 151.538 -2.38436 3.67532 0
M  V30 1575 C 153.039 -3.7 2.44162 0
M  V30 1576 H 150.259 -0.460559 0.487982 0
M  V30 1577 H 152.803 -0.868261 1.85153 0
M  V30 1578 H 150.958 -3.34974 1.94606 0
M  V30 1579 H 151.372 -3.20126 4.15475 0
M  V30 1580 H 152.846 -4.55803 3.11364 0
M  V30 1581 H 153.323 -4.13867 1.47006 0
M  V30 1582 H 153.929 -3.17121 2.83398 0
M  V30 1583 N 152.244 -1.26651 -0.937939 0
M  V30 1584 C 153.207 -1.08546 -2.01867 0
M  V30 1585 C 154.207 -0.0327327 -1.60767 0
M  V30 1586 O 155.397 -0.276427 -1.71993 0
M  V30 1587 C 152.529 -0.651711 -3.34613 0
M  V30 1588 H 153.722 -2.04502 -2.1936 0
M  V30 1589 H 151.275 -1.09294 -1.11734 0
M  V30 1590 H 152.01 0.309696 -3.22818 0
M  V30 1591 H 151.795 -1.41189 -3.65798 0
M  V30 1592 H 153.285 -0.546973 -4.14002 0
M  V30 1593 N 153.722 1.14298 -1.08507 0
M  V30 1594 C 154.632 2.23027 -0.727753 0
M  V30 1595 C 155.648 1.71952 0.26619 0
M  V30 1596 O 156.824 2.011 0.109882 0
M  V30 1597 C 153.889 3.46403 -0.143541 0
M  V30 1598 C 152.95 4.12413 -1.19223 0
M  V30 1599 C 152.183 5.29899 -0.635798 0
M  V30 1600 O 152.406 5.67796 0.544393 0
M  V30 1601 O 151.34 5.85717 -1.38634 0
M  V30 1602 H 155.166 2.55945 -1.63481 0
M  V30 1603 H 152.751 1.22248 -0.858817 0
M  V30 1604 H 154.633 4.21018 0.179404 0
M  V30 1605 H 153.308 3.15206 0.736659 0
M  V30 1606 H 152.215 3.39667 -1.56772 0
M  V30 1607 H 153.548 4.47718 -2.04474 0
M  V30 1608 N 155.201 0.870884 1.31352 0
M  V30 1609 C 156.131 0.343096 2.30966 0
M  V30 1610 C 157.112 -0.566507 1.60389 0
M  V30 1611 O 158.297 -0.483336 1.88089 0
M  V30 1612 C 155.427 -0.455487 3.443 0
M  V30 1613 C 154.381 0.361103 4.26474 0
M  V30 1614 C 153.707 -0.563221 5.31725 0
M  V30 1615 C 155.007 1.59566 4.97329 0
M  V30 1616 H 156.701 1.17548 2.75359 0
M  V30 1617 H 154.247 0.566686 1.32381 0
M  V30 1618 H 156.2 -0.83525 4.13039 0
M  V30 1619 H 154.924 -1.32139 2.98675 0
M  V30 1620 H 153.583 0.722825 3.59403 0
M  V30 1621 H 153.231 -1.42643 4.82351 0
M  V30 1622 H 152.931 -0.0207409 5.87596 0
M  V30 1623 H 154.455 -0.939808 6.03324 0
M  V30 1624 H 155.869 1.28728 5.58661 0
M  V30 1625 H 154.266 2.07728 5.63 0
M  V30 1626 H 155.336 2.34798 4.24262 0
M  V30 1627 N 156.679 -1.44442 0.630414 0
M  V30 1628 C 157.904 -2.06927 0.139944 0
M  V30 1629 C 158.329 -1.46795 -1.17613 0
M  V30 1630 O 157.687 -0.569144 -1.72135 0
M  V30 1631 C 157.735 -3.6058 0.0379581 0
M  V30 1632 O 156.839 -3.99937 -1.0062 0
M  V30 1633 H 156.18 -0.658608 0.0844483 0
M  V30 1634 H 158.71 -1.85327 0.866891 0
M  V30 1635 H 158.72 -4.07714 -0.152856 0
M  V30 1636 H 157.395 -4.03728 0.998809 0
M  V30 1637 H 155.972 -3.64436 -0.79001 0
M  V30 1638 N 158.157 -0.370918 -1.53173 0
M  V30 1639 C 159.087 0.464847 -2.28826 0
M  V30 1640 C 160.068 1.07936 -1.31468 0
M  V30 1641 O 161.253 1.0956 -1.60344 0
M  V30 1642 C 158.383 1.60196 -3.08147 0
M  V30 1643 C 157.337 1.11443 -4.13237 0
M  V30 1644 C 156.663 2.3422 -4.80672 0
M  V30 1645 C 157.963 0.195384 -5.21934 0
M  V30 1646 H 159.657 -0.166329 -2.98938 0
M  V30 1647 H 157.203 -0.0814359 -1.4377 0
M  V30 1648 H 159.156 2.19332 -3.59822 0
M  V30 1649 H 157.88 2.26045 -2.35735 0
M  V30 1650 H 156.539 0.545727 -3.62515 0
M  V30 1651 H 156.187 2.98537 -4.04827 0
M  V30 1652 H 155.887 2.02269 -5.51689 0
M  V30 1653 H 157.411 2.94032 -5.35143 0
M  V30 1654 H 158.825 0.694375 -5.69079 0
M  V30 1655 H 157.222 -0.0335027 -6.00091 0
M  V30 1656 H 158.292 -0.760961 -4.78892 0
M  V30 1657 N 159.635 1.57281 -0.100228 0
M  V30 1658 C 160.881 1.94826 0.563101 0
M  V30 1659 C 161.214 0.982475 1.67514 0
M  V30 1660 O 160.489 0.0164069 1.94493 0
M  V30 1661 C 160.772 3.42453 1.11346 0
M  V30 1662 C 160.625 4.498 0.00612081 0
M  V30 1663 C 161.944 3.91506 2.01024 0
M  V30 1664 H 159.063 0.708428 0.203221 0
M  V30 1665 H 161.705 1.8922 -0.171979 0
M  V30 1666 H 159.855 3.47361 1.7399 0
M  V30 1667 H 161.527 4.57 -0.628357 0
M  V30 1668 H 159.77 4.28756 -0.659581 0
M  V30 1669 H 160.441 5.50306 0.432109 0
M  V30 1670 H 162.917 3.88784 1.48278 0
M  V30 1671 H 161.793 4.95358 2.36457 0
M  V30 1672 H 162.054 3.31099 2.92961 0
M  V30 1673 N 161.113 -0.173488 1.56642 0
M  V30 1674 C 162.36 -0.890465 1.81871 0
M  V30 1675 C 162.688 -1.82339 0.67696 0
M  V30 1676 O 161.943 -1.92795 -0.335926 0
M  V30 1677 C 162.242 -1.72069 3.13252 0
M  V30 1678 C 161.908 -0.936878 4.41059 0
M  V30 1679 C 160.57 -0.720545 4.75775 0
M  V30 1680 C 162.922 -0.386919 5.19762 0
M  V30 1681 C 160.25 0.0568829 5.86672 0
M  V30 1682 C 162.602 0.37741 6.31473 0
M  V30 1683 C 161.266 0.604563 6.64757 0
M  V30 1684 H 160.536 -0.325844 0.665512 0
M  V30 1685 H 163.183 -0.155527 1.90867 0
M  V30 1686 H 161.488 -2.52496 2.99588 0
M  V30 1687 H 163.185 -2.27844 3.29982 0
M  V30 1688 H 159.775 -1.11553 4.13828 0
M  V30 1689 H 163.959 -0.541398 4.93338 0
M  V30 1690 H 159.215 0.242635 6.10918 0
M  V30 1691 H 163.389 0.810825 6.91664 0
M  V30 1692 H 161.016 1.20885 7.50527 0
M  V30 1693 N 162.591 -1.51276 -0.441967 0
M  V30 1694 C 163.523 -1.68444 -1.55433 0
M  V30 1695 C 164.536 -0.565187 -1.52674 0
M  V30 1696 O 165.725 -0.839356 -1.57534 0
M  V30 1697 C 162.825 -1.67966 -2.94348 0
M  V30 1698 C 161.998 -2.964 -3.21661 0
M  V30 1699 C 161.057 -2.88171 -4.40277 0
M  V30 1700 O 160.083 -3.62119 -4.39157 0
M  V30 1701 N 161.285 -2.03706 -5.43584 0
M  V30 1702 H 164.05 -2.644 -1.41112 0
M  V30 1703 H 161.611 -1.49104 -0.630838 0
M  V30 1704 H 163.603 -1.60035 -3.71713 0
M  V30 1705 H 162.173 -0.796225 -3.0229 0
M  V30 1706 H 161.393 -3.18234 -2.32638 0
M  V30 1707 H 162.681 -3.81427 -3.36736 0
M  V30 1708 H 162.079 -1.42995 -5.47329 0
M  V30 1709 H 160.636 -2.01658 -6.1982 0
M  V30 1710 N 164.069 0.697108 -1.41344 0
M  V30 1711 C 164.999 1.82353 -1.45841 0
M  V30 1712 C 165.98 1.67115 -0.317247 0
M  V30 1713 O 167.165 1.86871 -0.528474 0
M  V30 1714 C 164.295 3.20476 -1.33838 0
M  V30 1715 C 163.249 3.50415 -2.4575 0
M  V30 1716 C 162.575 4.87878 -2.18813 0
M  V30 1717 C 163.875 3.49546 -3.88091 0
M  V30 1718 H 165.569 1.78846 -2.40113 0
M  V30 1719 H 163.115 0.859028 -1.15571 0
M  V30 1720 H 165.068 3.98988 -1.35596 0
M  V30 1721 H 163.792 3.24604 -0.360498 0
M  V30 1722 H 162.451 2.74253 -2.43271 0
M  V30 1723 H 162.099 4.8863 -1.19371 0
M  V30 1724 H 161.799 5.08875 -2.93803 0
M  V30 1725 H 163.323 5.68702 -2.22284 0
M  V30 1726 H 164.737 4.18066 -3.92293 0
M  V30 1727 H 163.134 3.82075 -4.62751 0
M  V30 1728 H 164.204 2.48552 -4.16353 0
M  V30 1729 N 165.547 1.27147 0.931209 0
M  V30 1730 C 166.958 1.12044 1.49342 0
M  V30 1731 C 167.309 -0.295795 1.93957 0
M  V30 1732 O 166.434 -1.18835 1.80852 0
M  V30 1733 C 167.029 2.02781 2.71414 0
M  V30 1734 C 165.588 1.91794 3.2387 0
M  V30 1735 C 164.735 1.95543 1.96617 0
M  V30 1736 H 167.686 1.40091 0.745672 0
M  V30 1737 H 167.707 1.58156 3.46074 0
M  V30 1738 H 167.219 3.05848 2.38911 0
M  V30 1739 H 165.32 0.916992 3.6114 0
M  V30 1740 H 165.433 2.77852 3.90302 0
M  V30 1741 H 163.797 1.39722 2.12955 0
M  V30 1742 H 164.58 3.00259 1.66432 0
M  V30 1743 N 167.025 -1.13721 1.09112 0
M  V30 1744 C 168.272 -1.84924 0.825192 0
M  V30 1745 C 168.6 -1.83347 -0.649151 0
M  V30 1746 O 167.855 -1.26449 -1.49362 0
M  V30 1747 C 168.154 -3.32861 1.30146 0
M  V30 1748 C 167.82 -3.54621 2.78486 0
M  V30 1749 C 166.482 -3.60268 3.18999 0
M  V30 1750 C 168.834 -3.62855 3.74146 0
M  V30 1751 C 166.162 -3.71679 4.53951 0
M  V30 1752 C 168.514 -3.75793 5.08883 0
M  V30 1753 C 167.178 -3.79692 5.4899 0
M  V30 1754 H 166.448 -0.676684 0.301959 0
M  V30 1755 H 169.095 -1.3428 1.36533 0
M  V30 1756 H 167.4 -3.85835 0.681064 0
M  V30 1757 H 169.097 -3.86395 1.07236 0
M  V30 1758 H 165.687 -3.50879 2.46134 0
M  V30 1759 H 169.871 -3.57775 3.43963 0
M  V30 1760 H 165.127 -3.72963 4.84467 0
M  V30 1761 H 169.301 -3.81107 5.82864 0
M  V30 1762 H 166.928 -3.88287 6.53558 0
M  V30 1763 N 168.503 -0.877838 -1.30888 0
M  V30 1764 C 169.751 -0.491723 -1.96027 0
M  V30 1765 C 170.072 0.960827 -1.69685 0
M  V30 1766 O 169.342 1.67462 -1.01654 0
M  V30 1767 H 167.922 -0.17885 -0.725273 0
M  V30 1768 H 170.584 -1.11935 -1.59551 0
M  V30 1769 H 169.68 -0.656016 -3.05128 0
M  V30 1770 N 169.982 1.44106 -0.638065 0
M  V30 1771 C 171.207 2.0685 -0.150916 0
M  V30 1772 C 171.632 1.47417 1.16833 0
M  V30 1773 O 170.99 0.578264 1.71831 0
M  V30 1774 C 171.038 3.60555 -0.05708 0
M  V30 1775 O 170.142 4.00465 0.984972 0
M  V30 1776 H 169.483 0.658151 -0.0879399 0
M  V30 1777 H 172.013 1.84865 -0.876707 0
M  V30 1778 H 172.023 4.07789 0.131232 0
M  V30 1779 H 170.698 4.03193 -1.02021 0
M  V30 1780 H 169.275 3.64849 0.770672 0
M  V30 1781 N 171.46 0.379036 1.52974 0
M  V30 1782 C 172.392 -0.495963 2.2377 0
M  V30 1783 C 173.405 -1.03517 1.25651 0
M  V30 1784 O 174.594 -0.939249 1.51791 0
M  V30 1785 C 171.694 -1.69894 2.93239 0
M  V30 1786 C 170.867 -1.2889 4.17979 0
M  V30 1787 C 169.926 -2.35543 4.70538 0
M  V30 1788 O 168.952 -1.97375 5.33883 0
M  V30 1789 N 170.154 -3.67318 4.49508 0
M  V30 1790 H 172.919 0.110523 2.99496 0
M  V30 1791 H 170.48 0.204878 1.60598 0
M  V30 1792 H 172.472 -2.40747 3.25304 0
M  V30 1793 H 171.042 -2.212 2.20883 0
M  V30 1794 H 170.262 -0.409676 3.92065 0
M  V30 1795 H 171.55 -0.991443 4.99047 0
M  V30 1796 H 170.948 -4.01095 3.98923 0
M  V30 1797 H 169.505 -4.34235 4.8609 0
M  V30 1798 N 172.938 -1.57226 0.108567 0
M  V30 1799 C 174.166 -1.99179 -0.559954 0
M  V30 1800 C 174.581 -0.988022 -1.60884 0
M  V30 1801 O 173.938 0.0205512 -1.82488 0
M  V30 1802 C 173.989 -3.41159 -1.19552 0
M  V30 1803 O 173.71 -4.37694 -0.188577 0
M  V30 1804 C 175.211 -3.98188 -1.94837 0
M  V30 1805 H 172.431 -0.654228 -0.149088 0
M  V30 1806 H 174.975 -2.03598 0.19183 0
M  V30 1807 H 173.13 -3.37711 -1.89815 0
M  V30 1808 H 173.544 -5.20469 -0.649014 0
M  V30 1809 H 175.018 -4.99644 -2.34648 0
M  V30 1810 H 175.495 -3.3675 -2.81951 0
M  V30 1811 H 176.101 -4.0515 -1.2936 0
M  V30 1812 N 174.416 0.165178 -1.56732 0
M  V30 1813 C 175.832 0.517174 -1.50988 0
M  V30 1814 C 176.032 1.84331 -0.813894 0
M  V30 1815 O 175.088 2.49672 -0.37682 0
M  V30 1816 C 176.401 0.544261 -2.95733 0
M  V30 1817 C 177.949 0.631039 -3.06573 0
M  V30 1818 C 178.424 0.68896 -4.52788 0
M  V30 1819 N 179.915 0.751683 -4.5706 0
M  V30 1820 C 180.65 0.817177 -5.67547 0
M  V30 1821 N 180.146 0.843129 -6.8765 0
M  V30 1822 N 181.939 0.856668 -5.55534 0
M  V30 1823 H 174.09 -0.704318 -2.00382 0
M  V30 1824 H 176.353 -0.254687 -0.913148 0
M  V30 1825 H 176.059 -0.361607 -3.49836 0
M  V30 1826 H 175.933 1.3886 -3.5071 0
M  V30 1827 H 178.32 1.52733 -2.52501 0
M  V30 1828 H 178.401 -0.240095 -2.54671 0
M  V30 1829 H 178.045 -0.2031 -5.07494 0
M  V30 1830 H 177.975 1.57633 -5.02454 0
M  V30 1831 H 180.466 0.739661 -3.70591 0
M  V30 1832 H 180.779 0.894448 -7.67606 0
M  V30 1833 H 179.124 0.811304 -6.90248 0
M  V30 1834 H 182.315 0.833437 -4.60621 0
M  V30 1835 H 182.488 0.904247 -6.4166 0
M  V30 1836 N 175.894 1.51508 0.433938 0
M  V30 1837 C 176.827 1.67756 1.54704 0
M  V30 1838 C 177.805 0.525127 1.53887 0
M  V30 1839 O 178.989 0.749393 1.72963 0
M  V30 1840 C 176.116 1.69424 2.9328 0
M  V30 1841 C 175.162 2.90673 3.12108 0
M  V30 1842 S 175.995 4.51431 2.88046 0
M  V30 1843 C 177.151 4.55849 4.28897 0
M  V30 1844 H 177.384 2.61904 1.40689 0
M  V30 1845 H 174.917 1.41235 0.62386 0
M  V30 1846 H 176.875 1.7107 3.73156 0
M  V30 1847 H 175.536 0.764464 3.04655 0
M  V30 1848 H 174.729 2.88251 4.13434 0
M  V30 1849 H 174.331 2.86786 2.40062 0
M  V30 1850 H 176.623 4.31699 5.22152 0
M  V30 1851 H 177.566 5.57676 4.36351 0
M  V30 1852 H 177.974 3.85137 4.12711 0
M  V30 1853 N 177.372 -0.689602 1.41712 0
M  V30 1854 C 178.619 -1.44966 1.4139 0
M  V30 1855 C 178.947 -1.94484 0.025105 0
M  V30 1856 O 178.202 -1.70307 -0.964048 0
M  V30 1857 C 178.501 -2.67298 2.37247 0
M  V30 1858 C 178.167 -2.36405 3.83958 0
M  V30 1859 C 176.829 -2.27691 4.23923 0
M  V30 1860 C 179.181 -2.11043 4.76561 0
M  V30 1861 C 176.509 -1.91719 5.54492 0
M  V30 1862 C 178.861 -1.76578 6.07456 0
M  V30 1863 C 177.525 -1.66363 6.46436 0
M  V30 1864 H 176.795 -0.53047 0.517381 0
M  V30 1865 H 179.442 -0.787655 1.74552 0
M  V30 1866 H 177.747 -3.38461 1.9736 0
M  V30 1867 H 179.444 -3.25452 2.34269 0
M  V30 1868 H 176.034 -2.44085 3.52308 0
M  V30 1869 H 180.218 -2.16717 4.46483 0
M  V30 1870 H 175.474 -1.82367 5.83568 0
M  V30 1871 H 179.648 -1.55974 6.78708 0
M  V30 1872 H 177.275 -1.38258 7.47522 0
M  V30 1873 N 178.85 -1.27639 -0.924453 0
M  V30 1874 C 179.78 -1.13166 -2.04244 0
M  V30 1875 C 180.761 -0.032256 -1.70069 0
M  V30 1876 O 181.946 -0.207328 -1.9309 0
M  V30 1877 C 179.076 -0.781496 -3.38393 0
M  V30 1878 C 178.03 -1.83449 -3.86692 0
M  V30 1879 C 177.356 -1.33822 -5.17683 0
M  V30 1880 C 178.656 -3.23917 -4.09726 0
M  V30 1881 H 180.35 -2.06689 -2.1661 0
M  V30 1882 H 177.896 -0.995136 -1.04082 0
M  V30 1883 H 179.849 -0.667057 -4.16087 0
M  V30 1884 H 178.573 0.189439 -3.2605 0
M  V30 1885 H 177.232 -1.93789 -3.11193 0
M  V30 1886 H 176.88 -0.35665 -5.01734 0
M  V30 1887 H 176.58 -2.04224 -5.50968 0
M  V30 1888 H 178.104 -1.23679 -5.97943 0
M  V30 1889 H 179.518 -3.16559 -4.77978 0
M  V30 1890 H 177.915 -3.92059 -4.54324 0
M  V30 1891 H 178.985 -3.68729 -3.14908 0
M  V30 1892 N 180.328 1.1314 -1.09713 0
M  V30 1893 C 181.278 2.16709 -0.708593 0
M  V30 1894 C 182.262 1.58471 0.278523 0
M  V30 1895 O 183.454 1.76779 0.088427 0
M  V30 1896 C 180.583 3.43039 -0.133923 0
M  V30 1897 C 179.669 4.08277 -1.14763 0
M  V30 1898 N 180.06 4.48637 -2.33577 0
M  V30 1899 C 178.358 4.34954 -0.986446 0
M  V30 1900 C 179.059 4.9952 -2.98085 0
M  V30 1901 N 178.035 4.94561 -2.25632 0
M  V30 1902 H 181.837 2.45672 -1.61315 0
M  V30 1903 H 179.351 1.29967 -0.973775 0
M  V30 1904 H 181.348 4.16583 0.162465 0
M  V30 1905 H 180.008 3.15549 0.765447 0
M  V30 1906 H 181.019 4.41246 -2.7115 0
M  V30 1907 H 177.696 4.17258 -0.142008 0
M  V30 1908 H 179.086 5.40521 -3.99108 0
M  V30 1909 N 181.806 0.884767 1.30421 0
M  V30 1910 C 182.716 0.355398 2.31892 0
M  V30 1911 C 183.732 -0.542261 1.65335 0
M  V30 1912 O 184.908 -0.435432 1.96637 0
M  V30 1913 C 181.973 -0.421661 3.44126 0
M  V30 1914 C 181.034 0.505727 4.26311 0
M  V30 1915 C 180.267 -0.234343 5.33185 0
M  V30 1916 O 180.49 -1.46045 5.51386 0
M  V30 1917 O 179.424 0.415443 6.00465 0
M  V30 1918 H 183.25 1.19685 2.79122 0
M  V30 1919 H 180.835 0.648596 1.34587 0
M  V30 1920 H 182.717 -0.861641 4.12497 0
M  V30 1921 H 181.392 -1.23942 2.99032 0
M  V30 1922 H 180.299 0.994513 3.60639 0
M  V30 1923 H 181.632 1.28948 4.75009 0
M  V30 1924 N 183.284 -1.43765 0.645699 0
M  V30 1925 C 184.53 -2.02197 0.156271 0
M  V30 1926 C 184.863 -1.50776 -1.22393 0
M  V30 1927 O 184.138 -0.697771 -1.81553 0
M  V30 1928 C 184.421 -3.59749 0.158872 0
M  V30 1929 C 184.274 -4.21419 1.57245 0
M  V30 1930 C 185.593 -4.37149 -0.50879 0
M  V30 1931 H 182.712 -0.734694 0.0582602 0
M  V30 1932 H 185.354 -1.71157 0.824951 0
M  V30 1933 H 183.504 -3.86325 -0.410525 0
M  V30 1934 H 185.176 -4.059 2.19186 0
M  V30 1935 H 183.419 -3.78356 2.122 0
M  V30 1936 H 184.09 -5.30482 1.52619 0
M  V30 1937 H 186.566 -4.16093 -0.024412 0
M  V30 1938 H 185.442 -5.4683 -0.476213 0
M  V30 1939 H 185.703 -4.12839 -1.58165 0
M  V30 1940 N 184.763 -0.387143 -1.52771 0
M  V30 1941 C 185.726 0.436939 -2.24997 0
M  V30 1942 C 186.726 0.991991 -1.26555 0
M  V30 1943 O 187.916 0.874335 -1.50669 0
M  V30 1944 C 185.048 1.61281 -3.00335 0
M  V30 1945 H 186.241 -0.195365 -2.99263 0
M  V30 1946 H 183.794 -0.139218 -1.55679 0
M  V30 1947 H 184.529 2.2826 -2.30364 0
M  V30 1948 H 184.314 1.22154 -3.72587 0
M  V30 1949 H 185.804 2.19629 -3.5518 0
M  V30 1950 N 186.241 1.57166 -0.116904 0
M  V30 1951 C 187.657 1.5779 0.239693 0
M  V30 1952 C 187.857 1.1295 1.66867 0
M  V30 1953 O 186.913 0.81592 2.38954 0
M  V30 1954 C 188.226 3.00699 0.00828202 0
M  V30 1955 C 189.774 3.12912 0.0743438 0
M  V30 1956 C 190.249 4.57817 -0.129348 0
M  V30 1957 N 191.74 4.63139 -0.075247 0
M  V30 1958 C 192.475 5.73023 -0.207788 0
M  V30 1959 N 191.971 6.91665 -0.396382 0
M  V30 1960 N 193.764 5.61906 -0.14751 0
M  V30 1961 H 185.915 1.84615 -1.05029 0
M  V30 1962 H 188.178 0.85311 -0.41341 0
M  V30 1963 H 187.884 3.37784 -0.979531 0
M  V30 1964 H 187.758 3.69848 0.741077 0
M  V30 1965 H 190.145 2.75686 1.05268 0
M  V30 1966 H 190.226 2.4631 -0.690297 0
M  V30 1967 H 189.87 4.95742 -1.10465 0
M  V30 1968 H 189.8 5.22507 0.655253 0
M  V30 1969 H 192.291 3.7784 0.0670898 0
M  V30 1970 H 192.604 7.71255 -0.488437 0
M  V30 1971 H 190.949 6.93654 -0.432329 0
M  V30 1972 H 194.14 4.681 -0.00115036 0
M  V30 1973 H 194.313 6.47501 -0.254247 0
M  V30 1974 N 187.719 -0.156864 1.56817 0
M  V30 1975 C 188.682 -1.17781 1.96622 0
M  V30 1976 C 189.682 -1.36401 0.851555 0
M  V30 1977 O 190.872 -1.33561 1.11836 0
M  V30 1978 C 188.004 -2.54008 2.27361 0
M  V30 1979 H 189.197 -0.836564 2.87996 0
M  V30 1980 H 186.75 -0.39985 1.51099 0
M  V30 1981 H 187.485 -2.9312 1.38748 0
M  V30 1982 H 187.27 -2.41856 3.08623 0
M  V30 1983 H 188.76 -3.27558 2.59029 0
M  V30 1984 N 189.197 -1.51736 -0.425897 0
M  V30 1985 C 190.437 -1.66636 -1.18371 0
M  V30 1986 C 190.801 -0.379854 -1.88205 0
M  V30 1987 O 192.002 -0.404758 -2.65735 0
M  V30 1988 C 190.273 -2.84382 -2.16476 0
M  V30 1989 S 191.832 -3.19673 -3.0059 0
M  V30 1990 H 188.65 -0.586957 -0.40125 0
M  V30 1991 H 191.252 -1.89679 -0.473518 0
M  V30 1992 H 189.956 -3.76281 -1.63831 0
M  V30 1993 H 189.487 -2.63562 -2.92059 0
M  V30 1994 H 191.502 -2.66994 -4.18245 0
M  V30 1995 N 190.675 0.682077 -1.42076 0
M  V30 1996 C 192.086 1.26246 -1.37546 0
M  V30 1997 C 192.437 1.96092 -0.0651481 0
M  V30 1998 O 191.562 1.99587 0.836297 0
M  V30 1999 C 192.157 2.29594 -2.49143 0
M  V30 2000 C 190.716 2.83175 -2.47969 0
M  V30 2001 C 189.863 1.57395 -2.28303 0
M  V30 2002 H 192.814 0.475937 -1.51395 0
M  V30 2003 H 192.835 3.11175 -2.18976 0
M  V30 2004 H 192.347 1.78729 -3.44496 0
M  V30 2005 H 190.448 3.3818 -1.56413 0
M  V30 2006 H 190.561 3.32687 -3.44755 0
M  V30 2007 H 188.925 1.83699 -1.76428 0
M  V30 2008 H 189.708 1.08507 -3.25701 0
M  V30 2009 N 192.153 1.28127 0.917671 0
M  V30 2010 C 193.401 1.14825 1.66312 0
M  V30 2011 C 193.722 -0.304379 1.9261 0
M  V30 2012 O 192.992 -1.21149 1.53947 0
M  V30 2013 H 191.572 0.421953 0.616413 0
M  V30 2014 H 194.234 1.608 1.10134 0
M  V30 2015 H 193.33 1.68489 2.62712 0
M  V30 2016 N 193.631 -1.12557 1.10312 0
M  V30 2017 C 194.878 -1.84038 0.844759 0
M  V30 2018 C 195.206 -1.84026 -0.629668 0
M  V30 2019 O 194.461 -1.28026 -1.48013 0
M  V30 2020 C 194.76 -3.31462 1.33669 0
M  V30 2021 C 194.426 -3.51647 2.82232 0
M  V30 2022 C 193.088 -3.56864 3.22802 0
M  V30 2023 C 195.44 -3.58867 3.77974 0
M  V30 2024 C 192.768 -3.66844 4.57867 0
M  V30 2025 C 195.12 -3.70375 5.1284 0
M  V30 2026 C 193.784 -3.73848 5.52986 0
M  V30 2027 H 193.054 -0.673444 0.309119 0
M  V30 2028 H 195.701 -1.32824 1.37949 0
M  V30 2029 H 194.006 -3.85091 0.721949 0
M  V30 2030 H 195.703 -3.85236 1.11329 0
M  V30 2031 H 192.293 -3.48249 2.49842 0
M  V30 2032 H 196.477 -3.54107 3.47738 0
M  V30 2033 H 191.733 -3.67804 4.88396 0
M  V30 2034 H 195.907 -3.74904 5.86873 0
M  V30 2035 H 193.534 -3.81333 6.57639 0
M  V30 2036 N 195.109 -0.891671 -1.2995 0
M  V30 2037 C 196.386 -0.433307 -1.9074 0
M  V30 2038 C 196.766 1.08646 -1.80995 0
M  V30 2039 O 196.114 1.92476 -1.23147 0
M  V30 2040 C 196.324 -0.938895 -3.36134 0
M  V30 2041 C 197.672 -0.977829 -4.13187 0
M  V30 2042 O 198.696 -0.886015 -3.45005 0
M  V30 2043 O 197.555 -1.11453 -5.35015 0
M  V30 2044 H 194.649 -0.133699 -0.816121 0
M  V30 2045 H 197.195 -0.981011 -1.38471 0
M  V30 2046 H 195.967 -1.98281 -3.37343 0
M  V30 2047 H 195.59 -0.37074 -3.95868 0
M  V30 2048 N 196.587 1.43421 -0.653314 0
M  V30 2049 C 197.812 2.06678 -0.172846 0
M  V30 2050 C 198.237 1.48648 1.15262 0
M  V30 2051 O 197.595 0.596457 1.71208 0
M  V30 2052 C 197.643 3.60474 -0.0953184 0
M  V30 2053 O 196.747 4.01487 0.942442 0
M  V30 2054 H 196.088 0.657181 -0.0949155 0
M  V30 2055 H 198.618 1.83925 -0.896265 0
M  V30 2056 H 198.628 4.07905 0.0879728 0
M  V30 2057 H 197.303 4.02088 -1.06291 0
M  V30 2058 H 195.88 3.65646 0.731932 0
M  V30 2059 N 198.065 0.39524 1.52563 0
M  V30 2060 C 199.028 -0.425001 2.25225 0
M  V30 2061 C 200.028 -0.985266 1.27079 0
M  V30 2062 O 201.218 -0.866332 1.5113 0
M  V30 2063 C 198.35 -1.59686 3.01186 0
M  V30 2064 H 199.543 0.211233 2.99155 0
M  V30 2065 H 197.096 0.147472 1.55603 0
M  V30 2066 H 197.831 -2.27035 2.31572 0
M  V30 2067 H 197.616 -1.20176 3.73229 0
M  V30 2068 H 199.106 -2.17743 3.5634 0
M  V30 2069 N 199.544 -1.57102 0.125237 0
M  V30 2070 C 200.772 -1.99761 -0.538797 0
M  V30 2071 C 201.187 -1.00503 -1.59827 0
M  V30 2072 O 200.544 0.00119474 -1.825 0
M  V30 2073 C 200.595 -3.42408 -1.15927 0
M  V30 2074 O 200.316 -4.37869 -0.142143 0
M  V30 2075 C 201.817 -4.00232 -1.90602 0
M  V30 2076 H 199.037 -0.655772 -0.14214 0
M  V30 2077 H 201.581 -2.03383 0.213413 0
M  V30 2078 H 199.736 -3.39706 -1.86223 0
M  V30 2079 H 200.15 -5.21128 -0.593775 0
M  V30 2080 H 201.624 -5.02105 -2.29335 0
M  V30 2081 H 202.101 -3.39721 -2.78363 0
M  V30 2082 H 202.707 -4.06499 -1.25055 0
M  V30 2083 N 201.022 0.148545 -1.56898 0
M  V30 2084 C 202.438 0.501131 -1.51528 0
M  V30 2085 C 202.638 1.83458 -0.833399 0
M  V30 2086 O 201.694 2.49259 -0.40328 0
M  V30 2087 C 203.007 0.512864 -2.96294 0
M  V30 2088 C 204.555 0.598487 -3.07225 0
M  V30 2089 C 205.03 0.640897 -4.53494 0
M  V30 2090 N 206.521 0.703163 -4.57832 0
M  V30 2091 C 207.256 0.756935 -5.68382 0
M  V30 2092 N 206.752 0.770147 -6.88506 0
M  V30 2093 N 208.545 0.797698 -5.56411 0
M  V30 2094 H 200.696 -0.725532 -1.99624 0
M  V30 2095 H 202.959 -0.264358 -0.910395 0
M  V30 2096 H 202.665 -0.398691 -3.49433 0
M  V30 2097 H 202.539 1.35133 -3.52163 0
M  V30 2098 H 204.926 1.50046 -2.54106 0
M  V30 2099 H 205.007 -0.267093 -2.54402 0
M  V30 2100 H 204.651 -0.256915 -5.0725 0
M  V30 2101 H 204.581 1.52295 -5.04097 0
M  V30 2102 H 207.072 0.700314 -3.71354 0
M  V30 2103 H 207.385 0.812983 -7.68512 0
M  V30 2104 H 205.73 0.738049 -6.9107 0
M  V30 2105 H 208.921 0.784535 -4.61479 0
M  V30 2106 H 209.094 0.83614 -6.42583 0
M  V30 2107 N 202.5 1.5196 0.417844 0
M  V30 2108 C 203.777 1.56146 1.17803 0
M  V30 2109 C 204.157 0.337275 2.08388 0
M  V30 2110 O 203.505 -0.676447 2.18258 0
M  V30 2111 C 203.715 2.88566 1.96293 0
M  V30 2112 C 205.063 3.41244 2.52662 0
M  V30 2113 O 206.087 2.90247 2.06483 0
M  V30 2114 O 204.946 4.30273 3.36938 0
M  V30 2115 H 202.04 0.628598 0.537395 0
M  V30 2116 H 204.586 1.64283 0.425331 0
M  V30 2117 H 203.358 3.69116 1.2988 0
M  V30 2118 H 202.981 2.83681 2.78587 0
M  V30 2119 N 203.978 -0.674533 1.42435 0
M  V30 2120 C 205.389 -1.25514 1.38214 0
M  V30 2121 C 205.74 -1.96055 0.0755464 0
M  V30 2122 O 204.865 -2.00028 -0.8257 0
M  V30 2123 C 205.46 -2.28269 2.50357 0
M  V30 2124 C 204.019 -2.81856 2.49467 0
M  V30 2125 C 203.166 -1.56182 2.29134 0
M  V30 2126 H 206.117 -0.467902 1.51646 0
M  V30 2127 H 206.138 -3.10009 2.20624 0
M  V30 2128 H 205.65 -1.769 3.45439 0
M  V30 2129 H 203.751 -3.37346 1.58204 0
M  V30 2130 H 203.864 -3.30854 3.46515 0
M  V30 2131 H 202.228 -1.82761 1.774 0
M  V30 2132 H 203.011 -1.06778 3.26272 0
M  V30 2133 N 205.456 -1.28612 -0.910864 0
M  V30 2134 C 206.366 -1.14643 -2.0468 0
M  V30 2135 C 207.382 -0.0723121 -1.7385 0
M  V30 2136 O 208.558 -0.282178 -1.99413 0
M  V30 2137 C 205.623 -0.812561 -3.37044 0
M  V30 2138 C 204.684 -1.96935 -3.81465 0
M  V30 2139 C 203.917 -1.65131 -5.07511 0
M  V30 2140 O 204.14 -0.567013 -5.67575 0
M  V30 2141 O 203.074 -2.49585 -5.47714 0
M  V30 2142 H 206.9 -2.1001 -2.19384 0
M  V30 2143 H 204.485 -1.07958 -1.03274 0
M  V30 2144 H 206.367 -0.640441 -4.16505 0
M  V30 2145 H 205.042 0.111426 -3.23508 0
M  V30 2146 H 203.949 -2.19664 -3.02818 0
M  V30 2147 H 205.282 -2.87414 -3.99567 0
M  V30 2148 N 206.934 1.1197 -1.10907 0
M  V30 2149 C 208.181 1.83588 -0.854507 0
M  V30 2150 C 208.509 1.84357 0.6199 0
M  V30 2151 O 207.764 1.28809 1.47332 0
M  V30 2152 C 208.063 3.30749 -1.35425 0
M  V30 2153 C 207.729 3.50146 -2.84093 0
M  V30 2154 C 206.391 3.55148 -3.2469 0
M  V30 2155 C 208.743 3.56857 -3.79872 0
M  V30 2156 C 206.071 3.6441 -4.59806 0
M  V30 2157 C 208.423 3.6765 -5.14797 0
M  V30 2158 C 207.087 3.7091 -5.54961 0
M  V30 2159 H 206.357 0.671795 -0.312686 0
M  V30 2160 H 209.004 1.32091 -1.38652 0
M  V30 2161 H 207.309 3.84703 -0.742361 0
M  V30 2162 H 209.006 3.8464 -1.1337 0
M  V30 2163 H 205.596 3.46919 -2.51685 0
M  V30 2164 H 209.78 3.52258 -3.49611 0
M  V30 2165 H 205.036 3.65208 -4.9034 0
M  V30 2166 H 209.21 3.71786 -5.88853 0
M  V30 2167 H 206.837 3.7784 -6.59652 0
M  V30 2168 N 208.412 0.89855 1.29475 0
M  V30 2169 C 209.342 0.39201 2.30186 0
M  V30 2170 C 210.323 -0.532359 1.61555 0
M  V30 2171 O 211.508 -0.443331 1.89072 0
M  V30 2172 C 208.638 -0.382353 3.45189 0
M  V30 2173 C 207.592 0.451483 4.25612 0
M  V30 2174 C 206.918 -0.450307 5.328 0
M  V30 2175 C 208.218 1.70079 4.93832 0
M  V30 2176 H 209.912 1.23362 2.72804 0
M  V30 2177 H 207.458 0.594638 1.31149 0
M  V30 2178 H 209.411 -0.747451 4.14718 0
M  V30 2179 H 208.135 -1.25774 3.01411 0
M  V30 2180 H 206.794 0.798897 3.57789 0
M  V30 2181 H 206.442 -1.32379 4.85268 0
M  V30 2182 H 206.142 0.103902 5.87508 0
M  V30 2183 H 207.666 -0.811623 6.05182 0
M  V30 2184 H 209.08 1.40549 5.55805 0
M  V30 2185 H 207.477 2.19623 5.58467 0
M  V30 2186 H 208.547 2.43744 4.19186 0
M  V30 2187 N 209.89 -1.43072 0.660911 0
M  V30 2188 C 211.136 -2.02545 0.186337 0
M  V30 2189 C 211.491 -1.51253 -1.18913 0
M  V30 2190 O 210.784 -0.699167 -1.78388 0
M  V30 2191 C 210.978 -3.57103 0.145563 0
M  V30 2192 C 210.807 -4.23393 1.51554 0
M  V30 2193 C 209.577 -4.59144 2.10984 0
M  V30 2194 C 211.775 -4.51897 2.45548 0
M  V30 2195 N 209.757 -5.10545 3.40907 0
M  V30 2196 C 211.128 -5.04698 3.6011 0
M  V30 2197 C 213.183 -4.33872 2.44253 0
M  V30 2198 C 211.886 -5.41371 4.73613 0
M  V30 2199 C 213.912 -4.71612 3.56842 0
M  V30 2200 C 213.274 -5.24553 4.70131 0
M  V30 2201 H 209.373 -0.773823 0.112792 0
M  V30 2202 H 211.957 -1.74137 0.870885 0
M  V30 2203 H 210.128 -3.85059 -0.508353 0
M  V30 2204 H 211.86 -4.03264 -0.340598 0
M  V30 2205 H 208.615 -4.4444 1.63615 0
M  V30 2206 H 209.039 -5.40689 4.07411 0
M  V30 2207 H 213.681 -3.92208 1.579 0
M  V30 2208 H 211.399 -5.81975 5.60652 0
M  V30 2209 H 214.985 -4.59354 3.57051 0
M  V30 2210 H 213.865 -5.53213 5.5581 0
M  V30 2211 N 211.368 -0.403325 -1.52352 0
M  V30 2212 C 212.298 0.416205 -2.29761 0
M  V30 2213 C 213.279 1.05123 -1.33728 0
M  V30 2214 O 214.464 1.06134 -1.62632 0
M  V30 2215 C 211.594 1.53624 -3.11475 0
M  V30 2216 C 210.548 1.02653 -4.15507 0
M  V30 2217 C 209.874 2.23971 -4.85532 0
M  V30 2218 C 211.174 0.08463 -5.22231 0
M  V30 2219 H 212.868 -0.229701 -2.98518 0
M  V30 2220 H 210.414 -0.111913 -1.43564 0
M  V30 2221 H 212.367 2.1165 -3.64393 0
M  V30 2222 H 211.091 2.20994 -2.40477 0
M  V30 2223 H 209.75 0.46871 -3.63591 0
M  V30 2224 H 209.398 2.89883 -4.11068 0
M  V30 2225 H 209.098 1.90521 -5.55856 0
M  V30 2226 H 210.622 2.82614 -5.41259 0
M  V30 2227 H 212.036 0.573509 -5.70424 0
M  V30 2228 H 210.433 -0.160783 -5.99885 0
M  V30 2229 H 211.503 -0.86237 -4.7717 0
M  V30 2230 N 212.846 1.57033 -0.133567 0
M  V30 2231 C 214.071 2.00475 0.531477 0
M  V30 2232 C 214.496 1.01291 1.58499 0
M  V30 2233 O 213.854 -0.0133279 1.81295 0
M  V30 2234 C 213.902 3.42729 1.12113 0
M  V30 2235 O 213.006 3.46498 2.23636 0
M  V30 2236 H 212.347 0.650876 0.131362 0
M  V30 2237 H 214.877 2.03344 -0.22634 0
M  V30 2238 H 214.887 3.81246 1.4531 0
M  V30 2239 H 213.562 4.14428 0.349557 0
M  V30 2240 H 212.139 3.19811 1.91769 0
M  V30 2241 N 214.325 -0.140222 1.56975 0
M  V30 2242 C 215.741 -0.493088 1.51792 0
M  V30 2243 C 215.941 -1.83013 0.843116 0
M  V30 2244 O 214.997 -2.49041 0.416493 0
M  V30 2245 C 216.31 -0.497144 2.96562 0
M  V30 2246 C 217.858 -0.582186 3.07538 0
M  V30 2247 C 218.333 -0.616838 4.53827 0
M  V30 2248 N 219.824 -0.678873 4.58198 0
M  V30 2249 C 220.559 -0.726782 5.68775 0
M  V30 2250 N 220.055 -0.733623 6.88905 0
M  V30 2251 N 221.848 -0.768179 5.56826 0
M  V30 2252 H 213.999 0.736108 1.99237 0
M  V30 2253 H 216.262 0.269182 0.90898 0
M  V30 2254 H 215.968 0.417217 3.49217 0
M  V30 2255 H 215.842 -1.33263 3.52875 0
M  V30 2256 H 218.229 -1.48697 2.54899 0
M  V30 2257 H 218.31 0.280581 2.54257 0
M  V30 2258 H 217.954 0.283812 5.07106 0
M  V30 2259 H 217.884 -1.49619 5.04898 0
M  V30 2260 H 220.375 -0.68061 3.7172 0
M  V30 2261 H 220.688 -0.772215 7.68932 0
M  V30 2262 H 219.033 -0.701389 6.91452 0
M  V30 2263 H 222.224 -0.760051 4.61888 0
M  V30 2264 H 222.397 -0.80205 6.43017 0
M  V30 2265 N 215.803 -1.52179 -0.40978 0
M  V30 2266 C 217.033 -1.69807 -1.17682 0
M  V30 2267 C 217.441 -0.406908 -1.84773 0
M  V30 2268 O 216.784 0.626863 -1.72673 0
M  V30 2269 C 216.846 -2.77712 -2.2829 0
M  V30 2270 C 216.51 -4.19481 -1.81341 0
M  V30 2271 C 217.507 -5.03345 -1.30154 0
M  V30 2272 C 215.192 -4.65713 -1.88194 0
M  V30 2273 C 217.186 -6.31511 -0.864416 0
M  V30 2274 C 214.873 -5.93869 -1.44093 0
M  V30 2275 C 215.871 -6.76597 -0.933023 0
M  V30 2276 O 215.559 -8.02354 -0.49838 0
M  V30 2277 H 215.291 -0.572372 -0.359675 0
M  V30 2278 H 217.845 -1.99511 -0.488311 0
M  V30 2279 H 216.075 -2.43383 -3.00502 0
M  V30 2280 H 217.764 -2.83946 -2.90051 0
M  V30 2281 H 218.53 -4.68819 -1.24232 0
M  V30 2282 H 214.409 -4.01424 -2.26671 0
M  V30 2283 H 217.953 -6.96033 -0.467286 0
M  V30 2284 H 213.85 -6.27903 -1.49694 0
M  V30 2285 H 214.618 -8.16135 -0.621747 0
M  V30 2286 N 217.281 0.66697 -1.42791 0
M  V30 2287 C 218.697 0.981027 -1.25889 0
M  V30 2288 C 218.897 2.00793 -0.168695 0
M  V30 2289 O 217.953 2.48321 0.45747 0
M  V30 2290 C 219.266 1.47838 -2.61848 0
M  V30 2291 C 220.814 1.59575 -2.69267 0
M  V30 2292 C 221.289 2.12704 -4.05612 0
M  V30 2293 N 222.78 2.20026 -4.07606 0
M  V30 2294 C 223.515 2.62227 -5.09926 0
M  V30 2295 N 223.011 3.03824 -6.22626 0
M  V30 2296 N 224.804 2.62045 -4.97281 0
M  V30 2297 H 216.955 -0.0127891 -2.12396 0
M  V30 2298 H 219.218 0.0568258 -0.946295 0
M  V30 2299 H 218.924 0.798299 -3.4252 0
M  V30 2300 H 218.798 2.45579 -2.86305 0
M  V30 2301 H 221.185 2.26687 -1.88936 0
M  V30 2302 H 221.266 0.60302 -2.48591 0
M  V30 2303 H 220.91 1.46198 -4.86404 0
M  V30 2304 H 220.84 3.12782 -4.23645 0
M  V30 2305 H 223.331 1.90708 -3.2625 0
M  V30 2306 H 223.644 3.34734 -6.96544 0
M  V30 2307 H 221.989 3.01662 -6.26119 0
M  V30 2308 H 225.18 2.28916 -4.08308 0
M  V30 2309 H 225.353 2.94613 -5.77154 0
M  V30 2310 N 218.759 1.29093 0.90403 0
M  V30 2311 C 219.999 1.18076 1.66845 0
M  V30 2312 C 220.363 -0.26436 1.90171 0
M  V30 2313 O 221.564 -0.497423 2.64157 0
M  V30 2314 C 219.835 1.96722 2.98388 0
M  V30 2315 S 221.394 2.0219 3.89441 0
M  V30 2316 H 218.212 0.421104 0.572881 0
M  V30 2317 H 220.814 1.63322 1.07453 0
M  V30 2318 H 219.518 3.00866 2.7912 0
M  V30 2319 H 219.049 1.52064 3.62823 0
M  V30 2320 H 221.064 1.13545 4.83034 0
M  V30 2321 N 220.237 -1.11381 1.11499 0
M  V30 2322 C 221.2 -2.15622 0.777153 0
M  V30 2323 C 222.2 -1.59504 -0.203779 0
M  V30 2324 O 223.39 -1.74188 0.020782 0
M  V30 2325 C 220.522 -3.40556 0.153116 0
M  V30 2326 H 221.715 -2.47021 1.70061 0
M  V30 2327 H 219.268 -1.26577 0.916952 0
M  V30 2328 H 220.003 -3.14767 -0.780536 0
M  V30 2329 H 219.788 -3.8257 0.859238 0
M  V30 2330 H 221.278 -4.17546 -0.0671044 0
M  V30 2331 N 221.715 -0.905404 -1.28997 0
M  V30 2332 C 222.625 -0.392246 -2.31298 0
M  V30 2333 C 223.641 0.515889 -1.66176 0
M  V30 2334 O 224.817 0.404093 -1.97304 0
M  V30 2335 C 221.882 0.36686 -3.44754 0
M  V30 2336 C 220.943 -0.573485 -4.25452 0
M  V30 2337 C 220.176 0.149488 -5.33491 0
M  V30 2338 O 220.399 1.37255 -5.5364 0
M  V30 2339 O 219.333 -0.510919 -5.99728 0
M  V30 2340 H 223.159 -1.2411 -2.77183 0
M  V30 2341 H 220.744 -0.669926 -1.33538 0
M  V30 2342 H 222.626 0.795907 -4.13816 0
M  V30 2343 H 221.301 1.19169 -3.00966 0
M  V30 2344 H 220.208 -1.05176 -3.59011 0
M  V30 2345 H 221.541 -1.36489 -4.72897 0
M  V30 2346 N 223.193 1.4272 -0.668489 0
M  V30 2347 C 224.123 2.335 -0.000100175 0
M  V30 2348 C 225.104 1.50328 0.795964 0
M  V30 2349 O 226.289 1.78949 0.754385 0
M  V30 2350 C 223.419 3.33874 0.956302 0
M  V30 2351 C 222.373 4.27152 0.269278 0
M  V30 2352 C 221.699 5.17684 1.33818 0
M  V30 2353 C 222.999 5.15373 -0.847805 0
M  V30 2354 H 224.693 2.89639 -0.758244 0
M  V30 2355 H 222.239 1.39269 -0.366079 0
M  V30 2356 H 224.192 3.9629 1.43292 0
M  V30 2357 H 222.916 2.76025 1.74579 0
M  V30 2358 H 221.575 3.66123 -0.187042 0
M  V30 2359 H 221.223 4.56165 2.1195 0
M  V30 2360 H 220.923 5.80918 0.883659 0
M  V30 2361 H 222.447 5.82974 1.81586 0
M  V30 2362 H 223.861 5.7151 -0.452681 0
M  V30 2363 H 222.258 5.87407 -1.22773 0
M  V30 2364 H 223.328 4.5415 -1.69929 0
M  V30 2365 N 224.671 0.411399 1.52136 0
M  V30 2366 C 225.581 -0.419774 2.30814 0
M  V30 2367 C 226.597 -1.0515 1.38634 0
M  V30 2368 O 227.773 -1.05252 1.71709 0
M  V30 2369 C 224.838 -1.52019 3.11594 0
M  V30 2370 C 223.899 -0.91129 4.19516 0
M  V30 2371 C 223.132 -1.95927 4.96436 0
M  V30 2372 O 223.355 -3.17775 4.73683 0
M  V30 2373 O 222.289 -1.56423 5.81219 0
M  V30 2374 H 226.115 0.221805 3.02889 0
M  V30 2375 H 223.7 0.174547 1.48377 0
M  V30 2376 H 225.582 -2.15898 3.61892 0
M  V30 2377 H 224.257 -2.14633 2.42311 0
M  V30 2378 H 223.164 -0.235157 3.7336 0
M  V30 2379 H 224.497 -0.32904 4.91099 0
M  V30 2380 N 226.149 -1.5696 0.141893 0
M  V30 2381 C 227.079 -2.19516 -0.795936 0
M  V30 2382 C 228.06 -1.14187 -1.26077 0
M  V30 2383 O 229.245 -1.42511 -1.31925 0
M  V30 2384 C 226.375 -2.81272 -2.03723 0
M  V30 2385 C 225.329 -3.92384 -1.70936 0
M  V30 2386 C 224.655 -4.41052 -3.02287 0
M  V30 2387 C 225.955 -5.13403 -0.959954 0
M  V30 2388 H 227.649 -2.98138 -0.274596 0
M  V30 2389 H 225.195 -1.43406 -0.130636 0
M  V30 2390 H 227.148 -3.237 -2.69808 0
M  V30 2391 H 225.872 -1.99973 -2.58221 0
M  V30 2392 H 224.531 -3.50566 -1.07232 0
M  V30 2393 H 224.179 -3.56582 -3.54765 0
M  V30 2394 H 223.879 -5.15993 -2.81114 0
M  V30 2395 H 225.403 -4.86146 -3.69451 0
M  V30 2396 H 226.817 -5.52706 -1.52279 0
M  V30 2397 H 225.214 -5.94073 -0.848357 0
M  V30 2398 H 226.284 -4.84875 0.0492434 0
M  V30 2399 N 227.627 0.131896 -1.57047 0
M  V30 2400 C 228.537 1.1815 -2.02676 0
M  V30 2401 C 229.553 1.46113 -0.944824 0
M  V30 2402 O 230.729 1.57485 -1.25541 0
M  V30 2403 C 227.794 2.49139 -2.41103 0
M  V30 2404 C 226.855 2.28688 -3.63318 0
M  V30 2405 C 226.088 3.53431 -3.99903 0
M  V30 2406 O 226.311 4.60223 -3.36973 0
M  V30 2407 O 225.245 3.45198 -4.93074 0
M  V30 2408 H 229.071 0.824069 -2.92306 0
M  V30 2409 H 226.656 0.341745 -1.45439 0
M  V30 2410 H 228.538 3.26338 -2.66611 0
M  V30 2411 H 227.213 2.84382 -1.54624 0
M  V30 2412 H 226.12 1.4939 -3.42977 0
M  V30 2413 H 227.453 1.98355 -4.50462 0
M  V30 2414 N 229.106 1.52395 0.401703 0
M  V30 2415 C 230.039 1.70999 1.51111 0
M  V30 2416 C 231.017 0.55765 1.52738 0
M  V30 2417 O 232.201 0.785912 1.71335 0
M  V30 2418 C 229.328 1.75607 2.8962 0
M  V30 2419 C 228.374 2.97227 3.05873 0
M  V30 2420 S 229.207 4.57439 2.78405 0
M  V30 2421 C 230.363 4.64844 4.19131 0
M  V30 2422 H 230.596 2.6483 1.35102 0
M  V30 2423 H 228.129 1.42527 0.593762 0
M  V30 2424 H 230.087 1.78947 3.69443 0
M  V30 2425 H 228.748 0.828914 3.02965 0
M  V30 2426 H 227.941 2.96955 4.07227 0
M  V30 2427 H 227.543 2.91813 2.33925 0
M  V30 2428 H 229.835 4.42677 5.12877 0
M  V30 2429 H 230.778 5.66807 4.24424 0
M  V30 2430 H 231.186 3.93804 4.04448 0
M  V30 2431 N 230.584 -0.659388 1.43143 0
M  V30 2432 C 231.995 -1.24041 1.39537 0
M  V30 2433 C 232.346 -1.95963 0.0963364 0
M  V30 2434 O 231.471 -2.00892 -0.804438 0
M  V30 2435 C 232.066 -2.25601 2.52764 0
M  V30 2436 C 230.625 -2.79195 2.52443 0
M  V30 2437 C 229.772 -1.53743 2.30778 0
M  V30 2438 H 232.723 -0.451792 1.52133 0
M  V30 2439 H 232.744 -3.07651 2.23899 0
M  V30 2440 H 232.256 -1.73226 3.47296 0
M  V30 2441 H 230.357 -3.35649 1.61773 0
M  V30 2442 H 230.47 -3.2716 3.50004 0
M  V30 2443 H 228.834 -1.80869 1.79328 0
M  V30 2444 H 229.617 -1.03312 3.27386 0
M  V30 2445 N 232.062 -1.29571 -0.897171 0
M  V30 2446 C 233.29 -1.20583 -1.68129 0
M  V30 2447 C 233.705 0.233181 -1.87354 0
M  V30 2448 O 233.062 1.15579 -1.41236 0
M  V30 2449 C 233.113 -1.91772 -3.06441 0
M  V30 2450 O 232.834 -3.30053 -2.88091 0
M  V30 2451 C 234.335 -1.89291 -4.00854 0
M  V30 2452 H 231.555 -0.417826 -0.525036 0
M  V30 2453 H 234.099 -1.70987 -1.12177 0
M  V30 2454 H 232.254 -1.45196 -3.59161 0
M  V30 2455 H 232.668 -3.65942 -3.75748 0
M  V30 2456 H 234.142 -2.43662 -4.95311 0
M  V30 2457 H 234.619 -0.869014 -4.30517 0
M  V30 2458 H 235.225 -2.35622 -3.54066 0
M  V30 2459 N 233.54 1.10788 -1.12088 0
M  V30 2460 C 234.951 1.64181 -0.88891 0
M  V30 2461 C 235.302 1.87508 0.577498 0
M  V30 2462 O 234.427 1.61434 1.44112 0
M  V30 2463 C 235.022 2.98257 -1.60712 0
M  V30 2464 C 233.581 3.4853 -1.42139 0
M  V30 2465 C 232.728 2.23208 -1.6454 0
M  V30 2466 H 235.679 0.943368 -1.27618 0
M  V30 2467 H 235.7 3.65552 -1.05604 0
M  V30 2468 H 235.212 2.81246 -2.67436 0
M  V30 2469 H 233.313 3.70692 -0.376552 0
M  V30 2470 H 233.426 4.26882 -2.17505 0
M  V30 2471 H 231.79 2.31169 -1.06925 0
M  V30 2472 H 232.573 2.08733 -2.72554 0
M  V30 2473 N 235.018 0.912232 1.28515 0
M  V30 2474 C 236.434 0.610159 1.47476 0
M  V30 2475 C 236.634 -0.844955 1.82928 0
M  V30 2476 O 235.69 -1.62416 1.93332 0
M  V30 2477 C 237.003 1.54675 2.57868 0
M  V30 2478 C 238.551 1.55331 2.71738 0
M  V30 2479 C 239.026 2.47649 3.85272 0
M  V30 2480 N 240.517 2.45767 3.92623 0
M  V30 2481 C 241.252 3.13896 4.79851 0
M  V30 2482 N 240.748 3.9135 5.71679 0
M  V30 2483 N 242.541 3.02991 4.73448 0
M  V30 2484 H 234.692 1.85318 1.03783 0
M  V30 2485 H 236.955 0.794777 0.516753 0
M  V30 2486 H 236.661 2.5841 2.38574 0
M  V30 2487 H 236.535 1.27671 3.54937 0
M  V30 2488 H 238.922 0.52335 2.90422 0
M  V30 2489 H 239.003 1.86378 1.75205 0
M  V30 2490 H 238.647 3.50745 3.67342 0
M  V30 2491 H 238.577 2.13904 4.81199 0
M  V30 2492 H 241.068 1.89503 3.26951 0
M  V30 2493 H 241.381 4.40359 6.35062 0
M  V30 2494 H 239.726 3.95455 5.71524 0
M  V30 2495 H 242.917 2.41987 4.007 0
M  V30 2496 H 243.09 3.5636 5.41213 0
M  V30 2497 N 236.496 -1.42363 0.676048 0
M  V30 2498 C 237.744 -2.01123 0.198437 0
M  V30 2499 C 238.065 -1.53731 -1.19966 0
M  V30 2500 O 237.335 -0.759518 -1.80577 0
M  V30 2501 H 235.915 -0.743678 0.0703721 0
M  V30 2502 H 238.577 -1.74263 0.872837 0
M  V30 2503 H 237.673 -3.11454 0.200686 0
M  V30 2504 N 237.974 -0.419461 -1.51915 0
M  V30 2505 C 239.214 0.152336 -2.03832 0
M  V30 2506 C 239.578 1.41501 -1.29775 0
M  V30 2507 O 240.779 2.06591 -1.7197 0
M  V30 2508 C 239.05 0.383812 -3.55333 0
M  V30 2509 S 240.609 0.921577 -4.29013 0
M  V30 2510 H 237.427 0.0402193 -0.709862 0
M  V30 2511 H 240.029 -0.574758 -1.8686 0
M  V30 2512 H 238.733 -0.541794 -4.06808 0
M  V30 2513 H 238.264 1.13849 -3.76566 0
M  V30 2514 H 240.279 2.20108 -4.4471 0
M  V30 2515 N 239.452 1.56882 -0.150215 0
M  V30 2516 C 240.4 2.18214 0.805313 0
M  V30 2517 C 241.394 1.14006 1.25296 0
M  V30 2518 O 242.6 1.3225 1.22107 0
M  V30 2519 H 238.975 0.698762 0.277913 0
M  V30 2520 H 240.946 2.97231 0.263862 0
M  V30 2521 C 239.695 2.82065 2.03309 0
M  V30 2522 H 239.018 3.61968 1.69763 0
M  V30 2523 H 240.458 3.28477 2.68103 0
M  V30 2524 C 238.917 1.80739 2.84315 0
M  V30 2525 O 239.447 1.27983 3.80767 0
M  V30 2526 N 237.653 1.4997 2.48913 0
M  V30 2527 H 237.2 1.93062 1.70542 0
M  V30 2528 H 237.158 0.824217 3.03404 0
M  V30 2529 N 240.93 -0.123565 1.57115 0
M  V30 2530 C 242.155 -0.850398 1.89164 0
M  V30 2531 C 242.58 -1.7286 0.741688 0
M  V30 2532 O 241.938 -1.78665 -0.307958 0
M  V30 2533 C 241.986 -1.66353 3.19936 0
M  V30 2534 O 241.09 -2.77004 3.0552 0
M  V30 2535 H 240.431 -0.235454 0.620852 0
M  V30 2536 H 242.961 -0.107335 2.04318 0
M  V30 2537 H 242.971 -2.05372 3.52543 0
M  V30 2538 H 241.646 -1.01881 4.03228 0
M  V30 2539 H 240.223 -2.41221 2.84371 0
M  V30 2540 N 242.408 -1.52605 -0.393616 0
M  V30 2541 C 243.371 -1.76415 -1.46323 0
M  V30 2542 C 244.371 -0.634126 -1.47768 0
M  V30 2543 O 245.561 -0.902142 -1.4902 0
M  V30 2544 C 242.693 -1.8607 -2.85641 0
M  V30 2545 H 243.886 -2.71916 -1.26498 0
M  V30 2546 H 241.439 -1.43257 -0.625073 0
M  V30 2547 H 242.174 -0.925378 -3.10817 0
M  V30 2548 H 241.959 -2.68235 -2.85993 0
M  V30 2549 H 243.449 -2.06179 -3.63153 0
M  V30 2550 N 243.887 0.651787 -1.4349 0
M  V30 2551 C 244.817 1.77621 -1.51569 0
M  V30 2552 C 245.798 1.66022 -0.370253 0
M  V30 2553 O 246.983 1.85095 -0.587658 0
M  V30 2554 C 244.113 3.16056 -1.43966 0
M  V30 2555 C 243.067 3.4242 -2.56774 0
M  V30 2556 C 242.393 4.8067 -2.34223 0
M  V30 2557 C 243.693 3.37023 -3.99015 0
M  V30 2558 H 245.387 1.71117 -2.45681 0
M  V30 2559 H 242.933 0.821825 -1.18246 0
M  V30 2560 H 244.886 3.94472 -1.48221 0
M  V30 2561 H 243.61 3.23293 -0.463586 0
M  V30 2562 H 242.269 2.66375 -2.51873 0
M  V30 2563 H 241.917 4.84585 -1.34856 0
M  V30 2564 H 241.617 4.9927 -3.09844 0
M  V30 2565 H 243.141 5.61342 -2.40265 0
M  V30 2566 H 244.555 4.05374 -4.05395 0
M  V30 2567 H 242.952 3.67159 -4.74673 0
M  V30 2568 H 244.022 2.3518 -4.2405 0
M  V30 2569 N 245.365 1.30045 0.890287 0
M  V30 2570 C 246.611 1.18737 1.64406 0
M  V30 2571 C 246.944 -0.258525 1.92472 0
M  V30 2572 O 246.219 -1.18562 1.54186 0
M  V30 2573 C 246.502 2.01087 2.98724 0
M  V30 2574 C 246.355 3.53867 2.77665 0
M  V30 2575 C 247.674 1.84457 3.9958 0
M  V30 2576 H 244.793 0.432698 0.596608 0
M  V30 2577 H 247.435 1.5962 1.0306 0
M  V30 2578 H 245.585 1.66349 3.51084 0
M  V30 2579 H 247.257 3.98637 2.32133 0
M  V30 2580 H 245.5 3.78318 2.12269 0
M  V30 2581 H 246.171 4.06772 3.7315 0
M  V30 2582 H 248.647 2.14817 3.56361 0
M  V30 2583 H 247.523 2.44411 4.91482 0
M  V30 2584 H 247.784 0.802276 4.3476 0
M  V30 2585 N 246.843 -1.10192 1.12674 0
M  V30 2586 C 248.071 -1.85983 0.906527 0
M  V30 2587 C 248.486 -1.80783 -0.544333 0
M  V30 2588 O 247.843 -1.19834 -1.37645 0
M  V30 2589 C 247.894 -3.34281 1.37618 0
M  V30 2590 O 247.615 -3.39401 2.77017 0
M  V30 2591 C 249.116 -4.26938 1.19325 0
M  V30 2592 H 246.336 -0.587716 0.323775 0
M  V30 2593 H 248.88 -1.39284 1.49734 0
M  V30 2594 H 247.035 -3.78436 0.828539 0
M  V30 2595 H 247.449 -4.31838 2.97684 0
M  V30 2596 H 248.923 -5.29181 1.57071 0
M  V30 2597 H 249.4 -4.38995 0.134097 0
M  V30 2598 H 250.006 -3.8859 1.72852 0
M  V30 2599 N 248.321 -0.919034 -1.28029 0
M  V30 2600 C 249.567 -0.565221 -1.95389 0
M  V30 2601 C 249.922 0.882325 -1.70976 0
M  V30 2602 O 249.215 1.61988 -1.02325 0
M  V30 2603 C 249.409 -0.816855 -3.4794 0
M  V30 2604 C 249.238 -2.28731 -3.87185 0
M  V30 2605 C 248.008 -2.93841 -4.11079 0
M  V30 2606 C 250.206 -3.26415 -3.97439 0
M  V30 2607 N 248.188 -4.31129 -4.37037 0
M  V30 2608 C 249.559 -4.48884 -4.27672 0
M  V30 2609 C 251.614 -3.21742 -3.79982 0
M  V30 2610 C 250.317 -5.67268 -4.42266 0
M  V30 2611 C 252.343 -4.39431 -3.95796 0
M  V30 2612 C 251.705 -5.60675 -4.26407 0
M  V30 2613 H 247.804 -0.256797 -0.738633 0
M  V30 2614 H 250.388 -1.18386 -1.54573 0
M  V30 2615 H 248.559 -0.227445 -3.87733 0
M  V30 2616 H 250.291 -0.426542 -4.02446 0
M  V30 2617 H 247.046 -2.44547 -4.05578 0
M  V30 2618 H 247.47 -5.02127 -4.5409 0
M  V30 2619 H 252.112 -2.29079 -3.55363 0
M  V30 2620 H 249.83 -6.60406 -4.65714 0
M  V30 2621 H 253.416 -4.37323 -3.83719 0
M  V30 2622 H 252.296 -6.50223 -4.38383 0
M  V30 2623 N 249.799 1.42003 -0.683588 0
M  V30 2624 C 251.21 1.84501 -0.285736 0
M  V30 2625 C 251.561 1.57213 1.17382 0
M  V30 2626 O 250.686 1.03642 1.89966 0
M  V30 2627 C 251.281 3.34912 -0.511821 0
M  V30 2628 C 249.84 3.76025 -0.168005 0
M  V30 2629 C 248.987 2.6551 -0.799983 0
M  V30 2630 H 251.938 1.31724 -0.885119 0
M  V30 2631 H 251.959 3.79784 0.233292 0
M  V30 2632 H 251.471 3.54741 -1.57418 0
M  V30 2633 H 249.572 3.61801 0.890567 0
M  V30 2634 H 249.685 4.75141 -0.614661 0
M  V30 2635 H 248.049 2.53654 -0.230568 0
M  V30 2636 H 248.832 2.8816 -1.86597 0
M  V30 2637 N 251.277 0.427512 1.51691 0
M  V30 2638 C 252.525 -0.141948 2.01601 0
M  V30 2639 C 252.846 -1.44067 1.31414 0
M  V30 2640 O 252.116 -1.90763 0.445658 0
M  V30 2641 H 250.696 -0.0554468 0.744939 0
M  V30 2642 H 253.358 0.567968 1.86441 0
M  V30 2643 H 252.454 -0.324913 3.10404 0
M  V30 2644 N 252.755 -1.56801 0.158532 0
M  V30 2645 C 253.985 -2.00568 -0.495583 0
M  V30 2646 C 254.393 -1.03774 -1.58201 0
M  V30 2647 O 253.736 -0.0285797 -1.83678 0
M  V30 2648 C 253.798 -3.40768 -1.14532 0
M  V30 2649 C 253.462 -4.56553 -0.202101 0
M  V30 2650 C 254.459 -5.16714 0.574675 0
M  V30 2651 C 252.144 -5.02197 -0.101648 0
M  V30 2652 C 254.138 -6.20939 1.43924 0
M  V30 2653 C 251.825 -6.06274 0.766508 0
M  V30 2654 C 252.823 -6.65515 1.53555 0
M  V30 2655 O 252.511 -7.67575 2.38922 0
M  V30 2656 H 252.243 -0.662893 -0.13247 0
M  V30 2657 H 254.797 -2.03829 0.253559 0
M  V30 2658 H 253.027 -3.34381 -1.94233 0
M  V30 2659 H 254.716 -3.6857 -1.70033 0
M  V30 2660 H 255.482 -4.82341 0.507167 0
M  V30 2661 H 251.361 -4.55807 -0.689994 0
M  V30 2662 H 254.905 -6.67107 2.03996 0
M  V30 2663 H 250.802 -6.40073 0.835266 0
M  V30 2664 H 251.57 -7.84844 2.32296 0
M  V30 2665 N 254.233 0.115231 -1.57178 0
M  V30 2666 C 255.196 1.12526 -1.99676 0
M  V30 2667 C 256.196 1.34095 -0.88742 0
M  V30 2668 O 257.386 1.30548 -1.15337 0
M  V30 2669 C 254.518 2.4789 -2.34015 0
M  V30 2670 H 255.711 0.759912 -2.90113 0
M  V30 2671 H 253.264 0.359648 -1.52106 0
M  V30 2672 H 253.999 2.89339 -1.4647 0
M  V30 2673 H 253.784 2.33588 -3.14927 0
M  V30 2674 H 255.274 3.20575 -2.67622 0
M  V30 2675 N 255.711 1.52812 0.385517 0
M  V30 2676 C 256.939 1.71907 1.15133 0
M  V30 2677 C 257.354 0.439004 1.83625 0
M  V30 2678 O 256.711 -0.586765 1.7281 0
M  V30 2679 C 256.762 2.87099 2.19673 0
M  V30 2680 O 256.483 4.10151 1.53973 0
M  V30 2681 C 257.984 3.17902 3.08955 0
M  V30 2682 H 255.204 0.575479 0.345057 0
M  V30 2683 H 257.748 1.99476 0.45052 0
M  V30 2684 H 255.903 2.61982 2.85384 0
M  V30 2685 H 256.317 4.74514 2.23465 0
M  V30 2686 H 257.791 4.01959 3.7833 0
M  V30 2687 H 258.268 2.3243 3.72657 0
M  V30 2688 H 258.874 3.44871 2.48885 0
M  V30 2689 N 257.189 -0.644168 1.43834 0
M  V30 2690 C 258.438 -1.39985 1.45214 0
M  V30 2691 C 258.751 -1.95421 0.0835494 0
M  V30 2692 O 259.957 -2.71488 -0.0251748 0
M  V30 2693 C 258.413 -2.53384 2.55587 0
M  V30 2694 C 258.021 -2.04517 3.98594 0
M  V30 2695 C 259.765 -3.30685 2.66172 0
M  V30 2696 C 257.672 -3.1518 5.00416 0
M  V30 2697 H 256.602 -0.526005 0.540218 0
M  V30 2698 H 259.253 -0.694367 1.69855 0
M  V30 2699 H 257.635 -3.26446 2.24163 0
M  V30 2700 H 258.809 -1.38405 4.39523 0
M  V30 2701 H 257.124 -1.40068 3.92135 0
M  V30 2702 H 259.721 -4.13158 3.39418 0
M  V30 2703 H 260.064 -3.79312 1.71546 0
M  V30 2704 H 260.597 -2.64708 2.96942 0
M  V30 2705 H 257.336 -2.71511 5.96625 0
M  V30 2706 H 256.856 -3.79974 4.64091 0
M  V30 2707 H 258.535 -3.80166 5.23529 0
M  V30 2708 N 258.668 -1.30515 -0.883378 0
M  V30 2709 C 259.916 -1.19194 -1.63209 0
M  V30 2710 C 260.237 0.253205 -1.93349 0
M  V30 2711 O 259.507 1.17025 -1.57105 0
M  V30 2712 H 258.087 -0.438148 -0.605009 0
M  V30 2713 H 260.749 -1.63663 -1.05832 0
M  V30 2714 H 259.845 -1.75396 -2.58153 0
M  V30 2715 N 260.146 1.09593 -1.13257 0
M  V30 2716 C 261.394 1.81375 -0.891492 0
M  V30 2717 C 261.715 1.86049 0.584009 0
M  V30 2718 O 260.985 1.34481 1.42449 0
M  V30 2719 H 259.565 0.671708 -0.326828 0
M  V30 2720 H 262.227 1.3256 -1.42877 0
M  V30 2721 H 261.323 2.84612 -1.28071 0
M  V30 2722 N 261.624 0.925811 1.2754 0
M  V30 2723 C 262.872 0.564138 1.94067 0
M  V30 2724 C 263.193 -0.897188 1.73134 0
M  V30 2725 O 262.463 -1.63573 1.07799 0
M  V30 2726 H 261.043 0.205645 0.718136 0
M  V30 2727 H 263.705 1.1778 1.55287 0
M  V30 2728 H 262.801 0.76881 3.02483 0
M  V30 2729 N 263.102 -1.41638 0.69111 0
M  V30 2730 C 264.518 -1.55435 0.362224 0
M  V30 2731 C 264.718 -1.66754 -1.13117 0
M  V30 2732 O 263.774 -1.64348 -1.91692 0
M  V30 2733 C 265.087 -2.79588 1.10684 0
M  V30 2734 C 266.635 -2.9338 1.09075 0
M  V30 2735 C 267.11 -4.20414 1.81703 0
M  V30 2736 N 268.601 -4.27362 1.7865 0
M  V30 2737 C 269.336 -5.24507 2.31689 0
M  V30 2738 N 268.832 -6.27708 2.93179 0
M  V30 2739 N 270.625 -5.16416 2.2197 0
M  V30 2740 H 262.776 -1.32536 1.65976 0
M  V30 2741 H 265.039 -0.639115 0.700168 0
M  V30 2742 H 264.745 -2.77419 2.16175 0
M  V30 2743 H 264.619 -3.70973 0.682545 0
M  V30 2744 H 267.006 -2.95067 0.0441238 0
M  V30 2745 H 267.087 -2.0318 1.55407 0
M  V30 2746 H 266.731 -4.19488 2.86343 0
M  V30 2747 H 266.661 -5.09578 1.32808 0
M  V30 2748 H 269.152 -3.53415 1.33815 0
M  V30 2749 H 269.465 -6.98217 3.31229 0
M  V30 2750 H 267.81 -6.28223 2.97255 0
M  V30 2751 H 271.001 -4.34716 1.73607 0
M  V30 2752 H 271.174 -5.91958 2.63609 0
M  V30 2753 N 264.58 -0.43555 -1.51462 0
M  V30 2754 C 265.81 0.130053 -2.0619 0
M  V30 2755 C 266.218 1.37164 -1.30317 0
M  V30 2756 O 265.561 1.80225 -0.355598 0
M  V30 2757 C 265.623 0.519418 -3.55728 0
M  V30 2758 C 265.287 -0.615119 -4.52841 0
M  V30 2759 C 266.284 -1.48671 -4.9819 0
M  V30 2760 C 263.969 -0.795341 -4.95963 0
M  V30 2761 C 265.963 -2.52324 -5.8533 0
M  V30 2762 C 263.65 -1.83514 -5.82894 0
M  V30 2763 C 264.648 -2.69748 -6.27475 0
M  V30 2764 O 264.336 -3.71944 -7.1268 0
M  V30 2765 H 264.068 0.0121612 -0.675891 0
M  V30 2766 H 266.622 -0.6129 -1.96043 0
M  V30 2767 H 264.852 1.31505 -3.63653 0
M  V30 2768 H 266.541 1.01597 -3.92979 0
M  V30 2769 H 267.307 -1.359 -4.65571 0
M  V30 2770 H 263.186 -0.133713 -4.60806 0
M  V30 2771 H 266.73 -3.19665 -6.20048 0
M  V30 2772 H 262.627 -1.96306 -6.14926 0
M  V30 2773 H 263.395 -3.68503 -7.30854 0
M  V30 2774 N 266.058 1.56714 -0.166846 0
M  V30 2775 C 267.469 1.83378 0.350646 0
M  V30 2776 C 267.82 1.08646 1.63372 0
M  V30 2777 O 266.945 0.338058 2.13743 0
M  V30 2778 C 267.54 3.32643 0.642963 0
M  V30 2779 C 266.099 3.59818 1.10491 0
M  V30 2780 C 265.246 2.76954 0.138411 0
M  V30 2781 H 268.197 1.53803 -0.391193 0
M  V30 2782 H 268.218 3.49878 1.49551 0
M  V30 2783 H 267.73 3.87007 -0.291055 0
M  V30 2784 H 265.831 3.1086 2.05418 0
M  V30 2785 H 265.944 4.68178 1.01716 0
M  V30 2786 H 264.308 2.4666 0.634911 0
M  V30 2787 H 265.091 3.34097 -0.789549 0
M  V30 2788 N 267.536 -0.106894 1.57237 0
M  V30 2789 C 268.761 -0.830287 1.90055 0
M  V30 2790 C 269.186 -1.72064 0.75998 0
M  V30 2791 O 268.544 -1.78982 -0.288991 0
M  V30 2792 C 268.592 -1.6295 3.21683 0
M  V30 2793 O 267.696 -2.73748 3.08441 0
M  V30 2794 H 267.037 -0.228855 0.623315 0
M  V30 2795 H 269.567 -0.085658 2.04421 0
M  V30 2796 H 269.577 -2.01621 3.54701 0
M  V30 2797 H 268.252 -0.975989 4.04286 0
M  V30 2798 H 266.829 -2.38192 2.86913 0
M  V30 2799 N 269.014 -1.53014 -0.377408 0
M  V30 2800 C 270.43 -1.42523 -0.718281 0
M  V30 2801 C 270.63 -0.55487 -1.9371 0
M  V30 2802 O 269.686 -0.0327593 -2.52479 0
M  V30 2803 C 270.999 -2.85546 -0.942539 0
M  V30 2804 C 272.547 -2.95101 -1.04329 0
M  V30 2805 C 273.022 -4.3916 -1.3001 0
M  V30 2806 N 274.513 -4.42536 -1.36806 0
M  V30 2807 C 275.248 -5.51097 -1.58364 0
M  V30 2808 N 274.744 -6.69724 -1.77317 0
M  V30 2809 N 276.537 -5.38657 -1.60638 0
M  V30 2810 H 268.688 -2.08116 0.424426 0
M  V30 2811 H 270.951 -0.939352 0.127759 0
M  V30 2812 H 270.657 -3.51499 -0.118929 0
M  V30 2813 H 270.531 -3.28493 -1.85397 0
M  V30 2814 H 272.918 -2.29309 -1.85745 0
M  V30 2815 H 272.999 -2.55566 -0.109505 0
M  V30 2816 H 272.643 -5.05521 -0.490991 0
M  V30 2817 H 272.573 -4.76258 -2.24691 0
M  V30 2818 H 275.064 -3.57039 -1.23821 0
M  V30 2819 H 275.377 -7.48233 -1.93306 0
M  V30 2820 H 273.722 -6.72732 -1.74518 0
M  V30 2821 H 276.913 -4.44948 -1.45391 0
M  V30 2822 H 277.086 -6.2333 -1.77098 0
M  V30 2823 N 270.492 0.636531 -1.44174 0
M  V30 2824 C 271.439 1.74875 -1.50624 0
M  V30 2825 C 272.409 1.62275 -0.35442 0
M  V30 2826 O 273.594 1.82276 -0.563908 0
M  V30 2827 C 270.734 3.13102 -1.45125 0
M  V30 2828 C 269.847 3.36717 -2.7064 0
M  V30 2829 C 268.982 4.64885 -2.57013 0
M  V30 2830 C 268.021 4.8166 -3.77717 0
M  V30 2831 N 267.158 6.01101 -3.62798 0
M  V30 2832 H 271.998 1.68697 -2.45653 0
M  V30 2833 H 269.535 0.823004 -1.21922 0
M  V30 2834 H 271.493 3.93034 -1.39929 0
M  V30 2835 H 270.123 3.18308 -0.536671 0
M  V30 2836 H 269.175 2.50763 -2.86046 0
M  V30 2837 H 270.487 3.44993 -3.60252 0
M  V30 2838 H 269.641 5.52969 -2.49619 0
M  V30 2839 H 268.38 4.58957 -1.64953 0
M  V30 2840 H 267.385 3.92007 -3.85501 0
M  V30 2841 H 268.61 4.89406 -4.70807 0
M  V30 2842 H 266.556 5.96273 -2.73486 0
M  V30 2843 H 266.473 6.10409 -4.46023 0
M  V30 2844 H 267.741 6.91761 -3.59286 0
M  V30 2845 N 271.97 1.30982 0.876444 0
M  V30 2846 C 272.917 1.18085 1.98304 0
M  V30 2847 C 273.887 0.0682263 1.6596 0
M  V30 2848 O 275.072 0.239937 1.89285 0
M  V30 2849 C 272.212 0.887475 3.33493 0
M  V30 2850 C 271.325 2.08281 3.78475 0
M  V30 2851 C 270.46 1.72678 5.0235 0
M  V30 2852 C 269.499 2.88657 5.39762 0
M  V30 2853 N 268.636 2.53292 6.54819 0
M  V30 2854 H 273.476 2.1275 2.08666 0
M  V30 2855 H 271.013 1.05839 1.02159 0
M  V30 2856 H 272.971 0.697961 4.1132 0
M  V30 2857 H 271.601 -0.022315 3.22792 0
M  V30 2858 H 270.653 2.3833 2.96484 0
M  V30 2859 H 271.965 2.95108 4.02135 0
M  V30 2860 H 271.119 1.50151 5.87826 0
M  V30 2861 H 269.858 0.830327 4.8058 0
M  V30 2862 H 268.863 3.1184 4.52809 0
M  V30 2863 H 270.088 3.79002 5.63502 0
M  V30 2864 H 268.034 1.66163 6.34607 0
M  V30 2865 H 267.951 3.3365 6.7839 0
M  V30 2866 H 269.219 2.34143 7.43503 0
M  V30 2867 N 273.449 -1.08991 1.13837 0
M  V30 2868 C 274.865 -1.33312 0.877506 0
M  V30 2869 C 275.065 -1.95587 -0.48456 0
M  V30 2870 O 274.121 -2.20509 -1.23013 0
M  V30 2871 C 275.434 -2.24045 2.0056 0
M  V30 2872 C 276.982 -2.37542 2.03821 0
M  V30 2873 C 277.457 -3.31614 3.15905 0
M  V30 2874 N 278.948 -3.39189 3.15445 0
M  V30 2875 C 279.683 -4.11992 3.98811 0
M  V30 2876 N 279.179 -4.87553 4.92203 0
M  V30 2877 N 280.972 -4.07762 3.86894 0
M  V30 2878 H 273.123 -0.669456 2.01574 0
M  V30 2879 H 275.386 -0.357482 0.878015 0
M  V30 2880 H 275.092 -1.85521 2.98789 0
M  V30 2881 H 274.966 -3.24466 1.92359 0
M  V30 2882 H 277.353 -2.75327 1.06202 0
M  V30 2883 H 277.434 -1.36884 2.16093 0
M  V30 2884 H 277.078 -2.94551 4.13766 0
M  V30 2885 H 277.008 -4.32186 3.0087 0
M  V30 2886 H 279.499 -2.85314 2.47799 0
M  V30 2887 H 279.812 -5.40549 5.52292 0
M  V30 2888 H 278.157 -4.86627 4.96205 0
M  V30 2889 H 281.348 -3.47833 3.13257 0
M  V30 2890 H 281.521 -4.64238 4.52092 0
M  V30 2891 N 274.927 -0.932562 -1.27047 0
M  V30 2892 C 276.173 -0.585913 -1.94778 0
M  V30 2893 C 276.528 0.864142 -1.71902 0
M  V30 2894 O 275.821 1.60894 -1.04037 0
M  V30 2895 C 276.015 -0.853713 -3.47054 0
M  V30 2896 C 275.844 -2.32825 -3.84737 0
M  V30 2897 C 274.614 -2.98184 -4.07939 0
M  V30 2898 C 276.812 -3.30612 -3.93954 0
M  V30 2899 N 274.794 -4.3574 -4.3244 0
M  V30 2900 C 276.165 -4.53395 -4.22887 0
M  V30 2901 C 278.22 -3.25755 -3.76548 0
M  V30 2902 C 276.923 -5.71927 -4.36224 0
M  V30 2903 C 278.949 -4.43604 -3.91113 0
M  V30 2904 C 278.311 -5.65166 -4.20437 0
M  V30 2905 H 274.41 -0.264617 -0.735868 0
M  V30 2906 H 276.994 -1.20019 -1.53309 0
M  V30 2907 H 275.165 -0.268557 -3.8747 0
M  V30 2908 H 276.897 -0.469202 -4.01971 0
M  V30 2909 H 273.652 -2.48835 -4.02961 0
M  V30 2910 H 274.076 -5.06915 -4.48738 0
M  V30 2911 H 278.718 -2.32835 -3.52913 0
M  V30 2912 H 276.436 -6.65308 -4.58683 0
M  V30 2913 H 280.022 -4.41368 -3.79059 0
M  V30 2914 H 278.902 -6.54836 -4.31462 0
M  V30 2915 N 276.405 1.4127 -0.698611 0
M  V30 2916 C 277.653 2.00782 -0.230409 0
M  V30 2917 C 277.974 1.5562 1.17505 0
M  V30 2918 O 277.244 0.78815 1.79346 0
M  V30 2919 H 275.824 0.742464 -0.0821944 0
M  V30 2920 H 278.486 1.72852 -0.90045 0
M  V30 2921 H 277.582 3.11095 -0.25021 0
M  V30 2922 N 277.883 0.443576 1.51229 0
M  V30 2923 C 278.813 -0.355142 2.30783 0
M  V30 2924 C 279.794 -1.0154 1.36468 0
M  V30 2925 O 280.979 -1.01785 1.65389 0
M  V30 2926 C 278.109 -1.45312 3.15439 0
M  V30 2927 C 277.063 -0.916002 4.18083 0
M  V30 2928 C 276.389 -2.1102 4.91299 0
M  V30 2929 C 277.689 0.0538602 5.22272 0
M  V30 2930 H 279.383 0.308767 2.97804 0
M  V30 2931 H 276.929 0.149937 1.43217 0
M  V30 2932 H 278.882 -2.01914 3.69876 0
M  V30 2933 H 277.606 -2.14541 2.46252 0
M  V30 2934 H 276.265 -0.372145 3.64706 0
M  V30 2935 H 275.913 -2.78882 4.18609 0
M  V30 2936 H 275.613 -1.75717 5.60712 0
M  V30 2937 H 277.137 -2.68164 5.48562 0
M  V30 2938 H 278.551 -0.422069 5.71744 0
M  V30 2939 H 276.948 0.319776 5.99247 0
M  V30 2940 H 278.018 0.98858 4.74716 0
M  V30 2941 N 279.361 -1.56624 0.175154 0
M  V30 2942 C 280.271 -2.21741 -0.766042 0
M  V30 2943 C 281.287 -1.21023 -1.25018 0
M  V30 2944 O 282.463 -1.53697 -1.3015 0
M  V30 2945 C 279.528 -2.84839 -1.97655 0
M  V30 2946 C 278.589 -4.00769 -1.53892 0
M  V30 2947 C 277.822 -4.60849 -2.69173 0
M  V30 2948 O 278.045 -4.19823 -3.86141 0
M  V30 2949 O 276.979 -5.50655 -2.43028 0
M  V30 2950 H 280.805 -3.02738 -0.241585 0
M  V30 2951 H 278.39 -1.49305 -0.053222 0
M  V30 2952 H 280.272 -3.24834 -2.68442 0
M  V30 2953 H 278.947 -2.06836 -2.48999 0
M  V30 2954 H 277.854 -3.65436 -0.80044 0
M  V30 2955 H 279.187 -4.80376 -1.07236 0
M  V30 2956 N 280.839 0.0985539 -1.57292 0
M  V30 2957 C 281.749 1.13824 -2.05137 0
M  V30 2958 C 282.765 1.44076 -0.975604 0
M  V30 2959 O 283.941 1.54786 -1.28853 0
M  V30 2960 C 281.006 2.43969 -2.46333 0
M  V30 2961 C 280.067 2.2093 -3.68087 0
M  V30 2962 C 279.3 3.44869 -4.0731 0
M  V30 2963 O 279.523 4.52972 -3.46659 0
M  V30 2964 O 278.457 3.34661 -5.00285 0
M  V30 2965 H 282.283 0.761881 -2.93988 0
M  V30 2966 H 279.868 0.310818 -1.46131 0
M  V30 2967 H 281.75 3.20609 -2.73473 0
M  V30 2968 H 280.425 2.81038 -1.60621 0
M  V30 2969 H 279.332 1.42081 -3.46069 0
M  V30 2970 H 280.665 1.88755 -4.54568 0
M  V30 2971 N 282.317 1.53212 0.369288 0
M  V30 2972 C 283.28 1.7872 1.43498 0
M  V30 2973 C 284.28 0.657554 1.46741 0
M  V30 2974 O 285.47 0.925736 1.47566 0
M  V30 2975 C 282.602 1.90591 2.82645 0
M  V30 2976 H 283.795 2.73894 1.22156 0
M  V30 2977 H 281.348 1.44233 0.602203 0
M  V30 2978 H 282.083 0.974709 3.09306 0
M  V30 2979 H 281.868 2.72751 2.8169 0
M  V30 2980 H 283.358 2.11931 3.59826 0
M  V30 2981 N 283.795 -0.628877 1.44509 0
M  V30 2982 C 285.211 -0.947305 1.28446 0
M  V30 2983 C 285.411 -2.00275 0.221872 0
M  V30 2984 O 284.467 -2.49447 -0.391471 0
M  V30 2985 C 285.78 -1.40843 2.65676 0
M  V30 2986 C 287.328 -1.52379 2.73404 0
M  V30 2987 C 287.803 -2.01875 4.11109 0
M  V30 2988 N 289.294 -2.09142 4.13296 0
M  V30 2989 C 290.029 -2.48615 5.16699 0
M  V30 2990 N 289.525 -2.87209 6.30462 0
M  V30 2991 N 291.318 -2.48768 5.04054 0
M  V30 2992 H 283.469 0.0690977 2.12288 0
M  V30 2993 H 285.732 -0.0317164 0.947469 0
M  V30 2994 H 285.438 -0.707206 3.44516 0
M  V30 2995 H 285.312 -2.37902 2.92716 0
M  V30 2996 H 287.699 -2.21598 1.9488 0
M  V30 2997 H 287.78 -0.536898 2.50102 0
M  V30 2998 H 287.424 -1.3325 4.90109 0
M  V30 2999 H 287.354 -3.0144 4.31789 0
M  V30 3000 H 289.845 -1.81991 3.31191 0
M  V30 3001 H 290.158 -3.16149 7.05174 0
M  V30 3002 H 288.503 -2.84955 6.33897 0
M  V30 3003 H 291.694 -2.18009 4.14234 0
M  V30 3004 H 291.867 -2.79207 5.84763 0
M  V30 3005 N 285.273 -1.31445 -0.869486 0
M  V30 3006 C 286.684 -1.19042 -1.43826 0
M  V30 3007 C 287.035 0.202919 -1.95148 0
M  V30 3008 O 286.16 1.10071 -1.86315 0
M  V30 3009 C 286.755 -2.15499 -2.6143 0
M  V30 3010 C 285.314 -2.07028 -3.14351 0
M  V30 3011 C 284.461 -2.04701 -1.87063 0
M  V30 3012 H 287.412 -1.43489 -0.677984 0
M  V30 3013 H 287.433 -1.74488 -3.38134 0
M  V30 3014 H 286.945 -3.16899 -2.24046 0
M  V30 3015 H 285.046 -1.08825 -3.56354 0
M  V30 3016 H 285.159 -2.96157 -3.766 0
M  V30 3017 H 283.523 -1.49724 -2.06046 0
M  V30 3018 H 284.306 -3.07857 -1.51917 0
M  V30 3019 N 286.751 1.08385 -1.14413 0
M  V30 3020 C 287.683 2.1519 -0.789036 0
M  V30 3021 C 288.696 1.61638 0.19417 0
M  V30 3022 O 289.885 1.78479 -0.0275711 0
M  V30 3023 C 286.985 3.38565 -0.15058 0
M  V30 3024 C 286.158 4.21501 -1.16857 0
M  V30 3025 C 285.217 5.23277 -0.553832 0
M  V30 3026 O 284.243 5.56041 -1.21686 0
M  V30 3027 N 285.445 5.76629 0.669296 0
M  V30 3028 H 288.21 2.46257 -1.70814 0
M  V30 3029 H 285.771 1.24198 -1.03858 0
M  V30 3030 H 287.763 4.03777 0.273181 0
M  V30 3031 H 286.333 3.05299 0.671667 0
M  V30 3032 H 285.553 3.52265 -1.76926 0
M  V30 3033 H 286.841 4.73731 -1.85624 0
M  V30 3034 H 286.239 5.52243 1.22654 0
M  V30 3035 H 284.796 6.43521 1.03556 0
M  V30 3036 N 288.23 0.939286 1.26551 0
M  V30 3037 C 289.478 0.58469 1.93457 0
M  V30 3038 C 289.799 -0.878774 1.74076 0
M  V30 3039 O 289.069 -1.62421 1.09528 0
M  V30 3040 H 287.649 0.21325 0.715914 0
M  V30 3041 H 290.311 1.1942 1.54029 0
M  V30 3042 H 289.407 0.800849 3.0165 0
M  V30 3043 N 289.708 -1.40897 0.706093 0
M  V30 3044 C 290.671 -2.29131 0.0562841 0
M  V30 3045 C 291.671 -1.44901 -0.697166 0
M  V30 3046 O 292.861 -1.65926 -0.530484 0
M  V30 3047 C 289.993 -3.27957 -0.93043 0
M  V30 3048 H 291.186 -2.88091 0.833284 0
M  V30 3049 H 288.739 -1.4906 0.470192 0
M  V30 3050 H 289.474 -2.73997 -1.73482 0
M  V30 3051 H 289.259 -3.90124 -0.393166 0
M  V30 3052 H 290.749 -3.94049 -1.38256 0
M  V30 3053 N 291.186 -0.45159 -1.50991 0
M  V30 3054 C 292.434 0.109857 -2.01801 0
M  V30 3055 C 292.755 1.41958 -1.3369 0
M  V30 3056 O 292.025 1.9003 -0.475951 0
M  V30 3057 H 290.605 0.0435884 -0.745727 0
M  V30 3058 H 293.267 -0.597557 -1.85514 0
M  V30 3059 H 292.363 0.275489 -3.10882 0
M  V30 3060 N 292.664 1.56529 -0.183458 0
M  V30 3061 C 293.889 2.02064 0.467428 0
M  V30 3062 C 294.314 1.06282 1.55196 0
M  V30 3063 O 293.672 0.0443565 1.81246 0
M  V30 3064 C 293.72 3.46122 1.01153 0
M  V30 3065 O 292.824 3.53437 2.12499 0
M  V30 3066 H 292.165 0.654726 0.110588 0
M  V30 3067 H 294.695 2.02521 -0.290917 0
M  V30 3068 H 294.705 3.85676 1.33108 0
M  V30 3069 H 293.38 4.15331 0.217533 0
M  V30 3070 H 291.957 3.2575 1.81497 0
M  V30 3071 N 294.142 -0.090211 1.57342 0
M  V30 3072 C 295.388 -0.793982 1.86611 0
M  V30 3073 C 295.721 -1.78142 0.773252 0
M  V30 3074 O 294.996 -1.93271 -0.218304 0
M  V30 3075 C 295.279 -1.51839 3.26523 0
M  V30 3076 C 295.132 -0.548609 4.46442 0
M  V30 3077 C 296.451 -2.46779 3.64401 0
M  V30 3078 H 293.57 -0.287186 0.678744 0
M  V30 3079 H 296.212 -0.0575076 1.89913 0
M  V30 3080 H 294.362 -2.14617 3.23839 0
M  V30 3081 H 296.034 0.0725513 4.61243 0
M  V30 3082 H 294.277 0.137614 4.33582 0
M  V30 3083 H 294.948 -1.09271 5.41076 0
M  V30 3084 H 297.424 -1.94089 3.68061 0
M  V30 3085 H 296.3 -2.94479 4.63221 0
M  V30 3086 H 296.561 -3.30758 2.93346 0
M  V30 3087 N 295.62 -1.53406 -0.361157 0
M  V30 3088 C 296.55 -1.83136 -1.44857 0
M  V30 3089 C 297.531 -0.685174 -1.5569 0
M  V30 3090 O 298.716 -0.93544 -1.70186 0
M  V30 3091 C 295.846 -2.02522 -2.82138 0
M  V30 3092 C 294.8 -3.18302 -2.86126 0
M  V30 3093 C 294.126 -3.22989 -4.26125 0
M  V30 3094 C 295.426 -4.56796 -2.53248 0
M  V30 3095 H 297.12 -2.74201 -1.20226 0
M  V30 3096 H 294.666 -1.31938 -0.576922 0
M  V30 3097 H 296.619 -2.21904 -3.58241 0
M  V30 3098 H 295.343 -1.08172 -3.08166 0
M  V30 3099 H 294.002 -2.98747 -2.12475 0
M  V30 3100 H 293.65 -2.26267 -4.49235 0
M  V30 3101 H 293.35 -4.00781 -4.29708 0
M  V30 3102 H 294.874 -3.44559 -5.04094 0
M  V30 3103 H 296.288 -4.7631 -3.19064 0
M  V30 3104 H 294.685 -5.36862 -2.68141 0
M  V30 3105 H 295.755 -4.61606 -1.48484 0
M  V30 3106 N 297.098 0.621204 -1.44841 0
M  V30 3107 C 298.345 1.38055 -1.48145 0
M  V30 3108 C 298.673 1.94143 -0.117867 0
M  V30 3109 O 297.928 1.74713 0.881694 0
M  V30 3110 C 298.227 2.55675 -2.4973 0
M  V30 3111 C 297.893 2.17817 -3.94799 0
M  V30 3112 C 296.555 2.07205 -4.34303 0
M  V30 3113 C 298.907 1.88065 -4.86087 0
M  V30 3114 C 296.235 1.65045 -5.63007 0
M  V30 3115 C 298.587 1.47394 -6.15189 0
M  V30 3116 C 297.251 1.35331 -6.53637 0
M  V30 3117 H 296.521 0.505181 -0.542101 0
M  V30 3118 H 299.168 0.703477 -1.78111 0
M  V30 3119 H 297.473 3.2866 -2.13284 0
M  V30 3120 H 299.17 3.13904 -2.4953 0
M  V30 3121 H 295.76 2.26998 -3.63552 0
M  V30 3122 H 299.944 1.95168 -4.56315 0
M  V30 3123 H 295.2 1.54317 -5.91605 0
M  V30 3124 H 299.374 1.23415 -6.85377 0
M  V30 3125 H 297.001 1.02435 -7.53267 0
M  V30 3126 N 298.576 1.31904 0.862503 0
M  V30 3127 C 299.822 1.23207 1.61838 0
M  V30 3128 C 300.177 -0.206062 1.91293 0
M  V30 3129 O 299.47 -1.14162 1.53875 0
M  V30 3130 C 299.664 2.01713 2.95037 0
M  V30 3131 C 299.493 3.53014 2.78588 0
M  V30 3132 C 298.263 4.22359 2.77382 0
M  V30 3133 C 300.461 4.47819 2.52909 0
M  V30 3134 N 298.443 5.59766 2.52062 0
M  V30 3135 C 299.814 5.72947 2.36922 0
M  V30 3136 C 301.869 4.37162 2.38314 0
M  V30 3137 C 300.572 6.88623 2.07823 0
M  V30 3138 C 302.598 5.5263 2.10604 0
M  V30 3139 C 301.96 6.76752 1.95411 0
M  V30 3140 H 298.059 0.505984 0.596242 0
M  V30 3141 H 300.643 1.66179 1.01452 0
M  V30 3142 H 298.814 1.61098 3.53415 0
M  V30 3143 H 300.546 1.84975 3.59953 0
M  V30 3144 H 297.301 3.74401 2.90036 0
M  V30 3145 H 297.725 6.32135 2.42352 0
M  V30 3146 H 302.367 3.41857 2.48784 0
M  V30 3147 H 300.085 7.83948 1.9609 0
M  V30 3148 H 303.671 5.46307 2.00101 0
M  V30 3149 H 302.551 7.6459 1.74274 0
M  V30 3150 N 300.054 -1.07777 1.14986 0
M  V30 3151 C 301.302 -1.79934 0.920235 0
M  V30 3152 C 301.623 -1.86955 -0.554336 0
M  V30 3153 O 300.893 -1.36731 -1.40291 0
M  V30 3154 H 299.473 -0.666424 0.337473 0
M  V30 3155 H 302.135 -1.3027 1.44968 0
M  V30 3156 H 301.231 -2.82539 1.32583 0
M  V30 3157 N 301.532 -0.945985 -1.26051 0
M  V30 3158 C 302.78 -0.594941 -1.93145 0
M  V30 3159 C 303.101 0.86953 -1.7454 0
M  V30 3160 O 302.371 1.61838 -1.10387 0
M  V30 3161 H 300.951 -0.217044 -0.714773 0
M  V30 3162 H 303.613 -1.20235 -1.53393 0
M  V30 3163 H 302.709 -0.816835 -3.01221 0
M  V30 3164 N 303.011 1.40521 -0.713556 0
M  V30 3165 C 303.974 2.29098 -0.0684347 0
M  V30 3166 C 304.974 1.45268 0.689472 0
M  V30 3167 O 306.164 1.66205 0.521677 0
M  V30 3168 C 303.296 3.28446 0.913024 0
M  V30 3169 H 304.489 2.87645 -0.84855 0
M  V30 3170 H 302.042 1.48809 -0.47809 0
M  V30 3171 H 302.777 2.74913 1.72027 0
M  V30 3172 H 302.562 3.90327 0.372472 0
M  V30 3173 H 304.052 3.94777 1.36165 0
M  V30 3174 N 304.489 0.459591 1.5075 0
M  V30 3175 C 305.422 -0.386257 2.24907 0
M  V30 3176 C 306.4 -1.006 1.27744 0
M  V30 3177 O 307.584 -1.04416 1.56938 0
M  V30 3178 C 304.711 -1.54021 3.01654 0
M  V30 3179 C 303.757 -1.03898 4.13651 0
M  V30 3180 S 304.59 0.0370501 5.35487 0
M  V30 3181 C 305.746 -1.12105 6.15779 0
M  V30 3182 H 305.979 0.243272 2.96303 0
M  V30 3183 H 303.512 0.244339 1.52454 0
M  V30 3184 H 305.47 -2.20163 3.46466 0
M  V30 3185 H 304.131 -2.14121 2.29806 0
M  V30 3186 H 303.324 -1.90254 4.66711 0
M  V30 3187 H 302.926 -0.45545 3.71216 0
M  V30 3188 H 305.218 -2.03501 6.46215 0
M  V30 3189 H 306.161 -0.62995 7.05292 0
M  V30 3190 H 306.569 -1.36967 5.47631 0
M  V30 3191 N 305.967 -1.56429 0.191757 0
M  V30 3192 C 306.877 -2.22541 -0.742481 0
M  V30 3193 C 307.893 -1.22342 -1.23727 0
M  V30 3194 O 309.069 -1.55069 -1.28513 0
M  V30 3195 C 306.134 -2.8692 -1.94623 0
M  V30 3196 C 305.195 -4.02378 -1.49633 0
M  V30 3197 C 304.428 -4.63678 -2.6427 0
M  V30 3198 O 304.651 -4.23895 -3.81666 0
M  V30 3199 O 303.585 -5.53202 -2.37174 0
M  V30 3200 H 307.411 -3.02977 -0.209462 0
M  V30 3201 H 304.996 -1.49353 -0.0373832 0
M  V30 3202 H 306.878 -3.27663 -2.64982 0
M  V30 3203 H 305.553 -2.09466 -2.46791 0
M  V30 3204 H 304.46 -3.66265 -0.761636 0
M  V30 3205 H 305.793 -4.81487 -1.02134 0
M  V30 3206 N 307.445 0.0818655 -1.57387 0
M  V30 3207 C 308.392 1.09834 -2.0299 0
M  V30 3208 C 309.362 1.39043 -0.908639 0
M  V30 3209 O 310.547 1.50282 -1.17559 0
M  V30 3210 C 307.687 2.40971 -2.47037 0
M  V30 3211 C 306.8 2.18379 -3.7274 0
M  V30 3212 C 305.935 3.43008 -4.0561 0
M  V30 3213 C 304.974 3.15736 -5.24383 0
M  V30 3214 N 304.111 4.32667 -5.52941 0
M  V30 3215 H 308.951 0.702472 -2.89602 0
M  V30 3216 H 306.488 0.33531 -1.43227 0
M  V30 3217 H 308.446 3.1752 -2.70623 0
M  V30 3218 H 307.076 2.78379 -1.63417 0
M  V30 3219 H 306.128 1.32569 -3.56552 0
M  V30 3220 H 307.44 1.94227 -4.59431 0
M  V30 3221 H 306.594 4.27958 -4.30043 0
M  V30 3222 H 305.333 3.70225 -3.17466 0
M  V30 3223 H 304.338 2.2918 -4.99757 0
M  V30 3224 H 305.563 2.8985 -6.14136 0
M  V30 3225 H 303.509 4.59935 -4.67756 0
M  V30 3226 H 303.426 4.11753 -6.34031 0
M  V30 3227 H 304.694 5.18644 -5.81918 0
M  V30 3228 N 308.923 1.53595 0.353017 0
M  V30 3229 C 310.151 1.74311 1.1146 0
M  V30 3230 C 310.566 0.477854 1.82653 0
M  V30 3231 O 309.923 -0.549977 1.74016 0
M  V30 3232 C 309.974 2.91694 2.13534 0
M  V30 3233 O 309.695 4.13325 1.45238 0
M  V30 3234 C 311.196 3.24384 3.02142 0
M  V30 3235 H 308.416 0.582669 0.332773 0
M  V30 3236 H 310.96 2.00386 0.408107 0
M  V30 3237 H 309.115 2.67977 2.79763 0
M  V30 3238 H 309.529 4.79148 2.13349 0
M  V30 3239 H 311.003 4.09893 3.69718 0
M  V30 3240 H 311.48 2.40282 3.67643 0
M  V30 3241 H 312.086 3.50073 2.41514 0
M  V30 3242 N 310.401 -0.613514 1.45168 0
M  V30 3243 C 311.649 -1.36997 1.48581 0
M  V30 3244 C 311.97 -1.94589 0.126545 0
M  V30 3245 O 311.24 -1.76816 -0.843372 0
M  V30 3246 H 309.82 -0.508558 0.547154 0
M  V30 3247 H 312.482 -0.720853 1.81079 0
M  V30 3248 H 311.578 -2.1924 2.22127 0
M  V30 3249 N 311.879 -1.3236 -0.855495 0
M  V30 3250 C 313.126 -1.22872 -1.60962 0
M  V30 3251 C 313.454 0.209658 -1.93367 0
M  V30 3252 O 312.709 1.16243 -1.57436 0
M  V30 3253 C 313.008 -2.03275 -2.93963 0
M  V30 3254 C 312.674 -3.5264 -2.80991 0
M  V30 3255 C 311.336 -3.93364 -2.7716 0
M  V30 3256 C 313.688 -4.47626 -2.66983 0
M  V30 3257 C 311.016 -5.27319 -2.572 0
M  V30 3258 C 313.368 -5.81723 -2.48558 0
M  V30 3259 C 312.032 -6.2165 -2.4312 0
M  V30 3260 H 311.302 -0.44962 -0.589001 0
M  V30 3261 H 313.949 -1.63777 -0.992442 0
M  V30 3262 H 312.254 -1.55095 -3.59795 0
M  V30 3263 H 313.951 -1.93303 -3.51333 0
M  V30 3264 H 310.541 -3.20295 -2.84797 0
M  V30 3265 H 314.725 -4.17084 -2.68988 0
M  V30 3266 H 309.981 -5.57311 -2.51424 0
M  V30 3267 H 314.155 -6.5494 -2.36699 0
M  V30 3268 H 311.782 -7.25388 -2.27412 0
M  V30 3269 N 313.357 1.07166 -1.15556 0
M  V30 3270 C 314.773 1.31899 -0.898603 0
M  V30 3271 C 314.973 1.96333 0.453383 0
M  V30 3272 O 314.029 2.22438 1.19489 0
M  V30 3273 C 315.342 2.20826 -2.04099 0
M  V30 3274 C 316.89 2.34269 -2.07574 0
M  V30 3275 C 317.365 3.26546 -3.21141 0
M  V30 3276 N 318.856 3.34127 -3.20801 0
M  V30 3277 C 319.591 4.05595 -4.05315 0
M  V30 3278 N 319.087 4.79661 -4.99897 0
M  V30 3279 N 320.88 4.01555 -3.93332 0
M  V30 3280 H 313.031 0.637302 -2.02613 0
M  V30 3281 H 315.294 0.343468 -0.883591 0
M  V30 3282 H 315 1.80744 -3.01703 0
M  V30 3283 H 314.874 3.21364 -1.97496 0
M  V30 3284 H 317.261 2.73603 -1.10568 0
M  V30 3285 H 317.342 1.33429 -2.18244 0
M  V30 3286 H 316.986 2.87931 -4.184 0
M  V30 3287 H 316.916 4.27345 -3.07708 0
M  V30 3288 H 319.407 2.81336 -2.52306 0
M  V30 3289 H 319.72 5.31694 -5.60822 0
M  V30 3290 H 318.065 4.78671 -5.03884 0
M  V30 3291 H 321.256 3.42806 -3.18751 0
M  V30 3292 H 321.429 4.56987 -4.5942 0
M  V30 3293 N 314.835 0.952656 1.25548 0
M  V30 3294 C 315.765 0.489287 2.28316 0
M  V30 3295 C 316.746 -0.463359 1.63667 0
M  V30 3296 O 317.931 -0.36274 1.90782 0
M  V30 3297 C 315.061 -0.235603 3.465 0
M  V30 3298 C 314.015 0.631593 4.23314 0
M  V30 3299 C 313.341 -0.223923 5.34231 0
M  V30 3300 C 314.641 1.90871 4.86174 0
M  V30 3301 H 316.335 1.34822 2.67326 0
M  V30 3302 H 313.881 0.649728 1.28509 0
M  V30 3303 H 315.834 -0.570882 4.17515 0
M  V30 3304 H 314.558 -1.12877 3.06474 0
M  V30 3305 H 313.217 0.949929 3.54079 0
M  V30 3306 H 312.865 -1.11678 4.90446 0
M  V30 3307 H 312.565 0.35299 5.86539 0
M  V30 3308 H 314.089 -0.554214 6.0808 0
M  V30 3309 H 315.503 1.63997 5.49343 0
M  V30 3310 H 313.9 2.43112 5.4865 0
M  V30 3311 H 314.97 2.61304 4.08471 0
M  V30 3312 N 316.313 -1.40141 0.720998 0
M  V30 3313 C 317.246 -2.2819 0.020916 0
M  V30 3314 C 318.224 -1.43633 -0.762129 0
M  V30 3315 O 319.408 -1.7304 -0.747633 0
M  V30 3316 C 316.535 -3.24281 -0.977715 0
M  V30 3317 C 315.581 -4.25548 -0.284836 0
M  V30 3318 S 316.414 -5.26247 0.991169 0
M  V30 3319 C 317.57 -6.259 -0.0052214 0
M  V30 3320 H 317.803 -2.87218 0.767649 0
M  V30 3321 H 315.336 -1.45656 0.512233 0
M  V30 3322 H 317.294 -3.80167 -1.54865 0
M  V30 3323 H 315.955 -2.643 -1.69719 0
M  V30 3324 H 315.148 -4.93154 -1.03996 0
M  V30 3325 H 314.75 -3.73389 0.213684 0
M  V30 3326 H 317.042 -6.72143 -0.850279 0
M  V30 3327 H 317.985 -7.05224 0.637599 0
M  V30 3328 H 318.393 -5.63277 -0.371366 0
M  V30 3329 N 317.792 -0.46758 -1.50504 0
M  V30 3330 C 318.702 0.33382 -2.32213 0
M  V30 3331 C 319.718 0.999323 -1.42441 0
M  V30 3332 O 320.894 0.988068 -1.75497 0
M  V30 3333 C 317.959 1.4035 -3.17022 0
M  V30 3334 C 317.02 0.754961 -4.2261 0
M  V30 3335 C 316.253 1.77367 -5.03365 0
M  V30 3336 O 316.476 2.99976 -4.8515 0
M  V30 3337 O 315.41 1.34744 -5.86624 0
M  V30 3338 H 319.236 -0.334067 -3.01857 0
M  V30 3339 H 316.821 -0.229496 -1.47627 0
M  V30 3340 H 318.703 2.02318 -3.69656 0
M  V30 3341 H 317.378 2.05492 -2.5011 0
M  V30 3342 H 316.285 0.0964244 -3.73976 0
M  V30 3343 H 317.618 0.146545 -4.91982 0
M  V30 3344 N 319.27 1.56325 -0.20005 0
M  V30 3345 C 320.686 1.58839 0.155716 0
M  V30 3346 C 320.886 1.21636 1.60645 0
M  V30 3347 O 319.942 0.941437 2.34293 0
M  V30 3348 C 321.255 3.0032 -0.151124 0
M  V30 3349 C 322.803 3.12866 -0.0916284 0
M  V30 3350 C 323.278 4.56488 -0.371845 0
M  V30 3351 N 324.769 4.62089 -0.320641 0
M  V30 3352 C 325.504 5.71116 -0.511243 0
M  V30 3353 N 325 6.88592 -0.762461 0
M  V30 3354 N 326.793 5.60335 -0.445157 0
M  V30 3355 H 318.944 1.78788 -1.14668 0
M  V30 3356 H 321.207 0.829996 -0.458051 0
M  V30 3357 H 320.913 3.32117 -1.15721 0
M  V30 3358 H 320.787 3.73257 0.543986 0
M  V30 3359 H 323.174 2.80878 0.905065 0
M  V30 3360 H 323.255 2.42304 -0.81989 0
M  V30 3361 H 322.899 4.89189 -1.36588 0
M  V30 3362 H 322.829 5.25246 0.377362 0
M  V30 3363 H 325.32 3.77665 -0.13329 0
M  V30 3364 H 325.633 7.67581 -0.896576 0
M  V30 3365 H 323.978 6.90387 -0.799412 0
M  V30 3366 H 327.169 4.67436 -0.249278 0
M  V30 3367 H 327.342 6.45243 -0.597116 0
M  V30 3368 N 320.748 -0.0735177 1.57428 0
M  V30 3369 C 321.711 -1.07192 2.02589 0
M  V30 3370 C 322.711 -1.31695 0.922661 0
M  V30 3371 O 323.901 -1.27445 1.18758 0
M  V30 3372 C 321.033 -2.41599 2.40506 0
M  V30 3373 H 322.226 -0.682727 2.92025 0
M  V30 3374 H 319.779 -0.319193 1.53006 0
M  V30 3375 H 320.514 -2.85354 1.5409 0
M  V30 3376 H 320.299 -2.25156 3.21009 0
M  V30 3377 H 321.789 -3.13367 2.76027 0
M  V30 3378 N 322.226 -1.5378 -0.344866 0
M  V30 3379 C 323.176 -1.78057 -1.42407 0
M  V30 3380 C 324.16 -0.635732 -1.47808 0
M  V30 3381 O 325.352 -0.89508 -1.527 0
M  V30 3382 C 322.481 -1.99242 -2.79566 0
M  V30 3383 C 321.567 -3.19787 -2.78562 0
M  V30 3384 N 321.958 -4.41284 -2.47189 0
M  V30 3385 C 320.256 -3.2093 -3.0971 0
M  V30 3386 C 320.957 -5.23128 -2.54385 0
M  V30 3387 N 319.933 -4.59813 -2.89953 0
M  V30 3388 H 323.735 -2.69588 -1.17046 0
M  V30 3389 H 321.249 -1.52687 -0.553217 0
M  V30 3390 H 323.246 -2.14768 -3.57324 0
M  V30 3391 H 321.906 -1.08953 -3.05875 0
M  V30 3392 H 322.917 -4.68657 -2.20411 0
M  V30 3393 H 319.594 -2.40603 -3.41199 0
M  V30 3394 H 320.984 -6.30096 -2.333 0
M  V30 3395 N 323.704 0.605807 -1.45491 0
M  V30 3396 C 324.952 1.36207 -1.49305 0
M  V30 3397 C 325.273 1.94519 -0.136863 0
M  V30 3398 O 324.543 1.77261 0.833983 0
M  V30 3399 H 323.123 0.50565 -0.549843 0
M  V30 3400 H 325.785 0.711239 -1.81459 0
M  V30 3401 H 324.881 2.18058 -2.23287 0
M  V30 3402 N 325.182 1.32811 0.848464 0
M  V30 3403 C 326.43 1.23479 1.59991 0
M  V30 3404 C 326.751 -0.201853 1.93952 0
M  V30 3405 O 326.021 -1.12818 1.60153 0
M  V30 3406 H 324.601 0.454034 0.593179 0
M  V30 3407 H 327.263 1.66412 1.01455 0
M  V30 3408 H 326.359 1.82178 2.53412 0
M  V30 3409 N 326.66 -1.06551 1.16123 0
M  V30 3410 C 327.908 -1.78947 0.939267 0
M  V30 3411 C 328.229 -1.87532 -0.534476 0
M  V30 3412 O 327.499 -1.38211 -1.38833 0
M  V30 3413 H 326.079 -0.662807 0.344523 0
M  V30 3414 H 328.741 -1.28725 1.46342 0
M  V30 3415 H 327.837 -2.81117 1.35572 0
M  V30 3416 N 328.138 -0.959301 -1.25041 0
M  V30 3417 C 329.385 -0.616611 -1.92884 0
M  V30 3418 C 329.713 0.847036 -1.75087 0
M  V30 3419 O 328.968 1.62374 -1.09239 0
M  V30 3420 C 329.267 -0.927136 -3.45165 0
M  V30 3421 C 328.933 -2.37757 -3.83122 0
M  V30 3422 C 327.595 -2.77402 -3.93194 0
M  V30 3423 C 329.947 -3.31929 -4.01836 0
M  V30 3424 C 327.275 -4.10277 -4.19392 0
M  V30 3425 C 329.627 -4.64423 -4.29528 0
M  V30 3426 C 328.291 -5.03857 -4.37818 0
M  V30 3427 H 327.561 -0.225634 -0.705812 0
M  V30 3428 H 330.208 -1.20921 -1.48493 0
M  V30 3429 H 328.513 -0.252195 -3.90987 0
M  V30 3430 H 330.21 -0.6405 -3.95852 0
M  V30 3431 H 326.8 -2.06013 -3.75841 0
M  V30 3432 H 330.984 -3.02488 -3.93465 0
M  V30 3433 H 326.24 -4.40467 -4.24027 0
M  V30 3434 H 330.414 -5.37369 -4.42953 0
M  V30 3435 H 328.041 -6.06843 -4.57871 0
M  V30 3436 N 329.616 1.39756 -0.72842 0
M  V30 3437 C 330.862 2.00942 -0.273892 0
M  V30 3438 C 331.195 1.57656 1.13394 0
M  V30 3439 O 330.47 0.802434 1.77176 0
M  V30 3440 C 330.753 3.58211 -0.368346 0
M  V30 3441 C 330.606 4.11534 -1.81548 0
M  V30 3442 C 331.925 4.39372 0.253054 0
M  V30 3443 H 329.044 0.730047 -0.100996 0
M  V30 3444 H 331.686 1.66056 -0.923337 0
M  V30 3445 H 329.836 3.88061 0.184588 0
M  V30 3446 H 331.508 3.92431 -2.42478 0
M  V30 3447 H 329.751 3.65341 -2.33898 0
M  V30 3448 H 330.422 5.20682 -1.83288 0
M  V30 3449 H 332.898 4.15527 -0.218224 0
M  V30 3450 H 331.774 5.48677 0.156585 0
M  V30 3451 H 332.035 4.21358 1.33826 0
M  V30 3452 N 331.094 0.475555 1.50254 0
M  V30 3453 C 332.34 -0.0701075 2.03279 0
M  V30 3454 C 332.695 -1.37007 1.35081 0
M  V30 3455 O 331.988 -1.8577 0.469052 0
M  V30 3456 C 332.182 -0.305114 3.56095 0
M  V30 3457 C 332.011 0.970515 4.39103 0
M  V30 3458 C 330.781 1.51509 4.82051 0
M  V30 3459 C 332.979 1.8671 4.79212 0
M  V30 3460 N 330.961 2.73928 5.49397 0
M  V30 3461 C 332.332 2.93715 5.46014 0
M  V30 3462 C 334.387 1.87695 4.61167 0
M  V30 3463 C 333.09 4.01699 5.96683 0
M  V30 3464 C 335.116 2.94637 5.12779 0
M  V30 3465 C 334.478 4.00361 5.79561 0
M  V30 3466 H 330.577 0.014486 0.781866 0
M  V30 3467 H 333.161 0.644755 1.83714 0
M  V30 3468 H 331.332 -0.989019 3.75597 0
M  V30 3469 H 333.064 -0.845516 3.95769 0
M  V30 3470 H 329.819 1.06367 4.61501 0
M  V30 3471 H 330.243 3.36109 5.87673 0
M  V30 3472 H 334.885 1.07273 4.08965 0
M  V30 3473 H 332.603 4.82934 6.4792 0
M  V30 3474 H 336.189 2.96388 5.00645 0
M  V30 3475 H 335.069 4.81751 6.18778 0
M  V30 3476 N 332.573 -1.56217 0.208337 0
M  V30 3477 C 333.821 -1.97558 -0.426076 0
M  V30 3478 C 334.142 -1.09683 -1.61229 0
M  V30 3479 O 333.412 -0.170956 -1.95153 0
M  V30 3480 H 331.992 -0.729575 -0.160405 0
M  V30 3481 H 334.654 -1.92606 0.298155 0
M  V30 3482 H 333.75 -3.02672 -0.761312 0
M  V30 3483 N 334.051 0.0651679 -1.57465 0
M  V30 3484 C 335.467 0.420105 -1.53972 0
M  V30 3485 C 335.667 1.78782 -0.929474 0
M  V30 3486 O 334.723 2.46771 -0.534839 0
M  V30 3487 C 336.036 0.355084 -2.98596 0
M  V30 3488 C 337.584 0.434792 -3.09965 0
M  V30 3489 C 338.059 0.399609 -4.56253 0
M  V30 3490 N 339.55 0.459488 -4.60915 0
M  V30 3491 C 340.285 0.454584 -5.71595 0
M  V30 3492 N 339.781 0.404102 -6.9162 0
M  V30 3493 N 341.574 0.501635 -5.59857 0
M  V30 3494 H 333.725 -0.830328 -1.95498 0
M  V30 3495 H 335.988 -0.312244 -0.895102 0
M  V30 3496 H 335.694 -0.583357 -3.46828 0
M  V30 3497 H 335.568 1.16275 -3.58831 0
M  V30 3498 H 337.955 1.36366 -2.61703 0
M  V30 3499 H 338.036 -0.40157 -2.52628 0
M  V30 3500 H 337.68 -0.525436 -5.05175 0
M  V30 3501 H 337.61 1.25359 -5.11461 0
M  V30 3502 H 340.101 0.502482 -3.74544 0
M  V30 3503 H 340.414 0.404468 -7.71741 0
M  V30 3504 H 338.759 0.37069 -6.94011 0
M  V30 3505 H 341.95 0.538812 -4.64989 0
M  V30 3506 H 342.123 0.494345 -6.46112 0
M  V30 3507 N 335.529 1.53961 0.336706 0
M  V30 3508 C 336.754 1.75797 1.10046 0
M  V30 3509 C 337.179 0.498985 1.81361 0
M  V30 3510 O 336.537 -0.548769 1.72795 0
M  V30 3511 C 336.585 2.94257 2.08436 0
M  V30 3512 O 335.689 2.64883 3.16087 0
M  V30 3513 H 335.03 0.582936 0.317934 0
M  V30 3514 H 337.56 2.00945 0.38501 0
M  V30 3515 H 337.57 3.21237 2.51537 0
M  V30 3516 H 336.245 3.85564 1.55927 0
M  V30 3517 H 334.822 2.48812 2.77753 0
M  V30 3518 N 337.007 -0.598083 1.45811 0
M  V30 3519 C 337.97 -1.69018 1.54808 0
M  V30 3520 C 338.97 -1.55037 0.426652 0
M  V30 3521 O 340.16 -1.59932 0.690456 0
M  V30 3522 C 337.292 -3.0835 1.45371 0
M  V30 3523 H 338.485 -1.62403 2.52121 0
M  V30 3524 H 336.038 -0.814626 1.33392 0
M  V30 3525 H 336.773 -3.20534 0.492793 0
M  V30 3526 H 336.558 -3.19907 2.26721 0
M  V30 3527 H 338.048 -3.8788 1.54721 0
M  V30 3528 N 338.485 -1.33259 -0.841409 0
M  V30 3529 C 339.901 -1.12538 -1.13169 0
M  V30 3530 C 340.101 0.0854037 -2.01319 0
M  V30 3531 O 339.157 0.766417 -2.40587 0
M  V30 3532 C 340.47 -2.41156 -1.79623 0
M  V30 3533 C 342.018 -2.47038 -1.922 0
M  V30 3534 C 342.493 -3.7561 -2.6207 0
M  V30 3535 N 343.984 -3.76667 -2.69585 0
M  V30 3536 C 344.719 -4.72861 -3.2433 0
M  V30 3537 N 344.215 -5.79428 -3.79783 0
M  V30 3538 N 346.008 -4.6034 -3.22558 0
M  V30 3539 H 338.159 -2.10868 -0.254676 0
M  V30 3540 H 340.422 -0.931615 -0.175493 0
M  V30 3541 H 340.128 -3.29747 -1.22311 0
M  V30 3542 H 340.002 -2.53114 -2.79666 0
M  V30 3543 H 342.389 -1.58898 -2.48667 0
M  V30 3544 H 342.47 -2.39022 -0.911148 0
M  V30 3545 H 342.114 -4.64131 -2.06263 0
M  V30 3546 H 342.044 -3.80902 -3.63622 0
M  V30 3547 H 344.535 -2.99648 -2.30259 0
M  V30 3548 H 344.848 -6.48867 -4.19752 0
M  V30 3549 H 343.193 -5.83166 -3.78078 0
M  V30 3550 H 346.384 -3.76244 -2.78492 0
M  V30 3551 H 346.557 -5.35478 -3.64921 0
M  V30 3552 N 339.963 1.05934 -1.16686 0
M  V30 3553 C 341.24 1.75643 -0.860747 0
M  V30 3554 C 341.62 2.01144 0.640641 0
M  V30 3555 O 340.968 1.64147 1.58959 0
M  V30 3556 C 341.178 3.05493 -1.68745 0
M  V30 3557 C 342.526 3.79581 -1.90271 0
M  V30 3558 O 343.55 3.15344 -1.65641 0
M  V30 3559 O 342.409 4.9499 -2.31618 0
M  V30 3560 H 339.503 0.763426 -0.317977 0
M  V30 3561 H 342.049 1.1217 -1.27342 0
M  V30 3562 H 340.821 2.8264 -2.70611 0
M  V30 3563 H 340.444 3.76702 -1.27206 0
M  V30 3564 N 341.441 0.965919 1.2453 0
M  V30 3565 C 342.689 0.625593 1.92174 0
M  V30 3566 C 343.01 -0.841652 1.75901 0
M  V30 3567 O 342.28 -1.60061 1.12948 0
M  V30 3568 H 340.86 0.228388 0.71123 0
M  V30 3569 H 343.522 1.2266 1.51461 0
M  V30 3570 H 342.618 0.864653 2.99884 0
M  V30 3571 N 342.919 -1.39368 0.735821 0
M  V30 3572 C 344.335 -1.54204 0.411492 0
M  V30 3573 C 344.535 -1.70268 -1.07755 0
M  V30 3574 O 343.591 -1.70364 -1.86366 0
M  V30 3575 C 344.904 -2.75925 1.19523 0
M  V30 3576 C 346.452 -2.89761 1.18354 0
M  V30 3577 C 346.927 -4.14421 1.94986 0
M  V30 3578 N 348.418 -4.21462 1.92156 0
M  V30 3579 C 349.153 -5.16871 2.48258 0
M  V30 3580 N 348.649 -6.18063 3.13001 0
M  V30 3581 N 350.442 -5.09093 2.38287 0
M  V30 3582 H 342.593 -1.27189 1.70108 0
M  V30 3583 H 344.856 -0.616517 0.720147 0
M  V30 3584 H 344.562 -2.70401 2.24892 0
M  V30 3585 H 344.436 -3.68614 0.800222 0
M  V30 3586 H 346.823 -2.94777 0.137975 0
M  V30 3587 H 346.904 -1.98133 1.61793 0
M  V30 3588 H 346.548 -4.10166 2.99543 0
M  V30 3589 H 346.478 -5.05095 1.48953 0
M  V30 3590 H 348.969 -3.48979 1.44991 0
M  V30 3591 H 349.282 -6.87326 3.53275 0
M  V30 3592 H 347.627 -6.18448 3.17091 0
M  V30 3593 H 350.818 -4.28973 1.8735 0
M  V30 3594 H 350.991 -5.83272 2.82308 0
M  V30 3595 N 344.397 -0.483516 -1.5 0
M  V30 3596 C 345.813 -0.138404 -1.58999 0
M  V30 3597 C 346.013 1.35597 -1.4905 0
M  V30 3598 O 345.069 2.13039 -1.35539 0
M  V30 3599 C 346.382 -0.699658 -2.92447 0
M  V30 3600 C 347.93 -0.664195 -3.05872 0
M  V30 3601 C 348.405 -1.20321 -4.41913 0
M  V30 3602 N 349.896 -1.16315 -4.48358 0
M  V30 3603 C 350.631 -1.55058 -5.52037 0
M  V30 3604 N 350.127 -2.01311 -6.62907 0
M  V30 3605 N 351.92 -1.46584 -5.42651 0
M  V30 3606 H 344.071 -1.45529 -1.5471 0
M  V30 3607 H 346.334 -0.60258 -0.731848 0
M  V30 3608 H 346.04 -1.747 -3.05242 0
M  V30 3609 H 345.914 -0.150194 -3.76901 0
M  V30 3610 H 348.301 0.374272 -2.92717 0
M  V30 3611 H 348.382 -1.25061 -2.23144 0
M  V30 3612 H 348.026 -2.24037 -4.55818 0
M  V30 3613 H 347.956 -0.592896 -5.23252 0
M  V30 3614 H 350.447 -0.824058 -3.68806 0
M  V30 3615 H 350.76 -2.2899 -7.38095 0
M  V30 3616 H 349.105 -2.05273 -6.63994 0
M  V30 3617 H 352.296 -1.10281 -4.54924 0
M  V30 3618 H 352.469 -1.77103 -6.23329 0
M  V30 3619 N 345.875 1.56104 -0.216619 0
M  V30 3620 C 347.152 1.89988 0.465165 0
M  V30 3621 C 347.532 1.13326 1.78102 0
M  V30 3622 O 346.88 0.241033 2.27225 0
M  V30 3623 C 347.09 3.42646 0.662939 0
M  V30 3624 C 348.438 4.13311 0.972602 0
M  V30 3625 O 349.462 3.48217 0.749901 0
M  V30 3626 O 348.321 5.28396 1.39499 0
M  V30 3627 H 345.415 0.78979 0.245276 0
M  V30 3628 H 347.961 1.67721 -0.258436 0
M  V30 3629 H 346.733 3.90399 -0.26543 0
M  V30 3630 H 346.356 3.70677 1.43821 0
M  V30 3631 N 347.353 -0.0568162 1.57498 0
M  V30 3632 C 348.263 -1.08346 2.08083 0
M  V30 3633 C 349.279 -1.41439 1.01346 0
M  V30 3634 O 350.455 -1.51316 1.32912 0
M  V30 3635 C 347.52 -2.37352 2.52715 0
M  V30 3636 C 346.581 -2.11093 3.73816 0
M  V30 3637 C 345.814 -3.33949 4.1631 0
M  V30 3638 O 346.037 -4.43622 3.58547 0
M  V30 3639 O 344.971 -3.21279 5.08983 0
M  V30 3640 H 348.797 -0.683667 2.95905 0
M  V30 3641 H 346.382 -0.271965 1.46904 0
M  V30 3642 H 348.264 -3.13246 2.81877 0
M  V30 3643 H 346.939 -2.76681 1.68016 0
M  V30 3644 H 345.846 -1.32856 3.49714 0
M  V30 3645 H 347.179 -1.76637 4.59413 0
M  V30 3646 N 348.832 -1.54138 -0.328536 0
M  V30 3647 C 349.742 -1.86192 -1.42723 0
M  V30 3648 C 350.758 -0.753382 -1.56844 0
M  V30 3649 O 351.934 -1.04718 -1.72035 0
M  V30 3650 C 348.999 -2.07824 -2.77507 0
M  V30 3651 C 348.06 -3.31641 -2.72603 0
M  V30 3652 C 347.293 -3.52232 -4.00959 0
M  V30 3653 O 347.516 -2.7636 -4.9898 0
M  V30 3654 O 346.45 -4.45699 -4.0452 0
M  V30 3655 H 350.276 -2.79608 -1.18547 0
M  V30 3656 H 347.861 -1.3998 -0.522104 0
M  V30 3657 H 349.743 -2.23411 -3.57303 0
M  V30 3658 H 348.418 -1.17596 -3.01584 0
M  V30 3659 H 347.325 -3.21444 -1.91376 0
M  V30 3660 H 348.658 -4.2191 -2.53481 0
M  V30 3661 N 350.31 0.590341 -1.46126 0
M  V30 3662 C 351.24 1.71032 -1.58966 0
M  V30 3663 C 352.221 1.64302 -0.440335 0
M  V30 3664 O 353.406 1.82436 -0.665634 0
M  V30 3665 C 350.536 3.09665 -1.57241 0
M  V30 3666 C 349.49 3.31221 -2.71066 0
M  V30 3667 C 348.816 4.70303 -2.54399 0
M  V30 3668 C 350.116 3.19796 -4.1295 0
M  V30 3669 H 351.81 1.60543 -2.52718 0
M  V30 3670 H 349.356 0.770933 -1.21625 0
M  V30 3671 H 351.309 3.87831 -1.64819 0
M  V30 3672 H 350.033 3.21036 -0.600289 0
M  V30 3673 H 348.692 2.55452 -2.62944 0
M  V30 3674 H 348.34 4.78429 -1.55288 0
M  V30 3675 H 348.04 4.85679 -3.30741 0
M  V30 3676 H 349.564 5.50647 -2.63857 0
M  V30 3677 H 350.978 3.87815 -4.22223 0
M  V30 3678 H 349.375 3.46696 -4.89818 0
M  V30 3679 H 350.445 2.16983 -4.33643 0
M  V30 3680 N 351.788 1.33704 0.83433 0
M  V30 3681 C 352.698 1.26382 1.97648 0
M  V30 3682 C 353.714 0.173548 1.73132 0
M  V30 3683 O 354.89 0.397962 1.97429 0
M  V30 3684 C 351.955 1.00769 3.31733 0
M  V30 3685 C 351.016 2.1884 3.69334 0
M  V30 3686 C 350.249 1.9444 4.9702 0
M  V30 3687 O 350.472 0.896961 5.63303 0
M  V30 3688 O 349.406 2.81093 5.32231 0
M  V30 3689 H 353.232 2.22444 2.06767 0
M  V30 3690 H 350.817 1.13795 0.968037 0
M  V30 3691 H 352.699 0.882186 4.12062 0
M  V30 3692 H 351.374 0.0773783 3.23608 0
M  V30 3693 H 350.281 2.36946 2.89495 0
M  V30 3694 H 351.614 3.10221 3.82131 0
M  V30 3695 N 353.266 -1.05314 1.17247 0
M  V30 3696 C 354.176 -2.16538 0.90268 0
M  V30 3697 C 355.192 -1.73523 -0.128707 0
M  V30 3698 O 356.368 -2.01337 0.0502701 0
M  V30 3699 C 353.433 -3.44167 0.418356 0
M  V30 3700 C 352.494 -4.01635 1.51618 0
M  V30 3701 C 351.727 -5.23171 1.05487 0
M  V30 3702 O 351.95 -5.70327 -0.0914715 0
M  V30 3703 O 350.884 -5.72848 1.8474 0
M  V30 3704 H 354.71 -2.42145 1.83302 0
M  V30 3705 H 352.295 -1.15037 0.953246 0
M  V30 3706 H 354.177 -4.21112 0.155726 0
M  V30 3707 H 352.852 -3.20063 -0.48385 0
M  V30 3708 H 351.759 -3.26135 1.83268 0
M  V30 3709 H 353.092 -4.30053 2.39405 0
M  V30 3710 N 354.744 -0.972509 -1.24016 0
M  V30 3711 C 355.707 -0.511403 -2.23422 0
M  V30 3712 C 356.707 0.394679 -1.55881 0
M  V30 3713 O 357.897 0.189469 -1.73167 0
M  V30 3714 C 355.029 0.258769 -3.39916 0
M  V30 3715 H 356.222 -1.39024 -2.6573 0
M  V30 3716 H 353.775 -0.757585 -1.36713 0
M  V30 3717 H 354.51 1.1545 -3.03054 0
M  V30 3718 H 354.295 -0.391522 -3.9014 0
M  V30 3719 H 355.785 0.570244 -4.13688 0
M  V30 3720 N 356.222 1.38976 -0.743202 0
M  V30 3721 C 357.47 1.99948 -0.29417 0
M  V30 3722 C 357.791 1.59279 1.12495 0
M  V30 3723 O 357.061 0.844808 1.76748 0
M  V30 3724 H 355.641 0.739473 -0.105774 0
M  V30 3725 H 358.303 1.699 -0.954986 0
M  V30 3726 H 357.399 3.10142 -0.349056 0
M  V30 3727 N 357.7 0.491464 1.49741 0
M  V30 3728 C 359.116 0.146835 1.58923 0
M  V30 3729 C 359.316 -1.34804 1.49767 0
M  V30 3730 O 358.372 -2.12317 1.36667 0
M  V30 3731 C 359.685 0.715157 2.92072 0
M  V30 3732 C 361.233 0.680407 3.05515 0
M  V30 3733 C 361.708 1.22663 4.41269 0
M  V30 3734 N 363.199 1.18691 4.47735 0
M  V30 3735 C 363.934 1.57984 5.51207 0
M  V30 3736 N 363.43 2.04824 6.6183 0
M  V30 3737 N 365.223 1.49459 5.41866 0
M  V30 3738 H 357.374 1.46347 1.53936 0
M  V30 3739 H 359.637 0.606453 0.728642 0
M  V30 3740 H 359.343 1.76317 3.04311 0
M  V30 3741 H 359.217 0.17018 3.76816 0
M  V30 3742 H 361.604 -0.358743 2.92911 0
M  V30 3743 H 361.685 1.26242 2.22478 0
M  V30 3744 H 361.329 2.26451 4.54623 0
M  V30 3745 H 361.259 0.620637 5.2293 0
M  V30 3746 H 363.75 0.843605 3.68364 0
M  V30 3747 H 364.063 2.32901 7.3687 0
M  V30 3748 H 362.408 2.08791 6.62896 0
M  V30 3749 H 365.599 1.12692 4.54333 0
M  V30 3750 H 365.772 1.80406 6.22381 0
M  V30 3751 N 359.178 -1.55987 0.224894 0
M  V30 3752 C 360.088 -2.24066 -0.69511 0
M  V30 3753 C 361.104 -1.24939 -1.21104 0
M  V30 3754 O 362.28 -1.5776 -1.25195 0
M  V30 3755 C 359.345 -2.90983 -1.88493 0
M  V30 3756 C 358.406 -4.05462 -1.41064 0
M  V30 3757 C 357.639 -4.69179 -2.54375 0
M  V30 3758 O 357.862 -4.31895 -3.72589 0
M  V30 3759 O 356.796 -5.58108 -2.25386 0
M  V30 3760 H 360.622 -3.03353 -0.145149 0
M  V30 3761 H 358.207 -1.49399 -0.00569476 0
M  V30 3762 H 360.089 -3.33209 -2.57972 0
M  V30 3763 H 358.764 -2.14653 -2.42293 0
M  V30 3764 H 357.671 -3.67798 -0.683774 0
M  V30 3765 H 359.004 -4.83545 -0.918985 0
M  V30 3766 N 360.656 0.0484629 -1.57525 0
M  V30 3767 C 361.589 1.08755 -2.00618 0
M  V30 3768 C 362.567 1.36272 -0.887058 0
M  V30 3769 O 363.751 1.49255 -1.15131 0
M  V30 3770 C 360.878 2.42675 -2.36277 0
M  V30 3771 C 359.924 2.31142 -3.58435 0
M  V30 3772 S 360.757 1.68326 -5.08357 0
M  V30 3773 C 361.913 3.03776 -5.47239 0
M  V30 3774 H 362.146 0.720415 -2.88439 0
M  V30 3775 H 359.679 0.257801 -1.52233 0
M  V30 3776 H 361.637 3.19699 -2.57494 0
M  V30 3777 H 360.298 2.76541 -1.48942 0
M  V30 3778 H 359.491 3.29957 -3.80978 0
M  V30 3779 H 359.093 1.62258 -3.36969 0
M  V30 3780 H 361.385 4.00106 -5.46737 0
M  V30 3781 H 362.328 2.85988 -6.47778 0
M  V30 3782 H 362.736 3.05456 -4.74718 0
M  V30 3783 N 362.134 1.5431 0.320358 0
M  V30 3784 C 363.359 1.76954 1.08175 0
M  V30 3785 C 363.784 0.518193 1.80821 0
M  V30 3786 O 363.142 -0.530411 1.73368 0
M  V30 3787 C 363.19 2.96451 2.05303 0
M  V30 3788 O 362.294 2.68221 3.13259 0
M  V30 3789 H 361.635 0.586275 0.311733 0
M  V30 3790 H 364.165 2.01342 0.363676 0
M  V30 3791 H 364.175 3.23887 2.48116 0
M  V30 3792 H 362.85 3.87196 1.51829 0
M  V30 3793 H 361.427 2.51744 2.75099 0
M  V30 3794 N 363.613 -0.582584 1.46437 0
M  V30 3795 C 364.576 -1.67366 1.56592 0
M  V30 3796 C 365.576 -1.54575 0.443072 0
M  V30 3797 O 366.766 -1.59191 0.707381 0
M  V30 3798 C 363.898 -3.06791 1.48634 0
M  V30 3799 H 365.091 -1.5972 2.5383 0
M  V30 3800 H 362.644 -0.800432 1.34249 0
M  V30 3801 H 363.379 -3.19993 0.526763 0
M  V30 3802 H 363.164 -3.17484 2.30101 0
M  V30 3803 H 364.654 -3.86218 1.58826 0
M  V30 3804 N 365.091 -1.34144 -0.827227 0
M  V30 3805 C 366.054 -1.25264 -1.91942 0
M  V30 3806 C 367.054 -0.168866 -1.59911 0
M  V30 3807 O 368.244 -0.421198 -1.69031 0
M  V30 3808 C 365.376 -0.932952 -3.27885 0
M  V30 3809 H 366.569 -2.22357 -2.0124 0
M  V30 3810 H 364.122 -1.1837 -1.0207 0
M  V30 3811 H 364.857 0.0349917 -3.24281 0
M  V30 3812 H 364.642 -1.71682 -3.52516 0
M  V30 3813 H 366.132 -0.895874 -4.07877 0
M  V30 3814 N 366.569 1.04691 -1.17803 0
M  V30 3815 C 367.532 2.10724 -0.901545 0
M  V30 3816 C 368.532 1.6042 0.110437 0
M  V30 3817 O 369.722 1.7377 -0.122303 0
M  V30 3818 C 366.854 3.39084 -0.351409 0
M  V30 3819 H 368.047 2.36686 -1.84174 0
M  V30 3820 H 365.6 1.21015 -0.98919 0
M  V30 3821 H 366.335 3.18782 0.59569 0
M  V30 3822 H 366.12 3.76909 -1.08083 0
M  V30 3823 H 367.61 4.17227 -0.176451 0
M  V30 3824 N 368.047 0.979072 1.23499 0
M  V30 3825 C 369.295 0.645941 1.91499 0
M  V30 3826 C 369.616 -0.822948 1.76784 0
M  V30 3827 O 368.886 -1.58854 1.14639 0
M  V30 3828 H 367.466 0.235919 0.708767 0
M  V30 3829 H 370.128 1.2426 1.50152 0
M  V30 3830 H 369.224 0.896411 2.9895 0
M  V30 3831 N 369.525 -1.3858 0.750561 0
M  V30 3832 C 370.75 -2.04997 0.314812 0
M  V30 3833 C 371.175 -1.56235 -1.04749 0
M  V30 3834 O 370.533 -0.712981 -1.66692 0
M  V30 3835 C 370.581 -3.58961 0.343415 0
M  V30 3836 O 369.685 -4.07025 -0.663628 0
M  V30 3837 H 369.026 -0.649081 0.139962 0
M  V30 3838 H 371.556 -1.77313 1.02084 0
M  V30 3839 H 371.566 -4.07542 0.193233 0
M  V30 3840 H 370.241 -3.93811 1.33738 0
M  V30 3841 H 368.818 -3.6982 -0.478307 0
M  V30 3842 N 371.003 -0.499398 -1.49478 0
M  V30 3843 C 372.419 -0.155261 -1.58843 0
M  V30 3844 C 372.619 1.34008 -1.50479 0
M  V30 3845 O 371.675 2.11589 -1.37791 0
M  V30 3846 C 372.988 -0.730636 -2.91689 0
M  V30 3847 C 374.536 -0.696599 -3.0515 0
M  V30 3848 C 375.011 -1.25001 -4.40612 0
M  V30 3849 N 376.502 -1.21064 -4.47099 0
M  V30 3850 C 377.237 -1.60905 -5.50361 0
M  V30 3851 N 376.733 -2.08331 -6.60735 0
M  V30 3852 N 378.526 -1.52331 -5.41065 0
M  V30 3853 H 370.677 -1.47162 -1.53158 0
M  V30 3854 H 372.94 -0.610309 -0.725415 0
M  V30 3855 H 372.646 -1.77928 -3.03372 0
M  V30 3856 H 372.52 -0.190161 -3.7672 0
M  V30 3857 H 374.907 0.343204 -2.93097 0
M  V30 3858 H 374.988 -1.2742 -2.21806 0
M  V30 3859 H 374.632 -2.28859 -4.53416 0
M  V30 3860 H 374.562 -0.64836 -5.22593 0
M  V30 3861 H 377.053 -0.863128 -3.67911 0
M  V30 3862 H 377.366 -2.36805 -7.35624 0
M  V30 3863 H 375.711 -2.12304 -6.6178 0
M  V30 3864 H 378.902 -1.151 -4.53729 0
M  V30 3865 H 379.075 -1.83704 -6.21415 0
M  V30 3866 N 372.481 1.55866 -0.233164 0
M  V30 3867 C 373.391 2.24431 0.683217 0
M  V30 3868 C 374.407 1.2558 1.2044 0
M  V30 3869 O 375.583 1.58422 1.24356 0
M  V30 3870 C 372.648 2.91979 1.86947 0
M  V30 3871 C 371.709 4.06204 1.38912 0
M  V30 3872 C 370.942 4.70522 2.51883 0
M  V30 3873 O 371.165 4.33865 3.70293 0
M  V30 3874 O 370.099 5.59296 2.22423 0
M  V30 3875 H 373.925 3.03426 0.129059 0
M  V30 3876 H 371.51 1.494 -0.0022283 0
M  V30 3877 H 373.392 3.34573 2.56201 0
M  V30 3878 H 372.067 2.15935 2.41151 0
M  V30 3879 H 370.974 3.68155 0.664259 0
M  V30 3880 H 372.307 4.84025 0.893328 0
M  V30 3881 N 373.959 -0.0401083 1.57549 0
M  V30 3882 C 375.375 -0.395556 1.54621 0
M  V30 3883 C 375.575 -1.77281 0.957799 0
M  V30 3884 O 374.631 -2.45888 0.574031 0
M  V30 3885 C 375.944 -0.307535 2.99123 0
M  V30 3886 C 377.492 -0.385425 3.10618 0
M  V30 3887 C 377.967 -0.326973 4.56831 0
M  V30 3888 N 379.458 -0.386102 4.61588 0
M  V30 3889 C 380.193 -0.363591 5.72246 0
M  V30 3890 N 379.689 -0.29402 6.92176 0
M  V30 3891 N 381.482 -0.412503 5.60584 0
M  V30 3892 H 373.633 0.861325 1.94152 0
M  V30 3893 H 375.896 0.326445 0.890021 0
M  V30 3894 H 375.602 0.638461 3.45856 0
M  V30 3895 H 375.476 -1.10552 3.60636 0
M  V30 3896 H 377.863 -1.32185 2.63839 0
M  V30 3897 H 377.944 0.44171 2.51957 0
M  V30 3898 H 377.588 0.605738 5.04275 0
M  V30 3899 H 377.518 -1.17207 5.13391 0
M  V30 3900 H 380.009 -0.442832 3.75296 0
M  V30 3901 H 380.322 -0.28164 7.72287 0
M  V30 3902 H 378.667 -0.260232 6.94513 0
M  V30 3903 H 381.858 -0.464769 4.65787 0
M  V30 3904 H 382.031 -0.391492 6.46816 0
M  V30 3905 N 375.437 -1.54477 -0.31217 0
M  V30 3906 C 376.385 -1.85395 -1.40469 0
M  V30 3907 C 377.379 -0.726749 -1.53019 0
M  V30 3908 O 378.585 -0.910582 -1.55269 0
M  V30 3909 H 374.96 -0.587845 -0.46898 0
M  V30 3910 H 376.931 -2.76736 -1.11623 0
M  V30 3911 C 375.68 -2.10811 -2.76503 0
M  V30 3912 H 375.003 -2.97014 -2.67625 0
M  V30 3913 H 376.443 -2.3639 -3.51988 0
M  V30 3914 C 374.902 -0.903165 -3.24568 0
M  V30 3915 O 375.432 -0.118085 -4.01526 0
M  V30 3916 N 373.638 -0.711634 -2.81752 0
M  V30 3917 H 373.185 -1.35171 -2.19286 0
M  V30 3918 H 373.143 0.0930473 -3.14262 0
M  V30 3919 N 376.915 0.57481 -1.46744 0
M  V30 3920 C 378.143 1.35856 -1.56047 0
M  V30 3921 C 378.558 1.87691 -0.204365 0
M  V30 3922 O 377.915 1.64049 0.79963 0
M  V30 3923 C 377.966 2.54066 -2.57163 0
M  V30 3924 O 377.687 2.04377 -3.87507 0
M  V30 3925 C 379.188 3.46514 -2.76483 0
M  V30 3926 H 376.408 0.414754 -0.527466 0
M  V30 3927 H 378.952 0.698035 -1.92218 0
M  V30 3928 H 377.107 3.16092 -2.23974 0
M  V30 3929 H 377.521 2.81419 -4.4261 0
M  V30 3930 H 378.995 4.25919 -3.51137 0
M  V30 3931 H 379.472 3.98951 -1.83671 0
M  V30 3932 H 380.078 2.90318 -3.10799 0
M  V30 3933 N 378.394 1.34581 0.820102 0
M  V30 3934 C 379.357 1.2628 1.91275 0
M  V30 3935 C 380.357 0.177344 1.59819 0
M  V30 3936 O 381.547 0.430156 1.68806 0
M  V30 3937 C 378.679 0.950327 3.27386 0
M  V30 3938 H 379.872 2.23421 2.00057 0
M  V30 3939 H 377.425 1.1891 1.0144 0
M  V30 3940 H 378.16 -0.0177938 3.24295 0
M  V30 3941 H 377.945 1.73549 3.51601 0
M  V30 3942 H 379.435 0.917492 4.07396 0
M  V30 3943 N 379.872 -1.04064 1.18357 0
M  V30 3944 C 381.12 -1.76915 0.977013 0
M  V30 3945 C 381.441 -1.88624 -0.494577 0
M  V30 3946 O 380.711 -1.41125 -1.3587 0
M  V30 3947 H 379.291 -0.65535 0.358504 0
M  V30 3948 H 381.953 -1.25592 1.49039 0
M  V30 3949 H 381.049 -2.78178 1.41504 0
M  V30 3950 N 381.35 -0.985608 -1.22978 0
M  V30 3951 C 382.598 -0.656087 -1.91154 0
M  V30 3952 C 382.919 0.813561 -1.77218 0
M  V30 3953 O 382.189 1.58244 -1.1548 0
M  V30 3954 H 380.769 -0.239674 -0.707506 0
M  V30 3955 H 383.431 -1.25054 -1.49491 0
M  V30 3956 H 382.527 -0.912253 -2.9847 0
M  V30 3957 N 382.828 1.3818 -0.7579 0
M  V30 3958 C 384.053 2.04827 -0.325679 0
M  V30 3959 C 384.478 1.56788 1.03919 0
M  V30 3960 O 383.836 0.721811 1.66312 0
M  V30 3961 C 383.884 3.58774 -0.362447 0
M  V30 3962 O 382.988 4.07372 0.642033 0
M  V30 3963 H 382.329 0.64833 -0.143402 0
M  V30 3964 H 384.859 1.7677 -1.03023 0
M  V30 3965 H 384.869 4.07434 -0.214844 0
M  V30 3966 H 383.544 3.93096 -1.35824 0
M  V30 3967 H 382.121 3.70068 0.458688 0
M  V30 3968 N 384.306 0.507319 1.49211 0
M  V30 3969 C 385.254 -0.281364 2.30892 0
M  V30 3970 C 386.248 -0.95687 1.39787 0
M  V30 3971 O 387.454 -0.883838 1.56807 0
M  V30 3972 H 383.829 -0.109597 0.743971 0
M  V30 3973 H 385.8 0.42744 2.95323 0
M  V30 3974 C 384.549 -1.32918 3.21291 0
M  V30 3975 H 383.872 -0.818799 3.91326 0
M  V30 3976 H 385.312 -1.85288 3.81372 0
M  V30 3977 C 383.771 -2.35074 2.41333 0
M  V30 3978 O 384.301 -3.4108 2.12197 0
M  V30 3979 N 382.507 -2.07705 2.03241 0
M  V30 3980 H 382.054 -1.2152 2.27136 0
M  V30 3981 H 382.012 -2.76283 1.50051 0
M  V30 3982 N 385.784 -1.5574 0.241426 0
M  V30 3983 C 387.031 -1.9881 -0.384836 0
M  V30 3984 C 387.359 -1.12947 -1.58346 0
M  V30 3985 O 386.614 -0.178993 -1.9488 0
M  V30 3986 C 386.913 -3.47308 -0.843317 0
M  V30 3987 C 386.579 -4.50223 0.246946 0
M  V30 3988 C 385.241 -4.78088 0.546399 0
M  V30 3989 C 387.593 -5.11841 0.983282 0
M  V30 3990 C 384.921 -5.64846 1.58636 0
M  V30 3991 C 387.273 -5.99727 2.01272 0
M  V30 3992 C 385.937 -6.25927 2.31888 0
M  V30 3993 H 385.207 -0.727496 -0.140821 0
M  V30 3994 H 387.854 -1.8831 0.348106 0
M  V30 3995 H 386.159 -3.55112 -1.65537 0
M  V30 3996 H 387.856 -3.78017 -1.33806 0
M  V30 3997 H 384.446 -4.286 0.00340639 0
M  V30 3998 H 388.63 -4.90366 0.765182 0
M  V30 3999 H 383.886 -5.83403 1.82896 0
M  V30 4000 H 388.06 -6.46517 2.58823 0
M  V30 4001 H 385.687 -6.92949 3.12611 0
M  V30 4002 N 387.262 0.0317525 -1.57568 0
M  V30 4003 C 388.539 0.758366 -1.803 0
M  V30 4004 C 388.919 1.93718 -0.838845 0
M  V30 4005 O 388.267 2.28187 0.119571 0
M  V30 4006 C 388.477 1.19392 -3.27943 0
M  V30 4007 C 389.825 1.61094 -3.92854 0
M  V30 4008 O 390.849 1.28857 -3.32076 0
M  V30 4009 O 389.708 2.20918 -4.99858 0
M  V30 4010 H 386.802 0.366514 -0.741348 0
M  V30 4011 H 389.348 0.00873765 -1.69698 0
M  V30 4012 H 388.12 0.352275 -3.89711 0
M  V30 4013 H 387.743 2.00365 -3.43424 0
M  V30 4014 N 388.74 1.54641 0.303973 0
M  V30 4015 C 389.988 1.73437 1.0375 0
M  V30 4016 C 390.309 0.521449 1.87899 0
M  V30 4017 O 389.579 -0.46432 1.90318 0
M  V30 4018 H 388.159 0.639518 0.386039 0
M  V30 4019 H 390.821 1.91988 0.335675 0
M  V30 4020 H 389.917 2.62235 1.69231 0
M  V30 4021 N 390.218 -0.567019 1.47046 0
M  V30 4022 C 391.148 -1.68482 1.61667 0
M  V30 4023 C 392.129 -1.6358 0.466418 0
M  V30 4024 O 393.314 -1.81354 0.694574 0
M  V30 4025 C 390.444 -3.07124 1.62148 0
M  V30 4026 C 389.398 -3.26867 2.76301 0
M  V30 4027 C 388.724 -4.66196 2.61849 0
M  V30 4028 C 390.024 -3.13186 4.17986 0
M  V30 4029 H 391.718 -1.56502 2.5524 0
M  V30 4030 H 389.264 -0.751486 1.22836 0
M  V30 4031 H 391.217 -3.8516 1.70968 0
M  V30 4032 H 389.941 -3.2004 0.651287 0
M  V30 4033 H 388.6 -2.51237 2.66975 0
M  V30 4034 H 388.248 -4.75898 1.62879 0
M  V30 4035 H 387.948 -4.80356 3.38425 0
M  V30 4036 H 389.472 -5.46379 2.72584 0
M  V30 4037 H 390.886 -3.81049 4.2834 0
M  V30 4038 H 389.283 -3.3886 4.95272 0
M  V30 4039 H 390.353 -2.10057 4.3704 0
M  V30 4040 N 391.696 -1.35014 -0.812953 0
M  V30 4041 C 393.112 -1.14914 -1.10757 0
M  V30 4042 C 393.312 0.0426818 -2.01455 0
M  V30 4043 O 392.368 0.715212 -2.42159 0
M  V30 4044 C 393.681 -2.44911 -1.74468 0
M  V30 4045 C 395.229 -2.5106 -1.86917 0
M  V30 4046 C 395.704 -3.81085 -2.54044 0
M  V30 4047 N 397.195 -3.82301 -2.61535 0
M  V30 4048 C 397.93 -4.79634 -3.14227 0
M  V30 4049 N 397.426 -5.87353 -3.67407 0
M  V30 4050 N 399.219 -4.67078 -3.12721 0
M  V30 4051 H 391.37 -2.1136 -0.20989 0
M  V30 4052 H 393.633 -0.935128 -0.155692 0
M  V30 4053 H 393.339 -3.32267 -1.15289 0
M  V30 4054 H 393.213 -2.58989 -2.74234 0
M  V30 4055 H 395.6 -1.64137 -2.45241 0
M  V30 4056 H 395.681 -2.40901 -0.860242 0
M  V30 4057 H 395.325 -4.68402 -1.96372 0
M  V30 4058 H 395.255 -3.88529 -3.55461 0
M  V30 4059 H 397.746 -3.04465 -2.23851 0
M  V30 4060 H 398.059 -6.57624 -4.05894 0
M  V30 4061 H 396.404 -5.91054 -3.65623 0
M  V30 4062 H 399.595 -3.82067 -2.70449 0
M  V30 4063 H 399.768 -5.43098 -3.53481 0
M  V30 4064 N 393.175 1.03435 -1.18907 0
M  V30 4065 C 394.586 1.58195 -0.991523 0
M  V30 4066 C 394.937 1.90801 0.457081 0
M  V30 4067 O 394.062 1.70272 1.33553 0
M  V30 4068 C 394.657 2.87432 -1.79355 0
M  V30 4069 C 393.216 3.38785 -1.64017 0
M  V30 4070 C 392.363 2.12292 -1.78402 0
M  V30 4071 H 395.314 0.860299 -1.33359 0
M  V30 4072 H 395.335 3.58096 -1.28638 0
M  V30 4073 H 394.847 2.63669 -2.84781 0
M  V30 4074 H 392.948 3.67547 -0.611536 0
M  V30 4075 H 393.061 4.12186 -2.44212 0
M  V30 4076 H 391.425 2.23901 -1.2141 0
M  V30 4077 H 392.208 1.90977 -2.85277 0
M  V30 4078 N 394.653 0.992116 1.22453 0
M  V30 4079 C 395.601 0.534644 2.26372 0
M  V30 4080 C 396.595 -0.414293 1.64256 0
M  V30 4081 O 397.801 -0.286899 1.77699 0
M  V30 4082 H 394.176 0.154502 0.735957 0
M  V30 4083 H 396.147 1.42256 2.62309 0
M  V30 4084 C 394.896 -0.135815 3.47435 0
M  V30 4085 H 394.219 0.585311 3.95492 0
M  V30 4086 H 395.659 -0.419374 4.21921 0
M  V30 4087 C 394.118 -1.37089 3.07747 0
M  V30 4088 O 394.648 -2.46629 3.17076 0
M  V30 4089 N 392.854 -1.24585 2.62539 0
M  V30 4090 H 392.401 -0.354542 2.55149 0
M  V30 4091 H 392.359 -2.07327 2.36353 0
M  V30 4092 N 396.131 -1.37776 0.765217 0
M  V30 4093 C 397.379 -1.99454 0.325943 0
M  V30 4094 C 397.7 -1.61049 -1.09947 0
M  V30 4095 O 396.97 -0.872821 -1.75381 0
M  V30 4096 H 395.55 -0.737697 0.117525 0
M  V30 4097 H 398.212 -1.68359 0.981895 0
M  V30 4098 H 397.308 -3.09547 0.398353 0
M  V30 4099 N 397.609 -0.515225 -1.4894 0
M  V30 4100 C 398.556 0.255567 -2.29381 0
M  V30 4101 C 399.526 0.947387 -1.36432 0
M  V30 4102 O 400.711 0.951288 -1.65394 0
M  V30 4103 C 397.851 1.30551 -3.19453 0
M  V30 4104 C 396.964 0.624029 -4.27469 0
M  V30 4105 C 396.099 1.65563 -5.0474 0
M  V30 4106 C 395.138 0.956802 -6.04576 0
M  V30 4107 N 394.275 1.93326 -6.74959 0
M  V30 4108 H 399.115 -0.436607 -2.94784 0
M  V30 4109 H 396.652 -0.227154 -1.45336 0
M  V30 4110 H 398.61 1.92639 -3.70062 0
M  V30 4111 H 397.24 1.96626 -2.56004 0
M  V30 4112 H 396.292 -0.110459 -3.8024 0
M  V30 4113 H 397.604 0.0746092 -4.98744 0
M  V30 4114 H 396.758 2.35119 -5.59289 0
M  V30 4115 H 395.497 2.23893 -4.3327 0
M  V30 4116 H 394.502 0.247097 -5.49244 0
M  V30 4117 H 395.727 0.379814 -6.78037 0
M  V30 4118 H 393.673 2.50591 -6.06251 0
M  V30 4119 H 393.59 1.43489 -7.42258 0
M  V30 4120 H 394.858 2.62126 -7.34105 0
M  V30 4121 N 399.087 1.5561 -0.249682 0
M  V30 4122 C 400.335 1.98618 0.373548 0
M  V30 4123 C 400.656 1.13919 1.58264 0
M  V30 4124 O 399.926 0.222637 1.94631 0
M  V30 4125 H 398.506 0.733571 0.141006 0
M  V30 4126 H 401.168 1.91748 -0.349117 0
M  V30 4127 H 400.264 3.04584 0.680796 0
M  V30 4128 N 400.565 -0.0233959 1.57583 0
M  V30 4129 C 401.811 -0.714119 1.89811 0
M  V30 4130 C 402.144 -1.74702 0.848113 0
M  V30 4131 O 401.419 -1.94023 -0.136135 0
M  V30 4132 C 401.702 -1.37853 3.32669 0
M  V30 4133 C 401.555 -0.358764 4.48367 0
M  V30 4134 C 402.874 -2.31101 3.7454 0
M  V30 4135 H 399.993 -0.25814 0.690314 0
M  V30 4136 H 402.635 0.0230927 1.89986 0
M  V30 4137 H 400.785 -2.00689 3.3265 0
M  V30 4138 H 402.457 0.268115 4.6052 0
M  V30 4139 H 400.7 0.321387 4.32608 0
M  V30 4140 H 401.371 -0.862242 5.45224 0
M  V30 4141 H 403.847 -1.78304 3.75961 0
M  V30 4142 H 402.723 -2.74567 4.75294 0
M  V30 4143 H 402.984 -3.18018 3.0711 0
M  V30 4144 N 402.043 -1.548 -0.295768 0
M  V30 4145 C 403.454 -1.65274 -0.868411 0
M  V30 4146 C 403.805 -0.56481 -1.87894 0
M  V30 4147 O 402.93 0.29767 -2.14343 0
M  V30 4148 C 403.525 -2.99603 -1.58188 0
M  V30 4149 C 402.084 -3.12181 -2.10286 0
M  V30 4150 C 401.231 -2.6098 -0.93727 0
M  V30 4151 H 404.182 -1.58534 -0.0726422 0
M  V30 4152 H 404.203 -2.91319 -2.44772 0
M  V30 4153 H 403.715 -3.78764 -0.846151 0
M  V30 4154 H 401.816 -2.3775 -2.8689 0
M  V30 4155 H 401.929 -4.18415 -2.33379 0
M  V30 4156 H 400.293 -2.17564 -1.32431 0
M  V30 4157 H 401.076 -3.42623 -0.215414 0
M  V30 4158 N 403.521 0.559213 -1.47345 0
M  V30 4159 C 404.454 1.68201 -1.5422 0
M  V30 4160 C 405.432 1.57742 -0.394497 0
M  V30 4161 O 406.616 1.78628 -0.60201 0
M  V30 4162 C 403.743 3.0643 -1.44285 0
M  V30 4163 C 402.789 3.3534 -2.63532 0
M  V30 4164 S 403.622 3.24816 -4.25741 0
M  V30 4165 C 404.778 4.65542 -4.18355 0
M  V30 4166 H 405.011 1.62114 -2.49211 0
M  V30 4167 H 402.544 0.739871 -1.35519 0
M  V30 4168 H 404.502 3.86164 -1.3924 0
M  V30 4169 H 403.163 3.09984 -0.506816 0
M  V30 4170 H 402.356 4.36107 -2.52639 0
M  V30 4171 H 401.958 2.63221 -2.65689 0
M  V30 4172 H 404.25 5.56449 -3.86485 0
M  V30 4173 H 405.193 4.81493 -5.19202 0
M  V30 4174 H 405.601 4.43495 -3.49246 0
M  V30 4175 N 404.999 1.35443 0.805782 0
M  V30 4176 C 406.276 1.19325 1.54987 0
M  V30 4177 C 406.656 -0.227294 2.09873 0
M  V30 4178 O 406.004 -1.2309 1.92512 0
M  V30 4179 C 406.214 2.26196 2.65775 0
M  V30 4180 C 407.562 2.62043 3.34094 0
M  V30 4181 O 408.586 2.25115 2.76046 0
M  V30 4182 O 407.445 3.25542 4.38958 0
M  V30 4183 H 404.539 0.463623 0.684823 0
M  V30 4184 H 407.085 1.47127 0.845674 0
M  V30 4185 H 405.857 3.21471 2.23096 0
M  V30 4186 H 405.48 1.99667 3.43829 0
M  V30 4187 N 406.477 -1.02803 1.19454 0
M  V30 4188 C 407.409 -2.11181 0.890807 0
M  V30 4189 C 408.422 -1.6238 -0.116829 0
M  V30 4190 O 409.611 -1.78144 0.112694 0
M  V30 4191 C 406.711 -3.37461 0.311942 0
M  V30 4192 C 405.884 -4.15446 1.36834 0
M  V30 4193 C 404.943 -5.20039 0.802864 0
M  V30 4194 O 403.969 -5.49602 1.48077 0
M  V30 4195 N 405.171 -5.79165 -0.393417 0
M  V30 4196 H 407.936 -2.37827 1.82369 0
M  V30 4197 H 405.497 -1.19101 1.09666 0
M  V30 4198 H 407.489 -4.0462 -0.0802225 0
M  V30 4199 H 406.059 -3.08156 -0.52524 0
M  V30 4200 H 405.279 -3.43423 1.93531 0
M  V30 4201 H 406.567 -4.64335 2.08015 0
M  V30 4202 H 405.965 -5.57466 -0.961658 0
M  V30 4203 H 404.522 -6.47729 -0.727351 0
M  V30 4204 N 407.956 -0.998596 -1.21925 0
M  V30 4205 C 409.181 -0.696015 -1.95372 0
M  V30 4206 C 409.606 0.733826 -1.73195 0
M  V30 4207 O 408.964 1.50242 -1.01474 0
M  V30 4208 C 409.012 -1.01466 -3.4603 0
M  V30 4209 O 408.116 -0.116415 -4.12236 0
M  V30 4210 H 407.457 -0.259938 -0.611006 0
M  V30 4211 H 409.987 -1.33711 -1.54863 0
M  V30 4212 H 409.997 -0.958855 -3.96573 0
M  V30 4213 H 408.672 -2.05653 -3.61497 0
M  V30 4214 H 407.249 -0.228193 -3.72201 0
M  V30 4215 N 409.434 1.37368 -0.772513 0
M  V30 4216 C 410.659 2.0447 -0.347386 0
M  V30 4217 C 411.084 1.57882 1.0225 0
M  V30 4218 O 410.442 0.73941 1.65537 0
M  V30 4219 C 410.49 3.58369 -0.400479 0
M  V30 4220 O 409.594 4.0803 0.598789 0
M  V30 4221 H 408.935 0.646773 -0.15027 0
M  V30 4222 H 411.465 1.75667 -1.04892 0
M  V30 4223 H 411.475 4.07183 -0.258045 0
M  V30 4224 H 410.15 3.91633 -1.39986 0
M  V30 4225 H 408.727 3.70534 0.419411 0
M  V30 4226 N 410.912 0.523116 1.48665 0
M  V30 4227 C 412.328 0.180511 1.58576 0
M  V30 4228 C 412.528 -1.31597 1.52592 0
M  V30 4229 O 411.584 -2.0937 1.4114 0
M  V30 4230 C 412.897 0.776949 2.90489 0
M  V30 4231 C 414.445 0.745058 3.04003 0
M  V30 4232 C 414.92 1.31995 4.38567 0
M  V30 4233 N 416.411 1.28162 4.45117 0
M  V30 4234 C 417.146 1.6964 5.47731 0
M  V30 4235 N 416.642 2.18816 6.57337 0
M  V30 4236 N 418.435 1.6092 5.38573 0
M  V30 4237 H 410.586 1.4958 1.50797 0
M  V30 4238 H 412.849 0.621772 0.715614 0
M  V30 4239 H 412.555 1.82732 3.00503 0
M  V30 4240 H 412.429 0.25007 3.7637 0
M  V30 4241 H 414.816 -0.296532 2.93606 0
M  V30 4242 H 414.897 1.30933 2.1975 0
M  V30 4243 H 414.541 2.36043 4.49718 0
M  V30 4244 H 414.471 0.731418 5.21496 0
M  V30 4245 H 416.962 0.92155 3.66491 0
M  V30 4246 H 417.275 2.48478 7.31764 0
M  V30 4247 H 415.62 2.22805 6.58318 0
M  V30 4248 H 418.811 1.22304 4.5184 0
M  V30 4249 H 418.984 1.93567 6.18414 0
M  V30 4250 N 412.39 -1.55475 0.257931 0
M  V30 4251 C 413.638 -1.98813 -0.363009 0
M  V30 4252 C 413.959 -1.14757 -1.57657 0
M  V30 4253 O 413.229 -0.232956 -1.9451 0
M  V30 4254 H 411.809 -0.734308 -0.137113 0
M  V30 4255 H 414.471 -1.9156 0.359281 0
M  V30 4256 H 413.567 -3.04941 -0.664634 0
M  V30 4257 N 413.868 0.0150385 -1.57593 0
M  V30 4258 C 414.8 1.03912 -2.04291 0
M  V30 4259 C 415.813 1.31618 -0.958146 0
M  V30 4260 O 417.002 1.28859 -1.23522 0
M  V30 4261 C 414.102 2.37749 -2.41514 0
M  V30 4262 C 413.275 2.29198 -3.72541 0
M  V30 4263 C 412.334 3.45598 -3.96797 0
M  V30 4264 O 411.36 3.24461 -4.67668 0
M  V30 4265 N 412.562 4.67945 -3.43523 0
M  V30 4266 H 415.327 0.64099 -2.92765 0
M  V30 4267 H 412.888 0.20272 -1.60626 0
M  V30 4268 H 414.88 3.14364 -2.54867 0
M  V30 4269 H 413.45 2.69357 -1.58637 0
M  V30 4270 H 412.67 1.3759 -3.69408 0
M  V30 4271 H 413.958 2.20642 -4.5847 0
M  V30 4272 H 413.356 4.88017 -2.86104 0
M  V30 4273 H 411.913 5.41878 -3.62232 0
M  V30 4274 N 415.346 1.54954 0.287554 0
M  V30 4275 C 416.623 1.65569 1.04146 0
M  V30 4276 C 417.003 0.512672 2.0478 0
M  V30 4277 O 416.351 -0.489038 2.23205 0
M  V30 4278 C 416.561 3.04163 1.71131 0
M  V30 4279 C 417.909 3.61429 2.22832 0
M  V30 4280 O 418.933 3.06702 1.81141 0
M  V30 4281 O 417.792 4.57281 2.9926 0
M  V30 4282 H 414.886 0.671881 0.482188 0
M  V30 4283 H 417.432 1.67297 0.28457 0
M  V30 4284 H 416.204 3.78796 0.981303 0
M  V30 4285 H 415.827 3.06271 2.53543 0
M  V30 4286 N 416.824 -0.551391 1.4764 0
M  V30 4287 C 417.771 -1.65796 1.60563 0
M  V30 4288 C 418.741 -1.59932 0.448428 0
M  V30 4289 O 419.926 -1.78679 0.669222 0
M  V30 4290 C 417.066 -3.04108 1.63133 0
M  V30 4291 C 416.179 -3.20365 2.89811 0
M  V30 4292 C 415.314 -4.49109 2.8368 0
M  V30 4293 C 414.353 -4.58819 4.05156 0
M  V30 4294 N 413.49 -5.78926 3.97227 0
M  V30 4295 H 418.33 -1.54088 2.5507 0
M  V30 4296 H 415.867 -0.75052 1.26513 0
M  V30 4297 H 417.825 -3.84207 1.62606 0
M  V30 4298 H 416.455 -3.14637 0.721341 0
M  V30 4299 H 415.507 -2.33659 3.00179 0
M  V30 4300 H 416.819 -3.23402 3.79753 0
M  V30 4301 H 415.973 -5.37475 2.81434 0
M  V30 4302 H 414.712 -4.4856 1.91431 0
M  V30 4303 H 413.717 -3.68864 4.077 0
M  V30 4304 H 414.942 -4.61124 4.98539 0
M  V30 4305 H 412.888 -5.79314 3.07785 0
M  V30 4306 H 412.805 -5.83367 4.80853 0
M  V30 4307 H 414.073 -6.69637 3.99007 0
M  V30 4308 N 418.302 -1.35869 -0.798587 0
M  V30 4309 C 419.713 -1.26498 -1.37314 0
M  V30 4310 C 420.064 0.0991899 -1.95949 0
M  V30 4311 O 419.189 1.0004 -1.91888 0
M  V30 4312 C 419.784 -2.29054 -2.49639 0
M  V30 4313 C 418.343 -2.234 -3.02935 0
M  V30 4314 C 417.49 -2.14329 -1.75949 0
M  V30 4315 H 420.441 -1.46881 -0.600971 0
M  V30 4316 H 420.462 -1.92166 -3.28409 0
M  V30 4317 H 419.974 -3.2833 -2.06933 0
M  V30 4318 H 418.075 -1.27562 -3.50084 0
M  V30 4319 H 418.188 -3.15703 -3.60372 0
M  V30 4320 H 416.552 -1.60435 -1.9782 0
M  V30 4321 H 417.335 -3.15477 -1.35384 0
M  V30 4322 N 419.78 1.02168 -1.19998 0
M  V30 4323 C 420.69 2.14069 -0.959774 0
M  V30 4324 C 421.706 1.73804 0.082655 0
M  V30 4325 O 422.882 2.01133 -0.103633 0
M  V30 4326 C 419.947 3.42936 -0.509459 0
M  V30 4327 C 419.008 3.97474 -1.62213 0
M  V30 4328 C 418.241 5.2019 -1.19321 0
M  V30 4329 O 418.464 5.70369 -0.0597726 0
M  V30 4330 O 417.398 5.67749 -1.99863 0
M  V30 4331 H 421.224 2.37199 -1.89658 0
M  V30 4332 H 418.809 1.12469 -0.983411 0
M  V30 4333 H 420.691 4.20551 -0.267322 0
M  V30 4334 H 419.366 3.21234 0.398821 0
M  V30 4335 H 418.273 3.21161 -1.9185 0
M  V30 4336 H 419.606 4.23555 -2.50723 0
M  V30 4337 N 421.258 1.00505 1.21394 0
M  V30 4338 C 422.483 0.706367 1.95001 0
M  V30 4339 C 422.908 -0.72463 1.73582 0
M  V30 4340 O 422.266 -1.49702 1.0227 0
M  V30 4341 C 422.314 1.03299 3.45487 0
M  V30 4342 O 421.418 0.138275 4.12168 0
M  V30 4343 H 420.759 0.263175 0.609619 0
M  V30 4344 H 423.289 1.34531 1.54151 0
M  V30 4345 H 423.299 0.979872 3.96059 0
M  V30 4346 H 421.974 2.07567 3.60401 0
M  V30 4347 H 420.551 0.247928 3.72075 0
M  V30 4348 N 422.737 -1.36956 0.779787 0
M  V30 4349 C 423.667 -2.32761 0.185651 0
M  V30 4350 C 424.648 -1.56177 -0.673989 0
M  V30 4351 O 425.833 -1.84378 -0.609797 0
M  V30 4352 C 422.963 -3.40418 -0.687964 0
M  V30 4353 C 421.917 -4.27941 0.0710102 0
M  V30 4354 C 421.243 -5.26681 -0.922573 0
M  V30 4355 C 422.543 -5.07006 1.25467 0
M  V30 4356 H 424.237 -2.82698 0.986008 0
M  V30 4357 H 421.783 -1.3592 0.475592 0
M  V30 4358 H 423.736 -4.06423 -1.11348 0
M  V30 4359 H 422.46 -2.89025 -1.52093 0
M  V30 4360 H 421.119 -3.63478 0.47739 0
M  V30 4361 H 420.767 -4.71565 -1.7503 0
M  V30 4362 H 420.467 -5.86103 -0.419237 0
M  V30 4363 H 421.991 -5.9556 -1.34686 0
M  V30 4364 H 423.405 -5.66105 0.905401 0
M  V30 4365 H 421.802 -5.75793 1.69063 0
M  V30 4366 H 422.872 -4.3921 2.05481 0
M  V30 4367 N 424.215 -0.530993 -1.48385 0
M  V30 4368 C 425.147 0.268353 -2.27624 0
M  V30 4369 C 426.16 0.903525 -1.35426 0
M  V30 4370 O 427.349 0.781796 -1.60469 0
M  V30 4371 C 424.449 1.39535 -3.08842 0
M  V30 4372 C 423.622 0.861913 -4.28824 0
M  V30 4373 C 422.681 1.87016 -4.91845 0
M  V30 4374 O 421.707 1.4267 -5.5103 0
M  V30 4375 N 422.909 3.20238 -4.84178 0
M  V30 4376 H 425.674 -0.41123 -2.96865 0
M  V30 4377 H 423.235 -0.365387 -1.57723 0
M  V30 4378 H 425.227 2.06803 -3.47871 0
M  V30 4379 H 423.797 1.97859 -2.42014 0
M  V30 4380 H 423.017 0.0132126 -3.94198 0
M  V30 4381 H 424.305 0.484415 -5.06489 0
M  V30 4382 H 423.703 3.58932 -4.37246 0
M  V30 4383 H 422.26 3.83136 -5.27305 0
M  V30 4384 N 425.693 1.55336 -0.266172 0
M  V30 4385 C 427.104 1.85236 0.233315 0
M  V30 4386 C 427.455 1.18816 1.56132 0
M  V30 4387 O 426.58 0.473307 2.11161 0
M  V30 4388 C 427.175 3.36059 0.430113 0
M  V30 4389 C 425.734 3.66116 0.873842 0
M  V30 4390 C 424.881 2.77274 -0.0380016 0
M  V30 4391 H 427.832 1.51004 -0.488214 0
M  V30 4392 H 427.853 3.58681 1.26998 0
M  V30 4393 H 427.365 3.84373 -0.536588 0
M  V30 4394 H 425.466 3.23295 1.85233 0
M  V30 4395 H 425.579 4.73699 0.717358 0
M  V30 4396 H 423.943 2.50198 0.476759 0
M  V30 4397 H 424.726 3.284 -1.00042 0
M  V30 4398 N 427.171 -0.0066808 1.57599 0
M  V30 4399 C 428.587 -0.36267 1.55425 0
M  V30 4400 C 428.787 -1.75209 0.995187 0
M  V30 4401 O 427.843 -2.44616 0.626058 0
M  V30 4402 C 429.156 -0.244017 2.99708 0
M  V30 4403 C 430.704 -0.319451 3.11366 0
M  V30 4404 C 431.179 -0.229998 4.57422 0
M  V30 4405 N 432.67 -0.288105 4.62303 0
M  V30 4406 C 433.405 -0.242127 5.72889 0
M  V30 4407 N 432.901 -0.147133 6.92644 0
M  V30 4408 N 434.694 -0.293502 5.61333 0
M  V30 4409 H 426.845 0.902314 1.92281 0
M  V30 4410 H 429.108 0.34525 0.882896 0
M  V30 4411 H 428.814 0.711678 3.44424 0
M  V30 4412 H 428.688 -1.02877 3.629 0
M  V30 4413 H 431.075 -1.26559 2.66584 0
M  V30 4414 H 431.156 0.495055 2.50964 0
M  V30 4415 H 430.8 0.712566 5.02877 0
M  V30 4416 H 430.73 -1.0629 5.15761 0
M  V30 4417 H 433.221 -0.363126 3.76151 0
M  V30 4418 H 433.534 -0.117763 7.7271 0
M  V30 4419 H 431.879 -0.112857 6.94908 0
M  V30 4420 H 435.07 -0.365864 4.66668 0
M  V30 4421 H 435.243 -0.254204 6.47501 0
M  V30 4422 N 428.649 -1.55105 -0.279332 0
M  V30 4423 C 429.581 -1.83952 -1.36727 0
M  V30 4424 C 430.594 -0.723642 -1.45833 0
M  V30 4425 O 431.783 -1.00141 -1.47763 0
M  V30 4426 C 428.883 -1.98183 -2.74912 0
M  V30 4427 C 428.056 -3.28787 -2.88475 0
M  V30 4428 C 427.115 -3.33162 -4.07295 0
M  V30 4429 O 426.141 -4.06576 -3.98353 0
M  V30 4430 N 427.343 -2.60109 -5.18964 0
M  V30 4431 H 430.108 -2.77853 -1.12328 0
M  V30 4432 H 427.669 -1.54945 -0.469442 0
M  V30 4433 H 429.661 -1.98488 -3.52682 0
M  V30 4434 H 428.231 -1.11177 -2.92162 0
M  V30 4435 H 427.451 -3.41075 -1.97641 0
M  V30 4436 H 428.739 -4.14933 -2.94463 0
M  V30 4437 H 428.137 -2.00136 -5.29115 0
M  V30 4438 H 426.694 -2.66143 -5.94988 0
M  V30 4439 N 430.127 0.543554 -1.4793 0
M  V30 4440 C 431.075 1.67039 -1.61866 0
M  V30 4441 C 432.069 1.62294 -0.48549 0
M  V30 4442 O 433.275 1.67315 -0.66376 0
M  V30 4443 H 429.65 0.552954 -0.509652 0
M  V30 4444 H 431.621 1.52426 -2.56533 0
M  V30 4445 C 430.37 3.05357 -1.6629 0
M  V30 4446 H 429.693 3.09696 -2.5284 0
M  V30 4447 H 431.133 3.83855 -1.80088 0
M  V30 4448 C 429.592 3.34531 -0.398861 0
M  V30 4449 O 430.122 3.98649 0.494162 0
M  V30 4450 N 428.328 2.89299 -0.2747 0
M  V30 4451 H 427.875 2.37298 -1.00236 0
M  V30 4452 H 427.833 3.09188 0.570075 0
M  V30 4453 N 431.605 1.3629 0.791371 0
M  V30 4454 C 432.552 1.30458 1.90393 0
M  V30 4455 C 433.522 0.173632 1.6519 0
M  V30 4456 O 434.707 0.35983 1.87376 0
M  V30 4457 C 431.847 1.09777 3.27174 0
M  V30 4458 C 430.96 2.31929 3.64462 0
M  V30 4459 C 430.095 2.04276 4.90352 0
M  V30 4460 C 429.134 3.224 5.20312 0
M  V30 4461 N 428.271 2.94424 6.37385 0
M  V30 4462 H 433.111 2.25589 1.94714 0
M  V30 4463 H 430.648 1.12122 0.952216 0
M  V30 4464 H 432.606 0.958133 4.06049 0
M  V30 4465 H 431.236 0.183014 3.22281 0
M  V30 4466 H 430.288 2.56703 2.80727 0
M  V30 4467 H 431.6 3.20085 3.82553 0
M  V30 4468 H 430.754 1.87231 5.77087 0
M  V30 4469 H 429.493 1.13428 4.74326 0
M  V30 4470 H 428.498 3.40005 4.32061 0
M  V30 4471 H 429.723 4.14071 5.38258 0
M  V30 4472 H 427.669 2.06185 6.22755 0
M  V30 4473 H 427.586 3.76118 6.55798 0
M  V30 4474 H 428.854 2.80953 7.27108 0
M  V30 4475 N 433.083 -1.0153 1.20538 0
M  V30 4476 C 434.308 -1.79283 1.04271 0
M  V30 4477 C 434.733 -1.8372 -0.403544 0
M  V30 4478 O 434.091 -1.27321 -1.2907 0
M  V30 4479 C 434.139 -3.21535 1.63241 0
M  V30 4480 O 433.243 -4.03099 0.870908 0
M  V30 4481 H 432.584 -0.55293 0.367647 0
M  V30 4482 H 435.114 -1.27696 1.59859 0
M  V30 4483 H 435.124 -3.72243 1.6703 0
M  V30 4484 H 433.799 -3.1762 2.68497 0
M  V30 4485 H 432.376 -3.61693 0.907323 0
M  V30 4486 N 434.561 -1.01147 -1.20859 0
M  V30 4487 C 435.508 -0.577354 -2.23462 0
M  V30 4488 C 436.478 0.399922 -1.61214 0
M  V30 4489 O 437.663 0.300515 -1.88419 0
M  V30 4490 C 434.803 0.083372 -3.44999 0
M  V30 4491 C 433.916 -0.937856 -4.21697 0
M  V30 4492 C 433.051 -0.248717 -5.30617 0
M  V30 4493 C 432.09 -1.25705 -5.99053 0
M  V30 4494 N 431.227 -0.594939 -6.99575 0
M  V30 4495 H 436.067 -1.45695 -2.59956 0
M  V30 4496 H 433.604 -0.729428 -1.27741 0
M  V30 4497 H 435.562 0.483535 -4.14388 0
M  V30 4498 H 434.192 0.926645 -3.09214 0
M  V30 4499 H 433.244 -1.45622 -3.51423 0
M  V30 4500 H 434.556 -1.70493 -4.68757 0
M  V30 4501 H 433.71 0.207215 -6.06346 0
M  V30 4502 H 432.449 0.55071 -4.84581 0
M  V30 4503 H 431.454 -1.72343 -5.2209 0
M  V30 4504 H 432.679 -2.05767 -6.47176 0
M  V30 4505 H 430.625 0.184713 -6.5574 0
M  V30 4506 H 430.542 -1.30017 -7.44736 0
M  V30 4507 H 431.81 -0.162427 -7.79331 0
M  V30 4508 N 436.039 1.36541 -0.78704 0
M  V30 4509 C 437.264 2.0409 -0.369053 0
M  V30 4510 C 437.689 1.58957 1.00569 0
M  V30 4511 O 437.047 0.756926 1.64743 0
M  V30 4512 C 437.095 3.57924 -0.438466 0
M  V30 4513 O 436.199 4.08642 0.555479 0
M  V30 4514 H 435.54 0.645142 -0.157122 0
M  V30 4515 H 438.07 1.74545 -1.06749 0
M  V30 4516 H 438.08 4.06887 -0.301218 0
M  V30 4517 H 436.755 3.90127 -1.44132 0
M  V30 4518 H 435.332 3.70958 0.380088 0
M  V30 4519 N 437.518 0.538854 1.48102 0
M  V30 4520 C 438.428 -0.222648 2.33541 0
M  V30 4521 C 439.444 -0.930225 1.47047 0
M  V30 4522 O 440.62 -0.903211 1.80011 0
M  V30 4523 C 437.685 -1.25064 3.23357 0
M  V30 4524 C 436.746 -0.552469 4.2573 0
M  V30 4525 C 435.979 -1.53149 5.11254 0
M  V30 4526 O 436.202 -2.76487 4.9891 0
M  V30 4527 O 435.136 -1.06602 5.92385 0
M  V30 4528 H 438.962 0.477707 2.99919 0
M  V30 4529 H 436.547 0.299669 1.46364 0
M  V30 4530 H 438.429 -1.8445 3.78888 0
M  V30 4531 H 437.104 -1.93325 2.59629 0
M  V30 4532 H 436.011 0.082114 3.7401 0
M  V30 4533 H 437.344 0.0883526 4.92121 0
M  V30 4534 N 438.996 -1.55193 0.274407 0
M  V30 4535 C 440.245 -1.98758 -0.343213 0
M  V30 4536 C 440.558 -1.16624 -1.5703 0
M  V30 4537 O 441.764 -1.5033 -2.26082 0
M  V30 4538 C 440.22 -3.53759 -0.661996 0
M  V30 4539 C 439.828 -4.4467 0.54524 0
M  V30 4540 C 441.572 -4.05916 -1.24228 0
M  V30 4541 C 439.479 -5.91058 0.201084 0
M  V30 4542 H 438.409 -0.742353 -0.132014 0
M  V30 4543 H 441.06 -1.79545 0.378948 0
M  V30 4544 H 439.442 -3.68772 -1.44304 0
M  V30 4545 H 440.616 -4.41426 1.32212 0
M  V30 4546 H 438.931 -4.03143 1.04232 0
M  V30 4547 H 441.528 -5.12831 -1.51357 0
M  V30 4548 H 441.871 -3.54908 -2.17592 0
M  V30 4549 H 442.404 -3.9434 -0.523542 0
M  V30 4550 H 439.143 -6.46161 1.10258 0
M  V30 4551 H 438.663 -5.97373 -0.539045 0
M  V30 4552 H 440.342 -6.46669 -0.206954 0
M  V30 4553 N 440.474 -0.00167713 -1.576 0
M  V30 4554 C 441.702 0.693759 -1.94922 0
M  V30 4555 C 442.117 1.67215 -0.876626 0
M  V30 4556 O 441.474 1.81929 0.144279 0
M  V30 4557 C 441.525 1.42416 -3.32265 0
M  V30 4558 O 441.246 0.485014 -4.35407 0
M  V30 4559 C 442.747 2.21395 -3.84056 0
M  V30 4560 H 439.967 0.193118 -0.642609 0
M  V30 4561 H 442.511 -0.0532952 -2.04431 0
M  V30 4562 H 440.666 2.12284 -3.24059 0
M  V30 4563 H 441.08 1.00053 -5.14868 0
M  V30 4564 H 442.554 2.67996 -4.82578 0
M  V30 4565 H 443.031 3.04142 -3.16851 0
M  V30 4566 H 443.637 1.56542 -3.95443 0
M  V30 4567 N 441.952 1.55251 0.271103 0
M  V30 4568 C 443.229 1.66664 1.02384 0
M  V30 4569 C 443.609 0.534363 2.04225 0
M  V30 4570 O 442.957 -0.465337 2.23712 0
M  V30 4571 C 443.167 3.05961 1.67895 0
M  V30 4572 C 444.515 3.63772 2.18986 0
M  V30 4573 O 445.539 3.08606 1.77878 0
M  V30 4574 O 444.398 4.60429 2.94393 0
M  V30 4575 H 441.492 0.676957 0.475035 0
M  V30 4576 H 444.038 1.67589 0.26681 0
M  V30 4577 H 442.81 3.79815 0.941071 0
M  V30 4578 H 442.433 3.08943 2.5028 0
M  V30 4579 N 443.43 -0.535701 1.48216 0
M  V30 4580 C 444.363 -1.65726 1.56876 0
M  V30 4581 C 445.341 -1.57094 0.419542 0
M  V30 4582 O 446.525 -1.77648 0.630352 0
M  V30 4583 C 443.652 -3.04096 1.49142 0
M  V30 4584 C 442.698 -3.31105 2.68834 0
M  V30 4585 S 443.531 -3.18001 4.30854 0
M  V30 4586 C 444.687 -4.58828 4.25709 0
M  V30 4587 H 444.92 -1.58129 2.51759 0
M  V30 4588 H 442.453 -0.718218 1.36678 0
M  V30 4589 H 444.411 -3.839 1.45366 0
M  V30 4590 H 443.072 -3.09139 0.556067 0
M  V30 4591 H 442.265 -4.32033 2.59545 0
M  V30 4592 H 441.867 -2.58961 2.69843 0
M  V30 4593 H 444.159 -5.5023 3.95289 0
M  V30 4594 H 445.102 -4.73172 5.26796 0
M  V30 4595 H 445.51 -4.37883 3.56257 0
M  V30 4596 N 444.908 -1.36708 -0.784132 0
M  V30 4597 C 446.154 -1.31426 -1.54451 0
M  V30 4598 C 446.487 0.10476 -1.93917 0
M  V30 4599 O 445.762 1.05934 -1.6312 0
M  V30 4600 C 446.045 -2.24189 -2.818 0
M  V30 4601 C 445.898 -3.74813 -2.48667 0
M  V30 4602 C 447.217 -2.15626 -3.83658 0
M  V30 4603 H 444.336 -0.478739 -0.560337 0
M  V30 4604 H 446.978 -1.67305 -0.900498 0
M  V30 4605 H 445.128 -1.93722 -3.36755 0
M  V30 4606 H 446.8 -4.15823 -1.99722 0
M  V30 4607 H 445.043 -3.93989 -1.81535 0
M  V30 4608 H 445.714 -4.35138 -3.39646 0
M  V30 4609 H 448.19 -2.42456 -3.38163 0
M  V30 4610 H 447.066 -2.82694 -4.70506 0
M  V30 4611 H 447.327 -1.14522 -4.27009 0
M  V30 4612 N 446.386 1.0089 -1.21074 0
M  V30 4613 C 447.802 1.2695 -0.967257 0
M  V30 4614 C 448.002 1.9846 0.348673 0
M  V30 4615 O 447.058 2.28459 1.0753 0
M  V30 4616 C 448.371 2.09697 -2.15517 0
M  V30 4617 C 449.919 2.22937 -2.197 0
M  V30 4618 C 450.394 3.09064 -3.37999 0
M  V30 4619 N 451.885 3.16653 -3.38061 0
M  V30 4620 C 452.62 3.8354 -4.26245 0
M  V30 4621 N 452.116 4.52488 -5.2462 0
M  V30 4622 N 453.909 3.80141 -4.14064 0
M  V30 4623 H 446.06 0.529005 -2.05707 0
M  V30 4624 H 448.323 0.296148 -0.900556 0
M  V30 4625 H 448.029 1.64497 -3.10859 0
M  V30 4626 H 447.903 3.10444 -2.14253 0
M  V30 4627 H 450.29 2.67357 -1.24916 0
M  V30 4628 H 450.371 1.21673 -2.2501 0
M  V30 4629 H 450.015 2.65347 -4.33074 0
M  V30 4630 H 449.945 4.10433 -3.29928 0
M  V30 4631 H 452.436 2.67566 -2.66865 0
M  V30 4632 H 452.749 5.01219 -5.88217 0
M  V30 4633 H 451.094 4.51288 -5.28549 0
M  V30 4634 H 454.285 3.25427 -3.36474 0
M  V30 4635 H 454.458 4.31992 -4.82998 0
M  V30 4636 N 447.864 1.01787 1.20321 0
M  V30 4637 C 449.089 0.727009 1.9424 0
M  V30 4638 C 449.514 -0.706179 1.74341 0
M  V30 4639 O 448.872 -1.48609 1.03852 0
M  V30 4640 C 448.92 1.06958 3.44372 0
M  V30 4641 O 448.024 0.181983 4.11998 0
M  V30 4642 H 447.365 0.269626 0.606793 0
M  V30 4643 H 449.895 1.36158 1.52716 0
M  V30 4644 H 449.905 1.02182 3.94997 0
M  V30 4645 H 448.58 2.11378 3.58179 0
M  V30 4646 H 447.157 0.287378 3.71791 0
M  V30 4647 N 449.342 -1.36122 0.79427 0
M  V30 4648 C 450.567 -2.03891 0.379871 0
M  V30 4649 C 450.992 -1.59488 -0.997251 0
M  V30 4650 O 450.35 -0.765652 -1.64339 0
M  V30 4651 C 450.398 -3.57687 0.457442 0
M  V30 4652 O 449.502 -4.08931 -0.5338 0
M  V30 4653 H 448.843 -0.6443 0.160541 0
M  V30 4654 H 451.373 -1.73976 1.07673 0
M  V30 4655 H 451.383 -4.06721 0.322792 0
M  V30 4656 H 450.058 -3.89357 1.46199 0
M  V30 4657 H 448.635 -3.71154 -0.360409 0
M  V30 4658 N 450.82 -0.546701 -1.47814 0
M  V30 4659 C 452.048 -0.0232857 -2.06887 0
M  V30 4660 C 452.463 1.26571 -1.4009 0
M  V30 4661 O 451.82 1.7569 -0.493906 0
M  V30 4662 C 451.871 0.186975 -3.61016 0
M  V30 4663 O 451.592 -1.05097 -4.25307 0
M  V30 4664 C 453.093 0.748872 -4.36929 0
M  V30 4665 H 450.313 -0.0410763 -0.669742 0
M  V30 4666 H 452.857 -0.757117 -1.89968 0
M  V30 4667 H 451.012 0.870903 -3.77484 0
M  V30 4668 H 451.426 -0.842121 -5.17695 0
M  V30 4669 H 452.9 0.845334 -5.45489 0
M  V30 4670 H 453.377 1.75772 -4.02493 0
M  V30 4671 H 453.983 0.100979 -4.2518 0
M  V30 4672 N 452.299 1.55045 -0.282633 0
M  V30 4673 C 453.548 1.98938 0.332667 0
M  V30 4674 C 453.861 1.17455 1.56409 0
M  V30 4675 O 455.067 1.51527 2.25282 0
M  V30 4676 C 453.523 3.54105 0.643226 0
M  V30 4677 C 453.131 4.44374 -0.568814 0
M  V30 4678 C 454.875 4.06569 1.22074 0
M  V30 4679 C 452.782 5.90943 -0.232426 0
M  V30 4680 H 451.712 0.743043 0.128075 0
M  V30 4681 H 454.363 1.79341 -0.388464 0
M  V30 4682 H 452.745 3.69532 1.42346 0
M  V30 4683 H 453.919 4.40718 -1.34551 0
M  V30 4684 H 452.234 4.02585 -1.06369 0
M  V30 4685 H 454.831 5.13626 1.48635 0
M  V30 4686 H 455.174 3.56057 2.15707 0
M  V30 4687 H 455.707 3.94612 0.502621 0
M  V30 4688 H 452.446 6.45567 -1.13683 0
M  V30 4689 H 451.966 5.9765 0.507357 0
M  V30 4690 H 453.645 6.4677 0.172657 0
M  V30 4691 N 453.777 0.010035 1.57597 0
M  V30 4692 C 455.005 -0.683413 1.95287 0
M  V30 4693 C 455.42 -1.66747 0.885481 0
M  V30 4694 O 454.777 -1.82003 -0.134629 0
M  V30 4695 C 454.828 -1.40652 3.33015 0
M  V30 4696 O 454.549 -0.461916 4.35658 0
M  V30 4697 C 456.05 -2.19356 3.85225 0
M  V30 4698 H 453.27 -0.189708 0.643624 0
M  V30 4699 H 455.814 0.0641359 2.04399 0
M  V30 4700 H 453.969 -2.10562 3.2518 0
M  V30 4701 H 454.383 -0.973215 5.15392 0
M  V30 4702 H 455.857 -2.65433 4.83993 0
M  V30 4703 H 456.334 -3.02457 3.18459 0
M  V30 4704 H 456.94 -1.54442 3.96267 0
M  V30 4705 N 455.255 -1.55392 -0.262866 0
M  V30 4706 C 456.501 -1.76737 -0.99458 0
M  V30 4707 C 456.834 -0.572453 -1.85571 0
M  V30 4708 O 456.109 0.429732 -1.89693 0
M  V30 4709 C 456.392 -3.07824 -1.8686 0
M  V30 4710 C 456.245 -4.3769 -1.03672 0
M  V30 4711 C 457.564 -3.35021 -2.85393 0
M  V30 4712 H 454.683 -0.643005 -0.360157 0
M  V30 4713 H 457.325 -1.88126 -0.266216 0
M  V30 4714 H 455.475 -2.98245 -2.48962 0
M  V30 4715 H 457.147 -4.59238 -0.43563 0
M  V30 4716 H 455.39 -4.32461 -0.340513 0
M  V30 4717 H 456.061 -5.25759 -1.6817 0
M  V30 4718 H 458.537 -3.44458 -2.33426 0
M  V30 4719 H 457.413 -4.27989 -3.43681 0
M  V30 4720 H 457.674 -2.55153 -3.61039 0
M  V30 4721 N 456.733 0.527833 -1.48498 0
M  V30 4722 C 457.958 1.313 -1.60546 0
M  V30 4723 C 458.383 1.86199 -0.26672 0
M  V30 4724 O 457.741 1.64513 0.761918 0
M  V30 4725 C 457.789 2.43818 -2.65678 0
M  V30 4726 O 456.893 3.46916 -2.22987 0
M  V30 4727 H 456.234 0.388784 -0.538277 0
M  V30 4728 H 458.764 0.634896 -1.945 0
M  V30 4729 H 458.774 2.89973 -2.87018 0
M  V30 4730 H 457.449 2.03222 -3.62869 0
M  V30 4731 H 456.026 3.06864 -2.11869 0
M  V30 4732 N 458.211 1.37122 0.776871 0
M  V30 4733 C 459.488 1.22586 1.52421 0
M  V30 4734 C 459.868 -0.182726 2.10308 0
M  V30 4735 O 459.216 -1.18979 1.9508 0
M  V30 4736 C 459.426 2.31782 2.60918 0
M  V30 4737 C 460.774 2.69071 3.2846 0
M  V30 4738 O 461.798 2.3092 2.71209 0
M  V30 4739 O 460.657 3.3478 4.31954 0
M  V30 4740 H 457.751 0.478045 0.674835 0
M  V30 4741 H 460.297 1.48888 0.814275 0
M  V30 4742 H 459.069 3.26131 2.16227 0
M  V30 4743 H 458.692 2.06916 3.39517 0
M  V30 4744 N 459.689 -1.00246 1.21608 0
M  V30 4745 C 460.636 -2.09073 0.977613 0
M  V30 4746 C 461.606 -1.65815 -0.097297 0
M  V30 4747 O 462.791 -1.90734 0.0503445 0
M  V30 4748 C 459.931 -3.40671 0.551133 0
M  V30 4749 C 459.044 -3.97326 1.69576 0
M  V30 4750 C 458.179 -5.17043 1.2182 0
M  V30 4751 C 457.218 -5.65813 2.335 0
M  V30 4752 N 456.355 -6.76778 1.86859 0
M  V30 4753 H 461.195 -2.28806 1.90924 0
M  V30 4754 H 458.732 -1.12186 0.951452 0
M  V30 4755 H 460.69 -4.16225 0.285097 0
M  V30 4756 H 459.32 -3.20967 -0.343489 0
M  V30 4757 H 458.372 -3.18734 2.07637 0
M  V30 4758 H 459.684 -4.29511 2.53617 0
M  V30 4759 H 458.838 -5.99852 0.908975 0
M  V30 4760 H 457.577 -4.86458 0.347869 0
M  V30 4761 H 456.582 -4.81599 2.65222 0
M  V30 4762 H 457.807 -5.98427 3.21033 0
M  V30 4763 H 455.753 -6.47994 1.02174 0
M  V30 4764 H 455.67 -7.08231 2.64471 0
M  V30 4765 H 456.938 -7.63116 1.58978 0
M  V30 4766 N 461.167 -1.02423 -1.1978 0
M  V30 4767 C 462.13 -0.605703 -2.21052 0
M  V30 4768 C 463.13 0.328209 -1.57415 0
M  V30 4769 O 464.32 0.115853 -1.73814 0
M  V30 4770 C 461.452 0.114366 -3.40708 0
M  V30 4771 H 462.645 -1.5017 -2.59594 0
M  V30 4772 H 460.198 -0.814888 -1.33376 0
M  V30 4773 H 460.933 1.02492 -3.07678 0
M  V30 4774 H 460.718 -0.556641 -3.88129 0
M  V30 4775 H 462.208 0.394272 -4.15735 0
M  V30 4776 N 462.645 1.35699 -0.801477 0
M  V30 4777 C 463.595 2.2728 -0.181073 0
M  V30 4778 C 464.579 1.47533 0.642098 0
M  V30 4779 O 465.771 1.69785 0.500193 0
M  V30 4780 C 462.9 3.36626 0.673612 0
M  V30 4781 C 461.986 4.23802 -0.159008 0
M  V30 4782 N 462.377 4.90879 -1.2195 0
M  V30 4783 C 460.675 4.45959 0.0602005 0
M  V30 4784 C 461.376 5.5546 -1.72738 0
M  V30 4785 N 460.352 5.33663 -1.03465 0
M  V30 4786 H 464.154 2.76632 -0.992582 0
M  V30 4787 H 461.668 1.49166 -0.642127 0
M  V30 4788 H 463.665 4.01179 1.13408 0
M  V30 4789 H 462.325 2.88828 1.48353 0
M  V30 4790 H 463.336 4.92497 -1.60209 0
M  V30 4791 H 460.013 4.08969 0.839664 0
M  V30 4792 H 461.403 6.18991 -2.61342 0
M  V30 4793 N 464.123 0.554532 1.47522 0
M  V30 4794 C 465.372 0.0273458 2.01681 0
M  V30 4795 C 465.685 -1.32962 1.43459 0
M  V30 4796 O 466.891 -1.94657 1.89265 0
M  V30 4797 C 465.347 -0.00159057 3.599 0
M  V30 4798 C 464.955 1.35197 4.27113 0
M  V30 4799 C 466.699 -0.476311 4.21819 0
M  V30 4800 C 464.606 1.28229 5.77331 0
M  V30 4801 H 463.536 0.00645269 0.753972 0
M  V30 4802 H 466.187 0.701985 1.69542 0
M  V30 4803 H 464.569 -0.741821 3.8899 0
M  V30 4804 H 465.743 2.1097 4.09668 0
M  V30 4805 H 464.058 1.76441 3.77171 0
M  V30 4806 H 466.655 -0.5468 5.31897 0
M  V30 4807 H 466.998 -1.4877 3.8881 0
M  V30 4808 H 467.531 0.20898 3.97251 0
M  V30 4809 H 464.27 2.26959 6.14955 0
M  V30 4810 H 463.79 0.566314 5.97121 0
M  V30 4811 H 465.469 0.983226 6.39485 0
M  V30 4812 N 465.601 -1.54893 0.290851 0
M  V30 4813 C 466.531 -2.26103 -0.583084 0
M  V30 4814 C 467.512 -1.25684 -1.14619 0
M  V30 4815 O 468.697 -1.54436 -1.17741 0
M  V30 4816 C 465.827 -2.99409 -1.75987 0
M  V30 4817 C 464.781 -4.0689 -1.32758 0
M  V30 4818 C 464.107 -4.67856 -2.58872 0
M  V30 4819 C 465.407 -5.20215 -0.46624 0
M  V30 4820 H 467.101 -2.99398 0.0108214 0
M  V30 4821 H 464.647 -1.43998 0.00664468 0
M  V30 4822 H 466.6 -3.47943 -2.37727 0
M  V30 4823 H 465.324 -2.23675 -2.37985 0
M  V30 4824 H 463.983 -3.59191 -0.733299 0
M  V30 4825 H 463.631 -3.88772 -3.19163 0
M  V30 4826 H 463.331 -5.40438 -2.30653 0
M  V30 4827 H 464.855 -5.19147 -3.21433 0
M  V30 4828 H 466.269 -5.64704 -0.989047 0
M  V30 4829 H 464.666 -5.99455 -0.27826 0
M  V30 4830 H 465.736 -4.82198 0.511173 0
M  V30 4831 N 467.08 -0.0183926 -1.57589 0
M  V30 4832 C 468.305 0.676634 -1.96052 0
M  V30 4833 C 468.73 1.6548 -0.894307 0
M  V30 4834 O 468.088 1.80712 0.145849 0
M  V30 4835 C 468.136 1.36872 -3.33614 0
M  V30 4836 O 467.24 2.48372 -3.29219 0
M  V30 4837 H 466.581 0.1786 -0.63953 0
M  V30 4838 H 469.111 -0.077056 -2.04455 0
M  V30 4839 H 469.121 1.72797 -3.69601 0
M  V30 4840 H 467.796 0.651636 -4.10763 0
M  V30 4841 H 466.373 2.14639 -3.04934 0
M  V30 4842 N 468.558 1.5553 0.254621 0
M  V30 4843 C 469.491 1.84624 1.34124 0
M  V30 4844 C 470.469 0.700693 1.46728 0
M  V30 4845 O 471.653 0.94564 1.63064 0
M  V30 4846 C 468.78 2.02412 2.71564 0
M  V30 4847 C 467.826 3.25028 2.7615 0
M  V30 4848 S 468.659 4.81893 2.33538 0
M  V30 4849 C 469.815 5.02677 3.72917 0
M  V30 4850 H 470.048 2.76501 1.09245 0
M  V30 4851 H 467.581 1.47537 0.455211 0
M  V30 4852 H 469.539 2.13345 3.50705 0
M  V30 4853 H 468.2 1.11391 2.93685 0
M  V30 4854 H 467.393 3.34418 3.77069 0
M  V30 4855 H 466.995 3.12781 2.05046 0
M  V30 4856 H 469.287 4.89546 4.68349 0
M  V30 4857 H 470.23 6.0468 3.68467 0
M  V30 4858 H 470.638 4.30561 3.65072 0
M  V30 4859 N 470.036 -0.519951 1.48776 0
M  V30 4860 C 470.968 -1.63973 1.60142 0
M  V30 4861 C 471.981 -1.55404 0.485117 0
M  V30 4862 O 473.17 -1.61682 0.756391 0
M  V30 4863 C 470.27 -3.02676 1.52449 0
M  V30 4864 C 469.443 -3.36624 2.79291 0
M  V30 4865 C 468.502 -4.54652 2.64912 0
M  V30 4866 O 467.528 -4.57374 3.38818 0
M  V30 4867 N 468.73 -5.53432 1.75195 0
M  V30 4868 H 471.495 -1.54656 2.56713 0
M  V30 4869 H 469.056 -0.707439 1.45626 0
M  V30 4870 H 471.048 -3.79525 1.4051 0
M  V30 4871 H 469.618 -3.06018 0.638125 0
M  V30 4872 H 468.838 -2.48855 3.0572 0
M  V30 4873 H 470.126 -3.56094 3.6342 0
M  V30 4874 H 469.524 -5.54018 1.14371 0
M  V30 4875 H 468.081 -6.29459 1.69189 0
M  V30 4876 N 471.514 -1.37532 -0.769588 0
M  V30 4877 C 472.461 -1.3347 -1.88293 0
M  V30 4878 C 473.431 -0.199891 -1.64893 0
M  V30 4879 O 474.616 -0.389594 -1.8678 0
M  V30 4880 C 471.756 -1.14968 -3.25387 0
M  V30 4881 C 470.869 -2.37698 -3.60727 0
M  V30 4882 C 470.004 -2.12051 -4.8704 0
M  V30 4883 C 469.043 -3.30636 -5.15117 0
M  V30 4884 N 468.18 -3.04527 -6.3262 0
M  V30 4885 H 473.02 -2.28658 -1.911 0
M  V30 4886 H 470.557 -1.13622 -0.934257 0
M  V30 4887 H 472.515 -1.02261 -4.04473 0
M  V30 4888 H 471.145 -0.234263 -3.21949 0
M  V30 4889 H 470.197 -2.61137 -2.76608 0
M  V30 4890 H 471.509 -3.26131 -3.77413 0
M  V30 4891 H 470.663 -1.96388 -5.74035 0
M  V30 4892 H 469.402 -1.20959 -4.72462 0
M  V30 4893 H 468.407 -3.46836 -4.26597 0
M  V30 4894 H 469.632 -4.22582 -5.31603 0
M  V30 4895 H 467.578 -2.16067 -6.19396 0
M  V30 4896 H 467.495 -3.86503 -6.49732 0
M  V30 4897 H 468.763 -2.92485 -7.22546 0
M  V30 4898 N 472.992 0.995999 -1.22138 0
M  V30 4899 C 474.239 1.7351 -1.04406 0
M  V30 4900 C 474.567 1.89884 0.421244 0
M  V30 4901 O 473.822 1.43683 1.32867 0
M  V30 4902 C 474.121 3.14553 -1.6968 0
M  V30 4903 C 473.787 3.18102 -3.19565 0
M  V30 4904 C 472.449 3.18778 -3.60464 0
M  V30 4905 C 474.801 3.14636 -4.15516 0
M  V30 4906 C 472.129 3.13684 -4.95801 0
M  V30 4907 C 474.481 3.11084 -5.50826 0
M  V30 4908 C 473.145 3.10074 -5.91109 0
M  V30 4909 H 472.415 0.634916 -0.38205 0
M  V30 4910 H 475.062 1.1667 -1.51857 0
M  V30 4911 H 473.367 3.74682 -1.14546 0
M  V30 4912 H 475.064 3.70477 -1.53454 0
M  V30 4913 H 471.654 3.18324 -2.86998 0
M  V30 4914 H 475.838 3.13266 -3.84939 0
M  V30 4915 H 471.094 3.11245 -5.26247 0
M  V30 4916 H 475.268 3.07357 -6.24904 0
M  V30 4917 H 472.895 3.05882 -6.95946 0
M  V30 4918 N 474.47 1.03057 1.19235 0
M  V30 4919 C 475.718 0.726581 1.88587 0
M  V30 4920 C 476.039 -0.747227 1.80115 0
M  V30 4921 O 475.309 -1.53849 1.21274 0
M  V30 4922 H 473.889 0.265768 0.698124 0
M  V30 4923 H 476.551 1.30516 1.44746 0
M  V30 4924 H 475.647 1.0224 2.94879 0
M  V30 4925 N 475.948 -1.35272 0.808662 0
M  V30 4926 C 476.878 -2.32315 0.234981 0
M  V30 4927 C 477.859 -1.57572 -0.64071 0
M  V30 4928 O 479.044 -1.8563 -0.570551 0
M  V30 4929 C 476.174 -3.41801 -0.615601 0
M  V30 4930 C 475.128 -4.27694 0.161767 0
M  V30 4931 C 474.454 -5.28519 -0.810649 0
M  V30 4932 C 475.754 -5.04231 1.36193 0
M  V30 4933 H 477.448 -2.80543 1.04575 0
M  V30 4934 H 474.994 -1.3488 0.504315 0
M  V30 4935 H 476.947 -4.08693 -1.02702 0
M  V30 4936 H 475.671 -2.92186 -1.45928 0
M  V30 4937 H 474.33 -3.62384 0.554382 0
M  V30 4938 H 473.978 -4.75171 -1.64988 0
M  V30 4939 H 473.678 -5.8686 -0.294822 0
M  V30 4940 H 475.202 -5.98283 -1.22023 0
M  V30 4941 H 476.616 -5.64058 1.02528 0
M  V30 4942 H 475.013 -5.72077 1.81239 0
M  V30 4943 H 476.083 -4.34753 2.14751 0
M  V30 4944 N 477.426 -0.562348 -1.47226 0
M  V30 4945 C 478.842 -0.222492 -1.58042 0
M  V30 4946 C 479.042 1.27505 -1.56028 0
M  V30 4947 O 478.098 2.05555 -1.46641 0
M  V30 4948 C 479.411 -0.853694 -2.88327 0
M  V30 4949 C 480.959 -0.825397 -3.01921 0
M  V30 4950 C 481.434 -1.43576 -4.34914 0
M  V30 4951 N 482.925 -1.39918 -4.41562 0
M  V30 4952 C 483.66 -1.84103 -5.43041 0
M  V30 4953 N 483.156 -2.36167 -6.51304 0
M  V30 4954 N 484.949 -1.75142 -5.34118 0
M  V30 4955 H 477.1 -1.53525 -1.46778 0
M  V30 4956 H 479.363 -0.640527 -0.698877 0
M  V30 4957 H 479.069 -1.90635 -2.95552 0
M  V30 4958 H 478.943 -0.34977 -3.75575 0
M  V30 4959 H 481.33 0.218583 -2.94289 0
M  V30 4960 H 481.411 -1.36713 -2.16202 0
M  V30 4961 H 481.055 -2.47884 -4.43301 0
M  V30 4962 H 480.985 -0.869427 -5.19373 0
M  V30 4963 H 483.476 -1.0184 -3.63919 0
M  V30 4964 H 483.789 -2.67793 -7.24919 0
M  V30 4965 H 482.134 -2.40181 -6.52179 0
M  V30 4966 H 485.325 -1.34241 -4.48439 0
M  V30 4967 H 485.498 -2.09895 -6.13065 0
M  V30 4968 N 478.904 1.54736 -0.299062 0
M  V30 4969 C 480.181 1.92187 0.363802 0
M  V30 4970 C 480.561 1.22607 1.71845 0
M  V30 4971 O 479.909 0.361141 2.25628 0
M  V30 4972 C 480.119 3.45678 0.480377 0
M  V30 4973 C 481.467 4.17885 0.752147 0
M  V30 4974 O 482.491 3.51702 0.564264 0
M  V30 4975 O 481.35 5.35048 1.11294 0
M  V30 4976 H 478.444 0.801681 0.203066 0
M  V30 4977 H 480.99 1.66115 -0.346978 0
M  V30 4978 H 479.762 3.88443 -0.471999 0
M  V30 4979 H 479.385 3.77779 1.2397 0
M  V30 4980 N 480.382 0.0267497 1.57577 0
M  V30 4981 C 481.61 -0.662661 1.96001 0
M  V30 4982 C 482.025 -1.65799 0.903117 0
M  V30 4983 O 481.382 -1.82135 -0.115317 0
M  V30 4984 C 481.433 -1.37112 3.34488 0
M  V30 4985 O 481.154 -0.415683 4.36123 0
M  V30 4986 C 482.655 -2.15257 3.8753 0
M  V30 4987 H 479.875 -0.18287 0.6456 0
M  V30 4988 H 482.419 0.0858116 2.0432 0
M  V30 4989 H 480.574 -2.07101 3.27395 0
M  V30 4990 H 480.988 -0.918496 5.16395 0
M  V30 4991 H 482.462 -2.60285 4.86781 0
M  V30 4992 H 482.939 -2.99063 3.21649 0
M  V30 4993 H 483.545 -1.50231 3.97883 0
M  V30 4994 N 481.861 -1.55662 -0.24637 0
M  V30 4995 C 483.11 -1.7672 -0.972254 0
M  V30 4996 C 483.423 -0.59078 -1.86465 0
M  V30 4997 O 484.629 -0.684391 -2.62732 0
M  V30 4998 C 483.085 -3.12869 -1.7788 0
M  V30 4999 C 482.693 -4.38161 -0.933768 0
M  V30 5000 C 484.437 -3.43265 -2.49738 0
M  V30 5001 C 482.344 -5.6534 -1.73623 0
M  V30 5002 H 481.274 -0.658795 -0.366749 0
M  V30 5003 H 483.925 -1.82092 -0.226902 0
M  V30 5004 H 482.307 -3.01606 -2.56612 0
M  V30 5005 H 483.481 -4.60413 -0.188736 0
M  V30 5006 H 481.796 -4.15102 -0.328488 0
M  V30 5007 H 484.393 -4.35501 -3.10231 0
M  V30 5008 H 484.736 -2.64614 -3.2138 0
M  V30 5009 H 485.269 -3.55746 -1.78016 0
M  V30 5010 H 482.008 -6.46814 -1.06354 0
M  V30 5011 H 481.528 -5.47188 -2.45653 0
M  V30 5012 H 483.207 -6.04616 -2.30323 0
M  V30 5013 N 483.339 0.512053 -1.4905 0
M  V30 5014 C 484.585 1.26874 -1.58212 0
M  V30 5015 C 484.918 1.9241 -0.263073 0
M  V30 5016 O 484.193 1.80181 0.732476 0
M  V30 5017 C 484.476 2.34428 -2.73341 0
M  V30 5018 C 484.329 1.73466 -4.15006 0
M  V30 5019 C 485.648 3.36073 -2.84154 0
M  V30 5020 H 482.767 0.459924 -0.575881 0
M  V30 5021 H 485.409 0.568587 -1.81293 0
M  V30 5022 H 483.559 2.94146 -2.53792 0
M  V30 5023 H 485.231 1.17661 -4.46042 0
M  V30 5024 H 483.474 1.03921 -4.21168 0
M  V30 5025 H 484.145 2.51426 -4.91415 0
M  V30 5026 H 486.621 2.86332 -3.01916 0
M  V30 5027 H 485.497 4.08703 -3.66406 0
M  V30 5028 H 485.758 3.97725 -1.93048 0
M  V30 5029 N 484.817 1.37938 0.762283 0
M  V30 5030 C 485.764 1.34467 1.87583 0
M  V30 5031 C 486.734 0.208633 1.64785 0
M  V30 5032 O 487.919 0.399494 1.86571 0
M  V30 5033 C 485.059 1.16692 3.24772 0
M  V30 5034 C 484.172 2.39608 3.59461 0
M  V30 5035 C 483.307 2.14631 4.85908 0
M  V30 5036 C 482.346 3.33364 5.13357 0
M  V30 5037 N 481.483 3.07877 6.30996 0
M  V30 5038 H 486.323 2.29669 1.89885 0
M  V30 5039 H 483.86 1.14116 0.928219 0
M  V30 5040 H 485.818 1.04405 4.03925 0
M  V30 5041 H 484.448 0.251333 3.2182 0
M  V30 5042 H 483.5 2.626 2.75219 0
M  V30 5043 H 484.812 3.28128 3.75678 0
M  V30 5044 H 483.966 1.99429 5.72986 0
M  V30 5045 H 482.705 1.23463 4.71814 0
M  V30 5046 H 481.71 3.49094 4.24751 0
M  V30 5047 H 482.935 4.25395 5.29354 0
M  V30 5048 H 480.881 2.19348 6.18241 0
M  V30 5049 H 480.798 3.89944 6.47673 0
M  V30 5050 H 482.066 2.96313 7.20985 0
M  V30 5051 N 486.295 -0.989507 1.22664 0
M  V30 5052 C 487.52 -1.77031 1.08051 0
M  V30 5053 C 487.945 -1.84535 -0.364483 0
M  V30 5054 O 487.303 -1.3003 -1.2634 0
M  V30 5055 C 487.351 -3.18 1.70024 0
M  V30 5056 O 486.455 -4.01161 0.956216 0
M  V30 5057 H 485.796 -0.545008 0.379292 0
M  V30 5058 H 488.326 -1.24277 1.62531 0
M  V30 5059 H 488.336 -3.68616 1.74888 0
M  V30 5060 H 487.011 -3.11853 2.75174 0
M  V30 5061 H 485.588 -3.59687 0.98384 0
M  V30 5062 N 487.773 -1.03688 -1.18687 0
M  V30 5063 C 488.723 -0.595067 -2.20098 0
M  V30 5064 C 489.707 0.360465 -1.5681 0
M  V30 5065 O 490.899 0.180136 -1.76081 0
M  V30 5066 C 488.028 0.0444495 -3.43271 0
M  V30 5067 C 487.114 -0.934002 -4.13687 0
M  V30 5068 N 487.505 -2.09957 -4.60165 0
M  V30 5069 C 485.803 -0.759177 -4.39491 0
M  V30 5070 C 486.504 -2.71735 -5.1433 0
M  V30 5071 N 485.48 -1.99638 -5.05614 0
M  V30 5072 H 489.282 -1.48336 -2.5372 0
M  V30 5073 H 486.796 -0.904949 -1.3485 0
M  V30 5074 H 488.793 0.37864 -4.15177 0
M  V30 5075 H 487.453 0.928325 -3.11147 0
M  V30 5076 H 488.464 -2.47863 -4.54735 0
M  V30 5077 H 485.141 0.0749292 -4.17433 0
M  V30 5078 H 486.531 -3.70492 -5.60523 0
M  V30 5079 N 489.251 1.34841 -0.815825 0
M  V30 5080 C 490.181 2.32187 -0.247298 0
M  V30 5081 C 491.162 1.5791 0.632344 0
M  V30 5082 O 492.347 1.8593 0.560698 0
M  V30 5083 C 489.477 3.42122 0.597466 0
M  V30 5084 C 488.431 4.27602 -0.184446 0
M  V30 5085 C 487.757 5.28942 0.782609 0
M  V30 5086 C 489.057 5.03502 -1.38865 0
M  V30 5087 H 490.751 2.79985 -1.06061 0
M  V30 5088 H 488.297 1.34611 -0.511461 0
M  V30 5089 H 490.25 4.09232 1.00533 0
M  V30 5090 H 488.974 2.92956 1.44376 0
M  V30 5091 H 487.633 3.62085 -0.573592 0
M  V30 5092 H 487.281 4.7604 1.62466 0
M  V30 5093 H 486.981 5.87008 0.263695 0
M  V30 5094 H 488.505 5.98922 1.18848 0
M  V30 5095 H 489.919 5.63506 -1.05518 0
M  V30 5096 H 488.316 5.71108 -1.8427 0
M  V30 5097 H 489.386 4.33608 -2.17054 0
M  V30 5098 N 490.729 0.570148 1.46925 0
M  V30 5099 C 491.659 -0.158274 2.32963 0
M  V30 5100 C 492.64 -0.896093 1.44583 0
M  V30 5101 O 493.825 -0.874022 1.7342 0
M  V30 5102 C 490.955 -1.18055 3.26619 0
M  V30 5103 C 489.909 -0.558379 4.24342 0
M  V30 5104 C 489.235 -1.68623 5.07415 0
M  V30 5105 C 490.535 0.496295 5.19937 0
M  V30 5106 H 492.229 0.560046 2.94115 0
M  V30 5107 H 489.775 0.270775 1.41431 0
M  V30 5108 H 491.728 -1.69841 3.85658 0
M  V30 5109 H 490.452 -1.92899 2.63548 0
M  V30 5110 H 489.111 -0.0617157 3.66548 0
M  V30 5111 H 488.759 -2.42402 4.40738 0
M  V30 5112 H 488.459 -1.27564 5.73586 0
M  V30 5113 H 489.983 -2.20709 5.69315 0
M  V30 5114 H 491.397 0.0640052 5.73264 0
M  V30 5115 H 489.794 0.82649 5.94381 0
M  V30 5116 H 490.864 1.38735 4.6463 0
M  V30 5117 N 492.207 -1.54576 0.307264 0
M  V30 5118 C 493.139 -2.21212 -0.599807 0
M  V30 5119 C 494.152 -1.20685 -1.09266 0
M  V30 5120 O 495.341 -1.47244 -1.00903 0
M  V30 5121 C 492.441 -2.84994 -1.83389 0
M  V30 5122 C 491.614 -4.11511 -1.48248 0
M  V30 5123 C 490.673 -4.59038 -2.57237 0
M  V30 5124 O 489.699 -5.24095 -2.22065 0
M  V30 5125 N 490.901 -4.31884 -3.87887 0
M  V30 5126 H 493.666 -2.99686 -0.0293075 0
M  V30 5127 H 491.227 -1.61379 0.129738 0
M  V30 5128 H 493.219 -3.1372 -2.5566 0
M  V30 5129 H 491.789 -2.10324 -2.31263 0
M  V30 5130 H 491.009 -3.89728 -0.592122 0
M  V30 5131 H 492.297 -4.93879 -1.22316 0
M  V30 5132 H 491.695 -3.79778 -4.19268 0
M  V30 5133 H 490.252 -4.65304 -4.56438 0
M  V30 5134 N 493.685 -0.035106 -1.57561 0
M  V30 5135 C 494.632 0.94474 -2.10578 0
M  V30 5136 C 495.602 1.3192 -1.00927 0
M  V30 5137 O 496.787 1.41147 -1.28382 0
M  V30 5138 C 493.927 2.21982 -2.64231 0
M  V30 5139 C 493.04 1.90128 -3.87911 0
M  V30 5140 C 492.175 3.11975 -4.29936 0
M  V30 5141 C 491.214 2.75968 -5.46359 0
M  V30 5142 N 490.351 3.90459 -5.83512 0
M  V30 5143 H 495.191 0.485717 -2.94015 0
M  V30 5144 H 492.728 0.228143 -1.4532 0
M  V30 5145 H 494.686 2.96572 -2.9343 0
M  V30 5146 H 493.316 2.6549 -1.83616 0
M  V30 5147 H 492.368 1.05755 -3.65404 0
M  V30 5148 H 493.68 1.59613 -4.72573 0
M  V30 5149 H 492.834 3.9488 -4.60603 0
M  V30 5150 H 491.573 3.45657 -3.44053 0
M  V30 5151 H 490.578 1.91478 -5.1538 0
M  V30 5152 H 491.803 2.43497 -6.33945 0
M  V30 5153 H 489.749 4.23971 -5.00584 0
M  V30 5154 H 489.666 3.63588 -6.62827 0
M  V30 5155 H 490.934 4.7405 -6.18787 0
M  V30 5156 N 495.163 1.55791 0.238111 0
M  V30 5157 C 496.073 1.94196 1.31625 0
M  V30 5158 C 497.089 0.843545 1.52185 0
M  V30 5159 O 498.265 1.1457 1.65637 0
M  V30 5160 C 495.33 2.2365 2.64918 0
M  V30 5161 C 494.391 3.46971 2.52804 0
M  V30 5162 C 493.624 3.7501 3.79741 0
M  V30 5163 O 493.847 3.04982 4.82019 0
M  V30 5164 O 492.781 4.68525 3.77846 0
M  V30 5165 H 496.607 2.86044 1.02043 0
M  V30 5166 H 494.192 1.42786 0.439603 0
M  V30 5167 H 496.074 2.43863 3.4367 0
M  V30 5168 H 494.749 1.34979 2.94215 0
M  V30 5169 H 493.656 3.32055 1.72309 0
M  V30 5170 H 494.989 4.35971 2.28451 0
M  V30 5171 N 496.642 -0.504142 1.49319 0
M  V30 5172 C 497.552 -1.63248 1.68486 0
M  V30 5173 C 498.568 -1.64488 0.567432 0
M  V30 5174 O 499.744 -1.82966 0.841749 0
M  V30 5175 C 496.809 -2.99627 1.74426 0
M  V30 5176 C 495.87 -3.09039 2.97982 0
M  V30 5177 C 495.103 -4.38913 3.0363 0
M  V30 5178 O 495.326 -5.27528 2.16958 0
M  V30 5179 O 494.26 -4.53231 3.96062 0
M  V30 5180 H 498.086 -1.50008 2.64067 0
M  V30 5181 H 495.671 -0.680086 1.33023 0
M  V30 5182 H 497.553 -3.80689 1.80705 0
M  V30 5183 H 496.228 -3.13136 0.820233 0
M  V30 5184 H 495.135 -2.27177 2.97223 0
M  V30 5185 H 496.468 -3.00456 3.89855 0
M  V30 5186 N 498.12 -1.38341 -0.754957 0
M  V30 5187 C 499.397 -1.24995 -1.50451 0
M  V30 5188 C 499.777 0.149244 -2.10572 0
M  V30 5189 O 499.125 1.15861 -1.96948 0
M  V30 5190 C 499.335 -2.35904 -2.57197 0
M  V30 5191 C 500.683 -2.74262 -3.24138 0
M  V30 5192 O 501.707 -2.35205 -2.67501 0
M  V30 5193 O 500.566 -3.4161 -4.26574 0
M  V30 5194 H 497.66 -0.48872 -0.667144 0
M  V30 5195 H 500.206 -1.50165 -0.790486 0
M  V30 5196 H 498.978 -3.2953 -2.11011 0
M  V30 5197 H 498.601 -2.12291 -3.36182 0
M  V30 5198 N 499.598 0.982988 -1.23187 0
M  V30 5199 C 500.828 1.75666 -1.08743 0
M  V30 5200 C 501.236 1.85662 0.364195 0
M  V30 5201 O 500.579 1.33317 1.26382 0
M  V30 5202 C 500.641 3.20144 -1.63549 0
M  V30 5203 C 500.305 3.33665 -3.12277 0
M  V30 5204 C 501.302 3.20194 -4.096 0
M  V30 5205 C 498.987 3.58397 -3.51933 0
M  V30 5206 C 500.981 3.31256 -5.44563 0
M  V30 5207 C 498.668 3.69098 -4.87042 0
M  V30 5208 C 499.666 3.55537 -5.83166 0
M  V30 5209 O 499.354 3.65864 -7.1582 0
M  V30 5210 H 499.086 0.558194 -0.381307 0
M  V30 5211 H 501.64 1.24387 -1.63454 0
M  V30 5212 H 499.87 3.72659 -1.03256 0
M  V30 5213 H 501.559 3.79262 -1.4462 0
M  V30 5214 H 502.325 3.00987 -3.80305 0
M  V30 5215 H 498.204 3.68025 -2.77631 0
M  V30 5216 H 501.748 3.20588 -6.19572 0
M  V30 5217 H 497.645 3.87814 -5.16014 0
M  V30 5218 H 498.413 3.82675 -7.23534 0
M  V30 5219 N 501.076 1.04316 1.18135 0
M  V30 5220 C 502.304 0.768117 1.92113 0
M  V30 5221 C 502.719 -0.675057 1.76319 0
M  V30 5222 O 502.076 -1.46038 1.09449 0
M  V30 5223 C 502.127 1.12808 3.43448 0
M  V30 5224 O 501.848 2.5146 3.58747 0
M  V30 5225 C 503.349 0.8779 4.3452 0
M  V30 5226 H 500.569 0.279937 0.609817 0
M  V30 5227 H 503.113 1.39149 1.49859 0
M  V30 5228 H 501.268 0.549623 3.83481 0
M  V30 5229 H 501.682 2.65313 4.52448 0
M  V30 5230 H 503.156 1.17959 5.39249 0
M  V30 5231 H 503.633 -0.187239 4.38801 0
M  V30 5232 H 504.239 1.43977 4.00188 0
M  V30 5233 N 502.554 -1.34406 0.822964 0
M  V30 5234 C 503.784 -2.02214 0.423424 0
M  V30 5235 C 504.192 -1.62124 -0.975322 0
M  V30 5236 O 503.535 -0.822452 -1.6426 0
M  V30 5237 C 503.597 -3.56721 0.446107 0
M  V30 5238 C 503.261 -4.20136 1.79819 0
M  V30 5239 C 504.258 -4.4065 2.75904 0
M  V30 5240 C 501.943 -4.56906 2.08669 0
M  V30 5241 C 503.937 -4.9706 3.99012 0
M  V30 5242 C 501.624 -5.13026 3.32036 0
M  V30 5243 C 502.622 -5.33047 4.27024 0
M  V30 5244 O 502.31 -5.87979 5.48211 0
M  V30 5245 H 502.042 -0.654748 0.168169 0
M  V30 5246 H 504.596 -1.72659 1.11257 0
M  V30 5247 H 502.826 -3.85537 -0.299734 0
M  V30 5248 H 504.515 -4.05845 0.0666114 0
M  V30 5249 H 505.281 -4.12607 2.54912 0
M  V30 5250 H 501.16 -4.40626 1.35535 0
M  V30 5251 H 504.704 -5.12603 4.73164 0
M  V30 5252 H 500.601 -5.40498 3.52891 0
M  V30 5253 H 501.369 -6.06413 5.49732 0
M  V30 5254 N 504.032 -0.577932 -1.46621 0
M  V30 5255 C 505.281 -0.0594281 -2.01612 0
M  V30 5256 C 505.594 1.30663 -1.45556 0
M  V30 5257 O 506.8 1.91621 -1.92337 0
M  V30 5258 C 505.256 -0.0556666 -3.59857 0
M  V30 5259 C 504.864 -1.41975 -4.24908 0
M  V30 5260 C 506.608 0.409143 -4.22524 0
M  V30 5261 C 504.515 -1.37397 -5.75218 0
M  V30 5262 H 503.445 -0.0184469 -0.753774 0
M  V30 5263 H 506.096 -0.728869 -1.68404 0
M  V30 5264 H 504.478 0.679843 -3.90121 0
M  V30 5265 H 505.652 -2.17461 -4.0626 0
M  V30 5266 H 503.967 -1.82419 -3.74316 0
M  V30 5267 H 506.564 0.46211 -5.32699 0
M  V30 5268 H 506.907 1.42565 -3.91128 0
M  V30 5269 H 507.44 -0.272152 -3.96868 0
M  V30 5270 H 504.179 -2.36714 -6.11267 0
M  V30 5271 H 503.699 -0.661239 -5.96144 0
M  V30 5272 H 505.378 -1.08484 -6.3784 0
M  V30 5273 N 505.51 1.54411 -0.315457 0
M  V30 5274 C 506.442 2.21527 0.588067 0
M  V30 5275 C 507.455 1.21263 1.08624 0
M  V30 5276 O 508.644 1.47777 1.00121 0
M  V30 5277 C 505.744 2.85963 1.81875 0
M  V30 5278 C 504.917 4.12291 1.46063 0
M  V30 5279 C 503.976 4.60396 2.54799 0
M  V30 5280 O 503.002 5.25265 2.19283 0
M  V30 5281 N 504.204 4.33935 3.85591 0
M  V30 5282 H 506.969 2.99697 0.013414 0
M  V30 5283 H 504.53 1.61308 -0.138295 0
M  V30 5284 H 506.522 3.15071 2.53993 0
M  V30 5285 H 505.092 2.11548 2.30144 0
M  V30 5286 H 504.312 3.90036 0.571445 0
M  V30 5287 H 505.6 4.9452 1.19695 0
M  V30 5288 H 504.998 3.81996 4.17248 0
M  V30 5289 H 503.555 4.67718 4.53964 0
M  V30 5290 N 506.988 0.0434614 1.5754 0
M  V30 5291 C 507.936 -0.951465 2.1225 0
M  V30 5292 C 508.93 -1.3274 1.05245 0
M  V30 5293 O 510.136 -1.30795 1.23663 0
M  V30 5294 H 506.511 -0.324667 0.678303 0
M  V30 5295 H 508.482 -0.464855 2.94757 0
M  V30 5296 C 507.231 -2.21972 2.67626 0
M  V30 5297 H 506.554 -1.93923 3.4962 0
M  V30 5298 H 507.994 -2.89765 3.09536 0
M  V30 5299 C 506.453 -2.95919 1.61038 0
M  V30 5300 O 506.983 -3.8857 1.01862 0
M  V30 5301 N 505.189 -2.58511 1.32741 0
M  V30 5302 H 504.736 -1.83244 1.81051 0
M  V30 5303 H 504.694 -3.08296 0.616531 0
M  V30 5304 N 508.466 -1.55915 -0.229846 0
M  V30 5305 C 509.713 -1.78542 -0.955452 0
M  V30 5306 C 510.041 -0.610785 -1.84661 0
M  V30 5307 O 509.296 0.405213 -1.91459 0
M  V30 5308 C 509.595 -3.06845 -1.8325 0
M  V30 5309 C 509.261 -4.37395 -1.09528 0
M  V30 5310 C 507.923 -4.72868 -0.891598 0
M  V30 5311 C 510.275 -5.18029 -0.574046 0
M  V30 5312 C 507.603 -5.86496 -0.154655 0
M  V30 5313 C 509.955 -6.32423 0.149513 0
M  V30 5314 C 508.619 -6.66504 0.364519 0
M  V30 5315 H 507.889 -0.653333 -0.349625 0
M  V30 5316 H 510.536 -1.90183 -0.224235 0
M  V30 5317 H 508.841 -2.90291 -2.63132 0
M  V30 5318 H 510.538 -3.21553 -2.39592 0
M  V30 5319 H 507.128 -4.09538 -1.26399 0
M  V30 5320 H 511.312 -4.91066 -0.718899 0
M  V30 5321 H 506.568 -6.11396 0.0222356 0
M  V30 5322 H 510.742 -6.94137 0.560947 0
M  V30 5323 H 508.369 -7.54397 0.937495 0
M  V30 5324 N 509.944 0.496216 -1.49584 0
M  V30 5325 C 511.36 0.827814 -1.36453 0
M  V30 5326 C 511.56 1.97464 -0.401285 0
M  V30 5327 O 510.616 2.51958 0.165296 0
M  V30 5328 C 511.929 1.16352 -2.77277 0
M  V30 5329 C 513.477 1.27145 -2.86013 0
M  V30 5330 C 513.952 1.64042 -4.27615 0
M  V30 5331 N 515.443 1.71082 -4.30448 0
M  V30 5332 C 516.178 2.01085 -5.36984 0
M  V30 5333 N 515.674 2.2928 -6.5376 0
M  V30 5334 N 517.467 2.02376 -5.24405 0
M  V30 5335 H 509.618 -0.259947 -2.10803 0
M  V30 5336 H 511.881 -0.0537163 -0.946477 0
M  V30 5337 H 511.587 0.394153 -3.49484 0
M  V30 5338 H 511.461 2.10582 -3.12946 0
M  V30 5339 H 513.848 2.03152 -2.1404 0
M  V30 5340 H 513.929 0.309542 -2.5392 0
M  V30 5341 H 513.573 0.88583 -5.00115 0
M  V30 5342 H 513.503 2.6134 -4.57175 0
M  V30 5343 H 515.994 1.51434 -3.46232 0
M  V30 5344 H 516.307 2.51376 -7.30774 0
M  V30 5345 H 514.652 2.26726 -6.56978 0
M  V30 5346 H 517.843 1.79829 -4.32179 0
M  V30 5347 H 518.016 2.25425 -6.07526 0
M  V30 5348 N 511.423 1.38739 0.74761 0
M  V30 5349 C 512.67 1.35274 1.50689 0
M  V30 5350 C 512.998 -0.0553359 1.94421 0
M  V30 5351 O 512.253 -1.03365 1.66175 0
M  V30 5352 C 512.552 2.25992 2.7688 0
M  V30 5353 C 512.218 3.73854 2.5208 0
M  V30 5354 C 510.88 4.14145 2.45025 0
M  V30 5355 C 513.232 4.67427 2.30568 0
M  V30 5356 C 510.56 5.4609 2.14483 0
M  V30 5357 C 512.912 5.99635 2.01545 0
M  V30 5358 C 511.576 6.39004 1.92951 0
M  V30 5359 H 510.846 0.495003 0.55141 0
M  V30 5360 H 513.493 1.71145 0.859158 0
M  V30 5361 H 511.798 1.83196 3.46333 0
M  V30 5362 H 513.495 2.20611 3.34861 0
M  V30 5363 H 510.085 3.41913 2.58444 0
M  V30 5364 H 514.269 4.3714 2.34994 0
M  V30 5365 H 509.525 5.75528 2.06342 0
M  V30 5366 H 513.699 6.71678 1.83906 0
M  V30 5367 H 511.326 7.41165 1.6905 0
M  V30 5368 N 512.901 -0.976442 1.23707 0
M  V30 5369 C 514.148 -1.71827 1.07153 0
M  V30 5370 C 514.476 -1.9053 -0.390982 0
M  V30 5371 O 513.731 -1.45779 -1.30564 0
M  V30 5372 C 514.03 -3.11814 1.74662 0
M  V30 5373 C 513.696 -3.12978 3.24585 0
M  V30 5374 C 512.358 -3.13003 3.6549 0
M  V30 5375 C 514.71 -3.07986 4.20469 0
M  V30 5376 C 512.038 -3.05757 5.00729 0
M  V30 5377 C 514.39 -3.02282 5.55705 0
M  V30 5378 C 513.054 -3.00631 5.95968 0
M  V30 5379 H 512.324 -0.628758 0.392102 0
M  V30 5380 H 514.971 -1.14239 1.53693 0
M  V30 5381 H 513.276 -3.72812 1.20492 0
M  V30 5382 H 514.973 -3.67989 1.59328 0
M  V30 5383 H 511.563 -3.13718 2.92026 0
M  V30 5384 H 515.747 -3.07103 3.89874 0
M  V30 5385 H 511.003 -3.02834 5.31132 0
M  V30 5386 H 515.177 -2.97376 6.29714 0
M  V30 5387 H 512.804 -2.94771 7.00724 0
M  V30 5388 N 514.379 -1.04941 -1.1758 0
M  V30 5389 C 515.342 -0.652456 -2.19717 0
M  V30 5390 C 516.342 0.294745 -1.58076 0
M  V30 5391 O 517.532 0.0789579 -1.74021 0
M  V30 5392 C 514.664 0.0420712 -3.40874 0
M  V30 5393 H 515.857 -1.55642 -2.5635 0
M  V30 5394 H 513.41 -0.842995 -1.31618 0
M  V30 5395 H 514.145 0.95943 -3.09783 0
M  V30 5396 H 513.93 -0.638844 -3.86861 0
M  V30 5397 H 515.42 0.306 -4.16477 0
M  V30 5398 N 515.857 1.33968 -0.830081 0
M  V30 5399 C 517.105 1.97672 -0.420734 0
M  V30 5400 C 517.426 1.66111 1.02138 0
M  V30 5401 O 516.696 0.955503 1.71017 0
M  V30 5402 H 515.276 0.73125 -0.152587 0
M  V30 5403 H 517.938 1.63483 -1.0611 0
M  V30 5404 H 517.034 3.07294 -0.545588 0
M  V30 5405 N 517.335 0.585699 1.46312 0
M  V30 5406 C 518.563 0.0781299 2.06752 0
M  V30 5407 C 518.978 -1.22812 1.43396 0
M  V30 5408 O 518.335 -1.74318 0.540314 0
M  V30 5409 C 518.386 -0.0911927 3.61385 0
M  V30 5410 O 518.107 1.16336 4.22371 0
M  V30 5411 C 519.608 -0.632765 4.38761 0
M  V30 5412 H 516.828 0.0588188 0.668417 0
M  V30 5413 H 519.372 0.807218 1.87894 0
M  V30 5414 H 517.527 -0.770514 3.7966 0
M  V30 5415 H 517.941 0.979082 5.15281 0
M  V30 5416 H 519.415 -0.70041 5.47538 0
M  V30 5417 H 519.892 -1.65039 4.07012 0
M  V30 5418 H 520.498 0.0117856 4.25298 0
M  V30 5419 N 518.813 -1.54241 0.323641 0
M  V30 5420 C 520.043 -2.04687 -0.280464 0
M  V30 5421 C 520.451 -1.19939 -1.46326 0
M  V30 5422 O 519.794 -0.222872 -1.82343 0
M  V30 5423 C 519.856 -3.50978 -0.778123 0
M  V30 5424 C 519.52 -4.56127 0.282371 0
M  V30 5425 C 520.517 -5.07726 1.11847 0
M  V30 5426 C 518.202 -5.00451 0.430582 0
M  V30 5427 C 520.196 -6.02212 2.08851 0
M  V30 5428 C 517.883 -5.94752 1.40404 0
M  V30 5429 C 518.881 -6.45519 2.23147 0
M  V30 5430 O 518.569 -7.37968 3.1884 0
M  V30 5431 H 518.301 -0.673192 -0.0615473 0
M  V30 5432 H 520.855 -1.99999 0.467921 0
M  V30 5433 H 519.085 -3.53064 -1.57742 0
M  V30 5434 H 520.774 -3.84499 -1.30058 0
M  V30 5435 H 521.54 -4.74261 1.01496 0
M  V30 5436 H 517.419 -4.6055 -0.203569 0
M  V30 5437 H 520.963 -6.41761 2.73474 0
M  V30 5438 H 516.86 -6.27633 1.5082 0
M  V30 5439 H 517.628 -7.55841 3.14079 0
M  V30 5440 N 520.291 -0.0518155 -1.57515 0
M  V30 5441 C 521.239 0.940195 -2.12751 0
M  V30 5442 C 522.233 1.3218 -1.05948 0
M  V30 5443 O 523.439 1.30138 -1.24355 0
M  V30 5444 H 519.814 0.321066 -0.680015 0
M  V30 5445 H 521.785 0.449217 -2.94999 0
M  V30 5446 C 520.534 2.2055 -2.68799 0
M  V30 5447 H 519.857 1.92066 -3.50643 0
M  V30 5448 H 521.297 2.88119 -3.11068 0
M  V30 5449 C 519.756 2.95061 -1.62605 0
M  V30 5450 O 520.286 3.88025 -1.03921 0
M  V30 5451 N 518.492 2.57804 -1.34111 0
M  V30 5452 H 518.039 1.82281 -1.8202 0
M  V30 5453 H 517.997 3.07964 -0.632872 0
M  V30 5454 N 521.769 1.56035 0.221574 0
M  V30 5455 C 523.015 1.79312 0.947372 0
M  V30 5456 C 523.348 0.621453 1.83988 0
M  V30 5457 O 522.623 -0.379287 1.90766 0
M  V30 5458 C 522.906 3.1267 1.78633 0
M  V30 5459 C 522.759 4.40284 0.920312 0
M  V30 5460 C 524.078 3.4247 2.7641 0
M  V30 5461 H 521.197 0.652328 0.342982 0
M  V30 5462 H 523.839 1.88765 0.216244 0
M  V30 5463 H 521.989 3.04741 2.40967 0
M  V30 5464 H 523.661 4.60232 0.313718 0
M  V30 5465 H 521.904 4.33212 0.225734 0
M  V30 5466 H 522.575 5.30033 1.54171 0
M  V30 5467 H 525.051 3.50526 2.24211 0
M  V30 5468 H 523.927 4.3695 3.32213 0
M  V30 5469 H 524.188 2.64635 3.54148 0
M  V30 5470 N 523.247 -0.488276 1.49845 0
M  V30 5471 C 524.195 -1.60917 1.67954 0
M  V30 5472 C 525.189 -1.6038 0.54539 0
M  V30 5473 O 526.395 -1.64736 0.7254 0
M  V30 5474 H 522.77 -0.533658 0.529824 0
M  V30 5475 H 524.741 -1.428 2.62013 0
M  V30 5476 C 523.49 -2.98975 1.77509 0
M  V30 5477 H 522.813 -3.00099 2.6416 0
M  V30 5478 H 524.253 -3.76906 1.9421 0
M  V30 5479 C 522.712 -3.3282 0.522745 0
M  V30 5480 O 523.242 -4.00208 -0.345866 0
M  V30 5481 N 521.448 -2.8808 0.381882 0
M  V30 5482 H 520.995 -2.33415 1.08974 0
M  V30 5483 H 520.953 -3.11091 -0.454929 0
M  V30 5484 N 524.725 -1.39134 -0.740242 0
M  V30 5485 C 525.973 -1.35803 -1.49673 0
M  V30 5486 C 526.294 0.0470897 -1.94943 0
M  V30 5487 O 525.564 0.997347 -1.68611 0
M  V30 5488 H 524.144 -0.499736 -0.555224 0
M  V30 5489 H 526.806 -1.73947 -0.879107 0
M  V30 5490 H 525.902 -2.0174 -2.38133 0
M  V30 5491 N 526.204 0.969867 -1.24223 0
M  V30 5492 C 527.136 2.0669 -0.99055 0
M  V30 5493 C 528.149 1.62753 0.0392222 0
M  V30 5494 O 529.338 1.77403 -0.197561 0
M  V30 5495 C 526.438 3.35589 -0.472594 0
M  V30 5496 C 525.611 4.08444 -1.56499 0
M  V30 5497 C 524.67 5.15616 -1.05007 0
M  V30 5498 O 523.696 5.41911 -1.7413 0
M  V30 5499 N 524.898 5.80383 0.116641 0
M  V30 5500 H 527.663 2.28855 -1.93508 0
M  V30 5501 H 525.224 1.13733 -1.15223 0
M  V30 5502 H 527.216 4.04542 -0.112919 0
M  V30 5503 H 525.786 3.10311 0.377617 0
M  V30 5504 H 525.006 3.33798 -2.09696 0
M  V30 5505 H 526.294 4.53882 -2.29932 0
M  V30 5506 H 525.692 5.6142 0.694589 0
M  V30 5507 H 524.249 6.50462 0.417483 0
M  V30 5508 N 527.682 1.05563 1.17022 0
M  V30 5509 C 528.907 0.788437 1.91829 0
M  V30 5510 C 529.332 -0.650356 1.76499 0
M  V30 5511 O 528.69 -1.45229 1.08527 0
M  V30 5512 C 528.738 1.1786 3.40795 0
M  V30 5513 O 527.842 0.312965 4.11211 0
M  V30 5514 H 527.183 0.288794 0.597908 0
M  V30 5515 H 529.713 1.40948 1.48307 0
M  V30 5516 H 529.723 1.14697 3.91546 0
M  V30 5517 H 528.398 2.22666 3.51273 0
M  V30 5518 H 526.975 0.405515 3.70689 0
M  V30 5519 N 529.16 -1.33526 0.837174 0
M  V30 5520 C 530.571 -1.80182 0.489017 0
M  V30 5521 C 530.922 -1.69285 -0.991826 0
M  V30 5522 O 530.047 -1.24113 -1.77271 0
M  V30 5523 C 530.642 -3.27149 0.880866 0
M  V30 5524 C 529.201 -3.71828 0.584872 0
M  V30 5525 C 528.348 -2.54974 1.09011 0
M  V30 5526 H 531.299 -1.21071 1.02603 0
M  V30 5527 H 531.32 -3.80024 0.190239 0
M  V30 5528 H 530.832 -3.35048 1.95869 0
M  V30 5529 H 528.933 -3.69457 -0.48295 0
M  V30 5530 H 529.046 -4.65366 1.13892 0
M  V30 5531 H 527.41 -2.4952 0.511047 0
M  V30 5532 H 528.193 -2.65637 2.17467 0
M  V30 5533 N 530.638 -0.59345 -1.46 0
M  V30 5534 C 531.585 0.133618 -2.30413 0
M  V30 5535 C 532.555 0.873736 -1.41262 0
M  V30 5536 O 533.74 0.862279 -1.70204 0
M  V30 5537 C 530.88 1.13434 -3.25924 0
M  V30 5538 C 529.993 0.39656 -4.30176 0
M  V30 5539 C 529.128 1.38575 -5.12806 0
M  V30 5540 C 528.167 0.634984 -6.08797 0
M  V30 5541 N 527.304 1.57276 -6.84258 0
M  V30 5542 H 532.144 -0.592252 -2.92055 0
M  V30 5543 H 529.681 -0.303874 -1.43927 0
M  V30 5544 H 531.639 1.72752 -3.79753 0
M  V30 5545 H 530.269 1.82779 -2.66067 0
M  V30 5546 H 529.321 -0.311861 -3.79119 0
M  V30 5547 H 530.633 -0.189869 -4.98438 0
M  V30 5548 H 529.787 2.05141 -5.70966 0
M  V30 5549 H 528.526 2.00611 -4.44529 0
M  V30 5550 H 527.531 -0.0443925 -5.49782 0
M  V30 5551 H 528.756 0.0198678 -6.79097 0
M  V30 5552 H 526.702 2.18103 -6.18682 0
M  V30 5553 H 526.619 1.03941 -7.48821 0
M  V30 5554 H 527.887 2.22844 -7.46968 0
M  V30 5555 N 532.116 1.54067 -0.331816 0
M  V30 5556 C 533.026 2.28322 0.539104 0
M  V30 5557 C 534.042 1.32985 1.1221 0
M  V30 5558 O 535.218 1.6601 1.1403 0
M  V30 5559 C 532.283 3.03277 1.68 0
M  V30 5560 C 531.344 4.14216 1.12798 0
M  V30 5561 C 530.577 4.85588 2.2145 0
M  V30 5562 O 530.8 4.56536 3.41952 0
M  V30 5563 O 529.734 5.72309 1.86404 0
M  V30 5564 H 533.56 3.03632 -0.0641692 0
M  V30 5565 H 531.145 1.49083 -0.0972365 0
M  V30 5566 H 533.027 3.50189 2.34405 0
M  V30 5567 H 531.702 2.30834 2.2693 0
M  V30 5568 H 530.609 3.71635 0.428782 0
M  V30 5569 H 531.942 4.88727 0.583698 0
M  V30 5570 N 533.594 0.0601682 1.57485 0
M  V30 5571 C 534.834 -0.615384 1.94916 0
M  V30 5572 C 535.198 -1.67475 0.938948 0
M  V30 5573 O 536.399 -2.40502 1.20051 0
M  V30 5574 C 534.67 -1.18788 3.37082 0
M  V30 5575 S 536.229 -1.88018 3.96478 0
M  V30 5576 H 533.047 -0.201821 0.681754 0
M  V30 5577 H 535.649 0.131252 1.95059 0
M  V30 5578 H 534.353 -0.404869 4.08398 0
M  V30 5579 H 533.884 -1.97114 3.40455 0
M  V30 5580 H 535.899 -3.16161 3.82435 0
M  V30 5581 N 535.072 -1.5615 -0.213296 0
M  V30 5582 C 536.002 -1.96109 -1.26742 0
M  V30 5583 C 536.983 -0.830448 -1.48451 0
M  V30 5584 O 538.168 -1.09339 -1.60495 0
M  V30 5585 C 535.298 -2.28492 -2.61551 0
M  V30 5586 C 534.252 -3.44124 -2.54485 0
M  V30 5587 C 533.578 -3.62134 -3.93399 0
M  V30 5588 C 534.878 -4.78855 -2.08556 0
M  V30 5589 H 536.572 -2.84412 -0.935434 0
M  V30 5590 H 534.118 -1.36836 -0.44854 0
M  V30 5591 H 536.071 -2.55039 -3.3546 0
M  V30 5592 H 534.795 -1.37052 -2.96453 0
M  V30 5593 H 533.454 -3.17639 -1.83033 0
M  V30 5594 H 533.102 -2.68055 -4.25623 0
M  V30 5595 H 532.802 -4.39913 -3.89551 0
M  V30 5596 H 534.326 -3.91038 -4.68958 0
M  V30 5597 H 535.74 -5.04552 -2.72213 0
M  V30 5598 H 534.137 -5.59975 -2.1575 0
M  V30 5599 H 535.207 -4.73657 -1.03811 0
M  V30 5600 N 536.55 0.480323 -1.50102 0
M  V30 5601 C 537.966 0.813295 -1.37323 0
M  V30 5602 C 538.166 1.97027 -0.422206 0
M  V30 5603 O 537.222 2.5212 0.138563 0
M  V30 5604 C 538.535 1.13404 -2.78496 0
M  V30 5605 C 540.083 1.24104 -2.87345 0
M  V30 5606 C 540.558 1.59497 -4.29331 0
M  V30 5607 N 542.049 1.66507 -4.32238 0
M  V30 5608 C 542.784 1.95378 -5.39087 0
M  V30 5609 N 542.28 2.22333 -6.56155 0
M  V30 5610 N 544.073 1.96803 -5.26522 0
M  V30 5611 H 536.224 -0.282291 -2.10516 0
M  V30 5612 H 538.487 -0.063752 -0.945854 0
M  V30 5613 H 538.193 0.357064 -3.49883 0
M  V30 5614 H 538.067 2.07251 -3.15162 0
M  V30 5615 H 540.454 2.00871 -2.16183 0
M  V30 5616 H 540.535 0.282593 -2.54234 0
M  V30 5617 H 540.179 0.832736 -5.01027 0
M  V30 5618 H 540.109 2.56477 -4.59921 0
M  V30 5619 H 542.6 1.47753 -3.47818 0
M  V30 5620 H 542.913 2.43611 -7.33399 0
M  V30 5621 H 541.258 2.19745 -6.59346 0
M  V30 5622 H 544.449 1.75235 -4.34062 0
M  V30 5623 H 544.622 2.18969 -6.09883 0
M  V30 5624 N 538.028 1.39524 0.732853 0
M  V30 5625 C 538.958 1.41153 1.86005 0
M  V30 5626 C 539.939 0.274614 1.67869 0
M  V30 5627 O 541.124 0.480745 1.88155 0
M  V30 5628 C 538.254 1.25638 3.23778 0
M  V30 5629 C 537.208 2.36752 3.56556 0
M  V30 5630 C 536.534 2.06326 4.93289 0
M  V30 5631 C 537.834 3.79069 3.5931 0
M  V30 5632 H 539.528 2.35484 1.84899 0
M  V30 5633 H 537.074 1.13348 0.888162 0
M  V30 5634 H 539.027 1.25398 4.0231 0
M  V30 5635 H 537.751 0.277772 3.25417 0
M  V30 5636 H 536.41 2.36213 2.80355 0
M  V30 5637 H 536.058 1.06897 4.9151 0
M  V30 5638 H 535.758 2.80757 5.16187 0
M  V30 5639 H 537.282 2.07739 5.74175 0
M  V30 5640 H 538.696 3.81526 4.27914 0
M  V30 5641 H 537.093 4.52878 3.93728 0
M  V30 5642 H 538.163 4.09893 2.59068 0
M  V30 5643 N 539.506 -0.963266 1.24736 0
M  V30 5644 C 540.752 -1.71 1.10139 0
M  V30 5645 C 541.107 -1.89089 -0.35541 0
M  V30 5646 O 540.4 -1.44451 -1.25875 0
M  V30 5647 C 540.594 -3.09944 1.7796 0
M  V30 5648 C 540.423 -3.05408 3.30085 0
M  V30 5649 C 539.193 -3.09643 3.99311 0
M  V30 5650 C 541.391 -2.87241 4.26611 0
M  V30 5651 N 539.373 -2.95174 5.3828 0
M  V30 5652 C 540.744 -2.81114 5.52607 0
M  V30 5653 C 542.799 -2.71856 4.17132 0
M  V30 5654 C 541.502 -2.61174 6.70209 0
M  V30 5655 C 543.528 -2.53284 5.34417 0
M  V30 5656 C 542.89 -2.4787 6.59348 0
M  V30 5657 H 538.989 -0.634078 0.457678 0
M  V30 5658 H 541.573 -1.14169 1.57713 0
M  V30 5659 H 539.744 -3.64958 1.32893 0
M  V30 5660 H 541.476 -3.73348 1.56183 0
M  V30 5661 H 538.231 -3.18498 3.50508 0
M  V30 5662 H 538.655 -2.91168 6.11188 0
M  V30 5663 H 543.297 -2.74821 3.21299 0
M  V30 5664 H 541.015 -2.56952 7.6616 0
M  V30 5665 H 544.601 -2.42317 5.28936 0
M  V30 5666 H 543.481 -2.33685 7.48573 0
M  V30 5667 N 540.985 -1.06182 -1.16461 0
M  V30 5668 C 541.915 -0.692861 -2.22984 0
M  V30 5669 C 542.896 0.314122 -1.67174 0
M  V30 5670 O 544.081 0.189499 -1.93273 0
M  V30 5671 C 541.211 -0.07732 -3.47214 0
M  V30 5672 C 540.165 -1.01015 -4.15909 0
M  V30 5673 C 539.491 -0.257973 -5.34077 0
M  V30 5674 C 540.791 -2.33868 -4.67015 0
M  V30 5675 H 542.485 -1.58343 -2.54102 0
M  V30 5676 H 540.031 -0.76279 -1.22137 0
M  V30 5677 H 541.984 0.19266 -4.20959 0
M  V30 5678 H 540.708 0.848254 -3.15392 0
M  V30 5679 H 539.367 -1.26486 -3.44088 0
M  V30 5680 H 539.015 0.670684 -4.98509 0
M  V30 5681 H 538.715 -0.879638 -5.80979 0
M  V30 5682 H 540.239 0.00448788 -6.106 0
M  V30 5683 H 541.653 -2.1279 -5.32347 0
M  V30 5684 H 540.05 -2.91522 -5.24533 0
M  V30 5685 H 541.12 -2.97019 -3.83286 0
M  V30 5686 N 542.463 1.3308 -0.844243 0
M  V30 5687 C 543.688 2.02341 -0.455282 0
M  V30 5688 C 544.113 1.6308 0.93737 0
M  V30 5689 O 543.471 0.826118 1.61385 0
M  V30 5690 C 543.519 3.55743 -0.58988 0
M  V30 5691 O 542.623 4.1063 0.38166 0
M  V30 5692 H 541.964 0.637898 -0.184343 0
M  V30 5693 H 544.494 1.6986 -1.14056 0
M  V30 5694 H 544.504 4.05243 -0.473522 0
M  V30 5695 H 543.179 3.83662 -1.60549 0
M  V30 5696 H 541.756 3.72236 0.22241 0
M  V30 5697 N 543.941 0.601185 1.45683 0
M  V30 5698 C 544.889 -0.133955 2.32214 0
M  V30 5699 C 545.883 -0.866034 1.45589 0
M  V30 5700 O 547.089 -0.782326 1.6211 0
M  V30 5701 H 543.464 -0.0620613 0.749435 0
M  V30 5702 H 545.435 0.614389 2.92007 0
M  V30 5703 C 544.184 -1.12216 3.29094 0
M  V30 5704 H 543.507 -0.568273 3.95741 0
M  V30 5705 H 544.947 -1.60659 3.92383 0
M  V30 5706 C 543.406 -2.19251 2.55794 0
M  V30 5707 O 543.936 -3.26894 2.33459 0
M  V30 5708 N 542.142 -1.9436 2.16039 0
M  V30 5709 H 541.689 -1.06829 2.34404 0
M  V30 5710 H 541.647 -2.66181 1.67318 0
M  V30 5711 N 545.419 -1.53889 0.339982 0
M  V30 5712 C 546.667 -2.00458 -0.257112 0
M  V30 5713 C 546.988 -1.22953 -1.51353 0
M  V30 5714 O 546.258 -0.335734 -1.93002 0
M  V30 5715 H 544.838 -0.740544 -0.0979965 0
M  V30 5716 H 547.5 -1.89386 0.460317 0
M  V30 5717 H 546.596 -3.08035 -0.502057 0
M  V30 5718 N 546.897 -0.0685191 -1.57451 0
M  V30 5719 C 548.146 0.600898 -1.92541 0
M  V30 5720 C 548.459 1.70967 -0.950239 0
M  V30 5721 O 549.665 2.43844 -1.19384 0
M  V30 5722 C 548.121 1.12019 -3.42023 0
M  V30 5723 C 547.729 0.0426028 -4.4798 0
M  V30 5724 C 549.473 1.76386 -3.86119 0
M  V30 5725 C 547.38 0.575759 -5.88591 0
M  V30 5726 H 546.31 0.228225 -0.71863 0
M  V30 5727 H 548.961 -0.140223 -1.82963 0
M  V30 5728 H 547.343 1.91418 -3.46663 0
M  V30 5729 H 548.517 -0.73182 -4.54952 0
M  V30 5730 H 546.832 -0.504642 -4.13331 0
M  V30 5731 H 549.429 2.17302 -4.88553 0
M  V30 5732 H 549.772 2.62255 -3.23308 0
M  V30 5733 H 550.305 1.03615 -3.84069 0
M  V30 5734 H 547.044 -0.245691 -6.55039 0
M  V30 5735 H 546.564 1.31778 -5.85145 0
M  V30 5736 H 548.243 1.0532 -6.3837 0
M  V30 5737 N 548.375 1.56261 0.205012 0
M  V30 5738 C 549.307 1.90266 1.27795 0
M  V30 5739 C 550.32 0.792397 1.42214 0
M  V30 5740 O 551.509 1.07077 1.42817 0
M  V30 5741 C 548.609 2.11074 2.65143 0
M  V30 5742 C 547.782 3.42176 2.7246 0
M  V30 5743 C 546.841 3.52216 3.90936 0
M  V30 5744 O 545.867 4.25119 3.78501 0
M  V30 5745 N 547.069 2.84573 5.05963 0
M  V30 5746 H 549.834 2.82896 0.989434 0
M  V30 5747 H 547.395 1.57008 0.394981 0
M  V30 5748 H 549.387 2.15089 3.4281 0
M  V30 5749 H 547.957 1.2499 2.86524 0
M  V30 5750 H 547.177 3.50116 1.81142 0
M  V30 5751 H 548.465 4.28509 2.74331 0
M  V30 5752 H 547.863 2.25152 5.18963 0
M  V30 5753 H 546.42 2.94228 5.81613 0
M  V30 5754 N 549.853 -0.472356 1.50355 0
M  V30 5755 C 550.816 -1.5529 1.68576 0
M  V30 5756 C 551.816 -1.50863 0.556511 0
M  V30 5757 O 553.006 -1.53505 0.823516 0
M  V30 5758 C 550.138 -2.94921 1.70981 0
M  V30 5759 H 551.331 -1.40451 2.64978 0
M  V30 5760 H 548.884 -0.698645 1.39816 0
M  V30 5761 H 549.619 -3.15204 0.762675 0
M  V30 5762 H 549.404 -2.99541 2.53017 0
M  V30 5763 H 550.894 -3.73372 1.87037 0
M  V30 5764 N 551.331 -1.39911 -0.725443 0
M  V30 5765 C 552.742 -1.33599 -1.30415 0
M  V30 5766 C 553.093 -0.00481792 -1.96199 0
M  V30 5767 O 552.218 0.897275 -1.96921 0
M  V30 5768 C 552.813 -2.41965 -2.37146 0
M  V30 5769 C 551.372 -2.39144 -2.90667 0
M  V30 5770 C 550.519 -2.23355 -1.64341 0
M  V30 5771 H 553.47 -1.4986 -0.522267 0
M  V30 5772 H 553.491 -2.09304 -3.17761 0
M  V30 5773 H 553.003 -3.38837 -1.89238 0
M  V30 5774 H 551.104 -1.4594 -3.4283 0
M  V30 5775 H 551.217 -3.34362 -3.43131 0
M  V30 5776 H 549.581 -1.70696 -1.89037 0
M  V30 5777 H 550.364 -3.2221 -1.18471 0
M  V30 5778 N 552.809 0.956637 -1.25245 0
M  V30 5779 C 554.086 1.67716 -1.00651 0
M  V30 5780 C 554.466 2.0585 0.467866 0
M  V30 5781 O 553.814 1.77029 1.44475 0
M  V30 5782 C 554.024 2.90093 -1.94028 0
M  V30 5783 C 555.372 3.6209 -2.21756 0
M  V30 5784 O 556.396 3.00171 -1.9177 0
M  V30 5785 O 555.255 4.7358 -2.72735 0
M  V30 5786 H 552.349 0.733731 -0.381533 0
M  V30 5787 H 554.895 1.00974 -1.3639 0
M  V30 5788 H 553.667 2.58689 -2.93591 0
M  V30 5789 H 553.29 3.64566 -1.58674 0
M  V30 5790 N 554.287 1.06798 1.15896 0
M  V30 5791 C 555.533 0.788934 1.86825 0
M  V30 5792 C 555.866 -0.683084 1.8179 0
M  V30 5793 O 555.141 -1.50086 1.23711 0
M  V30 5794 C 555.424 1.29065 3.36176 0
M  V30 5795 C 555.277 2.8268 3.49874 0
M  V30 5796 C 556.596 0.902655 4.30744 0
M  V30 5797 H 553.715 0.288066 0.678371 0
M  V30 5798 H 556.357 1.32479 1.36195 0
M  V30 5799 H 554.507 0.834806 3.79425 0
M  V30 5800 H 556.179 3.36511 3.15528 0
M  V30 5801 H 554.422 3.21157 2.91617 0
M  V30 5802 H 555.093 3.12852 4.54783 0
M  V30 5803 H 557.569 1.29535 3.95424 0
M  V30 5804 H 556.445 1.28111 5.3374 0
M  V30 5805 H 556.706 -0.191951 4.41683 0
M  V30 5806 N 555.766 -1.3263 0.851289 0
M  V30 5807 C 556.996 -2.01271 0.466222 0
M  V30 5808 C 557.404 -1.64156 -0.940714 0
M  V30 5809 O 556.747 -0.857109 -1.62479 0
M  V30 5810 C 556.809 -3.55695 0.521672 0
M  V30 5811 C 556.473 -4.16227 1.88691 0
M  V30 5812 C 557.47 -4.34699 2.85189 0
M  V30 5813 C 555.155 -4.52377 2.18313 0
M  V30 5814 C 557.149 -4.88484 4.09465 0
M  V30 5815 C 554.836 -5.05868 3.42843 0
M  V30 5816 C 555.834 -5.23869 4.38235 0
M  V30 5817 O 555.522 -5.76218 5.6056 0
M  V30 5818 H 555.254 -0.651034 0.18202 0
M  V30 5819 H 557.808 -1.7026 1.14894 0
M  V30 5820 H 556.038 -3.86086 -0.217888 0
M  V30 5821 H 557.727 -4.05613 0.152682 0
M  V30 5822 H 558.493 -4.07107 2.63607 0
M  V30 5823 H 554.372 -4.37652 1.44851 0
M  V30 5824 H 557.916 -5.02451 4.83931 0
M  V30 5825 H 553.813 -5.32891 3.64277 0
M  V30 5826 H 554.581 -5.94616 5.62471 0
M  V30 5827 N 557.244 -0.608902 -1.45362 0
M  V30 5828 C 558.484 -0.10763 -2.04116 0
M  V30 5829 C 558.848 1.23883 -1.46686 0
M  V30 5830 O 560.049 1.83091 -1.96803 0
M  V30 5831 C 558.32 -0.0703351 -3.57331 0
M  V30 5832 S 559.879 0.369554 -4.37241 0
M  V30 5833 H 556.697 -0.0502123 -0.709225 0
M  V30 5834 H 559.299 -0.8073 -1.78053 0
M  V30 5835 H 558.003 -1.05379 -3.9664 0
M  V30 5836 H 557.534 0.651287 -3.87971 0
M  V30 5837 H 559.549 1.61878 -4.69052 0
M  V30 5838 N 558.722 1.53707 -0.348139 0
M  V30 5839 C 559.968 2.01286 0.247332 0
M  V30 5840 C 560.301 1.23546 1.49834 0
M  V30 5841 O 559.576 0.324331 1.91777 0
M  V30 5842 C 559.859 3.55768 0.556858 0
M  V30 5843 C 559.712 4.44216 -0.706564 0
M  V30 5844 C 561.031 4.1841 1.3646 0
M  V30 5845 H 558.15 0.731677 0.0884201 0
M  V30 5846 H 560.792 1.84106 -0.469584 0
M  V30 5847 H 558.942 3.70539 1.16761 0
M  V30 5848 H 560.614 4.41274 -1.34444 0
M  V30 5849 H 558.857 4.12892 -1.33052 0
M  V30 5850 H 559.528 5.50202 -0.445186 0
M  V30 5851 H 562.004 4.07365 0.848113 0
M  V30 5852 H 560.88 5.26563 1.54992 0
M  V30 5853 H 561.141 3.7333 2.36805 0
M  V30 5854 N 560.2 0.0768682 1.57412 0
M  V30 5855 C 561.448 -0.589918 1.93299 0
M  V30 5856 C 561.769 -1.69842 0.958049 0
M  V30 5857 O 561.039 -1.95899 0.00703261 0
M  V30 5858 H 559.619 -0.220901 0.713591 0
M  V30 5859 H 562.281 0.135917 1.94425 0
M  V30 5860 H 561.377 -1.01195 2.95239 0
M  V30 5861 N 561.678 -1.56367 -0.196722 0
M  V30 5862 C 562.925 -1.80529 -0.917366 0
M  V30 5863 C 563.253 -0.649817 -1.83324 0
M  V30 5864 O 562.508 0.36451 -1.92275 0
M  V30 5865 C 562.807 -3.10663 -1.767 0
M  V30 5866 C 562.473 -4.3962 -1.00225 0
M  V30 5867 C 561.135 -4.74653 -0.791095 0
M  V30 5868 C 563.487 -5.1913 -0.464035 0
M  V30 5869 C 560.815 -5.86692 -0.0302155 0
M  V30 5870 C 563.167 -6.31964 0.283625 0
M  V30 5871 C 561.831 -6.65581 0.505813 0
M  V30 5872 H 561.101 -0.660602 -0.335688 0
M  V30 5873 H 563.748 -1.90615 -0.183844 0
M  V30 5874 H 562.053 -2.95807 -2.56915 0
M  V30 5875 H 563.75 -3.26563 -2.32718 0
M  V30 5876 H 560.34 -4.12127 -1.17684 0
M  V30 5877 H 564.524 -4.9248 -0.614575 0
M  V30 5878 H 559.78 -6.11211 0.151917 0
M  V30 5879 H 563.954 -6.92791 0.708057 0
M  V30 5880 H 561.581 -7.52239 1.0973 0
M  V30 5881 N 563.156 0.464375 -1.50603 0
M  V30 5882 C 564.088 1.57916 -1.66118 0
M  V30 5883 C 565.101 1.53497 -0.54246 0
M  V30 5884 O 566.29 1.58763 -0.815877 0
M  V30 5885 C 563.39 2.96809 -1.63577 0
M  V30 5886 C 562.563 3.26026 -2.91592 0
M  V30 5887 C 561.622 4.44506 -2.81604 0
M  V30 5888 O 560.648 4.44484 -3.55559 0
M  V30 5889 N 561.85 5.46549 -1.95614 0
M  V30 5890 H 564.615 1.45022 -2.62276 0
M  V30 5891 H 562.176 0.652903 -1.48151 0
M  V30 5892 H 564.168 3.74048 -1.54499 0
M  V30 5893 H 562.738 3.03438 -0.751262 0
M  V30 5894 H 561.958 2.37337 -3.14746 0
M  V30 5895 H 563.246 3.42361 -3.76386 0
M  V30 5896 H 562.644 5.49391 -1.34854 0
M  V30 5897 H 561.201 6.22746 -1.92435 0
M  V30 5898 N 564.634 1.40294 0.718013 0
M  V30 5899 C 565.544 1.42678 1.86226 0
M  V30 5900 C 566.56 0.319655 1.71039 0
M  V30 5901 O 567.736 0.563852 1.93346 0
M  V30 5902 C 564.801 1.2852 3.21999 0
M  V30 5903 C 563.862 2.49354 3.49458 0
M  V30 5904 C 563.095 2.35863 4.78753 0
M  V30 5905 O 563.318 1.37114 5.53675 0
M  V30 5906 O 562.252 3.25189 5.06494 0
M  V30 5907 H 566.078 2.39167 1.87171 0
M  V30 5908 H 563.663 1.2159 0.868112 0
M  V30 5909 H 565.545 1.22824 4.03103 0
M  V30 5910 H 564.22 0.351359 3.21787 0
M  V30 5911 H 563.127 2.60628 2.68373 0
M  V30 5912 H 564.46 3.41491 3.54464 0
M  V30 5913 N 566.112 -0.949982 1.2575 0
M  V30 5914 C 567.042 -2.06483 1.09028 0
M  V30 5915 C 568.023 -1.701 -0.00201532 0
M  V30 5916 O 569.208 -1.93469 0.168383 0
M  V30 5917 C 566.338 -3.39899 0.71316 0
M  V30 5918 C 565.292 -3.90309 1.75621 0
M  V30 5919 C 564.618 -5.20274 1.23365 0
M  V30 5920 C 565.918 -4.16169 3.15596 0
M  V30 5921 H 567.612 -2.20731 2.02283 0
M  V30 5922 H 565.158 -1.06066 0.973964 0
M  V30 5923 H 567.111 -4.17346 0.58309 0
M  V30 5924 H 565.835 -3.25602 -0.255091 0
M  V30 5925 H 564.494 -3.15035 1.8748 0
M  V30 5926 H 564.142 -5.02351 0.255491 0
M  V30 5927 H 563.842 -5.54971 1.93082 0
M  V30 5928 H 565.366 -6.00314 1.11607 0
M  V30 5929 H 566.78 -4.84259 3.06864 0
M  V30 5930 H 565.177 -4.62131 3.82825 0
M  V30 5931 H 566.247 -3.22273 3.6231 0
M  V30 5932 N 567.59 -1.07411 -1.15328 0
M  V30 5933 C 568.867 -0.710732 -1.82231 0
M  V30 5934 C 569.247 0.806732 -1.95077 0
M  V30 5935 O 568.595 1.72139 -1.50268 0
M  V30 5936 C 568.805 -1.42586 -3.18544 0
M  V30 5937 C 570.153 -1.57836 -3.94174 0
M  V30 5938 O 571.177 -1.38669 -3.281 0
M  V30 5939 O 570.036 -1.8938 -5.12638 0
M  V30 5940 H 567.13 -0.25297 -0.78736 0
M  V30 5941 H 569.676 -1.17508 -1.22434 0
M  V30 5942 H 568.448 -2.46008 -3.04296 0
M  V30 5943 H 568.071 -0.952332 -3.86026 0
M  V30 5944 N 569.068 1.32177 -0.85831 0
M  V30 5945 C 569.998 2.31282 -0.321041 0
M  V30 5946 C 570.979 1.59841 0.581786 0
M  V30 5947 O 572.164 1.87619 0.501262 0
M  V30 5948 C 569.294 3.4385 0.48832 0
M  V30 5949 C 568.248 4.26799 -0.320391 0
M  V30 5950 C 567.574 5.31164 0.613934 0
M  V30 5951 C 568.874 4.98829 -1.54813 0
M  V30 5952 H 570.568 2.76469 -1.14915 0
M  V30 5953 H 568.114 1.32916 -0.554028 0
M  V30 5954 H 570.067 4.12224 0.874626 0
M  V30 5955 H 568.791 2.97401 1.34983 0
M  V30 5956 H 567.45 3.60077 -0.688497 0
M  V30 5957 H 567.098 4.80967 1.47239 0
M  V30 5958 H 566.798 5.8755 0.0768097 0
M  V30 5959 H 568.322 6.024 0.997336 0
M  V30 5960 H 569.736 5.59864 -1.23392 0
M  V30 5961 H 568.133 5.64957 -2.02346 0
M  V30 5962 H 569.203 4.26483 -2.30739 0
M  V30 5963 N 570.547 0.616602 1.45037 0
M  V30 5964 C 571.772 0.120192 2.07051 0
M  V30 5965 C 572.197 -1.19008 1.45666 0
M  V30 5966 O 571.555 -1.7267 0.552692 0
M  V30 5967 C 571.603 0.00354901 3.606 0
M  V30 5968 O 570.707 -1.04431 3.98958 0
M  V30 5969 H 570.048 0.0781599 0.659384 0
M  V30 5970 H 572.578 0.849167 1.86146 0
M  V30 5971 H 572.588 -0.191754 4.07549 0
M  V30 5972 H 571.263 0.960239 4.04663 0
M  V30 5973 H 569.84 -0.824749 3.63665 0
M  V30 5974 N 572.025 -1.5352 0.356285 0
M  V30 5975 C 572.972 -2.25439 -0.494569 0
M  V30 5976 C 573.942 -1.25752 -1.08516 0
M  V30 5977 O 575.127 -1.54513 -1.1194 0
M  V30 5978 C 572.267 -3.04011 -1.63313 0
M  V30 5979 C 571.38 -4.18574 -1.06862 0
M  V30 5980 C 570.515 -4.84607 -2.17552 0
M  V30 5981 C 569.554 -5.91218 -1.58518 0
M  V30 5982 N 568.691 -6.50979 -2.63003 0
M  V30 5983 H 573.531 -2.97737 0.125244 0
M  V30 5984 H 571.068 -1.46916 0.0735789 0
M  V30 5985 H 573.026 -3.47834 -2.30363 0
M  V30 5986 H 571.656 -2.33986 -2.22374 0
M  V30 5987 H 570.708 -3.79303 -0.288672 0
M  V30 5988 H 572.02 -4.95215 -0.596924 0
M  V30 5989 H 571.174 -5.31566 -2.92442 0
M  V30 5990 H 569.913 -4.07418 -2.6807 0
M  V30 5991 H 568.918 -5.4363 -0.821391 0
M  V30 5992 H 570.143 -6.70322 -1.08836 0
M  V30 5993 H 568.089 -5.76648 -3.12751 0
M  V30 5994 H 568.006 -7.23131 -2.20493 0
M  V30 5995 H 569.274 -7.02589 -3.37623 0
M  V30 5996 N 573.503 -0.0852151 -1.57369 0
M  V30 5997 C 574.413 0.891712 -2.16992 0
M  V30 5998 C 575.429 1.3174 -1.13669 0
M  V30 5999 O 576.605 1.38735 -1.45995 0
M  V30 6000 C 573.67 2.13635 -2.73059 0
M  V30 6001 C 572.731 1.7658 -3.91303 0
M  V30 6002 C 571.964 2.95111 -4.44686 0
M  V30 6003 O 572.187 4.09539 -3.97032 0
M  V30 6004 O 571.121 2.74149 -5.35841 0
M  V30 6005 H 574.947 0.414477 -3.00858 0
M  V30 6006 H 572.532 0.138598 -1.48756 0
M  V30 6007 H 574.414 2.86595 -3.08935 0
M  V30 6008 H 573.089 2.6043 -1.92244 0
M  V30 6009 H 571.996 1.00831 -3.60255 0
M  V30 6010 H 573.329 1.34557 -4.7345 0
M  V30 6011 N 574.981 1.5647 0.188427 0
M  V30 6012 C 575.944 1.9421 1.21718 0
M  V30 6013 C 576.944 0.823901 1.38089 0
M  V30 6014 O 578.134 1.09122 1.35787 0
M  V30 6015 C 575.266 2.22197 2.58537 0
M  V30 6016 H 576.459 2.86252 0.894418 0
M  V30 6017 H 574.012 1.50263 0.430211 0
M  V30 6018 H 574.747 1.32814 2.95856 0
M  V30 6019 H 574.532 3.03688 2.48025 0
M  V30 6020 H 576.022 2.52376 3.3271 0
M  V30 6021 N 576.459 -0.456382 1.50847 0
M  V30 6022 C 577.706 -1.20736 1.62571 0
M  V30 6023 C 578.034 -1.9163 0.332904 0
M  V30 6024 O 577.289 -1.8343 -0.682058 0
M  V30 6025 C 577.588 -2.26336 2.76599 0
M  V30 6026 C 577.254 -1.7259 4.16562 0
M  V30 6027 C 575.916 -1.57654 4.54641 0
M  V30 6028 C 578.268 -1.32877 5.03977 0
M  V30 6029 C 575.596 -1.0145 5.77862 0
M  V30 6030 C 577.948 -0.7811 6.27759 0
M  V30 6031 C 576.612 -0.618488 6.64628 0
M  V30 6032 H 575.882 -0.441803 0.594888 0
M  V30 6033 H 578.529 -0.501169 1.84826 0
M  V30 6034 H 576.834 -3.0292 2.48489 0
M  V30 6035 H 578.531 -2.84227 2.82871 0
M  V30 6036 H 575.121 -1.85187 3.86528 0
M  V30 6037 H 579.305 -1.43245 4.75179 0
M  V30 6038 H 574.561 -0.876109 6.0509 0
M  V30 6039 H 578.735 -0.464783 6.94847 0
M  V30 6040 H 576.362 -0.180838 7.59985 0
M  V30 6041 N 577.937 -1.40673 -0.710563 0
M  V30 6042 C 579.184 -1.39222 -1.47049 0
M  V30 6043 C 579.512 0.0037691 -1.945 0
M  V30 6044 O 578.767 0.989224 -1.68857 0
M  V30 6045 C 579.066 -2.33253 -2.70791 0
M  V30 6046 C 578.732 -3.80406 -2.42079 0
M  V30 6047 C 577.394 -4.20496 -2.33959 0
M  V30 6048 C 579.746 -4.73375 -2.18094 0
M  V30 6049 C 577.074 -5.51584 -1.99929 0
M  V30 6050 C 579.426 -6.04768 -1.85576 0
M  V30 6051 C 578.09 -6.43895 -1.75941 0
M  V30 6052 H 577.36 -0.509449 -0.538092 0
M  V30 6053 H 580.007 -1.73363 -0.81348 0
M  V30 6054 H 578.312 -1.92314 -3.41354 0
M  V30 6055 H 580.009 -2.29412 -3.28894 0
M  V30 6056 H 576.599 -3.48645 -2.49288 0
M  V30 6057 H 580.783 -4.43217 -2.23321 0
M  V30 6058 H 576.039 -5.80797 -1.91011 0
M  V30 6059 H 580.213 -6.76318 -1.66033 0
M  V30 6060 H 577.84 -7.45387 -1.4934 0
M  V30 6061 N 579.415 0.9433 -1.26252 0
M  V30 6062 C 580.662 1.68925 -1.11672 0
M  V30 6063 C 580.99 1.91499 0.340329 0
M  V30 6064 O 580.245 1.49189 1.26653 0
M  V30 6065 C 580.544 3.07073 -1.82868 0
M  V30 6066 C 580.21 3.04262 -3.32769 0
M  V30 6067 C 578.872 3.03203 -3.7366 0
M  V30 6068 C 581.224 2.96729 -4.28487 0
M  V30 6069 C 578.552 2.92373 -5.0866 0
M  V30 6070 C 580.904 2.87442 -5.63525 0
M  V30 6071 C 579.568 2.84724 -6.03729 0
M  V30 6072 H 578.838 0.618141 -0.408635 0
M  V30 6073 H 581.485 1.10124 -1.56668 0
M  V30 6074 H 579.79 3.69486 -1.30335 0
M  V30 6075 H 581.487 3.63635 -1.69029 0
M  V30 6076 H 578.077 3.05865 -3.00241 0
M  V30 6077 H 582.261 2.96658 -3.97879 0
M  V30 6078 H 577.517 2.88645 -5.38975 0
M  V30 6079 H 581.691 2.80576 -6.37377 0
M  V30 6080 H 579.318 2.76089 -7.08293 0
M  V30 6081 N 580.893 1.08022 1.14757 0
M  V30 6082 C 581.843 0.676345 2.17737 0
M  V30 6083 C 582.827 -0.302018 1.5804 0
M  V30 6084 O 584.019 -0.11466 1.76628 0
M  V30 6085 C 581.148 0.082984 3.432 0
M  V30 6086 C 580.234 1.0869 4.09936 0
M  V30 6087 N 580.625 2.26891 4.52055 0
M  V30 6088 C 578.923 0.921768 4.36371 0
M  V30 6089 C 579.624 2.90636 5.0389 0
M  V30 6090 N 578.6 2.18266 4.97856 0
M  V30 6091 H 582.402 1.5765 2.4804 0
M  V30 6092 H 579.916 0.954374 1.31398 0
M  V30 6093 H 581.913 -0.224289 4.16296 0
M  V30 6094 H 580.573 -0.812206 3.14378 0
M  V30 6095 H 581.584 2.6457 4.45223 0
M  V30 6096 H 578.261 0.0800499 4.17423 0
M  V30 6097 H 579.651 3.9104 5.46386 0
M  V30 6098 N 582.371 -1.3172 0.865308 0
M  V30 6099 C 583.648 -1.91574 0.394789 0
M  V30 6100 C 584.028 -1.78769 -1.12271 0
M  V30 6101 O 583.376 -1.19245 -1.94918 0
M  V30 6102 C 583.586 -3.37957 0.870982 0
M  V30 6103 C 584.934 -4.15073 0.894384 0
M  V30 6104 O 585.958 -3.4672 0.816325 0
M  V30 6105 O 584.817 -5.37151 1.00651 0
M  V30 6106 H 581.911 -0.818649 0.117229 0
M  V30 6107 H 584.457 -1.4042 0.952913 0
M  V30 6108 H 583.229 -3.41269 1.91444 0
M  V30 6109 H 582.852 -3.96534 0.290907 0
M  V30 6110 N 583.85 -0.624285 -1.44708 0
M  V30 6111 C 585.077 -0.132919 -2.06473 0
M  V30 6112 C 585.493 1.18967 -1.46602 0
M  V30 6113 O 584.85 1.72824 -0.586341 0
M  V30 6114 C 584.901 -0.00465418 -3.615 0
M  V30 6115 O 584.622 -1.27494 -4.19138 0
M  V30 6116 C 586.123 0.516213 -4.40284 0
M  V30 6117 H 583.343 -0.0765201 -0.666623 0
M  V30 6118 H 585.887 -0.856751 -1.85688 0
M  V30 6119 H 584.042 0.669583 -3.8157 0
M  V30 6120 H 584.456 -1.11536 -5.12504 0
M  V30 6121 H 585.93 0.554994 -5.49203 0
M  V30 6122 H 586.407 1.5419 -4.11245 0
M  V30 6123 H 587.013 -0.124542 -4.25118 0
M  V30 6124 N 585.328 1.53329 -0.364422 0
M  V30 6125 C 586.739 1.86345 0.115039 0
M  V30 6126 C 587.09 1.28505 1.4826 0
M  V30 6127 O 586.215 0.606639 2.07723 0
M  V30 6128 C 586.81 3.38114 0.215522 0
M  V30 6129 C 585.369 3.70932 0.639237 0
M  V30 6130 C 584.516 2.76471 -0.214261 0
M  V30 6131 H 587.467 1.47593 -0.583258 0
M  V30 6132 H 587.488 3.66031 1.0393 0
M  V30 6133 H 587 3.80182 -0.779948 0
M  V30 6134 H 585.101 3.3442 1.64298 0
M  V30 6135 H 585.214 4.77302 0.41465 0
M  V30 6136 H 583.578 2.52724 0.316678 0
M  V30 6137 H 584.361 3.21373 -1.20725 0
M  V30 6138 N 586.806 0.0935595 1.57322 0
M  V30 6139 C 587.753 -0.865935 2.1394 0
M  V30 6140 C 588.723 -1.28083 1.05754 0
M  V30 6141 O 589.908 -1.36285 1.33533 0
M  V30 6142 C 587.048 -2.12023 2.72287 0
M  V30 6143 C 586.161 -1.756 3.94701 0
M  V30 6144 C 585.296 -2.95804 4.41218 0
M  V30 6145 C 584.335 -2.555 5.56225 0
M  V30 6146 N 583.472 -3.68534 5.97601 0
M  V30 6147 H 588.312 -0.376261 2.95615 0
M  V30 6148 H 585.849 -0.174052 1.46067 0
M  V30 6149 H 587.807 -2.85477 3.04235 0
M  V30 6150 H 586.437 -2.58492 1.93343 0
M  V30 6151 H 585.489 -0.921208 3.69077 0
M  V30 6152 H 586.801 -1.41964 4.78171 0
M  V30 6153 H 585.955 -3.77513 4.74941 0
M  V30 6154 H 584.694 -3.32649 3.56645 0
M  V30 6155 H 583.699 -1.72218 5.22131 0
M  V30 6156 H 584.924 -2.19801 6.42545 0
M  V30 6157 H 582.87 -4.051 5.15974 0
M  V30 6158 H 582.787 -3.38737 6.75865 0
M  V30 6159 H 584.055 -4.50757 6.35955 0
M  V30 6160 N 588.284 -1.56567 -0.180126 0
M  V30 6161 C 589.194 -1.98947 -1.24327 0
M  V30 6162 C 590.21 -0.899446 -1.4895 0
M  V30 6163 O 591.386 -1.20639 -1.61271 0
M  V30 6164 C 588.451 -2.33328 -2.56435 0
M  V30 6165 C 587.512 -3.56114 -2.39752 0
M  V30 6166 C 586.745 -3.88845 -3.65561 0
M  V30 6167 O 586.968 -3.22662 -4.70368 0
M  V30 6168 O 585.902 -4.82226 -3.60197 0
M  V30 6169 H 589.728 -2.89634 -0.913565 0
M  V30 6170 H 587.313 -1.44319 -0.386306 0
M  V30 6171 H 589.195 -2.5645 -3.34382 0
M  V30 6172 H 587.87 -1.45806 -2.89002 0
M  V30 6173 H 586.777 -3.38221 -1.59866 0
M  V30 6174 H 588.11 -4.4415 -2.12113 0
M  V30 6175 N 589.762 0.448376 -1.51087 0
M  V30 6176 C 590.672 1.56882 -1.74428 0
M  V30 6177 C 591.688 1.62268 -0.62809 0
M  V30 6178 O 592.864 1.79716 -0.909075 0
M  V30 6179 C 589.929 2.92947 -1.85426 0
M  V30 6180 C 588.99 2.97766 -3.09247 0
M  V30 6181 C 588.223 4.27341 -3.19711 0
M  V30 6182 O 588.446 5.19112 -2.36387 0
M  V30 6183 O 587.38 4.38219 -4.12611 0
M  V30 6184 H 591.206 1.40104 -2.69452 0
M  V30 6185 H 588.791 0.630247 -1.35456 0
M  V30 6186 H 590.673 3.73719 -1.94709 0
M  V30 6187 H 589.348 3.09876 -0.935887 0
M  V30 6188 H 588.255 2.15989 -3.0545 0
M  V30 6189 H 589.588 2.8578 -4.00738 0
M  V30 6190 N 591.24 1.41047 0.703093 0
M  V30 6191 C 592.15 1.44645 1.84703 0
M  V30 6192 C 593.166 0.337778 1.7069 0
M  V30 6193 O 594.342 0.584327 1.92737 0
M  V30 6194 C 591.407 1.31928 3.20618 0
M  V30 6195 C 590.468 2.53047 3.46794 0
M  V30 6196 C 589.701 2.40927 4.76224 0
M  V30 6197 O 589.924 1.42978 5.5219 0
M  V30 6198 O 588.858 3.30543 5.03016 0
M  V30 6199 H 592.684 2.41139 1.84624 0
M  V30 6200 H 590.269 1.22504 0.855167 0
M  V30 6201 H 592.151 1.27092 4.01778 0
M  V30 6202 H 590.826 0.385469 3.21397 0
M  V30 6203 H 589.733 2.6346 2.65593 0
M  V30 6204 H 591.066 3.45231 3.50822 0
M  V30 6205 N 592.718 -0.936591 1.26751 0
M  V30 6206 C 593.964 -1.68625 1.13741 0
M  V30 6207 C 594.319 -1.898 -0.315221 0
M  V30 6208 O 593.612 -1.47088 -1.22783 0
M  V30 6209 C 593.806 -3.06099 1.84494 0
M  V30 6210 C 593.635 -2.98338 3.36488 0
M  V30 6211 C 592.405 -3.01104 4.05789 0
M  V30 6212 C 594.603 -2.78128 4.32608 0
M  V30 6213 N 592.585 -2.8369 5.4442 0
M  V30 6214 C 593.956 -2.69329 5.58446 0
M  V30 6215 C 596.011 -2.62946 4.22804 0
M  V30 6216 C 594.714 -2.46899 6.75598 0
M  V30 6217 C 596.74 -2.41892 5.39669 0
M  V30 6218 C 596.102 -2.33829 6.64457 0
M  V30 6219 H 592.201 -0.624227 0.471025 0
M  V30 6220 H 594.785 -1.10798 1.601 0
M  V30 6221 H 592.956 -3.62057 1.40604 0
M  V30 6222 H 594.688 -3.69951 1.64067 0
M  V30 6223 H 591.443 -3.10992 3.57185 0
M  V30 6224 H 591.867 -2.78138 6.17226 0
M  V30 6225 H 596.509 -2.67944 3.27056 0
M  V30 6226 H 594.227 -2.40642 7.71438 0
M  V30 6227 H 597.813 -2.31043 5.33957 0
M  V30 6228 H 596.693 -2.17754 7.53361 0
M  V30 6229 N 594.196 -1.08629 -1.14182 0
M  V30 6230 C 595.443 -0.817345 -1.85272 0
M  V30 6231 C 595.771 0.656917 -1.83071 0
M  V30 6232 O 595.026 1.49897 -1.25815 0
M  V30 6233 C 595.325 -1.28734 -3.3341 0
M  V30 6234 C 594.991 -2.76981 -3.55798 0
M  V30 6235 C 593.653 -3.17469 -3.61617 0
M  V30 6236 C 596.005 -3.72605 -3.64438 0
M  V30 6237 C 593.333 -4.52371 -3.736 0
M  V30 6238 C 595.685 -5.07286 -3.77947 0
M  V30 6239 C 594.349 -5.47376 -3.82016 0
M  V30 6240 H 593.619 -0.299088 -0.677958 0
M  V30 6241 H 596.266 -1.35962 -1.34857 0
M  V30 6242 H 594.571 -0.664702 -3.8612 0
M  V30 6243 H 596.268 -1.05598 -3.86846 0
M  V30 6244 H 592.858 -2.44644 -3.51919 0
M  V30 6245 H 597.042 -3.42443 -3.5923 0
M  V30 6246 H 592.298 -4.82882 -3.75013 0
M  V30 6247 H 596.472 -5.81243 -3.83575 0
M  V30 6248 H 594.099 -6.51906 -3.91054 0
M  V30 6249 N 595.674 1.31259 -0.872281 0
M  V30 6250 C 596.621 2.28459 -0.327857 0
M  V30 6251 C 597.591 1.55831 0.574957 0
M  V30 6252 O 598.776 1.83965 0.506101 0
M  V30 6253 C 595.916 3.41985 0.462644 0
M  V30 6254 C 595.029 4.29458 -0.467949 0
M  V30 6255 C 594.164 5.30131 0.336903 0
M  V30 6256 C 593.203 6.0925 -0.58997 0
M  V30 6257 N 592.34 7.01872 0.178775 0
M  V30 6258 H 597.18 2.74414 -1.16193 0
M  V30 6259 H 594.717 1.34994 -0.584376 0
M  V30 6260 H 596.675 4.06547 0.936759 0
M  V30 6261 H 595.305 2.97134 1.2614 0
M  V30 6262 H 594.357 3.65318 -1.06052 0
M  V30 6263 H 595.669 4.84677 -1.17856 0
M  V30 6264 H 594.823 6.0038 0.873427 0
M  V30 6265 H 593.562 4.75573 1.08079 0
M  V30 6266 H 592.567 5.37889 -1.13823 0
M  V30 6267 H 593.792 6.65894 -1.33275 0
M  V30 6268 H 591.738 6.49721 0.905435 0
M  V30 6269 H 591.655 7.54522 -0.472452 0
M  V30 6270 H 592.923 7.76382 0.696454 0
M  V30 6271 N 597.152 0.631951 1.44375 0
M  V30 6272 C 598.115 -0.0628142 2.29114 0
M  V30 6273 C 599.115 -0.771494 1.41084 0
M  V30 6274 O 600.305 -0.615959 1.62947 0
M  V30 6275 C 597.437 -1.09953 3.22681 0
M  V30 6276 H 598.63 0.682509 2.92031 0
M  V30 6277 H 596.183 0.392128 1.51301 0
M  V30 6278 H 596.918 -1.87481 2.64616 0
M  V30 6279 H 596.703 -0.595286 3.87555 0
M  V30 6280 H 598.193 -1.58538 3.86336 0
M  V30 6281 N 598.631 -1.53133 0.372548 0
M  V30 6282 C 599.877 -2.01654 -0.215277 0
M  V30 6283 C 600.21 -1.25914 -1.47849 0
M  V30 6284 O 599.485 -0.3548 -1.91237 0
M  V30 6285 C 599.768 -3.56609 -0.500187 0
M  V30 6286 C 599.621 -4.43036 0.777145 0
M  V30 6287 C 600.94 -4.20528 -1.29786 0
M  V30 6288 H 598.059 -0.732991 -0.0767686 0
M  V30 6289 H 600.701 -1.83335 0.498814 0
M  V30 6290 H 598.851 -3.7235 -1.10852 0
M  V30 6291 H 600.523 -4.39079 1.41447 0
M  V30 6292 H 598.766 -4.10723 1.39604 0
M  V30 6293 H 599.437 -5.49424 0.532662 0
M  V30 6294 H 601.913 -4.08663 -0.783198 0
M  V30 6295 H 600.789 -5.28962 -1.46596 0
M  V30 6296 H 601.05 -3.77051 -2.30836 0
M  V30 6297 N 600.109 -0.101901 -1.5727 0
M  V30 6298 C 601.334 0.571759 -1.99363 0
M  V30 6299 C 601.759 1.60507 -0.980768 0
M  V30 6300 O 601.117 1.81231 0.0498517 0
M  V30 6301 C 601.165 1.18996 -3.404 0
M  V30 6302 O 600.269 2.30572 -3.41922 0
M  V30 6303 H 599.61 0.144449 -0.648098 0
M  V30 6304 H 602.14 -0.185325 -2.03759 0
M  V30 6305 H 602.15 1.52962 -3.78241 0
M  V30 6306 H 600.825 0.432984 -4.1364 0
M  V30 6307 H 599.402 1.98173 -3.15883 0
M  V30 6308 N 601.587 1.56661 0.17182 0
M  V30 6309 C 602.497 1.99604 1.2327 0
M  V30 6310 C 603.513 0.907333 1.4847 0
M  V30 6311 O 604.689 1.21492 1.60629 0
M  V30 6312 C 601.754 2.34685 2.55194 0
M  V30 6313 C 600.815 3.57381 2.3786 0
M  V30 6314 C 600.048 3.90779 3.63494 0
M  V30 6315 O 600.271 3.25152 4.6865 0
M  V30 6316 O 599.205 4.84129 3.57634 0
M  V30 6317 H 603.031 2.90114 0.898192 0
M  V30 6318 H 600.616 1.44522 0.378647 0
M  V30 6319 H 602.498 2.5822 3.33017 0
M  V30 6320 H 601.173 1.47336 2.88225 0
M  V30 6321 H 600.08 3.39064 1.5807 0
M  V30 6322 H 601.413 4.45268 2.09754 0
M  V30 6323 N 603.065 -0.440357 1.51323 0
M  V30 6324 C 604.313 -1.18769 1.63518 0
M  V30 6325 C 604.634 -1.91793 0.352201 0
M  V30 6326 O 603.904 -1.85432 -0.631811 0
M  V30 6327 H 602.484 -0.441408 0.602634 0
M  V30 6328 H 605.146 -0.505162 1.8824 0
M  V30 6329 H 604.242 -1.91892 2.46138 0
M  V30 6330 N 604.543 -1.41418 -0.695603 0
M  V30 6331 C 605.473 -1.46035 -1.82197 0
M  V30 6332 C 606.454 -0.319025 -1.67082 0
M  V30 6333 O 607.639 -0.530462 -1.86815 0
M  V30 6334 C 604.769 -1.34179 -3.20333 0
M  V30 6335 C 603.723 -2.46123 -3.50154 0
M  V30 6336 C 603.049 -2.19332 -4.87645 0
M  V30 6337 C 604.349 -3.88463 -3.49133 0
M  V30 6338 H 606.043 -2.40303 -1.78591 0
M  V30 6339 H 603.589 -1.15663 -0.857797 0
M  V30 6340 H 605.542 -1.36021 -3.98844 0
M  V30 6341 H 604.266 -0.363952 -3.24566 0
M  V30 6342 H 602.925 -2.43563 -2.73994 0
M  V30 6343 H 602.573 -1.19891 -4.88503 0
M  V30 6344 H 602.273 -2.94344 -5.08562 0
M  V30 6345 H 603.797 -2.22889 -5.68465 0
M  V30 6346 H 605.211 -3.92738 -4.17648 0
M  V30 6347 H 603.608 -4.63158 -3.81582 0
M  V30 6348 H 604.678 -4.16617 -2.48109 0
M  V30 6349 N 606.021 0.929856 -1.27246 0
M  V30 6350 C 606.971 2.01629 -1.06442 0
M  V30 6351 C 607.955 1.60899 0.00687842 0
M  V30 6352 O 609.147 1.75733 -0.211407 0
M  V30 6353 C 606.276 3.35849 -0.711361 0
M  V30 6354 C 605.362 3.8303 -1.82069 0
M  V30 6355 N 605.753 4.02743 -3.05993 0
M  V30 6356 C 604.051 4.12046 -1.70687 0
M  V30 6357 C 604.752 4.42001 -3.78167 0
M  V30 6358 N 603.728 4.4935 -3.05918 0
M  V30 6359 H 607.53 2.14898 -2.00489 0
M  V30 6360 H 605.044 1.11654 -1.17929 0
M  V30 6361 H 607.041 4.13343 -0.543442 0
M  V30 6362 H 605.701 3.23944 0.221517 0
M  V30 6363 H 606.712 3.89112 -3.41778 0
M  V30 6364 H 603.389 4.08866 -0.844681 0
M  V30 6365 H 604.779 4.6535 -4.84664 0
M  V30 6366 N 607.499 1.09233 1.13605 0
M  V30 6367 C 608.91 0.846839 1.6639 0
M  V30 6368 C 609.261 -0.625031 1.85978 0
M  V30 6369 O 608.386 -1.48173 1.57714 0
M  V30 6370 C 608.981 1.5307 3.0225 0
M  V30 6371 C 607.54 1.33223 3.52035 0
M  V30 6372 C 606.687 1.58806 2.27323 0
M  V30 6373 H 609.638 1.25175 0.975541 0
M  V30 6374 H 609.659 0.96267 3.68121 0
M  V30 6375 H 609.171 2.60192 2.87961 0
M  V30 6376 H 607.272 0.282091 3.71531 0
M  V30 6377 H 607.385 2.0657 4.32279 0
M  V30 6378 H 605.749 1.01007 2.33815 0
M  V30 6379 H 606.532 2.67153 2.15602 0
M  V30 6380 N 608.977 -1.30795 0.87923 0
M  V30 6381 C 610.254 -1.91145 0.415086 0
M  V30 6382 C 610.634 -1.7995 -1.10368 0
M  V30 6383 O 609.982 -1.21305 -1.93642 0
M  V30 6384 C 610.192 -3.37014 0.906778 0
M  V30 6385 C 611.54 -4.14101 0.938358 0
M  V30 6386 O 612.564 -3.45834 0.853053 0
M  V30 6387 O 611.423 -5.36054 1.06342 0
M  V30 6388 H 608.517 -0.81736 0.125905 0
M  V30 6389 H 611.063 -1.39401 0.967753 0
M  V30 6390 H 609.835 -3.3922 1.95053 0
M  V30 6391 H 609.458 -3.96204 0.332948 0
M  V30 6392 N 610.455 -0.639598 -1.44038 0
M  V30 6393 C 611.418 0.0506628 -2.29144 0
M  V30 6394 C 612.418 0.764001 -1.41491 0
M  V30 6395 O 613.608 0.607309 -1.63271 0
M  V30 6396 C 610.74 1.0824 -3.2326 0
M  V30 6397 H 611.933 -0.697987 -2.91664 0
M  V30 6398 H 609.486 -0.400146 -1.51091 0
M  V30 6399 H 610.221 1.86075 -2.65606 0
M  V30 6400 H 610.006 0.574725 -3.87865 0
M  V30 6401 H 611.496 1.56487 -3.87171 0
M  V30 6402 N 611.933 1.52934 -0.380664 0
M  V30 6403 C 612.88 2.26197 0.458641 0
M  V30 6404 C 613.85 1.27462 1.06502 0
M  V30 6405 O 615.035 1.56274 1.09467 0
M  V30 6406 C 612.175 3.06571 1.58456 0
M  V30 6407 C 611.288 4.20222 1.00189 0
M  V30 6408 C 610.423 4.88007 2.09815 0
M  V30 6409 C 609.462 5.93665 1.49092 0
M  V30 6410 N 608.599 6.55081 2.52613 0
M  V30 6411 H 613.439 2.975 -0.172595 0
M  V30 6412 H 610.976 1.4678 -0.0969426 0
M  V30 6413 H 612.934 3.51455 2.24801 0
M  V30 6414 H 611.564 2.37494 2.18624 0
M  V30 6415 H 610.616 3.79714 0.228292 0
M  V30 6416 H 611.928 4.96102 0.518064 0
M  V30 6417 H 611.082 5.36151 2.83948 0
M  V30 6418 H 609.821 4.11632 2.61555 0
M  V30 6419 H 608.826 5.44868 0.7348 0
M  V30 6420 H 610.051 6.71969 0.981582 0
M  V30 6421 H 607.997 5.8155 3.03538 0
M  V30 6422 H 607.914 7.26548 2.08961 0
M  V30 6423 H 609.182 7.07871 3.26402 0
M  V30 6424 N 613.412 0.11024 1.57214 0
M  V30 6425 C 614.642 -0.557025 1.98949 0
M  V30 6426 C 615.05 -1.61317 0.988606 0
M  V30 6427 O 614.393 -1.83679 -0.0279159 0
M  V30 6428 C 614.455 -1.24956 3.37085 0
M  V30 6429 C 614.119 -0.342398 4.55716 0
M  V30 6430 C 615.116 0.415511 5.18237 0
M  V30 6431 C 612.801 -0.256029 5.01647 0
M  V30 6432 C 614.795 1.24761 6.25071 0
M  V30 6433 C 612.482 0.579713 6.08344 0
M  V30 6434 C 613.48 1.33017 6.69922 0
M  V30 6435 O 613.168 2.15205 7.74559 0
M  V30 6436 H 612.9 -0.152792 0.658506 0
M  V30 6437 H 615.454 0.19076 2.04512 0
M  V30 6438 H 613.684 -2.04424 3.2825 0
M  V30 6439 H 615.373 -1.81286 3.63167 0
M  V30 6440 H 616.139 0.358605 4.83672 0
M  V30 6441 H 612.018 -0.829831 4.5347 0
M  V30 6442 H 615.562 1.83386 6.73064 0
M  V30 6443 H 611.459 0.638044 6.42339 0
M  V30 6444 H 612.227 2.08052 7.91617 0
M  V30 6445 N 614.89 -1.56749 -0.16351 0
M  V30 6446 C 615.853 -1.96121 -1.18613 0
M  V30 6447 C 616.853 -0.845765 -1.36761 0
M  V30 6448 O 618.043 -1.11268 -1.34033 0
M  V30 6449 C 615.175 -2.26282 -2.54969 0
M  V30 6450 H 616.368 -2.87639 -0.848764 0
M  V30 6451 H 613.921 -1.50928 -0.406251 0
M  V30 6452 H 614.656 -1.37504 -2.93706 0
M  V30 6453 H 614.441 -3.07595 -2.43162 0
M  V30 6454 H 615.931 -2.57638 -3.28653 0
M  V30 6455 N 616.368 0.432326 -1.51554 0
M  V30 6456 C 617.315 1.52512 -1.7323 0
M  V30 6457 C 618.285 1.55863 -0.5741 0
M  V30 6458 O 619.47 1.72796 -0.809093 0
M  V30 6459 C 616.61 2.90183 -1.86783 0
M  V30 6460 C 615.723 2.96322 -3.14352 0
M  V30 6461 C 614.858 4.25147 -3.18471 0
M  V30 6462 C 613.897 4.25172 -4.40335 0
M  V30 6463 N 613.034 5.45529 -4.41975 0
M  V30 6464 H 617.874 1.33332 -2.66508 0
M  V30 6465 H 615.411 0.647613 -1.32077 0
M  V30 6466 H 617.369 3.70071 -1.92623 0
M  V30 6467 H 615.999 3.0791 -0.969087 0
M  V30 6468 H 615.051 2.09066 -3.17798 0
M  V30 6469 H 616.363 2.92203 -4.04251 0
M  V30 6470 H 615.517 5.13411 -3.23255 0
M  V30 6471 H 614.256 4.31929 -2.2647 0
M  V30 6472 H 613.261 3.353 -4.35723 0
M  V30 6473 H 614.486 4.20049 -5.33606 0
M  V30 6474 H 612.432 5.53024 -3.52847 0
M  V30 6475 H 612.349 5.43311 -5.25689 0
M  V30 6476 H 613.617 6.35812 -4.50958 0
M  V30 6477 N 617.846 1.41785 0.688094 0
M  V30 6478 C 619.092 1.41753 1.4503 0
M  V30 6479 C 619.425 0.0290745 1.94178 0
M  V30 6480 O 618.7 -0.944456 1.7003 0
M  V30 6481 C 618.983 2.43069 2.65686 0
M  V30 6482 C 618.836 3.91053 2.22256 0
M  V30 6483 C 620.155 2.41543 3.67893 0
M  V30 6484 H 617.274 0.516202 0.526027 0
M  V30 6485 H 619.916 1.73111 0.783105 0
M  V30 6486 H 618.066 2.1646 3.2261 0
M  V30 6487 H 619.738 4.28594 1.70602 0
M  V30 6488 H 617.981 4.05559 1.53963 0
M  V30 6489 H 618.652 4.57501 3.08863 0
M  V30 6490 H 621.128 2.65175 3.20658 0
M  V30 6491 H 620.004 3.14434 4.49914 0
M  V30 6492 H 620.265 1.43666 4.18106 0
M  V30 6493 N 619.324 -0.923095 1.27737 0
M  V30 6494 C 620.271 -2.02432 1.1086 0
M  V30 6495 C 621.241 -1.66098 0.00835195 0
M  V30 6496 O 622.426 -1.90027 0.171542 0
M  V30 6497 C 619.566 -3.36476 0.766671 0
M  V30 6498 C 618.679 -3.85737 1.94501 0
M  V30 6499 C 617.814 -5.08249 1.54455 0
M  V30 6500 C 616.853 -5.49818 2.6901 0
M  V30 6501 N 615.99 -6.63524 2.29521 0
M  V30 6502 H 620.83 -2.16201 2.05089 0
M  V30 6503 H 618.367 -1.05909 1.02087 0
M  V30 6504 H 620.325 -4.13569 0.549223 0
M  V30 6505 H 618.955 -3.22502 -0.13867 0
M  V30 6506 H 618.007 -3.04883 2.27487 0
M  V30 6507 H 619.319 -4.12513 2.80419 0
M  V30 6508 H 618.473 -5.92857 1.28862 0
M  V30 6509 H 617.212 -4.83261 0.656534 0
M  V30 6510 H 616.217 -4.63757 2.95313 0
M  V30 6511 H 617.442 -5.76799 3.5844 0
M  V30 6512 H 615.388 -6.40185 1.43177 0
M  V30 6513 H 615.305 -6.89978 3.08977 0
M  V30 6514 H 616.573 -7.51461 2.07187 0
M  V30 6515 N 620.802 -1.09834 -1.13024 0
M  V30 6516 C 621.732 -0.763451 -2.20666 0
M  V30 6517 C 622.713 0.260778 -1.68089 0
M  V30 6518 O 623.898 0.127915 -1.93778 0
M  V30 6519 C 621.028 -0.187744 -3.46792 0
M  V30 6520 C 619.982 -1.14196 -4.12484 0
M  V30 6521 C 619.308 -0.427755 -5.32986 0
M  V30 6522 C 620.608 -2.48607 -4.59338 0
M  V30 6523 H 622.302 -1.66347 -2.48936 0
M  V30 6524 H 619.848 -0.801261 -1.19649 0
M  V30 6525 H 621.801 0.0586375 -4.21359 0
M  V30 6526 H 620.525 0.747485 -3.17931 0
M  V30 6527 H 619.184 -1.37369 -3.3989 0
M  V30 6528 H 618.832 0.511747 -5.0039 0
M  V30 6529 H 618.532 -1.06403 -5.77886 0
M  V30 6530 H 620.056 -0.189772 -6.10305 0
M  V30 6531 H 621.47 -2.29618 -5.25308 0
M  V30 6532 H 619.867 -3.08062 -5.14993 0
M  V30 6533 H 620.937 -3.09062 -3.73642 0
M  V30 6534 N 622.28 1.30327 -0.886154 0
M  V30 6535 C 623.529 1.95373 -0.501243 0
M  V30 6536 C 623.842 1.70722 0.954634 0
M  V30 6537 O 625.048 2.29761 1.44644 0
M  V30 6538 C 623.504 3.49828 -0.845493 0
M  V30 6539 C 623.112 3.83296 -2.31922 0
M  V30 6540 C 624.856 4.2118 -0.529838 0
M  V30 6541 C 622.763 5.30935 -2.60504 0
M  V30 6542 H 621.693 0.731274 -0.183722 0
M  V30 6543 H 624.344 1.48258 -1.08129 0
M  V30 6544 H 622.726 3.95522 -0.19452 0
M  V30 6545 H 623.9 3.48508 -3.01461 0
M  V30 6546 H 622.215 3.2505 -2.60253 0
M  V30 6547 H 624.812 5.29825 -0.720401 0
M  V30 6548 H 625.155 4.12902 0.530828 0
M  V30 6549 H 625.688 3.81173 -1.13806 0
M  V30 6550 H 622.427 5.44265 -3.65316 0
M  V30 6551 H 621.947 5.67019 -1.95575 0
M  V30 6552 H 623.626 5.98381 -2.46066 0
M  V30 6553 N 623.758 0.647228 1.43697 0
M  V30 6554 C 625.174 0.314256 1.56476 0
M  V30 6555 C 625.374 -1.18191 1.63196 0
M  V30 6556 O 624.43 -1.96655 1.58376 0
M  V30 6557 C 625.743 1.02034 2.82859 0
M  V30 6558 C 627.291 1.00002 2.96595 0
M  V30 6559 C 627.766 1.68689 4.25803 0
M  V30 6560 N 629.257 1.65424 4.32654 0
M  V30 6561 C 629.992 2.1545 5.31384 0
M  V30 6562 N 629.488 2.73738 6.36427 0
M  V30 6563 N 631.281 2.05985 5.22998 0
M  V30 6564 H 623.432 1.61821 1.37578 0
M  V30 6565 H 625.695 0.680184 0.660344 0
M  V30 6566 H 625.401 2.07542 2.83935 0
M  V30 6567 H 625.275 0.568146 3.72897 0
M  V30 6568 H 627.662 -0.0466319 2.95063 0
M  V30 6569 H 627.743 1.49086 2.07863 0
M  V30 6570 H 627.387 2.73308 4.28095 0
M  V30 6571 H 627.317 1.17076 5.13421 0
M  V30 6572 H 629.808 1.22884 3.57363 0
M  V30 6573 H 630.121 3.09602 7.08072 0
M  V30 6574 H 628.466 2.77796 6.37067 0
M  V30 6575 H 631.657 1.60157 4.39849 0
M  V30 6576 H 631.83 2.45281 5.99784 0
M  V30 6577 N 625.236 -1.5273 0.388769 0
M  V30 6578 C 626.166 -2.29353 -0.438111 0
M  V30 6579 C 627.147 -1.32719 -1.06394 0
M  V30 6580 O 628.332 -1.61612 -1.07681 0
M  V30 6581 C 625.462 -3.09995 -1.56589 0
M  V30 6582 C 624.416 -4.14509 -1.06613 0
M  V30 6583 C 623.742 -4.83372 -2.28594 0
M  V30 6584 C 625.042 -5.22127 -0.134459 0
M  V30 6585 H 626.736 -2.98723 0.201206 0
M  V30 6586 H 624.282 -1.43665 0.0982089 0
M  V30 6587 H 626.235 -3.62357 -2.15118 0
M  V30 6588 H 624.959 -2.38357 -2.23279 0
M  V30 6589 H 623.618 -3.63128 -0.503383 0
M  V30 6590 H 623.266 -4.08283 -2.93792 0
M  V30 6591 H 622.966 -5.54012 -1.95817 0
M  V30 6592 H 624.49 -5.38538 -2.87766 0
M  V30 6593 H 625.904 -5.69851 -0.627914 0
M  V30 6594 H 624.301 -6.00011 0.103534 0
M  V30 6595 H 625.371 -4.77971 0.816798 0
M  V30 6596 N 626.714 -0.118576 -1.57153 0
M  V30 6597 C 627.96 0.540326 -1.95469 0
M  V30 6598 C 628.293 1.66356 -1.00196 0
M  V30 6599 O 627.568 1.94461 -0.039104 0
M  V30 6600 C 627.851 1.07342 -3.43729 0
M  V30 6601 C 627.704 -0.0463732 -4.49776 0
M  V30 6602 C 629.023 1.96442 -3.93826 0
M  V30 6603 H 626.142 0.19494 -0.710751 0
M  V30 6604 H 628.784 -0.19405 -1.89006 0
M  V30 6605 H 626.934 1.69925 -3.49368 0
M  V30 6606 H 628.606 -0.681648 -4.56236 0
M  V30 6607 H 626.849 -0.709574 -4.27957 0
M  V30 6608 H 627.52 0.367856 -5.50773 0
M  V30 6609 H 629.996 1.43731 -3.90488 0
M  V30 6610 H 628.872 2.3066 -4.98084 0
M  V30 6611 H 629.133 2.89077 -3.34495 0
M  V30 6612 N 628.193 1.56834 0.155195 0
M  V30 6613 C 629.441 1.82536 0.867462 0
M  V30 6614 C 629.762 0.698168 1.82073 0
M  V30 6615 O 629.032 -0.280807 1.93877 0
M  V30 6616 H 627.612 0.673401 0.323327 0
M  V30 6617 H 630.274 1.94313 0.151156 0
M  V30 6618 H 629.37 2.77171 1.43466 0
M  V30 6619 N 629.671 -0.424282 1.51781 0
M  V30 6620 C 630.92 -1.16961 1.64326 0
M  V30 6621 C 631.233 -1.92035 0.371749 0
M  V30 6622 O 632.439 -2.68873 0.37676 0
M  V30 6623 C 630.895 -2.12782 2.90262 0
M  V30 6624 C 630.503 -1.43295 4.24465 0
M  V30 6625 C 632.247 -2.87667 3.12166 0
M  V30 6626 C 630.154 -2.37676 5.41538 0
M  V30 6627 H 629.084 -0.440293 0.612093 0
M  V30 6628 H 631.735 -0.435431 1.78259 0
M  V30 6629 H 630.117 -2.8969 2.69992 0
M  V30 6630 H 631.291 -0.718564 4.55163 0
M  V30 6631 H 629.606 -0.805118 4.08542 0
M  V30 6632 H 632.203 -3.58395 3.96808 0
M  V30 6633 H 632.546 -3.49758 2.25776 0
M  V30 6634 H 633.079 -2.17863 3.32837 0
M  V30 6635 H 629.818 -1.80255 6.30229 0
M  V30 6636 H 629.338 -3.07132 5.15199 0
M  V30 6637 H 631.017 -2.98529 5.74012 0
M  V30 6638 N 631.149 -1.42148 -0.680565 0
M  V30 6639 C 632.082 -1.39602 -1.80517 0
M  V30 6640 C 633.06 -0.261098 -1.6049 0
M  V30 6641 O 634.244 -0.450404 -1.8304 0
M  V30 6642 C 631.371 -1.18134 -3.1743 0
M  V30 6643 C 630.417 -2.34543 -3.56219 0
M  V30 6644 S 631.25 -3.97063 -3.59306 0
M  V30 6645 C 632.406 -3.77926 -4.98921 0
M  V30 6646 H 632.639 -2.3477 -1.82402 0
M  V30 6647 H 630.172 -1.28851 -0.850691 0
M  V30 6648 H 632.13 -1.06434 -3.96462 0
M  V30 6649 H 630.791 -0.245611 -3.13138 0
M  V30 6650 H 629.984 -2.15255 -4.55721 0
M  V30 6651 H 629.586 -2.42728 -2.84533 0
M  V30 6652 H 631.878 -3.3856 -5.86842 0
M  V30 6653 H 632.821 -4.77084 -5.23256 0
M  V30 6654 H 633.229 -3.10904 -4.71167 0
M  V30 6655 N 632.627 0.916307 -1.28225 0
M  V30 6656 C 633.557 2.0352 -1.14464 0
M  V30 6657 C 634.538 1.70045 -0.0430844 0
M  V30 6658 O 635.723 1.92954 -0.219619 0
M  V30 6659 C 632.853 3.37889 -0.803027 0
M  V30 6660 C 631.807 3.85516 -1.85908 0
M  V30 6661 C 631.133 5.1682 -1.37116 0
M  V30 6662 C 632.433 4.07655 -3.26519 0
M  V30 6663 H 634.127 2.1529 -2.08064 0
M  V30 6664 H 631.673 1.03446 -1.00174 0
M  V30 6665 H 633.626 4.15654 -0.693537 0
M  V30 6666 H 632.35 3.26164 0.168674 0
M  V30 6667 H 631.009 3.09953 -1.95767 0
M  V30 6668 H 630.657 5.01497 -0.38859 0
M  V30 6669 H 630.357 5.49657 -2.07728 0
M  V30 6670 H 631.881 5.97143 -1.27484 0
M  V30 6671 H 633.295 4.75953 -3.19596 0
M  V30 6672 H 631.692 4.51818 -3.94943 0
M  V30 6673 H 632.762 3.12553 -3.70727 0
M  V30 6674 N 634.105 1.10431 1.1244 0
M  V30 6675 C 635.035 0.775143 2.20258 0
M  V30 6676 C 636.016 -0.25186 1.68225 0
M  V30 6677 O 637.201 -0.117637 1.93843 0
M  V30 6678 C 634.331 0.206133 3.46688 0
M  V30 6679 C 633.285 1.16382 4.11873 0
M  V30 6680 C 632.611 0.456014 5.32752 0
M  V30 6681 C 633.911 2.5104 4.58013 0
M  V30 6682 H 635.605 1.67665 2.4805 0
M  V30 6683 H 633.151 0.807595 1.19222 0
M  V30 6684 H 635.104 -0.036291 4.21384 0
M  V30 6685 H 633.828 -0.730614 3.18323 0
M  V30 6686 H 632.487 1.39169 3.39157 0
M  V30 6687 H 632.135 -0.485203 5.00654 0
M  V30 6688 H 631.835 1.09466 5.77314 0
M  V30 6689 H 633.359 0.222135 6.10196 0
M  V30 6690 H 634.773 2.32401 5.24083 0
M  V30 6691 H 633.17 3.10789 5.13352 0
M  V30 6692 H 634.24 3.11039 3.71998 0
M  V30 6693 N 635.583 -1.29855 0.893053 0
M  V30 6694 C 636.513 -2.3035 0.382249 0
M  V30 6695 C 637.494 -1.61328 -0.539203 0
M  V30 6696 O 638.679 -1.88882 -0.451342 0
M  V30 6697 C 635.809 -3.45024 -0.396983 0
M  V30 6698 C 634.763 -4.258 0.433437 0
M  V30 6699 C 634.089 -5.32605 -0.472889 0
M  V30 6700 C 635.389 -4.94549 1.67984 0
M  V30 6701 H 637.083 -2.73325 1.22205 0
M  V30 6702 H 634.629 -1.314 0.589073 0
M  V30 6703 H 636.582 -4.14398 -0.765024 0
M  V30 6704 H 635.306 -3.00875 -1.2705 0
M  V30 6705 H 633.965 -3.58125 0.783723 0
M  V30 6706 H 633.613 -4.84702 -1.34435 0
M  V30 6707 H 633.313 -5.87547 0.0789958 0
M  V30 6708 H 634.837 -6.04832 -0.837269 0
M  V30 6709 H 636.251 -5.56395 1.38192 0
M  V30 6710 H 634.648 -5.59393 2.17254 0
M  V30 6711 H 635.718 -4.20215 2.41965 0
M  V30 6712 N 637.061 -0.65484 -1.43351 0
M  V30 6713 C 638.291 -0.176429 -2.05845 0
M  V30 6714 C 638.699 1.16375 -1.49176 0
M  V30 6715 O 638.042 1.72981 -0.618322 0
M  V30 6716 C 638.104 -0.0125844 -3.59498 0
M  V30 6717 C 637.768 -1.27831 -4.38758 0
M  V30 6718 C 638.765 -2.2074 -4.70712 0
M  V30 6719 C 636.45 -1.52035 -4.78739 0
M  V30 6720 C 638.444 -3.36145 -5.41558 0
M  V30 6721 C 636.131 -2.67732 -5.49329 0
M  V30 6722 C 637.129 -3.59612 -5.80662 0
M  V30 6723 O 636.817 -4.73289 -6.4981 0
M  V30 6724 H 636.549 -0.0879682 -0.670252 0
M  V30 6725 H 639.103 -0.896193 -1.84818 0
M  V30 6726 H 637.333 0.762567 -3.79107 0
M  V30 6727 H 639.022 0.423392 -4.03686 0
M  V30 6728 H 639.788 -2.03284 -4.40341 0
M  V30 6729 H 635.667 -0.813987 -4.53757 0
M  V30 6730 H 639.211 -4.07881 -5.65932 0
M  V30 6731 H 635.108 -2.85122 -5.79116 0
M  V30 6732 H 635.876 -4.72575 -6.68293 0
M  V30 6733 N 638.539 1.52521 -0.396863 0
M  V30 6734 C 639.785 2.01971 0.183169 0
M  V30 6735 C 640.118 1.2825 1.45827 0
M  V30 6736 O 639.393 0.385179 1.90648 0
M  V30 6737 C 639.676 3.5736 0.443391 0
M  V30 6738 C 639.529 4.41743 -0.84753 0
M  V30 6739 C 640.848 4.22539 1.2308 0
M  V30 6740 H 637.967 0.734119 0.0650976 0
M  V30 6741 H 640.609 1.82519 -0.527918 0
M  V30 6742 H 638.759 3.74066 1.04914 0
M  V30 6743 H 640.431 4.36773 -1.48414 0
M  V30 6744 H 638.674 4.0845 -1.4612 0
M  V30 6745 H 639.345 5.48507 -0.620003 0
M  V30 6746 H 641.821 4.09857 0.718084 0
M  V30 6747 H 640.697 5.31227 1.38162 0
M  V30 6748 H 640.958 3.80675 2.24808 0
M  V30 6749 N 640.017 0.126909 1.57088 0
M  V30 6750 C 640.964 -0.82036 2.15728 0
M  V30 6751 C 641.934 -1.25811 1.08447 0
M  V30 6752 O 643.119 -1.33422 1.36393 0
M  V30 6753 C 640.259 -2.06199 2.76724 0
M  V30 6754 C 639.372 -1.67188 3.98337 0
M  V30 6755 C 638.507 -2.86378 4.47393 0
M  V30 6756 C 637.546 -2.43644 5.61519 0
M  V30 6757 N 636.683 -3.55775 6.05284 0
M  V30 6758 H 641.523 -0.313472 2.96347 0
M  V30 6759 H 639.06 -0.14303 1.46403 0
M  V30 6760 H 641.018 -2.78959 3.10222 0
M  V30 6761 H 639.648 -2.54333 1.98782 0
M  V30 6762 H 638.7 -0.842714 3.70948 0
M  V30 6763 H 640.012 -1.31789 4.81075 0
M  V30 6764 H 639.166 -3.67353 4.82842 0
M  V30 6765 H 637.905 -3.25009 3.63621 0
M  V30 6766 H 636.91 -1.61104 5.25667 0
M  V30 6767 H 638.135 -2.06122 6.47063 0
M  V30 6768 H 636.081 -3.94065 5.24451 0
M  V30 6769 H 635.998 -3.24325 6.82898 0
M  V30 6770 H 637.266 -4.37166 6.45373 0
M  V30 6771 N 641.495 -1.56914 -0.146875 0
M  V30 6772 C 642.427 -1.94878 -1.20645 0
M  V30 6773 C 643.44 -0.844633 -1.39175 0
M  V30 6774 O 644.629 -1.12304 -1.38744 0
M  V30 6775 C 641.729 -2.20769 -2.57127 0
M  V30 6776 C 640.902 -3.52053 -2.59572 0
M  V30 6777 C 639.961 -3.66482 -3.77594 0
M  V30 6778 O 638.987 -4.38873 -3.62462 0
M  V30 6779 N 640.189 -3.03156 -4.95052 0
M  V30 6780 H 642.954 -2.86374 -0.883757 0
M  V30 6781 H 640.515 -1.58366 -0.336436 0
M  V30 6782 H 642.507 -2.27664 -3.34591 0
M  V30 6783 H 641.077 -1.35538 -2.81688 0
M  V30 6784 H 640.297 -3.56598 -1.68023 0
M  V30 6785 H 641.585 -4.38396 -2.58238 0
M  V30 6786 H 640.983 -2.44258 -5.10249 0
M  V30 6787 H 639.54 -3.15611 -5.70292 0
M  V30 6788 N 642.974 0.416227 -1.52004 0
M  V30 6789 C 643.884 1.53147 -1.77717 0
M  V30 6790 C 644.9 1.609 -0.662368 0
M  V30 6791 O 646.076 1.77747 -0.946991 0
M  V30 6792 C 643.141 2.88948 -1.91598 0
M  V30 6793 C 642.202 2.9114 -3.15493 0
M  V30 6794 C 641.435 4.20464 -3.28703 0
M  V30 6795 O 641.658 5.13981 -2.47345 0
M  V30 6796 O 640.592 4.29368 -4.21813 0
M  V30 6797 H 644.418 1.34357 -2.72363 0
M  V30 6798 H 642.003 0.601373 -1.36762 0
M  V30 6799 H 643.885 3.69505 -2.02593 0
M  V30 6800 H 642.56 3.07821 -1.00141 0
M  V30 6801 H 641.467 2.09461 -3.09962 0
M  V30 6802 H 642.8 2.77216 -4.06709 0
M  V30 6803 N 644.452 1.42507 0.673017 0
M  V30 6804 C 645.402 1.4258 1.77919 0
M  V30 6805 C 646.386 0.296885 1.58137 0
M  V30 6806 O 647.578 0.539243 1.68586 0
M  V30 6807 C 644.707 1.33238 3.1639 0
M  V30 6808 C 643.793 2.51081 3.41788 0
M  V30 6809 N 644.184 3.76498 3.37761 0
M  V30 6810 C 642.482 2.4538 3.72431 0
M  V30 6811 C 643.183 4.54784 3.62693 0
M  V30 6812 N 642.159 3.8522 3.83544 0
M  V30 6813 H 645.961 2.37442 1.73201 0
M  V30 6814 H 643.475 1.36881 0.873924 0
M  V30 6815 H 645.472 1.31372 3.9566 0
M  V30 6816 H 644.132 0.393794 3.22303 0
M  V30 6817 H 645.143 4.09068 3.17622 0
M  V30 6818 H 641.82 1.60109 3.85579 0
M  V30 6819 H 643.21 5.63774 3.65525 0
M  V30 6820 N 645.93 -0.909495 1.28709 0
M  V30 6821 C 646.893 -1.99399 1.13016 0
M  V30 6822 C 647.893 -1.60654 0.068536 0
M  V30 6823 O 649.083 -1.71334 0.314671 0
M  V30 6824 C 646.215 -3.33078 0.726085 0
M  V30 6825 H 647.408 -2.14751 2.09338 0
M  V30 6826 H 644.961 -1.09272 1.11756 0
M  V30 6827 H 645.696 -3.23428 -0.23771 0
M  V30 6828 H 645.481 -3.62562 1.49302 0
M  V30 6829 H 646.971 -4.12681 0.639058 0
M  V30 6830 N 647.408 -1.11026 -1.11852 0
M  V30 6831 C 648.371 -0.768006 -2.1595 0
M  V30 6832 C 649.371 0.210538 -1.59416 0
M  V30 6833 O 650.561 -0.0133978 -1.74195 0
M  V30 6834 C 647.693 -0.138678 -3.40618 0
M  V30 6835 H 648.886 -1.69012 -2.4774 0
M  V30 6836 H 646.439 -0.911578 -1.26964 0
M  V30 6837 H 647.174 0.793872 -3.14433 0
M  V30 6838 H 646.959 -0.843012 -3.8293 0
M  V30 6839 H 648.449 0.0848039 -4.17514 0
M  V30 6840 N 648.886 1.2938 -0.899927 0
M  V30 6841 C 650.116 1.99402 -0.540601 0
M  V30 6842 C 650.524 1.67534 0.87914 0
M  V30 6843 O 649.867 0.916821 1.59186 0
M  V30 6844 C 649.929 3.53514 -0.653326 0
M  V30 6845 C 649.593 4.08937 -2.04009 0
M  V30 6846 C 650.59 4.23815 -3.01126 0
M  V30 6847 C 648.275 4.43962 -2.34953 0
M  V30 6848 C 650.269 4.72951 -4.27313 0
M  V30 6849 C 647.956 4.92795 -3.61382 0
M  V30 6850 C 648.954 5.07244 -4.57376 0
M  V30 6851 O 648.642 5.55017 -5.8156 0
M  V30 6852 H 648.374 0.64383 -0.206057 0
M  V30 6853 H 650.928 1.65878 -1.21134 0
M  V30 6854 H 649.158 3.86628 0.0744449 0
M  V30 6855 H 650.847 4.04767 -0.303118 0
M  V30 6856 H 651.613 3.97043 -2.78535 0
M  V30 6857 H 647.492 4.31974 -1.60994 0
M  V30 6858 H 651.036 4.84144 -5.02245 0
M  V30 6859 H 646.933 5.19004 -3.83804 0
M  V30 6860 H 647.701 5.73331 -5.84153 0
M  V30 6861 N 650.364 0.662433 1.43002 0
M  V30 6862 C 651.613 0.176873 2.00923 0
M  V30 6863 C 651.926 -1.21954 1.52927 0
M  V30 6864 O 653.132 -1.80081 2.03182 0
M  V30 6865 C 651.588 0.265379 3.5892 0
M  V30 6866 C 651.196 1.66507 4.15908 0
M  V30 6867 C 652.94 -0.162103 4.2419 0
M  V30 6868 C 650.847 1.707 5.66229 0
M  V30 6869 H 649.777 0.0623627 0.751417 0
M  V30 6870 H 652.428 0.825813 1.63868 0
M  V30 6871 H 650.81 -0.451235 3.93421 0
M  V30 6872 H 651.984 2.40777 3.92891 0
M  V30 6873 H 650.299 2.03932 3.63044 0
M  V30 6874 H 652.896 -0.150745 5.34487 0
M  V30 6875 H 653.239 -1.19519 3.98774 0
M  V30 6876 H 653.772 0.503075 3.94606 0
M  V30 6877 H 650.511 2.7195 5.96426 0
M  V30 6878 H 650.031 1.00768 5.91275 0
M  V30 6879 H 651.71 1.45487 6.3043 0
M  V30 6880 N 651.842 -1.52309 0.404946 0
M  V30 6881 C 653.067 -2.06666 -0.1743 0
M  V30 6882 C 653.492 -1.27341 -1.38441 0
M  V30 6883 O 652.85 -0.302539 -1.78758 0
M  V30 6884 C 652.898 -3.57014 -0.507262 0
M  V30 6885 O 652.002 -3.80144 -1.59889 0
M  V30 6886 H 651.343 -0.663807 -0.0160273 0
M  V30 6887 H 653.873 -1.96297 0.576937 0
M  V30 6888 H 653.883 -4.00724 -0.767098 0
M  V30 6889 H 652.558 -4.14184 0.377368 0
M  V30 6890 H 651.135 -3.48316 -1.33155 0
M  V30 6891 N 653.32 -0.135238 -1.57019 0
M  V30 6892 C 654.23 0.822226 -2.19719 0
M  V30 6893 C 655.246 1.28057 -1.17802 0
M  V30 6894 O 656.422 1.3402 -1.50335 0
M  V30 6895 C 653.487 2.0484 -2.79717 0
M  V30 6896 C 652.548 1.64042 -3.96723 0
M  V30 6897 C 651.781 2.80814 -4.53849 0
M  V30 6898 O 652.004 3.967 -4.0986 0
M  V30 6899 O 650.938 2.56963 -5.44292 0
M  V30 6900 H 654.764 0.318552 -3.02025 0
M  V30 6901 H 652.349 0.0912021 -1.49121 0
M  V30 6902 H 654.231 2.76622 -3.17897 0
M  V30 6903 H 652.906 2.54182 -2.00432 0
M  V30 6904 H 651.813 0.893182 -3.63281 0
M  V30 6905 H 653.146 1.19426 -4.77492 0
M  V30 6906 N 654.798 1.5699 0.138552 0
M  V30 6907 C 656.044 1.84081 0.85099 0
M  V30 6908 C 656.377 0.718107 1.80435 0
M  V30 6909 O 655.652 -0.277633 1.92508 0
M  V30 6910 C 655.935 3.21699 1.61808 0
M  V30 6911 C 655.788 4.44544 0.685633 0
M  V30 6912 C 657.107 3.5664 2.57868 0
M  V30 6913 H 654.226 0.669592 0.307922 0
M  V30 6914 H 656.868 1.89646 0.11588 0
M  V30 6915 H 655.018 3.17086 2.24474 0
M  V30 6916 H 656.69 4.61248 0.0693179 0
M  V30 6917 H 654.933 4.338 -0.00421993 0
M  V30 6918 H 655.604 5.3746 1.25858 0
M  V30 6919 H 658.08 3.61918 2.05316 0
M  V30 6920 H 656.956 4.53946 3.08584 0
M  V30 6921 H 657.217 2.83036 3.39622 0
M  V30 6922 N 656.276 -0.40816 1.52223 0
M  V30 6923 C 657.186 -1.52202 1.78526 0
M  V30 6924 C 658.202 -1.60546 0.670892 0
M  V30 6925 O 659.378 -1.77242 0.956404 0
M  V30 6926 C 656.443 -2.87928 1.93128 0
M  V30 6927 C 655.504 -2.89463 3.17033 0
M  V30 6928 C 654.737 -4.18715 3.30929 0
M  V30 6929 O 654.96 -5.12662 2.50067 0
M  V30 6930 O 653.894 -4.27125 4.24084 0
M  V30 6931 H 657.72 -1.32911 2.73072 0
M  V30 6932 H 655.305 -0.594112 1.37079 0
M  V30 6933 H 657.187 -3.68426 2.04549 0
M  V30 6934 H 655.862 -3.07285 1.01772 0
M  V30 6935 H 654.769 -2.07815 3.11069 0
M  V30 6936 H 656.102 -2.75055 4.08174 0
M  V30 6937 N 657.755 -1.42862 -0.66545 0
M  V30 6938 C 658.718 -1.46756 -1.76055 0
M  V30 6939 C 659.718 -0.353866 -1.56858 0
M  V30 6940 O 660.908 -0.615099 -1.62979 0
M  V30 6941 C 658.04 -1.30829 -3.14796 0
M  V30 6942 H 659.233 -2.44271 -1.73987 0
M  V30 6943 H 656.786 -1.29447 -0.875965 0
M  V30 6944 H 657.521 -0.342733 -3.22484 0
M  V30 6945 H 657.306 -2.11551 -3.30134 0
M  V30 6946 H 658.796 -1.36458 -3.94676 0
M  V30 6947 N 659.233 0.902656 -1.29189 0
M  V30 6948 C 660.143 2.03946 -1.15944 0
M  V30 6949 C 661.159 1.738 -0.0833803 0
M  V30 6950 O 662.335 1.9923 -0.29487 0
M  V30 6951 C 659.4 3.36519 -0.834006 0
M  V30 6952 C 658.461 3.80203 -1.9936 0
M  V30 6953 C 657.694 5.06449 -1.68359 0
M  V30 6954 O 657.917 5.67202 -0.603141 0
M  V30 6955 O 656.851 5.46114 -2.53067 0
M  V30 6956 H 660.677 2.18043 -2.11403 0
M  V30 6957 H 658.262 1.02584 -1.08613 0
M  V30 6958 H 660.144 4.16089 -0.666949 0
M  V30 6959 H 658.819 3.23573 0.0908245 0
M  V30 6960 H 657.726 3.01413 -2.21588 0
M  V30 6961 H 659.059 3.97729 -2.89952 0
M  V30 6962 N 660.711 1.11618 1.11262 0
M  V30 6963 C 661.939 0.888739 1.8684 0
M  V30 6964 C 662.354 -0.561558 1.80255 0
M  V30 6965 O 661.711 -1.38782 1.18515 0
M  V30 6966 C 661.762 1.34422 3.35579 0
M  V30 6967 O 661.483 2.73766 3.42029 0
M  V30 6968 C 662.984 1.15246 4.28058 0
M  V30 6969 H 660.204 0.318152 0.590779 0
M  V30 6970 H 662.748 1.48398 1.40707 0
M  V30 6971 H 660.903 0.79239 3.7921 0
M  V30 6972 H 661.317 2.9355 4.34659 0
M  V30 6973 H 662.791 1.52015 5.30656 0
M  V30 6974 H 663.268 0.0922007 4.39103 0
M  V30 6975 H 663.874 1.69136 3.90222 0
M  V30 6976 N 662.189 -1.289 0.906776 0
M  V30 6977 C 663.435 -1.95558 0.53712 0
M  V30 6978 C 663.768 -1.71262 -0.915582 0
M  V30 6979 O 663.043 -1.02961 -1.65013 0
M  V30 6980 C 663.326 -3.50198 0.838645 0
M  V30 6981 C 663.179 -3.83923 2.34357 0
M  V30 6982 C 664.498 -4.38861 0.329988 0
M  V30 6983 H 661.617 -0.710289 0.196617 0
M  V30 6984 H 664.259 -1.52392 1.13475 0
M  V30 6985 H 662.409 -3.87096 0.330024 0
M  V30 6986 H 664.081 -3.56933 2.92227 0
M  V30 6987 H 662.324 -3.31215 2.80141 0
M  V30 6988 H 662.995 -4.91883 2.5051 0
M  V30 6989 H 665.471 -4.08996 0.765609 0
M  V30 6990 H 664.347 -5.45931 0.570105 0
M  V30 6991 H 664.608 -4.35352 -0.769511 0
M  V30 6992 N 663.667 -0.670007 -1.42649 0
M  V30 6993 C 664.915 -0.18991 -2.01206 0
M  V30 6994 C 665.236 1.20617 -1.53221 0
M  V30 6995 O 664.506 1.80898 -0.751856 0
M  V30 6996 H 663.086 -0.0672189 -0.743969 0
M  V30 6997 H 665.748 -0.865442 -1.74631 0
M  V30 6998 H 664.844 -0.187481 -3.11536 0
M  V30 6999 N 665.145 1.52092 -0.413018 0
M  V30 7000 C 666.373 2.06274 0.160881 0
M  V30 7001 C 666.788 1.28273 1.38533 0
M  V30 7002 O 666.145 0.33563 1.79387 0
M  V30 7003 C 666.196 3.57921 0.507443 0
M  V30 7004 O 665.917 4.32971 -0.668388 0
M  V30 7005 C 667.418 4.28533 1.13465 0
M  V30 7006 H 664.638 0.67074 0.0186759 0
M  V30 7007 H 667.182 1.95951 -0.585092 0
M  V30 7008 H 665.337 3.68238 1.20331 0
M  V30 7009 H 665.751 5.23135 -0.378169 0
M  V30 7010 H 667.225 5.35804 1.32732 0
M  V30 7011 H 667.702 3.85258 2.10886 0
M  V30 7012 H 668.308 4.22595 0.478876 0
M  V30 7013 N 666.623 0.143563 1.56945 0
M  V30 7014 C 667.871 -0.507402 1.95627 0
M  V30 7015 C 668.192 -1.65626 1.02922 0
M  V30 7016 O 667.462 -1.95693 0.0901136 0
M  V30 7017 H 666.042 -0.190436 0.722318 0
M  V30 7018 H 668.704 0.218257 1.93674 0
M  V30 7019 H 667.8 -0.885816 2.99265 0
M  V30 7020 N 668.101 -1.57061 -0.130224 0
M  V30 7021 C 669.35 -1.83446 -0.838488 0
M  V30 7022 C 669.663 -0.727468 -1.81569 0
M  V30 7023 O 670.869 -0.877394 -2.56932 0
M  V30 7024 C 669.325 -3.25201 -1.54182 0
M  V30 7025 C 668.933 -4.4388 -0.606178 0
M  V30 7026 C 670.677 -3.60844 -2.23588 0
M  V30 7027 C 668.584 -5.76661 -1.31209 0
M  V30 7028 H 667.514 -0.684185 -0.316871 0
M  V30 7029 H 670.165 -1.83273 -0.0912059 0
M  V30 7030 H 668.547 -3.1981 -2.33533 0
M  V30 7031 H 669.721 -4.60545 0.153308 0
M  V30 7032 H 668.036 -4.16395 -0.0196705 0
M  V30 7033 H 670.633 -4.57313 -2.77072 0
M  V30 7034 H 670.976 -2.87724 -3.00867 0
M  V30 7035 H 671.509 -3.67971 -1.51137 0
M  V30 7036 H 668.248 -6.52922 -0.580823 0
M  V30 7037 H 667.768 -5.63902 -2.04387 0
M  V30 7038 H 669.447 -6.20035 -1.8484 0
M  V30 7039 N 669.579 0.400081 -1.52437 0
M  V30 7040 C 670.512 1.50929 -1.7116 0
M  V30 7041 C 671.49 1.52679 -0.559275 0
M  V30 7042 O 672.674 1.71251 -0.787735 0
M  V30 7043 C 669.801 2.89433 -1.75915 0
M  V30 7044 C 668.847 3.05556 -2.97553 0
M  V30 7045 S 669.68 2.77919 -4.57735 0
M  V30 7046 C 670.836 4.18636 -4.6529 0
M  V30 7047 H 671.069 1.3482 -2.64973 0
M  V30 7048 H 668.602 0.592245 -1.4259 0
M  V30 7049 H 670.56 3.69253 -1.7934 0
M  V30 7050 H 669.221 3.02877 -0.832137 0
M  V30 7051 H 668.414 4.0691 -2.97388 0
M  V30 7052 H 668.016 2.33615 -2.92062 0
M  V30 7053 H 670.308 5.12406 -4.43223 0
M  V30 7054 H 671.251 4.23821 -5.67258 0
M  V30 7055 H 671.659 4.04029 -3.94234 0
M  V30 7056 N 671.057 1.43213 0.657864 0
M  V30 7057 C 672.305 1.44298 1.41501 0
M  V30 7058 C 672.626 0.0666478 1.94886 0
M  V30 7059 O 671.896 -0.897345 1.74139 0
M  V30 7060 H 670.476 0.531257 0.525143 0
M  V30 7061 H 673.138 1.78777 0.776195 0
M  V30 7062 H 672.234 2.1528 2.25966 0
M  V30 7063 N 672.536 -0.895792 1.29666 0
M  V30 7064 C 673.952 -1.17726 1.07763 0
M  V30 7065 C 674.152 -2.00794 -0.168576 0
M  V30 7066 O 673.208 -2.37213 -0.865244 0
M  V30 7067 C 674.521 -1.89441 2.33522 0
M  V30 7068 C 676.069 -2.02251 2.3888 0
M  V30 7069 C 676.544 -2.77378 3.64452 0
M  V30 7070 N 678.035 -2.8493 3.65198 0
M  V30 7071 C 678.77 -3.43606 4.59045 0
M  V30 7072 N 678.266 -4.03417 5.63228 0
M  V30 7073 N 680.059 -3.41317 4.46608 0
M  V30 7074 H 672.21 -0.341652 2.09634 0
M  V30 7075 H 674.473 -0.213865 0.923561 0
M  V30 7076 H 674.179 -1.35842 3.24407 0
M  V30 7077 H 674.053 -2.89893 2.41334 0
M  V30 7078 H 676.44 -2.55025 1.4848 0
M  V30 7079 H 676.521 -1.0092 2.3505 0
M  V30 7080 H 676.165 -2.25279 4.55205 0
M  V30 7081 H 676.095 -3.79062 3.65541 0
M  V30 7082 H 678.586 -2.42453 2.89871 0
M  V30 7083 H 678.899 -4.46224 6.30955 0
M  V30 7084 H 677.244 -4.01868 5.67033 0
M  V30 7085 H 680.435 -2.93812 3.64407 0
M  V30 7086 H 680.608 -3.86751 5.1993 0
M  V30 7087 N 674.014 -1.12206 -1.10668 0
M  V30 7088 C 674.947 -0.731468 -2.16159 0
M  V30 7089 C 675.925 0.276216 -1.60237 0
M  V30 7090 O 677.109 0.17074 -1.87725 0
M  V30 7091 C 674.236 -0.0822882 -3.386 0
M  V30 7092 C 673.282 -1.05641 -4.1321 0
M  V30 7093 S 674.115 -2.58281 -4.69096 0
M  V30 7094 C 675.271 -1.94686 -5.94851 0
M  V30 7095 H 675.504 -1.62504 -2.48957 0
M  V30 7096 H 673.037 -0.940906 -1.22419 0
M  V30 7097 H 674.995 0.285896 -4.09503 0
M  V30 7098 H 673.656 0.788358 -3.04046 0
M  V30 7099 H 672.849 -0.549764 -5.00993 0
M  V30 7100 H 672.451 -1.36741 -3.48106 0
M  V30 7101 H 674.743 -1.28815 -6.65141 0
M  V30 7102 H 675.686 -2.80499 -6.50174 0
M  V30 7103 H 676.094 -1.40369 -5.46769 0
M  V30 7104 N 675.492 1.28418 -0.913599 0
M  V30 7105 C 676.74 1.94596 -0.545594 0
M  V30 7106 C 677.061 1.7227 0.913668 0
M  V30 7107 O 676.331 1.06233 1.64595 0
M  V30 7108 H 674.911 0.720065 -0.198783 0
M  V30 7109 H 677.573 1.56404 -1.16292 0
M  V30 7110 H 676.669 3.03202 -0.739911 0
M  V30 7111 N 676.97 0.677563 1.42291 0
M  V30 7112 C 677.918 -0.0106755 2.32598 0
M  V30 7113 C 678.912 -0.787643 1.49975 0
M  V30 7114 O 680.118 -0.695295 1.66029 0
M  V30 7115 H 676.493 -0.0222482 0.751671 0
M  V30 7116 H 678.464 0.768312 2.88339 0
M  V30 7117 C 677.213 -0.946142 3.3458 0
M  V30 7118 H 676.536 -0.357701 3.98197 0
M  V30 7119 H 677.976 -1.39634 4.00348 0
M  V30 7120 C 676.435 -2.05383 2.67057 0
M  V30 7121 O 676.965 -3.1406 2.50458 0
M  V30 7122 N 675.171 -1.82635 2.26038 0
M  V30 7123 H 674.718 -0.942534 2.39737 0
M  V30 7124 H 674.676 -2.56937 1.81192 0
M  V30 7125 N 678.448 -1.51871 0.421078 0
M  V30 7126 C 679.395 -2.27334 -0.398508 0
M  V30 7127 C 680.365 -1.30241 -1.03085 0
M  V30 7128 O 681.55 -1.59121 -1.05285 0
M  V30 7129 C 678.69 -3.10664 -1.50272 0
M  V30 7130 C 677.803 -4.2273 -0.890122 0
M  V30 7131 C 676.938 -4.93399 -1.96803 0
M  V30 7132 C 675.977 -5.97409 -1.333 0
M  V30 7133 N 675.114 -6.61548 -2.35156 0
M  V30 7134 H 679.954 -2.96938 0.251411 0
M  V30 7135 H 677.491 -1.46472 0.135825 0
M  V30 7136 H 679.449 -3.57292 -2.15403 0
M  V30 7137 H 678.079 -2.43207 -2.1225 0
M  V30 7138 H 677.131 -3.80186 -0.127537 0
M  V30 7139 H 678.443 -4.97302 -0.386349 0
M  V30 7140 H 677.597 -5.43491 -2.69633 0
M  V30 7141 H 676.336 -4.18421 -2.50549 0
M  V30 7142 H 675.341 -5.46624 -0.59008 0
M  V30 7143 H 676.566 -6.74335 -0.803076 0
M  V30 7144 H 674.512 -5.89394 -2.88012 0
M  V30 7145 H 674.429 -7.31832 -1.89624 0
M  V30 7146 H 675.697 -7.16276 -3.0752 0
M  V30 7147 N 679.926 -0.151884 -1.56866 0
M  V30 7148 C 681.174 0.497021 -1.95893 0
M  V30 7149 C 681.495 1.65078 -1.03799 0
M  V30 7150 O 680.765 1.95642 -0.10049 0
M  V30 7151 H 679.345 0.186603 -0.723318 0
M  V30 7152 H 682.007 -0.228525 -1.93556 0
M  V30 7153 H 681.103 0.869933 -2.99731 0
M  V30 7154 N 681.404 1.57128 0.121893 0
M  V30 7155 C 682.652 1.84335 0.828548 0
M  V30 7156 C 682.973 0.736632 1.80551 0
M  V30 7157 O 682.243 -0.23962 1.94429 0
M  V30 7158 H 680.823 0.680108 0.30897 0
M  V30 7159 H 683.485 1.9459 0.109906 0
M  V30 7160 H 682.581 2.80152 1.37554 0
M  V30 7161 N 682.882 -0.391992 1.52647 0
M  V30 7162 C 684.128 -1.139 1.67793 0
M  V30 7163 C 684.461 -1.89711 0.41514 0
M  V30 7164 O 683.736 -1.85431 -0.586979 0
M  V30 7165 C 684.019 -2.11966 2.91105 0
M  V30 7166 C 683.872 -1.39939 4.27478 0
M  V30 7167 C 685.191 -3.1243 3.09961 0
M  V30 7168 H 682.31 -0.412707 0.610608 0
M  V30 7169 H 684.952 -0.422725 1.85238 0
M  V30 7170 H 683.102 -2.73048 2.76364 0
M  V30 7171 H 684.774 -0.818439 4.53982 0
M  V30 7172 H 683.017 -0.701246 4.28095 0
M  V30 7173 H 683.688 -2.1158 5.09841 0
M  V30 7174 H 686.164 -2.61435 3.23714 0
M  V30 7175 H 685.04 -3.78294 3.97725 0
M  V30 7176 H 685.301 -3.81127 2.24042 0
M  V30 7177 N 684.36 -1.4356 -0.65026 0
M  V30 7178 C 685.323 -1.48615 -1.74489 0
M  V30 7179 C 686.323 -0.370483 -1.56474 0
M  V30 7180 O 687.513 -0.632351 -1.62317 0
M  V30 7181 C 684.645 -1.34161 -3.13391 0
M  V30 7182 H 685.838 -2.46103 -1.71387 0
M  V30 7183 H 683.391 -1.30369 -0.862186 0
M  V30 7184 H 684.126 -0.376918 -3.22102 0
M  V30 7185 H 683.911 -2.1504 -3.27872 0
M  V30 7186 H 685.401 -1.40637 -3.93206 0
M  V30 7187 N 685.838 0.888903 -1.30139 0
M  V30 7188 C 687.087 1.63507 -1.18103 0
M  V30 7189 C 687.4 1.93808 0.264141 0
M  V30 7190 O 688.606 2.66744 0.505966 0
M  V30 7191 C 687.062 2.94673 -2.0663 0
M  V30 7192 C 686.67 2.71926 -3.56034 0
M  V30 7193 C 688.414 3.72626 -2.03346 0
M  V30 7194 C 686.321 3.98884 -4.3663 0
M  V30 7195 H 685.251 0.613426 -0.438435 0
M  V30 7196 H 687.902 0.984427 -1.54859 0
M  V30 7197 H 686.284 3.61009 -1.62754 0
M  V30 7198 H 687.458 2.14116 -4.08033 0
M  V30 7199 H 685.773 2.07353 -3.61101 0
M  V30 7200 H 688.37 4.66775 -2.60816 0
M  V30 7201 H 688.713 4.03712 -1.016 0
M  V30 7202 H 689.246 3.13147 -2.45324 0
M  V30 7203 H 685.985 3.72959 -5.39056 0
M  V30 7204 H 685.505 4.56214 -3.89396 0
M  V30 7205 H 687.184 4.66938 -4.47859 0
M  V30 7206 N 687.317 1.12792 1.10072 0
M  V30 7207 C 688.733 0.864745 1.34143 0
M  V30 7208 C 688.933 -0.503201 1.95116 0
M  V30 7209 O 687.989 -1.25111 2.19325 0
M  V30 7210 C 689.302 1.98413 2.25949 0
M  V30 7211 C 690.85 2.01545 2.39476 0
M  V30 7212 C 691.325 3.12727 3.34613 0
M  V30 7213 N 692.816 3.12194 3.42183 0
M  V30 7214 C 693.551 3.94862 4.15779 0
M  V30 7215 N 693.047 4.87528 4.92228 0
M  V30 7216 N 694.84 3.82985 4.11435 0
M  V30 7217 H 686.991 2.00926 0.68866 0
M  V30 7218 H 689.254 0.874564 0.365844 0
M  V30 7219 H 688.96 2.97005 1.88364 0
M  V30 7220 H 688.834 1.89254 3.26287 0
M  V30 7221 H 691.221 1.0357 2.76328 0
M  V30 7222 H 691.302 2.14777 1.3894 0
M  V30 7223 H 690.946 4.10936 2.98486 0
M  V30 7224 H 690.876 2.96732 4.35037 0
M  V30 7225 H 693.367 2.45065 2.87666 0
M  V30 7226 H 693.68 5.47109 5.45794 0
M  V30 7227 H 692.025 4.91539 4.9134 0
M  V30 7228 H 695.216 3.09923 3.50807 0
M  V30 7229 H 695.389 4.47641 4.68531 0
M  V30 7230 N 688.795 -1.27931 0.920396 0
M  V30 7231 C 690.042 -1.94689 0.557007 0
M  V30 7232 C 690.37 -1.724 -0.900476 0
M  V30 7233 O 689.625 -1.04194 -1.65657 0
M  V30 7234 C 689.924 -3.47853 0.820558 0
M  V30 7235 C 689.59 -3.90252 2.25863 0
M  V30 7236 C 688.252 -4.01539 2.65179 0
M  V30 7237 C 690.604 -4.11853 3.19415 0
M  V30 7238 C 687.932 -4.3181 3.97187 0
M  V30 7239 C 690.284 -4.43606 4.50995 0
M  V30 7240 C 688.948 -4.53105 4.90155 0
M  V30 7241 H 688.218 -0.712416 0.203823 0
M  V30 7242 H 690.865 -1.52142 1.16298 0
M  V30 7243 H 689.17 -3.91578 0.131844 0
M  V30 7244 H 690.867 -3.97634 0.51847 0
M  V30 7245 H 687.457 -3.81999 1.94358 0
M  V30 7246 H 691.641 -4.0258 2.90246 0
M  V30 7247 H 686.897 -4.37371 4.2722 0
M  V30 7248 H 691.071 -4.59268 5.23494 0
M  V30 7249 H 688.698 -4.76315 5.92476 0
M  V30 7250 N 690.273 -0.685099 -1.4193 0
M  V30 7251 C 691.205 0.0258679 -2.29185 0
M  V30 7252 C 692.218 0.755076 -1.44231 0
M  V30 7253 O 693.407 0.60752 -1.67844 0
M  V30 7254 C 690.507 1.06055 -3.21878 0
M  V30 7255 C 689.68 0.403088 -4.35539 0
M  V30 7256 C 688.739 1.33895 -5.0888 0
M  V30 7257 O 687.765 0.835326 -5.63037 0
M  V30 7258 N 688.967 2.6718 -5.15359 0
M  V30 7259 H 691.732 -0.723201 -2.90843 0
M  V30 7260 H 689.293 -0.53031 -1.52968 0
M  V30 7261 H 691.285 1.68813 -3.6781 0
M  V30 7262 H 689.855 1.71126 -2.616 0
M  V30 7263 H 689.075 -0.404185 -3.92122 0
M  V30 7264 H 690.363 -0.0545098 -5.08771 0
M  V30 7265 H 689.761 3.10626 -4.72788 0
M  V30 7266 H 688.318 3.25159 -5.64903 0
M  V30 7267 N 691.751 1.51645 -0.429126 0
M  V30 7268 C 692.998 2.02015 0.140079 0
M  V30 7269 C 693.326 1.31374 1.43427 0
M  V30 7270 O 692.581 0.414779 1.91254 0
M  V30 7271 C 692.88 3.54989 0.414472 0
M  V30 7272 C 692.546 4.43874 -0.792911 0
M  V30 7273 C 691.208 4.67887 -1.12404 0
M  V30 7274 C 693.56 4.96074 -1.59875 0
M  V30 7275 C 690.888 5.41348 -2.26184 0
M  V30 7276 C 693.24 5.70782 -2.72747 0
M  V30 7277 C 691.904 5.93062 -3.06324 0
M  V30 7278 H 691.174 0.739225 0.0512585 0
M  V30 7279 H 693.821 1.82675 -0.574641 0
M  V30 7280 H 692.126 3.72615 1.21099 0
M  V30 7281 H 693.823 3.91489 0.868173 0
M  V30 7282 H 690.413 4.25374 -0.524871 0
M  V30 7283 H 694.597 4.77412 -1.35614 0
M  V30 7284 H 689.853 5.56815 -2.52522 0
M  V30 7285 H 694.027 6.10221 -3.35564 0
M  V30 7286 H 691.654 6.49764 -3.94602 0
M  V30 7287 N 693.229 0.160201 1.56784 0
M  V30 7288 C 694.179 -0.786461 2.14007 0
M  V30 7289 C 695.163 -1.20046 1.07134 0
M  V30 7290 O 696.355 -1.16468 1.33283 0
M  V30 7291 C 693.484 -2.02024 2.77563 0
M  V30 7292 C 692.57 -1.62874 3.91578 0
M  V30 7293 N 692.961 -0.946176 4.96871 0
M  V30 7294 C 691.259 -1.92054 4.02531 0
M  V30 7295 C 691.96 -0.755084 5.76778 0
M  V30 7296 N 690.936 -1.29307 5.27997 0
M  V30 7297 H 694.738 -0.255879 2.92784 0
M  V30 7298 H 692.252 -0.0408778 1.62349 0
M  V30 7299 H 694.249 -2.70855 3.16928 0
M  V30 7300 H 692.909 -2.55587 2.00263 0
M  V30 7301 H 693.92 -0.605455 5.14349 0
M  V30 7302 H 690.597 -2.47374 3.36322 0
M  V30 7303 H 691.987 -0.216138 6.71552 0
M  V30 7304 N 694.707 -1.5719 -0.113559 0
M  V30 7305 C 695.655 -2.01725 -1.158 0
M  V30 7306 C 696.649 -0.915105 -1.42556 0
M  V30 7307 O 697.855 -1.10031 -1.42454 0
M  V30 7308 H 694.23 -0.64262 -0.390569 0
M  V30 7309 H 696.201 -2.88666 -0.755926 0
M  V30 7310 C 694.95 -2.44203 -2.47507 0
M  V30 7311 H 694.273 -3.28582 -2.27758 0
M  V30 7312 H 695.713 -2.79158 -3.19135 0
M  V30 7313 C 694.172 -1.30785 -3.10478 0
M  V30 7314 O 694.702 -0.626807 -3.9678 0
M  V30 7315 N 692.908 -1.06352 -2.7044 0
M  V30 7316 H 692.455 -1.61913 -2.00355 0
M  V30 7317 H 692.413 -0.306614 -3.12901 0
M  V30 7318 N 696.185 0.383891 -1.52853 0
M  V30 7319 C 697.413 1.1495 -1.7203 0
M  V30 7320 C 697.828 1.83578 -0.440957 0
M  V30 7321 O 697.185 1.72872 0.584925 0
M  V30 7322 C 697.236 2.19368 -2.87333 0
M  V30 7323 O 696.957 1.53536 -4.10315 0
M  V30 7324 C 698.458 3.08616 -3.18231 0
M  V30 7325 H 695.678 0.344445 -0.575846 0
M  V30 7326 H 698.222 0.448397 -1.99524 0
M  V30 7327 H 696.377 2.85105 -2.62286 0
M  V30 7328 H 696.791 2.2296 -4.74752 0
M  V30 7329 H 698.265 3.77902 -4.02361 0
M  V30 7330 H 698.742 3.72409 -2.32826 0
M  V30 7331 H 699.348 2.48518 -3.45136 0
M  V30 7332 N 697.663 1.43903 0.642637 0
M  V30 7333 C 698.888 1.49758 1.43483 0
M  V30 7334 C 699.313 0.119911 1.87717 0
M  V30 7335 O 698.671 -0.888558 1.58033 0
M  V30 7336 C 698.719 2.45744 2.63898 0
M  V30 7337 O 697.823 1.95101 3.63331 0
M  V30 7338 H 697.164 0.506138 0.429791 0
M  V30 7339 H 699.694 1.88923 0.785438 0
M  V30 7340 H 699.704 2.63399 3.11584 0
M  V30 7341 H 698.379 3.45818 2.31046 0
M  V30 7342 H 696.956 1.87158 3.22531 0
M  V30 7343 N 699.141 -0.881989 1.30609 0
M  V30 7344 C 700.39 -1.62878 1.18969 0
M  V30 7345 C 700.703 -1.93946 -0.253859 0
M  V30 7346 O 701.909 -2.67008 -0.491813 0
M  V30 7347 C 700.365 -2.93573 2.0819 0
M  V30 7348 C 699.973 -2.70034 3.57471 0
M  V30 7349 C 701.717 -3.71543 2.0532 0
M  V30 7350 C 699.624 -3.96563 4.38739 0
M  V30 7351 H 698.554 -0.611092 0.441682 0
M  V30 7352 H 701.205 -0.976201 1.55379 0
M  V30 7353 H 699.587 -3.6014 1.64666 0
M  V30 7354 H 700.761 -2.11949 4.09163 0
M  V30 7355 H 699.076 -2.05435 3.62195 0
M  V30 7356 H 701.673 -4.65386 2.63288 0
M  V30 7357 H 702.016 -4.03167 1.03739 0
M  V30 7358 H 702.549 -3.11842 2.46981 0
M  V30 7359 H 699.288 -3.70095 5.41027 0
M  V30 7360 H 698.808 -4.54142 3.9181 0
M  V30 7361 H 700.487 -4.64557 4.50329 0
M  V30 7362 N 700.619 -1.13374 -1.09472 0
M  V30 7363 C 701.859 -0.905422 -1.83252 0
M  V30 7364 C 702.223 0.558396 -1.83701 0
M  V30 7365 O 703.424 0.904254 -2.53134 0
M  V30 7366 C 701.695 -1.47658 -3.25472 0
M  V30 7367 S 703.254 -1.38825 -4.16261 0
M  V30 7368 H 700.072 -0.326371 -0.631667 0
M  V30 7369 H 702.674 -1.44517 -1.31663 0
M  V30 7370 H 701.378 -2.53533 -3.22722 0
M  V30 7371 H 700.909 -0.934756 -3.82133 0
M  V30 7372 H 702.924 -0.366379 -4.94846 0
M  V30 7373 N 702.098 1.27442 -0.927168 0
M  V30 7374 C 703.344 1.94679 -0.568164 0
M  V30 7375 C 703.677 1.72697 0.888219 0
M  V30 7376 O 702.952 1.05573 1.63354 0
M  V30 7377 C 703.235 3.4882 -0.894253 0
M  V30 7378 C 703.088 3.80146 -2.40435 0
M  V30 7379 C 704.407 4.38281 -0.399766 0
M  V30 7380 H 701.526 0.707071 -0.207892 0
M  V30 7381 H 704.168 1.50568 -1.15885 0
M  V30 7382 H 702.318 3.86522 -0.391566 0
M  V30 7383 H 703.99 3.52238 -2.97869 0
M  V30 7384 H 702.233 3.26716 -2.85375 0
M  V30 7385 H 702.904 4.87835 -2.58304 0
M  V30 7386 H 705.38 4.07726 -0.83058 0
M  V30 7387 H 704.256 5.44955 -0.656885 0
M  V30 7388 H 704.517 4.36521 0.700153 0
M  V30 7389 N 703.576 0.692616 1.41565 0
M  V30 7390 C 704.822 0.222664 2.01574 0
M  V30 7391 C 705.155 -1.1737 1.54719 0
M  V30 7392 O 704.43 -1.79161 0.757084 0
M  V30 7393 C 704.713 0.277064 3.59033 0
M  V30 7394 C 704.566 1.71016 4.16021 0
M  V30 7395 C 705.885 -0.36479 4.38586 0
M  V30 7396 H 703.004 0.0823839 0.732381 0
M  V30 7397 H 705.646 0.880778 1.68352 0
M  V30 7398 H 703.796 -0.283288 3.87466 0
M  V30 7399 H 705.468 2.32413 3.98475 0
M  V30 7400 H 703.711 2.24525 3.71175 0
M  V30 7401 H 704.382 1.69978 5.25178 0
M  V30 7402 H 706.858 0.112404 4.15948 0
M  V30 7403 H 705.734 -0.296169 5.481 0
M  V30 7404 H 705.995 -1.44506 4.17816 0
M  V30 7405 N 705.054 -1.51416 0.437162 0
M  V30 7406 C 706.002 -2.29328 -0.388765 0
M  V30 7407 C 706.996 -1.35171 -1.02104 0
M  V30 7408 O 708.202 -1.52513 -0.956024 0
M  V30 7409 H 704.577 -0.738048 -0.144183 0
M  V30 7410 H 706.548 -2.96995 0.289212 0
M  V30 7411 C 705.297 -3.14741 -1.47761 0
M  V30 7412 H 704.62 -3.8708 -1.00045 0
M  V30 7413 H 706.06 -3.72313 -2.02877 0
M  V30 7414 C 704.519 -2.30105 -2.46076 0
M  V30 7415 O 705.049 -1.96055 -3.50607 0
M  V30 7416 N 703.255 -1.93331 -2.1696 0
M  V30 7417 H 702.802 -2.2122 -1.31983 0
M  V30 7418 H 702.76 -1.36999 -2.82982 0
M  V30 7419 N 706.532 -0.168513 -1.56696 0
M  V30 7420 C 707.757 0.486688 -2.01609 0
M  V30 7421 C 708.182 1.56203 -1.04796 0
M  V30 7422 O 707.54 1.8128 -0.0270596 0
M  V30 7423 C 707.588 1.04451 -3.45141 0
M  V30 7424 O 706.692 2.15862 -3.51393 0
M  V30 7425 H 706.033 0.116831 -0.653641 0
M  V30 7426 H 708.563 -0.271579 -2.0279 0
M  V30 7427 H 708.573 1.36782 -3.84389 0
M  V30 7428 H 707.248 0.257155 -4.15104 0
M  V30 7429 H 705.825 1.84597 -3.24004 0
M  V30 7430 N 708.01 1.57248 0.105221 0
M  V30 7431 C 708.96 1.9777 1.1345 0
M  V30 7432 C 709.944 0.854654 1.36325 0
M  V30 7433 O 711.136 1.11844 1.37186 0
M  V30 7434 C 708.265 2.39717 2.45745 0
M  V30 7435 C 707.351 3.58686 2.26286 0
M  V30 7436 N 707.742 4.73942 1.76671 0
M  V30 7437 C 706.04 3.64586 2.56891 0
M  V30 7438 C 706.741 5.55923 1.71245 0
M  V30 7439 N 705.717 4.98803 2.16093 0
M  V30 7440 H 709.519 2.84336 0.743664 0
M  V30 7441 H 707.033 1.59359 0.312787 0
M  V30 7442 H 709.03 2.66971 3.20206 0
M  V30 7443 H 707.69 1.54523 2.85574 0
M  V30 7444 H 708.701 4.9689 1.46016 0
M  V30 7445 H 705.378 2.90031 3.00314 0
M  V30 7446 H 706.768 6.58398 1.34022 0
M  V30 7447 N 709.488 -0.375779 1.53054 0
M  V30 7448 C 710.418 -1.46598 1.81745 0
M  V30 7449 C 711.399 -1.56337 0.670286 0
M  V30 7450 O 712.584 -1.71071 0.919158 0
M  V30 7451 C 709.714 -2.84058 1.99821 0
M  V30 7452 C 708.668 -2.8915 3.15557 0
M  V30 7453 C 707.994 -4.29187 3.18908 0
M  V30 7454 C 709.294 -2.57595 4.54359 0
M  V30 7455 H 710.988 -1.22837 2.73041 0
M  V30 7456 H 708.534 -0.589485 1.31381 0
M  V30 7457 H 710.487 -3.60342 2.18475 0
M  V30 7458 H 709.211 -3.09184 1.05226 0
M  V30 7459 H 707.87 -2.15316 2.96706 0
M  V30 7460 H 707.518 -4.51374 2.2197 0
M  V30 7461 H 707.218 -4.33512 3.96662 0
M  V30 7462 H 708.742 -5.07359 3.39734 0
M  V30 7463 H 710.156 -3.23595 4.73243 0
M  V30 7464 H 708.553 -2.73252 5.34279 0
M  V30 7465 H 709.623 -1.52882 4.60169 0
M  V30 7466 N 710.966 -1.44241 -0.634997 0
M  V30 7467 C 711.929 -1.50457 -1.72903 0
M  V30 7468 C 712.929 -0.387058 -1.56072 0
M  V30 7469 O 714.119 -0.649531 -1.61638 0
M  V30 7470 C 711.251 -1.37477 -3.1195 0
M  V30 7471 H 712.444 -2.47907 -1.68767 0
M  V30 7472 H 709.997 -1.31276 -0.84831 0
M  V30 7473 H 710.732 -0.41106 -3.21684 0
M  V30 7474 H 710.517 -2.18506 -3.25573 0
M  V30 7475 H 712.007 -1.44799 -3.91692 0
M  V30 7476 N 712.444 0.87505 -1.31075 0
M  V30 7477 C 713.407 1.96333 -1.18263 0
M  V30 7478 C 714.407 1.60416 -0.111106 0
M  V30 7479 O 715.597 1.7044 -0.359987 0
M  V30 7480 C 712.729 3.31036 -0.81414 0
M  V30 7481 H 713.922 2.09125 -2.14958 0
M  V30 7482 H 711.475 1.06271 -1.14614 0
M  V30 7483 H 712.21 3.23944 0.151875 0
M  V30 7484 H 711.995 3.58476 -1.58862 0
M  V30 7485 H 713.485 4.10842 -0.748249 0
M  V30 7486 N 713.922 1.13953 1.08869 0
M  V30 7487 C 714.872 0.790812 2.13846 0
M  V30 7488 C 715.856 -0.217819 1.59419 0
M  V30 7489 O 717.048 -0.0208723 1.76988 0
M  V30 7490 C 714.177 0.26479 3.42277 0
M  V30 7491 C 713.263 1.30267 4.03598 0
M  V30 7492 N 713.654 2.50535 4.39393 0
M  V30 7493 C 711.952 1.15178 4.30871 0
M  V30 7494 C 712.653 3.16938 4.87776 0
M  V30 7495 N 711.629 2.44349 4.85587 0
M  V30 7496 H 715.431 1.70577 2.39334 0
M  V30 7497 H 712.945 1.02268 1.26154 0
M  V30 7498 H 714.942 -0.00330398 4.169 0
M  V30 7499 H 713.602 -0.644419 3.18241 0
M  V30 7500 H 714.613 2.87798 4.30572 0
M  V30 7501 H 711.29 0.301204 4.16412 0
M  V30 7502 H 712.68 4.19453 5.2489 0
M  V30 7503 N 715.4 -1.26948 0.933913 0
M  V30 7504 C 716.649 -1.93378 0.573409 0
M  V30 7505 C 716.962 -1.74148 -0.890614 0
M  V30 7506 O 718.168 -2.34971 -1.36017 0
M  V30 7507 C 716.624 -3.46449 0.974747 0
M  V30 7508 C 716.232 -3.74425 2.45988 0
M  V30 7509 C 717.976 -4.18924 0.685791 0
M  V30 7510 C 715.883 -5.209 2.8003 0
M  V30 7511 H 714.813 -0.723952 0.210736 0
M  V30 7512 H 717.464 -1.44143 1.13557 0
M  V30 7513 H 715.846 -3.94528 0.341181 0
M  V30 7514 H 717.02 -3.37079 3.14188 0
M  V30 7515 H 715.335 -3.15167 2.72138 0
M  V30 7516 H 717.932 -5.26786 0.916546 0
M  V30 7517 H 718.275 -4.14587 -0.377217 0
M  V30 7518 H 718.808 -3.76687 1.27874 0
M  V30 7519 H 715.547 -5.30332 3.85264 0
M  V30 7520 H 715.067 -5.59369 2.16485 0
M  V30 7521 H 716.746 -5.88837 2.68105 0
M  V30 7522 N 716.879 -0.700114 -1.41195 0
M  V30 7523 C 717.789 -0.0382854 -2.34569 0
M  V30 7524 C 718.805 0.761036 -1.56474 0
M  V30 7525 O 719.981 0.697553 -1.88934 0
M  V30 7526 C 717.046 0.883522 -3.35253 0
M  V30 7527 C 716.107 0.0758957 -4.29233 0
M  V30 7528 C 715.34 0.9538 -5.25108 0
M  V30 7529 O 715.563 2.19326 -5.26547 0
M  V30 7530 O 714.497 0.401049 -6.00562 0
M  V30 7531 H 718.323 -0.808073 -2.92752 0
M  V30 7532 H 715.908 -0.460479 -1.42127 0
M  V30 7533 H 717.79 1.41199 -3.9704 0
M  V30 7534 H 716.465 1.63272 -2.79506 0
M  V30 7535 H 715.372 -0.497274 -3.7078 0
M  V30 7536 H 716.705 -0.634741 -4.8809 0
M  V30 7537 N 718.357 1.51182 -0.445186 0
M  V30 7538 C 719.267 2.31692 0.368255 0
M  V30 7539 C 720.283 1.40942 1.02036 0
M  V30 7540 O 721.459 1.74011 1.01401 0
M  V30 7541 C 718.524 3.14903 1.45041 0
M  V30 7542 C 717.585 4.21442 0.817615 0
M  V30 7543 C 716.818 5.00677 1.8482 0
M  V30 7544 O 717.041 4.80644 3.07145 0
M  V30 7545 O 715.975 5.84559 1.43438 0
M  V30 7546 H 719.801 3.0232 -0.289219 0
M  V30 7547 H 717.386 1.47951 -0.207555 0
M  V30 7548 H 719.268 3.66612 2.07783 0
M  V30 7549 H 717.943 2.47031 2.09182 0
M  V30 7550 H 716.85 3.73791 0.151931 0
M  V30 7551 H 718.183 4.9171 0.219564 0
M  V30 7552 N 719.835 0.176821 1.56605 0
M  V30 7553 C 721.065 -0.472142 2.01133 0
M  V30 7554 C 721.473 -1.56979 1.05614 0
M  V30 7555 O 720.816 -1.83632 0.0500137 0
M  V30 7556 C 720.878 -1.10547 3.42081 0
M  V30 7557 C 720.542 -0.148806 4.56758 0
M  V30 7558 C 721.539 0.634939 5.16008 0
M  V30 7559 C 719.224 -0.0430325 5.02282 0
M  V30 7560 C 721.218 1.5116 6.19217 0
M  V30 7561 C 718.905 0.83721 6.05338 0
M  V30 7562 C 719.903 1.61311 6.63677 0
M  V30 7563 O 719.591 2.47863 7.64735 0
M  V30 7564 H 719.323 -0.124725 0.664394 0
M  V30 7565 H 721.877 0.277329 2.03519 0
M  V30 7566 H 720.107 -1.90318 3.36625 0
M  V30 7567 H 721.796 -1.6572 3.70529 0
M  V30 7568 H 722.562 0.563424 4.81716 0
M  V30 7569 H 718.441 -0.636753 4.56581 0
M  V30 7570 H 721.985 2.11767 6.64681 0
M  V30 7571 H 717.882 0.909908 6.39055 0
M  V30 7572 H 718.65 2.4144 7.8208 0
M  V30 7573 N 721.313 -1.57302 -0.09688 0
M  V30 7574 C 722.223 -2.05258 -1.13606 0
M  V30 7575 C 723.239 -0.977137 -1.43972 0
M  V30 7576 O 724.415 -1.29018 -1.54649 0
M  V30 7577 C 721.48 -2.46593 -2.43706 0
M  V30 7578 C 720.541 -3.68322 -2.20538 0
M  V30 7579 C 719.774 -4.07676 -3.44435 0
M  V30 7580 O 719.997 -3.47141 -4.52603 0
M  V30 7581 O 718.931 -5.00641 -3.34129 0
M  V30 7582 H 722.757 -2.94069 -0.758752 0
M  V30 7583 H 720.342 -1.46164 -0.309263 0
M  V30 7584 H 722.224 -2.73814 -3.20318 0
M  V30 7585 H 720.899 -1.6092 -2.80867 0
M  V30 7586 H 719.806 -3.4622 -1.41713 0
M  V30 7587 H 721.139 -4.54769 -1.88271 0
M  V30 7588 N 722.791 0.367657 -1.53252 0
M  V30 7589 C 724.207 0.709191 -1.42978 0
M  V30 7590 C 724.407 1.93352 -0.567193 0
M  V30 7591 O 723.463 2.52453 -0.0488349 0
M  V30 7592 C 724.776 0.924338 -2.86141 0
M  V30 7593 C 726.324 1.02448 -2.95759 0
M  V30 7594 C 726.799 1.27211 -4.39979 0
M  V30 7595 N 728.29 1.33986 -4.43398 0
M  V30 7596 C 729.025 1.54852 -5.52095 0
M  V30 7597 N 728.521 1.73049 -6.7084 0
M  V30 7598 N 730.314 1.57205 -5.39669 0
M  V30 7599 H 722.465 -0.437669 -2.07842 0
M  V30 7600 H 724.728 -0.133737 -0.938519 0
M  V30 7601 H 724.434 0.0965455 -3.51567 0
M  V30 7602 H 724.308 1.83302 -3.29667 0
M  V30 7603 H 726.695 1.84282 -2.30487 0
M  V30 7604 H 726.776 0.0932301 -2.5563 0
M  V30 7605 H 726.42 0.458792 -5.05824 0
M  V30 7606 H 726.35 2.21654 -4.77679 0
M  V30 7607 H 728.841 1.21545 -3.5782 0
M  V30 7608 H 729.154 1.88538 -7.49449 0
M  V30 7609 H 727.499 1.70231 -6.7383 0
M  V30 7610 H 730.69 1.42555 -4.45865 0
M  V30 7611 H 730.863 1.73126 -6.24445 0
M  V30 7612 N 724.269 1.44576 0.627338 0
M  V30 7613 C 725.685 1.28546 0.945938 0
M  V30 7614 C 725.885 0.224003 2.00251 0
M  V30 7615 O 724.941 -0.388817 2.49488 0
M  V30 7616 C 726.254 2.65825 1.40561 0
M  V30 7617 C 727.802 2.73566 1.52088 0
M  V30 7618 C 728.277 4.11323 2.01438 0
M  V30 7619 N 729.768 4.13519 2.08702 0
M  V30 7620 C 730.503 5.16964 2.48065 0
M  V30 7621 N 729.999 6.30768 2.86538 0
M  V30 7622 N 731.792 5.04319 2.48232 0
M  V30 7623 H 723.943 2.1228 -0.0713567 0
M  V30 7624 H 726.206 0.947503 0.0307081 0
M  V30 7625 H 725.912 3.44591 0.703539 0
M  V30 7626 H 725.786 2.92969 2.37591 0
M  V30 7627 H 728.173 1.95116 2.21391 0
M  V30 7628 H 728.254 2.50159 0.534237 0
M  V30 7629 H 727.898 4.9025 1.32729 0
M  V30 7630 H 727.828 4.32109 3.0098 0
M  V30 7631 H 730.319 3.31385 1.81638 0
M  V30 7632 H 730.632 7.0551 3.15398 0
M  V30 7633 H 728.977 6.342 2.84281 0
M  V30 7634 H 732.168 4.14465 2.17569 0
M  V30 7635 H 732.341 5.85059 2.78585 0
M  V30 7636 N 725.747 -0.868086 1.31537 0
M  V30 7637 C 726.695 -1.99688 1.1928 0
M  V30 7638 C 727.689 -1.69101 0.100656 0
M  V30 7639 O 728.895 -1.78073 0.262677 0
M  V30 7640 H 725.27 -0.655032 0.369374 0
M  V30 7641 H 727.241 -2.07157 2.14776 0
M  V30 7642 C 725.99 -3.35338 0.918892 0
M  V30 7643 H 725.313 -3.59396 1.75142 0
M  V30 7644 H 726.753 -4.14909 0.873311 0
M  V30 7645 C 725.212 -3.34769 -0.378366 0
M  V30 7646 O 725.742 -3.76716 -1.39456 0
M  V30 7647 N 723.948 -2.87895 -0.39557 0
M  V30 7648 H 723.495 -2.53954 0.431889 0
M  V30 7649 H 723.453 -2.87897 -1.26344 0
M  V30 7650 N 727.225 -1.14528 -1.08264 0
M  V30 7651 C 728.157 -0.791325 -2.15106 0
M  V30 7652 C 729.17 0.192449 -1.61659 0
M  V30 7653 O 730.359 -0.0294704 -1.78476 0
M  V30 7654 C 727.459 -0.154183 -3.38549 0
M  V30 7655 C 726.632 -1.17305 -4.21377 0
M  V30 7656 C 725.691 -0.559401 -5.23218 0
M  V30 7657 O 724.717 -1.22277 -5.55911 0
M  V30 7658 N 725.919 0.663159 -5.767 0
M  V30 7659 H 728.684 -1.71076 -2.46075 0
M  V30 7660 H 726.245 -1.0399 -1.24087 0
M  V30 7661 H 728.237 0.268884 -4.03806 0
M  V30 7662 H 726.807 0.668418 -3.0537 0
M  V30 7663 H 726.027 -1.773 -3.52077 0
M  V30 7664 H 727.315 -1.86128 -4.73533 0
M  V30 7665 H 726.713 1.22066 -5.52373 0
M  V30 7666 H 725.27 1.02871 -6.43631 0
M  V30 7667 N 728.703 1.26451 -0.940633 0
M  V30 7668 C 729.98 1.88947 -0.505811 0
M  V30 7669 C 730.36 1.85011 1.01657 0
M  V30 7670 O 729.708 1.30406 1.87634 0
M  V30 7671 C 729.918 3.32304 -1.06654 0
M  V30 7672 C 731.266 4.09153 -1.13486 0
M  V30 7673 O 732.29 3.41371 -1.01708 0
M  V30 7674 O 731.149 5.30369 -1.31797 0
M  V30 7675 H 728.243 0.810422 -0.164759 0
M  V30 7676 H 730.789 1.34625 -1.03316 0
M  V30 7677 H 729.561 3.29527 -2.11015 0
M  V30 7678 H 729.184 3.94164 -0.521603 0
M  V30 7679 N 730.181 0.707592 1.40822 0
M  V30 7680 C 731.411 0.252706 2.05049 0
M  V30 7681 C 731.819 -1.10758 1.53393 0
M  V30 7682 O 731.162 -1.70567 0.682097 0
M  V30 7683 C 731.224 0.146001 3.59203 0
M  V30 7684 C 730.888 1.44027 4.33711 0
M  V30 7685 C 731.885 2.38058 4.62195 0
M  V30 7686 C 729.57 1.69698 4.72766 0
M  V30 7687 C 731.564 3.56013 5.28709 0
M  V30 7688 C 729.251 2.87936 5.39014 0
M  V30 7689 C 730.249 3.80915 5.66915 0
M  V30 7690 O 729.937 4.9708 6.31796 0
M  V30 7691 H 729.669 0.112784 0.666525 0
M  V30 7692 H 732.223 0.96417 1.81364 0
M  V30 7693 H 730.453 -0.621338 3.81676 0
M  V30 7694 H 732.142 -0.273275 4.04979 0
M  V30 7695 H 732.908 2.19487 4.32493 0
M  V30 7696 H 728.787 0.981835 4.50423 0
M  V30 7697 H 732.331 4.28604 5.50404 0
M  V30 7698 H 728.228 3.06419 5.68135 0
M  V30 7699 H 728.996 4.97053 6.50293 0
M  V30 7700 N 731.66 -1.50943 0.453197 0
M  V30 7701 C 732.607 -2.28128 -0.350197 0
M  V30 7702 C 733.577 -1.32398 -1.00299 0
M  V30 7703 O 734.762 -1.61319 -1.01887 0
M  V30 7704 C 731.902 -3.13782 -1.43649 0
M  V30 7705 C 731.015 -4.24523 -0.800255 0
M  V30 7706 C 730.15 -4.97462 -1.86293 0
M  V30 7707 C 729.189 -6.00102 -1.20598 0
M  V30 7708 N 728.326 -6.66387 -2.21071 0
M  V30 7709 H 733.166 -2.96337 0.31434 0
M  V30 7710 H 730.703 -1.46151 0.166863 0
M  V30 7711 H 732.661 -3.6178 -2.07776 0
M  V30 7712 H 731.291 -2.47655 -2.07044 0
M  V30 7713 H 730.343 -3.80371 -0.0468651 0
M  V30 7714 H 731.655 -4.98009 -0.280777 0
M  V30 7715 H 730.809 -5.49088 -2.58044 0
M  V30 7716 H 729.548 -4.23642 -2.41617 0
M  V30 7717 H 728.553 -5.47753 -0.474 0
M  V30 7718 H 729.778 -6.75887 -0.659859 0
M  V30 7719 H 727.724 -5.9537 -2.75446 0
M  V30 7720 H 727.641 -7.3569 -1.74058 0
M  V30 7721 H 728.909 -7.22638 -2.92257 0
M  V30 7722 N 733.138 -0.185124 -1.56509 0
M  V30 7723 C 734.415 0.503348 -1.89013 0
M  V30 7724 C 734.795 1.80349 -1.09715 0
M  V30 7725 O 734.143 2.27665 -0.195203 0
M  V30 7726 C 734.353 0.731839 -3.41241 0
M  V30 7727 C 735.701 1.05568 -4.11267 0
M  V30 7728 O 736.725 0.819906 -3.46635 0
M  V30 7729 O 735.584 1.50116 -5.25478 0
M  V30 7730 H 732.678 0.261139 -0.784688 0
M  V30 7731 H 735.224 -0.224592 -1.68207 0
M  V30 7732 H 733.996 -0.18672 -3.90854 0
M  V30 7733 H 733.619 1.5126 -3.67704 0
M  V30 7734 N 734.616 1.57351 0.0885366 0
M  V30 7735 C 735.865 1.85604 0.789556 0
M  V30 7736 C 736.178 0.775352 1.79576 0
M  V30 7737 O 737.384 0.945206 2.54515 0
M  V30 7738 C 735.84 3.29175 1.45506 0
M  V30 7739 C 735.448 4.45331 0.488278 0
M  V30 7740 C 737.192 3.66646 2.13942 0
M  V30 7741 C 735.099 5.79937 1.15874 0
M  V30 7742 H 734.029 0.692346 0.298619 0
M  V30 7743 H 736.68 1.83451 0.0425821 0
M  V30 7744 H 735.062 3.25889 2.24972 0
M  V30 7745 H 736.236 4.59977 -0.275359 0
M  V30 7746 H 734.551 4.16301 -0.0907363 0
M  V30 7747 H 737.148 4.64498 2.6485 0
M  V30 7748 H 737.491 2.956 2.93132 0
M  V30 7749 H 738.024 3.71848 1.41328 0
M  V30 7750 H 734.763 6.54232 0.407508 0
M  V30 7751 H 734.283 5.69123 1.89364 0
M  V30 7752 H 735.962 6.24718 1.68336 0
M  V30 7753 N 736.094 -0.359525 1.53444 0
M  V30 7754 C 737.334 -1.11014 1.71625 0
M  V30 7755 C 737.698 -1.86376 0.46132 0
M  V30 7756 O 738.899 -2.63724 0.519908 0
M  V30 7757 C 737.17 -2.03907 2.93524 0
M  V30 7758 S 738.729 -2.86408 3.3244 0
M  V30 7759 H 735.547 -0.375352 0.603847 0
M  V30 7760 H 738.149 -0.390604 1.91558 0
M  V30 7761 H 736.853 -1.47316 3.83048 0
M  V30 7762 H 736.384 -2.80324 2.76011 0
M  V30 7763 H 738.399 -4.06241 2.84926 0
M  V30 7764 N 737.572 -1.44907 -0.619662 0
M  V30 7765 C 738.797 -1.52021 -1.41083 0
M  V30 7766 C 739.222 -0.14976 -1.87503 0
M  V30 7767 O 738.58 0.863303 -1.59426 0
M  V30 7768 C 738.628 -2.49911 -2.59955 0
M  V30 7769 O 737.732 -2.00857 -3.60181 0
M  V30 7770 H 737.073 -0.512912 -0.421684 0
M  V30 7771 H 739.603 -1.90149 -0.755282 0
M  V30 7772 H 739.613 -2.68323 -3.07354 0
M  V30 7773 H 738.288 -3.4945 -2.25516 0
M  V30 7774 H 736.865 -1.92265 -3.19513 0
M  V30 7775 N 739.05 0.861098 -1.31996 0
M  V30 7776 C 740.466 1.14827 -1.10846 0
M  V30 7777 C 740.666 2.0117 0.11528 0
M  V30 7778 O 739.722 2.39423 0.802048 0
M  V30 7779 C 741.035 1.83183 -2.38462 0
M  V30 7780 C 742.583 1.95847 -2.44158 0
M  V30 7781 C 743.058 2.67617 -3.71679 0
M  V30 7782 N 744.549 2.75147 -3.72624 0
M  V30 7783 C 745.284 3.31314 -4.67994 0
M  V30 7784 N 744.78 3.88343 -5.73726 0
M  V30 7785 N 746.573 3.29356 -4.55501 0
M  V30 7786 H 738.724 0.285951 -2.10466 0
M  V30 7787 H 740.987 0.189303 -0.928907 0
M  V30 7788 H 740.693 1.27193 -3.27895 0
M  V30 7789 H 740.567 2.83393 -2.48935 0
M  V30 7790 H 742.954 2.50999 -1.55189 0
M  V30 7791 H 743.035 0.94653 -2.37644 0
M  V30 7792 H 742.679 2.13131 -4.61018 0
M  V30 7793 H 742.609 3.69237 -3.75462 0
M  V30 7794 H 745.1 2.34682 -2.96197 0
M  V30 7795 H 745.413 4.29338 -6.42564 0
M  V30 7796 H 743.758 3.86693 -5.77489 0
M  V30 7797 H 746.949 2.84047 -3.72069 0
M  V30 7798 H 747.122 3.7283 -5.30001 0
M  V30 7799 N 740.528 1.15101 1.07655 0
M  V30 7800 C 741.461 0.788522 2.14144 0
M  V30 7801 C 742.439 -0.233635 1.60913 0
M  V30 7802 O 743.623 -0.120908 1.88112 0
M  V30 7803 C 740.75 0.172033 3.38263 0
M  V30 7804 C 739.796 1.16559 4.10264 0
M  V30 7805 S 740.629 2.70627 4.62084 0
M  V30 7806 C 741.785 2.10389 5.8948 0
M  V30 7807 H 742.018 1.69047 2.44561 0
M  V30 7808 H 739.551 0.973033 1.19881 0
M  V30 7809 H 741.509 -0.177223 4.10117 0
M  V30 7810 H 740.17 -0.707468 3.06029 0
M  V30 7811 H 739.363 0.6824 4.99359 0
M  V30 7812 H 738.965 1.45923 3.44358 0
M  V30 7813 H 741.257 1.46405 6.61492 0
M  V30 7814 H 742.2 2.97639 6.42508 0
M  V30 7815 H 742.608 1.54816 5.42856 0
M  V30 7816 N 742.006 -1.2595 0.947325 0
M  V30 7817 C 742.938 -2.25336 0.41906 0
M  V30 7818 C 743.951 -1.56135 -0.461051 0
M  V30 7819 O 745.14 -1.76438 -0.270505 0
M  V30 7820 C 742.24 -3.36334 -0.416233 0
M  V30 7821 C 741.413 -4.35088 0.449162 0
M  V30 7822 C 740.472 -5.25185 -0.326716 0
M  V30 7823 O 739.498 -5.68548 0.272374 0
M  V30 7824 N 740.7 -5.57388 -1.6217 0
M  V30 7825 H 743.465 -2.71298 1.27348 0
M  V30 7826 H 741.026 -1.39781 0.81688 0
M  V30 7827 H 743.018 -3.93564 -0.942826 0
M  V30 7828 H 741.588 -2.89819 -1.17148 0
M  V30 7829 H 740.808 -3.76841 1.15692 0
M  V30 7830 H 742.096 -4.98056 1.04008 0
M  V30 7831 H 741.494 -5.2405 -2.13046 0
M  V30 7832 H 740.051 -6.17234 -2.0944 0
M  V30 7833 N 743.484 -0.715051 -1.40445 0
M  V30 7834 C 744.731 -0.254328 -2.00897 0
M  V30 7835 C 745.059 1.15228 -1.56693 0
M  V30 7836 O 744.314 1.7958 -0.777786 0
M  V30 7837 C 744.613 -0.281791 -3.56287 0
M  V30 7838 C 744.279 -1.63862 -4.20071 0
M  V30 7839 C 742.941 -2.01003 -4.37208 0
M  V30 7840 C 745.293 -2.53039 -4.55654 0
M  V30 7841 C 742.621 -3.26869 -4.8721 0
M  V30 7842 C 744.973 -3.78256 -5.07055 0
M  V30 7843 C 743.637 -4.15515 -5.22401 0
M  V30 7844 H 742.907 -0.0930652 -0.735133 0
M  V30 7845 H 745.554 -0.917977 -1.68064 0
M  V30 7846 H 743.859 0.465428 -3.89026 0
M  V30 7847 H 745.556 0.0925158 -4.00893 0
M  V30 7848 H 742.146 -1.33979 -4.07121 0
M  V30 7849 H 746.33 -2.2562 -4.42051 0
M  V30 7850 H 741.586 -3.55706 -4.97276 0
M  V30 7851 H 745.76 -4.47528 -5.33565 0
M  V30 7852 H 743.387 -5.13114 -5.60909 0
M  V30 7853 N 744.962 1.50701 -0.461195 0
M  V30 7854 C 746.202 2.04174 0.0960673 0
M  V30 7855 C 746.566 1.33628 1.37868 0
M  V30 7856 O 747.767 1.77602 2.0177 0
M  V30 7857 C 746.038 3.56256 0.285676 0
M  V30 7858 S 747.597 4.31392 0.802917 0
M  V30 7859 H 744.415 0.710701 0.0206282 0
M  V30 7860 H 747.017 1.85204 -0.62607 0
M  V30 7861 H 745.721 4.05159 -0.653773 0
M  V30 7862 H 745.252 3.79562 1.03421 0
M  V30 7863 H 747.267 4.50611 2.07761 0
M  V30 7864 N 746.441 0.193421 1.56409 0
M  V30 7865 C 747.373 -0.759944 2.16235 0
M  V30 7866 C 748.386 -1.17797 1.12373 0
M  V30 7867 O 749.575 -1.11399 1.39472 0
M  V30 7868 C 746.675 -2.03735 2.70823 0
M  V30 7869 C 745.848 -1.77939 3.9957 0
M  V30 7870 C 744.907 -2.90111 4.39001 0
M  V30 7871 O 743.933 -2.59791 5.06456 0
M  V30 7872 N 745.135 -4.18426 4.02368 0
M  V30 7873 H 747.9 -0.248348 2.98669 0
M  V30 7874 H 745.461 0.0113966 1.61896 0
M  V30 7875 H 747.453 -2.77914 2.94187 0
M  V30 7876 H 746.023 -2.46022 1.92852 0
M  V30 7877 H 745.243 -0.875491 3.84355 0
M  V30 7878 H 746.531 -1.58099 4.83614 0
M  V30 7879 H 745.929 -4.45913 3.48106 0
M  V30 7880 H 744.486 -4.89237 4.30686 0
M  V30 7881 N 747.919 -1.57396 -0.0801906 0
M  V30 7882 C 749.33 -1.75642 -0.633002 0
M  V30 7883 C 749.681 -0.817708 -1.78348 0
M  V30 7884 O 748.806 0.000233743 -2.164 0
M  V30 7885 C 749.401 -3.18502 -1.15507 0
M  V30 7886 C 747.96 -3.38121 -1.65381 0
M  V30 7887 C 747.107 -2.71386 -0.569661 0
M  V30 7888 H 750.058 -1.58027 0.145949 0
M  V30 7889 H 750.079 -3.22198 -2.02408 0
M  V30 7890 H 749.591 -3.86799 -0.317515 0
M  V30 7891 H 747.692 -2.74926 -2.51488 0
M  V30 7892 H 747.805 -4.46521 -1.73654 0
M  V30 7893 H 746.169 -2.33702 -1.0127 0
M  V30 7894 H 746.952 -3.42332 0.257561 0
M  V30 7895 N 749.397 0.351382 -1.53633 0
M  V30 7896 C 750.674 1.10903 -1.6112 0
M  V30 7897 C 751.054 2.06725 -0.427556 0
M  V30 7898 O 750.402 2.20992 0.580916 0
M  V30 7899 C 750.612 1.83561 -2.96827 0
M  V30 7900 C 751.96 2.37587 -3.51906 0
M  V30 7901 O 752.984 1.93669 -2.9895 0
M  V30 7902 O 751.843 3.17913 -4.44515 0
M  V30 7903 H 748.937 0.509558 -0.651368 0
M  V30 7904 H 751.483 0.353504 -1.65977 0
M  V30 7905 H 750.255 1.1371 -3.74414 0
M  V30 7906 H 749.878 2.6599 -2.95525 0
M  V30 7907 N 750.875 1.45233 0.611969 0
M  V30 7908 C 752.286 1.4354 1.19387 0
M  V30 7909 C 752.637 0.160713 1.95541 0
M  V30 7910 O 751.762 -0.737954 2.03429 0
M  V30 7911 C 752.357 2.60045 2.17169 0
M  V30 7912 C 750.916 2.61486 2.70744 0
M  V30 7913 C 750.063 2.35708 1.46072 0
M  V30 7914 H 753.014 1.53536 0.401529 0
M  V30 7915 H 753.035 2.33893 3.00124 0
M  V30 7916 H 752.547 3.52803 1.61714 0
M  V30 7917 H 750.648 1.72721 3.30149 0
M  V30 7918 H 750.761 3.60572 3.15476 0
M  V30 7919 H 749.125 1.85178 1.74875 0
M  V30 7920 H 749.908 3.30606 0.924922 0
M  V30 7921 N 752.353 -0.854086 1.3245 0
M  V30 7922 C 753.578 -1.64597 1.26185 0
M  V30 7923 C 754.003 -1.87357 -0.167074 0
M  V30 7924 O 753.361 -1.42675 -1.11864 0
M  V30 7925 C 753.409 -2.98213 2.02734 0
M  V30 7926 O 752.513 -3.88784 1.37554 0
M  V30 7927 H 751.854 -0.50179 0.434859 0
M  V30 7928 H 754.384 -1.06372 1.74775 0
M  V30 7929 H 754.394 -3.4803 2.1293 0
M  V30 7930 H 753.069 -2.80969 3.06642 0
M  V30 7931 H 751.646 -3.4725 1.3591 0
M  V30 7932 N 753.831 -1.1567 -1.07043 0
M  V30 7933 C 754.761 -0.879348 -2.16309 0
M  V30 7934 C 755.742 0.171311 -1.69235 0
M  V30 7935 O 756.927 0.0250175 -1.94184 0
M  V30 7936 C 754.057 -0.371307 -3.45309 0
M  V30 7937 C 753.011 -1.359 -4.05851 0
M  V30 7938 C 752.337 -0.709678 -5.29969 0
M  V30 7939 C 753.637 -2.72606 -4.45514 0
M  V30 7940 H 755.331 -1.79308 -2.39768 0
M  V30 7941 H 752.877 -0.863558 -1.15233 0
M  V30 7942 H 754.83 -0.164798 -4.21078 0
M  V30 7943 H 753.554 0.577906 -3.21446 0
M  V30 7944 H 752.213 -1.55193 -3.32131 0
M  V30 7945 H 751.861 0.245782 -5.02399 0
M  V30 7946 H 751.561 -1.36886 -5.71433 0
M  V30 7947 H 753.085 -0.513015 -6.08441 0
M  V30 7948 H 754.499 -2.57141 -5.12398 0
M  V30 7949 H 752.896 -3.34927 -4.97939 0
M  V30 7950 H 753.966 -3.28434 -3.56734 0
M  V30 7951 N 755.309 1.25446 -0.953992 0
M  V30 7952 C 756.72 1.75047 -0.649255 0
M  V30 7953 C 757.071 1.77527 0.835385 0
M  V30 7954 O 756.196 1.39569 1.65377 0
M  V30 7955 C 756.791 3.17889 -1.17183 0
M  V30 7956 C 755.35 3.65052 -0.917267 0
M  V30 7957 C 754.497 2.44124 -1.31525 0
M  V30 7958 H 757.448 1.11342 -1.13087 0
M  V30 7959 H 757.469 3.76768 -0.531616 0
M  V30 7960 H 756.981 3.16052 -2.25239 0
M  V30 7961 H 755.082 3.72305 0.148354 0
M  V30 7962 H 755.195 4.53222 -1.55328 0
M  V30 7963 H 753.559 2.43906 -0.733624 0
M  V30 7964 H 754.342 2.44979 -2.405 0
M  V30 7965 N 756.787 0.722489 1.40064 0
M  V30 7966 C 758.198 0.336507 1.83642 0
M  V30 7967 C 758.549 -1.13002 1.6039 0
M  V30 7968 O 757.674 -1.87036 1.08842 0
M  V30 7969 C 758.269 0.603985 3.33373 0
M  V30 7970 C 756.828 0.271637 3.75419 0
M  V30 7971 C 755.975 0.872898 2.63203 0
M  V30 7972 H 758.926 0.921108 1.29233 0
M  V30 7973 H 758.947 -0.128471 3.80283 0
M  V30 7974 H 758.459 1.67141 3.50265 0
M  V30 7975 H 756.56 -0.790455 3.64119 0
M  V30 7976 H 756.673 0.745457 4.73265 0
M  V30 7977 H 755.037 0.300431 2.52922 0
M  V30 7978 H 755.82 1.94473 2.82905 0
M  V30 7979 N 758.265 -1.50454 0.469181 0
M  V30 7980 C 759.195 -2.31353 -0.31592 0
M  V30 7981 C 760.176 -1.38172 -0.992094 0
M  V30 7982 O 761.361 -1.67093 -0.989633 0
M  V30 7983 C 758.491 -3.1786 -1.39937 0
M  V30 7984 C 757.445 -4.19578 -0.844909 0
M  V30 7985 C 756.771 -4.9481 -2.0265 0
M  V30 7986 C 758.071 -5.22106 0.142499 0
M  V30 7987 H 759.765 -2.97237 0.359269 0
M  V30 7988 H 757.311 -1.42942 0.174224 0
M  V30 7989 H 759.264 -3.7325 -1.95607 0
M  V30 7990 H 757.988 -2.49858 -2.1033 0
M  V30 7991 H 756.647 -3.65285 -0.310189 0
M  V30 7992 H 756.295 -4.23282 -2.71737 0
M  V30 7993 H 755.995 -5.63613 -1.66174 0
M  V30 7994 H 757.519 -5.53035 -2.58815 0
M  V30 7995 H 758.933 -5.72378 -0.324966 0
M  V30 7996 H 757.33 -5.98618 0.421441 0
M  V30 7997 H 758.4 -4.7297 1.06901 0
M  V30 7998 N 759.743 -0.201713 -1.56304 0
M  V30 7999 C 760.971 0.440723 -2.02152 0
M  V30 8000 C 761.386 1.54735 -1.08179 0
M  V30 8001 O 760.743 1.82289 -0.0878196 0
M  V30 8002 C 760.794 0.990884 -3.47655 0
M  V30 8003 O 760.515 -0.0715937 -4.38041 0
M  V30 8004 C 762.016 1.70854 -4.09052 0
M  V30 8005 H 759.236 0.109987 -0.661924 0
M  V30 8006 H 761.78 -0.312358 -2.021 0
M  V30 8007 H 759.935 1.69432 -3.48384 0
M  V30 8008 H 760.349 0.338892 -5.23404 0
M  V30 8009 H 761.823 2.04572 -5.12693 0
M  V30 8010 H 762.3 2.61462 -3.52894 0
M  V30 8011 H 762.906 1.0508 -4.12114 0
M  V30 8012 N 761.222 1.57436 0.0718424 0
M  V30 8013 C 762.471 1.86431 0.769826 0
M  V30 8014 C 762.784 0.794355 1.78744 0
M  V30 8015 O 763.99 0.972148 2.53499 0
M  V30 8016 C 762.446 3.307 1.42006 0
M  V30 8017 C 762.054 4.45824 0.441017 0
M  V30 8018 C 763.798 3.68894 2.10041 0
M  V30 8019 C 761.705 5.81134 1.09717 0
M  V30 8020 H 760.635 0.695474 0.291259 0
M  V30 8021 H 763.286 1.83485 0.0231224 0
M  V30 8022 H 761.668 3.28257 2.21502 0
M  V30 8023 H 762.842 4.59659 -0.32413 0
M  V30 8024 H 761.157 4.16181 -0.134886 0
M  V30 8025 H 763.754 4.67281 2.59908 0
M  V30 8026 H 764.097 2.98692 2.89981 0
M  V30 8027 H 764.63 3.73326 1.37376 0
M  V30 8028 H 761.369 6.54628 0.338095 0
M  V30 8029 H 760.889 5.711 1.83317 0
M  V30 8030 H 762.568 6.26468 1.617 0
M  V30 8031 N 762.7 -0.34323 1.53817 0
M  V30 8032 C 763.925 -1.1079 1.75329 0
M  V30 8033 C 764.35 -1.81571 0.491293 0
M  V30 8034 O 763.708 -1.72561 -0.556089 0
M  V30 8035 C 763.756 -2.09681 2.9337 0
M  V30 8036 O 762.86 -3.17207 2.63541 0
M  V30 8037 H 762.201 -0.320402 0.581583 0
M  V30 8038 H 764.731 -0.393525 2.0078 0
M  V30 8039 H 764.741 -2.52897 3.20168 0
M  V30 8040 H 763.416 -1.5756 3.84899 0
M  V30 8041 H 761.993 -2.78806 2.47632 0
M  V30 8042 N 764.178 -1.45556 -0.604258 0
M  V30 8043 C 765.126 -1.5482 -1.7359 0
M  V30 8044 C 766.12 -0.417966 -1.64163 0
M  V30 8045 O 767.326 -0.594007 -1.69916 0
M  V30 8046 H 763.701 -0.486352 -0.573556 0
M  V30 8047 H 765.672 -2.5001 -1.62903 0
M  V30 8048 C 764.421 -1.53521 -3.11972 0
M  V30 8049 H 763.744 -2.39818 -3.19886 0
M  V30 8050 H 765.184 -1.64061 -3.90973 0
M  V30 8051 C 763.643 -0.260191 -3.35894 0
M  V30 8052 O 764.173 0.658582 -3.96265 0
M  V30 8053 N 762.379 -0.154839 -2.90187 0
M  V30 8054 H 761.926 -0.903378 -2.4124 0
M  V30 8055 H 761.884 0.697437 -3.06567 0
M  V30 8056 N 765.656 0.84705 -1.32902 0
M  V30 8057 C 766.606 1.94451 -1.19049 0
M  V30 8058 C 767.59 1.60617 -0.095461 0
M  V30 8059 O 768.782 1.74033 -0.322739 0
M  V30 8060 C 765.911 3.30645 -0.923509 0
M  V30 8061 C 764.997 3.70675 -2.0606 0
M  V30 8062 N 765.388 3.82468 -3.30986 0
M  V30 8063 C 763.686 4.00357 -1.96547 0
M  V30 8064 C 764.387 4.17056 -4.05511 0
M  V30 8065 N 763.363 4.28985 -3.33876 0
M  V30 8066 H 767.165 2.01713 -2.1375 0
M  V30 8067 H 764.679 1.03928 -1.24791 0
M  V30 8068 H 766.676 4.0905 -0.805212 0
M  V30 8069 H 765.336 3.24697 0.0150523 0
M  V30 8070 H 766.347 3.66589 -3.65832 0
M  V30 8071 H 763.024 4.02666 -1.10299 0
M  V30 8072 H 764.414 4.33585 -5.13277 0
M  V30 8073 N 767.134 1.16236 1.06428 0
M  V30 8074 C 768.411 0.853294 1.76006 0
M  V30 8075 C 768.791 -0.649162 2.00871 0
M  V30 8076 O 768.139 -1.59653 1.63472 0
M  V30 8077 C 768.349 1.67448 3.06206 0
M  V30 8078 C 769.697 1.8866 3.80385 0
M  V30 8079 O 770.721 1.64303 3.16043 0
M  V30 8080 O 769.58 2.29518 4.95968 0
M  V30 8081 H 766.674 0.314737 0.764767 0
M  V30 8082 H 769.22 1.26865 1.12709 0
M  V30 8083 H 767.992 2.69411 2.83784 0
M  V30 8084 H 767.615 1.25608 3.77238 0
M  V30 8085 N 768.612 -1.24939 0.960631 0
M  V30 8086 C 769.858 -1.93104 0.61958 0
M  V30 8087 C 770.191 -1.74991 -0.84212 0
M  V30 8088 O 769.466 -1.09867 -1.60498 0
M  V30 8089 C 769.749 -3.46326 0.986422 0
M  V30 8090 C 769.602 -3.73638 2.50429 0
M  V30 8091 C 770.921 -4.37067 0.515827 0
M  V30 8092 H 768.04 -0.701311 0.226566 0
M  V30 8093 H 770.682 -1.47442 1.19836 0
M  V30 8094 H 768.832 -3.85348 0.493907 0
M  V30 8095 H 770.504 -3.44217 3.07103 0
M  V30 8096 H 768.747 -3.19035 2.93937 0
M  V30 8097 H 769.418 -4.80815 2.71147 0
M  V30 8098 H 771.894 -4.05381 0.938389 0
M  V30 8099 H 770.77 -5.43022 0.80114 0
M  V30 8100 H 771.031 -4.38224 -0.584171 0
M  V30 8101 N 770.09 -0.729906 -1.39679 0
M  V30 8102 C 771.339 -0.272534 -1.9985 0
M  V30 8103 C 771.652 1.14519 -1.58571 0
M  V30 8104 O 772.858 1.70182 -2.11543 0
M  V30 8105 C 771.314 -0.436322 -3.57245 0
M  V30 8106 C 770.922 -1.86161 -4.0749 0
M  V30 8107 C 772.666 -0.0404679 -4.24481 0
M  V30 8108 C 770.573 -1.97522 -5.5744 0
M  V30 8109 H 769.503 -0.0981428 -0.747585 0
M  V30 8110 H 772.154 -0.903056 -1.59741 0
M  V30 8111 H 770.536 0.263015 -3.95126 0
M  V30 8112 H 771.71 -2.59248 -3.80955 0
M  V30 8113 H 770.025 -2.21021 -3.529 0
M  V30 8114 H 772.622 -0.104437 -5.34598 0
M  V30 8115 H 772.965 1.00357 -4.04023 0
M  V30 8116 H 773.498 -0.690774 -3.91757 0
M  V30 8117 H 770.237 -3.00096 -5.82771 0
M  V30 8118 H 769.757 -1.28864 -5.85794 0
M  V30 8119 H 771.436 -1.754 -6.22771 0
M  V30 8120 N 771.568 1.50203 -0.477153 0
M  V30 8121 C 772.498 2.31517 0.303646 0
M  V30 8122 C 773.479 1.38696 0.984753 0
M  V30 8123 O 774.664 1.67615 0.980758 0
M  V30 8124 C 771.794 3.18598 1.38249 0
M  V30 8125 C 770.748 4.2002 0.822645 0
M  V30 8126 C 770.074 4.95878 2.00024 0
M  V30 8127 C 771.374 5.22023 -0.170185 0
M  V30 8128 H 773.068 2.97042 -0.375027 0
M  V30 8129 H 770.614 1.42848 -0.181802 0
M  V30 8130 H 772.567 3.74282 1.93625 0
M  V30 8131 H 771.291 2.5097 2.09002 0
M  V30 8132 H 769.95 3.65445 0.290813 0
M  V30 8133 H 769.598 4.24717 2.69489 0
M  V30 8134 H 769.298 5.64487 1.63183 0
M  V30 8135 H 770.822 5.54399 2.55878 0
M  V30 8136 H 772.236 5.72543 0.294606 0
M  V30 8137 H 770.633 5.98386 -0.453181 0
M  V30 8138 H 771.703 4.72396 -1.09408 0
M  V30 8139 N 773.046 0.209999 1.56195 0
M  V30 8140 C 774.292 -0.418742 1.99043 0
M  V30 8141 C 774.647 -1.58201 1.095 0
M  V30 8142 O 773.94 -1.91069 0.1425 0
M  V30 8143 C 774.134 -0.91312 3.45539 0
M  V30 8144 C 773.963 0.200706 4.49252 0
M  V30 8145 C 772.733 0.663287 5.00928 0
M  V30 8146 C 774.931 1.01493 5.04186 0
M  V30 8147 N 772.913 1.75338 5.88328 0
M  V30 8148 C 774.284 1.95411 5.884 0
M  V30 8149 C 776.339 1.05567 4.8658 0
M  V30 8150 C 775.042 2.93069 6.56889 0
M  V30 8151 C 777.068 2.02037 5.55819 0
M  V30 8152 C 776.43 2.94697 6.39791 0
M  V30 8153 H 772.529 -0.120226 0.772703 0
M  V30 8154 H 775.113 0.319119 1.92067 0
M  V30 8155 H 773.284 -1.62038 3.52985 0
M  V30 8156 H 775.016 -1.51371 3.75325 0
M  V30 8157 H 771.771 0.253945 4.72919 0
M  V30 8158 H 772.195 2.30007 6.3673 0
M  V30 8159 H 776.837 0.353242 4.21322 0
M  V30 8160 H 774.555 3.6428 7.21336 0
M  V30 8161 H 778.141 2.05849 5.44167 0
M  V30 8162 H 777.021 3.68128 6.92425 0
M  V30 8163 N 774.524 -1.57472 -0.0634922 0
M  V30 8164 C 775.454 -2.07297 -1.07473 0
M  V30 8165 C 776.435 -0.968162 -1.39859 0
M  V30 8166 O 777.62 -1.24139 -1.49343 0
M  V30 8167 C 774.75 -2.52381 -2.38581 0
M  V30 8168 C 773.704 -3.66813 -2.20526 0
M  V30 8169 C 773.03 -3.97982 -3.57092 0
M  V30 8170 C 774.33 -4.96553 -1.61965 0
M  V30 8171 H 776.024 -2.92033 -0.660092 0
M  V30 8172 H 773.57 -1.40488 -0.316074 0
M  V30 8173 H 775.523 -2.85852 -3.09624 0
M  V30 8174 H 774.247 -1.64684 -2.8204 0
M  V30 8175 H 772.906 -3.33639 -1.51924 0
M  V30 8176 H 772.554 -3.07403 -3.98136 0
M  V30 8177 H 772.254 -4.7504 -3.45848 0
M  V30 8178 H 773.778 -4.33956 -4.29552 0
M  V30 8179 H 775.192 -5.28201 -2.22883 0
M  V30 8180 H 773.589 -5.7799 -1.61394 0
M  V30 8181 H 774.659 -4.81396 -0.581918 0
M  V30 8182 N 776.003 0.335068 -1.53997 0
M  V30 8183 C 777.251 1.07223 -1.71312 0
M  V30 8184 C 777.572 1.88911 -0.483486 0
M  V30 8185 O 776.842 1.89344 0.50257 0
M  V30 8186 H 775.422 0.398846 -0.63161 0
M  V30 8187 H 778.084 0.374288 -1.91272 0
M  V30 8188 H 777.18 1.7448 -2.58772 0
M  V30 8189 N 777.481 1.45874 0.596531 0
M  V30 8190 C 778.758 1.40942 1.35627 0
M  V30 8191 C 779.138 0.0857066 2.10926 0
M  V30 8192 O 778.486 -0.932544 2.08605 0
M  V30 8193 C 778.696 2.63027 2.29386 0
M  V30 8194 C 780.044 3.08588 2.91649 0
M  V30 8195 O 781.068 2.63478 2.39704 0
M  V30 8196 O 779.927 3.86902 3.85965 0
M  V30 8197 H 777.021 0.559838 0.608696 0
M  V30 8198 H 779.567 1.5802 0.618698 0
M  V30 8199 H 778.339 3.5094 1.7308 0
M  V30 8200 H 777.962 2.48338 3.10506 0
M  V30 8201 N 778.959 -0.83999 1.33349 0
M  V30 8202 C 779.889 -1.965 1.26135 0
M  V30 8203 C 780.87 -1.69505 0.142152 0
M  V30 8204 O 782.055 -1.91346 0.331743 0
M  V30 8205 C 779.185 -3.32632 0.99866 0
M  V30 8206 C 778.139 -3.74021 2.08068 0
M  V30 8207 C 777.465 -5.07947 1.67014 0
M  V30 8208 C 778.765 -3.87925 3.49731 0
M  V30 8209 H 780.459 -2.02793 2.20262 0
M  V30 8210 H 778.005 -0.974297 1.06035 0
M  V30 8211 H 779.958 -4.10903 0.934696 0
M  V30 8212 H 778.682 -3.26593 0.0217759 0
M  V30 8213 H 777.341 -2.98012 2.13505 0
M  V30 8214 H 776.989 -4.98378 0.680316 0
M  V30 8215 H 776.689 -5.36611 2.39422 0
M  V30 8216 H 778.213 -5.88695 1.62082 0
M  V30 8217 H 779.627 -4.5651 3.46802 0
M  V30 8218 H 778.024 -4.28023 4.20614 0
M  V30 8219 H 779.094 -2.90407 3.88319 0
M  V30 8220 N 780.437 -1.16799 -1.0581 0
M  V30 8221 C 781.385 -0.875111 -2.1551 0
M  V30 8222 C 782.379 0.157781 -1.68664 0
M  V30 8223 O 783.585 0.011297 -1.79996 0
M  V30 8224 H 779.96 -0.26542 -0.703602 0
M  V30 8225 H 781.931 -1.8076 -2.37421 0
M  V30 8226 C 780.68 -0.39802 -3.45414 0
M  V30 8227 H 780.003 -1.18425 -3.81858 0
M  V30 8228 H 781.443 -0.231913 -4.23365 0
M  V30 8229 C 779.902 0.88327 -3.25115 0
M  V30 8230 O 780.432 1.95145 -3.51114 0
M  V30 8231 N 778.638 0.828961 -2.78526 0
M  V30 8232 H 778.185 -0.0405029 -2.57568 0
M  V30 8233 H 778.143 1.68673 -2.65324 0
M  V30 8234 N 781.915 1.24427 -0.967243 0
M  V30 8235 C 783.145 1.96256 -0.64554 0
M  V30 8236 C 783.553 1.71959 0.789098 0
M  V30 8237 O 782.896 0.999913 1.54102 0
M  V30 8238 C 782.958 3.49553 -0.839798 0
M  V30 8239 C 782.622 3.97548 -2.25399 0
M  V30 8240 C 783.619 4.07257 -3.23168 0
M  V30 8241 C 781.304 4.30884 -2.58156 0
M  V30 8242 C 783.298 4.49635 -4.51782 0
M  V30 8243 C 780.985 4.72946 -3.86996 0
M  V30 8244 C 781.983 4.82286 -4.83621 0
M  V30 8245 O 781.671 5.23409 -6.10162 0
M  V30 8246 H 781.403 0.632002 -0.239895 0
M  V30 8247 H 783.957 1.59224 -1.29757 0
M  V30 8248 H 782.187 3.86479 -0.130603 0
M  V30 8249 H 783.876 4.02591 -0.517249 0
M  V30 8250 H 784.642 3.8172 -2.9919 0
M  V30 8251 H 780.521 4.22833 -1.83666 0
M  V30 8252 H 784.065 4.5684 -5.27203 0
M  V30 8253 H 779.962 4.9793 -4.10775 0
M  V30 8254 H 780.73 5.4156 -6.13722 0
M  V30 8255 N 783.393 0.737304 1.3929 0
M  V30 8256 C 784.809 0.413132 1.5416 0
M  V30 8257 C 785.009 -1.07574 1.70382 0
M  V30 8258 O 784.065 -1.86185 1.70562 0
M  V30 8259 C 785.378 1.19817 2.75798 0
M  V30 8260 C 786.926 1.18662 2.89635 0
M  V30 8261 C 787.401 1.95427 4.14213 0
M  V30 8262 N 788.892 1.92605 4.21257 0
M  V30 8263 C 789.627 2.48808 5.16606 0
M  V30 8264 N 789.123 3.13659 6.1773 0
M  V30 8265 N 790.916 2.38829 5.08839 0
M  V30 8266 H 783.067 1.70243 1.27008 0
M  V30 8267 H 785.33 0.720802 0.61575 0
M  V30 8268 H 785.036 2.25179 2.70161 0
M  V30 8269 H 784.91 0.804144 3.68529 0
M  V30 8270 H 787.297 0.141112 2.94762 0
M  V30 8271 H 787.378 1.62003 1.97961 0
M  V30 8272 H 787.022 2.9998 4.09847 0
M  V30 8273 H 786.952 1.4949 5.04936 0
M  V30 8274 H 789.443 1.45362 3.48824 0
M  V30 8275 H 789.756 3.54006 6.8695 0
M  V30 8276 H 788.101 3.17749 6.1811 0
M  V30 8277 H 791.292 1.87806 4.28773 0
M  V30 8278 H 791.465 2.82929 5.82971 0
M  V30 8279 N 784.871 -1.49948 0.485112 0
M  V30 8280 C 786.12 -2.01589 -0.066765 0
M  V30 8281 C 786.433 -1.371 -1.39509 0
M  V30 8282 O 787.639 -1.79978 -2.03274 0
M  V30 8283 C 786.095 -3.59501 -0.169476 0
M  V30 8284 C 785.703 -4.32955 1.15126 0
M  V30 8285 C 787.447 -4.19138 -0.672564 0
M  V30 8286 C 785.354 -5.82684 1.01158 0
M  V30 8287 H 784.284 -0.753453 -0.0287259 0
M  V30 8288 H 786.935 -1.72632 0.622132 0
M  V30 8289 H 785.317 -3.85106 -0.922471 0
M  V30 8290 H 786.491 -4.19064 1.9163 0
M  V30 8291 H 784.806 -3.84991 1.58654 0
M  V30 8292 H 787.403 -5.28767 -0.794325 0
M  V30 8293 H 787.746 -3.81447 -1.66745 0
M  V30 8294 H 788.279 -3.97793 0.0234415 0
M  V30 8295 H 785.018 -6.24873 1.98025 0
M  V30 8296 H 784.538 -5.99112 0.287151 0
M  V30 8297 H 786.217 -6.43376 0.683847 0
M  V30 8298 N 786.349 -0.21828 -1.56081 0
M  V30 8299 C 787.259 0.704602 -2.23769 0
M  V30 8300 C 788.275 1.21633 -1.24425 0
M  V30 8301 O 789.451 1.25862 -1.57228 0
M  V30 8302 C 786.516 1.89725 -2.90182 0
M  V30 8303 C 785.577 1.42782 -4.0486 0
M  V30 8304 C 784.81 2.56361 -4.68097 0
M  V30 8305 O 785.033 3.74417 -4.30312 0
M  V30 8306 O 783.967 2.2775 -5.57148 0
M  V30 8307 H 787.793 0.158007 -3.03289 0
M  V30 8308 H 785.378 0.0120279 -1.49395 0
M  V30 8309 H 787.26 2.59382 -3.32113 0
M  V30 8310 H 785.935 2.432 -2.13624 0
M  V30 8311 H 784.842 0.699359 -3.67505 0
M  V30 8312 H 786.175 0.939474 -4.83151 0
M  V30 8313 N 787.827 1.57504 0.0551401 0
M  V30 8314 C 788.737 2.08198 1.08124 0
M  V30 8315 C 789.753 1.01496 1.41331 0
M  V30 8316 O 790.929 1.33073 1.51174 0
M  V30 8317 C 787.994 2.52968 2.37083 0
M  V30 8318 C 787.055 3.7404 2.10696 0
M  V30 8319 C 786.288 4.16665 3.33505 0
M  V30 8320 O 786.511 3.59019 4.4324 0
M  V30 8321 O 785.445 5.09324 3.20737 0
M  V30 8322 H 789.271 2.95977 0.680518 0
M  V30 8323 H 786.856 1.46933 0.270401 0
M  V30 8324 H 788.738 2.82211 3.12946 0
M  V30 8325 H 787.413 1.6831 2.76502 0
M  V30 8326 H 786.32 3.49855 1.32484 0
M  V30 8327 H 787.653 4.59601 1.76148 0
M  V30 8328 N 789.305 -0.326896 1.54172 0
M  V30 8329 C 790.235 -1.40741 1.86317 0
M  V30 8330 C 791.216 -1.54125 0.719684 0
M  V30 8331 O 792.401 -1.6806 0.973117 0
M  V30 8332 C 789.531 -2.77557 2.08757 0
M  V30 8333 C 788.485 -2.78965 3.24596 0
M  V30 8334 C 787.811 -4.18824 3.32401 0
M  V30 8335 C 789.111 -2.4301 4.62324 0
M  V30 8336 H 790.805 -1.14088 2.76811 0
M  V30 8337 H 788.351 -0.547389 1.3319 0
M  V30 8338 H 790.304 -3.53209 2.29829 0
M  V30 8339 H 789.028 -3.0568 1.15009 0
M  V30 8340 H 787.687 -2.05767 3.03406 0
M  V30 8341 H 787.335 -4.44083 2.36218 0
M  V30 8342 H 787.035 -4.20673 4.10253 0
M  V30 8343 H 788.559 -4.96294 3.55703 0
M  V30 8344 H 789.973 -3.08375 4.83299 0
M  V30 8345 H 788.37 -2.56116 5.42701 0
M  V30 8346 H 789.44 -1.38165 4.64799 0
M  V30 8347 N 790.784 -1.46188 -0.588786 0
M  V30 8348 C 792.061 -1.41659 -1.34878 0
M  V30 8349 C 792.441 -0.0968913 -2.10878 0
M  V30 8350 O 791.789 0.921468 -2.09096 0
M  V30 8351 C 791.999 -2.6424 -2.27988 0
M  V30 8352 C 793.347 -3.1013 -2.90008 0
M  V30 8353 O 794.371 -2.64745 -2.38303 0
M  V30 8354 O 793.23 -3.88944 -3.83908 0
M  V30 8355 H 790.324 -0.563058 -0.605718 0
M  V30 8356 H 792.87 -1.58346 -0.610309 0
M  V30 8357 H 791.642 -3.51853 -1.71217 0
M  V30 8358 H 791.265 -2.49982 -3.09184 0
M  V30 8359 N 792.262 0.832906 -1.33792 0
M  V30 8360 C 793.508 1.59089 -1.25772 0
M  V30 8361 C 793.841 1.93414 0.174601 0
M  V30 8362 O 793.116 1.59195 1.11746 0
M  V30 8363 C 793.399 2.89699 -2.13885 0
M  V30 8364 C 793.252 2.62017 -3.65605 0
M  V30 8365 C 794.571 3.91182 -2.01654 0
M  V30 8366 H 791.69 0.577232 -0.458227 0
M  V30 8367 H 794.332 0.960227 -1.6395 0
M  V30 8368 H 792.482 3.4352 -1.81456 0
M  V30 8369 H 794.154 2.14582 -4.08353 0
M  V30 8370 H 792.397 1.95621 -3.87189 0
M  V30 8371 H 793.068 3.55112 -4.2261 0
M  V30 8372 H 795.544 3.46684 -2.30107 0
M  V30 8373 H 794.42 4.80391 -2.65548 0
M  V30 8374 H 794.681 4.30861 -0.990536 0
M  V30 8375 N 793.74 1.17359 1.05189 0
M  V30 8376 C 794.65 0.904984 2.16442 0
M  V30 8377 C 795.666 -0.12686 1.73537 0
M  V30 8378 O 796.842 0.0524127 2.01332 0
M  V30 8379 C 793.907 0.422019 3.44122 0
M  V30 8380 C 792.968 1.52045 4.01473 0
M  V30 8381 C 792.201 1.06044 5.23059 0
M  V30 8382 O 792.424 -0.0854023 5.70336 0
M  V30 8383 O 791.358 1.85349 5.72651 0
M  V30 8384 H 795.184 1.8356 2.41949 0
M  V30 8385 H 792.769 0.95447 1.14936 0
M  V30 8386 H 794.651 0.160208 4.21095 0
M  V30 8387 H 793.326 -0.480444 3.20115 0
M  V30 8388 H 792.233 1.83615 3.25939 0
M  V30 8389 H 793.566 2.39863 4.29798 0
M  V30 8390 N 795.218 -1.23913 0.973828 0
M  V30 8391 C 796.165 -2.25132 0.508366 0
M  V30 8392 C 797.135 -1.59908 -0.449307 0
M  V30 8393 O 798.32 -1.87405 -0.358313 0
M  V30 8394 C 795.46 -3.4458 -0.189422 0
M  V30 8395 C 794.573 -4.24381 0.807738 0
M  V30 8396 C 793.708 -5.31131 0.0854315 0
M  V30 8397 C 792.747 -6.02635 1.07225 0
M  V30 8398 N 791.884 -7.01073 0.379535 0
M  V30 8399 H 796.724 -2.64313 1.37632 0
M  V30 8400 H 794.261 -1.29924 0.689802 0
M  V30 8401 H 796.219 -4.12706 -0.610733 0
M  V30 8402 H 794.849 -3.06218 -1.02129 0
M  V30 8403 H 793.901 -3.55735 1.34747 0
M  V30 8404 H 795.213 -4.73778 1.55998 0
M  V30 8405 H 794.367 -6.05422 -0.393572 0
M  V30 8406 H 793.106 -4.82658 -0.699461 0
M  V30 8407 H 792.111 -5.27143 1.56207 0
M  V30 8408 H 793.336 -6.53197 1.85769 0
M  V30 8409 H 791.282 -6.54862 -0.386269 0
M  V30 8410 H 791.199 -7.48382 1.07054 0
M  V30 8411 H 792.467 -7.79462 -0.0772984 0
M  V30 8412 N 796.696 -0.74468 -1.38897 0
M  V30 8413 C 797.942 -0.297324 -2.00609 0
M  V30 8414 C 798.275 1.11547 -1.58968 0
M  V30 8415 O 797.55 1.76227 -0.823057 0
M  V30 8416 C 797.833 -0.410125 -3.57757 0
M  V30 8417 C 797.686 -1.86338 -4.09387 0
M  V30 8418 C 799.005 0.20176 -4.39637 0
M  V30 8419 H 796.124 -0.109509 -0.728819 0
M  V30 8420 H 798.766 -0.942653 -1.64967 0
M  V30 8421 H 796.916 0.139287 -3.8825 0
M  V30 8422 H 798.588 -2.47042 -3.89574 0
M  V30 8423 H 796.831 -2.38146 -3.62586 0
M  V30 8424 H 797.502 -1.89352 -5.18507 0
M  V30 8425 H 799.978 -0.266703 -4.15244 0
M  V30 8426 H 798.854 0.0925415 -5.48822 0
M  V30 8427 H 799.115 1.289 -4.22891 0
M  V30 8428 N 798.174 1.49689 -0.493057 0
M  V30 8429 C 799.121 2.28976 0.28959 0
M  V30 8430 C 800.091 1.35011 0.967536 0
M  V30 8431 O 801.276 1.63964 0.975736 0
M  V30 8432 C 798.416 3.1748 1.35279 0
M  V30 8433 C 797.529 4.26496 0.687418 0
M  V30 8434 C 796.664 5.02226 1.73038 0
M  V30 8435 C 795.703 6.03089 1.04645 0
M  V30 8436 N 794.84 6.72014 2.03325 0
M  V30 8437 H 799.68 2.954 -0.392798 0
M  V30 8438 H 797.217 1.45657 -0.205554 0
M  V30 8439 H 799.175 3.67162 1.98111 0
M  V30 8440 H 797.805 2.53057 2.00405 0
M  V30 8441 H 796.857 3.80362 -0.0540001 0
M  V30 8442 H 798.169 4.98578 0.14864 0
M  V30 8443 H 797.323 5.55737 2.43395 0
M  V30 8444 H 796.062 4.29899 2.303 0
M  V30 8445 H 795.067 5.48817 0.328606 0
M  V30 8446 H 796.292 6.77398 0.480428 0
M  V30 8447 H 794.238 6.02464 2.59564 0
M  V30 8448 H 794.155 7.40046 1.54492 0
M  V30 8449 H 795.423 7.30133 2.72995 0
M  V30 8450 N 799.652 0.226554 1.55963 0
M  V30 8451 C 800.599 -0.681504 2.20509 0
M  V30 8452 C 801.569 -1.1866 1.16229 0
M  V30 8453 O 802.754 -1.24478 1.44602 0
M  V30 8454 C 799.894 -1.88183 2.89277 0
M  V30 8455 C 799.007 -1.41517 4.08163 0
M  V30 8456 C 798.142 -2.57346 4.647 0
M  V30 8457 C 797.181 -2.07441 5.75877 0
M  V30 8458 N 796.318 -3.16561 6.26685 0
M  V30 8459 H 801.158 -0.124372 2.9774 0
M  V30 8460 H 798.695 -0.0496333 1.47016 0
M  V30 8461 H 800.653 -2.58666 3.27335 0
M  V30 8462 H 799.283 -2.41177 2.14555 0
M  V30 8463 H 798.335 -0.605099 3.75557 0
M  V30 8464 H 799.647 -1.00928 4.88482 0
M  V30 8465 H 798.801 -3.35903 5.05227 0
M  V30 8466 H 797.54 -3.01227 3.83554 0
M  V30 8467 H 796.545 -1.27347 5.34848 0
M  V30 8468 H 797.77 -1.64554 6.58862 0
M  V30 8469 H 795.716 -3.59914 5.48451 0
M  V30 8470 H 795.633 -2.80239 7.02141 0
M  V30 8471 H 796.901 -3.95238 6.71868 0
M  V30 8472 N 801.13 -1.57531 -0.0467866 0
M  V30 8473 C 802.06 -2.08425 -1.05268 0
M  V30 8474 C 803.041 -0.982941 -1.38825 0
M  V30 8475 O 804.226 -1.25716 -1.48018 0
M  V30 8476 C 801.356 -2.54897 -2.35891 0
M  V30 8477 C 800.31 -3.69132 -2.16623 0
M  V30 8478 C 799.636 -4.01747 -3.52851 0
M  V30 8479 C 800.936 -4.98243 -1.56689 0
M  V30 8480 H 802.63 -2.92716 -0.62908 0
M  V30 8481 H 800.176 -1.40816 -0.301156 0
M  V30 8482 H 802.129 -2.8912 -3.06574 0
M  V30 8483 H 800.853 -1.67666 -2.80278 0
M  V30 8484 H 799.512 -3.35231 -1.48377 0
M  V30 8485 H 799.16 -3.11608 -3.94853 0
M  V30 8486 H 798.86 -4.78681 -3.4079 0
M  V30 8487 H 800.384 -4.38487 -4.24925 0
M  V30 8488 H 801.798 -5.30535 -2.17268 0
M  V30 8489 H 800.195 -5.79669 -1.55255 0
M  V30 8490 H 801.265 -4.81986 -0.530827 0
M  V30 8491 N 802.608 0.318715 -1.54344 0
M  V30 8492 C 803.857 1.05363 -1.71993 0
M  V30 8493 C 804.17 1.89018 -0.503155 0
M  V30 8494 O 805.376 2.65639 -0.561085 0
M  V30 8495 C 803.832 1.92281 -3.0423 0
M  V30 8496 C 803.44 1.13715 -4.33328 0
M  V30 8497 C 805.184 2.65479 -3.31242 0
M  V30 8498 C 803.091 1.99806 -5.56625 0
M  V30 8499 H 802.021 0.397081 -0.64097 0
M  V30 8500 H 804.672 0.311598 -1.80835 0
M  V30 8501 H 803.054 2.70402 -2.89307 0
M  V30 8502 H 804.228 0.403305 -4.59032 0
M  V30 8503 H 802.543 0.521769 -4.13118 0
M  V30 8504 H 805.14 3.30209 -4.20555 0
M  V30 8505 H 805.483 3.33374 -2.49334 0
M  V30 8506 H 806.016 1.94417 -3.47054 0
M  V30 8507 H 802.755 1.36411 -6.41149 0
M  V30 8508 H 802.275 2.70911 -5.35133 0
M  V30 8509 H 803.954 2.58277 -5.93213 0
M  V30 8510 N 804.086 1.46499 0.581025 0
M  V30 8511 C 804.996 1.59778 1.71779 0
M  V30 8512 C 806.012 0.481223 1.67213 0
M  V30 8513 O 807.188 0.74557 1.87091 0
M  V30 8514 C 804.253 1.58626 3.08283 0
M  V30 8515 C 803.314 2.81527 3.241 0
M  V30 8516 C 802.547 2.80421 4.54092 0
M  V30 8517 O 802.77 1.89262 5.38085 0
M  V30 8518 O 801.704 3.71984 4.73193 0
M  V30 8519 H 805.53 2.55918 1.63523 0
M  V30 8520 H 803.115 1.29311 0.748267 0
M  V30 8521 H 804.997 1.60686 3.89561 0
M  V30 8522 H 803.672 0.656467 3.16973 0
M  V30 8523 H 802.579 2.85021 2.42309 0
M  V30 8524 H 803.912 3.73721 3.20302 0
M  V30 8525 N 805.565 -0.825799 1.34232 0
M  V30 8526 C 806.475 -1.9684 1.27638 0
M  V30 8527 C 807.491 -1.73018 0.184569 0
M  V30 8528 O 808.667 -1.97172 0.410525 0
M  V30 8529 C 805.732 -3.31084 1.02879 0
M  V30 8530 C 804.793 -3.67933 2.21188 0
M  V30 8531 C 804.026 -4.95772 1.976 0
M  V30 8532 O 804.249 -5.62721 0.93281 0
M  V30 8533 O 803.183 -5.30431 2.84477 0
M  V30 8534 H 807.009 -2.05346 2.23756 0
M  V30 8535 H 804.594 -0.960772 1.1441 0
M  V30 8536 H 806.476 -4.11492 0.908406 0
M  V30 8537 H 805.151 -3.23552 0.0979821 0
M  V30 8538 H 804.058 -2.87981 2.38784 0
M  V30 8539 H 805.391 -3.80147 3.12648 0
M  V30 8540 N 807.043 -1.17915 -1.04565 0
M  V30 8541 C 807.99 -0.901605 -2.12461 0
M  V30 8542 C 808.96 0.157011 -1.65356 0
M  V30 8543 O 810.145 0.0184494 -1.90791 0
M  V30 8544 C 807.285 -0.42796 -3.42436 0
M  V30 8545 C 806.398 -1.55142 -4.03181 0
M  V30 8546 C 805.533 -1.03101 -5.21098 0
M  V30 8547 C 804.572 -2.1295 -5.73863 0
M  V30 8548 N 803.709 -1.62339 -6.83074 0
M  V30 8549 H 808.549 -1.82551 -2.3554 0
M  V30 8550 H 806.086 -0.910389 -1.15544 0
M  V30 8551 H 808.044 -0.134859 -4.16982 0
M  V30 8552 H 806.674 0.458977 -3.1952 0
M  V30 8553 H 805.726 -1.96011 -3.26012 0
M  V30 8554 H 807.038 -2.37968 -4.38375 0
M  V30 8555 H 806.192 -0.692132 -6.02739 0
M  V30 8556 H 804.931 -0.17227 -4.87396 0
M  V30 8557 H 803.936 -2.47687 -4.90847 0
M  V30 8558 H 805.161 -2.9925 -6.09611 0
M  V30 8559 H 803.107 -0.787464 -6.51256 0
M  V30 8560 H 803.024 -2.38767 -7.17305 0
M  V30 8561 H 804.292 -1.31363 -7.68351 0
M  V30 8562 N 808.521 1.23394 -0.980386 0
M  V30 8563 C 809.798 1.87242 -0.565667 0
M  V30 8564 C 810.178 1.88151 0.957197 0
M  V30 8565 O 809.526 1.36309 1.8339 0
M  V30 8566 C 809.736 3.28743 -1.17172 0
M  V30 8567 C 811.084 4.05335 -1.26446 0
M  V30 8568 O 812.108 3.37962 -1.12517 0
M  V30 8569 O 810.967 5.25908 -1.48604 0
M  V30 8570 H 808.061 0.80477 -0.190459 0
M  V30 8571 H 810.607 1.3127 -1.07547 0
M  V30 8572 H 809.379 3.22647 -2.21392 0
M  V30 8573 H 809.002 3.92305 -0.646739 0
M  V30 8574 N 809.999 0.752036 1.385 0
M  V30 8575 C 811.246 0.307503 2.00152 0
M  V30 8576 C 811.574 -1.11033 1.59693 0
M  V30 8577 O 810.829 -1.77455 0.825125 0
M  V30 8578 C 811.128 0.376155 3.55415 0
M  V30 8579 C 810.794 1.74942 4.15579 0
M  V30 8580 C 809.456 2.12525 4.31725 0
M  V30 8581 C 811.808 2.65031 4.48785 0
M  V30 8582 C 809.136 3.39671 4.78373 0
M  V30 8583 C 811.488 3.91567 4.96848 0
M  V30 8584 C 810.152 4.2922 5.11201 0
M  V30 8585 H 809.422 0.112523 0.732407 0
M  V30 8586 H 812.069 0.962213 1.65571 0
M  V30 8587 H 810.374 -0.362121 3.90123 0
M  V30 8588 H 812.071 0.0138065 4.00998 0
M  V30 8589 H 808.661 1.44726 4.03426 0
M  V30 8590 H 812.845 2.3726 4.35914 0
M  V30 8591 H 808.101 3.68765 4.8767 0
M  V30 8592 H 812.275 4.61517 5.21512 0
M  V30 8593 H 809.902 5.27805 5.47107 0
M  V30 8594 N 811.477 -1.49425 0.500989 0
M  V30 8595 C 812.409 -2.27037 -0.314159 0
M  V30 8596 C 813.422 -1.33578 -0.930626 0
M  V30 8597 O 814.611 -1.58861 -0.813968 0
M  V30 8598 C 811.711 -3.05968 -1.45729 0
M  V30 8599 C 810.884 -4.27 -0.948135 0
M  V30 8600 C 809.943 -4.87977 -1.96888 0
M  V30 8601 O 808.969 -5.48044 -1.53743 0
M  V30 8602 N 810.171 -4.77627 -3.29928 0
M  V30 8603 H 812.936 -2.97634 0.351336 0
M  V30 8604 H 810.497 -1.58427 0.333536 0
M  V30 8605 H 812.489 -3.43634 -2.1377 0
M  V30 8606 H 811.059 -2.37978 -2.02695 0
M  V30 8607 H 810.279 -3.94091 -0.0926311 0
M  V30 8608 H 811.567 -5.0541 -0.586362 0
M  V30 8609 H 810.965 -4.29926 -3.67669 0
M  V30 8610 H 809.522 -5.19478 -3.93682 0
M  V30 8611 N 812.955 -0.234822 -1.55841 0
M  V30 8612 C 813.888 0.710134 -2.16869 0
M  V30 8613 C 814.866 1.18155 -1.11706 0
M  V30 8614 O 816.05 1.26188 -1.40032 0
M  V30 8615 C 813.177 1.96368 -2.75966 0
M  V30 8616 C 812.223 1.63114 -3.94076 0
M  V30 8617 S 813.056 0.744307 -5.30302 0
M  V30 8618 C 814.212 2.00712 -5.92845 0
M  V30 8619 H 814.445 0.19146 -2.96683 0
M  V30 8620 H 811.978 -0.0193854 -1.54388 0
M  V30 8621 H 813.936 2.68338 -3.10653 0
M  V30 8622 H 812.597 2.45347 -1.96121 0
M  V30 8623 H 811.79 2.56285 -4.33975 0
M  V30 8624 H 811.392 0.991967 -3.60605 0
M  V30 8625 H 813.684 2.9557 -6.09627 0
M  V30 8626 H 814.627 1.65182 -6.88564 0
M  V30 8627 H 815.035 2.1537 -5.21801 0
M  V30 8628 N 814.433 1.57553 0.0384317 0
M  V30 8629 C 815.363 2.0898 1.04161 0
M  V30 8630 C 816.344 0.99029 1.38301 0
M  V30 8631 O 817.529 1.26499 1.47349 0
M  V30 8632 C 814.659 2.56145 2.34536 0
M  V30 8633 C 813.613 3.70275 2.14663 0
M  V30 8634 C 812.939 4.03612 3.50715 0
M  V30 8635 C 814.239 4.99067 1.54045 0
M  V30 8636 H 815.933 2.93046 0.613548 0
M  V30 8637 H 813.479 1.40973 0.293684 0
M  V30 8638 H 815.432 2.90741 3.05037 0
M  V30 8639 H 814.156 1.6915 2.79385 0
M  V30 8640 H 812.815 3.36013 1.46597 0
M  V30 8641 H 812.463 3.13698 3.93195 0
M  V30 8642 H 812.163 4.80482 3.38247 0
M  V30 8643 H 813.687 4.40735 4.22593 0
M  V30 8644 H 815.101 5.3168 2.14451 0
M  V30 8645 H 813.498 5.80484 1.52178 0
M  V30 8646 H 814.568 4.8226 0.505259 0
M  V30 8647 N 815.911 -0.310526 1.54511 0
M  V30 8648 C 817.141 -1.06456 1.77061 0
M  V30 8649 C 817.549 -1.81755 0.525528 0
M  V30 8650 O 816.892 -1.76365 -0.513904 0
M  V30 8651 C 816.954 -2.09856 2.91892 0
M  V30 8652 C 816.618 -1.53838 4.30329 0
M  V30 8653 C 817.615 -0.973358 5.10707 0
M  V30 8654 C 815.3 -1.57688 4.76906 0
M  V30 8655 C 817.294 -0.454283 6.35779 0
M  V30 8656 C 814.981 -1.05393 6.01943 0
M  V30 8657 C 815.979 -0.493595 6.81214 0
M  V30 8658 O 815.667 0.0214506 8.03897 0
M  V30 8659 H 815.399 -0.321913 0.594431 0
M  V30 8660 H 817.953 -0.358289 2.02251 0
M  V30 8661 H 816.183 -2.84137 2.62304 0
M  V30 8662 H 817.872 -2.71085 3.02106 0
M  V30 8663 H 818.638 -0.936588 4.75871 0
M  V30 8664 H 814.517 -2.00242 4.1524 0
M  V30 8665 H 818.061 -0.0162657 6.97598 0
M  V30 8666 H 813.958 -1.08782 6.36268 0
M  V30 8667 H 814.726 -0.0927478 8.18447 0
M  V30 8668 N 817.389 -1.46805 -0.573248 0
M  V30 8669 C 818.352 -1.57655 -1.66366 0
M  V30 8670 C 819.352 -0.452905 -1.5429 0
M  V30 8671 O 820.542 -0.717502 -1.58737 0
M  V30 8672 C 817.674 -1.50584 -3.05839 0
M  V30 8673 H 818.867 -2.54842 -1.581 0
M  V30 8674 H 816.42 -1.34756 -0.791868 0
M  V30 8675 H 817.155 -0.547127 -3.19651 0
M  V30 8676 H 816.94 -2.32118 -3.16012 0
M  V30 8677 H 818.43 -1.61282 -3.85199 0
M  V30 8678 N 818.867 0.818669 -1.34668 0
M  V30 8679 C 820.097 1.60441 -1.30162 0
M  V30 8680 C 820.505 1.88783 0.125579 0
M  V30 8681 O 819.848 1.48281 1.08437 0
M  V30 8682 C 819.91 2.96794 -2.02864 0
M  V30 8683 C 819.574 2.91327 -3.52105 0
M  V30 8684 C 820.571 2.65611 -4.4693 0
M  V30 8685 C 818.256 3.10825 -3.9458 0
M  V30 8686 C 820.25 2.59452 -5.82206 0
M  V30 8687 C 817.937 3.0429 -5.29954 0
M  V30 8688 C 818.935 2.78637 -6.23579 0
M  V30 8689 O 818.623 2.72042 -7.56471 0
M  V30 8690 H 818.355 0.505278 -0.449077 0
M  V30 8691 H 820.909 1.02632 -1.77921 0
M  V30 8692 H 819.139 3.56538 -1.49725 0
M  V30 8693 H 820.828 3.57837 -1.91592 0
M  V30 8694 H 821.594 2.50278 -4.15434 0
M  V30 8695 H 817.473 3.29807 -3.221 0
M  V30 8696 H 821.017 2.39349 -6.55254 0
M  V30 8697 H 816.914 3.19177 -5.61067 0
M  V30 8698 H 817.682 2.87738 -7.66257 0
M  V30 8699 N 820.346 1.18468 1.03938 0
M  V30 8700 C 821.623 0.890435 1.74157 0
M  V30 8701 C 822.003 -0.606409 2.02203 0
M  V30 8702 O 821.351 -1.5615 1.66822 0
M  V30 8703 C 821.561 1.73906 3.02585 0
M  V30 8704 C 822.909 1.96686 3.76297 0
M  V30 8705 O 823.933 1.70969 3.12487 0
M  V30 8706 O 822.792 2.39986 4.90988 0
M  V30 8707 H 819.886 0.330889 0.757919 0
M  V30 8708 H 822.432 1.29228 1.09992 0
M  V30 8709 H 821.204 2.75369 2.78006 0
M  V30 8710 H 820.827 1.33581 3.74489 0
M  V30 8711 N 821.824 -1.22873 0.986916 0
M  V30 8712 C 822.756 -2.23889 0.490537 0
M  V30 8713 C 823.769 -1.57523 -0.411144 0
M  V30 8714 O 824.958 -1.7721 -0.214236 0
M  V30 8715 C 822.058 -3.37488 -0.30902 0
M  V30 8716 C 821.231 -4.33438 0.587354 0
M  V30 8717 C 820.29 -5.25958 -0.159467 0
M  V30 8718 O 819.316 -5.67394 0.453115 0
M  V30 8719 N 820.518 -5.62265 -1.44355 0
M  V30 8720 H 823.283 -2.67109 1.35914 0
M  V30 8721 H 820.844 -1.37111 0.860937 0
M  V30 8722 H 822.836 -3.96365 -0.817139 0
M  V30 8723 H 821.406 -2.934 -1.07868 0
M  V30 8724 H 820.626 -3.72969 1.27622 0
M  V30 8725 H 821.914 -4.94495 1.19801 0
M  V30 8726 H 821.312 -5.30562 -1.96266 0
M  V30 8727 H 819.869 -6.23585 -1.89698 0
M  V30 8728 N 823.302 -0.75937 -1.38099 0
M  V30 8729 C 824.232 -0.151077 -2.33011 0
M  V30 8730 C 825.213 0.697099 -1.5516 0
M  V30 8731 O 826.398 0.637101 -1.83452 0
M  V30 8732 C 823.528 0.738423 -3.39359 0
M  V30 8733 C 822.482 -0.0074741 -4.27999 0
M  V30 8734 C 821.808 1.00066 -5.25253 0
M  V30 8735 C 823.108 -1.17926 -5.08813 0
M  V30 8736 H 824.802 -0.943933 -2.84131 0
M  V30 8737 H 822.348 -0.455362 -1.36611 0
M  V30 8738 H 824.301 1.17369 -4.04725 0
M  V30 8739 H 823.025 1.56366 -2.86735 0
M  V30 8740 H 821.684 -0.423379 -3.64147 0
M  V30 8741 H 821.332 1.82012 -4.68914 0
M  V30 8742 H 821.032 0.506199 -5.85416 0
M  V30 8743 H 822.556 1.43512 -5.93495 0
M  V30 8744 H 823.97 -0.821262 -5.67387 0
M  V30 8745 H 822.367 -1.60497 -5.78239 0
M  V30 8746 H 823.437 -1.98938 -4.42212 0
M  V30 8747 N 824.78 1.49157 -0.508906 0
M  V30 8748 C 825.727 2.2927 0.265288 0
M  V30 8749 C 826.697 1.3603 0.953162 0
M  V30 8750 O 827.882 1.64989 0.958291 0
M  V30 8751 C 825.022 3.18897 1.31904 0
M  V30 8752 C 824.135 4.27201 0.642144 0
M  V30 8753 C 823.27 5.04033 1.67701 0
M  V30 8754 C 822.309 6.04165 0.982422 0
M  V30 8755 N 821.446 6.74133 1.96186 0
M  V30 8756 H 826.286 2.94967 -0.424107 0
M  V30 8757 H 823.823 1.45431 -0.220991 0
M  V30 8758 H 825.781 3.69242 1.94206 0
M  V30 8759 H 824.411 2.55168 1.97709 0
M  V30 8760 H 823.463 3.80283 -0.0943395 0
M  V30 8761 H 824.775 4.98708 0.0957507 0
M  V30 8762 H 823.929 5.58287 2.37487 0
M  V30 8763 H 822.668 4.32317 2.25728 0
M  V30 8764 H 821.673 5.49135 0.270378 0
M  V30 8765 H 822.898 6.7787 0.408554 0
M  V30 8766 H 820.844 6.05183 2.53159 0
M  V30 8767 H 820.761 7.41643 1.46634 0
M  V30 8768 H 822.029 7.32987 2.65236 0
M  V30 8769 N 826.258 0.243083 1.55714 0
M  V30 8770 C 827.507 -0.383188 1.98027 0
M  V30 8771 C 827.82 -1.59347 1.13436 0
M  V30 8772 O 829.026 -2.29065 1.45745 0
M  V30 8773 C 827.482 -0.733135 3.52354 0
M  V30 8774 C 827.09 0.455539 4.45678 0
M  V30 8775 C 828.834 -1.32381 4.03331 0
M  V30 8776 C 826.741 0.0819591 5.91343 0
M  V30 8777 H 825.671 -0.146944 0.739543 0
M  V30 8778 H 828.322 0.342697 1.80272 0
M  V30 8779 H 826.704 -1.51704 3.65789 0
M  V30 8780 H 827.878 1.23291 4.44 0
M  V30 8781 H 826.193 0.960886 4.05162 0
M  V30 8782 H 828.79 -1.61658 5.09677 0
M  V30 8783 H 829.133 -2.24698 3.50452 0
M  V30 8784 H 829.666 -0.602885 3.93205 0
M  V30 8785 H 826.405 0.972171 6.48251 0
M  V30 8786 H 825.925 -0.659291 5.96166 0
M  V30 8787 H 827.604 -0.3372 6.46121 0
M  V30 8788 N 827.736 -1.57571 -0.0300757 0
M  V30 8789 C 828.668 -2.0329 -1.05857 0
M  V30 8790 C 829.681 -0.945543 -1.32527 0
M  V30 8791 O 830.87 -1.22287 -1.30032 0
M  V30 8792 C 827.97 -2.39234 -2.40042 0
M  V30 8793 C 827.143 -3.70337 -2.32743 0
M  V30 8794 C 826.202 -3.93482 -3.49369 0
M  V30 8795 O 825.228 -4.64551 -3.28909 0
M  V30 8796 N 826.43 -3.39042 -4.71201 0
M  V30 8797 H 829.195 -2.9214 -0.668897 0
M  V30 8798 H 826.756 -1.60425 -0.218038 0
M  V30 8799 H 828.748 -2.51856 -3.16782 0
M  V30 8800 H 827.318 -1.5606 -2.70858 0
M  V30 8801 H 826.538 -3.68079 -1.41109 0
M  V30 8802 H 827.826 -4.56343 -2.25007 0
M  V30 8803 H 827.224 -2.81434 -4.90725 0
M  V30 8804 H 825.781 -3.57045 -5.45309 0
M  V30 8805 N 829.214 0.302327 -1.54673 0
M  V30 8806 C 830.46 1.03924 -1.74149 0
M  V30 8807 C 830.793 1.86968 -0.525041 0
M  V30 8808 O 830.068 1.88538 0.477868 0
M  V30 8809 C 830.351 1.94633 -3.02969 0
M  V30 8810 C 830.204 1.14778 -4.34909 0
M  V30 8811 C 831.523 2.93826 -3.27649 0
M  V30 8812 H 828.642 0.376405 -0.633631 0
M  V30 8813 H 831.284 0.314007 -1.87387 0
M  V30 8814 H 829.434 2.56471 -2.91813 0
M  V30 8815 H 831.106 0.552363 -4.57981 0
M  V30 8816 H 829.349 0.450462 -4.31455 0
M  V30 8817 H 830.02 1.81495 -5.21309 0
M  V30 8818 H 832.496 2.42117 -3.38406 0
M  V30 8819 H 831.372 3.54462 -4.19104 0
M  V30 8820 H 831.633 3.67416 -2.45882 0
M  V30 8821 N 830.692 1.47107 0.565454 0
M  V30 8822 C 831.655 1.58535 1.65527 0
M  V30 8823 C 832.655 0.461081 1.54048 0
M  V30 8824 O 833.845 0.725911 1.58355 0
M  V30 8825 C 830.977 1.52204 3.05036 0
M  V30 8826 H 832.17 2.55676 1.56747 0
M  V30 8827 H 829.723 1.35174 0.78471 0
M  V30 8828 H 830.458 0.564071 3.19357 0
M  V30 8829 H 830.243 2.3379 3.14777 0
M  V30 8830 H 831.733 1.63322 3.84338 0
M  V30 8831 N 832.17 -0.811516 1.35101 0
M  V30 8832 C 833.133 -1.90467 1.27495 0
M  V30 8833 C 834.133 -1.59703 0.187516 0
M  V30 8834 O 835.323 -1.68528 0.440896 0
M  V30 8835 C 832.455 -3.26774 0.971154 0
M  V30 8836 H 833.648 -1.98631 2.2469 0
M  V30 8837 H 831.201 -1.00681 1.19553 0
M  V30 8838 H 831.936 -3.243 0.0028557 0
M  V30 8839 H 831.721 -3.50488 1.75785 0
M  V30 8840 H 833.211 -4.06804 0.943414 0
M  V30 8841 N 833.648 -1.19017 -1.03309 0
M  V30 8842 C 834.595 -0.924088 -2.11493 0
M  V30 8843 C 835.565 0.139464 -1.65513 0
M  V30 8844 O 836.75 -0.00178761 -1.908 0
M  V30 8845 C 833.89 -0.464255 -3.41963 0
M  V30 8846 C 833.003 -1.5941 -4.01513 0
M  V30 8847 C 832.138 -1.08622 -5.19976 0
M  V30 8848 C 831.177 -2.19024 -5.71572 0
M  V30 8849 N 830.314 -1.69575 -6.81314 0
M  V30 8850 H 835.154 -1.85039 -2.33591 0
M  V30 8851 H 832.691 -0.922593 -1.14572 0
M  V30 8852 H 834.649 -0.179078 -4.16815 0
M  V30 8853 H 833.279 0.425062 -3.19989 0
M  V30 8854 H 832.331 -1.99458 -3.23915 0
M  V30 8855 H 833.643 -2.42604 -4.35826 0
M  V30 8856 H 832.797 -0.756022 -6.01971 0
M  V30 8857 H 831.536 -0.223955 -4.87186 0
M  V30 8858 H 830.541 -2.5288 -4.88193 0
M  V30 8859 H 831.766 -3.05699 -6.06403 0
M  V30 8860 H 829.712 -0.856494 -6.50385 0
M  V30 8861 H 829.629 -2.46361 -7.14732 0
M  V30 8862 H 830.897 -1.39505 -7.66915 0
M  V30 8863 N 835.127 1.22348 -0.993418 0
M  V30 8864 C 836.355 1.95125 -0.688021 0
M  V30 8865 C 836.77 1.73377 0.747388 0
M  V30 8866 O 836.127 1.03317 1.50439 0
M  V30 8867 C 836.178 3.47819 -0.985097 0
M  V30 8868 O 835.899 3.68838 -2.3641 0
M  V30 8869 C 837.4 4.37779 -0.697474 0
M  V30 8870 H 834.62 0.62087 -0.254481 0
M  V30 8871 H 837.164 1.55485 -1.32833 0
M  V30 8872 H 835.319 3.85426 -0.390583 0
M  V30 8873 H 835.733 4.63032 -2.46377 0
M  V30 8874 H 837.207 5.43666 -0.955604 0
M  V30 8875 H 837.684 4.37651 0.368524 0
M  V30 8876 H 838.29 4.05799 -1.27306 0
M  V30 8877 N 836.605 0.766683 1.37694 0
M  V30 8878 C 837.851 0.329201 2.0011 0
M  V30 8879 C 838.184 -1.09004 1.60723 0
M  V30 8880 O 837.459 -1.74895 0.850989 0
M  V30 8881 C 837.742 0.466989 3.57059 0
M  V30 8882 C 837.595 1.92828 4.06371 0
M  V30 8883 C 838.914 -0.131792 4.39903 0
M  V30 8884 H 836.033 0.12109 0.726984 0
M  V30 8885 H 838.675 0.968779 1.63446 0
M  V30 8886 H 836.825 -0.0775023 3.88423 0
M  V30 8887 H 838.497 2.53208 3.85595 0
M  V30 8888 H 836.74 2.43884 3.58752 0
M  V30 8889 H 837.411 1.97577 5.15429 0
M  V30 8890 H 839.887 0.332731 4.14768 0
M  V30 8891 H 838.763 -0.005217 5.489 0
M  V30 8892 H 839.024 -1.22156 4.24889 0
M  V30 8893 N 838.083 -1.48885 0.516809 0
M  V30 8894 C 839.33 -2.02488 -0.0220602 0
M  V30 8895 C 839.658 -1.39513 -1.35523 0
M  V30 8896 O 838.913 -0.52558 -1.8851 0
M  V30 8897 C 839.212 -3.56801 -0.206798 0
M  V30 8898 C 838.878 -4.38496 1.05035 0
M  V30 8899 C 837.54 -4.60538 1.39492 0
M  V30 8900 C 839.892 -4.85909 1.88525 0
M  V30 8901 C 837.22 -5.2724 2.57361 0
M  V30 8902 C 839.572 -5.53909 3.05561 0
M  V30 8903 C 838.236 -5.74193 3.4038 0
M  V30 8904 H 837.506 -0.740956 -0.00807238 0
M  V30 8905 H 840.153 -1.79014 0.680168 0
M  V30 8906 H 838.458 -3.79042 -0.991687 0
M  V30 8907 H 840.155 -3.95885 -0.638447 0
M  V30 8908 H 836.745 -4.2159 0.771984 0
M  V30 8909 H 840.929 -4.68694 1.63218 0
M  V30 8910 H 836.185 -5.41145 2.84556 0
M  V30 8911 H 840.359 -5.89619 3.7057 0
M  V30 8912 H 837.986 -6.25652 4.31814 0
M  V30 8913 N 839.561 -0.251338 -1.55583 0
M  V30 8914 C 840.471 0.656978 -2.25213 0
M  V30 8915 C 841.487 1.18966 -1.26977 0
M  V30 8916 O 842.663 1.22499 -1.59862 0
M  V30 8917 C 839.728 1.83527 -2.94141 0
M  V30 8918 C 838.789 1.34162 -4.07798 0
M  V30 8919 C 838.022 2.46375 -4.73429 0
M  V30 8920 O 838.245 3.65205 -4.38157 0
M  V30 8921 O 837.179 2.15881 -5.61853 0
M  V30 8922 H 841.005 0.0936395 -3.03556 0
M  V30 8923 H 838.59 -0.0196638 -1.49387 0
M  V30 8924 H 840.472 2.52279 -3.3754 0
M  V30 8925 H 839.147 2.38614 -2.18735 0
M  V30 8926 H 838.054 0.621249 -3.68906 0
M  V30 8927 H 839.387 0.836779 -4.85035 0
M  V30 8928 N 841.039 1.57585 0.0217189 0
M  V30 8929 C 842.287 1.89231 0.709641 0
M  V30 8930 C 842.608 0.849964 1.75501 0
M  V30 8931 O 841.878 -0.115485 1.95559 0
M  V30 8932 H 840.458 0.69838 0.265092 0
M  V30 8933 H 843.12 1.94895 -0.0140688 0
M  V30 8934 H 842.216 2.88333 1.19459 0
M  V30 8935 N 842.517 -0.29412 1.54831 0
M  V30 8936 C 843.764 -1.02846 1.74439 0
M  V30 8937 C 844.092 -1.87029 0.533905 0
M  V30 8938 O 843.347 -1.8962 -0.484035 0
M  V30 8939 C 843.646 -1.95782 2.99006 0
M  V30 8940 C 843.312 -1.2752 4.32492 0
M  V30 8941 C 841.974 -1.08637 4.68777 0
M  V30 8942 C 844.326 -0.787761 5.15212 0
M  V30 8943 C 841.654 -0.39704 5.85355 0
M  V30 8944 C 844.006 -0.112123 6.32501 0
M  V30 8945 C 842.67 0.0886071 6.67441 0
M  V30 8946 H 841.94 -0.376341 0.638317 0
M  V30 8947 H 844.587 -0.302684 1.89093 0
M  V30 8948 H 842.892 -2.74911 2.79162 0
M  V30 8949 H 844.589 -2.52684 3.11371 0
M  V30 8950 H 841.179 -1.43226 4.03961 0
M  V30 8951 H 845.363 -0.921341 4.87673 0
M  V30 8952 H 840.619 -0.230597 6.10965 0
M  V30 8953 H 844.793 0.27344 6.95863 0
M  V30 8954 H 842.42 0.624748 7.57628 0
M  V30 8955 N 843.995 -1.47404 -0.557645 0
M  V30 8956 C 845.223 -1.57622 -1.34026 0
M  V30 8957 C 845.638 -0.226256 -1.87439 0
M  V30 8958 O 844.995 0.78043 -1.64971 0
M  V30 8959 C 845.046 -2.60111 -2.51047 0
M  V30 8960 O 844.767 -3.89866 -1.99841 0
M  V30 8961 C 846.268 -2.80508 -3.43264 0
M  V30 8962 H 843.488 -0.532271 -0.40857 0
M  V30 8963 H 846.032 -1.93019 -0.675555 0
M  V30 8964 H 844.187 -2.27648 -3.13457 0
M  V30 8965 H 844.601 -4.45864 -2.76234 0
M  V30 8966 H 846.075 -3.56084 -4.21792 0
M  V30 8967 H 846.552 -1.88314 -3.9678 0
M  V30 8968 H 847.158 -3.14166 -2.86671 0
M  V30 8969 N 845.473 0.80434 -1.35529 0
M  V30 8970 C 846.383 1.94784 -1.30753 0
M  V30 8971 C 847.399 1.72703 -0.212071 0
M  V30 8972 O 848.575 1.96494 -0.441841 0
M  V30 8973 C 845.64 3.29406 -1.08133 0
M  V30 8974 C 844.701 3.64367 -2.27013 0
M  V30 8975 C 843.934 4.92566 -2.05463 0
M  V30 8976 O 844.157 5.61166 -1.02222 0
M  V30 8977 O 843.091 5.25838 -2.92879 0
M  V30 8978 H 846.917 2.01761 -2.26994 0
M  V30 8979 H 844.502 0.942448 -1.15924 0
M  V30 8980 H 846.384 4.09995 -0.973756 0
M  V30 8981 H 845.059 3.23355 -0.149444 0
M  V30 8982 H 843.966 2.84146 -2.43335 0
M  V30 8983 H 845.299 3.75125 -3.18656 0
M  V30 8984 N 846.951 1.19563 1.02676 0
M  V30 8985 C 848.199 0.997593 1.75763 0
M  V30 8986 C 848.52 -0.47253 1.89188 0
M  V30 8987 O 847.79 -1.34214 1.42701 0
M  V30 8988 H 846.37 0.366128 0.651122 0
M  V30 8989 H 849.032 1.50495 1.23844 0
M  V30 8990 H 848.128 1.44741 2.76508 0
M  V30 8991 N 848.429 -1.21819 0.999893 0
M  V30 8992 C 849.339 -2.27691 0.565159 0
M  V30 8993 C 850.355 -1.69587 -0.389398 0
M  V30 8994 O 851.531 -1.99786 -0.254499 0
M  V30 8995 C 848.596 -3.46537 -0.106432 0
M  V30 8996 C 847.657 -4.19932 0.891964 0
M  V30 8997 C 846.89 -5.33103 0.252327 0
M  V30 8998 O 847.113 -5.62398 -0.952103 0
M  V30 8999 O 846.047 -5.94184 0.960698 0
M  V30 9000 H 849.873 -2.67059 1.44613 0
M  V30 9001 H 847.458 -1.28119 0.768499 0
M  V30 9002 H 849.34 -4.18631 -0.482301 0
M  V30 9003 H 848.015 -3.09079 -0.961865 0
M  V30 9004 H 846.922 -3.5008 1.3189 0
M  V30 9005 H 848.255 -4.61287 1.71682 0
M  V30 9006 N 849.908 -0.773975 -1.37286 0
M  V30 9007 C 850.838 -0.175782 -2.32837 0
M  V30 9008 C 851.819 0.680603 -1.5589 0
M  V30 9009 O 853.004 0.617607 -1.84117 0
M  V30 9010 C 850.134 0.702388 -3.40123 0
M  V30 9011 C 849.088 -0.0528687 -4.27967 0
M  V30 9012 C 848.414 0.944891 -5.26285 0
M  V30 9013 C 849.714 -1.23316 -5.07534 0
M  V30 9014 H 851.408 -0.974016 -2.83114 0
M  V30 9015 H 848.954 -0.469826 -1.3612 0
M  V30 9016 H 850.907 1.13069 -4.05947 0
M  V30 9017 H 849.631 1.53316 -2.88378 0
M  V30 9018 H 848.29 -0.461978 -3.63678 0
M  V30 9019 H 847.938 1.77028 -4.70819 0
M  V30 9020 H 847.638 0.444079 -5.8592 0
M  V30 9021 H 849.162 1.37209 -5.94984 0
M  V30 9022 H 850.576 -0.881395 -5.66484 0
M  V30 9023 H 848.973 -1.66621 -5.76504 0
M  V30 9024 H 850.043 -2.03617 -4.40077 0
M  V30 9025 N 851.386 1.48609 -0.524698 0
M  V30 9026 C 852.614 2.06899 0.00742946 0
M  V30 9027 C 853.029 1.38196 1.28637 0
M  V30 9028 O 852.386 0.467771 1.76403 0
M  V30 9029 C 852.437 3.60699 0.240548 0
M  V30 9030 O 852.158 4.26821 -0.987715 0
M  V30 9031 C 853.659 4.35769 0.813652 0
M  V30 9032 H 850.879 0.670278 -0.0311294 0
M  V30 9033 H 853.423 1.91071 -0.728832 0
M  V30 9034 H 851.578 3.76149 0.926845 0
M  V30 9035 H 851.992 5.18889 -0.765175 0
M  V30 9036 H 853.466 5.44174 0.926219 0
M  V30 9037 H 853.943 3.9984 1.81728 0
M  V30 9038 H 854.549 4.24983 0.164086 0
M  V30 9039 N 852.864 0.259585 1.55447 0
M  V30 9040 C 854.111 -0.361607 1.99245 0
M  V30 9041 C 854.439 -1.57017 1.14787 0
M  V30 9042 O 853.694 -1.94658 0.201724 0
M  V30 9043 C 853.993 -0.802727 3.48269 0
M  V30 9044 C 853.659 0.299472 4.49904 0
M  V30 9045 C 852.321 0.602157 4.77418 0
M  V30 9046 C 854.673 1.04295 5.10658 0
M  V30 9047 C 852.001 1.65217 5.62957 0
M  V30 9048 C 854.353 2.08257 5.97337 0
M  V30 9049 C 853.017 2.39177 6.23178 0
M  V30 9050 H 852.287 -0.132322 0.72909 0
M  V30 9051 H 854.934 0.370059 1.8789 0
M  V30 9052 H 853.239 -1.61381 3.5702 0
M  V30 9053 H 854.936 -1.29385 3.79553 0
M  V30 9054 H 851.526 0.0534256 4.28567 0
M  V30 9055 H 855.71 0.822358 4.89439 0
M  V30 9056 H 850.966 1.89692 5.81229 0
M  V30 9057 H 855.14 2.6635 6.43452 0
M  V30 9058 H 852.767 3.20677 6.89253 0
M  V30 9059 N 854.342 -1.57594 -0.0133615 0
M  V30 9060 C 855.274 -2.04402 -1.03695 0
M  V30 9061 C 856.287 -0.959546 -1.31516 0
M  V30 9062 O 857.476 -1.23659 -1.28727 0
M  V30 9063 C 854.576 -2.41766 -2.37491 0
M  V30 9064 C 853.749 -3.72785 -2.28802 0
M  V30 9065 C 852.808 -3.97165 -3.45176 0
M  V30 9066 O 851.834 -4.68013 -3.23963 0
M  V30 9067 N 853.036 -3.44021 -4.67579 0
M  V30 9068 H 855.801 -2.92833 -0.637874 0
M  V30 9069 H 853.362 -1.60647 -0.20101 0
M  V30 9070 H 855.354 -2.55201 -3.14093 0
M  V30 9071 H 853.924 -1.58924 -2.69188 0
M  V30 9072 H 853.144 -3.69555 -1.37197 0
M  V30 9073 H 854.432 -4.58704 -2.20154 0
M  V30 9074 H 853.83 -2.86623 -4.87713 0
M  V30 9075 H 852.387 -3.62808 -5.41492 0
M  V30 9076 N 855.82 0.285905 -1.54985 0
M  V30 9077 C 857.231 0.857869 -1.65824 0
M  V30 9078 C 857.582 1.87531 -0.576763 0
M  V30 9079 O 856.707 2.14528 0.284016 0
M  V30 9080 C 857.302 1.56277 -3.00604 0
M  V30 9081 C 855.861 2.08294 -3.13513 0
M  V30 9082 C 855.008 0.920633 -2.61571 0
M  V30 9083 H 857.959 0.0625463 -1.58577 0
M  V30 9084 H 857.98 2.42912 -2.92872 0
M  V30 9085 H 857.492 0.822017 -3.79295 0
M  V30 9086 H 855.593 2.8537 -2.39572 0
M  V30 9087 H 855.706 2.3071 -4.19892 0
M  V30 9088 H 854.07 1.31043 -2.18403 0
M  V30 9089 H 854.853 0.193594 -3.42754 0
M  V30 9090 N 857.298 1.47698 0.54982 0
M  V30 9091 C 858.526 1.5833 1.33188 0
M  V30 9092 C 858.941 0.236193 1.87317 0
M  V30 9093 O 858.298 -0.77167 1.65383 0
M  V30 9094 C 858.349 2.61438 2.49664 0
M  V30 9095 O 858.07 3.9092 1.97771 0
M  V30 9096 C 859.571 2.82324 3.41772 0
M  V30 9097 H 856.791 0.53443 0.405741 0
M  V30 9098 H 859.335 1.93375 0.665309 0
M  V30 9099 H 857.49 2.29307 3.12245 0
M  V30 9100 H 857.904 4.47323 2.73866 0
M  V30 9101 H 859.378 3.58316 4.19897 0
M  V30 9102 H 859.855 1.90416 3.95776 0
M  V30 9103 H 860.461 3.15682 2.85 0
M  V30 9104 N 858.776 -0.797141 1.35954 0
M  V30 9105 C 860.006 -1.5835 1.32698 0
M  V30 9106 C 860.414 -1.88959 -0.0955298 0
M  V30 9107 O 859.757 -1.49987 -1.06064 0
M  V30 9108 C 859.819 -2.93529 2.0756 0
M  V30 9109 C 859.483 -2.85688 3.56695 0
M  V30 9110 C 860.48 -2.58467 4.51099 0
M  V30 9111 C 858.165 -3.04508 3.99475 0
M  V30 9112 C 860.159 -2.50157 5.8626 0
M  V30 9113 C 857.846 -2.9582 5.34728 0
M  V30 9114 C 858.844 -2.68681 6.27933 0
M  V30 9115 O 858.532 -2.59973 7.60703 0
M  V30 9116 H 858.264 -0.49807 0.457059 0
M  V30 9117 H 860.818 -0.997889 1.79531 0
M  V30 9118 H 859.048 -3.54111 1.55378 0
M  V30 9119 H 860.737 -3.54744 1.9726 0
M  V30 9120 H 861.503 -2.43638 4.19363 0
M  V30 9121 H 857.382 -3.24641 3.27306 0
M  V30 9122 H 860.926 -2.28894 6.58979 0
M  V30 9123 H 856.823 -3.10211 5.66074 0
M  V30 9124 H 857.591 -2.75511 7.70737 0
M  V30 9125 N 860.254 -1.20106 -1.0204 0
M  V30 9126 C 861.201 -0.946468 -2.10501 0
M  V30 9127 C 862.171 0.121902 -1.65652 0
M  V30 9128 O 863.356 -0.0220244 -1.90787 0
M  V30 9129 C 860.496 -0.500499 -3.41451 0
M  V30 9130 C 859.609 -1.63659 -3.998 0
M  V30 9131 C 858.744 -1.14131 -5.18794 0
M  V30 9132 C 857.783 -2.25074 -5.69217 0
M  V30 9133 N 856.92 -1.76791 -6.79477 0
M  V30 9134 H 861.76 -1.87506 -2.31615 0
M  V30 9135 H 859.297 -0.934693 -1.13587 0
M  V30 9136 H 861.255 -0.223276 -4.16602 0
M  V30 9137 H 859.885 0.391099 -3.20422 0
M  V30 9138 H 858.937 -2.02882 -3.21781 0
M  V30 9139 H 860.249 -2.47213 -4.33229 0
M  V30 9140 H 859.403 -0.819826 -6.01135 0
M  V30 9141 H 858.142 -0.275615 -4.86921 0
M  V30 9142 H 857.147 -2.58043 -4.85483 0
M  V30 9143 H 858.372 -3.12114 -6.03127 0
M  V30 9144 H 856.318 -0.925428 -6.4944 0
M  V30 9145 H 856.235 -2.53928 -7.12079 0
M  V30 9146 H 857.503 -1.47631 -7.65392 0
M  V30 9147 N 861.732 1.21287 -1.00634 0
M  V30 9148 C 862.962 1.94103 -0.70765 0
M  V30 9149 C 863.37 1.74382 0.733991 0
M  V30 9150 O 862.713 1.04843 1.50843 0
M  V30 9151 C 862.775 3.46705 -0.950581 0
M  V30 9152 C 862.439 3.90176 -2.37932 0
M  V30 9153 C 863.436 3.96769 -3.35961 0
M  V30 9154 C 861.121 4.22453 -2.71733 0
M  V30 9155 C 863.115 4.35034 -4.65858 0
M  V30 9156 C 860.802 4.60394 -4.01846 0
M  V30 9157 C 861.8 4.66656 -4.9872 0
M  V30 9158 O 861.488 5.03732 -6.26505 0
M  V30 9159 H 861.22 0.62405 -0.259881 0
M  V30 9160 H 863.774 1.55015 -1.34757 0
M  V30 9161 H 862.004 3.85868 -0.253492 0
M  V30 9162 H 863.693 4.00741 -0.645069 0
M  V30 9163 H 864.459 3.72009 -3.11182 0
M  V30 9164 H 860.338 4.16776 -1.97025 0
M  V30 9165 H 863.882 4.39836 -5.4147 0
M  V30 9166 H 859.779 4.84609 -4.26409 0
M  V30 9167 H 860.547 5.21761 -6.30641 0
M  V30 9168 N 863.21 0.781244 1.36873 0
M  V30 9169 C 864.487 0.274217 1.93668 0
M  V30 9170 C 864.867 -1.2323 1.71399 0
M  V30 9171 O 864.215 -2.01993 1.06822 0
M  V30 9172 C 864.425 0.657939 3.42742 0
M  V30 9173 C 865.773 0.63307 4.19854 0
M  V30 9174 O 866.797 0.597909 3.51146 0
M  V30 9175 O 865.656 0.668636 5.42394 0
M  V30 9176 H 862.75 0.0658059 0.824378 0
M  V30 9177 H 865.296 0.863238 1.46104 0
M  V30 9178 H 864.068 1.69728 3.52573 0
M  V30 9179 H 863.691 0.0423678 3.97577 0
M  V30 9180 N 864.689 -1.48329 0.532571 0
M  V30 9181 C 865.917 -2.069 0.00354299 0
M  V30 9182 C 866.332 -1.38876 -1.27902 0
M  V30 9183 O 865.689 -0.477119 -1.76153 0
M  V30 9184 C 865.74 -3.60821 -0.221416 0
M  V30 9185 O 865.461 -4.26291 1.01034 0
M  V30 9186 C 866.962 -4.36194 -0.790531 0
M  V30 9187 H 864.182 -0.670103 0.0346836 0
M  V30 9188 H 866.726 -1.90682 0.738955 0
M  V30 9189 H 864.881 -3.76636 -0.906884 0
M  V30 9190 H 865.295 -5.18475 0.792683 0
M  V30 9191 H 866.769 -5.44657 -0.897347 0
M  V30 9192 H 867.246 -4.00798 -1.79605 0
M  V30 9193 H 867.852 -4.25064 -0.141546 0
M  V30 9194 N 866.167 -0.267825 -1.55308 0
M  V30 9195 C 867.415 0.350343 -1.9904 0
M  V30 9196 C 867.736 1.56924 -1.15758 0
M  V30 9197 O 867.006 1.94358 -0.245336 0
M  V30 9198 H 865.586 0.132435 -0.735167 0
M  V30 9199 H 868.248 -0.371471 -1.91327 0
M  V30 9200 H 867.344 0.645203 -3.05358 0
M  V30 9201 N 867.645 1.57599 0.00500368 0
M  V30 9202 C 868.87 1.95026 0.705663 0
M  V30 9203 C 869.295 0.869643 1.6679 0
M  V30 9204 O 868.653 -0.172659 1.80476 0
M  V30 9205 C 868.701 3.31545 1.4181 0
M  V30 9206 O 867.805 3.25495 2.53232 0
M  V30 9207 H 867.146 0.636808 0.188074 0
M  V30 9208 H 869.676 2.04547 -0.046696 0
M  V30 9209 H 869.686 3.66996 1.78265 0
M  V30 9210 H 868.361 4.09751 0.712543 0
M  V30 9211 H 866.938 3.01714 2.19142 0
M  V30 9212 N 869.123 -0.277682 1.55134 0
M  V30 9213 C 870.4 -1.0309 1.66228 0
M  V30 9214 C 870.78 -2.0445 0.525701 0
M  V30 9215 O 870.128 -2.23512 -0.474816 0
M  V30 9216 C 870.338 -1.6919 3.05247 0
M  V30 9217 C 871.686 -2.20526 3.62841 0
M  V30 9218 O 872.71 -1.79185 3.07849 0
M  V30 9219 O 871.569 -2.96342 4.59177 0
M  V30 9220 H 868.663 -0.4779 0.674937 0
M  V30 9221 H 871.209 -0.273912 1.67475 0
M  V30 9222 H 869.981 -0.957163 3.79413 0
M  V30 9223 H 869.604 -2.51587 3.07879 0
M  V30 9224 N 870.601 -1.47988 -0.541979 0
M  V30 9225 C 871.878 -1.45878 -1.30303 0
M  V30 9226 C 872.258 -0.163931 -2.10463 0
M  V30 9227 O 871.606 0.854479 -2.11922 0
M  V30 9228 C 871.816 -2.71359 -2.19466 0
M  V30 9229 C 873.164 -3.19199 -2.79995 0
M  V30 9230 O 874.188 -2.72193 -2.2976 0
M  V30 9231 O 873.047 -4.00961 -3.71339 0
M  V30 9232 H 870.141 -0.582043 -0.587498 0
M  V30 9233 H 872.687 -1.60207 -0.559623 0
M  V30 9234 H 871.459 -3.57122 -1.59936 0
M  V30 9235 H 871.082 -2.59692 -3.01075 0
M  V30 9236 N 872.079 0.78992 -1.36375 0
M  V30 9237 C 873.325 1.54939 -1.31778 0
M  V30 9238 C 873.68 1.92128 0.102327 0
M  V30 9239 O 872.973 1.59823 1.05675 0
M  V30 9240 C 873.167 2.83698 -2.17371 0
M  V30 9241 C 872.996 2.59093 -3.67561 0
M  V30 9242 C 871.766 2.5414 -4.36739 0
M  V30 9243 C 873.964 2.28325 -4.60838 0
M  V30 9244 N 871.946 2.21427 -5.72576 0
M  V30 9245 C 873.317 2.05596 -5.84919 0
M  V30 9246 C 875.372 2.14328 -4.49409 0
M  V30 9247 C 874.075 1.70285 -6.98853 0
M  V30 9248 C 876.101 1.80415 -5.63209 0
M  V30 9249 C 875.463 1.58533 -6.86328 0
M  V30 9250 H 871.562 0.568011 -0.537483 0
M  V30 9251 H 874.146 0.923183 -1.71422 0
M  V30 9252 H 872.317 3.44187 -1.79972 0
M  V30 9253 H 874.049 3.49425 -2.04167 0
M  V30 9254 H 870.804 2.69368 -3.89535 0
M  V30 9255 H 871.228 2.07818 -6.44314 0
M  V30 9256 H 875.87 2.29935 -3.54809 0
M  V30 9257 H 873.588 1.53415 -7.93404 0
M  V30 9258 H 877.174 1.70269 -5.56327 0
M  V30 9259 H 876.054 1.32677 -7.72895 0
M  V30 9260 N 873.557 1.20646 1.01402 0
M  V30 9261 C 874.834 0.927176 1.72229 0
M  V30 9262 C 875.214 -0.563382 2.03443 0
M  V30 9263 O 874.562 -1.52576 1.70096 0
M  V30 9264 C 874.772 1.80285 2.98828 0
M  V30 9265 C 876.12 2.04624 3.72041 0
M  V30 9266 O 877.144 1.77559 3.0879 0
M  V30 9267 O 876.003 2.50347 4.85787 0
M  V30 9268 H 873.097 0.346891 0.75073 0
M  V30 9269 H 875.643 1.31532 1.07227 0
M  V30 9270 H 874.415 2.81204 2.72102 0
M  V30 9271 H 874.038 1.41495 3.71571 0
M  V30 9272 N 875.035 -1.20752 1.01276 0
M  V30 9273 C 876.263 -1.94006 0.718976 0
M  V30 9274 C 876.678 -1.74544 -0.719711 0
M  V30 9275 O 876.035 -1.05697 -1.48776 0
M  V30 9276 C 876.086 -3.46208 1.04031 0
M  V30 9277 O 875.807 -3.65031 2.42248 0
M  V30 9278 C 877.308 -4.36614 0.767032 0
M  V30 9279 H 874.528 -0.616743 0.264327 0
M  V30 9280 H 877.072 -1.53352 1.3529 0
M  V30 9281 H 875.227 -3.84756 0.451852 0
M  V30 9282 H 875.641 -4.59054 2.53712 0
M  V30 9283 H 877.115 -5.42076 1.04198 0
M  V30 9284 H 877.592 -4.38182 -0.298851 0
M  V30 9285 H 878.198 -4.03723 1.33746 0
M  V30 9286 N 876.513 -0.788492 -1.36457 0
M  V30 9287 C 877.738 -0.371224 -2.04051 0
M  V30 9288 C 878.163 1.004 -1.59064 0
M  V30 9289 O 877.521 1.64663 -0.758679 0
M  V30 9290 C 877.569 -0.442275 -3.57877 0
M  V30 9291 O 876.673 0.55113 -4.08701 0
M  V30 9292 H 876.014 -0.157808 -0.644975 0
M  V30 9293 H 878.544 -1.06935 -1.74431 0
M  V30 9294 H 878.554 -0.305548 -4.06854 0
M  V30 9295 H 877.229 -1.44547 -3.89973 0
M  V30 9296 H 875.806 0.37614 -3.70998 0
M  V30 9297 N 877.991 1.48044 -0.54043 0
M  V30 9298 C 878.901 2.33565 0.220163 0
M  V30 9299 C 879.917 1.47146 0.928659 0
M  V30 9300 O 881.093 1.80107 0.901295 0
M  V30 9301 C 878.158 3.2349 1.2472 0
M  V30 9302 C 877.219 4.25789 0.547938 0
M  V30 9303 C 876.452 5.11417 1.52605 0
M  V30 9304 O 876.675 4.99204 2.75956 0
M  V30 9305 O 875.609 5.92498 1.05972 0
M  V30 9306 H 879.435 2.99868 -0.480898 0
M  V30 9307 H 877.02 1.46332 -0.301226 0
M  V30 9308 H 878.902 3.79084 1.84047 0
M  V30 9309 H 877.577 2.59835 1.93048 0
M  V30 9310 H 876.484 3.74001 -0.0860941 0
M  V30 9311 H 877.817 4.92111 -0.0935896 0
M  V30 9312 N 879.47 0.276058 1.55163 0
M  V30 9313 C 880.417 -0.611006 2.22565 0
M  V30 9314 C 881.387 -1.14902 1.19945 0
M  V30 9315 O 882.572 -1.19815 1.48489 0
M  V30 9316 C 879.712 -1.78885 2.95117 0
M  V30 9317 C 878.825 -1.2846 4.12458 0
M  V30 9318 C 877.96 -2.42432 4.72652 0
M  V30 9319 C 876.999 -1.89015 5.82185 0
M  V30 9320 N 876.136 -2.96463 6.36439 0
M  V30 9321 H 880.976 -0.0295849 2.97985 0
M  V30 9322 H 878.513 -0.00283607 1.471 0
M  V30 9323 H 880.471 -2.48121 3.35398 0
M  V30 9324 H 879.101 -2.34229 2.22119 0
M  V30 9325 H 878.153 -0.485312 3.77292 0
M  V30 9326 H 879.465 -0.853358 4.91446 0
M  V30 9327 H 878.619 -3.19659 5.15658 0
M  V30 9328 H 877.358 -2.88872 3.92943 0
M  V30 9329 H 876.363 -1.10267 5.38629 0
M  V30 9330 H 877.588 -1.43509 6.63763 0
M  V30 9331 H 875.534 -3.42283 5.59623 0
M  V30 9332 H 875.451 -2.57759 7.10701 0
M  V30 9333 H 876.719 -3.73663 6.84103 0
M  V30 9334 N 880.948 -1.576 0.00335426 0
M  V30 9335 C 882.188 -1.92571 -0.685253 0
M  V30 9336 C 882.552 -0.877961 -1.70751 0
M  V30 9337 O 883.753 -1.11303 -2.44673 0
M  V30 9338 C 882.024 -3.3258 -1.30863 0
M  V30 9339 S 883.583 -3.89442 -2.02189 0
M  V30 9340 H 880.401 -0.674035 -0.226268 0
M  V30 9341 H 883.003 -1.95405 0.0608461 0
M  V30 9342 H 881.707 -4.06673 -0.551837 0
M  V30 9343 H 881.238 -3.33128 -2.09259 0
M  V30 9344 H 883.253 -3.70789 -3.29742 0
M  V30 9345 N 882.426 0.269451 -1.5528 0
M  V30 9346 C 883.842 0.616827 -1.47199 0
M  V30 9347 C 884.042 1.89354 -0.68901 0
M  V30 9348 O 883.098 2.51631 -0.209287 0
M  V30 9349 C 884.411 0.740492 -2.9144 0
M  V30 9350 C 885.959 0.834312 -3.01676 0
M  V30 9351 C 886.434 0.989725 -4.47178 0
M  V30 9352 N 887.925 1.05516 -4.51022 0
M  V30 9353 C 888.66 1.19427 -5.60825 0
M  V30 9354 N 888.156 1.30035 -6.80487 0
M  V30 9355 N 889.949 1.22566 -5.48575 0
M  V30 9356 H 882.1 -0.568962 -2.04638 0
M  V30 9357 H 884.363 -0.193153 -0.928114 0
M  V30 9358 H 884.069 -0.127234 -3.5147 0
M  V30 9359 H 883.943 1.61965 -3.40657 0
M  V30 9360 H 886.33 1.6925 -2.4174 0
M  V30 9361 H 886.411 -0.0695298 -2.55705 0
M  V30 9362 H 886.055 0.136179 -5.07717 0
M  V30 9363 H 885.985 1.90827 -4.90808 0
M  V30 9364 H 888.476 0.985434 -3.64825 0
M  V30 9365 H 888.789 1.40494 -7.59922 0
M  V30 9366 H 887.134 1.27033 -6.83292 0
M  V30 9367 H 890.325 1.13911 -4.54029 0
M  V30 9368 H 890.498 1.33063 -6.34191 0
M  V30 9369 N 883.904 1.48273 0.534124 0
M  V30 9370 C 884.867 1.6201 1.62127 0
M  V30 9371 C 885.867 0.493653 1.53035 0
M  V30 9372 O 887.057 0.759337 1.56779 0
M  V30 9373 C 884.189 1.5864 3.01739 0
M  V30 9374 H 885.382 2.58944 1.51288 0
M  V30 9375 H 882.935 1.36808 0.755861 0
M  V30 9376 H 883.67 0.631685 3.18088 0
M  V30 9377 H 883.455 2.40415 3.09747 0
M  V30 9378 H 884.945 1.71438 3.80787 0
M  V30 9379 N 885.382 -0.782676 1.36792 0
M  V30 9380 C 886.793 -1.35828 1.28092 0
M  V30 9381 C 887.144 -1.96052 -0.076315 0
M  V30 9382 O 886.269 -1.93042 -0.977935 0
M  V30 9383 C 886.864 -2.46949 2.31952 0
M  V30 9384 C 885.423 -3.00307 2.2692 0
M  V30 9385 C 884.57 -1.73436 2.16368 0
M  V30 9386 H 887.521 -0.583788 1.47572 0
M  V30 9387 H 887.542 -3.26144 1.95986 0
M  V30 9388 H 887.054 -2.03087 3.30722 0
M  V30 9389 H 885.155 -3.48571 1.31639 0
M  V30 9390 H 885.268 -3.56663 3.19887 0
M  V30 9391 H 883.632 -1.95934 1.62733 0
M  V30 9392 H 884.415 -1.31693 3.17036 0
M  V30 9393 N 886.86 -1.21182 -1.00761 0
M  V30 9394 C 887.823 -0.970339 -2.07646 0
M  V30 9395 C 888.823 0.0576345 -1.60697 0
M  V30 9396 O 890.013 -0.179369 -1.73274 0
M  V30 9397 C 887.145 -0.462703 -3.37745 0
M  V30 9398 H 888.338 -1.91856 -2.30502 0
M  V30 9399 H 885.891 -1.02844 -1.17698 0
M  V30 9400 H 886.626 0.490559 -3.20568 0
M  V30 9401 H 886.411 -1.20416 -3.73152 0
M  V30 9402 H 887.901 -0.313531 -4.16421 0
M  V30 9403 N 888.338 1.20213 -1.01915 0
M  V30 9404 C 889.584 1.90203 -0.720724 0
M  V30 9405 C 889.939 1.77526 0.74178 0
M  V30 9406 O 889.232 1.15037 1.53222 0
M  V30 9407 C 889.426 3.40232 -1.09438 0
M  V30 9408 C 889.255 3.67509 -2.59167 0
M  V30 9409 C 888.025 3.86082 -3.25989 0
M  V30 9410 C 890.223 3.69863 -3.5736 0
M  V30 9411 N 888.205 4.009 -4.64922 0
M  V30 9412 C 889.576 3.90136 -4.81865 0
M  V30 9413 C 891.631 3.52839 -3.51296 0
M  V30 9414 C 890.334 3.9515 -6.0104 0
M  V30 9415 C 892.36 3.59125 -4.69875 0
M  V30 9416 C 891.722 3.79874 -5.93191 0
M  V30 9417 H 887.821 0.715556 -0.315442 0
M  V30 9418 H 890.405 1.44538 -1.30449 0
M  V30 9419 H 888.576 3.84643 -0.538933 0
M  V30 9420 H 890.308 3.97704 -0.74923 0
M  V30 9421 H 887.063 3.84569 -2.76413 0
M  V30 9422 H 887.487 4.12181 -5.37062 0
M  V30 9423 H 892.129 3.35762 -2.56951 0
M  V30 9424 H 889.847 4.11022 -6.95763 0
M  V30 9425 H 893.433 3.47257 -4.66802 0
M  V30 9426 H 892.313 3.846 -6.83412 0
M  V30 9427 N 889.816 0.795718 1.36037 0
M  V30 9428 C 891.056 0.376514 2.00902 0
M  V30 9429 C 891.42 -1.03405 1.61776 0
M  V30 9430 O 892.621 -1.55468 2.19279 0
M  V30 9431 C 890.892 0.542086 3.53265 0
M  V30 9432 S 892.451 0.211694 4.38289 0
M  V30 9433 H 889.269 0.143527 0.696363 0
M  V30 9434 H 891.871 1.03559 1.65819 0
M  V30 9435 H 890.575 1.56888 3.79229 0
M  V30 9436 H 890.106 -0.132698 3.93176 0
M  V30 9437 H 892.121 -0.98452 4.86335 0
M  V30 9438 N 891.294 -1.47756 0.548274 0
M  V30 9439 C 892.571 -1.9555 -0.0443603 0
M  V30 9440 C 892.951 -1.49079 -1.49462 0
M  V30 9441 O 892.299 -0.725538 -2.16675 0
M  V30 9442 C 892.509 -3.48879 0.0918425 0
M  V30 9443 C 893.857 -4.2456 -0.0580879 0
M  V30 9444 O 894.881 -3.56195 0.018946 0
M  V30 9445 O 893.74 -5.46048 -0.222261 0
M  V30 9446 H 890.834 -0.824106 -0.0691235 0
M  V30 9447 H 893.38 -1.58196 0.614166 0
M  V30 9448 H 892.152 -3.7548 1.10137 0
M  V30 9449 H 891.775 -3.92975 -0.604704 0
M  V30 9450 N 892.772 -0.284283 -1.55015 0
M  V30 9451 C 894.188 0.069603 -1.59448 0
M  V30 9452 C 894.388 1.53833 -1.30144 0
M  V30 9453 O 893.444 2.2886 -1.06674 0
M  V30 9454 C 894.757 -0.313287 -2.99064 0
M  V30 9455 C 896.305 -0.260662 -3.11913 0
M  V30 9456 C 896.78 -0.618127 -4.5381 0
M  V30 9457 N 898.271 -0.570026 -4.59679 0
M  V30 9458 C 899.006 -0.8193 -5.67517 0
M  V30 9459 N 898.502 -1.13367 -6.83462 0
M  V30 9460 N 900.295 -0.747482 -5.57108 0
M  V30 9461 H 892.446 -1.24167 -1.72326 0
M  V30 9462 H 894.709 -0.502259 -0.804015 0
M  V30 9463 H 894.415 -1.33509 -3.25374 0
M  V30 9464 H 894.289 0.341369 -3.75652 0
M  V30 9465 H 896.676 0.751869 -2.85361 0
M  V30 9466 H 896.757 -0.949706 -2.37517 0
M  V30 9467 H 896.401 -1.62839 -4.81088 0
M  V30 9468 H 896.331 0.092807 -5.26518 0
M  V30 9469 H 898.822 -0.3373 -3.76392 0
M  V30 9470 H 899.135 -1.3103 -7.61611 0
M  V30 9471 H 897.48 -1.17154 -6.85055 0
M  V30 9472 H 900.671 -0.501658 -4.65404 0
M  V30 9473 H 900.844 -0.945128 -6.4107 0
M  V30 9474 N 894.251 1.57596 -0.0117121 0
M  V30 9475 C 895.5 1.9025 0.669921 0
M  V30 9476 C 895.813 0.887986 1.74282 0
M  V30 9477 O 897.019 1.10516 2.47989 0
M  V30 9478 C 895.475 3.37762 1.24277 0
M  V30 9479 C 895.083 4.47535 0.204076 0
M  V30 9480 C 896.827 3.79509 1.90192 0
M  V30 9481 C 894.734 5.86132 0.787577 0
M  V30 9482 H 893.664 0.709935 0.253984 0
M  V30 9483 H 896.315 1.8335 -0.0741718 0
M  V30 9484 H 894.697 3.39537 2.03791 0
M  V30 9485 H 895.871 4.57294 -0.56733 0
M  V30 9486 H 894.186 4.14881 -0.355305 0
M  V30 9487 H 896.783 4.80402 2.34773 0
M  V30 9488 H 897.126 3.13643 2.7374 0
M  V30 9489 H 897.659 3.80084 1.17394 0
M  V30 9490 H 894.398 6.55499 -0.00938418 0
M  V30 9491 H 893.918 5.80014 1.52787 0
M  V30 9492 H 895.597 6.34158 1.28265 0
M  V30 9493 N 895.729 -0.261212 1.5542 0
M  V30 9494 C 896.659 -1.32712 1.92119 0
M  V30 9495 C 897.64 -1.50934 0.784406 0
M  V30 9496 O 898.825 -1.63781 1.04352 0
M  V30 9497 C 895.955 -2.68453 2.20341 0
M  V30 9498 C 894.909 -2.64947 3.36136 0
M  V30 9499 C 894.235 -4.04349 3.49865 0
M  V30 9500 C 895.535 -2.23182 4.72215 0
M  V30 9501 H 897.229 -1.02245 2.81401 0
M  V30 9502 H 894.775 -0.490406 1.35392 0
M  V30 9503 H 896.728 -3.43144 2.44603 0
M  V30 9504 H 895.452 -3.00527 1.27871 0
M  V30 9505 H 894.111 -1.92714 3.11861 0
M  V30 9506 H 893.759 -4.33665 2.5484 0
M  V30 9507 H 893.459 -4.02895 4.27726 0
M  V30 9508 H 894.983 -4.80761 3.76432 0
M  V30 9509 H 896.397 -2.87599 4.95943 0
M  V30 9510 H 894.794 -2.32867 5.53076 0
M  V30 9511 H 895.864 -1.18327 4.70241 0
M  V30 9512 N 897.207 -1.48554 -0.526253 0
M  V30 9513 C 898.453 -1.57972 -1.28127 0
M  V30 9514 C 898.808 -0.251973 -1.90743 0
M  V30 9515 O 898.101 0.745524 -1.76501 0
M  V30 9516 C 898.295 -2.65739 -2.38993 0
M  V30 9517 C 898.124 -4.08864 -1.87244 0
M  V30 9518 C 896.894 -4.75959 -1.6968 0
M  V30 9519 C 899.092 -4.94912 -1.39882 0
M  V30 9520 N 897.074 -6.03486 -1.12596 0
M  V30 9521 C 898.445 -6.12714 -0.947696 0
M  V30 9522 C 900.5 -4.81107 -1.2822 0
M  V30 9523 C 899.203 -7.18234 -0.391507 0
M  V30 9524 C 901.229 -5.86752 -0.740001 0
M  V30 9525 C 900.591 -7.03765 -0.298968 0
M  V30 9526 H 896.69 -0.632588 -0.459735 0
M  V30 9527 H 899.274 -1.85452 -0.59294 0
M  V30 9528 H 897.445 -2.40075 -3.05317 0
M  V30 9529 H 899.177 -2.64821 -3.06026 0
M  V30 9530 H 895.932 -4.32351 -1.93312 0
M  V30 9531 H 896.356 -6.71509 -0.860541 0
M  V30 9532 H 900.998 -3.90978 -1.60922 0
M  V30 9533 H 898.716 -8.08083 -0.0521685 0
M  V30 9534 H 902.302 -5.78125 -0.652889 0
M  V30 9535 H 901.182 -7.84117 0.114052 0
M  V30 9536 N 898.685 0.775411 -1.37205 0
M  V30 9537 C 899.632 1.88857 -1.32671 0
M  V30 9538 C 900.602 1.64976 -0.192899 0
M  V30 9539 O 901.787 1.86944 -0.381673 0
M  V30 9540 C 898.927 3.25871 -1.13588 0
M  V30 9541 C 898.04 3.61731 -2.36167 0
M  V30 9542 C 897.175 4.87934 -2.09985 0
M  V30 9543 C 896.214 5.16514 -3.2845 0
M  V30 9544 N 895.351 6.33905 -3.01842 0
M  V30 9545 H 900.191 1.92068 -2.27846 0
M  V30 9546 H 897.728 0.939066 -1.13225 0
M  V30 9547 H 899.686 4.04903 -1.00546 0
M  V30 9548 H 898.316 3.22045 -0.220613 0
M  V30 9549 H 897.368 2.77712 -2.59962 0
M  V30 9550 H 898.68 3.78792 -3.24528 0
M  V30 9551 H 897.834 5.74863 -1.93953 0
M  V30 9552 H 896.573 4.7297 -1.18956 0
M  V30 9553 H 895.578 4.28063 -3.45025 0
M  V30 9554 H 896.803 5.33389 -4.20325 0
M  V30 9555 H 894.749 6.20306 -2.13439 0
M  V30 9556 H 894.666 6.51364 -3.83746 0
M  V30 9557 H 895.934 7.23779 -2.8942 0
M  V30 9558 N 900.163 1.21714 1.00117 0
M  V30 9559 C 901.411 1.03465 1.73607 0
M  V30 9560 C 901.732 -0.432295 1.90148 0
M  V30 9561 O 901.002 -1.31157 1.45515 0
M  V30 9562 H 899.582 0.379857 0.643209 0
M  V30 9563 H 902.244 1.53088 1.20624 0
M  V30 9564 H 901.34 1.50574 2.73375 0
M  V30 9565 N 901.641 -1.19671 1.02551 0
M  V30 9566 C 902.588 -2.22773 0.603394 0
M  V30 9567 C 903.558 -1.61669 -0.381081 0
M  V30 9568 O 904.743 -1.88756 -0.278505 0
M  V30 9569 C 901.883 -3.45073 -0.0431034 0
M  V30 9570 C 900.996 -4.20574 0.987006 0
M  V30 9571 C 900.131 -5.30291 0.310626 0
M  V30 9572 C 899.17 -5.97545 1.32688 0
M  V30 9573 N 898.307 -6.98833 0.676542 0
M  V30 9574 H 903.147 -2.58238 1.48719 0
M  V30 9575 H 900.684 -1.26881 0.744286 0
M  V30 9576 H 902.642 -4.14925 -0.435141 0
M  V30 9577 H 901.272 -3.10274 -0.890495 0
M  V30 9578 H 900.324 -3.497 1.49713 0
M  V30 9579 H 901.636 -4.66736 1.75952 0
M  V30 9580 H 900.79 -6.06547 -0.136438 0
M  V30 9581 H 899.529 -4.8519 -0.49412 0
M  V30 9582 H 898.534 -5.20043 1.78424 0
M  V30 9583 H 899.759 -6.4473 2.13306 0
M  V30 9584 H 897.705 -6.55911 -0.108172 0
M  V30 9585 H 897.622 -7.43168 1.38699 0
M  V30 9586 H 898.89 -7.79088 0.253367 0
M  V30 9587 N 903.119 -0.802921 -1.35613 0
M  V30 9588 C 904.067 -0.198783 -2.31749 0
M  V30 9589 C 905.061 0.649416 -1.56458 0
M  V30 9590 O 906.267 0.542989 -1.71615 0
M  V30 9591 H 902.642 -0.0455177 -0.750621 0
M  V30 9592 H 904.613 -1.02479 -2.80251 0
M  V30 9593 C 903.362 0.641066 -3.41739 0
M  V30 9594 H 902.685 -0.00226244 -3.998 0
M  V30 9595 H 904.125 1.03022 -4.11294 0
M  V30 9596 C 902.584 1.80505 -2.84464 0
M  V30 9597 O 903.114 2.90235 -2.77717 0
M  V30 9598 N 901.32 1.61542 -2.41563 0
M  V30 9599 H 900.867 0.722863 -2.4725 0
M  V30 9600 H 900.825 2.39581 -2.03589 0
M  V30 9601 N 904.597 1.47463 -0.556102 0
M  V30 9602 C 905.846 2.01678 -0.029492 0
M  V30 9603 C 906.159 1.436 1.32809 0
M  V30 9604 O 907.365 1.89472 1.94455 0
M  V30 9605 C 905.821 3.599 -0.00223937 0
M  V30 9606 C 905.429 4.26969 -1.35651 0
M  V30 9607 C 907.173 4.2187 0.471822 0
M  V30 9608 C 905.08 5.77194 -1.28843 0
M  V30 9609 H 904.01 0.753965 -0.00725504 0
M  V30 9610 H 906.661 1.69467 -0.703789 0
M  V30 9611 H 905.043 3.89068 0.737682 0
M  V30 9612 H 906.217 4.09444 -2.11406 0
M  V30 9613 H 904.532 3.76983 -1.76842 0
M  V30 9614 H 907.129 5.31955 0.541139 0
M  V30 9615 H 907.472 3.88968 1.48356 0
M  V30 9616 H 908.005 3.97228 -0.213207 0
M  V30 9617 H 904.744 6.14713 -2.27613 0
M  V30 9618 H 904.264 5.9706 -0.572668 0
M  V30 9619 H 905.943 6.3938 -0.990031 0
M  V30 9620 N 906.075 0.2925 1.54862 0
M  V30 9621 C 907.303 -0.322113 2.04377 0
M  V30 9622 C 907.718 -1.48164 1.17016 0
M  V30 9623 O 907.075 -1.81466 0.19395 0
M  V30 9624 C 907.126 -0.786506 3.5284 0
M  V30 9625 O 906.847 0.326863 4.36879 0
M  V30 9626 C 908.348 -1.46715 4.18318 0
M  V30 9627 H 905.568 -0.0712074 0.667211 0
M  V30 9628 H 908.112 0.429657 1.99935 0
M  V30 9629 H 906.267 -1.48832 3.5767 0
M  V30 9630 H 906.681 -0.0331558 5.2449 0
M  V30 9631 H 908.155 -1.74333 5.23748 0
M  V30 9632 H 908.632 -2.40443 3.67538 0
M  V30 9633 H 909.238 -0.808735 4.1754 0
M  V30 9634 N 907.553 -1.57587 0.0200696 0
M  V30 9635 C 908.485 -2.06555 -0.993359 0
M  V30 9636 C 909.498 -0.987227 -1.29451 0
M  V30 9637 O 910.687 -1.26361 -1.26075 0
M  V30 9638 C 907.787 -2.4675 -2.3231 0
M  V30 9639 C 906.96 -3.77554 -2.20843 0
M  V30 9640 C 906.019 -4.04397 -3.36674 0
M  V30 9641 O 905.045 -4.7478 -3.13963 0
M  V30 9642 N 906.247 -3.53861 -4.60176 0
M  V30 9643 H 909.012 -2.9412 -0.575617 0
M  V30 9644 H 906.573 -1.61038 -0.166889 0
M  V30 9645 H 908.565 -2.61806 -3.08609 0
M  V30 9646 H 907.135 -1.64598 -2.65756 0
M  V30 9647 H 906.355 -3.72382 -1.29327 0
M  V30 9648 H 907.643 -4.63271 -2.10375 0
M  V30 9649 H 907.041 -2.96904 -4.81523 0
M  V30 9650 H 905.598 -3.74213 -5.33674 0
M  V30 9651 N 909.032 0.252966 -1.55557 0
M  V30 9652 C 909.962 1.31691 -1.9282 0
M  V30 9653 C 910.943 1.50516 -0.7924 0
M  V30 9654 O 912.128 1.63225 -1.05219 0
M  V30 9655 C 909.258 2.67281 -2.21762 0
M  V30 9656 C 908.212 2.6316 -3.37536 0
M  V30 9657 C 907.538 4.02488 -3.52005 0
M  V30 9658 C 908.838 2.20675 -4.73392 0
M  V30 9659 H 910.532 1.00751 -2.81939 0
M  V30 9660 H 908.078 0.483219 -1.3565 0
M  V30 9661 H 910.031 3.41842 -2.46419 0
M  V30 9662 H 908.755 2.99845 -1.29463 0
M  V30 9663 H 907.414 1.91057 -3.12878 0
M  V30 9664 H 907.062 4.32307 -2.57137 0
M  V30 9665 H 906.762 4.00621 -4.29857 0
M  V30 9666 H 908.286 4.78758 -3.78977 0
M  V30 9667 H 909.7 2.84965 -4.97461 0
M  V30 9668 H 908.097 2.29931 -5.54303 0
M  V30 9669 H 909.167 1.15831 -4.70862 0
M  V30 9670 N 910.51 1.48831 0.518367 0
M  V30 9671 C 911.735 1.61379 1.30275 0
M  V30 9672 C 912.16 0.278571 1.86026 0
M  V30 9673 O 911.518 -0.751427 1.64995 0
M  V30 9674 C 911.566 2.67225 2.42122 0
M  V30 9675 O 910.67 2.25192 3.45489 0
M  V30 9676 H 910.011 0.540742 0.385349 0
M  V30 9677 H 912.541 1.949 0.622498 0
M  V30 9678 H 912.551 2.88859 2.8814 0
M  V30 9679 H 911.226 3.64155 2.00907 0
M  V30 9680 H 909.803 2.13819 3.05509 0
M  V30 9681 N 911.988 -0.768124 1.37614 0
M  V30 9682 C 913.218 -1.555 1.36027 0
M  V30 9683 C 913.626 -1.89119 -0.0554273 0
M  V30 9684 O 912.969 -1.52203 -1.02859 0
M  V30 9685 C 913.031 -2.8906 2.13739 0
M  V30 9686 C 912.695 -2.78058 3.62674 0
M  V30 9687 C 913.692 -2.48841 4.5648 0
M  V30 9688 C 911.377 -2.95966 4.05844 0
M  V30 9689 C 913.371 -2.37665 5.91434 0
M  V30 9690 C 911.058 -2.84411 5.40882 0
M  V30 9691 C 912.056 -2.55301 6.33491 0
M  V30 9692 O 911.744 -2.43779 7.66046 0
M  V30 9693 H 911.476 -0.488263 0.467521 0
M  V30 9694 H 914.03 -0.959583 1.81607 0
M  V30 9695 H 912.26 -3.50735 1.62854 0
M  V30 9696 H 913.949 -3.5048 2.04741 0
M  V30 9697 H 914.715 -2.34687 4.24437 0
M  V30 9698 H 910.594 -3.17625 3.34119 0
M  V30 9699 H 914.138 -2.14865 6.63686 0
M  V30 9700 H 910.035 -2.98134 5.72527 0
M  V30 9701 H 910.803 -2.59101 7.76408 0
M  V30 9702 N 913.466 -1.22244 -0.994698 0
M  V30 9703 C 914.398 -0.948706 -2.08644 0
M  V30 9704 C 915.411 0.0720049 -1.62641 0
M  V30 9705 O 916.6 -0.161778 -1.77765 0
M  V30 9706 C 913.7 -0.404885 -3.36473 0
M  V30 9707 C 912.873 -1.48239 -4.11514 0
M  V30 9708 C 911.932 -0.94597 -5.17627 0
M  V30 9709 O 910.958 -1.63177 -5.45309 0
M  V30 9710 N 912.16 0.23355 -5.8003 0
M  V30 9711 H 914.925 -1.88858 -2.32707 0
M  V30 9712 H 912.486 -1.12908 -1.16032 0
M  V30 9713 H 914.478 -0.0313903 -4.04688 0
M  V30 9714 H 913.048 0.440061 -3.09487 0
M  V30 9715 H 912.268 -2.02928 -3.37955 0
M  V30 9716 H 913.556 -2.20741 -4.58422 0
M  V30 9717 H 912.954 0.80756 -5.59906 0
M  V30 9718 H 911.511 0.54845 -6.49488 0
M  V30 9719 N 914.944 1.19125 -1.03184 0
M  V30 9720 C 916.169 1.93379 -0.749628 0
M  V30 9721 C 916.594 1.75153 0.685785 0
M  V30 9722 O 915.952 1.05579 1.47386 0
M  V30 9723 C 916 3.43101 -1.1097 0
M  V30 9724 O 915.104 4.11758 -0.230053 0
M  V30 9725 H 914.445 0.603605 -0.276689 0
M  V30 9726 H 916.975 1.51116 -1.37931 0
M  V30 9727 H 916.985 3.93778 -1.06785 0
M  V30 9728 H 915.66 3.55688 -2.15544 0
M  V30 9729 H 914.237 3.7143 -0.330748 0
M  V30 9730 N 916.422 0.810101 1.35185 0
M  V30 9731 C 917.372 0.195541 2.2716 0
M  V30 9732 C 918.356 -0.632691 1.47939 0
M  V30 9733 O 919.548 -0.489372 1.701 0
M  V30 9734 C 916.677 -0.652164 3.37049 0
M  V30 9735 C 915.763 0.185989 4.23692 0
M  V30 9736 N 916.154 1.25073 4.90092 0
M  V30 9737 C 914.452 -0.0318033 4.45989 0
M  V30 9738 C 915.153 1.76272 5.54349 0
M  V30 9739 N 914.129 1.06861 5.32993 0
M  V30 9740 H 917.931 1.01018 2.75994 0
M  V30 9741 H 915.445 0.651612 1.48754 0
M  V30 9742 H 917.442 -1.10851 4.01893 0
M  V30 9743 H 916.102 -1.46511 2.89767 0
M  V30 9744 H 917.113 1.63341 4.91467 0
M  V30 9745 H 913.79 -0.813607 4.09496 0
M  V30 9746 H 915.18 2.65278 6.17315 0
M  V30 9747 N 917.9 -1.47166 0.563914 0
M  V30 9748 C 918.833 -2.27058 -0.227989 0
M  V30 9749 C 919.811 -1.34468 -0.914179 0
M  V30 9750 O 920.995 -1.63857 -0.931829 0
M  V30 9751 C 918.122 -3.11689 -1.32543 0
M  V30 9752 C 917.168 -4.19906 -0.747084 0
M  V30 9753 S 918.001 -5.33916 0.41153 0
M  V30 9754 C 919.157 -6.22112 -0.687566 0
M  V30 9755 H 919.39 -2.93876 0.449939 0
M  V30 9756 H 916.923 -1.50372 0.350382 0
M  V30 9757 H 918.881 -3.61017 -1.95389 0
M  V30 9758 H 917.542 -2.44221 -1.97522 0
M  V30 9759 H 916.735 -4.78876 -1.57141 0
M  V30 9760 H 916.337 -3.73493 -0.194671 0
M  V30 9761 H 918.629 -6.58867 -1.578 0
M  V30 9762 H 919.572 -7.07971 -0.135058 0
M  V30 9763 H 919.98 -5.55871 -0.983255 0
M  V30 9764 N 919.378 -0.300708 -1.54705 0
M  V30 9765 C 920.341 0.562648 -2.22187 0
M  V30 9766 C 921.341 1.06152 -1.20782 0
M  V30 9767 O 922.531 0.957596 -1.45519 0
M  V30 9768 C 919.663 1.77899 -2.908 0
M  V30 9769 H 920.856 -0.0269361 -2.99888 0
M  V30 9770 H 918.409 -0.0515412 -1.56215 0
M  V30 9771 H 919.144 2.40841 -2.17177 0
M  V30 9772 H 918.929 1.42892 -3.65136 0
M  V30 9773 H 920.419 2.39236 -3.42281 0
M  V30 9774 N 920.856 1.57574 -0.0284266 0
M  V30 9775 C 921.786 2.1321 0.952039 0
M  V30 9776 C 922.767 1.04806 1.33977 0
M  V30 9777 O 923.952 1.32635 1.41851 0
M  V30 9778 C 921.082 2.65862 2.23461 0
M  V30 9779 C 920.036 3.79047 1.98765 0
M  V30 9780 C 919.362 4.18124 3.33281 0
M  V30 9781 C 920.662 5.05151 1.32739 0
M  V30 9782 H 922.356 2.95385 0.488705 0
M  V30 9783 H 919.902 1.42092 0.233628 0
M  V30 9784 H 921.855 3.03417 2.92431 0
M  V30 9785 H 920.579 1.80848 2.71959 0
M  V30 9786 H 919.238 3.41929 1.32213 0
M  V30 9787 H 918.886 3.30092 3.79537 0
M  V30 9788 H 918.586 4.94396 3.17563 0
M  V30 9789 H 920.11 4.58262 4.0352 0
M  V30 9790 H 921.524 5.40297 1.91708 0
M  V30 9791 H 919.921 5.86416 1.27421 0
M  V30 9792 H 920.991 4.83969 0.300261 0
M  V30 9793 N 922.334 -0.244713 1.55689 0
M  V30 9794 C 923.281 -1.30301 1.905 0
M  V30 9795 C 924.251 -1.4772 0.759478 0
M  V30 9796 O 925.436 -1.61667 1.01333 0
M  V30 9797 C 922.576 -2.653 2.20703 0
M  V30 9798 C 921.689 -2.55872 3.48071 0
M  V30 9799 C 920.824 -3.83238 3.67834 0
M  V30 9800 C 919.863 -3.68436 4.88796 0
M  V30 9801 N 919 -4.877 5.05068 0
M  V30 9802 H 923.84 -0.999143 2.80751 0
M  V30 9803 H 921.377 -0.482099 1.38976 0
M  V30 9804 H 923.335 -3.43884 2.36219 0
M  V30 9805 H 921.965 -2.93831 1.33653 0
M  V30 9806 H 921.017 -1.68846 3.40874 0
M  V30 9807 H 922.329 -2.40845 4.36801 0
M  V30 9808 H 921.483 -4.70266 3.83321 0
M  V30 9809 H 920.222 -4.01165 2.77341 0
M  V30 9810 H 919.227 -2.79793 4.73282 0
M  V30 9811 H 920.452 -3.52003 5.8075 0
M  V30 9812 H 918.398 -5.05983 4.17513 0
M  V30 9813 H 918.315 -4.75312 5.8789 0
M  V30 9814 H 919.583 -5.76219 5.24969 0
M  V30 9815 N 923.813 -1.49104 -0.510467 0
M  V30 9816 C 925.041 -1.61806 -1.28944 0
M  V30 9817 C 925.456 -0.285774 -1.86625 0
M  V30 9818 O 924.813 0.727551 -1.67371 0
M  V30 9819 C 924.864 -2.67966 -2.42645 0
M  V30 9820 O 924.585 -3.96026 -1.87337 0
M  V30 9821 C 926.086 -2.91286 -3.34166 0
M  V30 9822 H 923.306 -0.544999 -0.391429 0
M  V30 9823 H 925.85 -1.95071 -0.613805 0
M  V30 9824 H 924.005 -2.37505 -3.06056 0
M  V30 9825 H 924.419 -4.54427 -2.61909 0
M  V30 9826 H 925.893 -3.69323 -4.1025 0
M  V30 9827 H 926.37 -2.00842 -3.90588 0
M  V30 9828 H 926.976 -3.23127 -2.76531 0
M  V30 9829 N 925.291 0.760815 -1.38019 0
M  V30 9830 C 926.516 1.55513 -1.37224 0
M  V30 9831 C 926.941 1.88062 0.037611 0
M  V30 9832 O 926.299 1.50042 1.0177 0
M  V30 9833 C 926.347 2.83539 -2.22796 0
M  V30 9834 O 925.451 3.78384 -1.64009 0
M  V30 9835 H 924.792 0.470642 -0.468393 0
M  V30 9836 H 927.322 0.940792 -1.81687 0
M  V30 9837 H 927.332 3.32535 -2.36399 0
M  V30 9838 H 926.007 2.59178 -3.25269 0
M  V30 9839 H 924.584 3.37063 -1.59508 0
M  V30 9840 N 926.769 1.22769 0.988202 0
M  V30 9841 C 928.046 0.9635 1.70223 0
M  V30 9842 C 928.426 -0.520102 2.04593 0
M  V30 9843 O 927.774 -1.48934 1.73295 0
M  V30 9844 C 927.984 1.86583 2.94937 0
M  V30 9845 C 929.332 2.12469 3.67616 0
M  V30 9846 O 930.356 1.84069 3.04954 0
M  V30 9847 O 929.215 2.60595 4.80367 0
M  V30 9848 H 926.309 0.362737 0.743203 0
M  V30 9849 H 928.855 1.33776 1.04412 0
M  V30 9850 H 927.627 2.86913 2.66077 0
M  V30 9851 H 927.25 1.49344 3.68486 0
M  V30 9852 N 928.247 -1.18576 1.03814 0
M  V30 9853 C 929.197 -2.20034 0.597409 0
M  V30 9854 C 930.181 -1.56849 -0.358796 0
M  V30 9855 O 931.373 -1.761 -0.178262 0
M  V30 9856 C 928.502 -3.43276 -0.0407965 0
M  V30 9857 C 927.588 -4.13588 0.938404 0
M  V30 9858 N 927.979 -4.59941 2.10447 0
M  V30 9859 C 926.277 -4.3941 0.763853 0
M  V30 9860 C 926.978 -5.1404 2.72282 0
M  V30 9861 N 925.954 -5.05401 2.00176 0
M  V30 9862 H 929.756 -2.53562 1.48606 0
M  V30 9863 H 927.27 -1.34753 0.906384 0
M  V30 9864 H 929.267 -4.15217 -0.374222 0
M  V30 9865 H 927.927 -3.11245 -0.925014 0
M  V30 9866 H 928.938 -4.54471 2.48347 0
M  V30 9867 H 925.615 -4.1744 -0.0704869 0
M  V30 9868 H 927.005 -5.60128 3.71088 0
M  V30 9869 N 929.725 -0.817259 -1.34754 0
M  V30 9870 C 930.672 -0.233108 -2.2962 0
M  V30 9871 C 931.642 0.638902 -1.53321 0
M  V30 9872 O 932.827 0.581739 -1.81715 0
M  V30 9873 C 929.967 0.603659 -3.39779 0
M  V30 9874 C 929.08 -0.289967 -4.31026 0
M  V30 9875 C 928.215 0.555825 -5.28284 0
M  V30 9876 C 927.254 -0.337539 -6.11169 0
M  V30 9877 N 926.391 0.468847 -7.00533 0
M  V30 9878 H 931.231 -1.04747 -2.78984 0
M  V30 9879 H 928.768 -0.528056 -1.37295 0
M  V30 9880 H 930.726 1.10407 -4.02326 0
M  V30 9881 H 929.356 1.38319 -2.91664 0
M  V30 9882 H 928.408 -0.908552 -3.69391 0
M  V30 9883 H 929.72 -0.977136 -4.89135 0
M  V30 9884 H 928.874 1.12094 -5.96255 0
M  V30 9885 H 927.613 1.27652 -4.70698 0
M  V30 9886 H 926.618 -0.914839 -5.42135 0
M  V30 9887 H 927.843 -1.05626 -6.70835 0
M  V30 9888 H 925.789 1.17332 -6.45422 0
M  V30 9889 H 925.706 -0.160052 -7.55831 0
M  V30 9890 H 926.974 1.01689 -7.72839 0
M  V30 9891 N 931.203 1.46865 -0.571711 0
M  V30 9892 C 932.614 1.86158 -0.142181 0
M  V30 9893 C 932.965 1.47663 1.2919 0
M  V30 9894 O 932.09 0.886393 1.97413 0
M  V30 9895 C 932.685 3.37867 -0.251256 0
M  V30 9896 C 931.244 3.76198 0.123329 0
M  V30 9897 C 930.391 2.70902 -0.592232 0
M  V30 9898 H 933.342 1.38176 -0.780587 0
M  V30 9899 H 933.363 3.76842 0.526331 0
M  V30 9900 H 932.875 3.65853 -1.2951 0
M  V30 9901 H 930.976 3.53829 1.16773 0
M  V30 9902 H 931.089 4.78471 -0.24533 0
M  V30 9903 H 929.453 2.54678 -0.0336927 0
M  V30 9904 H 930.236 3.01729 -1.63751 0
M  V30 9905 N 932.681 0.308908 1.54543 0
M  V30 9906 C 933.927 -0.298478 2.00592 0
M  V30 9907 C 934.26 -1.52929 1.19692 0
M  V30 9908 O 933.535 -1.9254 0.27542 0
M  V30 9909 C 933.818 -0.647218 3.54236 0
M  V30 9910 C 933.671 0.593284 4.4587 0
M  V30 9911 C 934.99 -1.47064 4.14801 0
M  V30 9912 H 932.109 -0.107012 0.72919 0
M  V30 9913 H 934.751 0.422578 1.85241 0
M  V30 9914 H 932.901 -1.26153 3.67447 0
M  V30 9915 H 934.573 1.2317 4.44552 0
M  V30 9916 H 932.816 1.22501 4.16144 0
M  V30 9917 H 933.487 0.305018 5.51157 0
M  V30 9918 H 935.963 -0.951511 4.05075 0
M  V30 9919 H 934.839 -1.68343 5.22448 0
M  V30 9920 H 935.1 -2.4623 3.67183 0
M  V30 9921 N 934.159 -1.57557 0.0367827 0
M  V30 9922 C 935.384 -1.96828 -0.653707 0
M  V30 9923 C 935.809 -0.913559 -1.64425 0
M  V30 9924 O 935.167 0.124749 -1.8087 0
M  V30 9925 C 935.215 -3.35189 -1.32969 0
M  V30 9926 O 934.319 -3.32095 -2.44513 0
M  V30 9927 H 933.66 -0.64157 -0.171124 0
M  V30 9928 H 936.19 -2.04351 0.100912 0
M  V30 9929 H 936.2 -3.71593 -1.68472 0
M  V30 9930 H 934.875 -4.11496 -0.603654 0
M  V30 9931 H 933.452 -3.07418 -2.11065 0
M  V30 9932 N 935.637 0.236453 -1.55816 0
M  V30 9933 C 936.862 0.98449 -1.82545 0
M  V30 9934 C 937.287 1.77755 -0.615206 0
M  V30 9935 O 936.645 1.75982 0.435895 0
M  V30 9936 C 936.693 1.88973 -3.07118 0
M  V30 9937 O 935.797 2.98298 -2.84766 0
M  V30 9938 H 935.138 0.279577 -0.602273 0
M  V30 9939 H 937.668 0.254277 -2.03014 0
M  V30 9940 H 937.678 2.3024 -3.36829 0
M  V30 9941 H 936.353 1.30671 -3.94839 0
M  V30 9942 H 934.93 2.61085 -2.6625 0
M  V30 9943 N 937.115 1.49373 0.502552 0
M  V30 9944 C 938.361 1.59016 1.25864 0
M  V30 9945 C 938.694 0.27532 1.92238 0
M  V30 9946 O 937.969 -0.720988 1.80643 0
M  V30 9947 C 938.252 2.74828 2.32683 0
M  V30 9948 C 938.105 4.16102 1.7082 0
M  V30 9949 C 939.424 2.86288 3.34256 0
M  V30 9950 H 936.543 0.578798 0.456248 0
M  V30 9951 H 939.185 1.81651 0.557032 0
M  V30 9952 H 937.335 2.5566 2.92524 0
M  V30 9953 H 939.007 4.46782 1.14818 0
M  V30 9954 H 937.25 4.21822 1.01238 0
M  V30 9955 H 937.921 4.93006 2.48292 0
M  V30 9956 H 940.397 3.03733 2.84404 0
M  V30 9957 H 939.273 3.69001 4.06362 0
M  V30 9958 H 939.534 1.95576 3.96488 0
M  V30 9959 N 938.594 -0.753485 1.38421 0
M  V30 9960 C 939.841 -1.51261 1.34634 0
M  V30 9961 C 940.169 -1.94396 -0.0635771 0
M  V30 9962 O 939.424 -1.65736 -1.04068 0
M  V30 9963 C 939.723 -2.77836 2.24816 0
M  V30 9964 C 939.389 -2.53662 3.72782 0
M  V30 9965 C 938.051 -2.46779 4.13103 0
M  V30 9966 C 940.403 -2.32548 4.66445 0
M  V30 9967 C 937.731 -2.16796 5.45176 0
M  V30 9968 C 940.083 -2.04085 5.98775 0
M  V30 9969 C 938.747 -1.95658 6.3818 0
M  V30 9970 H 938.017 -0.553503 0.492661 0
M  V30 9971 H 940.664 -0.866406 1.7078 0
M  V30 9972 H 938.969 -3.47106 1.81726 0
M  V30 9973 H 940.666 -3.35793 2.19189 0
M  V30 9974 H 937.256 -2.59891 3.40815 0
M  V30 9975 H 941.44 -2.36845 4.3614 0
M  V30 9976 H 936.696 -2.0878 5.74648 0
M  V30 9977 H 940.87 -1.86751 6.70893 0
M  V30 9978 H 938.497 -1.7219 7.40442 0
M  V30 9979 N 940.072 -1.23292 -0.981677 0
M  V30 9980 C 941.349 -0.972514 -1.6971 0
M  V30 9981 C 941.729 0.509244 -2.04866 0
M  V30 9982 O 941.077 1.48013 -1.74082 0
M  V30 9983 C 941.287 -1.88144 -2.93943 0
M  V30 9984 C 942.635 -2.14416 -3.66485 0
M  V30 9985 O 943.659 -1.85684 -3.03974 0
M  V30 9986 O 942.518 -2.63139 -4.78978 0
M  V30 9987 H 939.612 -0.366673 -0.741269 0
M  V30 9988 H 942.158 -1.34328 -1.03701 0
M  V30 9989 H 940.93 -2.8832 -2.64551 0
M  V30 9990 H 940.553 -1.51296 -3.67689 0
M  V30 9991 N 941.55 1.18024 -1.04442 0
M  V30 9992 C 942.799 1.8743 -0.745185 0
M  V30 9993 C 943.112 1.81459 0.730206 0
M  V30 9994 O 944.318 2.46263 1.1431 0
M  V30 9995 C 942.774 3.36266 -1.28271 0
M  V30 9996 C 942.382 3.50757 -2.787 0
M  V30 9997 C 944.126 4.11048 -1.06018 0
M  V30 9998 C 942.033 4.93573 -3.25791 0
M  V30 9999 H 940.963 0.702038 -0.27506 0
M  V30 10000 H 943.614 1.33333 -1.26073 0
M  V30 10001 H 941.996 3.89853 -0.695002 0
M  V30 10002 H 943.17 3.07423 -3.43261 0
M  V30 10003 H 941.485 2.89385 -2.99408 0
M  V30 10004 H 944.082 5.16395 -1.38711 0
M  V30 10005 H 944.425 4.163 0.00241716 0
M  V30 10006 H 944.958 3.63644 -1.61269 0
M  V30 10007 H 941.697 4.93491 -4.31447 0
M  V30 10008 H 941.217 5.37607 -2.65968 0
M  V30 10009 H 942.896 5.62307 -3.20031 0
M  V30 10010 N 943.028 0.824394 1.34319 0
M  V30 10011 C 944.276 0.41235 1.97849 0
M  V30 10012 C 944.597 -1.02841 1.65677 0
M  V30 10013 O 943.867 -1.71421 0.948245 0
M  V30 10014 H 942.447 0.149486 0.73189 0
M  V30 10015 H 945.109 1.05416 1.63931 0
M  V30 10016 H 944.205 0.532557 3.07523 0
M  V30 10017 N 944.506 -1.46559 0.579492 0
M  V30 10018 C 945.752 -2.02699 0.0639363 0
M  V30 10019 C 946.085 -1.4504 -1.29139 0
M  V30 10020 O 945.36 -0.614284 -1.84545 0
M  V30 10021 C 945.643 -3.601 -0.00528618 0
M  V30 10022 C 945.496 -4.28149 1.37871 0
M  V30 10023 C 946.815 -4.34375 -0.707537 0
M  V30 10024 H 943.934 -0.736586 0.0247085 0
M  V30 10025 H 946.576 -1.74739 0.746071 0
M  V30 10026 H 944.726 -3.84052 -0.586206 0
M  V30 10027 H 946.398 -4.1547 2.00455 0
M  V30 10028 H 944.641 -3.87636 1.94732 0
M  V30 10029 H 945.312 -5.36888 1.28278 0
M  V30 10030 H 947.788 -4.15549 -0.214064 0
M  V30 10031 H 946.664 -5.44091 -0.724992 0
M  V30 10032 H 946.925 -4.052 -1.7682 0
M  V30 10033 N 945.984 -0.3171 -1.54377 0
M  V30 10034 C 947.4 0.035766 -1.5956 0
M  V30 10035 C 947.6 1.51038 -1.33378 0
M  V30 10036 O 946.656 2.26546 -1.11505 0
M  V30 10037 C 947.969 -0.376652 -2.98332 0
M  V30 10038 C 949.517 -0.326765 -3.1129 0
M  V30 10039 C 949.992 -0.714247 -4.52396 0
M  V30 10040 N 951.483 -0.667402 -4.58367 0
M  V30 10041 C 952.218 -0.939494 -5.65651 0
M  V30 10042 N 951.714 -1.27839 -6.80903 0
M  V30 10043 N 953.507 -0.865484 -5.55397 0
M  V30 10044 H 945.658 -1.27794 -1.69654 0
M  V30 10045 H 947.921 -0.5192 -0.79318 0
M  V30 10046 H 947.627 -1.40381 -3.22469 0
M  V30 10047 H 947.501 0.261611 -3.76292 0
M  V30 10048 H 949.888 0.69117 -2.86892 0
M  V30 10049 H 949.969 -0.999873 -2.35449 0
M  V30 10050 H 949.613 -1.73007 -4.77526 0
M  V30 10051 H 949.543 -0.0188962 -5.26597 0
M  V30 10052 H 952.034 -0.417062 -3.75592 0
M  V30 10053 H 952.347 -1.47155 -7.5866 0
M  V30 10054 H 950.692 -1.31658 -6.82416 0
M  V30 10055 H 953.883 -0.600265 -4.64235 0
M  V30 10056 H 954.056 -1.0809 -6.38921 0
M  V30 10057 N 947.462 1.57535 -0.0451378 0
M  V30 10058 C 948.708 1.92736 0.630921 0
M  V30 10059 C 949.041 0.923265 1.70849 0
M  V30 10060 O 948.316 -0.0516512 1.94431 0
M  V30 10061 C 948.599 3.38348 1.23259 0
M  V30 10062 C 948.452 4.49503 0.16349 0
M  V30 10063 C 949.771 3.84233 2.14599 0
M  V30 10064 H 946.89 0.700884 0.227883 0
M  V30 10065 H 949.532 1.89706 -0.10567 0
M  V30 10066 H 947.682 3.41061 1.86037 0
M  V30 10067 H 949.354 4.58919 -0.46808 0
M  V30 10068 H 947.597 4.30802 -0.509166 0
M  V30 10069 H 948.268 5.48457 0.624382 0
M  V30 10070 H 950.744 3.83358 1.6179 0
M  V30 10071 H 949.62 4.86781 2.53644 0
M  V30 10072 H 949.881 3.20646 3.04366 0
M  V30 10073 N 948.94 -0.228186 1.55939 0
M  V30 10074 C 950.186 -0.954964 1.78909 0
M  V30 10075 C 950.519 -1.8425 0.613648 0
M  V30 10076 O 949.794 -1.90604 -0.38737 0
M  V30 10077 C 950.077 -1.79957 3.1191 0
M  V30 10078 C 949.93 -0.938968 4.3989 0
M  V30 10079 C 951.249 -2.77859 3.41295 0
M  V30 10080 H 948.368 -0.345745 0.650868 0
M  V30 10081 H 951.01 -0.224244 1.88672 0
M  V30 10082 H 949.16 -2.42256 3.03717 0
M  V30 10083 H 950.832 -0.333225 4.60095 0
M  V30 10084 H 949.075 -0.244096 4.33113 0
M  V30 10085 H 949.746 -1.56416 5.29375 0
M  V30 10086 H 952.222 -2.25695 3.49572 0
M  V30 10087 H 951.098 -3.34062 4.35538 0
M  V30 10088 H 951.359 -3.55266 2.63132 0
M  V30 10089 N 950.418 -1.49637 -0.494624 0
M  V30 10090 C 951.366 -1.6727 -1.61627 0
M  V30 10091 C 952.36 -0.538587 -1.6061 0
M  V30 10092 O 953.566 -0.718411 -1.65042 0
M  V30 10093 H 949.941 -0.527557 -0.535899 0
M  V30 10094 H 951.912 -2.61405 -1.43909 0
M  V30 10095 C 950.661 -1.7624 -2.99725 0
M  V30 10096 H 949.984 -2.62886 -3.01216 0
M  V30 10097 H 951.424 -1.92611 -3.77726 0
M  V30 10098 C 949.883 -0.508632 -3.33038 0
M  V30 10099 O 950.413 0.362828 -4.00058 0
M  V30 10100 N 948.619 -0.369667 -2.88239 0
M  V30 10101 H 948.166 -1.07984 -2.33875 0
M  V30 10102 H 948.124 0.468112 -3.10896 0
M  V30 10103 N 951.896 0.746133 -1.38819 0
M  V30 10104 C 953.173 1.49652 -1.25951 0
M  V30 10105 C 953.553 2.10663 0.135833 0
M  V30 10106 O 952.901 1.97682 1.14604 0
M  V30 10107 C 953.111 2.5569 -2.37537 0
M  V30 10108 C 954.459 3.22385 -2.76321 0
M  V30 10109 O 955.483 2.65998 -2.36904 0
M  V30 10110 O 954.342 4.2439 -3.44319 0
M  V30 10111 H 951.436 0.664019 -0.492958 0
M  V30 10112 H 953.982 0.780908 -1.50665 0
M  V30 10113 H 952.754 2.08908 -3.30867 0
M  V30 10114 H 952.377 3.34823 -2.14427 0
M  V30 10115 N 953.375 1.23811 0.975125 0
M  V30 10116 C 954.285 1.0408 2.10249 0
M  V30 10117 C 955.301 -0.0162404 1.73992 0
M  V30 10118 O 956.477 0.180346 2.00591 0
M  V30 10119 C 953.542 0.640013 3.40741 0
M  V30 10120 C 952.603 1.7727 3.90991 0
M  V30 10121 C 951.836 1.39094 5.15256 0
M  V30 10122 O 952.059 0.277483 5.69725 0
M  V30 10123 O 950.993 2.21392 5.59704 0
M  V30 10124 H 954.819 1.98575 2.29786 0
M  V30 10125 H 952.404 1.02563 1.08633 0
M  V30 10126 H 954.286 0.427684 4.19224 0
M  V30 10127 H 952.961 -0.27589 3.22522 0
M  V30 10128 H 951.868 2.03971 3.13602 0
M  V30 10129 H 953.201 2.66711 4.13674 0
M  V30 10130 N 954.853 -1.17469 1.05066 0
M  V30 10131 C 955.783 -2.23635 0.671552 0
M  V30 10132 C 956.764 -1.66867 -0.33006 0
M  V30 10133 O 957.949 -1.93084 -0.207933 0
M  V30 10134 C 955.079 -3.47272 0.0441845 0
M  V30 10135 C 954.033 -4.16854 0.97042 0
M  V30 10136 C 953.359 -5.34299 0.206998 0
M  V30 10137 C 954.659 -4.69225 2.29401 0
M  V30 10138 H 956.353 -2.55602 1.55911 0
M  V30 10139 H 953.899 -1.2286 0.751101 0
M  V30 10140 H 955.852 -4.20756 -0.23282 0
M  V30 10141 H 954.576 -3.14568 -0.878311 0
M  V30 10142 H 953.235 -3.4528 1.23197 0
M  V30 10143 H 952.883 -4.97846 -0.718222 0
M  V30 10144 H 952.583 -5.81792 0.82416 0
M  V30 10145 H 954.107 -6.10568 -0.0627525 0
M  V30 10146 H 955.521 -5.34353 2.077 0
M  V30 10147 H 953.918 -5.27291 2.86503 0
M  V30 10148 H 954.988 -3.86102 2.93348 0
M  V30 10149 N 956.331 -0.831506 -1.3388 0
M  V30 10150 C 957.561 -0.436292 -2.01941 0
M  V30 10151 C 957.969 0.964979 -1.62741 0
M  V30 10152 O 957.312 1.63733 -0.832894 0
M  V30 10153 C 957.374 -0.468811 -3.5643 0
M  V30 10154 C 957.038 -1.82491 -4.18982 0
M  V30 10155 C 958.035 -2.78705 -4.38885 0
M  V30 10156 C 955.72 -2.11574 -4.55568 0
M  V30 10157 C 957.714 -4.02168 -4.94509 0
M  V30 10158 C 955.401 -3.35296 -5.10901 0
M  V30 10159 C 956.399 -4.3041 -5.30317 0
M  V30 10160 O 956.087 -5.51944 -5.84477 0
M  V30 10161 H 955.819 -0.172335 -0.653664 0
M  V30 10162 H 958.373 -1.12354 -1.71947 0
M  V30 10163 H 956.603 0.275179 -3.8572 0
M  V30 10164 H 958.292 -0.0924518 -4.05795 0
M  V30 10165 H 959.058 -2.57534 -4.10976 0
M  V30 10166 H 954.937 -1.38338 -4.39754 0
M  V30 10167 H 958.481 -4.76418 -5.09579 0
M  V30 10168 H 954.378 -3.56326 -5.3824 0
M  V30 10169 H 955.146 -5.53582 -6.029 0
M  V30 10170 N 957.809 1.4625 -0.587256 0
M  V30 10171 C 959.225 1.57641 -0.249284 0
M  V30 10172 C 959.425 1.58169 1.24839 0
M  V30 10173 O 958.481 1.50109 2.03036 0
M  V30 10174 C 959.794 2.86837 -0.902509 0
M  V30 10175 C 961.342 3.00476 -0.876524 0
M  V30 10176 C 961.817 4.32414 -1.50938 0
M  V30 10177 N 963.308 4.39124 -1.47392 0
M  V30 10178 C 964.043 5.39838 -1.93293 0
M  V30 10179 N 963.539 6.47202 -2.47188 0
M  V30 10180 N 965.332 5.31068 -1.84183 0
M  V30 10181 H 957.483 1.44151 -1.55994 0
M  V30 10182 H 959.746 0.687905 -0.652297 0
M  V30 10183 H 959.452 2.92274 -1.95624 0
M  V30 10184 H 959.326 3.74927 -0.413466 0
M  V30 10185 H 961.713 2.94618 0.168601 0
M  V30 10186 H 961.794 2.1385 -1.40363 0
M  V30 10187 H 961.438 4.3903 -2.55372 0
M  V30 10188 H 961.368 5.17823 -0.957455 0
M  V30 10189 H 963.859 3.62138 -1.08002 0
M  V30 10190 H 964.172 7.20269 -2.80058 0
M  V30 10191 H 962.517 6.48009 -2.51216 0
M  V30 10192 H 965.708 4.46095 -1.41833 0
M  V30 10193 H 965.881 6.09414 -2.2027 0
M  V30 10194 N 959.287 0.325282 1.54207 0
M  V30 10195 C 960.234 -0.539889 2.24397 0
M  V30 10196 C 961.204 -1.11028 1.2354 0
M  V30 10197 O 962.389 -1.1503 1.52226 0
M  V30 10198 C 959.529 -1.69405 3.00659 0
M  V30 10199 C 958.642 -1.15273 4.16337 0
M  V30 10200 C 957.777 -2.27272 4.80126 0
M  V30 10201 C 956.816 -1.70397 5.87904 0
M  V30 10202 N 955.953 -2.76065 6.45548 0
M  V30 10203 H 960.793 0.0652318 2.97929 0
M  V30 10204 H 958.33 0.043964 1.47034 0
M  V30 10205 H 960.288 -2.37325 3.43122 0
M  V30 10206 H 958.918 -2.27043 2.29458 0
M  V30 10207 H 957.97 -0.365034 3.78645 0
M  V30 10208 H 959.282 -0.696576 4.93912 0
M  V30 10209 H 958.436 -3.03092 5.25566 0
M  V30 10210 H 957.175 -2.76224 4.01935 0
M  V30 10211 H 956.18 -0.930752 5.41864 0
M  V30 10212 H 957.405 -1.22319 6.67993 0
M  V30 10213 H 955.351 -3.24306 5.7023 0
M  V30 10214 H 955.268 -2.35018 7.18542 0
M  V30 10215 H 956.536 -3.5171 6.95644 0
M  V30 10216 N 960.765 -1.57509 0.0534917 0
M  V30 10217 C 961.993 -1.97098 -0.629298 0
M  V30 10218 C 962.408 -0.931128 -1.64242 0
M  V30 10219 O 961.765 0.0843866 -1.82305 0
M  V30 10220 C 961.816 -3.36767 -1.31415 0
M  V30 10221 O 961.537 -4.36766 -0.341599 0
M  V30 10222 C 963.038 -3.91127 -2.08649 0
M  V30 10223 H 960.258 -0.648611 -0.171886 0
M  V30 10224 H 962.802 -2.04145 0.120479 0
M  V30 10225 H 960.957 -3.30863 -2.01515 0
M  V30 10226 H 961.371 -5.1788 -0.830715 0
M  V30 10227 H 962.845 -4.91129 -2.51985 0
M  V30 10228 H 963.322 -3.26679 -2.9356 0
M  V30 10229 H 963.928 -4.00376 -1.43456 0
M  V30 10230 N 962.243 0.219913 -1.56058 0
M  V30 10231 C 963.173 1.27572 -1.9557 0
M  V30 10232 C 964.154 1.48801 -0.824148 0
M  V30 10233 O 965.339 1.60957 -1.08658 0
M  V30 10234 C 962.469 2.62517 -2.27381 0
M  V30 10235 C 961.423 2.55941 -3.43042 0
M  V30 10236 C 960.749 3.94931 -3.60463 0
M  V30 10237 C 962.049 2.10584 -4.77966 0
M  V30 10238 H 963.743 0.947482 -2.84013 0
M  V30 10239 H 961.289 0.454337 -1.36645 0
M  V30 10240 H 963.242 3.36538 -2.53615 0
M  V30 10241 H 961.966 2.97031 -1.35794 0
M  V30 10242 H 960.625 1.84377 -3.1686 0
M  V30 10243 H 960.273 4.26756 -2.66249 0
M  V30 10244 H 959.973 3.91413 -4.38258 0
M  V30 10245 H 961.497 4.70611 -3.89046 0
M  V30 10246 H 962.911 2.74349 -5.03394 0
M  V30 10247 H 961.308 2.18122 -5.59055 0
M  V30 10248 H 962.378 1.05818 -4.73213 0
M  V30 10249 N 963.721 1.49897 0.486681 0
M  V30 10250 C 964.631 1.70379 1.6127 0
M  V30 10251 C 965.647 0.58659 1.63814 0
M  V30 10252 O 966.823 0.863044 1.81971 0
M  V30 10253 C 963.888 1.77911 2.97571 0
M  V30 10254 C 962.949 3.01569 3.0554 0
M  V30 10255 C 962.182 3.08732 4.35339 0
M  V30 10256 O 962.405 2.23099 5.2496 0
M  V30 10257 O 961.339 4.01325 4.48578 0
M  V30 10258 H 965.165 2.65799 1.46916 0
M  V30 10259 H 962.75 1.33808 0.664516 0
M  V30 10260 H 964.632 1.85135 3.78554 0
M  V30 10261 H 963.307 0.856722 3.12157 0
M  V30 10262 H 962.214 2.99854 2.23693 0
M  V30 10263 H 963.547 3.93335 2.95886 0
M  V30 10264 N 965.199 -0.738761 1.39212 0
M  V30 10265 C 966.109 -1.88324 1.39897 0
M  V30 10266 C 967.125 -1.71494 0.294229 0
M  V30 10267 O 968.301 -1.94162 0.535087 0
M  V30 10268 C 965.366 -3.23871 1.23726 0
M  V30 10269 C 964.427 -3.53121 2.44139 0
M  V30 10270 C 963.66 -4.82202 2.2873 0
M  V30 10271 O 963.883 -5.55649 1.28879 0
M  V30 10272 O 962.817 -5.11265 3.17634 0
M  V30 10273 H 966.643 -1.90701 2.36362 0
M  V30 10274 H 964.228 -0.886067 1.20288 0
M  V30 10275 H 966.11 -4.04882 1.16826 0
M  V30 10276 H 964.785 -3.22274 0.303551 0
M  V30 10277 H 963.692 -2.72212 2.56615 0
M  V30 10278 H 965.025 -3.59495 3.36191 0
M  V30 10279 N 966.677 -1.24326 -0.968545 0
M  V30 10280 C 967.926 -1.07647 -1.70572 0
M  V30 10281 C 968.239 0.384821 -1.91777 0
M  V30 10282 O 969.445 0.671782 -2.63058 0
M  V30 10283 C 967.901 -1.87799 -3.07017 0
M  V30 10284 C 967.509 -3.38333 -2.93658 0
M  V30 10285 C 969.253 -1.79647 -3.84613 0
M  V30 10286 C 967.16 -4.10831 -4.25407 0
M  V30 10287 H 966.09 -0.399216 -0.639642 0
M  V30 10288 H 968.741 -1.484 -1.07934 0
M  V30 10289 H 967.123 -1.3986 -3.7048 0
M  V30 10290 H 968.297 -3.93845 -2.39213 0
M  V30 10291 H 966.612 -3.47427 -2.29528 0
M  V30 10292 H 969.209 -2.31116 -4.82172 0
M  V30 10293 H 969.552 -0.761553 -4.09275 0
M  V30 10294 H 970.085 -2.25261 -3.27875 0
M  V30 10295 H 966.824 -5.14679 -4.05939 0
M  V30 10296 H 966.344 -3.60105 -4.79671 0
M  V30 10297 H 968.023 -4.17783 -4.94031 0
M  V30 10298 N 968.156 1.1691 -1.05688 0
M  V30 10299 C 969.402 1.8757 -0.771071 0
M  V30 10300 C 969.735 1.8113 0.700399 0
M  V30 10301 O 969.01 1.22273 1.5126 0
M  V30 10302 C 969.293 3.37392 -1.25851 0
M  V30 10303 C 969.146 3.52556 -2.79329 0
M  V30 10304 C 970.465 4.31585 -0.861512 0
M  V30 10305 H 967.584 0.681089 -0.281579 0
M  V30 10306 H 970.226 1.37453 -1.31174 0
M  V30 10307 H 968.376 3.80204 -0.798563 0
M  V30 10308 H 970.048 3.18725 -3.33485 0
M  V30 10309 H 968.291 2.94668 -3.1836 0
M  V30 10310 H 968.962 4.57748 -3.08498 0
M  V30 10311 H 971.438 3.96642 -1.25756 0
M  V30 10312 H 970.314 5.34939 -1.23012 0
M  V30 10313 H 970.575 4.4148 0.234089 0
M  V30 10314 N 969.634 0.838594 1.33437 0
M  V30 10315 C 971.05 0.526347 1.50671 0
M  V30 10316 C 971.25 -0.946387 1.77893 0
M  V30 10317 O 970.306 -1.7302 1.83903 0
M  V30 10318 C 971.619 1.39945 2.6615 0
M  V30 10319 C 973.167 1.3982 2.80035 0
M  V30 10320 C 973.642 2.25614 3.98576 0
M  V30 10321 N 975.133 2.23322 4.0581 0
M  V30 10322 C 975.868 2.86443 4.96727 0
M  V30 10323 N 975.364 3.58616 5.92762 0
M  V30 10324 N 977.157 2.75915 4.89722 0
M  V30 10325 H 969.308 1.79195 1.1403 0
M  V30 10326 H 971.571 0.764491 0.560586 0
M  V30 10327 H 971.277 2.44599 2.52714 0
M  V30 10328 H 971.151 1.07529 3.61548 0
M  V30 10329 H 973.538 0.35937 2.92904 0
M  V30 10330 H 973.619 1.76241 1.85399 0
M  V30 10331 H 973.263 3.29555 3.86466 0
M  V30 10332 H 973.193 1.86533 4.92456 0
M  V30 10333 H 975.684 1.70836 3.37081 0
M  V30 10334 H 975.997 4.03987 6.58798 0
M  V30 10335 H 974.342 3.62724 5.92838 0
M  V30 10336 H 977.533 2.19094 4.13661 0
M  V30 10337 H 977.706 3.25393 5.60378 0
M  V30 10338 N 971.112 -1.45937 0.595003 0
M  V30 10339 C 972.337 -2.07207 0.0894416 0
M  V30 10340 C 972.762 -1.43884 -1.21157 0
M  V30 10341 O 972.12 -0.526998 -1.73472 0
M  V30 10342 C 972.168 -3.60565 -0.0499828 0
M  V30 10343 O 971.272 -3.97364 -1.10342 0
M  V30 10344 H 970.613 -0.660471 0.0683627 0
M  V30 10345 H 973.143 -1.87386 0.82144 0
M  V30 10346 H 973.153 -4.0722 -0.252234 0
M  V30 10347 H 971.828 -4.06044 0.90006 0
M  V30 10348 H 970.405 -3.62401 -0.878645 0
M  V30 10349 N 972.59 -0.333456 -1.54032 0
M  V30 10350 C 973.52 0.52051 -2.27625 0
M  V30 10351 C 974.501 1.1111 -1.28797 0
M  V30 10352 O 975.686 1.13438 -1.57625 0
M  V30 10353 C 972.816 1.67663 -3.04149 0
M  V30 10354 C 971.77 1.21487 -4.10396 0
M  V30 10355 C 971.096 2.45872 -4.74817 0
M  V30 10356 C 972.396 0.322603 -5.21303 0
M  V30 10357 H 974.09 -0.0933823 -2.99254 0
M  V30 10358 H 971.636 -0.0463526 -1.43925 0
M  V30 10359 H 973.589 2.28041 -3.54366 0
M  V30 10360 H 972.313 2.31727 -2.30153 0
M  V30 10361 H 970.972 0.633966 -3.61077 0
M  V30 10362 H 970.62 3.0832 -3.97426 0
M  V30 10363 H 970.32 2.15662 -5.46593 0
M  V30 10364 H 971.844 3.06994 -5.27814 0
M  V30 10365 H 973.258 0.832942 -5.67217 0
M  V30 10366 H 971.655 0.112843 -5.99994 0
M  V30 10367 H 972.725 -0.643954 -4.80605 0
M  V30 10368 N 974.068 1.57479 -0.061844 0
M  V30 10369 C 975.345 1.84484 0.649993 0
M  V30 10370 C 975.725 0.952366 1.88396 0
M  V30 10371 O 975.073 0.0161035 2.28494 0
M  V30 10372 C 975.283 3.34452 0.997133 0
M  V30 10373 C 976.631 4.01724 1.37488 0
M  V30 10374 O 977.655 3.3914 1.08916 0
M  V30 10375 O 976.514 5.12091 1.90854 0
M  V30 10376 H 973.608 0.761798 0.321858 0
M  V30 10377 H 976.154 1.6945 -0.0920192 0
M  V30 10378 H 974.926 3.91115 0.120301 0
M  V30 10379 H 974.549 3.54713 1.79624 0
M  V30 10380 N 975.546 -0.211634 1.56173 0
M  V30 10381 C 976.493 -1.26231 1.93221 0
M  V30 10382 C 977.463 -1.46076 0.790641 0
M  V30 10383 O 978.648 -1.59482 1.04739 0
M  V30 10384 C 975.788 -2.60559 2.26281 0
M  V30 10385 C 974.901 -2.48431 3.5342 0
M  V30 10386 C 974.036 -3.7535 3.7588 0
M  V30 10387 C 973.075 -3.57985 4.96501 0
M  V30 10388 N 972.212 -4.76877 5.15299 0
M  V30 10389 H 977.052 -0.939367 2.82807 0
M  V30 10390 H 974.589 -0.452511 1.39967 0
M  V30 10391 H 976.547 -3.38796 2.43461 0
M  V30 10392 H 975.177 -2.9093 1.39855 0
M  V30 10393 H 974.229 -1.61577 3.44379 0
M  V30 10394 H 975.541 -2.31526 4.41811 0
M  V30 10395 H 974.695 -4.62029 3.9321 0
M  V30 10396 H 973.434 -3.95191 2.85788 0
M  V30 10397 H 972.439 -2.69691 4.79111 0
M  V30 10398 H 973.664 -3.39605 5.88086 0
M  V30 10399 H 971.61 -4.97013 4.28152 0
M  V30 10400 H 971.527 -4.62735 5.9784 0
M  V30 10401 H 972.795 -5.64954 5.37073 0
M  V30 10402 N 977.024 -1.50153 -0.478725 0
M  V30 10403 C 977.957 -1.63089 -1.59616 0
M  V30 10404 C 978.935 -0.479211 -1.55378 0
M  V30 10405 O 980.119 -0.697715 -1.75112 0
M  V30 10406 C 977.246 -1.60643 -2.9818 0
M  V30 10407 C 976.292 -2.81279 -3.206 0
M  V30 10408 S 977.125 -4.42681 -3.0132 0
M  V30 10409 C 978.281 -4.42915 -4.42241 0
M  V30 10410 H 978.514 -2.57612 -1.48402 0
M  V30 10411 H 976.047 -1.39321 -0.665513 0
M  V30 10412 H 978.005 -1.59917 -3.7807 0
M  V30 10413 H 976.666 -0.673684 -3.0679 0
M  V30 10414 H 975.859 -2.7585 -4.21809 0
M  V30 10415 H 975.461 -2.79533 -2.4847 0
M  V30 10416 H 977.753 -4.16007 -5.34737 0
M  V30 10417 H 978.696 -5.44477 -4.52715 0
M  V30 10418 H 979.104 -3.72715 -4.23962 0
M  V30 10419 N 978.502 0.731368 -1.39602 0
M  V30 10420 C 979.412 1.87579 -1.40894 0
M  V30 10421 C 980.428 1.71336 -0.303319 0
M  V30 10422 O 981.604 1.93875 -0.545377 0
M  V30 10423 C 978.669 3.23211 -1.25442 0
M  V30 10424 C 977.73 3.51822 -2.46008 0
M  V30 10425 C 976.963 4.80982 -2.31284 0
M  V30 10426 O 977.186 5.54958 -1.31824 0
M  V30 10427 O 976.12 5.09574 -3.20341 0
M  V30 10428 H 979.946 1.89444 -2.3737 0
M  V30 10429 H 977.531 0.879675 -1.20756 0
M  V30 10430 H 979.413 4.04257 -1.18972 0
M  V30 10431 H 978.088 3.22108 -0.320637 0
M  V30 10432 H 976.995 2.70847 -2.58055 0
M  V30 10433 H 978.328 3.57707 -3.38093 0
M  V30 10434 N 979.98 1.24838 0.961938 0
M  V30 10435 C 980.928 1.0436 2.07874 0
M  V30 10436 C 981.922 -0.0232531 1.69384 0
M  V30 10437 O 983.128 0.131773 1.79517 0
M  V30 10438 H 979.503 0.320492 0.680286 0
M  V30 10439 H 981.474 1.99055 2.22306 0
M  V30 10440 C 980.223 0.671246 3.41159 0
M  V30 10441 H 979.546 1.48395 3.7124 0
M  V30 10442 H 980.986 0.567608 4.20184 0
M  V30 10443 C 979.445 -0.622124 3.31106 0
M  V30 10444 O 979.975 -1.66627 3.65511 0
M  V30 10445 N 978.181 -0.605009 2.84232 0
M  V30 10446 H 977.728 0.245052 2.56432 0
M  V30 10447 H 977.686 -1.47056 2.77888 0
M  V30 10448 N 981.458 -1.16348 1.06306 0
M  V30 10449 C 982.421 -2.18941 0.678053 0
M  V30 10450 C 983.421 -1.58409 -0.276277 0
M  V30 10451 O 984.611 -1.74101 -0.0586435 0
M  V30 10452 C 981.743 -3.409 -0.00228684 0
M  V30 10453 H 982.936 -2.54516 1.58624 0
M  V30 10454 H 980.489 -1.30625 0.858298 0
M  V30 10455 H 981.224 -3.10881 -0.923212 0
M  V30 10456 H 981.009 -3.86089 0.683949 0
M  V30 10457 H 982.499 -4.16806 -0.257374 0
M  V30 10458 N 982.937 -0.845659 -1.3299 0
M  V30 10459 C 983.885 -0.272412 -2.30999 0
M  V30 10460 C 984.879 0.599311 -1.58444 0
M  V30 10461 O 986.085 0.488117 -1.73255 0
M  V30 10462 H 982.46 -0.0693751 -0.748793 0
M  V30 10463 H 984.431 -1.11343 -2.76849 0
M  V30 10464 C 983.18 0.532019 -3.43606 0
M  V30 10465 H 982.503 -0.129455 -3.9959 0
M  V30 10466 H 983.943 0.898853 -4.14363 0
M  V30 10467 C 982.402 1.71364 -2.90062 0
M  V30 10468 O 982.932 2.81252 -2.8681 0
M  V30 10469 N 981.138 1.53775 -2.4658 0
M  V30 10470 H 980.685 0.643836 -2.49424 0
M  V30 10471 H 980.643 2.32982 -2.11108 0
M  V30 10472 N 984.415 1.45619 -0.602734 0
M  V30 10473 C 985.664 2.01483 -0.0936395 0
M  V30 10474 C 985.977 1.47753 1.28173 0
M  V30 10475 O 987.183 1.95562 1.88329 0
M  V30 10476 C 985.639 3.59711 -0.116738 0
M  V30 10477 C 985.247 4.22437 -1.49166 0
M  V30 10478 C 986.991 4.23157 0.337368 0
M  V30 10479 C 984.898 5.72803 -1.47141 0
M  V30 10480 H 983.828 0.753353 -0.0312382 0
M  V30 10481 H 986.479 1.67142 -0.757347 0
M  V30 10482 H 984.861 3.91218 0.613529 0
M  V30 10483 H 986.035 4.02511 -2.24325 0
M  V30 10484 H 984.35 3.71166 -1.88746 0
M  V30 10485 H 986.947 5.33407 0.371628 0
M  V30 10486 H 987.29 3.93491 1.35906 0
M  V30 10487 H 987.823 3.96349 -0.339474 0
M  V30 10488 H 984.562 6.07161 -2.47055 0
M  V30 10489 H 984.082 5.94936 -0.762329 0
M  V30 10490 H 985.761 6.35907 -1.19294 0
M  V30 10491 N 985.893 0.34162 1.53853 0
M  V30 10492 C 987.304 -0.14269 1.86154 0
M  V30 10493 C 987.655 -1.50151 1.2629 0
M  V30 10494 O 986.78 -2.08601 0.575735 0
M  V30 10495 C 987.375 -0.265691 3.37757 0
M  V30 10496 C 985.934 -0.694231 3.69942 0
M  V30 10497 C 985.081 0.173195 2.76759 0
M  V30 10498 H 988.032 0.561284 1.48443 0
M  V30 10499 H 988.053 -1.09352 3.64448 0
M  V30 10500 H 987.565 0.723424 3.81298 0
M  V30 10501 H 985.666 -1.69244 3.31945 0
M  V30 10502 H 985.779 -0.485461 4.76634 0
M  V30 10503 H 984.143 -0.35416 2.52226 0
M  V30 10504 H 984.926 1.15941 3.23129 0
M  V30 10505 N 987.371 -1.57444 0.0701946 0
M  V30 10506 C 988.596 -1.98171 -0.61181 0
M  V30 10507 C 989.021 -0.94823 -1.62451 0
M  V30 10508 O 988.379 0.0863553 -1.81094 0
M  V30 10509 C 988.427 -3.37934 -1.2583 0
M  V30 10510 O 987.531 -3.37207 -2.37414 0
M  V30 10511 H 986.872 -0.645056 -0.157477 0
M  V30 10512 H 989.402 -2.04091 0.144235 0
M  V30 10513 H 989.412 -3.75083 -1.60552 0
M  V30 10514 H 988.087 -4.12684 -0.516234 0
M  V30 10515 H 986.664 -3.11826 -2.04497 0
M  V30 10516 N 988.849 0.203349 -1.56283 0
M  V30 10517 C 990.095 0.926381 -1.80405 0
M  V30 10518 C 990.428 1.8325 -0.642883 0
M  V30 10519 O 989.703 1.91196 0.356998 0
M  V30 10520 C 989.986 1.74972 -3.14733 0
M  V30 10521 C 989.839 0.868866 -4.41328 0
M  V30 10522 C 991.158 2.72394 -3.45672 0
M  V30 10523 H 988.277 0.335346 -0.656286 0
M  V30 10524 H 990.919 0.1942 -1.89005 0
M  V30 10525 H 989.069 2.37394 -3.07533 0
M  V30 10526 H 990.741 0.259986 -4.60567 0
M  V30 10527 H 988.984 0.175161 -4.33446 0
M  V30 10528 H 989.655 1.47975 -5.31796 0
M  V30 10529 H 992.131 2.20105 -3.53119 0
M  V30 10530 H 991.007 3.27091 -4.40798 0
M  V30 10531 H 991.268 3.51035 -2.6875 0
M  V30 10532 N 990.327 1.50405 0.470755 0
M  V30 10533 C 991.552 1.65442 1.25075 0
M  V30 10534 C 991.977 0.337612 1.85045 0
M  V30 10535 O 991.335 -0.698555 1.67302 0
M  V30 10536 C 991.383 2.74793 2.33498 0
M  V30 10537 O 990.487 2.36069 3.3815 0
M  V30 10538 H 989.828 0.552728 0.367951 0
M  V30 10539 H 992.358 1.96782 0.560177 0
M  V30 10540 H 992.368 2.97879 2.78804 0
M  V30 10541 H 991.043 3.70363 1.8922 0
M  V30 10542 H 989.62 2.2343 2.98552 0
M  V30 10543 N 991.805 -0.723954 1.39988 0
M  V30 10544 C 992.735 -1.85103 1.42335 0
M  V30 10545 C 993.716 -1.6769 0.285297 0
M  V30 10546 O 994.901 -1.87846 0.492716 0
M  V30 10547 C 992.031 -3.22972 1.27697 0
M  V30 10548 C 990.985 -3.55041 2.39018 0
M  V30 10549 C 990.311 -4.91965 2.09462 0
M  V30 10550 C 991.611 -3.56889 3.8135 0
M  V30 10551 H 993.305 -1.83396 2.36656 0
M  V30 10552 H 990.851 -0.880926 1.13911 0
M  V30 10553 H 992.804 -4.01503 1.27958 0
M  V30 10554 H 991.528 -3.25233 0.298487 0
M  V30 10555 H 990.187 -2.78845 2.37993 0
M  V30 10556 H 989.835 -4.90819 1.10025 0
M  V30 10557 H 989.535 -5.14389 2.84038 0
M  V30 10558 H 991.059 -5.7284 2.11391 0
M  V30 10559 H 992.473 -4.25476 3.84243 0
M  V30 10560 H 990.87 -3.90836 4.55376 0
M  V30 10561 H 991.94 -2.56452 4.11534 0
M  V30 10562 N 993.283 -1.25346 -0.955304 0
M  V30 10563 C 994.508 -1.12892 -1.73983 0
M  V30 10564 C 994.933 0.313455 -1.8547 0
M  V30 10565 O 994.291 1.22706 -1.33465 0
M  V30 10566 C 994.339 -1.78729 -3.1319 0
M  V30 10567 O 993.443 -1.06648 -3.98372 0
M  V30 10568 H 992.784 -0.394178 -0.534341 0
M  V30 10569 H 995.314 -1.65897 -1.19747 0
M  V30 10570 H 995.324 -1.84987 -3.63653 0
M  V30 10571 H 993.999 -2.83669 -3.04146 0
M  V30 10572 H 992.576 -1.08266 -3.56837 0
M  V30 10573 N 994.761 1.15782 -1.06922 0
M  V30 10574 C 995.708 2.2038 -0.685659 0
M  V30 10575 C 996.678 1.62972 0.320816 0
M  V30 10576 O 997.863 1.8966 0.208258 0
M  V30 10577 C 995.003 3.44995 -0.084998 0
M  V30 10578 C 994.116 4.16621 -1.14242 0
M  V30 10579 C 993.251 5.28773 -0.507226 0
M  V30 10580 C 992.29 5.92209 -1.54774 0
M  V30 10581 N 991.427 6.9584 -0.935443 0
M  V30 10582 H 996.267 2.5254 -1.58201 0
M  V30 10583 H 993.804 1.24031 -0.790864 0
M  V30 10584 H 995.762 4.16254 0.280845 0
M  V30 10585 H 994.392 3.13365 0.774725 0
M  V30 10586 H 993.444 3.43903 -1.62589 0
M  V30 10587 H 994.756 4.59884 -1.93154 0
M  V30 10588 H 993.91 6.06635 -0.0887719 0
M  V30 10589 H 992.649 4.8669 0.313704 0
M  V30 10590 H 991.654 5.13063 -1.97602 0
M  V30 10591 H 992.879 6.3637 -2.37088 0
M  V30 10592 H 990.825 6.5586 -0.135339 0
M  V30 10593 H 990.742 7.37508 -1.66186 0
M  V30 10594 H 992.01 7.77611 -0.542346 0
M  V30 10595 N 996.239 0.8527 1.3254 0
M  V30 10596 C 997.655 0.542298 1.50104 0
M  V30 10597 C 997.855 -0.927465 1.78886 0
M  V30 10598 O 996.911 -1.7106 1.85728 0
M  V30 10599 C 998.224 1.4276 2.64651 0
M  V30 10600 C 999.772 1.42782 2.78536 0
M  V30 10601 C 1000.25 2.29828 3.9616 0
M  V30 10602 N 1001.74 2.27613 4.03418 0
M  V30 10603 C 1002.47 2.91696 4.93661 0
M  V30 10604 N 1001.97 3.64883 5.88925 0
M  V30 10605 N 1003.76 2.81094 4.86768 0
M  V30 10606 H 995.913 1.80395 1.12123 0
M  V30 10607 H 998.176 0.770394 0.552446 0
M  V30 10608 H 997.882 2.47266 2.50105 0
M  V30 10609 H 997.756 1.11358 3.60388 0
M  V30 10610 H 1000.14 0.390417 2.92506 0
M  V30 10611 H 1000.22 1.78198 1.83519 0
M  V30 10612 H 999.868 3.33635 3.82949 0
M  V30 10613 H 999.798 1.91746 4.9045 0
M  V30 10614 H 1002.29 1.74402 3.3525 0
M  V30 10615 H 1002.6 4.10952 6.54476 0
M  V30 10616 H 1000.95 3.68991 5.88957 0
M  V30 10617 H 1004.14 2.23469 4.11314 0
M  V30 10618 H 1004.31 3.31318 5.56895 0
M  V30 10619 N 997.718 -1.45297 0.610449 0
M  V30 10620 C 998.628 -2.34349 -0.108475 0
M  V30 10621 C 999.644 -1.51409 -0.857397 0
M  V30 10622 O 1000.82 -1.84202 -0.814337 0
M  V30 10623 C 997.885 -3.29072 -1.09144 0
M  V30 10624 C 996.946 -4.27918 -0.344165 0
M  V30 10625 C 996.179 -5.18116 -1.28031 0
M  V30 10626 O 996.402 -5.11802 -2.51824 0
M  V30 10627 O 995.336 -5.96879 -0.775821 0
M  V30 10628 H 999.162 -2.97232 0.623421 0
M  V30 10629 H 996.747 -1.44728 0.3707 0
M  V30 10630 H 998.629 -3.87433 -1.65751 0
M  V30 10631 H 997.304 -2.68749 -1.80431 0
M  V30 10632 H 996.211 -3.73164 0.264437 0
M  V30 10633 H 997.544 -4.91104 0.328275 0
M  V30 10634 N 999.196 -0.349774 -1.5367 0
M  V30 10635 C 1000.44 0.244827 -2.01015 0
M  V30 10636 C 1000.77 1.50057 -1.23746 0
M  V30 10637 O 1000.03 1.9315 -0.314872 0
M  V30 10638 C 1000.32 0.598311 -3.52356 0
M  V30 10639 C 999.991 -0.56127 -4.47393 0
M  V30 10640 C 998.653 -0.879481 -4.73095 0
M  V30 10641 C 1001 -1.3389 -5.03709 0
M  V30 10642 C 998.333 -1.97758 -5.52366 0
M  V30 10643 C 1000.68 -2.4273 -5.84179 0
M  V30 10644 C 999.349 -2.75103 -6.08173 0
M  V30 10645 H 998.619 0.0895884 -0.735564 0
M  V30 10646 H 1001.27 -0.478975 -1.85413 0
M  V30 10647 H 999.571 1.40291 -3.65822 0
M  V30 10648 H 1001.27 1.07036 -3.86451 0
M  V30 10649 H 997.858 -0.303201 -4.27526 0
M  V30 10650 H 1002.04 -1.10632 -4.83812 0
M  V30 10651 H 997.298 -2.23257 -5.6918 0
M  V30 10652 H 1001.47 -3.03412 -6.26828 0
M  V30 10653 H 999.099 -3.60317 -6.69385 0
M  V30 10654 N 1000.67 1.57404 -0.0785433 0
M  V30 10655 C 1001.91 1.95621 0.592595 0
M  V30 10656 C 1002.28 0.958429 1.66367 0
M  V30 10657 O 1003.48 1.2285 2.39084 0
M  V30 10658 C 1001.75 3.38445 1.14846 0
M  V30 10659 S 1003.31 3.98645 1.83378 0
M  V30 10660 H 1000.13 0.684063 0.193851 0
M  V30 10661 H 1002.73 1.94892 -0.154007 0
M  V30 10662 H 1001.43 4.08843 0.357179 0
M  V30 10663 H 1000.96 3.42733 1.93127 0
M  V30 10664 H 1002.98 3.86099 3.11676 0
M  V30 10665 N 1002.15 -0.195058 1.56388 0
M  V30 10666 C 1003.4 -0.915444 1.80626 0
M  V30 10667 C 1003.73 -1.83255 0.651768 0
M  V30 10668 O 1002.98 -1.92314 -0.362464 0
M  V30 10669 C 1003.28 -1.7637 3.10851 0
M  V30 10670 C 1002.95 -0.997572 4.39726 0
M  V30 10671 C 1001.61 -0.786043 4.74737 0
M  V30 10672 C 1003.96 -0.45851 5.19179 0
M  V30 10673 C 1001.29 -0.023972 5.86695 0
M  V30 10674 C 1003.64 0.29035 6.31933 0
M  V30 10675 C 1002.3 0.512895 6.65527 0
M  V30 10676 H 1001.57 -0.334985 0.660959 0
M  V30 10677 H 1004.22 -0.181815 1.90635 0
M  V30 10678 H 1002.53 -2.566 2.9608 0
M  V30 10679 H 1004.22 -2.3237 3.26811 0
M  V30 10680 H 1000.81 -1.17245 4.12252 0
M  V30 10681 H 1005 -0.609334 4.92545 0
M  V30 10682 H 1000.25 0.158421 6.11195 0
M  V30 10683 H 1004.43 0.715429 6.92715 0
M  V30 10684 H 1002.05 1.10531 7.52122 0
M  V30 10685 N 1003.63 -1.50653 -0.462772 0
M  V30 10686 C 1004.56 -1.66286 -1.5774 0
M  V30 10687 C 1005.57 -0.544094 -1.53439 0
M  V30 10688 O 1006.76 -0.817566 -1.58676 0
M  V30 10689 C 1003.86 -1.63893 -2.96635 0
M  V30 10690 C 1003.04 -2.91939 -3.25716 0
M  V30 10691 C 1002.1 -2.82076 -4.44206 0
M  V30 10692 O 1001.12 -3.56032 -4.44106 0
M  V30 10693 N 1002.32 -1.96196 -5.4634 0
M  V30 10694 H 1005.09 -2.6243 -1.44742 0
M  V30 10695 H 1002.65 -1.48221 -0.651326 0
M  V30 10696 H 1004.64 -1.54897 -3.73884 0
M  V30 10697 H 1003.21 -0.75449 -3.03358 0
M  V30 10698 H 1002.43 -3.14998 -2.37002 0
M  V30 10699 H 1003.72 -3.7675 -3.4196 0
M  V30 10700 H 1003.12 -1.35439 -5.49247 0
M  V30 10701 H 1001.67 -1.93097 -6.2254 0
M  V30 10702 N 1005.11 0.71652 -1.4037 0
M  V30 10703 C 1006.06 1.85194 -1.40734 0
M  V30 10704 C 1007.05 1.66934 -0.287969 0
M  V30 10705 O 1008.26 1.74051 -0.458957 0
M  V30 10706 H 1004.63 0.609922 -0.439885 0
M  V30 10707 H 1006.6 1.82003 -2.36468 0
M  V30 10708 C 1005.35 3.23048 -1.28589 0
M  V30 10709 H 1004.67 3.37704 -2.13999 0
M  V30 10710 H 1006.11 4.02633 -1.32902 0
M  V30 10711 C 1004.57 3.369 0.00396512 0
M  V30 10712 O 1005.1 3.89881 0.967243 0
M  V30 10713 N 1003.31 2.90508 0.0731565 0
M  V30 10714 H 1002.86 2.4758 -0.711454 0
M  V30 10715 H 1002.81 3.00155 0.935652 0
M  V30 10716 N 1006.59 1.25851 0.948643 0
M  V30 10717 C 1007.83 1.11119 1.69648 0
M  V30 10718 C 1008.17 -0.345995 1.91093 0
M  V30 10719 O 1007.44 -1.25467 1.48621 0
M  V30 10720 C 1007.72 1.87261 3.0758 0
M  V30 10721 C 1007.58 3.40842 2.93507 0
M  V30 10722 C 1008.9 1.6605 4.07573 0
M  V30 10723 H 1006.01 0.405052 0.615713 0
M  V30 10724 H 1008.66 1.54756 1.10229 0
M  V30 10725 H 1006.81 1.50172 3.58303 0
M  V30 10726 H 1008.48 3.87641 2.50064 0
M  V30 10727 H 1006.72 3.68248 2.29294 0
M  V30 10728 H 1007.39 3.89339 3.91305 0
M  V30 10729 H 1009.87 1.98348 3.65783 0
M  V30 10730 H 1008.74 2.21753 5.02113 0
M  V30 10731 H 1009.01 0.603256 4.37965 0
M  V30 10732 N 1008.06 -1.15214 1.07534 0
M  V30 10733 C 1009.01 -2.20013 0.697337 0
M  V30 10734 C 1009.98 -1.6314 -0.312168 0
M  V30 10735 O 1011.17 -1.89768 -0.198196 0
M  V30 10736 C 1008.31 -3.44945 0.103293 0
M  V30 10737 C 1007.42 -4.16009 1.1645 0
M  V30 10738 C 1006.55 -5.28496 0.535261 0
M  V30 10739 C 1005.59 -5.9138 1.57912 0
M  V30 10740 N 1004.73 -6.95335 0.972332 0
M  V30 10741 H 1009.57 -2.51698 1.59538 0
M  V30 10742 H 1007.11 -1.2361 0.797431 0
M  V30 10743 H 1009.07 -4.16397 -0.258766 0
M  V30 10744 H 1007.7 -3.13772 -0.758096 0
M  V30 10745 H 1006.75 -3.43035 1.64411 0
M  V30 10746 H 1008.06 -4.58853 1.9559 0
M  V30 10747 H 1007.21 -6.06579 0.120942 0
M  V30 10748 H 1005.95 -4.8685 -0.287889 0
M  V30 10749 H 1004.96 -5.12008 2.0032 0
M  V30 10750 H 1006.18 -6.35103 2.40459 0
M  V30 10751 H 1004.13 -6.55779 0.170119 0
M  V30 10752 H 1004.05 -7.36616 1.70095 0
M  V30 10753 H 1005.31 -7.77312 0.583577 0
M  V30 10754 N 1009.54 -0.859717 -1.32086 0
M  V30 10755 C 1010.77 -0.479028 -2.0097 0
M  V30 10756 C 1011.18 0.930242 -1.64752 0
M  V30 10757 O 1010.52 1.6193 -0.867437 0
M  V30 10758 C 1010.59 -0.54431 -3.55355 0
M  V30 10759 C 1010.25 -1.91337 -4.15017 0
M  V30 10760 C 1011.25 -2.87951 -4.32874 0
M  V30 10761 C 1008.93 -2.21189 -4.50977 0
M  V30 10762 C 1010.93 -4.12567 -4.85867 0
M  V30 10763 C 1008.61 -3.46057 -5.03674 0
M  V30 10764 C 1009.61 -4.41562 -5.21068 0
M  V30 10765 O 1009.3 -5.64218 -5.72637 0
M  V30 10766 H 1009.03 -0.186161 -0.649861 0
M  V30 10767 H 1011.58 -1.15976 -1.69525 0
M  V30 10768 H 1009.81 0.1933 -3.86217 0
M  V30 10769 H 1011.5 -0.178506 -4.05507 0
M  V30 10770 H 1012.27 -2.66194 -4.05421 0
M  V30 10771 H 1008.15 -1.47635 -4.36721 0
M  V30 10772 H 1011.69 -4.8712 -4.99359 0
M  V30 10773 H 1007.59 -3.67662 -5.30561 0
M  V30 10774 H 1008.36 -5.66246 -5.91023 0
M  V30 10775 N 1011.02 1.44971 -0.618145 0
M  V30 10776 C 1011.95 2.27748 0.143561 0
M  V30 10777 C 1012.93 1.37768 0.863642 0
M  V30 10778 O 1014.12 1.67203 0.870373 0
M  V30 10779 C 1011.24 3.16394 1.20883 0
M  V30 10780 C 1010.29 4.22389 0.590724 0
M  V30 10781 S 1011.12 5.32021 -0.609406 0
M  V30 10782 C 1012.28 6.24235 0.456199 0
M  V30 10783 H 1012.51 2.92003 -0.558699 0
M  V30 10784 H 1010.04 1.48968 -0.40595 0
M  V30 10785 H 1012 3.6802 1.81855 0
M  V30 10786 H 1010.66 2.51384 1.88322 0
M  V30 10787 H 1009.86 4.84379 1.3926 0
M  V30 10788 H 1009.46 3.73958 0.055917 0
M  V30 10789 H 1011.75 6.64269 1.33238 0
M  V30 10790 H 1012.69 7.07985 -0.127794 0
M  V30 10791 H 1013.1 5.59137 0.776269 0
M  V30 10792 N 1012.5 0.357919 1.53482 0
M  V30 10793 C 1013.43 -0.526753 2.23065 0
M  V30 10794 C 1014.44 -1.05239 1.24212 0
M  V30 10795 O 1015.63 -0.960078 1.50482 0
M  V30 10796 C 1012.73 -1.73919 2.9087 0
M  V30 10797 C 1011.91 -1.34638 4.16163 0
M  V30 10798 C 1010.96 -2.42005 4.67247 0
M  V30 10799 O 1009.99 -2.04714 5.31113 0
M  V30 10800 N 1011.19 -3.73478 4.44404 0
M  V30 10801 H 1013.96 0.0692386 2.9962 0
M  V30 10802 H 1011.52 0.182726 1.60866 0
M  V30 10803 H 1013.51 -2.45207 3.21956 0
M  V30 10804 H 1012.08 -2.24223 2.17814 0
M  V30 10805 H 1011.3 -0.463667 3.91464 0
M  V30 10806 H 1012.59 -1.06012 4.97633 0
M  V30 10807 H 1011.99 -4.06555 3.93357 0
M  V30 10808 H 1010.54 -4.40893 4.80059 0
M  V30 10809 N 1013.98 -1.5736 0.0868897 0
M  V30 10810 C 1014.91 -2.16596 -0.872252 0
M  V30 10811 C 1015.89 -1.09706 -1.29995 0
M  V30 10812 O 1017.07 -1.37808 -1.36831 0
M  V30 10813 C 1014.2 -2.73972 -2.1344 0
M  V30 10814 C 1013.16 -3.86163 -1.8456 0
M  V30 10815 C 1012.48 -4.30206 -3.17533 0
M  V30 10816 C 1013.78 -5.0973 -1.13899 0
M  V30 10817 H 1015.48 -2.96995 -0.378738 0
M  V30 10818 H 1013.02 -1.42861 -0.18073 0
M  V30 10819 H 1014.98 -3.14062 -2.80968 0
M  V30 10820 H 1013.7 -1.90817 -2.6506 0
M  V30 10821 H 1012.36 -3.466 -1.19432 0
M  V30 10822 H 1012.01 -3.43951 -3.67024 0
M  V30 10823 H 1011.71 -5.05841 -2.98996 0
M  V30 10824 H 1013.23 -4.72922 -3.86234 0
M  V30 10825 H 1014.64 -5.4704 -1.71523 0
M  V30 10826 H 1013.04 -5.90741 -1.05569 0
M  V30 10827 H 1014.11 -4.8475 -0.120432 0
M  V30 10828 N 1015.45 0.186762 -1.56489 0
M  V30 10829 C 1016.4 1.23141 -1.95205 0
M  V30 10830 C 1017.37 1.44799 -0.81378 0
M  V30 10831 O 1018.56 1.57795 -1.07263 0
M  V30 10832 C 1015.7 2.56926 -2.30397 0
M  V30 10833 C 1014.81 2.42777 -3.57328 0
M  V30 10834 C 1013.94 3.69323 -3.81804 0
M  V30 10835 C 1012.98 3.50041 -5.02133 0
M  V30 10836 N 1012.12 4.68619 -5.2282 0
M  V30 10837 H 1016.96 0.894256 -2.84266 0
M  V30 10838 H 1014.5 0.430187 -1.40669 0
M  V30 10839 H 1016.46 3.3488 -2.4882 0
M  V30 10840 H 1015.09 2.88668 -1.44466 0
M  V30 10841 H 1014.14 1.56078 -3.46906 0
M  V30 10842 H 1015.45 2.24468 -4.45439 0
M  V30 10843 H 1014.6 4.55715 -4.00511 0
M  V30 10844 H 1013.34 3.90595 -2.92039 0
M  V30 10845 H 1012.35 2.62034 -4.8334 0
M  V30 10846 H 1013.57 3.30206 -5.93414 0
M  V30 10847 H 1011.52 4.90139 -4.36005 0
M  V30 10848 H 1011.44 4.53165 -6.05126 0
M  V30 10849 H 1012.7 5.56338 -5.45993 0
M  V30 10850 N 1016.93 1.50896 0.454776 0
M  V30 10851 C 1018.18 1.6294 1.20741 0
M  V30 10852 C 1018.51 0.336339 1.91265 0
M  V30 10853 O 1017.79 -0.663153 1.82846 0
M  V30 10854 C 1018.07 2.82092 2.23822 0
M  V30 10855 C 1017.92 4.21326 1.57495 0
M  V30 10856 C 1019.24 2.96777 3.24979 0
M  V30 10857 H 1016.36 0.59302 0.437603 0
M  V30 10858 H 1019 1.83331 0.498959 0
M  V30 10859 H 1017.15 2.64837 2.84243 0
M  V30 10860 H 1018.82 4.50209 1.00546 0
M  V30 10861 H 1017.07 4.24829 0.877664 0
M  V30 10862 H 1017.74 5.00656 2.32482 0
M  V30 10863 H 1020.21 3.12627 2.74597 0
M  V30 10864 H 1019.09 3.81742 3.94416 0
M  V30 10865 H 1019.35 2.08091 3.90065 0
M  V30 10866 N 1018.41 -0.709066 1.40748 0
M  V30 10867 C 1019.32 -1.85314 1.43861 0
M  V30 10868 C 1020.34 -1.70832 0.330539 0
M  V30 10869 O 1021.51 -1.92983 0.576152 0
M  V30 10870 C 1018.58 -3.21174 1.30568 0
M  V30 10871 C 1017.64 -3.47863 2.51574 0
M  V30 10872 C 1016.87 -4.77241 2.38906 0
M  V30 10873 O 1017.09 -5.52791 1.40636 0
M  V30 10874 O 1016.03 -5.04413 3.28407 0
M  V30 10875 H 1019.85 -1.85644 2.40354 0
M  V30 10876 H 1017.44 -0.860352 1.2214 0
M  V30 10877 H 1019.32 -4.02313 1.25388 0
M  V30 10878 H 1018 -3.21557 0.371841 0
M  V30 10879 H 1016.9 -2.66708 2.62331 0
M  V30 10880 H 1018.24 -3.52283 3.43741 0
M  V30 10881 N 1019.89 -1.26353 -0.941956 0
M  V30 10882 C 1021.11 -1.14731 -1.72776 0
M  V30 10883 C 1021.54 0.293766 -1.85792 0
M  V30 10884 O 1020.9 1.21284 -1.34759 0
M  V30 10885 C 1020.95 -1.82041 -3.11277 0
M  V30 10886 O 1020.05 -1.10867 -3.97218 0
M  V30 10887 H 1019.39 -0.399823 -0.53013 0
M  V30 10888 H 1021.92 -1.67157 -1.17981 0
M  V30 10889 H 1021.93 -1.88834 -3.61671 0
M  V30 10890 H 1020.61 -2.86879 -3.0112 0
M  V30 10891 H 1019.18 -1.12044 -3.55669 0
M  V30 10892 N 1021.37 1.14642 -1.08144 0
M  V30 10893 C 1022.61 1.85617 -0.809484 0
M  V30 10894 C 1022.94 1.8279 0.664672 0
M  V30 10895 O 1022.2 1.25178 1.50429 0
M  V30 10896 C 1022.5 3.33953 -1.2732 0
M  V30 10897 C 1022.16 3.56969 -2.7547 0
M  V30 10898 C 1020.82 3.6296 -3.15933 0
M  V30 10899 C 1023.18 3.66014 -3.71057 0
M  V30 10900 C 1020.5 3.75515 -4.50783 0
M  V30 10901 C 1022.86 3.80094 -5.05679 0
M  V30 10902 C 1021.52 3.84333 -5.45751 0
M  V30 10903 H 1020.79 0.67922 -0.296211 0
M  V30 10904 H 1023.44 1.35433 -1.35389 0
M  V30 10905 H 1021.74 3.86399 -0.648329 0
M  V30 10906 H 1023.44 3.87291 -1.03957 0
M  V30 10907 H 1020.03 3.52953 -2.4315 0
M  V30 10908 H 1024.21 3.60679 -3.40917 0
M  V30 10909 H 1019.47 3.77057 -4.81288 0
M  V30 10910 H 1023.64 3.86035 -5.79612 0
M  V30 10911 H 1021.27 3.93814 -6.50242 0
M  V30 10912 N 1022.85 0.866709 1.31628 0
M  V30 10913 C 1024.07 0.49039 2.01004 0
M  V30 10914 C 1024.49 -0.916244 1.65077 0
M  V30 10915 O 1023.85 -1.59975 0.8783 0
M  V30 10916 C 1023.9 0.634011 3.55897 0
M  V30 10917 O 1023.62 1.98525 3.90537 0
M  V30 10918 C 1025.12 0.258277 4.42547 0
M  V30 10919 H 1022.34 0.191421 0.643117 0
M  V30 10920 H 1024.88 1.16698 1.67934 0
M  V30 10921 H 1023.04 0.00501801 3.874 0
M  V30 10922 H 1023.45 1.99067 4.85255 0
M  V30 10923 H 1024.93 0.409733 5.50477 0
M  V30 10924 H 1025.4 -0.802301 4.3181 0
M  V30 10925 H 1026.01 0.862837 4.16456 0
M  V30 10926 N 1024.32 -1.44642 0.625825 0
M  V30 10927 C 1025.57 -2.01308 0.125682 0
M  V30 10928 C 1025.89 -1.49773 -1.25807 0
M  V30 10929 O 1027.09 -1.98533 -1.85194 0
M  V30 10930 C 1025.55 -3.59479 0.17395 0
M  V30 10931 C 1025.16 -4.20011 1.55868 0
M  V30 10932 C 1026.9 -4.2364 -0.270005 0
M  V30 10933 C 1024.81 -5.7039 1.56235 0
M  V30 10934 H 1023.74 -0.75276 0.0432194 0
M  V30 10935 H 1026.39 -1.65916 0.783842 0
M  V30 10936 H 1024.77 -3.92145 -0.551212 0
M  V30 10937 H 1025.94 -3.98891 2.307 0
M  V30 10938 H 1024.26 -3.68116 1.94627 0
M  V30 10939 H 1026.86 -5.33931 -0.28672 0
M  V30 10940 H 1027.2 -3.95603 -1.29629 0
M  V30 10941 H 1027.73 -3.95759 0.402487 0
M  V30 10942 H 1024.47 -6.03154 2.56683 0
M  V30 10943 H 1023.99 -5.93648 0.856881 0
M  V30 10944 H 1025.67 -6.33929 1.29396 0
M  V30 10945 N 1025.8 -0.366053 -1.5329 0
M  V30 10946 C 1026.75 0.496656 -2.22525 0
M  V30 10947 C 1027.74 1.0483 -1.22063 0
M  V30 10948 O 1028.93 0.978266 -1.47509 0
M  V30 10949 C 1026.06 1.63559 -3.01833 0
M  V30 10950 C 1025.14 1.0968 -4.09672 0
M  V30 10951 N 1025.53 0.28104 -5.05019 0
M  V30 10952 C 1023.83 1.37157 -4.24387 0
M  V30 10953 C 1024.53 -0.0140071 -5.81698 0
M  V30 10954 N 1023.51 0.583743 -5.40457 0
M  V30 10955 H 1027.31 -0.133408 -2.93597 0
M  V30 10956 H 1024.82 -0.174095 -1.61464 0
M  V30 10957 H 1026.82 2.26582 -3.49952 0
M  V30 10958 H 1025.48 2.26871 -2.32292 0
M  V30 10959 H 1026.49 -0.0797947 -5.17839 0
M  V30 10960 H 1023.17 2.00743 -3.66072 0
M  V30 10961 H 1024.56 -0.673508 -6.68516 0
M  V30 10962 N 1027.28 1.57312 -0.0952337 0
M  V30 10963 C 1028.23 2.15263 0.881167 0
M  V30 10964 C 1029.22 1.09552 1.29208 0
M  V30 10965 O 1030.43 1.27897 1.26659 0
M  V30 10966 H 1026.8 0.688611 0.302191 0
M  V30 10967 H 1028.77 2.96126 0.367694 0
M  V30 10968 C 1027.52 2.74779 2.13053 0
M  V30 10969 H 1026.85 3.55807 1.82323 0
M  V30 10970 H 1028.29 3.18895 2.79431 0
M  V30 10971 C 1026.74 1.7068 2.90465 0
M  V30 10972 O 1027.27 1.14582 3.85011 0
M  V30 10973 N 1025.48 1.41169 2.54007 0
M  V30 10974 H 1025.03 1.86977 1.77193 0
M  V30 10975 H 1024.99 0.717559 3.06102 0
M  V30 10976 N 1028.76 -0.17846 1.56586 0
M  V30 10977 C 1030.01 -0.894464 1.81228 0
M  V30 10978 C 1030.33 -1.83089 0.671062 0
M  V30 10979 O 1029.6 -1.93439 -0.309557 0
M  V30 10980 H 1028.18 -0.333288 0.668527 0
M  V30 10981 H 1030.84 -0.179986 1.94067 0
M  V30 10982 H 1029.93 -1.47565 2.75011 0
M  V30 10983 N 1030.24 -1.51135 -0.446768 0
M  V30 10984 C 1031.17 -1.67949 -1.55967 0
M  V30 10985 C 1032.18 -0.560337 -1.52853 0
M  V30 10986 O 1033.37 -0.83435 -1.578 0
M  V30 10987 C 1030.47 -1.6703 -2.9488 0
M  V30 10988 C 1029.64 -2.95377 -3.22601 0
M  V30 10989 C 1028.7 -2.86772 -4.4119 0
M  V30 10990 O 1027.73 -3.60722 -4.40304 0
M  V30 10991 N 1028.93 -2.01979 -5.44228 0
M  V30 10992 H 1031.69 -2.63951 -1.41951 0
M  V30 10993 H 1029.26 -1.48903 -0.635569 0
M  V30 10994 H 1031.25 -1.58854 -3.7222 0
M  V30 10995 H 1029.82 -0.786623 -3.02541 0
M  V30 10996 H 1029.04 -3.17494 -2.33647 0
M  V30 10997 H 1030.33 -3.80356 -3.37945 0
M  V30 10998 H 1029.72 -1.41257 -5.4778 0
M  V30 10999 H 1028.28 -1.99689 -6.20457 0
M  V30 11000 N 1031.71 0.701592 -1.41122 0
M  V30 11001 C 1032.96 1.46376 -1.40363 0
M  V30 11002 C 1033.29 1.94197 -0.0105442 0
M  V30 11003 O 1032.57 1.69121 0.960637 0
M  V30 11004 C 1032.85 2.67994 -2.40523 0
M  V30 11005 C 1032.7 2.25977 -3.88914 0
M  V30 11006 C 1034.02 3.70181 -2.38022 0
M  V30 11007 H 1031.14 0.530929 -0.511159 0
M  V30 11008 H 1033.78 0.799588 -1.72356 0
M  V30 11009 H 1031.93 3.24661 -2.13372 0
M  V30 11010 H 1033.61 1.74684 -4.26946 0
M  V30 11011 H 1031.85 1.57826 -4.04071 0
M  V30 11012 H 1032.52 3.13215 -4.54533 0
M  V30 11013 H 1035 3.23174 -2.62103 0
M  V30 11014 H 1033.87 4.52894 -3.10127 0
M  V30 11015 H 1034.13 4.19458 -1.3967 0
M  V30 11016 N 1033.19 1.2685 0.935242 0
M  V30 11017 C 1034.6 1.11569 1.49697 0
M  V30 11018 C 1034.95 -0.301952 1.93863 0
M  V30 11019 O 1034.08 -1.19408 1.80473 0
M  V30 11020 C 1034.67 2.01918 2.72056 0
M  V30 11021 C 1033.23 1.90765 3.24477 0
M  V30 11022 C 1032.38 1.94918 1.97237 0
M  V30 11023 H 1035.33 1.39853 0.750116 0
M  V30 11024 H 1035.35 1.57056 3.46574 0
M  V30 11025 H 1034.86 3.05088 2.39881 0
M  V30 11026 H 1032.96 0.905521 3.61429 0
M  V30 11027 H 1033.08 2.76611 3.91182 0
M  V30 11028 H 1031.44 1.39046 2.13397 0
M  V30 11029 H 1032.22 2.99729 1.67385 0
M  V30 11030 N 1034.67 -1.14067 1.0875 0
M  V30 11031 C 1035.91 -1.8684 0.828873 0
M  V30 11032 C 1036.27 -1.81235 -0.633879 0
M  V30 11033 O 1037.48 -2.49178 -1.00815 0
M  V30 11034 C 1035.75 -3.31299 1.34073 0
M  V30 11035 S 1037.31 -4.21645 1.21494 0
M  V30 11036 H 1034.12 -0.644622 0.299972 0
M  V30 11037 H 1036.73 -1.37526 1.38949 0
M  V30 11038 H 1035.43 -3.32929 2.39972 0
M  V30 11039 H 1034.96 -3.85672 0.775944 0
M  V30 11040 H 1036.98 -4.95937 0.161446 0
M  V30 11041 N 1036.15 -0.873678 -1.31166 0
M  V30 11042 C 1037.1 -0.303699 -2.25968 0
M  V30 11043 C 1038.08 0.561387 -1.50789 0
M  V30 11044 O 1039.27 0.407658 -1.72242 0
M  V30 11045 C 1036.4 0.490612 -3.39776 0
M  V30 11046 C 1035.49 -0.387927 -4.22322 0
M  V30 11047 N 1035.88 -1.48313 -4.83567 0
M  V30 11048 C 1034.18 -0.18102 -4.45632 0
M  V30 11049 C 1034.88 -2.0252 -5.45308 0
M  V30 11050 N 1033.86 -1.32169 -5.27288 0
M  V30 11051 H 1037.66 -1.14071 -2.7086 0
M  V30 11052 H 1035.17 -0.721843 -1.45476 0
M  V30 11053 H 1037.17 0.9155 -4.06724 0
M  V30 11054 H 1035.83 1.32519 -2.96427 0
M  V30 11055 H 1036.84 -1.86604 -4.83114 0
M  V30 11056 H 1033.52 0.617304 -4.12911 0
M  V30 11057 H 1034.91 -2.94429 -6.03955 0
M  V30 11058 N 1037.63 1.44308 -0.633487 0
M  V30 11059 C 1038.87 2.02023 -0.138917 0
M  V30 11060 C 1039.2 1.49841 1.24008 0
M  V30 11061 O 1038.46 0.673718 1.83738 0
M  V30 11062 C 1038.76 3.57316 -0.0773886 0
M  V30 11063 C 1038.42 4.28762 -1.39548 0
M  V30 11064 C 1037.08 4.47997 -1.75648 0
M  V30 11065 C 1039.44 4.69391 -2.26542 0
M  V30 11066 C 1036.76 5.05121 -2.98445 0
M  V30 11067 C 1039.12 5.27876 -3.48612 0
M  V30 11068 C 1037.78 5.45329 -3.84932 0
M  V30 11069 H 1037.05 0.739254 -0.0508333 0
M  V30 11070 H 1039.7 1.73043 -0.820271 0
M  V30 11071 H 1038 3.85724 0.687345 0
M  V30 11072 H 1039.7 3.99706 0.321837 0
M  V30 11073 H 1036.29 4.14122 -1.10456 0
M  V30 11074 H 1040.47 4.54241 -1.99946 0
M  V30 11075 H 1035.73 5.16821 -3.26658 0
M  V30 11076 H 1039.9 5.58307 -4.16253 0
M  V30 11077 H 1037.53 5.8936 -4.80166 0
M  V30 11078 N 1039.1 0.374177 1.53094 0
M  V30 11079 C 1040.01 -0.475935 2.29722 0
M  V30 11080 C 1041.03 -1.085 1.36029 0
M  V30 11081 O 1042.21 -1.09408 1.69091 0
M  V30 11082 C 1039.27 -1.59572 3.07795 0
M  V30 11083 C 1038.33 -1.01332 4.17169 0
M  V30 11084 C 1037.57 -2.07975 4.9151 0
M  V30 11085 O 1037.79 -3.29232 4.65793 0
M  V30 11086 O 1036.72 -1.7055 5.77232 0
M  V30 11087 H 1040.55 0.147877 3.0334 0
M  V30 11088 H 1038.13 0.138312 1.48758 0
M  V30 11089 H 1040.02 -2.24658 3.5652 0
M  V30 11090 H 1038.69 -2.20478 2.37005 0
M  V30 11091 H 1037.6 -0.326133 3.72676 0
M  V30 11092 H 1038.93 -0.4487 4.90151 0
M  V30 11093 N 1040.58 -1.57259 0.103575 0
M  V30 11094 C 1041.83 -1.94657 -0.558126 0
M  V30 11095 C 1042.16 -0.985886 -1.67662 0
M  V30 11096 O 1041.41 -0.0069745 -1.95699 0
M  V30 11097 C 1041.71 -3.38549 -1.14538 0
M  V30 11098 C 1041.38 -4.50651 -0.149818 0
M  V30 11099 C 1040.04 -4.8104 0.12398 0
M  V30 11100 C 1042.39 -5.18503 0.529497 0
M  V30 11101 C 1039.72 -5.76606 1.08364 0
M  V30 11102 C 1042.07 -6.15099 1.47769 0
M  V30 11103 C 1040.74 -6.43889 1.75963 0
M  V30 11104 H 1040.01 -0.712299 -0.204233 0
M  V30 11105 H 1042.65 -1.90641 0.181208 0
M  V30 11106 H 1040.96 -3.39185 -1.96115 0
M  V30 11107 H 1042.65 -3.6479 -1.66521 0
M  V30 11108 H 1039.24 -4.2697 -0.373404 0
M  V30 11109 H 1043.43 -4.95194 0.331121 0
M  V30 11110 H 1038.68 -5.97223 1.30899 0
M  V30 11111 H 1042.86 -6.66767 2.00983 0
M  V30 11112 H 1040.49 -7.17749 2.50481 0
M  V30 11113 N 1042.06 0.170153 -1.56679 0
M  V30 11114 C 1043.31 0.884902 -1.81252 0
M  V30 11115 C 1043.62 1.83361 -0.681024 0
M  V30 11116 O 1044.83 2.59082 -0.811722 0
M  V30 11117 C 1043.28 1.62408 -3.21172 0
M  V30 11118 C 1042.89 0.718947 -4.42194 0
M  V30 11119 C 1044.64 2.32699 -3.55037 0
M  V30 11120 C 1042.54 1.45843 -5.73135 0
M  V30 11121 H 1041.47 0.33418 -0.675899 0
M  V30 11122 H 1044.12 0.137818 -1.82982 0
M  V30 11123 H 1042.51 2.41596 -3.13763 0
M  V30 11124 H 1043.68 -0.0360521 -4.60786 0
M  V30 11125 H 1042 0.125634 -4.1621 0
M  V30 11126 H 1044.59 2.88621 -4.50114 0
M  V30 11127 H 1044.94 3.08092 -2.79974 0
M  V30 11128 H 1045.47 1.60453 -3.64005 0
M  V30 11129 H 1042.21 0.746799 -6.51232 0
M  V30 11130 H 1041.73 2.18672 -5.58518 0
M  V30 11131 H 1043.41 2.0056 -6.1513 0
M  V30 11132 N 1043.54 1.5137 0.438746 0
M  V30 11133 C 1044.49 1.73154 1.55308 0
M  V30 11134 C 1045.48 0.597825 1.58501 0
M  V30 11135 O 1046.69 0.77917 1.62262 0
M  V30 11136 H 1043.06 0.547083 0.51595 0
M  V30 11137 H 1045.03 2.66566 1.34108 0
M  V30 11138 C 1043.78 1.87242 2.92977 0
M  V30 11139 H 1043.1 2.73884 2.91252 0
M  V30 11140 H 1044.54 2.06497 3.70317 0
M  V30 11141 C 1043 0.631887 3.30921 0
M  V30 11142 O 1043.53 -0.214099 4.01129 0
M  V30 11143 N 1041.74 0.47639 2.86669 0
M  V30 11144 H 1041.29 1.16589 2.29706 0
M  V30 11145 H 1041.24 -0.352403 3.12419 0
M  V30 11146 N 1045.02 -0.694098 1.41492 0
M  V30 11147 C 1045.96 -1.80801 1.43456 0
M  V30 11148 C 1046.93 -1.63571 0.288757 0
M  V30 11149 O 1048.12 -1.844 0.490017 0
M  V30 11150 C 1045.26 -3.18694 1.32394 0
M  V30 11151 C 1044.37 -3.47346 2.56855 0
M  V30 11152 C 1043.51 -4.74862 2.38075 0
M  V30 11153 C 1042.55 -4.96486 3.58005 0
M  V30 11154 N 1041.68 -6.15229 3.38287 0
M  V30 11155 H 1046.52 -1.78457 2.38657 0
M  V30 11156 H 1044.06 -0.871455 1.18508 0
M  V30 11157 H 1046.02 -3.98352 1.23982 0
M  V30 11158 H 1044.65 -3.20211 0.407999 0
M  V30 11159 H 1043.7 -2.62083 2.75711 0
M  V30 11160 H 1045.01 -3.59226 3.4606 0
M  V30 11161 H 1044.17 -5.62577 2.27139 0
M  V30 11162 H 1042.9 -4.6523 1.46329 0
M  V30 11163 H 1041.91 -4.07219 3.69395 0
M  V30 11164 H 1043.13 -5.07976 4.50708 0
M  V30 11165 H 1041.08 -6.06807 2.49242 0
M  V30 11166 H 1041 -6.27883 4.21069 0
M  V30 11167 H 1042.27 -7.05674 3.31126 0
M  V30 11168 N 1046.49 -1.27344 -0.928501 0
M  V30 11169 C 1047.91 -1.12361 -1.49103 0
M  V30 11170 C 1048.26 0.291667 -1.9402 0
M  V30 11171 O 1047.38 1.18449 -1.81104 0
M  V30 11172 C 1047.98 -2.03358 -2.70981 0
M  V30 11173 C 1046.54 -1.92483 -3.23461 0
M  V30 11174 C 1045.68 -1.95961 -1.962 0
M  V30 11175 H 1048.63 -1.40249 -0.742689 0
M  V30 11176 H 1048.65 -1.58892 -3.45736 0
M  V30 11177 H 1048.17 -3.06356 -2.38259 0
M  V30 11178 H 1046.27 -0.924676 -3.60944 0
M  V30 11179 H 1046.38 -2.78682 -3.89709 0
M  V30 11180 H 1044.74 -1.40175 -2.12657 0
M  V30 11181 H 1045.53 -3.00612 -1.65793 0
M  V30 11182 N 1047.97 1.13488 -1.09353 0
M  V30 11183 C 1049.25 1.80998 -0.741559 0
M  V30 11184 C 1049.63 1.96418 0.773505 0
M  V30 11185 O 1048.98 1.53168 1.69563 0
M  V30 11186 C 1049.19 3.16078 -1.47972 0
M  V30 11187 C 1050.54 3.91438 -1.64504 0
M  V30 11188 O 1051.56 3.25699 -1.44218 0
M  V30 11189 O 1050.42 5.0935 -1.98054 0
M  V30 11190 H 1047.51 0.782953 -0.266297 0
M  V30 11191 H 1050.06 1.20422 -1.19569 0
M  V30 11192 H 1048.83 3.00076 -2.51137 0
M  V30 11193 H 1048.45 3.84354 -1.01772 0
M  V30 11194 N 1049.45 0.880621 1.30701 0
M  V30 11195 C 1050.36 0.348034 2.32004 0
M  V30 11196 C 1051.38 -0.547508 1.65162 0
M  V30 11197 O 1052.55 -0.441673 1.96497 0
M  V30 11198 C 1049.62 -0.432585 3.43991 0
M  V30 11199 C 1048.68 0.492189 4.26469 0
M  V30 11200 C 1047.91 -0.25127 5.33108 0
M  V30 11201 O 1048.14 -1.47795 5.5092 0
M  V30 11202 O 1047.07 0.396376 6.00593 0
M  V30 11203 H 1050.9 1.18798 2.79501 0
M  V30 11204 H 1048.48 0.64432 1.34792 0
M  V30 11205 H 1050.36 -0.874733 4.12221 0
M  V30 11206 H 1049.04 -1.2489 2.98637 0
M  V30 11207 H 1047.94 0.983058 3.60953 0
M  V30 11208 H 1049.28 1.27439 4.75416 0
M  V30 11209 N 1050.93 -1.4397 0.641131 0
M  V30 11210 C 1051.84 -2.34526 -0.058742 0
M  V30 11211 C 1052.86 -1.53194 -0.825088 0
M  V30 11212 O 1054.03 -1.85888 -0.775081 0
M  V30 11213 C 1051.1 -3.31313 -1.02139 0
M  V30 11214 C 1050.16 -4.28552 -0.253319 0
M  V30 11215 C 1049.39 -5.20715 -1.17012 0
M  V30 11216 O 1049.61 -5.17028 -2.40911 0
M  V30 11217 O 1048.55 -5.9839 -0.649039 0
M  V30 11218 H 1052.37 -2.95843 0.686329 0
M  V30 11219 H 1049.96 -1.43909 0.401316 0
M  V30 11220 H 1051.84 -3.90862 -1.57496 0
M  V30 11221 H 1050.52 -2.72516 -1.7469 0
M  V30 11222 H 1049.42 -3.72519 0.343531 0
M  V30 11223 H 1050.76 -4.90297 0.432372 0
M  V30 11224 N 1052.41 -0.382291 -1.52893 0
M  V30 11225 C 1053.63 0.204961 -2.06385 0
M  V30 11226 C 1054.06 1.40316 -1.25271 0
M  V30 11227 O 1053.42 1.79187 -0.275969 0
M  V30 11228 C 1053.46 0.560205 -3.56222 0
M  V30 11229 O 1052.57 1.65515 -3.77728 0
M  V30 11230 H 1051.91 0.0258798 -0.663495 0
M  V30 11231 H 1054.44 -0.547733 -1.97132 0
M  V30 11232 H 1054.45 0.826501 -3.99541 0
M  V30 11233 H 1053.12 -0.31584 -4.14699 0
M  V30 11234 H 1051.7 1.38311 -3.46301 0
M  V30 11235 N 1053.89 1.57202 -0.111913 0
M  V30 11236 C 1055.12 1.99008 0.554907 0
M  V30 11237 C 1055.52 0.990323 1.61212 0
M  V30 11238 O 1054.87 -0.0259612 1.83682 0
M  V30 11239 C 1054.93 3.37218 1.24598 0
M  V30 11240 C 1054.59 4.55752 0.337549 0
M  V30 11241 C 1055.59 5.18192 -0.421026 0
M  V30 11242 C 1053.27 5.01674 0.25069 0
M  V30 11243 C 1055.27 6.24938 -1.25426 0
M  V30 11244 C 1052.96 6.08282 -0.586186 0
M  V30 11245 C 1053.95 6.6978 -1.3373 0
M  V30 11246 O 1053.64 7.7433 -2.16029 0
M  V30 11247 H 1053.37 0.658669 0.152091 0
M  V30 11248 H 1055.93 2.04492 -0.192937 0
M  V30 11249 H 1054.16 3.28467 2.04074 0
M  V30 11250 H 1055.85 3.63359 1.809 0
M  V30 11251 H 1056.61 4.83634 -0.363752 0
M  V30 11252 H 1052.49 4.53558 0.825005 0
M  V30 11253 H 1056.04 6.72869 -1.84102 0
M  V30 11254 H 1051.93 6.42271 -0.64488 0
M  V30 11255 H 1052.7 7.91395 -2.08894 0
M  V30 11256 N 1055.36 -0.161842 1.56767 0
M  V30 11257 C 1056.6 -0.88331 1.84329 0
M  V30 11258 C 1056.97 -1.79012 0.694165 0
M  V30 11259 O 1058.17 -2.54991 0.850461 0
M  V30 11260 C 1056.44 -1.65 3.17033 0
M  V30 11261 S 1058 -2.41893 3.66106 0
M  V30 11262 H 1054.82 -0.295667 0.646608 0
M  V30 11263 H 1057.42 -0.14429 1.94967 0
M  V30 11264 H 1056.12 -0.975025 3.9865 0
M  V30 11265 H 1055.65 -2.43021 3.09361 0
M  V30 11266 H 1057.67 -3.66788 3.34187 0
M  V30 11267 N 1056.84 -1.516 -0.430713 0
M  V30 11268 C 1057.79 -1.73392 -1.52328 0
M  V30 11269 C 1058.76 -0.575758 -1.55802 0
M  V30 11270 O 1059.94 -0.810931 -1.72709 0
M  V30 11271 C 1057.08 -1.87092 -2.89984 0
M  V30 11272 C 1056.2 -3.14668 -2.95987 0
M  V30 11273 C 1055.33 -3.18923 -4.24807 0
M  V30 11274 C 1054.37 -4.40787 -4.24703 0
M  V30 11275 N 1053.51 -4.42556 -5.45059 0
M  V30 11276 H 1058.35 -2.6665 -1.33048 0
M  V30 11277 H 1055.88 -1.32146 -0.646207 0
M  V30 11278 H 1057.84 -1.93017 -3.69865 0
M  V30 11279 H 1056.47 -0.972363 -3.07807 0
M  V30 11280 H 1055.52 -3.1802 -2.08728 0
M  V30 11281 H 1056.84 -4.04562 -2.91772 0
M  V30 11282 H 1055.99 -3.23801 -5.13067 0
M  V30 11283 H 1054.73 -2.2693 -4.31688 0
M  V30 11284 H 1053.73 -4.36079 -3.34836 0
M  V30 11285 H 1054.96 -5.34053 -4.19481 0
M  V30 11286 H 1052.91 -3.53435 -5.52648 0
M  V30 11287 H 1052.82 -5.26267 -5.42751 0
M  V30 11288 H 1054.09 -4.51634 -6.35332 0
M  V30 11289 N 1058.32 0.686584 -1.41858 0
M  V30 11290 C 1059.25 1.81202 -1.40352 0
M  V30 11291 C 1060.26 1.5993 -0.304322 0
M  V30 11292 O 1061.45 1.69267 -0.566643 0
M  V30 11293 C 1058.55 3.18116 -1.16856 0
M  V30 11294 C 1057.73 3.66339 -2.38987 0
M  V30 11295 C 1056.79 4.8195 -2.11212 0
M  V30 11296 O 1055.81 4.93102 -2.84323 0
M  V30 11297 N 1057.01 5.69829 -1.10793 0
M  V30 11298 H 1059.78 1.82983 -2.37355 0
M  V30 11299 H 1057.34 0.869244 -1.36586 0
M  V30 11300 H 1059.33 3.93097 -0.962125 0
M  V30 11301 H 1057.9 3.11306 -0.284186 0
M  V30 11302 H 1057.12 2.82166 -2.75274 0
M  V30 11303 H 1058.41 3.95297 -3.2034 0
M  V30 11304 H 1057.81 5.63459 -0.503012 0
M  V30 11305 H 1056.36 6.44671 -0.961379 0
M  V30 11306 N 1059.8 1.27835 0.921735 0
M  V30 11307 C 1061.04 1.15702 1.67286 0
M  V30 11308 C 1061.4 -0.293049 1.90155 0
M  V30 11309 O 1060.69 -1.21058 1.48511 0
M  V30 11310 C 1060.89 1.88054 3.03925 0
M  V30 11311 C 1060.71 3.39947 2.94391 0
M  V30 11312 C 1059.48 4.09275 2.96347 0
M  V30 11313 C 1061.68 4.35824 2.7306 0
M  V30 11314 N 1059.66 5.47694 2.77317 0
M  V30 11315 C 1061.04 5.61551 2.62794 0
M  V30 11316 C 1063.09 4.25844 2.57994 0
M  V30 11317 C 1061.79 6.78434 2.38998 0
M  V30 11318 C 1063.82 5.42455 2.35577 0
M  V30 11319 C 1063.18 6.67141 2.26058 0
M  V30 11320 H 1059.28 0.478278 0.618687 0
M  V30 11321 H 1061.86 1.61382 1.08922 0
M  V30 11322 H 1060.04 1.4482 3.60391 0
M  V30 11323 H 1061.77 1.68374 3.68011 0
M  V30 11324 H 1058.52 3.6079 3.06802 0
M  V30 11325 H 1058.95 6.2043 2.70916 0
M  V30 11326 H 1063.59 3.30161 2.64109 0
M  V30 11327 H 1061.31 7.74194 2.31623 0
M  V30 11328 H 1064.89 5.36617 2.24796 0
M  V30 11329 H 1063.77 7.55851 2.08947 0
M  V30 11330 N 1061.28 -1.12907 1.09954 0
M  V30 11331 C 1062.21 -2.20585 0.765799 0
M  V30 11332 C 1063.19 -1.68117 -0.258989 0
M  V30 11333 O 1064.37 -1.93792 -0.125853 0
M  V30 11334 C 1061.5 -3.46772 0.191435 0
M  V30 11335 C 1060.46 -4.12363 1.14635 0
M  V30 11336 C 1059.78 -5.3294 0.433426 0
M  V30 11337 C 1061.08 -4.59073 2.49096 0
M  V30 11338 H 1062.78 -2.48759 1.66612 0
M  V30 11339 H 1060.32 -1.19563 0.802534 0
M  V30 11340 H 1062.27 -4.21365 -0.0541535 0
M  V30 11341 H 1061 -3.18011 -0.744101 0
M  V30 11342 H 1059.66 -3.39744 1.37731 0
M  V30 11343 H 1059.31 -5.00444 -0.506422 0
M  V30 11344 H 1059.01 -5.77772 1.07018 0
M  V30 11345 H 1060.53 -6.10284 0.196267 0
M  V30 11346 H 1061.94 -5.25063 2.30177 0
M  V30 11347 H 1060.34 -5.14665 3.0861 0
M  V30 11348 H 1061.41 -3.73313 3.0946 0
M  V30 11349 N 1062.75 -0.88754 -1.30232 0
M  V30 11350 C 1063.7 -0.345765 -2.30016 0
M  V30 11351 C 1064.7 0.5486 -1.60271 0
M  V30 11352 O 1065.9 0.43275 -1.74721 0
M  V30 11353 H 1062.28 -0.0931623 -0.746207 0
M  V30 11354 H 1064.25 -1.20095 -2.73166 0
M  V30 11355 C 1063 0.422435 -3.45124 0
M  V30 11356 H 1062.32 -0.256516 -3.98976 0
M  V30 11357 H 1063.76 0.766572 -4.17013 0
M  V30 11358 C 1062.22 1.62049 -2.95367 0
M  V30 11359 O 1062.75 2.71985 -2.95613 0
M  V30 11360 N 1060.95 1.45852 -2.51347 0
M  V30 11361 H 1060.5 0.564158 -2.51346 0
M  V30 11362 H 1060.46 2.26148 -2.18413 0
M  V30 11363 N 1064.23 1.43628 -0.648757 0
M  V30 11364 C 1065.2 2.29172 0.0360713 0
M  V30 11365 C 1066.2 1.41974 0.754976 0
M  V30 11366 O 1067.39 1.63654 0.5969 0
M  V30 11367 C 1064.52 3.23942 1.0618 0
M  V30 11368 H 1065.71 2.91214 -0.716544 0
M  V30 11369 H 1063.26 1.50833 -0.409759 0
M  V30 11370 H 1064 2.66786 1.8438 0
M  V30 11371 H 1063.78 3.88223 0.550016 0
M  V30 11372 H 1065.27 3.8816 1.54019 0
M  V30 11373 N 1065.71 0.390394 1.52688 0
M  V30 11374 C 1066.66 -0.4591 2.28024 0
M  V30 11375 C 1067.65 -1.06212 1.31967 0
M  V30 11376 O 1068.86 -1.00247 1.49501 0
M  V30 11377 H 1065.23 -0.16681 0.733266 0
M  V30 11378 H 1067.2 0.197747 2.97744 0
M  V30 11379 C 1065.95 -1.5737 3.10048 0
M  V30 11380 H 1065.28 -1.11901 3.83821 0
M  V30 11381 H 1066.72 -2.1423 3.65898 0
M  V30 11382 C 1065.18 -2.53036 2.22429 0
M  V30 11383 O 1065.71 -3.5647 1.85181 0
M  V30 11384 N 1063.91 -2.22802 1.86567 0
M  V30 11385 H 1063.46 -1.38723 2.17057 0
M  V30 11386 H 1063.42 -2.87061 1.28233 0
M  V30 11387 N 1067.19 -1.57141 0.120249 0
M  V30 11388 C 1068.6 -1.82256 -0.404931 0
M  V30 11389 C 1068.95 -1.03748 -1.66526 0
M  V30 11390 O 1068.08 -0.274456 -2.14653 0
M  V30 11391 C 1068.67 -3.30588 -0.741431 0
M  V30 11392 C 1067.23 -3.56379 -1.21124 0
M  V30 11393 C 1066.38 -2.76421 -0.220569 0
M  V30 11394 H 1069.33 -1.54897 0.345361 0
M  V30 11395 H 1069.35 -3.45284 -1.59872 0
M  V30 11396 H 1068.86 -3.87701 0.176036 0
M  V30 11397 H 1066.96 -3.04625 -2.14556 0
M  V30 11398 H 1067.07 -4.64952 -1.1557 0
M  V30 11399 H 1065.44 -2.44666 -0.707857 0
M  V30 11400 H 1066.22 -3.36294 0.690018 0
M  V30 11401 N 1068.67 0.153526 -1.5685 0
M  V30 11402 C 1069.89 0.886343 -1.87507 0
M  V30 11403 C 1070.32 1.74244 -0.708565 0
M  V30 11404 O 1069.67 1.78045 0.341997 0
M  V30 11405 C 1069.72 1.72428 -3.16703 0
M  V30 11406 O 1068.83 2.82784 -3.00178 0
M  V30 11407 H 1068.17 0.247259 -0.616246 0
M  V30 11408 H 1070.7 0.146306 -2.04076 0
M  V30 11409 H 1070.71 2.12062 -3.4856 0
M  V30 11410 H 1069.38 1.09558 -4.01211 0
M  V30 11411 H 1067.96 2.46604 -2.79716 0
M  V30 11412 N 1070.14 1.51827 0.422667 0
M  V30 11413 C 1071.56 1.40328 0.760275 0
M  V30 11414 C 1071.76 0.497119 1.95272 0
M  V30 11415 O 1070.82 -0.0422083 2.52465 0
M  V30 11416 C 1072.13 2.82622 1.02689 0
M  V30 11417 C 1073.68 2.91874 1.13044 0
M  V30 11418 C 1074.15 4.35107 1.4299 0
M  V30 11419 N 1075.64 4.3828 1.49883 0
M  V30 11420 C 1076.38 5.46153 1.74655 0
M  V30 11421 N 1075.87 6.64165 1.9712 0
M  V30 11422 N 1077.67 5.33651 1.76558 0
M  V30 11423 H 1069.82 2.09285 -0.362455 0
M  V30 11424 H 1072.08 0.94273 -0.0998161 0
M  V30 11425 H 1071.79 3.50991 0.223226 0
M  V30 11426 H 1071.66 3.22844 1.95068 0
M  V30 11427 H 1074.05 2.23694 1.92471 0
M  V30 11428 H 1074.13 2.55128 0.185326 0
M  V30 11429 H 1073.77 5.03841 0.640848 0
M  V30 11430 H 1073.7 4.69377 2.38731 0
M  V30 11431 H 1076.19 3.53206 1.34366 0
M  V30 11432 H 1076.51 7.42165 2.15434 0
M  V30 11433 H 1074.85 6.67255 1.94413 0
M  V30 11434 H 1078.04 4.40436 1.58536 0
M  V30 11435 H 1078.22 6.17798 1.95525 0
M  V30 11436 N 1071.62 -0.679052 1.4222 0
M  V30 11437 C 1072.87 -1.43627 1.42182 0
M  V30 11438 C 1073.19 -1.94964 0.0377095 0
M  V30 11439 O 1072.46 -1.72788 -0.923098 0
M  V30 11440 H 1071.04 -0.532972 0.523402 0
M  V30 11441 H 1073.7 -0.802649 1.77605 0
M  V30 11442 H 1072.8 -2.29137 2.11902 0
M  V30 11443 N 1073.1 -1.28322 -0.914942 0
M  V30 11444 C 1074.35 -1.15407 -1.66396 0
M  V30 11445 C 1074.68 0.297587 -1.9221 0
M  V30 11446 O 1073.93 1.23299 -1.51973 0
M  V30 11447 C 1074.23 -1.89663 -3.02924 0
M  V30 11448 C 1073.9 -3.39464 -2.96774 0
M  V30 11449 C 1072.56 -3.80321 -2.94804 0
M  V30 11450 C 1074.91 -4.3499 -2.87111 0
M  V30 11451 C 1072.24 -5.15046 -2.8097 0
M  V30 11452 C 1074.59 -5.69788 -2.74818 0
M  V30 11453 C 1073.25 -6.09921 -2.71205 0
M  V30 11454 H 1072.52 -0.422303 -0.608885 0
M  V30 11455 H 1075.17 -1.59082 -1.06607 0
M  V30 11456 H 1073.48 -1.38533 -3.66491 0
M  V30 11457 H 1075.17 -1.77087 -3.59779 0
M  V30 11458 H 1071.76 -3.06979 -2.99101 0
M  V30 11459 H 1075.95 -4.04389 -2.87721 0
M  V30 11460 H 1071.2 -5.45271 -2.76568 0
M  V30 11461 H 1075.38 -6.43469 -2.66309 0
M  V30 11462 H 1073 -7.14267 -2.60243 0
M  V30 11463 N 1074.58 1.12322 -1.10551 0
M  V30 11464 C 1075.51 2.20176 -0.777486 0
M  V30 11465 C 1076.49 1.68252 0.250069 0
M  V30 11466 O 1077.67 1.93856 0.115574 0
M  V30 11467 C 1074.8 3.46666 -0.209822 0
M  V30 11468 C 1073.76 4.11749 -1.1682 0
M  V30 11469 C 1073.08 5.32703 -0.461684 0
M  V30 11470 C 1074.38 4.57746 -2.51527 0
M  V30 11471 H 1076.08 2.47872 -1.67928 0
M  V30 11472 H 1073.62 1.19136 -0.808863 0
M  V30 11473 H 1075.58 4.21388 0.0318068 0
M  V30 11474 H 1074.3 3.18401 0.727226 0
M  V30 11475 H 1072.96 3.39009 -1.3953 0
M  V30 11476 H 1072.61 5.00706 0.479875 0
M  V30 11477 H 1072.31 5.77197 -1.1008 0
M  V30 11478 H 1073.83 6.10172 -0.228629 0
M  V30 11479 H 1075.25 5.23835 -2.32958 0
M  V30 11480 H 1073.64 5.13021 -3.11335 0
M  V30 11481 H 1074.71 3.71667 -3.11435 0
M  V30 11482 N 1076.06 0.894434 1.2976 0
M  V30 11483 C 1076.99 0.3847 2.30309 0
M  V30 11484 C 1077.97 -0.537486 1.61385 0
M  V30 11485 O 1079.15 -0.449332 1.8893 0
M  V30 11486 C 1076.28 -0.393311 3.45066 0
M  V30 11487 C 1075.24 0.437968 4.25753 0
M  V30 11488 C 1074.56 -0.467221 5.32655 0
M  V30 11489 C 1075.86 1.6851 4.9437 0
M  V30 11490 H 1077.56 1.22496 2.73194 0
M  V30 11491 H 1075.1 0.590471 1.31337 0
M  V30 11492 H 1077.06 -0.760614 4.14479 0
M  V30 11493 H 1075.78 -1.2673 3.0101 0
M  V30 11494 H 1074.44 0.787533 3.58041 0
M  V30 11495 H 1074.09 -1.33919 4.84845 0
M  V30 11496 H 1073.79 0.0852482 5.87538 0
M  V30 11497 H 1075.31 -0.830833 6.04921 0
M  V30 11498 H 1076.72 1.38784 5.56248 0
M  V30 11499 H 1075.12 2.17849 5.59162 0
M  V30 11500 H 1076.19 2.42412 4.19958 0
M  V30 11501 N 1077.53 -1.43282 0.656365 0
M  V30 11502 C 1078.95 -1.85012 0.250475 0
M  V30 11503 C 1079.3 -1.54944 -1.20361 0
M  V30 11504 O 1078.42 -0.999983 -1.9191 0
M  V30 11505 C 1079.02 -3.35827 0.447815 0
M  V30 11506 C 1077.58 -3.76277 0.0962151 0
M  V30 11507 C 1076.72 -2.66988 0.749168 0
M  V30 11508 H 1079.67 -1.3339 0.85982 0
M  V30 11509 H 1079.69 -3.7927 -0.305726 0
M  V30 11510 H 1079.21 -3.5768 1.5062 0
M  V30 11511 H 1077.31 -3.60035 -0.959449 0
M  V30 11512 H 1077.42 -4.76227 0.523875 0
M  V30 11513 H 1075.78 -2.54048 0.18212 0
M  V30 11514 H 1076.57 -2.91669 1.81064 0
M  V30 11515 N 1079.01 -0.398486 -1.52479 0
M  V30 11516 C 1080.29 0.238776 -1.94137 0
M  V30 11517 C 1080.67 1.63558 -1.33462 0
M  V30 11518 O 1080.02 2.22821 -0.506272 0
M  V30 11519 C 1080.23 0.255863 -3.48061 0
M  V30 11520 C 1081.58 0.480376 -4.21874 0
M  V30 11521 O 1082.6 0.335679 -3.54615 0
M  V30 11522 O 1081.46 0.764654 -5.41124 0
M  V30 11523 H 1078.55 0.150806 -0.813134 0
M  V30 11524 H 1081.1 -0.453659 -1.63524 0
M  V30 11525 H 1079.87 -0.722171 -3.84578 0
M  V30 11526 H 1079.49 0.99284 -3.85004 0
M  V30 11527 N 1080.49 1.57075 -0.12858 0
M  V30 11528 C 1081.72 2.00305 0.537839 0
M  V30 11529 C 1082.14 1.00787 1.58819 0
M  V30 11530 O 1081.5 -0.0190839 1.8129 0
M  V30 11531 C 1081.55 3.42371 1.13201 0
M  V30 11532 O 1080.65 3.45786 2.24735 0
M  V30 11533 H 1079.99 0.650456 0.133428 0
M  V30 11534 H 1082.52 2.03415 -0.219882 0
M  V30 11535 H 1082.53 3.80783 1.4652 0
M  V30 11536 H 1081.21 4.14315 0.362713 0
M  V30 11537 H 1079.78 3.19201 1.92783 0
M  V30 11538 N 1081.97 -0.145205 1.5693 0
M  V30 11539 C 1083.25 -0.88631 1.74367 0
M  V30 11540 C 1083.63 -1.99259 0.697081 0
M  V30 11541 O 1082.97 -2.26732 -0.28368 0
M  V30 11542 C 1083.18 -1.42712 3.18488 0
M  V30 11543 C 1084.53 -1.88982 3.80225 0
M  V30 11544 O 1085.56 -1.5245 3.21928 0
M  V30 11545 O 1084.42 -2.56361 4.8264 0
M  V30 11546 H 1081.51 -0.418979 0.713011 0
M  V30 11547 H 1084.06 -0.130991 1.69194 0
M  V30 11548 H 1082.83 -0.632165 3.8616 0
M  V30 11549 H 1082.45 -2.24589 3.28094 0
M  V30 11550 N 1083.45 -1.52049 -0.414609 0
M  V30 11551 C 1084.69 -1.66084 -1.16379 0
M  V30 11552 C 1085.03 -0.386932 -1.90306 0
M  V30 11553 O 1084.3 0.614441 -1.8454 0
M  V30 11554 C 1084.58 -2.87927 -2.16264 0
M  V30 11555 C 1084.44 -4.25353 -1.46269 0
M  V30 11556 C 1085.76 -3.05289 -3.16996 0
M  V30 11557 H 1082.88 -0.604414 -0.421726 0
M  V30 11558 H 1085.52 -1.8459 -0.450177 0
M  V30 11559 H 1083.67 -2.7228 -2.77121 0
M  V30 11560 H 1085.34 -4.52717 -0.885743 0
M  V30 11561 H 1083.58 -4.27006 -0.76472 0
M  V30 11562 H 1084.25 -5.06644 -2.19126 0
M  V30 11563 H 1086.73 -3.19798 -2.66212 0
M  V30 11564 H 1085.61 -3.92065 -3.84156 0
M  V30 11565 H 1085.87 -2.1836 -3.84411 0
M  V30 11566 N 1084.93 0.6715 -1.42579 0
M  V30 11567 C 1085.84 1.81435 -1.48723 0
M  V30 11568 C 1086.85 1.69895 -0.375716 0
M  V30 11569 O 1088.03 1.91388 -0.627115 0
M  V30 11570 C 1085.09 3.17599 -1.39038 0
M  V30 11571 C 1084.15 3.41071 -2.60709 0
M  V30 11572 C 1083.39 4.7074 -2.51476 0
M  V30 11573 O 1083.61 5.48868 -1.55243 0
M  V30 11574 O 1082.54 4.95528 -3.41666 0
M  V30 11575 H 1086.37 1.79206 -2.45191 0
M  V30 11576 H 1083.95 0.827666 -1.24379 0
M  V30 11577 H 1085.84 3.98847 -1.3601 0
M  V30 11578 H 1084.51 3.20458 -0.456966 0
M  V30 11579 H 1083.42 2.59659 -2.69311 0
M  V30 11580 H 1084.75 3.43045 -3.5296 0
M  V30 11581 N 1086.4 1.28806 0.908124 0
M  V30 11582 C 1087.65 1.15663 1.65242 0
M  V30 11583 C 1087.97 -0.292883 1.93395 0
M  V30 11584 O 1089.17 -0.545509 2.65963 0
M  V30 11585 C 1087.63 2.02233 2.97707 0
M  V30 11586 C 1087.24 3.51958 2.77181 0
M  V30 11587 C 1088.98 1.97792 3.75604 0
M  V30 11588 C 1086.89 4.3066 4.05322 0
M  V30 11589 H 1085.82 0.42928 0.619867 0
M  V30 11590 H 1088.47 1.5338 1.00731 0
M  V30 11591 H 1086.85 1.57377 3.63385 0
M  V30 11592 H 1088.02 4.0481 2.20149 0
M  V30 11593 H 1086.34 3.57983 2.12691 0
M  V30 11594 H 1088.94 2.53858 4.70596 0
M  V30 11595 H 1089.28 0.955956 4.05175 0
M  V30 11596 H 1089.81 2.40648 3.16755 0
M  V30 11597 H 1086.55 5.3346 3.8092 0
M  V30 11598 H 1086.07 3.8258 4.61944 0
M  V30 11599 H 1087.75 4.40878 4.73535 0
M  V30 11600 N 1087.88 -1.11734 1.11145 0
M  V30 11601 C 1089.16 -1.79795 0.770261 0
M  V30 11602 C 1089.54 -1.97624 -0.742158 0
M  V30 11603 O 1088.89 -1.55847 -1.67105 0
M  V30 11604 C 1089.1 -3.13684 1.52982 0
M  V30 11605 C 1090.44 -3.88771 1.70711 0
M  V30 11606 O 1091.47 -3.23363 1.49381 0
M  V30 11607 O 1090.33 -5.06134 2.06132 0
M  V30 11608 H 1087.42 -0.778617 0.27872 0
M  V30 11609 H 1089.97 -1.18504 1.2147 0
M  V30 11610 H 1088.74 -2.96043 2.55879 0
M  V30 11611 H 1088.36 -3.82687 1.07873 0
M  V30 11612 N 1089.36 -0.901303 -1.29284 0
M  V30 11613 C 1090.29 -0.396909 -2.30102 0
M  V30 11614 C 1091.27 0.528919 -1.61668 0
M  V30 11615 O 1092.46 0.439306 -1.89166 0
M  V30 11616 C 1089.59 0.375006 -3.45269 0
M  V30 11617 C 1088.54 -0.46054 -4.25515 0
M  V30 11618 C 1087.87 0.438967 -5.32895 0
M  V30 11619 C 1089.17 -1.7113 -4.93469 0
M  V30 11620 H 1090.86 -1.23943 -2.72541 0
M  V30 11621 H 1088.41 -0.597428 -1.31022 0
M  V30 11622 H 1090.36 0.738622 -4.14876 0
M  V30 11623 H 1089.08 1.25132 -3.01678 0
M  V30 11624 H 1087.74 -0.80651 -3.57618 0
M  V30 11625 H 1087.39 1.31346 -4.85548 0
M  V30 11626 H 1087.09 -0.116406 -5.87485 0
M  V30 11627 H 1088.61 0.79874 -6.05353 0
M  V30 11628 H 1090.03 -1.41732 -5.55504 0
M  V30 11629 H 1088.42 -2.20811 -5.57999 0
M  V30 11630 H 1089.49 -2.44636 -4.18666 0
M  V30 11631 N 1090.84 1.42931 -0.663954 0
M  V30 11632 C 1091.75 2.3459 0.0214234 0
M  V30 11633 C 1092.76 1.54487 0.800611 0
M  V30 11634 O 1093.94 1.87098 0.74541 0
M  V30 11635 C 1091 3.32896 0.968556 0
M  V30 11636 C 1090.07 4.28901 0.185108 0
M  V30 11637 C 1089.3 5.2251 1.08713 0
M  V30 11638 O 1089.52 5.20795 2.32655 0
M  V30 11639 O 1088.46 5.99347 0.553758 0
M  V30 11640 H 1092.28 2.94714 -0.733308 0
M  V30 11641 H 1089.87 1.43252 -0.424159 0
M  V30 11642 H 1091.75 3.93318 1.51257 0
M  V30 11643 H 1090.42 2.75261 1.70333 0
M  V30 11644 H 1089.33 3.71926 -0.402752 0
M  V30 11645 H 1090.66 4.89547 -0.510319 0
M  V30 11646 N 1092.32 0.406567 1.52266 0
M  V30 11647 C 1093.25 -0.411314 2.29849 0
M  V30 11648 C 1094.23 -1.04838 1.33952 0
M  V30 11649 O 1095.41 -1.05788 1.62857 0
M  V30 11650 C 1092.54 -1.52961 3.11802 0
M  V30 11651 C 1091.5 -1.01768 4.15725 0
M  V30 11652 C 1090.82 -2.22938 4.86007 0
M  V30 11653 C 1092.12 -0.073515 5.22248 0
M  V30 11654 H 1093.82 0.236054 2.98468 0
M  V30 11655 H 1091.36 0.114968 1.4354 0
M  V30 11656 H 1093.31 -2.10874 3.64843 0
M  V30 11657 H 1092.04 -2.20482 2.40947 0
M  V30 11658 H 1090.7 -0.46097 3.6369 0
M  V30 11659 H 1090.35 -2.89007 4.11684 0
M  V30 11660 H 1090.05 -1.89338 5.5626 0
M  V30 11661 H 1091.57 -2.81462 5.41859 0
M  V30 11662 H 1092.98 -0.561367 5.70545 0
M  V30 11663 H 1091.38 0.173551 5.99849 0
M  V30 11664 H 1092.45 0.872524 4.76985 0
M  V30 11665 N 1093.79 -1.57004 0.136909 0
M  V30 11666 C 1095.04 -1.95797 -0.516711 0
M  V30 11667 C 1095.37 -1.02123 -1.65533 0
M  V30 11668 O 1094.62 -0.0484835 -1.9564 0
M  V30 11669 C 1094.92 -3.40903 -1.07331 0
M  V30 11670 C 1094.59 -4.50867 -0.0541941 0
M  V30 11671 C 1093.25 -4.80669 0.225988 0
M  V30 11672 C 1095.6 -5.17264 0.639361 0
M  V30 11673 C 1092.93 -5.74177 1.2057 0
M  V30 11674 C 1095.28 -6.11827 1.60783 0
M  V30 11675 C 1093.95 -6.40012 1.89581 0
M  V30 11676 H 1093.22 -0.716471 -0.189078 0
M  V30 11677 H 1095.86 -1.90213 0.221605 0
M  V30 11678 H 1094.17 -3.43268 -1.88876 0
M  V30 11679 H 1095.87 -3.6824 -1.58745 0
M  V30 11680 H 1092.46 -4.27666 -0.282754 0
M  V30 11681 H 1096.64 -4.9438 0.436085 0
M  V30 11682 H 1091.9 -5.94312 1.43538 0
M  V30 11683 H 1096.07 -6.62354 2.15081 0
M  V30 11684 H 1093.7 -7.12274 2.65649 0
M  V30 11685 N 1095.27 0.136881 -1.57004 0
M  V30 11686 C 1096.52 0.849031 -1.84172 0
M  V30 11687 C 1096.85 1.80359 -0.720027 0
M  V30 11688 O 1096.13 1.92538 0.275584 0
M  V30 11689 C 1096.41 1.61465 -3.21871 0
M  V30 11690 C 1096.26 0.680902 -4.44616 0
M  V30 11691 C 1097.58 2.57488 -3.56914 0
M  V30 11692 H 1094.7 0.307209 -0.669919 0
M  V30 11693 H 1097.34 0.113862 -1.89659 0
M  V30 11694 H 1095.49 2.24137 -3.17325 0
M  V30 11695 H 1097.16 0.0644094 -4.61255 0
M  V30 11696 H 1095.41 -0.00883629 -4.33799 0
M  V30 11697 H 1096.08 1.25286 -5.37594 0
M  V30 11698 H 1098.55 2.0493 -3.62136 0
M  V30 11699 H 1097.43 3.08101 -4.54274 0
M  V30 11700 H 1097.69 3.39321 -2.83397 0
M  V30 11701 N 1096.75 1.52266 0.40654 0
M  V30 11702 C 1097.7 1.76409 1.516 0
M  V30 11703 C 1098.69 0.631311 1.57197 0
M  V30 11704 O 1099.9 0.813413 1.60573 0
M  V30 11705 H 1096.27 0.557904 0.50423 0
M  V30 11706 H 1098.24 2.69351 1.28424 0
M  V30 11707 C 1096.99 1.93415 2.88939 0
M  V30 11708 H 1096.32 2.8 2.85377 0
M  V30 11709 H 1097.76 2.14306 3.65854 0
M  V30 11710 C 1096.22 0.701938 3.29506 0
M  V30 11711 O 1096.75 -0.128965 4.01493 0
M  V30 11712 N 1094.95 0.537089 2.85594 0
M  V30 11713 H 1094.5 1.21435 2.27181 0
M  V30 11714 H 1094.46 -0.286055 3.13096 0
M  V30 11715 N 1098.23 -0.663929 1.42933 0
M  V30 11716 C 1099.18 -1.77717 1.47259 0
M  V30 11717 C 1100.15 -1.62922 0.323387 0
M  V30 11718 O 1101.33 -1.83319 0.529021 0
M  V30 11719 C 1098.47 -3.15814 1.39124 0
M  V30 11720 C 1097.58 -3.4182 2.64165 0
M  V30 11721 C 1096.72 -4.69705 2.48094 0
M  V30 11722 C 1095.76 -4.88781 3.68456 0
M  V30 11723 N 1094.89 -6.07915 3.51261 0
M  V30 11724 H 1099.73 -1.73355 2.42388 0
M  V30 11725 H 1097.27 -0.846121 1.2033 0
M  V30 11726 H 1099.23 -3.95633 1.32403 0
M  V30 11727 H 1097.86 -3.19274 0.475829 0
M  V30 11728 H 1096.91 -2.56176 2.81208 0
M  V30 11729 H 1098.22 -3.51805 3.53602 0
M  V30 11730 H 1097.38 -5.57632 2.39021 0
M  V30 11731 H 1096.12 -4.62022 1.56164 0
M  V30 11732 H 1095.12 -3.99292 3.7795 0
M  V30 11733 H 1096.35 -4.98301 4.61381 0
M  V30 11734 H 1094.29 -6.01384 2.62057 0
M  V30 11735 H 1094.21 -6.1881 4.34293 0
M  V30 11736 H 1095.48 -6.98492 3.4602 0
M  V30 11737 N 1099.71 -1.29285 -0.901281 0
M  V30 11738 C 1100.64 -1.08603 -2.007 0
M  V30 11739 C 1101.62 0.00162233 -1.626 0
M  V30 11740 O 1102.8 -0.148764 -1.87912 0
M  V30 11741 C 1099.93 -0.652972 -3.32346 0
M  V30 11742 C 1098.97 -1.73911 -3.89432 0
M  V30 11743 S 1099.81 -3.33797 -4.18736 0
M  V30 11744 C 1100.96 -2.92355 -5.53425 0
M  V30 11745 H 1101.2 -2.02216 -2.17936 0
M  V30 11746 H 1098.73 -1.13414 -1.04769 0
M  V30 11747 H 1100.69 -0.409825 -4.08449 0
M  V30 11748 H 1099.35 0.263527 -3.12993 0
M  V30 11749 H 1098.54 -1.388 -4.84511 0
M  V30 11750 H 1098.14 -1.93569 -3.20011 0
M  V30 11751 H 1100.44 -2.39301 -6.33831 0
M  V30 11752 H 1101.38 -3.86278 -5.9346 0
M  V30 11753 H 1101.79 -2.30697 -5.15208 0
M  V30 11754 N 1101.18 1.11143 -1.11736 0
M  V30 11755 C 1102.41 1.86745 -0.890727 0
M  V30 11756 C 1102.83 1.80315 0.55964 0
M  V30 11757 O 1102.18 1.18663 1.38656 0
M  V30 11758 C 1102.24 3.35436 -1.34779 0
M  V30 11759 O 1101.96 3.41738 -2.74129 0
M  V30 11760 C 1103.46 4.27935 -1.15702 0
M  V30 11761 H 1100.68 0.59044 -0.318781 0
M  V30 11762 H 1103.22 1.40549 -1.48547 0
M  V30 11763 H 1101.38 3.79125 -0.796425 0
M  V30 11764 H 1101.79 4.34347 -2.94012 0
M  V30 11765 H 1103.26 5.30494 -1.52579 0
M  V30 11766 H 1103.74 4.39093 -0.0968735 0
M  V30 11767 H 1104.35 3.90042 -1.69551 0
M  V30 11768 N 1102.66 0.908147 1.28804 0
M  V30 11769 C 1103.63 0.397058 2.25735 0
M  V30 11770 C 1104.63 -0.473483 1.53671 0
M  V30 11771 O 1105.82 -0.277335 1.71978 0
M  V30 11772 C 1102.95 -0.431392 3.38159 0
M  V30 11773 H 1104.14 1.25323 2.72459 0
M  V30 11774 H 1101.69 0.687041 1.4039 0
M  V30 11775 H 1102.43 -1.3072 2.96787 0
M  V30 11776 H 1102.21 0.192502 3.91627 0
M  V30 11777 H 1103.7 -0.78 4.10251 0
M  V30 11778 N 1104.14 -1.42577 0.671525 0
M  V30 11779 C 1105.37 -2.05924 0.200731 0
M  V30 11780 C 1105.78 -1.50434 -1.14083 0
M  V30 11781 O 1105.14 -0.642845 -1.70803 0
M  V30 11782 C 1105.19 -3.61289 0.123505 0
M  V30 11783 O 1104.91 -4.1472 1.41205 0
M  V30 11784 C 1106.41 -4.41743 -0.371178 0
M  V30 11785 H 1103.63 -0.663746 0.0983958 0
M  V30 11786 H 1106.18 -1.82771 0.917338 0
M  V30 11787 H 1104.33 -3.83565 -0.543769 0
M  V30 11788 H 1104.75 -5.0856 1.28325 0
M  V30 11789 H 1106.22 -5.50731 -0.374128 0
M  V30 11790 H 1106.7 -4.16092 -1.40585 0
M  V30 11791 H 1107.3 -4.24478 0.264244 0
M  V30 11792 N 1105.62 -0.414636 -1.52048 0
M  V30 11793 C 1106.57 0.408141 -2.27163 0
M  V30 11794 C 1107.54 1.03636 -1.29803 0
M  V30 11795 O 1108.72 1.05959 -1.58674 0
M  V30 11796 C 1105.86 1.51588 -3.10024 0
M  V30 11797 C 1104.97 0.908034 -4.22349 0
M  V30 11798 C 1104.11 1.98893 -4.9256 0
M  V30 11799 C 1103.15 1.35831 -5.96839 0
M  V30 11800 N 1102.28 2.37958 -6.60545 0
M  V30 11801 H 1107.12 -0.238822 -2.97041 0
M  V30 11802 H 1104.66 -0.129614 -1.46528 0
M  V30 11803 H 1106.62 2.16916 -3.56375 0
M  V30 11804 H 1105.25 2.13279 -2.42305 0
M  V30 11805 H 1104.3 0.143652 -3.80129 0
M  V30 11806 H 1105.61 0.407426 -4.97133 0
M  V30 11807 H 1104.77 2.71935 -5.42343 0
M  V30 11808 H 1103.51 2.5232 -4.17356 0
M  V30 11809 H 1102.51 0.613246 -5.46369 0
M  V30 11810 H 1103.74 0.831655 -6.73988 0
M  V30 11811 H 1101.68 2.90508 -5.88167 0
M  V30 11812 H 1101.6 1.92725 -7.31022 0
M  V30 11813 H 1102.87 3.10553 -7.14966 0
M  V30 11814 N 1107.1 1.56929 -0.145233 0
M  V30 11815 C 1108.03 2.19685 0.791263 0
M  V30 11816 C 1109.01 1.14455 1.25833 0
M  V30 11817 O 1110.19 1.42791 1.31622 0
M  V30 11818 C 1107.32 2.81705 2.03124 0
M  V30 11819 C 1106.28 3.92746 1.70101 0
M  V30 11820 C 1105.6 4.41694 3.01347 0
M  V30 11821 C 1106.9 5.13606 0.949025 0
M  V30 11822 H 1108.6 2.98196 0.26825 0
M  V30 11823 H 1106.14 1.43434 0.127584 0
M  V30 11824 H 1108.1 3.24273 2.69119 0
M  V30 11825 H 1106.82 2.00523 2.57795 0
M  V30 11826 H 1105.48 3.50794 1.06486 0
M  V30 11827 H 1105.13 3.57336 3.54006 0
M  V30 11828 H 1104.83 5.1659 2.80016 0
M  V30 11829 H 1106.35 4.86931 3.68416 0
M  V30 11830 H 1107.76 5.53029 1.51102 0
M  V30 11831 H 1106.16 5.94252 0.835711 0
M  V30 11832 H 1107.23 4.84863 -0.0595631 0
M  V30 11833 N 1108.58 -0.128553 1.57075 0
M  V30 11834 C 1109.52 -1.17719 2.00611 0
M  V30 11835 C 1110.52 -1.43423 0.90146 0
M  V30 11836 O 1111.72 -1.43498 1.08666 0
M  V30 11837 H 1108.1 -0.396683 0.638864 0
M  V30 11838 H 1110.07 -0.783437 2.87932 0
M  V30 11839 C 1108.82 -2.49826 2.41831 0
M  V30 11840 H 1108.14 -2.30883 3.26394 0
M  V30 11841 H 1109.58 -3.21784 2.761 0
M  V30 11842 C 1108.04 -3.11712 1.27816 0
M  V30 11843 O 1108.57 -3.9736 0.588917 0
M  V30 11844 N 1106.78 -2.71442 1.03767 0
M  V30 11845 H 1106.32 -2.01891 1.59994 0
M  V30 11846 H 1106.28 -3.1318 0.276743 0
M  V30 11847 N 1110.05 -1.5248 -0.398459 0
M  V30 11848 C 1111.28 -1.71221 -1.17039 0
M  V30 11849 C 1111.7 -0.425515 -1.83224 0
M  V30 11850 O 1111.06 0.617938 -1.70444 0
M  V30 11851 C 1111.11 -2.8562 -2.20121 0
M  V30 11852 O 1110.21 -2.51934 -3.26501 0
M  V30 11853 H 1109.55 -0.569654 -0.34116 0
M  V30 11854 H 1112.08 -1.99231 -0.465652 0
M  V30 11855 H 1112.09 -3.10842 -2.64275 0
M  V30 11856 H 1110.77 -3.78969 -1.71334 0
M  V30 11857 H 1109.35 -2.3742 -2.87552 0
M  V30 11858 N 1111.53 0.65634 -1.43283 0
M  V30 11859 C 1112.78 1.41347 -1.44449 0
M  V30 11860 C 1113.1 1.94879 -0.0687217 0
M  V30 11861 O 1112.37 1.74235 0.895492 0
M  V30 11862 H 1110.95 0.524578 -0.531815 0
M  V30 11863 H 1113.61 0.774292 -1.7886 0
M  V30 11864 H 1112.71 2.25737 -2.15521 0
M  V30 11865 N 1113.01 1.29761 0.894412 0
M  V30 11866 C 1113.92 1.1724 2.03204 0
M  V30 11867 C 1114.94 0.0944452 1.73743 0
M  V30 11868 O 1116.11 0.307549 1.99038 0
M  V30 11869 C 1113.18 0.855416 3.35981 0
M  V30 11870 C 1112.24 2.01777 3.78926 0
M  V30 11871 C 1111.47 1.71581 5.05367 0
M  V30 11872 O 1111.69 0.639245 5.66807 0
M  V30 11873 O 1110.63 2.56539 5.44492 0
M  V30 11874 H 1114.45 2.12787 2.16692 0
M  V30 11875 H 1112.04 1.09264 1.0189 0
M  V30 11876 H 1113.92 0.693429 4.15656 0
M  V30 11877 H 1112.6 -0.0702195 3.23624 0
M  V30 11878 H 1111.5 2.23502 2.99996 0
M  V30 11879 H 1112.84 2.92479 3.95875 0
M  V30 11880 N 1114.49 -1.10549 1.12324 0
M  V30 11881 C 1115.76 -1.78968 0.789287 0
M  V30 11882 C 1116.14 -1.984 -0.721156 0
M  V30 11883 O 1115.49 -1.5761 -1.65443 0
M  V30 11884 C 1115.7 -3.12044 1.563 0
M  V30 11885 C 1117.05 -3.86939 1.74825 0
M  V30 11886 O 1118.07 -3.21761 1.52802 0
M  V30 11887 O 1116.93 -5.0392 2.11488 0
M  V30 11888 H 1114.03 -0.775617 0.286962 0
M  V30 11889 H 1116.57 -1.17209 1.2272 0
M  V30 11890 H 1115.35 -2.93313 2.59005 0
M  V30 11891 H 1114.97 -3.81521 1.11926 0
M  V30 11892 N 1115.97 -0.914965 -1.28321 0
M  V30 11893 C 1116.91 -0.402792 -2.27258 0
M  V30 11894 C 1117.88 0.523412 -1.57638 0
M  V30 11895 O 1119.07 0.445344 -1.8553 0
M  V30 11896 C 1116.21 0.349956 -3.43321 0
M  V30 11897 C 1115.32 -0.608892 -4.27687 0
M  V30 11898 C 1114.46 0.162425 -5.30952 0
M  V30 11899 C 1113.49 -0.789959 -6.06981 0
M  V30 11900 N 1112.63 -0.0520826 -7.02081 0
M  V30 11901 H 1117.47 -1.25153 -2.70446 0
M  V30 11902 H 1115.01 -0.628444 -1.33 0
M  V30 11903 H 1116.97 0.802589 -4.09407 0
M  V30 11904 H 1115.6 1.16303 -3.01121 0
M  V30 11905 H 1114.65 -1.18005 -3.61634 0
M  V30 11906 H 1115.96 -1.33727 -4.8054 0
M  V30 11907 H 1115.11 0.675563 -6.02927 0
M  V30 11908 H 1113.85 0.923851 -4.7887 0
M  V30 11909 H 1112.86 -1.31446 -5.33856 0
M  V30 11910 H 1114.08 -1.55096 -6.61152 0
M  V30 11911 H 1112.03 0.691331 -6.52347 0
M  V30 11912 H 1111.95 -0.720267 -7.52561 0
M  V30 11913 H 1113.21 0.44082 -7.78253 0
M  V30 11914 N 1117.44 1.42219 -0.679077 0
M  V30 11915 C 1118.69 2.00703 -0.200309 0
M  V30 11916 C 1119.01 1.54339 1.20161 0
M  V30 11917 O 1120.21 2.0527 1.77698 0
M  V30 11918 C 1118.67 3.58586 -0.307248 0
M  V30 11919 C 1118.28 4.13937 -1.71349 0
M  V30 11920 C 1120.02 4.24351 0.112588 0
M  V30 11921 C 1117.93 5.64198 -1.77297 0
M  V30 11922 H 1116.86 0.750638 -0.0711279 0
M  V30 11923 H 1119.51 1.62893 -0.844881 0
M  V30 11924 H 1117.89 3.93921 0.40529 0
M  V30 11925 H 1119.06 3.90054 -2.45346 0
M  V30 11926 H 1117.38 3.60639 -2.08155 0
M  V30 11927 H 1119.98 5.34627 0.0883578 0
M  V30 11928 H 1120.32 4.00142 1.14857 0
M  V30 11929 H 1120.85 3.93992 -0.549093 0
M  V30 11930 H 1117.59 5.93211 -2.78892 0
M  V30 11931 H 1117.11 5.90058 -1.07662 0
M  V30 11932 H 1118.79 6.2869 -1.52835 0
M  V30 11933 N 1118.92 0.422693 1.51826 0
M  V30 11934 C 1119.83 -0.40261 2.31119 0
M  V30 11935 C 1120.85 -1.04117 1.39412 0
M  V30 11936 O 1122.02 -1.03973 1.72486 0
M  V30 11937 C 1119.09 -1.49699 3.12716 0
M  V30 11938 C 1118.15 -0.880088 4.20182 0
M  V30 11939 C 1117.38 -1.92232 4.97878 0
M  V30 11940 O 1117.61 -3.14246 4.76031 0
M  V30 11941 O 1116.54 -1.521 5.82365 0
M  V30 11942 H 1120.37 0.244308 3.02716 0
M  V30 11943 H 1117.95 0.185569 1.48243 0
M  V30 11944 H 1119.83 -2.13202 3.63487 0
M  V30 11945 H 1118.51 -2.12826 2.43899 0
M  V30 11946 H 1117.41 -0.207404 3.73525 0
M  V30 11947 H 1118.75 -0.292535 4.9133 0
M  V30 11948 N 1120.4 -1.5685 0.153553 0
M  V30 11949 C 1121.68 -1.8796 -0.541328 0
M  V30 11950 C 1122.06 -1.06059 -1.82523 0
M  V30 11951 O 1121.4 -0.149295 -2.28012 0
M  V30 11952 C 1121.61 -3.39697 -0.800442 0
M  V30 11953 C 1122.96 -4.09057 -1.13832 0
M  V30 11954 O 1123.99 -3.44913 -0.889578 0
M  V30 11955 O 1122.85 -5.22347 -1.60673 0
M  V30 11956 H 1119.94 -0.779268 -0.276895 0
M  V30 11957 H 1122.49 -1.68626 0.190657 0
M  V30 11958 H 1121.26 -3.91151 0.107935 0
M  V30 11959 H 1120.88 -3.64582 -1.58638 0
M  V30 11960 N 1121.88 0.120221 -1.57141 0
M  V30 11961 C 1123.13 0.826791 -1.83976 0
M  V30 11962 C 1123.44 1.81102 -0.739014 0
M  V30 11963 O 1124.65 2.56368 -0.893736 0
M  V30 11964 C 1123.1 1.52108 -3.26176 0
M  V30 11965 C 1122.71 0.577902 -4.44257 0
M  V30 11966 C 1124.45 2.21286 -3.62261 0
M  V30 11967 C 1122.36 1.27535 -5.77485 0
M  V30 11968 H 1121.29 0.312508 -0.686189 0
M  V30 11969 H 1123.94 0.0795343 -1.83328 0
M  V30 11970 H 1122.32 2.31492 -3.2129 0
M  V30 11971 H 1123.5 -0.182629 -4.60438 0
M  V30 11972 H 1121.81 -0.00684348 -4.16399 0
M  V30 11973 H 1124.41 2.74154 -4.59068 0
M  V30 11974 H 1124.75 2.99029 -2.89634 0
M  V30 11975 H 1125.29 1.48791 -3.68925 0
M  V30 11976 H 1122.02 0.539237 -6.53278 0
M  V30 11977 H 1121.54 2.00792 -5.65192 0
M  V30 11978 H 1123.22 1.80888 -6.21199 0
M  V30 11979 N 1123.36 1.52689 0.390367 0
M  V30 11980 C 1124.29 1.80338 1.48325 0
M  V30 11981 C 1125.27 0.655338 1.56969 0
M  V30 11982 O 1126.45 0.902792 1.7194 0
M  V30 11983 C 1123.58 1.97101 2.85952 0
M  V30 11984 C 1122.54 3.12783 2.92148 0
M  V30 11985 C 1121.86 3.14798 4.32211 0
M  V30 11986 C 1123.16 4.5188 2.61919 0
M  V30 11987 H 1124.86 2.71857 1.25437 0
M  V30 11988 H 1122.4 1.30813 0.601995 0
M  V30 11989 H 1124.36 2.15027 3.62411 0
M  V30 11990 H 1123.08 1.02271 3.10174 0
M  V30 11991 H 1121.74 2.94638 2.18137 0
M  V30 11992 H 1121.39 2.17653 4.53471 0
M  V30 11993 H 1121.09 3.92507 4.37278 0
M  V30 11994 H 1122.61 3.34877 5.10578 0
M  V30 11995 H 1124.02 4.70134 3.28096 0
M  V30 11996 H 1122.42 5.31647 2.78337 0
M  V30 11997 H 1123.49 4.58689 1.57266 0
M  V30 11998 N 1124.83 -0.648732 1.43629 0
M  V30 11999 C 1126.08 -1.41066 1.45699 0
M  V30 12000 C 1126.41 -1.94024 0.082612 0
M  V30 12001 O 1125.69 -1.7257 -0.897207 0
M  V30 12002 C 1125.97 -2.58882 2.50304 0
M  V30 12003 C 1125.82 -2.11387 3.97033 0
M  V30 12004 C 1127.14 -3.61092 2.51597 0
M  V30 12005 H 1124.26 -0.511591 0.530512 0
M  V30 12006 H 1126.9 -0.735069 1.75205 0
M  V30 12007 H 1125.05 -3.16518 2.25274 0
M  V30 12008 H 1126.73 -1.58718 4.33136 0
M  V30 12009 H 1124.97 -1.4272 4.0965 0
M  V30 12010 H 1125.64 -2.96129 4.65845 0
M  V30 12011 H 1128.12 -3.13223 2.73917 0
M  V30 12012 H 1126.99 -4.41071 3.26722 0
M  V30 12013 H 1127.25 -4.13985 1.55141 0
M  V30 12014 N 1126.31 -1.30234 -0.887518 0
M  V30 12015 C 1127.24 -1.18969 -2.00919 0
M  V30 12016 C 1128.22 -0.080952 -1.69907 0
M  V30 12017 O 1129.41 -0.262546 -1.92417 0
M  V30 12018 C 1126.54 -0.878094 -3.36016 0
M  V30 12019 C 1125.49 -1.94449 -3.81279 0
M  V30 12020 C 1124.82 -1.48594 -5.13638 0
M  V30 12021 C 1126.12 -3.35519 -4.00281 0
M  V30 12022 H 1127.81 -2.12808 -2.10602 0
M  V30 12023 H 1125.36 -1.02454 -1.01189 0
M  V30 12024 H 1127.31 -0.785954 -4.14006 0
M  V30 12025 H 1126.04 0.0959779 -3.26459 0
M  V30 12026 H 1124.69 -2.02622 -3.05516 0
M  V30 12027 H 1124.34 -0.500204 -5.00507 0
M  V30 12028 H 1124.04 -2.19921 -5.44893 0
M  V30 12029 H 1125.57 -1.40754 -5.94156 0
M  V30 12030 H 1126.98 -3.30119 -4.68716 0
M  V30 12031 H 1125.38 -4.0491 -4.42909 0
M  V30 12032 H 1126.45 -3.77597 -3.04218 0
M  V30 12033 N 1127.79 1.09952 -1.12909 0
M  V30 12034 C 1128.74 2.14591 -0.77037 0
M  V30 12035 C 1129.72 1.59204 0.233021 0
M  V30 12036 O 1130.92 1.7696 0.0377599 0
M  V30 12037 C 1128.05 3.42514 -0.232117 0
M  V30 12038 C 1127.13 4.04823 -1.26409 0
M  V30 12039 N 1127.52 4.41763 -2.46331 0
M  V30 12040 C 1125.82 4.31951 -1.11062 0
M  V30 12041 C 1126.52 4.90778 -3.12269 0
M  V30 12042 N 1125.5 4.87896 -2.39704 0
M  V30 12043 H 1129.3 2.40951 -1.68285 0
M  V30 12044 H 1126.81 1.27125 -1.0106 0
M  V30 12045 H 1128.81 4.16878 0.0430853 0
M  V30 12046 H 1127.47 3.17612 0.674757 0
M  V30 12047 H 1128.48 4.33299 -2.83677 0
M  V30 12048 H 1125.16 4.16681 -0.261456 0
M  V30 12049 H 1126.55 5.28868 -4.14425 0
M  V30 12050 N 1129.27 0.921757 1.27833 0
M  V30 12051 C 1130.2 0.433466 2.29441 0
M  V30 12052 C 1131.18 -0.503133 1.62489 0
M  V30 12053 O 1132.36 -0.409156 1.89841 0
M  V30 12054 C 1129.49 -0.320029 3.45822 0
M  V30 12055 C 1128.45 0.528178 4.24728 0
M  V30 12056 C 1127.77 -0.354132 5.33526 0
M  V30 12057 C 1129.07 1.78959 4.90684 0
M  V30 12058 H 1130.77 1.28263 2.70535 0
M  V30 12059 H 1128.31 0.618197 1.30055 0
M  V30 12060 H 1130.27 -0.672526 4.15999 0
M  V30 12061 H 1128.99 -1.20317 3.0363 0
M  V30 12062 H 1127.65 0.863302 3.5629 0
M  V30 12063 H 1127.3 -1.23605 4.87576 0
M  V30 12064 H 1127 0.209855 5.87225 0
M  V30 12065 H 1128.52 -0.702333 6.06547 0
M  V30 12066 H 1129.94 1.50552 5.53179 0
M  V30 12067 H 1128.33 2.29661 5.54415 0
M  V30 12068 H 1129.4 2.51265 4.14721 0
M  V30 12069 N 1130.75 -1.41857 0.686609 0
M  V30 12070 C 1132.02 -1.95082 0.142228 0
M  V30 12071 C 1132.4 -1.62646 -1.34572 0
M  V30 12072 O 1131.75 -0.928757 -2.08773 0
M  V30 12073 C 1131.96 -3.46415 0.423955 0
M  V30 12074 C 1133.31 -4.23181 0.346842 0
M  V30 12075 O 1134.33 -3.54393 0.358363 0
M  V30 12076 O 1133.19 -5.4568 0.299211 0
M  V30 12077 H 1130.29 -0.826943 0.00974 0
M  V30 12078 H 1132.83 -1.51622 0.762153 0
M  V30 12079 H 1131.6 -3.63273 1.45424 0
M  V30 12080 H 1131.23 -3.96949 -0.227391 0
M  V30 12081 N 1132.22 -0.430739 -1.51599 0
M  V30 12082 C 1133.64 -0.0826902 -1.59386 0
M  V30 12083 C 1133.84 1.40729 -1.44214 0
M  V30 12084 O 1132.9 2.1765 -1.28002 0
M  V30 12085 C 1134.21 -0.59691 -2.94716 0
M  V30 12086 C 1135.76 -0.556772 -3.08008 0
M  V30 12087 C 1136.23 -1.04786 -4.45852 0
M  V30 12088 N 1137.72 -1.00557 -4.52153 0
M  V30 12089 C 1138.46 -1.35649 -5.57124 0
M  V30 12090 N 1137.95 -1.77994 -6.69545 0
M  V30 12091 N 1139.75 -1.27508 -5.47447 0
M  V30 12092 H 1131.9 -1.40027 -1.59707 0
M  V30 12093 H 1134.16 -0.576606 -0.752482 0
M  V30 12094 H 1133.87 -1.63914 -3.11167 0
M  V30 12095 H 1133.74 -0.0182342 -3.77196 0
M  V30 12096 H 1136.13 0.476457 -2.91228 0
M  V30 12097 H 1136.21 -1.17177 -2.27383 0
M  V30 12098 H 1135.85 -2.07952 -4.63377 0
M  V30 12099 H 1135.78 -0.409461 -5.25006 0
M  V30 12100 H 1138.27 -0.694518 -3.71463 0
M  V30 12101 H 1138.59 -2.03026 -7.45654 0
M  V30 12102 H 1136.93 -1.81916 -6.70769 0
M  V30 12103 H 1140.12 -0.942969 -4.58504 0
M  V30 12104 H 1140.3 -1.55185 -6.29143 0
M  V30 12105 N 1133.7 1.56767 -0.161869 0
M  V30 12106 C 1134.95 1.96206 0.484537 0
M  V30 12107 C 1135.27 1.04848 1.64414 0
M  V30 12108 O 1134.54 0.112946 1.95574 0
M  V30 12109 H 1133.12 0.724491 0.181994 0
M  V30 12110 H 1135.78 1.93406 -0.240845 0
M  V30 12111 H 1134.88 3.00279 0.85083 0
M  V30 12112 N 1135.18 -0.111886 1.57202 0
M  V30 12113 C 1136.13 -1.13688 2.00858 0
M  V30 12114 C 1137.1 -1.40752 0.881939 0
M  V30 12115 O 1138.28 -1.52498 1.14669 0
M  V30 12116 C 1135.42 -2.45641 2.42393 0
M  V30 12117 C 1134.54 -2.25452 3.68504 0
M  V30 12118 C 1133.67 -3.50686 3.9899 0
M  V30 12119 C 1132.71 -3.25685 5.18262 0
M  V30 12120 N 1131.85 -4.4314 5.44583 0
M  V30 12121 H 1136.69 -0.757611 2.88209 0
M  V30 12122 H 1134.22 -0.362582 1.42561 0
M  V30 12123 H 1136.18 -3.22627 2.64514 0
M  V30 12124 H 1134.81 -2.81447 1.58074 0
M  V30 12125 H 1133.86 -1.39349 3.53958 0
M  V30 12126 H 1135.18 -2.0296 4.55641 0
M  V30 12127 H 1134.33 -4.36087 4.21797 0
M  V30 12128 H 1133.07 -3.76216 3.10343 0
M  V30 12129 H 1132.07 -2.38675 4.95292 0
M  V30 12130 H 1133.3 -3.01518 6.08493 0
M  V30 12131 H 1131.24 -4.68778 4.58893 0
M  V30 12132 H 1131.16 -4.23778 6.26058 0
M  V30 12133 H 1132.43 -5.29654 5.71915 0
M  V30 12134 N 1136.66 -1.52894 -0.382264 0
M  V30 12135 C 1137.94 -1.58853 -1.14127 0
M  V30 12136 C 1138.32 -0.38582 -2.07544 0
M  V30 12137 O 1137.66 0.625323 -2.19777 0
M  V30 12138 C 1137.87 -2.93068 -1.89504 0
M  V30 12139 C 1139.22 -3.47048 -2.44629 0
M  V30 12140 O 1140.25 -2.94987 -1.99652 0
M  V30 12141 O 1139.1 -4.3802 -3.26804 0
M  V30 12142 H 1136.2 -0.640969 -0.522578 0
M  V30 12143 H 1138.74 -1.65231 -0.386873 0
M  V30 12144 H 1137.52 -3.72047 -1.2123 0
M  V30 12145 H 1137.14 -2.90106 -2.7189 0
M  V30 12146 N 1138.14 0.641106 -1.43971 0
M  V30 12147 C 1139.37 1.42622 -1.49475 0
M  V30 12148 C 1139.78 1.8885 -0.115068 0
M  V30 12149 O 1139.12 1.60846 0.887378 0
M  V30 12150 C 1139.18 2.68643 -2.38896 0
M  V30 12151 C 1138.84 2.44276 -3.86236 0
M  V30 12152 C 1139.84 2.06732 -4.7703 0
M  V30 12153 C 1137.53 2.58225 -4.30842 0
M  V30 12154 C 1139.52 1.83451 -6.1043 0
M  V30 12155 C 1137.21 2.34559 -5.64292 0
M  V30 12156 C 1138.21 1.97229 -6.53903 0
M  V30 12157 O 1137.89 1.73819 -7.84884 0
M  V30 12158 H 1137.63 0.444187 -0.509582 0
M  V30 12159 H 1140.18 0.792179 -1.89509 0
M  V30 12160 H 1138.41 3.34649 -1.93771 0
M  V30 12161 H 1140.1 3.30623 -2.35464 0
M  V30 12162 H 1140.86 1.95521 -4.43843 0
M  V30 12163 H 1136.74 2.86253 -3.61359 0
M  V30 12164 H 1140.29 1.54238 -6.80335 0
M  V30 12165 H 1136.18 2.45376 -5.97043 0
M  V30 12166 H 1136.95 1.88146 -7.96582 0
M  V30 12167 N 1139.62 1.30703 0.880598 0
M  V30 12168 C 1140.86 1.19778 1.63277 0
M  V30 12169 C 1141.19 -0.246521 1.92931 0
M  V30 12170 O 1140.45 -1.19226 1.55189 0
M  V30 12171 C 1140.74 1.97628 2.97789 0
M  V30 12172 C 1140.41 3.47213 2.87669 0
M  V30 12173 C 1139.07 3.88004 2.84617 0
M  V30 12174 C 1141.42 4.4245 2.75477 0
M  V30 12175 C 1138.75 5.22315 2.67216 0
M  V30 12176 C 1141.1 5.76874 2.59614 0
M  V30 12177 C 1139.77 6.16898 2.54939 0
M  V30 12178 H 1139.04 0.438298 0.597475 0
M  V30 12179 H 1141.69 1.61853 1.02352 0
M  V30 12180 H 1139.99 1.48201 3.6269 0
M  V30 12181 H 1141.69 1.86563 3.54958 0
M  V30 12182 H 1138.28 3.14802 2.90857 0
M  V30 12183 H 1142.46 4.11875 2.76899 0
M  V30 12184 H 1137.72 5.52412 2.62014 0
M  V30 12185 H 1141.89 6.50304 2.49155 0
M  V30 12186 H 1139.52 7.20916 2.41214 0
M  V30 12187 N 1141.09 -1.09351 1.1349 0
M  V30 12188 C 1142.02 -2.18037 0.835588 0
M  V30 12189 C 1143 -1.68856 -0.205373 0
M  V30 12190 O 1144.19 -1.94094 -0.0641357 0
M  V30 12191 C 1141.32 -3.45987 0.301661 0
M  V30 12192 C 1140.27 -4.08507 1.27696 0
M  V30 12193 C 1139.6 -5.31292 0.602758 0
M  V30 12194 C 1140.9 -4.50916 2.63575 0
M  V30 12195 H 1142.59 -2.43332 1.74441 0
M  V30 12196 H 1140.14 -1.1695 0.840166 0
M  V30 12197 H 1142.09 -4.21324 0.079928 0
M  V30 12198 H 1140.82 -3.20217 -0.642552 0
M  V30 12199 H 1139.48 -3.3519 1.4847 0
M  V30 12200 H 1139.12 -5.01802 -0.346953 0
M  V30 12201 H 1138.82 -5.74075 1.25345 0
M  V30 12202 H 1140.35 -6.09351 0.390325 0
M  V30 12203 H 1141.76 -5.17474 2.46765 0
M  V30 12204 H 1140.16 -5.04586 3.24827 0
M  V30 12205 H 1141.23 -3.63279 3.2118 0
M  V30 12206 N 1142.57 -0.928524 -1.27343 0
M  V30 12207 C 1143.8 -0.58516 -1.98974 0
M  V30 12208 C 1144.22 0.829964 -1.68799 0
M  V30 12209 O 1143.58 1.55705 -0.928738 0
M  V30 12210 C 1143.63 -0.818662 -3.51184 0
M  V30 12211 O 1142.73 0.115355 -4.12239 0
M  V30 12212 H 1142.07 -0.225203 -0.624644 0
M  V30 12213 H 1144.6 -1.248 -1.6213 0
M  V30 12214 H 1144.61 -0.734554 -4.01333 0
M  V30 12215 H 1143.29 -1.8502 -3.72479 0
M  V30 12216 H 1141.86 -0.0187371 -3.72895 0
M  V30 12217 N 1144.05 1.41491 -0.694123 0
M  V30 12218 C 1145.3 2.0155 -0.224809 0
M  V30 12219 C 1145.63 1.54844 1.17205 0
M  V30 12220 O 1144.9 0.75899 1.7908 0
M  V30 12221 C 1145.19 3.59003 -0.280884 0
M  V30 12222 C 1145.04 4.15839 -1.71458 0
M  V30 12223 C 1146.36 4.38624 0.360122 0
M  V30 12224 H 1143.48 0.732293 -0.0831632 0
M  V30 12225 H 1146.12 1.68258 -0.882569 0
M  V30 12226 H 1144.27 3.87496 0.279164 0
M  V30 12227 H 1145.94 3.98227 -2.32837 0
M  V30 12228 H 1144.18 3.70936 -2.2492 0
M  V30 12229 H 1144.86 5.24997 -1.70536 0
M  V30 12230 H 1147.33 4.15936 -0.11683 0
M  V30 12231 H 1146.21 5.48132 0.290337 0
M  V30 12232 H 1146.47 4.1797 1.44062 0
M  V30 12233 N 1145.53 0.438773 1.51369 0
M  V30 12234 C 1146.75 -0.128221 2.07003 0
M  V30 12235 C 1147.18 -1.3557 1.30393 0
M  V30 12236 O 1146.54 -1.7804 0.342283 0
M  V30 12237 C 1146.58 -0.42761 3.58056 0
M  V30 12238 O 1145.69 -1.51382 3.83611 0
M  V30 12239 H 1145.03 -0.00123679 0.663999 0
M  V30 12240 H 1147.56 0.62052 1.94963 0
M  V30 12241 H 1147.57 -0.677645 4.02333 0
M  V30 12242 H 1146.24 0.469535 4.13241 0
M  V30 12243 H 1144.82 -1.25363 3.51196 0
M  V30 12244 N 1147.01 -1.56678 0.170181 0
M  V30 12245 C 1148.25 -1.9646 -0.474125 0
M  V30 12246 C 1148.57 -1.05719 -1.63855 0
M  V30 12247 O 1147.84 -0.123316 -1.95511 0
M  V30 12248 H 1146.42 -0.725446 -0.178149 0
M  V30 12249 H 1149.09 -1.93276 0.251099 0
M  V30 12250 H 1148.18 -3.00726 -0.834894 0
M  V30 12251 N 1148.48 0.103547 -1.57259 0
M  V30 12252 C 1149.43 1.14513 -2.02459 0
M  V30 12253 C 1150.43 1.4197 -0.924163 0
M  V30 12254 O 1151.63 1.41751 -1.10936 0
M  V30 12255 H 1148.01 0.386469 -0.645094 0
M  V30 12256 H 1149.98 0.737531 -2.89142 0
M  V30 12257 C 1148.73 2.45948 -2.45775 0
M  V30 12258 H 1148.05 2.25662 -3.30026 0
M  V30 12259 H 1149.49 3.17351 -2.81184 0
M  V30 12260 C 1147.95 3.09639 -1.32759 0
M  V30 12261 O 1148.48 3.96372 -0.652059 0
M  V30 12262 N 1146.68 2.69757 -1.08072 0
M  V30 12263 H 1146.23 1.9932 -1.63185 0
M  V30 12264 H 1146.19 3.127 -0.326532 0
M  V30 12265 N 1149.96 1.53094 0.37415 0
M  V30 12266 C 1151.19 1.72508 1.13687 0
M  V30 12267 C 1151.6 0.449922 1.83773 0
M  V30 12268 O 1150.94 -0.586391 1.74089 0
M  V30 12269 C 1151 2.82965 2.21746 0
M  V30 12270 C 1150.67 4.23599 1.71501 0
M  V30 12271 C 1151.67 5.06245 1.1837 0
M  V30 12272 C 1149.35 4.69978 1.77273 0
M  V30 12273 C 1151.34 6.33357 0.71679 0
M  V30 12274 C 1149.03 5.9707 1.30194 0
M  V30 12275 C 1150.03 6.7859 0.774856 0
M  V30 12276 O 1149.72 8.03298 0.310981 0
M  V30 12277 H 1149.45 0.580611 0.346218 0
M  V30 12278 H 1152 2.00596 0.441614 0
M  V30 12279 H 1150.23 2.5033 2.9474 0
M  V30 12280 H 1151.92 2.90638 2.83345 0
M  V30 12281 H 1152.69 4.71591 1.13256 0
M  V30 12282 H 1148.57 4.06605 2.17241 0
M  V30 12283 H 1152.11 6.96934 0.30471 0
M  V30 12284 H 1148.01 6.31225 1.34999 0
M  V30 12285 H 1148.78 8.17364 0.431098 0
M  V30 12286 N 1151.44 -0.633461 1.44309 0
M  V30 12287 C 1152.37 -1.75676 1.53819 0
M  V30 12288 C 1153.35 -1.65537 0.391365 0
M  V30 12289 O 1154.54 -1.84332 0.611181 0
M  V30 12290 C 1151.67 -3.14197 1.47979 0
M  V30 12291 C 1150.62 -3.39122 2.61113 0
M  V30 12292 C 1149.95 -4.77648 2.40325 0
M  V30 12293 C 1151.25 -3.31914 4.03274 0
M  V30 12294 H 1152.94 -1.67974 2.47841 0
M  V30 12295 H 1150.49 -0.8067 1.19283 0
M  V30 12296 H 1152.44 -3.92553 1.53233 0
M  V30 12297 H 1151.16 -3.22677 0.504718 0
M  V30 12298 H 1149.82 -2.63145 2.55245 0
M  V30 12299 H 1149.47 -4.82829 1.41016 0
M  V30 12300 H 1149.17 -4.95284 3.16177 0
M  V30 12301 H 1150.69 -5.58237 2.47394 0
M  V30 12302 H 1152.11 -4.00178 4.10524 0
M  V30 12303 H 1150.5 -3.61085 4.7931 0
M  V30 12304 H 1151.57 -2.29761 4.2701 0
M  V30 12305 N 1152.92 -1.31168 -0.873655 0
M  V30 12306 C 1154.33 -1.18584 -1.44203 0
M  V30 12307 C 1154.68 0.209114 -1.95082 0
M  V30 12308 O 1153.81 1.10662 -1.85965 0
M  V30 12309 C 1154.4 -2.14668 -2.62112 0
M  V30 12310 C 1152.96 -2.06029 -3.15006 0
M  V30 12311 C 1152.11 -2.04106 -1.87712 0
M  V30 12312 H 1155.06 -1.43273 -0.682536 0
M  V30 12313 H 1155.08 -1.73413 -3.38686 0
M  V30 12314 H 1154.59 -3.16186 -2.25051 0
M  V30 12315 H 1152.69 -1.07693 -3.56697 0
M  V30 12316 H 1152.8 -2.9496 -3.77539 0
M  V30 12317 H 1151.17 -1.49069 -2.0652 0
M  V30 12318 H 1151.95 -3.07373 -1.52894 0
M  V30 12319 N 1154.4 1.08748 -1.14068 0
M  V30 12320 C 1155.62 1.85353 -0.930532 0
M  V30 12321 C 1156.05 1.80892 0.515717 0
M  V30 12322 O 1155.4 1.19146 1.36652 0
M  V30 12323 C 1155.45 3.30962 -1.43167 0
M  V30 12324 O 1154.56 4.0769 -0.621468 0
M  V30 12325 H 1153.9 0.574485 -0.332962 0
M  V30 12326 H 1156.43 1.37282 -1.51707 0
M  V30 12327 H 1156.44 3.81807 -1.43832 0
M  V30 12328 H 1155.11 3.33524 -2.48464 0
M  V30 12329 H 1153.69 3.66587 -0.683267 0
M  V30 12330 N 1155.87 0.935264 1.26849 0
M  V30 12331 C 1157.11 0.587087 1.95787 0
M  V30 12332 C 1157.48 -0.856974 1.71814 0
M  V30 12333 O 1158.68 -1.3138 2.34505 0
M  V30 12334 C 1156.95 0.91303 3.45541 0
M  V30 12335 S 1158.51 0.674506 4.33585 0
M  V30 12336 H 1155.33 0.216442 0.677255 0
M  V30 12337 H 1157.93 1.20532 1.53923 0
M  V30 12338 H 1156.63 1.96154 3.60488 0
M  V30 12339 H 1156.16 0.28429 3.92371 0
M  V30 12340 H 1158.18 -0.464121 4.94025 0
M  V30 12341 N 1157.35 -1.41121 0.701616 0
M  V30 12342 C 1158.6 -2.0113 0.235147 0
M  V30 12343 C 1158.93 -1.55587 -1.16718 0
M  V30 12344 O 1158.18 -0.760615 -1.80314 0
M  V30 12345 C 1158.48 -3.5654 0.247781 0
M  V30 12346 C 1158.15 -4.21616 1.59846 0
M  V30 12347 C 1156.81 -4.39106 1.96822 0
M  V30 12348 C 1159.16 -4.58048 2.48679 0
M  V30 12349 C 1156.49 -4.90307 3.22205 0
M  V30 12350 C 1158.84 -5.10642 3.734 0
M  V30 12351 C 1157.51 -5.26343 4.10512 0
M  V30 12352 H 1156.78 -0.735987 0.0860462 0
M  V30 12353 H 1159.42 -1.68932 0.901898 0
M  V30 12354 H 1157.73 -3.88564 -0.502528 0
M  V30 12355 H 1159.42 -4.00787 -0.130766 0
M  V30 12356 H 1156.01 -4.08381 1.30088 0
M  V30 12357 H 1160.2 -4.44184 2.21391 0
M  V30 12358 H 1155.45 -5.00647 3.50945 0
M  V30 12359 H 1159.63 -5.37811 4.42416 0
M  V30 12360 H 1157.26 -5.65779 5.07738 0
M  V30 12361 N 1158.83 -0.446794 -1.51134 0
M  V30 12362 C 1160.08 0.116263 -2.01765 0
M  V30 12363 C 1160.4 1.42382 -1.33238 0
M  V30 12364 O 1159.67 1.9018 -0.469915 0
M  V30 12365 H 1158.25 0.0459558 -0.745585 0
M  V30 12366 H 1160.91 -0.591664 -1.85702 0
M  V30 12367 H 1160.01 0.285358 -3.10793 0
M  V30 12368 N 1160.31 1.56586 -0.178487 0
M  V30 12369 C 1161.53 2.01915 0.473841 0
M  V30 12370 C 1161.96 1.05789 1.55533 0
M  V30 12371 O 1161.32 0.0386018 1.81259 0
M  V30 12372 C 1161.36 3.45799 1.02251 0
M  V30 12373 O 1160.47 3.52761 2.1362 0
M  V30 12374 H 1159.81 0.654372 0.112666 0
M  V30 12375 H 1162.34 2.02613 -0.284486 0
M  V30 12376 H 1162.35 3.85252 1.34332 0
M  V30 12377 H 1161.02 4.1526 0.230719 0
M  V30 12378 H 1159.6 3.25172 1.8253 0
M  V30 12379 N 1161.79 -0.095206 1.57312 0
M  V30 12380 C 1163.2 -0.649733 1.7503 0
M  V30 12381 C 1163.55 -1.7912 0.800652 0
M  V30 12382 O 1162.67 -2.1639 -0.0208831 0
M  V30 12383 C 1163.27 -1.18541 3.17386 0
M  V30 12384 C 1161.83 -1.686 3.36528 0
M  V30 12385 C 1160.97 -0.595531 2.7083 0
M  V30 12386 H 1163.93 0.130863 1.5816 0
M  V30 12387 H 1163.95 -2.05473 3.20252 0
M  V30 12388 H 1163.46 -0.35441 3.86478 0
M  V30 12389 H 1161.56 -2.541 2.72514 0
M  V30 12390 H 1161.67 -1.77907 4.44844 0
M  V30 12391 H 1160.04 -1.03495 2.32725 0
M  V30 12392 H 1160.82 0.224883 3.42563 0
M  V30 12393 N 1163.26 -1.53291 -0.366026 0
M  V30 12394 C 1164.51 -1.68671 -1.10602 0
M  V30 12395 C 1164.83 -0.444793 -1.90476 0
M  V30 12396 O 1166.03 -0.479135 -2.67239 0
M  V30 12397 C 1164.49 -2.98174 -2.01545 0
M  V30 12398 C 1164.1 -4.29626 -1.26986 0
M  V30 12399 C 1165.84 -3.22921 -2.7554 0
M  V30 12400 C 1163.75 -5.50218 -2.16828 0
M  V30 12401 H 1162.68 -0.628456 -0.416604 0
M  V30 12402 H 1165.33 -1.79791 -0.367058 0
M  V30 12403 H 1163.71 -2.80855 -2.79171 0
M  V30 12404 H 1164.88 -4.57574 -0.544269 0
M  V30 12405 H 1163.2 -4.11318 -0.648558 0
M  V30 12406 H 1165.8 -4.10202 -3.42985 0
M  V30 12407 H 1166.14 -2.38964 -3.40884 0
M  V30 12408 H 1166.67 -3.40912 -2.04997 0
M  V30 12409 H 1163.41 -6.36651 -1.56063 0
M  V30 12410 H 1162.93 -5.26549 -2.87238 0
M  V30 12411 H 1164.61 -5.84991 -2.76396 0
M  V30 12412 N 1164.74 0.6258 -1.44643 0
M  V30 12413 C 1165.69 1.73135 -1.48352 0
M  V30 12414 C 1166.68 1.57076 -0.348716 0
M  V30 12415 O 1167.87 1.66722 -0.594379 0
M  V30 12416 C 1165 3.11838 -1.43568 0
M  V30 12417 C 1164.08 3.33348 -2.62183 0
M  V30 12418 N 1164.47 3.252 -3.87399 0
M  V30 12419 C 1162.77 3.64162 -2.57492 0
M  V30 12420 C 1163.47 3.47544 -4.66463 0
M  V30 12421 N 1162.45 3.70672 -3.97622 0
M  V30 12422 H 1166.25 1.65301 -2.43008 0
M  V30 12423 H 1163.77 0.828449 -1.3968 0
M  V30 12424 H 1165.76 3.91127 -1.44309 0
M  V30 12425 H 1164.42 3.20834 -0.499547 0
M  V30 12426 H 1165.43 3.04001 -4.19289 0
M  V30 12427 H 1162.11 3.80107 -1.727 0
M  V30 12428 H 1163.5 3.46792 -5.75487 0
M  V30 12429 N 1166.22 1.31629 0.866686 0
M  V30 12430 C 1167.45 1.24474 1.65269 0
M  V30 12431 C 1167.86 -0.18939 1.87848 0
M  V30 12432 O 1167.22 -1.12251 1.43895 0
M  V30 12433 C 1167.27 1.98872 3.01881 0
M  V30 12434 O 1166.99 3.36687 2.8031 0
M  V30 12435 C 1168.49 1.98595 3.96327 0
M  V30 12436 H 1165.71 0.429966 0.515141 0
M  V30 12437 H 1168.26 1.73559 1.08156 0
M  V30 12438 H 1166.41 1.53539 3.55675 0
M  V30 12439 H 1166.83 3.74612 3.67105 0
M  V30 12440 H 1168.3 2.55156 4.89489 0
M  V30 12441 H 1168.78 0.969257 4.28371 0
M  V30 12442 H 1169.38 2.43821 3.4847 0
M  V30 12443 N 1167.7 -1.08142 1.14644 0
M  V30 12444 C 1168.63 -2.17139 0.858667 0
M  V30 12445 C 1169.61 -1.69064 -0.187452 0
M  V30 12446 O 1170.8 -1.94151 -0.0435458 0
M  V30 12447 C 1167.93 -3.45648 0.33834 0
M  V30 12448 C 1166.88 -4.07129 1.32021 0
M  V30 12449 C 1166.21 -5.30623 0.659075 0
M  V30 12450 C 1167.51 -4.48095 2.68343 0
M  V30 12451 H 1169.2 -2.41468 1.77012 0
M  V30 12452 H 1166.75 -1.16052 0.852523 0
M  V30 12453 H 1168.7 -4.21216 0.124611 0
M  V30 12454 H 1167.42 -3.2088 -0.608553 0
M  V30 12455 H 1166.08 -3.33596 1.52016 0
M  V30 12456 H 1165.73 -5.02142 -0.293711 0
M  V30 12457 H 1165.43 -5.72714 1.31427 0
M  V30 12458 H 1166.95 -6.08903 0.454933 0
M  V30 12459 H 1168.37 -5.14828 2.5224 0
M  V30 12460 H 1166.76 -5.01113 3.30161 0
M  V30 12461 H 1167.83 -3.59852 3.25015 0
M  V30 12462 N 1169.18 -0.941978 -1.26351 0
M  V30 12463 C 1170.42 -0.597462 -1.95473 0
M  V30 12464 C 1170.78 0.847851 -1.72266 0
M  V30 12465 O 1171.98 1.30134 -2.35199 0
M  V30 12466 C 1170.25 -0.931342 -3.45052 0
M  V30 12467 S 1171.81 -0.697491 -4.33221 0
M  V30 12468 H 1168.63 -0.22003 -0.676097 0
M  V30 12469 H 1171.23 -1.21346 -1.53282 0
M  V30 12470 H 1169.94 -1.98063 -3.59443 0
M  V30 12471 H 1169.47 -0.305095 -3.92215 0
M  V30 12472 H 1171.48 0.437915 -4.94264 0
M  V30 12473 N 1170.66 1.40747 -0.709091 0
M  V30 12474 C 1171.89 2.05022 -0.254887 0
M  V30 12475 C 1172.29 1.5351 1.10595 0
M  V30 12476 O 1171.64 0.683912 1.70494 0
M  V30 12477 C 1171.7 3.59188 -0.149823 0
M  V30 12478 C 1171.36 4.33557 -1.44489 0
M  V30 12479 C 1172.36 4.61941 -2.3855 0
M  V30 12480 C 1170.04 4.72585 -1.70201 0
M  V30 12481 C 1172.04 5.2833 -3.56575 0
M  V30 12482 C 1169.73 5.38707 -2.88509 0
M  V30 12483 C 1170.72 5.66509 -3.81518 0
M  V30 12484 O 1170.41 6.31267 -4.97752 0
M  V30 12485 H 1170.14 0.666405 -0.113493 0
M  V30 12486 H 1172.7 1.81261 -0.966099 0
M  V30 12487 H 1170.93 3.81742 0.617276 0
M  V30 12488 H 1172.62 4.05008 0.268965 0
M  V30 12489 H 1173.38 4.32259 -2.19947 0
M  V30 12490 H 1169.26 4.50318 -0.986628 0
M  V30 12491 H 1172.81 5.49947 -4.2919 0
M  V30 12492 H 1168.7 5.67809 -3.07023 0
M  V30 12493 H 1169.47 6.49764 -4.97745 0
M  V30 12494 N 1172.13 0.454803 1.50895 0
M  V30 12495 C 1173.07 -0.393395 2.24784 0
M  V30 12496 C 1174.04 -1.01005 1.27424 0
M  V30 12497 O 1175.23 -1.04914 1.56605 0
M  V30 12498 C 1172.36 -1.54978 3.01164 0
M  V30 12499 C 1171.4 -1.0521 4.1332 0
M  V30 12500 S 1172.23 0.0200486 5.35496 0
M  V30 12501 C 1173.39 -1.14059 6.1542 0
M  V30 12502 H 1173.62 0.233864 2.96379 0
M  V30 12503 H 1171.16 0.239498 1.52531 0
M  V30 12504 H 1173.11 -2.21262 3.45765 0
M  V30 12505 H 1171.78 -2.1485 2.29125 0
M  V30 12506 H 1170.97 -1.91734 4.66105 0
M  V30 12507 H 1170.57 -0.467234 3.7107 0
M  V30 12508 H 1172.86 -2.05552 6.45565 0
M  V30 12509 H 1173.81 -0.652339 7.05089 0
M  V30 12510 H 1174.21 -1.38705 5.47194 0
M  V30 12511 N 1173.61 -1.56489 0.186789 0
M  V30 12512 C 1175.03 -1.58701 -0.169176 0
M  V30 12513 C 1175.23 -1.2027 -1.61671 0
M  V30 12514 O 1174.28 -0.92154 -2.35083 0
M  V30 12515 C 1175.6 -3.00437 0.125657 0
M  V30 12516 C 1177.14 -3.12932 0.0651 0
M  V30 12517 C 1177.62 -4.56787 0.333131 0
M  V30 12518 N 1179.11 -4.62344 0.281453 0
M  V30 12519 C 1179.85 -5.71529 0.462805 0
M  V30 12520 N 1179.34 -6.89213 0.704054 0
M  V30 12521 N 1181.13 -5.60692 0.397636 0
M  V30 12522 H 1173.29 -1.79754 1.13148 0
M  V30 12523 H 1175.55 -0.83385 0.450997 0
M  V30 12524 H 1175.25 -3.33086 1.12901 0
M  V30 12525 H 1175.13 -3.72782 -0.575612 0
M  V30 12526 H 1177.52 -2.80101 -0.928845 0
M  V30 12527 H 1177.6 -2.42991 0.799318 0
M  V30 12528 H 1177.24 -4.9033 1.32436 0
M  V30 12529 H 1177.17 -5.24907 -0.421879 0
M  V30 12530 H 1179.66 -3.77764 0.101266 0
M  V30 12531 H 1179.97 -7.68314 0.831468 0
M  V30 12532 H 1178.32 -6.9104 0.740851 0
M  V30 12533 H 1181.51 -4.6763 0.20964 0
M  V30 12534 H 1181.68 -6.45726 0.54239 0
M  V30 12535 N 1175.09 0.086862 -1.5736 0
M  V30 12536 C 1176 1.12297 -2.05977 0
M  V30 12537 C 1177.02 1.43347 -0.986284 0
M  V30 12538 O 1178.19 1.53825 -1.3 0
M  V30 12539 C 1175.26 2.42131 -2.4814 0
M  V30 12540 C 1174.32 2.18189 -3.69719 0
M  V30 12541 C 1173.55 3.41833 -4.09861 0
M  V30 12542 O 1173.77 4.50383 -3.50016 0
M  V30 12543 O 1172.71 3.30934 -5.02759 0
M  V30 12544 H 1176.53 0.740012 -2.94546 0
M  V30 12545 H 1174.12 0.29995 -1.46358 0
M  V30 12546 H 1176 3.18568 -2.75848 0
M  V30 12547 H 1174.68 2.79837 -1.62705 0
M  V30 12548 H 1173.58 1.39506 -3.47115 0
M  V30 12549 H 1174.92 1.85372 -4.55959 0
M  V30 12550 N 1176.57 1.53483 0.357892 0
M  V30 12551 C 1177.98 1.61641 0.934289 0
M  V30 12552 C 1178.33 0.488655 1.90017 0
M  V30 12553 O 1177.45 -0.38378 2.1297 0
M  V30 12554 C 1178.05 2.92987 1.7013 0
M  V30 12555 C 1176.61 3.03456 2.22692 0
M  V30 12556 C 1175.76 2.56992 1.04165 0
M  V30 12557 H 1178.71 1.58112 0.136452 0
M  V30 12558 H 1178.73 2.81221 2.5631 0
M  V30 12559 H 1178.24 3.75047 0.998056 0
M  V30 12560 H 1176.34 2.25999 2.96235 0
M  V30 12561 H 1176.45 4.08673 2.50046 0
M  V30 12562 H 1174.82 2.12052 1.41088 0
M  V30 12563 H 1175.6 3.41477 0.353272 0
M  V30 12564 N 1178.05 -0.61812 1.44973 0
M  V30 12565 C 1179.29 -1.37343 1.47715 0
M  V30 12566 C 1179.61 -1.95239 0.118784 0
M  V30 12567 O 1180.81 -2.7149 0.0237981 0
M  V30 12568 C 1179.27 -2.48732 2.60116 0
M  V30 12569 C 1178.88 -1.97294 4.02218 0
M  V30 12570 C 1180.62 -3.25831 2.72093 0
M  V30 12571 C 1178.53 -3.06102 5.06019 0
M  V30 12572 H 1177.46 -0.516175 0.549617 0
M  V30 12573 H 1180.11 -0.663617 1.7108 0
M  V30 12574 H 1178.49 -3.2235 2.30014 0
M  V30 12575 H 1179.67 -1.30455 4.41948 0
M  V30 12576 H 1177.98 -1.32972 3.94598 0
M  V30 12577 H 1180.58 -4.06968 3.46815 0
M  V30 12578 H 1180.92 -3.76156 1.7836 0
M  V30 12579 H 1181.45 -2.59309 3.01668 0
M  V30 12580 H 1178.19 -2.60706 6.01426 0
M  V30 12581 H 1177.71 -3.71541 4.70869 0
M  V30 12582 H 1179.39 -3.70662 5.30301 0
M  V30 12583 N 1179.52 -1.32087 -0.859693 0
M  V30 12584 C 1180.45 -1.23204 -1.98351 0
M  V30 12585 C 1181.43 -0.116974 -1.69697 0
M  V30 12586 O 1182.62 -0.303301 -1.91817 0
M  V30 12587 C 1179.75 -0.949171 -3.34078 0
M  V30 12588 C 1178.7 -2.02493 -3.77069 0
M  V30 12589 C 1178.03 -1.59455 -5.1037 0
M  V30 12590 C 1179.33 -3.43934 -3.93074 0
M  V30 12591 H 1181.02 -2.17227 -2.0604 0
M  V30 12592 H 1178.57 -1.04577 -0.989931 0
M  V30 12593 H 1180.52 -0.873594 -4.12245 0
M  V30 12594 H 1179.25 0.0267095 -3.26589 0
M  V30 12595 H 1177.91 -2.09057 -3.01149 0
M  V30 12596 H 1177.55 -0.606256 -4.99333 0
M  V30 12597 H 1177.25 -2.31429 -5.40106 0
M  V30 12598 H 1178.78 -1.53325 -5.91036 0
M  V30 12599 H 1180.19 -3.39986 -4.61608 0
M  V30 12600 H 1178.59 -4.14214 -4.3422 0
M  V30 12601 H 1179.66 -3.83965 -2.9614 0
M  V30 12602 N 1181 1.07532 -1.15215 0
M  V30 12603 C 1182.28 1.76813 -0.83646 0
M  V30 12604 C 1182.66 2.00242 0.6683 0
M  V30 12605 O 1182.01 1.61941 1.61206 0
M  V30 12606 C 1182.22 3.0779 -1.64519 0
M  V30 12607 C 1183.56 3.82168 -1.85022 0
M  V30 12608 O 1184.59 3.17596 -1.61279 0
M  V30 12609 O 1183.45 4.98135 -2.24775 0
M  V30 12610 H 1180.54 0.767736 -0.307426 0
M  V30 12611 H 1183.09 1.13914 -1.25784 0
M  V30 12612 H 1181.86 2.86342 -2.6669 0
M  V30 12613 H 1181.48 3.78419 -1.22002 0
M  V30 12614 N 1182.48 0.948665 1.2585 0
M  V30 12615 C 1183.41 0.482036 2.2847 0
M  V30 12616 C 1184.39 -0.468553 1.63519 0
M  V30 12617 O 1185.58 -0.368796 1.90666 0
M  V30 12618 C 1182.71 -0.246603 3.46423 0
M  V30 12619 C 1181.66 0.61815 4.23513 0
M  V30 12620 C 1180.99 -0.240884 5.34157 0
M  V30 12621 C 1182.29 1.89327 4.86778 0
M  V30 12622 H 1183.98 1.33973 2.67753 0
M  V30 12623 H 1181.53 0.645645 1.28715 0
M  V30 12624 H 1183.48 -0.584135 4.17332 0
M  V30 12625 H 1182.2 -1.13849 3.06114 0
M  V30 12626 H 1180.86 0.938682 3.54379 0
M  V30 12627 H 1180.51 -1.13235 4.90089 0
M  V30 12628 H 1180.21 0.334367 5.86648 0
M  V30 12629 H 1181.73 -0.573517 6.07901 0
M  V30 12630 H 1183.15 1.62252 5.49861 0
M  V30 12631 H 1181.55 2.41369 5.49419 0
M  V30 12632 H 1182.62 2.60006 4.09298 0
M  V30 12633 N 1183.96 -1.40369 0.716545 0
M  V30 12634 C 1185.37 -1.83783 0.328719 0
M  V30 12635 C 1185.72 -1.5991 -1.13681 0
M  V30 12636 O 1184.85 -1.08048 -1.87496 0
M  V30 12637 C 1185.44 -3.33626 0.589848 0
M  V30 12638 C 1184 -3.7553 0.25572 0
M  V30 12639 C 1183.15 -2.63571 0.861733 0
M  V30 12640 H 1186.1 -1.29623 0.915621 0
M  V30 12641 H 1186.12 -3.80225 -0.14459 0
M  V30 12642 H 1185.63 -3.5097 1.65655 0
M  V30 12643 H 1183.73 -3.63781 -0.805883 0
M  V30 12644 H 1183.84 -4.73577 0.725388 0
M  V30 12645 H 1182.21 -2.53047 0.289706 0
M  V30 12646 H 1182.99 -2.83727 1.93272 0
M  V30 12647 N 1185.44 -0.462799 -1.50652 0
M  V30 12648 C 1186.37 0.325724 -2.31217 0
M  V30 12649 C 1187.35 0.997942 -1.3775 0
M  V30 12650 O 1188.53 0.996707 -1.66671 0
M  V30 12651 C 1185.66 1.41283 -3.17264 0
M  V30 12652 C 1184.62 0.862687 -4.19216 0
M  V30 12653 C 1183.94 2.04746 -4.93946 0
M  V30 12654 C 1185.24 -0.120365 -5.22161 0
M  V30 12655 H 1186.94 -0.346666 -2.97386 0
M  V30 12656 H 1184.48 -0.168163 -1.43015 0
M  V30 12657 H 1186.44 1.97188 -3.72418 0
M  V30 12658 H 1185.16 2.11387 -2.48964 0
M  V30 12659 H 1183.82 0.325671 -3.65151 0
M  V30 12660 H 1183.47 2.73529 -4.22127 0
M  V30 12661 H 1183.17 1.68562 -5.62904 0
M  V30 12662 H 1184.69 2.61157 -5.51932 0
M  V30 12663 H 1186.1 0.349226 -5.72235 0
M  V30 12664 H 1184.5 -0.396061 -5.98792 0
M  V30 12665 H 1185.57 -1.04895 -4.73418 0
M  V30 12666 N 1186.91 1.56388 -0.195085 0
M  V30 12667 C 1187.82 2.22698 0.737743 0
M  V30 12668 C 1188.84 1.22605 1.23466 0
M  V30 12669 O 1190.02 1.55342 1.28183 0
M  V30 12670 C 1187.08 2.87333 1.94011 0
M  V30 12671 C 1186.14 4.02696 1.48776 0
M  V30 12672 C 1185.38 4.64239 2.63282 0
M  V30 12673 O 1185.6 4.24706 3.80763 0
M  V30 12674 O 1184.53 5.53705 2.35996 0
M  V30 12675 H 1188.36 3.03021 0.203013 0
M  V30 12676 H 1185.94 1.49361 0.0342044 0
M  V30 12677 H 1187.83 3.28226 2.64284 0
M  V30 12678 H 1186.5 2.0999 2.46345 0
M  V30 12679 H 1185.41 3.66426 0.753839 0
M  V30 12680 H 1186.74 4.81703 1.01109 0
M  V30 12681 N 1188.39 -0.0785156 1.57404 0
M  V30 12682 C 1189.62 -0.792042 1.9114 0
M  V30 12683 C 1190.04 -1.71458 0.790408 0
M  V30 12684 O 1189.39 -1.80959 -0.236662 0
M  V30 12685 C 1189.44 -1.59138 3.24588 0
M  V30 12686 O 1189.16 -0.705931 4.32375 0
M  V30 12687 C 1190.67 -2.4065 3.72293 0
M  V30 12688 H 1187.89 -0.225566 0.63195 0
M  V30 12689 H 1190.43 -0.0507929 2.04437 0
M  V30 12690 H 1188.58 -2.28498 3.12838 0
M  V30 12691 H 1189 -1.26121 5.09111 0
M  V30 12692 H 1190.47 -2.92204 4.68317 0
M  V30 12693 H 1190.95 -3.1987 3.00965 0
M  V30 12694 H 1191.56 -1.7646 3.86965 0
M  V30 12695 N 1189.87 -1.5367 -0.349747 0
M  V30 12696 C 1191.12 -1.69835 -1.08807 0
M  V30 12697 C 1191.43 -0.46497 -1.89993 0
M  V30 12698 O 1192.64 -0.507452 -2.66716 0
M  V30 12699 C 1191.09 -3.00294 -1.98372 0
M  V30 12700 C 1190.7 -4.30949 -1.22422 0
M  V30 12701 C 1192.45 -3.25826 -2.72099 0
M  V30 12702 C 1190.35 -5.52486 -2.1098 0
M  V30 12703 H 1189.28 -0.63284 -0.409915 0
M  V30 12704 H 1191.93 -1.80171 -0.347968 0
M  V30 12705 H 1190.32 -2.838 -2.76176 0
M  V30 12706 H 1191.49 -4.58126 -0.495707 0
M  V30 12707 H 1189.81 -4.11983 -0.604896 0
M  V30 12708 H 1192.4 -4.13817 -3.38615 0
M  V30 12709 H 1192.75 -2.42566 -3.3833 0
M  V30 12710 H 1193.28 -3.43067 -2.0137 0
M  V30 12711 H 1190.02 -6.38271 -1.49301 0
M  V30 12712 H 1189.54 -5.29566 -2.81638 0
M  V30 12713 H 1191.22 -5.87889 -2.70176 0
M  V30 12714 N 1191.35 0.610423 -1.45298 0
M  V30 12715 C 1192.57 1.40112 -1.52917 0
M  V30 12716 C 1193 1.87404 -0.161696 0
M  V30 12717 O 1192.36 1.59973 0.853135 0
M  V30 12718 C 1192.4 2.58359 -2.51561 0
M  V30 12719 O 1191.51 3.58895 -2.03146 0
M  V30 12720 H 1190.85 0.41841 -0.515586 0
M  V30 12721 H 1193.38 0.743159 -1.90626 0
M  V30 12722 H 1193.39 3.0564 -2.70275 0
M  V30 12723 H 1192.06 2.23286 -3.50879 0
M  V30 12724 H 1190.64 3.18282 -1.94296 0
M  V30 12725 N 1192.83 1.32541 0.852676 0
M  V30 12726 C 1193.74 1.23646 1.99371 0
M  V30 12727 C 1194.75 0.149673 1.73355 0
M  V30 12728 O 1195.93 0.370716 1.97959 0
M  V30 12729 C 1192.99 0.961873 3.3309 0
M  V30 12730 C 1192.05 2.1373 3.72315 0
M  V30 12731 C 1191.29 1.87572 4.99652 0
M  V30 12732 O 1191.51 0.819247 5.64486 0
M  V30 12733 O 1190.44 2.73732 5.36054 0
M  V30 12734 H 1194.27 2.19573 2.09813 0
M  V30 12735 H 1191.86 1.12451 0.983627 0
M  V30 12736 H 1193.74 0.825316 4.13239 0
M  V30 12737 H 1192.41 0.0327745 3.23683 0
M  V30 12738 H 1191.32 2.32933 2.92733 0
M  V30 12739 H 1192.65 3.04925 3.86369 0
M  V30 12740 N 1194.3 -1.0692 1.15784 0
M  V30 12741 C 1195.23 -2.16216 0.881649 0
M  V30 12742 C 1196.22 -1.69253 -0.16951 0
M  V30 12743 O 1197.4 -1.94186 -0.0229511 0
M  V30 12744 C 1194.53 -3.4527 0.374982 0
M  V30 12745 C 1193.48 -4.05706 1.36332 0
M  V30 12746 C 1192.81 -5.29894 0.715317 0
M  V30 12747 C 1194.11 -4.45224 2.7308 0
M  V30 12748 H 1195.8 -2.39577 1.79563 0
M  V30 12749 H 1193.35 -1.15141 0.864784 0
M  V30 12750 H 1195.3 -4.2106 0.169279 0
M  V30 12751 H 1194.03 -3.21508 -0.574485 0
M  V30 12752 H 1192.69 -3.31965 1.55546 0
M  V30 12753 H 1192.33 -5.02425 -0.240436 0
M  V30 12754 H 1192.03 -5.71287 1.37494 0
M  V30 12755 H 1193.56 -6.08386 0.519489 0
M  V30 12756 H 1194.97 -5.12124 2.57686 0
M  V30 12757 H 1193.37 -4.97583 3.35457 0
M  V30 12758 H 1194.44 -3.56384 3.28813 0
M  V30 12759 N 1195.78 -0.955326 -1.25345 0
M  V30 12760 C 1197.01 -0.627693 -1.97149 0
M  V30 12761 C 1197.43 0.800349 -1.70997 0
M  V30 12762 O 1196.78 1.53545 -0.986417 0
M  V30 12763 C 1196.83 -0.877675 -3.50684 0
M  V30 12764 O 1196.55 -2.24957 -3.75934 0
M  V30 12765 C 1198.06 -0.562524 -4.39716 0
M  V30 12766 H 1195.28 -0.235269 -0.628402 0
M  V30 12767 H 1197.82 -1.27989 -1.59496 0
M  V30 12768 H 1195.97 -0.271878 -3.86445 0
M  V30 12769 H 1196.39 -2.32022 -4.70389 0
M  V30 12770 H 1197.86 -0.787972 -5.46347 0
M  V30 12771 H 1198.34 0.50293 -4.36311 0
M  V30 12772 H 1198.95 -1.14767 -4.09522 0
M  V30 12773 N 1197.26 1.39987 -0.723979 0
M  V30 12774 C 1198.19 2.3332 -0.0917282 0
M  V30 12775 C 1199.17 1.53335 0.736361 0
M  V30 12776 O 1200.36 1.81771 0.683582 0
M  V30 12777 C 1197.49 3.3737 0.824549 0
M  V30 12778 C 1196.44 4.2788 0.101452 0
M  V30 12779 C 1195.77 5.22536 1.13401 0
M  V30 12780 C 1197.07 5.11649 -1.04939 0
M  V30 12781 H 1198.76 2.86441 -0.871318 0
M  V30 12782 H 1196.31 1.37725 -0.420448 0
M  V30 12783 H 1198.26 4.01607 1.27631 0
M  V30 12784 H 1196.98 2.82663 1.63613 0
M  V30 12785 H 1195.64 3.65107 -0.330569 0
M  V30 12786 H 1195.29 4.64131 1.93886 0
M  V30 12787 H 1194.99 5.83938 0.65502 0
M  V30 12788 H 1196.52 5.89651 1.58569 0
M  V30 12789 H 1197.93 5.69293 -0.6766 0
M  V30 12790 H 1196.33 5.82137 -1.45729 0
M  V30 12791 H 1197.4 4.47132 -1.8762 0
M  V30 12792 N 1198.74 0.470782 1.50404 0
M  V30 12793 C 1199.67 -0.369532 2.25188 0
M  V30 12794 C 1200.65 -0.996478 1.28488 0
M  V30 12795 O 1201.83 -1.03247 1.57709 0
M  V30 12796 C 1198.96 -1.51775 3.02791 0
M  V30 12797 C 1198.01 -1.00821 4.14412 0
M  V30 12798 S 1198.84 0.076844 5.35445 0
M  V30 12799 C 1200 -1.07525 6.16595 0
M  V30 12800 H 1200.23 0.265286 2.96114 0
M  V30 12801 H 1197.76 0.255662 1.52269 0
M  V30 12802 H 1199.72 -2.17582 3.48092 0
M  V30 12803 H 1198.38 -2.12408 2.31391 0
M  V30 12804 H 1197.57 -1.8678 4.68112 0
M  V30 12805 H 1197.18 -0.427851 3.71545 0
M  V30 12806 H 1199.47 -1.98693 6.47709 0
M  V30 12807 H 1200.41 -0.577518 7.05741 0
M  V30 12808 H 1200.82 -1.32894 5.48634 0
M  V30 12809 N 1200.22 -1.56282 0.203376 0
M  V30 12810 C 1201.63 -1.84146 -0.307752 0
M  V30 12811 C 1201.98 -1.12429 -1.60792 0
M  V30 12812 O 1201.1 -0.387852 -2.12896 0
M  V30 12813 C 1201.7 -3.34053 -0.565152 0
M  V30 12814 C 1200.26 -3.62298 -1.02063 0
M  V30 12815 C 1199.41 -2.77202 -0.0737343 0
M  V30 12816 H 1202.36 -1.52848 0.426983 0
M  V30 12817 H 1202.38 -3.53273 -1.41345 0
M  V30 12818 H 1201.89 -3.86222 0.381301 0
M  V30 12819 H 1199.99 -3.1557 -1.98107 0
M  V30 12820 H 1200.1 -4.70424 -0.907614 0
M  V30 12821 H 1198.47 -2.48074 -0.577169 0
M  V30 12822 H 1199.25 -3.32164 0.86731 0
M  V30 12823 N 1201.7 0.070167 -1.57444 0
M  V30 12824 C 1202.94 0.770153 -1.87607 0
M  V30 12825 C 1203.27 1.77143 -0.795875 0
M  V30 12826 O 1202.55 1.93533 0.193674 0
M  V30 12827 C 1202.83 1.47668 -3.2843 0
M  V30 12828 C 1202.69 0.491712 -4.47104 0
M  V30 12829 C 1204 2.42118 -3.67514 0
M  V30 12830 H 1201.12 0.278519 -0.682346 0
M  V30 12831 H 1203.77 0.0333184 -1.89971 0
M  V30 12832 H 1201.92 2.10476 -3.26546 0
M  V30 12833 H 1203.59 -0.131283 -4.61113 0
M  V30 12834 H 1201.83 -0.192817 -4.33371 0
M  V30 12835 H 1202.5 1.02372 -5.42424 0
M  V30 12836 H 1204.98 1.89387 -3.70502 0
M  V30 12837 H 1203.85 2.88556 -4.66933 0
M  V30 12838 H 1204.11 3.26995 -2.97534 0
M  V30 12839 N 1203.17 1.53854 0.341593 0
M  V30 12840 C 1204.42 1.72388 1.07954 0
M  V30 12841 C 1204.77 0.482184 1.8626 0
M  V30 12842 O 1204.07 -0.525232 1.8426 0
M  V30 12843 C 1204.26 2.92844 2.04884 0
M  V30 12844 C 1204.09 4.28609 1.36105 0
M  V30 12845 C 1202.86 4.93068 1.10508 0
M  V30 12846 C 1205.06 5.08254 0.786255 0
M  V30 12847 N 1203.04 6.12702 0.383319 0
M  V30 12848 C 1204.41 6.19693 0.195147 0
M  V30 12849 C 1206.47 4.93134 0.687293 0
M  V30 12850 C 1205.17 7.17661 -0.485298 0
M  V30 12851 C 1207.2 5.91396 0.0205841 0
M  V30 12852 C 1206.56 7.02174 -0.559545 0
M  V30 12853 H 1202.66 0.683826 0.37935 0
M  V30 12854 H 1205.24 1.91288 0.36289 0
M  V30 12855 H 1203.41 2.7544 2.73838 0
M  V30 12856 H 1205.14 3.00088 2.71531 0
M  V30 12857 H 1201.9 4.52659 1.39271 0
M  V30 12858 H 1202.32 6.7699 0.0371033 0
M  V30 12859 H 1206.96 4.07653 1.12155 0
M  V30 12860 H 1204.68 8.02714 -0.931438 0
M  V30 12861 H 1208.27 5.81774 -0.0553832 0
M  V30 12862 H 1207.15 7.76904 -1.06726 0
M  V30 12863 N 1204.65 -0.602709 1.4562 0
M  V30 12864 C 1205.88 -1.3881 1.53426 0
M  V30 12865 C 1206.29 -1.88046 0.16851 0
M  V30 12866 O 1205.65 -1.62493 -0.830791 0
M  V30 12867 C 1205.7 -2.58927 2.52268 0
M  V30 12868 O 1205.42 -2.11735 3.83536 0
M  V30 12869 C 1206.92 -3.51728 2.69819 0
M  V30 12870 H 1204.14 -0.424744 0.519455 0
M  V30 12871 H 1206.69 -0.73459 1.90851 0
M  V30 12872 H 1204.84 -3.20309 2.17902 0
M  V30 12873 H 1205.26 -2.89814 4.37159 0
M  V30 12874 H 1206.73 -4.32542 3.42945 0
M  V30 12875 H 1207.21 -4.02383 1.76024 0
M  V30 12876 H 1207.81 -2.96196 3.05202 0
M  V30 12877 N 1206.13 -1.32992 -0.845635 0
M  V30 12878 C 1207.38 -1.2382 -1.59728 0
M  V30 12879 C 1207.7 0.197724 -1.93995 0
M  V30 12880 O 1206.97 1.12477 -1.60392 0
M  V30 12881 H 1205.55 -0.455296 -0.592212 0
M  V30 12882 H 1208.21 -1.66627 -1.01101 0
M  V30 12883 H 1207.31 -1.82717 -2.53023 0
M  V30 12884 N 1207.61 1.06304 -1.1635 0
M  V30 12885 C 1208.88 1.75916 -0.855166 0
M  V30 12886 C 1209.26 2.0094 0.647024 0
M  V30 12887 O 1208.61 1.63642 1.59479 0
M  V30 12888 C 1208.82 3.06028 -1.67774 0
M  V30 12889 C 1210.17 3.80184 -1.89065 0
M  V30 12890 O 1211.19 3.15868 -1.64639 0
M  V30 12891 O 1210.05 4.95723 -2.30045 0
M  V30 12892 H 1207.15 0.764432 -0.315551 0
M  V30 12893 H 1209.69 1.12574 -1.26985 0
M  V30 12894 H 1208.47 2.83498 -2.69712 0
M  V30 12895 H 1208.09 3.77104 -1.26009 0
M  V30 12896 N 1209.09 0.96196 1.24836 0
M  V30 12897 C 1210.36 0.537809 1.88061 0
M  V30 12898 C 1210.74 -0.985023 1.8671 0
M  V30 12899 O 1210.09 -1.85394 1.33572 0
M  V30 12900 C 1210.3 1.12279 3.30446 0
M  V30 12901 C 1211.65 1.20414 4.07168 0
M  V30 12902 O 1212.67 1.07488 3.39595 0
M  V30 12903 O 1211.53 1.4078 5.28056 0
M  V30 12904 H 1208.63 0.178491 0.807509 0
M  V30 12905 H 1211.17 1.05586 1.32852 0
M  V30 12906 H 1209.94 2.16578 3.25898 0
M  V30 12907 H 1209.57 0.58843 3.93222 0
M  V30 12908 N 1210.56 -1.39601 0.731392 0
M  V30 12909 C 1211.81 -2.0019 0.277208 0
M  V30 12910 C 1212.13 -1.5832 -1.13841 0
M  V30 12911 O 1211.4 -0.829793 -1.77458 0
M  V30 12912 H 1209.98 -0.740344 0.0995006 0
M  V30 12913 H 1212.64 -1.70704 0.940547 0
M  V30 12914 H 1211.74 -3.10427 0.322749 0
M  V30 12915 N 1212.04 -0.478751 -1.50152 0
M  V30 12916 C 1213.27 0.0732929 -2.0727 0
M  V30 12917 C 1213.69 1.32066 -1.33941 0
M  V30 12918 O 1213.05 1.7707 -0.389367 0
M  V30 12919 C 1213.1 0.332528 -3.59064 0
M  V30 12920 O 1212.2 1.41158 -3.8749 0
M  V30 12921 H 1211.54 -0.0163684 -0.663798 0
M  V30 12922 H 1214.07 -0.671993 -1.9325 0
M  V30 12923 H 1214.08 0.570735 -4.03988 0
M  V30 12924 H 1212.76 -0.578934 -4.11851 0
M  V30 12925 H 1211.34 1.16008 -3.54396 0
M  V30 12926 N 1213.52 1.56172 -0.211661 0
M  V30 12927 C 1214.45 2.17107 0.734657 0
M  V30 12928 C 1215.47 1.1374 1.16478 0
M  V30 12929 O 1216.65 1.40763 1.09764 0
M  V30 12930 C 1213.75 2.73182 2.00561 0
M  V30 12931 C 1212.93 4.0162 1.73264 0
M  V30 12932 C 1211.99 4.42357 2.84968 0
M  V30 12933 O 1211.01 5.09453 2.53863 0
M  V30 12934 N 1212.21 4.07223 4.13702 0
M  V30 12935 H 1214.98 2.98939 0.213475 0
M  V30 12936 H 1212.54 1.61872 -0.0302898 0
M  V30 12937 H 1214.53 2.97411 2.74461 0
M  V30 12938 H 1213.1 1.9571 2.43754 0
M  V30 12939 H 1212.32 3.85351 0.830575 0
M  V30 12940 H 1213.61 4.85426 1.52445 0
M  V30 12941 H 1213.01 3.53286 4.4182 0
M  V30 12942 H 1211.57 4.36366 4.84178 0
M  V30 12943 N 1215 -0.0618163 1.57479 0
M  V30 12944 C 1215.93 -1.07252 2.07411 0
M  V30 12945 C 1216.91 -1.39756 0.969649 0
M  V30 12946 O 1218.09 -1.4921 1.24298 0
M  V30 12947 C 1215.22 -2.38313 2.52635 0
M  V30 12948 C 1214.18 -2.20136 3.67048 0
M  V30 12949 C 1213.5 -3.56668 3.98361 0
M  V30 12950 C 1214.8 -1.61437 4.96725 0
M  V30 12951 H 1216.5 -0.656983 2.92103 0
M  V30 12952 H 1214.04 -0.314579 1.40522 0
M  V30 12953 H 1216 -3.09319 2.86181 0
M  V30 12954 H 1214.72 -2.81865 1.64984 0
M  V30 12955 H 1213.38 -1.51569 3.338 0
M  V30 12956 H 1213.03 -3.97809 3.07826 0
M  V30 12957 H 1212.73 -3.45342 4.75408 0
M  V30 12958 H 1214.25 -4.2909 4.34413 0
M  V30 12959 H 1215.67 -2.2232 5.28438 0
M  V30 12960 H 1214.06 -1.60779 5.78161 0
M  V30 12961 H 1215.13 -0.576795 4.81457 0
M  V30 12962 N 1216.48 -1.54033 -0.333429 0
M  V30 12963 C 1217.75 -1.62404 -1.09015 0
M  V30 12964 C 1218.13 -0.451653 -2.06212 0
M  V30 12965 O 1217.48 0.555086 -2.21655 0
M  V30 12966 C 1217.69 -2.98949 -1.80085 0
M  V30 12967 C 1219.04 -3.54655 -2.33464 0
M  V30 12968 O 1220.06 -3.0119 -1.90166 0
M  V30 12969 O 1218.92 -4.48195 -3.12703 0
M  V30 12970 H 1216.02 -0.65727 -0.501921 0
M  V30 12971 H 1218.56 -1.66378 -0.33411 0
M  V30 12972 H 1217.33 -3.75716 -1.09332 0
M  V30 12973 H 1216.96 -2.98609 -2.62523 0
M  V30 12974 N 1217.95 0.594978 -1.45938 0
M  V30 12975 C 1219.18 1.38482 -1.54394 0
M  V30 12976 C 1219.6 1.87222 -0.181563 0
M  V30 12977 O 1218.96 1.60869 0.836119 0
M  V30 12978 C 1219.01 2.55676 -2.54287 0
M  V30 12979 O 1218.11 3.5672 -2.06941 0
M  V30 12980 H 1217.46 0.412918 -0.519995 0
M  V30 12981 H 1219.99 0.722899 -1.91404 0
M  V30 12982 H 1220 3.02756 -2.73501 0
M  V30 12983 H 1218.67 2.19552 -3.53228 0
M  V30 12984 H 1217.25 3.16204 -1.97661 0
M  V30 12985 N 1219.43 1.33438 0.838571 0
M  V30 12986 C 1220.84 1.22366 1.41009 0
M  V30 12987 C 1221.19 -0.157317 1.95568 0
M  V30 12988 O 1220.32 -1.05692 1.88834 0
M  V30 12989 C 1220.91 2.21542 2.56329 0
M  V30 12990 C 1219.47 2.14309 3.09433 0
M  V30 12991 C 1218.62 2.09012 1.82235 0
M  V30 12992 H 1221.57 1.45032 0.64431 0
M  V30 12993 H 1221.59 1.82332 3.33969 0
M  V30 12994 H 1221.1 3.22042 2.16589 0
M  V30 12995 H 1219.21 1.17113 3.53717 0
M  V30 12996 H 1219.32 3.04866 3.69586 0
M  V30 12997 H 1217.68 1.54492 2.02495 0
M  V30 12998 H 1218.47 3.11319 1.4469 0
M  V30 12999 N 1220.91 -1.05686 1.16912 0
M  V30 13000 C 1221.84 -2.12775 0.824755 0
M  V30 13001 C 1222.82 -1.61286 -0.206289 0
M  V30 13002 O 1224.01 -1.8829 -0.0889616 0
M  V30 13003 C 1221.13 -3.37922 0.229422 0
M  V30 13004 C 1220.18 -4.08226 1.23506 0
M  V30 13005 S 1221.01 -4.57424 2.78431 0
M  V30 13006 C 1222.17 -5.85825 2.20364 0
M  V30 13007 H 1222.4 -2.41657 1.73174 0
M  V30 13008 H 1219.93 -1.18212 0.99324 0
M  V30 13009 H 1221.89 -4.10359 -0.107588 0
M  V30 13010 H 1220.55 -3.07186 -0.655424 0
M  V30 13011 H 1219.75 -4.98129 0.767059 0
M  V30 13012 H 1219.35 -3.41832 1.51747 0
M  V30 13013 H 1221.64 -6.58912 1.57611 0
M  V30 13014 H 1222.58 -6.37364 3.08501 0
M  V30 13015 H 1222.99 -5.4015 1.64008 0
M  V30 13016 N 1222.39 -0.968567 -1.24324 0
M  V30 13017 C 1223.3 -0.50703 -2.29055 0
M  V30 13018 C 1224.31 0.432431 -1.68541 0
M  V30 13019 O 1225.49 0.30526 -1.99073 0
M  V30 13020 C 1222.56 0.194589 -3.46153 0
M  V30 13021 C 1221.62 -0.784805 -4.22066 0
M  V30 13022 C 1220.85 -0.116574 -5.33573 0
M  V30 13023 O 1221.07 1.09492 -5.59792 0
M  V30 13024 O 1220.01 -0.809171 -5.96436 0
M  V30 13025 H 1223.83 -1.3777 -2.70653 0
M  V30 13026 H 1221.42 -0.735645 -1.30033 0
M  V30 13027 H 1223.3 0.588684 -4.17268 0
M  V30 13028 H 1221.97 1.04021 -3.06531 0
M  V30 13029 H 1220.88 -1.22938 -3.53323 0
M  V30 13030 H 1222.21 -1.59887 -4.65507 0
M  V30 13031 N 1223.87 1.39211 -0.738786 0
M  V30 13032 C 1225.12 1.99673 -0.285254 0
M  V30 13033 C 1225.43 1.59297 1.13507 0
M  V30 13034 O 1226.63 2.12622 1.68832 0
M  V30 13035 C 1225.09 3.5696 -0.45906 0
M  V30 13036 C 1224.7 4.06297 -1.88751 0
M  V30 13037 C 1226.44 4.24446 -0.0674954 0
M  V30 13038 C 1224.35 5.56171 -2.01067 0
M  V30 13039 H 1223.28 0.746945 -0.102901 0
M  V30 13040 H 1225.93 1.59163 -0.913209 0
M  V30 13041 H 1224.31 3.95285 0.23785 0
M  V30 13042 H 1225.49 3.79297 -2.61669 0
M  V30 13043 H 1223.8 3.51486 -2.23264 0
M  V30 13044 H 1226.4 5.34521 -0.138475 0
M  V30 13045 H 1226.74 4.04653 0.977823 0
M  V30 13046 H 1227.27 3.91309 -0.715704 0
M  V30 13047 H 1224.01 5.80849 -3.03801 0
M  V30 13048 H 1223.53 5.84961 -1.32591 0
M  V30 13049 H 1225.21 6.21642 -1.79362 0
M  V30 13050 N 1225.34 0.486708 1.49896 0
M  V30 13051 C 1226.76 0.0353906 1.86666 0
M  V30 13052 C 1227.11 -1.3743 1.40026 0
M  V30 13053 O 1226.23 -2.02163 0.77194 0
M  V30 13054 C 1226.83 0.0574475 3.38751 0
M  V30 13055 C 1225.39 -0.338464 3.74875 0
M  V30 13056 C 1224.53 0.436196 2.73848 0
M  V30 13057 H 1227.48 0.700215 1.42417 0
M  V30 13058 H 1227.5 -0.741175 3.73212 0
M  V30 13059 H 1227.02 1.08356 3.72667 0
M  V30 13060 H 1225.12 -1.36835 3.46565 0
M  V30 13061 H 1225.23 -0.0289519 4.79091 0
M  V30 13062 H 1223.59 -0.112141 2.54453 0
M  V30 13063 H 1224.38 1.46212 3.10608 0
M  V30 13064 N 1226.82 -1.56058 0.219941 0
M  V30 13065 C 1227.77 -2.20218 -0.690846 0
M  V30 13066 C 1228.74 -1.15725 -1.19151 0
M  V30 13067 O 1229.93 -1.44073 -1.2509 0
M  V30 13068 C 1227.07 -2.88477 -1.89408 0
M  V30 13069 C 1226.18 -4.07559 -1.43246 0
M  V30 13070 C 1225.31 -4.63605 -2.59314 0
M  V30 13071 C 1224.35 -5.74993 -2.0988 0
M  V30 13072 N 1223.49 -6.25337 -3.19214 0
M  V30 13073 H 1228.33 -2.97685 -0.136992 0
M  V30 13074 H 1225.87 -1.46994 -0.055865 0
M  V30 13075 H 1227.82 -3.26235 -2.60051 0
M  V30 13076 H 1226.45 -2.1353 -2.42084 0
M  V30 13077 H 1225.51 -3.75297 -0.621013 0
M  V30 13078 H 1226.82 -4.8805 -1.02997 0
M  V30 13079 H 1225.97 -5.03798 -3.38041 0
M  V30 13080 H 1224.71 -3.82274 -3.0285 0
M  V30 13081 H 1223.72 -5.34304 -1.29613 0
M  V30 13082 H 1224.94 -6.58158 -1.67345 0
M  V30 13083 H 1222.89 -5.4692 -3.62236 0
M  V30 13084 H 1222.8 -7.00947 -2.83213 0
M  V30 13085 H 1224.07 -6.70187 -3.98083 0
M  V30 13086 N 1228.3 0.053464 -1.57509 0
M  V30 13087 C 1229.21 1.07902 -2.08313 0
M  V30 13088 C 1230.23 1.41223 -1.01647 0
M  V30 13089 O 1231.4 1.51032 -1.33233 0
M  V30 13090 C 1228.47 2.36813 -2.5322 0
M  V30 13091 C 1227.53 2.10297 -3.74264 0
M  V30 13092 C 1226.76 3.33062 -4.1702 0
M  V30 13093 O 1226.99 4.42857 -3.59491 0
M  V30 13094 O 1225.92 3.20195 -5.09665 0
M  V30 13095 H 1229.75 0.677368 -2.9605 0
M  V30 13096 H 1227.33 0.268838 -1.46961 0
M  V30 13097 H 1229.21 3.12645 -2.82544 0
M  V30 13098 H 1227.89 2.76323 -1.68605 0
M  V30 13099 H 1226.79 1.32111 -3.49996 0
M  V30 13100 H 1228.13 1.75658 -4.59788 0
M  V30 13101 N 1229.78 1.54207 0.325255 0
M  V30 13102 C 1230.71 1.86467 1.40543 0
M  V30 13103 C 1231.69 0.721324 1.54048 0
M  V30 13104 O 1232.88 0.974905 1.67956 0
M  V30 13105 C 1230.01 2.09052 2.77335 0
M  V30 13106 C 1228.96 3.24893 2.78619 0
M  V30 13107 C 1228.29 3.32846 4.1847 0
M  V30 13108 C 1229.59 4.62582 2.42518 0
M  V30 13109 H 1231.28 2.76932 1.13794 0
M  V30 13110 H 1228.83 1.33248 0.545971 0
M  V30 13111 H 1230.78 2.30204 3.52964 0
M  V30 13112 H 1229.5 1.15335 3.05558 0
M  V30 13113 H 1228.16 3.03625 2.05444 0
M  V30 13114 H 1227.81 2.3669 4.43832 0
M  V30 13115 H 1227.51 4.10701 4.20237 0
M  V30 13116 H 1229.03 3.56231 4.95915 0
M  V30 13117 H 1230.45 4.83627 3.07861 0
M  V30 13118 H 1228.84 5.42974 2.55538 0
M  V30 13119 H 1229.91 4.64946 1.3767 0
M  V30 13120 N 1231.26 -0.58723 1.46251 0
M  V30 13121 C 1232.5 -1.34549 1.52539 0
M  V30 13122 C 1232.86 -1.91622 0.172885 0
M  V30 13123 O 1232.15 -1.73267 -0.81787 0
M  V30 13124 C 1232.35 -2.49776 2.5563 0
M  V30 13125 C 1232.17 -2.03991 4.00772 0
M  V30 13126 C 1230.94 -1.89216 4.68535 0
M  V30 13127 C 1233.14 -1.60227 4.88704 0
M  V30 13128 N 1231.12 -1.37454 5.98314 0
M  V30 13129 C 1232.5 -1.20024 6.08271 0
M  V30 13130 C 1234.55 -1.48004 4.75394 0
M  V30 13131 C 1233.25 -0.688163 7.16001 0
M  V30 13132 C 1235.28 -0.981991 5.8319 0
M  V30 13133 C 1234.64 -0.589721 7.01927 0
M  V30 13134 H 1230.74 -0.485499 0.613037 0
M  V30 13135 H 1233.32 -0.669117 1.82841 0
M  V30 13136 H 1231.5 -3.14983 2.27245 0
M  V30 13137 H 1233.23 -3.16715 2.5194 0
M  V30 13138 H 1229.98 -2.11025 4.23988 0
M  V30 13139 H 1230.41 -1.13748 6.67376 0
M  V30 13140 H 1235.05 -1.76951 3.8399 0
M  V30 13141 H 1232.77 -0.386268 8.07176 0
M  V30 13142 H 1236.35 -0.891387 5.74931 0
M  V30 13143 H 1235.23 -0.210279 7.83918 0
M  V30 13144 N 1232.74 -1.33881 -0.831482 0
M  V30 13145 C 1233.67 -1.19089 -1.94661 0
M  V30 13146 C 1234.65 -0.0845706 -1.6238 0
M  V30 13147 O 1235.83 -0.248163 -1.86859 0
M  V30 13148 C 1232.96 -0.828223 -3.28418 0
M  V30 13149 C 1232 -1.94309 -3.79666 0
M  V30 13150 S 1232.84 -3.55524 -4.00454 0
M  V30 13151 C 1233.99 -3.21279 -5.3715 0
M  V30 13152 H 1234.23 -2.13484 -2.0691 0
M  V30 13153 H 1231.76 -1.18809 -0.986098 0
M  V30 13154 H 1233.72 -0.625759 -4.05702 0
M  V30 13155 H 1232.38 0.0972457 -3.13949 0
M  V30 13156 H 1231.57 -1.64288 -4.76472 0
M  V30 13157 H 1231.17 -2.1026 -3.093 0
M  V30 13158 H 1233.46 -2.72563 -6.20255 0
M  V30 13159 H 1234.41 -4.17193 -5.7215 0
M  V30 13160 H 1234.82 -2.57683 -5.02255 0
M  V30 13161 N 1234.21 1.05064 -1.1747 0
M  V30 13162 C 1235.15 2.12334 -0.836028 0
M  V30 13163 C 1236.12 1.61393 0.197733 0
M  V30 13164 O 1237.31 1.88334 0.0789748 0
M  V30 13165 C 1234.44 3.37796 -0.24734 0
M  V30 13166 C 1233.48 4.07565 -1.25669 0
M  V30 13167 S 1234.31 4.55941 -2.80853 0
M  V30 13168 C 1235.47 5.84648 -2.23468 0
M  V30 13169 H 1235.7 2.40735 -1.74453 0
M  V30 13170 H 1233.24 1.17684 -0.999495 0
M  V30 13171 H 1235.19 4.1041 0.0858241 0
M  V30 13172 H 1233.86 3.07529 0.639124 0
M  V30 13173 H 1233.05 4.97715 -0.793465 0
M  V30 13174 H 1232.65 3.41022 -1.53557 0
M  V30 13175 H 1234.94 6.58067 -1.61104 0
M  V30 13176 H 1235.89 6.35719 -3.11877 0
M  V30 13177 H 1236.29 5.39272 -1.6687 0
M  V30 13178 N 1235.69 0.975146 1.23809 0
M  V30 13179 C 1236.94 0.642074 1.92367 0
M  V30 13180 C 1237.27 -0.82164 1.75962 0
M  V30 13181 O 1236.55 -1.59205 1.11732 0
M  V30 13182 C 1236.83 1.02677 3.45151 0
M  V30 13183 C 1236.68 2.54773 3.7069 0
M  V30 13184 C 1238 0.5668 4.36435 0
M  V30 13185 H 1235.12 0.234735 0.698619 0
M  V30 13186 H 1237.76 1.21549 1.46034 0
M  V30 13187 H 1235.91 0.538846 3.84745 0
M  V30 13188 H 1237.58 3.11099 3.4061 0
M  V30 13189 H 1235.83 2.97641 3.15583 0
M  V30 13190 H 1236.5 2.7674 4.77618 0
M  V30 13191 H 1238.97 0.985635 4.04258 0
M  V30 13192 H 1237.85 0.864458 5.4205 0
M  V30 13193 H 1238.11 -0.532989 4.38875 0
M  V30 13194 N 1237.17 -1.38817 0.746158 0
M  V30 13195 C 1238.45 -1.94303 0.224841 0
M  V30 13196 C 1238.83 -1.68207 -1.27552 0
M  V30 13197 O 1238.17 -1.01647 -2.04646 0
M  V30 13198 C 1238.38 -3.44306 0.5705 0
M  V30 13199 C 1239.73 -4.21329 0.526015 0
M  V30 13200 O 1240.76 -3.52554 0.508351 0
M  V30 13201 O 1239.62 -5.4392 0.530383 0
M  V30 13202 H 1236.71 -0.825785 0.0448047 0
M  V30 13203 H 1239.26 -1.48253 0.825775 0
M  V30 13204 H 1238.03 -3.56779 1.60701 0
M  V30 13205 H 1237.65 -3.97556 -0.0588271 0
M  V30 13206 N 1238.65 -0.49465 -1.49636 0
M  V30 13207 C 1239.88 0.0490417 -2.06542 0
M  V30 13208 C 1240.29 1.31945 -1.35599 0
M  V30 13209 O 1239.63 1.78691 -0.426047 0
M  V30 13210 C 1239.69 0.379426 -3.57492 0
M  V30 13211 C 1239.35 -0.792345 -4.50079 0
M  V30 13212 C 1240.35 -1.68106 -4.91972 0
M  V30 13213 C 1238.04 -0.98935 -4.9246 0
M  V30 13214 C 1240.03 -2.75099 -5.74978 0
M  V30 13215 C 1237.72 -2.06247 -5.75244 0
M  V30 13216 C 1238.72 -2.94163 -6.16407 0
M  V30 13217 O 1238.4 -3.99623 -6.97536 0
M  V30 13218 H 1238.14 -0.0143708 -0.675847 0
M  V30 13219 H 1240.69 -0.689358 -1.93486 0
M  V30 13220 H 1238.92 1.17133 -3.68533 0
M  V30 13221 H 1240.61 0.860979 -3.96664 0
M  V30 13222 H 1241.37 -1.54065 -4.59879 0
M  V30 13223 H 1237.25 -0.314435 -4.59926 0
M  V30 13224 H 1240.8 -3.4375 -6.07027 0
M  V30 13225 H 1236.69 -2.20285 -6.06749 0
M  V30 13226 H 1237.46 -3.96899 -7.15831 0
M  V30 13227 N 1240.13 1.55939 -0.228214 0
M  V30 13228 C 1241.06 2.2357 0.6737 0
M  V30 13229 C 1242.04 1.20964 1.1959 0
M  V30 13230 O 1243.22 1.49568 1.23867 0
M  V30 13231 C 1240.35 2.92076 1.87906 0
M  V30 13232 C 1239.31 4.01211 1.49043 0
M  V30 13233 C 1238.63 4.57047 2.77511 0
M  V30 13234 C 1239.93 5.17914 0.67544 0
M  V30 13235 H 1241.63 2.99199 0.109806 0
M  V30 13236 H 1239.17 1.43908 0.0513732 0
M  V30 13237 H 1241.12 3.38083 2.51551 0
M  V30 13238 H 1239.85 2.13906 2.46803 0
M  V30 13239 H 1238.51 3.55945 0.877411 0
M  V30 13240 H 1238.16 3.75599 3.34566 0
M  V30 13241 H 1237.86 5.30707 2.52239 0
M  V30 13242 H 1239.38 5.05776 3.42087 0
M  V30 13243 H 1240.79 5.60261 1.21575 0
M  V30 13244 H 1239.19 5.97847 0.519536 0
M  V30 13245 H 1240.26 4.83866 -0.316495 0
M  V30 13246 N 1241.6 -0.0451101 1.57535 0
M  V30 13247 C 1242.83 -0.750231 1.92497 0
M  V30 13248 C 1243.24 -1.70268 0.824946 0
M  V30 13249 O 1242.59 -1.82511 -0.208656 0
M  V30 13250 C 1242.65 -1.57543 3.23141 0
M  V30 13251 C 1242.31 -0.789495 4.50129 0
M  V30 13252 C 1243.31 -0.0968367 5.1981 0
M  V30 13253 C 1240.99 -0.748776 4.96688 0
M  V30 13254 C 1242.99 0.626018 6.34318 0
M  V30 13255 C 1240.67 -0.0221652 6.11096 0
M  V30 13256 C 1241.67 0.664006 6.79765 0
M  V30 13257 O 1241.36 1.37885 7.91987 0
M  V30 13258 H 1241.09 -0.216895 0.64026 0
M  V30 13259 H 1243.65 -0.011558 2.05397 0
M  V30 13260 H 1241.88 -2.35754 3.06524 0
M  V30 13261 H 1243.57 -2.16168 3.4355 0
M  V30 13262 H 1244.33 -0.119429 4.84853 0
M  V30 13263 H 1240.21 -1.27235 4.43094 0
M  V30 13264 H 1243.75 1.16215 6.87852 0
M  V30 13265 H 1239.65 0.00240707 6.455 0
M  V30 13266 H 1240.42 1.29087 8.08257 0
M  V30 13267 N 1243.08 -1.54377 -0.317073 0
M  V30 13268 C 1244.5 -1.45232 -0.6618 0
M  V30 13269 C 1244.7 -0.630457 -1.91383 0
M  V30 13270 O 1243.75 -0.13181 -2.52156 0
M  V30 13271 C 1245.07 -2.89025 -0.829761 0
M  V30 13272 C 1246.62 -2.98967 -0.926685 0
M  V30 13273 C 1247.09 -4.43923 -1.12677 0
M  V30 13274 N 1248.58 -4.47564 -1.19335 0
M  V30 13275 C 1249.32 -5.56887 -1.36617 0
M  V30 13276 N 1248.81 -6.76167 -1.50899 0
M  V30 13277 N 1250.61 -5.44546 -1.39377 0
M  V30 13278 H 1242.76 -2.0629 0.505766 0
M  V30 13279 H 1245.02 -0.933615 0.164522 0
M  V30 13280 H 1244.73 -3.51695 0.0190945 0
M  V30 13281 H 1244.6 -3.35515 -1.72364 0
M  V30 13282 H 1246.99 -2.36421 -1.76604 0
M  V30 13283 H 1247.07 -2.55798 -0.00913402 0
M  V30 13284 H 1246.71 -5.07059 -0.29224 0
M  V30 13285 H 1246.64 -4.84708 -2.05829 0
M  V30 13286 H 1249.13 -3.61623 -1.09715 0
M  V30 13287 H 1249.45 -7.55242 -1.63796 0
M  V30 13288 H 1247.79 -6.79062 -1.47985 0
M  V30 13289 H 1250.98 -4.50311 -1.27819 0
M  V30 13290 H 1251.15 -6.29799 -1.52502 0
M  V30 13291 N 1244.56 0.579466 -1.4656 0
M  V30 13292 C 1245.51 1.70937 -1.57744 0
M  V30 13293 C 1246.5 1.6343 -0.44577 0
M  V30 13294 O 1247.71 1.68884 -0.622762 0
M  V30 13295 H 1244.08 0.565218 -0.496017 0
M  V30 13296 H 1246.05 1.58636 -2.52739 0
M  V30 13297 C 1244.8 3.09321 -1.58794 0
M  V30 13298 H 1244.13 3.1577 -2.45213 0
M  V30 13299 H 1245.57 3.88132 -1.70674 0
M  V30 13300 C 1244.03 3.35404 -0.317165 0
M  V30 13301 O 1244.56 3.97325 0.591228 0
M  V30 13302 N 1242.76 2.89883 -0.204071 0
M  V30 13303 H 1242.31 2.39672 -0.944194 0
M  V30 13304 H 1242.27 3.07706 0.645303 0
M  V30 13305 N 1246.04 1.3432 0.824371 0
M  V30 13306 C 1247 1.25672 1.91675 0
M  V30 13307 C 1248 0.172269 1.59875 0
M  V30 13308 O 1249.19 0.424794 1.68941 0
M  V30 13309 C 1246.32 0.939928 3.27686 0
M  V30 13310 H 1247.52 2.22785 2.00766 0
M  V30 13311 H 1245.07 1.18587 1.01817 0
M  V30 13312 H 1245.8 -0.0280898 3.24288 0
M  V30 13313 H 1245.59 1.72432 3.5215 0
M  V30 13314 H 1247.08 0.904553 4.07686 0
M  V30 13315 N 1247.52 -1.0444 1.18026 0
M  V30 13316 C 1248.76 -1.77838 0.974756 0
M  V30 13317 C 1249.1 -1.87792 -0.494755 0
M  V30 13318 O 1248.37 -1.38327 -1.36733 0
M  V30 13319 C 1248.65 -3.21315 1.62569 0
M  V30 13320 C 1248.51 -3.19327 3.16781 0
M  V30 13321 C 1249.83 -4.19337 1.33583 0
M  V30 13322 H 1246.94 -0.645575 0.35553 0
M  V30 13323 H 1249.59 -1.22023 1.45638 0
M  V30 13324 H 1247.74 -3.68974 1.21617 0
M  V30 13325 H 1249.41 -2.79687 3.66842 0
M  V30 13326 H 1247.65 -2.57461 3.49137 0
M  V30 13327 H 1248.32 -4.20626 3.5746 0
M  V30 13328 H 1250.8 -3.80208 1.69059 0
M  V30 13329 H 1249.67 -5.17953 1.81702 0
M  V30 13330 H 1249.94 -4.41346 0.258016 0
M  V30 13331 N 1248.99 -0.981699 -1.2329 0
M  V30 13332 C 1249.93 -0.481042 -2.24095 0
M  V30 13333 C 1250.94 0.417818 -1.57347 0
M  V30 13334 O 1252.13 0.221746 -1.77117 0
M  V30 13335 C 1249.23 0.323324 -3.37354 0
M  V30 13336 C 1248.4 -0.568975 -4.33684 0
M  V30 13337 C 1247.46 0.181761 -5.25886 0
M  V30 13338 O 1246.49 -0.429059 -5.67581 0
M  V30 13339 N 1247.69 1.46737 -5.61648 0
M  V30 13340 H 1250.45 -1.34781 -2.67683 0
M  V30 13341 H 1248.01 -0.855117 -1.37475 0
M  V30 13342 H 1250.01 0.833934 -3.96015 0
M  V30 13343 H 1248.58 1.09111 -2.9294 0
M  V30 13344 H 1247.8 -1.2604 -3.73507 0
M  V30 13345 H 1249.08 -1.17704 -4.94998 0
M  V30 13346 H 1248.48 1.98513 -5.29725 0
M  V30 13347 H 1247.04 1.92339 -6.22775 0
M  V30 13348 N 1250.47 1.3842 -0.753509 0
M  V30 13349 C 1251.4 2.29039 -0.0859463 0
M  V30 13350 C 1252.42 1.47742 0.68383 0
M  V30 13351 O 1253.61 1.70607 0.524933 0
M  V30 13352 C 1250.71 3.26668 0.902296 0
M  V30 13353 C 1249.88 4.36986 0.190178 0
M  V30 13354 C 1248.94 5.14805 1.08916 0
M  V30 13355 O 1247.96 5.66441 0.559715 0
M  V30 13356 N 1249.17 5.27777 2.41726 0
M  V30 13357 H 1251.93 2.8697 -0.864196 0
M  V30 13358 H 1249.49 1.502 -0.604288 0
M  V30 13359 H 1251.48 3.75606 1.50672 0
M  V30 13360 H 1250.05 2.69636 1.58163 0
M  V30 13361 H 1249.27 3.89684 -0.594959 0
M  V30 13362 H 1250.56 5.07899 -0.302594 0
M  V30 13363 H 1249.96 4.87376 2.87196 0
M  V30 13364 H 1248.52 5.8009 2.97219 0
M  V30 13365 N 1251.95 0.502579 1.49372 0
M  V30 13366 C 1252.86 -0.279532 2.32929 0
M  V30 13367 C 1253.88 -0.965806 1.44735 0
M  V30 13368 O 1255.05 -0.946839 1.77755 0
M  V30 13369 C 1252.12 -1.32913 3.20211 0
M  V30 13370 C 1251.18 -0.656121 4.24256 0
M  V30 13371 C 1250.41 -1.65571 5.07368 0
M  V30 13372 O 1250.63 -2.88571 4.92019 0
M  V30 13373 O 1249.57 -1.21016 5.89609 0
M  V30 13374 H 1253.39 0.404427 3.00995 0
M  V30 13375 H 1250.98 0.263888 1.47051 0
M  V30 13376 H 1252.86 -1.93635 3.74277 0
M  V30 13377 H 1251.54 -1.99598 2.54837 0
M  V30 13378 H 1250.44 -0.00911489 3.74099 0
M  V30 13379 H 1251.78 -0.0316802 4.9219 0
M  V30 13380 N 1253.43 -1.55816 0.23648 0
M  V30 13381 C 1254.71 -1.90565 -0.440933 0
M  V30 13382 C 1255.09 -1.15585 -1.76645 0
M  V30 13383 O 1254.43 -0.269949 -2.269 0
M  V30 13384 C 1254.64 -3.43462 -0.61925 0
M  V30 13385 C 1255.99 -4.14516 -0.91989 0
M  V30 13386 O 1257.02 -3.49144 -0.705496 0
M  V30 13387 O 1255.87 -5.3013 -1.32759 0
M  V30 13388 H 1252.97 -0.79285 -0.235199 0
M  V30 13389 H 1255.51 -1.67378 0.279774 0
M  V30 13390 H 1254.29 -3.90029 0.315124 0
M  V30 13391 H 1253.91 -3.72478 -1.39089 0
M  V30 13392 N 1254.91 0.036755 -1.57557 0
M  V30 13393 C 1255.84 1.03939 -2.09091 0
M  V30 13394 C 1256.82 1.38196 -0.991761 0
M  V30 13395 O 1258 1.47214 -1.26656 0
M  V30 13396 C 1255.13 2.34263 -2.56394 0
M  V30 13397 C 1254.09 2.14269 -3.70504 0
M  V30 13398 C 1253.41 3.50286 -4.03985 0
M  V30 13399 C 1254.71 1.53514 -4.9923 0
M  V30 13400 H 1256.41 0.610429 -2.93111 0
M  V30 13401 H 1253.95 0.292183 -1.41005 0
M  V30 13402 H 1255.91 3.04727 -2.91066 0
M  V30 13403 H 1254.63 2.79205 -1.69447 0
M  V30 13404 H 1253.29 1.46239 -3.36169 0
M  V30 13405 H 1252.94 3.92861 -3.14116 0
M  V30 13406 H 1252.64 3.37735 -4.80842 0
M  V30 13407 H 1254.16 4.22124 -4.41184 0
M  V30 13408 H 1255.57 2.13885 -5.31908 0
M  V30 13409 H 1253.97 1.51561 -5.80646 0
M  V30 13410 H 1255.04 0.500126 -4.82314 0
M  V30 13411 N 1256.39 1.54543 0.308881 0
M  V30 13412 C 1257.63 1.73449 1.04506 0
M  V30 13413 C 1257.96 0.516034 1.8753 0
M  V30 13414 O 1257.22 -0.502106 1.89149 0
M  V30 13415 C 1257.51 2.97124 1.98626 0
M  V30 13416 C 1257.18 4.31256 1.31641 0
M  V30 13417 C 1255.84 4.67719 1.13105 0
M  V30 13418 C 1258.19 5.14437 0.836888 0
M  V30 13419 C 1255.52 5.84949 0.452878 0
M  V30 13420 C 1257.87 6.32365 0.172473 0
M  V30 13421 C 1256.54 6.67495 -0.0249143 0
M  V30 13422 H 1255.81 0.634697 0.382415 0
M  V30 13423 H 1258.46 1.88795 0.320714 0
M  V30 13424 H 1256.76 2.76526 2.77562 0
M  V30 13425 H 1258.46 3.08946 2.55643 0
M  V30 13426 H 1255.05 4.02576 1.47074 0
M  V30 13427 H 1259.23 4.86772 0.967834 0
M  V30 13428 H 1254.49 6.10717 0.288886 0
M  V30 13429 H 1258.66 6.96092 -0.207027 0
M  V30 13430 H 1256.29 7.5819 -0.552425 0
M  V30 13431 N 1257.86 -0.571685 1.46866 0
M  V30 13432 C 1258.8 -1.69475 1.54307 0
M  V30 13433 C 1259.81 -1.57006 0.430449 0
M  V30 13434 O 1261 -1.64229 0.69936 0
M  V30 13435 C 1258.1 -3.07824 1.41766 0
M  V30 13436 C 1257.27 -3.46189 2.67342 0
M  V30 13437 C 1256.33 -4.63642 2.48843 0
M  V30 13438 O 1255.36 -4.68949 3.22608 0
M  V30 13439 N 1256.56 -5.59223 1.55724 0
M  V30 13440 H 1259.32 -1.63543 2.51145 0
M  V30 13441 H 1256.88 -0.757957 1.43062 0
M  V30 13442 H 1258.88 -3.84208 1.27146 0
M  V30 13443 H 1257.45 -3.08063 0.530667 0
M  V30 13444 H 1256.67 -2.59399 2.96826 0
M  V30 13445 H 1257.95 -3.68591 3.50739 0
M  V30 13446 H 1257.35 -5.5768 0.949175 0
M  V30 13447 H 1255.91 -6.34993 1.47063 0
M  V30 13448 N 1259.34 -1.34755 -0.817236 0
M  V30 13449 C 1260.27 -1.22648 -1.93624 0
M  V30 13450 C 1261.29 -0.152226 -1.62087 0
M  V30 13451 O 1262.48 -0.404578 -1.73855 0
M  V30 13452 C 1259.58 -0.863519 -3.27714 0
M  V30 13453 C 1258.75 -2.03394 -3.87233 0
M  V30 13454 C 1257.81 -1.64846 -4.99712 0
M  V30 13455 O 1256.83 -2.3658 -5.17705 0
M  V30 13456 N 1258.04 -0.565909 -5.77735 0
M  V30 13457 H 1260.8 -2.19051 -2.0454 0
M  V30 13458 H 1258.36 -1.27785 -0.994113 0
M  V30 13459 H 1260.35 -0.58733 -4.00415 0
M  V30 13460 H 1258.92 0.0104987 -3.12598 0
M  V30 13461 H 1258.14 -2.47454 -3.06856 0
M  V30 13462 H 1259.43 -2.81655 -4.23731 0
M  V30 13463 H 1258.83 0.030313 -5.65692 0
M  V30 13464 H 1257.39 -0.349467 -6.50862 0
M  V30 13465 N 1260.82 1.03812 -1.18578 0
M  V30 13466 C 1262.23 1.58509 -0.986496 0
M  V30 13467 C 1262.58 1.90655 0.463136 0
M  V30 13468 O 1261.71 1.69847 1.34093 0
M  V30 13469 C 1262.3 2.88 -1.78441 0
M  V30 13470 C 1260.86 3.39304 -1.6294 0
M  V30 13471 C 1260.01 2.12857 -1.77727 0
M  V30 13472 H 1262.96 0.864528 -1.33085 0
M  V30 13473 H 1262.98 3.58502 -1.27501 0
M  V30 13474 H 1262.49 2.64572 -2.83942 0
M  V30 13475 H 1260.59 3.6774 -0.599864 0
M  V30 13476 H 1260.71 4.12959 -2.42902 0
M  V30 13477 H 1259.07 2.24285 -1.20699 0
M  V30 13478 H 1259.85 1.91882 -2.84669 0
M  V30 13479 N 1262.3 0.988223 1.22768 0
M  V30 13480 C 1263.55 0.660154 1.91014 0
M  V30 13481 C 1263.87 -0.809788 1.77391 0
M  V30 13482 O 1263.14 -1.57998 1.15817 0
M  V30 13483 H 1261.72 0.24118 0.706995 0
M  V30 13484 H 1264.38 1.25372 1.49224 0
M  V30 13485 H 1263.47 0.918603 2.98275 0
M  V30 13486 N 1263.78 -1.38018 0.760839 0
M  V30 13487 C 1264.71 -2.32995 0.153557 0
M  V30 13488 C 1265.69 -1.55234 -0.695448 0
M  V30 13489 O 1266.87 -1.8352 -0.635148 0
M  V30 13490 C 1264 -3.39437 -0.734811 0
M  V30 13491 C 1262.96 -4.27998 0.0120287 0
M  V30 13492 C 1262.28 -5.25359 -0.995067 0
M  V30 13493 C 1263.58 -5.08687 1.18468 0
M  V30 13494 H 1265.28 -2.8403 0.946956 0
M  V30 13495 H 1262.82 -1.36562 0.456816 0
M  V30 13496 H 1264.77 -4.0485 -1.16938 0
M  V30 13497 H 1263.5 -2.86901 -1.56061 0
M  V30 13498 H 1262.16 -3.64102 0.427254 0
M  V30 13499 H 1261.81 -4.69108 -1.81512 0
M  V30 13500 H 1261.51 -5.85469 -0.499969 0
M  V30 13501 H 1263.03 -5.93648 -1.4288 0
M  V30 13502 H 1264.44 -5.67299 0.8273 0
M  V30 13503 H 1262.84 -5.78068 1.61112 0
M  V30 13504 H 1263.91 -4.42 1.99409 0
M  V30 13505 N 1265.25 -0.510493 -1.49103 0
M  V30 13506 C 1266.67 -0.167061 -1.58723 0
M  V30 13507 C 1266.87 1.32886 -1.51471 0
M  V30 13508 O 1265.93 2.10559 -1.39359 0
M  V30 13509 C 1267.24 -0.752293 -2.91137 0
M  V30 13510 C 1268.79 -0.719258 -3.04624 0
M  V30 13511 C 1269.26 -1.28272 -4.39671 0
M  V30 13512 N 1270.75 -1.24383 -4.46187 0
M  V30 13513 C 1271.49 -1.6499 -5.4915 0
M  V30 13514 N 1270.98 -2.13235 -6.59168 0
M  V30 13515 N 1272.78 -1.56348 -5.39918 0
M  V30 13516 H 1264.93 -1.48296 -1.5206 0
M  V30 13517 H 1267.19 -0.615683 -0.72086 0
M  V30 13518 H 1266.9 -1.80178 -3.02041 0
M  V30 13519 H 1266.77 -0.218152 -3.76569 0
M  V30 13520 H 1269.16 0.321413 -2.93344 0
M  V30 13521 H 1269.24 -1.29065 -2.20852 0
M  V30 13522 H 1268.88 -2.32222 -4.51703 0
M  V30 13523 H 1268.81 -0.687179 -5.22097 0
M  V30 13524 H 1271.3 -0.890446 -3.67259 0
M  V30 13525 H 1271.62 -2.42266 -7.33844 0
M  V30 13526 H 1269.96 -2.17216 -6.60183 0
M  V30 13527 H 1273.15 -1.18469 -4.52861 0
M  V30 13528 H 1273.33 -1.88317 -6.20033 0
M  V30 13529 N 1266.73 1.55688 -0.24474 0
M  V30 13530 C 1267.96 2.03743 0.387776 0
M  V30 13531 C 1268.38 1.1229 1.50906 0
M  V30 13532 O 1267.74 0.115445 1.80932 0
M  V30 13533 C 1267.79 3.49825 0.874927 0
M  V30 13534 O 1266.89 3.61504 1.98466 0
M  V30 13535 H 1266.23 0.658561 0.0848107 0
M  V30 13536 H 1268.76 2.01224 -0.370165 0
M  V30 13537 H 1268.77 3.90603 1.17871 0
M  V30 13538 H 1267.45 4.15864 0.0543852 0
M  V30 13539 H 1266.02 3.32622 1.68574 0
M  V30 13540 N 1268.21 -0.0283989 1.57574 0
M  V30 13541 C 1269.12 -1.04575 2.10003 0
M  V30 13542 C 1270.14 -1.39588 1.03881 0
M  V30 13543 O 1271.31 -1.48894 1.35619 0
M  V30 13544 C 1268.38 -2.32755 2.56955 0
M  V30 13545 C 1267.44 -2.04317 3.77562 0
M  V30 13546 C 1266.67 -3.26385 4.22266 0
M  V30 13547 O 1266.89 -4.37082 3.66491 0
M  V30 13548 O 1265.83 -3.12046 5.14695 0
M  V30 13549 H 1269.65 -0.630183 2.9709 0
M  V30 13550 H 1267.24 -0.245423 1.4737 0
M  V30 13551 H 1269.12 -3.08111 2.87482 0
M  V30 13552 H 1267.8 -2.73605 1.72979 0
M  V30 13553 H 1266.7 -1.26527 3.52054 0
M  V30 13554 H 1268.04 -1.68321 4.62524 0
M  V30 13555 N 1269.69 -1.54705 -0.300681 0
M  V30 13556 C 1270.93 -1.74001 -1.03585 0
M  V30 13557 C 1271.26 -0.525972 -1.87253 0
M  V30 13558 O 1270.52 0.492068 -1.89413 0
M  V30 13559 C 1270.82 -2.98173 -1.97047 0
M  V30 13560 C 1270.48 -4.31948 -1.29352 0
M  V30 13561 C 1269.14 -4.68312 -1.10623 0
M  V30 13562 C 1271.5 -5.14874 -0.809594 0
M  V30 13563 C 1268.82 -5.85181 -0.42185 0
M  V30 13564 C 1271.18 -6.32447 -0.138935 0
M  V30 13565 C 1269.84 -6.67473 0.0603129 0
M  V30 13566 H 1269.11 -0.636716 -0.379044 0
M  V30 13567 H 1271.76 -1.88963 -0.310697 0
M  V30 13568 H 1270.06 -2.77994 -2.76091 0
M  V30 13569 H 1271.76 -3.10297 -2.54001 0
M  V30 13570 H 1268.35 -4.0335 -1.44937 0
M  V30 13571 H 1272.53 -4.87278 -0.942006 0
M  V30 13572 H 1267.79 -6.10862 -0.256494 0
M  V30 13573 H 1271.96 -6.95973 0.243939 0
M  V30 13574 H 1269.59 -7.57887 0.592626 0
M  V30 13575 N 1271.17 0.563888 -1.47167 0
M  V30 13576 C 1272.08 1.69903 -1.61772 0
M  V30 13577 C 1273.09 1.6664 -0.500705 0
M  V30 13578 O 1274.27 1.86209 -0.767354 0
M  V30 13579 C 1271.33 3.06411 -1.62213 0
M  V30 13580 C 1270.39 3.20793 -2.8529 0
M  V30 13581 C 1269.63 4.50789 -2.85701 0
M  V30 13582 O 1269.85 5.3584 -1.95529 0
M  V30 13583 O 1268.78 4.68819 -3.77481 0
M  V30 13584 H 1272.61 1.60525 -2.57809 0
M  V30 13585 H 1270.2 0.733125 -1.30175 0
M  V30 13586 H 1272.08 3.87659 -1.65221 0
M  V30 13587 H 1270.75 3.16186 -0.693415 0
M  V30 13588 H 1269.66 2.38967 -2.87829 0
M  V30 13589 H 1270.99 3.15918 -3.77434 0
M  V30 13590 N 1272.64 1.35187 0.810078 0
M  V30 13591 C 1273.59 1.24366 1.91094 0
M  V30 13592 C 1274.58 0.139718 1.60292 0
M  V30 13593 O 1275.77 0.370609 1.73077 0
M  V30 13594 C 1272.9 1.01434 3.27973 0
M  V30 13595 C 1271.99 2.16203 3.64852 0
M  V30 13596 N 1272.38 3.41408 3.73195 0
M  V30 13597 C 1270.67 2.07512 3.94784 0
M  V30 13598 C 1271.38 4.16858 4.05714 0
M  V30 13599 N 1270.35 3.45579 4.19614 0
M  V30 13600 H 1274.15 2.19232 1.95741 0
M  V30 13601 H 1271.67 1.2761 1.00447 0
M  V30 13602 H 1273.66 0.91771 4.06674 0
M  V30 13603 H 1272.32 0.074495 3.24615 0
M  V30 13604 H 1273.34 3.75802 3.56361 0
M  V30 13605 H 1270.01 1.21362 3.99472 0
M  V30 13606 H 1271.4 5.25039 4.19266 0
M  V30 13607 N 1274.12 -1.03182 1.19127 0
M  V30 13608 C 1275.37 -1.75934 0.986415 0
M  V30 13609 C 1275.68 -1.89519 -0.48392 0
M  V30 13610 O 1276.89 -2.59213 -0.80752 0
M  V30 13611 C 1275.35 -3.16358 1.71597 0
M  V30 13612 C 1274.95 -3.10836 3.22622 0
M  V30 13613 C 1276.7 -3.93426 1.59425 0
M  V30 13614 C 1274.61 -4.46174 3.88179 0
M  V30 13615 H 1273.54 -0.659516 0.365451 0
M  V30 13616 H 1276.19 -1.15497 1.42593 0
M  V30 13617 H 1274.57 -3.77245 1.20426 0
M  V30 13618 H 1275.74 -2.59348 3.80887 0
M  V30 13619 H 1274.06 -2.47266 3.35035 0
M  V30 13620 H 1276.65 -4.93526 2.05757 0
M  V30 13621 H 1277 -4.12678 0.547926 0
M  V30 13622 H 1277.53 -3.39134 2.07925 0
M  V30 13623 H 1274.27 -4.32126 4.92897 0
M  V30 13624 H 1273.79 -4.97729 3.34702 0
M  V30 13625 H 1275.47 -5.15066 3.91556 0
M  V30 13626 N 1275.6 -0.99472 -1.22242 0
M  V30 13627 C 1277.02 -0.705762 -1.43147 0
M  V30 13628 C 1277.22 0.722908 -1.88086 0
M  V30 13629 O 1276.27 1.49359 -2.03588 0
M  V30 13630 C 1277.59 -1.71288 -2.47145 0
M  V30 13631 C 1279.13 -1.72853 -2.60942 0
M  V30 13632 C 1279.61 -2.72433 -3.68163 0
M  V30 13633 N 1281.1 -2.71039 -3.75623 0
M  V30 13634 C 1281.83 -3.44753 -4.58184 0
M  V30 13635 N 1281.33 -4.28075 -5.44724 0
M  V30 13636 N 1283.12 -3.33451 -4.52512 0
M  V30 13637 H 1275.27 -1.91738 -0.913792 0
M  V30 13638 H 1277.54 -0.82702 -0.463403 0
M  V30 13639 H 1277.24 -2.7353 -2.21075 0
M  V30 13640 H 1277.12 -1.50721 -3.45779 0
M  V30 13641 H 1279.5 -0.713085 -2.86355 0
M  V30 13642 H 1279.59 -1.9749 -1.62577 0
M  V30 13643 H 1279.23 -3.74129 -3.43497 0
M  V30 13644 H 1279.16 -2.45066 -4.66101 0
M  V30 13645 H 1281.65 -2.10581 -3.1379 0
M  V30 13646 H 1281.96 -4.81143 -6.04749 0
M  V30 13647 H 1280.31 -4.32161 -5.44299 0
M  V30 13648 H 1283.5 -2.67797 -3.8393 0
M  V30 13649 H 1283.67 -3.91158 -5.16623 0
M  V30 13650 N 1277.08 1.37613 -0.768148 0
M  V30 13651 C 1278.36 1.93921 -0.255724 0
M  V30 13652 C 1278.74 1.70215 1.2486 0
M  V30 13653 O 1278.08 1.0489 2.03003 0
M  V30 13654 C 1278.29 3.43354 -0.625204 0
M  V30 13655 C 1279.64 4.20439 -0.592978 0
M  V30 13656 O 1280.67 3.51701 -0.564375 0
M  V30 13657 O 1279.52 5.43008 -0.616849 0
M  V30 13658 H 1276.62 0.824968 -0.0579366 0
M  V30 13659 H 1279.16 1.46921 -0.849257 0
M  V30 13660 H 1277.94 3.54177 -1.66356 0
M  V30 13661 H 1277.56 3.976 -0.00442816 0
M  V30 13662 N 1278.56 0.518393 1.4883 0
M  V30 13663 C 1279.8 -0.0180482 2.04392 0
M  V30 13664 C 1280.16 -1.32666 1.38794 0
M  V30 13665 O 1281.36 -1.94842 1.85176 0
M  V30 13666 C 1279.63 -0.149457 3.57087 0
M  V30 13667 S 1281.19 -0.637636 4.34142 0
M  V30 13668 H 1278.01 0.00651981 0.71097 0
M  V30 13669 H 1280.61 0.69632 1.82679 0
M  V30 13670 H 1279.32 0.807977 4.02368 0
M  V30 13671 H 1278.85 -0.888549 3.83234 0
M  V30 13672 H 1280.86 -1.90406 4.58214 0
M  V30 13673 N 1280.03 -1.55556 0.252993 0
M  V30 13674 C 1280.96 -2.24613 -0.638047 0
M  V30 13675 C 1281.95 -1.22852 -1.1765 0
M  V30 13676 O 1283.13 -1.51519 -1.21472 0
M  V30 13677 C 1280.26 -2.95029 -1.83236 0
M  V30 13678 C 1279.21 -4.03531 -1.42641 0
M  V30 13679 C 1278.54 -4.61404 -2.70204 0
M  V30 13680 C 1279.84 -5.18923 -0.592958 0
M  V30 13681 H 1281.53 -2.99335 -0.0621918 0
M  V30 13682 H 1279.08 -1.43972 -0.0284722 0
M  V30 13683 H 1281.03 -3.42042 -2.46141 0
M  V30 13684 H 1279.76 -2.17805 -2.43369 0
M  V30 13685 H 1278.42 -3.57296 -0.820672 0
M  V30 13686 H 1278.06 -3.80874 -3.28548 0
M  V30 13687 H 1277.76 -5.34652 -2.43764 0
M  V30 13688 H 1279.29 -5.11154 -3.33997 0
M  V30 13689 H 1280.7 -5.62124 -1.12646 0
M  V30 13690 H 1279.1 -5.98598 -0.424358 0
M  V30 13691 H 1280.17 -4.83301 0.393434 0
M  V30 13692 N 1281.51 0.0200419 -1.57587 0
M  V30 13693 C 1282.79 0.744946 -1.80859 0
M  V30 13694 C 1283.17 1.93089 -0.853218 0
M  V30 13695 O 1282.52 2.28269 0.10261 0
M  V30 13696 C 1282.73 1.16952 -3.28821 0
M  V30 13697 C 1284.08 1.5817 -3.9404 0
M  V30 13698 O 1285.1 1.26385 -3.33024 0
M  V30 13699 O 1283.96 2.17197 -5.01486 0
M  V30 13700 H 1281.05 0.360995 -0.744051 0
M  V30 13701 H 1283.6 -0.00387374 -1.697 0
M  V30 13702 H 1282.37 0.323304 -3.89962 0
M  V30 13703 H 1281.99 1.97807 -3.44903 0
M  V30 13704 N 1282.99 1.54862 0.292472 0
M  V30 13705 C 1284.22 1.7855 1.04534 0
M  V30 13706 C 1284.63 0.549161 1.80637 0
M  V30 13707 O 1283.99 -0.481268 1.7604 0
M  V30 13708 C 1284.04 2.99849 2.01923 0
M  V30 13709 O 1283.76 4.18706 1.28907 0
M  V30 13710 C 1285.26 3.35991 2.8918 0
M  V30 13711 H 1282.48 0.595279 0.309652 0
M  V30 13712 H 1285.03 2.01834 0.329159 0
M  V30 13713 H 1283.18 2.78749 2.69032 0
M  V30 13714 H 1283.6 4.87151 1.94383 0
M  V30 13715 H 1285.07 4.24085 3.53349 0
M  V30 13716 H 1285.55 2.54524 3.57931 0
M  V30 13717 H 1286.15 3.59281 2.27591 0
M  V30 13718 N 1284.47 -0.556076 1.47464 0
M  V30 13719 C 1285.72 -1.31061 1.53842 0
M  V30 13720 C 1286.04 -1.93943 0.202806 0
M  V30 13721 O 1285.31 -1.7999 -0.773338 0
M  V30 13722 H 1283.89 -0.486696 0.566689 0
M  V30 13723 H 1286.55 -0.64924 1.83769 0
M  V30 13724 H 1285.65 -2.10354 2.30559 0
M  V30 13725 N 1285.95 -1.35615 -0.802897 0
M  V30 13726 C 1286.88 -1.23192 -1.92091 0
M  V30 13727 C 1287.86 -0.118995 -1.62164 0
M  V30 13728 O 1289.04 -0.287743 -1.86291 0
M  V30 13729 C 1286.17 -0.897699 -3.26587 0
M  V30 13730 C 1285.22 -2.02319 -3.75459 0
M  V30 13731 S 1286.05 -3.63938 -3.92822 0
M  V30 13732 C 1287.2 -3.32601 -5.30215 0
M  V30 13733 H 1287.44 -2.17825 -2.02335 0
M  V30 13734 H 1284.97 -1.20873 -0.960675 0
M  V30 13735 H 1286.93 -0.711674 -4.04284 0
M  V30 13736 H 1285.59 0.0306305 -3.14085 0
M  V30 13737 H 1284.78 -1.74357 -4.7288 0
M  V30 13738 H 1284.38 -2.16774 -3.04771 0
M  V30 13739 H 1286.68 -2.85658 -6.14334 0
M  V30 13740 H 1287.62 -4.29236 -5.63172 0
M  V30 13741 H 1288.03 -2.68279 -4.96676 0
M  V30 13742 N 1287.43 1.02549 -1.19673 0
M  V30 13743 C 1288.67 1.75408 -0.995732 0
M  V30 13744 C 1288.99 1.89773 0.473863 0
M  V30 13745 O 1290.19 2.59638 0.793762 0
M  V30 13746 C 1288.65 3.15444 -1.73273 0
M  V30 13747 C 1288.26 3.09121 -3.24266 0
M  V30 13748 C 1290 3.92575 -1.61509 0
M  V30 13749 C 1287.91 4.44109 -3.9054 0
M  V30 13750 H 1286.84 0.657569 -0.368944 0
M  V30 13751 H 1289.49 1.14739 -1.43203 0
M  V30 13752 H 1287.87 3.76601 -1.22425 0
M  V30 13753 H 1289.05 2.57325 -3.82257 0
M  V30 13754 H 1287.36 2.45485 -3.36342 0
M  V30 13755 H 1289.96 4.92428 -2.08372 0
M  V30 13756 H 1290.3 4.12382 -0.569804 0
M  V30 13757 H 1290.83 3.38027 -2.09721 0
M  V30 13758 H 1287.57 4.29506 -4.95182 0
M  V30 13759 H 1287.09 4.95947 -3.37337 0
M  V30 13760 H 1288.77 5.12982 -3.94282 0
M  V30 13761 N 1288.9 1.00119 1.21713 0
M  V30 13762 C 1290.18 0.597366 1.86255 0
M  V30 13763 C 1290.56 -0.925124 1.89749 0
M  V30 13764 O 1289.91 -1.8105 1.39402 0
M  V30 13765 C 1290.12 1.22735 3.26707 0
M  V30 13766 C 1291.47 1.33307 4.03131 0
M  V30 13767 O 1292.49 1.18237 3.36003 0
M  V30 13768 O 1291.35 1.57509 5.2331 0
M  V30 13769 H 1288.44 0.204091 0.801421 0
M  V30 13770 H 1290.99 1.09759 1.29426 0
M  V30 13771 H 1289.76 2.26837 3.18843 0
M  V30 13772 H 1289.38 0.713232 3.91151 0
M  V30 13773 N 1290.38 -1.37203 0.775435 0
M  V30 13774 C 1291.33 -2.32102 0.152051 0
M  V30 13775 C 1292.32 -1.55117 -0.680806 0
M  V30 13776 O 1293.53 -1.70486 -0.577455 0
M  V30 13777 H 1289.9 -0.751386 0.0303853 0
M  V30 13778 H 1291.88 -2.82259 0.968121 0
M  V30 13779 C 1290.62 -3.40378 -0.709788 0
M  V30 13780 H 1289.95 -3.99723 -0.0782879 0
M  V30 13781 H 1291.39 -4.09134 -1.11288 0
M  V30 13782 C 1289.85 -2.80769 -1.862 0
M  V30 13783 O 1290.38 -2.71813 -2.95771 0
M  V30 13784 N 1288.58 -2.38259 -1.66376 0
M  V30 13785 H 1288.13 -2.45743 -0.772531 0
M  V30 13786 H 1288.09 -1.98721 -2.43634 0
M  V30 13787 N 1291.86 -0.526279 -1.48553 0
M  V30 13788 C 1292.79 0.227364 -2.3239 0
M  V30 13789 C 1293.77 0.93862 -1.41859 0
M  V30 13790 O 1294.96 0.925119 -1.70749 0
M  V30 13791 C 1292.09 1.277 -3.22971 0
M  V30 13792 C 1291.04 0.684107 -4.22497 0
M  V30 13793 C 1290.37 1.83612 -5.02186 0
M  V30 13794 C 1291.67 -0.341723 -5.21181 0
M  V30 13795 H 1293.36 -0.472486 -2.95648 0
M  V30 13796 H 1290.91 -0.228669 -1.42173 0
M  V30 13797 H 1292.86 1.81215 -3.80446 0
M  V30 13798 H 1291.58 2.00638 -2.57705 0
M  V30 13799 H 1290.24 0.170505 -3.66203 0
M  V30 13800 H 1289.89 2.55379 -4.33348 0
M  V30 13801 H 1289.59 1.44536 -5.69547 0
M  V30 13802 H 1291.11 2.37513 -5.62512 0
M  V30 13803 H 1292.53 0.106207 -5.73202 0
M  V30 13804 H 1290.92 -0.649673 -5.96573 0
M  V30 13805 H 1291.99 -1.2488 -4.68543 0
M  V30 13806 N 1293.34 1.5542 -0.261239 0
M  V30 13807 C 1294.56 2.04142 0.366144 0
M  V30 13808 C 1294.99 1.13884 1.49706 0
M  V30 13809 O 1294.35 0.134629 1.80799 0
M  V30 13810 C 1294.39 3.50733 0.837774 0
M  V30 13811 O 1293.5 3.63588 1.94621 0
M  V30 13812 H 1292.84 0.659424 0.077821 0
M  V30 13813 H 1295.37 2.0082 -0.391487 0
M  V30 13814 H 1295.38 3.91831 1.13721 0
M  V30 13815 H 1294.05 4.15899 0.0102742 0
M  V30 13816 H 1292.63 3.34391 1.65037 0
M  V30 13817 N 1294.82 -0.0116844 1.57596 0
M  V30 13818 C 1295.78 -0.991601 2.0664 0
M  V30 13819 C 1296.78 -1.27973 0.973629 0
M  V30 13820 O 1297.97 -1.22686 1.23668 0
M  V30 13821 C 1295.1 -2.31975 2.49801 0
M  V30 13822 H 1296.29 -0.567607 2.9448 0
M  V30 13823 H 1293.85 -0.258906 1.54141 0
M  V30 13824 H 1294.58 -2.79087 1.65169 0
M  V30 13825 H 1294.37 -2.12386 3.29598 0
M  V30 13826 H 1295.86 -3.02294 2.88112 0
M  V30 13827 N 1296.29 -1.55015 -0.284256 0
M  V30 13828 C 1297.52 -1.79431 -1.04016 0
M  V30 13829 C 1297.94 -0.560254 -1.79563 0
M  V30 13830 O 1297.3 0.489804 -1.74558 0
M  V30 13831 C 1297.35 -3.01162 -1.98328 0
M  V30 13832 O 1296.45 -2.75459 -3.06914 0
M  V30 13833 H 1295.79 -0.593391 -0.297965 0
M  V30 13834 H 1298.32 -2.02136 -0.316585 0
M  V30 13835 H 1298.33 -3.29589 -2.40489 0
M  V30 13836 H 1297.01 -3.90634 -1.42751 0
M  V30 13837 H 1295.59 -2.58096 -2.69148 0
M  V30 13838 N 1297.77 0.548248 -1.47757 0
M  V30 13839 C 1298.72 1.67553 -1.61335 0
M  V30 13840 C 1299.71 1.62447 -0.480335 0
M  V30 13841 O 1300.92 1.67525 -0.658445 0
M  V30 13842 H 1297.29 0.55457 -0.507894 0
M  V30 13843 H 1299.27 1.53239 -2.56047 0
M  V30 13844 C 1298.01 3.05883 -1.6532 0
M  V30 13845 H 1297.34 3.10497 -2.51856 0
M  V30 13846 H 1298.78 3.84424 -1.78868 0
M  V30 13847 C 1297.24 3.34656 -0.388238 0
M  V30 13848 O 1297.77 3.9849 0.506816 0
M  V30 13849 N 1295.97 2.89384 -0.265514 0
M  V30 13850 H 1295.52 2.37615 -0.994819 0
M  V30 13851 H 1295.48 3.09006 0.579889 0
M  V30 13852 N 1299.25 1.36039 0.795694 0
M  V30 13853 C 1300.2 1.26386 1.89765 0
M  V30 13854 C 1301.18 0.156711 1.60135 0
M  V30 13855 O 1302.38 0.388946 1.72674 0
M  V30 13856 C 1299.5 1.04907 3.26878 0
M  V30 13857 C 1298.59 2.20061 3.62538 0
M  V30 13858 N 1298.98 3.45347 3.69553 0
M  V30 13859 C 1297.28 2.11688 3.92561 0
M  V30 13860 C 1297.98 4.21138 4.0127 0
M  V30 13861 N 1296.96 3.5001 4.15925 0
M  V30 13862 H 1300.76 2.21295 1.93405 0
M  V30 13863 H 1298.27 1.28668 0.990877 0
M  V30 13864 H 1300.27 0.960791 4.05678 0
M  V30 13865 H 1298.93 0.108921 3.24517 0
M  V30 13866 H 1299.94 3.79561 3.52355 0
M  V30 13867 H 1296.62 1.25592 3.98162 0
M  V30 13868 H 1298.01 5.29456 4.13673 0
M  V30 13869 N 1300.73 -1.01913 1.20215 0
M  V30 13870 C 1301.95 -1.79613 1.03702 0
M  V30 13871 C 1302.38 -1.83591 -0.409374 0
M  V30 13872 O 1301.74 -1.26911 -1.29473 0
M  V30 13873 C 1301.78 -3.22052 1.62219 0
M  V30 13874 O 1300.89 -4.03374 0.858106 0
M  V30 13875 H 1300.23 -0.554095 0.365889 0
M  V30 13876 H 1302.76 -1.28203 1.59452 0
M  V30 13877 H 1302.77 -3.72772 1.65847 0
M  V30 13878 H 1301.44 -3.18471 2.67487 0
M  V30 13879 H 1300.02 -3.6198 0.895835 0
M  V30 13880 N 1302.21 -1.00763 -1.2118 0
M  V30 13881 C 1303.45 -0.692851 -1.90598 0
M  V30 13882 C 1303.79 0.774698 -1.78079 0
M  V30 13883 O 1303.06 1.56186 -1.15914 0
M  V30 13884 C 1303.34 -1.11792 -3.42308 0
M  V30 13885 C 1303.2 -2.64511 -3.63805 0
M  V30 13886 C 1304.52 -0.682314 -4.34779 0
M  V30 13887 H 1301.63 -0.253175 -0.69215 0
M  V30 13888 H 1304.28 -1.25378 -1.4276 0
M  V30 13889 H 1302.43 -0.640665 -3.83181 0
M  V30 13890 H 1304.1 -3.20021 -3.32242 0
M  V30 13891 H 1302.34 -3.05903 -3.0758 0
M  V30 13892 H 1303.01 -2.89306 -4.70113 0
M  V30 13893 H 1305.49 -1.09247 -4.01503 0
M  V30 13894 H 1304.36 -1.00787 -5.39568 0
M  V30 13895 H 1304.63 0.416441 -4.40134 0
M  V30 13896 N 1303.68 1.3679 -0.7827 0
M  V30 13897 C 1304.65 2.28472 -0.182525 0
M  V30 13898 C 1305.65 1.48524 0.616217 0
M  V30 13899 O 1306.84 1.68599 0.438197 0
M  V30 13900 C 1303.97 3.32588 0.748202 0
M  V30 13901 H 1305.16 2.83059 -0.99085 0
M  V30 13902 H 1302.72 1.46241 -0.551658 0
M  V30 13903 H 1303.45 2.83145 1.58112 0
M  V30 13904 H 1303.24 3.91698 0.177481 0
M  V30 13905 H 1304.73 4.01073 1.16321 0
M  V30 13906 N 1305.16 0.53415 1.48272 0
M  V30 13907 C 1306.07 -0.230062 2.33469 0
M  V30 13908 C 1307.09 -0.934889 1.46751 0
M  V30 13909 O 1308.26 -0.908921 1.79724 0
M  V30 13910 C 1305.33 -1.2609 3.22958 0
M  V30 13911 C 1304.39 -0.565983 4.25553 0
M  V30 13912 C 1303.62 -1.54771 5.10766 0
M  V30 13913 O 1303.85 -2.7807 4.9803 0
M  V30 13914 O 1302.78 -1.08482 5.92043 0
M  V30 13915 H 1306.61 0.468182 3.0007 0
M  V30 13916 H 1304.19 0.29502 1.46458 0
M  V30 13917 H 1306.07 -1.85652 3.783 0
M  V30 13918 H 1304.75 -1.94148 2.59014 0
M  V30 13919 H 1303.66 0.0702391 3.74034 0
M  V30 13920 H 1304.99 0.0727277 4.92146 0
M  V30 13921 N 1306.64 -1.55279 0.269478 0
M  V30 13922 C 1307.6 -2.21008 -0.607299 0
M  V30 13923 C 1308.6 -1.18619 -1.08564 0
M  V30 13924 O 1309.79 -1.4356 -0.986721 0
M  V30 13925 C 1306.93 -2.87157 -1.83721 0
M  V30 13926 H 1308.12 -2.99881 -0.0334894 0
M  V30 13927 H 1305.67 -1.56287 0.0200573 0
M  V30 13928 H 1306.41 -2.12281 -2.45168 0
M  V30 13929 H 1306.19 -3.62183 -1.5022 0
M  V30 13930 H 1307.68 -3.37391 -2.46083 0
M  V30 13931 N 1308.12 0.00332656 -1.576 0
M  V30 13932 C 1309.05 0.994803 -2.11248 0
M  V30 13933 C 1310.03 1.36061 -1.02085 0
M  V30 13934 O 1311.21 1.44494 -1.2975 0
M  V30 13935 C 1308.34 2.28772 -2.61306 0
M  V30 13936 C 1307.3 2.06362 -3.74965 0
M  V30 13937 C 1306.62 3.41638 -4.11324 0
M  V30 13938 C 1307.92 1.4289 -5.02374 0
M  V30 13939 H 1309.62 0.548119 -2.9434 0
M  V30 13940 H 1307.16 0.262208 -1.41593 0
M  V30 13941 H 1309.12 2.98485 -2.97464 0
M  V30 13942 H 1307.84 2.75547 -1.75332 0
M  V30 13943 H 1306.5 1.39076 -3.39195 0
M  V30 13944 H 1306.15 3.8611 -3.22379 0
M  V30 13945 H 1305.85 3.2746 -4.87897 0
M  V30 13946 H 1307.37 4.12671 -4.50039 0
M  V30 13947 H 1308.79 2.02555 -5.36325 0
M  V30 13948 H 1307.18 1.3921 -5.8373 0
M  V30 13949 H 1308.25 0.397708 -4.83266 0
M  V30 13950 N 1309.6 1.55164 0.276031 0
M  V30 13951 C 1310.53 1.90844 1.34539 0
M  V30 13952 C 1311.51 0.769968 1.51676 0
M  V30 13953 O 1312.69 1.02785 1.64769 0
M  V30 13954 C 1309.82 2.17769 2.70543 0
M  V30 13955 C 1308.78 3.33592 2.68142 0
M  V30 13956 C 1308.1 3.45991 4.07669 0
M  V30 13957 C 1309.4 4.70064 2.27678 0
M  V30 13958 H 1311.1 2.80412 1.04926 0
M  V30 13959 H 1308.64 1.34918 0.503303 0
M  V30 13960 H 1310.6 2.41317 3.45462 0
M  V30 13961 H 1309.32 1.24997 3.01734 0
M  V30 13962 H 1307.98 3.10007 1.95681 0
M  V30 13963 H 1307.63 2.50691 4.36077 0
M  V30 13964 H 1307.33 4.23862 4.06958 0
M  V30 13965 H 1308.85 3.71828 4.84331 0
M  V30 13966 H 1310.26 4.93176 2.92319 0
M  V30 13967 H 1308.66 5.50829 2.38134 0
M  V30 13968 H 1309.73 4.69091 1.22808 0
M  V30 13969 N 1311.07 -0.540404 1.48045 0
M  V30 13970 C 1312 -1.65538 1.6468 0
M  V30 13971 C 1312.99 -1.62713 0.495847 0
M  V30 13972 O 1314.17 -1.80072 0.727172 0
M  V30 13973 C 1311.3 -3.0415 1.67661 0
M  V30 13974 C 1310.25 -3.2183 2.82152 0
M  V30 13975 C 1309.58 -4.61397 2.70216 0
M  V30 13976 C 1310.88 -3.05596 4.23567 0
M  V30 13977 H 1312.57 -1.51873 2.58021 0
M  V30 13978 H 1310.12 -0.729208 1.24171 0
M  V30 13979 H 1312.07 -3.82013 1.77887 0
M  V30 13980 H 1310.8 -3.18814 0.708907 0
M  V30 13981 H 1309.46 -2.4638 2.71463 0
M  V30 13982 H 1309.1 -4.72883 1.71437 0
M  V30 13983 H 1308.8 -4.74174 3.47035 0
M  V30 13984 H 1310.33 -5.41374 2.82395 0
M  V30 13985 H 1311.74 -3.73261 4.35143 0
M  V30 13986 H 1310.14 -3.29871 5.01303 0
M  V30 13987 H 1311.21 -2.0214 4.40758 0
M  V30 13988 N 1312.55 -1.36459 -0.788468 0
M  V30 13989 C 1313.8 -1.30741 -1.54638 0
M  V30 13990 C 1314.13 0.113029 -1.94171 0
M  V30 13991 O 1313.38 1.08252 -1.63034 0
M  V30 13992 C 1313.68 -2.17672 -2.83467 0
M  V30 13993 C 1313.35 -3.66205 -2.63067 0
M  V30 13994 C 1312.01 -4.06688 -2.57212 0
M  V30 13995 C 1314.36 -4.60376 -2.44343 0
M  V30 13996 C 1311.69 -5.39482 -2.306 0
M  V30 13997 C 1314.04 -5.93388 -2.19258 0
M  V30 13998 C 1312.71 -6.32994 -2.11836 0
M  V30 13999 H 1311.98 -0.478416 -0.565862 0
M  V30 14000 H 1314.62 -1.68519 -0.909588 0
M  V30 14001 H 1312.93 -1.72834 -3.51619 0
M  V30 14002 H 1314.62 -2.10573 -3.41263 0
M  V30 14003 H 1311.21 -3.3409 -2.6848 0
M  V30 14004 H 1315.4 -4.29971 -2.47868 0
M  V30 14005 H 1310.65 -5.69149 -2.23337 0
M  V30 14006 H 1314.83 -6.65923 -2.03765 0
M  V30 14007 H 1312.46 -7.3582 -1.90978 0
M  V30 14008 N 1314.03 1.01274 -1.20754 0
M  V30 14009 C 1314.96 2.11763 -0.983805 0
M  V30 14010 C 1315.94 1.69869 0.0885635 0
M  V30 14011 O 1317.13 1.94075 -0.0697239 0
M  V30 14012 C 1314.26 3.43087 -0.539287 0
M  V30 14013 C 1313.21 3.9874 -1.55534 0
M  V30 14014 C 1312.54 5.25877 -0.967322 0
M  V30 14015 C 1313.84 4.31688 -2.94012 0
M  V30 14016 H 1315.53 2.30737 -1.90789 0
M  V30 14017 H 1313.08 1.10884 -0.918734 0
M  V30 14018 H 1315.03 4.19773 -0.369979 0
M  V30 14019 H 1313.75 3.23883 0.420435 0
M  V30 14020 H 1312.41 3.24166 -1.71207 0
M  V30 14021 H 1312.06 5.03 0.000448307 0
M  V30 14022 H 1311.76 5.64077 -1.64594 0
M  V30 14023 H 1313.28 6.05215 -0.809167 0
M  V30 14024 H 1314.7 4.99246 -2.81827 0
M  V30 14025 H 1313.1 4.81011 -3.58815 0
M  V30 14026 H 1314.17 3.4029 -3.45442 0
M  V30 14027 N 1315.51 1.01404 1.20644 0
M  V30 14028 C 1316.42 0.591693 2.27016 0
M  V30 14029 C 1317.44 -0.36958 1.7003 0
M  V30 14030 O 1318.61 -0.231165 2.00069 0
M  V30 14031 C 1315.68 -0.0659827 3.46637 0
M  V30 14032 C 1314.74 0.940911 4.18862 0
M  V30 14033 C 1313.97 0.314526 5.32772 0
M  V30 14034 O 1314.19 -0.886404 5.63471 0
M  V30 14035 O 1313.13 1.02998 5.93022 0
M  V30 14036 H 1316.95 1.4772 2.65353 0
M  V30 14037 H 1314.54 0.783399 1.27213 0
M  V30 14038 H 1316.42 -0.433412 4.19165 0
M  V30 14039 H 1315.1 -0.925729 3.10181 0
M  V30 14040 H 1314 1.35966 3.48517 0
M  V30 14041 H 1315.34 1.77054 4.59252 0
M  V30 14042 N 1316.99 -1.36373 0.789944 0
M  V30 14043 C 1318.21 -2.04011 0.373396 0
M  V30 14044 C 1318.64 -1.59171 -1.00231 0
M  V30 14045 O 1318 -0.760431 -1.64582 0
M  V30 14046 C 1318.04 -3.5783 0.446083 0
M  V30 14047 O 1317.15 -4.08759 -0.54678 0
M  V30 14048 H 1316.49 -0.644807 0.158495 0
M  V30 14049 H 1319.02 -1.74317 1.0712 0
M  V30 14050 H 1319.03 -4.06822 0.309877 0
M  V30 14051 H 1317.7 -3.89819 1.44962 0
M  V30 14052 H 1316.28 -3.71038 -0.372192 0
M  V30 14053 N 1318.47 -0.542005 -1.47987 0
M  V30 14054 C 1319.4 0.202703 -2.32618 0
M  V30 14055 C 1320.38 0.923521 -1.42846 0
M  V30 14056 O 1321.56 0.906957 -1.7172 0
M  V30 14057 C 1318.69 1.24267 -3.24307 0
M  V30 14058 C 1317.65 0.639257 -4.23199 0
M  V30 14059 C 1316.97 1.78275 -5.04105 0
M  V30 14060 C 1318.27 -0.396982 -5.20789 0
M  V30 14061 H 1319.97 -0.503817 -2.95131 0
M  V30 14062 H 1317.51 -0.243736 -1.41922 0
M  V30 14063 H 1319.46 1.7717 -3.82347 0
M  V30 14064 H 1318.19 1.97893 -2.59819 0
M  V30 14065 H 1316.85 0.131655 -3.66364 0
M  V30 14066 H 1316.5 2.50768 -4.36032 0
M  V30 14067 H 1316.2 1.38487 -5.71047 0
M  V30 14068 H 1317.72 2.31533 -5.65 0
M  V30 14069 H 1319.13 0.0454057 -5.73282 0
M  V30 14070 H 1317.53 -0.712911 -5.9585 0
M  V30 14071 H 1318.6 -1.29843 -4.67193 0
M  V30 14072 N 1319.94 1.55134 -0.277709 0
M  V30 14073 C 1321.35 1.85405 0.219543 0
M  V30 14074 C 1321.71 1.19973 1.55245 0
M  V30 14075 O 1320.83 0.488986 2.10803 0
M  V30 14076 C 1321.43 3.36369 0.405127 0
M  V30 14077 C 1319.98 3.66755 0.846609 0
M  V30 14078 C 1319.13 2.77238 -0.0586063 0
M  V30 14079 H 1322.08 1.50637 -0.499422 0
M  V30 14080 H 1322.1 3.59615 1.24329 0
M  V30 14081 H 1321.62 3.83963 -0.565138 0
M  V30 14082 H 1319.72 3.24662 1.82825 0
M  V30 14083 H 1319.83 4.74219 0.682135 0
M  V30 14084 H 1318.19 2.50546 0.458153 0
M  V30 14085 H 1318.98 3.27647 -1.0248 0
M  V30 14086 N 1321.42 0.00503138 1.57599 0
M  V30 14087 C 1322.33 -1.00097 2.12174 0
M  V30 14088 C 1323.35 -1.37353 1.06818 0
M  V30 14089 O 1324.52 -1.45984 1.38747 0
M  V30 14090 C 1321.59 -2.27252 2.61835 0
M  V30 14091 C 1320.65 -1.96262 3.81811 0
M  V30 14092 C 1319.88 -3.17355 4.29094 0
M  V30 14093 O 1320.11 -4.2921 3.75679 0
M  V30 14094 O 1319.04 -3.01059 5.21198 0
M  V30 14095 H 1322.87 -0.567024 2.9836 0
M  V30 14096 H 1320.45 -0.214109 1.47858 0
M  V30 14097 H 1322.33 -3.01944 2.93952 0
M  V30 14098 H 1321.01 -2.69875 1.78744 0
M  V30 14099 H 1319.91 -1.19031 3.54658 0
M  V30 14100 H 1321.25 -1.58473 4.65991 0
M  V30 14101 N 1322.9 -1.55308 -0.267798 0
M  V30 14102 C 1324.31 -1.66814 -0.838459 0
M  V30 14103 C 1324.66 -0.598609 -1.86845 0
M  V30 14104 O 1323.79 0.25896 -2.14845 0
M  V30 14105 C 1324.38 -3.02408 -1.52758 0
M  V30 14106 C 1322.94 -3.15923 -2.04621 0
M  V30 14107 C 1322.09 -2.62628 -0.890044 0
M  V30 14108 H 1325.04 -1.58639 -0.0440354 0
M  V30 14109 H 1325.06 -2.95687 -2.39478 0
M  V30 14110 H 1324.57 -3.80228 -0.777695 0
M  V30 14111 H 1322.67 -2.42886 -2.82555 0
M  V30 14112 H 1322.79 -4.22556 -2.25794 0
M  V30 14113 H 1321.15 -2.19918 -1.28485 0
M  V30 14114 H 1321.93 -3.42956 -0.153579 0
M  V30 14115 N 1324.38 0.532545 -1.4833 0
M  V30 14116 C 1325.62 1.29042 -1.56448 0
M  V30 14117 C 1325.96 1.92754 -0.236532 0
M  V30 14118 O 1325.23 1.79154 0.757237 0
M  V30 14119 C 1325.51 2.38173 -2.70084 0
M  V30 14120 C 1325.37 1.79169 -4.12576 0
M  V30 14121 C 1326.69 3.39957 -2.79495 0
M  V30 14122 H 1323.81 0.467816 -0.569488 0
M  V30 14123 H 1326.45 0.593517 -1.80492 0
M  V30 14124 H 1324.6 2.97616 -2.49714 0
M  V30 14125 H 1326.27 1.23797 -4.44378 0
M  V30 14126 H 1324.51 1.09716 -4.19696 0
M  V30 14127 H 1325.18 2.58174 -4.87904 0
M  V30 14128 H 1327.66 2.90466 -2.97941 0
M  V30 14129 H 1326.54 4.13714 -3.60739 0
M  V30 14130 H 1326.8 4.00347 -1.87548 0
M  V30 14131 N 1325.86 1.36875 0.78122 0
M  V30 14132 C 1327.1 1.30886 1.53466 0
M  V30 14133 C 1327.42 -0.107218 1.95306 0
M  V30 14134 O 1328.62 -0.289525 2.69952 0
M  V30 14135 C 1327.08 2.29688 2.77076 0
M  V30 14136 C 1326.69 3.76775 2.42373 0
M  V30 14137 C 1328.43 2.32692 3.55042 0
M  V30 14138 C 1326.34 4.67332 3.62428 0
M  V30 14139 H 1325.27 0.486408 0.576128 0
M  V30 14140 H 1327.92 1.62283 0.856529 0
M  V30 14141 H 1326.3 1.91296 3.4673 0
M  V30 14142 H 1327.48 4.2395 1.80563 0
M  V30 14143 H 1325.79 3.76625 1.77602 0
M  V30 14144 H 1328.39 2.97556 4.44257 0
M  V30 14145 H 1328.73 1.33779 3.94219 0
M  V30 14146 H 1329.26 2.69743 2.92375 0
M  V30 14147 H 1326 5.67339 3.2834 0
M  V30 14148 H 1325.52 4.24868 4.23376 0
M  V30 14149 H 1327.2 4.84005 4.29358 0
M  V30 14150 N 1327.33 -1.00632 1.21289 0
M  V30 14151 C 1328.57 -1.75921 1.04073 0
M  V30 14152 C 1328.94 -1.87381 -0.4186 0
M  V30 14153 O 1330.14 -2.5922 -0.711236 0
M  V30 14154 C 1328.41 -3.1344 1.71727 0
M  V30 14155 S 1329.97 -4.04636 1.6975 0
M  V30 14156 H 1326.79 -0.605321 0.372972 0
M  V30 14157 H 1329.39 -1.20417 1.54013 0
M  V30 14158 H 1328.09 -3.02731 2.77096 0
M  V30 14159 H 1327.62 -3.74017 1.21962 0
M  V30 14160 H 1329.64 -4.90686 0.737656 0
M  V30 14161 N 1328.81 -1.02043 -1.20104 0
M  V30 14162 C 1330.04 -0.730255 -1.93264 0
M  V30 14163 C 1330.45 0.71359 -1.75227 0
M  V30 14164 O 1329.79 1.49609 -1.06597 0
M  V30 14165 C 1329.85 -0.990978 -3.45572 0
M  V30 14166 C 1329.52 -2.4247 -3.87373 0
M  V30 14167 C 1330.52 -3.40569 -3.92822 0
M  V30 14168 C 1328.2 -2.76645 -4.19253 0
M  V30 14169 C 1330.19 -4.70904 -4.29568 0
M  V30 14170 C 1327.88 -4.07192 -4.55673 0
M  V30 14171 C 1328.88 -5.04132 -4.60804 0
M  V30 14172 O 1328.57 -6.32341 -4.96386 0
M  V30 14173 H 1328.3 -0.267146 -0.620974 0
M  V30 14174 H 1330.85 -1.36557 -1.53432 0
M  V30 14175 H 1329.08 -0.298508 -3.85546 0
M  V30 14176 H 1330.77 -0.691793 -3.99961 0
M  V30 14177 H 1331.54 -3.15503 -3.68352 0
M  V30 14178 H 1327.42 -2.01876 -4.14448 0
M  V30 14179 H 1330.96 -5.46566 -4.33487 0
M  V30 14180 H 1326.86 -4.32035 -4.796 0
M  V30 14181 H 1327.63 -6.36687 -5.14365 0
M  V30 14182 N 1330.29 1.35952 -0.797165 0
M  V30 14183 C 1331.52 2.0381 -0.38421 0
M  V30 14184 C 1331.94 1.597 0.993854 0
M  V30 14185 O 1331.3 0.769148 1.64176 0
M  V30 14186 C 1331.35 3.57589 -0.465054 0
M  V30 14187 O 1330.45 4.09043 0.525095 0
M  V30 14188 H 1329.79 0.643957 -0.161912 0
M  V30 14189 H 1332.32 1.73746 -1.08043 0
M  V30 14190 H 1332.33 4.06651 -0.331448 0
M  V30 14191 H 1331.01 3.89045 -1.47027 0
M  V30 14192 H 1329.58 3.7123 0.352509 0
M  V30 14193 N 1331.77 0.549846 1.47697 0
M  V30 14194 C 1333 0.0276889 2.06881 0
M  V30 14195 C 1333.41 -1.26273 1.40359 0
M  V30 14196 O 1332.77 -1.75584 0.497644 0
M  V30 14197 C 1332.82 -0.179291 3.61055 0
M  V30 14198 O 1332.54 1.06002 4.25083 0
M  V30 14199 C 1334.04 -0.739571 4.37087 0
M  V30 14200 H 1331.26 0.0425016 0.669653 0
M  V30 14201 H 1333.81 0.761158 1.89807 0
M  V30 14202 H 1331.96 -0.862867 3.77668 0
M  V30 14203 H 1332.37 0.853137 5.17515 0
M  V30 14204 H 1333.85 -0.833722 5.45668 0
M  V30 14205 H 1334.33 -1.74915 4.02867 0
M  V30 14206 H 1334.93 -0.0919294 4.25201 0
M  V30 14207 N 1333.25 -1.54984 0.285932 0
M  V30 14208 C 1334.48 -2.03943 -0.330295 0
M  V30 14209 C 1334.88 -1.16336 -1.49207 0
M  V30 14210 O 1334.23 -0.178341 -1.82832 0
M  V30 14211 C 1334.29 -3.48976 -0.863479 0
M  V30 14212 C 1333.95 -4.5668 0.171058 0
M  V30 14213 C 1334.95 -5.10303 0.994329 0
M  V30 14214 C 1332.64 -5.01352 0.308416 0
M  V30 14215 C 1334.63 -6.07126 1.94104 0
M  V30 14216 C 1332.32 -5.97999 1.25859 0
M  V30 14217 C 1333.31 -6.50768 2.0734 0
M  V30 14218 O 1333 -7.45524 3.00749 0
M  V30 14219 H 1332.73 -0.671491 -0.0779452 0
M  V30 14220 H 1335.29 -2.01081 0.419011 0
M  V30 14221 H 1333.52 -3.49113 -1.66305 0
M  V30 14222 H 1335.21 -3.81213 -1.39396 0
M  V30 14223 H 1335.97 -4.76595 0.899002 0
M  V30 14224 H 1331.85 -4.59917 -0.315817 0
M  V30 14225 H 1335.4 -6.48239 2.57743 0
M  V30 14226 H 1331.29 -6.31125 1.35469 0
M  V30 14227 H 1332.06 -7.63276 2.95554 0
M  V30 14228 N 1334.72 -0.0133892 -1.57594 0
M  V30 14229 C 1335.67 0.982482 -2.05746 0
M  V30 14230 C 1336.66 1.29508 -0.954801 0
M  V30 14231 O 1337.85 1.28382 -1.21848 0
M  V30 14232 C 1334.98 2.27012 -2.57527 0
M  V30 14233 C 1334.07 1.98658 -3.74694 0
M  V30 14234 N 1334.46 1.40512 -4.85891 0
M  V30 14235 C 1332.75 2.28732 -3.82881 0
M  V30 14236 C 1333.46 1.28933 -5.67231 0
M  V30 14237 N 1332.43 1.77951 -5.13648 0
M  V30 14238 H 1336.23 0.527626 -2.89125 0
M  V30 14239 H 1333.75 0.192001 -1.61261 0
M  V30 14240 H 1335.74 2.99212 -2.90306 0
M  V30 14241 H 1334.4 2.73139 -1.75572 0
M  V30 14242 H 1335.42 1.08217 -5.06468 0
M  V30 14243 H 1332.09 2.77641 -3.11804 0
M  V30 14244 H 1333.48 0.841051 -6.66615 0
M  V30 14245 N 1336.2 1.55448 0.259558 0
M  V30 14246 C 1337.15 1.90056 1.34096 0
M  V30 14247 C 1338.14 0.778267 1.50464 0
M  V30 14248 O 1339.35 0.962758 1.52089 0
M  V30 14249 H 1335.73 0.603424 0.448758 0
M  V30 14250 H 1337.7 2.80365 1.02166 0
M  V30 14251 C 1336.45 2.20074 2.69189 0
M  V30 14252 H 1335.77 3.05926 2.57389 0
M  V30 14253 H 1337.21 2.48201 3.43762 0
M  V30 14254 C 1335.67 1.01281 3.21316 0
M  V30 14255 O 1336.2 0.2543 4.00894 0
M  V30 14256 N 1334.4 0.806855 2.79174 0
M  V30 14257 H 1333.95 1.42536 2.14572 0
M  V30 14258 H 1333.91 0.0136714 3.14397 0
M  V30 14259 N 1337.68 -0.524672 1.4861 0
M  V30 14260 C 1338.92 -1.29064 1.58499 0
M  V30 14261 C 1339.28 -1.90294 0.255378 0
M  V30 14262 O 1340.49 -2.6782 0.229289 0
M  V30 14263 C 1338.76 -2.34693 2.69544 0
M  V30 14264 S 1340.32 -3.20944 2.99233 0
M  V30 14265 H 1337.13 -0.438948 0.559326 0
M  V30 14266 H 1339.74 -0.597119 1.86158 0
M  V30 14267 H 1338.44 -1.88199 3.64704 0
M  V30 14268 H 1337.97 -3.08745 2.43804 0
M  V30 14269 H 1339.99 -4.34883 2.38937 0
M  V30 14270 N 1339.16 -1.37287 -0.77395 0
M  V30 14271 C 1340.09 -1.35569 -1.90114 0
M  V30 14272 C 1341.07 -0.224658 -1.6861 0
M  V30 14273 O 1342.25 -0.424676 -1.895 0
M  V30 14274 C 1339.38 -1.15971 -3.27365 0
M  V30 14275 C 1338.34 -2.26063 -3.63427 0
M  V30 14276 C 1337.66 -1.9159 -4.99197 0
M  V30 14277 C 1338.96 -3.68236 -3.70405 0
M  V30 14278 H 1340.66 -2.29891 -1.91808 0
M  V30 14279 H 1338.2 -1.10661 -0.92142 0
M  V30 14280 H 1340.16 -1.134 -4.05855 0
M  V30 14281 H 1338.88 -0.181043 -3.26098 0
M  V30 14282 H 1337.54 -2.27786 -2.87244 0
M  V30 14283 H 1337.19 -0.922586 -4.94467 0
M  V30 14284 H 1336.89 -2.65309 -5.24294 0
M  V30 14285 H 1338.41 -1.90602 -5.80089 0
M  V30 14286 H 1339.83 -3.68655 -4.39052 0
M  V30 14287 H 1338.22 -4.4099 -4.06999 0
M  V30 14288 H 1339.29 -4.02021 -2.71122 0
M  V30 14289 N 1340.64 0.999871 -1.21821 0
M  V30 14290 C 1341.55 2.12303 -0.99823 0
M  V30 14291 C 1342.56 1.73924 0.0512923 0
M  V30 14292 O 1343.74 2.00914 -0.139895 0
M  V30 14293 C 1340.8 3.41962 -0.571232 0
M  V30 14294 C 1339.86 3.94483 -1.69356 0
M  V30 14295 C 1339.1 5.17954 -1.28685 0
M  V30 14296 O 1339.32 5.70168 -0.162641 0
M  V30 14297 O 1338.25 5.64051 -2.10071 0
M  V30 14298 H 1342.08 2.3374 -1.93905 0
M  V30 14299 H 1339.67 1.10677 -1.00354 0
M  V30 14300 H 1341.55 4.20001 -0.343134 0
M  V30 14301 H 1340.22 3.21901 0.340814 0
M  V30 14302 H 1339.13 3.17648 -1.97612 0
M  V30 14303 H 1340.46 4.18964 -2.58322 0
M  V30 14304 N 1342.11 1.02678 1.19562 0
M  V30 14305 C 1343.35 0.7307 1.90893 0
M  V30 14306 C 1343.72 -0.727166 1.77697 0
M  V30 14307 O 1344.92 -1.13623 2.43605 0
M  V30 14308 C 1343.19 1.16683 3.37816 0
M  V30 14309 S 1344.75 0.994271 4.27387 0
M  V30 14310 H 1341.57 0.266082 0.659334 0
M  V30 14311 H 1344.17 1.31617 1.44558 0
M  V30 14312 H 1342.87 2.22354 3.44945 0
M  V30 14313 H 1342.4 0.574559 3.89182 0
M  V30 14314 H 1344.42 -0.0963871 4.96106 0
M  V30 14315 N 1343.59 -1.35528 0.804364 0
M  V30 14316 C 1344.82 -2.03604 0.395013 0
M  V30 14317 C 1345.24 -1.60225 -0.985371 0
M  V30 14318 O 1344.6 -0.777844 -1.63766 0
M  V30 14319 C 1344.65 -3.57337 0.484011 0
M  V30 14320 O 1343.75 -4.09316 -0.503395 0
M  V30 14321 H 1343.09 -0.643089 0.165325 0
M  V30 14322 H 1345.62 -1.73171 1.08963 0
M  V30 14323 H 1345.63 -4.0647 0.353009 0
M  V30 14324 H 1344.31 -3.8826 1.49088 0
M  V30 14325 H 1342.89 -3.71412 -0.332817 0
M  V30 14326 N 1345.07 -0.557671 -1.47404 0
M  V30 14327 C 1346.32 -0.0337216 -2.02072 0
M  V30 14328 C 1346.64 1.32106 -1.43433 0
M  V30 14329 O 1345.91 1.86171 -0.609692 0
M  V30 14330 H 1344.49 -0.00947648 -0.74694 0
M  V30 14331 H 1347.15 -0.727784 -1.80802 0
M  V30 14332 H 1346.25 0.0540331 -3.12053 0
M  V30 14333 N 1346.55 1.54831 -0.294147 0
M  V30 14334 C 1347.5 2.24707 0.600795 0
M  V30 14335 C 1348.49 1.25067 1.14257 0
M  V30 14336 O 1349.7 1.42939 1.094 0
M  V30 14337 H 1346.07 0.721399 0.212338 0
M  V30 14338 H 1348.04 2.98398 -0.0111682 0
M  V30 14339 C 1346.79 2.996 1.76451 0
M  V30 14340 H 1346.12 3.76072 1.35684 0
M  V30 14341 H 1347.56 3.51785 2.36692 0
M  V30 14342 C 1346.01 2.0617 2.6645 0
M  V30 14343 O 1346.54 1.62527 3.67353 0
M  V30 14344 N 1344.75 1.7227 2.34033 0
M  V30 14345 H 1344.3 2.07957 1.52025 0
M  V30 14346 H 1344.26 1.10031 2.94518 0
M  V30 14347 N 1348.03 0.0217466 1.57585 0
M  V30 14348 C 1349.26 -0.667911 1.95506 0
M  V30 14349 C 1349.67 -1.66616 0.89642 0
M  V30 14350 O 1349.01 -1.83232 -0.131059 0
M  V30 14351 C 1349.07 -1.43696 3.29533 0
M  V30 14352 C 1348.73 -0.59787 4.53072 0
M  V30 14353 C 1349.73 0.12372 5.19753 0
M  V30 14354 C 1347.42 -0.53744 4.99417 0
M  V30 14355 C 1349.41 0.894491 6.31092 0
M  V30 14356 C 1347.1 0.237041 6.1064 0
M  V30 14357 C 1348.1 0.95172 6.76337 0
M  V30 14358 O 1347.78 1.71352 7.85426 0
M  V30 14359 H 1347.52 -0.189544 0.648883 0
M  V30 14360 H 1350.07 0.0755682 2.05261 0
M  V30 14361 H 1348.3 -2.22541 3.16247 0
M  V30 14362 H 1349.99 -2.01402 3.52409 0
M  V30 14363 H 1350.75 0.0863208 4.84923 0
M  V30 14364 H 1346.63 -1.08327 4.48092 0
M  V30 14365 H 1350.18 1.45285 6.82304 0
M  V30 14366 H 1346.07 0.276183 6.44909 0
M  V30 14367 H 1346.84 1.63252 8.02054 0
M  V30 14368 N 1349.51 -1.55583 -0.251311 0
M  V30 14369 C 1350.73 -1.81259 -0.997636 0
M  V30 14370 C 1351.15 -0.596861 -1.79117 0
M  V30 14371 O 1350.51 0.434425 -1.77254 0
M  V30 14372 C 1350.56 -3.05097 -1.93902 0
M  V30 14373 O 1350.28 -4.21976 -1.1776 0
M  V30 14374 C 1351.78 -3.4354 -2.8017 0
M  V30 14375 H 1349 -0.603279 -0.29376 0
M  V30 14376 H 1351.54 -2.02635 -0.27553 0
M  V30 14377 H 1349.7 -2.85784 -2.61546 0
M  V30 14378 H 1350.11 -4.92133 -1.81398 0
M  V30 14379 H 1351.59 -4.33305 -3.41981 0
M  V30 14380 H 1352.06 -2.63924 -3.51057 0
M  V30 14381 H 1352.67 -3.65189 -2.17985 0
M  V30 14382 N 1350.98 0.516783 -1.48886 0
M  V30 14383 C 1351.95 1.60226 -1.63891 0
M  V30 14384 C 1352.95 1.52448 -0.511479 0
M  V30 14385 O 1354.14 1.55882 -0.777582 0
M  V30 14386 C 1351.27 2.99867 -1.62151 0
M  V30 14387 H 1352.46 1.48256 -2.60692 0
M  V30 14388 H 1350.01 0.739844 -1.37681 0
M  V30 14389 H 1350.75 3.1733 -0.668764 0
M  V30 14390 H 1350.53 3.0692 -2.44013 0
M  V30 14391 H 1352.02 3.7876 -1.7587 0
M  V30 14392 N 1352.46 1.37696 0.766659 0
M  V30 14393 C 1353.69 1.36564 1.56093 0
M  V30 14394 C 1354.11 -0.0455828 1.88045 0
M  V30 14395 O 1353.47 -1.02405 1.49609 0
M  V30 14396 C 1353.52 2.21592 2.84481 0
M  V30 14397 O 1352.62 1.62404 3.79076 0
M  V30 14398 H 1351.96 0.466394 0.472623 0
M  V30 14399 H 1354.49 1.81287 0.948486 0
M  V30 14400 H 1354.5 2.34987 3.33534 0
M  V30 14401 H 1353.18 3.24167 2.60554 0
M  V30 14402 H 1351.75 1.58078 3.37736 0
M  V30 14403 N 1353.94 -0.993397 1.22349 0
M  V30 14404 C 1354.89 -2.0834 0.993123 0
M  V30 14405 C 1355.86 -1.65883 -0.0849717 0
M  V30 14406 O 1357.04 -1.90691 0.0645176 0
M  V30 14407 C 1354.18 -3.40252 0.576434 0
M  V30 14408 C 1353.29 -3.96055 1.72524 0
M  V30 14409 C 1352.43 -5.16123 1.25659 0
M  V30 14410 C 1351.47 -5.64062 2.37698 0
M  V30 14411 N 1350.61 -6.7537 1.91883 0
M  V30 14412 H 1355.45 -2.27381 1.92619 0
M  V30 14413 H 1352.98 -1.11476 0.959763 0
M  V30 14414 H 1354.94 -4.16001 0.316021 0
M  V30 14415 H 1353.57 -3.21214 -0.319626 0
M  V30 14416 H 1352.62 -3.17182 2.1 0
M  V30 14417 H 1353.93 -4.27614 2.56802 0
M  V30 14418 H 1353.09 -5.9916 0.953528 0
M  V30 14419 H 1351.83 -4.86186 0.384011 0
M  V30 14420 H 1350.83 -4.79614 2.68794 0
M  V30 14421 H 1352.06 -5.96025 3.25471 0
M  V30 14422 H 1350 -6.47217 1.06986 0
M  V30 14423 H 1349.92 -7.06246 2.69727 0
M  V30 14424 H 1351.19 -7.61914 1.64644 0
M  V30 14425 N 1355.42 -1.03311 -1.19015 0
M  V30 14426 C 1356.35 -0.575655 -2.21853 0
M  V30 14427 C 1357.36 0.350705 -1.58978 0
M  V30 14428 O 1358.55 0.146425 -1.77898 0
M  V30 14429 C 1355.65 0.179949 -3.38422 0
M  V30 14430 C 1354.82 -0.752403 -4.3088 0
M  V30 14431 C 1353.88 -0.0414484 -5.26184 0
M  V30 14432 O 1352.91 -0.669403 -5.6525 0
M  V30 14433 N 1354.11 1.22783 -5.67366 0
M  V30 14434 H 1356.88 -1.46013 -2.61726 0
M  V30 14435 H 1354.44 -0.912655 -1.33724 0
M  V30 14436 H 1356.43 0.66522 -3.99195 0
M  V30 14437 H 1355 0.965879 -2.97304 0
M  V30 14438 H 1354.22 -1.41768 -3.67825 0
M  V30 14439 H 1355.51 -1.38592 -4.89561 0
M  V30 14440 H 1354.91 1.75867 -5.37668 0
M  V30 14441 H 1353.46 1.65752 -6.30372 0
M  V30 14442 N 1356.9 1.35099 -0.81154 0
M  V30 14443 C 1358.14 1.9892 -0.394815 0
M  V30 14444 C 1358.47 1.6422 1.0366 0
M  V30 14445 O 1357.75 0.908031 1.72003 0
M  V30 14446 C 1358.03 3.55331 -0.58413 0
M  V30 14447 C 1357.89 3.99812 -2.06084 0
M  V30 14448 C 1359.2 4.40098 -0.0129096 0
M  V30 14449 H 1356.32 0.72261 -0.144926 0
M  V30 14450 H 1358.97 1.60173 -1.02199 0
M  V30 14451 H 1357.12 3.88468 -0.0502446 0
M  V30 14452 H 1358.79 3.77061 -2.65749 0
M  V30 14453 H 1357.03 3.50539 -2.55548 0
M  V30 14454 H 1357.7 5.08655 -2.14416 0
M  V30 14455 H 1360.18 4.13449 -0.468917 0
M  V30 14456 H 1359.05 5.4862 -0.175252 0
M  V30 14457 H 1359.31 4.28675 1.0812 0
M  V30 14458 N 1358.37 0.56548 1.47106 0
M  V30 14459 C 1359.62 0.042333 2.01656 0
M  V30 14460 C 1359.94 -1.31892 1.44443 0
M  V30 14461 O 1361.14 -1.93245 1.90706 0
M  V30 14462 C 1359.6 0.0251556 3.59891 0
M  V30 14463 C 1359.21 1.38367 4.26097 0
M  V30 14464 C 1360.95 -0.44495 4.22162 0
M  V30 14465 C 1358.86 1.32516 5.76362 0
M  V30 14466 H 1357.79 0.0120557 0.753904 0
M  V30 14467 H 1360.44 0.714565 1.69015 0
M  V30 14468 H 1358.82 -0.712893 3.8953 0
M  V30 14469 H 1359.99 2.14009 4.08089 0
M  V30 14470 H 1358.31 1.79239 3.75849 0
M  V30 14471 H 1360.91 -0.507256 5.32288 0
M  V30 14472 H 1361.25 -1.45876 3.89905 0
M  V30 14473 H 1361.78 0.238496 3.97084 0
M  V30 14474 H 1358.52 2.31523 6.13252 0
M  V30 14475 H 1358.04 0.610674 5.96683 0
M  V30 14476 H 1359.72 1.03072 6.38737 0
M  V30 14477 N 1359.85 -1.54672 0.302354 0
M  V30 14478 C 1361.08 -2.05041 -0.311891 0
M  V30 14479 C 1361.5 -1.17814 -1.46634 0
M  V30 14480 O 1360.86 -0.182517 -1.80379 0
M  V30 14481 C 1360.91 -3.52831 -0.744489 0
M  V30 14482 O 1360.01 -3.68621 -1.84913 0
M  V30 14483 H 1359.35 -0.661255 -0.0603102 0
M  V30 14484 H 1361.88 -1.99711 0.444593 0
M  V30 14485 H 1361.89 -3.94708 -1.03293 0
M  V30 14486 H 1360.57 -4.1578 0.0999976 0
M  V30 14487 H 1359.15 -3.38649 -1.56113 0
M  V30 14488 N 1361.33 -0.0301034 -1.57571 0
M  V30 14489 C 1362.56 0.658488 -1.96142 0
M  V30 14490 C 1362.97 1.65606 -0.906644 0
M  V30 14491 O 1362.33 1.82159 0.111441 0
M  V30 14492 C 1362.38 1.364 -3.34779 0
M  V30 14493 O 1362.1 0.4064 -4.36211 0
M  V30 14494 C 1363.6 2.14432 -3.87987 0
M  V30 14495 H 1360.82 0.181496 -0.645988 0
M  V30 14496 H 1363.37 -0.09016 -2.04301 0
M  V30 14497 H 1361.52 2.06404 -3.27836 0
M  V30 14498 H 1361.94 0.907503 -5.16589 0
M  V30 14499 H 1363.41 2.59248 -4.87334 0
M  V30 14500 H 1363.89 2.98377 -3.22285 0
M  V30 14501 H 1364.49 1.49383 -3.98202 0
M  V30 14502 N 1362.81 1.55714 0.243056 0
M  V30 14503 C 1363.74 1.93655 1.30461 0
M  V30 14504 C 1364.72 0.801968 1.50008 0
M  V30 14505 O 1365.9 1.06256 1.62552 0
M  V30 14506 C 1363.03 2.23459 2.65863 0
M  V30 14507 C 1361.99 3.39205 2.61006 0
M  V30 14508 C 1361.31 3.5456 4.00239 0
M  V30 14509 C 1362.61 4.74787 2.17656 0
M  V30 14510 H 1364.31 2.82575 0.98954 0
M  V30 14511 H 1361.85 1.35955 0.474572 0
M  V30 14512 H 1363.81 2.48591 3.40266 0
M  V30 14513 H 1362.53 1.31369 2.99014 0
M  V30 14514 H 1361.19 3.14088 1.89061 0
M  V30 14515 H 1360.84 2.59884 4.30661 0
M  V30 14516 H 1360.54 4.32399 3.97876 0
M  V30 14517 H 1362.06 3.82017 4.76335 0
M  V30 14518 H 1363.48 4.99266 2.81792 0
M  V30 14519 H 1361.87 5.55756 2.26397 0
M  V30 14520 H 1362.94 4.7159 1.12831 0
M  V30 14521 N 1364.29 -0.50888 1.49158 0
M  V30 14522 C 1365.7 -1.09054 1.51539 0
M  V30 14523 C 1366.05 -1.93938 0.297099 0
M  V30 14524 O 1365.17 -2.08092 -0.593849 0
M  V30 14525 C 1365.77 -1.98447 2.74599 0
M  V30 14526 C 1364.33 -2.5179 2.79783 0
M  V30 14527 C 1363.47 -1.29227 2.45348 0
M  V30 14528 H 1366.43 -0.293148 1.55969 0
M  V30 14529 H 1366.45 -2.83028 2.54314 0
M  V30 14530 H 1365.96 -1.3664 3.63251 0
M  V30 14531 H 1364.06 -3.17258 1.95392 0
M  V30 14532 H 1364.17 -2.89481 3.81756 0
M  V30 14533 H 1362.54 -1.61494 1.96957 0
M  V30 14534 H 1363.32 -0.6914 3.36266 0
M  V30 14535 N 1365.76 -1.381 -0.759346 0
M  V30 14536 C 1367.01 -1.33311 -1.51364 0
M  V30 14537 C 1367.33 0.0761325 -1.95452 0
M  V30 14538 O 1368.53 0.246541 -2.70378 0
M  V30 14539 C 1366.99 -2.34067 -2.73387 0
M  V30 14540 C 1366.6 -3.80583 -2.36348 0
M  V30 14541 C 1368.34 -2.38311 -3.51295 0
M  V30 14542 C 1366.25 -4.73039 -3.54948 0
M  V30 14543 H 1365.18 -0.495512 -0.568317 0
M  V30 14544 H 1367.83 -1.63625 -0.830602 0
M  V30 14545 H 1366.21 -1.96788 -3.43643 0
M  V30 14546 H 1367.38 -4.26769 -1.73796 0
M  V30 14547 H 1365.7 -3.79403 -1.71587 0
M  V30 14548 H 1368.3 -3.04586 -4.39467 0
M  V30 14549 H 1368.64 -1.40034 -3.92041 0
M  V30 14550 H 1369.17 -2.74361 -2.88047 0
M  V30 14551 H 1365.91 -5.7249 -3.19273 0
M  V30 14552 H 1365.43 -4.3155 -4.16563 0
M  V30 14553 H 1367.11 -4.90775 -4.21603 0
M  V30 14554 N 1367.24 0.986894 -1.22875 0
M  V30 14555 C 1368.49 1.72729 -1.05693 0
M  V30 14556 C 1368.82 1.90191 0.407121 0
M  V30 14557 O 1368.07 1.44667 1.31796 0
M  V30 14558 C 1368.37 3.13283 -1.72012 0
M  V30 14559 C 1368.04 3.15719 -3.2192 0
M  V30 14560 C 1366.7 3.1609 -3.62823 0
M  V30 14561 C 1369.05 3.11539 -4.17843 0
M  V30 14562 C 1366.38 3.09991 -4.98119 0
M  V30 14563 C 1368.73 3.06982 -5.53123 0
M  V30 14564 C 1367.4 3.05672 -5.93397 0
M  V30 14565 H 1366.67 0.63206 -0.386758 0
M  V30 14566 H 1369.31 1.15538 -1.52719 0
M  V30 14567 H 1367.62 3.7382 -1.17327 0
M  V30 14568 H 1369.31 3.69326 -1.56203 0
M  V30 14569 H 1365.9 3.16183 -2.89355 0
M  V30 14570 H 1370.09 3.10397 -3.87256 0
M  V30 14571 H 1365.34 3.07326 -5.28546 0
M  V30 14572 H 1369.52 3.02705 -6.27171 0
M  V30 14573 H 1367.15 3.00701 -6.982 0
M  V30 14574 N 1368.72 1.0394 1.18466 0
M  V30 14575 C 1369.67 0.59975 2.1997 0
M  V30 14576 C 1370.65 -0.357127 1.56887 0
M  V30 14577 O 1371.85 -0.176388 1.76119 0
M  V30 14578 C 1368.98 -0.0371434 3.4328 0
M  V30 14579 C 1368.06 0.942805 4.13488 0
M  V30 14580 N 1368.45 2.10936 4.59717 0
M  V30 14581 C 1366.75 0.768529 4.39329 0
M  V30 14582 C 1367.45 2.72829 5.1375 0
M  V30 14583 N 1366.43 2.00713 5.05188 0
M  V30 14584 H 1370.23 1.48875 2.53403 0
M  V30 14585 H 1367.74 0.907817 1.34657 0
M  V30 14586 H 1369.74 -0.369803 4.15257 0
M  V30 14587 H 1368.4 -0.921701 3.11343 0
M  V30 14588 H 1369.41 2.48831 4.54207 0
M  V30 14589 H 1366.09 -0.0660446 4.17448 0
M  V30 14590 H 1367.48 3.71684 5.59733 0
M  V30 14591 N 1370.2 -1.34667 0.818693 0
M  V30 14592 C 1371.15 -2.29595 0.235551 0
M  V30 14593 C 1372.12 -1.53389 -0.63727 0
M  V30 14594 O 1373.3 -1.81777 -0.579804 0
M  V30 14595 C 1370.44 -3.39843 -0.600043 0
M  V30 14596 C 1369.55 -4.30995 0.294553 0
M  V30 14597 C 1368.69 -5.28343 -0.550203 0
M  V30 14598 C 1367.73 -6.11132 0.344043 0
M  V30 14599 N 1366.86 -7.00582 -0.461392 0
M  V30 14600 H 1371.7 -2.78872 1.05044 0
M  V30 14601 H 1369.24 -1.37239 0.529517 0
M  V30 14602 H 1371.2 -4.02443 -1.09978 0
M  V30 14603 H 1369.83 -2.91811 -1.38008 0
M  V30 14604 H 1368.88 -3.69294 0.912483 0
M  V30 14605 H 1370.19 -4.89031 0.982341 0
M  V30 14606 H 1369.35 -5.96374 -1.11459 0
M  V30 14607 H 1368.09 -4.70833 -1.27151 0
M  V30 14608 H 1367.09 -5.42038 0.920608 0
M  V30 14609 H 1368.32 -6.70722 1.0634 0
M  V30 14610 H 1366.26 -6.45546 -1.16645 0
M  V30 14611 H 1366.18 -7.55813 0.168095 0
M  V30 14612 H 1367.45 -7.72946 -1.00867 0
M  V30 14613 N 1371.68 -0.573274 -1.46804 0
M  V30 14614 C 1372.62 0.178246 -2.31916 0
M  V30 14615 C 1373.62 0.89366 -1.4391 0
M  V30 14616 O 1374.82 0.81312 -1.60588 0
M  V30 14617 H 1371.2 0.0763519 -0.748114 0
M  V30 14618 H 1373.17 -0.558552 -2.93126 0
M  V30 14619 C 1371.92 1.18476 -3.26892 0
M  V30 14620 H 1371.24 0.643691 -3.94584 0
M  V30 14621 H 1372.68 1.68118 -3.89246 0
M  V30 14622 C 1371.14 2.24092 -2.51564 0
M  V30 14623 O 1371.67 3.3129 -2.27178 0
M  V30 14624 N 1369.88 1.98447 -2.1229 0
M  V30 14625 H 1369.42 1.11283 -2.32323 0
M  V30 14626 H 1369.38 2.69325 -1.62207 0
M  V30 14627 N 1373.15 1.5451 -0.310553 0
M  V30 14628 C 1374.4 2.00623 0.296343 0
M  V30 14629 C 1374.73 1.19855 1.52802 0
M  V30 14630 O 1374.01 0.277468 1.92511 0
M  V30 14631 C 1374.29 3.54305 0.643448 0
M  V30 14632 C 1374.14 4.45807 -0.598029 0
M  V30 14633 C 1375.46 4.14958 1.46623 0
M  V30 14634 H 1372.58 0.729303 0.106236 0
M  V30 14635 H 1375.22 1.85196 -0.424549 0
M  V30 14636 H 1373.37 3.67581 1.25762 0
M  V30 14637 H 1375.05 4.44421 -1.23643 0
M  V30 14638 H 1373.29 4.16014 -1.22944 0
M  V30 14639 H 1373.96 5.51124 -0.310883 0
M  V30 14640 H 1376.44 4.05176 0.947199 0
M  V30 14641 H 1375.31 5.22627 1.67787 0
M  V30 14642 H 1375.57 3.67445 2.45839 0
M  V30 14643 N 1374.63 0.0384594 1.57553 0
M  V30 14644 C 1375.88 -0.63814 1.92182 0
M  V30 14645 C 1376.21 -1.71595 0.915714 0
M  V30 14646 O 1375.46 -1.9556 -0.0739533 0
M  V30 14647 C 1375.76 -1.28439 3.33524 0
M  V30 14648 C 1375.43 -0.336034 4.49646 0
M  V30 14649 C 1374.09 -0.0750373 4.81141 0
M  V30 14650 C 1376.44 0.314642 5.20249 0
M  V30 14651 C 1373.77 0.844286 5.80593 0
M  V30 14652 C 1376.12 1.22208 6.20684 0
M  V30 14653 C 1374.79 1.49187 6.50615 0
M  V30 14654 H 1374.06 -0.233512 0.703245 0
M  V30 14655 H 1376.7 0.102223 1.91227 0
M  V30 14656 H 1375.01 -2.09973 3.30785 0
M  V30 14657 H 1376.71 -1.81462 3.57593 0
M  V30 14658 H 1373.3 -0.549638 4.25061 0
M  V30 14659 H 1377.48 0.126074 4.9614 0
M  V30 14660 H 1372.74 1.06092 6.02125 0
M  V30 14661 H 1376.91 1.7324 6.74508 0
M  V30 14662 H 1374.54 2.20588 7.27492 0
M  V30 14663 N 1376.11 -1.55841 -0.234795 0
M  V30 14664 C 1377.06 -1.8772 -1.29403 0
M  V30 14665 C 1378.05 -0.739087 -1.42921 0
M  V30 14666 O 1379.24 -1.00125 -1.45959 0
M  V30 14667 C 1376.37 -2.18592 -2.64712 0
M  V30 14668 C 1375.45 -3.38761 -2.55151 0
M  V30 14669 N 1375.84 -4.57723 -2.15229 0
M  V30 14670 C 1374.14 -3.42112 -2.86138 0
M  V30 14671 C 1374.84 -5.39872 -2.16595 0
M  V30 14672 N 1373.82 -4.79242 -2.5657 0
M  V30 14673 H 1377.62 -2.77219 -0.976067 0
M  V30 14674 H 1375.13 -1.5623 -0.443396 0
M  V30 14675 H 1377.13 -2.39599 -3.41171 0
M  V30 14676 H 1375.79 -1.30398 -2.97366 0
M  V30 14677 H 1376.8 -4.83126 -1.86575 0
M  V30 14678 H 1373.48 -2.64224 -3.23252 0
M  V30 14679 H 1374.87 -6.45072 -1.87967 0
M  V30 14680 N 1377.59 0.500963 -1.49426 0
M  V30 14681 C 1378.82 1.27725 -1.62388 0
M  V30 14682 C 1379.23 1.86893 -0.294544 0
M  V30 14683 O 1378.57 1.68571 0.73003 0
M  V30 14684 C 1378.63 2.44649 -2.63414 0
M  V30 14685 C 1378.3 2.0635 -4.0776 0
M  V30 14686 C 1379.29 1.60323 -4.94563 0
M  V30 14687 C 1376.98 2.15984 -4.53493 0
M  V30 14688 C 1378.97 1.24433 -6.25136 0
M  V30 14689 C 1376.66 1.79706 -5.8408 0
M  V30 14690 C 1377.66 1.34005 -6.69725 0
M  V30 14691 O 1377.35 0.982171 -7.97878 0
M  V30 14692 H 1377.08 0.393595 -0.549599 0
M  V30 14693 H 1379.63 0.607944 -1.96197 0
M  V30 14694 H 1377.86 3.14656 -2.24785 0
M  V30 14695 H 1379.55 3.06675 -2.65905 0
M  V30 14696 H 1380.32 1.52326 -4.60458 0
M  V30 14697 H 1376.2 2.50507 -3.86998 0
M  V30 14698 H 1379.74 0.886906 -6.91939 0
M  V30 14699 H 1375.64 1.87352 -6.17713 0
M  V30 14700 H 1376.4 1.11364 -8.10889 0
M  V30 14701 N 1379.07 1.38501 0.752011 0
M  V30 14702 C 1380 1.38577 1.87933 0
M  V30 14703 C 1380.98 0.251454 1.68231 0
M  V30 14704 O 1382.16 0.45477 1.888 0
M  V30 14705 C 1379.29 1.21164 3.25479 0
M  V30 14706 C 1378.25 2.31816 3.59785 0
M  V30 14707 C 1377.57 1.99508 4.96085 0
M  V30 14708 C 1378.87 3.74082 3.645 0
M  V30 14709 H 1380.57 2.32913 1.88127 0
M  V30 14710 H 1378.11 1.12113 0.903698 0
M  V30 14711 H 1380.07 1.19842 4.04 0
M  V30 14712 H 1378.79 0.232899 3.25769 0
M  V30 14713 H 1377.45 2.32327 2.83584 0
M  V30 14714 H 1377.1 1.00114 4.92936 0
M  V30 14715 H 1376.8 2.73617 5.20007 0
M  V30 14716 H 1378.32 1.99807 5.76983 0
M  V30 14717 H 1379.74 3.75593 4.33131 0
M  V30 14718 H 1378.13 4.47409 3.99931 0
M  V30 14719 H 1379.2 4.06284 2.64692 0
M  V30 14720 N 1380.55 -0.980364 1.23396 0
M  V30 14721 C 1381.48 -2.07099 0.958403 0
M  V30 14722 C 1382.46 -1.62272 -0.1033 0
M  V30 14723 O 1383.64 -1.88475 0.0309639 0
M  V30 14724 C 1380.77 -3.35779 0.443864 0
M  V30 14725 C 1379.81 -3.99545 1.49218 0
M  V30 14726 S 1380.65 -4.3879 3.06958 0
M  V30 14727 C 1381.8 -5.70624 2.57174 0
M  V30 14728 H 1382.04 -2.30154 1.88192 0
M  V30 14729 H 1379.57 -1.11656 1.06641 0
M  V30 14730 H 1381.53 -4.10213 0.153603 0
M  V30 14731 H 1380.19 -3.10732 -0.458738 0
M  V30 14732 H 1379.38 -4.92242 1.0823 0
M  V30 14733 H 1378.98 -3.31489 1.73179 0
M  V30 14734 H 1381.27 -6.47555 1.99197 0
M  V30 14735 H 1382.22 -6.16454 3.48411 0
M  V30 14736 H 1382.63 -5.28626 1.98028 0
M  V30 14737 N 1382.02 -1.04567 -1.17913 0
M  V30 14738 C 1382.99 -0.645476 -2.19923 0
M  V30 14739 C 1383.99 0.299763 -1.57981 0
M  V30 14740 O 1385.18 0.0844825 -1.73995 0
M  V30 14741 C 1382.31 0.0528935 -3.40859 0
M  V30 14742 H 1383.5 -1.54828 -2.56843 0
M  V30 14743 H 1381.05 -0.838812 -1.31885 0
M  V30 14744 H 1381.79 0.969261 -3.09477 0
M  V30 14745 H 1381.57 -0.626558 -3.87062 0
M  V30 14746 H 1383.06 0.319221 -4.16378 0
M  V30 14747 N 1383.5 1.34231 -0.825823 0
M  V30 14748 C 1384.75 1.98196 -0.415276 0
M  V30 14749 C 1385.08 1.65463 1.02236 0
M  V30 14750 O 1384.33 0.919868 1.72734 0
M  V30 14751 C 1384.63 3.52861 -0.56778 0
M  V30 14752 C 1384.3 4.05512 -1.97157 0
M  V30 14753 C 1382.96 4.19602 -2.35557 0
M  V30 14754 C 1385.31 4.33798 -2.88909 0
M  V30 14755 C 1382.64 4.59307 -3.6504 0
M  V30 14756 C 1384.99 4.74949 -4.17859 0
M  V30 14757 C 1383.65 4.87245 -4.56233 0
M  V30 14758 H 1382.92 0.725251 -0.15196 0
M  V30 14759 H 1385.57 1.60126 -1.05033 0
M  V30 14760 H 1383.88 3.9151 0.15065 0
M  V30 14761 H 1385.57 4.00336 -0.230608 0
M  V30 14762 H 1382.16 3.9501 -1.66328 0
M  V30 14763 H 1386.35 4.22448 -2.60483 0
M  V30 14764 H 1381.6 4.67017 -3.94594 0
M  V30 14765 H 1385.78 4.95795 -4.8904 0
M  V30 14766 H 1383.4 5.17768 -5.56615 0
M  V30 14767 N 1384.98 0.581051 1.46498 0
M  V30 14768 C 1385.91 -0.140957 2.33074 0
M  V30 14769 C 1386.89 -0.885323 1.45245 0
M  V30 14770 O 1388.08 -0.86111 1.74065 0
M  V30 14771 C 1385.21 -1.15625 3.27488 0
M  V30 14772 C 1384.16 -0.526829 4.24745 0
M  V30 14773 C 1383.49 -1.64847 5.08655 0
M  V30 14774 C 1384.79 0.53492 5.19554 0
M  V30 14775 H 1386.48 0.581888 2.93691 0
M  V30 14776 H 1384.03 0.281278 1.41226 0
M  V30 14777 H 1385.98 -1.6697 3.8691 0
M  V30 14778 H 1384.7 -1.90935 2.64974 0
M  V30 14779 H 1383.36 -0.0344738 3.66584 0
M  V30 14780 H 1383.01 -2.3912 4.42528 0
M  V30 14781 H 1382.71 -1.23298 5.74518 0
M  V30 14782 H 1384.23 -2.16472 5.7094 0
M  V30 14783 H 1385.65 0.106606 5.73201 0
M  V30 14784 H 1384.04 0.870639 5.93751 0
M  V30 14785 H 1385.11 1.42184 4.63586 0
M  V30 14786 N 1386.46 -1.54343 0.318742 0
M  V30 14787 C 1387.87 -1.59564 -0.034068 0
M  V30 14788 C 1388.07 -1.33539 -1.50896 0
M  V30 14789 O 1387.13 -1.11746 -2.26427 0
M  V30 14790 C 1388.44 -2.98291 0.379827 0
M  V30 14791 C 1389.99 -3.11255 0.330078 0
M  V30 14792 C 1390.47 -4.5232 0.719061 0
M  V30 14793 N 1391.96 -4.58295 0.67228 0
M  V30 14794 C 1392.69 -5.65551 0.945513 0
M  V30 14795 N 1392.19 -6.80767 1.28563 0
M  V30 14796 N 1393.98 -5.55305 0.871394 0
M  V30 14797 H 1386.13 -1.69518 1.27975 0
M  V30 14798 H 1388.39 -0.792627 0.520044 0
M  V30 14799 H 1388.1 -3.22319 1.40724 0
M  V30 14800 H 1387.97 -3.76319 -0.257606 0
M  V30 14801 H 1390.36 -2.86965 -0.688117 0
M  V30 14802 H 1390.44 -2.35342 1.00238 0
M  V30 14803 H 1390.09 -4.77342 1.73515 0
M  V30 14804 H 1390.02 -5.26594 0.0245001 0
M  V30 14805 H 1392.51 -3.75547 0.421059 0
M  V30 14806 H 1392.82 -7.58503 1.47963 0
M  V30 14807 H 1391.17 -6.82275 1.32385 0
M  V30 14808 H 1394.36 -4.64171 0.605205 0
M  V30 14809 H 1394.53 -6.38806 1.08769 0
M  V30 14810 N 1387.94 -0.0468143 -1.5753 0
M  V30 14811 C 1388.85 0.944362 -2.14753 0
M  V30 14812 C 1389.86 1.34473 -1.10422 0
M  V30 14813 O 1391.04 1.42254 -1.42569 0
M  V30 14814 C 1388.1 2.2023 -2.67768 0
M  V30 14815 C 1387.16 1.8607 -3.8688 0
M  V30 14816 C 1386.4 3.05867 -4.37357 0
M  V30 14817 O 1386.62 4.19099 -3.86927 0
M  V30 14818 O 1385.55 2.87134 -5.28997 0
M  V30 14819 H 1389.38 0.48772 -2.99758 0
M  V30 14820 H 1386.96 0.174831 -1.48374 0
M  V30 14821 H 1388.85 2.94044 -3.01855 0
M  V30 14822 H 1387.52 2.65041 -1.85836 0
M  V30 14823 H 1386.43 1.09586 -3.5769 0
M  V30 14824 H 1387.76 1.46062 -4.70028 0
M  V30 14825 N 1389.41 1.55964 0.226527 0
M  V30 14826 C 1390.34 1.95028 1.284 0
M  V30 14827 C 1391.33 0.817833 1.49149 0
M  V30 14828 O 1392.51 1.07975 1.61416 0
M  V30 14829 C 1389.64 2.26266 2.63478 0
M  V30 14830 C 1388.59 3.41954 2.57393 0
M  V30 14831 C 1387.92 3.58786 3.96456 0
M  V30 14832 C 1389.22 4.77069 2.12608 0
M  V30 14833 H 1390.91 2.83608 0.959513 0
M  V30 14834 H 1388.46 1.36451 0.460125 0
M  V30 14835 H 1390.41 2.52186 3.3761 0
M  V30 14836 H 1389.14 1.34533 2.97604 0
M  V30 14837 H 1387.8 3.16076 1.85719 0
M  V30 14838 H 1387.44 2.64437 4.27881 0
M  V30 14839 H 1387.14 4.36595 3.93267 0
M  V30 14840 H 1388.67 3.87048 4.72256 0
M  V30 14841 H 1390.08 5.02226 2.76481 0
M  V30 14842 H 1388.48 5.58126 2.2049 0
M  V30 14843 H 1389.55 4.7276 1.07823 0
M  V30 14844 N 1390.89 -0.493031 1.4969 0
M  V30 14845 C 1391.82 -1.60215 1.69863 0
M  V30 14846 C 1392.8 -1.61053 0.547362 0
M  V30 14847 O 1393.99 -1.77667 0.784093 0
M  V30 14848 C 1391.12 -2.98662 1.77252 0
M  V30 14849 C 1390.07 -3.1269 2.92248 0
M  V30 14850 C 1389.4 -4.52567 2.84758 0
M  V30 14851 C 1390.7 -2.91965 4.33074 0
M  V30 14852 H 1392.39 -1.43587 2.62723 0
M  V30 14853 H 1389.94 -0.689334 1.26429 0
M  V30 14854 H 1391.89 -3.7616 1.89951 0
M  V30 14855 H 1390.62 -3.16397 0.809976 0
M  V30 14856 H 1389.27 -2.37619 2.79164 0
M  V30 14857 H 1388.92 -4.6719 1.86394 0
M  V30 14858 H 1388.62 -4.62893 3.61944 0
M  V30 14859 H 1390.15 -5.32116 2.99475 0
M  V30 14860 H 1391.56 -3.59228 4.46798 0
M  V30 14861 H 1389.96 -3.13756 5.11544 0
M  V30 14862 H 1391.03 -1.88015 4.46966 0
M  V30 14863 N 1392.37 -1.38898 -0.744656 0
M  V30 14864 C 1393.32 -1.36845 -1.85855 0
M  V30 14865 C 1394.29 -0.2296 -1.64505 0
M  V30 14866 O 1395.47 -0.423221 -1.86047 0
M  V30 14867 C 1392.61 -1.20818 -3.2326 0
M  V30 14868 C 1391.73 -2.44166 -3.5638 0
M  V30 14869 C 1390.86 -2.20801 -4.83136 0
M  V30 14870 C 1389.9 -3.39874 -5.0907 0
M  V30 14871 N 1389.04 -3.15888 -6.27024 0
M  V30 14872 H 1393.88 -2.32068 -1.86945 0
M  V30 14873 H 1391.41 -1.15289 -0.913611 0
M  V30 14874 H 1393.37 -1.0954 -4.02563 0
M  V30 14875 H 1392 -0.292295 -3.21474 0
M  V30 14876 H 1391.05 -2.66083 -2.71852 0
M  V30 14877 H 1392.37 -3.32885 -3.71469 0
M  V30 14878 H 1391.52 -2.0671 -5.704 0
M  V30 14879 H 1390.26 -1.29462 -4.70203 0
M  V30 14880 H 1389.26 -3.54474 -4.20271 0
M  V30 14881 H 1390.49 -4.32102 -5.23894 0
M  V30 14882 H 1388.43 -2.27204 -6.15398 0
M  V30 14883 H 1388.35 -3.9816 -6.42655 0
M  V30 14884 H 1389.62 -3.0547 -7.17153 0
M  V30 14885 N 1393.85 0.973806 -1.23914 0
M  V30 14886 C 1394.8 2.08861 -1.02372 0
M  V30 14887 C 1395.79 1.69354 0.039415 0
M  V30 14888 O 1397 1.79635 -0.114637 0
M  V30 14889 H 1393.37 0.683313 -0.313986 0
M  V30 14890 H 1395.34 2.24195 -1.96924 0
M  V30 14891 C 1394.09 3.41784 -0.638661 0
M  V30 14892 H 1393.41 3.72639 -1.44846 0
M  V30 14893 H 1394.85 4.20706 -0.527487 0
M  V30 14894 C 1393.31 3.30497 0.65369 0
M  V30 14895 O 1393.84 3.63905 1.70107 0
M  V30 14896 N 1392.05 2.83642 0.632104 0
M  V30 14897 H 1391.6 2.56654 -0.220571 0
M  V30 14898 H 1391.55 2.76472 1.49701 0
M  V30 14899 N 1395.33 1.05191 1.17357 0
M  V30 14900 C 1396.55 0.782343 1.92079 0
M  V30 14901 C 1396.98 -0.655957 1.76292 0
M  V30 14902 O 1396.33 -1.45573 1.08065 0
M  V30 14903 C 1396.38 1.16777 3.41168 0
M  V30 14904 O 1395.49 0.299908 4.11308 0
M  V30 14905 H 1394.83 0.286894 0.598822 0
M  V30 14906 H 1397.36 1.40476 1.48754 0
M  V30 14907 H 1397.37 1.13454 3.91909 0
M  V30 14908 H 1396.04 2.2155 3.51978 0
M  V30 14909 H 1394.62 0.393744 3.70815 0
M  V30 14910 N 1396.8 -1.33791 0.83293 0
M  V30 14911 C 1397.77 -2.27637 0.267196 0
M  V30 14912 C 1398.77 -1.50709 -0.560669 0
M  V30 14913 O 1399.96 -1.70109 -0.375321 0
M  V30 14914 C 1397.09 -3.35136 -0.624248 0
M  V30 14915 H 1398.28 -2.79186 1.09522 0
M  V30 14916 H 1395.84 -1.44093 0.605554 0
M  V30 14917 H 1396.57 -2.88818 -1.47494 0
M  V30 14918 H 1396.36 -3.92087 -0.0319827 0
M  V30 14919 H 1397.85 -4.05113 -1.01355 0
M  V30 14920 N 1398.28 -0.588812 -1.46187 0
M  V30 14921 C 1399.23 0.140932 -2.30369 0
M  V30 14922 C 1400.2 0.878216 -1.40984 0
M  V30 14923 O 1401.38 0.867678 -1.69929 0
M  V30 14924 C 1398.52 1.14468 -3.25563 0
M  V30 14925 C 1397.64 0.410215 -4.30048 0
M  V30 14926 C 1396.77 1.40203 -5.12364 0
M  V30 14927 C 1395.81 0.65431 -6.08593 0
M  V30 14928 N 1394.95 1.59448 -6.83755 0
M  V30 14929 H 1399.79 -0.582976 -2.92242 0
M  V30 14930 H 1397.33 -0.299302 -1.44023 0
M  V30 14931 H 1399.28 1.73957 -3.79203 0
M  V30 14932 H 1397.91 1.83623 -2.65485 0
M  V30 14933 H 1396.97 -0.299822 -3.79217 0
M  V30 14934 H 1398.28 -0.174043 -4.98496 0
M  V30 14935 H 1397.43 2.06953 -5.70312 0
M  V30 14936 H 1396.17 2.02022 -4.4389 0
M  V30 14937 H 1395.18 -0.0269371 -5.49793 0
M  V30 14938 H 1396.4 0.0414285 -6.79087 0
M  V30 14939 H 1394.35 2.20066 -6.17986 0
M  V30 14940 H 1394.26 1.06318 -7.48487 0
M  V30 14941 H 1395.53 2.25215 -7.46256 0
M  V30 14942 N 1399.76 1.54172 -0.326923 0
M  V30 14943 C 1400.71 2.25931 0.552996 0
M  V30 14944 C 1401.7 1.27463 1.11578 0
M  V30 14945 O 1402.91 1.45228 1.06343 0
M  V30 14946 H 1399.28 0.725741 0.196988 0
M  V30 14947 H 1401.25 2.98307 -0.0744603 0
M  V30 14948 C 1400 3.03276 1.70056 0
M  V30 14949 H 1399.33 3.78865 1.27676 0
M  V30 14950 H 1400.77 3.56727 2.29177 0
M  V30 14951 C 1399.23 2.11775 2.62017 0
M  V30 14952 O 1399.76 1.70282 3.63822 0
M  V30 14953 N 1397.96 1.77195 2.30327 0
M  V30 14954 H 1397.51 2.11135 1.4758 0
M  V30 14955 H 1397.47 1.16253 2.92117 0
M  V30 14956 N 1401.24 0.0551678 1.57503 0
M  V30 14957 C 1402.19 -0.927586 2.08278 0
M  V30 14958 C 1403.17 -1.26931 0.988802 0
M  V30 14959 O 1404.36 -1.25107 1.25209 0
M  V30 14960 C 1401.49 -2.20105 2.63456 0
M  V30 14961 C 1400.58 -1.88654 3.7983 0
M  V30 14962 N 1400.97 -1.2758 4.89446 0
M  V30 14963 C 1399.27 -2.185 3.8881 0
M  V30 14964 C 1399.97 -1.13848 5.7045 0
M  V30 14965 N 1398.95 -1.6427 5.18186 0
M  V30 14966 H 1402.75 -0.450784 2.90422 0
M  V30 14967 H 1400.26 -0.149178 1.61713 0
M  V30 14968 H 1402.26 -2.9141 2.98137 0
M  V30 14969 H 1400.92 -2.68388 1.82752 0
M  V30 14970 H 1401.93 -0.947506 5.09159 0
M  V30 14971 H 1398.61 -2.69276 3.19056 0
M  V30 14972 H 1400 -0.664014 6.68611 0
M  V30 14973 N 1402.72 -1.56081 -0.218252 0
M  V30 14974 C 1403.65 -1.95706 -1.27364 0
M  V30 14975 C 1404.63 -0.825731 -1.48713 0
M  V30 14976 O 1405.81 -1.08829 -1.60841 0
M  V30 14977 C 1402.94 -2.2766 -2.62275 0
M  V30 14978 C 1401.9 -3.43314 -2.55576 0
M  V30 14979 C 1401.22 -3.60883 -3.94547 0
M  V30 14980 C 1402.52 -4.7819 -2.10075 0
M  V30 14981 H 1404.22 -2.84113 -0.944459 0
M  V30 14982 H 1401.76 -1.36693 -0.452882 0
M  V30 14983 H 1403.72 -2.53973 -3.36268 0
M  V30 14984 H 1402.44 -1.3611 -2.96887 0
M  V30 14985 H 1401.1 -3.17056 -1.8404 0
M  V30 14986 H 1400.75 -2.66703 -4.26472 0
M  V30 14987 H 1400.45 -4.38674 -3.90946 0
M  V30 14988 H 1401.97 -3.89547 -4.70197 0
M  V30 14989 H 1403.38 -5.03686 -2.73813 0
M  V30 14990 H 1401.78 -5.59287 -2.17527 0
M  V30 14991 H 1402.85 -4.73325 -1.05314 0
M  V30 14992 N 1404.2 0.485086 -1.49949 0
M  V30 14993 C 1405.47 1.24639 -1.50747 0
M  V30 14994 C 1405.85 2.09683 -0.244162 0
M  V30 14995 O 1405.2 2.1503 0.772949 0
M  V30 14996 C 1405.41 2.08946 -2.7954 0
M  V30 14997 C 1406.76 2.67604 -3.29656 0
M  V30 14998 O 1407.78 2.192 -2.80766 0
M  V30 14999 O 1406.64 3.55761 -4.14845 0
M  V30 15000 H 1403.74 0.564849 -0.604049 0
M  V30 15001 H 1406.28 0.498052 -1.62227 0
M  V30 15002 H 1405.05 1.46185 -3.62968 0
M  V30 15003 H 1404.68 2.90941 -2.70997 0
M  V30 15004 N 1405.67 1.39291 0.737279 0
M  V30 15005 C 1406.58 1.40098 1.88175 0
M  V30 15006 C 1407.6 0.296053 1.71463 0
M  V30 15007 O 1408.78 0.537153 1.94105 0
M  V30 15008 C 1405.84 1.24071 3.2374 0
M  V30 15009 C 1404.9 2.44515 3.52861 0
M  V30 15010 C 1404.13 2.29243 4.81958 0
M  V30 15011 O 1404.36 1.2947 5.55512 0
M  V30 15012 O 1403.29 3.18178 5.10927 0
M  V30 15013 H 1407.12 2.36565 1.90449 0
M  V30 15014 H 1404.7 1.20382 0.884786 0
M  V30 15015 H 1406.58 1.17257 4.04758 0
M  V30 15016 H 1405.26 0.30698 3.22241 0
M  V30 15017 H 1404.17 2.56905 2.71939 0
M  V30 15018 H 1405.5 3.36573 3.59137 0
M  V30 15019 N 1407.15 -0.967221 1.24429 0
M  V30 15020 C 1408.1 -2.08315 1.03478 0
M  V30 15021 C 1409.09 -1.69373 -0.0304332 0
M  V30 15022 O 1410.3 -1.79571 0.124162 0
M  V30 15023 H 1406.67 -0.681638 0.317605 0
M  V30 15024 H 1408.65 -2.23148 1.9811 0
M  V30 15025 C 1407.39 -3.41441 0.656778 0
M  V30 15026 H 1406.72 -3.71865 1.4682 0
M  V30 15027 H 1408.16 -4.2042 0.549791 0
M  V30 15028 C 1406.62 -3.30839 -0.636154 0
M  V30 15029 O 1407.15 -3.64802 -1.68175 0
M  V30 15030 N 1405.35 -2.83973 -0.617052 0
M  V30 15031 H 1404.9 -2.56533 0.234179 0
M  V30 15032 H 1404.86 -2.77262 -1.48233 0
M  V30 15033 N 1408.63 -1.05812 -1.16797 0
M  V30 15034 C 1409.88 -0.767008 -1.86547 0
M  V30 15035 C 1410.19 0.708979 -1.82299 0
M  V30 15036 O 1411.4 1.11428 -2.4758 0
M  V30 15037 C 1409.85 -1.32186 -3.34746 0
M  V30 15038 C 1409.46 -2.82774 -3.4748 0
M  V30 15039 C 1411.21 -1.10808 -4.09783 0
M  V30 15040 C 1409.11 -3.31529 -4.89737 0
M  V30 15041 H 1408.04 -0.283235 -0.698781 0
M  V30 15042 H 1410.69 -1.27621 -1.31853 0
M  V30 15043 H 1409.08 -0.740453 -3.89016 0
M  V30 15044 H 1410.25 -3.46825 -3.03396 0
M  V30 15045 H 1408.56 -3.02765 -2.85871 0
M  V30 15046 H 1411.16 -1.44728 -5.14741 0
M  V30 15047 H 1411.5 -0.046167 -4.16274 0
M  V30 15048 H 1412.04 -1.65502 -3.61737 0
M  V30 15049 H 1408.78 -4.37177 -4.88422 0
M  V30 15050 H 1408.3 -2.72224 -5.34466 0
M  V30 15051 H 1409.98 -3.26572 -5.58534 0
M  V30 15052 N 1410.11 1.33347 -0.840014 0
M  V30 15053 C 1411.04 2.31703 -0.289138 0
M  V30 15054 C 1412.02 1.59024 0.603759 0
M  V30 15055 O 1413.2 1.86911 0.527071 0
M  V30 15056 C 1410.33 3.43144 0.53566 0
M  V30 15057 C 1409.29 4.272 -0.261544 0
M  V30 15058 C 1408.61 5.30267 0.687075 0
M  V30 15059 C 1409.91 5.00915 -1.47924 0
M  V30 15060 H 1411.61 2.78026 -1.11094 0
M  V30 15061 H 1409.15 1.33666 -0.535658 0
M  V30 15062 H 1411.11 4.10979 0.931351 0
M  V30 15063 H 1409.83 2.95512 1.39069 0
M  V30 15064 H 1408.49 3.60991 -0.638809 0
M  V30 15065 H 1408.14 4.78893 1.53853 0
M  V30 15066 H 1407.84 5.87388 0.157773 0
M  V30 15067 H 1409.36 6.00968 1.08026 0
M  V30 15068 H 1410.78 5.61511 -1.15664 0
M  V30 15069 H 1409.17 5.67692 -1.94541 0
M  V30 15070 H 1410.24 4.29622 -2.24839 0
M  V30 15071 N 1411.59 0.596556 1.45873 0
M  V30 15072 C 1412.55 -0.118666 2.28893 0
M  V30 15073 C 1413.55 -0.805668 1.3916 0
M  V30 15074 O 1414.74 -0.655511 1.61396 0
M  V30 15075 C 1411.87 -1.17789 3.19904 0
M  V30 15076 H 1413.06 0.611093 2.93608 0
M  V30 15077 H 1410.62 0.355115 1.52212 0
M  V30 15078 H 1411.35 -1.93878 2.59965 0
M  V30 15079 H 1411.14 -0.689616 3.85988 0
M  V30 15080 H 1412.63 -1.67912 3.82355 0
M  V30 15081 N 1413.06 -1.53996 0.335095 0
M  V30 15082 C 1414.29 -2.05657 -0.268328 0
M  V30 15083 C 1414.71 -1.20897 -1.44102 0
M  V30 15084 O 1414.07 -0.220737 -1.79951 0
M  V30 15085 C 1414.12 -3.54331 -0.669481 0
M  V30 15086 O 1413.22 -3.7246 -1.77052 0
M  V30 15087 H 1412.56 -0.662386 -0.0462705 0
M  V30 15088 H 1415.09 -1.98723 0.486854 0
M  V30 15089 H 1415.1 -3.9681 -0.948971 0
M  V30 15090 H 1413.78 -4.15474 0.188168 0
M  V30 15091 H 1412.36 -3.41884 -1.48895 0
M  V30 15092 N 1414.54 -0.0635198 -1.57472 0
M  V30 15093 C 1415.79 0.607008 -1.92349 0
M  V30 15094 C 1416.1 1.71268 -0.944806 0
M  V30 15095 O 1417.31 2.44221 -1.18609 0
M  V30 15096 C 1415.77 1.13105 -3.41666 0
M  V30 15097 C 1415.37 0.0568256 -4.47964 0
M  V30 15098 C 1417.12 1.77611 -3.85557 0
M  V30 15099 C 1415.02 0.594443 -5.88405 0
M  V30 15100 H 1413.95 0.230506 -0.717902 0
M  V30 15101 H 1416.61 -0.134413 -1.83007 0
M  V30 15102 H 1414.99 1.92517 -3.46054 0
M  V30 15103 H 1416.16 -0.717371 -4.55182 0
M  V30 15104 H 1414.48 -0.491517 -4.13489 0
M  V30 15105 H 1417.07 2.18852 -4.87861 0
M  V30 15106 H 1417.42 2.6328 -3.22474 0
M  V30 15107 H 1417.95 1.04834 -3.83738 0
M  V30 15108 H 1414.69 -0.224893 -6.55114 0
M  V30 15109 H 1414.21 1.33635 -5.84724 0
M  V30 15110 H 1415.89 1.07346 -6.38033 0
M  V30 15111 N 1416.02 1.56195 0.209972 0
M  V30 15112 C 1417.27 1.79745 0.932638 0
M  V30 15113 C 1417.59 0.634252 1.83868 0
M  V30 15114 O 1416.85 -0.380798 1.91959 0
M  V30 15115 C 1417.15 3.09154 1.79328 0
M  V30 15116 C 1416.81 4.38754 1.03949 0
M  V30 15117 C 1415.48 4.73965 0.831308 0
M  V30 15118 C 1417.83 5.18718 0.508031 0
M  V30 15119 C 1415.16 5.86646 0.0799547 0
M  V30 15120 C 1417.51 6.32182 -0.230037 0
M  V30 15121 C 1416.17 6.65986 -0.449366 0
M  V30 15122 H 1415.44 0.657732 0.341276 0
M  V30 15123 H 1418.09 1.90453 0.199998 0
M  V30 15124 H 1416.39 2.93618 2.59414 0
M  V30 15125 H 1418.09 3.24578 2.35478 0
M  V30 15126 H 1414.68 4.11114 1.21174 0
M  V30 15127 H 1418.87 4.91941 0.656306 0
M  V30 15128 H 1414.12 6.11318 -0.100092 0
M  V30 15129 H 1418.3 6.93367 -0.649296 0
M  V30 15130 H 1415.92 7.53142 -1.03349 0
M  V30 15131 N 1417.5 -0.477127 1.50204 0
M  V30 15132 C 1418.75 -1.22722 1.60573 0
M  V30 15133 C 1419.07 -1.92595 0.305326 0
M  V30 15134 O 1418.34 -1.83836 -0.676842 0
M  V30 15135 H 1416.92 -0.455973 0.591691 0
M  V30 15136 H 1419.58 -0.550915 1.86952 0
M  V30 15137 H 1418.67 -1.97837 2.41385 0
M  V30 15138 N 1418.98 -1.3968 -0.729882 0
M  V30 15139 C 1420.2 -1.40654 -1.52418 0
M  V30 15140 C 1420.63 -0.00428997 -1.881 0
M  V30 15141 O 1419.98 0.984023 -1.52272 0
M  V30 15142 C 1420.03 -2.29057 -2.78506 0
M  V30 15143 O 1419.14 -1.72397 -3.74637 0
M  V30 15144 H 1418.48 -0.478761 -0.460091 0
M  V30 15145 H 1421.01 -1.83738 -0.900087 0
M  V30 15146 H 1421.02 -2.43748 -3.27187 0
M  V30 15147 H 1419.69 -3.30961 -2.51868 0
M  V30 15148 H 1418.27 -1.66977 -3.33426 0
M  V30 15149 N 1420.45 0.960609 -1.2494 0
M  V30 15150 C 1421.38 2.074 -1.07274 0
M  V30 15151 C 1422.37 1.70092 0.0164365 0
M  V30 15152 O 1423.55 1.93604 -0.151975 0
M  V30 15153 C 1420.68 3.40491 -0.684317 0
M  V30 15154 C 1419.63 3.91784 -1.72306 0
M  V30 15155 C 1418.96 5.21301 -1.18949 0
M  V30 15156 C 1420.26 4.18829 -3.12056 0
M  V30 15157 H 1421.95 2.22438 -2.00404 0
M  V30 15158 H 1419.5 1.06888 -0.964937 0
M  V30 15159 H 1421.45 4.17826 -0.547686 0
M  V30 15160 H 1420.18 3.25374 0.282687 0
M  V30 15161 H 1418.84 3.16613 -1.84802 0
M  V30 15162 H 1418.48 5.02549 -0.212892 0
M  V30 15163 H 1418.18 5.56588 -1.8837 0
M  V30 15164 H 1419.71 6.01238 -1.06513 0
M  V30 15165 H 1421.12 4.86844 -3.02748 0
M  V30 15166 H 1419.52 4.6536 -3.78894 0
M  V30 15167 H 1420.59 3.25333 -3.59564 0
M  V30 15168 N 1421.93 1.0643 1.16234 0
M  V30 15169 C 1422.86 0.697605 2.22836 0
M  V30 15170 C 1423.84 -0.310563 1.67241 0
M  V30 15171 O 1425.03 -0.185385 1.93313 0
M  V30 15172 C 1422.16 0.0847097 3.47197 0
M  V30 15173 C 1421.11 1.019 4.15693 0
M  V30 15174 C 1420.44 0.269339 5.34021 0
M  V30 15175 C 1421.74 2.34861 4.66516 0
M  V30 15176 H 1423.43 1.58883 2.53765 0
M  V30 15177 H 1420.98 0.765388 1.21975 0
M  V30 15178 H 1422.93 -0.1837 4.20999 0
M  V30 15179 H 1421.66 -0.84154 3.15572 0
M  V30 15180 H 1420.31 1.27218 3.43818 0
M  V30 15181 H 1419.96 -0.660072 4.9865 0
M  V30 15182 H 1419.66 0.892001 5.8079 0
M  V30 15183 H 1421.19 0.00850775 6.10599 0
M  V30 15184 H 1422.6 2.13922 5.31893 0
M  V30 15185 H 1421 2.92637 5.23912 0
M  V30 15186 H 1422.07 2.97834 3.82653 0
M  V30 15187 N 1423.41 -1.329 0.847073 0
M  V30 15188 C 1424.34 -2.31546 0.301422 0
M  V30 15189 C 1425.32 -1.59342 -0.595317 0
M  V30 15190 O 1426.51 -1.87188 -0.517151 0
M  V30 15191 C 1423.64 -3.43423 -0.517454 0
M  V30 15192 C 1422.59 -4.27055 0.284195 0
M  V30 15193 C 1421.92 -5.30624 -0.658944 0
M  V30 15194 C 1423.22 -5.00123 1.50578 0
M  V30 15195 H 1424.91 -2.77433 1.12567 0
M  V30 15196 H 1422.46 -1.3338 0.542739 0
M  V30 15197 H 1424.41 -4.11467 -0.909543 0
M  V30 15198 H 1423.13 -2.96246 -1.37499 0
M  V30 15199 H 1421.79 -3.60648 0.657944 0
M  V30 15200 H 1421.44 -4.79702 -1.51311 0
M  V30 15201 H 1421.14 -5.87464 -0.12662 0
M  V30 15202 H 1422.66 -6.01533 -1.04837 0
M  V30 15203 H 1424.08 -5.6089 1.18641 0
M  V30 15204 H 1422.48 -5.66652 1.97549 0
M  V30 15205 H 1423.55 -4.28424 2.27115 0
M  V30 15206 N 1424.89 -0.604284 -1.45555 0
M  V30 15207 C 1426.3 -0.267665 -1.57339 0
M  V30 15208 C 1426.5 1.22984 -1.59616 0
M  V30 15209 O 1425.56 2.0127 -1.52468 0
M  V30 15210 C 1426.87 -0.935923 -2.85764 0
M  V30 15211 C 1428.42 -0.911531 -2.99433 0
M  V30 15212 C 1428.9 -1.55974 -4.30623 0
M  V30 15213 N 1430.39 -1.52507 -4.37374 0
M  V30 15214 C 1431.12 -1.9958 -5.37546 0
M  V30 15215 N 1430.62 -2.54724 -6.44273 0
M  V30 15216 N 1432.41 -1.90368 -5.28882 0
M  V30 15217 H 1424.56 -1.57666 -1.42321 0
M  V30 15218 H 1426.83 -0.66028 -0.680245 0
M  V30 15219 H 1426.53 -1.99022 -2.89971 0
M  V30 15220 H 1426.41 -0.457194 -3.74419 0
M  V30 15221 H 1428.79 0.134206 -2.94795 0
M  V30 15222 H 1428.87 -1.42849 -2.12197 0
M  V30 15223 H 1428.52 -2.60479 -4.3602 0
M  V30 15224 H 1428.45 -1.01782 -5.1667 0
M  V30 15225 H 1430.94 -1.12221 -3.60853 0
M  V30 15226 H 1431.25 -2.88445 -7.16951 0
M  V30 15227 H 1429.6 -2.58761 -6.45033 0
M  V30 15228 H 1432.79 -1.47029 -4.4441 0
M  V30 15229 H 1432.96 -2.27367 -6.06802 0
M  V30 15230 N 1426.37 1.53816 -0.343257 0
M  V30 15231 C 1427.31 2.26505 0.529002 0
M  V30 15232 C 1428.31 1.28639 1.1022 0
M  V30 15233 O 1429.51 1.46348 1.04797 0
M  V30 15234 H 1425.89 0.727789 0.189279 0
M  V30 15235 H 1427.86 2.98211 -0.106096 0
M  V30 15236 C 1426.61 3.05062 1.6683 0
M  V30 15237 H 1425.93 3.80198 1.23651 0
M  V30 15238 H 1427.37 3.59138 2.2538 0
M  V30 15239 C 1425.83 2.14543 2.59756 0
M  V30 15240 O 1426.36 1.74132 3.61996 0
M  V30 15241 N 1424.57 1.79628 2.28434 0
M  V30 15242 H 1424.11 2.12688 1.45332 0
M  V30 15243 H 1424.07 1.19345 2.90868 0
M  V30 15244 N 1427.84 0.0718701 1.57436 0
M  V30 15245 C 1429.26 -0.460784 1.80924 0
M  V30 15246 C 1429.61 -1.69637 0.985781 0
M  V30 15247 O 1428.73 -2.15395 0.208319 0
M  V30 15248 C 1429.33 -0.842738 3.28151 0
M  V30 15249 C 1427.89 -1.32026 3.52486 0
M  V30 15250 C 1427.03 -0.305466 2.75612 0
M  V30 15251 H 1429.98 0.297566 1.55885 0
M  V30 15252 H 1430 -1.70414 3.40205 0
M  V30 15253 H 1429.52 0.056733 3.88059 0
M  V30 15254 H 1427.62 -2.23822 2.97883 0
M  V30 15255 H 1427.73 -1.29813 4.61178 0
M  V30 15256 H 1426.09 -0.782758 2.42374 0
M  V30 15257 H 1426.88 0.586279 3.38257 0
M  V30 15258 N 1429.32 -1.56304 -0.201686 0
M  V30 15259 C 1430.29 -1.93171 -1.2336 0
M  V30 15260 C 1431.29 -0.812164 -1.38782 0
M  V30 15261 O 1432.48 -1.07967 -1.36707 0
M  V30 15262 C 1429.61 -2.19997 -2.60411 0
M  V30 15263 H 1430.8 -2.85483 -0.918654 0
M  V30 15264 H 1428.35 -1.49893 -0.442935 0
M  V30 15265 H 1429.09 -1.30301 -2.96972 0
M  V30 15266 H 1428.87 -3.01574 -2.5059 0
M  V30 15267 H 1430.36 -2.49547 -3.34838 0
M  V30 15268 N 1430.8 0.469154 -1.50455 0
M  V30 15269 C 1432.05 1.21868 -1.61222 0
M  V30 15270 C 1432.37 1.9243 -0.315535 0
M  V30 15271 O 1431.64 1.84192 0.667083 0
M  V30 15272 H 1430.22 0.452828 -0.594101 0
M  V30 15273 H 1432.88 0.540993 -1.87241 0
M  V30 15274 H 1431.98 1.96554 -2.42431 0
M  V30 15275 N 1432.28 1.40065 0.722464 0
M  V30 15276 C 1433.23 1.36267 1.82798 0
M  V30 15277 C 1434.21 0.241375 1.59079 0
M  V30 15278 O 1435.4 0.479929 1.70369 0
M  V30 15279 C 1432.53 1.22086 3.20858 0
M  V30 15280 C 1431.62 2.38969 3.50364 0
M  V30 15281 N 1432.01 3.6445 3.50727 0
M  V30 15282 C 1430.31 2.32199 3.80788 0
M  V30 15283 C 1431.01 4.41816 3.78383 0
M  V30 15284 N 1429.99 3.71565 3.96787 0
M  V30 15285 H 1433.79 2.31236 1.81403 0
M  V30 15286 H 1431.3 1.33739 0.92128 0
M  V30 15287 H 1433.3 1.17448 4.00014 0
M  V30 15288 H 1431.96 0.280787 3.23484 0
M  V30 15289 H 1432.97 3.97705 3.3174 0
M  V30 15290 H 1429.65 1.46521 3.90945 0
M  V30 15291 H 1431.04 5.5064 3.85027 0
M  V30 15292 N 1433.76 -0.95397 1.25448 0
M  V30 15293 C 1434.69 -2.05412 1.01679 0
M  V30 15294 C 1435.7 -1.62789 -0.0184932 0
M  V30 15295 O 1436.89 -1.77137 0.220136 0
M  V30 15296 C 1433.99 -3.3496 0.515292 0
M  V30 15297 C 1433.16 -4.06418 1.61688 0
M  V30 15298 C 1432.22 -5.14237 1.11564 0
M  V30 15299 O 1431.25 -5.39649 1.81017 0
M  V30 15300 N 1432.45 -5.80484 -0.0427228 0
M  V30 15301 H 1435.22 -2.26372 1.96407 0
M  V30 15302 H 1432.78 -1.12257 1.16662 0
M  V30 15303 H 1434.77 -4.04366 0.164426 0
M  V30 15304 H 1433.34 -3.10767 -0.33807 0
M  V30 15305 H 1432.56 -3.31101 2.1393 0
M  V30 15306 H 1433.85 -4.50917 2.35693 0
M  V30 15307 H 1433.25 -5.62259 -0.623038 0
M  V30 15308 H 1431.8 -6.50941 -0.334615 0
M  V30 15309 N 1435.24 -1.07045 -1.15668 0
M  V30 15310 C 1436.18 -0.688004 -2.20307 0
M  V30 15311 C 1437.15 0.319081 -1.63006 0
M  V30 15312 O 1438.34 0.206239 -1.89682 0
M  V30 15313 C 1435.48 -0.0886692 -3.44986 0
M  V30 15314 C 1434.59 -1.14685 -4.16499 0
M  V30 15315 C 1433.73 -0.512852 -5.28719 0
M  V30 15316 C 1432.76 -1.55404 -5.92044 0
M  V30 15317 N 1431.9 -0.942848 -6.9574 0
M  V30 15318 H 1436.74 -1.58469 -2.52372 0
M  V30 15319 H 1434.28 -0.792184 -1.23947 0
M  V30 15320 H 1436.24 0.276415 -4.16283 0
M  V30 15321 H 1434.87 0.77139 -3.13448 0
M  V30 15322 H 1433.92 -1.62955 -3.43729 0
M  V30 15323 H 1435.23 -1.93643 -4.59678 0
M  V30 15324 H 1434.38 -0.0952274 -6.06625 0
M  V30 15325 H 1433.12 0.308524 -4.86723 0
M  V30 15326 H 1432.13 -1.98148 -5.12852 0
M  V30 15327 H 1433.35 -2.37765 -6.36117 0
M  V30 15328 H 1431.3 -0.142319 -6.55846 0
M  V30 15329 H 1431.22 -1.6697 -7.37331 0
M  V30 15330 H 1432.48 -0.550621 -7.77553 0
M  V30 15331 N 1436.71 1.32449 -0.85411 0
M  V30 15332 C 1437.64 2.31383 -0.313697 0
M  V30 15333 C 1438.62 1.59656 0.586858 0
M  V30 15334 O 1439.81 1.87459 0.507216 0
M  V30 15335 C 1436.94 3.43693 0.499235 0
M  V30 15336 C 1435.89 4.26899 -0.306839 0
M  V30 15337 C 1435.22 5.30966 0.630795 0
M  V30 15338 C 1436.52 4.99318 -1.53229 0
M  V30 15339 H 1438.21 2.76832 -1.14037 0
M  V30 15340 H 1435.76 1.33091 -0.549805 0
M  V30 15341 H 1437.71 4.11944 0.887709 0
M  V30 15342 H 1436.44 2.96971 1.35926 0
M  V30 15343 H 1435.1 3.60294 -0.677061 0
M  V30 15344 H 1434.74 4.80498 1.48765 0
M  V30 15345 H 1434.44 5.87522 0.0954635 0
M  V30 15346 H 1435.97 6.0208 1.01646 0
M  V30 15347 H 1437.38 5.60253 -1.21614 0
M  V30 15348 H 1435.78 5.65596 -2.00552 0
M  V30 15349 H 1436.85 4.27213 -2.29383 0
M  V30 15350 N 1438.19 0.611994 1.45232 0
M  V30 15351 C 1439.47 0.0407 1.95558 0
M  V30 15352 C 1439.85 -1.42839 1.55436 0
M  V30 15353 O 1439.2 -2.13316 0.819055 0
M  V30 15354 C 1439.41 0.243436 3.4815 0
M  V30 15355 C 1440.75 0.126551 4.24411 0
M  V30 15356 O 1441.78 0.17379 3.55776 0
M  V30 15357 O 1440.64 0.0153526 5.46498 0
M  V30 15358 H 1437.73 -0.0332288 0.826332 0
M  V30 15359 H 1440.28 0.682364 1.55377 0
M  V30 15360 H 1439.05 1.26357 3.70337 0
M  V30 15361 H 1438.67 -0.43328 3.95232 0
M  V30 15362 N 1439.67 -1.53632 0.351409 0
M  V30 15363 C 1440.6 -2.21598 -0.544952 0
M  V30 15364 C 1441.58 -1.20279 -1.09415 0
M  V30 15365 O 1442.76 -1.49129 -1.15295 0
M  V30 15366 C 1439.89 -2.89959 -1.75048 0
M  V30 15367 C 1438.94 -4.05232 -1.33002 0
M  V30 15368 S 1439.77 -5.34399 -0.343204 0
M  V30 15369 C 1440.93 -6.06266 -1.55538 0
M  V30 15370 H 1441.16 -2.97282 0.0323028 0
M  V30 15371 H 1438.69 -1.53804 0.13549 0
M  V30 15372 H 1440.65 -3.29961 -2.44204 0
M  V30 15373 H 1439.31 -2.14025 -2.29896 0
M  V30 15374 H 1438.5 -4.52027 -2.22907 0
M  V30 15375 H 1438.11 -3.67046 -0.717841 0
M  V30 15376 H 1440.4 -6.30137 -2.48865 0
M  V30 15377 H 1441.34 -6.9904 -1.12907 0
M  V30 15378 H 1441.75 -5.36526 -1.755 0
M  V30 15379 N 1441.15 -0.0802183 -1.57396 0
M  V30 15380 C 1442.38 0.595754 -1.98137 0
M  V30 15381 C 1442.79 1.62638 -0.958871 0
M  V30 15382 O 1442.15 1.82422 0.0534316 0
M  V30 15383 C 1442.2 1.2568 -3.38949 0
M  V30 15384 O 1441.92 0.267417 -4.37283 0
M  V30 15385 C 1443.42 2.0198 -3.94612 0
M  V30 15386 H 1440.64 0.160853 -0.651435 0
M  V30 15387 H 1443.18 -0.155111 -2.03911 0
M  V30 15388 H 1441.34 1.9587 -3.34236 0
M  V30 15389 H 1441.75 0.742695 -5.19215 0
M  V30 15390 H 1443.23 2.43613 -4.95335 0
M  V30 15391 H 1443.7 2.87973 -3.31614 0
M  V30 15392 H 1444.31 1.36639 -4.02753 0
M  V30 15393 N 1442.63 1.56409 0.193394 0
M  V30 15394 C 1443.54 1.97886 1.26009 0
M  V30 15395 C 1444.55 0.886786 1.49707 0
M  V30 15396 O 1445.73 1.19267 1.62288 0
M  V30 15397 C 1442.79 2.31145 2.58404 0
M  V30 15398 C 1441.85 3.54069 2.42763 0
M  V30 15399 C 1441.09 3.85732 3.68845 0
M  V30 15400 O 1441.31 3.18662 4.73086 0
M  V30 15401 O 1440.24 4.79155 3.64272 0
M  V30 15402 H 1444.07 2.88849 0.938087 0
M  V30 15403 H 1441.65 1.43987 0.398528 0
M  V30 15404 H 1443.54 2.53606 3.36544 0
M  V30 15405 H 1442.21 1.4335 2.90228 0
M  V30 15406 H 1441.12 3.36854 1.62728 0
M  V30 15407 H 1442.45 4.42335 2.15871 0
M  V30 15408 N 1444.1 -0.461169 1.50702 0
M  V30 15409 C 1445.05 -1.5579 1.70288 0
M  V30 15410 C 1446.02 -1.5693 0.544251 0
M  V30 15411 O 1447.21 -1.74308 0.77597 0
M  V30 15412 C 1444.35 -2.93694 1.81212 0
M  V30 15413 C 1443.46 -3.02267 3.0864 0
M  V30 15414 C 1442.59 -4.31147 3.103 0
M  V30 15415 C 1441.63 -4.33498 4.32141 0
M  V30 15416 N 1440.77 -5.53864 4.31484 0
M  V30 15417 H 1445.61 -1.38393 2.63915 0
M  V30 15418 H 1443.15 -0.6727 1.30817 0
M  V30 15419 H 1445.1 -3.73679 1.85526 0
M  V30 15420 H 1443.73 -3.09703 0.91015 0
M  V30 15421 H 1442.79 -2.15093 3.1375 0
M  V30 15422 H 1444.1 -2.99864 3.98601 0
M  V30 15423 H 1443.25 -5.19487 3.13398 0
M  V30 15424 H 1441.99 -4.36172 2.18186 0
M  V30 15425 H 1441 -3.43554 4.29245 0
M  V30 15426 H 1442.22 -4.30156 5.25493 0
M  V30 15427 H 1440.17 -5.59657 3.42229 0
M  V30 15428 H 1440.08 -5.53244 5.15225 0
M  V30 15429 H 1441.35 -6.44302 4.38742 0
M  V30 15430 N 1445.58 -1.40446 -0.715026 0
M  V30 15431 C 1446.53 -1.40756 -1.82911 0
M  V30 15432 C 1447.5 -0.264443 -1.63981 0
M  V30 15433 O 1448.68 -0.462589 -1.85107 0
M  V30 15434 C 1445.82 -1.27648 -3.20624 0
M  V30 15435 C 1444.94 -2.5167 -3.51121 0
M  V30 15436 C 1444.07 -2.31 -4.78344 0
M  V30 15437 C 1443.11 -3.50596 -5.01746 0
M  V30 15438 N 1442.25 -3.29117 -6.20183 0
M  V30 15439 H 1447.09 -2.35981 -1.8198 0
M  V30 15440 H 1444.62 -1.17201 -0.888951 0
M  V30 15441 H 1446.58 -1.18054 -4.00149 0
M  V30 15442 H 1445.21 -0.360419 -3.20782 0
M  V30 15443 H 1444.26 -2.7179 -2.66147 0
M  V30 15444 H 1445.58 -3.4069 -3.64324 0
M  V30 15445 H 1444.73 -2.18763 -5.65887 0
M  V30 15446 H 1443.47 -1.39406 -4.67351 0
M  V30 15447 H 1442.47 -3.63309 -4.12658 0
M  V30 15448 H 1443.7 -4.43117 -5.14611 0
M  V30 15449 H 1441.65 -2.40206 -6.1044 0
M  V30 15450 H 1441.56 -4.11702 -6.34064 0
M  V30 15451 H 1442.83 -3.20614 -7.10512 0
M  V30 15452 N 1447.06 0.947303 -1.25952 0
M  V30 15453 C 1448.01 2.04511 -1.06976 0
M  V30 15454 C 1448.98 1.66084 0.023347 0
M  V30 15455 O 1450.16 1.9032 -0.135247 0
M  V30 15456 C 1447.3 3.37878 -0.70232 0
M  V30 15457 C 1446.41 3.89379 -1.87105 0
M  V30 15458 C 1445.55 5.11104 -1.44728 0
M  V30 15459 C 1444.59 5.54852 -2.58469 0
M  V30 15460 N 1443.73 6.67784 -2.16817 0
M  V30 15461 H 1448.57 2.20075 -2.00925 0
M  V30 15462 H 1446.1 1.07837 -1.00048 0
M  V30 15463 H 1448.06 4.14542 -0.470199 0
M  V30 15464 H 1446.69 3.22179 0.20019 0
M  V30 15465 H 1445.74 3.09169 -2.21627 0
M  V30 15466 H 1447.05 4.17789 -2.72496 0
M  V30 15467 H 1446.21 5.95208 -1.17525 0
M  V30 15468 H 1444.95 4.84426 -0.564191 0
M  V30 15469 H 1443.95 4.69308 -2.86409 0
M  V30 15470 H 1445.18 5.83534 -3.47368 0
M  V30 15471 H 1443.12 6.428 -1.30934 0
M  V30 15472 H 1443.04 6.95749 -2.95753 0
M  V30 15473 H 1444.31 7.55278 -1.92809 0
M  V30 15474 N 1448.54 1.07657 1.15099 0
M  V30 15475 C 1449.5 0.703558 2.18135 0
M  V30 15476 C 1450.5 -0.257771 1.5872 0
M  V30 15477 O 1451.69 -0.0383211 1.74158 0
M  V30 15478 C 1448.82 0.0374978 3.40879 0
M  V30 15479 H 1450.02 1.61583 2.52648 0
M  V30 15480 H 1447.57 0.873484 1.29615 0
M  V30 15481 H 1448.3 -0.886868 3.11938 0
M  V30 15482 H 1448.09 0.728961 3.85264 0
M  V30 15483 H 1449.58 -0.208714 4.17078 0
M  V30 15484 N 1450.02 -1.31994 0.861122 0
M  V30 15485 C 1450.95 -2.27632 0.267681 0
M  V30 15486 C 1451.96 -1.52709 -0.564265 0
M  V30 15487 O 1453.15 -1.74239 -0.3877 0
M  V30 15488 C 1450.25 -3.32805 -0.639856 0
M  V30 15489 C 1449.42 -4.37116 0.157676 0
M  V30 15490 C 1448.48 -5.21832 -0.676624 0
M  V30 15491 O 1447.51 -5.69098 -0.107822 0
M  V30 15492 N 1448.71 -5.45317 -1.99022 0
M  V30 15493 H 1451.48 -2.79195 1.0895 0
M  V30 15494 H 1449.04 -1.44923 0.721733 0
M  V30 15495 H 1451.03 -3.86391 -1.20348 0
M  V30 15496 H 1449.6 -2.81351 -1.36236 0
M  V30 15497 H 1448.82 -3.83724 0.902741 0
M  V30 15498 H 1450.11 -5.03889 0.70524 0
M  V30 15499 H 1449.5 -5.08656 -2.47558 0
M  V30 15500 H 1448.06 -6.01874 -2.50182 0
M  V30 15501 N 1451.49 -0.619688 -1.44906 0
M  V30 15502 C 1452.4 0.0935512 -2.34413 0
M  V30 15503 C 1453.42 0.847738 -1.51952 0
M  V30 15504 O 1454.6 0.802591 -1.84717 0
M  V30 15505 C 1451.66 1.07047 -3.2976 0
M  V30 15506 C 1450.72 0.31691 -4.28129 0
M  V30 15507 C 1449.96 1.24729 -5.1892 0
M  V30 15508 O 1450.18 2.4856 -5.13395 0
M  V30 15509 O 1449.11 0.737799 -5.97361 0
M  V30 15510 H 1452.94 -0.642335 -2.96829 0
M  V30 15511 H 1450.52 -0.379908 -1.44489 0
M  V30 15512 H 1452.41 1.63281 -3.88481 0
M  V30 15513 H 1451.08 1.78717 -2.69893 0
M  V30 15514 H 1449.99 -0.288192 -3.72988 0
M  V30 15515 H 1451.32 -0.359539 -4.90885 0
M  V30 15516 N 1452.97 1.53444 -0.359552 0
M  V30 15517 C 1454.22 2.01166 0.232022 0
M  V30 15518 C 1454.55 1.24699 1.49266 0
M  V30 15519 O 1453.8 0.327164 1.92946 0
M  V30 15520 C 1454.1 3.5273 0.575863 0
M  V30 15521 C 1453.77 4.47027 -0.589746 0
M  V30 15522 C 1452.43 4.72525 -0.909587 0
M  V30 15523 C 1454.78 5.02846 -1.37095 0
M  V30 15524 C 1452.11 5.51096 -2.01271 0
M  V30 15525 C 1454.46 5.82622 -2.46444 0
M  V30 15526 C 1453.13 6.06409 -2.7897 0
M  V30 15527 H 1452.4 0.73612 0.084903 0
M  V30 15528 H 1455.04 1.85105 -0.490771 0
M  V30 15529 H 1453.35 3.66708 1.37959 0
M  V30 15530 H 1455.04 3.87125 1.04573 0
M  V30 15531 H 1451.63 4.27324 -0.330418 0
M  V30 15532 H 1455.82 4.83098 -1.1371 0
M  V30 15533 H 1451.07 5.67747 -2.26877 0
M  V30 15534 H 1455.25 6.24884 -3.07398 0
M  V30 15535 H 1452.88 6.67077 -3.64572 0
M  V30 15536 N 1454.45 0.0885642 1.57351 0
M  V30 15537 C 1455.7 -0.57633 1.93291 0
M  V30 15538 C 1456.01 -1.69743 0.971934 0
M  V30 15539 O 1457.22 -2.42304 1.22479 0
M  V30 15540 C 1455.67 -1.07655 3.43422 0
M  V30 15541 C 1455.28 0.0144488 4.47998 0
M  V30 15542 C 1457.03 -1.71455 3.88334 0
M  V30 15543 C 1454.93 -0.500758 5.89276 0
M  V30 15544 H 1453.86 -0.219055 0.721478 0
M  V30 15545 H 1456.51 0.163511 1.8277 0
M  V30 15546 H 1454.9 -1.86988 3.49072 0
M  V30 15547 H 1456.07 0.789696 4.53983 0
M  V30 15548 H 1454.39 0.557237 4.12655 0
M  V30 15549 H 1456.98 -2.11063 4.91281 0
M  V30 15550 H 1457.33 -2.58116 3.26621 0
M  V30 15551 H 1457.86 -0.987159 3.85357 0
M  V30 15552 H 1454.6 0.329088 6.54673 0
M  V30 15553 H 1454.12 -1.24315 5.86776 0
M  V30 15554 H 1455.8 -0.971821 6.3966 0
M  V30 15555 N 1455.93 -1.56509 -0.185096 0
M  V30 15556 C 1456.88 -1.91742 -1.23366 0
M  V30 15557 C 1457.86 -0.784182 -1.40497 0
M  V30 15558 O 1459.05 -1.04718 -1.42699 0
M  V30 15559 C 1456.18 -2.26903 -2.57624 0
M  V30 15560 C 1455.27 -3.46707 -2.44244 0
M  V30 15561 N 1455.66 -4.64338 -2.00558 0
M  V30 15562 C 1453.96 -3.51042 -2.7511 0
M  V30 15563 C 1454.66 -5.46489 -1.9931 0
M  V30 15564 N 1453.64 -4.87162 -2.41193 0
M  V30 15565 H 1457.44 -2.80184 -0.887378 0
M  V30 15566 H 1454.95 -1.57561 -0.393468 0
M  V30 15567 H 1456.95 -2.50332 -3.33376 0
M  V30 15568 H 1455.61 -1.39792 -2.93067 0
M  V30 15569 H 1456.62 -4.88817 -1.7111 0
M  V30 15570 H 1453.3 -2.74375 -3.14682 0
M  V30 15571 H 1454.69 -6.50726 -1.67349 0
M  V30 15572 N 1457.41 0.45317 -1.50944 0
M  V30 15573 C 1458.34 1.56678 -1.67287 0
M  V30 15574 C 1459.35 1.53089 -0.553853 0
M  V30 15575 O 1460.54 1.58152 -0.827653 0
M  V30 15576 C 1457.64 2.95585 -1.65779 0
M  V30 15577 C 1456.81 3.2385 -2.94007 0
M  V30 15578 C 1455.87 4.42401 -2.84899 0
M  V30 15579 O 1454.9 4.4183 -3.58853 0
M  V30 15580 N 1456.1 5.4508 -1.99671 0
M  V30 15581 H 1458.87 1.43069 -2.63347 0
M  V30 15582 H 1456.43 0.641875 -1.48632 0
M  V30 15583 H 1458.42 3.7289 -1.57275 0
M  V30 15584 H 1456.99 3.02872 -0.773791 0
M  V30 15585 H 1456.21 2.34991 -3.16501 0
M  V30 15586 H 1457.5 3.39554 -3.7892 0
M  V30 15587 H 1456.89 5.48374 -1.38933 0
M  V30 15588 H 1455.45 6.21298 -1.97057 0
M  V30 15589 N 1458.88 1.40823 0.707568 0
M  V30 15590 C 1460.13 1.39535 1.46753 0
M  V30 15591 C 1460.46 0.000370511 1.945 0
M  V30 15592 O 1459.71 -0.985628 1.69068 0
M  V30 15593 C 1460.01 2.33829 2.70294 0
M  V30 15594 C 1459.68 3.8092 2.41269 0
M  V30 15595 C 1458.34 4.20993 2.33063 0
M  V30 15596 C 1460.69 4.73839 2.17086 0
M  V30 15597 C 1458.02 5.52009 1.98754 0
M  V30 15598 C 1460.37 6.05161 1.84289 0
M  V30 15599 C 1459.04 6.44268 1.74571 0
M  V30 15600 H 1458.31 0.510593 0.537006 0
M  V30 15601 H 1460.95 1.73536 0.809789 0
M  V30 15602 H 1459.26 1.9304 3.40944 0
M  V30 15603 H 1460.96 2.30111 3.28405 0
M  V30 15604 H 1457.55 3.49175 2.48545 0
M  V30 15605 H 1461.73 4.43691 2.22377 0
M  V30 15606 H 1456.99 5.81202 1.89774 0
M  V30 15607 H 1461.16 6.7667 1.64593 0
M  V30 15608 H 1458.79 7.45703 1.47753 0
M  V30 15609 N 1460.36 -0.94061 1.26453 0
M  V30 15610 C 1461.29 -2.05667 1.10559 0
M  V30 15611 C 1462.27 -1.70097 0.0106258 0
M  V30 15612 O 1463.46 -1.93338 0.182756 0
M  V30 15613 C 1460.59 -3.3936 0.7384 0
M  V30 15614 C 1459.54 -3.88993 1.78517 0
M  V30 15615 C 1458.87 -5.19343 1.27228 0
M  V30 15616 C 1460.17 -4.13812 3.1868 0
M  V30 15617 H 1461.86 -2.19221 2.03918 0
M  V30 15618 H 1459.41 -1.05339 0.98182 0
M  V30 15619 H 1461.36 -4.16902 0.61409 0
M  V30 15620 H 1460.09 -3.25783 -0.230887 0
M  V30 15621 H 1458.74 -3.13633 1.89816 0
M  V30 15622 H 1458.39 -5.02147 0.292816 0
M  V30 15623 H 1458.09 -5.53521 1.97201 0
M  V30 15624 H 1459.62 -5.99468 1.16065 0
M  V30 15625 H 1461.03 -4.81966 3.10455 0
M  V30 15626 H 1459.43 -4.59273 3.86249 0
M  V30 15627 H 1460.5 -3.19571 3.64695 0
M  V30 15628 N 1461.84 -1.08266 -1.14527 0
M  V30 15629 C 1463.08 -0.820945 -1.87189 0
M  V30 15630 C 1463.44 0.641556 -1.80964 0
M  V30 15631 O 1464.65 1.01871 -2.48749 0
M  V30 15632 C 1462.92 -1.32668 -3.31865 0
M  V30 15633 S 1464.48 -1.19705 -4.22157 0
M  V30 15634 H 1461.29 -0.297237 -0.645888 0
M  V30 15635 H 1463.9 -1.38364 -1.38114 0
M  V30 15636 H 1462.6 -2.38558 -3.33943 0
M  V30 15637 H 1462.13 -0.759588 -3.85997 0
M  V30 15638 H 1464.15 -0.140421 -4.96001 0
M  V30 15639 N 1463.32 1.31536 -0.86811 0
M  V30 15640 C 1464.27 2.30504 -0.311581 0
M  V30 15641 C 1465.26 1.59439 0.572332 0
M  V30 15642 O 1466.47 1.74059 0.458639 0
M  V30 15643 H 1462.84 0.747508 -0.0820745 0
M  V30 15644 H 1464.81 2.74919 -1.16026 0
M  V30 15645 C 1463.56 3.44459 0.473622 0
M  V30 15646 H 1462.89 3.99313 -0.197259 0
M  V30 15647 H 1464.33 4.15829 0.828393 0
M  V30 15648 C 1462.78 2.92929 1.66416 0
M  V30 15649 O 1463.31 2.91543 2.76344 0
M  V30 15650 N 1461.52 2.49154 1.49568 0
M  V30 15651 H 1461.07 2.50481 0.601408 0
M  V30 15652 H 1461.03 2.15032 2.29366 0
M  V30 15653 N 1464.8 0.627364 1.44575 0
M  V30 15654 C 1466.21 0.213149 1.85479 0
M  V30 15655 C 1466.56 -1.23458 1.52488 0
M  V30 15656 O 1465.68 -1.93885 0.961115 0
M  V30 15657 C 1466.28 0.380063 3.36661 0
M  V30 15658 C 1464.84 0.020385 3.76394 0
M  V30 15659 C 1463.99 0.695225 2.68444 0
M  V30 15660 H 1466.94 0.832771 1.35095 0
M  V30 15661 H 1466.96 -0.382078 3.78577 0
M  V30 15662 H 1466.47 1.43383 3.60642 0
M  V30 15663 H 1464.57 -1.03179 3.58029 0
M  V30 15664 H 1464.68 0.42782 4.77186 0
M  V30 15665 H 1463.05 0.130898 2.54363 0
M  V30 15666 H 1463.83 1.75151 2.95257 0
M  V30 15667 N 1466.28 -1.53251 0.367684 0
M  V30 15668 C 1467.21 -2.28728 -0.469676 0
M  V30 15669 C 1468.19 -1.3124 -1.08213 0
M  V30 15670 O 1469.37 -1.60112 -1.09898 0
M  V30 15671 C 1466.5 -3.07808 -1.60846 0
M  V30 15672 C 1465.46 -4.13 -1.12315 0
M  V30 15673 C 1464.78 -4.80176 -2.35234 0
M  V30 15674 C 1466.08 -5.21892 -0.2064 0
M  V30 15675 H 1467.78 -2.98972 0.160019 0
M  V30 15676 H 1465.32 -1.43786 0.0784011 0
M  V30 15677 H 1467.27 -3.59358 -2.20091 0
M  V30 15678 H 1466 -2.35258 -2.26542 0
M  V30 15679 H 1464.66 -3.62399 -0.553378 0
M  V30 15680 H 1464.31 -4.04196 -2.99391 0
M  V30 15681 H 1464.01 -5.51261 -2.03433 0
M  V30 15682 H 1465.53 -5.34521 -2.9516 0
M  V30 15683 H 1466.94 -5.68932 -0.706386 0
M  V30 15684 H 1465.34 -6.00096 0.0208362 0
M  V30 15685 H 1466.41 -4.79051 0.750851 0
M  V30 15686 O 1467.79 -0.23698 -1.59752 0
M  V30 15687 H 1468.48 0.34055 -1.90683 0
M  V30 END ATOM
M  V30 BEGIN BOND
M  V30 END BOND
M  V30 END CTAB
M  END
$$$$
