drugbank_target|P32169 Rhamnulose-1-phosphate aldolase (DB03026)
 OpenBabel12092120013D

  0  0  0     0  0            999 V3000
M  V30 BEGIN CTAB
M  V30 COUNTS 4221 4275 0 0 0
M  V30 BEGIN ATOM
M  V30 1 H -0.908 1.98254 -0.117106 0
M  V30 2 N 0 1.576 0 0
M  V30 3 C 0.933 2.03868 1.02534 0
M  V30 4 C 1.911 0.928543 1.3348 0
M  V30 5 O 3.095 1.19667 1.45644 0
M  V30 6 C 0.222 2.43627 2.35294 0
M  V30 7 C -0.732 3.65373 2.2001 0
M  V30 8 S 0.101 5.13292 1.52614 0
M  V30 9 C 1.257 5.56322 2.86805 0
M  V30 10 H 1.49 2.90518 0.631377 0
M  V30 11 H -0.977 1.52953 0.210867 0
M  V30 12 H 0.981 2.67203 3.11629 0
M  V30 13 H -0.358 1.57376 2.7183 0
M  V30 14 H -1.165 3.90944 3.18086 0
M  V30 15 H -1.563 3.418 1.51819 0
M  V30 16 H 0.729 5.58782 3.83104 0
M  V30 17 H 1.672 6.56266 2.65933 0
M  V30 18 H 2.08 4.83886 2.90714 0
M  V30 19 N 1.4781 -0.272755 1.55222 0
M  V30 20 C 2.4101 -1.35946 1.8453 0
M  V30 21 C 3.4231 -1.45525 0.729818 0
M  V30 22 O 4.6121 -1.47337 1.00767 0
M  V30 23 C 1.7121 -2.74069 1.99347 0
M  V30 24 C 0.8851 -2.87079 3.30007 0
M  V30 25 C -0.0559 -4.05879 3.34886 0
M  V30 26 O -1.0299 -3.96626 4.08261 0
M  V30 27 N 0.1721 -5.17857 2.62307 0
M  V30 28 H 2.9371 -1.11149 2.78327 0
M  V30 29 H 0.4981 -0.462869 1.55142 0
M  V30 30 H 2.4901 -3.51838 1.99981 0
M  V30 31 H 1.0601 -2.91688 1.12415 0
M  V30 32 H 0.2801 -1.96193 3.41909 0
M  V30 33 H 1.5681 -2.92701 4.16177 0
M  V30 34 H 0.9661 -5.28261 2.02377 0
M  V30 35 H -0.4769 -5.93855 2.68663 0
M  V30 36 N 2.9562 -1.48159 -0.537278 0
M  V30 37 C 3.9042 -1.62573 -1.66352 0
M  V30 38 C 4.8982 -0.492366 -1.62087 0
M  V30 39 O 6.1042 -0.670847 -1.67032 0
M  V30 40 H 2.4792 -0.511992 -0.550789 0
M  V30 41 H 4.4502 -2.57176 -1.51337 0
M  V30 42 C 3.1992 -1.67583 -3.04649 0
M  V30 43 H 2.5222 -2.54151 -3.08622 0
M  V30 44 H 3.9622 -1.81713 -3.83088 0
M  V30 45 C 2.4212 -0.413039 -3.34358 0
M  V30 46 O 2.9512 0.477259 -3.98855 0
M  V30 47 N 1.1572 -0.286961 -2.8918 0
M  V30 48 H 0.7042 -1.01241 -2.36871 0
M  V30 49 H 0.6622 0.556963 -3.09427 0
M  V30 50 N 4.4343 0.785586 -1.36625 0
M  V30 51 C 5.6833 1.53883 -1.30396 0
M  V30 52 C 5.9963 1.95271 0.113452 0
M  V30 53 O 7.2023 2.69858 0.298142 0
M  V30 54 C 5.6583 2.77808 -2.28802 0
M  V30 55 C 5.2663 2.43574 -3.75999 0
M  V30 56 C 7.0103 3.55783 -2.31558 0
M  V30 57 C 4.9173 3.63919 -4.66173 0
M  V30 58 H 3.8473 0.577678 -0.484566 0
M  V30 59 H 6.4983 0.861705 -1.62009 0
M  V30 60 H 4.8803 3.47339 -1.90188 0
M  V30 61 H 6.0543 1.81916 -4.23371 0
M  V30 62 H 4.3693 1.78803 -3.76056 0
M  V30 63 H 6.9663 4.45205 -2.96137 0
M  V30 64 H 7.3093 3.94644 -1.3252 0
M  V30 65 H 7.8423 2.93235 -2.68809 0
M  V30 66 H 4.5813 3.3015 -5.66287 0
M  V30 67 H 4.1013 4.2473 -4.23515 0
M  V30 68 H 5.7803 4.30901 -4.82632 0
M  V30 69 N 5.9124 1.20967 1.01018 0
M  V30 70 C 7.1404 1.04956 1.78303 0
M  V30 71 C 7.5554 -0.400915 1.84494 0
M  V30 72 O 6.9124 -1.27826 1.30257 0
M  V30 73 C 6.9634 1.63403 3.22462 0
M  V30 74 O 6.6844 3.02775 3.16637 0
M  V30 75 C 8.1854 1.52432 4.16268 0
M  V30 76 H 5.4054 0.368858 0.560522 0
M  V30 77 H 7.9494 1.60193 1.27116 0
M  V30 78 H 6.1044 1.1227 3.70775 0
M  V30 79 H 6.5184 3.30626 4.07169 0
M  V30 80 H 7.9924 1.98078 5.15237 0
M  V30 81 H 8.4694 0.477875 4.36592 0
M  V30 82 H 9.0754 2.02787 3.73841 0
M  V30 83 N 7.3905 -1.2043 1.01659 0
M  V30 84 C 8.3225 -2.22626 0.544988 0
M  V30 85 C 9.3355 -1.58479 -0.372609 0
M  V30 86 O 10.5245 -1.77679 -0.170958 0
M  V30 87 C 7.6245 -3.38141 -0.22663 0
M  V30 88 C 6.7975 -4.31877 0.692876 0
M  V30 89 C 5.8565 -5.26191 -0.0311616 0
M  V30 90 O 4.8825 -5.6612 0.591343 0
M  V30 91 N 6.0845 -5.65618 -1.30601 0
M  V30 92 H 8.8495 -2.63716 1.42388 0
M  V30 93 H 6.4105 -1.34971 0.894116 0
M  V30 94 H 8.4025 -3.98239 -0.72024 0
M  V30 95 H 6.9725 -2.95943 -1.00681 0
M  V30 96 H 6.1925 -3.69746 1.36679 0
M  V30 97 H 7.4805 -4.91426 1.31824 0
M  V30 98 H 6.8785 -5.3519 -1.83269 0
M  V30 99 H 5.4355 -6.28025 -1.74435 0
M  V30 100 N 8.8686 -0.792821 -1.36206 0
M  V30 101 C 10.0936 -0.377701 -2.03932 0
M  V30 102 C 10.5186 0.998947 -1.59382 0
M  V30 103 O 9.8766 1.64421 -0.763903 0
M  V30 104 C 9.9246 -0.453635 -3.57735 0
M  V30 105 O 9.0286 0.538151 -4.08874 0
M  V30 106 H 8.3696 -0.159855 -0.644471 0
M  V30 107 H 10.8996 -1.07488 -1.7409 0
M  V30 108 H 10.9096 -0.318464 -4.06755 0
M  V30 109 H 9.5846 -1.45784 -3.89512 0
M  V30 110 H 8.1616 0.364359 -3.71116 0
M  V30 111 N 10.3467 1.47872 -0.545128 0
M  V30 112 C 11.5927 2.03385 -0.0247951 0
M  V30 113 C 11.9477 1.41325 1.30556 0
M  V30 114 O 11.2407 0.5552 1.8338 0
M  V30 115 C 11.4347 3.57131 0.13867 0
M  V30 116 C 11.2637 4.34097 -1.17429 0
M  V30 117 C 10.0337 4.74458 -1.73831 0
M  V30 118 C 12.2317 4.6998 -2.08861 0
M  V30 119 N 10.2137 5.3602 -2.99258 0
M  V30 120 C 11.5847 5.31719 -3.18866 0
M  V30 121 C 13.6397 4.5191 -2.09003 0
M  V30 122 C 12.3427 5.77295 -4.29096 0
M  V30 123 C 14.3687 4.98477 -3.18237 0
M  V30 124 C 13.7307 5.60253 -4.26961 0
M  V30 125 H 9.8297 0.780339 -0.050943 0
M  V30 126 H 12.4137 1.80507 -0.729753 0
M  V30 127 H 10.5847 3.79802 0.812733 0
M  V30 128 H 12.3167 3.99282 0.659976 0
M  V30 129 H 9.0717 4.56037 -1.2778 0
M  V30 130 H 9.4957 5.71355 -3.63157 0
M  V30 131 H 14.1377 4.03516 -1.26234 0
M  V30 132 H 11.8557 6.24687 -5.12633 0
M  V30 133 H 15.4417 4.86274 -3.1942 0
M  V30 134 H 14.3217 5.95631 -5.10091 0
M  V30 135 N 11.8248 0.280983 1.55075 0
M  V30 136 C 13.0718 -0.334115 1.99725 0
M  V30 137 C 13.3998 -1.5542 1.1694 0
M  V30 138 O 12.6548 -1.94361 0.228531 0
M  V30 139 C 12.9538 -0.754656 3.49342 0
M  V30 140 C 12.6198 0.361445 4.49449 0
M  V30 141 C 11.2818 0.667893 4.76542 0
M  V30 142 C 13.6338 1.11322 5.09173 0
M  V30 143 C 10.9618 1.7296 5.60626 0
M  V30 144 C 13.3138 2.1647 5.9441 0
M  V30 145 C 11.9778 2.47742 6.19822 0
M  V30 146 H 11.2478 -0.122261 0.730844 0
M  V30 147 H 13.8948 0.395917 1.87363 0
M  V30 148 H 12.1998 -1.56446 3.5921 0
M  V30 149 H 13.8968 -1.24142 3.813 0
M  V30 150 H 10.4868 0.112481 4.28452 0
M  V30 151 H 14.6708 0.88973 4.8826 0
M  V30 152 H 9.9268 1.97684 5.78559 0
M  V30 153 H 14.1008 2.75193 6.3972 0
M  V30 154 H 11.7278 3.30145 6.84769 0
M  V30 155 N 13.3029 -1.57598 0.00835791 0
M  V30 156 C 14.5489 -1.91211 -0.675732 0
M  V30 157 C 14.8819 -0.883139 -1.72958 0
M  V30 158 O 14.1569 0.097016 -1.94258 0
M  V30 159 C 14.4399 -3.35379 -1.31123 0
M  V30 160 C 14.2929 -4.48999 -0.268356 0
M  V30 161 C 15.6119 -3.7912 -2.23508 0
M  V30 162 H 12.7309 -0.695374 -0.244179 0
M  V30 163 H 15.3729 -1.89901 0.0613655 0
M  V30 164 H 13.5229 -3.36626 -1.93946 0
M  V30 165 H 15.1949 -4.59887 0.360844 0
M  V30 166 H 13.4379 -4.31873 0.408482 0
M  V30 167 H 14.1089 -5.46851 -0.752218 0
M  V30 168 H 16.5849 -3.79477 -1.70693 0
M  V30 169 H 15.4609 -4.80729 -2.64936 0
M  V30 170 H 15.7219 -3.13455 -3.11766 0
M  V30 171 N 14.781 0.264519 -1.55364 0
M  V30 172 C 15.713 1.34965 -1.85248 0
M  V30 173 C 16.726 1.45136 -0.737525 0
M  V30 174 O 17.915 1.46801 -1.01547 0
M  V30 175 C 15.015 2.73008 -2.00797 0
M  V30 176 C 14.188 2.85324 -3.31525 0
M  V30 177 C 13.247 4.04097 -3.37034 0
M  V30 178 O 12.273 3.94455 -4.10358 0
M  V30 179 N 13.475 5.16458 -2.65049 0
M  V30 180 H 16.24 1.09672 -2.78913 0
M  V30 181 H 13.801 0.454635 -1.55386 0
M  V30 182 H 15.793 3.50772 -2.01844 0
M  V30 183 H 14.363 2.91087 -1.1396 0
M  V30 184 H 13.583 1.94377 -3.42945 0
M  V30 185 H 14.871 2.9049 -4.17724 0
M  V30 186 H 14.269 5.27181 -2.05175 0
M  V30 187 H 12.826 5.92422 -2.71809 0
M  V30 188 N 16.2591 1.48442 0.529413 0
M  V30 189 C 17.5071 1.56179 1.28267 0
M  V30 190 C 17.8281 0.237721 1.93546 0
M  V30 191 O 17.0981 -0.740779 1.81354 0
M  V30 192 H 15.6781 0.575367 0.476405 0
M  V30 193 H 18.3401 1.84909 0.61602 0
M  V30 194 H 17.4361 2.34312 2.06165 0
M  V30 195 N 17.7372 -0.778329 1.37039 0
M  V30 196 C 18.6702 -1.8984 1.26633 0
M  V30 197 C 19.6482 -1.61923 0.148197 0
M  V30 198 O 20.8322 -1.85742 0.321265 0
M  V30 199 C 17.9592 -3.24916 0.956403 0
M  V30 200 C 17.0052 -3.71752 2.09051 0
M  V30 201 S 17.8382 -3.86201 3.70957 0
M  V30 202 C 18.9942 -5.24135 3.42101 0
M  V30 203 H 19.2272 -1.98377 2.21436 0
M  V30 204 H 16.7602 -0.938738 1.22585 0
M  V30 205 H 18.7182 -4.02936 0.784409 0
M  V30 206 H 17.3792 -3.14089 0.0259713 0
M  V30 207 H 16.5722 -4.69661 1.8285 0
M  V30 208 H 16.1742 -3.00815 2.2223 0
M  V30 209 H 18.4662 -6.09086 2.96682 0
M  V30 210 H 19.4092 -5.55346 4.39314 0
M  V30 211 H 19.8172 -4.91761 2.77185 0
M  V30 212 N 19.2153 -1.21501 -1.00376 0
M  V30 213 C 20.4643 -1.02718 -1.73586 0
M  V30 214 C 20.7773 0.439589 -1.90596 0
M  V30 215 O 21.9833 0.746848 -2.61026 0
M  V30 216 C 20.4393 -1.78929 -3.1227 0
M  V30 217 C 20.0473 -3.29783 -3.03228 0
M  V30 218 C 21.7913 -1.68557 -3.89601 0
M  V30 219 C 19.6983 -3.98479 -4.36999 0
M  V30 220 H 18.6283 -0.380733 -0.650814 0
M  V30 221 H 21.2793 -1.45248 -1.1214 0
M  V30 222 H 19.6613 -1.29192 -3.74333 0
M  V30 223 H 20.8353 -3.86832 -2.50395 0
M  V30 224 H 19.1503 -3.40711 -2.39385 0
M  V30 225 H 21.7473 -2.17211 -4.88593 0
M  V30 226 H 22.0903 -0.644021 -4.11288 0
M  V30 227 H 22.6233 -2.15778 -3.34193 0
M  V30 228 H 19.3623 -5.02841 -4.20513 0
M  V30 229 H 18.8823 -3.46219 -4.89788 0
M  V30 230 H 20.5613 -4.03462 -5.05794 0
M  V30 231 N 20.6934 1.19889 -1.02296 0
M  V30 232 C 21.6404 2.22901 -0.598651 0
M  V30 233 C 22.6104 1.61588 0.384521 0
M  V30 234 O 23.7954 1.88697 0.282522 0
M  V30 235 C 20.9354 3.45063 0.0504476 0
M  V30 236 C 20.0484 4.20783 -0.978053 0
M  V30 237 C 19.1834 5.30356 -0.299338 0
M  V30 238 C 18.2224 5.97826 -1.31416 0
M  V30 239 N 17.3594 6.98975 -0.661667 0
M  V30 240 H 22.1994 2.58554 -1.48169 0
M  V30 241 H 19.7364 1.27039 -0.741584 0
M  V30 242 H 21.6944 4.14831 0.443971 0
M  V30 243 H 20.3244 3.10084 0.897097 0
M  V30 244 H 19.3764 3.50018 -1.48969 0
M  V30 245 H 20.6884 4.67109 -1.74958 0
M  V30 246 H 19.8424 6.06516 0.149347 0
M  V30 247 H 18.5814 4.85084 0.504445 0
M  V30 248 H 17.5864 5.20422 -1.77317 0
M  V30 249 H 18.8114 6.45183 -2.11933 0
M  V30 250 H 16.7574 6.55886 0.122132 0
M  V30 251 H 16.6744 7.43461 -1.37117 0
M  V30 252 H 17.9424 7.7914 -0.236785 0
M  V30 253 N 22.1715 0.800033 1.35784 0
M  V30 254 C 23.1345 0.211565 2.28221 0
M  V30 255 C 24.1345 -0.59728 1.49296 0
M  V30 256 O 25.3245 -0.416721 1.69142 0
M  V30 257 C 22.4565 -0.705846 3.33513 0
M  V30 258 H 23.6495 1.02677 2.81776 0
M  V30 259 H 21.2025 0.570211 1.45528 0
M  V30 260 H 21.9375 -1.54498 2.85133 0
M  V30 261 H 21.7225 -0.127655 3.91892 0
M  V30 262 H 23.2125 -1.11211 4.02519 0
M  V30 263 N 23.6496 -1.47581 0.552962 0
M  V30 264 C 24.8776 -2.06875 0.0320556 0
M  V30 265 C 25.2926 -1.40625 -1.25976 0
M  V30 266 O 24.6496 -0.501349 -1.75479 0
M  V30 267 C 24.7006 -3.61092 -0.17167 0
M  V30 268 O 24.4216 -4.24858 1.06899 0
M  V30 269 C 25.9226 -4.37242 -0.730344 0
M  V30 270 H 23.1426 -0.669561 0.043915 0
M  V30 271 H 25.6866 -1.89646 0.765163 0
M  V30 272 H 23.8416 -3.7785 -0.854894 0
M  V30 273 H 24.2556 -5.17334 0.864059 0
M  V30 274 H 25.7296 -5.45842 -0.822203 0
M  V30 275 H 26.2066 -4.03235 -1.74064 0
M  V30 276 H 26.8126 -4.25219 -0.0829543 0
M  V30 277 N 25.1277 -0.289203 -1.54924 0
M  V30 278 C 26.3557 0.326463 -2.04308 0
M  V30 279 C 26.7707 1.48413 -1.16701 0
M  V30 280 O 26.1277 1.81507 -0.190087 0
M  V30 281 C 26.1787 0.794014 -3.52672 0
M  V30 282 O 25.8997 -0.317564 -4.36948 0
M  V30 283 C 27.4007 1.47605 -4.18004 0
M  V30 284 H 24.6207 0.0726272 -0.667058 0
M  V30 285 H 27.1647 -0.425401 -2.00026 0
M  V30 286 H 25.3197 1.49593 -3.57352 0
M  V30 287 H 25.7337 0.0443186 -5.24481 0
M  V30 288 H 27.2077 1.75447 -5.23376 0
M  V30 289 H 27.6847 2.41224 -3.67025 0
M  V30 290 H 28.2907 0.81762 -4.17367 0
M  V30 291 N 26.6058 1.57591 -0.0167156 0
M  V30 292 C 27.8828 1.82547 0.702564 0
M  V30 293 C 28.2628 0.898018 1.91047 0
M  V30 294 O 27.6108 -0.0493456 2.28447 0
M  V30 295 C 27.8208 3.31459 1.09251 0
M  V30 296 C 29.1688 3.97622 1.48937 0
M  V30 297 O 30.1928 3.35881 1.18584 0
M  V30 298 O 29.0518 5.06415 2.05442 0
M  V30 299 H 26.1458 0.752268 0.343544 0
M  V30 300 H 28.6918 1.69644 -0.0434495 0
M  V30 301 H 27.4638 3.9061 0.23227 0
M  V30 302 H 27.0868 3.49422 1.89709 0
M  V30 303 N 28.0839 -0.256276 1.55502 0
M  V30 304 C 29.0469 -1.30047 1.88734 0
M  V30 305 C 30.0469 -1.4154 0.763086 0
M  V30 306 O 31.2369 -1.40403 1.03115 0
M  V30 307 C 28.3689 -2.67953 2.10747 0
M  V30 308 H 29.5619 -1.01802 2.82093 0
M  V30 309 H 27.1149 -0.495134 1.4825 0
M  V30 310 H 27.8499 -3.01351 1.19825 0
M  V30 311 H 27.6349 -2.60993 2.92617 0
M  V30 312 H 29.1249 -3.43368 2.37673 0
M  V30 313 N 29.562 -1.4872 -0.521534 0
M  V30 314 C 30.808 -1.58378 -1.27624 0
M  V30 315 C 31.163 -0.258028 -1.90662 0
M  V30 316 O 30.456 0.739917 -1.76736 0
M  V30 317 C 30.65 -2.66497 -2.38148 0
M  V30 318 C 30.479 -4.09456 -1.85945 0
M  V30 319 C 29.249 -4.76495 -1.68168 0
M  V30 320 C 31.447 -4.95353 -1.3831 0
M  V30 321 N 29.429 -6.0384 -1.1068 0
M  V30 322 C 30.8 -6.13012 -0.928238 0
M  V30 323 C 32.855 -4.81512 -1.26692 0
M  V30 324 C 31.558 -7.18354 -0.368701 0
M  V30 325 C 33.584 -5.86984 -0.721368 0
M  V30 326 C 32.946 -7.03857 -0.276623 0
M  V30 327 H 29.045 -0.634045 -0.457724 0
M  V30 328 H 31.629 -1.85639 -0.587049 0
M  V30 329 H 29.8 -2.41043 -3.04553 0
M  V30 330 H 31.532 -2.65791 -3.05184 0
M  V30 331 H 28.287 -4.32962 -1.91939 0
M  V30 332 H 28.711 -6.71778 -0.839217 0
M  V30 333 H 33.353 -3.91487 -1.5968 0
M  V30 334 H 31.071 -8.08096 -0.0265122 0
M  V30 335 H 34.657 -5.78329 -0.634531 0
M  V30 336 H 33.537 -7.84077 0.138947 0
M  V30 337 N 31.0401 0.771051 -1.3745 0
M  V30 338 C 31.9701 1.89827 -1.3597 0
M  V30 339 C 32.9511 1.68562 -0.228216 0
M  V30 340 O 34.1361 1.8941 -0.428675 0
M  V30 341 C 31.2661 3.2712 -1.16662 0
M  V30 342 C 30.2201 3.6295 -2.2683 0
M  V30 343 C 29.5461 4.98791 -1.92644 0
M  V30 344 C 30.8461 3.69627 -3.69017 0
M  V30 345 H 32.5401 1.91323 -2.30295 0
M  V30 346 H 30.0861 0.919082 -1.10855 0
M  V30 347 H 32.0391 4.05615 -1.14256 0
M  V30 348 H 30.7631 3.26059 -0.187926 0
M  V30 349 H 29.4221 2.86763 -2.28392 0
M  V30 350 H 29.0701 4.94271 -0.933021 0
M  V30 351 H 28.7701 5.23733 -2.66416 0
M  V30 352 H 30.2941 5.79685 -1.91826 0
M  V30 353 H 31.7081 4.38273 -3.69581 0
M  V30 354 H 30.1051 4.06067 -4.41848 0
M  V30 355 H 31.1751 2.70273 -4.02592 0
M  V30 356 N 32.5182 1.22032 0.997298 0
M  V30 357 C 33.4652 0.986467 2.08656 0
M  V30 358 C 34.4352 -0.0902671 1.65855 0
M  V30 359 O 35.6202 0.0584294 1.90711 0
M  V30 360 C 32.7602 0.565569 3.40434 0
M  V30 361 C 31.8732 1.71259 3.96604 0
M  V30 362 C 31.0082 1.24011 5.16522 0
M  V30 363 C 30.0472 2.35896 5.64818 0
M  V30 364 N 29.1842 1.89726 6.7598 0
M  V30 365 H 34.0242 1.91892 2.27994 0
M  V30 366 H 31.5612 0.956199 1.11782 0
M  V30 367 H 33.5192 0.302738 4.161 0
M  V30 368 H 32.1492 -0.329879 3.2111 0
M  V30 369 H 31.2012 2.08986 3.17851 0
M  V30 370 H 32.5132 2.55436 4.28432 0
M  V30 371 H 31.6672 0.934395 5.99461 0
M  V30 372 H 30.4062 0.368487 4.86306 0
M  V30 373 H 29.4112 2.67261 4.8047 0
M  V30 374 H 30.6362 3.23567 5.97061 0
M  V30 375 H 28.5822 1.0492 6.47555 0
M  V30 376 H 28.4992 2.67471 7.07103 0
M  V30 377 H 29.7672 1.62211 7.62435 0
M  V30 378 N 33.9963 -1.19345 1.0293 0
M  V30 379 C 35.2443 -1.88665 0.724574 0
M  V30 380 C 35.5653 -1.80036 -0.749144 0
M  V30 381 O 34.8353 -1.2111 -1.53978 0
M  V30 382 H 33.4153 -0.698406 0.265025 0
M  V30 383 H 36.0773 -1.44885 1.30362 0
M  V30 384 H 35.1733 -2.94987 1.01926 0
M  V30 385 N 35.4744 -0.807222 -1.35358 0
M  V30 386 C 36.7204 -0.397594 -1.99476 0
M  V30 387 C 37.0754 1.02405 -1.62883 0
M  V30 388 O 36.3684 1.70077 -0.882282 0
M  V30 389 C 36.5624 -0.519036 -3.53611 0
M  V30 390 C 36.3914 -1.95094 -4.05177 0
M  V30 391 C 35.1614 -2.57945 -4.34503 0
M  V30 392 C 37.3594 -2.91558 -4.23673 0
M  V30 393 N 35.3414 -3.92539 -4.72003 0
M  V30 394 C 36.7124 -4.11024 -4.64176 0
M  V30 395 C 38.7674 -2.88381 -4.05883 0
M  V30 396 C 37.4704 -5.27745 -4.88751 0
M  V30 397 C 39.4964 -4.04306 -4.31614 0
M  V30 398 C 38.8584 -5.22519 -4.72391 0
M  V30 399 H 34.9574 -0.193274 -0.75774 0
M  V30 400 H 37.5414 -1.0486 -1.6405 0
M  V30 401 H 35.7124 0.101979 -3.88266 0
M  V30 402 H 37.4444 -0.0839321 -4.04613 0
M  V30 403 H 34.1994 -2.09295 -4.24844 0
M  V30 404 H 34.6234 -4.61836 -4.95011 0
M  V30 405 H 39.2654 -1.98137 -3.73499 0
M  V30 406 H 36.9834 -6.1856 -5.20008 0
M  V30 407 H 40.5694 -4.03229 -4.19402 0
M  V30 408 H 39.4494 -6.1073 -4.91913 0
M  V30 409 N 36.9525 1.47285 -0.560781 0
M  V30 410 C 38.2295 1.9558 0.0277798 0
M  V30 411 C 38.6095 1.5034 1.48192 0
M  V30 412 O 37.9575 0.743882 2.16052 0
M  V30 413 C 38.1675 3.48789 -0.121418 0
M  V30 414 C 39.5155 4.24594 0.0220912 0
M  V30 415 O 40.5395 3.56166 -0.0491439 0
M  V30 416 O 39.3985 5.46217 0.175958 0
M  V30 417 H 36.4925 0.824663 0.0621342 0
M  V30 418 H 39.0385 1.5767 -0.627556 0
M  V30 419 H 37.8105 3.74533 -1.13316 0
M  V30 420 H 37.4335 3.93473 0.571366 0
M  V30 421 N 38.4306 0.297415 1.54768 0
M  V30 422 C 39.3406 -0.58983 2.27064 0
M  V30 423 C 40.3566 -1.15144 1.30453 0
M  V30 424 O 41.5326 -1.17699 1.63428 0
M  V30 425 C 38.5976 -1.74714 2.9946 0
M  V30 426 C 37.6586 -1.21997 4.11601 0
M  V30 427 C 36.8916 -2.32212 4.80535 0
M  V30 428 O 37.1146 -3.52036 4.48806 0
M  V30 429 O 36.0486 -1.99106 5.68014 0
M  V30 430 H 39.8746 -0.00348199 3.037 0
M  V30 431 H 37.4596 0.0640035 1.49263 0
M  V30 432 H 39.3416 -2.42147 3.44881 0
M  V30 433 H 38.0166 -2.32016 2.25722 0
M  V30 434 H 36.9236 -0.511458 3.70587 0
M  V30 435 H 38.2566 -0.692419 4.87305 0
M  V30 436 N 39.9087 -1.5758 0.0250728 0
M  V30 437 C 41.3247 -1.56124 -0.331282 0
M  V30 438 C 41.5247 -1.03029 -1.73169 0
M  V30 439 O 40.5807 -0.675215 -2.43305 0
M  V30 440 C 41.8937 -3.00139 -0.183584 0
M  V30 441 C 43.4417 -3.11946 -0.256654 0
M  V30 442 C 43.9167 -4.57793 -0.137792 0
M  V30 443 N 45.4077 -4.6279 -0.194904 0
M  V30 444 C 46.1427 -5.7326 -0.126655 0
M  V30 445 N 45.6387 -6.928 -0.00755288 0
M  V30 446 N 47.4317 -5.61811 -0.180348 0
M  V30 447 H 39.5827 -1.90424 0.94087 0
M  V30 448 H 41.8457 -0.875761 0.362968 0
M  V30 449 H 41.5517 -3.4292 0.780927 0
M  V30 450 H 41.4257 -3.64899 -0.955448 0
M  V30 451 H 43.8127 -2.69079 -1.21162 0
M  V30 452 H 43.8937 -2.49915 0.545517 0
M  V30 453 H 43.5377 -5.01339 0.813739 0
M  V30 454 H 43.4677 -5.17798 -0.958775 0
M  V30 455 H 45.9587 -3.76807 -0.287267 0
M  V30 456 H 46.2717 -7.72791 0.0379428 0
M  V30 457 H 44.6167 -6.94995 0.0271731 0
M  V30 458 H 47.8077 -4.6731 -0.271767 0
M  V30 459 H 47.9807 -6.47882 -0.123697 0
M  V30 460 N 41.3868 0.248026 -1.55636 0
M  V30 461 C 42.3348 1.32683 -1.91045 0
M  V30 462 C 43.3288 1.49883 -0.789401 0
M  V30 463 O 44.5348 1.51371 -0.974007 0
M  V30 464 H 40.9098 0.444272 -0.606734 0
M  V30 465 H 42.8808 1.00085 -2.81115 0
M  V30 466 C 41.6298 2.6755 -2.22064 0
M  V30 467 H 40.9528 2.55114 -3.07826 0
M  V30 468 H 42.3928 3.41912 -2.50743 0
M  V30 469 C 40.8518 3.20556 -1.0366 0
M  V30 470 O 41.3818 4.00695 -0.284016 0
M  V30 471 N 39.5878 2.78568 -0.82753 0
M  V30 472 H 39.1348 2.1351 -1.44123 0
M  V30 473 H 39.0928 3.14378 -0.0369803 0
M  V30 474 N 42.8649 1.48995 0.513639 0
M  V30 475 C 44.1129 1.57531 1.26604 0
M  V30 476 C 44.4339 0.258236 1.93283 0
M  V30 477 O 43.7039 -0.721502 1.8213 0
M  V30 478 H 42.2839 0.580387 0.470276 0
M  V30 479 H 44.9459 1.85552 0.596373 0
M  V30 480 H 44.0419 2.36486 2.03669 0
M  V30 481 N 44.343 -0.763751 1.37857 0
M  V30 482 C 45.591 -1.51957 1.33243 0
M  V30 483 C 45.912 -1.94835 -0.0801709 0
M  V30 484 O 45.182 -1.66894 -1.02582 0
M  V30 485 H 43.762 -0.563626 0.49024 0
M  V30 486 H 46.424 -0.908504 1.7243 0
M  V30 487 H 45.52 -2.41523 1.97669 0
M  V30 488 N 45.8211 -1.22559 -0.990812 0
M  V30 489 C 46.7691 -0.994798 -2.10253 0
M  V30 490 C 47.7631 0.0627798 -1.69284 0
M  V30 491 O 48.9691 -0.0898392 -1.79776 0
M  V30 492 H 45.3441 -0.304527 -0.687581 0
M  V30 493 H 47.3151 -1.93812 -2.26891 0
M  V30 494 C 46.0641 -0.591439 -3.42633 0
M  V30 495 H 45.3871 -1.3969 -3.74602 0
M  V30 496 H 46.8271 -0.469385 -4.21394 0
M  V30 497 C 45.2861 0.699232 -3.29564 0
M  V30 498 O 45.8161 1.75112 -3.61523 0
M  V30 499 N 44.0221 0.671182 -2.82743 0
M  V30 500 H 43.5691 -0.185136 -2.56934 0
M  V30 501 H 43.5271 1.53502 -2.7438 0
M  V30 502 N 47.2992 1.18797 -1.03562 0
M  V30 503 C 48.2292 2.24472 -0.643019 0
M  V30 504 C 49.2102 1.66433 0.351283 0
M  V30 505 O 50.3952 1.92803 0.232505 0
M  V30 506 C 47.5252 3.473 4.24935e-05 0
M  V30 507 C 46.4792 4.18055 -0.917257 0
M  V30 508 C 45.8052 5.34519 -0.138941 0
M  V30 509 C 47.1052 4.72109 -2.23407 0
M  V30 510 H 48.7992 2.57566 -1.52643 0
M  V30 511 H 46.3452 1.23806 -0.735394 0
M  V30 512 H 48.2982 4.20426 0.286383 0
M  V30 513 H 47.0222 3.13424 0.918299 0
M  V30 514 H 45.6812 3.46821 -1.1879 0
M  V30 515 H 45.3292 4.96891 0.781562 0
M  V30 516 H 45.0292 5.82794 -0.750005 0
M  V30 517 H 46.5532 6.10438 0.1405 0
M  V30 518 H 47.9672 5.36955 -2.00879 0
M  V30 519 H 46.3642 5.30897 -2.79765 0
M  V30 520 H 47.4342 3.89807 -2.88407 0
M  V30 521 N 48.7773 0.814389 1.34928 0
M  V30 522 C 50.0053 0.411136 2.02774 0
M  V30 523 C 50.4203 -0.980316 1.61354 0
M  V30 524 O 49.7773 -1.63299 0.814847 0
M  V30 525 C 49.8283 0.493865 3.58111 0
M  V30 526 O 49.5493 1.83047 3.98027 0
M  V30 527 C 51.0503 0.0844174 4.4322 0
M  V30 528 H 48.2703 0.166037 0.650133 0
M  V30 529 H 50.8143 1.10018 1.72384 0
M  V30 530 H 48.9693 -0.147006 3.87121 0
M  V30 531 H 49.3833 1.79872 4.92693 0
M  V30 532 H 50.8573 0.193404 5.51661 0
M  V30 533 H 51.3343 -0.97113 4.28329 0
M  V30 534 H 51.9403 0.69875 4.19521 0
M  V30 535 N 50.2554 -1.46986 0.568584 0
M  V30 536 C 51.1854 -2.32946 -0.160753 0
M  V30 537 C 52.1664 -1.44487 -0.897631 0
M  V30 538 O 53.3514 -1.73327 -0.875867 0
M  V30 539 C 50.4814 -3.26494 -1.18403 0
M  V30 540 C 49.4354 -4.24282 -0.562895 0
M  V30 541 C 48.7614 -5.07236 -1.69163 0
M  V30 542 C 50.0614 -5.19989 0.490761 0
M  V30 543 H 51.7554 -2.94175 0.556916 0
M  V30 544 H 49.3014 -1.4146 0.26927 0
M  V30 545 H 51.2544 -3.85477 -1.70251 0
M  V30 546 H 49.9784 -2.63343 -1.93179 0
M  V30 547 H 48.6374 -3.66541 -0.0656164 0
M  V30 548 H 48.2854 -4.4048 -2.42871 0
M  V30 549 H 47.9854 -5.7345 -1.28174 0
M  V30 550 H 49.5094 -5.6908 -2.21314 0
M  V30 551 H 50.9234 -5.73271 0.0579047 0
M  V30 552 H 49.3204 -5.94469 0.820165 0
M  V30 553 H 50.3904 -4.64777 1.3824 0
M  V30 554 N 51.7335 -0.305618 -1.54608 0
M  V30 555 C 53.1495 0.0476228 -1.59529 0
M  V30 556 C 53.3495 1.52025 -1.32252 0
M  V30 557 O 52.4055 2.27368 -1.09818 0
M  V30 558 C 53.7185 -0.354471 -2.98603 0
M  V30 559 C 55.2665 -0.303622 -3.11524 0
M  V30 560 C 55.7415 -0.680608 -4.52915 0
M  V30 561 N 57.2325 -0.63332 -4.5885 0
M  V30 562 C 57.9675 -0.897432 -5.66334 0
M  V30 563 N 57.4635 -1.22775 -6.81834 0
M  V30 564 N 59.2565 -0.824186 -5.56025 0
M  V30 565 H 51.4075 -1.2653 -1.70599 0
M  V30 566 H 53.6705 -0.513291 -0.797017 0
M  V30 567 H 53.3765 -1.3798 -3.23503 0
M  V30 568 H 53.2505 0.289568 -3.76087 0
M  V30 569 H 55.6375 0.712472 -2.8637 0
M  V30 570 H 55.7185 -0.982348 -2.36185 0
M  V30 571 H 55.3625 -1.69453 -4.78799 0
M  V30 572 H 55.2925 0.0202385 -5.26596 0
M  V30 573 H 57.7835 -0.389138 -3.75891 0
M  V30 574 H 58.0965 -1.41513 -7.59733 0
M  V30 575 H 56.4415 -1.26583 -6.83375 0
M  V30 576 H 59.6325 -0.565748 -4.64669 0
M  V30 577 H 59.8055 -1.03338 -6.39707 0
M  V30 578 N 53.2116 1.57565 -0.0334293 0
M  V30 579 C 54.1416 2.13511 0.945265 0
M  V30 580 C 55.1226 1.05231 1.33643 0
M  V30 581 O 56.3076 1.33084 1.41429 0
M  V30 582 C 53.4376 2.6657 2.22616 0
M  V30 583 C 52.3916 3.79676 1.97561 0
M  V30 584 C 51.7176 4.1918 3.31952 0
M  V30 585 C 53.0176 5.0557 1.31135 0
M  V30 586 H 54.7116 2.95538 0.479325 0
M  V30 587 H 52.2576 1.42166 0.229115 0
M  V30 588 H 54.2106 3.04344 2.91466 0
M  V30 589 H 52.9346 1.8171 2.71384 0
M  V30 590 H 51.5936 3.42347 1.31127 0
M  V30 591 H 51.2416 3.31296 3.78487 0
M  V30 592 H 50.9416 4.95402 3.15992 0
M  V30 593 H 52.4656 4.59541 4.02063 0
M  V30 594 H 53.8796 5.40903 1.89992 0
M  V30 595 H 52.2766 5.86818 1.25559 0
M  V30 596 H 53.3466 4.84062 0.284894 0
M  V30 597 N 54.6897 -0.239769 1.55765 0
M  V30 598 C 55.9667 -0.990056 1.68693 0
M  V30 599 C 56.3467 -2.03107 0.5754 0
M  V30 600 O 55.6947 -2.24604 -0.42017 0
M  V30 601 C 55.9047 -1.61696 3.09282 0
M  V30 602 C 57.2527 -2.11613 3.6811 0
M  V30 603 O 58.2767 -1.71624 3.12127 0
M  V30 604 O 57.1357 -2.85057 4.66267 0
M  V30 605 H 54.2297 -0.461299 0.686391 0
M  V30 606 H 56.7757 -0.232991 1.68093 0
M  V30 607 H 55.5477 -0.864357 3.81634 0
M  V30 608 H 55.1707 -2.44005 3.13923 0
M  V30 609 N 56.1678 -1.49265 -0.50573 0
M  V30 610 C 57.4448 -1.49012 -1.26707 0
M  V30 611 C 57.8248 -0.215205 -2.1 0
M  V30 612 O 57.1728 0.802547 -2.13943 0
M  V30 613 C 57.3828 -2.7663 -2.12783 0
M  V30 614 C 58.7308 -3.25932 -2.72127 0
M  V30 615 O 59.7548 -2.77715 -2.23054 0
M  V30 616 O 58.6138 -4.09897 -3.61451 0
M  V30 617 H 55.7078 -0.596197 -0.57313 0
M  V30 618 H 58.2538 -1.61524 -0.52039 0
M  V30 619 H 57.0258 -3.60916 -1.5118 0
M  V30 620 H 56.6488 -2.66956 -2.94653 0
M  V30 621 N 57.6459 0.756429 -1.3826 0
M  V30 622 C 58.6089 1.85176 -1.35065 0
M  V30 623 C 59.6089 1.58818 -0.251703 0
M  V30 624 O 60.7989 1.66615 -0.508433 0
M  V30 625 C 57.9309 3.22596 -1.10201 0
M  V30 626 H 59.1239 1.89417 -2.3251 0
M  V30 627 H 56.6769 0.95783 -1.23512 0
M  V30 628 H 57.4119 3.24025 -0.133504 0
M  V30 629 H 57.1969 3.43122 -1.89762 0
M  V30 630 H 58.6869 4.02673 -1.10654 0
M  V30 631 N 59.124 1.23083 0.984299 0
M  V30 632 C 60.401 0.9689 1.69917 0
M  V30 633 C 60.781 -0.513604 2.04757 0
M  V30 634 O 60.129 -1.48383 1.73767 0
M  V30 635 C 60.339 1.87518 2.94343 0
M  V30 636 C 61.687 2.13636 3.6694 0
M  V30 637 O 62.711 1.85036 3.04368 0
M  V30 638 O 61.57 2.62119 4.79537 0
M  V30 639 H 58.664 0.365095 0.742048 0
M  V30 640 H 61.21 1.34107 1.03987 0
M  V30 641 H 59.982 2.87756 2.65164 0
M  V30 642 H 59.605 1.50514 3.6801 0
M  V30 643 N 60.6021 -1.18246 1.0419 0
M  V30 644 C 61.8511 -1.87588 0.741194 0
M  V30 645 C 62.1641 -1.81303 -0.734066 0
M  V30 646 O 63.3701 -2.46019 -1.14834 0
M  V30 647 C 61.8261 -3.36538 1.27555 0
M  V30 648 C 61.4341 -3.51349 2.77953 0
M  V30 649 C 63.1781 -4.11273 1.05143 0
M  V30 650 C 61.0851 -4.94265 3.2474 0
M  V30 651 H 60.0151 -0.702622 0.273565 0
M  V30 652 H 62.6661 -1.33601 1.25789 0
M  V30 653 H 61.0481 -3.9 0.686703 0
M  V30 654 H 62.2221 -3.08153 3.42605 0
M  V30 655 H 60.5371 -2.90022 2.98791 0
M  V30 656 H 63.1341 -5.16689 1.37611 0
M  V30 657 H 63.4771 -4.16298 -0.0112774 0
M  V30 658 H 64.0101 -3.63987 1.60495 0
M  V30 659 H 60.7491 -4.94408 4.30396 0
M  V30 660 H 60.2691 -5.38172 2.64823 0
M  V30 661 H 61.9481 -5.62987 3.18834 0
M  V30 662 N 62.0802 -0.821533 -1.34494 0
M  V30 663 C 63.0432 -0.247847 -2.27856 0
M  V30 664 C 64.0432 0.573453 -1.50227 0
M  V30 665 O 65.2332 0.389759 -1.69784 0
M  V30 666 C 62.3652 0.652698 -3.34593 0
M  V30 667 H 63.5582 -1.07146 -2.80107 0
M  V30 668 H 61.1112 -0.593291 -1.44602 0
M  V30 669 H 61.8462 1.49943 -2.87555 0
M  V30 670 H 61.6312 0.065292 -3.92046 0
M  V30 671 H 63.1212 1.04793 -4.04238 0
M  V30 672 N 63.5583 1.46682 -0.576371 0
M  V30 673 C 64.9693 1.86112 -0.148091 0
M  V30 674 C 65.3203 1.48073 1.2872 0
M  V30 675 O 64.4453 0.892656 1.97131 0
M  V30 676 C 65.0403 3.37786 -0.261982 0
M  V30 677 C 63.5993 3.76235 0.111384 0
M  V30 678 C 62.7463 2.70713 -0.60083 0
M  V30 679 H 65.6973 1.37927 -0.78497 0
M  V30 680 H 65.7183 3.77007 0.514364 0
M  V30 681 H 65.2303 3.6544 -1.30671 0
M  V30 682 H 63.3313 3.54198 1.15649 0
M  V30 683 H 63.4443 4.78391 -0.26052 0
M  V30 684 H 61.8083 2.54666 -0.0417783 0
M  V30 685 H 62.5913 3.01208 -1.64708 0
M  V30 686 N 65.0364 0.313813 1.54444 0
M  V30 687 C 66.2664 -0.293491 2.04505 0
M  V30 688 C 66.6744 -1.47086 1.19005 0
M  V30 689 O 66.0174 -1.82481 0.211257 0
M  V30 690 C 66.0794 -0.800455 3.50475 0
M  V30 691 C 65.7434 0.253322 4.56297 0
M  V30 692 C 66.7404 1.08612 5.08428 0
M  V30 693 C 64.4254 0.398708 5.00715 0
M  V30 694 C 66.4194 2.05013 6.0353 0
M  V30 695 C 64.1064 1.36614 5.95634 0
M  V30 696 C 65.1044 2.19033 6.46926 0
M  V30 697 O 64.7924 3.14134 7.39983 0
M  V30 698 H 64.5244 -0.0658325 0.672787 0
M  V30 699 H 67.0784 0.455177 2.00293 0
M  V30 700 H 65.3084 -1.59987 3.52053 0
M  V30 701 H 66.9974 -1.32504 3.83663 0
M  V30 702 H 67.7634 0.984736 4.74898 0
M  V30 703 H 63.6424 -0.23289 4.60411 0
M  V30 704 H 67.1864 2.69382 6.4349 0
M  V30 705 H 63.0834 1.4682 6.28581 0
M  V30 706 H 63.8514 3.0926 7.57826 0
M  V30 707 N 66.5145 -1.57545 0.0417849 0
M  V30 708 C 67.4645 -2.07483 -0.945247 0
M  V30 709 C 68.4485 -0.977983 -1.27767 0
M  V30 710 O 69.6405 -1.24142 -1.26166 0
M  V30 711 C 66.7695 -2.61576 -2.22335 0
M  V30 712 C 65.8555 -3.78213 -1.91874 0
M  V30 713 N 66.2465 -4.88344 -1.31733 0
M  V30 714 C 64.5445 -3.8694 -2.21796 0
M  V30 715 C 65.2455 -5.69462 -1.1869 0
M  V30 716 N 64.2215 -5.16771 -1.68666 0
M  V30 717 H 68.0235 -2.90029 -0.475441 0
M  V30 718 H 65.5375 -1.61581 -0.162911 0
M  V30 719 H 67.5345 -2.95651 -2.93932 0
M  V30 720 H 66.1945 -1.80465 -2.69931 0
M  V30 721 H 67.2055 -5.08335 -0.990729 0
M  V30 722 H 63.8825 -3.16757 -2.71977 0
M  V30 723 H 65.2725 -6.68023 -0.720793 0
M  V30 724 N 67.9926 0.231505 -1.5589 0
M  V30 725 C 69.2696 0.981096 -1.69215 0
M  V30 726 C 69.6496 2.02799 -0.586164 0
M  V30 727 O 68.9976 2.24823 0.408253 0
M  V30 728 C 69.2076 1.60054 -3.10135 0
M  V30 729 C 70.5556 2.09658 -3.69227 0
M  V30 730 O 71.5796 1.69967 -3.13033 0
M  V30 731 O 70.4386 2.8258 -4.67772 0
M  V30 732 H 67.5326 0.457653 -0.688827 0
M  V30 733 H 70.0786 0.224073 -1.68214 0
M  V30 734 H 68.8506 0.844105 -3.82087 0
M  V30 735 H 68.4736 2.42336 -3.15212 0
M  V30 736 N 69.4707 1.49531 0.497807 0
M  V30 737 C 70.4187 1.66926 1.61983 0
M  V30 738 C 71.4127 0.535167 1.60724 0
M  V30 739 O 72.6187 0.714896 1.65195 0
M  V30 740 H 68.9937 0.526415 0.537021 0
M  V30 741 H 70.9647 2.61098 1.44465 0
M  V30 742 C 69.7137 1.75602 3.00099 0
M  V30 743 H 69.0367 2.62244 3.01775 0
M  V30 744 H 70.4767 1.91807 3.78135 0
M  V30 745 C 68.9357 0.501543 3.33146 0
M  V30 746 O 69.4657 -0.371342 3.9998 0
M  V30 747 N 67.6717 0.363531 2.88317 0
M  V30 748 H 67.2187 1.07485 2.34104 0
M  V30 749 H 67.1767 -0.474728 3.10795 0
M  V30 750 N 70.9488 -0.749086 1.3866 0
M  V30 751 C 72.1958 -1.50833 1.35114 0
M  V30 752 C 72.5238 -1.94415 -0.0574049 0
M  V30 753 O 71.7788 -1.66065 -1.03541 0
M  V30 754 C 72.0778 -2.7712 2.25697 0
M  V30 755 C 71.7438 -2.52477 3.73585 0
M  V30 756 C 70.4058 -2.45466 4.13884 0
M  V30 757 C 72.7578 -2.31066 4.67181 0
M  V30 758 C 70.0858 -2.15064 5.45861 0
M  V30 759 C 72.4378 -2.02183 5.9942 0
M  V30 760 C 71.1018 -1.93631 6.38798 0
M  V30 761 H 70.3718 -0.551936 0.494416 0
M  V30 762 H 73.0188 -0.860979 1.71054 0
M  V30 763 H 71.3238 -3.46528 1.82827 0
M  V30 764 H 73.0208 -3.35096 2.20254 0
M  V30 765 H 69.6108 -2.58807 3.41638 0
M  V30 766 H 73.7948 -2.35459 4.3689 0
M  V30 767 H 69.0508 -2.06954 5.75308 0
M  V30 768 H 73.2248 -1.8462 6.71482 0
M  V30 769 H 70.8518 -1.69839 7.40985 0
M  V30 770 N 72.4269 -1.23603 -0.977757 0
M  V30 771 C 73.3769 -0.986664 -2.05545 0
M  V30 772 C 74.3609 0.0683009 -1.60755 0
M  V30 773 O 75.5529 -0.144162 -1.76412 0
M  V30 774 C 72.6819 -0.582623 -3.3832 0
M  V30 775 C 71.7679 -1.67313 -3.89701 0
M  V30 776 N 72.1589 -2.90394 -4.14132 0
M  V30 777 C 70.4569 -1.54832 -4.18262 0
M  V30 778 C 71.1579 -3.61017 -4.56116 0
M  V30 779 N 70.1339 -2.8854 -4.60701 0
M  V30 780 H 73.9359 -1.92139 -2.22396 0
M  V30 781 H 71.4499 -1.1358 -1.16074 0
M  V30 782 H 73.4469 -0.38524 -4.15116 0
M  V30 783 H 72.1069 0.34503 -3.22862 0
M  V30 784 H 73.1179 -3.26673 -4.01877 0
M  V30 785 H 69.7949 -0.687969 -4.11793 0
M  V30 786 H 71.1849 -4.66544 -4.83514 0
M  V30 787 N 73.905 1.17692 -1.04816 0
M  V30 788 C 74.837 2.21103 -0.603822 0
M  V30 789 C 75.85 1.59411 0.33046 0
M  V30 790 O 77.039 1.7807 0.12379 0
M  V30 791 C 74.139 3.38623 0.136898 0
M  V30 792 C 73.312 4.29888 -0.807137 0
M  V30 793 C 72.371 5.26088 -0.10836 0
M  V30 794 O 71.397 5.64353 -0.741232 0
M  V30 795 N 72.599 5.68882 1.15558 0
M  V30 796 H 75.364 2.59848 -1.49329 0
M  V30 797 H 72.925 1.32553 -0.929587 0
M  V30 798 H 74.917 4.00009 0.614401 0
M  V30 799 H 73.487 2.98508 0.927993 0
M  V30 800 H 72.707 3.65993 -1.46434 0
M  V30 801 H 73.995 4.87759 -1.44807 0
M  V30 802 H 73.393 5.39861 1.69015 0
M  V30 803 H 71.95 6.32429 1.57722 0
M  V30 804 N 75.3831 0.828654 1.34056 0
M  V30 805 C 76.3151 0.212052 2.28217 0
M  V30 806 C 77.3281 -0.601362 1.51286 0
M  V30 807 O 78.5171 -0.430104 1.73241 0
M  V30 808 C 75.6171 -0.72088 3.31144 0
M  V30 809 C 74.7901 0.0509587 4.3737 0
M  V30 810 C 73.8491 -0.803766 5.20025 0
M  V30 811 O 72.8751 -0.246667 5.68665 0
M  V30 812 N 74.0771 -2.1227 5.40298 0
M  V30 813 H 76.8421 1.02105 2.81771 0
M  V30 814 H 74.4031 0.686153 1.46641 0
M  V30 815 H 76.3951 -1.29742 3.8334 0
M  V30 816 H 74.9651 -1.43061 2.77943 0
M  V30 817 H 74.1851 0.808831 3.85813 0
M  V30 818 H 75.4731 0.582065 5.0546 0
M  V30 819 H 74.8711 -2.59898 5.02464 0
M  V30 820 H 73.4281 -2.64796 5.95589 0
M  V30 821 N 76.8612 -1.46375 0.584142 0
M  V30 822 C 78.2722 -1.86031 0.157959 0
M  V30 823 C 78.6232 -1.48753 -1.27933 0
M  V30 824 O 77.7482 -0.903098 -1.96655 0
M  V30 825 C 78.3432 -3.37642 0.279892 0
M  V30 826 C 76.9022 -3.76289 -0.09143 0
M  V30 827 C 76.0492 -2.7039 0.615178 0
M  V30 828 H 79.0002 -1.37509 0.792274 0
M  V30 829 H 79.0212 -3.77275 -0.494364 0
M  V30 830 H 78.5332 -3.64742 1.32607 0
M  V30 831 H 76.6342 -3.54806 -1.13769 0
M  V30 832 H 76.7472 -4.78246 0.285886 0
M  V30 833 H 75.1112 -2.5464 0.0552833 0
M  V30 834 H 75.8942 -3.0033 1.66303 0
M  V30 835 N 78.3393 -0.321999 -1.54275 0
M  V30 836 C 79.7553 0.0306999 -1.5957 0
M  V30 837 C 79.9553 1.50614 -1.33857 0
M  V30 838 O 79.0113 2.2619 -1.12223 0
M  V30 839 C 80.3243 -0.386122 -2.98211 0
M  V30 840 C 81.8723 -0.336647 -3.11184 0
M  V30 841 C 82.3473 -0.728607 -4.52167 0
M  V30 842 N 83.8383 -0.681952 -4.58152 0
M  V30 843 C 84.5733 -0.957449 -5.6535 0
M  V30 844 N 84.0693 -1.3 -6.80494 0
M  V30 845 N 85.8623 -0.883113 -5.55119 0
M  V30 846 H 78.0133 -1.28332 -1.69247 0
M  V30 847 H 80.2763 -0.521716 -0.791528 0
M  V30 848 H 79.9823 -1.41404 -3.22022 0
M  V30 849 H 79.8563 0.249662 -3.76373 0
M  V30 850 H 82.2433 0.682058 -2.8711 0
M  V30 851 H 82.3243 -1.00734 -2.3513 0
M  V30 852 H 81.9683 -1.74522 -4.76974 0
M  V30 853 H 81.8983 -0.0356152 -5.26588 0
M  V30 854 H 84.3893 -0.428985 -3.75457 0
M  V30 855 H 84.7023 -1.49563 -7.58189 0
M  V30 856 H 83.0473 -1.33824 -6.81994 0
M  V30 857 H 86.2383 -0.615001 -4.64042 0
M  V30 858 H 86.4113 -1.10118 -6.38575 0
M  V30 859 N 79.8174 1.5752 -0.0501392 0
M  V30 860 C 81.0474 1.96678 0.632573 0
M  V30 861 C 81.4554 0.926298 1.64974 0
M  V30 862 O 80.7984 -0.09802 1.83438 0
M  V30 863 C 80.8604 3.32068 1.37735 0
M  V30 864 C 80.5244 4.54076 0.516131 0
M  V30 865 C 81.5214 5.19445 -0.217357 0
M  V30 866 C 79.2064 5.00304 0.44736 0
M  V30 867 C 81.2004 6.29378 -1.00807 0
M  V30 868 C 78.8874 6.10114 -0.347038 0
M  V30 869 C 79.8854 6.74512 -1.07344 0
M  V30 870 O 79.5734 7.82211 -1.85477 0
M  V30 871 H 79.3054 0.652193 0.177821 0
M  V30 872 H 81.8594 2.05091 -0.112543 0
M  V30 873 H 80.0894 3.20206 2.16807 0
M  V30 874 H 81.7784 3.55981 1.95019 0
M  V30 875 H 82.5444 4.84689 -0.173688 0
M  V30 876 H 78.4234 4.49971 1.00235 0
M  V30 877 H 81.9674 6.79575 -1.57556 0
M  V30 878 H 77.8644 6.44307 -0.392349 0
M  V30 879 H 78.6324 7.98982 -1.77678 0
M  V30 880 N 81.2955 -0.223234 1.56011 0
M  V30 881 C 82.5445 -0.945912 1.78144 0
M  V30 882 C 82.8575 -1.85567 0.618396 0
M  V30 883 O 84.0635 -2.61688 0.723318 0
M  V30 884 C 82.5195 -1.73216 3.15475 0
M  V30 885 C 82.1275 -0.868619 4.39499 0
M  V30 886 C 83.8715 -2.44615 3.46935 0
M  V30 887 C 81.7785 -1.65212 5.67855 0
M  V30 888 H 80.7085 -0.356929 0.664167 0
M  V30 889 H 83.3595 -0.199845 1.82409 0
M  V30 890 H 81.7415 -2.52107 3.05382 0
M  V30 891 H 82.9155 -0.120366 4.60643 0
M  V30 892 H 81.2305 -0.26683 4.15544 0
M  V30 893 H 83.8275 -3.03732 4.40058 0
M  V30 894 H 84.1705 -3.17417 2.69355 0
M  V30 895 H 84.7035 -1.72715 3.58349 0
M  V30 896 H 81.4425 -0.967407 6.48322 0
M  V30 897 H 80.9625 -2.37503 5.50774 0
M  V30 898 H 82.6415 -2.21322 6.07968 0
M  V30 899 N 82.7736 -1.49793 -0.48987 0
M  V30 900 C 84.1846 -1.52914 -1.07118 0
M  V30 901 C 84.5356 -0.321738 -1.93544 0
M  V30 902 O 83.6606 0.567338 -2.08831 0
M  V30 903 C 84.2556 -2.771 -1.94938 0
M  V30 904 C 82.8146 -2.82963 -2.48212 0
M  V30 905 C 81.9616 -2.46972 -1.26096 0
M  V30 906 H 84.9126 -1.56329 -0.273289 0
M  V30 907 H 84.9336 -2.57892 -2.79771 0
M  V30 908 H 84.4456 -3.64959 -1.32009 0
M  V30 909 H 82.5466 -1.99411 -3.14748 0
M  V30 910 H 82.6596 -3.85406 -2.84603 0
M  V30 911 H 81.0236 -1.98994 -1.58976 0
M  V30 912 H 81.8066 -3.37118 -0.648581 0
M  V30 913 N 84.2517 0.741722 -1.39055 0
M  V30 914 C 85.1817 1.869 -1.39966 0
M  V30 915 C 86.1627 1.6804 -0.26392 0
M  V30 916 O 87.3477 1.88458 -0.468755 0
M  V30 917 C 84.4777 3.24572 -1.23574 0
M  V30 918 C 83.4317 3.58056 -2.34477 0
M  V30 919 C 82.7577 4.94593 -2.0318 0
M  V30 920 C 84.0577 3.61716 -3.76774 0
M  V30 921 H 85.7517 1.86395 -2.34302 0
M  V30 922 H 83.2977 0.895361 -1.1278 0
M  V30 923 H 85.2507 4.031 -1.22834 0
M  V30 924 H 83.9747 3.25587 -0.257045 0
M  V30 925 H 82.6337 2.81854 -2.34423 0
M  V30 926 H 82.2817 4.92181 -1.03765 0
M  V30 927 H 81.9817 5.17964 -2.77465 0
M  V30 928 H 83.5057 5.75486 -2.04079 0
M  V30 929 H 84.9197 4.30335 -3.78794 0
M  V30 930 H 83.3167 3.96603 -4.50362 0
M  V30 931 H 84.3867 2.61672 -4.08235 0
M  V30 932 N 85.7298 1.2412 0.971189 0
M  V30 933 C 86.9548 1.10667 1.75407 0
M  V30 934 C 87.3798 -0.337048 1.85056 0
M  V30 935 O 86.7378 -1.24396 1.31892 0
M  V30 936 C 86.7858 1.74726 3.15441 0
M  V30 937 O 85.8898 1.01566 3.99697 0
M  V30 938 H 85.2308 0.387341 0.539317 0
M  V30 939 H 87.7608 1.64358 1.2185 0
M  V30 940 H 87.7708 1.80341 3.6598 0
M  V30 941 H 86.4458 2.79773 3.07734 0
M  V30 942 H 85.0228 1.03713 3.58187 0
M  V30 943 N 87.2079 -1.17134 1.05439 0
M  V30 944 C 88.1399 -2.2078 0.615539 0
M  V30 945 C 89.1529 -1.59584 -0.322001 0
M  V30 946 O 90.3419 -1.78133 -0.114344 0
M  V30 947 C 87.4419 -3.38691 -0.118938 0
M  V30 948 C 86.6149 -4.29454 0.829924 0
M  V30 949 C 85.6739 -5.26024 0.136258 0
M  V30 950 O 84.6999 -5.63952 0.77115 0
M  V30 951 N 85.9019 -5.69487 -1.1254 0
M  V30 952 H 88.6669 -2.59052 1.50705 0
M  V30 953 H 86.2279 -1.32058 0.936603 0
M  V30 954 H 88.2199 -4.00329 -0.593179 0
M  V30 955 H 86.7899 -2.98996 -0.91215 0
M  V30 956 H 86.0099 -3.65211 1.48373 0
M  V30 957 H 87.2979 -4.86984 1.47392 0
M  V30 958 H 86.6959 -5.4075 -1.6615 0
M  V30 959 H 85.2529 -6.33257 -1.54366 0
M  V30 960 N 88.686 -0.835752 -1.33615 0
M  V30 961 C 90.097 -0.487099 -1.80234 0
M  V30 962 C 90.448 0.993627 -1.69179 0
M  V30 963 O 89.573 1.77403 -1.23924 0
M  V30 964 C 90.168 -0.877385 -3.27242 0
M  V30 965 C 88.727 -0.580915 -3.7189 0
M  V30 966 C 87.874 -1.0874 -2.5509 0
M  V30 967 H 90.825 -1.02474 -1.2118 0
M  V30 968 H 90.846 -0.186195 -3.80044 0
M  V30 969 H 90.358 -1.95512 -3.35256 0
M  V30 970 H 88.459 0.486881 -3.69405 0
M  V30 971 H 88.572 -1.13396 -4.65487 0
M  V30 972 H 86.936 -0.508392 -2.49575 0
M  V30 973 H 87.719 -2.17184 -2.65868 0
M  V30 974 N 90.1641 1.46063 -0.591896 0
M  V30 975 C 91.0971 2.27452 0.184617 0
M  V30 976 C 92.0751 1.36188 0.888351 0
M  V30 977 O 93.2591 1.65606 0.90039 0
M  V30 978 C 90.3861 3.14162 1.26571 0
M  V30 979 C 89.4321 4.21255 0.666814 0
M  V30 980 S 90.2651 5.33034 -0.513345 0
M  V30 981 C 91.4211 6.23311 0.56872 0
M  V30 982 H 91.6541 2.92963 -0.505939 0
M  V30 983 H 89.1871 1.49676 -0.379014 0
M  V30 984 H 91.1451 3.6468 1.88463 0
M  V30 985 H 89.8061 2.47946 1.92826 0
M  V30 986 H 88.9991 4.81788 1.47974 0
M  V30 987 H 88.6011 3.73797 0.123359 0
M  V30 988 H 90.8931 6.61758 1.45198 0
M  V30 989 H 91.8361 7.081 -7.23824e-05 0
M  V30 990 H 92.2441 5.57646 0.876996 0
M  V30 991 N 91.6422 0.330177 1.54103 0
M  V30 992 C 93.0532 -0.15652 1.86043 0
M  V30 993 C 93.4042 -1.51086 1.2517 0
M  V30 994 O 92.5292 -2.09023 0.560217 0
M  V30 995 C 93.1242 -0.290784 3.3755 0
M  V30 996 C 91.6832 -0.721705 3.69416 0
M  V30 997 C 90.8302 0.152622 2.7688 0
M  V30 998 H 93.7812 0.550237 1.48856 0
M  V30 999 H 93.8022 -1.12058 3.63625 0
M  V30 1000 H 93.3142 0.695068 3.81825 0
M  V30 1001 H 91.4152 -1.71706 3.30678 0
M  V30 1002 H 91.5282 -0.520869 4.7626 0
M  V30 1003 H 89.8922 -0.372894 2.51956 0
M  V30 1004 H 90.6752 1.13536 3.23982 0
M  V30 1005 N 93.1203 -1.57491 0.0584922 0
M  V30 1006 C 94.0503 -2.14988 -0.911178 0
M  V30 1007 C 95.0313 -1.07343 -1.31952 0
M  V30 1008 O 96.2163 -1.35318 -1.39294 0
M  V30 1009 C 93.3463 -2.70078 -2.18347 0
M  V30 1010 C 92.3003 -3.82771 -1.91495 0
M  V30 1011 C 91.6263 -4.24408 -3.25241 0
M  V30 1012 C 92.9263 -5.07592 -1.23075 0
M  V30 1013 H 94.6203 -2.96263 -0.432246 0
M  V30 1014 H 92.1663 -1.42512 -0.206469 0
M  V30 1015 H 94.1193 -3.08943 -2.86587 0
M  V30 1016 H 92.8433 -1.86005 -2.68458 0
M  V30 1017 H 91.5023 -3.44389 -1.25664 0
M  V30 1018 H 91.1503 -3.37275 -3.73168 0
M  V30 1019 H 90.8503 -5.00366 -3.08071 0
M  V30 1020 H 92.3743 -4.65879 -3.94701 0
M  V30 1021 H 93.7883 -5.43857 -1.81362 0
M  V30 1022 H 92.1853 -5.88741 -1.16207 0
M  V30 1023 H 93.2553 -4.84454 -0.207847 0
M  V30 1024 N 94.5984 0.214957 -1.56127 0
M  V30 1025 C 95.5284 1.2695 -1.95974 0
M  V30 1026 C 96.5094 1.48539 -0.828868 0
M  V30 1027 O 97.6944 1.60611 -1.09168 0
M  V30 1028 C 94.8244 2.61794 -2.28214 0
M  V30 1029 C 93.7784 2.54851 -3.43853 0
M  V30 1030 C 93.1044 3.93785 -3.61715 0
M  V30 1031 C 94.4044 2.09065 -4.78632 0
M  V30 1032 H 96.0984 0.93846 -2.84312 0
M  V30 1033 H 93.6444 0.449996 -1.36788 0
M  V30 1034 H 95.5974 3.35731 -2.54682 0
M  V30 1035 H 94.3214 2.96599 -1.36736 0
M  V30 1036 H 92.9804 1.8337 -3.17444 0
M  V30 1037 H 92.6284 4.25908 -2.67602 0
M  V30 1038 H 92.3284 3.90019 -4.39498 0
M  V30 1039 H 93.8524 4.69374 -3.90539 0
M  V30 1040 H 95.2664 2.7275 -5.04262 0
M  V30 1041 H 93.6634 2.16346 -5.59745 0
M  V30 1042 H 94.7334 1.04315 -4.73547 0
M  V30 1043 N 96.0765 1.50051 0.48192 0
M  V30 1044 C 97.0395 1.67584 1.5636 0
M  V30 1045 C 98.0395 0.546894 1.51214 0
M  V30 1046 O 99.2295 0.813725 1.54026 0
M  V30 1047 C 96.3615 1.691 2.96003 0
M  V30 1048 H 97.5545 2.64078 1.42136 0
M  V30 1049 H 95.1075 1.39369 0.707533 0
M  V30 1050 H 95.8425 0.742589 3.15684 0
M  V30 1051 H 95.6275 2.51105 3.01146 0
M  V30 1052 H 97.1175 1.84656 3.74556 0
M  V30 1053 N 97.5546 -0.734337 1.39446 0
M  V30 1054 C 98.5026 -1.86971 1.38364 0
M  V30 1055 C 99.4966 -1.67288 0.266687 0
M  V30 1056 O 100.703 -1.74621 0.436755 0
M  V30 1057 H 97.0776 -0.615474 0.432082 0
M  V30 1058 H 99.0486 -1.85 2.34132 0
M  V30 1059 C 97.7976 -3.2466 1.24465 0
M  V30 1060 H 97.1206 -3.40402 2.09682 0
M  V30 1061 H 98.5606 -4.04292 1.27764 0
M  V30 1062 C 97.0196 -3.36867 -0.0468674 0
M  V30 1063 O 97.5496 -3.88618 -1.01681 0
M  V30 1064 N 95.7556 -2.90391 -0.110145 0
M  V30 1065 H 95.3026 -2.48466 0.679868 0
M  V30 1066 H 95.2606 -2.98939 -0.973799 0
M  V30 1067 N 99.0327 -1.24633 -0.964593 0
M  V30 1068 C 100.261 -1.11501 -1.74285 0
M  V30 1069 C 100.676 0.332165 -1.85855 0
M  V30 1070 O 100.033 1.22903 -1.34911 0
M  V30 1071 C 100.084 -1.75258 -3.16175 0
M  V30 1072 O 99.8047 -3.14318 -3.05182 0
M  V30 1073 C 101.306 -1.67776 -4.10324 0
M  V30 1074 H 98.5257 -0.389407 -0.546446 0
M  V30 1075 H 101.07 -1.64801 -1.21083 0
M  V30 1076 H 99.2247 -1.25954 -3.66353 0
M  V30 1077 H 99.6387 -3.4551 -3.94618 0
M  V30 1078 H 101.113 -2.17064 -5.0753 0
M  V30 1079 H 101.59 -0.639584 -4.34518 0
M  V30 1080 H 102.196 -2.16522 -3.66058 0
M  V30 1081 N 100.511 1.16574 -1.06058 0
M  V30 1082 C 101.922 1.68662 -0.800632 0
M  V30 1083 C 102.273 1.84184 0.67608 0
M  V30 1084 O 101.398 1.53568 1.52466 0
M  V30 1085 C 101.993 3.06356 -1.44676 0
M  V30 1086 C 100.552 3.55575 -1.23465 0
M  V30 1087 C 99.6988 2.31616 -1.52477 0
M  V30 1088 H 102.65 1.00969 -1.22438 0
M  V30 1089 H 102.671 3.70636 -0.860788 0
M  V30 1090 H 102.183 2.95027 -2.52152 0
M  V30 1091 H 100.284 3.72167 -0.179527 0
M  V30 1092 H 100.397 4.37812 -1.94571 0
M  V30 1093 H 98.7608 2.36512 -0.945209 0
M  V30 1094 H 99.5438 2.22887 -2.61106 0
M  V30 1095 N 101.989 0.842826 1.3317 0
M  V30 1096 C 103.236 0.440447 1.97652 0
M  V30 1097 C 103.564 -1.00123 1.6675 0
M  V30 1098 O 102.819 -1.7155 0.941761 0
M  V30 1099 C 103.118 0.612607 3.52111 0
M  V30 1100 C 102.784 2.02297 4.02972 0
M  V30 1101 C 101.446 2.40874 4.16573 0
M  V30 1102 C 103.798 2.94402 4.30089 0
M  V30 1103 C 101.126 3.70852 4.54627 0
M  V30 1104 C 103.478 4.23865 4.69597 0
M  V30 1105 C 102.142 4.62392 4.81404 0
M  V30 1106 H 101.412 0.161171 0.72326 0
M  V30 1107 H 104.059 1.07061 1.58777 0
M  V30 1108 H 102.364 -0.100849 3.9167 0
M  V30 1109 H 104.061 0.2815 4.00011 0
M  V30 1110 H 100.651 1.71338 3.92863 0
M  V30 1111 H 104.835 2.65835 4.19101 0
M  V30 1112 H 100.091 4.00501 4.61962 0
M  V30 1113 H 104.265 4.95306 4.89536 0
M  V30 1114 H 101.892 5.63154 5.10648 0
M  V30 1115 N 103.467 -1.45747 0.599634 0
M  V30 1116 C 104.716 -2.01502 0.0893511 0
M  V30 1117 C 105.029 -1.4748 -1.28488 0
M  V30 1118 O 106.235 -1.95161 -1.88745 0
M  V30 1119 C 104.691 -3.59735 0.109082 0
M  V30 1120 C 104.299 -4.22754 1.48267 0
M  V30 1121 C 106.043 -4.23085 -0.346374 0
M  V30 1122 C 103.95 -5.73115 1.45921 0
M  V30 1123 H 102.88 -0.753417 0.0296347 0
M  V30 1124 H 105.531 -1.67303 0.753788 0
M  V30 1125 H 103.913 -3.91087 -0.621854 0
M  V30 1126 H 105.087 -4.02987 2.23468 0
M  V30 1127 H 103.402 -3.71567 1.87955 0
M  V30 1128 H 105.999 -5.33327 -0.38298 0
M  V30 1129 H 106.342 -3.93201 -1.36743 0
M  V30 1130 H 106.875 -3.9642 0.331038 0
M  V30 1131 H 103.614 -6.07685 2.45762 0
M  V30 1132 H 103.134 -5.95097 0.749665 0
M  V30 1133 H 104.813 -6.3616 1.17941 0
M  V30 1134 N 104.945 -0.338344 -1.53925 0
M  V30 1135 C 106.191 0.260143 -2.01125 0
M  V30 1136 C 106.524 1.50617 -1.22589 0
M  V30 1137 O 105.799 1.91979 -0.312113 0
M  V30 1138 C 106.082 0.579499 -3.55407 0
M  V30 1139 C 105.935 -0.678264 -4.44657 0
M  V30 1140 C 107.254 1.39122 -4.17532 0
M  V30 1141 H 104.373 0.0930772 -0.731099 0
M  V30 1142 H 107.015 -0.457852 -1.84401 0
M  V30 1143 H 105.165 1.19118 -3.69788 0
M  V30 1144 H 106.837 -1.31631 -4.42121 0
M  V30 1145 H 105.08 -1.3042 -4.13731 0
M  V30 1146 H 105.751 -0.410143 -5.50474 0
M  V30 1147 H 108.227 0.874035 -4.06817 0
M  V30 1148 H 107.103 1.58342 -5.25565 0
M  V30 1149 H 107.364 2.39178 -3.71815 0
M  V30 1150 N 106.423 1.57458 -0.0668435 0
M  V30 1151 C 107.651 1.97624 0.612565 0
M  V30 1152 C 108.066 0.94502 1.63447 0
M  V30 1153 O 107.423 -0.0689276 1.8237 0
M  V30 1154 C 107.474 3.37869 1.28555 0
M  V30 1155 O 107.195 4.3704 0.304557 0
M  V30 1156 C 108.696 3.92882 2.05325 0
M  V30 1157 H 105.916 0.650045 0.166381 0
M  V30 1158 H 108.46 2.04035 -0.137782 0
M  V30 1159 H 106.615 3.3256 1.98702 0
M  V30 1160 H 107.029 5.18565 0.786779 0
M  V30 1161 H 108.503 4.93247 2.47812 0
M  V30 1162 H 108.98 3.29156 2.9078 0
M  V30 1163 H 109.586 4.01577 1.40056 0
M  V30 1164 N 107.901 -0.206675 1.56239 0
M  V30 1165 C 109.149 -0.927007 1.79586 0
M  V30 1166 C 109.47 -1.8427 0.637929 0
M  V30 1167 O 108.74 -1.92849 -0.344398 0
M  V30 1168 H 107.32 -0.345292 0.662407 0
M  V30 1169 H 109.982 -0.21496 1.93711 0
M  V30 1170 H 109.078 -1.52501 2.72305 0
M  V30 1171 N 109.379 -1.50304 -0.473955 0
M  V30 1172 C 110.604 -1.65175 -1.25427 0
M  V30 1173 C 111.029 -0.333673 -1.85117 0
M  V30 1174 O 110.387 0.702114 -1.67153 0
M  V30 1175 C 110.435 -2.74295 -2.34082 0
M  V30 1176 O 109.539 -2.35349 -3.38651 0
M  V30 1177 H 108.88 -0.551944 -0.369126 0
M  V30 1178 H 111.41 -1.96662 -0.564364 0
M  V30 1179 H 111.42 -2.97285 -2.79438 0
M  V30 1180 H 110.095 -3.69959 -1.90008 0
M  V30 1181 H 108.672 -2.22794 -2.99027 0
M  V30 1182 N 110.857 0.726932 -1.39834 0
M  V30 1183 C 112.105 1.4837 -1.37225 0
M  V30 1184 C 112.426 1.94979 0.0284857 0
M  V30 1185 O 111.696 1.69555 0.981213 0
M  V30 1186 H 110.276 0.55043 -0.505011 0
M  V30 1187 H 112.938 0.862468 -1.74778 0
M  V30 1188 H 112.034 2.36198 -2.04003 0
M  V30 1189 N 112.336 1.25143 0.95797 0
M  V30 1190 C 113.283 1.05235 2.05412 0
M  V30 1191 C 114.253 -0.0374561 1.66058 0
M  V30 1192 O 115.438 0.119073 1.90428 0
M  V30 1193 C 112.578 0.673589 3.38462 0
M  V30 1194 C 111.691 1.8379 3.90954 0
M  V30 1195 C 110.826 1.40381 5.12315 0
M  V30 1196 C 109.865 2.53746 5.57027 0
M  V30 1197 N 109.002 2.11136 6.69601 0
M  V30 1198 H 113.842 1.99048 2.21774 0
M  V30 1199 H 111.379 0.991277 1.08683 0
M  V30 1200 H 113.337 0.434964 4.14926 0
M  V30 1201 H 111.967 -0.227554 3.21997 0
M  V30 1202 H 111.019 2.18992 3.11041 0
M  V30 1203 H 112.331 2.68937 4.20089 0
M  V30 1204 H 111.485 1.12464 5.96185 0
M  V30 1205 H 110.224 0.523015 4.84887 0
M  V30 1206 H 109.229 2.82412 4.71724 0
M  V30 1207 H 110.454 3.42398 5.86464 0
M  V30 1208 H 108.4 1.25468 6.4389 0
M  V30 1209 H 108.317 2.89832 6.98236 0
M  V30 1210 H 109.585 1.86385 7.56889 0
M  V30 1211 N 113.814 -1.1601 1.06675 0
M  V30 1212 C 115.061 -1.86633 0.785781 0
M  V30 1213 C 115.389 -1.81929 -0.687896 0
M  V30 1214 O 114.644 -1.23253 -1.52011 0
M  V30 1215 C 114.943 -3.35547 1.23057 0
M  V30 1216 C 114.609 -3.60448 2.70902 0
M  V30 1217 C 113.271 -3.66954 3.11285 0
M  V30 1218 C 115.623 -3.7071 3.66365 0
M  V30 1219 C 112.951 -3.81225 4.45965 0
M  V30 1220 C 115.303 -3.86503 5.00797 0
M  V30 1221 C 113.967 -3.91252 5.40813 0
M  V30 1222 H 113.237 -0.682937 0.287538 0
M  V30 1223 H 115.884 -1.37146 1.33654 0
M  V30 1224 H 114.189 -3.87193 0.59907 0
M  V30 1225 H 115.886 -3.88583 0.990163 0
M  V30 1226 H 112.476 -3.56021 2.38636 0
M  V30 1227 H 116.66 -3.64991 3.36296 0
M  V30 1228 H 111.916 -3.83155 4.76447 0
M  V30 1229 H 116.09 -3.93385 5.74649 0
M  V30 1230 H 113.717 -4.02062 6.45174 0
M  V30 1231 N 115.292 -0.849877 -1.32721 0
M  V30 1232 C 116.539 -0.450923 -1.97416 0
M  V30 1233 C 116.867 0.992376 -1.67279 0
M  V30 1234 O 116.122 1.71048 -0.950845 0
M  V30 1235 C 116.421 -0.631272 -3.51781 0
M  V30 1236 C 116.087 -2.04432 -4.01894 0
M  V30 1237 C 114.749 -2.4308 -4.1529 0
M  V30 1238 C 117.101 -2.96679 -4.28522 0
M  V30 1239 C 114.429 -3.73257 -4.52654 0
M  V30 1240 C 116.781 -4.26349 -4.67343 0
M  V30 1241 C 115.445 -4.64939 -4.78945 0
M  V30 1242 H 114.715 -0.165004 -0.722395 0
M  V30 1243 H 117.362 -1.07901 -1.58207 0
M  V30 1244 H 115.667 0.0800767 -3.91718 0
M  V30 1245 H 117.364 -0.302709 -3.99856 0
M  V30 1246 H 113.954 -1.73419 -3.91949 0
M  V30 1247 H 118.138 -2.68054 -4.17685 0
M  V30 1248 H 113.394 -4.02946 -4.59831 0
M  V30 1249 H 117.568 -4.97895 -4.86902 0
M  V30 1250 H 115.195 -5.65855 -5.07654 0
M  V30 1251 N 116.77 1.45427 -0.607355 0
M  V30 1252 C 118.186 1.57283 -0.270985 0
M  V30 1253 C 118.386 1.59875 1.22647 0
M  V30 1254 O 117.442 1.52893 2.00948 0
M  V30 1255 C 118.755 2.85566 -0.941952 0
M  V30 1256 C 120.303 2.9924 -0.917849 0
M  V30 1257 C 120.778 4.30293 -1.56882 0
M  V30 1258 N 122.269 4.37051 -1.5343 0
M  V30 1259 C 123.004 5.37123 -2.00715 0
M  V30 1260 N 122.5 6.43734 -2.56084 0
M  V30 1261 N 124.293 5.28479 -1.91484 0
M  V30 1262 H 116.444 1.41988 -1.57966 0
M  V30 1263 H 118.707 0.67885 -0.661715 0
M  V30 1264 H 118.413 2.8955 -1.99633 0
M  V30 1265 H 118.287 3.74322 -0.465096 0
M  V30 1266 H 120.674 2.94822 0.127984 0
M  V30 1267 H 120.755 2.11895 -1.43297 0
M  V30 1268 H 120.399 4.35469 -2.61398 0
M  V30 1269 H 120.329 5.16454 -1.02873 0
M  V30 1270 H 122.82 3.60615 -1.12982 0
M  V30 1271 H 123.133 7.16341 -2.89958 0
M  V30 1272 H 121.478 6.44485 -2.60122 0
M  V30 1273 H 124.669 4.44098 -1.47967 0
M  V30 1274 H 124.842 6.0632 -2.28648 0
M  V30 1275 N 118.248 0.346503 1.53744 0
M  V30 1276 C 119.196 -0.52422 2.26616 0
M  V30 1277 C 120.19 -1.09948 1.28871 0
M  V30 1278 O 121.396 -1.04488 1.46568 0
M  V30 1279 H 117.771 -0.187743 0.728187 0
M  V30 1280 H 119.742 0.11239 2.98188 0
M  V30 1281 C 118.491 -1.66186 3.05414 0
M  V30 1282 H 117.814 -1.22848 3.80458 0
M  V30 1283 H 119.254 -2.24622 3.59612 0
M  V30 1284 C 117.713 -2.59302 2.1509 0
M  V30 1285 O 118.243 -3.61628 1.74895 0
M  V30 1286 N 116.449 -2.28055 1.8011 0
M  V30 1287 H 115.996 -1.44883 2.12994 0
M  V30 1288 H 115.954 -2.90615 1.19958 0
M  V30 1289 N 119.726 -1.57421 0.075193 0
M  V30 1290 C 120.972 -1.93905 -0.594025 0
M  V30 1291 C 121.305 -0.955701 -1.69056 0
M  V30 1292 O 120.58 0.0145373 -1.94495 0
M  V30 1293 C 120.863 -3.40638 -1.1678 0
M  V30 1294 C 120.716 -4.49733 -0.0776792 0
M  V30 1295 C 122.035 -3.88259 -2.07228 0
M  V30 1296 H 119.154 -0.705105 -0.214466 0
M  V30 1297 H 121.796 -1.8947 0.141854 0
M  V30 1298 H 119.946 -3.44549 -1.79494 0
M  V30 1299 H 121.618 -4.57942 0.555573 0
M  V30 1300 H 119.861 -4.29751 0.591286 0
M  V30 1301 H 120.532 -5.49549 -0.519603 0
M  V30 1302 H 123.008 -3.86376 -1.54445 0
M  V30 1303 H 121.884 -4.91533 -2.44308 0
M  V30 1304 H 122.145 -3.26396 -2.98191 0
M  V30 1305 N 121.204 0.198386 -1.56346 0
M  V30 1306 C 122.136 1.26987 -1.90806 0
M  V30 1307 C 123.149 1.41877 -0.798419 0
M  V30 1308 O 124.338 1.42362 -1.07682 0
M  V30 1309 C 121.438 2.64246 -2.12196 0
M  V30 1310 C 120.611 2.71007 -3.43328 0
M  V30 1311 C 119.67 3.89439 -3.5387 0
M  V30 1312 O 118.696 3.76695 -4.26719 0
M  V30 1313 N 119.898 5.04752 -2.86715 0
M  V30 1314 H 122.663 0.977433 -2.83313 0
M  V30 1315 H 120.224 0.388322 -1.57174 0
M  V30 1316 H 122.216 3.41896 -2.1654 0
M  V30 1317 H 120.786 2.85992 -1.26204 0
M  V30 1318 H 120.006 1.79657 -3.50881 0
M  V30 1319 H 121.294 2.72512 -4.29668 0
M  V30 1320 H 120.692 5.18004 -2.2735 0
M  V30 1321 H 119.249 5.8036 -2.96691 0
M  V30 1322 N 122.682 1.50554 0.465978 0
M  V30 1323 C 123.612 1.72722 1.57128 0
M  V30 1324 C 124.593 0.576294 1.6004 0
M  V30 1325 O 125.778 0.81598 1.76225 0
M  V30 1326 C 122.908 1.82605 2.95419 0
M  V30 1327 C 121.862 2.97835 3.07373 0
M  V30 1328 C 121.188 2.92867 4.47363 0
M  V30 1329 C 122.488 4.38265 2.84114 0
M  V30 1330 H 124.182 2.65267 1.38829 0
M  V30 1331 H 121.728 1.2765 0.666441 0
M  V30 1332 H 123.681 1.96698 3.72677 0
M  V30 1333 H 122.405 0.866858 3.14886 0
M  V30 1334 H 121.064 2.83401 2.3255 0
M  V30 1335 H 120.712 1.94783 4.63755 0
M  V30 1336 H 120.412 3.70227 4.56296 0
M  V30 1337 H 121.936 3.09015 5.26633 0
M  V30 1338 H 123.35 4.53198 3.51118 0
M  V30 1339 H 121.747 5.17115 3.04487 0
M  V30 1340 H 122.817 4.50281 1.7993 0
M  V30 1341 N 124.16 -0.719506 1.40217 0
M  V30 1342 C 125.437 -1.47221 1.28784 0
M  V30 1343 C 125.817 -2.10883 -0.0956067 0
M  V30 1344 O 125.165 -1.99833 -1.10811 0
M  V30 1345 C 125.375 -2.5111 2.42373 0
M  V30 1346 C 126.723 -3.17053 2.82423 0
M  V30 1347 O 127.747 -2.61429 2.41937 0
M  V30 1348 O 126.606 -4.17742 3.52355 0
M  V30 1349 H 123.7 -0.654491 0.50554 0
M  V30 1350 H 126.246 -0.752014 1.52128 0
M  V30 1351 H 125.018 -2.02556 3.34793 0
M  V30 1352 H 124.641 -3.3067 2.20778 0
M  V30 1353 N 125.638 -1.25649 -0.95132 0
M  V30 1354 C 127.049 -1.09654 -1.51106 0
M  V30 1355 C 127.4 0.326615 -1.93462 0
M  V30 1356 O 126.525 1.21697 -1.78938 0
M  V30 1357 C 127.12 -1.98437 -2.74605 0
M  V30 1358 C 125.679 -1.86618 -3.2688 0
M  V30 1359 C 124.826 -1.9239 -1.99703 0
M  V30 1360 H 127.777 -1.38887 -0.767865 0
M  V30 1361 H 127.798 -1.5263 -3.48546 0
M  V30 1362 H 127.31 -3.02009 -2.43746 0
M  V30 1363 H 125.411 -0.859421 -3.62553 0
M  V30 1364 H 125.524 -2.71607 -3.94673 0
M  V30 1365 H 123.888 -1.36317 -2.15151 0
M  V30 1366 H 124.671 -2.97573 -1.71188 0
M  V30 1367 N 127.117 1.15442 -1.07289 0
M  V30 1368 C 128.08 2.18358 -0.696591 0
M  V30 1369 C 129.08 1.58637 0.262837 0
M  V30 1370 O 130.27 1.74145 0.0438809 0
M  V30 1371 C 127.402 3.4089 -0.0266151 0
M  V30 1372 H 128.595 2.53162 -1.60776 0
M  V30 1373 H 126.148 1.29893 -0.869342 0
M  V30 1374 H 126.883 3.11653 0.896822 0
M  V30 1375 H 126.668 3.85495 -0.716657 0
M  V30 1376 H 128.158 4.17009 0.222028 0
M  V30 1377 N 128.595 0.856903 1.32268 0
M  V30 1378 C 129.558 0.308171 2.27119 0
M  V30 1379 C 130.558 -0.533421 1.51695 0
M  V30 1380 O 131.748 -0.344607 1.70757 0
M  V30 1381 C 128.88 -0.563757 3.36206 0
M  V30 1382 H 130.073 1.14535 2.77167 0
M  V30 1383 H 127.626 0.631421 1.42978 0
M  V30 1384 H 128.361 -1.42266 2.91429 0
M  V30 1385 H 128.146 0.0386749 3.92081 0
M  V30 1386 H 129.636 -0.940386 4.06874 0
M  V30 1387 N 130.073 -1.45103 0.615059 0
M  V30 1388 C 131.021 -2.32331 -0.111791 0
M  V30 1389 C 132.015 -1.46409 -0.852102 0
M  V30 1390 O 133.221 -1.62849 -0.766821 0
M  V30 1391 H 129.596 -0.749993 -0.0549072 0
M  V30 1392 H 131.567 -2.91407 0.642225 0
M  V30 1393 C 130.316 -3.3015 -1.09071 0
M  V30 1394 H 129.639 -3.96265 -0.530485 0
M  V30 1395 H 131.079 -3.93898 -1.56908 0
M  V30 1396 C 129.538 -2.57875 -2.168 0
M  V30 1397 O 130.068 -2.36567 -3.24652 0
M  V30 1398 N 128.274 -2.17884 -1.92289 0
M  V30 1399 H 127.821 -2.35413 -1.04587 0
M  V30 1400 H 127.779 -1.6985 -2.64572 0
M  V30 1401 N 131.551 -0.354651 -1.53558 0
M  V30 1402 C 132.481 0.489091 -2.2832 0
M  V30 1403 C 133.462 1.09324 -1.30316 0
M  V30 1404 O 134.647 1.11255 -1.59173 0
M  V30 1405 C 131.777 1.63456 -3.0643 0
M  V30 1406 C 130.731 1.1582 -4.12031 0
M  V30 1407 C 130.057 2.39305 -4.7816 0
M  V30 1408 C 131.357 0.250731 -5.21698 0
M  V30 1409 H 133.051 -0.134614 -2.99097 0
M  V30 1410 H 130.597 -0.0661826 -1.43848 0
M  V30 1411 H 132.55 2.23136 -3.57475 0
M  V30 1412 H 131.274 2.28533 -2.33325 0
M  V30 1413 H 129.933 0.584146 -3.61916 0
M  V30 1414 H 129.581 3.02814 -4.01637 0
M  V30 1415 H 129.281 2.08109 -5.49513 0
M  V30 1416 H 130.805 2.99691 -5.31994 0
M  V30 1417 H 132.219 0.754695 -5.68311 0
M  V30 1418 H 130.616 0.0301468 -6.00092 0
M  V30 1419 H 131.686 -0.710125 -4.79672 0
M  V30 1420 N 133.029 1.57378 -0.0835403 0
M  V30 1421 C 134.277 1.93547 0.581718 0
M  V30 1422 C 134.598 0.96524 1.69435 0
M  V30 1423 O 133.868 0.0153369 1.95894 0
M  V30 1424 H 132.448 0.714521 0.217874 0
M  V30 1425 H 135.11 1.94366 -0.144158 0
M  V30 1426 H 134.206 2.95665 0.999423 0
M  V30 1427 N 134.507 -0.190092 1.56449 0
M  V30 1428 C 135.756 -0.907912 1.80111 0
M  V30 1429 C 136.069 -1.84214 0.657619 0
M  V30 1430 O 137.275 -2.60094 0.778663 0
M  V30 1431 C 135.731 -1.66485 3.19078 0
M  V30 1432 C 135.339 -0.7752 4.41242 0
M  V30 1433 C 137.083 -2.37201 3.52045 0
M  V30 1434 C 134.99 -1.53129 5.71231 0
M  V30 1435 H 133.92 -0.34276 0.671589 0
M  V30 1436 H 136.571 -0.161109 1.82791 0
M  V30 1437 H 134.953 -2.45572 3.10661 0
M  V30 1438 H 136.127 -0.0226298 4.60794 0
M  V30 1439 H 134.442 -0.178627 4.16017 0
M  V30 1440 H 137.039 -2.94329 4.46402 0
M  V30 1441 H 137.382 -3.11632 2.76028 0
M  V30 1442 H 137.915 -1.65075 3.61932 0
M  V30 1443 H 134.654 -0.82967 6.50228 0
M  V30 1444 H 134.174 -2.25767 5.55688 0
M  V30 1445 H 135.853 -2.08377 6.12526 0
M  V30 1446 N 135.985 -1.50799 -0.457987 0
M  V30 1447 C 137.231 -1.62683 -1.21088 0
M  V30 1448 C 137.564 -0.332268 -1.91336 0
M  V30 1449 O 136.839 0.667043 -1.82704 0
M  V30 1450 C 137.122 -2.81615 -2.24422 0
M  V30 1451 C 136.975 -4.20989 -1.58392 0
M  V30 1452 C 138.294 -2.96085 -3.2561 0
M  V30 1453 H 135.413 -0.592087 -0.438864 0
M  V30 1454 H 138.055 -1.83225 -0.50286 0
M  V30 1455 H 136.205 -2.64231 -2.84806 0
M  V30 1456 H 137.877 -4.49994 -1.01504 0
M  V30 1457 H 136.12 -4.24641 -0.886704 0
M  V30 1458 H 136.791 -5.0016 -2.33547 0
M  V30 1459 H 139.267 -3.12042 -2.75262 0
M  V30 1460 H 138.143 -3.80902 -3.95228 0
M  V30 1461 H 138.404 -2.0726 -3.90507 0
M  V30 1462 N 137.463 0.71206 -1.40597 0
M  V30 1463 C 138.41 1.82613 -1.41142 0
M  V30 1464 C 139.38 1.63925 -0.267903 0
M  V30 1465 O 140.565 1.85009 -0.466495 0
M  V30 1466 C 137.705 3.20354 -1.28324 0
M  V30 1467 C 136.818 3.50589 -2.52411 0
M  V30 1468 C 135.953 4.77855 -2.32009 0
M  V30 1469 C 134.992 5.01005 -3.51654 0
M  V30 1470 N 134.129 6.19487 -3.30425 0
M  V30 1471 H 138.969 1.81482 -2.36365 0
M  V30 1472 H 136.506 0.886475 -1.17388 0
M  V30 1473 H 138.464 3.99899 -1.18899 0
M  V30 1474 H 137.094 3.20705 -0.367189 0
M  V30 1475 H 136.146 2.65573 -2.72351 0
M  V30 1476 H 137.458 3.63604 -3.41458 0
M  V30 1477 H 136.612 5.65424 -2.19956 0
M  V30 1478 H 135.351 4.67056 -1.40392 0
M  V30 1479 H 134.356 4.1189 -3.64179 0
M  V30 1480 H 135.581 5.13674 -4.44202 0
M  V30 1481 H 133.527 6.09932 -2.41494 0
M  V30 1482 H 133.444 6.33194 -4.13039 0
M  V30 1483 H 134.712 7.09834 -3.22113 0
M  V30 1484 N 138.941 1.26152 0.944643 0
M  V30 1485 C 140.187 1.11657 1.69294 0
M  V30 1486 C 140.52 -0.339926 1.91202 0
M  V30 1487 O 139.795 -1.24994 1.49019 0
M  V30 1488 C 140.078 1.88236 3.06984 0
M  V30 1489 C 139.931 3.41772 2.92424 0
M  V30 1490 C 141.25 1.67343 4.07043 0
M  V30 1491 H 138.369 0.407004 0.614424 0
M  V30 1492 H 141.011 1.55106 1.09737 0
M  V30 1493 H 139.161 1.51308 3.57824 0
M  V30 1494 H 140.833 3.88433 2.48832 0
M  V30 1495 H 139.076 3.68974 2.28124 0
M  V30 1496 H 139.747 3.90579 3.90067 0
M  V30 1497 H 142.223 1.99509 3.65151 0
M  V30 1498 H 141.099 2.23346 5.01406 0
M  V30 1499 H 141.36 0.617158 4.37771 0
M  V30 1500 N 140.419 -1.14872 1.07899 0
M  V30 1501 C 141.696 -1.81928 0.71845 0
M  V30 1502 C 142.076 -1.95417 -0.798455 0
M  V30 1503 O 141.424 -1.50997 -1.715 0
M  V30 1504 C 141.634 -3.17937 1.43935 0
M  V30 1505 C 142.982 -3.93501 1.59506 0
M  V30 1506 O 144.006 -3.27509 1.40058 0
M  V30 1507 O 142.865 -5.1183 1.91551 0
M  V30 1508 H 139.959 -0.78628 0.256305 0
M  V30 1509 H 142.505 -1.21934 1.18026 0
M  V30 1510 H 141.277 -3.0325 2.47295 0
M  V30 1511 H 140.9 -3.85619 0.968687 0
M  V30 1512 N 141.898 -0.863906 -1.31812 0
M  V30 1513 C 143.123 -0.48527 -2.01643 0
M  V30 1514 C 143.548 0.913058 -1.64453 0
M  V30 1515 O 142.906 1.6014 -0.849985 0
M  V30 1516 C 142.954 -0.642625 -3.54828 0
M  V30 1517 O 142.058 0.320659 -4.11151 0
M  V30 1518 H 141.399 -0.193793 -0.635091 0
M  V30 1519 H 143.929 -1.16565 -1.68148 0
M  V30 1520 H 143.939 -0.533628 -4.04495 0
M  V30 1521 H 142.614 -1.66227 -3.81237 0
M  V30 1522 H 141.191 0.167126 -3.72525 0
M  V30 1523 N 143.376 1.44774 -0.622745 0
M  V30 1524 C 144.653 1.95522 -0.0551974 0
M  V30 1525 C 145.033 1.5649 1.41683 0
M  V30 1526 O 144.381 0.834848 2.12703 0
M  V30 1527 C 144.591 3.4796 -0.269242 0
M  V30 1528 C 145.939 4.24306 -0.158014 0
M  V30 1529 O 146.963 3.55637 -0.200162 0
M  V30 1530 O 145.822 5.46471 -0.0558693 0
M  V30 1531 H 142.916 0.826556 0.0271015 0
M  V30 1532 H 145.462 1.54866 -0.693864 0
M  V30 1533 H 144.234 3.6939 -1.29099 0
M  V30 1534 H 143.857 3.95543 0.403966 0
M  V30 1535 N 144.854 0.36279 1.53368 0
M  V30 1536 C 146.102 -0.227326 2.00817 0
M  V30 1537 C 146.423 -1.49511 1.25186 0
M  V30 1538 O 145.693 -1.92482 0.364348 0
M  V30 1539 H 144.273 -0.0869923 0.741917 0
M  V30 1540 H 146.935 0.488381 1.88682 0
M  V30 1541 H 146.031 -0.456273 3.08747 0
M  V30 1542 N 146.332 -1.57332 0.0918853 0
M  V30 1543 C 147.295 -2.12708 -0.85369 0
M  V30 1544 C 148.295 -1.05561 -1.213 0
M  V30 1545 O 149.485 -1.31461 -1.14296 0
M  V30 1546 C 146.617 -2.64503 -2.15061 0
M  V30 1547 H 147.81 -2.97573 -0.3729 0
M  V30 1548 H 145.363 -1.55509 -0.157072 0
M  V30 1549 H 146.098 -1.83149 -2.67632 0
M  V30 1550 H 145.883 -3.4284 -1.90272 0
M  V30 1551 H 147.373 -3.07351 -2.82711 0
M  V30 1552 N 147.81 0.181792 -1.56548 0
M  V30 1553 C 149.058 0.89832 -1.81038 0
M  V30 1554 C 149.379 1.83232 -0.667164 0
M  V30 1555 O 148.649 1.93372 0.313673 0
M  V30 1556 H 147.229 0.33471 -0.667816 0
M  V30 1557 H 149.891 0.184116 -1.94028 0
M  V30 1558 H 148.987 1.4815 -2.74696 0
M  V30 1559 N 149.288 1.51039 0.449983 0
M  V30 1560 C 150.518 1.66627 1.22143 0
M  V30 1561 C 150.926 0.357776 1.85786 0
M  V30 1562 O 150.269 -0.672424 1.70951 0
M  V30 1563 C 150.331 2.71562 2.35573 0
M  V30 1564 C 149.995 4.14526 1.92399 0
M  V30 1565 C 150.992 4.99717 1.43453 0
M  V30 1566 C 148.677 4.60559 2.00475 0
M  V30 1567 C 150.671 6.28998 1.03155 0
M  V30 1568 C 148.358 5.8984 1.59788 0
M  V30 1569 C 149.356 6.73886 1.11208 0
M  V30 1570 O 149.044 8.0075 0.710935 0
M  V30 1571 H 148.776 0.562635 0.374724 0
M  V30 1572 H 151.33 1.98146 0.541036 0
M  V30 1573 H 149.56 2.3533 3.06849 0
M  V30 1574 H 151.249 2.76156 2.97478 0
M  V30 1575 H 152.015 4.65361 1.36618 0
M  V30 1576 H 147.894 3.95273 2.37235 0
M  V30 1577 H 151.438 6.9455 0.651663 0
M  V30 1578 H 147.335 6.23713 1.66289 0
M  V30 1579 H 148.103 8.142 0.837913 0
M  V30 1580 N 150.766 -0.704594 1.40972 0
M  V30 1581 C 151.716 -1.81051 1.38581 0
M  V30 1582 C 152.7 -1.58759 0.261585 0
M  V30 1583 O 153.892 -1.69745 0.501556 0
M  V30 1584 C 151.021 -3.19279 1.26157 0
M  V30 1585 C 150.107 -3.47296 2.43405 0
M  V30 1586 N 150.498 -3.46064 3.68881 0
M  V30 1587 C 148.796 -3.77804 2.37023 0
M  V30 1588 C 149.497 -3.72733 4.46592 0
M  V30 1589 N 148.473 -3.9203 3.76581 0
M  V30 1590 H 152.275 -1.78448 2.33525 0
M  V30 1591 H 149.789 -0.904198 1.349 0
M  V30 1592 H 151.786 -3.98488 1.22526 0
M  V30 1593 H 150.446 -3.231 0.321902 0
M  V30 1594 H 151.457 -3.26656 4.01891 0
M  V30 1595 H 148.134 -3.8905 1.51481 0
M  V30 1596 H 149.524 -3.77993 5.55492 0
M  V30 1597 N 152.244 -1.26651 -0.937939 0
M  V30 1598 C 153.493 -1.11775 -1.67897 0
M  V30 1599 C 153.806 0.33794 -1.92659 0
M  V30 1600 O 155.012 0.607434 -2.64618 0
M  V30 1601 C 153.468 -1.9523 -3.02346 0
M  V30 1602 C 153.076 -3.45393 -2.8532 0
M  V30 1603 C 154.82 -1.88972 -3.80118 0
M  V30 1604 C 152.727 -4.21083 -4.15263 0
M  V30 1605 H 151.657 -0.414696 -0.629717 0
M  V30 1606 H 154.308 -1.50988 -1.04283 0
M  V30 1607 H 152.69 -1.48853 -3.66959 0
M  V30 1608 H 153.864 -3.99561 -2.29537 0
M  V30 1609 H 152.179 -3.52921 -2.20988 0
M  V30 1610 H 154.776 -2.42805 -4.76392 0
M  V30 1611 H 155.119 -0.86113 -4.07296 0
M  V30 1612 H 155.652 -2.33189 -3.22285 0
M  V30 1613 H 152.391 -5.24425 -3.93267 0
M  V30 1614 H 151.911 -3.71695 -4.70747 0
M  V30 1615 H 153.59 -4.29706 -4.83696 0
M  V30 1616 N 153.722 1.14298 -1.08507 0
M  V30 1617 C 154.652 2.21542 -0.737646 0
M  V30 1618 C 155.633 1.67773 0.280377 0
M  V30 1619 O 156.818 1.93616 0.150521 0
M  V30 1620 C 153.948 3.46988 -0.147259 0
M  V30 1621 C 152.902 4.13789 -1.09374 0
M  V30 1622 C 152.228 5.33449 -0.365524 0
M  V30 1623 C 153.528 4.62208 -2.4323 0
M  V30 1624 H 155.222 2.5086 -1.6343 0
M  V30 1625 H 152.768 1.20576 -0.787243 0
M  V30 1626 H 154.721 4.21262 0.107808 0
M  V30 1627 H 153.445 3.17037 0.784538 0
M  V30 1628 H 152.104 3.4147 -1.33393 0
M  V30 1629 H 151.752 4.99759 0.57011 0
M  V30 1630 H 151.452 5.79088 -0.996512 0
M  V30 1631 H 152.976 6.10485 -0.118534 0
M  V30 1632 H 154.39 5.27952 -2.23472 0
M  V30 1633 H 152.787 5.18553 -3.02031 0
M  V30 1634 H 153.857 3.77224 -3.04681 0
M  V30 1635 N 155.201 0.870884 1.31352 0
M  V30 1636 C 156.447 0.492314 1.97352 0
M  V30 1637 C 156.802 -0.945174 1.67583 0
M  V30 1638 O 156.095 -1.65674 0.962423 0
M  V30 1639 C 156.289 0.687157 3.50732 0
M  V30 1640 C 156.118 2.14203 3.95407 0
M  V30 1641 C 154.888 2.78382 4.21701 0
M  V30 1642 C 157.086 3.1144 4.09279 0
M  V30 1643 N 155.068 4.14611 4.52737 0
M  V30 1644 C 156.439 4.32702 4.44037 0
M  V30 1645 C 158.494 3.07418 3.91661 0
M  V30 1646 C 157.197 5.50463 4.63015 0
M  V30 1647 C 159.223 4.24438 4.11833 0
M  V30 1648 C 158.585 5.44463 4.46923 0
M  V30 1649 H 154.684 0.229206 0.747655 0
M  V30 1650 H 157.268 1.12568 1.5886 0
M  V30 1651 H 155.439 0.083384 3.8831 0
M  V30 1652 H 157.171 0.276883 4.03752 0
M  V30 1653 H 153.926 2.29326 4.14375 0
M  V30 1654 H 154.35 4.84928 4.72413 0
M  V30 1655 H 158.992 2.15732 3.6362 0
M  V30 1656 H 156.71 6.42666 4.89904 0
M  V30 1657 H 160.296 4.2278 3.99685 0
M  V30 1658 H 159.176 6.33504 4.62214 0
M  V30 1659 N 156.679 -1.44442 0.630414 0
M  V30 1660 C 157.927 -2.01653 0.134351 0
M  V30 1661 C 158.248 -1.49836 -1.24796 0
M  V30 1662 O 157.518 -0.701684 -1.82902 0
M  V30 1663 H 156.098 -0.74554 0.0466769 0
M  V30 1664 H 158.76 -1.76952 0.816955 0
M  V30 1665 H 157.856 -3.11935 0.101498 0
M  V30 1666 N 158.157 -0.370918 -1.53173 0
M  V30 1667 C 159.087 0.464847 -2.28826 0
M  V30 1668 C 160.068 1.07936 -1.31468 0
M  V30 1669 O 161.253 1.0956 -1.60344 0
M  V30 1670 C 158.383 1.60196 -3.08147 0
M  V30 1671 C 157.337 1.11443 -4.13237 0
M  V30 1672 C 156.663 2.3422 -4.80672 0
M  V30 1673 C 157.963 0.195384 -5.21934 0
M  V30 1674 H 159.657 -0.166329 -2.98938 0
M  V30 1675 H 157.203 -0.0814359 -1.4377 0
M  V30 1676 H 159.156 2.19332 -3.59822 0
M  V30 1677 H 157.88 2.26045 -2.35735 0
M  V30 1678 H 156.539 0.545727 -3.62515 0
M  V30 1679 H 156.187 2.98537 -4.04827 0
M  V30 1680 H 155.887 2.02269 -5.51689 0
M  V30 1681 H 157.411 2.94032 -5.35143 0
M  V30 1682 H 158.825 0.694375 -5.69079 0
M  V30 1683 H 157.222 -0.0335027 -6.00091 0
M  V30 1684 H 158.292 -0.760961 -4.78892 0
M  V30 1685 N 159.635 1.57281 -0.100228 0
M  V30 1686 C 160.863 1.98879 0.570509 0
M  V30 1687 C 161.278 0.979476 1.61405 0
M  V30 1688 O 160.635 -0.0302288 1.82475 0
M  V30 1689 C 160.686 3.4052 1.2136 0
M  V30 1690 O 160.407 4.37588 0.211786 0
M  V30 1691 C 161.908 3.97149 1.96945 0
M  V30 1692 H 159.128 0.653428 0.152555 0
M  V30 1693 H 161.672 2.03697 -0.18103 0
M  V30 1694 H 159.827 3.367 1.91603 0
M  V30 1695 H 160.241 5.20118 0.676607 0
M  V30 1696 H 161.715 4.98393 2.37294 0
M  V30 1697 H 162.192 3.3525 2.83733 0
M  V30 1698 H 162.798 4.04458 1.31506 0
M  V30 1699 N 161.113 -0.173488 1.56642 0
M  V30 1700 C 162.061 -1.23417 1.97157 0
M  V30 1701 C 163.055 -1.45946 0.860013 0
M  V30 1702 O 164.261 -1.46551 1.04512 0
M  V30 1703 H 160.636 -0.414818 0.62724 0
M  V30 1704 H 162.607 -0.865582 2.8557 0
M  V30 1705 C 161.356 -2.5665 2.34576 0
M  V30 1706 H 160.679 -2.40137 3.19647 0
M  V30 1707 H 162.119 -3.2956 2.6677 0
M  V30 1708 C 160.578 -3.15245 1.18836 0
M  V30 1709 O 161.108 -3.98883 0.474869 0
M  V30 1710 N 159.314 -2.74303 0.959497 0
M  V30 1711 H 158.861 -2.0639 1.54146 0
M  V30 1712 H 158.819 -3.13844 0.186932 0
M  V30 1713 N 162.591 -1.51276 -0.441967 0
M  V30 1714 C 163.501 -1.75092 -1.56141 0
M  V30 1715 C 164.517 -0.634963 -1.62001 0
M  V30 1716 O 165.693 -0.916686 -1.79329 0
M  V30 1717 C 162.758 -1.86666 -2.92158 0
M  V30 1718 C 161.819 -3.10506 -2.96453 0
M  V30 1719 C 161.052 -3.21519 -4.25982 0
M  V30 1720 O 161.275 -2.38586 -5.18105 0
M  V30 1721 O 160.209 -4.14465 -4.36466 0
M  V30 1722 H 164.035 -2.70044 -1.38961 0
M  V30 1723 H 161.62 -1.35722 -0.624499 0
M  V30 1724 H 163.502 -1.96292 -3.72891 0
M  V30 1725 H 162.177 -0.949014 -3.09476 0
M  V30 1726 H 161.084 -3.06363 -2.14692 0
M  V30 1727 H 162.417 -4.01945 -2.84079 0
M  V30 1728 N 164.069 0.697108 -1.41344 0
M  V30 1729 C 165.032 1.79281 -1.42797 0
M  V30 1730 C 166.032 1.57607 -0.318837 0
M  V30 1731 O 167.222 1.64309 -0.578642 0
M  V30 1732 C 164.354 3.17632 -1.23785 0
M  V30 1733 H 165.547 1.79385 -2.40335 0
M  V30 1734 H 163.1 0.904582 -1.27464 0
M  V30 1735 H 163.835 3.23167 -0.270814 0
M  V30 1736 H 163.62 3.34765 -2.04144 0
M  V30 1737 H 165.11 3.97617 -1.27633 0
M  V30 1738 N 165.547 1.27147 0.931209 0
M  V30 1739 C 166.793 1.13446 1.68101 0
M  V30 1740 C 167.126 -0.319628 1.91552 0
M  V30 1741 O 166.401 -1.23407 1.50336 0
M  V30 1742 C 166.684 1.91482 3.0497 0
M  V30 1743 C 166.537 3.44855 2.88782 0
M  V30 1744 C 167.856 1.71651 4.05246 0
M  V30 1745 H 164.975 0.413498 0.610072 0
M  V30 1746 H 167.617 1.56261 1.08086 0
M  V30 1747 H 165.767 1.55095 3.56199 0
M  V30 1748 H 167.439 3.9105 2.44698 0
M  V30 1749 H 165.682 3.71373 2.24198 0
M  V30 1750 H 166.353 3.94694 3.85902 0
M  V30 1751 H 168.829 2.0337 3.63015 0
M  V30 1752 H 167.705 2.28651 4.99009 0
M  V30 1753 H 167.966 0.663555 4.37092 0
M  V30 1754 N 167.025 -1.13721 1.09112 0
M  V30 1755 C 168.436 -1.6648 0.845068 0
M  V30 1756 C 168.787 -1.85911 -0.62701 0
M  V30 1757 O 167.912 -1.57556 -1.48341 0
M  V30 1758 C 168.507 -3.02413 1.52748 0
M  V30 1759 C 167.066 -3.52176 1.32849 0
M  V30 1760 C 166.213 -2.27492 1.58564 0
M  V30 1761 H 169.164 -0.976872 1.25072 0
M  V30 1762 H 169.185 -3.68223 0.958752 0
M  V30 1763 H 168.697 -2.88238 2.59885 0
M  V30 1764 H 166.798 -3.7156 0.278137 0
M  V30 1765 H 166.911 -4.32499 2.0611 0
M  V30 1766 H 165.275 -2.33923 1.00758 0
M  V30 1767 H 166.058 -2.15886 2.66924 0
M  V30 1768 N 168.503 -0.877838 -1.30888 0
M  V30 1769 C 169.731 -0.507414 -2.00581 0
M  V30 1770 C 170.146 0.902216 -1.65848 0
M  V30 1771 O 169.503 1.59225 -0.891831 0
M  V30 1772 C 169.554 -0.664162 -3.55347 0
M  V30 1773 O 169.275 -2.01829 -3.8884 0
M  V30 1774 C 170.776 -0.295787 -4.42312 0
M  V30 1775 H 167.996 -0.196866 -0.641471 0
M  V30 1776 H 170.54 -1.18117 -1.66939 0
M  V30 1777 H 168.695 -0.0378619 -3.87381 0
M  V30 1778 H 169.109 -2.03174 -4.8355 0
M  V30 1779 H 170.583 -0.456388 -5.5011 0
M  V30 1780 H 171.06 0.765663 -4.32475 0
M  V30 1781 H 171.666 -0.898113 -4.15709 0
M  V30 1782 N 169.982 1.44106 -0.638065 0
M  V30 1783 C 171.207 2.0685 -0.150916 0
M  V30 1784 C 171.632 1.47417 1.16833 0
M  V30 1785 O 170.99 0.578264 1.71831 0
M  V30 1786 C 171.038 3.60555 -0.05708 0
M  V30 1787 O 170.142 4.00465 0.984972 0
M  V30 1788 H 169.483 0.658151 -0.0879399 0
M  V30 1789 H 172.013 1.84865 -0.876707 0
M  V30 1790 H 172.023 4.07789 0.131232 0
M  V30 1791 H 170.698 4.03193 -1.02021 0
M  V30 1792 H 169.275 3.64849 0.770672 0
M  V30 1793 N 171.46 0.379036 1.52974 0
M  V30 1794 C 172.37 -0.468639 2.29872 0
M  V30 1795 C 173.386 -1.08067 1.36373 0
M  V30 1796 O 174.562 -1.08871 1.69438 0
M  V30 1797 C 171.627 -1.58594 3.083 0
M  V30 1798 C 170.688 -1.00007 4.17489 0
M  V30 1799 C 169.921 -2.06413 4.92168 0
M  V30 1800 O 170.144 -3.27751 4.66835 0
M  V30 1801 O 169.078 -1.68717 5.7777 0
M  V30 1802 H 172.904 0.157508 3.03291 0
M  V30 1803 H 170.489 0.143035 1.48714 0
M  V30 1804 H 172.371 -2.23525 3.57232 0
M  V30 1805 H 171.046 -2.19724 2.37703 0
M  V30 1806 H 169.953 -0.314299 3.72777 0
M  V30 1807 H 171.286 -0.433135 4.90291 0
M  V30 1808 N 172.938 -1.57226 0.108567 0
M  V30 1809 C 173.868 -2.17778 -0.84232 0
M  V30 1810 C 174.849 -1.11487 -1.2847 0
M  V30 1811 O 176.034 -1.39681 -1.34918 0
M  V30 1812 C 173.164 -2.76888 -2.09644 0
M  V30 1813 C 172.118 -3.88669 -1.79221 0
M  V30 1814 C 171.444 -4.34541 -3.11574 0
M  V30 1815 C 172.744 -5.11251 -1.06864 0
M  V30 1816 H 174.438 -2.97489 -0.337774 0
M  V30 1817 H 171.984 -1.43097 -0.161025 0
M  V30 1818 H 173.937 -3.17904 -2.76614 0
M  V30 1819 H 172.661 -1.94451 -2.62405 0
M  V30 1820 H 171.32 -3.48213 -1.14644 0
M  V30 1821 H 170.968 -3.48977 -3.62249 0
M  V30 1822 H 170.668 -5.09914 -2.91996 0
M  V30 1823 H 172.192 -4.782 -3.7968 0
M  V30 1824 H 173.606 -5.49352 -1.63968 0
M  V30 1825 H 172.003 -5.9214 -0.974178 0
M  V30 1826 H 173.073 -4.8487 -0.0536168 0
M  V30 1827 N 174.416 0.165178 -1.56732 0
M  V30 1828 C 175.827 0.727046 -1.71962 0
M  V30 1829 C 176.178 1.82508 -0.720078 0
M  V30 1830 O 175.303 2.16082 0.117242 0
M  V30 1831 C 175.898 1.32559 -3.11791 0
M  V30 1832 C 174.457 1.83422 -3.28684 0
M  V30 1833 C 173.604 0.715567 -2.67908 0
M  V30 1834 H 176.555 -0.0602896 -1.58585 0
M  V30 1835 H 176.576 2.19533 -3.10782 0
M  V30 1836 H 176.088 0.526195 -3.84516 0
M  V30 1837 H 174.189 2.65986 -2.60926 0
M  V30 1838 H 174.302 1.97543 -4.36478 0
M  V30 1839 H 172.666 1.13758 -2.27884 0
M  V30 1840 H 173.449 -0.0720836 -3.43224 0
M  V30 1841 N 175.894 1.51508 0.433938 0
M  V30 1842 C 176.857 1.72473 1.50949 0
M  V30 1843 C 177.857 0.594725 1.49398 0
M  V30 1844 O 179.047 0.862315 1.5136 0
M  V30 1845 C 176.179 1.78431 2.90474 0
M  V30 1846 H 177.372 2.68467 1.33662 0
M  V30 1847 H 174.925 1.41549 0.662836 0
M  V30 1848 H 175.66 0.842645 3.13161 0
M  V30 1849 H 175.445 2.60558 2.93005 0
M  V30 1850 H 176.935 1.96479 3.68491 0
M  V30 1851 N 177.372 -0.689602 1.41712 0
M  V30 1852 C 178.322 -1.79571 1.40493 0
M  V30 1853 C 179.306 -1.58473 0.278409 0
M  V30 1854 O 180.498 -1.69204 0.519532 0
M  V30 1855 C 177.627 -3.17923 1.29536 0
M  V30 1856 C 176.713 -3.44695 2.47075 0
M  V30 1857 N 177.104 -3.42132 3.72531 0
M  V30 1858 C 175.402 -3.75269 2.41017 0
M  V30 1859 C 176.103 -3.67976 4.50521 0
M  V30 1860 N 175.079 -3.88014 3.80718 0
M  V30 1861 H 178.881 -1.75961 2.35404 0
M  V30 1862 H 176.395 -0.889839 1.35851 0
M  V30 1863 H 178.392 -3.97167 1.26745 0
M  V30 1864 H 177.052 -3.22741 0.356153 0
M  V30 1865 H 178.063 -3.22375 4.05333 0
M  V30 1866 H 174.74 -3.87421 1.55599 0
M  V30 1867 H 176.13 -3.7208 5.59469 0
M  V30 1868 N 178.85 -1.27639 -0.924453 0
M  V30 1869 C 180.097 -1.14167 -1.67249 0
M  V30 1870 C 180.425 0.311863 -1.91984 0
M  V30 1871 O 179.68 1.24425 -1.51053 0
M  V30 1872 C 179.979 -1.87407 -3.04325 0
M  V30 1873 C 179.645 -3.37249 -2.99289 0
M  V30 1874 C 178.307 -3.7812 -2.97622 0
M  V30 1875 C 180.659 -4.32845 -2.90336 0
M  V30 1876 C 177.987 -5.12944 -2.8479 0
M  V30 1877 C 180.339 -5.6773 -2.79045 0
M  V30 1878 C 179.003 -6.07889 -2.7573 0
M  V30 1879 H 178.273 -0.417766 -0.612007 0
M  V30 1880 H 180.92 -1.58286 -1.07786 0
M  V30 1881 H 179.225 -1.35805 -3.67511 0
M  V30 1882 H 180.922 -1.74408 -3.61086 0
M  V30 1883 H 177.512 -3.04748 -3.01374 0
M  V30 1884 H 181.696 -4.02239 -2.90719 0
M  V30 1885 H 176.952 -5.432 -2.80612 0
M  V30 1886 H 181.126 -6.41472 -2.71083 0
M  V30 1887 H 178.753 -7.12314 -2.65544 0
M  V30 1888 N 180.328 1.1314 -1.09713 0
M  V30 1889 C 181.258 2.20748 -0.761102 0
M  V30 1890 C 182.239 1.68061 0.262566 0
M  V30 1891 O 183.424 1.93765 0.129977 0
M  V30 1892 C 180.554 3.46812 -0.184054 0
M  V30 1893 C 179.508 4.12606 -1.13757 0
M  V30 1894 C 178.834 5.33031 -0.422083 0
M  V30 1895 C 180.134 4.59603 -2.48118 0
M  V30 1896 H 181.828 2.49113 -1.66082 0
M  V30 1897 H 179.374 1.19734 -0.799987 0
M  V30 1898 H 181.327 4.21353 0.0631215 0
M  V30 1899 H 180.051 3.17851 0.750868 0
M  V30 1900 H 178.71 3.40036 -1.37007 0
M  V30 1901 H 178.358 5.00335 0.517072 0
M  V30 1902 H 178.058 5.77999 -1.05788 0
M  V30 1903 H 179.582 6.10325 -0.183277 0
M  V30 1904 H 180.996 5.25552 -2.29059 0
M  V30 1905 H 179.393 5.15321 -3.07514 0
M  V30 1906 H 180.463 3.73971 -3.08665 0
M  V30 1907 N 181.806 0.884767 1.30421 0
M  V30 1908 C 183.031 0.517288 2.00845 0
M  V30 1909 C 183.456 -0.886779 1.65885 0
M  V30 1910 O 182.814 -1.58768 0.875354 0
M  V30 1911 C 182.862 0.698994 3.5376 0
M  V30 1912 O 181.966 -0.255208 4.1161 0
M  V30 1913 H 181.307 0.203872 0.631927 0
M  V30 1914 H 183.837 1.19225 1.66272 0
M  V30 1915 H 183.847 0.597912 4.03595 0
M  V30 1916 H 182.522 1.72271 3.78544 0
M  V30 1917 H 181.099 -0.10784 3.72744 0
M  V30 1918 N 183.284 -1.43765 0.645699 0
M  V30 1919 C 184.234 -2.27884 -0.0726442 0
M  V30 1920 C 185.218 -1.39483 -0.802086 0
M  V30 1921 O 186.41 -1.63174 -0.685791 0
M  V30 1922 C 183.539 -3.27055 -1.04356 0
M  V30 1923 C 182.625 -4.22944 -0.312985 0
M  V30 1924 N 183.016 -5.01391 0.666386 0
M  V30 1925 C 181.314 -4.42528 -0.55546 0
M  V30 1926 C 182.015 -5.71217 1.09935 0
M  V30 1927 N 180.991 -5.41856 0.435137 0
M  V30 1928 H 184.793 -2.85949 0.678988 0
M  V30 1929 H 182.307 -1.55378 0.472368 0
M  V30 1930 H 184.304 -3.86089 -1.57292 0
M  V30 1931 H 182.964 -2.70551 -1.79534 0
M  V30 1932 H 183.975 -5.07252 1.04481 0
M  V30 1933 H 180.652 -3.97104 -1.28899 0
M  V30 1934 H 182.042 -6.44202 1.90929 0
M  V30 1935 N 184.763 -0.387143 -1.52771 0
M  V30 1936 C 186.003 0.195537 -2.03463 0
M  V30 1937 C 186.367 1.44222 -1.26744 0
M  V30 1938 O 187.568 2.10192 -1.67549 0
M  V30 1939 C 185.839 0.459097 -3.54439 0
M  V30 1940 S 187.398 1.01237 -4.26962 0
M  V30 1941 H 184.216 0.0552675 -0.708849 0
M  V30 1942 H 186.818 -0.534992 -1.88037 0
M  V30 1943 H 185.522 -0.455382 -4.07866 0
M  V30 1944 H 185.053 1.21811 -3.74066 0
M  V30 1945 H 187.068 2.29492 -4.39941 0
M  V30 1946 N 186.241 1.57166 -0.116904 0
M  V30 1947 C 187.151 2.18745 0.847812 0
M  V30 1948 C 188.167 1.163 1.29423 0
M  V30 1949 O 189.343 1.48761 1.35765 0
M  V30 1950 C 186.408 2.77307 2.0809 0
M  V30 1951 C 185.469 3.94781 1.68661 0
M  V30 1952 C 184.702 4.50541 2.86091 0
M  V30 1953 O 184.925 4.05202 4.01456 0
M  V30 1954 O 183.859 5.41256 2.63298 0
M  V30 1955 H 187.685 3.01632 0.353778 0
M  V30 1956 H 185.27 1.49005 0.108599 0
M  V30 1957 H 187.152 3.14647 2.80313 0
M  V30 1958 H 185.827 1.97452 2.56504 0
M  V30 1959 H 184.734 3.62214 0.935518 0
M  V30 1960 H 186.067 4.76065 1.24991 0
M  V30 1961 N 187.719 -0.156864 1.56817 0
M  V30 1962 C 189.135 -0.50916 1.5126 0
M  V30 1963 C 189.335 -1.83897 0.823658 0
M  V30 1964 O 188.391 -2.49469 0.390055 0
M  V30 1965 C 189.704 -0.52857 2.96018 0
M  V30 1966 C 191.252 -0.614771 3.06903 0
M  V30 1967 C 191.727 -0.664938 4.53147 0
M  V30 1968 N 193.218 -0.727433 4.57452 0
M  V30 1969 C 193.953 -0.787067 5.67973 0
M  V30 1970 N 193.449 -0.806649 6.88088 0
M  V30 1971 N 195.242 -0.827195 5.5598 0
M  V30 1972 H 187.393 0.714935 2.00006 0
M  V30 1973 H 189.656 0.259526 0.911784 0
M  V30 1974 H 189.362 0.380154 3.49639 0
M  V30 1975 H 189.236 -1.36998 3.51442 0
M  V30 1976 H 191.623 -1.51392 2.53307 0
M  V30 1977 H 191.704 0.253597 2.5454 0
M  V30 1978 H 191.348 0.230011 5.07379 0
M  V30 1979 H 191.278 -1.54966 5.03282 0
M  V30 1980 H 193.769 -0.719998 3.70978 0
M  V30 1981 H 194.082 -0.853727 7.6807 0
M  V30 1982 H 192.427 -0.774687 6.90669 0
M  V30 1983 H 195.618 -0.808998 4.61056 0
M  V30 1984 H 195.791 -0.870206 6.4213 0
M  V30 1985 N 189.197 -1.51736 -0.425897 0
M  V30 1986 C 190.446 -1.64201 -1.17136 0
M  V30 1987 C 190.759 -0.369705 -1.92074 0
M  V30 1988 O 191.965 -0.373898 -2.68913 0
M  V30 1989 C 190.421 -2.90035 -2.13091 0
M  V30 1990 C 190.029 -4.24312 -1.43747 0
M  V30 1991 C 191.773 -3.1186 -2.87999 0
M  V30 1992 C 189.68 -5.41285 -2.38253 0
M  V30 1993 H 188.61 -0.611624 -0.440944 0
M  V30 1994 H 191.261 -1.78212 -0.437328 0
M  V30 1995 H 189.643 -2.69684 -2.89977 0
M  V30 1996 H 190.817 -4.55086 -0.723408 0
M  V30 1997 H 189.132 -4.08456 -0.809465 0
M  V30 1998 H 191.729 -3.96427 -3.58817 0
M  V30 1999 H 192.072 -2.25403 -3.49999 0
M  V30 2000 H 192.605 -3.32605 -2.18217 0
M  V30 2001 H 189.344 -6.30037 -1.80925 0
M  V30 2002 H 188.864 -5.14872 -3.0768 0
M  V30 2003 H 190.543 -5.73694 -2.99139 0
M  V30 2004 N 190.675 0.682077 -1.42076 0
M  V30 2005 C 191.622 1.79578 -1.44984 0
M  V30 2006 C 192.592 1.6332 -0.302614 0
M  V30 2007 O 193.777 1.83978 -0.505633 0
M  V30 2008 C 190.917 3.1756 -1.35091 0
M  V30 2009 C 190.03 3.45156 -2.59791 0
M  V30 2010 C 189.165 4.72826 -2.42093 0
M  V30 2011 C 188.204 4.93433 -3.62202 0
M  V30 2012 N 187.341 6.12338 -3.43491 0
M  V30 2013 H 192.181 1.76427 -2.40161 0
M  V30 2014 H 189.718 0.861376 -1.19242 0
M  V30 2015 H 191.676 3.97287 -1.27354 0
M  V30 2016 H 190.306 3.19854 -0.435133 0
M  V30 2017 H 189.358 2.59736 -2.77923 0
M  V30 2018 H 190.67 3.5628 -3.49094 0
M  V30 2019 H 189.824 5.60631 -2.319 0
M  V30 2020 H 188.563 4.63973 -1.50268 0
M  V30 2021 H 187.568 4.04073 -3.72834 0
M  V30 2022 H 188.793 5.04136 -4.54998 0
M  V30 2023 H 186.739 6.04672 -2.54377 0
M  V30 2024 H 186.656 6.2429 -4.26377 0
M  V30 2025 H 187.924 7.02841 -3.37097 0
M  V30 2026 N 192.153 1.28127 0.917671 0
M  V30 2027 C 193.116 1.11744 2.00115 0
M  V30 2028 C 194.116 0.0583052 1.60694 0
M  V30 2029 O 195.306 0.303755 1.71531 0
M  V30 2030 C 192.438 0.704862 3.33533 0
M  V30 2031 H 193.631 2.07966 2.16079 0
M  V30 2032 H 191.184 1.11058 1.09981 0
M  V30 2033 H 191.919 -0.258299 3.2327 0
M  V30 2034 H 191.704 1.4699 3.63505 0
M  V30 2035 H 193.194 0.612768 4.1308 0
M  V30 2036 N 193.631 -1.12557 1.10312 0
M  V30 2037 C 194.859 -1.87864 0.866873 0
M  V30 2038 C 195.274 -1.79588 -0.582557 0
M  V30 2039 O 194.631 -1.16887 -1.40156 0
M  V30 2040 C 194.682 -3.37125 1.30496 0
M  V30 2041 O 194.403 -3.45201 2.69755 0
M  V30 2042 C 195.904 -4.29373 1.10243 0
M  V30 2043 H 193.124 -0.594452 0.311236 0
M  V30 2044 H 195.668 -1.42429 1.46745 0
M  V30 2045 H 193.823 -3.80109 0.748081 0
M  V30 2046 H 194.237 -4.38056 2.88457 0
M  V30 2047 H 195.711 -5.32394 1.45811 0
M  V30 2048 H 196.188 -4.39181 0.0409492 0
M  V30 2049 H 196.794 -3.92169 1.64571 0
M  V30 2050 N 195.109 -0.891671 -1.2995 0
M  V30 2051 C 196.057 -0.353066 -2.29905 0
M  V30 2052 C 197.051 0.543509 -1.60444 0
M  V30 2053 O 198.257 0.4272 -1.74857 0
M  V30 2054 H 194.632 -0.095531 -0.745907 0
M  V30 2055 H 196.603 -1.20961 -2.72784 0
M  V30 2056 C 195.352 0.411475 -3.45257 0
M  V30 2057 H 194.675 -0.269182 -3.98893 0
M  V30 2058 H 196.115 0.753328 -4.17254 0
M  V30 2059 C 194.574 1.6111 -2.9588 0
M  V30 2060 O 195.104 2.71045 -2.96475 0
M  V30 2061 N 193.31 1.45054 -2.51809 0
M  V30 2062 H 192.857 0.556175 -2.51524 0
M  V30 2063 H 192.815 2.25453 -2.1913 0
M  V30 2064 N 196.587 1.43421 -0.653314 0
M  V30 2065 C 197.835 2.01414 -0.166415 0
M  V30 2066 C 198.156 1.51803 1.22397 0
M  V30 2067 O 197.426 0.730693 1.81763 0
M  V30 2068 H 196.006 0.744703 -0.0585319 0
M  V30 2069 H 198.668 1.75629 -0.845003 0
M  V30 2070 H 197.764 3.11734 -0.151111 0
M  V30 2071 N 198.065 0.39524 1.52563 0
M  V30 2072 C 199.012 -0.437036 2.26624 0
M  V30 2073 C 199.982 -1.05281 1.28472 0
M  V30 2074 O 201.167 -1.07971 1.57311 0
M  V30 2075 C 198.307 -1.55524 3.08069 0
M  V30 2076 C 197.42 -0.961745 4.21158 0
M  V30 2077 C 196.555 -2.05149 4.89987 0
M  V30 2078 C 195.594 -1.4342 5.95061 0
M  V30 2079 N 194.731 -2.46351 6.57462 0
M  V30 2080 H 199.571 0.200976 2.97322 0
M  V30 2081 H 197.108 0.110944 1.46681 0
M  V30 2082 H 199.066 -2.21437 3.53584 0
M  V30 2083 H 197.696 -2.16348 2.3957 0
M  V30 2084 H 196.748 -0.192048 3.79915 0
M  V30 2085 H 198.06 -0.470701 4.96574 0
M  V30 2086 H 197.214 -2.78819 5.38837 0
M  V30 2087 H 195.953 -2.57615 4.14109 0
M  V30 2088 H 194.958 -0.682774 5.45544 0
M  V30 2089 H 196.183 -0.917416 6.72875 0
M  V30 2090 H 194.129 -2.97975 5.8442 0
M  V30 2091 H 194.046 -2.02019 7.28508 0
M  V30 2092 H 195.314 -3.19633 7.10954 0
M  V30 2093 N 199.544 -1.57102 0.125237 0
M  V30 2094 C 200.821 -1.86953 -0.575142 0
M  V30 2095 C 201.201 -1.02749 -1.84407 0
M  V30 2096 O 200.549 -0.108144 -2.28244 0
M  V30 2097 C 200.759 -3.38198 -0.861583 0
M  V30 2098 C 202.107 -4.06937 -1.21192 0
M  V30 2099 O 203.131 -3.43252 -0.951645 0
M  V30 2100 O 201.99 -5.19364 -1.70068 0
M  V30 2101 H 199.084 -0.774147 -0.290906 0
M  V30 2102 H 201.63 -1.68942 0.160211 0
M  V30 2103 H 200.402 -3.91282 0.0373647 0
M  V30 2104 H 200.025 -3.61661 -1.65188 0
M  V30 2105 N 201.022 0.148545 -1.56898 0
M  V30 2106 C 202.438 0.501131 -1.51528 0
M  V30 2107 C 202.638 1.83458 -0.833399 0
M  V30 2108 O 201.694 2.49259 -0.40328 0
M  V30 2109 C 203.007 0.512864 -2.96294 0
M  V30 2110 C 204.555 0.598487 -3.07225 0
M  V30 2111 C 205.03 0.640897 -4.53494 0
M  V30 2112 N 206.521 0.703163 -4.57832 0
M  V30 2113 C 207.256 0.756935 -5.68382 0
M  V30 2114 N 206.752 0.770147 -6.88506 0
M  V30 2115 N 208.545 0.797698 -5.56411 0
M  V30 2116 H 200.696 -0.725532 -1.99624 0
M  V30 2117 H 202.959 -0.264358 -0.910395 0
M  V30 2118 H 202.665 -0.398691 -3.49433 0
M  V30 2119 H 202.539 1.35133 -3.52163 0
M  V30 2120 H 204.926 1.50046 -2.54106 0
M  V30 2121 H 205.007 -0.267093 -2.54402 0
M  V30 2122 H 204.651 -0.256915 -5.0725 0
M  V30 2123 H 204.581 1.52295 -5.04097 0
M  V30 2124 H 207.072 0.700314 -3.71354 0
M  V30 2125 H 207.385 0.812983 -7.68512 0
M  V30 2126 H 205.73 0.738049 -6.9107 0
M  V30 2127 H 208.921 0.784535 -4.61479 0
M  V30 2128 H 209.094 0.83614 -6.42583 0
M  V30 2129 N 202.5 1.5196 0.417844 0
M  V30 2130 C 203.746 1.65836 1.16732 0
M  V30 2131 C 204.079 0.382881 1.90388 0
M  V30 2132 O 203.354 -0.618368 1.84408 0
M  V30 2133 C 203.637 2.87466 2.16876 0
M  V30 2134 C 203.49 4.25041 1.47174 0
M  V30 2135 C 204.809 3.04613 3.17646 0
M  V30 2136 H 201.928 0.603515 0.423011 0
M  V30 2137 H 204.57 1.84494 0.454105 0
M  V30 2138 H 202.72 2.71689 2.777 0
M  V30 2139 H 204.392 4.52527 0.895376 0
M  V30 2140 H 202.635 4.26843 0.773806 0
M  V30 2141 H 203.306 5.06176 2.20204 0
M  V30 2142 H 205.782 3.1923 2.66892 0
M  V30 2143 H 204.658 3.91247 3.8499 0
M  V30 2144 H 204.919 2.17541 3.84874 0
M  V30 2145 N 203.978 -0.674533 1.42435 0
M  V30 2146 C 205.227 -1.43034 1.42212 0
M  V30 2147 C 205.54 -1.95555 0.0420788 0
M  V30 2148 O 206.746 -2.71374 -0.0827558 0
M  V30 2149 C 205.202 -2.58748 2.50155 0
M  V30 2150 C 204.81 -2.12925 3.94166 0
M  V30 2151 C 206.554 -3.36257 2.59098 0
M  V30 2152 C 204.461 -3.25723 4.93618 0
M  V30 2153 H 203.391 -0.537345 0.528939 0
M  V30 2154 H 206.042 -0.73024 1.68344 0
M  V30 2155 H 204.424 -3.31128 2.17188 0
M  V30 2156 H 205.598 -1.47697 4.36488 0
M  V30 2157 H 203.913 -1.48354 3.89076 0
M  V30 2158 H 206.51 -4.20264 3.30578 0
M  V30 2159 H 206.853 -3.82866 1.63461 0
M  V30 2160 H 207.386 -2.70947 2.9126 0
M  V30 2161 H 204.125 -2.84105 5.90732 0
M  V30 2162 H 203.645 -3.89732 4.55926 0
M  V30 2163 H 205.324 -3.91186 5.15347 0
M  V30 2164 N 205.456 -1.28612 -0.910864 0
M  V30 2165 C 206.389 -1.07109 -2.01502 0
M  V30 2166 C 207.367 0.013706 -1.62594 0
M  V30 2167 O 208.551 -0.134796 -1.88017 0
M  V30 2168 C 205.678 -0.628255 -3.32822 0
M  V30 2169 C 204.724 -1.71012 -3.90714 0
M  V30 2170 S 205.557 -3.30676 -4.21205 0
M  V30 2171 C 206.713 -2.88234 -5.55583 0
M  V30 2172 H 206.946 -2.00591 -2.19432 0
M  V30 2173 H 204.479 -1.12633 -1.05609 0
M  V30 2174 H 206.437 -0.37946 -4.08742 0
M  V30 2175 H 205.098 0.28678 -3.12788 0
M  V30 2176 H 204.291 -1.35195 -4.85529 0
M  V30 2177 H 203.893 -1.91186 -3.21441 0
M  V30 2178 H 206.185 -2.34584 -6.35591 0
M  V30 2179 H 207.128 -3.81857 -5.96314 0
M  V30 2180 H 207.536 -2.26862 -5.16908 0
M  V30 2181 N 206.934 1.1197 -1.10907 0
M  V30 2182 C 207.884 2.15946 -0.731538 0
M  V30 2183 C 208.868 1.58758 0.261699 0
M  V30 2184 O 210.06 1.76863 0.0696722 0
M  V30 2185 C 207.189 3.42877 -0.170299 0
M  V30 2186 C 206.275 4.07037 -1.19087 0
M  V30 2187 N 206.666 4.46135 -2.38322 0
M  V30 2188 C 204.964 4.33884 -1.03252 0
M  V30 2189 C 205.665 4.96331 -3.03366 0
M  V30 2190 N 204.641 4.9214 -2.30865 0
M  V30 2191 H 208.443 2.43947 -1.63912 0
M  V30 2192 H 205.957 1.28927 -0.987505 0
M  V30 2193 H 207.954 4.16732 0.118271 0
M  V30 2194 H 206.614 3.16343 0.731935 0
M  V30 2195 H 207.625 4.38345 -2.75815 0
M  V30 2196 H 204.302 4.17084 -0.186256 0
M  V30 2197 H 205.692 5.36257 -4.04818 0
M  V30 2198 N 208.412 0.89855 1.29475 0
M  V30 2199 C 209.652 0.530771 1.97388 0
M  V30 2200 C 210.016 -0.905832 1.69289 0
M  V30 2201 O 211.217 -1.38042 2.30646 0
M  V30 2202 C 209.488 0.81369 3.48014 0
M  V30 2203 S 211.047 0.550048 4.35339 0
M  V30 2204 H 207.865 0.196956 0.683176 0
M  V30 2205 H 210.467 1.16074 1.57312 0
M  V30 2206 H 209.171 1.85749 3.65958 0
M  V30 2207 H 208.702 0.171795 3.93025 0
M  V30 2208 H 210.717 -0.605423 4.92493 0
M  V30 2209 N 209.89 -1.43072 0.660911 0
M  V30 2210 C 210.84 -2.27948 -0.04847 0
M  V30 2211 C 211.824 -1.40325 -0.787246 0
M  V30 2212 O 213.016 -1.63893 -0.668446 0
M  V30 2213 C 210.145 -3.28143 -1.00881 0
M  V30 2214 C 209.231 -4.23252 -0.268108 0
M  V30 2215 N 209.622 -5.00656 0.719528 0
M  V30 2216 C 207.92 -4.43092 -0.508493 0
M  V30 2217 C 208.621 -5.70019 1.15988 0
M  V30 2218 N 207.597 -5.41364 0.492584 0
M  V30 2219 H 211.399 -2.85213 0.709279 0
M  V30 2220 H 208.913 -1.54869 0.488822 0
M  V30 2221 H 210.91 -3.87736 -1.53188 0
M  V30 2222 H 209.57 -2.7244 -1.76654 0
M  V30 2223 H 210.581 -5.06115 1.09855 0
M  V30 2224 H 207.258 -3.98449 -1.24679 0
M  V30 2225 H 208.648 -6.4214 1.97751 0
M  V30 2226 N 211.368 -0.403325 -1.52352 0
M  V30 2227 C 212.331 0.413051 -2.25447 0
M  V30 2228 C 213.331 0.978513 -1.276 0
M  V30 2229 O 214.521 0.858305 -1.51587 0
M  V30 2230 C 211.653 1.58087 -3.02029 0
M  V30 2231 H 212.846 -0.227094 -2.99039 0
M  V30 2232 H 210.399 -0.155722 -1.55522 0
M  V30 2233 H 211.134 2.25804 -2.32772 0
M  V30 2234 H 210.919 1.18195 -3.73861 0
M  V30 2235 H 212.409 2.1585 -3.57489 0
M  V30 2236 N 212.846 1.57033 -0.133567 0
M  V30 2237 C 214.074 2.00044 0.528195 0
M  V30 2238 C 214.489 1.01349 1.59291 0
M  V30 2239 O 213.846 0.00848369 1.82498 0
M  V30 2240 C 213.897 3.43018 1.1411 0
M  V30 2241 O 213.618 4.37939 0.11892 0
M  V30 2242 C 215.119 4.01237 1.88477 0
M  V30 2243 H 212.339 0.656517 0.138661 0
M  V30 2244 H 214.883 2.03267 -0.224196 0
M  V30 2245 H 213.038 3.40688 1.84418 0
M  V30 2246 H 213.452 5.21436 0.56613 0
M  V30 2247 H 214.926 5.03314 2.26669 0
M  V30 2248 H 215.403 3.41193 2.76558 0
M  V30 2249 H 216.009 4.07156 1.22898 0
M  V30 2250 N 214.325 -0.140222 1.56975 0
M  V30 2251 C 215.273 -1.19207 1.99731 0
M  V30 2252 C 216.267 -1.44089 0.890777 0
M  V30 2253 O 217.473 -1.44301 1.07597 0
M  V30 2254 H 213.848 -0.40142 0.635898 0
M  V30 2255 H 215.819 -0.804813 2.87342 0
M  V30 2256 C 214.568 -2.51617 2.39967 0
M  V30 2257 H 213.891 -2.33303 3.24669 0
M  V30 2258 H 215.331 -3.23827 2.73701 0
M  V30 2259 C 213.79 -3.12654 1.25496 0
M  V30 2260 O 214.32 -3.97786 0.559371 0
M  V30 2261 N 212.526 -2.72206 1.01746 0
M  V30 2262 H 212.073 -2.03074 1.58489 0
M  V30 2263 H 212.031 -3.13377 0.253461 0
M  V30 2264 N 215.803 -1.52179 -0.40978 0
M  V30 2265 C 216.733 -1.78435 -1.5061 0
M  V30 2266 C 217.714 -0.635295 -1.57791 0
M  V30 2267 O 218.899 -0.880823 -1.73076 0
M  V30 2268 C 216.029 -1.93444 -2.88439 0
M  V30 2269 C 214.983 -3.09038 -2.96108 0
M  V30 2270 C 214.309 -3.09268 -4.36185 0
M  V30 2271 C 215.609 -4.48508 -2.67652 0
M  V30 2272 H 217.303 -2.70237 -1.28889 0
M  V30 2273 H 214.849 -1.30036 -0.618605 0
M  V30 2274 H 216.802 -2.10394 -3.65119 0
M  V30 2275 H 215.526 -0.983129 -3.11452 0
M  V30 2276 H 214.185 -2.91837 -2.21872 0
M  V30 2277 H 213.833 -2.11861 -4.56206 0
M  V30 2278 H 213.533 -3.86907 -4.42241 0
M  V30 2279 H 215.057 -3.28348 -5.14801 0
M  V30 2280 H 216.471 -4.65918 -3.34056 0
M  V30 2281 H 214.868 -5.28059 -2.85085 0
M  V30 2282 H 215.938 -4.56649 -1.63095 0
M  V30 2283 N 217.281 0.66697 -1.42791 0
M  V30 2284 C 218.53 1.42278 -1.42968 0
M  V30 2285 C 218.843 1.9553 -0.0524489 0
M  V30 2286 O 220.049 2.71414 0.068363 0
M  V30 2287 C 218.505 2.57418 -2.51524 0
M  V30 2288 C 218.113 2.10832 -3.9529 0
M  V30 2289 C 219.857 3.34878 -2.60877 0
M  V30 2290 C 217.764 3.23101 -4.95338 0
M  V30 2291 H 216.694 0.534533 -0.531781 0
M  V30 2292 H 219.345 0.721302 -1.68729 0
M  V30 2293 H 217.727 3.29971 -2.18941 0
M  V30 2294 H 218.901 1.4538 -4.37266 0
M  V30 2295 H 217.216 1.46289 -3.89857 0
M  V30 2296 H 219.813 4.18505 -3.32802 0
M  V30 2297 H 220.156 3.81993 -1.6549 0
M  V30 2298 H 220.689 2.69398 -2.92693 0
M  V30 2299 H 217.428 2.80969 -5.9223 0
M  V30 2300 H 216.948 3.87309 -4.57987 0
M  V30 2301 H 218.627 3.88447 -5.17415 0
M  V30 2302 N 218.759 1.29093 0.90403 0
M  V30 2303 C 219.722 1.1386 1.98919 0
M  V30 2304 C 220.722 0.0753457 1.60623 0
M  V30 2305 O 221.912 0.321931 1.71199 0
M  V30 2306 C 219.044 0.740198 3.32767 0
M  V30 2307 H 220.237 2.10246 2.13861 0
M  V30 2308 H 217.79 1.12218 1.08797 0
M  V30 2309 H 218.525 -0.223997 3.23525 0
M  V30 2310 H 218.31 1.50838 3.61926 0
M  V30 2311 H 219.8 0.656546 4.12407 0
M  V30 2312 N 220.237 -1.11381 1.11499 0
M  V30 2313 C 221.167 -2.19509 0.796125 0
M  V30 2314 C 222.148 -1.68458 -0.235796 0
M  V30 2315 O 223.333 -1.93947 -0.0991344 0
M  V30 2316 C 220.463 -3.46475 0.239205 0
M  V30 2317 C 219.417 -4.10744 1.20307 0
M  V30 2318 C 218.743 -5.32293 0.50683 0
M  V30 2319 C 220.043 -4.55597 2.55399 0
M  V30 2320 H 221.737 -2.46439 1.70024 0
M  V30 2321 H 219.283 -1.18446 0.818935 0
M  V30 2322 H 221.236 -4.214 0.00392006 0
M  V30 2323 H 219.96 -3.19006 -0.700206 0
M  V30 2324 H 218.619 -3.37813 1.42399 0
M  V30 2325 H 218.267 -5.01095 -0.437408 0
M  V30 2326 H 217.967 -5.76243 1.1497 0
M  V30 2327 H 219.491 -6.09956 0.280351 0
M  V30 2328 H 220.905 -5.21841 2.37391 0
M  V30 2329 H 219.302 -5.10363 3.15673 0
M  V30 2330 H 220.372 -3.69013 3.14575 0
M  V30 2331 N 221.715 -0.905404 -1.28997 0
M  V30 2332 C 222.943 -0.549846 -1.9946 0
M  V30 2333 C 223.358 0.866834 -1.67724 0
M  V30 2334 O 222.715 1.57298 -0.925404 0
M  V30 2335 C 222.766 -0.739387 -3.53858 0
M  V30 2336 O 222.487 -2.10031 -3.84472 0
M  V30 2337 C 223.988 -0.389541 -4.41585 0
M  V30 2338 H 221.208 -0.210429 -0.637151 0
M  V30 2339 H 223.752 -1.21632 -1.64396 0
M  V30 2340 H 221.907 -0.120023 -3.87214 0
M  V30 2341 H 222.321 -2.13385 -4.79132 0
M  V30 2342 H 223.795 -0.572972 -5.49018 0
M  V30 2343 H 224.272 0.673756 -4.34001 0
M  V30 2344 H 224.878 -0.986089 -4.1371 0
M  V30 2345 N 223.193 1.4272 -0.668489 0
M  V30 2346 C 224.423 2.05668 -0.196063 0
M  V30 2347 C 224.831 1.5028 1.14946 0
M  V30 2348 O 224.174 0.6348 1.72383 0
M  V30 2349 C 224.236 3.59469 -0.0468879 0
M  V30 2350 C 223.9 4.37518 -1.32012 0
M  V30 2351 C 224.897 4.68584 -2.25222 0
M  V30 2352 C 222.582 4.77266 -1.56596 0
M  V30 2353 C 224.576 5.38326 -3.41297 0
M  V30 2354 C 222.263 5.4675 -2.72962 0
M  V30 2355 C 223.261 5.77204 -3.65137 0
M  V30 2356 O 222.949 6.45264 -4.79468 0
M  V30 2357 H 222.681 0.669382 -0.0943599 0
M  V30 2358 H 225.235 1.83954 -0.913788 0
M  V30 2359 H 223.465 3.79817 0.726357 0
M  V30 2360 H 225.154 4.04071 0.384852 0
M  V30 2361 H 225.92 4.38382 -2.07477 0
M  V30 2362 H 221.799 4.52959 -0.857249 0
M  V30 2363 H 225.343 5.62014 -4.13263 0
M  V30 2364 H 221.24 5.76369 -2.90635 0
M  V30 2365 H 222.008 6.63753 -4.78931 0
M  V30 2366 N 224.671 0.411399 1.52136 0
M  V30 2367 C 225.917 -0.163888 2.02137 0
M  V30 2368 C 226.25 -1.44597 1.29636 0
M  V30 2369 O 225.525 -1.90272 0.403353 0
M  V30 2370 C 225.808 -0.40927 3.57767 0
M  V30 2371 C 225.661 0.889643 4.40914 0
M  V30 2372 C 226.98 -1.19042 4.23694 0
M  V30 2373 H 224.099 -0.0580896 0.734707 0
M  V30 2374 H 226.741 0.54531 1.82007 0
M  V30 2375 H 224.891 -1.0134 3.7505 0
M  V30 2376 H 226.563 1.52575 4.35337 0
M  V30 2377 H 224.806 1.50011 4.07037 0
M  V30 2378 H 225.477 0.672314 5.4789 0
M  V30 2379 H 227.953 -0.678942 4.10524 0
M  V30 2380 H 226.829 -1.33086 5.32522 0
M  V30 2381 H 227.09 -2.21166 3.82803 0
M  V30 2382 N 226.149 -1.5696 0.141893 0
M  V30 2383 C 227.079 -2.19516 -0.795936 0
M  V30 2384 C 228.06 -1.14187 -1.26077 0
M  V30 2385 O 229.245 -1.42511 -1.31925 0
M  V30 2386 C 226.375 -2.81272 -2.03723 0
M  V30 2387 C 225.329 -3.92384 -1.70936 0
M  V30 2388 C 224.655 -4.41052 -3.02287 0
M  V30 2389 C 225.955 -5.13403 -0.959954 0
M  V30 2390 H 227.649 -2.98138 -0.274596 0
M  V30 2391 H 225.195 -1.43406 -0.130636 0
M  V30 2392 H 227.148 -3.237 -2.69808 0
M  V30 2393 H 225.872 -1.99973 -2.58221 0
M  V30 2394 H 224.531 -3.50566 -1.07232 0
M  V30 2395 H 224.179 -3.56582 -3.54765 0
M  V30 2396 H 223.879 -5.15993 -2.81114 0
M  V30 2397 H 225.403 -4.86146 -3.69451 0
M  V30 2398 H 226.817 -5.52706 -1.52279 0
M  V30 2399 H 225.214 -5.94073 -0.848357 0
M  V30 2400 H 226.284 -4.84875 0.0492434 0
M  V30 2401 N 227.627 0.131896 -1.57047 0
M  V30 2402 C 228.537 1.1815 -2.02676 0
M  V30 2403 C 229.553 1.46113 -0.944824 0
M  V30 2404 O 230.729 1.57485 -1.25541 0
M  V30 2405 C 227.794 2.49139 -2.41103 0
M  V30 2406 C 226.855 2.28688 -3.63318 0
M  V30 2407 C 226.088 3.53431 -3.99903 0
M  V30 2408 O 226.311 4.60223 -3.36973 0
M  V30 2409 O 225.245 3.45198 -4.93074 0
M  V30 2410 H 229.071 0.824069 -2.92306 0
M  V30 2411 H 226.656 0.341745 -1.45439 0
M  V30 2412 H 228.538 3.26338 -2.66611 0
M  V30 2413 H 227.213 2.84382 -1.54624 0
M  V30 2414 H 226.12 1.4939 -3.42977 0
M  V30 2415 H 227.453 1.98355 -4.50462 0
M  V30 2416 N 229.106 1.52395 0.401703 0
M  V30 2417 C 230.054 1.7689 1.51039 0
M  V30 2418 C 231.048 0.636298 1.56996 0
M  V30 2419 O 232.254 0.818507 1.60314 0
M  V30 2420 H 228.629 0.559502 0.502456 0
M  V30 2421 H 230.6 2.69757 1.27568 0
M  V30 2422 C 229.349 1.94331 2.88324 0
M  V30 2423 H 228.672 2.80905 2.84486 0
M  V30 2424 H 230.112 2.15466 3.65172 0
M  V30 2425 C 228.571 0.712396 3.29282 0
M  V30 2426 O 229.101 -0.116218 4.01532 0
M  V30 2427 N 227.307 0.546154 2.85422 0
M  V30 2428 H 226.854 1.22156 2.26794 0
M  V30 2429 H 226.812 -0.276113 3.13185 0
M  V30 2430 N 230.584 -0.659388 1.43143 0
M  V30 2431 C 231.861 -1.41627 1.34912 0
M  V30 2432 C 232.241 -2.11099 -0.00607785 0
M  V30 2433 O 231.589 -2.04353 -1.02236 0
M  V30 2434 C 231.799 -2.40604 2.52805 0
M  V30 2435 C 233.147 -3.04789 2.95616 0
M  V30 2436 O 234.171 -2.50932 2.52807 0
M  V30 2437 O 233.03 -4.02421 3.69756 0
M  V30 2438 H 230.124 -0.63246 0.532844 0
M  V30 2439 H 232.67 -0.686814 1.5518 0
M  V30 2440 H 231.442 -1.88174 3.43083 0
M  V30 2441 H 231.065 -3.21009 2.34604 0
M  V30 2442 N 232.062 -1.29571 -0.897171 0
M  V30 2443 C 233.29 -1.20583 -1.68129 0
M  V30 2444 C 233.705 0.233181 -1.87354 0
M  V30 2445 O 233.062 1.15579 -1.41236 0
M  V30 2446 C 233.113 -1.91772 -3.06441 0
M  V30 2447 O 232.834 -3.30053 -2.88091 0
M  V30 2448 C 234.335 -1.89291 -4.00854 0
M  V30 2449 H 231.555 -0.417826 -0.525036 0
M  V30 2450 H 234.099 -1.70987 -1.12177 0
M  V30 2451 H 232.254 -1.45196 -3.59161 0
M  V30 2452 H 232.668 -3.65942 -3.75748 0
M  V30 2453 H 234.142 -2.43662 -4.95311 0
M  V30 2454 H 234.619 -0.869014 -4.30517 0
M  V30 2455 H 235.225 -2.35622 -3.54066 0
M  V30 2456 N 233.54 1.10788 -1.12088 0
M  V30 2457 C 234.503 2.15207 -0.788577 0
M  V30 2458 C 235.503 1.59609 0.195317 0
M  V30 2459 O 236.693 1.74174 -0.0300193 0
M  V30 2460 C 233.825 3.4047 -0.171174 0
M  V30 2461 H 235.018 2.46116 -1.71368 0
M  V30 2462 H 232.571 1.26089 -0.923652 0
M  V30 2463 H 233.306 3.15176 0.763832 0
M  V30 2464 H 233.091 3.82109 -0.879514 0
M  V30 2465 H 234.581 4.17576 0.04496 0
M  V30 2466 N 235.018 0.912232 1.28515 0
M  V30 2467 C 236.264 0.545405 1.95328 0
M  V30 2468 C 236.597 -0.908313 1.71649 0
M  V30 2469 O 235.872 -1.64575 1.03659 0
M  V30 2470 C 236.155 0.853483 3.4984 0
M  V30 2471 C 236.008 2.35982 3.82926 0
M  V30 2472 C 237.327 0.348589 4.38717 0
M  V30 2473 H 234.446 0.199626 0.709449 0
M  V30 2474 H 237.088 1.1412 1.5191 0
M  V30 2475 H 235.238 0.34643 3.86952 0
M  V30 2476 H 236.91 2.93738 3.55691 0
M  V30 2477 H 235.153 2.81543 3.30024 0
M  V30 2478 H 235.824 2.52593 4.90816 0
M  V30 2479 H 238.3 0.78294 4.08668 0
M  V30 2480 H 237.176 0.593242 5.45685 0
M  V30 2481 H 237.437 -0.751049 4.35674 0
M  V30 2482 N 236.496 -1.42363 0.676048 0
M  V30 2483 C 237.743 -2.01522 0.19883 0
M  V30 2484 C 238.071 -1.53456 -1.19505 0
M  V30 2485 O 237.326 -0.727967 -1.81657 0
M  V30 2486 C 237.625 -3.56929 0.183431 0
M  V30 2487 C 237.291 -4.24431 1.52215 0
M  V30 2488 C 235.953 -4.42585 1.8887 0
M  V30 2489 C 238.305 -4.62459 2.40377 0
M  V30 2490 C 235.633 -4.96039 3.13309 0
M  V30 2491 C 237.985 -5.17294 3.64129 0
M  V30 2492 C 236.649 -5.33661 4.00951 0
M  V30 2493 H 235.919 -0.737419 0.0727571 0
M  V30 2494 H 238.566 -1.70531 0.871281 0
M  V30 2495 H 236.871 -3.87594 -0.572532 0
M  V30 2496 H 238.568 -4.00486 -0.203035 0
M  V30 2497 H 235.158 -4.10661 1.22701 0
M  V30 2498 H 239.342 -4.48105 2.13343 0
M  V30 2499 H 234.598 -5.06896 3.41857 0
M  V30 2500 H 238.772 -5.45704 4.32644 0
M  V30 2501 H 236.399 -5.74845 4.9745 0
M  V30 2502 N 237.974 -0.419461 -1.51915 0
M  V30 2503 C 239.202 0.152136 -2.0634 0
M  V30 2504 C 239.617 1.37988 -1.28859 0
M  V30 2505 O 238.974 1.79243 -0.343232 0
M  V30 2506 C 239.025 0.492266 -3.58133 0
M  V30 2507 O 238.746 -0.686736 -4.32684 0
M  V30 2508 C 240.247 1.11648 -4.2901 0
M  V30 2509 H 237.467 0.0158325 -0.670813 0
M  V30 2510 H 240.011 -0.593394 -1.95702 0
M  V30 2511 H 238.166 1.18769 -3.68745 0
M  V30 2512 H 238.58 -0.400341 -5.2297 0
M  V30 2513 H 240.054 1.3046 -5.36362 0
M  V30 2514 H 240.531 2.09251 -3.86148 0
M  V30 2515 H 241.137 0.460958 -4.22795 0
M  V30 2516 N 239.452 1.56882 -0.150215 0
M  V30 2517 C 240.868 1.58263 0.20617 0
M  V30 2518 C 241.068 1.16464 1.64434 0
M  V30 2519 O 240.124 0.866422 2.3717 0
M  V30 2520 C 241.437 3.00649 -0.0555025 0
M  V30 2521 C 242.985 3.12999 0.00795388 0
M  V30 2522 C 243.46 4.5744 -0.226429 0
M  V30 2523 N 244.951 4.62875 -0.173469 0
M  V30 2524 C 245.686 5.72454 -0.329288 0
M  V30 2525 N 245.182 6.90669 -0.543005 0
M  V30 2526 N 246.975 5.61467 -0.266666 0
M  V30 2527 H 239.126 1.82345 -1.08922 0
M  V30 2528 H 241.389 0.844149 -0.431413 0
M  V30 2529 H 241.095 3.3563 -1.05096 0
M  V30 2530 H 240.969 3.71337 0.66246 0
M  V30 2531 H 243.356 2.77857 0.993966 0
M  V30 2532 H 243.437 2.4479 -0.742388 0
M  V30 2533 H 243.081 4.93287 -1.20956 0
M  V30 2534 H 243.011 5.2378 0.544274 0
M  V30 2535 H 245.502 3.77898 -0.0130709 0
M  V30 2536 H 245.815 7.70045 -0.651922 0
M  V30 2537 H 244.16 6.92581 -0.579366 0
M  V30 2538 H 247.351 4.67992 -0.100441 0
M  V30 2539 H 247.524 6.46816 -0.391535 0
M  V30 2540 N 240.93 -0.123565 1.57115 0
M  V30 2541 C 241.862 -1.17739 1.96648 0
M  V30 2542 C 242.875 -1.37906 0.865201 0
M  V30 2543 O 244.064 -1.37062 1.14351 0
M  V30 2544 C 241.164 -2.53821 2.24562 0
M  V30 2545 C 240.337 -2.54317 3.55867 0
M  V30 2546 C 239.396 -3.72112 3.72047 0
M  V30 2547 O 238.422 -3.55907 4.44206 0
M  V30 2548 N 239.624 -4.90498 3.10471 0
M  V30 2549 H 242.389 -0.841147 2.87654 0
M  V30 2550 H 239.95 -0.31289 1.58848 0
M  V30 2551 H 241.942 -3.31175 2.32606 0
M  V30 2552 H 240.512 -2.79645 1.39705 0
M  V30 2553 H 239.732 -1.62711 3.59053 0
M  V30 2554 H 241.02 -2.51701 4.42181 0
M  V30 2555 H 240.418 -5.06567 2.51806 0
M  V30 2556 H 238.975 -5.65544 3.24043 0
M  V30 2557 N 242.408 -1.52605 -0.393616 0
M  V30 2558 C 243.338 -1.80022 -1.48709 0
M  V30 2559 C 244.319 -0.651995 -1.57108 0
M  V30 2560 O 245.504 -0.89913 -1.72132 0
M  V30 2561 C 242.634 -1.96492 -2.86371 0
M  V30 2562 C 241.588 -3.12161 -2.92813 0
M  V30 2563 C 240.914 -3.13877 -4.3288 0
M  V30 2564 C 242.214 -4.51322 -2.6288 0
M  V30 2565 H 243.908 -2.71589 -1.26015 0
M  V30 2566 H 241.454 -1.30684 -0.604778 0
M  V30 2567 H 243.407 -2.14255 -3.62867 0
M  V30 2568 H 242.131 -1.01611 -3.10391 0
M  V30 2569 H 240.79 -2.94173 -2.18764 0
M  V30 2570 H 240.438 -2.16687 -4.53933 0
M  V30 2571 H 240.138 -3.91576 -4.38112 0
M  V30 2572 H 241.662 -3.33789 -5.1129 0
M  V30 2573 H 243.076 -4.69435 -3.29096 0
M  V30 2574 H 241.473 -5.31053 -2.79468 0
M  V30 2575 H 242.543 -4.58353 -1.58242 0
M  V30 2576 N 243.887 0.651787 -1.4349 0
M  V30 2577 C 245.133 1.4121 -1.46395 0
M  V30 2578 C 245.488 1.92202 -0.087366 0
M  V30 2579 O 244.781 1.69452 0.894231 0
M  V30 2580 C 244.975 2.60914 -2.44251 0
M  V30 2581 C 244.804 2.21639 -3.91288 0
M  V30 2582 C 243.574 2.09897 -4.59643 0
M  V30 2583 C 245.772 1.81835 -4.81083 0
M  V30 2584 N 243.754 1.63967 -5.91598 0
M  V30 2585 C 245.125 1.46998 -6.02322 0
M  V30 2586 C 247.18 1.69031 -4.6833 0
M  V30 2587 C 245.883 1.00638 -7.12225 0
M  V30 2588 C 247.909 1.24077 -5.78238 0
M  V30 2589 C 247.271 0.901772 -6.98604 0
M  V30 2590 H 243.37 0.512322 -0.590805 0
M  V30 2591 H 245.954 0.74989 -1.7968 0
M  V30 2592 H 244.125 3.24792 -2.1299 0
M  V30 2593 H 245.857 3.27622 -2.37584 0
M  V30 2594 H 242.612 2.297 -4.14168 0
M  V30 2595 H 243.036 1.43359 -6.61647 0
M  V30 2596 H 247.678 1.93878 -3.75727 0
M  V30 2597 H 245.396 0.745399 -8.04655 0
M  V30 2598 H 248.982 1.14657 -5.7039 0
M  V30 2599 H 247.862 0.559226 -7.82203 0
M  V30 2600 N 245.365 1.30045 0.890287 0
M  V30 2601 C 246.275 1.17885 2.02831 0
M  V30 2602 C 247.291 0.0999609 1.73713 0
M  V30 2603 O 248.467 0.313867 1.98939 0
M  V30 2604 C 245.532 0.866079 3.35708 0
M  V30 2605 C 244.593 2.02979 3.78283 0
M  V30 2606 C 243.826 1.73184 5.0482 0
M  V30 2607 O 244.049 0.657237 5.66601 0
M  V30 2608 O 242.983 2.58267 5.43674 0
M  V30 2609 H 246.809 2.13474 2.16015 0
M  V30 2610 H 244.394 1.09587 1.01543 0
M  V30 2611 H 246.276 0.706623 4.15433 0
M  V30 2612 H 244.951 -0.0599443 3.23644 0
M  V30 2613 H 243.858 2.24454 2.99285 0
M  V30 2614 H 245.191 2.93734 3.94944 0
M  V30 2615 N 246.843 -1.10192 1.12674 0
M  V30 2616 C 248.091 -1.81845 0.881861 0
M  V30 2617 C 248.412 -1.85737 -0.593867 0
M  V30 2618 O 247.682 -1.33724 -1.4316 0
M  V30 2619 H 246.262 -0.673432 0.323261 0
M  V30 2620 H 248.924 -1.33316 1.42172 0
M  V30 2621 H 248.02 -2.85288 1.2656 0
M  V30 2622 N 248.321 -0.919034 -1.28029 0
M  V30 2623 C 249.546 -0.570357 -1.99403 0
M  V30 2624 C 249.971 0.842486 -1.68178 0
M  V30 2625 O 249.329 1.56391 -0.917141 0
M  V30 2626 C 249.377 -0.792541 -3.51783 0
M  V30 2627 O 248.481 0.145988 -4.12142 0
M  V30 2628 H 247.822 -0.220555 -0.6263 0
M  V30 2629 H 250.352 -1.23592 -1.63053 0
M  V30 2630 H 250.362 -0.704708 -4.01868 0
M  V30 2631 H 249.037 -1.82247 -3.73844 0
M  V30 2632 H 247.614 0.00897528 -3.72899 0
M  V30 2633 N 249.799 1.42003 -0.683588 0
M  V30 2634 C 251.027 2.05746 -0.218182 0
M  V30 2635 C 251.442 1.51396 1.12804 0
M  V30 2636 O 250.799 0.657303 1.70252 0
M  V30 2637 C 250.85 3.61171 -0.154131 0
M  V30 2638 O 250.571 4.13508 -1.44716 0
M  V30 2639 C 252.072 4.42042 0.333713 0
M  V30 2640 H 249.292 0.662888 -0.10402 0
M  V30 2641 H 251.836 1.81987 -0.9328 0
M  V30 2642 H 249.991 3.84012 0.511231 0
M  V30 2643 H 250.405 5.07453 -1.32632 0
M  V30 2644 H 251.879 5.51028 0.327423 0
M  V30 2645 H 252.356 4.17269 1.37053 0
M  V30 2646 H 252.962 4.24239 -0.300222 0
M  V30 2647 N 251.277 0.427512 1.51691 0
M  V30 2648 C 252.187 -0.39527 2.31246 0
M  V30 2649 C 253.203 -1.03674 1.39742 0
M  V30 2650 O 254.379 -1.03425 1.72816 0
M  V30 2651 C 251.444 -1.48706 3.13189 0
M  V30 2652 C 250.505 -0.866743 4.20459 0
M  V30 2653 C 249.738 -1.90651 4.98486 0
M  V30 2654 O 249.961 -3.12733 4.77026 0
M  V30 2655 O 248.895 -1.5025 5.82845 0
M  V30 2656 H 252.721 0.253918 3.02637 0
M  V30 2657 H 250.306 0.190274 1.48183 0
M  V30 2658 H 252.188 -2.12047 3.64162 0
M  V30 2659 H 250.863 -2.12051 2.44573 0
M  V30 2660 H 249.77 -0.195544 3.73589 0
M  V30 2661 H 251.103 -0.276934 4.9142 0
M  V30 2662 N 252.755 -1.56801 0.158532 0
M  V30 2663 C 253.995 -1.98383 -0.49229 0
M  V30 2664 C 254.359 -1.04184 -1.61275 0
M  V30 2665 O 255.56 -1.34856 -2.32524 0
M  V30 2666 C 253.831 -3.4385 -0.974766 0
M  V30 2667 S 255.39 -4.07459 -1.62857 0
M  V30 2668 H 252.208 -0.693041 -0.158794 0
M  V30 2669 H 254.81 -1.93856 0.252974 0
M  V30 2670 H 253.514 -4.10131 -0.148688 0
M  V30 2671 H 253.045 -3.52115 -1.75438 0
M  V30 2672 H 255.06 -4.01458 -2.91627 0
M  V30 2673 N 254.233 0.115231 -1.57178 0
M  V30 2674 C 255.163 1.1423 -2.03651 0
M  V30 2675 C 256.144 1.42967 -0.921655 0
M  V30 2676 O 257.329 1.53343 -1.19162 0
M  V30 2677 C 254.459 2.4675 -2.44401 0
M  V30 2678 C 253.413 2.32467 -3.59365 0
M  V30 2679 C 252.739 3.69984 -3.86026 0
M  V30 2680 C 254.039 1.78203 -4.90959 0
M  V30 2681 H 255.733 0.755749 -2.89705 0
M  V30 2682 H 253.279 0.362093 -1.39373 0
M  V30 2683 H 255.232 3.18854 -2.75517 0
M  V30 2684 H 253.956 2.87302 -1.55322 0
M  V30 2685 H 252.615 1.62811 -3.28463 0
M  V30 2686 H 252.263 4.08028 -2.94147 0
M  V30 2687 H 251.963 3.61279 -4.63412 0
M  V30 2688 H 253.487 4.43587 -4.19599 0
M  V30 2689 H 254.901 2.40128 -5.20587 0
M  V30 2690 H 253.298 1.8031 -5.72371 0
M  V30 2691 H 254.368 0.739876 -4.79222 0
M  V30 2692 N 255.711 1.52812 0.385517 0
M  V30 2693 C 256.957 1.68275 1.13188 0
M  V30 2694 C 257.29 0.423179 1.89533 0
M  V30 2695 O 256.565 -0.579113 1.85679 0
M  V30 2696 C 256.848 2.92001 2.1073 0
M  V30 2697 C 256.701 4.28067 1.38125 0
M  V30 2698 C 258.02 3.11283 3.11113 0
M  V30 2699 H 255.139 0.612352 0.410115 0
M  V30 2700 H 257.781 1.85415 0.414869 0
M  V30 2701 H 255.931 2.77519 2.71874 0
M  V30 2702 H 257.603 4.54324 0.799187 0
M  V30 2703 H 255.846 4.28388 0.683092 0
M  V30 2704 H 256.517 5.10733 2.09417 0
M  V30 2705 H 258.993 3.2482 2.6006 0
M  V30 2706 H 257.869 3.99325 3.76605 0
M  V30 2707 H 258.13 2.25656 3.80173 0
M  V30 2708 N 257.189 -0.644168 1.43834 0
M  V30 2709 C 258.435 -1.40603 1.46146 0
M  V30 2710 C 258.768 -1.93997 0.0887717 0
M  V30 2711 O 258.043 -1.72854 -0.891724 0
M  V30 2712 C 258.326 -2.58086 2.51124 0
M  V30 2713 C 258.179 -2.10126 3.97702 0
M  V30 2714 C 259.498 -3.60291 2.52742 0
M  V30 2715 H 256.617 -0.509905 0.532134 0
M  V30 2716 H 259.259 -0.729502 1.75437 0
M  V30 2717 H 257.409 -3.15801 2.26278 0
M  V30 2718 H 259.081 -1.57342 4.33637 0
M  V30 2719 H 257.324 -1.41419 4.10101 0
M  V30 2720 H 257.995 -2.94649 4.66783 0
M  V30 2721 H 260.471 -3.12352 2.7491 0
M  V30 2722 H 259.347 -4.40032 3.28121 0
M  V30 2723 H 259.608 -4.1349 1.56455 0
M  V30 2724 N 258.668 -1.30515 -0.883378 0
M  V30 2725 C 259.915 -1.1943 -1.63532 0
M  V30 2726 C 260.243 0.250627 -1.92878 0
M  V30 2727 O 259.498 1.19556 -1.54935 0
M  V30 2728 C 259.797 -1.96994 -2.98209 0
M  V30 2729 C 259.463 -3.466 -2.88408 0
M  V30 2730 C 258.125 -3.87397 -2.85442 0
M  V30 2731 C 260.477 -4.41863 -2.76418 0
M  V30 2732 C 257.805 -5.21745 -2.68327 0
M  V30 2733 C 260.157 -5.7632 -2.60841 0
M  V30 2734 C 258.821 -6.16354 -2.56251 0
M  V30 2735 H 258.091 -0.437025 -0.598406 0
M  V30 2736 H 260.738 -1.61635 -1.02696 0
M  V30 2737 H 259.043 -1.47429 -3.63004 0
M  V30 2738 H 260.74 -1.85808 -3.55354 0
M  V30 2739 H 257.33 -3.14182 -2.91527 0
M  V30 2740 H 261.514 -4.11285 -2.77775 0
M  V30 2741 H 256.77 -5.51853 -2.63189 0
M  V30 2742 H 260.944 -6.49772 -2.50538 0
M  V30 2743 H 258.571 -7.20401 -2.42748 0
M  V30 2744 N 260.146 1.09593 -1.13257 0
M  V30 2745 C 261.557 1.63229 -0.906274 0
M  V30 2746 C 261.908 1.8811 0.557578 0
M  V30 2747 O 261.033 1.62953 1.42391 0
M  V30 2748 C 261.628 2.96535 -1.63867 0
M  V30 2749 C 260.187 3.47003 -1.45828 0
M  V30 2750 C 259.334 2.2145 -1.66898 0
M  V30 2751 H 262.285 0.92978 -1.28611 0
M  V30 2752 H 262.306 3.64411 -1.09476 0
M  V30 2753 H 261.818 2.78394 -2.70404 0
M  V30 2754 H 259.919 3.70272 -0.415848 0
M  V30 2755 H 260.032 4.24551 -2.2202 0
M  V30 2756 H 258.396 2.30022 -1.09371 0
M  V30 2757 H 259.179 2.0583 -2.74752 0
M  V30 2758 N 261.624 0.925811 1.2754 0
M  V30 2759 C 262.901 0.483726 1.89524 0
M  V30 2760 C 263.281 -1.03809 1.83812 0
M  V30 2761 O 262.629 -1.89143 1.28207 0
M  V30 2762 C 262.839 1.02769 3.33526 0
M  V30 2763 C 264.187 1.08703 4.10449 0
M  V30 2764 O 265.211 0.977175 3.42534 0
M  V30 2765 O 264.07 1.25599 5.31871 0
M  V30 2766 H 261.164 0.15529 0.812289 0
M  V30 2767 H 263.71 1.01738 1.35822 0
M  V30 2768 H 262.482 2.07155 3.31967 0
M  V30 2769 H 262.105 0.475567 3.94746 0
M  V30 2770 N 263.102 -1.41638 0.69111 0
M  V30 2771 C 264.35 -2.00902 0.219758 0
M  V30 2772 C 264.671 -1.54994 -1.18329 0
M  V30 2773 O 263.941 -0.778628 -1.79762 0
M  V30 2774 H 262.521 -0.74289 0.0782558 0
M  V30 2775 H 265.183 -1.73327 0.891271 0
M  V30 2776 H 264.279 -3.11224 0.233708 0
M  V30 2777 N 264.58 -0.43555 -1.51462 0
M  V30 2778 C 265.826 0.131709 -2.02372 0
M  V30 2779 C 266.159 1.42516 -1.3192 0
M  V30 2780 O 265.434 1.89606 -0.433573 0
M  V30 2781 C 265.717 0.352301 -3.58373 0
M  V30 2782 C 265.57 -0.959676 -4.39443 0
M  V30 2783 C 266.889 1.12286 -4.25535 0
M  V30 2784 H 264.008 0.0463936 -0.735538 0
M  V30 2785 H 266.65 -0.574197 -1.81116 0
M  V30 2786 H 264.8 0.9536 -3.76615 0
M  V30 2787 H 266.472 -1.59482 -4.32855 0
M  V30 2788 H 264.715 -1.56468 -4.04599 0
M  V30 2789 H 265.386 -0.759394 -5.46752 0
M  V30 2790 H 267.862 0.613545 -4.11552 0
M  V30 2791 H 266.738 1.24598 -5.34571 0
M  V30 2792 H 266.999 2.15048 -3.86273 0
M  V30 2793 N 266.058 1.56714 -0.166846 0
M  V30 2794 C 267.306 1.96358 0.478305 0
M  V30 2795 C 267.627 1.0537 1.6408 0
M  V30 2796 O 266.897 0.119154 1.95537 0
M  V30 2797 H 265.477 0.725065 0.179692 0
M  V30 2798 H 268.139 1.93329 -0.246985 0
M  V30 2799 H 267.235 3.00547 0.841292 0
M  V30 2800 N 267.536 -0.106894 1.57237 0
M  V30 2801 C 268.785 -0.811163 1.8467 0
M  V30 2802 C 269.098 -1.80469 0.754342 0
M  V30 2803 O 270.304 -2.55601 0.915439 0
M  V30 2804 C 268.76 -1.49337 3.27454 0
M  V30 2805 C 268.368 -0.540217 4.44731 0
M  V30 2806 C 270.112 -2.18206 3.64124 0
M  V30 2807 C 268.019 -1.22634 5.78545 0
M  V30 2808 H 266.949 -0.306679 0.688813 0
M  V30 2809 H 269.6 -0.0639887 1.83388 0
M  V30 2810 H 267.982 -2.2876 3.23241 0
M  V30 2811 H 269.156 0.221659 4.60267 0
M  V30 2812 H 267.471 0.042146 4.16379 0
M  V30 2813 H 270.068 -2.70253 4.61376 0
M  V30 2814 H 270.411 -2.96562 2.92158 0
M  V30 2815 H 270.944 -1.45658 3.70174 0
M  V30 2816 H 267.683 -0.483832 6.53712 0
M  V30 2817 H 267.203 -1.95993 5.66874 0
M  V30 2818 H 268.882 -1.75615 6.2271 0
M  V30 2819 N 269.014 -1.53014 -0.377408 0
M  V30 2820 C 269.944 -1.81589 -1.46791 0
M  V30 2821 C 270.925 -0.668622 -1.56408 0
M  V30 2822 O 272.11 -0.917337 -1.71168 0
M  V30 2823 C 269.24 -1.99519 -2.8427 0
M  V30 2824 C 268.194 -3.15249 -2.89486 0
M  V30 2825 C 267.52 -3.18451 -4.29527 0
M  V30 2826 C 268.82 -4.54084 -2.58079 0
M  V30 2827 H 270.514 -2.7291 -1.23127 0
M  V30 2828 H 268.06 -1.31319 -0.590883 0
M  V30 2829 H 270.013 -2.18092 -3.60575 0
M  V30 2830 H 268.737 -1.04897 -3.09296 0
M  V30 2831 H 267.396 -2.96477 -2.15631 0
M  V30 2832 H 267.044 -2.2149 -4.5161 0
M  V30 2833 H 266.744 -3.962 -4.33934 0
M  V30 2834 H 268.268 -3.39193 -5.07721 0
M  V30 2835 H 269.682 -4.72899 -3.24098 0
M  V30 2836 H 268.079 -5.33987 -2.7382 0
M  V30 2837 H 269.149 -4.60006 -1.53372 0
M  V30 2838 N 270.492 0.636531 -1.44174 0
M  V30 2839 C 271.903 1.21806 -1.41493 0
M  V30 2840 C 272.254 1.95785 -0.1275 0
M  V30 2841 O 271.379 2.02147 0.772376 0
M  V30 2842 C 271.974 2.21551 -2.56321 0
M  V30 2843 C 270.533 2.75143 -2.56853 0
M  V30 2844 C 269.68 1.50052 -2.33195 0
M  V30 2845 H 272.631 0.427531 -1.52833 0
M  V30 2846 H 272.652 3.0405 -2.28765 0
M  V30 2847 H 272.164 1.67679 -3.50008 0
M  V30 2848 H 270.265 3.33033 -1.67093 0
M  V30 2849 H 270.378 3.2155 -3.55165 0
M  V30 2850 H 268.742 1.77993 -1.82183 0
M  V30 2851 H 269.525 0.980903 -3.28988 0
M  V30 2852 N 271.97 1.30982 0.876444 0
M  V30 2853 C 273.216 1.21484 1.63136 0
M  V30 2854 C 273.571 -0.226339 1.91064 0
M  V30 2855 O 272.864 -1.15788 1.52656 0
M  V30 2856 C 273.058 1.98572 2.9716 0
M  V30 2857 C 272.887 3.50039 2.82317 0
M  V30 2858 C 271.657 4.19393 2.81847 0
M  V30 2859 C 273.855 4.45111 2.57644 0
M  V30 2860 N 271.837 5.57061 2.57985 0
M  V30 2861 C 273.208 5.70402 2.42986 0
M  V30 2862 C 275.263 4.3461 2.42937 0
M  V30 2863 C 273.966 6.8638 2.15115 0
M  V30 2864 C 275.992 5.50365 2.16454 0
M  V30 2865 C 275.354 6.74642 2.02578 0
M  V30 2866 H 271.453 0.499632 0.601575 0
M  V30 2867 H 274.037 1.65094 1.03209 0
M  V30 2868 H 272.208 1.5734 3.55104 0
M  V30 2869 H 273.94 1.81146 3.61895 0
M  V30 2870 H 270.695 3.71303 2.93991 0
M  V30 2871 H 271.119 6.29529 2.49043 0
M  V30 2872 H 275.761 3.39199 2.52396 0
M  V30 2873 H 273.479 7.81824 2.04394 0
M  V30 2874 H 277.065 5.44154 2.05884 0
M  V30 2875 H 275.945 7.62699 1.82374 0
M  V30 2876 N 273.449 -1.08991 1.13837 0
M  V30 2877 C 274.382 -2.15049 0.763477 0
M  V30 2878 C 275.36 -1.60629 -0.252398 0
M  V30 2879 O 276.544 -1.87958 -0.142853 0
M  V30 2880 C 273.671 -3.38441 0.132545 0
M  V30 2881 C 272.717 -4.11596 1.11763 0
M  V30 2882 S 273.55 -4.6521 2.65216 0
M  V30 2883 C 274.706 -5.91896 2.03495 0
M  V30 2884 H 274.939 -2.46518 1.66182 0
M  V30 2885 H 272.472 -1.21008 0.958976 0
M  V30 2886 H 274.43 -4.09883 -0.225074 0
M  V30 2887 H 273.091 -3.05182 -0.743135 0
M  V30 2888 H 272.284 -5.00121 0.624076 0
M  V30 2889 H 271.886 -3.46038 1.41894 0
M  V30 2890 H 274.178 -6.63156 1.38675 0
M  V30 2891 H 275.121 -6.45938 2.9012 0
M  V30 2892 H 275.529 -5.44625 1.48471 0
M  V30 2893 N 274.927 -0.932562 -1.27047 0
M  V30 2894 C 276.173 -0.576412 -1.94436 0
M  V30 2895 C 276.506 0.880891 -1.73072 0
M  V30 2896 O 275.781 1.62905 -1.06264 0
M  V30 2897 C 276.064 -0.909031 -3.48437 0
M  V30 2898 C 275.917 -2.42044 -3.79123 0
M  V30 2899 C 277.236 -0.418341 -4.38107 0
M  V30 2900 H 274.355 -0.210888 -0.706184 0
M  V30 2901 H 276.997 -1.16522 -1.50075 0
M  V30 2902 H 275.147 -0.407947 -3.86352 0
M  V30 2903 H 276.819 -2.99359 -3.50973 0
M  V30 2904 H 275.062 -2.86758 -3.25503 0
M  V30 2905 H 275.733 -2.6037 -4.86736 0
M  V30 2906 H 278.209 -0.847856 -4.0737 0
M  V30 2907 H 277.085 -0.679981 -5.44672 0
M  V30 2908 H 277.346 0.681642 -4.36814 0
M  V30 2909 N 276.405 1.4127 -0.698611 0
M  V30 2910 C 277.816 1.84187 -0.305289 0
M  V30 2911 C 278.167 1.58449 1.15708 0
M  V30 2912 O 277.292 1.05651 1.88856 0
M  V30 2913 C 277.887 3.3435 -0.547314 0
M  V30 2914 C 276.446 3.75826 -0.207878 0
M  V30 2915 C 275.593 2.64647 -0.828099 0
M  V30 2916 H 278.544 1.30778 -0.89904 0
M  V30 2917 H 278.565 3.8001 0.192998 0
M  V30 2918 H 278.077 3.53051 -1.61172 0
M  V30 2919 H 276.178 3.62725 0.852143 0
M  V30 2920 H 276.291 4.74462 -0.665021 0
M  V30 2921 H 274.655 2.53395 -0.257458 0
M  V30 2922 H 275.438 2.86165 -1.89643 0
M  V30 2923 N 277.883 0.443576 1.51229 0
M  V30 2924 C 279.131 -0.120557 2.0174 0
M  V30 2925 C 279.452 -1.42665 1.32935 0
M  V30 2926 O 278.722 -1.9028 0.465866 0
M  V30 2927 H 277.302 -0.0475426 0.745486 0
M  V30 2928 H 279.964 0.587711 1.85828 0
M  V30 2929 H 279.06 -0.291972 3.10731 0
M  V30 2930 N 279.361 -1.56624 0.175154 0
M  V30 2931 C 280.589 -2.01374 -0.474971 0
M  V30 2932 C 281.004 -1.05537 -1.56548 0
M  V30 2933 O 280.361 -0.0568668 -1.82411 0
M  V30 2934 C 280.412 -3.45923 -1.04975 0
M  V30 2935 O 280.133 -4.381 -0.00276605 0
M  V30 2936 C 281.634 -4.06093 -1.77773 0
M  V30 2937 H 278.854 -0.659962 -0.121206 0
M  V30 2938 H 281.398 -2.02601 0.27801 0
M  V30 2939 H 279.553 -3.45458 -1.75321 0
M  V30 2940 H 279.967 -5.22753 -0.427681 0
M  V30 2941 H 281.441 -5.09147 -2.13245 0
M  V30 2942 H 281.918 -3.48405 -2.67414 0
M  V30 2943 H 282.524 -4.10272 -1.12059 0
M  V30 2944 N 280.839 0.0985539 -1.57292 0
M  V30 2945 C 282.116 0.834155 -1.76921 0
M  V30 2946 C 282.496 1.97101 -0.755928 0
M  V30 2947 O 281.844 2.27474 0.216245 0
M  V30 2948 C 282.054 1.33194 -3.22584 0
M  V30 2949 C 283.402 1.77611 -3.85668 0
M  V30 2950 O 284.426 1.42825 -3.26312 0
M  V30 2951 O 283.285 2.4192 -4.90038 0
M  V30 2952 H 280.379 0.397628 -0.725135 0
M  V30 2953 H 282.925 0.0807044 -1.69508 0
M  V30 2954 H 281.697 0.517248 -3.87866 0
M  V30 2955 H 281.32 2.1475 -3.34616 0
M  V30 2956 N 282.317 1.53212 0.369288 0
M  V30 2957 C 283.227 1.82342 1.47609 0
M  V30 2958 C 284.243 0.711532 1.58787 0
M  V30 2959 O 285.419 1.0012 1.74751 0
M  V30 2960 C 282.484 2.00393 2.8292 0
M  V30 2961 C 281.545 3.24297 2.81301 0
M  V30 2962 C 280.778 3.41478 4.10157 0
M  V30 2963 O 281.001 2.63033 5.06132 0
M  V30 2964 O 279.935 4.34817 4.16194 0
M  V30 2965 H 283.761 2.76366 1.25918 0
M  V30 2966 H 281.346 1.38547 0.559034 0
M  V30 2967 H 283.228 2.13859 3.63101 0
M  V30 2968 H 281.903 1.09559 3.04596 0
M  V30 2969 H 280.81 3.16257 1.99831 0
M  V30 2970 H 282.143 4.15041 2.64578 0
M  V30 2971 N 283.795 -0.628877 1.44509 0
M  V30 2972 C 285.044 -1.38437 1.4669 0
M  V30 2973 C 285.357 -1.95322 0.104272 0
M  V30 2974 O 286.563 -2.715 0.00362163 0
M  V30 2975 C 285.019 -2.50659 2.5826 0
M  V30 2976 C 284.627 -2.00277 4.0074 0
M  V30 2977 C 286.371 -3.27844 2.69664 0
M  V30 2978 C 284.278 -3.09854 5.0373 0
M  V30 2979 H 283.208 -0.520245 0.545766 0
M  V30 2980 H 285.859 -0.676313 1.70582 0
M  V30 2981 H 284.241 -3.2405 2.27612 0
M  V30 2982 H 285.415 -1.33736 4.40966 0
M  V30 2983 H 283.73 -1.35901 3.93599 0
M  V30 2984 H 286.327 -4.09534 3.43781 0
M  V30 2985 H 286.67 -3.77471 1.75559 0
M  V30 2986 H 287.203 -2.61543 2.99733 0
M  V30 2987 H 283.942 -2.65168 5.99472 0
M  V30 2988 H 283.462 -3.7503 4.68095 0
M  V30 2989 H 285.141 -3.74592 5.27532 0
M  V30 2990 N 285.273 -1.31445 -0.869486 0
M  V30 2991 C 286.521 -1.20918 -1.61936 0
M  V30 2992 C 286.842 0.232683 -1.93607 0
M  V30 2993 O 286.112 1.15352 -1.58338 0
M  V30 2994 H 284.692 -0.44454 -0.600328 0
M  V30 2995 H 287.354 -1.64776 -1.0409 0
M  V30 2996 H 286.45 -1.78124 -2.56278 0
M  V30 2997 N 286.751 1.08385 -1.14413 0
M  V30 2998 C 287.683 2.1519 -0.789036 0
M  V30 2999 C 288.696 1.61638 0.19417 0
M  V30 3000 O 289.885 1.78479 -0.0275711 0
M  V30 3001 C 286.985 3.38565 -0.15058 0
M  V30 3002 C 286.158 4.21501 -1.16857 0
M  V30 3003 C 285.217 5.23277 -0.553832 0
M  V30 3004 O 284.243 5.56041 -1.21686 0
M  V30 3005 N 285.445 5.76629 0.669296 0
M  V30 3006 H 288.21 2.46257 -1.70814 0
M  V30 3007 H 285.771 1.24198 -1.03858 0
M  V30 3008 H 287.763 4.03777 0.273181 0
M  V30 3009 H 286.333 3.05299 0.671667 0
M  V30 3010 H 285.553 3.52265 -1.76926 0
M  V30 3011 H 286.841 4.73731 -1.85624 0
M  V30 3012 H 286.239 5.52243 1.22654 0
M  V30 3013 H 284.796 6.43521 1.03556 0
M  V30 3014 N 288.23 0.939286 1.26551 0
M  V30 3015 C 289.193 0.451987 2.24699 0
M  V30 3016 C 290.193 -0.435869 1.5478 0
M  V30 3017 O 291.383 -0.235314 1.72603 0
M  V30 3018 C 288.515 -0.348801 3.39111 0
M  V30 3019 H 289.708 1.3193 2.69322 0
M  V30 3020 H 287.261 0.721072 1.38673 0
M  V30 3021 H 287.996 -1.23444 2.99887 0
M  V30 3022 H 287.781 0.287945 3.91041 0
M  V30 3023 H 289.271 -0.679726 4.12031 0
M  V30 3024 N 289.708 -1.40897 0.706093 0
M  V30 3025 C 290.936 -2.05373 0.250887 0
M  V30 3026 C 291.351 -1.53172 -1.10381 0
M  V30 3027 O 290.708 -0.684305 -1.69185 0
M  V30 3028 C 290.759 -3.6088 0.211571 0
M  V30 3029 O 290.48 -4.11153 1.51276 0
M  V30 3030 C 291.981 -4.42517 -0.263346 0
M  V30 3031 H 289.201 -0.66115 0.114552 0
M  V30 3032 H 291.745 -1.80479 0.961635 0
M  V30 3033 H 289.9 -3.84777 -0.450073 0
M  V30 3034 H 290.314 -5.05279 1.40689 0
M  V30 3035 H 291.788 -5.51479 -0.239718 0
M  V30 3036 H 292.265 -4.19396 -1.30397 0
M  V30 3037 H 292.871 -4.23708 0.367677 0
M  V30 3038 N 291.186 -0.45159 -1.50991 0
M  V30 3039 C 292.149 0.341117 -2.26647 0
M  V30 3040 C 293.149 0.937422 -1.30649 0
M  V30 3041 O 294.339 0.809644 -1.54241 0
M  V30 3042 C 291.471 1.48398 -3.06905 0
M  V30 3043 H 292.664 -0.322117 -2.98165 0
M  V30 3044 H 290.217 -0.205122 -1.54948 0
M  V30 3045 H 290.952 2.18284 -2.39838 0
M  V30 3046 H 290.737 1.06241 -3.77432 0
M  V30 3047 H 292.227 2.04367 -3.64176 0
M  V30 3048 N 292.664 1.56529 -0.183458 0
M  V30 3049 C 293.596 2.15747 0.773697 0
M  V30 3050 C 294.609 1.1162 1.1851 0
M  V30 3051 O 295.798 1.3876 1.12285 0
M  V30 3052 C 292.898 2.6952 2.05456 0
M  V30 3053 C 292.071 3.98429 1.8048 0
M  V30 3054 C 291.13 4.37145 2.92901 0
M  V30 3055 O 290.156 5.04791 2.6301 0
M  V30 3056 N 291.358 3.99695 4.2098 0
M  V30 3057 H 294.123 2.98505 0.26736 0
M  V30 3058 H 291.684 1.619 -0.0010878 0
M  V30 3059 H 293.676 2.92412 2.79781 0
M  V30 3060 H 292.246 1.91282 2.47245 0
M  V30 3061 H 291.466 3.8379 0.899947 0
M  V30 3062 H 292.754 4.82597 1.61175 0
M  V30 3063 H 292.152 3.4526 4.48121 0
M  V30 3064 H 290.709 4.27562 4.9197 0
M  V30 3065 N 294.142 -0.090211 1.57342 0
M  V30 3066 C 295.052 -1.12735 2.05738 0
M  V30 3067 C 296.068 -1.43557 0.983231 0
M  V30 3068 O 297.244 -1.54101 1.29672 0
M  V30 3069 C 294.309 -2.42659 2.47624 0
M  V30 3070 C 293.37 -2.18975 3.69254 0
M  V30 3071 C 292.603 -3.42704 4.09133 0
M  V30 3072 O 292.826 -4.51127 3.49057 0
M  V30 3073 O 291.76 -3.32003 5.02053 0
M  V30 3074 H 295.586 -0.746279 2.94388 0
M  V30 3075 H 293.171 -0.303064 1.46294 0
M  V30 3076 H 295.053 -3.19155 2.7517 0
M  V30 3077 H 293.728 -2.80182 1.62109 0
M  V30 3078 H 292.635 -1.40244 3.46818 0
M  V30 3079 H 293.968 -1.86342 4.55563 0
M  V30 3080 N 295.62 -1.53406 -0.361157 0
M  V30 3081 C 296.553 -1.74946 -1.46524 0
M  V30 3082 C 297.531 -0.59795 -1.51206 0
M  V30 3083 O 298.715 -0.831062 -1.69191 0
M  V30 3084 C 295.842 -1.83224 -2.84863 0
M  V30 3085 C 294.888 -3.05233 -2.97885 0
M  V30 3086 S 295.721 -4.6466 -2.66179 0
M  V30 3087 C 296.877 -4.75793 -4.06659 0
M  V30 3088 H 297.11 -2.68319 -1.28033 0
M  V30 3089 H 294.643 -1.44051 -0.555764 0
M  V30 3090 H 296.601 -1.88679 -3.64569 0
M  V30 3091 H 295.262 -0.908948 -3.00661 0
M  V30 3092 H 294.455 -3.07648 -3.9921 0
M  V30 3093 H 294.057 -2.97913 -2.26106 0
M  V30 3094 H 296.349 -4.5612 -5.0096 0
M  V30 3095 H 297.292 -5.7786 -4.09247 0
M  V30 3096 H 297.7 -4.04389 -3.93865 0
M  V30 3097 N 297.098 0.621204 -1.44841 0
M  V30 3098 C 298.03 1.74615 -1.48466 0
M  V30 3099 C 299.043 1.58377 -0.37691 0
M  V30 3100 O 300.232 1.66508 -0.643215 0
M  V30 3101 C 297.332 3.12459 -1.31236 0
M  V30 3102 C 296.505 3.55064 -2.55438 0
M  V30 3103 C 295.564 4.71821 -2.32963 0
M  V30 3104 O 294.59 4.79628 -3.06505 0
M  V30 3105 N 295.792 5.64186 -1.36654 0
M  V30 3106 H 298.557 1.71973 -2.45449 0
M  V30 3107 H 296.118 0.806077 -1.40407 0
M  V30 3108 H 298.11 3.88302 -1.14032 0
M  V30 3109 H 296.68 3.09686 -0.4258 0
M  V30 3110 H 295.9 2.69324 -2.87851 0
M  V30 3111 H 297.188 3.80284 -3.38026 0
M  V30 3112 H 296.586 5.6058 -0.759344 0
M  V30 3113 H 295.143 6.39618 -1.25425 0
M  V30 3114 N 298.576 1.31904 0.862503 0
M  V30 3115 C 299.523 1.20182 1.9704 0
M  V30 3116 C 300.493 0.0858247 1.65878 0
M  V30 3117 O 301.678 0.26 1.8902 0
M  V30 3118 C 298.818 0.922797 3.32533 0
M  V30 3119 C 297.931 2.12284 3.76244 0
M  V30 3120 C 297.066 1.77996 5.00491 0
M  V30 3121 C 296.105 2.94366 5.36671 0
M  V30 3122 N 295.242 2.60223 6.52095 0
M  V30 3123 H 300.082 2.14951 2.06398 0
M  V30 3124 H 297.619 1.06917 1.01031 0
M  V30 3125 H 299.577 0.741548 4.10557 0
M  V30 3126 H 298.207 0.0119227 3.22798 0
M  V30 3127 H 297.259 2.41461 2.9394 0
M  V30 3128 H 298.571 2.99357 3.98982 0
M  V30 3129 H 297.725 1.56377 5.862 0
M  V30 3130 H 296.464 0.881252 4.79672 0
M  V30 3131 H 295.469 3.16625 4.49476 0
M  V30 3132 H 296.694 3.84957 5.59451 0
M  V30 3133 H 294.64 1.72884 6.32809 0
M  V30 3134 H 294.557 3.40827 6.74814 0
M  V30 3135 H 295.825 2.42016 7.40978 0
M  V30 3136 N 300.054 -1.07777 1.14986 0
M  V30 3137 C 301.004 -2.13082 0.811181 0
M  V30 3138 C 301.988 -1.59619 -0.202597 0
M  V30 3139 O 303.18 -1.77 -0.00398275 0
M  V30 3140 C 300.309 -3.42009 0.297439 0
M  V30 3141 C 299.395 -4.02337 1.34112 0
M  V30 3142 N 299.786 -4.36982 2.54716 0
M  V30 3143 C 298.084 -4.29752 1.19285 0
M  V30 3144 C 298.785 -4.84729 3.21578 0
M  V30 3145 N 297.761 -4.83233 2.48972 0
M  V30 3146 H 301.563 -2.37696 1.72853 0
M  V30 3147 H 299.077 -1.25173 1.03468 0
M  V30 3148 H 301.074 -4.16884 0.0364777 0
M  V30 3149 H 299.734 -3.18841 -0.614022 0
M  V30 3150 H 300.745 -4.27807 2.91894 0
M  V30 3151 H 297.422 -4.16106 0.340926 0
M  V30 3152 H 298.812 -5.20863 4.24442 0
M  V30 3153 N 301.532 -0.945985 -1.26051 0
M  V30 3154 C 302.757 -0.612525 -1.98149 0
M  V30 3155 C 303.182 0.806623 -1.69927 0
M  V30 3156 O 302.54 1.54411 -0.950108 0
M  V30 3157 C 302.588 -0.866981 -3.50023 0
M  V30 3158 O 301.692 0.0585333 -4.12358 0
M  V30 3159 H 301.033 -0.23379 -0.621481 0
M  V30 3160 H 303.563 -1.27023 -1.60395 0
M  V30 3161 H 303.573 -0.789792 -4.00283 0
M  V30 3162 H 302.248 -1.90135 -3.69894 0
M  V30 3163 H 300.825 -0.0701241 -3.72834 0
M  V30 3164 N 303.011 1.40521 -0.713556 0
M  V30 3165 C 303.941 2.33381 -0.0743864 0
M  V30 3166 C 304.922 1.52784 0.747735 0
M  V30 3167 O 306.107 1.81258 0.697071 0
M  V30 3168 C 303.237 3.36748 0.849598 0
M  V30 3169 C 302.191 4.27793 0.133247 0
M  V30 3170 C 301.517 5.21679 1.17281 0
M  V30 3171 C 302.817 5.12415 -1.01134 0
M  V30 3172 H 304.511 2.87081 -0.850007 0
M  V30 3173 H 302.057 1.38034 -0.410201 0
M  V30 3174 H 304.01 4.00648 1.30612 0
M  V30 3175 H 302.734 2.81439 1.65709 0
M  V30 3176 H 301.393 3.65342 -0.303426 0
M  V30 3177 H 301.041 4.62677 1.9733 0
M  V30 3178 H 300.741 5.83435 0.698397 0
M  V30 3179 H 302.265 5.88456 1.62947 0
M  V30 3180 H 303.679 5.69781 -0.634274 0
M  V30 3181 H 302.076 5.83203 -1.41399 0
M  V30 3182 H 303.146 4.48514 -1.84292 0
M  V30 3183 N 304.489 0.459591 1.5075 0
M  V30 3184 C 305.735 -0.0994966 2.02556 0
M  V30 3185 C 306.068 -1.40399 1.3417 0
M  V30 3186 O 305.343 -1.88892 0.463683 0
M  V30 3187 C 305.626 -0.295242 3.58888 0
M  V30 3188 C 305.479 1.02947 4.37861 0
M  V30 3189 C 306.798 -1.05502 4.27267 0
M  V30 3190 H 303.917 -0.034686 0.736183 0
M  V30 3191 H 306.559 0.602938 1.8018 0
M  V30 3192 H 304.709 -0.893563 3.78084 0
M  V30 3193 H 306.381 1.66348 4.30263 0
M  V30 3194 H 304.624 1.62885 4.02058 0
M  V30 3195 H 305.295 0.846281 5.45474 0
M  V30 3196 H 307.771 -0.547993 4.12476 0
M  V30 3197 H 306.647 -1.16077 5.36486 0
M  V30 3198 H 306.908 -2.08875 3.89645 0
M  V30 3199 N 305.967 -1.56429 0.191757 0
M  V30 3200 C 306.897 -2.21937 -0.725696 0
M  V30 3201 C 307.878 -1.1814 -1.2238 0
M  V30 3202 O 309.063 -1.46636 -1.27325 0
M  V30 3203 C 306.193 -2.87611 -1.94672 0
M  V30 3204 C 305.147 -3.97623 -1.58366 0
M  V30 3205 C 304.473 -4.50446 -2.88102 0
M  V30 3206 C 305.773 -5.16197 -0.796133 0
M  V30 3207 H 307.467 -2.98861 -0.179606 0
M  V30 3208 H 305.013 -1.43749 -0.0849464 0
M  V30 3209 H 306.966 -3.3212 -2.59373 0
M  V30 3210 H 305.69 -2.08087 -2.51728 0
M  V30 3211 H 304.349 -3.53801 -0.960247 0
M  V30 3212 H 303.997 -3.67688 -3.43241 0
M  V30 3213 H 303.697 -5.24675 -2.64556 0
M  V30 3214 H 305.221 -4.97654 -3.53798 0
M  V30 3215 H 306.635 -5.57271 -1.34618 0
M  V30 3216 H 305.032 -5.96471 -0.658928 0
M  V30 3217 H 306.102 -4.84473 0.203478 0
M  V30 3218 N 307.445 0.0818655 -1.57387 0
M  V30 3219 C 308.691 0.778884 -1.87896 0
M  V30 3220 C 309.046 1.75692 -0.784229 0
M  V30 3221 O 308.339 1.90417 0.212567 0
M  V30 3222 C 308.533 1.53513 -3.22752 0
M  V30 3223 C 308.362 0.631838 -4.45239 0
M  V30 3224 C 307.132 0.272571 -5.04564 0
M  V30 3225 C 309.33 -0.0670191 -5.14256 0
M  V30 3226 N 307.312 -0.637498 -6.10581 0
M  V30 3227 C 308.683 -0.834653 -6.14356 0
M  V30 3228 C 310.738 -0.139551 -4.97704 0
M  V30 3229 C 309.441 -1.66806 -6.99691 0
M  V30 3230 C 311.467 -0.959903 -5.83558 0
M  V30 3231 C 310.829 -1.71561 -6.83188 0
M  V30 3232 H 306.928 0.260764 -0.737242 0
M  V30 3233 H 309.512 0.0408227 -1.94657 0
M  V30 3234 H 307.683 2.24398 -3.17018 0
M  V30 3235 H 309.415 2.18038 -3.40942 0
M  V30 3236 H 306.17 0.62319 -4.69482 0
M  V30 3237 H 306.594 -1.08548 -6.68241 0
M  V30 3238 H 311.236 0.430376 -4.20604 0
M  V30 3239 H 308.954 -2.249 -7.76174 0
M  V30 3240 H 312.54 -1.01887 -5.72809 0
M  V30 3241 H 311.42 -2.34017 -7.48469 0
M  V30 3242 N 308.923 1.53595 0.353017 0
M  V30 3243 C 310.334 1.61937 0.929153 0
M  V30 3244 C 310.685 0.494686 1.89861 0
M  V30 3245 O 309.81 -0.377017 2.1309 0
M  V30 3246 C 310.405 2.93526 1.69199 0
M  V30 3247 C 308.964 3.04161 2.21727 0
M  V30 3248 C 308.111 2.57322 1.03348 0
M  V30 3249 H 311.062 1.58155 0.131431 0
M  V30 3250 H 311.083 2.82034 2.55416 0
M  V30 3251 H 310.595 3.75362 0.986144 0
M  V30 3252 H 308.696 2.26938 2.95516 0
M  V30 3253 H 308.809 4.09465 2.48748 0
M  V30 3254 H 307.173 2.12499 1.40414 0
M  V30 3255 H 307.956 3.41588 0.342428 0
M  V30 3256 N 310.401 -0.613514 1.45168 0
M  V30 3257 C 311.648 -1.37268 1.48875 0
M  V30 3258 C 311.976 -1.94077 0.128161 0
M  V30 3259 O 311.231 -1.75178 -0.872416 0
M  V30 3260 C 311.53 -2.54347 2.51083 0
M  V30 3261 C 311.196 -2.1572 3.95949 0
M  V30 3262 C 309.858 -2.04899 4.35396 0
M  V30 3263 C 312.21 -1.85485 4.87078 0
M  V30 3264 C 309.538 -1.62057 5.63875 0
M  V30 3265 C 311.89 -1.4413 6.15962 0
M  V30 3266 C 310.554 -1.31863 6.54346 0
M  V30 3267 H 309.824 -0.502299 0.544773 0
M  V30 3268 H 312.471 -0.694021 1.78481 0
M  V30 3269 H 310.776 -3.27524 2.15024 0
M  V30 3270 H 312.473 -3.12577 2.51191 0
M  V30 3271 H 309.063 -2.25066 3.64751 0
M  V30 3272 H 313.247 -1.92745 4.57343 0
M  V30 3273 H 308.503 -1.51177 5.92415 0
M  V30 3274 H 312.677 -1.19778 6.86022 0
M  V30 3275 H 310.304 -0.984392 7.538 0
M  V30 3276 N 311.879 -1.3236 -0.855495 0
M  V30 3277 C 312.829 -1.17809 -1.95205 0
M  V30 3278 C 313.813 -0.0852319 -1.60674 0
M  V30 3279 O 315.005 -0.311651 -1.74235 0
M  V30 3280 C 312.134 -0.902437 -3.31226 0
M  V30 3281 C 311.22 -2.03695 -3.7198 0
M  V30 3282 N 311.611 -3.28544 -3.84568 0
M  V30 3283 C 309.909 -1.93993 -4.016 0
M  V30 3284 C 310.61 -4.02847 -4.19629 0
M  V30 3285 N 309.586 -3.31138 -4.31102 0
M  V30 3286 H 313.388 -2.12462 -2.0307 0
M  V30 3287 H 310.902 -1.24127 -1.0472 0
M  V30 3288 H 312.899 -0.77915 -4.09554 0
M  V30 3289 H 311.559 0.0357267 -3.2468 0
M  V30 3290 H 312.57 -3.6349 -3.68911 0
M  V30 3291 H 309.247 -1.07733 -4.03361 0
M  V30 3292 H 310.637 -5.10506 -4.36845 0
M  V30 3293 N 313.357 1.07166 -1.15556 0
M  V30 3294 C 314.605 1.79443 -0.929764 0
M  V30 3295 C 314.926 1.87246 0.544414 0
M  V30 3296 O 314.196 1.37473 1.39564 0
M  V30 3297 H 312.776 0.664625 -0.341003 0
M  V30 3298 H 315.438 1.29499 -1.45657 0
M  V30 3299 H 314.534 2.81832 -1.34079 0
M  V30 3300 N 314.835 0.952656 1.25548 0
M  V30 3301 C 316.081 0.607272 1.93494 0
M  V30 3302 C 316.414 -0.853245 1.74452 0
M  V30 3303 O 315.689 -1.61194 1.08843 0
M  V30 3304 C 315.972 0.96435 3.46947 0
M  V30 3305 C 315.825 2.48045 3.75225 0
M  V30 3306 C 317.144 0.487987 4.37386 0
M  V30 3307 H 314.263 0.222096 0.702739 0
M  V30 3308 H 316.905 1.18895 1.48203 0
M  V30 3309 H 315.055 0.469361 3.85654 0
M  V30 3310 H 316.727 3.04905 3.46166 0
M  V30 3311 H 314.97 2.919 3.209 0
M  V30 3312 H 315.641 2.6808 4.82532 0
M  V30 3313 H 318.117 0.912558 4.0597 0
M  V30 3314 H 316.993 0.766547 5.43521 0
M  V30 3315 H 317.254 -0.612063 4.37843 0
M  V30 3316 N 316.313 -1.40141 0.720998 0
M  V30 3317 C 317.56 -2.00787 0.262842 0
M  V30 3318 C 317.888 -1.5718 -1.14563 0
M  V30 3319 O 317.143 -0.785391 -1.79249 0
M  V30 3320 C 317.442 -3.56165 0.296892 0
M  V30 3321 C 317.108 -4.19373 1.65641 0
M  V30 3322 C 315.77 -4.36352 2.02855 0
M  V30 3323 C 318.122 -4.54578 2.54968 0
M  V30 3324 C 315.45 -4.8582 3.28931 0
M  V30 3325 C 317.802 -5.05447 3.80402 0
M  V30 3326 C 316.466 -5.20635 4.17726 0
M  V30 3327 H 315.736 -0.734731 0.0961807 0
M  V30 3328 H 318.383 -1.67673 0.925093 0
M  V30 3329 H 316.688 -3.8922 -0.448932 0
M  V30 3330 H 318.385 -4.00929 -0.0755208 0
M  V30 3331 H 314.975 -4.06549 1.35704 0
M  V30 3332 H 319.159 -4.41091 2.27491 0
M  V30 3333 H 314.415 -4.95764 3.57811 0
M  V30 3334 H 318.589 -5.31663 4.49786 0
M  V30 3335 H 316.216 -5.58728 5.15487 0
M  V30 3336 N 317.792 -0.46758 -1.50504 0
M  V30 3337 C 319.04 0.0884469 -2.01906 0
M  V30 3338 C 319.361 1.40532 -1.35188 0
M  V30 3339 O 318.631 1.89515 -0.496079 0
M  V30 3340 H 317.211 0.0356765 -0.746148 0
M  V30 3341 H 319.873 -0.6172 -1.84869 0
M  V30 3342 H 318.969 0.2425 -3.11156 0
M  V30 3343 N 319.27 1.56325 -0.20005 0
M  V30 3344 C 320.495 2.02548 0.44597 0
M  V30 3345 C 320.92 1.07922 1.5406 0
M  V30 3346 O 320.278 0.0635775 1.81188 0
M  V30 3347 C 320.326 3.47175 0.974761 0
M  V30 3348 O 319.43 3.55671 2.08739 0
M  V30 3349 H 318.771 0.655862 0.103638 0
M  V30 3350 H 321.301 2.02201 -0.312381 0
M  V30 3351 H 321.311 3.87067 1.2901 0
M  V30 3352 H 319.986 4.15538 0.17347 0
M  V30 3353 H 318.563 3.27657 1.78032 0
M  V30 3354 N 320.748 -0.0735177 1.57428 0
M  V30 3355 C 321.996 -0.771472 1.86796 0
M  V30 3356 C 322.317 -1.78201 0.791804 0
M  V30 3357 O 321.587 -1.95074 -0.179718 0
M  V30 3358 H 320.167 -0.28791 0.689287 0
M  V30 3359 H 322.829 -0.0500161 1.94836 0
M  V30 3360 H 321.925 -1.28874 2.8425 0
M  V30 3361 N 322.226 -1.5378 -0.344866 0
M  V30 3362 C 323.637 -1.62428 -0.920552 0
M  V30 3363 C 323.988 -0.504747 -1.89596 0
M  V30 3364 O 323.113 0.365711 -2.13287 0
M  V30 3365 C 323.708 -2.94419 -1.67639 0
M  V30 3366 C 322.267 -3.05333 -2.20111 0
M  V30 3367 C 321.414 -2.57866 -1.01982 0
M  V30 3368 H 324.365 -1.58222 -0.123042 0
M  V30 3369 H 324.386 -2.83384 -2.53917 0
M  V30 3370 H 323.898 -3.7588 -0.966224 0
M  V30 3371 H 321.999 -2.28502 -2.94308 0
M  V30 3372 H 322.112 -4.10778 -2.46573 0
M  V30 3373 H 320.476 -2.13241 -1.39285 0
M  V30 3374 H 321.259 -3.41765 -0.324308 0
M  V30 3375 N 323.704 0.605807 -1.45491 0
M  V30 3376 C 324.932 1.39136 -1.5313 0
M  V30 3377 C 325.347 1.88082 -0.164507 0
M  V30 3378 O 324.704 1.62316 0.834247 0
M  V30 3379 C 324.755 2.59463 -2.51716 0
M  V30 3380 O 324.476 2.12551 -3.83084 0
M  V30 3381 C 325.977 3.52301 -2.6907 0
M  V30 3382 H 323.197 0.425849 -0.51855 0
M  V30 3383 H 325.741 0.73865 -1.90694 0
M  V30 3384 H 323.896 3.20772 -2.17219 0
M  V30 3385 H 324.31 2.90744 -4.36541 0
M  V30 3386 H 325.784 4.33271 -3.42024 0
M  V30 3387 H 326.261 4.02757 -1.75167 0
M  V30 3388 H 326.867 2.96845 -3.04571 0
M  V30 3389 N 325.182 1.32811 0.848464 0
M  V30 3390 C 326.112 1.24882 1.97299 0
M  V30 3391 C 327.093 0.131357 1.69592 0
M  V30 3392 O 328.278 0.319553 1.91553 0
M  V30 3393 C 325.408 0.97746 3.33261 0
M  V30 3394 C 324.362 2.05682 3.75338 0
M  V30 3395 C 323.688 1.63777 5.09 0
M  V30 3396 C 324.988 3.47254 3.90144 0
M  V30 3397 H 326.682 2.18966 2.04191 0
M  V30 3398 H 324.228 1.05413 0.981029 0
M  V30 3399 H 326.181 0.908513 4.1149 0
M  V30 3400 H 324.905 0.000980011 3.266 0
M  V30 3401 H 323.564 2.11603 2.99366 0
M  V30 3402 H 323.212 0.648569 4.98801 0
M  V30 3403 H 322.912 2.36 5.38124 0
M  V30 3404 H 324.436 1.5833 5.89715 0
M  V30 3405 H 325.85 3.43888 4.58709 0
M  V30 3406 H 324.247 4.1788 4.30693 0
M  V30 3407 H 325.317 3.86462 2.92874 0
M  V30 3408 N 326.66 -1.06551 1.16123 0
M  V30 3409 C 327.937 -1.76097 0.85142 0
M  V30 3410 C 328.317 -2.00802 -0.6513 0
M  V30 3411 O 327.665 -1.63302 -1.59827 0
M  V30 3412 C 327.875 -3.06384 1.67122 0
M  V30 3413 C 329.223 -3.80585 1.88255 0
M  V30 3414 O 330.247 -3.16218 1.63966 0
M  V30 3415 O 329.106 -4.96212 2.2899 0
M  V30 3416 H 326.2 -0.765102 0.313923 0
M  V30 3417 H 328.746 -1.12844 1.26745 0
M  V30 3418 H 327.518 -2.84071 2.69108 0
M  V30 3419 H 327.141 -3.77371 1.25206 0
M  V30 3420 N 328.138 -0.959301 -1.25041 0
M  V30 3421 C 329.048 -0.489994 -2.29426 0
M  V30 3422 C 330.064 0.444944 -1.68215 0
M  V30 3423 O 331.24 0.320046 -1.98841 0
M  V30 3424 C 328.305 0.220309 -3.45999 0
M  V30 3425 C 327.366 -0.753418 -4.22637 0
M  V30 3426 C 326.599 -0.076918 -5.33645 0
M  V30 3427 O 326.822 1.13649 -5.58963 0
M  V30 3428 O 325.756 -0.764824 -5.97021 0
M  V30 3429 H 329.582 -1.35755 -2.71669 0
M  V30 3430 H 327.167 -0.725961 -1.30576 0
M  V30 3431 H 329.049 0.619677 -4.16819 0
M  V30 3432 H 327.724 1.06296 -3.0575 0
M  V30 3433 H 326.631 -1.20308 -3.54227 0
M  V30 3434 H 327.964 -1.56423 -4.66683 0
M  V30 3435 N 329.616 1.39756 -0.72842 0
M  V30 3436 C 330.844 2.04948 -0.283528 0
M  V30 3437 C 331.259 1.54908 1.0793 0
M  V30 3438 O 330.616 0.711135 1.68075 0
M  V30 3439 C 330.667 3.60498 -0.268957 0
M  V30 3440 O 330.388 4.08695 -1.57798 0
M  V30 3441 C 331.889 4.4288 0.192912 0
M  V30 3442 H 329.109 0.659243 -0.125056 0
M  V30 3443 H 331.653 1.78927 -0.990226 0
M  V30 3444 H 329.808 3.85444 0.388801 0
M  V30 3445 H 330.222 5.02977 -1.48709 0
M  V30 3446 H 331.696 5.51791 0.151952 0
M  V30 3447 H 332.173 4.21418 1.23708 0
M  V30 3448 H 332.779 4.23069 -0.435039 0
M  V30 3449 N 331.094 0.475555 1.50254 0
M  V30 3450 C 332.341 -0.0778919 2.0235 0
M  V30 3451 C 332.669 -1.39319 1.35722 0
M  V30 3452 O 331.924 -1.89888 0.473395 0
M  V30 3453 C 332.223 -0.305114 3.56095 0
M  V30 3454 C 331.889 0.92903 4.41225 0
M  V30 3455 C 330.551 1.26739 4.6421 0
M  V30 3456 C 332.903 1.75054 4.90923 0
M  V30 3457 C 330.231 2.42724 5.34137 0
M  V30 3458 C 332.583 2.9017 5.62125 0
M  V30 3459 C 331.247 3.24416 5.83362 0
M  V30 3460 H 330.517 -0.0285027 0.740452 0
M  V30 3461 H 333.164 0.630543 1.80821 0
M  V30 3462 H 331.469 -1.09584 3.76163 0
M  V30 3463 H 333.166 -0.747377 3.93974 0
M  V30 3464 H 329.756 0.655428 4.23559 0
M  V30 3465 H 333.94 1.50231 4.73016 0
M  V30 3466 H 329.196 2.69525 5.48786 0
M  V30 3467 H 333.37 3.54169 5.99614 0
M  V30 3468 H 330.997 4.14396 6.37323 0
M  V30 3469 N 332.573 -1.56217 0.208337 0
M  V30 3470 C 333.821 -1.97558 -0.426076 0
M  V30 3471 C 334.142 -1.09683 -1.61229 0
M  V30 3472 O 333.412 -0.170956 -1.95153 0
M  V30 3473 H 331.992 -0.729575 -0.160405 0
M  V30 3474 H 334.654 -1.92606 0.298155 0
M  V30 3475 H 333.75 -3.02672 -0.761312 0
M  V30 3476 N 334.051 0.0651679 -1.57465 0
M  V30 3477 C 334.981 1.07693 -2.07182 0
M  V30 3478 C 335.962 1.39962 -0.966673 0
M  V30 3479 O 337.147 1.49475 -1.2398 0
M  V30 3480 C 334.277 2.3885 -2.52127 0
M  V30 3481 C 333.231 2.20917 -3.66579 0
M  V30 3482 C 332.557 3.57515 -3.97601 0
M  V30 3483 C 333.857 1.62493 -4.9638 0
M  V30 3484 H 335.551 0.663199 -2.91962 0
M  V30 3485 H 333.097 0.317569 -1.40455 0
M  V30 3486 H 335.05 3.09928 -2.85522 0
M  V30 3487 H 333.774 2.82215 -1.64384 0
M  V30 3488 H 332.433 1.52279 -3.33477 0
M  V30 3489 H 332.081 3.98463 -3.06979 0
M  V30 3490 H 331.781 3.46353 -4.74672 0
M  V30 3491 H 333.305 4.30013 -4.33499 0
M  V30 3492 H 334.719 2.23445 -5.27963 0
M  V30 3493 H 333.116 1.62009 -5.77818 0
M  V30 3494 H 334.186 0.587041 -4.81333 0
M  V30 3495 N 335.529 1.53961 0.336706 0
M  V30 3496 C 336.778 1.70751 1.07363 0
M  V30 3497 C 337.091 0.481061 1.89592 0
M  V30 3498 O 338.297 0.530046 2.66276 0
M  V30 3499 C 336.753 3.01965 1.95818 0
M  V30 3500 C 336.361 4.31971 1.18764 0
M  V30 3501 C 338.105 3.28121 2.69327 0
M  V30 3502 C 336.012 5.54255 2.06289 0
M  V30 3503 H 334.942 0.636292 0.404535 0
M  V30 3504 H 337.593 1.80459 0.332681 0
M  V30 3505 H 335.975 2.86132 2.7376 0
M  V30 3506 H 337.149 4.5853 0.456849 0
M  V30 3507 H 335.464 4.12481 0.569946 0
M  V30 3508 H 338.061 4.16673 3.35094 0
M  V30 3509 H 338.404 2.45426 3.36261 0
M  V30 3510 H 338.937 3.44762 1.98454 0
M  V30 3511 H 335.676 6.39513 1.43885 0
M  V30 3512 H 335.196 5.31935 2.77138 0
M  V30 3513 H 336.875 5.90159 2.65182 0
M  V30 3514 N 337.007 -0.598083 1.45811 0
M  V30 3515 C 338.284 -1.35777 1.40797 0
M  V30 3516 C 338.664 -2.10935 0.083462 0
M  V30 3517 O 338.012 -2.08505 -0.934763 0
M  V30 3518 C 338.222 -2.29666 2.62783 0
M  V30 3519 C 339.57 -2.91977 3.08277 0
M  V30 3520 O 340.594 -2.39984 2.63223 0
M  V30 3521 O 339.453 -3.86376 3.86491 0
M  V30 3522 H 336.547 -0.609291 0.55919 0
M  V30 3523 H 339.093 -0.620379 1.57954 0
M  V30 3524 H 337.865 -1.73454 3.50756 0
M  V30 3525 H 337.488 -3.1077 2.48008 0
M  V30 3526 N 338.485 -1.33259 -0.841409 0
M  V30 3527 C 339.713 -1.27605 -1.62864 0
M  V30 3528 C 340.128 0.153507 -1.88175 0
M  V30 3529 O 339.485 1.09485 -1.46011 0
M  V30 3530 C 339.536 -2.04596 -2.98031 0
M  V30 3531 O 339.257 -3.41975 -2.73834 0
M  V30 3532 C 340.758 -2.06122 -3.92465 0
M  V30 3533 H 337.978 -0.439718 -0.506842 0
M  V30 3534 H 340.522 -1.75591 -1.04824 0
M  V30 3535 H 338.677 -1.60299 -3.5268 0
M  V30 3536 H 339.091 -3.81549 -3.59889 0
M  V30 3537 H 340.565 -2.64451 -4.84531 0
M  V30 3538 H 341.042 -1.05083 -4.26444 0
M  V30 3539 H 341.648 -2.50427 -3.43753 0
M  V30 3540 N 339.963 1.05934 -1.16686 0
M  V30 3541 C 340.926 2.11669 -0.879144 0
M  V30 3542 C 341.926 1.60294 0.127445 0
M  V30 3543 O 343.116 1.7389 -0.103865 0
M  V30 3544 C 340.248 3.39438 -0.315425 0
M  V30 3545 H 341.441 2.38626 -1.81653 0
M  V30 3546 H 338.994 1.22058 -0.976299 0
M  V30 3547 H 339.729 3.18132 0.629468 0
M  V30 3548 H 339.514 3.78034 -1.04079 0
M  V30 3549 H 341.004 4.17391 -0.132189 0
M  V30 3550 N 341.441 0.965919 1.2453 0
M  V30 3551 C 342.351 0.502154 2.29163 0
M  V30 3552 C 343.367 -0.436017 1.68448 0
M  V30 3553 O 344.543 -0.309497 1.99008 0
M  V30 3554 C 341.608 -0.201956 3.46111 0
M  V30 3555 C 340.669 0.775821 4.22232 0
M  V30 3556 C 339.902 0.105217 5.33596 0
M  V30 3557 O 340.125 -1.10683 5.59558 0
M  V30 3558 O 339.059 0.796475 5.96607 0
M  V30 3559 H 342.885 1.37194 2.70946 0
M  V30 3560 H 340.47 0.732875 1.30189 0
M  V30 3561 H 342.352 -0.597564 4.17142 0
M  V30 3562 H 341.027 -1.04673 3.06309 0
M  V30 3563 H 339.934 1.22185 3.53584 0
M  V30 3564 H 341.267 1.58896 4.65846 0
M  V30 3565 N 342.919 -1.39368 0.735821 0
M  V30 3566 C 343.866 -2.30599 0.0963825 0
M  V30 3567 C 344.836 -1.49257 -0.728794 0
M  V30 3568 O 346.021 -1.77941 -0.688588 0
M  V30 3569 C 343.161 -3.35596 -0.804305 0
M  V30 3570 C 342.274 -4.31987 0.0335761 0
M  V30 3571 C 341.409 -5.24053 -0.868461 0
M  V30 3572 C 340.448 -6.12095 -0.0258776 0
M  V30 3573 N 339.585 -6.96514 -0.883893 0
M  V30 3574 H 344.425 -2.8471 0.880002 0
M  V30 3575 H 341.962 -1.40188 0.445619 0
M  V30 3576 H 343.92 -3.95062 -1.34096 0
M  V30 3577 H 342.55 -2.82938 -1.55389 0
M  V30 3578 H 341.602 -3.74133 0.68766 0
M  V30 3579 H 342.914 -4.94074 0.685036 0
M  V30 3580 H 342.068 -5.88549 -1.47293 0
M  V30 3581 H 340.807 -4.62289 -1.5537 0
M  V30 3582 H 339.812 -5.4661 0.591386 0
M  V30 3583 H 341.037 -6.75923 0.656156 0
M  V30 3584 H 338.983 -6.37318 -1.55441 0
M  V30 3585 H 338.9 -7.55448 -0.288931 0
M  V30 3586 H 340.168 -7.65439 -1.4739 0
M  V30 3587 N 344.397 -0.483516 -1.5 0
M  V30 3588 C 345.622 0.0667119 -2.07293 0
M  V30 3589 C 346.047 1.3164 -1.3436 0
M  V30 3590 O 345.405 1.76945 -0.394987 0
M  V30 3591 C 345.453 0.321126 -3.59167 0
M  V30 3592 O 344.557 1.39927 -3.87936 0
M  V30 3593 H 343.898 -0.0184758 -0.663743 0
M  V30 3594 H 346.428 -0.678125 -1.93035 0
M  V30 3595 H 346.438 0.557906 -4.04168 0
M  V30 3596 H 345.113 -0.592007 -4.11665 0
M  V30 3597 H 343.69 1.14882 -3.54763 0
M  V30 3598 N 345.875 1.56104 -0.216619 0
M  V30 3599 C 346.838 2.18819 0.681962 0
M  V30 3600 C 347.838 1.14866 1.12528 0
M  V30 3601 O 349.028 1.40128 1.03488 0
M  V30 3602 C 346.16 2.80756 1.93362 0
M  V30 3603 H 347.353 2.99595 0.135254 0
M  V30 3604 H 344.906 1.56265 0.0330003 0
M  V30 3605 H 345.641 2.03837 2.52232 0
M  V30 3606 H 345.426 3.56876 1.62426 0
M  V30 3607 H 346.916 3.28844 2.57393 0
M  V30 3608 N 347.353 -0.0568162 1.57498 0
M  V30 3609 C 348.285 -1.09292 2.01464 0
M  V30 3610 C 349.298 -1.34112 0.922913 0
M  V30 3611 O 350.487 -1.32089 1.20062 0
M  V30 3612 C 347.587 -2.44068 2.35125 0
M  V30 3613 C 346.76 -2.38995 3.66333 0
M  V30 3614 C 345.819 -3.55997 3.87495 0
M  V30 3615 O 344.845 -3.36746 4.58901 0
M  V30 3616 N 346.047 -4.76888 3.30996 0
M  V30 3617 H 348.812 -0.718386 2.90963 0
M  V30 3618 H 346.373 -0.245235 1.60032 0
M  V30 3619 H 348.365 -3.21011 2.46443 0
M  V30 3620 H 346.935 -2.73468 1.5144 0
M  V30 3621 H 346.155 -1.47336 3.65631 0
M  V30 3622 H 347.443 -2.3272 4.52458 0
M  V30 3623 H 346.841 -4.95431 2.73065 0
M  V30 3624 H 345.398 -5.51291 3.47738 0
M  V30 3625 N 348.832 -1.54138 -0.328536 0
M  V30 3626 C 350.078 -1.7236 -1.06865 0
M  V30 3627 C 350.411 -0.493231 -1.87832 0
M  V30 3628 O 349.686 0.5098 -1.877 0
M  V30 3629 C 349.969 -2.99621 -1.99747 0
M  V30 3630 C 349.822 -4.32899 -1.22143 0
M  V30 3631 C 351.141 -3.22615 -2.99345 0
M  V30 3632 H 348.26 -0.627151 -0.387105 0
M  V30 3633 H 350.902 -1.86827 -0.345767 0
M  V30 3634 H 349.052 -2.87418 -2.61387 0
M  V30 3635 H 350.724 -4.56978 -0.630017 0
M  V30 3636 H 348.967 -4.30628 -0.523628 0
M  V30 3637 H 349.638 -5.18154 -1.90318 0
M  V30 3638 H 352.114 -3.34248 -2.47826 0
M  V30 3639 H 350.99 -4.13027 -3.61524 0
M  V30 3640 H 351.251 -2.3961 -3.71536 0
M  V30 3641 N 350.31 0.590341 -1.46126 0
M  V30 3642 C 351.24 1.71032 -1.58966 0
M  V30 3643 C 352.221 1.64302 -0.440335 0
M  V30 3644 O 353.406 1.82436 -0.665634 0
M  V30 3645 C 350.536 3.09665 -1.57241 0
M  V30 3646 C 349.49 3.31221 -2.71066 0
M  V30 3647 C 348.816 4.70303 -2.54399 0
M  V30 3648 C 350.116 3.19796 -4.1295 0
M  V30 3649 H 351.81 1.60543 -2.52718 0
M  V30 3650 H 349.356 0.770933 -1.21625 0
M  V30 3651 H 351.309 3.87831 -1.64819 0
M  V30 3652 H 350.033 3.21036 -0.600289 0
M  V30 3653 H 348.692 2.55452 -2.62944 0
M  V30 3654 H 348.34 4.78429 -1.55288 0
M  V30 3655 H 348.04 4.85679 -3.30741 0
M  V30 3656 H 349.564 5.50647 -2.63857 0
M  V30 3657 H 350.978 3.87815 -4.22223 0
M  V30 3658 H 349.375 3.46696 -4.89818 0
M  V30 3659 H 350.445 2.16983 -4.33643 0
M  V30 3660 N 351.788 1.33704 0.83433 0
M  V30 3661 C 353.034 1.25603 1.59222 0
M  V30 3662 C 353.367 -0.176659 1.93395 0
M  V30 3663 O 352.642 -1.11915 1.59076 0
M  V30 3664 C 352.925 2.13576 2.89926 0
M  V30 3665 C 352.778 3.65326 2.62406 0
M  V30 3666 C 354.097 2.01238 3.91397 0
M  V30 3667 H 351.216 0.457613 0.577719 0
M  V30 3668 H 353.858 1.63848 0.961972 0
M  V30 3669 H 352.008 1.8109 3.43713 0
M  V30 3670 H 353.68 4.08124 2.15017 0
M  V30 3671 H 351.923 3.8698 1.96033 0
M  V30 3672 H 352.594 4.22232 3.55562 0
M  V30 3673 H 355.07 2.29738 3.46929 0
M  V30 3674 H 353.946 2.65036 4.80673 0
M  V30 3675 H 354.207 0.985951 4.30966 0
M  V30 3676 N 353.266 -1.05314 1.17247 0
M  V30 3677 C 354.213 -2.13031 0.888058 0
M  V30 3678 C 355.183 -1.65253 -0.167537 0
M  V30 3679 O 356.368 -1.90775 -0.0305974 0
M  V30 3680 C 353.508 -3.42702 0.406147 0
M  V30 3681 C 352.621 -4.04161 1.52572 0
M  V30 3682 C 351.756 -5.21744 0.997808 0
M  V30 3683 C 350.795 -5.75207 2.09291 0
M  V30 3684 N 349.932 -6.84094 1.57986 0
M  V30 3685 H 354.772 -2.36698 1.81048 0
M  V30 3686 H 352.309 -1.16121 0.903013 0
M  V30 3687 H 354.267 -4.17059 0.108305 0
M  V30 3688 H 352.897 -3.19222 -0.479313 0
M  V30 3689 H 351.949 -3.27253 1.93931 0
M  V30 3690 H 353.261 -4.39881 2.35172 0
M  V30 3691 H 352.415 -6.03168 0.653739 0
M  V30 3692 H 351.154 -4.87495 0.141232 0
M  V30 3693 H 350.159 -4.92414 2.44557 0
M  V30 3694 H 351.384 -6.11505 2.95362 0
M  V30 3695 H 349.33 -6.51745 0.74598 0
M  V30 3696 H 349.247 -7.18811 2.34195 0
M  V30 3697 H 350.515 -7.69172 1.26468 0
M  V30 3698 N 354.744 -0.972509 -1.24016 0
M  V30 3699 C 355.99 -0.637978 -1.92504 0
M  V30 3700 C 356.323 0.825383 -1.75787 0
M  V30 3701 O 355.598 1.59442 -1.11393 0
M  V30 3702 C 355.881 -1.01942 -3.45369 0
M  V30 3703 C 355.734 -2.53983 -3.71231 0
M  V30 3704 C 357.053 -0.55751 -4.36555 0
M  V30 3705 H 354.172 -0.233248 -0.699117 0
M  V30 3706 H 356.814 -1.21238 -1.46292 0
M  V30 3707 H 354.964 -0.530656 -3.84859 0
M  V30 3708 H 356.636 -3.10374 -3.41271 0
M  V30 3709 H 354.879 -2.96968 -3.16216 0
M  V30 3710 H 355.55 -2.75723 -4.78206 0
M  V30 3711 H 358.026 -0.977029 -4.04467 0
M  V30 3712 H 356.902 -0.85292 -5.42233 0
M  V30 3713 H 357.163 0.542328 -4.38761 0
M  V30 3714 N 356.222 1.38976 -0.743202 0
M  V30 3715 C 357.452 2.04339 -0.304807 0
M  V30 3716 C 357.86 1.56162 1.06819 0
M  V30 3717 O 357.203 0.725284 1.68776 0
M  V30 3718 C 357.265 3.58716 -0.237369 0
M  V30 3719 C 356.929 4.29905 -1.55018 0
M  V30 3720 C 357.926 4.55987 -2.49744 0
M  V30 3721 C 355.611 4.68294 -1.81675 0
M  V30 3722 C 357.605 5.19478 -3.69353 0
M  V30 3723 C 355.292 5.31512 -3.0156 0
M  V30 3724 C 356.29 5.57037 -3.9522 0
M  V30 3725 O 355.978 6.18941 -5.12998 0
M  V30 3726 H 355.71 0.663439 -0.12971 0
M  V30 3727 H 358.264 1.78852 -1.01001 0
M  V30 3728 H 356.494 3.83133 0.524003 0
M  V30 3729 H 358.183 4.05543 0.170121 0
M  V30 3730 H 358.949 4.26767 -2.30423 0
M  V30 3731 H 354.828 4.47779 -1.09615 0
M  V30 3732 H 358.372 5.39318 -4.42473 0
M  V30 3733 H 354.269 5.60153 -3.20778 0
M  V30 3734 H 355.037 6.37433 -5.13441 0
M  V30 3735 N 357.7 0.491464 1.49741 0
M  V30 3736 C 358.925 -0.0557177 2.07325 0
M  V30 3737 C 359.35 -1.30925 1.35056 0
M  V30 3738 O 358.708 -1.76733 0.404365 0
M  V30 3739 C 358.756 -0.302074 3.59333 0
M  V30 3740 O 357.86 -1.37868 3.88672 0
M  V30 3741 H 357.201 0.0219956 0.663636 0
M  V30 3742 H 359.731 0.688352 1.92673 0
M  V30 3743 H 359.741 -0.536464 4.04458 0
M  V30 3744 H 358.416 0.61383 4.11345 0
M  V30 3745 H 356.993 -1.12999 3.55367 0
M  V30 3746 N 359.178 -1.55987 0.224894 0
M  V30 3747 C 360.111 -2.16413 -0.723929 0
M  V30 3748 C 361.089 -1.10952 -1.18863 0
M  V30 3749 O 362.273 -1.39225 -1.27077 0
M  V30 3750 C 359.4 -2.74711 -1.98121 0
M  V30 3751 C 358.446 -3.9303 -1.6562 0
M  V30 3752 S 359.279 -5.29817 -0.778058 0
M  V30 3753 C 360.435 -5.91555 -2.04483 0
M  V30 3754 H 360.668 -2.96555 -0.210347 0
M  V30 3755 H 358.201 -1.54397 0.00955457 0
M  V30 3756 H 360.159 -3.08938 -2.70311 0
M  V30 3757 H 358.82 -1.94555 -2.46591 0
M  V30 3758 H 358.013 -4.32334 -2.59043 0
M  V30 3759 H 357.615 -3.59966 -1.01491 0
M  V30 3760 H 359.907 -6.07732 -2.99446 0
M  V30 3761 H 360.85 -6.87498 -1.69563 0
M  V30 3762 H 361.258 -5.20419 -2.18688 0
M  V30 3763 N 360.656 0.0484629 -1.57525 0
M  V30 3764 C 361.904 0.741657 -1.88 0
M  V30 3765 C 362.225 1.76918 -0.820054 0
M  V30 3766 O 361.495 1.95335 0.148661 0
M  V30 3767 H 360.075 0.276908 -0.69378 0
M  V30 3768 H 362.737 0.019013 -1.94891 0
M  V30 3769 H 361.833 1.24336 -2.86264 0
M  V30 3770 N 362.134 1.5431 0.320358 0
M  V30 3771 C 363.382 1.72327 1.05583 0
M  V30 3772 C 363.703 0.50149 1.88441 0
M  V30 3773 O 362.973 -0.48448 1.89815 0
M  V30 3774 H 361.553 0.635387 0.3928 0
M  V30 3775 H 364.215 1.91621 0.356019 0
M  V30 3776 H 363.311 2.60426 1.72003 0
M  V30 3777 N 363.613 -0.582584 1.46437 0
M  V30 3778 C 364.546 -1.70633 1.51524 0
M  V30 3779 C 365.524 -1.58349 0.369351 0
M  V30 3780 O 366.708 -1.79563 0.573516 0
M  V30 3781 C 363.835 -3.08687 1.39392 0
M  V30 3782 C 362.881 -3.3949 2.58164 0
M  V30 3783 S 363.714 -3.31548 4.20519 0
M  V30 3784 C 364.87 -4.72139 4.10896 0
M  V30 3785 H 365.103 -1.66058 2.46601 0
M  V30 3786 H 362.636 -0.761337 1.34324 0
M  V30 3787 H 364.594 -3.8833 1.33079 0
M  V30 3788 H 363.255 -3.10751 0.457436 0
M  V30 3789 H 362.448 -4.40071 2.45669 0
M  V30 3790 H 362.05 -2.67415 2.61468 0
M  V30 3791 H 364.342 -5.62527 3.77584 0
M  V30 3792 H 365.285 -4.89692 5.11476 0
M  V30 3793 H 365.693 -4.48995 3.42146 0
M  V30 3794 N 365.091 -1.34144 -0.827227 0
M  V30 3795 C 366.038 -1.25364 -1.93785 0
M  V30 3796 C 367.008 -0.129774 -1.65592 0
M  V30 3797 O 368.193 -0.310024 -1.88264 0
M  V30 3798 C 365.333 -1.01064 -3.2997 0
M  V30 3799 C 364.446 -2.22185 -3.70484 0
M  V30 3800 C 363.581 -1.91203 -4.95595 0
M  V30 3801 C 362.62 -3.08491 -5.28677 0
M  V30 3802 N 361.757 -2.77421 -6.44967 0
M  V30 3803 H 366.597 -2.20347 -2.00627 0
M  V30 3804 H 364.134 -1.09558 -0.981608 0
M  V30 3805 H 366.092 -0.850139 -4.08446 0
M  V30 3806 H 364.722 -0.0975026 -3.22653 0
M  V30 3807 H 363.774 -2.4917 -2.87434 0
M  V30 3808 H 365.086 -3.0983 -3.90905 0
M  V30 3809 H 364.24 -1.71864 -5.81848 0
M  V30 3810 H 362.979 -1.00812 -4.77167 0
M  V30 3811 H 361.984 -3.28431 -4.40923 0
M  V30 3812 H 363.209 -3.99655 -5.49047 0
M  V30 3813 H 361.155 -1.89601 -6.28003 0
M  V30 3814 H 361.072 -3.58598 -6.6554 0
M  V30 3815 H 362.34 -2.61577 -7.34301 0
M  V30 3816 N 366.569 1.04691 -1.17803 0
M  V30 3817 C 367.501 2.12571 -0.857097 0
M  V30 3818 C 368.514 1.62174 0.142647 0
M  V30 3819 O 369.703 1.78301 -0.0843387 0
M  V30 3820 C 366.803 3.37915 -0.258216 0
M  V30 3821 C 365.976 4.1757 -1.30207 0
M  V30 3822 C 365.035 5.2125 -0.720029 0
M  V30 3823 O 364.061 5.51888 -1.39314 0
M  V30 3824 N 365.263 5.78466 0.485507 0
M  V30 3825 H 368.028 2.40698 -1.78562 0
M  V30 3826 H 365.589 1.20831 -1.07757 0
M  V30 3827 H 367.581 4.04442 0.144584 0
M  V30 3828 H 366.151 3.07281 0.574199 0
M  V30 3829 H 365.371 3.46458 -1.88043 0
M  V30 3830 H 366.659 4.67586 -2.00601 0
M  V30 3831 H 366.057 5.55866 1.05022 0
M  V30 3832 H 364.614 6.4649 0.830307 0
M  V30 3833 N 368.047 0.979072 1.23499 0
M  V30 3834 C 369.275 0.665202 1.95915 0
M  V30 3835 C 369.69 -0.767571 1.72493 0
M  V30 3836 O 369.047 -1.51635 1.01554 0
M  V30 3837 C 369.098 0.944438 3.48945 0
M  V30 3838 O 368.819 2.3209 3.71572 0
M  V30 3839 C 370.32 0.646336 4.38563 0
M  V30 3840 H 367.54 0.247218 0.623798 0
M  V30 3841 H 370.084 1.31009 1.57025 0
M  V30 3842 H 368.239 0.345575 3.85856 0
M  V30 3843 H 368.653 2.40957 4.65876 0
M  V30 3844 H 370.127 0.892091 5.44744 0
M  V30 3845 H 370.604 -0.419575 4.37191 0
M  V30 3846 H 371.21 1.22562 4.07258 0
M  V30 3847 N 369.525 -1.3858 0.750561 0
M  V30 3848 C 370.774 -1.99424 0.302172 0
M  V30 3849 C 371.087 -1.60254 -1.12152 0
M  V30 3850 O 372.293 -2.14046 -1.67023 0
M  V30 3851 C 370.749 -3.56558 0.489307 0
M  V30 3852 C 370.357 -4.04682 1.92189 0
M  V30 3853 C 372.101 -4.24374 0.103478 0
M  V30 3854 C 370.008 -5.54446 2.05775 0
M  V30 3855 H 368.938 -0.746046 0.10923 0
M  V30 3856 H 371.589 -1.58383 0.92667 0
M  V30 3857 H 369.971 -3.95472 -0.204329 0
M  V30 3858 H 371.145 -3.77065 2.64875 0
M  V30 3859 H 369.46 -3.4958 2.26236 0
M  V30 3860 H 372.057 -5.34384 0.183787 0
M  V30 3861 H 372.4 -4.05468 -0.943481 0
M  V30 3862 H 372.933 -3.90688 0.748854 0
M  V30 3863 H 369.672 -5.78252 3.08714 0
M  V30 3864 H 369.192 -5.83816 1.37546 0
M  V30 3865 H 370.871 -6.20099 1.84626 0
M  V30 3866 N 371.003 -0.499398 -1.49478 0
M  V30 3867 C 372.228 0.044722 -2.07352 0
M  V30 3868 C 372.653 1.30207 -1.35749 0
M  V30 3869 O 372.011 1.76516 -0.413732 0
M  V30 3870 C 372.059 0.283013 -3.59488 0
M  V30 3871 O 371.163 1.35804 -3.89398 0
M  V30 3872 H 370.504 -0.0255147 -0.66351 0
M  V30 3873 H 373.034 -0.698561 -1.92305 0
M  V30 3874 H 373.044 0.515007 -4.04737 0
M  V30 3875 H 371.719 -0.635636 -4.11014 0
M  V30 3876 H 370.296 1.11113 -3.55961 0
M  V30 3877 N 372.481 1.55866 -0.233164 0
M  V30 3878 C 373.897 1.59133 0.121988 0
M  V30 3879 C 374.097 1.25016 1.58029 0
M  V30 3880 O 373.153 0.990922 2.32243 0
M  V30 3881 C 374.466 2.99932 -0.214792 0
M  V30 3882 C 376.014 3.12601 -0.157971 0
M  V30 3883 C 376.489 4.55597 -0.46859 0
M  V30 3884 N 377.98 4.61305 -0.418585 0
M  V30 3885 C 378.715 5.69903 -0.63227 0
M  V30 3886 N 378.211 6.86819 -0.90835 0
M  V30 3887 N 380.004 5.59264 -0.563913 0
M  V30 3888 H 372.155 1.76315 -1.18434 0
M  V30 3889 H 374.418 0.820093 -0.475553 0
M  V30 3890 H 374.124 3.29588 -1.22739 0
M  V30 3891 H 373.998 3.74327 0.464691 0
M  V30 3892 H 376.385 2.82735 0.845283 0
M  V30 3893 H 376.466 2.40511 -0.871102 0
M  V30 3894 H 376.11 4.86182 -1.46934 0
M  V30 3895 H 376.04 5.25928 0.265865 0
M  V30 3896 H 378.531 3.77297 -0.213368 0
M  V30 3897 H 378.844 7.65507 -1.05919 0
M  V30 3898 H 377.189 6.88536 -0.945673 0
M  V30 3899 H 380.38 4.66802 -0.348372 0
M  V30 3900 H 380.553 6.43831 -0.733847 0
M  V30 3901 N 373.959 -0.0401083 1.57549 0
M  V30 3902 C 374.869 -1.06133 2.0922 0
M  V30 3903 C 375.885 -1.40356 1.0284 0
M  V30 3904 O 377.061 -1.49897 1.34509 0
M  V30 3905 C 374.126 -2.34658 2.55218 0
M  V30 3906 C 373.187 -2.07117 3.76033 0
M  V30 3907 C 372.42 -3.29514 4.19829 0
M  V30 3908 O 372.643 -4.39794 3.63232 0
M  V30 3909 O 371.577 -3.15863 5.12362 0
M  V30 3910 H 375.403 -0.652244 2.96613 0
M  V30 3911 H 372.988 -0.256368 1.47184 0
M  V30 3912 H 374.87 -3.10239 2.85184 0
M  V30 3913 H 373.545 -2.74883 1.70941 0
M  V30 3914 H 372.452 -1.29139 3.51104 0
M  V30 3915 H 373.785 -1.71754 4.61261 0
M  V30 3916 N 375.437 -1.54477 -0.31217 0
M  V30 3917 C 376.347 -1.87695 -1.4074 0
M  V30 3918 C 377.363 -0.769975 -1.56036 0
M  V30 3919 O 378.539 -1.06537 -1.70915 0
M  V30 3920 C 375.604 -2.10755 -2.75287 0
M  V30 3921 C 374.665 -3.34514 -2.69071 0
M  V30 3922 C 373.898 -3.56465 -3.97201 0
M  V30 3923 O 374.121 -2.81637 -4.96021 0
M  V30 3924 O 373.055 -4.49964 -3.9977 0
M  V30 3925 H 376.881 -2.80849 -1.15574 0
M  V30 3926 H 374.466 -1.40526 -0.507228 0
M  V30 3927 H 376.348 -2.27188 -3.54913 0
M  V30 3928 H 375.023 -1.20788 -3.0032 0
M  V30 3929 H 373.93 -3.23456 -1.87955 0
M  V30 3930 H 375.263 -4.24575 -2.48992 0
M  V30 3931 N 376.915 0.57481 -1.46744 0
M  V30 3932 C 377.845 1.69337 -1.60771 0
M  V30 3933 C 378.826 1.63825 -0.457736 0
M  V30 3934 O 380.011 1.8172 -0.684947 0
M  V30 3935 C 377.141 3.0798 -1.60517 0
M  V30 3936 C 376.095 3.28327 -2.74564 0
M  V30 3937 C 375.421 4.67578 -2.59373 0
M  V30 3938 C 376.721 3.15398 -4.16319 0
M  V30 3939 H 378.415 1.57853 -2.54407 0
M  V30 3940 H 375.961 0.75799 -1.22436 0
M  V30 3941 H 377.914 3.86061 -1.68923 0
M  V30 3942 H 376.638 3.20381 -0.634305 0
M  V30 3943 H 375.297 2.52649 -2.65639 0
M  V30 3944 H 374.945 4.76755 -1.60353 0
M  V30 3945 H 374.645 4.82144 -3.35873 0
M  V30 3946 H 376.169 5.47817 -2.69682 0
M  V30 3947 H 377.583 3.83315 -4.26313 0
M  V30 3948 H 375.98 3.41482 -4.93468 0
M  V30 3949 H 377.05 2.12372 -4.3592 0
M  V30 3950 N 378.394 1.34581 0.820102 0
M  V30 3951 C 379.643 1.26437 1.57151 0
M  V30 3952 C 379.956 -0.163111 1.94919 0
M  V30 3953 O 381.162 -0.366722 2.69012 0
M  V30 3954 C 379.618 2.21658 2.83541 0
M  V30 3955 C 379.226 3.69679 2.53065 0
M  V30 3956 C 380.97 2.22428 3.61561 0
M  V30 3957 C 378.877 4.56761 3.75664 0
M  V30 3958 H 377.807 0.469707 0.589823 0
M  V30 3959 H 380.458 1.59763 0.902656 0
M  V30 3960 H 378.84 1.81287 3.52067 0
M  V30 3961 H 380.014 4.18605 1.92631 0
M  V30 3962 H 378.329 3.71384 1.88316 0
M  V30 3963 H 380.926 2.8471 4.52597 0
M  V30 3964 H 381.269 1.22434 3.97889 0
M  V30 3965 H 381.802 2.61259 2.99981 0
M  V30 3966 H 378.541 5.57702 3.44454 0
M  V30 3967 H 378.061 4.12568 4.35371 0
M  V30 3968 H 379.74 4.71509 4.43044 0
M  V30 3969 N 379.872 -1.04064 1.18357 0
M  V30 3970 C 380.835 -2.10243 0.912707 0
M  V30 3971 C 381.835 -1.60477 -0.101928 0
M  V30 3972 O 383.025 -1.73703 0.131517 0
M  V30 3973 C 380.157 -3.38893 0.369387 0
M  V30 3974 H 381.35 -2.35706 1.85426 0
M  V30 3975 H 378.903 -1.20489 0.995594 0
M  V30 3976 H 379.638 -3.19094 -0.578776 0
M  V30 3977 H 379.423 -3.76331 1.1008 0
M  V30 3978 H 380.913 -4.17128 0.198575 0
M  V30 3979 N 381.35 -0.985608 -1.22978 0
M  V30 3980 C 382.28 -0.549649 -2.26939 0
M  V30 3981 C 383.261 0.419803 -1.64838 0
M  V30 3982 O 384.446 0.31203 -1.91677 0
M  V30 3983 C 381.576 0.143652 -3.47003 0
M  V30 3984 C 380.53 -0.743606 -4.21491 0
M  V30 3985 C 379.856 0.0822027 -5.34637 0
M  V30 3986 C 381.156 -2.03694 -4.80943 0
M  V30 3987 H 382.85 -1.41862 -2.63658 0
M  V30 3988 H 380.396 -0.683571 -1.26741 0
M  V30 3989 H 382.349 0.459985 -4.18882 0
M  V30 3990 H 381.073 1.04711 -3.09359 0
M  V30 3991 H 379.732 -1.04347 -3.51436 0
M  V30 3992 H 379.38 0.986359 -4.93234 0
M  V30 3993 H 379.08 -0.508377 -5.85397 0
M  V30 3994 H 380.604 0.392797 -6.09335 0
M  V30 3995 H 382.018 -1.78504 -5.44802 0
M  V30 3996 H 380.415 -2.57573 -5.42011 0
M  V30 3997 H 381.485 -2.72042 -4.01399 0
M  V30 3998 N 382.828 1.3818 -0.7579 0
M  V30 3999 C 384.076 1.99624 -0.315361 0
M  V30 4000 C 384.397 1.60464 1.10799 0
M  V30 4001 O 383.667 0.863507 1.75842 0
M  V30 4002 H 382.247 0.73831 -0.113611 0
M  V30 4003 H 384.909 1.68878 -0.972952 0
M  V30 4004 H 384.005 3.09754 -0.381931 0
M  V30 4005 N 384.306 0.507319 1.49211 0
M  V30 4006 C 385.253 -0.267728 2.29242 0
M  V30 4007 C 386.223 -0.954609 1.35928 0
M  V30 4008 O 387.408 -0.960046 1.64887 0
M  V30 4009 C 384.548 -1.32243 3.18756 0
M  V30 4010 C 383.661 -0.64669 4.27132 0
M  V30 4011 C 382.796 -1.68238 5.03855 0
M  V30 4012 C 381.835 -0.98885 6.0406 0
M  V30 4013 N 380.972 -1.96903 6.73924 0
M  V30 4014 H 385.812 0.420968 2.95012 0
M  V30 4015 H 383.349 0.219443 1.45454 0
M  V30 4016 H 385.307 -1.94599 3.69036 0
M  V30 4017 H 383.937 -1.97981 2.54958 0
M  V30 4018 H 382.989 0.0902926 3.80293 0
M  V30 4019 H 384.301 -0.101058 4.98698 0
M  V30 4020 H 383.455 -2.38081 5.58034 0
M  V30 4021 H 382.194 -2.26187 4.32077 0
M  V30 4022 H 381.199 -0.276222 5.49106 0
M  V30 4023 H 382.424 -0.415767 6.77826 0
M  V30 4024 H 380.37 -2.53803 6.04913 0
M  V30 4025 H 380.287 -1.47423 7.41487 0
M  V30 4026 H 381.555 -2.66015 7.32705 0
M  V30 4027 N 385.784 -1.5574 0.241426 0
M  V30 4028 C 387.2 -1.59196 -0.113548 0
M  V30 4029 C 387.4 -1.25852 -1.57364 0
M  V30 4030 O 386.456 -1.00322 -2.31715 0
M  V30 4031 C 387.769 -2.99814 0.230695 0
M  V30 4032 C 389.317 -3.12513 0.174547 0
M  V30 4033 C 389.792 -4.55342 0.492744 0
M  V30 4034 N 391.283 -4.61076 0.443043 0
M  V30 4035 C 392.018 -5.6956 0.662484 0
M  V30 4036 N 391.514 -6.86328 0.944761 0
M  V30 4037 N 393.307 -5.58957 0.593564 0
M  V30 4038 H 385.458 -1.75685 1.19368 0
M  V30 4039 H 387.721 -0.81756 0.479896 0
M  V30 4040 H 387.427 -3.28932 1.24485 0
M  V30 4041 H 387.301 -3.74568 -0.444833 0
M  V30 4042 H 389.688 -2.83179 -0.830277 0
M  V30 4043 H 389.769 -2.40045 0.883845 0
M  V30 4044 H 389.413 -4.85396 1.4951 0
M  V30 4045 H 389.343 -5.26062 -0.23797 0
M  V30 4046 H 391.834 -3.77179 0.233374 0
M  V30 4047 H 392.147 -7.64935 1.09977 0
M  V30 4048 H 390.492 -6.88025 0.982175 0
M  V30 4049 H 393.683 -4.66611 0.373123 0
M  V30 4050 H 393.856 -6.43433 0.767981 0
M  V30 4051 N 387.262 0.0317525 -1.57568 0
M  V30 4052 C 388.509 0.723104 -1.89149 0
M  V30 4053 C 388.837 1.75504 -0.838377 0
M  V30 4054 O 388.092 1.95037 0.160982 0
M  V30 4055 C 388.391 1.43167 -3.27472 0
M  V30 4056 C 388.057 0.535972 -4.47703 0
M  V30 4057 C 386.719 0.289262 -4.8033 0
M  V30 4058 C 389.071 -0.0826125 -5.21135 0
M  V30 4059 C 386.399 -0.584853 -5.83778 0
M  V30 4060 C 388.751 -0.944414 -6.25511 0
M  V30 4061 C 387.415 -1.20061 -6.56614 0
M  V30 4062 H 386.685 0.264602 -0.692146 0
M  V30 4063 H 389.332 -0.0169496 -1.91492 0
M  V30 4064 H 387.637 2.24497 -3.21105 0
M  V30 4065 H 389.334 1.97209 -3.49155 0
M  V30 4066 H 385.924 0.738414 -4.22191 0
M  V30 4067 H 390.108 0.0950302 -4.96209 0
M  V30 4068 H 385.364 -0.79168 -6.06253 0
M  V30 4069 H 389.538 -1.43026 -6.81554 0
M  V30 4070 H 387.165 -1.87967 -7.36595 0
M  V30 4071 N 388.74 1.54641 0.303973 0
M  V30 4072 C 389.988 1.73437 1.0375 0
M  V30 4073 C 390.309 0.521449 1.87899 0
M  V30 4074 O 389.579 -0.46432 1.90318 0
M  V30 4075 H 388.159 0.639518 0.386039 0
M  V30 4076 H 390.821 1.91988 0.335675 0
M  V30 4077 H 389.917 2.62235 1.69231 0
M  V30 4078 N 390.218 -0.567019 1.47046 0
M  V30 4079 C 391.464 -1.32658 1.53394 0
M  V30 4080 C 391.797 -1.93254 0.19148 0
M  V30 4081 O 391.072 -1.77338 -0.798844 0
M  V30 4082 C 391.355 -2.44412 2.64452 0
M  V30 4083 C 391.208 -1.88749 4.08282 0
M  V30 4084 C 392.527 -3.46387 2.71485 0
M  V30 4085 H 389.646 -0.48098 0.558415 0
M  V30 4086 H 392.288 -0.635481 1.79058 0
M  V30 4087 H 390.438 -3.03363 2.427 0
M  V30 4088 H 392.11 -1.34134 4.41368 0
M  V30 4089 H 390.353 -1.19481 4.17021 0
M  V30 4090 H 391.024 -2.69491 4.81745 0
M  V30 4091 H 393.5 -2.9734 2.91081 0
M  V30 4092 H 392.376 -4.2202 3.50985 0
M  V30 4093 H 392.637 -4.04616 1.78153 0
M  V30 4094 N 391.696 -1.35014 -0.812953 0
M  V30 4095 C 392.924 -1.31031 -1.6012 0
M  V30 4096 C 393.339 0.113558 -1.88458 0
M  V30 4097 O 392.696 1.06363 -1.48301 0
M  V30 4098 C 392.747 -2.10872 -2.93624 0
M  V30 4099 O 392.468 -3.47706 -2.66518 0
M  V30 4100 C 393.969 -2.14401 -3.88004 0
M  V30 4101 H 391.189 -0.45037 -0.497401 0
M  V30 4102 H 393.733 -1.77775 -1.01076 0
M  V30 4103 H 391.888 -1.67744 -3.492 0
M  V30 4104 H 392.302 -3.89097 -3.51715 0
M  V30 4105 H 393.776 -2.74669 -4.78812 0
M  V30 4106 H 394.253 -1.14105 -4.24119 0
M  V30 4107 H 394.859 -2.57662 -3.38364 0
M  V30 4108 N 393.175 1.03435 -1.18907 0
M  V30 4109 C 394.586 1.58195 -0.991523 0
M  V30 4110 C 394.937 1.90801 0.457081 0
M  V30 4111 O 394.062 1.70272 1.33553 0
M  V30 4112 C 394.657 2.87432 -1.79355 0
M  V30 4113 C 393.216 3.38785 -1.64017 0
M  V30 4114 C 392.363 2.12292 -1.78402 0
M  V30 4115 H 395.314 0.860299 -1.33359 0
M  V30 4116 H 395.335 3.58096 -1.28638 0
M  V30 4117 H 394.847 2.63669 -2.84781 0
M  V30 4118 H 392.948 3.67547 -0.611536 0
M  V30 4119 H 393.061 4.12186 -2.44212 0
M  V30 4120 H 391.425 2.23901 -1.2141 0
M  V30 4121 H 392.208 1.90977 -2.85277 0
M  V30 4122 N 394.653 0.992116 1.22453 0
M  V30 4123 C 395.583 0.561677 2.26644 0
M  V30 4124 C 396.564 -0.411055 1.65059 0
M  V30 4125 O 397.749 -0.301861 1.9184 0
M  V30 4126 C 394.879 -0.125247 3.47074 0
M  V30 4127 C 393.833 0.765948 4.21091 0
M  V30 4128 C 393.159 -0.0538484 5.34673 0
M  V30 4129 C 394.459 2.06242 4.79856 0
M  V30 4130 H 396.153 1.43259 2.62902 0
M  V30 4131 H 393.699 0.690283 1.26377 0
M  V30 4132 H 395.652 -0.437764 4.1912 0
M  V30 4133 H 394.376 -1.03069 3.0991 0
M  V30 4134 H 393.035 1.0621 3.50878 0
M  V30 4135 H 392.683 -0.960188 4.9375 0
M  V30 4136 H 392.383 0.539415 5.85119 0
M  V30 4137 H 393.907 -0.360477 6.09535 0
M  V30 4138 H 395.321 1.8139 5.43848 0
M  V30 4139 H 393.718 2.60444 5.40638 0
M  V30 4140 H 394.788 2.74167 3.99951 0
M  V30 4141 N 396.131 -1.37776 0.765217 0
M  V30 4142 C 397.094 -2.28686 0.153416 0
M  V30 4143 C 398.094 -1.47727 -0.635081 0
M  V30 4144 O 399.284 -1.68027 -0.459632 0
M  V30 4145 C 396.416 -3.31608 -0.790495 0
M  V30 4146 H 397.609 -2.84297 0.954723 0
M  V30 4147 H 395.162 -1.46932 0.53299 0
M  V30 4148 H 395.897 -2.81109 -1.61705 0
M  V30 4149 H 395.682 -3.9144 -0.227348 0
M  V30 4150 H 397.172 -3.99559 -1.21419 0
M  V30 4151 N 397.609 -0.515225 -1.4894 0
M  V30 4152 C 398.834 0.022727 -2.07388 0
M  V30 4153 C 399.259 1.2876 -1.37122 0
M  V30 4154 O 398.617 1.76067 -0.432431 0
M  V30 4155 C 398.665 0.244869 -3.59768 0
M  V30 4156 O 397.769 1.31667 -3.90817 0
M  V30 4157 H 397.11 -0.0325506 -0.663202 0
M  V30 4158 H 399.64 -0.718918 -1.91553 0
M  V30 4159 H 399.65 0.47205 -4.0526 0
M  V30 4160 H 398.325 -0.679194 -4.10317 0
M  V30 4161 H 396.902 1.07331 -3.5712 0
M  V30 4162 N 399.087 1.5561 -0.249682 0
M  V30 4163 C 400.05 2.20217 0.635394 0
M  V30 4164 C 401.05 1.17227 1.10066 0
M  V30 4165 O 402.24 1.42292 1.00492 0
M  V30 4166 C 399.372 2.84794 1.87363 0
M  V30 4167 H 400.565 2.99814 0.0716752 0
M  V30 4168 H 398.118 1.563 -0.000153234 0
M  V30 4169 H 398.853 2.09142 2.47851 0
M  V30 4170 H 398.638 3.60241 1.5482 0
M  V30 4171 H 400.128 3.3423 2.5036 0
M  V30 4172 N 400.565 -0.0233959 1.57583 0
M  V30 4173 C 401.495 -1.02162 2.09965 0
M  V30 4174 C 402.476 -1.3735 1.00344 0
M  V30 4175 O 403.661 -1.46135 1.27899 0
M  V30 4176 C 400.791 -2.32081 2.58371 0
M  V30 4177 C 399.745 -2.1112 3.72307 0
M  V30 4178 C 399.071 -3.46848 4.06941 0
M  V30 4179 C 400.371 -1.49276 5.00514 0
M  V30 4180 H 402.065 -0.585557 2.93618 0
M  V30 4181 H 399.611 -0.280218 1.41247 0
M  V30 4182 H 401.564 -3.02249 2.93639 0
M  V30 4183 H 400.288 -2.77758 1.71808 0
M  V30 4184 H 398.947 -1.43384 3.37397 0
M  V30 4185 H 398.595 -3.90184 3.17436 0
M  V30 4186 H 398.295 -3.33646 4.83688 0
M  V30 4187 H 399.819 -4.18369 4.44747 0
M  V30 4188 H 401.233 -2.09368 5.33702 0
M  V30 4189 H 399.63 -1.46632 5.8191 0
M  V30 4190 H 400.7 -0.459217 4.82721 0
M  V30 4191 N 402.043 -1.548 -0.295768 0
M  V30 4192 C 403.006 -1.85363 -1.34808 0
M  V30 4193 C 404.006 -0.726817 -1.43436 0
M  V30 4194 O 405.196 -0.995088 -1.42981 0
M  V30 4195 C 402.328 -2.03859 -2.73229 0
M  V30 4196 H 403.521 -2.7941 -1.08949 0
M  V30 4197 H 401.074 -1.46942 -0.532702 0
M  V30 4198 H 401.809 -1.12117 -3.04303 0
M  V30 4199 H 401.594 -2.8588 -2.68356 0
M  V30 4200 H 403.084 -2.28857 -3.49305 0
M  V30 4201 N 403.521 0.559213 -1.47345 0
M  V30 4202 C 404.451 1.67622 -1.62558 0
M  V30 4203 C 405.432 1.63331 -0.475087 0
M  V30 4204 O 406.617 1.80983 -0.704182 0
M  V30 4205 C 403.747 3.0626 -1.63774 0
M  V30 4206 C 402.701 3.25397 -2.7803 0
M  V30 4207 C 402.027 4.64801 -2.64318 0
M  V30 4208 C 403.327 3.10965 -4.19641 0
M  V30 4209 H 405.021 1.55146 -2.56067 0
M  V30 4210 H 402.567 0.744961 -1.23233 0
M  V30 4211 H 404.52 3.84247 -1.73008 0
M  V30 4212 H 403.244 3.1969 -0.66825 0
M  V30 4213 H 401.903 2.49817 -2.68304 0
M  V30 4214 H 401.551 4.75028 -1.65401 0
M  V30 4215 H 401.251 4.78555 -3.40968 0
M  V30 4216 H 402.775 5.44926 -2.75478 0
M  V30 4217 H 404.189 3.78772 -4.30354 0
M  V30 4218 H 402.586 3.36229 -4.97062 0
M  V30 4219 H 403.656 2.07736 -4.38148 0
M  V30 4220 O 405.038 1.45356 0.703831 0
M  V30 4221 H 405.729 1.38392 1.35526 0
M  V30 END ATOM
M  V30 BEGIN BOND
M  V30 END BOND
M  V30 END CTAB
M  END
$$$$
