drugbank_target|P32119 Peroxiredoxin-2 (DB02153; DB04048; DB09130)
 OpenBabel12092120023D

  0  0  0     0  0            999 V3000
M  V30 BEGIN CTAB
M  V30 COUNTS 3081 3117 0 0 0
M  V30 BEGIN ATOM
M  V30 1 H -0.908 1.98254 -0.117106 0
M  V30 2 N 0 1.576 0 0
M  V30 3 C 0.933 2.03868 1.02534 0
M  V30 4 C 1.911 0.928543 1.3348 0
M  V30 5 O 3.095 1.19667 1.45644 0
M  V30 6 C 0.222 2.43627 2.35294 0
M  V30 7 C -0.732 3.65373 2.2001 0
M  V30 8 S 0.101 5.13292 1.52614 0
M  V30 9 C 1.257 5.56322 2.86805 0
M  V30 10 H 1.49 2.90518 0.631377 0
M  V30 11 H -0.977 1.52953 0.210867 0
M  V30 12 H 0.981 2.67203 3.11629 0
M  V30 13 H -0.358 1.57376 2.7183 0
M  V30 14 H -1.165 3.90944 3.18086 0
M  V30 15 H -1.563 3.418 1.51819 0
M  V30 16 H 0.729 5.58782 3.83104 0
M  V30 17 H 1.672 6.56266 2.65933 0
M  V30 18 H 2.08 4.83886 2.90714 0
M  V30 19 N 1.4781 -0.272755 1.55222 0
M  V30 20 C 2.4411 -1.32041 1.87344 0
M  V30 21 C 3.4411 -1.42342 0.74803 0
M  V30 22 O 4.6311 -1.41488 1.0162 0
M  V30 23 C 1.7631 -2.70173 2.07893 0
M  V30 24 H 2.9561 -1.04789 2.80997 0
M  V30 25 H 0.5091 -0.51083 1.47717 0
M  V30 26 H 1.2441 -3.02605 1.16622 0
M  V30 27 H 1.0291 -2.64082 2.89833 0
M  V30 28 H 2.5191 -3.45869 2.34017 0
M  V30 29 N 2.9562 -1.48159 -0.537278 0
M  V30 30 C 4.1812 -1.59707 -1.32319 0
M  V30 31 C 4.6062 -0.254859 -1.86365 0
M  V30 32 O 3.9642 0.772378 -1.64024 0
M  V30 33 C 4.0122 -2.6412 -2.45505 0
M  V30 34 O 3.1162 -2.20774 -3.48328 0
M  V30 35 H 2.4572 -0.535791 -0.392204 0
M  V30 36 H 4.9872 -1.94092 -0.647268 0
M  V30 37 H 4.9972 -2.85166 -2.91795 0
M  V30 38 H 3.6722 -3.61567 -2.05528 0
M  V30 39 H 2.2492 -2.09911 -3.08207 0
M  V30 40 N 4.4343 0.785586 -1.36625 0
M  V30 41 C 5.6823 1.54057 -1.30808 0
M  V30 42 C 6.0033 1.94683 0.111157 0
M  V30 43 O 5.2733 1.65241 1.05224 0
M  V30 44 H 3.8533 0.571354 -0.481211 0
M  V30 45 H 6.5153 0.935821 -1.70963 0
M  V30 46 H 5.6113 2.44637 -1.93801 0
M  V30 47 N 5.9124 1.20967 1.01018 0
M  V30 48 C 6.8604 0.961223 2.1181 0
M  V30 49 C 7.8544 -0.0897034 1.69162 0
M  V30 50 O 9.0604 0.0612271 1.79896 0
M  V30 51 H 5.4354 0.29355 0.692338 0
M  V30 52 H 7.4064 1.90178 2.29946 0
M  V30 53 C 6.1554 0.536854 3.4353 0
M  V30 54 H 5.4784 1.33713 3.76777 0
M  V30 55 H 6.9184 0.402286 4.22087 0
M  V30 56 C 5.3774 -0.751574 3.2841 0
M  V30 57 O 5.9074 -1.80841 3.58691 0
M  V30 58 N 4.1134 -0.716079 2.81639 0
M  V30 59 H 3.6604 0.144236 2.57196 0
M  V30 60 H 3.6184 -1.57847 2.71904 0
M  V30 61 N 7.3905 -1.2043 1.01659 0
M  V30 62 C 8.3535 -2.21433 0.591616 0
M  V30 63 C 9.3535 -1.57203 -0.338226 0
M  V30 64 O 10.5435 -1.73737 -0.126918 0
M  V30 65 C 7.6755 -3.40628 -0.136058 0
M  V30 66 H 8.8685 -2.60545 1.48514 0
M  V30 67 H 6.4215 -1.33893 0.806379 0
M  V30 68 H 7.1565 -3.07019 -1.04449 0
M  V30 69 H 6.9415 -3.88475 0.531917 0
M  V30 70 H 8.4315 -4.15475 -0.420735 0
M  V30 71 N 8.8686 -0.792821 -1.36206 0
M  V30 72 C 10.2846 -0.474903 -1.52371 0
M  V30 73 C 10.4846 1.00622 -1.74578 0
M  V30 74 O 9.5406 1.79162 -1.77924 0
M  V30 75 C 10.8536 -1.3083 -2.70747 0
M  V30 76 C 12.4016 -1.30234 -2.84619 0
M  V30 77 C 12.8766 -2.11956 -4.06004 0
M  V30 78 N 14.3676 -2.09419 -4.13156 0
M  V30 79 C 15.1026 -2.69419 -5.06163 0
M  V30 80 N 14.5986 -3.3829 -6.04592 0
M  V30 81 N 16.3916 -2.59134 -4.98804 0
M  V30 82 H 8.5426 -1.75222 -1.20046 0
M  V30 83 H 10.8056 -0.745024 -0.586211 0
M  V30 84 H 10.5116 -2.35881 -2.6087 0
M  V30 85 H 10.3856 -0.95196 -3.6499 0
M  V30 86 H 12.7726 -0.259748 -2.93955 0
M  V30 87 H 12.8536 -1.69847 -1.91274 0
M  V30 88 H 12.4976 -3.16248 -3.97429 0
M  V30 89 H 12.4276 -1.69711 -4.98503 0
M  V30 90 H 14.9186 -1.59297 -3.42685 0
M  V30 91 H 15.2316 -3.81394 -6.7213 0
M  V30 92 H 13.5766 -3.42393 -6.04807 0
M  V30 93 H 16.7676 -2.04927 -4.20859 0
M  V30 94 H 16.9406 -3.06185 -5.711 0
M  V30 95 N 10.3467 1.47872 -0.545128 0
M  V30 96 C 11.5957 2.01695 -0.0145033 0
M  V30 97 C 11.9087 1.42609 1.33873 0
M  V30 98 O 13.1147 1.88021 1.95858 0
M  V30 99 C 11.5707 3.59892 0.0245068 0
M  V30 100 C 11.1787 4.27966 -1.32475 0
M  V30 101 C 12.9227 4.21507 0.50316 0
M  V30 102 C 10.8297 5.78136 -1.2455 0
M  V30 103 H 9.7597 0.753998 -0.00165172 0
M  V30 104 H 12.4107 1.69985 -0.691175 0
M  V30 105 H 10.7927 3.88509 0.766575 0
M  V30 106 H 11.9667 4.11003 -2.08357 0
M  V30 107 H 10.2817 3.78286 -1.74036 0
M  V30 108 H 12.8787 5.31538 0.580656 0
M  V30 109 H 13.2217 3.87855 1.51243 0
M  V30 110 H 13.7547 3.97376 -0.183681 0
M  V30 111 H 10.4937 6.16388 -2.23039 0
M  V30 112 H 10.0137 5.97469 -0.528282 0
M  V30 113 H 11.6927 6.40099 -0.942488 0
M  V30 114 N 11.8248 0.280983 1.55075 0
M  V30 115 C 13.0728 -0.333455 1.9933 0
M  V30 116 C 13.3938 -1.55937 1.17085 0
M  V30 117 O 12.6638 -1.94143 0.261805 0
M  V30 118 H 11.2438 -0.126197 0.736263 0
M  V30 119 H 13.9058 0.387678 1.91005 0
M  V30 120 H 13.0018 -0.619292 3.05894 0
M  V30 121 N 13.3029 -1.57598 0.00835791 0
M  V30 122 C 14.2499 -2.08945 -0.980346 0
M  V30 123 C 15.2199 -0.986738 -1.33614 0
M  V30 124 O 16.4049 -1.25968 -1.43306 0
M  V30 125 C 13.5449 -2.60425 -2.26435 0
M  V30 126 C 12.6579 -3.84628 -1.96685 0
M  V30 127 C 11.7929 -4.24579 -3.19228 0
M  V30 128 C 10.8319 -5.41596 -2.85202 0
M  V30 129 N 9.9689 -5.768 -4.00307 0
M  V30 130 H 14.8089 -2.93148 -0.535551 0
M  V30 131 H 12.3459 -1.44912 -0.252776 0
M  V30 132 H 14.3039 -2.88354 -3.01509 0
M  V30 133 H 12.9339 -1.79083 -2.68568 0
M  V30 134 H 11.9859 -3.63556 -1.11942 0
M  V30 135 H 13.2979 -4.69796 -1.67611 0
M  V30 136 H 12.4519 -4.53834 -4.02641 0
M  V30 137 H 11.1909 -3.38137 -3.51447 0
M  V30 138 H 10.1959 -5.12056 -2.00198 0
M  V30 139 H 11.4209 -6.29721 -2.54222 0
M  V30 140 H 9.3669 -4.93316 -4.32407 0
M  V30 141 H 9.2839 -6.5656 -3.74786 0
M  V30 142 H 10.5519 -6.10652 -4.84484 0
M  V30 143 N 14.781 0.264519 -1.55364 0
M  V30 144 C 16.192 0.834936 -1.6699 0
M  V30 145 C 16.543 1.86718 -0.602552 0
M  V30 146 O 15.668 2.14899 0.254425 0
M  V30 147 C 16.263 1.5212 -3.02729 0
M  V30 148 C 14.822 2.03954 -3.16354 0
M  V30 149 C 13.969 0.884498 -2.62815 0
M  V30 150 H 16.92 0.0406869 -1.58648 0
M  V30 151 H 16.941 2.38853 -2.96191 0
M  V30 152 H 16.453 0.769668 -3.80392 0
M  V30 153 H 14.554 2.82041 -2.43482 0
M  V30 154 H 14.667 2.24902 -4.23032 0
M  V30 155 H 13.031 1.2802 -2.20188 0
M  V30 156 H 13.814 0.14634 -3.42988 0
M  V30 157 N 16.2591 1.48442 0.529413 0
M  V30 158 C 17.2221 1.62524 1.61612 0
M  V30 159 C 18.2221 0.498509 1.52877 0
M  V30 160 O 19.4121 0.76431 1.56537 0
M  V30 161 C 16.5441 1.59597 3.01233 0
M  V30 162 H 17.7371 2.59423 1.50465 0
M  V30 163 H 15.2901 1.37047 0.751514 0
M  V30 164 H 16.0251 0.641781 3.17886 0
M  V30 165 H 15.8101 2.41397 3.08982 0
M  V30 166 H 17.3001 1.72646 3.80241 0
M  V30 167 N 17.7372 -0.778329 1.37039 0
M  V30 168 C 19.1482 -1.35421 1.28523 0
M  V30 169 C 19.4992 -1.96075 -0.0700901 0
M  V30 170 O 18.6242 -1.93352 -0.971801 0
M  V30 171 C 19.2192 -2.46211 2.32735 0
M  V30 172 C 17.7782 -2.99585 2.27873 0
M  V30 173 C 16.9252 -1.72748 2.16918 0
M  V30 174 H 19.8762 -0.5791 1.47757 0
M  V30 175 H 19.8972 -3.2552 1.9702 0
M  V30 176 H 19.4092 -2.02036 3.31365 0
M  V30 177 H 17.5102 -3.48152 1.32745 0
M  V30 178 H 17.6232 -3.55646 3.21018 0
M  V30 179 H 15.9872 -1.95416 1.63354 0
M  V30 180 H 16.7702 -1.30686 3.17452 0
M  V30 181 N 19.2153 -1.21501 -1.00376 0
M  V30 182 C 20.4923 -0.941745 -1.71437 0
M  V30 183 C 20.8723 0.546114 -2.03914 0
M  V30 184 O 20.2203 1.51128 -1.71384 0
M  V30 185 C 20.4303 -1.82812 -2.97289 0
M  V30 186 C 21.7783 -2.07771 -3.70292 0
M  V30 187 O 22.8023 -1.80171 -3.07273 0
M  V30 188 O 21.6613 -2.54456 -4.83647 0
M  V30 189 H 18.7553 -0.353243 -0.747762 0
M  V30 190 H 21.3013 -1.32436 -1.06108 0
M  V30 191 H 20.0733 -2.83501 -2.69709 0
M  V30 192 H 19.6963 -1.4464 -3.70358 0
M  V30 193 N 20.6934 1.19889 -1.02296 0
M  V30 194 C 21.9404 1.8942 -0.715972 0
M  V30 195 C 22.2684 1.79251 0.754944 0
M  V30 196 O 21.5234 1.17526 1.56481 0
M  V30 197 C 21.8224 3.39883 -1.10518 0
M  V30 198 C 21.4884 3.70254 -2.57337 0
M  V30 199 C 20.1504 3.78254 -2.97452 0
M  V30 200 C 22.5024 3.84052 -3.52354 0
M  V30 201 C 19.8304 3.97514 -4.31509 0
M  V30 202 C 22.1824 4.04824 -4.86108 0
M  V30 203 C 20.8464 4.11054 -5.25919 0
M  V30 204 H 20.1164 0.693138 -0.261993 0
M  V30 205 H 22.7634 1.42012 -1.28472 0
M  V30 206 H 21.0684 3.8915 -0.454953 0
M  V30 207 H 22.7654 3.9199 -0.845261 0
M  V30 208 H 19.3554 3.64632 -2.25258 0
M  V30 209 H 23.5394 3.77221 -3.22518 0
M  V30 210 H 18.7954 4.00574 -4.61898 0
M  V30 211 H 22.9694 4.14442 -5.59653 0
M  V30 212 H 20.5964 4.2573 -6.29808 0
M  V30 213 N 22.1715 0.800033 1.35784 0
M  V30 214 C 23.1185 0.203848 2.29898 0
M  V30 215 C 24.0885 -0.658375 1.52495 0
M  V30 216 O 25.2735 -0.604832 1.8096 0
M  V30 217 C 22.4135 -0.64688 3.38983 0
M  V30 218 C 21.5265 0.235054 4.3136 0
M  V30 219 C 20.6615 -0.623054 5.27533 0
M  V30 220 C 19.7005 0.259682 6.11549 0
M  V30 221 N 18.8375 -0.558019 6.99879 0
M  V30 222 H 23.6775 1.01186 2.80295 0
M  V30 223 H 21.2145 0.51053 1.37957 0
M  V30 224 H 23.1725 -1.15521 4.00887 0
M  V30 225 H 21.8025 -1.42021 2.89879 0
M  V30 226 H 20.8545 0.861438 3.70518 0
M  V30 227 H 22.1665 0.914768 4.9034 0
M  V30 228 H 21.3205 -1.19678 5.94779 0
M  V30 229 H 20.0595 -1.33636 4.69034 0
M  V30 230 H 19.0645 0.845726 5.43256 0
M  V30 231 H 20.2895 0.970748 6.72126 0
M  V30 232 H 18.2355 -1.25542 6.43875 0
M  V30 233 H 18.1525 0.0637872 7.55973 0
M  V30 234 H 19.4205 -1.11523 7.71481 0
M  V30 235 N 23.6496 -1.47581 0.552962 0
M  V30 236 C 24.6126 -2.28439 -0.186605 0
M  V30 237 C 25.6126 -1.36706 -0.84665 0
M  V30 238 O 26.8026 -1.59378 -0.703164 0
M  V30 239 C 23.9346 -3.16264 -1.2724 0
M  V30 240 H 25.1276 -2.95294 0.523609 0
M  V30 241 H 22.6806 -1.532 0.309745 0
M  V30 242 H 23.4156 -2.54091 -2.01514 0
M  V30 243 H 23.2006 -3.83769 -0.803968 0
M  V30 244 H 24.6906 -3.77198 -1.79196 0
M  V30 245 N 25.1277 -0.289203 -1.54924 0
M  V30 246 C 26.3557 0.326463 -2.04308 0
M  V30 247 C 26.7707 1.48413 -1.16701 0
M  V30 248 O 26.1277 1.81507 -0.190087 0
M  V30 249 C 26.1787 0.794014 -3.52672 0
M  V30 250 O 25.8997 -0.317564 -4.36948 0
M  V30 251 C 27.4007 1.47605 -4.18004 0
M  V30 252 H 24.6207 0.0726272 -0.667058 0
M  V30 253 H 27.1647 -0.425401 -2.00026 0
M  V30 254 H 25.3197 1.49593 -3.57352 0
M  V30 255 H 25.7337 0.0443186 -5.24481 0
M  V30 256 H 27.2077 1.75447 -5.23376 0
M  V30 257 H 27.6847 2.41224 -3.67025 0
M  V30 258 H 28.2907 0.81762 -4.17367 0
M  V30 259 N 26.6058 1.57591 -0.0167156 0
M  V30 260 C 27.5688 2.08393 0.954204 0
M  V30 261 C 28.5688 0.996531 1.26198 0
M  V30 262 O 29.7588 1.25858 1.20438 0
M  V30 263 C 26.8908 2.5394 2.27436 0
M  V30 264 H 28.0838 2.95455 0.514451 0
M  V30 265 H 25.6368 1.54582 0.231089 0
M  V30 266 H 26.3718 1.70171 2.76066 0
M  V30 267 H 26.1568 3.33371 2.06412 0
M  V30 268 H 27.6468 2.93512 2.97053 0
M  V30 269 N 28.0839 -0.256276 1.55502 0
M  V30 270 C 29.3299 -0.987079 1.77157 0
M  V30 271 C 29.6629 -1.85327 0.580315 0
M  V30 272 O 28.9379 -1.89874 -0.421686 0
M  V30 273 C 29.2209 -1.85553 3.08613 0
M  V30 274 C 29.0739 -1.01816 4.38125 0
M  V30 275 C 30.3929 -2.8397 3.36228 0
M  V30 276 H 27.5119 -0.357428 0.644526 0
M  V30 277 H 30.1539 -0.258239 1.88237 0
M  V30 278 H 28.3039 -2.47695 2.99298 0
M  V30 279 H 29.9759 -0.416159 4.59419 0
M  V30 280 H 28.2189 -0.322178 4.32602 0
M  V30 281 H 28.8899 -1.65939 5.26468 0
M  V30 282 H 31.3659 -2.31964 3.45445 0
M  V30 283 H 30.2419 -3.41864 4.29442 0
M  V30 284 H 30.5029 -3.59955 2.56681 0
M  V30 285 N 29.562 -1.4872 -0.521534 0
M  V30 286 C 30.808 -1.574 -1.27879 0
M  V30 287 C 31.141 -0.250817 -1.92573 0
M  V30 288 O 30.416 0.743934 -1.79711 0
M  V30 289 C 30.699 -2.71843 -2.36164 0
M  V30 290 C 30.552 -4.13893 -1.76105 0
M  V30 291 C 31.871 -2.82008 -3.37875 0
M  V30 292 H 28.99 -0.572941 -0.463581 0
M  V30 293 H 31.632 -1.80927 -0.580119 0
M  V30 294 H 29.782 -2.51914 -2.95756 0
M  V30 295 H 31.454 -4.45284 -1.20499 0
M  V30 296 H 29.697 -4.20498 -1.06601 0
M  V30 297 H 30.368 -4.89804 -2.5455 0
M  V30 298 H 32.844 -3.00086 -2.88249 0
M  V30 299 H 31.72 -3.63796 -4.11028 0
M  V30 300 H 31.981 -1.90511 -3.98946 0
M  V30 301 N 31.0401 0.771051 -1.3745 0
M  V30 302 C 32.3171 1.519 -1.23231 0
M  V30 303 C 32.6971 2.10383 0.173809 0
M  V30 304 O 32.0451 1.95583 1.18151 0
M  V30 305 C 32.2551 2.59933 -2.32886 0
M  V30 306 C 33.6031 3.27316 -2.70461 0
M  V30 307 O 34.6271 2.70228 -2.32068 0
M  V30 308 O 33.4861 4.30531 -3.36608 0
M  V30 309 H 30.5801 0.672803 -0.480901 0
M  V30 310 H 33.1261 0.807957 -1.49232 0
M  V30 311 H 31.8981 2.14842 -3.27045 0
M  V30 312 H 31.5211 3.38637 -2.08353 0
M  V30 313 N 32.5182 1.22032 0.997298 0
M  V30 314 C 33.7662 1.04016 1.73278 0
M  V30 315 C 34.0872 -0.426255 1.90284 0
M  V30 316 O 33.3572 -1.30694 1.45931 0
M  V30 317 H 31.9372 0.381897 0.642 0
M  V30 318 H 34.5992 1.5347 1.20137 0
M  V30 319 H 33.6952 1.51441 2.72896 0
M  V30 320 N 33.9963 -1.19345 1.0293 0
M  V30 321 C 34.9593 -2.20793 0.615069 0
M  V30 322 C 35.9593 -1.57553 -0.321533 0
M  V30 323 O 37.1493 -1.73862 -0.108483 0
M  V30 324 C 34.2813 -3.40754 -0.0999222 0
M  V30 325 H 35.4743 -2.58955 1.51269 0
M  V30 326 H 33.0273 -1.3303 0.820534 0
M  V30 327 H 33.7623 -3.0811 -1.01187 0
M  V30 328 H 33.5473 -3.87889 0.57309 0
M  V30 329 H 35.0373 -4.15898 -0.376645 0
M  V30 330 N 35.4744 -0.807222 -1.35358 0
M  V30 331 C 36.7214 -0.387888 -1.9875 0
M  V30 332 C 37.0494 1.04509 -1.64037 0
M  V30 333 O 36.3044 1.73986 -0.895946 0
M  V30 334 C 36.6034 -0.519036 -3.53611 0
M  V30 335 C 36.2694 -1.91542 -4.08194 0
M  V30 336 C 34.9314 -2.29745 -4.22813 0
M  V30 337 C 37.2834 -2.82896 -4.37744 0
M  V30 338 C 34.6114 -3.58668 -4.643 0
M  V30 339 C 36.9634 -4.11265 -4.8067 0
M  V30 340 C 35.6274 -4.49466 -4.93494 0
M  V30 341 H 34.8974 -0.141938 -0.727279 0
M  V30 342 H 37.5444 -1.02814 -1.6156 0
M  V30 343 H 35.8494 0.204658 -3.91265 0
M  V30 344 H 37.5464 -0.175345 -4.00616 0
M  V30 345 H 34.1364 -1.60862 -3.97268 0
M  V30 346 H 38.3204 -2.54629 -4.26002 0
M  V30 347 H 33.5764 -3.88113 -4.72418 0
M  V30 348 H 37.7504 -4.82153 -5.02496 0
M  V30 349 H 35.3774 -5.49418 -5.25399 0
M  V30 350 N 36.9525 1.47285 -0.560781 0
M  V30 351 C 37.8995 2.30058 0.18491 0
M  V30 352 C 38.8695 1.39281 0.904986 0
M  V30 353 O 40.0545 1.68241 0.899979 0
M  V30 354 C 37.1945 3.23317 1.20666 0
M  V30 355 C 36.3075 4.29186 0.492285 0
M  V30 356 C 35.4425 5.09592 1.49964 0
M  V30 357 C 34.4815 6.07232 0.770439 0
M  V30 358 N 33.6185 6.80584 1.72479 0
M  V30 359 H 38.4585 2.93302 -0.527048 0
M  V30 360 H 35.9955 1.44568 -0.271738 0
M  V30 361 H 37.9535 3.75811 1.81168 0
M  V30 362 H 36.5835 2.61929 1.88661 0
M  V30 363 H 35.6355 3.7972 -0.227333 0
M  V30 364 H 36.9475 4.98738 -0.0787929 0
M  V30 365 H 36.1015 5.66254 2.17809 0
M  V30 366 H 34.8405 4.3995 2.10464 0
M  V30 367 H 33.8455 5.49745 0.0780846 0
M  V30 368 H 35.0705 6.78884 0.171134 0
M  V30 369 H 33.0165 6.1367 2.3183 0
M  V30 370 H 32.9335 7.46319 1.20596 0
M  V30 371 H 34.2015 7.41818 2.39428 0
M  V30 372 N 38.4306 0.297415 1.54768 0
M  V30 373 C 39.3406 -0.58983 2.27064 0
M  V30 374 C 40.3566 -1.15144 1.30453 0
M  V30 375 O 41.5326 -1.17699 1.63428 0
M  V30 376 C 38.5976 -1.74714 2.9946 0
M  V30 377 C 37.6586 -1.21997 4.11601 0
M  V30 378 C 36.8916 -2.32212 4.80535 0
M  V30 379 O 37.1146 -3.52036 4.48806 0
M  V30 380 O 36.0486 -1.99106 5.68014 0
M  V30 381 H 39.8746 -0.00348199 3.037 0
M  V30 382 H 37.4596 0.0640035 1.49263 0
M  V30 383 H 39.3416 -2.42147 3.44881 0
M  V30 384 H 38.0166 -2.32016 2.25722 0
M  V30 385 H 36.9236 -0.511458 3.70587 0
M  V30 386 H 38.2566 -0.692419 4.87305 0
M  V30 387 N 39.9087 -1.5758 0.0250728 0
M  V30 388 C 41.1547 -1.91917 -0.655413 0
M  V30 389 C 41.4877 -0.901433 -1.72011 0
M  V30 390 O 40.7627 0.0764069 -1.9435 0
M  V30 391 C 41.0457 -3.36751 -1.27558 0
M  V30 392 C 40.8987 -4.49258 -0.220719 0
M  V30 393 C 42.2177 -3.81469 -2.19475 0
M  V30 394 H 39.3367 -0.697925 -0.23679 0
M  V30 395 H 41.9787 -1.89825 0.0815036 0
M  V30 396 H 40.1287 -3.38664 -1.90365 0
M  V30 397 H 41.8007 -4.59478 0.409601 0
M  V30 398 H 40.0437 -4.31415 0.454264 0
M  V30 399 H 40.7147 -5.47618 -0.694175 0
M  V30 400 H 43.1907 -3.81266 -1.66659 0
M  V30 401 H 42.0667 -4.83512 -2.59822 0
M  V30 402 H 42.3277 -3.16744 -3.08424 0
M  V30 403 N 41.3868 0.248026 -1.55636 0
M  V30 404 C 42.3338 1.30707 -1.90222 0
M  V30 405 C 43.3038 1.47881 -0.756332 0
M  V30 406 O 44.4888 1.61883 -1.00988 0
M  V30 407 C 41.6288 2.65769 -2.20138 0
M  V30 408 C 40.7418 2.56612 -3.47526 0
M  V30 409 C 39.8768 3.8402 -3.67017 0
M  V30 410 C 38.9158 3.69476 -4.8801 0
M  V30 411 N 38.0528 4.88774 -5.04029 0
M  V30 412 H 42.8928 1.00512 -2.80538 0
M  V30 413 H 40.4298 0.485055 -1.38873 0
M  V30 414 H 42.3878 3.44386 -2.35487 0
M  V30 415 H 41.0178 2.94115 -1.33027 0
M  V30 416 H 40.0698 1.69571 -3.40514 0
M  V30 417 H 41.3818 2.41774 -4.36287 0
M  V30 418 H 40.5358 4.7108 -3.8232 0
M  V30 419 H 39.2748 4.01754 -2.76487 0
M  V30 420 H 38.2798 2.80799 -4.72686 0
M  V30 421 H 39.5048 3.53238 -5.8 0
M  V30 422 H 37.4508 5.0687 -4.16435 0
M  V30 423 H 37.3678 4.76562 -5.86877 0
M  V30 424 H 38.6358 5.77335 -5.23741 0
M  V30 425 N 42.8649 1.48995 0.513639 0
M  V30 426 C 43.7949 1.67636 1.62544 0
M  V30 427 C 44.7759 0.525087 1.61793 0
M  V30 428 O 45.9609 0.759502 1.78732 0
M  V30 429 C 43.0909 1.73114 3.01079 0
M  V30 430 C 42.0449 2.87905 3.16693 0
M  V30 431 C 41.3709 2.78486 4.56453 0
M  V30 432 C 42.6709 4.29005 2.97913 0
M  V30 433 H 44.3649 2.60716 1.47198 0
M  V30 434 H 41.9109 1.25465 0.706714 0
M  V30 435 H 43.8639 1.84742 3.78746 0
M  V30 436 H 42.5879 0.766241 3.17484 0
M  V30 437 H 41.2469 2.75859 2.41448 0
M  V30 438 H 40.8949 1.7993 4.69717 0
M  V30 439 H 40.5949 3.55523 4.67843 0
M  V30 440 H 42.1189 2.92104 5.36197 0
M  V30 441 H 43.5329 4.41798 3.65359 0
M  V30 442 H 41.9299 5.07166 3.20785 0
M  V30 443 H 42.9999 4.44329 1.94165 0
M  V30 444 N 44.343 -0.763751 1.37857 0
M  V30 445 C 45.568 -1.55805 1.36893 0
M  V30 446 C 45.993 -1.88054 -0.0416135 0
M  V30 447 O 45.351 -1.49825 -1.02089 0
M  V30 448 C 45.399 -2.84012 2.22192 0
M  V30 449 O 44.503 -3.78732 1.63204 0
M  V30 450 H 43.844 -0.471638 0.46739 0
M  V30 451 H 46.374 -0.944657 1.81487 0
M  V30 452 H 46.384 -3.33037 2.35691 0
M  V30 453 H 45.059 -2.59869 3.24716 0
M  V30 454 H 43.636 -3.37402 1.58791 0
M  V30 455 N 45.8211 -1.22559 -0.990812 0
M  V30 456 C 47.0981 -0.959875 -1.70428 0
M  V30 457 C 47.4781 0.524455 -2.04481 0
M  V30 458 O 46.8261 1.49302 -1.72977 0
M  V30 459 C 47.0361 -1.85955 -2.95333 0
M  V30 460 C 48.3841 -2.11687 -3.68068 0
M  V30 461 O 49.4081 -1.8342 -3.05345 0
M  V30 462 O 48.2671 -2.59572 -4.80921 0
M  V30 463 H 45.3611 -0.361154 -0.743974 0
M  V30 464 H 47.9071 -1.33554 -1.04697 0
M  V30 465 H 46.6791 -2.86346 -2.66687 0
M  V30 466 H 46.3021 -1.4856 -3.68803 0
M  V30 467 N 47.2992 1.18797 -1.03562 0
M  V30 468 C 48.5292 1.92319 -0.754773 0
M  V30 469 C 48.9372 1.7612 0.691248 0
M  V30 470 O 48.2802 1.08491 1.48241 0
M  V30 471 C 48.3422 3.44284 -1.03484 0
M  V30 472 C 48.0062 3.84258 -2.47376 0
M  V30 473 C 49.0032 3.88459 -3.45537 0
M  V30 474 C 46.6882 4.15701 -2.81954 0
M  V30 475 C 48.6822 4.23545 -4.76328 0
M  V30 476 C 46.3692 4.50458 -4.12954 0
M  V30 477 C 47.3672 4.54356 -5.09951 0
M  V30 478 O 47.0552 4.88305 -6.38603 0
M  V30 479 H 46.7872 0.617527 -0.275021 0
M  V30 480 H 49.3412 1.51683 -1.38497 0
M  V30 481 H 47.5712 3.85135 -0.347513 0
M  V30 482 H 49.2602 3.99049 -0.7426 0
M  V30 483 H 50.0262 3.6431 -3.20162 0
M  V30 484 H 45.9052 4.11847 -2.0713 0
M  V30 485 H 49.4492 4.26502 -5.52035 0
M  V30 486 H 45.3462 4.74067 -4.38099 0
M  V30 487 H 46.1142 5.06227 -6.43177 0
M  V30 488 N 48.7773 0.814389 1.34928 0
M  V30 489 C 49.7243 0.22822 2.29669 0
M  V30 490 C 50.6943 -0.642164 1.53184 0
M  V30 491 O 51.8793 -0.585605 1.81591 0
M  V30 492 C 49.0193 -0.61089 3.3965 0
M  V30 493 C 48.1323 0.280792 4.31086 0
M  V30 494 C 47.2673 -0.567067 5.28165 0
M  V30 495 C 46.3063 0.324531 6.11239 0
M  V30 496 N 45.4433 -0.483756 7.00431 0
M  V30 497 H 50.2833 1.04153 2.79206 0
M  V30 498 H 47.8203 0.525133 1.37407 0
M  V30 499 H 49.7783 -1.11263 4.0209 0
M  V30 500 H 48.4083 -1.38939 2.91369 0
M  V30 501 H 47.4603 0.900688 3.69583 0
M  V30 502 H 48.7723 0.966723 4.89342 0
M  V30 503 H 47.9263 -1.13363 5.96015 0
M  V30 504 H 46.6653 -1.28654 4.70425 0
M  V30 505 H 45.6703 0.903298 5.42329 0
M  V30 506 H 46.8953 1.04198 6.71059 0
M  V30 507 H 44.8413 -1.18706 6.45171 0
M  V30 508 H 44.7583 0.143965 7.55863 0
M  V30 509 H 46.0263 -1.03334 7.7262 0
M  V30 510 N 50.2554 -1.46986 0.568584 0
M  V30 511 C 51.5034 -2.02041 0.0487022 0
M  V30 512 C 51.8244 -1.44408 -1.31039 0
M  V30 513 O 51.0944 -0.623477 -1.85714 0
M  V30 514 H 49.6744 -0.746849 0.015014 0
M  V30 515 H 52.3364 -1.80257 0.741168 0
M  V30 516 H 51.4324 -3.12085 -0.0308961 0
M  V30 517 N 51.7335 -0.305618 -1.54608 0
M  V30 518 C 52.6805 0.568421 -2.23691 0
M  V30 519 C 53.6505 1.12592 -1.22116 0
M  V30 520 O 54.8355 1.16959 -1.50749 0
M  V30 521 C 51.9755 1.7322 -2.98477 0
M  V30 522 C 51.0885 1.20566 -4.14835 0
M  V30 523 C 50.2235 2.33368 -4.77193 0
M  V30 524 C 49.2625 1.7787 -5.85686 0
M  V30 525 N 48.3995 2.84263 -6.4198 0
M  V30 526 H 53.2395 -0.0272867 -2.97988 0
M  V30 527 H 50.7765 -0.0252363 -1.47078 0
M  V30 528 H 52.7345 2.41675 -3.40072 0
M  V30 529 H 51.3645 2.29947 -2.26548 0
M  V30 530 H 50.4165 0.413223 -3.78149 0
M  V30 531 H 51.7285 0.759417 -4.92985 0
M  V30 532 H 50.8825 3.09761 -5.21664 0
M  V30 533 H 49.6215 2.8132 -3.98385 0
M  V30 534 H 48.6265 0.99968 -5.40635 0
M  V30 535 H 49.8515 1.30816 -6.66381 0
M  V30 536 H 47.7975 3.31541 -5.66053 0
M  V30 537 H 47.7145 2.44149 -7.15491 0
M  V30 538 H 48.9825 3.6054 -6.91109 0
M  V30 539 N 53.2116 1.57565 -0.0334293 0
M  V30 540 C 54.4416 1.95996 0.653398 0
M  V30 541 C 54.8496 0.908749 1.65947 0
M  V30 542 O 54.1926 -0.117471 1.83324 0
M  V30 543 C 54.2546 3.30589 1.41249 0
M  V30 544 C 53.9186 4.53503 0.564263 0
M  V30 545 C 54.9156 5.19647 -0.16225 0
M  V30 546 C 52.6006 4.99801 0.500398 0
M  V30 547 C 54.5946 6.30412 -0.941255 0
M  V30 548 C 52.2816 6.10448 -0.282308 0
M  V30 549 C 53.2796 6.75612 -1.00184 0
M  V30 550 O 52.9676 7.84134 -1.77171 0
M  V30 551 H 52.6996 0.65027 0.184728 0
M  V30 552 H 55.2536 2.05199 -0.0907841 0
M  V30 553 H 53.4836 3.17888 2.20191 0
M  V30 554 H 55.1726 3.53892 1.98784 0
M  V30 555 H 55.9386 4.84846 -0.12227 0
M  V30 556 H 51.8176 4.48883 1.05002 0
M  V30 557 H 55.3616 6.81208 -1.50339 0
M  V30 558 H 51.2586 6.44686 -0.323989 0
M  V30 559 H 52.0266 8.00822 -1.69194 0
M  V30 560 N 54.6897 -0.239769 1.55765 0
M  V30 561 C 55.9357 -0.968234 1.78194 0
M  V30 562 C 56.2687 -1.84701 0.599938 0
M  V30 563 O 55.5437 -1.9031 -0.401524 0
M  V30 564 C 55.8267 -1.8227 3.10564 0
M  V30 565 C 55.6797 -0.971633 4.3918 0
M  V30 566 C 56.9987 -2.80388 3.39221 0
M  V30 567 H 54.1177 -0.350572 0.648281 0
M  V30 568 H 56.7597 -0.238259 1.885 0
M  V30 569 H 54.9097 -2.44507 3.01908 0
M  V30 570 H 56.5817 -0.367408 4.59835 0
M  V30 571 H 54.8247 -0.276276 4.32919 0
M  V30 572 H 55.4957 -1.60346 5.28198 0
M  V30 573 H 57.9717 -2.28287 3.47885 0
M  V30 574 H 56.8477 -3.3729 4.33044 0
M  V30 575 H 57.1087 -3.57212 2.60484 0
M  V30 576 N 56.1678 -1.49265 -0.50573 0
M  V30 577 C 57.4138 -1.58748 -1.26202 0
M  V30 578 C 57.7468 -0.271227 -1.92297 0
M  V30 579 O 57.0218 0.724831 -1.80489 0
M  V30 580 C 57.3048 -2.74332 -2.33268 0
M  V30 581 C 57.1578 -4.15737 -1.71705 0
M  V30 582 C 58.4768 -2.85576 -3.34865 0
M  V30 583 H 55.5958 -0.577826 -0.457478 0
M  V30 584 H 58.2378 -1.81532 -0.560897 0
M  V30 585 H 56.3878 -2.55036 -2.93068 0
M  V30 586 H 58.0598 -4.46537 -1.15769 0
M  V30 587 H 56.3028 -4.21605 -1.02135 0
M  V30 588 H 56.9738 -4.92477 -2.49341 0
M  V30 589 H 59.4498 -3.03127 -2.8505 0
M  V30 590 H 58.3258 -3.68135 -4.07146 0
M  V30 591 H 58.5868 -1.94732 -3.96903 0
M  V30 592 N 57.6459 0.756429 -1.3826 0
M  V30 593 C 58.5759 1.88374 -1.37976 0
M  V30 594 C 59.5569 1.68311 -0.246082 0
M  V30 595 O 60.7419 1.88944 -0.44874 0
M  V30 596 C 57.8719 3.25864 -1.20125 0
M  V30 597 C 56.8259 3.60523 -2.30666 0
M  V30 598 C 56.1519 4.9672 -1.97923 0
M  V30 599 C 57.4519 3.65692 -3.72916 0
M  V30 600 H 59.1459 1.88869 -2.32312 0
M  V30 601 H 56.6919 0.907272 -1.11824 0
M  V30 602 H 58.6449 4.0438 -1.18552 0
M  V30 603 H 57.3689 3.25841 -0.222498 0
M  V30 604 H 56.0279 2.84324 -2.3142 0
M  V30 605 H 55.6759 4.93253 -0.985393 0
M  V30 606 H 55.3759 5.20878 -2.71955 0
M  V30 607 H 56.8999 5.77618 -1.97964 0
M  V30 608 H 58.3139 4.34328 -3.74208 0
M  V30 609 H 56.7109 4.01358 -4.4613 0
M  V30 610 H 57.7809 2.65987 -4.05436 0
M  V30 611 N 59.124 1.23083 0.984299 0
M  V30 612 C 60.371 1.06057 1.72505 0
M  V30 613 C 60.699 -0.403105 1.90277 0
M  V30 614 O 59.954 -1.3149 1.44944 0
M  V30 615 C 60.253 1.72673 3.1292 0
M  V30 616 C 59.919 3.22586 3.15038 0
M  V30 617 C 58.581 3.63489 3.15324 0
M  V30 618 C 60.933 4.185 3.10657 0
M  V30 619 C 58.261 4.98772 3.08939 0
M  V30 620 C 60.613 5.53769 3.05814 0
M  V30 621 C 59.277 5.94041 3.04419 0
M  V30 622 H 58.547 0.388091 0.631242 0
M  V30 623 H 61.194 1.52963 1.15215 0
M  V30 624 H 59.499 1.18116 3.73572 0
M  V30 625 H 61.196 1.56982 3.68996 0
M  V30 626 H 57.786 2.90022 3.15571 0
M  V30 627 H 61.97 3.87911 3.09579 0
M  V30 628 H 57.226 5.29193 3.0621 0
M  V30 629 H 61.4 6.27808 3.0138 0
M  V30 630 H 59.027 6.98833 2.99227 0
M  V30 631 N 60.6021 -1.18246 1.0419 0
M  V30 632 C 61.8491 -1.88257 0.746017 0
M  V30 633 C 62.1771 -1.80429 -0.726331 0
M  V30 634 O 61.4321 -1.2 -1.54591 0
M  V30 635 C 61.7311 -3.38082 1.15911 0
M  V30 636 C 61.3971 -3.66114 2.63195 0
M  V30 637 C 60.0591 -3.73474 3.03432 0
M  V30 638 C 62.4111 -3.78398 3.5842 0
M  V30 639 C 59.7391 -3.90599 4.37778 0
M  V30 640 C 62.0911 -3.97039 4.92487 0
M  V30 641 C 60.7551 -4.02635 5.32392 0
M  V30 642 H 60.0251 -0.688883 0.272987 0
M  V30 643 H 62.6721 -1.3995 1.30715 0
M  V30 644 H 60.9771 -3.88377 0.516806 0
M  V30 645 H 62.6741 -3.90596 0.907516 0
M  V30 646 H 59.2641 -3.61003 2.3103 0
M  V30 647 H 63.4481 -3.72042 3.28479 0
M  V30 648 H 58.7041 -3.93175 4.68213 0
M  V30 649 H 62.8781 -4.05486 5.66175 0
M  V30 650 H 60.5051 -4.15657 6.36501 0
M  V30 651 N 62.0802 -0.821533 -1.34494 0
M  V30 652 C 63.3102 -0.421272 -2.02259 0
M  V30 653 C 63.7182 0.977047 -1.6202 0
M  V30 654 O 63.0612 1.64348 -0.820703 0
M  V30 655 C 63.1232 -0.44231 -3.56769 0
M  V30 656 C 62.7872 -1.79372 -4.20327 0
M  V30 657 C 63.7842 -2.75435 -4.40944 0
M  V30 658 C 61.4692 -2.08182 -4.57127 0
M  V30 659 C 63.4632 -3.98482 -4.97484 0
M  V30 660 C 61.1502 -3.31489 -5.13379 0
M  V30 661 C 62.1482 -4.26457 -5.33501 0
M  V30 662 O 61.8362 -5.47585 -5.88562 0
M  V30 663 H 61.5682 -0.167473 -0.654927 0
M  V30 664 H 64.1222 -1.11073 -1.72777 0
M  V30 665 H 62.3522 0.303836 -3.85505 0
M  V30 666 H 64.0412 -0.0622925 -4.05852 0
M  V30 667 H 64.8072 -2.54473 -4.12878 0
M  V30 668 H 60.6862 -1.35066 -4.4077 0
M  V30 669 H 64.2302 -4.72618 -5.13106 0
M  V30 670 H 60.1272 -3.52316 -5.40873 0
M  V30 671 H 60.8952 -5.49086 -6.06998 0
M  V30 672 N 63.5583 1.46682 -0.576371 0
M  V30 673 C 64.9693 1.86112 -0.148091 0
M  V30 674 C 65.3203 1.48073 1.2872 0
M  V30 675 O 64.4453 0.892656 1.97131 0
M  V30 676 C 65.0403 3.37786 -0.261982 0
M  V30 677 C 63.5993 3.76235 0.111384 0
M  V30 678 C 62.7463 2.70713 -0.60083 0
M  V30 679 H 65.6973 1.37927 -0.78497 0
M  V30 680 H 65.7183 3.77007 0.514364 0
M  V30 681 H 65.2303 3.6544 -1.30671 0
M  V30 682 H 63.3313 3.54198 1.15649 0
M  V30 683 H 63.4443 4.78391 -0.26052 0
M  V30 684 H 61.8083 2.54666 -0.0417783 0
M  V30 685 H 62.5913 3.01208 -1.64708 0
M  V30 686 N 65.0364 0.313813 1.54444 0
M  V30 687 C 65.9664 -0.549454 2.26943 0
M  V30 688 C 66.9474 -1.12741 1.27372 0
M  V30 689 O 68.1324 -1.15436 1.56167 0
M  V30 690 C 65.2624 -1.71523 3.01989 0
M  V30 691 C 64.2164 -1.26703 4.08816 0
M  V30 692 C 63.5424 -2.51898 4.71647 0
M  V30 693 C 64.8424 -0.388962 5.2085 0
M  V30 694 H 66.5364 0.0552661 2.99349 0
M  V30 695 H 64.0824 0.0280207 1.43973 0
M  V30 696 H 66.0354 -2.32535 3.51433 0
M  V30 697 H 64.7594 -2.34639 2.27183 0
M  V30 698 H 63.4184 -0.679896 3.6024 0
M  V30 699 H 63.0664 -3.13356 3.93468 0
M  V30 700 H 62.7664 -2.22605 5.43802 0
M  V30 701 H 64.2904 -3.1369 5.23861 0
M  V30 702 H 65.7044 -0.905107 5.6611 0
M  V30 703 H 64.1014 -0.18924 5.99802 0
M  V30 704 H 65.1714 0.582699 4.81386 0
M  V30 705 N 66.5145 -1.57545 0.0417849 0
M  V30 706 C 67.7915 -1.83642 -0.673433 0
M  V30 707 C 68.1715 -0.928298 -1.89594 0
M  V30 708 O 67.5195 0.0129955 -2.28496 0
M  V30 709 C 67.7295 -3.33155 -1.03964 0
M  V30 710 C 69.0775 -3.99941 -1.42592 0
M  V30 711 O 70.1015 -3.37725 -1.13226 0
M  V30 712 O 68.9605 -5.09619 -1.9736 0
M  V30 713 H 66.0545 -0.757638 -0.331533 0
M  V30 714 H 68.6005 -1.69554 0.070433 0
M  V30 715 H 67.3725 -3.9093 -0.170098 0
M  V30 716 H 66.9955 -3.52396 -1.84126 0
M  V30 717 N 67.9926 0.231505 -1.5589 0
M  V30 718 C 69.2396 0.957352 -1.78441 0
M  V30 719 C 69.5676 1.84726 -0.60882 0
M  V30 720 O 68.8226 1.91416 0.40725 0
M  V30 721 C 69.1216 1.83577 -3.0665 0
M  V30 722 C 68.7876 1.09993 -4.37278 0
M  V30 723 C 67.4496 0.896629 -4.72773 0
M  V30 724 C 69.8016 0.579558 -5.17968 0
M  V30 725 C 67.1296 0.160896 -5.86479 0
M  V30 726 C 69.4816 -0.142783 -6.32439 0
M  V30 727 C 68.1456 -0.357427 -6.66542 0
M  V30 728 H 67.4156 0.35032 -0.65296 0
M  V30 729 H 70.0626 0.226259 -1.90159 0
M  V30 730 H 68.3676 2.63441 -2.90011 0
M  V30 731 H 70.0646 2.39934 -3.21298 0
M  V30 732 H 66.6546 1.26835 -4.09403 0
M  V30 733 H 70.8386 0.724125 -4.90989 0
M  V30 734 H 66.0946 -0.0157293 -6.11398 0
M  V30 735 H 70.2686 -0.553559 -6.94196 0
M  V30 736 H 67.8956 -0.929466 -7.54497 0
M  V30 737 N 69.4707 1.49531 0.497807 0
M  V30 738 C 70.6987 1.62893 1.27567 0
M  V30 739 C 71.1137 0.301585 1.86376 0
M  V30 740 O 70.4707 -0.713335 1.67982 0
M  V30 741 C 70.5217 2.70013 2.40364 0
M  V30 742 O 70.2427 3.976 1.83972 0
M  V30 743 C 71.7437 2.94109 3.31685 0
M  V30 744 H 68.9637 0.548298 0.386794 0
M  V30 745 H 71.5077 1.95584 0.597245 0
M  V30 746 H 69.6627 2.40092 3.04031 0
M  V30 747 H 70.0767 4.56631 2.58047 0
M  V30 748 H 71.5507 3.72788 4.07104 0
M  V30 749 H 72.0277 2.04147 3.88871 0
M  V30 750 H 72.6337 3.2546 2.73781 0
M  V30 751 N 70.9488 -0.749086 1.3866 0
M  V30 752 C 72.1958 -1.50833 1.35114 0
M  V30 753 C 72.5238 -1.94415 -0.0574049 0
M  V30 754 O 71.7788 -1.66065 -1.03541 0
M  V30 755 C 72.0778 -2.7712 2.25697 0
M  V30 756 C 71.7438 -2.52477 3.73585 0
M  V30 757 C 70.4058 -2.45466 4.13884 0
M  V30 758 C 72.7578 -2.31066 4.67181 0
M  V30 759 C 70.0858 -2.15064 5.45861 0
M  V30 760 C 72.4378 -2.02183 5.9942 0
M  V30 761 C 71.1018 -1.93631 6.38798 0
M  V30 762 H 70.3718 -0.551936 0.494416 0
M  V30 763 H 73.0188 -0.860979 1.71054 0
M  V30 764 H 71.3238 -3.46528 1.82827 0
M  V30 765 H 73.0208 -3.35096 2.20254 0
M  V30 766 H 69.6108 -2.58807 3.41638 0
M  V30 767 H 73.7948 -2.35459 4.3689 0
M  V30 768 H 69.0508 -2.06954 5.75308 0
M  V30 769 H 73.2248 -1.8462 6.71482 0
M  V30 770 H 70.8518 -1.69839 7.40985 0
M  V30 771 N 72.4269 -1.23603 -0.977757 0
M  V30 772 C 73.6729 -1.07129 -1.72195 0
M  V30 773 C 74.0059 0.390501 -1.90233 0
M  V30 774 O 73.2809 1.28902 -1.45653 0
M  V30 775 C 73.5639 -1.80031 -3.11867 0
M  V30 776 C 73.4169 -3.33899 -3.01383 0
M  V30 777 C 74.7359 -1.56492 -4.11337 0
M  V30 778 H 71.8549 -0.390571 -0.624999 0
M  V30 779 H 74.4969 -1.52142 -1.13811 0
M  V30 780 H 72.6469 -1.41768 -3.6171 0
M  V30 781 H 74.3189 -3.81699 -2.59043 0
M  V30 782 H 72.5619 -3.62796 -2.37827 0
M  V30 783 H 73.2329 -3.801 -4.00285 0
M  V30 784 H 75.7089 -1.89757 -3.70313 0
M  V30 785 H 74.5849 -2.09973 -5.07151 0
M  V30 786 H 74.8459 -0.500874 -4.39254 0
M  V30 787 N 73.905 1.17692 -1.04816 0
M  V30 788 C 75.145 1.89545 -0.764979 0
M  V30 789 C 75.509 1.78979 0.695028 0
M  V30 790 O 76.71 2.45613 1.09215 0
M  V30 791 C 74.981 3.35659 -1.22751 0
M  V30 792 S 76.54 4.25526 -1.07112 0
M  V30 793 H 73.358 0.654432 -0.27792 0
M  V30 794 H 75.96 1.42163 -1.34201 0
M  V30 795 H 74.664 3.40882 -2.28533 0
M  V30 796 H 74.195 3.88083 -0.644594 0
M  V30 797 H 76.21 4.962 0.00697508 0
M  V30 798 N 75.3831 0.828654 1.34056 0
M  V30 799 C 76.7941 0.477534 1.8049 0
M  V30 800 C 77.1451 -1.00258 1.6865 0
M  V30 801 O 76.2701 -1.78057 1.22982 0
M  V30 802 C 76.8651 0.860018 3.27703 0
M  V30 803 C 75.4241 0.561185 3.72193 0
M  V30 804 C 74.5711 1.07385 2.55663 0
M  V30 805 H 77.5221 1.0183 1.21722 0
M  V30 806 H 77.5431 0.166038 3.80138 0
M  V30 807 H 77.0551 1.93731 3.36288 0
M  V30 808 H 75.1561 -0.506465 3.69142 0
M  V30 809 H 75.2691 1.10926 4.66082 0
M  V30 810 H 73.6331 0.495149 2.49841 0
M  V30 811 H 74.4161 2.15771 2.67016 0
M  V30 812 N 76.8612 -1.46375 0.584142 0
M  V30 813 C 78.0892 -2.06761 0.0759296 0
M  V30 814 C 78.5042 -1.43266 -1.22965 0
M  V30 815 O 77.8612 -0.538458 -1.74376 0
M  V30 816 C 77.9122 -3.61375 -0.0950384 0
M  V30 817 O 77.6332 -4.22495 1.15887 0
M  V30 818 C 79.1342 -4.38693 -0.637434 0
M  V30 819 H 76.3542 -0.668479 0.0581075 0
M  V30 820 H 78.8982 -1.8798 0.805218 0
M  V30 821 H 77.0532 -3.79578 -0.774554 0
M  V30 822 H 77.4672 -5.15385 0.973598 0
M  V30 823 H 78.9412 -5.47464 -0.706237 0
M  V30 824 H 79.4182 -4.06836 -1.65472 0
M  V30 825 H 80.0242 -4.25299 0.00725967 0
M  V30 826 N 78.3393 -0.321999 -1.54275 0
M  V30 827 C 79.2493 0.553631 -2.27974 0
M  V30 828 C 80.2653 1.13054 -1.32268 0
M  V30 829 O 81.4413 1.15084 -1.6528 0
M  V30 830 C 78.5063 1.69927 -3.02201 0
M  V30 831 C 77.5673 1.15433 -4.1349 0
M  V30 832 C 76.8003 2.24537 -4.84168 0
M  V30 833 O 77.0233 3.44852 -4.5435 0
M  V30 834 O 75.9573 1.90044 -5.7111 0
M  V30 835 H 79.7833 -0.0448345 -3.03667 0
M  V30 836 H 77.3683 -0.0877418 -1.49142 0
M  V30 837 H 79.2503 2.3663 -3.48689 0
M  V30 838 H 77.9253 2.28395 -2.29385 0
M  V30 839 H 76.8323 0.452436 -3.71354 0
M  V30 840 H 78.1653 0.614805 -4.88345 0
M  V30 841 N 79.8174 1.5752 -0.0501392 0
M  V30 842 C 81.0664 1.91827 0.623328 0
M  V30 843 C 81.3794 0.930222 1.72065 0
M  V30 844 O 82.5854 1.1653 2.4522 0
M  V30 845 C 81.0414 3.40692 1.16003 0
M  V30 846 C 80.6494 4.479 0.0948811 0
M  V30 847 C 82.3934 3.84034 1.80881 0
M  V30 848 C 80.3004 5.87879 0.644411 0
M  V30 849 H 79.2304 0.715918 0.236596 0
M  V30 850 H 81.8814 1.83115 -0.118861 0
M  V30 851 H 80.2634 3.44405 1.9545 0
M  V30 852 H 81.4374 4.55775 -0.678675 0
M  V30 853 H 79.7524 4.13892 -0.45637 0
M  V30 854 H 82.3494 4.85984 2.22988 0
M  V30 855 H 82.6924 3.20225 2.6601 0
M  V30 856 H 83.2254 3.82833 1.0809 0
M  V30 857 H 79.9644 6.55282 -0.169229 0
M  V30 858 H 79.4844 5.83567 1.38598 0
M  V30 859 H 81.1634 6.37098 1.12763 0
M  V30 860 N 81.2955 -0.223234 1.56011 0
M  V30 861 C 82.5445 -0.945912 1.78144 0
M  V30 862 C 82.8575 -1.85567 0.618396 0
M  V30 863 O 84.0635 -2.61688 0.723318 0
M  V30 864 C 82.5195 -1.73216 3.15475 0
M  V30 865 C 82.1275 -0.868619 4.39499 0
M  V30 866 C 83.8715 -2.44615 3.46935 0
M  V30 867 C 81.7785 -1.65212 5.67855 0
M  V30 868 H 80.7085 -0.356929 0.664167 0
M  V30 869 H 83.3595 -0.199845 1.82409 0
M  V30 870 H 81.7415 -2.52107 3.05382 0
M  V30 871 H 82.9155 -0.120366 4.60643 0
M  V30 872 H 81.2305 -0.26683 4.15544 0
M  V30 873 H 83.8275 -3.03732 4.40058 0
M  V30 874 H 84.1705 -3.17417 2.69355 0
M  V30 875 H 84.7035 -1.72715 3.58349 0
M  V30 876 H 81.4425 -0.967407 6.48322 0
M  V30 877 H 80.9625 -2.37503 5.50774 0
M  V30 878 H 82.6415 -2.21322 6.07968 0
M  V30 879 N 82.7736 -1.49793 -0.48987 0
M  V30 880 C 83.7366 -1.66752 -1.57246 0
M  V30 881 C 84.7366 -0.538867 -1.51502 0
M  V30 882 O 85.9266 -0.805545 -1.54456 0
M  V30 883 C 83.0586 -1.67528 -2.96896 0
M  V30 884 H 84.2516 -2.63321 -1.43534 0
M  V30 885 H 81.8046 -1.38992 -0.714914 0
M  V30 886 H 82.5396 -0.725837 -3.16073 0
M  V30 887 H 82.3246 -2.49504 -3.02473 0
M  V30 888 H 83.8146 -1.82667 -3.7553 0
M  V30 889 N 84.2517 0.741722 -1.39055 0
M  V30 890 C 85.4987 1.50114 -1.35912 0
M  V30 891 C 85.8267 1.94443 0.0470937 0
M  V30 892 O 85.0817 1.66612 1.02659 0
M  V30 893 C 85.3807 2.7592 -2.27163 0
M  V30 894 C 85.0467 2.50493 -3.74919 0
M  V30 895 C 83.7087 2.43267 -4.1518 0
M  V30 896 C 86.0607 2.28585 -4.684 0
M  V30 897 C 83.3887 2.12166 -5.46994 0
M  V30 898 C 85.7407 1.99002 -6.00484 0
M  V30 899 C 84.4047 1.90241 -6.39816 0
M  V30 900 H 83.6747 0.549306 -0.497336 0
M  V30 901 H 86.3217 0.851896 -1.71508 0
M  V30 902 H 84.6267 3.45553 -1.84663 0
M  V30 903 H 86.3237 3.33923 -2.22028 0
M  V30 904 H 82.9137 2.56992 -3.43006 0
M  V30 905 H 87.0977 2.33139 -4.38132 0
M  V30 906 H 82.3537 2.03901 -5.76398 0
M  V30 907 H 86.5277 1.81057 -6.72452 0
M  V30 908 H 84.1547 1.65907 -7.41875 0
M  V30 909 N 85.7298 1.2412 0.971189 0
M  V30 910 C 86.9548 1.10667 1.75407 0
M  V30 911 C 87.3798 -0.337048 1.85056 0
M  V30 912 O 86.7378 -1.24396 1.31892 0
M  V30 913 C 86.7858 1.74726 3.15441 0
M  V30 914 O 85.8898 1.01566 3.99697 0
M  V30 915 H 85.2308 0.387341 0.539317 0
M  V30 916 H 87.7608 1.64358 1.2185 0
M  V30 917 H 87.7708 1.80341 3.6598 0
M  V30 918 H 86.4458 2.79773 3.07734 0
M  V30 919 H 85.0228 1.03713 3.58187 0
M  V30 920 N 87.2079 -1.17134 1.05439 0
M  V30 921 C 88.1559 -2.23289 0.651511 0
M  V30 922 C 89.1499 -1.66186 -0.328411 0
M  V30 923 O 90.3559 -1.78949 -0.194206 0
M  V30 924 H 86.7309 -0.726938 0.192523 0
M  V30 925 H 88.7019 -2.54565 1.55689 0
M  V30 926 C 87.4509 -3.47671 0.0448436 0
M  V30 927 H 86.7739 -3.91918 0.78996 0
M  V30 928 H 88.2139 -4.2353 -0.19964 0
M  V30 929 C 86.6729 -3.14453 -1.20918 0
M  V30 930 O 87.2029 -3.29459 -2.29825 0
M  V30 931 N 85.4089 -2.68657 -1.10779 0
M  V30 932 H 84.9559 -2.56646 -0.221526 0
M  V30 933 H 84.9139 -2.46804 -1.9477 0
M  V30 934 N 88.686 -0.835752 -1.33615 0
M  V30 935 C 90.102 -0.523139 -1.50783 0
M  V30 936 C 90.302 0.950171 -1.77691 0
M  V30 937 O 89.358 1.73411 -1.83534 0
M  V30 938 C 90.671 -1.39378 -2.66448 0
M  V30 939 C 92.219 -1.39223 -2.80332 0
M  V30 940 C 92.694 -2.24765 -3.99055 0
M  V30 941 N 94.185 -2.22458 -4.06284 0
M  V30 942 C 94.92 -2.85386 -4.97336 0
M  V30 943 N 94.416 -3.57354 -5.93523 0
M  V30 944 N 96.209 -2.74872 -4.90308 0
M  V30 945 H 88.36 -1.78952 -1.14411 0
M  V30 946 H 90.623 -0.763297 -0.562212 0
M  V30 947 H 90.329 -2.44061 -2.53234 0
M  V30 948 H 90.203 -1.0676 -3.61776 0
M  V30 949 H 92.59 -0.353136 -2.92979 0
M  V30 950 H 92.671 -1.75846 -1.85773 0
M  V30 951 H 92.315 -3.28732 -3.87167 0
M  V30 952 H 92.245 -1.85485 -4.92852 0
M  V30 953 H 94.736 -1.70119 -3.37443 0
M  V30 954 H 95.049 -4.02584 -6.59656 0
M  V30 955 H 93.394 -3.61461 -5.93608 0
M  V30 956 H 96.585 -2.18213 -4.14126 0
M  V30 957 H 96.758 -3.24199 -5.61069 0
M  V30 958 N 90.1641 1.46063 -0.591896 0
M  V30 959 C 91.1271 2.28854 0.125973 0
M  V30 960 C 92.1271 1.38903 0.810107 0
M  V30 961 O 93.3171 1.61186 0.66066 0
M  V30 962 C 90.4491 3.19526 1.1881 0
M  V30 963 H 91.6421 2.93802 -0.601717 0
M  V30 964 H 89.1951 1.52325 -0.350254 0
M  V30 965 H 89.9301 2.59345 1.94707 0
M  V30 966 H 89.7151 3.85766 0.701936 0
M  V30 967 H 91.2051 3.81817 1.69132 0
M  V30 968 N 91.6422 0.330177 1.54103 0
M  V30 969 C 92.5522 -0.541534 2.28264 0
M  V30 970 C 93.5682 -1.12351 1.32866 0
M  V30 971 O 94.7442 -1.14206 1.65888 0
M  V30 972 C 91.8092 -1.68322 3.03098 0
M  V30 973 C 90.8702 -1.13238 4.14096 0
M  V30 974 C 90.1032 -2.21966 4.85352 0
M  V30 975 O 90.3262 -3.42437 4.56172 0
M  V30 976 O 89.2602 -1.87013 5.7211 0
M  V30 977 H 93.0862 0.060938 3.03639 0
M  V30 978 H 90.6712 0.09565 1.49093 0
M  V30 979 H 92.5532 -2.34777 3.49939 0
M  V30 980 H 91.2282 -2.27176 2.30593 0
M  V30 981 H 90.1352 -0.432736 3.71589 0
M  V30 982 H 91.4682 -0.588898 4.88664 0
M  V30 983 N 93.1203 -1.57491 0.0584922 0
M  V30 984 C 94.3973 -1.84346 -0.653918 0
M  V30 985 C 94.7773 -0.948355 -1.88599 0
M  V30 986 O 94.1253 -0.0112403 -2.28497 0
M  V30 987 C 94.3353 -3.34239 -1.00425 0
M  V30 988 C 95.6833 -4.01431 -1.38342 0
M  V30 989 O 96.7073 -3.38907 -1.09637 0
M  V30 990 O 95.5663 -5.11683 -1.91943 0
M  V30 991 H 92.6603 -0.761112 -0.323478 0
M  V30 992 H 95.2063 -1.6947 0.0884125 0
M  V30 993 H 93.9783 -3.91089 -0.128625 0
M  V30 994 H 93.6013 -3.54329 -1.80378 0
M  V30 995 N 94.5984 0.214957 -1.56127 0
M  V30 996 C 95.8454 0.938372 -1.79446 0
M  V30 997 C 96.1734 1.8407 -0.628378 0
M  V30 998 O 95.4284 1.91837 0.386925 0
M  V30 999 C 95.7274 1.80314 -3.0858 0
M  V30 1000 C 95.3934 1.05349 -4.3842 0
M  V30 1001 C 94.0554 0.846435 -4.73697 0
M  V30 1002 C 96.4074 0.524588 -5.18553 0
M  V30 1003 C 93.7354 0.098683 -5.86617 0
M  V30 1004 C 96.0874 -0.209853 -6.32252 0
M  V30 1005 C 94.7514 -0.428102 -6.66126 0
M  V30 1006 H 94.0214 0.343375 -0.656639 0
M  V30 1007 H 96.6684 0.206077 -1.90388 0
M  V30 1008 H 94.9734 2.6035 -2.92789 0
M  V30 1009 H 96.6704 2.36513 -3.23825 0
M  V30 1010 H 93.2604 1.22486 -4.10725 0
M  V30 1011 H 97.4444 0.672008 -4.91729 0
M  V30 1012 H 92.7004 -0.0805753 -6.11347 0
M  V30 1013 H 96.8744 -0.627157 -6.9357 0
M  V30 1014 H 94.5014 -1.00944 -7.53468 0
M  V30 1015 N 96.0765 1.50051 0.48192 0
M  V30 1016 C 97.4925 1.37237 0.814756 0
M  V30 1017 C 97.6925 0.420109 1.97072 0
M  V30 1018 O 96.7485 -0.141246 2.52105 0
M  V30 1019 C 98.0615 2.78375 1.13701 0
M  V30 1020 C 99.6095 2.87213 1.2441 0
M  V30 1021 C 100.084 4.29161 1.59954 0
M  V30 1022 N 101.575 4.32061 1.66967 0
M  V30 1023 C 102.31 5.38879 1.95952 0
M  V30 1024 N 101.806 6.55918 2.23031 0
M  V30 1025 N 103.599 5.26312 1.97363 0
M  V30 1026 H 95.7505 2.10546 -0.28005 0
M  V30 1027 H 98.0135 0.945921 -0.0627454 0
M  V30 1028 H 97.7195 3.49845 0.360787 0
M  V30 1029 H 97.5935 3.14941 2.07586 0
M  V30 1030 H 99.9805 2.15969 2.01101 0
M  V30 1031 H 100.061 2.54204 0.285299 0
M  V30 1032 H 99.7055 5.00938 0.838067 0
M  V30 1033 H 99.6355 4.59648 2.56966 0
M  V30 1034 H 102.126 3.47661 1.48123 0
M  V30 1035 H 102.439 7.33139 2.44391 0
M  V30 1036 H 100.784 6.59112 2.20447 0
M  V30 1037 H 103.975 4.33876 1.75697 0
M  V30 1038 H 104.148 6.09649 2.19618 0
M  V30 1039 N 97.5546 -0.734337 1.39446 0
M  V30 1040 C 98.5016 -1.84835 1.38219 0
M  V30 1041 C 99.4716 -1.64331 0.24179 0
M  V30 1042 O 100.657 -1.85728 0.437002 0
M  V30 1043 C 97.7966 -3.22355 1.23212 0
M  V30 1044 C 96.9096 -3.5456 2.46801 0
M  V30 1045 C 96.0446 -4.81485 2.24377 0
M  V30 1046 C 95.0836 -5.06536 3.43639 0
M  V30 1047 N 94.2206 -6.24665 3.20528 0
M  V30 1048 H 99.0606 -1.85219 2.33448 0
M  V30 1049 H 96.5976 -0.905039 1.15963 0
M  V30 1050 H 98.5556 -4.0174 1.12522 0
M  V30 1051 H 97.1856 -3.21248 0.316121 0
M  V30 1052 H 96.2376 -2.69872 2.68092 0
M  V30 1053 H 97.5496 -3.6899 3.3563 0
M  V30 1054 H 96.7036 -5.68852 2.10933 0
M  V30 1055 H 95.4426 -4.6923 1.32944 0
M  V30 1056 H 94.4476 -4.17632 3.5758 0
M  V30 1057 H 95.6726 -5.20676 4.35974 0
M  V30 1058 H 93.6186 -6.13696 2.3176 0
M  V30 1059 H 93.5356 -6.39685 4.02913 0
M  V30 1060 H 94.8036 -7.14868 3.10779 0
M  V30 1061 N 99.0327 -1.24633 -0.964593 0
M  V30 1062 C 99.9627 -1.06611 -2.07741 0
M  V30 1063 C 100.944 0.0218666 -1.70086 0
M  V30 1064 O 102.129 -0.145793 -1.93652 0
M  V30 1065 C 99.2587 -0.673444 -3.40708 0
M  V30 1066 C 98.2127 -1.71054 -3.92332 0
M  V30 1067 C 97.5387 -1.17285 -5.21678 0
M  V30 1068 C 98.8387 -3.10718 -4.19824 0
M  V30 1069 H 100.533 -1.99693 -2.23076 0
M  V30 1070 H 98.0787 -0.96152 -1.07195 0
M  V30 1071 H 100.032 -0.534345 -4.17998 0
M  V30 1072 H 98.7557 0.293073 -3.25282 0
M  V30 1073 H 97.4147 -1.83791 -3.17201 0
M  V30 1074 H 97.0627 -0.196847 -5.02615 0
M  V30 1075 H 96.7627 -1.86592 -5.57187 0
M  V30 1076 H 98.2867 -1.04593 -6.01575 0
M  V30 1077 H 99.7007 -3.01192 -4.87808 0
M  V30 1078 H 98.0977 -3.77406 -4.66567 0
M  V30 1079 H 99.1677 -3.58524 -3.26479 0
M  V30 1080 N 100.511 1.16574 -1.06058 0
M  V30 1081 C 101.759 1.86677 -0.77434 0
M  V30 1082 C 102.08 1.81959 0.701147 0
M  V30 1083 O 101.35 1.2515 1.50713 0
M  V30 1084 H 99.9298 0.691134 -0.283449 0
M  V30 1085 H 102.592 1.41378 -1.34158 0
M  V30 1086 H 101.688 2.92181 -1.09711 0
M  V30 1087 N 101.989 0.842826 1.3317 0
M  V30 1088 C 103.229 0.446574 1.99462 0
M  V30 1089 C 103.593 -0.976818 1.65295 0
M  V30 1090 O 104.794 -1.477 2.24584 0
M  V30 1091 C 103.065 0.665353 3.51152 0
M  V30 1092 S 104.624 0.364911 4.3728 0
M  V30 1093 H 101.442 0.167803 0.690915 0
M  V30 1094 H 104.044 1.09297 1.62094 0
M  V30 1095 H 102.748 1.7006 3.73507 0
M  V30 1096 H 102.279 0.00494568 3.934 0
M  V30 1097 H 104.294 -0.813761 4.89482 0
M  V30 1098 N 103.467 -1.45747 0.599634 0
M  V30 1099 C 104.377 -2.34262 -0.125888 0
M  V30 1100 C 105.393 -1.50768 -0.868625 0
M  V30 1101 O 106.569 -1.83592 -0.828003 0
M  V30 1102 C 103.634 -3.28252 -1.11587 0
M  V30 1103 C 102.695 -4.27651 -0.375956 0
M  V30 1104 C 101.928 -5.1715 -1.31877 0
M  V30 1105 O 102.151 -5.09916 -2.55621 0
M  V30 1106 O 101.085 -5.96286 -0.820157 0
M  V30 1107 H 104.911 -2.97688 0.601315 0
M  V30 1108 H 102.496 -1.44999 0.359934 0
M  V30 1109 H 104.378 -3.86191 -1.68626 0
M  V30 1110 H 103.053 -2.67401 -1.82424 0
M  V30 1111 H 101.96 -3.7335 0.236698 0
M  V30 1112 H 103.293 -4.91334 0.29177 0
M  V30 1113 N 104.945 -0.338344 -1.53925 0
M  V30 1114 C 106.191 0.260143 -2.01125 0
M  V30 1115 C 106.524 1.50617 -1.22589 0
M  V30 1116 O 105.799 1.91979 -0.312113 0
M  V30 1117 C 106.082 0.579499 -3.55407 0
M  V30 1118 C 105.935 -0.678264 -4.44657 0
M  V30 1119 C 107.254 1.39122 -4.17532 0
M  V30 1120 H 104.373 0.0930772 -0.731099 0
M  V30 1121 H 107.015 -0.457852 -1.84401 0
M  V30 1122 H 105.165 1.19118 -3.69788 0
M  V30 1123 H 106.837 -1.31631 -4.42121 0
M  V30 1124 H 105.08 -1.3042 -4.13731 0
M  V30 1125 H 105.751 -0.410143 -5.50474 0
M  V30 1126 H 108.227 0.874035 -4.06817 0
M  V30 1127 H 107.103 1.58342 -5.25565 0
M  V30 1128 H 107.364 2.39178 -3.71815 0
M  V30 1129 N 106.423 1.57458 -0.0668435 0
M  V30 1130 C 107.353 2.15468 0.899764 0
M  V30 1131 C 108.334 1.08042 1.31381 0
M  V30 1132 O 109.519 1.36054 1.38574 0
M  V30 1133 C 106.649 2.71232 2.16911 0
M  V30 1134 C 105.603 3.83781 1.89463 0
M  V30 1135 C 104.929 4.26127 3.22986 0
M  V30 1136 C 106.229 5.08238 1.20381 0
M  V30 1137 H 107.923 2.96488 0.416529 0
M  V30 1138 H 105.469 1.4262 0.198908 0
M  V30 1139 H 107.422 3.10458 2.84945 0
M  V30 1140 H 106.146 1.87426 2.67468 0
M  V30 1141 H 104.805 3.45051 1.23836 0
M  V30 1142 H 104.453 3.39249 3.71374 0
M  V30 1143 H 104.153 5.01993 3.05413 0
M  V30 1144 H 105.677 4.67966 3.92225 0
M  V30 1145 H 107.091 5.44811 1.78475 0
M  V30 1146 H 105.488 5.89349 1.13083 0
M  V30 1147 H 106.558 4.84558 0.182153 0
M  V30 1148 N 107.901 -0.206675 1.56239 0
M  V30 1149 C 109.149 -0.927007 1.79586 0
M  V30 1150 C 109.47 -1.8427 0.637929 0
M  V30 1151 O 108.74 -1.92849 -0.344398 0
M  V30 1152 H 107.32 -0.345292 0.662407 0
M  V30 1153 H 109.982 -0.21496 1.93711 0
M  V30 1154 H 109.078 -1.52501 2.72305 0
M  V30 1155 N 109.379 -1.50304 -0.473955 0
M  V30 1156 C 110.625 -1.61389 -1.22806 0
M  V30 1157 C 110.958 -0.311955 -1.91678 0
M  V30 1158 O 110.233 0.686384 -1.81986 0
M  V30 1159 C 110.516 -2.79219 -2.27396 0
M  V30 1160 C 110.369 -4.19286 -1.62848 0
M  V30 1161 C 111.688 -2.92614 -3.28732 0
M  V30 1162 H 108.807 -0.587399 -0.445119 0
M  V30 1163 H 111.449 -1.82681 -0.522265 0
M  V30 1164 H 109.599 -2.61195 -2.87592 0
M  V30 1165 H 111.271 -4.48892 -1.06271 0
M  V30 1166 H 109.514 -4.23677 -0.931693 0
M  V30 1167 H 110.185 -4.97655 -2.38838 0
M  V30 1168 H 112.661 -3.09105 -2.78556 0
M  V30 1169 H 111.537 -3.76688 -3.99246 0
M  V30 1170 H 111.798 -2.03107 -3.92683 0
M  V30 1171 N 110.857 0.726932 -1.39834 0
M  V30 1172 C 112.082 1.52121 -1.40976 0
M  V30 1173 C 112.507 1.88098 -0.00826029 0
M  V30 1174 O 111.865 1.52479 0.980807 0
M  V30 1175 C 111.913 2.78021 -2.29644 0
M  V30 1176 O 111.017 3.74272 -1.73188 0
M  V30 1177 H 110.358 0.45908 -0.479731 0
M  V30 1178 H 112.888 0.896207 -1.83927 0
M  V30 1179 H 112.898 3.26671 -2.44438 0
M  V30 1180 H 111.573 2.51169 -3.31492 0
M  V30 1181 H 110.15 3.33073 -1.6768 0
M  V30 1182 N 112.336 1.25143 0.95797 0
M  V30 1183 C 113.582 1.09855 1.70469 0
M  V30 1184 C 113.915 -0.360187 1.90831 0
M  V30 1185 O 113.19 -1.26568 1.47685 0
M  V30 1186 C 113.473 1.8497 3.08963 0
M  V30 1187 C 113.326 3.38652 2.96032 0
M  V30 1188 C 114.645 1.63016 4.08795 0
M  V30 1189 H 111.764 0.400465 0.618706 0
M  V30 1190 H 114.406 1.53933 1.11376 0
M  V30 1191 H 112.556 1.47505 3.59409 0
M  V30 1192 H 114.228 3.85772 2.52938 0
M  V30 1193 H 112.471 3.66534 2.32025 0
M  V30 1194 H 113.142 3.8642 3.94187 0
M  V30 1195 H 115.618 1.95625 3.67247 0
M  V30 1196 H 114.494 2.18015 5.03747 0
M  V30 1197 H 114.755 0.570692 4.38401 0
M  V30 1198 N 113.814 -1.1601 1.06675 0
M  V30 1199 C 115.091 -1.82679 0.699114 0
M  V30 1200 C 115.471 -1.94559 -0.819137 0
M  V30 1201 O 114.819 -1.49169 -1.73092 0
M  V30 1202 C 115.029 -3.19445 1.40555 0
M  V30 1203 C 116.377 -3.95171 1.55323 0
M  V30 1204 O 117.401 -3.28976 1.36577 0
M  V30 1205 O 116.26 -5.13833 1.86112 0
M  V30 1206 H 113.354 -0.788954 0.247951 0
M  V30 1207 H 115.9 -1.23179 1.16726 0
M  V30 1208 H 114.672 -3.05856 2.44065 0
M  V30 1209 H 114.295 -3.86625 0.927733 0
M  V30 1210 N 115.292 -0.849877 -1.32721 0
M  V30 1211 C 116.517 -0.463856 -2.02146 0
M  V30 1212 C 116.942 0.930449 -1.63476 0
M  V30 1213 O 116.3 1.61033 -0.832952 0
M  V30 1214 C 116.348 -0.604955 -3.55489 0
M  V30 1215 O 115.452 0.36425 -4.10788 0
M  V30 1216 H 114.793 -0.187046 -0.637111 0
M  V30 1217 H 117.323 -1.14775 -1.69375 0
M  V30 1218 H 117.333 -0.490696 -4.05038 0
M  V30 1219 H 116.008 -1.62174 -3.82978 0
M  V30 1220 H 114.585 0.206628 -3.72327 0
M  V30 1221 N 116.77 1.45427 -0.607355 0
M  V30 1222 C 117.702 2.2871 0.149752 0
M  V30 1223 C 118.715 1.39937 0.831958 0
M  V30 1224 O 119.904 1.64313 0.697385 0
M  V30 1225 C 117.004 3.15673 1.23304 0
M  V30 1226 C 116.177 4.32722 0.637996 0
M  V30 1227 C 115.236 5.00895 1.61215 0
M  V30 1228 O 114.262 5.57697 1.13854 0
M  V30 1229 N 115.464 5.00159 2.94655 0
M  V30 1230 H 118.229 2.94328 -0.564882 0
M  V30 1231 H 115.79 1.55612 -0.446823 0
M  V30 1232 H 117.782 3.58144 1.88454 0
M  V30 1233 H 116.352 2.51965 1.8502 0
M  V30 1234 H 115.572 3.93734 -0.191572 0
M  V30 1235 H 116.86 5.08321 0.220665 0
M  V30 1236 H 116.258 4.553 3.35735 0
M  V30 1237 H 114.815 5.46495 3.55228 0
M  V30 1238 N 118.248 0.346503 1.53744 0
M  V30 1239 C 119.495 -0.249104 2.00962 0
M  V30 1240 C 119.823 -1.5032 1.23426 0
M  V30 1241 O 119.078 -1.93217 0.310761 0
M  V30 1242 C 119.377 -0.605809 3.52228 0
M  V30 1243 C 119.043 0.551747 4.47512 0
M  V30 1244 C 117.705 0.86941 4.73281 0
M  V30 1245 C 120.057 1.32818 5.03993 0
M  V30 1246 C 117.385 1.96582 5.52786 0
M  V30 1247 C 119.737 2.41486 5.84694 0
M  V30 1248 C 118.401 2.73808 6.08757 0
M  V30 1249 H 117.671 -0.0911538 0.735372 0
M  V30 1250 H 120.318 0.475027 1.85515 0
M  V30 1251 H 118.623 -1.4107 3.65522 0
M  V30 1252 H 120.32 -1.07858 3.86222 0
M  V30 1253 H 116.91 0.294102 4.2759 0
M  V30 1254 H 121.094 1.09602 4.84047 0
M  V30 1255 H 116.35 2.22045 5.69654 0
M  V30 1256 H 120.524 3.02078 6.27473 0
M  V30 1257 H 118.151 3.58892 6.7015 0
M  V30 1258 N 119.726 -1.57421 0.075193 0
M  V30 1259 C 120.954 -1.97946 -0.602076 0
M  V30 1260 C 121.369 -0.953674 -1.62943 0
M  V30 1261 O 120.726 0.0592551 -1.82404 0
M  V30 1262 C 120.777 -3.38546 -1.26762 0
M  V30 1263 O 120.498 -4.37195 -0.281376 0
M  V30 1264 C 121.999 -3.93966 -2.03239 0
M  V30 1265 H 119.219 -0.650918 -0.162931 0
M  V30 1266 H 121.763 -2.03959 0.148601 0
M  V30 1267 H 119.918 -3.33609 -1.96936 0
M  V30 1268 H 120.332 -5.18975 -0.759267 0
M  V30 1269 H 121.806 -4.94555 -2.45193 0
M  V30 1270 H 122.283 -3.30693 -2.8903 0
M  V30 1271 H 122.889 -4.02315 -1.37924 0
M  V30 1272 N 121.204 0.198386 -1.56346 0
M  V30 1273 C 122.154 1.2499 -1.90687 0
M  V30 1274 C 123.138 1.41158 -0.772217 0
M  V30 1275 O 124.33 1.43584 -1.03502 0
M  V30 1276 C 121.459 2.59542 -2.24706 0
M  V30 1277 C 120.545 2.47181 -3.44619 0
M  V30 1278 N 120.936 2.04495 -4.62618 0
M  V30 1279 C 119.234 2.78082 -3.48692 0
M  V30 1280 C 119.935 2.03945 -5.44776 0
M  V30 1281 N 118.911 2.45323 -4.85095 0
M  V30 1282 H 122.713 0.911149 -2.7942 0
M  V30 1283 H 120.227 0.40684 -1.57221 0
M  V30 1284 H 122.224 3.3549 -2.47491 0
M  V30 1285 H 120.884 2.94244 -1.37298 0
M  V30 1286 H 121.895 1.75256 -4.87345 0
M  V30 1287 H 118.572 3.17002 -2.71691 0
M  V30 1288 H 119.962 1.72872 -6.4928 0
M  V30 1289 N 122.682 1.50554 0.465978 0
M  V30 1290 C 123.612 1.72722 1.57128 0
M  V30 1291 C 124.593 0.576294 1.6004 0
M  V30 1292 O 125.778 0.81598 1.76225 0
M  V30 1293 C 122.908 1.82605 2.95419 0
M  V30 1294 C 121.862 2.97835 3.07373 0
M  V30 1295 C 121.188 2.92867 4.47363 0
M  V30 1296 C 122.488 4.38265 2.84114 0
M  V30 1297 H 124.182 2.65267 1.38829 0
M  V30 1298 H 121.728 1.2765 0.666441 0
M  V30 1299 H 123.681 1.96698 3.72677 0
M  V30 1300 H 122.405 0.866858 3.14886 0
M  V30 1301 H 121.064 2.83401 2.3255 0
M  V30 1302 H 120.712 1.94783 4.63755 0
M  V30 1303 H 120.412 3.70227 4.56296 0
M  V30 1304 H 121.936 3.09015 5.26633 0
M  V30 1305 H 123.35 4.53198 3.51118 0
M  V30 1306 H 121.747 5.17115 3.04487 0
M  V30 1307 H 122.817 4.50281 1.7993 0
M  V30 1308 N 124.16 -0.719506 1.40217 0
M  V30 1309 C 125.123 -1.8153 1.39927 0
M  V30 1310 C 126.123 -1.58095 0.293723 0
M  V30 1311 O 127.313 -1.65209 0.552429 0
M  V30 1312 C 124.445 -3.19561 1.18716 0
M  V30 1313 H 125.638 -1.83186 2.37451 0
M  V30 1314 H 123.191 -0.924746 1.26008 0
M  V30 1315 H 123.926 -3.23557 0.219366 0
M  V30 1316 H 123.711 -3.3797 1.98793 0
M  V30 1317 H 125.201 -3.99598 1.21291 0
M  V30 1318 N 125.638 -1.25649 -0.95132 0
M  V30 1319 C 126.884 -1.11766 -1.69941 0
M  V30 1320 C 127.239 0.33735 -1.89419 0
M  V30 1321 O 126.532 1.24491 -1.45645 0
M  V30 1322 C 126.726 -1.80909 -3.08231 0
M  V30 1323 C 126.555 -3.32984 -3.02245 0
M  V30 1324 C 125.325 -4.02247 -3.05819 0
M  V30 1325 C 127.523 -4.29332 -2.83157 0
M  V30 1326 N 125.505 -5.41072 -2.90024 0
M  V30 1327 C 126.876 -5.55265 -2.75828 0
M  V30 1328 C 128.931 -4.19707 -2.67863 0
M  V30 1329 C 127.634 -6.72671 -2.54767 0
M  V30 1330 C 129.66 -5.36809 -2.48173 0
M  V30 1331 C 129.022 -6.61683 -2.41567 0
M  V30 1332 H 125.121 -0.463708 -0.629682 0
M  V30 1333 H 127.705 -1.58796 -1.12659 0
M  V30 1334 H 125.876 -1.36369 -3.63673 0
M  V30 1335 H 127.608 -1.59739 -3.71841 0
M  V30 1336 H 124.363 -3.53531 -3.15139 0
M  V30 1337 H 124.787 -6.13938 -2.85323 0
M  V30 1338 H 129.429 -3.23907 -2.71743 0
M  V30 1339 H 127.147 -7.68577 -2.49629 0
M  V30 1340 H 130.733 -5.31224 -2.37259 0
M  V30 1341 H 129.613 -7.50768 -2.26531 0
M  V30 1342 N 127.117 1.15442 -1.07289 0
M  V30 1343 C 128.366 1.85557 -0.790669 0
M  V30 1344 C 128.679 1.83186 0.685739 0
M  V30 1345 O 129.885 2.48977 1.0827 0
M  V30 1346 C 128.341 3.33038 -1.36433 0
M  V30 1347 C 127.949 3.43856 -2.8717 0
M  V30 1348 C 129.693 4.0834 -1.1601 0
M  V30 1349 C 127.6 4.85482 -3.3773 0
M  V30 1350 H 126.53 0.695122 -0.292098 0
M  V30 1351 H 129.181 1.30219 -1.29287 0
M  V30 1352 H 127.563 3.88043 -0.789864 0
M  V30 1353 H 128.737 2.98961 -3.50655 0
M  V30 1354 H 127.052 2.81998 -3.06376 0
M  V30 1355 H 129.649 5.12859 -1.51262 0
M  V30 1356 H 129.992 4.16182 -0.0991007 0
M  V30 1357 H 130.525 3.59603 -1.70089 0
M  V30 1358 H 127.264 4.82823 -4.43353 0
M  V30 1359 H 126.784 5.30961 -2.78999 0
M  V30 1360 H 128.463 5.54335 -3.33648 0
M  V30 1361 N 128.595 0.856903 1.32268 0
M  V30 1362 C 129.543 0.291987 2.3076 0
M  V30 1363 C 130.537 -0.585857 1.58947 0
M  V30 1364 O 131.743 -0.47341 1.73663 0
M  V30 1365 H 128.118 0.075721 0.748178 0
M  V30 1366 H 130.089 1.13687 2.75895 0
M  V30 1367 C 128.838 -0.502869 3.44044 0
M  V30 1368 H 128.161 0.163328 3.99466 0
M  V30 1369 H 129.601 -0.863691 4.1511 0
M  V30 1370 C 128.06 -1.68898 2.91505 0
M  V30 1371 O 128.59 -2.78811 2.89184 0
M  V30 1372 N 126.796 -1.51679 2.47875 0
M  V30 1373 H 126.343 -0.622666 2.49961 0
M  V30 1374 H 126.301 -2.31184 2.13076 0
M  V30 1375 N 130.073 -1.45103 0.615059 0
M  V30 1376 C 131.301 -2.06553 0.11977 0
M  V30 1377 C 131.716 -1.45842 -1.19898 0
M  V30 1378 O 131.073 -0.575325 -1.73194 0
M  V30 1379 C 131.124 -3.61495 -0.018364 0
M  V30 1380 O 130.845 -4.19942 1.24822 0
M  V30 1381 C 132.346 -4.39947 -0.544237 0
M  V30 1382 H 129.566 -0.667096 0.0722739 0
M  V30 1383 H 132.11 -1.8623 0.84491 0
M  V30 1384 H 130.265 -3.81135 -0.693865 0
M  V30 1385 H 130.679 -5.13204 1.0827 0
M  V30 1386 H 132.153 -5.48838 -0.589953 0
M  V30 1387 H 132.63 -4.10255 -1.56805 0
M  V30 1388 H 133.236 -4.25188 0.0974703 0
M  V30 1389 N 131.551 -0.354651 -1.53558 0
M  V30 1390 C 132.962 0.126902 -1.86268 0
M  V30 1391 C 133.313 1.49075 -1.27558 0
M  V30 1392 O 132.438 2.08105 -0.5934 0
M  V30 1393 C 133.033 0.237046 -3.3797 0
M  V30 1394 C 131.592 0.662842 -3.70518 0
M  V30 1395 C 130.739 -0.196652 -2.76602 0
M  V30 1396 H 133.69 -0.573849 -1.47962 0
M  V30 1397 H 133.711 1.06259 -3.65362 0
M  V30 1398 H 133.223 -0.755725 -3.80671 0
M  V30 1399 H 131.324 1.66424 -3.33367 0
M  V30 1400 H 131.437 0.445034 -4.77029 0
M  V30 1401 H 129.801 0.332763 -2.52517 0
M  V30 1402 H 130.584 -1.18676 -3.22135 0
M  V30 1403 N 133.029 1.57378 -0.0835403 0
M  V30 1404 C 134.445 1.57246 0.273109 0
M  V30 1405 C 134.645 1.09385 1.69225 0
M  V30 1406 O 133.701 0.765051 2.40631 0
M  V30 1407 C 135.014 3.00614 0.0720628 0
M  V30 1408 C 136.562 3.12684 0.1407 0
M  V30 1409 C 137.037 4.57989 -0.0322094 0
M  V30 1410 N 138.528 4.63194 0.0230085 0
M  V30 1411 C 139.263 5.73335 -0.0861941 0
M  V30 1412 N 138.759 6.9235 -0.24958 0
M  V30 1413 N 140.552 5.62093 -0.0282886 0
M  V30 1414 H 132.703 1.86801 -1.0109 0
M  V30 1415 H 134.966 0.861687 -0.395222 0
M  V30 1416 H 134.672 3.39786 -0.907662 0
M  V30 1417 H 134.546 3.68193 0.81936 0
M  V30 1418 H 136.933 2.73391 1.11092 0
M  V30 1419 H 137.014 2.47719 -0.637896 0
M  V30 1420 H 136.658 4.97973 -0.999247 0
M  V30 1421 H 136.588 5.21 0.765937 0
M  V30 1422 H 139.079 3.77613 0.14722 0
M  V30 1423 H 139.392 7.72117 -0.324733 0
M  V30 1424 H 137.737 6.94415 -0.285097 0
M  V30 1425 H 140.928 4.67997 0.0981408 0
M  V30 1426 H 141.101 6.47895 -0.116845 0
M  V30 1427 N 134.507 -0.190092 1.56449 0
M  V30 1428 C 135.454 -1.23557 1.94942 0
M  V30 1429 C 136.424 -1.44972 0.810696 0
M  V30 1430 O 137.609 -1.58023 1.06927 0
M  V30 1431 C 134.749 -2.57416 2.2985 0
M  V30 1432 C 133.862 -2.43537 3.5681 0
M  V30 1433 C 132.997 -3.70134 3.81017 0
M  V30 1434 C 132.036 -3.51109 5.01387 0
M  V30 1435 N 131.173 -4.6973 5.21822 0
M  V30 1436 H 136.013 -0.900304 2.84075 0
M  V30 1437 H 133.55 -0.43318 1.40577 0
M  V30 1438 H 135.508 -3.35409 2.48106 0
M  V30 1439 H 134.138 -2.88975 1.43852 0
M  V30 1440 H 133.19 -1.56816 3.46573 0
M  V30 1441 H 134.502 -2.25415 4.4496 0
M  V30 1442 H 133.656 -4.56566 3.9954 0
M  V30 1443 H 132.395 -3.91215 2.91207 0
M  V30 1444 H 131.4 -2.63063 4.82782 0
M  V30 1445 H 132.625 -3.31468 5.9271 0
M  V30 1446 H 130.571 -4.91065 4.34961 0
M  V30 1447 H 130.488 -4.54452 6.0416 0
M  V30 1448 H 131.756 -5.57499 5.44808 0
M  V30 1449 N 135.985 -1.50799 -0.457987 0
M  V30 1450 C 136.895 -1.73426 -1.57989 0
M  V30 1451 C 137.911 -0.617745 -1.62665 0
M  V30 1452 O 139.087 -0.897614 -1.80291 0
M  V30 1453 C 136.152 -1.83557 -2.94122 0
M  V30 1454 C 135.213 -3.07345 -2.99729 0
M  V30 1455 C 134.446 -3.16983 -4.29368 0
M  V30 1456 O 134.669 -2.33077 -5.20607 0
M  V30 1457 O 133.603 -4.09812 -4.40837 0
M  V30 1458 H 137.429 -2.68555 -1.41817 0
M  V30 1459 H 135.014 -1.35052 -0.638859 0
M  V30 1460 H 136.896 -1.92326 -3.74952 0
M  V30 1461 H 135.571 -0.916137 -3.10465 0
M  V30 1462 H 134.478 -3.04068 -2.1793 0
M  V30 1463 H 135.811 -3.9891 -2.88326 0
M  V30 1464 N 137.463 0.71206 -1.40597 0
M  V30 1465 C 138.711 1.46907 -1.38791 0
M  V30 1466 C 139.032 1.94998 0.00780391 0
M  V30 1467 O 138.302 1.70587 0.963174 0
M  V30 1468 H 136.882 0.545043 -0.51082 0
M  V30 1469 H 139.544 0.843882 -1.75683 0
M  V30 1470 H 138.64 2.34021 -2.06496 0
M  V30 1471 N 138.941 1.26152 0.944643 0
M  V30 1472 C 140.189 1.11271 1.6871 0
M  V30 1473 C 140.51 -0.345166 1.91921 0
M  V30 1474 O 139.78 -1.24387 1.51343 0
M  V30 1475 H 138.36 0.408783 0.625224 0
M  V30 1476 H 141.022 1.58427 1.1352 0
M  V30 1477 H 140.118 1.62879 2.66227 0
M  V30 1478 N 140.419 -1.14872 1.07899 0
M  V30 1479 C 141.349 -2.2193 0.725887 0
M  V30 1480 C 142.33 -1.67622 -0.28927 0
M  V30 1481 O 143.515 -1.93533 -0.160787 0
M  V30 1482 C 140.645 -3.47061 0.128856 0
M  V30 1483 C 139.599 -4.14363 1.07178 0
M  V30 1484 C 138.925 -5.33636 0.337229 0
M  V30 1485 C 140.225 -4.63492 2.40775 0
M  V30 1486 H 141.919 -2.51724 1.62097 0
M  V30 1487 H 139.465 -1.20991 0.780838 0
M  V30 1488 H 141.418 -4.21199 -0.130147 0
M  V30 1489 H 140.142 -3.16617 -0.80134 0
M  V30 1490 H 138.801 -3.42173 1.3158 0
M  V30 1491 H 138.449 -4.99449 -0.596606 0
M  V30 1492 H 138.149 -5.79609 0.965788 0
M  V30 1493 H 139.673 -6.10539 0.0861567 0
M  V30 1494 H 141.087 -5.2913 2.20669 0
M  V30 1495 H 139.484 -5.20148 2.99276 0
M  V30 1496 H 140.554 -3.78834 3.02676 0
M  V30 1497 N 141.898 -0.863906 -1.31812 0
M  V30 1498 C 143.146 -0.470904 -1.96537 0
M  V30 1499 C 143.467 0.978771 -1.68657 0
M  V30 1500 O 142.737 1.6853 -0.998717 0
M  V30 1501 H 141.317 -0.171148 -0.72713 0
M  V30 1502 H 143.979 -1.10236 -1.60729 0
M  V30 1503 H 143.075 -0.623616 -3.05806 0
M  V30 1504 N 143.376 1.44774 -0.622745 0
M  V30 1505 C 144.787 1.85546 -0.207226 0
M  V30 1506 C 145.138 1.52093 1.23944 0
M  V30 1507 O 144.263 0.95492 1.94191 0
M  V30 1508 C 144.858 3.36781 -0.369313 0
M  V30 1509 C 143.417 3.76399 -0.00836847 0
M  V30 1510 C 142.564 2.68664 -0.686651 0
M  V30 1511 H 145.515 1.3536 -0.828454 0
M  V30 1512 H 145.536 3.78453 0.394162 0
M  V30 1513 H 145.048 3.61098 -1.42231 0
M  V30 1514 H 143.149 3.57698 1.04322 0
M  V30 1515 H 143.262 4.7732 -0.412584 0
M  V30 1516 H 141.626 2.54404 -0.122777 0
M  V30 1517 H 142.409 2.95815 -1.74208 0
M  V30 1518 N 144.854 0.36279 1.53368 0
M  V30 1519 C 145.784 -0.476976 2.28576 0
M  V30 1520 C 146.765 -1.08631 1.30894 0
M  V30 1521 O 147.95 -1.10409 1.59761 0
M  V30 1522 C 145.08 -1.61828 3.07293 0
M  V30 1523 C 144.034 -1.13633 4.1264 0
M  V30 1524 C 143.36 -2.36766 4.79423 0
M  V30 1525 C 144.66 -0.223061 5.21823 0
M  V30 1526 H 146.354 0.150474 2.99022 0
M  V30 1527 H 143.9 0.0738103 1.43811 0
M  V30 1528 H 145.853 -2.21237 3.58653 0
M  V30 1529 H 144.577 -2.27292 2.34533 0
M  V30 1530 H 143.236 -0.564945 3.62221 0
M  V30 1531 H 142.884 -3.0068 4.03238 0
M  V30 1532 H 142.584 -2.05192 5.50609 0
M  V30 1533 H 144.108 -2.96865 5.33576 0
M  V30 1534 H 145.522 -0.724545 5.68703 0
M  V30 1535 H 143.919 0.001678 6.001 0
M  V30 1536 H 144.989 0.735553 4.79289 0
M  V30 1537 N 146.332 -1.57332 0.0918853 0
M  V30 1538 C 147.28 -2.15075 -0.885747 0
M  V30 1539 C 148.274 -1.09277 -1.29441 0
M  V30 1540 O 149.48 -1.27627 -1.26931 0
M  V30 1541 H 145.855 -0.687966 -0.303656 0
M  V30 1542 H 147.826 -2.96047 -0.373995 0
M  V30 1543 C 146.575 -2.74325 -2.13638 0
M  V30 1544 H 145.898 -3.55418 -1.8308 0
M  V30 1545 H 147.338 -3.183 -2.80109 0
M  V30 1546 C 145.797 -1.70062 -2.90827 0
M  V30 1547 O 146.327 -1.13763 -3.85254 0
M  V30 1548 N 144.533 -1.40628 -2.54307 0
M  V30 1549 H 144.08 -1.866 -1.7759 0
M  V30 1550 H 144.038 -0.711043 -3.06254 0
M  V30 1551 N 147.81 0.181792 -1.56548 0
M  V30 1552 C 149.059 0.898348 -1.8059 0
M  V30 1553 C 149.372 1.83862 -0.667379 0
M  V30 1554 O 150.578 2.59678 -0.792446 0
M  V30 1555 C 149.034 1.64791 -3.19956 0
M  V30 1556 C 148.642 0.751789 -4.41647 0
M  V30 1557 C 150.386 2.35331 -3.53298 0
M  V30 1558 C 148.293 1.50098 -5.72035 0
M  V30 1559 H 147.223 0.339194 -0.673397 0
M  V30 1560 H 149.874 0.151413 -1.82874 0
M  V30 1561 H 148.256 2.43921 -3.11959 0
M  V30 1562 H 149.43 -0.0018076 -4.608 0
M  V30 1563 H 147.745 0.156562 -4.16106 0
M  V30 1564 H 150.342 2.91958 -4.47956 0
M  V30 1565 H 150.685 3.10164 -2.77676 0
M  V30 1566 H 151.218 1.63154 -3.62803 0
M  V30 1567 H 147.957 0.795175 -6.50659 0
M  V30 1568 H 147.477 2.22817 -5.56878 0
M  V30 1569 H 149.156 2.05125 -6.13622 0
M  V30 1570 N 149.288 1.51039 0.449983 0
M  V30 1571 C 150.699 1.557 1.03026 0
M  V30 1572 C 151.05 0.372939 1.92623 0
M  V30 1573 O 150.175 -0.511771 2.10261 0
M  V30 1574 C 150.77 2.82171 1.87523 0
M  V30 1575 C 149.329 2.89444 2.40622 0
M  V30 1576 C 148.476 2.50228 1.19504 0
M  V30 1577 H 151.427 1.56999 0.231745 0
M  V30 1578 H 151.448 2.65219 2.72835 0
M  V30 1579 H 150.96 3.68331 1.22286 0
M  V30 1580 H 149.061 2.07685 3.0935 0
M  V30 1581 H 149.174 3.92816 2.74285 0
M  V30 1582 H 147.538 2.03139 1.53644 0
M  V30 1583 H 148.321 3.38719 0.558972 0
M  V30 1584 N 150.766 -0.704594 1.40972 0
M  V30 1585 C 151.696 -1.83124 1.44872 0
M  V30 1586 C 152.677 -1.67281 0.30838 0
M  V30 1587 O 153.862 -1.87149 0.518556 0
M  V30 1588 C 150.992 -3.21181 1.32136 0
M  V30 1589 C 149.946 -3.51714 2.43888 0
M  V30 1590 C 149.272 -4.89032 2.16222 0
M  V30 1591 C 150.572 -3.516 3.86232 0
M  V30 1592 H 152.266 -1.80117 2.39161 0
M  V30 1593 H 149.812 -0.865145 1.15114 0
M  V30 1594 H 151.765 -3.99702 1.33479 0
M  V30 1595 H 150.489 -3.24791 0.343279 0
M  V30 1596 H 149.148 -2.75539 2.41813 0
M  V30 1597 H 148.796 -4.89256 1.16778 0
M  V30 1598 H 148.496 -5.10426 2.911 0
M  V30 1599 H 150.02 -5.69873 2.19265 0
M  V30 1600 H 151.434 -4.2014 3.9007 0
M  V30 1601 H 149.831 -3.84523 4.60719 0
M  V30 1602 H 150.901 -2.50757 4.15029 0
M  V30 1603 N 152.244 -1.26651 -0.937939 0
M  V30 1604 C 153.174 -1.10993 -2.05433 0
M  V30 1605 C 154.155 -0.0142161 -1.70094 0
M  V30 1606 O 155.34 -0.186837 -1.93299 0
M  V30 1607 C 152.47 -0.745561 -3.39203 0
M  V30 1608 C 151.424 -1.79337 -3.88616 0
M  V30 1609 C 150.75 -1.28324 -5.19073 0
M  V30 1610 C 152.05 -3.19553 -4.13138 0
M  V30 1611 H 153.744 -2.0438 -2.1879 0
M  V30 1612 H 151.29 -0.984041 -1.05131 0
M  V30 1613 H 153.243 -0.622888 -4.16771 0
M  V30 1614 H 151.967 0.22401 -3.25831 0
M  V30 1615 H 150.626 -1.90477 -3.13231 0
M  V30 1616 H 150.274 -0.303414 -5.02084 0
M  V30 1617 H 149.974 -1.98369 -5.53103 0
M  V30 1618 H 151.498 -1.1733 -5.99221 0
M  V30 1619 H 152.912 -3.11471 -4.81309 0
M  V30 1620 H 151.309 -3.87218 -4.58457 0
M  V30 1621 H 152.379 -3.65368 -3.18801 0
M  V30 1622 N 153.722 1.14298 -1.08507 0
M  V30 1623 C 154.685 2.17607 -0.719711 0
M  V30 1624 C 155.685 1.58907 0.245997 0
M  V30 1625 O 156.875 1.74181 0.0254081 0
M  V30 1626 C 154.007 3.40842 -0.0627695 0
M  V30 1627 H 155.2 2.51443 -1.63452 0
M  V30 1628 H 152.753 1.28963 -0.88307 0
M  V30 1629 H 153.488 3.12587 0.863716 0
M  V30 1630 H 153.273 3.84713 -0.757504 0
M  V30 1631 H 154.763 4.17221 0.177786 0
M  V30 1632 N 155.201 0.870884 1.31352 0
M  V30 1633 C 156.478 0.402907 1.91405 0
M  V30 1634 C 156.858 -1.11512 1.79244 0
M  V30 1635 O 156.206 -1.94411 1.2007 0
M  V30 1636 C 156.416 0.885301 3.37585 0
M  V30 1637 C 157.764 0.911971 4.14691 0
M  V30 1638 O 158.788 0.831016 3.46371 0
M  V30 1639 O 157.647 1.02927 5.3672 0
M  V30 1640 H 154.741 0.120698 0.818145 0
M  V30 1641 H 157.287 0.958857 1.40014 0
M  V30 1642 H 156.059 1.92889 3.40455 0
M  V30 1643 H 155.682 0.307714 3.96407 0
M  V30 1644 N 156.679 -1.44442 0.630414 0
M  V30 1645 C 157.925 -2.02351 0.134816 0
M  V30 1646 C 158.258 -1.4947 -1.23986 0
M  V30 1647 O 157.533 -0.678475 -1.82283 0
M  V30 1648 C 157.816 -3.59898 0.120707 0
M  V30 1649 C 157.669 -4.23063 1.52767 0
M  V30 1650 C 158.988 -4.36585 -0.555127 0
M  V30 1651 H 156.107 -0.73527 0.0504646 0
M  V30 1652 H 158.749 -1.72022 0.806751 0
M  V30 1653 H 156.899 -3.85868 -0.451477 0
M  V30 1654 H 158.571 -4.08202 2.14869 0
M  V30 1655 H 156.814 -3.80586 2.08175 0
M  V30 1656 H 157.485 -5.32071 1.46984 0
M  V30 1657 H 159.961 -4.16044 -0.0685429 0
M  V30 1658 H 158.837 -5.46294 -0.534185 0
M  V30 1659 H 159.098 -4.11138 -1.62535 0
M  V30 1660 N 158.157 -0.370918 -1.53173 0
M  V30 1661 C 159.385 0.217704 -2.05751 0
M  V30 1662 C 159.8 1.42018 -1.24404 0
M  V30 1663 O 159.157 1.80245 -0.286033 0
M  V30 1664 C 159.208 0.605954 -3.56385 0
M  V30 1665 O 158.929 -0.548734 -4.3465 0
M  V30 1666 C 160.43 1.2524 -4.25241 0
M  V30 1667 H 157.65 0.0371659 -0.66997 0
M  V30 1668 H 160.194 -0.530832 -1.9749 0
M  V30 1669 H 158.349 1.3044 -3.6478 0
M  V30 1670 H 158.763 -0.23376 -5.23979 0
M  V30 1671 H 160.237 1.47458 -5.3194 0
M  V30 1672 H 160.714 2.2143 -3.79296 0
M  V30 1673 H 161.32 0.595233 -4.21114 0
M  V30 1674 N 159.635 1.57281 -0.100228 0
M  V30 1675 C 161.051 1.57527 0.256416 0
M  V30 1676 C 161.251 1.11173 1.68056 0
M  V30 1677 O 160.307 0.79053 2.39806 0
M  V30 1678 C 161.62 3.00673 0.0401747 0
M  V30 1679 C 163.168 3.12815 0.107528 0
M  V30 1680 C 163.643 4.57929 -0.0807834 0
M  V30 1681 N 165.134 4.63193 -0.0261207 0
M  V30 1682 C 165.869 5.73212 -0.146999 0
M  V30 1683 N 165.365 6.92047 -0.322999 0
M  V30 1684 N 167.158 5.62031 -0.0879044 0
M  V30 1685 H 159.309 1.85718 -1.03065 0
M  V30 1686 H 161.572 0.857446 -0.404339 0
M  V30 1687 H 161.278 3.38804 -0.943649 0
M  V30 1688 H 161.152 3.69042 0.780262 0
M  V30 1689 H 163.539 2.74554 1.08186 0
M  V30 1690 H 163.62 2.47028 -0.664134 0
M  V30 1691 H 163.264 4.96886 -1.05201 0
M  V30 1692 H 163.194 5.21783 0.710635 0
M  V30 1693 H 165.685 3.77748 0.107161 0
M  V30 1694 H 165.998 7.7173 -0.406608 0
M  V30 1695 H 164.343 6.94074 -0.358733 0
M  V30 1696 H 167.534 4.68075 0.048498 0
M  V30 1697 H 167.707 6.47734 -0.185557 0
M  V30 1698 N 161.113 -0.173488 1.56642 0
M  V30 1699 C 162.529 -0.525174 1.50712 0
M  V30 1700 C 162.729 -1.8476 0.804107 0
M  V30 1701 O 161.785 -2.49869 0.363574 0
M  V30 1702 C 163.098 -0.559937 2.95441 0
M  V30 1703 C 164.646 -0.647288 3.06234 0
M  V30 1704 C 165.121 -0.712963 4.52417 0
M  V30 1705 N 166.612 -0.775911 4.56655 0
M  V30 1706 C 167.347 -0.847264 5.67106 0
M  V30 1707 N 166.843 -0.879585 6.87194 0
M  V30 1708 N 168.636 -0.886117 5.55071 0
M  V30 1709 H 160.787 0.693681 2.00753 0
M  V30 1710 H 163.05 0.249841 0.914485 0
M  V30 1711 H 162.756 0.343049 3.50023 0
M  V30 1712 H 162.63 -1.40718 3.49969 0
M  V30 1713 H 165.017 -1.5407 2.51687 0
M  V30 1714 H 165.098 0.226586 2.54794 0
M  V30 1715 H 164.742 0.176183 5.07594 0
M  V30 1716 H 164.672 -1.60295 5.0161 0
M  V30 1717 H 167.163 -0.759304 3.70193 0
M  V30 1718 H 167.476 -0.935144 7.67121 0
M  V30 1719 H 165.821 -0.847898 6.89808 0
M  V30 1720 H 169.012 -0.857853 4.60172 0
M  V30 1721 H 169.185 -0.938263 6.41171 0
M  V30 1722 N 162.591 -1.51276 -0.441967 0
M  V30 1723 C 163.521 -1.752 -1.54361 0
M  V30 1724 C 164.502 -0.601682 -1.59103 0
M  V30 1725 O 165.687 -0.843913 -1.74905 0
M  V30 1726 C 162.817 -1.87282 -2.92477 0
M  V30 1727 C 161.771 -3.02687 -3.02596 0
M  V30 1728 C 161.097 -2.99947 -4.42647 0
M  V30 1729 C 162.397 -4.4273 -2.77106 0
M  V30 1730 H 164.091 -2.67442 -1.34592 0
M  V30 1731 H 161.637 -1.28694 -0.646048 0
M  V30 1732 H 163.59 -2.02602 -3.695 0
M  V30 1733 H 162.314 -0.916844 -3.13467 0
M  V30 1734 H 160.973 -2.87065 -2.28012 0
M  V30 1735 H 160.621 -2.02136 -4.60597 0
M  V30 1736 H 160.321 -3.77439 -4.50348 0
M  V30 1737 H 161.845 -3.17354 -5.2165 0
M  V30 1738 H 163.259 -4.58727 -3.43864 0
M  V30 1739 H 161.656 -5.21893 -2.96222 0
M  V30 1740 H 162.726 -4.53087 -1.72744 0
M  V30 1741 N 164.069 0.697108 -1.41344 0
M  V30 1742 C 165.294 1.49096 -1.44171 0
M  V30 1743 C 165.719 1.88038 -0.0481568 0
M  V30 1744 O 165.077 1.54525 0.948243 0
M  V30 1745 C 165.125 2.73088 -2.3549 0
M  V30 1746 O 164.229 3.70514 -1.81088 0
M  V30 1747 H 163.57 0.448801 -0.489361 0
M  V30 1748 H 166.1 0.856992 -1.85787 0
M  V30 1749 H 166.11 3.21413 -2.51312 0
M  V30 1750 H 164.785 2.44081 -3.36745 0
M  V30 1751 H 163.362 3.29441 -1.74708 0
M  V30 1752 N 165.547 1.27147 0.931209 0
M  V30 1753 C 166.457 1.11372 2.06478 0
M  V30 1754 C 167.473 0.044645 1.73943 0
M  V30 1755 O 168.649 0.250417 1.99837 0
M  V30 1756 C 165.714 0.758838 3.38294 0
M  V30 1757 C 164.775 1.90841 3.84549 0
M  V30 1758 C 164.008 1.57036 5.10074 0
M  V30 1759 O 164.231 0.476645 5.68405 0
M  V30 1760 O 163.165 2.40839 5.51616 0
M  V30 1761 H 166.991 2.06493 2.22698 0
M  V30 1762 H 164.576 1.06301 1.04978 0
M  V30 1763 H 166.458 0.574098 4.17471 0
M  V30 1764 H 165.133 -0.162879 3.2329 0
M  V30 1765 H 164.04 2.14819 3.06274 0
M  V30 1766 H 165.373 2.81021 4.04089 0
M  V30 1767 N 167.025 -1.13721 1.09112 0
M  V30 1768 C 168.302 -1.81155 0.737706 0
M  V30 1769 C 168.682 -1.96253 -0.777683 0
M  V30 1770 O 168.03 -1.52807 -1.69889 0
M  V30 1771 C 168.24 -3.16392 1.47299 0
M  V30 1772 C 169.588 -3.91787 1.63671 0
M  V30 1773 O 170.612 -3.26005 1.43524 0
M  V30 1774 O 169.471 -5.0977 1.96969 0
M  V30 1775 H 166.565 -0.783518 0.26463 0
M  V30 1776 H 169.111 -1.20676 1.19312 0
M  V30 1777 H 167.883 -3.0061 2.50498 0
M  V30 1778 H 167.506 -3.8457 1.00953 0
M  V30 1779 N 168.503 -0.877838 -1.30888 0
M  V30 1780 C 169.733 -0.506678 -2.00291 0
M  V30 1781 C 170.141 0.907449 -1.66018 0
M  V30 1782 O 169.484 1.60719 -0.88967 0
M  V30 1783 C 169.546 -0.59323 -3.54572 0
M  V30 1784 C 169.21 -1.97038 -4.12341 0
M  V30 1785 C 170.207 -2.93889 -4.28865 0
M  V30 1786 C 167.892 -2.27383 -4.47886 0
M  V30 1787 C 169.886 -4.19224 -4.80136 0
M  V30 1788 C 167.573 -3.52965 -4.98857 0
M  V30 1789 C 168.571 -4.48701 -5.14934 0
M  V30 1790 O 168.259 -5.72056 -5.64808 0
M  V30 1791 H 167.991 -0.1951 -0.647234 0
M  V30 1792 H 170.545 -1.18301 -1.6791 0
M  V30 1793 H 168.775 0.140057 -3.86446 0
M  V30 1794 H 170.464 -0.234372 -4.05223 0
M  V30 1795 H 171.23 -2.71756 -4.01714 0
M  V30 1796 H 167.109 -1.53639 -4.34645 0
M  V30 1797 H 170.653 -4.93956 -4.92599 0
M  V30 1798 H 166.55 -3.74939 -5.25443 0
M  V30 1799 H 167.318 -5.74337 -5.83163 0
M  V30 1800 N 169.982 1.44106 -0.638065 0
M  V30 1801 C 171.23 2.01579 -0.145043 0
M  V30 1802 C 171.551 1.50496 1.24 0
M  V30 1803 O 170.821 0.711374 1.82527 0
M  V30 1804 H 169.401 0.745282 -0.05063 0
M  V30 1805 H 172.063 1.76516 -0.826327 0
M  V30 1806 H 171.159 3.11877 -0.118039 0
M  V30 1807 N 171.46 0.379036 1.52974 0
M  V30 1808 C 172.706 -0.206727 2.01744 0
M  V30 1809 C 173.039 -1.47314 1.26539 0
M  V30 1810 O 172.314 -1.91084 0.362903 0
M  V30 1811 C 172.597 -0.485066 3.56818 0
M  V30 1812 C 172.45 0.795919 4.42702 0
M  V30 1813 C 173.769 -1.28003 4.21074 0
M  V30 1814 H 170.888 -0.0736607 0.73331 0
M  V30 1815 H 173.53 0.506581 1.83122 0
M  V30 1816 H 171.68 -1.09272 3.72816 0
M  V30 1817 H 173.352 1.43307 4.38476 0
M  V30 1818 H 171.595 1.41344 4.10127 0
M  V30 1819 H 172.266 0.555947 5.49193 0
M  V30 1820 H 174.742 -0.765867 4.08991 0
M  V30 1821 H 173.618 -1.44352 5.29579 0
M  V30 1822 H 173.879 -2.29236 3.78026 0
M  V30 1823 N 172.938 -1.57226 0.108567 0
M  V30 1824 C 173.868 -2.17778 -0.84232 0
M  V30 1825 C 174.849 -1.11487 -1.2847 0
M  V30 1826 O 176.034 -1.39681 -1.34918 0
M  V30 1827 C 173.164 -2.76888 -2.09644 0
M  V30 1828 C 172.118 -3.88669 -1.79221 0
M  V30 1829 C 171.444 -4.34541 -3.11574 0
M  V30 1830 C 172.744 -5.11251 -1.06864 0
M  V30 1831 H 174.438 -2.97489 -0.337774 0
M  V30 1832 H 171.984 -1.43097 -0.161025 0
M  V30 1833 H 173.937 -3.17904 -2.76614 0
M  V30 1834 H 172.661 -1.94451 -2.62405 0
M  V30 1835 H 171.32 -3.48213 -1.14644 0
M  V30 1836 H 170.968 -3.48977 -3.62249 0
M  V30 1837 H 170.668 -5.09914 -2.91996 0
M  V30 1838 H 172.192 -4.782 -3.7968 0
M  V30 1839 H 173.606 -5.49352 -1.63968 0
M  V30 1840 H 172.003 -5.9214 -0.974178 0
M  V30 1841 H 173.073 -4.8487 -0.0536168 0
M  V30 1842 N 174.416 0.165178 -1.56732 0
M  V30 1843 C 175.363 1.2044 -1.96883 0
M  V30 1844 C 176.333 1.43664 -0.833657 0
M  V30 1845 O 177.518 1.56302 -1.09427 0
M  V30 1846 C 174.658 2.53727 -2.33916 0
M  V30 1847 C 173.771 2.3783 -3.6064 0
M  V30 1848 C 172.906 3.64026 -3.86857 0
M  V30 1849 C 171.945 3.43088 -5.06909 0
M  V30 1850 N 171.082 4.61369 -5.29229 0
M  V30 1851 H 175.922 0.854996 -2.85471 0
M  V30 1852 H 173.459 0.41076 -1.41249 0
M  V30 1853 H 175.417 3.31419 -2.53411 0
M  V30 1854 H 174.047 2.8665 -1.48431 0
M  V30 1855 H 173.099 1.51282 -3.49024 0
M  V30 1856 H 174.411 2.18308 -4.4849 0
M  V30 1857 H 173.565 4.50152 -4.06753 0
M  V30 1858 H 172.304 3.86533 -2.97394 0
M  V30 1859 H 171.309 2.55349 -4.86906 0
M  V30 1860 H 172.534 3.21997 -5.97909 0
M  V30 1861 H 170.48 4.84084 -4.42718 0
M  V30 1862 H 170.397 4.44783 -6.11313 0
M  V30 1863 H 171.665 5.48761 -5.53608 0
M  V30 1864 N 175.894 1.51508 0.433938 0
M  V30 1865 C 177.122 1.68157 1.20543 0
M  V30 1866 C 177.537 0.380362 1.84929 0
M  V30 1867 O 176.894 -0.641446 1.70856 0
M  V30 1868 C 176.945 2.79965 2.28696 0
M  V30 1869 O 176.666 4.05045 1.66943 0
M  V30 1870 C 178.167 3.07912 3.18912 0
M  V30 1871 H 175.387 0.56421 0.363191 0
M  V30 1872 H 177.931 1.97941 0.513754 0
M  V30 1873 H 176.086 2.5277 2.93574 0
M  V30 1874 H 176.5 4.67165 2.38448 0
M  V30 1875 H 177.974 3.89719 3.90926 0
M  V30 1876 H 178.451 2.20456 3.79863 0
M  V30 1877 H 179.057 3.36779 2.59731 0
M  V30 1878 N 177.372 -0.689602 1.41712 0
M  V30 1879 C 178.649 -1.44457 1.31877 0
M  V30 1880 C 179.029 -2.11039 -0.0508537 0
M  V30 1881 O 178.377 -2.02138 -1.06547 0
M  V30 1882 C 178.587 -2.45913 2.47645 0
M  V30 1883 C 179.935 -3.10991 2.89084 0
M  V30 1884 O 180.959 -2.56238 2.47428 0
M  V30 1885 O 179.818 -4.10174 3.61137 0
M  V30 1886 H 176.912 -0.64362 0.519309 0
M  V30 1887 H 179.458 -0.719576 1.53689 0
M  V30 1888 H 178.23 -1.95409 3.39015 0
M  V30 1889 H 177.853 -3.25913 2.27742 0
M  V30 1890 N 178.85 -1.27639 -0.924453 0
M  V30 1891 C 179.76 -1.12466 -2.05885 0
M  V30 1892 C 180.776 -0.053869 -1.73917 0
M  V30 1893 O 181.952 -0.261012 -1.99702 0
M  V30 1894 C 179.017 -0.776768 -3.37886 0
M  V30 1895 C 178.078 -1.92878 -3.83532 0
M  V30 1896 C 177.311 -1.59739 -5.09234 0
M  V30 1897 O 177.534 -0.506782 -5.68144 0
M  V30 1898 O 176.468 -2.43761 -5.50331 0
M  V30 1899 H 180.294 -2.07671 -2.21599 0
M  V30 1900 H 177.879 -1.06857 -1.04413 0
M  V30 1901 H 179.761 -0.596229 -4.17161 0
M  V30 1902 H 178.436 0.145732 -3.23372 0
M  V30 1903 H 177.343 -2.1644 -3.0513 0
M  V30 1904 H 178.676 -2.8316 -4.02593 0
M  V30 1905 N 180.328 1.1314 -1.09713 0
M  V30 1906 C 181.576 1.84119 -0.833338 0
M  V30 1907 C 181.897 1.84097 0.642904 0
M  V30 1908 O 181.167 1.29881 1.46655 0
M  V30 1909 H 179.747 0.681766 -0.305293 0
M  V30 1910 H 182.409 1.37038 -1.38588 0
M  V30 1911 H 181.505 2.88543 -1.18951 0
M  V30 1912 N 181.806 0.884767 1.30421 0
M  V30 1913 C 183.055 0.499164 1.95426 0
M  V30 1914 C 183.368 -0.95645 1.70621 0
M  V30 1915 O 184.574 -1.44889 2.29607 0
M  V30 1916 C 183.03 0.84177 3.49917 0
M  V30 1917 C 182.638 2.31514 3.83543 0
M  V30 1918 C 184.382 0.525355 4.21237 0
M  V30 1919 C 182.289 2.59939 5.31212 0
M  V30 1920 H 181.219 0.182944 0.73147 0
M  V30 1921 H 183.87 1.07971 1.48373 0
M  V30 1922 H 182.252 0.190311 3.95542 0
M  V30 1923 H 183.426 3.0109 3.48829 0
M  V30 1924 H 181.741 2.59907 3.25326 0
M  V30 1925 H 184.338 0.714762 5.29901 0
M  V30 1926 H 184.681 -0.535222 4.12845 0
M  V30 1927 H 185.214 1.134 3.81294 0
M  V30 1928 H 181.953 3.64736 5.44654 0
M  V30 1929 H 181.473 1.94972 5.67227 0
M  V30 1930 H 183.152 2.45429 5.98643 0
M  V30 1931 N 183.284 -1.43765 0.645699 0
M  V30 1932 C 184.247 -2.29163 -0.0409488 0
M  V30 1933 C 185.247 -1.41813 -0.757996 0
M  V30 1934 O 186.437 -1.63527 -0.600382 0
M  V30 1935 C 183.569 -3.23716 -1.06869 0
M  V30 1936 H 184.762 -2.91366 0.710345 0
M  V30 1937 H 182.315 -1.5092 0.406547 0
M  V30 1938 H 183.05 -2.66393 -1.84947 0
M  V30 1939 H 182.835 -3.88105 -0.558277 0
M  V30 1940 H 184.325 -3.87831 -1.54845 0
M  V30 1941 N 184.763 -0.387143 -1.52771 0
M  V30 1942 C 185.993 0.195585 -2.05672 0
M  V30 1943 C 186.401 1.41241 -1.25887 0
M  V30 1944 O 185.744 1.81265 -0.298081 0
M  V30 1945 C 185.806 0.632327 -3.53895 0
M  V30 1946 C 185.47 -0.470739 -4.54569 0
M  V30 1947 C 186.467 -1.32746 -5.02667 0
M  V30 1948 C 184.152 -0.637151 -4.98243 0
M  V30 1949 C 186.146 -2.33574 -5.93061 0
M  V30 1950 C 183.833 -1.64877 -5.88438 0
M  V30 1951 C 184.831 -2.49649 -6.35739 0
M  V30 1952 O 184.519 -3.49082 -7.24153 0
M  V30 1953 H 184.251 0.033658 -0.675162 0
M  V30 1954 H 186.805 -0.550221 -1.97893 0
M  V30 1955 H 185.035 1.43008 -3.59285 0
M  V30 1956 H 186.724 1.14048 -3.89548 0
M  V30 1957 H 187.49 -1.21019 -4.69659 0
M  V30 1958 H 183.369 0.0129567 -4.60998 0
M  V30 1959 H 186.913 -2.99777 -6.29904 0
M  V30 1960 H 182.81 -1.76643 -6.2086 0
M  V30 1961 H 183.578 -3.45065 -7.42208 0
M  V30 1962 N 186.241 1.57166 -0.116904 0
M  V30 1963 C 187.657 1.5779 0.239693 0
M  V30 1964 C 187.857 1.1295 1.66867 0
M  V30 1965 O 186.913 0.81592 2.38954 0
M  V30 1966 C 188.226 3.00699 0.00828202 0
M  V30 1967 C 189.774 3.12912 0.0743438 0
M  V30 1968 C 190.249 4.57817 -0.129348 0
M  V30 1969 N 191.74 4.63139 -0.075247 0
M  V30 1970 C 192.475 5.73023 -0.207788 0
M  V30 1971 N 191.971 6.91665 -0.396382 0
M  V30 1972 N 193.764 5.61906 -0.14751 0
M  V30 1973 H 185.915 1.84615 -1.05029 0
M  V30 1974 H 188.178 0.85311 -0.41341 0
M  V30 1975 H 187.884 3.37784 -0.979531 0
M  V30 1976 H 187.758 3.69848 0.741077 0
M  V30 1977 H 190.145 2.75686 1.05268 0
M  V30 1978 H 190.226 2.4631 -0.690297 0
M  V30 1979 H 189.87 4.95742 -1.10465 0
M  V30 1980 H 189.8 5.22507 0.655253 0
M  V30 1981 H 192.291 3.7784 0.0670898 0
M  V30 1982 H 192.604 7.71255 -0.488437 0
M  V30 1983 H 190.949 6.93654 -0.432329 0
M  V30 1984 H 194.14 4.681 -0.00115036 0
M  V30 1985 H 194.313 6.47501 -0.254247 0
M  V30 1986 N 187.719 -0.156864 1.56817 0
M  V30 1987 C 188.967 -0.869404 1.82444 0
M  V30 1988 C 189.288 -1.82147 0.69623 0
M  V30 1989 O 188.558 -1.93847 -0.28287 0
M  V30 1990 H 187.138 -0.324043 0.673056 0
M  V30 1991 H 189.8 -0.153224 1.94297 0
M  V30 1992 H 188.896 -1.43761 2.77019 0
M  V30 1993 N 189.197 -1.51736 -0.425897 0
M  V30 1994 C 190.127 -1.76827 -1.52494 0
M  V30 1995 C 191.108 -0.618524 -1.58456 0
M  V30 1996 O 192.293 -0.862416 -1.74 0
M  V30 1997 C 189.423 -1.90374 -2.90474 0
M  V30 1998 C 188.377 -3.0588 -2.99369 0
M  V30 1999 C 187.703 -3.04625 -4.3944 0
M  V30 2000 C 189.003 -4.45644 -2.72394 0
M  V30 2001 H 190.697 -2.68855 -1.31748 0
M  V30 2002 H 188.243 -1.29372 -0.632362 0
M  V30 2003 H 190.196 -2.0651 -3.6733 0
M  V30 2004 H 188.92 -0.95004 -3.12477 0
M  V30 2005 H 187.579 -2.89467 -2.24954 0
M  V30 2006 H 187.227 -2.0701 -4.58428 0
M  V30 2007 H 186.927 -3.82195 -4.46319 0
M  V30 2008 H 188.451 -3.22869 -5.18255 0
M  V30 2009 H 189.865 -4.62348 -3.38979 0
M  V30 2010 H 188.262 -5.25006 -2.9067 0
M  V30 2011 H 189.332 -4.54893 -1.67929 0
M  V30 2012 N 190.675 0.682077 -1.42076 0
M  V30 2013 C 191.922 1.44215 -1.42156 0
M  V30 2014 C 192.25 1.94468 -0.0354186 0
M  V30 2015 O 191.505 1.70816 0.955002 0
M  V30 2016 C 191.804 2.66036 -2.38662 0
M  V30 2017 C 191.47 2.34366 -3.85206 0
M  V30 2018 C 190.132 2.25439 -4.25124 0
M  V30 2019 C 192.484 2.08513 -4.77673 0
M  V30 2020 C 189.812 1.88775 -5.55501 0
M  V30 2021 C 192.164 1.73354 -6.08384 0
M  V30 2022 C 190.828 1.62933 -6.47309 0
M  V30 2023 H 190.098 0.527718 -0.520187 0
M  V30 2024 H 192.745 0.778387 -1.74967 0
M  V30 2025 H 191.05 3.3741 -1.99152 0
M  V30 2026 H 192.747 3.24205 -2.35991 0
M  V30 2027 H 189.337 2.42213 -3.53597 0
M  V30 2028 H 193.521 2.14346 -4.47626 0
M  V30 2029 H 188.777 1.7927 -5.84527 0
M  V30 2030 H 192.951 1.52373 -6.79526 0
M  V30 2031 H 190.578 1.34292 -7.48244 0
M  V30 2032 N 192.153 1.28127 0.917671 0
M  V30 2033 C 193.402 1.14432 1.66097 0
M  V30 2034 C 193.715 -0.307247 1.93172 0
M  V30 2035 O 194.921 -0.565259 2.65551 0
M  V30 2036 C 193.377 2.00015 2.99202 0
M  V30 2037 C 192.985 3.49889 2.79789 0
M  V30 2038 C 194.729 1.94996 3.77064 0
M  V30 2039 C 192.636 4.27636 4.08511 0
M  V30 2040 H 191.566 0.424662 0.62304 0
M  V30 2041 H 194.217 1.52628 1.01868 0
M  V30 2042 H 192.599 1.54672 3.64544 0
M  V30 2043 H 193.773 4.03162 2.23152 0
M  V30 2044 H 192.088 3.56392 2.15345 0
M  V30 2045 H 194.685 2.50354 4.72469 0
M  V30 2046 H 195.028 0.925819 4.05875 0
M  V30 2047 H 195.561 2.38287 3.18534 0
M  V30 2048 H 192.3 5.30615 3.84874 0
M  V30 2049 H 191.82 3.79137 4.64774 0
M  V30 2050 H 193.499 4.37346 4.76799 0
M  V30 2051 N 193.631 -1.12557 1.10312 0
M  V30 2052 C 194.88 -1.83395 0.839588 0
M  V30 2053 C 195.193 -1.84939 -0.636929 0
M  V30 2054 O 196.399 -2.51761 -1.01631 0
M  V30 2055 C 194.855 -3.29303 1.45215 0
M  V30 2056 C 194.463 -3.36122 2.96186 0
M  V30 2057 C 196.207 -4.05121 1.26796 0
M  V30 2058 C 194.114 -4.76357 3.50483 0
M  V30 2059 H 193.044 -0.687133 0.310425 0
M  V30 2060 H 195.695 -1.26746 1.32694 0
M  V30 2061 H 194.077 -3.85812 0.892469 0
M  V30 2062 H 195.251 -2.89559 3.58458 0
M  V30 2063 H 193.566 -2.73776 3.13745 0
M  V30 2064 H 196.163 -5.08668 1.64806 0
M  V30 2065 H 196.506 -4.15773 0.209409 0
M  V30 2066 H 197.039 -3.54967 1.79563 0
M  V30 2067 H 193.778 -4.70899 4.55998 0
M  V30 2068 H 193.298 -5.23377 2.92978 0
M  V30 2069 H 194.977 -5.45294 3.48228 0
M  V30 2070 N 195.109 -0.891671 -1.2995 0
M  V30 2071 C 196.386 -0.433307 -1.9074 0
M  V30 2072 C 196.766 1.08646 -1.80995 0
M  V30 2073 O 196.114 1.92476 -1.23147 0
M  V30 2074 C 196.324 -0.938895 -3.36134 0
M  V30 2075 C 197.672 -0.977829 -4.13187 0
M  V30 2076 O 198.696 -0.886015 -3.45005 0
M  V30 2077 O 197.555 -1.11453 -5.35015 0
M  V30 2078 H 194.649 -0.133699 -0.816121 0
M  V30 2079 H 197.195 -0.981011 -1.38471 0
M  V30 2080 H 195.967 -1.98281 -3.37343 0
M  V30 2081 H 195.59 -0.37074 -3.95868 0
M  V30 2082 N 196.587 1.43421 -0.653314 0
M  V30 2083 C 197.835 2.01414 -0.166415 0
M  V30 2084 C 198.156 1.51803 1.22397 0
M  V30 2085 O 197.426 0.730693 1.81763 0
M  V30 2086 H 196.006 0.744703 -0.0585319 0
M  V30 2087 H 198.668 1.75629 -0.845003 0
M  V30 2088 H 197.764 3.11734 -0.151111 0
M  V30 2089 N 198.065 0.39524 1.52563 0
M  V30 2090 C 199.012 -0.437036 2.26624 0
M  V30 2091 C 199.982 -1.05281 1.28472 0
M  V30 2092 O 201.167 -1.07971 1.57311 0
M  V30 2093 C 198.307 -1.55524 3.08069 0
M  V30 2094 C 197.42 -0.961745 4.21158 0
M  V30 2095 C 196.555 -2.05149 4.89987 0
M  V30 2096 C 195.594 -1.4342 5.95061 0
M  V30 2097 N 194.731 -2.46351 6.57462 0
M  V30 2098 H 199.571 0.200976 2.97322 0
M  V30 2099 H 197.108 0.110944 1.46681 0
M  V30 2100 H 199.066 -2.21437 3.53584 0
M  V30 2101 H 197.696 -2.16348 2.3957 0
M  V30 2102 H 196.748 -0.192048 3.79915 0
M  V30 2103 H 198.06 -0.470701 4.96574 0
M  V30 2104 H 197.214 -2.78819 5.38837 0
M  V30 2105 H 195.953 -2.57615 4.14109 0
M  V30 2106 H 194.958 -0.682774 5.45544 0
M  V30 2107 H 196.183 -0.917416 6.72875 0
M  V30 2108 H 194.129 -2.97975 5.8442 0
M  V30 2109 H 194.046 -2.02019 7.28508 0
M  V30 2110 H 195.314 -3.19633 7.10954 0
M  V30 2111 N 199.544 -1.57102 0.125237 0
M  V30 2112 C 200.792 -1.95021 -0.530198 0
M  V30 2113 C 201.113 -1.00982 -1.66816 0
M  V30 2114 O 200.383 -0.0672693 -1.95784 0
M  V30 2115 H 198.963 -0.720046 -0.198853 0
M  V30 2116 H 201.625 -1.93916 0.19564 0
M  V30 2117 H 200.721 -2.98211 -0.920681 0
M  V30 2118 N 201.022 0.148545 -1.56898 0
M  V30 2119 C 202.268 0.862694 -1.83536 0
M  V30 2120 C 202.601 1.80889 -0.706604 0
M  V30 2121 O 201.876 1.92328 0.289885 0
M  V30 2122 C 202.159 1.63853 -3.20662 0
M  V30 2123 C 202.012 0.713925 -4.44098 0
M  V30 2124 C 203.331 2.60133 -3.54991 0
M  V30 2125 H 200.45 0.312179 -0.667618 0
M  V30 2126 H 203.092 0.127953 -1.89569 0
M  V30 2127 H 201.242 2.26489 -3.1565 0
M  V30 2128 H 202.914 0.098686 -4.61194 0
M  V30 2129 H 201.157 0.0234019 -4.33794 0
M  V30 2130 H 201.828 1.29278 -5.36648 0
M  V30 2131 H 204.304 2.07616 -3.60603 0
M  V30 2132 H 203.18 3.11468 -4.51972 0
M  V30 2133 H 203.441 3.41417 -2.80868 0
M  V30 2134 N 202.5 1.5196 0.417844 0
M  V30 2135 C 203.43 1.77634 1.51554 0
M  V30 2136 C 204.411 0.626918 1.58126 0
M  V30 2137 O 205.596 0.871632 1.7354 0
M  V30 2138 C 202.726 1.91911 2.8946 0
M  V30 2139 C 201.68 3.07463 2.97743 0
M  V30 2140 C 201.006 3.06951 4.37819 0
M  V30 2141 C 202.306 4.47082 2.70027 0
M  V30 2142 H 204 2.6955 1.3032 0
M  V30 2143 H 201.546 1.29706 0.625492 0
M  V30 2144 H 203.499 2.08455 3.6623 0
M  V30 2145 H 202.223 0.966598 3.11969 0
M  V30 2146 H 200.882 2.90656 2.23416 0
M  V30 2147 H 200.53 2.09438 4.57323 0
M  V30 2148 H 200.23 3.84556 4.44286 0
M  V30 2149 H 201.754 3.25613 5.16535 0
M  V30 2150 H 203.168 4.6414 3.36522 0
M  V30 2151 H 201.565 5.2654 2.87881 0
M  V30 2152 H 202.635 4.55777 1.65514 0
M  V30 2153 N 203.978 -0.674533 1.42435 0
M  V30 2154 C 205.394 -0.98769 1.25367 0
M  V30 2155 C 205.594 -2.00879 0.158044 0
M  V30 2156 O 204.65 -2.48075 -0.470633 0
M  V30 2157 C 205.963 -1.49224 2.6106 0
M  V30 2158 C 207.511 -1.61 2.68417 0
M  V30 2159 C 207.986 -2.14852 4.04478 0
M  V30 2160 N 209.477 -2.22185 4.06434 0
M  V30 2161 C 210.212 -2.64928 5.08528 0
M  V30 2162 N 209.708 -3.07121 6.21006 0
M  V30 2163 N 211.501 -2.64679 4.95885 0
M  V30 2164 H 203.652 0.00152503 2.124 0
M  V30 2165 H 205.915 -0.0618434 0.945981 0
M  V30 2166 H 205.621 -0.816453 3.42092 0
M  V30 2167 H 205.495 -2.47094 2.84999 0
M  V30 2168 H 207.882 -2.27686 1.87732 0
M  V30 2169 H 207.963 -0.616195 2.48267 0
M  V30 2170 H 207.607 -1.48775 4.85622 0
M  V30 2171 H 207.537 -3.15024 4.2198 0
M  V30 2172 H 210.028 -1.92435 3.25234 0
M  V30 2173 H 210.341 -3.38423 6.94759 0
M  V30 2174 H 208.686 -3.04978 6.24511 0
M  V30 2175 H 211.877 -2.31078 4.07088 0
M  V30 2176 H 212.05 -2.9767 5.75584 0
M  V30 2177 N 205.456 -1.28612 -0.910864 0
M  V30 2178 C 206.388 -1.08589 -2.01844 0
M  V30 2179 C 207.401 -0.0367419 -1.62759 0
M  V30 2180 O 208.59 -0.280101 -1.76289 0
M  V30 2181 C 205.69 -0.628626 -3.33019 0
M  V30 2182 C 204.863 -1.75382 -4.00699 0
M  V30 2183 C 203.922 -1.28945 -5.10156 0
M  V30 2184 O 202.948 -1.9922 -5.33198 0
M  V30 2185 N 204.15 -0.154224 -5.80295 0
M  V30 2186 H 206.915 -2.03973 -2.19579 0
M  V30 2187 H 204.476 -1.20403 -1.08234 0
M  V30 2188 H 206.468 -0.301508 -4.03575 0
M  V30 2189 H 205.038 0.232451 -3.11735 0
M  V30 2190 H 204.258 -2.25039 -3.23653 0
M  V30 2191 H 205.546 -2.50854 -4.42662 0
M  V30 2192 H 204.944 0.43194 -5.64049 0
M  V30 2193 H 203.501 0.113599 -6.51701 0
M  V30 2194 N 206.934 1.1197 -1.10907 0
M  V30 2195 C 208.183 1.82947 -0.849302 0
M  V30 2196 C 208.496 1.85275 0.627112 0
M  V30 2197 O 209.702 2.52296 1.00295 0
M  V30 2198 C 208.158 3.28529 -1.46959 0
M  V30 2199 C 207.766 3.34546 -2.97965 0
M  V30 2200 C 209.51 4.04443 -1.28942 0
M  V30 2201 C 207.417 4.74491 -3.53004 0
M  V30 2202 H 206.347 0.685477 -0.314065 0
M  V30 2203 H 208.998 1.2604 -1.33365 0
M  V30 2204 H 207.38 3.85333 -0.912917 0
M  V30 2205 H 208.554 2.87654 -3.59989 0
M  V30 2206 H 206.869 2.72108 -3.15192 0
M  V30 2207 H 209.466 5.07787 -1.67502 0
M  V30 2208 H 209.809 4.15656 -0.231456 0
M  V30 2209 H 210.342 3.5401 -1.81443 0
M  V30 2210 H 207.081 4.68474 -4.58489 0
M  V30 2211 H 206.601 5.21816 -2.9575 0
M  V30 2212 H 208.28 5.4344 -3.51115 0
M  V30 2213 N 208.412 0.89855 1.29475 0
M  V30 2214 C 209.64 0.539261 1.99749 0
M  V30 2215 C 210.055 -0.875716 1.67262 0
M  V30 2216 O 209.412 -1.57786 0.917049 0
M  V30 2217 C 209.463 0.72061 3.54245 0
M  V30 2218 O 209.184 2.07989 3.8558 0
M  V30 2219 C 210.685 0.366118 4.41786 0
M  V30 2220 H 207.905 0.207047 0.638258 0
M  V30 2221 H 210.449 1.20758 1.65039 0
M  V30 2222 H 208.604 0.0994862 3.87272 0
M  V30 2223 H 209.018 2.10841 4.80257 0
M  V30 2224 H 210.492 0.543848 5.49314 0
M  V30 2225 H 210.969 -0.696763 4.33638 0
M  V30 2226 H 211.575 0.964135 4.14228 0
M  V30 2227 N 209.89 -1.43072 0.660911 0
M  V30 2228 C 211.136 -2.0202 0.177708 0
M  V30 2229 C 211.469 -1.52066 -1.20787 0
M  V30 2230 O 210.744 -0.716987 -1.80802 0
M  V30 2231 C 211.027 -3.59561 0.197019 0
M  V30 2232 C 210.88 -4.19727 1.61706 0
M  V30 2233 C 212.199 -4.37664 -0.462396 0
M  V30 2234 H 209.318 -0.734034 0.0660494 0
M  V30 2235 H 211.96 -1.70272 0.843058 0
M  V30 2236 H 210.11 -3.86739 -0.369527 0
M  V30 2237 H 211.782 -4.03553 2.23479 0
M  V30 2238 H 210.025 -3.76084 2.16201 0
M  V30 2239 H 210.696 -5.28834 1.58237 0
M  V30 2240 H 213.172 -4.16095 0.0197215 0
M  V30 2241 H 212.048 -5.47305 -0.418188 0
M  V30 2242 H 212.309 -4.14493 -1.53778 0
M  V30 2243 N 211.368 -0.403325 -1.52352 0
M  V30 2244 C 212.316 0.439752 -2.28405 0
M  V30 2245 C 213.31 1.05089 -1.32863 0
M  V30 2246 O 214.516 0.989759 -1.50345 0
M  V30 2247 H 210.891 0.160587 -0.734653 0
M  V30 2248 H 212.862 -0.222983 -2.97566 0
M  V30 2249 C 211.611 1.54736 -3.11371 0
M  V30 2250 H 210.934 1.08643 -3.84755 0
M  V30 2251 H 212.374 2.1112 -3.67701 0
M  V30 2252 C 210.833 2.51141 -2.24566 0
M  V30 2253 O 211.363 3.54887 -1.88196 0
M  V30 2254 N 209.569 2.21213 -1.8845 0
M  V30 2255 H 209.116 1.36878 -2.18225 0
M  V30 2256 H 209.074 2.85963 -1.30662 0
M  V30 2257 N 212.846 1.57033 -0.133567 0
M  V30 2258 C 214.123 1.87256 0.56522 0
M  V30 2259 C 214.503 1.03726 1.83859 0
M  V30 2260 O 213.851 0.120247 2.28183 0
M  V30 2261 C 214.061 3.3865 0.843636 0
M  V30 2262 C 215.409 4.07574 1.19032 0
M  V30 2263 O 216.433 3.43752 0.933429 0
M  V30 2264 O 215.292 5.20259 1.67312 0
M  V30 2265 H 212.386 0.775678 0.286796 0
M  V30 2266 H 214.932 1.68855 -0.169168 0
M  V30 2267 H 213.704 3.91257 -0.0581149 0
M  V30 2268 H 213.327 3.62532 1.63268 0
M  V30 2269 N 214.325 -0.140222 1.56975 0
M  V30 2270 C 215.255 -1.17456 2.01808 0
M  V30 2271 C 216.236 -1.44415 0.898794 0
M  V30 2272 O 217.421 -1.5522 1.16707 0
M  V30 2273 C 214.551 -2.50607 2.40444 0
M  V30 2274 C 213.505 -2.38155 3.55621 0
M  V30 2275 C 212.831 -3.76078 3.80091 0
M  V30 2276 C 214.131 -1.85991 4.88062 0
M  V30 2277 H 215.825 -0.801743 2.88466 0
M  V30 2278 H 213.371 -0.38422 1.38779 0
M  V30 2279 H 215.324 -3.23197 2.7041 0
M  V30 2280 H 214.048 -2.89737 1.50732 0
M  V30 2281 H 212.707 -1.68016 3.25832 0
M  V30 2282 H 212.355 -4.12656 2.87618 0
M  V30 2283 H 212.055 -3.68606 4.57606 0
M  V30 2284 H 213.579 -4.50206 4.12488 0
M  V30 2285 H 214.993 -2.4838 5.16701 0
M  V30 2286 H 213.39 -1.89393 5.6943 0
M  V30 2287 H 214.46 -0.816023 4.77984 0
M  V30 2288 N 215.803 -1.52179 -0.40978 0
M  V30 2289 C 217.214 -1.58377 -0.988615 0
M  V30 2290 C 217.565 -0.423879 -1.91566 0
M  V30 2291 O 216.69 0.455844 -2.11544 0
M  V30 2292 C 217.285 -2.87044 -1.79976 0
M  V30 2293 C 215.844 -2.95722 -2.32863 0
M  V30 2294 C 214.991 -2.53309 -1.12828 0
M  V30 2295 H 217.942 -1.57558 -0.190039 0
M  V30 2296 H 217.963 -2.7236 -2.65707 0
M  V30 2297 H 217.475 -3.71444 -1.12478 0
M  V30 2298 H 215.576 -2.15814 -3.03735 0
M  V30 2299 H 215.689 -3.99951 -2.63773 0
M  V30 2300 H 214.053 -2.07142 -1.48204 0
M  V30 2301 H 214.836 -3.40082 -0.46897 0
M  V30 2302 N 217.281 0.66697 -1.42791 0
M  V30 2303 C 218.527 1.4291 -1.43891 0
M  V30 2304 C 218.86 1.94114 -0.0578972 0
M  V30 2305 O 218.135 1.71414 0.91911 0
M  V30 2306 C 218.418 2.62049 -2.46987 0
M  V30 2307 C 218.271 2.16426 -3.94309 0
M  V30 2308 C 219.59 3.64266 -2.46978 0
M  V30 2309 H 216.709 0.518306 -0.523954 0
M  V30 2310 H 219.351 0.757321 -1.74255 0
M  V30 2311 H 217.501 3.19361 -2.21225 0
M  V30 2312 H 219.173 1.64221 -4.31079 0
M  V30 2313 H 217.416 1.47925 -4.078 0
M  V30 2314 H 218.087 3.02038 -4.62036 0
M  V30 2315 H 220.563 3.16686 -2.69906 0
M  V30 2316 H 219.439 4.45196 -3.21079 0
M  V30 2317 H 219.7 4.15927 -1.49857 0
M  V30 2318 N 218.759 1.29093 0.90403 0
M  V30 2319 C 220.007 1.16583 1.65085 0
M  V30 2320 C 220.328 -0.283933 1.92922 0
M  V30 2321 O 219.598 -1.19509 1.55224 0
M  V30 2322 H 218.178 0.428467 0.611903 0
M  V30 2323 H 220.84 1.61959 1.08422 0
M  V30 2324 H 219.936 1.71266 2.6091 0
M  V30 2325 N 220.237 -1.11381 1.11499 0
M  V30 2326 C 221.653 -1.35143 0.849031 0
M  V30 2327 C 221.853 -1.94515 -0.525938 0
M  V30 2328 O 220.909 -2.1785 -1.27662 0
M  V30 2329 C 222.222 -2.28249 1.95762 0
M  V30 2330 C 223.77 -2.41812 1.98736 0
M  V30 2331 C 224.245 -3.3824 3.088 0
M  V30 2332 N 225.736 -3.45803 3.08179 0
M  V30 2333 C 226.471 -4.20358 3.89982 0
M  V30 2334 N 225.967 -4.97884 4.8175 0
M  V30 2335 N 227.76 -4.15877 3.78157 0
M  V30 2336 H 219.911 -0.712062 2.00109 0
M  V30 2337 H 222.174 -0.376025 0.870235 0
M  V30 2338 H 221.88 -1.91817 2.94787 0
M  V30 2339 H 221.754 -3.28473 1.85433 0
M  V30 2340 H 224.141 -2.77518 1.00338 0
M  V30 2341 H 224.222 -1.41437 2.13141 0
M  V30 2342 H 223.866 -3.03261 4.07425 0
M  V30 2343 H 223.796 -4.38471 2.91635 0
M  V30 2344 H 226.287 -2.90506 2.41691 0
M  V30 2345 H 226.6 -5.52142 5.40702 0
M  V30 2346 H 224.945 -4.97043 4.85771 0
M  V30 2347 H 228.136 -3.544 3.05808 0
M  V30 2348 H 228.309 -4.73723 4.42143 0
M  V30 2349 N 221.715 -0.905404 -1.28997 0
M  V30 2350 C 222.94 -0.549175 -1.99997 0
M  V30 2351 C 223.365 0.860276 -1.67275 0
M  V30 2352 O 222.723 1.57355 -0.900502 0
M  V30 2353 C 222.771 -0.755185 -3.52604 0
M  V30 2354 O 221.875 0.189692 -4.11964 0
M  V30 2355 H 221.216 -0.213899 -0.628604 0
M  V30 2356 H 223.746 -1.21856 -1.64354 0
M  V30 2357 H 223.756 -0.662045 -4.02593 0
M  V30 2358 H 222.431 -1.78271 -3.75755 0
M  V30 2359 H 221.008 0.0485257 -3.72868 0
M  V30 2360 N 223.193 1.4272 -0.668489 0
M  V30 2361 C 224.439 2.01923 -0.188419 0
M  V30 2362 C 224.772 1.52704 1.19979 0
M  V30 2363 O 224.047 0.726566 1.8042 0
M  V30 2364 C 224.33 3.59451 -0.216085 0
M  V30 2365 C 224.183 4.18864 -1.6393 0
M  V30 2366 C 225.502 4.37903 0.439179 0
M  V30 2367 H 222.621 0.733674 -0.0699412 0
M  V30 2368 H 225.263 1.69822 -0.852076 0
M  V30 2369 H 223.413 3.86929 0.349012 0
M  V30 2370 H 225.085 4.02362 -2.25616 0
M  V30 2371 H 223.328 3.74933 -2.18193 0
M  V30 2372 H 223.999 5.27987 -1.61039 0
M  V30 2373 H 226.475 4.16079 -0.0417878 0
M  V30 2374 H 225.351 5.47519 0.389157 0
M  V30 2375 H 225.612 4.15303 1.51577 0
M  V30 2376 N 224.671 0.411399 1.52136 0
M  V30 2377 C 225.948 -0.222308 1.94333 0
M  V30 2378 C 226.328 -1.6242 1.34844 0
M  V30 2379 O 225.676 -2.22384 0.525145 0
M  V30 2380 C 225.886 -0.226345 3.48265 0
M  V30 2381 C 227.234 -0.444592 4.22266 0
M  V30 2382 O 228.258 -0.305602 3.54887 0
M  V30 2383 O 227.117 -0.718749 5.41753 0
M  V30 2384 H 224.211 -0.143907 0.814383 0
M  V30 2385 H 226.757 0.467506 1.63133 0
M  V30 2386 H 225.529 0.75475 3.83952 0
M  V30 2387 H 225.152 -0.960163 3.85832 0
M  V30 2388 N 226.149 -1.5696 0.141893 0
M  V30 2389 C 227.059 -2.20066 -0.812905 0
M  V30 2390 C 228.075 -1.18344 -1.27557 0
M  V30 2391 O 229.251 -1.50902 -1.33381 0
M  V30 2392 C 226.316 -2.80583 -2.03652 0
M  V30 2393 C 225.377 -3.97414 -1.62359 0
M  V30 2394 C 224.61 -4.55036 -2.78887 0
M  V30 2395 O 224.833 -4.11538 -3.94959 0
M  V30 2396 O 223.767 -5.45376 -2.54653 0
M  V30 2397 H 227.593 -3.02157 -0.305746 0
M  V30 2398 H 225.178 -1.49159 -0.0848799 0
M  V30 2399 H 227.06 -3.19067 -2.75272 0
M  V30 2400 H 225.735 -2.01508 -2.5333 0
M  V30 2401 H 224.642 -3.63656 -0.877775 0
M  V30 2402 H 225.975 -4.77994 -1.17401 0
M  V30 2403 N 227.627 0.131896 -1.57047 0
M  V30 2404 C 228.59 1.14638 -1.98471 0
M  V30 2405 C 229.59 1.35029 -0.873148 0
M  V30 2406 O 230.78 1.31764 -1.13946 0
M  V30 2407 C 227.912 2.50358 -2.31373 0
M  V30 2408 H 229.105 0.79064 -2.8929 0
M  V30 2409 H 226.658 0.375761 -1.51716 0
M  V30 2410 H 227.393 2.90876 -1.43393 0
M  V30 2411 H 227.178 2.36915 -3.12432 0
M  V30 2412 H 228.668 3.23395 -2.64207 0
M  V30 2413 N 229.106 1.52395 0.401703 0
M  V30 2414 C 230.036 1.79231 1.49661 0
M  V30 2415 C 231.017 0.643654 1.57452 0
M  V30 2416 O 232.202 0.889989 1.72606 0
M  V30 2417 C 229.332 1.94971 2.87409 0
M  V30 2418 C 228.286 3.10604 2.94465 0
M  V30 2419 C 227.612 3.11577 4.34538 0
M  V30 2420 C 228.912 4.49921 2.6527 0
M  V30 2421 H 230.606 2.70917 1.27454 0
M  V30 2422 H 228.152 1.30362 0.6117 0
M  V30 2423 H 230.105 2.12328 3.63999 0
M  V30 2424 H 228.829 0.999632 3.10926 0
M  V30 2425 H 227.488 2.93009 2.20321 0
M  V30 2426 H 227.136 2.14277 4.55076 0
M  V30 2427 H 226.836 3.89247 4.40183 0
M  V30 2428 H 228.36 3.31073 5.13053 0
M  V30 2429 H 229.774 4.67683 3.31581 0
M  V30 2430 H 228.171 5.29564 2.82281 0
M  V30 2431 H 229.241 4.57507 1.60671 0
M  V30 2432 N 230.584 -0.659388 1.43143 0
M  V30 2433 C 232 -0.974337 1.26407 0
M  V30 2434 C 232.2 -2.007 0.179341 0
M  V30 2435 O 231.256 -2.4856 -0.444295 0
M  V30 2436 C 232.569 -1.46447 2.62628 0
M  V30 2437 C 234.117 -1.58144 2.7011 0
M  V30 2438 C 234.592 -2.1055 4.06734 0
M  V30 2439 N 236.083 -2.17861 4.08767 0
M  V30 2440 C 236.818 -2.59519 5.1131 0
M  V30 2441 N 236.314 -3.00518 6.24228 0
M  V30 2442 N 238.107 -2.59404 4.98664 0
M  V30 2443 H 230.258 0.0240528 2.12386 0
M  V30 2444 H 232.521 -0.0518065 0.946583 0
M  V30 2445 H 232.227 -0.780123 3.42939 0
M  V30 2446 H 232.101 -2.44058 2.87603 0
M  V30 2447 H 234.488 -2.25682 1.90136 0
M  V30 2448 H 234.569 -0.589828 2.48907 0
M  V30 2449 H 234.213 -1.43616 4.87172 0
M  V30 2450 H 234.143 -3.10531 4.25298 0
M  V30 2451 H 236.634 -1.88975 3.27257 0
M  V30 2452 H 236.947 -3.31036 6.98309 0
M  V30 2453 H 235.292 -2.98337 6.2771 0
M  V30 2454 H 238.483 -2.26747 4.09516 0
M  V30 2455 H 238.656 -2.91548 5.78709 0
M  V30 2456 N 232.062 -1.29571 -0.897171 0
M  V30 2457 C 232.992 -1.17473 -2.01798 0
M  V30 2458 C 233.973 -0.068323 -1.69963 0
M  V30 2459 O 235.158 -0.248239 -1.92607 0
M  V30 2460 C 232.288 -0.853099 -3.36659 0
M  V30 2461 C 231.242 -1.9161 -3.82713 0
M  V30 2462 C 230.568 -1.44773 -5.14728 0
M  V30 2463 C 231.868 -3.32535 -4.02763 0
M  V30 2464 H 233.562 -2.11237 -2.12177 0
M  V30 2465 H 231.108 -1.01699 -1.01948 0
M  V30 2466 H 233.061 -0.755165 -4.14578 0
M  V30 2467 H 231.785 0.120236 -3.26379 0
M  V30 2468 H 230.444 -2.00346 -3.07013 0
M  V30 2469 H 230.092 -0.462995 -5.00865 0
M  V30 2470 H 229.792 -2.15865 -5.46513 0
M  V30 2471 H 231.316 -1.36334 -5.95185 0
M  V30 2472 H 232.73 -3.26626 -4.71156 0
M  V30 2473 H 231.127 -4.01607 -4.45905 0
M  V30 2474 H 232.197 -3.75326 -3.07016 0
M  V30 2475 N 233.54 1.10788 -1.12088 0
M  V30 2476 C 234.786 1.82942 -0.875226 0
M  V30 2477 C 235.119 1.84779 0.597538 0
M  V30 2478 O 234.394 1.30578 1.44152 0
M  V30 2479 C 234.677 3.29789 -1.44606 0
M  V30 2480 C 234.53 3.36307 -2.98693 0
M  V30 2481 C 235.849 4.26064 -1.10261 0
M  V30 2482 H 232.968 0.664195 -0.319397 0
M  V30 2483 H 235.61 1.29867 -1.38689 0
M  V30 2484 H 233.76 3.75118 -1.01089 0
M  V30 2485 H 235.432 2.99487 -3.50864 0
M  V30 2486 H 233.675 2.76318 -3.34411 0
M  V30 2487 H 234.346 4.39694 -3.33726 0
M  V30 2488 H 236.822 3.88951 -1.4784 0
M  V30 2489 H 235.698 5.27183 -1.52869 0
M  V30 2490 H 235.959 4.42098 -0.0142953 0
M  V30 2491 N 235.018 0.912232 1.28515 0
M  V30 2492 C 235.95 0.35676 2.26406 0
M  V30 2493 C 236.963 -0.503933 1.54804 0
M  V30 2494 O 238.152 -0.319059 1.75625 0
M  V30 2495 C 235.252 -0.508825 3.35058 0
M  V30 2496 C 234.425 0.329007 4.36161 0
M  V30 2497 C 233.484 -0.471422 5.24084 0
M  V30 2498 O 232.51 0.115482 5.69083 0
M  V30 2499 N 233.712 -1.77479 5.52704 0
M  V30 2500 H 236.477 1.19818 2.74707 0
M  V30 2501 H 234.038 0.778022 1.4198 0
M  V30 2502 H 236.03 -1.051 3.90815 0
M  V30 2503 H 234.6 -1.25095 2.86478 0
M  V30 2504 H 233.82 1.05256 3.79888 0
M  V30 2505 H 235.108 0.90234 5.00735 0
M  V30 2506 H 234.506 -2.27417 5.17975 0
M  V30 2507 H 233.063 -2.26382 6.11224 0
M  V30 2508 N 236.496 -1.42363 0.676048 0
M  V30 2509 C 237.459 -2.29199 0.00766941 0
M  V30 2510 C 238.459 -1.43389 -0.727745 0
M  V30 2511 O 239.649 -1.64764 -0.56556 0
M  V30 2512 C 236.781 -3.2591 -0.999785 0
M  V30 2513 H 237.974 -2.89794 0.771988 0
M  V30 2514 H 235.527 -1.50024 0.438468 0
M  V30 2515 H 236.262 -2.70256 -1.79255 0
M  V30 2516 H 236.047 -3.89202 -0.475829 0
M  V30 2517 H 237.537 -3.91028 -1.46583 0
M  V30 2518 N 237.974 -0.419461 -1.51915 0
M  V30 2519 C 239.221 0.152939 -2.01922 0
M  V30 2520 C 239.549 1.4426 -1.30458 0
M  V30 2521 O 238.804 1.91514 -0.402593 0
M  V30 2522 C 239.103 0.437067 -3.54717 0
M  V30 2523 C 238.769 -0.764632 -4.44369 0
M  V30 2524 C 237.431 -1.09423 -4.68594 0
M  V30 2525 C 239.783 -1.56713 -4.97082 0
M  V30 2526 C 237.111 -2.22732 -5.42777 0
M  V30 2527 C 239.463 -2.69107 -5.72507 0
M  V30 2528 C 238.127 -3.02541 -5.95 0
M  V30 2529 H 237.397 0.0559644 -0.738884 0
M  V30 2530 H 240.044 -0.562998 -1.83037 0
M  V30 2531 H 238.349 1.23469 -3.71837 0
M  V30 2532 H 240.046 0.893083 -3.90928 0
M  V30 2533 H 236.636 -0.497775 -4.257 0
M  V30 2534 H 240.82 -1.32571 -4.78266 0
M  V30 2535 H 236.076 -2.48971 -5.58411 0
M  V30 2536 H 240.25 -3.31671 -6.12346 0
M  V30 2537 H 237.877 -3.90457 -6.52264 0
M  V30 2538 N 239.452 1.56882 -0.150215 0
M  V30 2539 C 240.384 2.14057 0.819286 0
M  V30 2540 C 241.397 1.09082 1.20851 0
M  V30 2541 O 242.586 1.36347 1.15203 0
M  V30 2542 C 239.686 2.65102 2.11127 0
M  V30 2543 C 238.859 3.94511 1.88891 0
M  V30 2544 C 237.918 4.30834 3.02107 0
M  V30 2545 O 236.944 4.99099 2.73659 0
M  V30 2546 N 238.146 3.90676 4.29363 0
M  V30 2547 H 240.911 2.97871 0.330618 0
M  V30 2548 H 238.472 1.61866 0.0332538 0
M  V30 2549 H 240.464 2.86411 2.85921 0
M  V30 2550 H 239.034 1.85994 2.51247 0
M  V30 2551 H 238.254 3.81795 0.981152 0
M  V30 2552 H 239.542 4.7907 1.71376 0
M  V30 2553 H 238.94 3.35677 4.55343 0
M  V30 2554 H 237.497 4.1703 5.00928 0
M  V30 2555 N 240.93 -0.123565 1.57115 0
M  V30 2556 C 242.16 -0.845233 1.88519 0
M  V30 2557 C 242.568 -1.74168 0.739064 0
M  V30 2558 O 241.911 -1.81244 -0.299355 0
M  V30 2559 C 241.973 -1.73452 3.14888 0
M  V30 2560 C 241.637 -1.01285 4.45635 0
M  V30 2561 C 242.634 -0.355774 5.18681 0
M  V30 2562 C 240.319 -0.99538 4.92339 0
M  V30 2563 C 242.313 0.309114 6.3665 0
M  V30 2564 C 240 -0.32669 6.10226 0
M  V30 2565 C 240.998 0.324406 6.82229 0
M  V30 2566 O 240.686 0.982437 7.97874 0
M  V30 2567 H 240.418 -0.248534 0.628655 0
M  V30 2568 H 242.972 -0.113907 2.05084 0
M  V30 2569 H 241.202 -2.50737 2.94394 0
M  V30 2570 H 242.891 -2.33021 3.32349 0
M  V30 2571 H 243.657 -0.360918 4.83655 0
M  V30 2572 H 239.536 -1.49159 4.36202 0
M  V30 2573 H 243.08 0.8179 6.92789 0
M  V30 2574 H 238.977 -0.319294 6.4471 0
M  V30 2575 H 239.745 0.886454 8.13686 0
M  V30 2576 N 242.408 -1.52605 -0.393616 0
M  V30 2577 C 243.636 -1.71294 -1.16043 0
M  V30 2578 C 244.051 -0.429259 -1.83855 0
M  V30 2579 O 243.408 0.595921 -1.72496 0
M  V30 2580 C 243.459 -2.8593 -2.21193 0
M  V30 2581 O 243.18 -4.09329 -1.56146 0
M  V30 2582 C 244.681 -3.16259 -3.10636 0
M  V30 2583 H 241.901 -0.573641 -0.348104 0
M  V30 2584 H 244.445 -1.99234 -0.461092 0
M  V30 2585 H 242.6 -2.60465 -2.86769 0
M  V30 2586 H 243.014 -4.73323 -2.25978 0
M  V30 2587 H 244.488 -3.99946 -3.80456 0
M  V30 2588 H 244.965 -2.3045 -3.73884 0
M  V30 2589 H 245.571 -3.43547 -2.50711 0
M  V30 2590 N 243.887 0.651787 -1.4349 0
M  V30 2591 C 245.164 1.40909 -1.35661 0
M  V30 2592 C 245.544 2.11099 -0.00511733 0
M  V30 2593 O 244.892 2.04892 1.0115 0
M  V30 2594 C 245.102 2.3926 -2.54078 0
M  V30 2595 C 246.45 3.03217 -2.97228 0
M  V30 2596 O 247.474 2.49588 -2.54135 0
M  V30 2597 O 246.333 4.00455 -3.71885 0
M  V30 2598 H 243.427 0.629625 -0.536191 0
M  V30 2599 H 245.973 0.678575 -1.55542 0
M  V30 2600 H 244.745 1.86352 -3.44076 0
M  V30 2601 H 244.368 3.1976 -2.36303 0
M  V30 2602 N 245.365 1.30045 0.890287 0
M  V30 2603 C 246.275 1.17885 2.02831 0
M  V30 2604 C 247.291 0.0999609 1.73713 0
M  V30 2605 O 248.467 0.313867 1.98939 0
M  V30 2606 C 245.532 0.866079 3.35708 0
M  V30 2607 C 244.593 2.02979 3.78283 0
M  V30 2608 C 243.826 1.73184 5.0482 0
M  V30 2609 O 244.049 0.657237 5.66601 0
M  V30 2610 O 242.983 2.58267 5.43674 0
M  V30 2611 H 246.809 2.13474 2.16015 0
M  V30 2612 H 244.394 1.09587 1.01543 0
M  V30 2613 H 246.276 0.706623 4.15433 0
M  V30 2614 H 244.951 -0.0599443 3.23644 0
M  V30 2615 H 243.858 2.24454 2.99285 0
M  V30 2616 H 245.191 2.93734 3.94944 0
M  V30 2617 N 246.843 -1.10192 1.12674 0
M  V30 2618 C 247.793 -2.14754 0.765801 0
M  V30 2619 C 248.777 -1.59154 -0.236409 0
M  V30 2620 O 249.969 -1.76951 -0.0415261 0
M  V30 2621 C 247.098 -3.42563 0.224827 0
M  V30 2622 C 246.184 -4.05091 1.25548 0
M  V30 2623 N 246.575 -4.42287 2.4539 0
M  V30 2624 C 244.873 -4.32186 1.10142 0
M  V30 2625 C 245.574 -4.91441 3.11224 0
M  V30 2626 N 244.55 -4.88405 2.38666 0
M  V30 2627 H 248.352 -2.41309 1.67772 0
M  V30 2628 H 245.866 -1.27339 1.00789 0
M  V30 2629 H 247.863 -4.16868 -0.0519578 0
M  V30 2630 H 246.523 -3.17467 -0.681515 0
M  V30 2631 H 247.534 -4.33902 2.82754 0
M  V30 2632 H 244.211 -4.16735 0.252587 0
M  V30 2633 H 245.601 -5.29749 4.13298 0
M  V30 2634 N 248.321 -0.919034 -1.28029 0
M  V30 2635 C 249.569 -0.553838 -1.94363 0
M  V30 2636 C 249.89 0.906357 -1.72656 0
M  V30 2637 O 249.16 1.64143 -1.0693 0
M  V30 2638 H 247.74 -0.201834 -0.719216 0
M  V30 2639 H 250.402 -1.16954 -1.55909 0
M  V30 2640 H 249.498 -0.752758 -3.02886 0
M  V30 2641 N 249.799 1.42003 -0.683588 0
M  V30 2642 C 250.709 2.34597 -0.0109075 0
M  V30 2643 C 251.725 1.55576 0.779245 0
M  V30 2644 O 252.901 1.88107 0.719555 0
M  V30 2645 C 249.966 3.34199 0.922588 0
M  V30 2646 C 249.027 4.29115 0.125984 0
M  V30 2647 C 248.26 5.23959 1.01502 0
M  V30 2648 O 248.483 5.23952 2.25456 0
M  V30 2649 O 247.417 6.00053 0.47111 0
M  V30 2650 H 251.243 2.93675 -0.773853 0
M  V30 2651 H 248.828 1.42654 -0.443861 0
M  V30 2652 H 250.71 3.95365 1.45823 0
M  V30 2653 H 249.385 2.77582 1.66523 0
M  V30 2654 H 248.292 3.71335 -0.453969 0
M  V30 2655 H 249.625 4.88798 -0.577736 0
M  V30 2656 N 251.277 0.427512 1.51691 0
M  V30 2657 C 252.523 -0.142439 2.02299 0
M  V30 2658 C 252.856 -1.43214 1.31162 0
M  V30 2659 O 252.131 -1.89833 0.423511 0
M  V30 2660 C 252.414 -0.371301 3.58181 0
M  V30 2661 C 252.267 0.936358 4.39946 0
M  V30 2662 C 253.586 -1.14542 4.24933 0
M  V30 2663 H 250.705 -0.0502937 0.735282 0
M  V30 2664 H 253.347 0.564584 1.81418 0
M  V30 2665 H 251.497 -0.973559 3.76104 0
M  V30 2666 H 253.169 1.57184 4.33694 0
M  V30 2667 H 251.412 1.5432 4.05423 0
M  V30 2668 H 252.083 0.730388 5.47147 0
M  V30 2669 H 254.559 -0.635362 4.11221 0
M  V30 2670 H 253.435 -1.27431 5.33903 0
M  V30 2671 H 253.696 -2.17093 3.85127 0
M  V30 2672 N 252.755 -1.56801 0.158532 0
M  V30 2673 C 253.995 -1.98383 -0.49229 0
M  V30 2674 C 254.359 -1.04184 -1.61275 0
M  V30 2675 O 255.56 -1.34856 -2.32524 0
M  V30 2676 C 253.831 -3.4385 -0.974766 0
M  V30 2677 S 255.39 -4.07459 -1.62857 0
M  V30 2678 H 252.208 -0.693041 -0.158794 0
M  V30 2679 H 254.81 -1.93856 0.252974 0
M  V30 2680 H 253.514 -4.10131 -0.148688 0
M  V30 2681 H 253.045 -3.52115 -1.75438 0
M  V30 2682 H 255.06 -4.01458 -2.91627 0
M  V30 2683 N 254.233 0.115231 -1.57178 0
M  V30 2684 C 255.644 0.67197 -1.74188 0
M  V30 2685 C 255.995 1.80125 -0.777777 0
M  V30 2686 O 255.12 2.16346 0.0484376 0
M  V30 2687 C 255.715 1.22573 -3.1585 0
M  V30 2688 C 254.274 1.72872 -3.34353 0
M  V30 2689 C 253.421 0.629972 -2.70049 0
M  V30 2690 H 256.372 -0.110712 -1.58313 0
M  V30 2691 H 256.393 2.09535 -3.17609 0
M  V30 2692 H 255.905 0.403598 -3.85996 0
M  V30 2693 H 254.006 2.5755 -2.69256 0
M  V30 2694 H 254.119 1.83557 -4.42542 0
M  V30 2695 H 252.483 1.0645 -2.31388 0
M  V30 2696 H 253.266 -0.181241 -3.42821 0
M  V30 2697 N 255.711 1.52812 0.385517 0
M  V30 2698 C 256.674 1.77188 1.45386 0
M  V30 2699 C 257.674 0.641953 1.4743 0
M  V30 2700 O 258.864 0.910033 1.4854 0
M  V30 2701 C 255.996 1.87582 2.8465 0
M  V30 2702 H 257.189 2.72583 1.25054 0
M  V30 2703 H 254.742 1.43586 0.617467 0
M  V30 2704 H 255.477 0.941849 3.10322 0
M  V30 2705 H 255.262 2.69748 2.84567 0
M  V30 2706 H 256.752 2.08102 3.62054 0
M  V30 2707 N 257.189 -0.644168 1.43834 0
M  V30 2708 C 258.437 -1.40117 1.45642 0
M  V30 2709 C 258.758 -1.94814 0.0852413 0
M  V30 2710 O 258.028 -1.74988 -0.880688 0
M  V30 2711 H 256.608 -0.52005 0.536243 0
M  V30 2712 H 259.27 -0.7591 1.7951 0
M  V30 2713 H 258.366 -2.23902 2.17427 0
M  V30 2714 N 258.668 -1.30515 -0.883378 0
M  V30 2715 C 259.914 -1.20617 -1.63778 0
M  V30 2716 C 260.269 0.236469 -1.90941 0
M  V30 2717 O 259.562 1.16596 -1.52039 0
M  V30 2718 C 259.756 -1.96994 -2.98209 0
M  V30 2719 C 259.585 -3.48537 -2.84169 0
M  V30 2720 C 258.355 -4.17893 -2.84067 0
M  V30 2721 C 260.553 -4.43738 -2.60001 0
M  V30 2722 N 258.535 -5.55685 -2.60936 0
M  V30 2723 C 259.906 -5.69105 -2.46007 0
M  V30 2724 C 261.961 -4.33316 -2.45239 0
M  V30 2725 C 260.664 -6.8523 -2.18752 0
M  V30 2726 C 262.69 -5.4921 -2.19369 0
M  V30 2727 C 262.052 -6.73558 -2.06153 0
M  V30 2728 H 258.151 -0.496434 -0.604216 0
M  V30 2729 H 260.735 -1.64544 -1.04083 0
M  V30 2730 H 258.906 -1.55455 -3.55933 0
M  V30 2731 H 260.638 -1.79225 -3.62851 0
M  V30 2732 H 257.393 -3.69739 -2.95956 0
M  V30 2733 H 257.817 -6.28199 -2.52378 0
M  V30 2734 H 262.459 -3.37856 -2.54191 0
M  V30 2735 H 260.177 -7.80729 -2.08537 0
M  V30 2736 H 263.763 -5.43054 -2.08766 0
M  V30 2737 H 262.643 -7.61721 -1.86416 0
M  V30 2738 N 260.146 1.09593 -1.13257 0
M  V30 2739 C 261.093 2.1618 -0.808381 0
M  V30 2740 C 262.063 1.64517 0.228754 0
M  V30 2741 O 263.248 1.9053 0.101381 0
M  V30 2742 C 260.388 3.43973 -0.278675 0
M  V30 2743 C 259.501 4.09545 -1.37466 0
M  V30 2744 C 258.636 5.25088 -0.803479 0
M  V30 2745 C 257.675 5.82579 -1.87799 0
M  V30 2746 N 256.812 6.89486 -1.32488 0
M  V30 2747 H 261.652 2.43254 -1.72138 0
M  V30 2748 H 259.189 1.19392 -0.859294 0
M  V30 2749 H 261.147 4.17174 0.0465583 0
M  V30 2750 H 259.777 3.17223 0.597459 0
M  V30 2751 H 258.829 3.34226 -1.81652 0
M  V30 2752 H 260.141 4.48307 -2.18684 0
M  V30 2753 H 259.295 6.05178 -0.429427 0
M  V30 2754 H 258.034 4.87684 0.0397956 0
M  V30 2755 H 257.039 5.01152 -2.26113 0
M  V30 2756 H 258.264 6.22045 -2.72463 0
M  V30 2757 H 256.21 6.54064 -0.503575 0
M  V30 2758 H 256.127 7.27007 -2.07355 0
M  V30 2759 H 257.395 7.73336 -0.978336 0
M  V30 2760 N 261.624 0.925811 1.2754 0
M  V30 2761 C 263.035 0.610102 1.7645 0
M  V30 2762 C 263.386 -0.874723 1.75622 0
M  V30 2763 O 262.511 -1.68444 1.35851 0
M  V30 2764 C 263.106 1.10073 3.20421 0
M  V30 2765 C 261.665 0.835723 3.67005 0
M  V30 2766 C 260.812 1.26054 2.46993 0
M  V30 2767 H 263.763 1.10579 1.13833 0
M  V30 2768 H 263.784 0.447557 3.77859 0
M  V30 2769 H 263.296 2.18143 3.20991 0
M  V30 2770 H 261.397 -0.231249 3.71882 0
M  V30 2771 H 261.51 1.45193 4.56569 0
M  V30 2772 H 259.874 0.679111 2.45479 0
M  V30 2773 H 260.657 2.34984 2.50275 0
M  V30 2774 N 263.102 -1.41638 0.69111 0
M  V30 2775 C 264.35 -2.00902 0.219758 0
M  V30 2776 C 264.671 -1.54994 -1.18329 0
M  V30 2777 O 263.941 -0.778628 -1.79762 0
M  V30 2778 H 262.521 -0.74289 0.0782558 0
M  V30 2779 H 265.183 -1.73327 0.891271 0
M  V30 2780 H 264.279 -3.11224 0.233708 0
M  V30 2781 N 264.58 -0.43555 -1.51462 0
M  V30 2782 C 265.805 0.132627 -2.06976 0
M  V30 2783 C 266.23 1.35848 -1.30104 0
M  V30 2784 O 265.588 1.78112 -0.338493 0
M  V30 2785 C 265.636 0.43523 -3.57964 0
M  V30 2786 O 264.74 1.52198 -3.83288 0
M  V30 2787 H 264.081 0.00265 -0.663995 0
M  V30 2788 H 266.611 -0.616369 -1.95095 0
M  V30 2789 H 266.621 0.686206 -4.02188 0
M  V30 2790 H 265.296 -0.460739 -4.1334 0
M  V30 2791 H 263.873 1.2611 -3.50928 0
M  V30 2792 N 266.058 1.56714 -0.166846 0
M  V30 2793 C 267.335 1.88412 0.525373 0
M  V30 2794 C 267.715 1.07602 1.81618 0
M  V30 2795 O 267.063 0.168621 2.27877 0
M  V30 2796 C 267.273 3.40363 0.771613 0
M  V30 2797 C 268.621 4.10007 1.1036 0
M  V30 2798 O 269.645 3.45655 0.860304 0
M  V30 2799 O 268.504 5.2369 1.56239 0
M  V30 2800 H 265.598 0.781587 0.270278 0
M  V30 2801 H 268.144 1.68458 -0.204946 0
M  V30 2802 H 266.916 3.91046 -0.141093 0
M  V30 2803 H 266.539 3.65914 1.55541 0
M  V30 2804 N 267.536 -0.106894 1.57237 0
M  V30 2805 C 268.764 -0.826389 1.8968 0
M  V30 2806 C 269.179 -1.72856 0.759353 0
M  V30 2807 O 268.536 -1.80503 -0.269263 0
M  V30 2808 C 268.587 -1.64967 3.21665 0
M  V30 2809 O 268.308 -0.783804 4.31031 0
M  V30 2810 C 269.809 -2.47326 3.67892 0
M  V30 2811 H 267.029 -0.236927 0.627779 0
M  V30 2812 H 269.573 -0.0876593 2.04312 0
M  V30 2813 H 267.728 -2.34103 3.08666 0
M  V30 2814 H 268.142 -1.35284 5.06753 0
M  V30 2815 H 269.616 -3.00604 4.6297 0
M  V30 2816 H 270.093 -3.25247 2.95146 0
M  V30 2817 H 270.699 -1.83411 3.83719 0
M  V30 2818 N 269.014 -1.53014 -0.377408 0
M  V30 2819 C 270.263 -1.67845 -1.11853 0
M  V30 2820 C 270.576 -0.430625 -1.90801 0
M  V30 2821 O 271.782 -0.459261 -2.67587 0
M  V30 2822 C 270.238 -2.96668 -2.03756 0
M  V30 2823 C 269.846 -4.28671 -1.30175 0
M  V30 2824 C 271.59 -3.20865 -2.77932 0
M  V30 2825 C 269.497 -5.48591 -2.20911 0
M  V30 2826 H 268.427 -0.625343 -0.421263 0
M  V30 2827 H 271.078 -1.79514 -0.380409 0
M  V30 2828 H 269.46 -2.78773 -2.8125 0
M  V30 2829 H 270.634 -4.57157 -0.578259 0
M  V30 2830 H 268.949 -4.10825 -0.679108 0
M  V30 2831 H 271.546 -4.07642 -3.46024 0
M  V30 2832 H 271.889 -2.36424 -3.4265 0
M  V30 2833 H 272.422 -3.39379 -2.07525 0
M  V30 2834 H 269.161 -6.35474 -1.6079 0
M  V30 2835 H 268.681 -5.244 -2.91144 0
M  V30 2836 H 270.36 -5.8292 -2.80736 0
M  V30 2837 N 270.492 0.636531 -1.44174 0
M  V30 2838 C 271.439 1.74875 -1.50624 0
M  V30 2839 C 272.409 1.62275 -0.35442 0
M  V30 2840 O 273.594 1.82276 -0.563908 0
M  V30 2841 C 270.734 3.13102 -1.45125 0
M  V30 2842 C 269.847 3.36717 -2.7064 0
M  V30 2843 C 268.982 4.64885 -2.57013 0
M  V30 2844 C 268.021 4.8166 -3.77717 0
M  V30 2845 N 267.158 6.01101 -3.62798 0
M  V30 2846 H 271.998 1.68697 -2.45653 0
M  V30 2847 H 269.535 0.823004 -1.21922 0
M  V30 2848 H 271.493 3.93034 -1.39929 0
M  V30 2849 H 270.123 3.18308 -0.536671 0
M  V30 2850 H 269.175 2.50763 -2.86046 0
M  V30 2851 H 270.487 3.44993 -3.60252 0
M  V30 2852 H 269.641 5.52969 -2.49619 0
M  V30 2853 H 268.38 4.58957 -1.64953 0
M  V30 2854 H 267.385 3.92007 -3.85501 0
M  V30 2855 H 268.61 4.89406 -4.70807 0
M  V30 2856 H 266.556 5.96273 -2.73486 0
M  V30 2857 H 266.473 6.10409 -4.46023 0
M  V30 2858 H 267.741 6.91761 -3.59286 0
M  V30 2859 N 271.97 1.30982 0.876444 0
M  V30 2860 C 273.381 1.18277 1.44456 0
M  V30 2861 C 273.732 -0.213265 1.95037 0
M  V30 2862 O 272.857 -1.11057 1.85729 0
M  V30 2863 C 273.452 2.1411 2.62569 0
M  V30 2864 C 272.011 2.05358 3.15444 0
M  V30 2865 C 271.158 2.03706 1.88146 0
M  V30 2866 H 274.109 1.43127 0.685584 0
M  V30 2867 H 274.13 1.72692 3.39054 0
M  V30 2868 H 273.642 3.15706 2.25724 0
M  V30 2869 H 271.743 1.06934 3.56926 0
M  V30 2870 H 271.856 2.94156 3.78166 0
M  V30 2871 H 270.22 1.48629 2.06837 0
M  V30 2872 H 271.003 3.07047 1.53547 0
M  V30 2873 N 273.449 -1.08991 1.13837 0
M  V30 2874 C 274.397 -2.17841 0.815347 0
M  V30 2875 C 275.391 -1.68164 -0.204233 0
M  V30 2876 O 276.597 -1.79897 -0.0609304 0
M  V30 2877 H 272.972 -0.710654 0.245915 0
M  V30 2878 H 274.943 -2.42315 1.74143 0
M  V30 2879 C 273.692 -3.46381 0.302614 0
M  V30 2880 H 273.015 -3.84979 1.0785 0
M  V30 2881 H 274.455 -4.23844 0.115074 0
M  V30 2882 C 272.914 -3.22556 -0.972591 0
M  V30 2883 O 273.444 -3.45599 -2.04754 0
M  V30 2884 N 271.65 -2.76134 -0.905455 0
M  V30 2885 H 271.197 -2.57582 -0.0305421 0
M  V30 2886 H 271.155 -2.60571 -1.75926 0
M  V30 2887 N 274.927 -0.932562 -1.27047 0
M  V30 2888 C 276.173 -0.576412 -1.94436 0
M  V30 2889 C 276.506 0.880891 -1.73072 0
M  V30 2890 O 275.781 1.62905 -1.06264 0
M  V30 2891 C 276.064 -0.909031 -3.48437 0
M  V30 2892 C 275.917 -2.42044 -3.79123 0
M  V30 2893 C 277.236 -0.418341 -4.38107 0
M  V30 2894 H 274.355 -0.210888 -0.706184 0
M  V30 2895 H 276.997 -1.16522 -1.50075 0
M  V30 2896 H 275.147 -0.407947 -3.86352 0
M  V30 2897 H 276.819 -2.99359 -3.50973 0
M  V30 2898 H 275.062 -2.86758 -3.25503 0
M  V30 2899 H 275.733 -2.6037 -4.86736 0
M  V30 2900 H 278.209 -0.847856 -4.0737 0
M  V30 2901 H 277.085 -0.679981 -5.44672 0
M  V30 2902 H 277.346 0.681642 -4.36814 0
M  V30 2903 N 276.405 1.4127 -0.698611 0
M  V30 2904 C 277.682 1.94955 -0.158762 0
M  V30 2905 C 278.062 1.63781 1.33188 0
M  V30 2906 O 277.41 0.946423 2.07979 0
M  V30 2907 C 277.62 3.46044 -0.453309 0
M  V30 2908 C 278.968 4.22872 -0.382707 0
M  V30 2909 O 279.992 3.54076 -0.388396 0
M  V30 2910 O 278.851 5.45407 -0.345463 0
M  V30 2911 H 275.945 0.82683 -0.0167505 0
M  V30 2912 H 278.491 1.50971 -0.77498 0
M  V30 2913 H 277.263 3.62028 -1.48498 0
M  V30 2914 H 276.886 3.97128 0.19373 0
M  V30 2915 N 277.883 0.443576 1.51229 0
M  V30 2916 C 279.16 -0.181038 1.9476 0
M  V30 2917 C 279.54 -1.59523 1.38259 0
M  V30 2918 O 278.888 -2.2122 0.572198 0
M  V30 2919 C 279.098 -0.152422 3.48667 0
M  V30 2920 C 280.446 -0.354923 4.23114 0
M  V30 2921 O 281.47 -0.230257 3.55455 0
M  V30 2922 O 280.329 -0.603674 5.43156 0
M  V30 2923 H 277.423 -0.1266 0.817252 0
M  V30 2924 H 279.969 0.502004 1.62105 0
M  V30 2925 H 278.741 0.836022 3.82265 0
M  V30 2926 H 278.364 -0.878107 3.87782 0
M  V30 2927 N 279.361 -1.56624 0.175154 0
M  V30 2928 C 280.586 -2.01813 -0.478137 0
M  V30 2929 C 281.011 -1.05457 -1.55757 0
M  V30 2930 O 280.369 -0.0347439 -1.81267 0
M  V30 2931 C 280.417 -3.45581 -1.02987 0
M  V30 2932 O 279.521 -3.52305 -2.14371 0
M  V30 2933 H 278.862 -0.65413 -0.114059 0
M  V30 2934 H 281.392 -2.02673 0.280173 0
M  V30 2935 H 281.402 -3.84965 -1.35151 0
M  V30 2936 H 280.077 -4.1521 -0.239556 0
M  V30 2937 H 278.654 -3.24783 -1.83222 0
M  V30 2938 N 280.839 0.0985539 -1.57292 0
M  V30 2939 C 281.786 1.11981 -2.01814 0
M  V30 2940 C 282.756 1.39999 -0.89384 0
M  V30 2941 O 283.941 1.5152 -1.15958 0
M  V30 2942 C 281.081 2.43577 -2.44467 0
M  V30 2943 C 280.194 2.2232 -3.70402 0
M  V30 2944 C 279.329 3.4729 -4.01949 0
M  V30 2945 C 278.368 3.2128 -5.21005 0
M  V30 2946 N 277.505 4.38507 -5.48321 0
M  V30 2947 H 282.345 0.733149 -2.88841 0
M  V30 2948 H 279.882 0.350482 -1.42864 0
M  V30 2949 H 281.84 3.20373 -2.6724 0
M  V30 2950 H 280.47 2.80097 -1.60455 0
M  V30 2951 H 279.522 1.36343 -3.55126 0
M  V30 2952 H 280.834 1.99089 -4.57345 0
M  V30 2953 H 279.988 4.32495 -4.25479 0
M  V30 2954 H 278.727 3.73572 -3.13521 0
M  V30 2955 H 277.732 2.34468 -4.97298 0
M  V30 2956 H 278.957 2.96348 -6.11028 0
M  V30 2957 H 276.903 4.64871 -4.62851 0
M  V30 2958 H 276.82 4.18455 -6.29628 0
M  V30 2959 H 278.088 5.24787 -5.76385 0
M  V30 2960 N 282.317 1.53212 0.369288 0
M  V30 2961 C 283.227 1.82342 1.47609 0
M  V30 2962 C 284.243 0.711532 1.58787 0
M  V30 2963 O 285.419 1.0012 1.74751 0
M  V30 2964 C 282.484 2.00393 2.8292 0
M  V30 2965 C 281.545 3.24297 2.81301 0
M  V30 2966 C 280.778 3.41478 4.10157 0
M  V30 2967 O 281.001 2.63033 5.06132 0
M  V30 2968 O 279.935 4.34817 4.16194 0
M  V30 2969 H 283.761 2.76366 1.25918 0
M  V30 2970 H 281.346 1.38547 0.559034 0
M  V30 2971 H 283.228 2.13859 3.63101 0
M  V30 2972 H 281.903 1.09559 3.04596 0
M  V30 2973 H 280.81 3.16257 1.99831 0
M  V30 2974 H 282.143 4.15041 2.64578 0
M  V30 2975 N 283.795 -0.628877 1.44509 0
M  V30 2976 C 285.025 -1.41349 1.50678 0
M  V30 2977 C 285.433 -1.88745 0.131075 0
M  V30 2978 O 284.776 -1.61592 -0.87371 0
M  V30 2979 C 284.838 -2.66608 2.41165 0
M  V30 2980 C 284.502 -2.40993 3.88293 0
M  V30 2981 C 285.499 -2.0268 4.78766 0
M  V30 2982 C 283.184 -2.54563 4.33016 0
M  V30 2983 C 285.178 -1.78269 6.11963 0
M  V30 2984 C 282.865 -2.29766 5.6626 0
M  V30 2985 C 283.863 -1.91678 6.55552 0
M  V30 2986 O 283.551 -1.67158 7.86329 0
M  V30 2987 H 283.283 -0.439851 0.51333 0
M  V30 2988 H 285.837 -0.776084 1.90174 0
M  V30 2989 H 284.067 -3.32994 1.96601 0
M  V30 2990 H 285.756 -3.28615 2.38259 0
M  V30 2991 H 286.522 -1.91751 4.45485 0
M  V30 2992 H 282.401 -2.83179 3.63773 0
M  V30 2993 H 285.945 -1.48465 6.81619 0
M  V30 2994 H 281.842 -2.40306 5.99102 0
M  V30 2995 H 282.61 -1.81386 7.98149 0
M  V30 2996 N 285.273 -1.31445 -0.869486 0
M  V30 2997 C 286.52 -1.21158 -1.62256 0
M  V30 2998 C 286.848 0.230155 -1.93133 0
M  V30 2999 O 286.103 1.17906 -1.56194 0
M  V30 3000 C 286.402 -2.00145 -2.96102 0
M  V30 3001 C 286.068 -3.4964 -2.84715 0
M  V30 3002 C 284.73 -3.90403 -2.81317 0
M  V30 3003 C 287.082 -4.44769 -2.71716 0
M  V30 3004 C 284.41 -5.24561 -2.62778 0
M  V30 3005 C 286.762 -5.79054 -2.54714 0
M  V30 3006 C 285.426 -6.19037 -2.49699 0
M  V30 3007 H 284.696 -0.443348 -0.593737 0
M  V30 3008 H 287.343 -1.62715 -1.00976 0
M  V30 3009 H 285.648 -1.5127 -3.6142 0
M  V30 3010 H 287.345 -1.89566 -3.53363 0
M  V30 3011 H 283.935 -3.17256 -2.88178 0
M  V30 3012 H 288.119 -4.14208 -2.73397 0
M  V30 3013 H 283.375 -5.54613 -2.57321 0
M  V30 3014 H 287.549 -6.52393 -2.43632 0
M  V30 3015 H 285.176 -7.22935 -2.35093 0
M  V30 3016 N 286.751 1.08385 -1.14413 0
M  V30 3017 C 287.976 1.85057 -0.936413 0
M  V30 3018 C 288.401 1.81055 0.509971 0
M  V30 3019 O 287.759 1.1958 1.36273 0
M  V30 3020 C 287.807 3.30505 -1.44217 0
M  V30 3021 O 286.911 4.07491 -0.634409 0
M  V30 3022 H 286.252 0.573425 -0.334784 0
M  V30 3023 H 288.782 1.36799 -1.52142 0
M  V30 3024 H 288.792 3.81348 -1.45043 0
M  V30 3025 H 287.467 3.32734 -2.49522 0
M  V30 3026 H 286.044 3.66368 -0.694902 0
M  V30 3027 N 288.23 0.939286 1.26551 0
M  V30 3028 C 289.177 0.446088 2.26448 0
M  V30 3029 C 290.147 -0.493234 1.58608 0
M  V30 3030 O 291.332 -0.409857 1.86346 0
M  V30 3031 C 288.472 -0.284375 3.43926 0
M  V30 3032 C 287.585 0.690399 4.26448 0
M  V30 3033 C 286.72 -0.0610712 5.31165 0
M  V30 3034 C 285.759 0.905649 6.05363 0
M  V30 3035 N 284.896 0.186055 7.01853 0
M  V30 3036 H 289.736 1.30291 2.68008 0
M  V30 3037 H 287.273 0.65371 1.31776 0
M  V30 3038 H 289.231 -0.724313 4.10864 0
M  V30 3039 H 287.861 -1.10535 3.03285 0
M  V30 3040 H 286.913 1.24885 3.59316 0
M  V30 3041 H 288.225 1.42873 4.779 0
M  V30 3042 H 287.379 -0.56038 6.04106 0
M  V30 3043 H 286.118 -0.832297 4.80546 0
M  V30 3044 H 285.123 1.4161 5.3125 0
M  V30 3045 H 286.348 1.67685 6.58072 0
M  V30 3046 H 284.294 -0.566714 6.53548 0
M  V30 3047 H 284.211 0.863752 7.51049 0
M  V30 3048 H 285.479 -0.292221 7.78952 0
M  V30 3049 N 289.708 -1.40897 0.706093 0
M  V30 3050 C 290.658 -2.27987 0.0240746 0
M  V30 3051 C 291.642 -1.42759 -0.742204 0
M  V30 3052 O 292.834 -1.65936 -0.615966 0
M  V30 3053 C 289.963 -3.31186 -0.903907 0
M  V30 3054 C 289.049 -4.2389 -0.133318 0
M  V30 3055 N 289.44 -4.98113 0.878444 0
M  V30 3056 C 287.738 -4.44485 -0.367269 0
M  V30 3057 C 288.439 -5.6604 1.34064 0
M  V30 3058 N 287.415 -5.39522 0.664565 0
M  V30 3059 H 291.217 -2.82812 0.799658 0
M  V30 3060 H 288.731 -1.53235 0.537845 0
M  V30 3061 H 290.728 -3.92413 -1.40775 0
M  V30 3062 H 289.388 -2.77922 -1.67897 0
M  V30 3063 H 290.399 -5.02364 1.25901 0
M  V30 3064 H 287.076 -4.02213 -1.1194 0
M  V30 3065 H 288.466 -6.35524 2.1808 0
M  V30 3066 N 291.186 -0.45159 -1.50991 0
M  V30 3067 C 292.134 0.366864 -2.29689 0
M  V30 3068 C 293.128 1.00809 -1.36139 0
M  V30 3069 O 294.334 0.941427 -1.53418 0
M  V30 3070 H 290.709 0.137133 -0.739391 0
M  V30 3071 H 292.68 -0.317538 -2.96706 0
M  V30 3072 C 291.429 1.44751 -3.16137 0
M  V30 3073 H 290.752 0.963473 -3.88017 0
M  V30 3074 H 292.192 1.99315 -3.74232 0
M  V30 3075 C 290.651 2.43869 -2.32442 0
M  V30 3076 O 291.181 3.4872 -1.99392 0
M  V30 3077 N 289.387 2.15105 -1.95392 0
M  V30 3078 H 288.934 1.29866 -2.22469 0
M  V30 3079 H 288.892 2.81661 -1.39693 0
M  V30 3080 O 292.703 1.58203 -0.324668 0
M  V30 3081 H 293.394 1.9227 0.234936 0
M  V30 END ATOM
M  V30 BEGIN BOND
M  V30 END BOND
M  V30 END CTAB
M  END
$$$$
