drugbank_target|P32239 Gastrin/cholecystokinin type B receptor (DB00183; DB08862)
 OpenBabel12092119483D

  0  0  0     0  0            999 V3000
M  V30 BEGIN CTAB
M  V30 COUNTS 6940 7018 0 0 0
M  V30 BEGIN ATOM
M  V30 1 H -0.908 1.98254 -0.117106 0
M  V30 2 N 0 1.576 0 0
M  V30 3 C 0.933 2.03868 1.02534 0
M  V30 4 C 1.911 0.928543 1.3348 0
M  V30 5 O 3.095 1.19667 1.45644 0
M  V30 6 C 0.222 2.43627 2.35294 0
M  V30 7 C -0.732 3.65373 2.2001 0
M  V30 8 S 0.101 5.13292 1.52614 0
M  V30 9 C 1.257 5.56322 2.86805 0
M  V30 10 H 1.49 2.90518 0.631377 0
M  V30 11 H -0.977 1.52953 0.210867 0
M  V30 12 H 0.981 2.67203 3.11629 0
M  V30 13 H -0.358 1.57376 2.7183 0
M  V30 14 H -1.165 3.90944 3.18086 0
M  V30 15 H -1.563 3.418 1.51819 0
M  V30 16 H 0.729 5.58782 3.83104 0
M  V30 17 H 1.672 6.56266 2.65933 0
M  V30 18 H 2.08 4.83886 2.90714 0
M  V30 19 N 1.4781 -0.272755 1.55222 0
M  V30 20 C 2.3881 -1.35918 1.91216 0
M  V30 21 C 3.4041 -1.54026 0.809436 0
M  V30 22 O 4.5801 -1.68148 1.10852 0
M  V30 23 C 1.6451 -2.69834 2.17693 0
M  V30 24 C 0.7061 -2.6047 3.41253 0
M  V30 25 C -0.0609 -3.88 3.66458 0
M  V30 26 O 0.1621 -4.88693 2.94169 0
M  V30 27 O -0.9039 -3.88189 4.59992 0
M  V30 28 H 2.9221 -1.0839 2.83699 0
M  V30 29 H 0.5071 -0.471301 1.41771 0
M  V30 30 H 2.3891 -3.49017 2.36147 0
M  V30 31 H 1.0641 -2.97148 1.28392 0
M  V30 32 H -0.0289 -1.79663 3.28134 0
M  V30 33 H 1.3041 -2.38106 4.30774 0
M  V30 34 N 2.9562 -1.48159 -0.537278 0
M  V30 35 C 3.8862 -1.65029 -1.6519 0
M  V30 36 C 4.8672 -0.499281 -1.62607 0
M  V30 37 O 6.0522 -0.730972 -1.79918 0
M  V30 38 C 3.1822 -1.68303 -3.03795 0
M  V30 39 C 2.1362 -2.8283 -3.21234 0
M  V30 40 C 1.4622 -2.71189 -4.60826 0
M  V30 41 C 2.7622 -4.24211 -3.04701 0
M  V30 42 H 4.4562 -2.58341 -1.51328 0
M  V30 43 H 2.0022 -1.24325 -0.726585 0
M  V30 44 H 3.9552 -1.78693 -3.81637 0
M  V30 45 H 2.6792 -0.715635 -3.18663 0
M  V30 46 H 1.3382 -2.71983 -2.45807 0
M  V30 47 H 0.9862 -1.72435 -4.7252 0
M  V30 48 H 0.6862 -3.48035 -4.7344 0
M  V30 49 H 2.2102 -2.83537 -5.40777 0
M  V30 50 H 3.6242 -4.3593 -3.72341 0
M  V30 51 H 2.0212 -5.01998 -3.28813 0
M  V30 52 H 3.0912 -4.41184 -2.01209 0
M  V30 53 N 4.4343 0.785586 -1.36625 0
M  V30 54 C 5.3643 1.91259 -1.33949 0
M  V30 55 C 6.3453 1.68795 -0.210325 0
M  V30 56 O 7.5303 1.89854 -0.408561 0
M  V30 57 C 4.6603 3.28339 -1.13186 0
M  V30 58 C 3.6143 3.65335 -2.22967 0
M  V30 59 C 2.9403 5.00806 -1.87342 0
M  V30 60 C 4.2403 3.7352 -3.65075 0
M  V30 61 H 5.9343 1.93755 -2.28253 0
M  V30 62 H 3.4803 0.930788 -1.09874 0
M  V30 63 H 5.4333 4.06804 -1.09948 0
M  V30 64 H 4.1573 3.2624 -0.153332 0
M  V30 65 H 2.8163 2.89169 -2.25337 0
M  V30 66 H 2.4643 4.95233 -0.880545 0
M  V30 67 H 2.1643 5.26529 -2.60846 0
M  V30 68 H 3.6883 5.81687 -1.85667 0
M  V30 69 H 5.1023 4.42168 -3.64911 0
M  V30 70 H 3.4993 4.10731 -4.37516 0
M  V30 71 H 4.5693 2.74527 -3.99703 0
M  V30 72 N 5.9124 1.20967 1.01018 0
M  V30 73 C 6.8594 0.964281 2.09691 0
M  V30 74 C 7.8294 -0.107853 1.65749 0
M  V30 75 O 9.0144 0.0381987 1.90762 0
M  V30 76 C 6.1544 0.52943 3.41015 0
M  V30 77 C 5.2674 1.67043 3.98398 0
M  V30 78 C 4.4024 1.18525 5.17808 0
M  V30 79 C 3.4414 2.29892 5.67288 0
M  V30 80 N 2.5784 1.82546 6.77954 0
M  V30 81 H 7.4184 1.89463 2.30017 0
M  V30 82 H 4.9554 0.944289 1.1279 0
M  V30 83 H 6.9134 0.258588 4.16398 0
M  V30 84 H 5.5434 -0.363919 3.20742 0
M  V30 85 H 4.5954 2.05603 3.20049 0
M  V30 86 H 5.9074 2.50877 4.31117 0
M  V30 87 H 5.0614 0.870762 6.00419 0
M  V30 88 H 3.8004 0.316887 4.86669 0
M  V30 89 H 2.8054 2.6215 4.83278 0
M  V30 90 H 4.0304 3.17216 6.00459 0
M  V30 91 H 1.9764 0.980454 6.48632 0
M  V30 92 H 1.8934 2.59956 7.09901 0
M  V30 93 H 3.1614 1.54115 7.64113 0
M  V30 94 N 7.3905 -1.2043 1.01659 0
M  V30 95 C 8.3205 -2.25466 0.607226 0
M  V30 96 C 9.3015 -1.65853 -0.377716 0
M  V30 97 O 10.4865 -1.92409 -0.263149 0
M  V30 98 C 7.6165 -3.47256 -0.0552949 0
M  V30 99 C 6.5705 -4.19462 0.850632 0
M  V30 100 C 5.8965 -5.34673 0.0538859 0
M  V30 101 C 7.1965 -4.75603 2.15868 0
M  V30 102 H 8.8905 -2.59962 1.48526 0
M  V30 103 H 6.4365 -1.2496 0.715605 0
M  V30 104 H 8.3895 -4.19917 -0.353233 0
M  V30 105 H 7.1135 -3.11924 -0.968045 0
M  V30 106 H 5.7725 -3.48667 1.13257 0
M  V30 107 H 5.4205 -4.95585 -0.860514 0
M  V30 108 H 5.1205 -5.83913 0.657192 0
M  V30 109 H 6.6445 -6.10138 -0.237598 0
M  V30 110 H 8.0585 -5.40083 1.92311 0
M  V30 111 H 6.4555 -5.3528 2.71284 0
M  V30 112 H 7.5255 -3.94346 2.82169 0
M  V30 113 N 8.8686 -0.792821 -1.36206 0
M  V30 114 C 9.8166 -0.181555 -2.3189 0
M  V30 115 C 10.8106 0.661025 -1.55971 0
M  V30 116 O 12.0166 0.555728 -1.71206 0
M  V30 117 H 8.3916 -0.0399382 -0.750939 0
M  V30 118 H 10.3626 -1.00394 -2.81005 0
M  V30 119 C 9.1116 0.666444 -3.41253 0
M  V30 120 H 8.4346 0.0274489 -3.99791 0
M  V30 121 H 9.8746 1.06076 -4.10517 0
M  V30 122 C 8.3336 1.82614 -2.83114 0
M  V30 123 O 8.8636 2.9229 -2.75553 0
M  V30 124 N 7.0696 1.63333 -2.40356 0
M  V30 125 H 6.6166 0.741217 -2.46706 0
M  V30 126 H 6.5746 2.41087 -2.01803 0
M  V30 127 N 10.3467 1.47872 -0.545128 0
M  V30 128 C 11.7627 1.5829 -0.204032 0
M  V30 129 C 11.9627 1.54529 1.29317 0
M  V30 130 O 11.0187 1.44232 2.07252 0
M  V30 131 C 12.3317 2.89304 -0.819987 0
M  V30 132 C 13.8797 3.02864 -0.790105 0
M  V30 133 C 14.3547 4.3656 -1.38491 0
M  V30 134 N 15.8457 4.43165 -1.34755 0
M  V30 135 C 16.5807 5.45153 -1.77753 0
M  V30 136 N 16.0767 6.54016 -2.2855 0
M  V30 137 N 17.8697 5.36125 -1.68897 0
M  V30 138 H 10.0207 1.4856 -1.51802 0
M  V30 139 H 12.2837 0.706305 -0.632327 0
M  V30 140 H 11.9897 2.97757 -1.87173 0
M  V30 141 H 11.8637 3.75957 -0.305915 0
M  V30 142 H 14.2507 2.94014 0.252913 0
M  V30 143 H 14.3317 2.17782 -1.34181 0
M  V30 144 H 13.9757 4.46164 -2.42693 0
M  V30 145 H 13.9057 5.20353 -0.808754 0
M  V30 146 H 16.3967 3.65083 -0.975855 0
M  V30 147 H 16.7097 7.27994 -2.59314 0
M  V30 148 H 15.0547 6.54938 -2.32553 0
M  V30 149 H 18.2457 4.49975 -1.28998 0
M  V30 150 H 18.4187 6.15472 -2.02726 0
M  V30 151 N 11.8248 0.280983 1.55075 0
M  V30 152 C 13.0498 -0.340154 2.04592 0
M  V30 153 C 13.4748 -1.48246 1.15779 0
M  V30 154 O 12.8328 -1.80614 0.15761 0
M  V30 155 C 12.8808 -0.793104 3.5177 0
M  V30 156 O 11.9848 -1.89981 3.66034 0
M  V30 157 H 11.3258 -0.0694289 0.66036 0
M  V30 158 H 13.8558 0.416993 2.00306 0
M  V30 159 H 13.8658 -1.08729 3.93245 0
M  V30 160 H 12.5408 0.0426163 4.15878 0
M  V30 161 H 11.1178 -1.60771 3.36463 0
M  V30 162 N 13.3029 -1.57598 0.00835791 0
M  V30 163 C 14.5489 -1.91211 -0.675732 0
M  V30 164 C 14.8819 -0.883139 -1.72958 0
M  V30 165 O 14.1569 0.097016 -1.94258 0
M  V30 166 C 14.4399 -3.35379 -1.31123 0
M  V30 167 C 14.2929 -4.48999 -0.268356 0
M  V30 168 C 15.6119 -3.7912 -2.23508 0
M  V30 169 H 12.7309 -0.695374 -0.244179 0
M  V30 170 H 15.3729 -1.89901 0.0613655 0
M  V30 171 H 13.5229 -3.36626 -1.93946 0
M  V30 172 H 15.1949 -4.59887 0.360844 0
M  V30 173 H 13.4379 -4.31873 0.408482 0
M  V30 174 H 14.1089 -5.46851 -0.752218 0
M  V30 175 H 16.5849 -3.79477 -1.70693 0
M  V30 176 H 15.4609 -4.80729 -2.64936 0
M  V30 177 H 15.7219 -3.13455 -3.11766 0
M  V30 178 N 14.781 0.264519 -1.55364 0
M  V30 179 C 15.713 1.34965 -1.85248 0
M  V30 180 C 16.726 1.45136 -0.737525 0
M  V30 181 O 17.915 1.46801 -1.01547 0
M  V30 182 C 15.015 2.73008 -2.00797 0
M  V30 183 C 14.188 2.85324 -3.31525 0
M  V30 184 C 13.247 4.04097 -3.37034 0
M  V30 185 O 12.273 3.94455 -4.10358 0
M  V30 186 N 13.475 5.16458 -2.65049 0
M  V30 187 H 16.24 1.09672 -2.78913 0
M  V30 188 H 13.801 0.454635 -1.55386 0
M  V30 189 H 15.793 3.50772 -2.01844 0
M  V30 190 H 14.363 2.91087 -1.1396 0
M  V30 191 H 13.583 1.94377 -3.42945 0
M  V30 192 H 14.871 2.9049 -4.17724 0
M  V30 193 H 14.269 5.27181 -2.05175 0
M  V30 194 H 12.826 5.92422 -2.71809 0
M  V30 195 N 16.2591 1.48442 0.529413 0
M  V30 196 C 17.5071 1.56179 1.28267 0
M  V30 197 C 17.8281 0.237721 1.93546 0
M  V30 198 O 17.0981 -0.740779 1.81354 0
M  V30 199 H 15.6781 0.575367 0.476405 0
M  V30 200 H 18.3401 1.84909 0.61602 0
M  V30 201 H 17.4361 2.34312 2.06165 0
M  V30 202 N 17.7372 -0.778329 1.37039 0
M  V30 203 C 18.9652 -1.56734 1.35063 0
M  V30 204 C 19.3802 -1.88686 -0.0655597 0
M  V30 205 O 18.7372 -1.5096 -1.02554 0
M  V30 206 C 18.7882 -2.88163 2.18276 0
M  V30 207 O 18.5092 -2.57583 3.54376 0
M  V30 208 C 20.0102 -3.82422 2.24206 0
M  V30 209 H 17.2302 -0.485778 0.462883 0
M  V30 210 H 19.7742 -0.965185 1.8029 0
M  V30 211 H 17.9292 -3.44818 1.76576 0
M  V30 212 H 18.3432 -3.41699 3.97922 0
M  V30 213 H 19.8172 -4.71667 2.86765 0
M  V30 214 H 20.2942 -4.21078 1.24861 0
M  V30 215 H 20.9002 -3.31697 2.6619 0
M  V30 216 N 19.2153 -1.21501 -1.00376 0
M  V30 217 C 20.4633 -1.03095 -1.73827 0
M  V30 218 C 20.7843 0.436341 -1.90055 0
M  V30 219 O 20.0543 1.31466 -1.45236 0
M  V30 220 H 18.6343 -0.378487 -0.644016 0
M  V30 221 H 21.2963 -1.52831 -1.20949 0
M  V30 222 H 20.3923 -1.49991 -2.73695 0
M  V30 223 N 20.6934 1.19889 -1.02296 0
M  V30 224 C 22.1044 1.71124 -0.746568 0
M  V30 225 C 22.4554 1.81939 0.734335 0
M  V30 226 O 21.5804 1.48639 1.57275 0
M  V30 227 C 22.1754 3.10804 -1.34857 0
M  V30 228 C 20.7344 3.59323 -1.1209 0
M  V30 229 C 19.8814 2.3635 -1.45031 0
M  V30 230 H 22.8324 1.04813 -1.19163 0
M  V30 231 H 22.8534 3.73186 -0.742437 0
M  V30 232 H 22.3654 3.029 -2.42638 0
M  V30 233 H 20.4664 3.7255 -0.0610337 0
M  V30 234 H 20.5794 4.4378 -1.80544 0
M  V30 235 H 18.9434 2.39399 -0.869487 0
M  V30 236 H 19.7264 2.31081 -2.53883 0
M  V30 237 N 22.1715 0.800033 1.35784 0
M  V30 238 C 23.4195 0.376597 1.9856 0
M  V30 239 C 23.7405 -1.05812 1.63795 0
M  V30 240 O 23.0105 -1.73103 0.917171 0
M  V30 241 H 21.5905 0.136261 0.734467 0
M  V30 242 H 24.2525 1.02442 1.65806 0
M  V30 243 H 23.3485 0.477002 3.08433 0
M  V30 244 N 23.6496 -1.47581 0.552962 0
M  V30 245 C 25.0606 -1.86324 0.118463 0
M  V30 246 C 25.4116 -1.46006 -1.3106 0
M  V30 247 O 24.5366 -0.861182 -1.98526 0
M  V30 248 C 25.1316 -3.3816 0.20821 0
M  V30 249 C 23.6906 -3.7601 -0.171226 0
M  V30 250 C 22.8376 -2.71634 0.557686 0
M  V30 251 H 25.7886 -1.39159 0.762928 0
M  V30 252 H 25.8096 -3.76141 -0.574278 0
M  V30 253 H 25.3216 -3.67473 1.24841 0
M  V30 254 H 23.4226 -3.52313 -1.21269 0
M  V30 255 H 23.5356 -4.78745 0.184379 0
M  V30 256 H 21.8996 -2.547 0.00125792 0
M  V30 257 H 22.6826 -3.0379 1.59896 0
M  V30 258 N 25.1277 -0.289203 -1.54924 0
M  V30 259 C 26.3757 0.322879 -1.99504 0
M  V30 260 C 26.6967 1.55313 -1.1791 0
M  V30 261 O 25.9667 1.94001 -0.272097 0
M  V30 262 H 24.5467 0.122291 -0.736922 0
M  V30 263 H 27.2087 -0.397802 -1.90797 0
M  V30 264 H 26.3047 0.603061 -3.06218 0
M  V30 265 N 26.6058 1.57591 -0.0167156 0
M  V30 266 C 27.5688 2.08393 0.954204 0
M  V30 267 C 28.5688 0.996531 1.26198 0
M  V30 268 O 29.7588 1.25858 1.20438 0
M  V30 269 C 26.8908 2.5394 2.27436 0
M  V30 270 H 28.0838 2.95455 0.514451 0
M  V30 271 H 25.6368 1.54582 0.231089 0
M  V30 272 H 26.3718 1.70171 2.76066 0
M  V30 273 H 26.1568 3.33371 2.06412 0
M  V30 274 H 27.6468 2.93512 2.97053 0
M  V30 275 N 28.0839 -0.256276 1.55502 0
M  V30 276 C 29.3089 -1.00766 1.81276 0
M  V30 277 C 29.7339 -1.78524 0.59252 0
M  V30 278 O 29.0919 -1.75413 -0.45827 0
M  V30 279 C 29.1399 -1.92869 3.04687 0
M  V30 280 O 28.2439 -3.019 2.80945 0
M  V30 281 H 27.5849 -0.287224 0.598664 0
M  V30 282 H 30.1149 -0.280109 2.02674 0
M  V30 283 H 30.1249 -2.34511 3.33869 0
M  V30 284 H 28.7999 -1.35689 3.93143 0
M  V30 285 H 27.3769 -2.64454 2.62904 0
M  V30 286 N 29.562 -1.4872 -0.521534 0
M  V30 287 C 30.492 -1.66771 -1.63431 0
M  V30 288 C 31.473 -0.516499 -1.62069 0
M  V30 289 O 32.658 -0.750013 -1.79132 0
M  V30 290 C 29.788 -1.71515 -3.01993 0
M  V30 291 C 28.742 -2.86222 -3.18216 0
M  V30 292 C 28.068 -2.76061 -4.57924 0
M  V30 293 C 29.368 -4.27419 -3.00184 0
M  V30 294 H 31.062 -2.59932 -1.48579 0
M  V30 295 H 28.608 -1.25089 -0.713358 0
M  V30 296 H 30.561 -1.82731 -3.7972 0
M  V30 297 H 29.285 -0.749393 -3.17886 0
M  V30 298 H 27.944 -2.74575 -2.42908 0
M  V30 299 H 27.592 -1.77437 -4.70665 0
M  V30 300 H 27.292 -3.53037 -4.69722 0
M  V30 301 H 28.816 -2.89256 -5.37739 0
M  V30 302 H 30.23 -4.39855 -3.67697 0
M  V30 303 H 28.627 -5.05458 -3.2347 0
M  V30 304 H 29.697 -4.43293 -1.96518 0
M  V30 305 N 31.0401 0.771051 -1.3745 0
M  V30 306 C 32.2801 1.54264 -1.34096 0
M  V30 307 C 32.6441 1.91858 0.0737639 0
M  V30 308 O 33.8451 2.67797 0.23203 0
M  V30 309 C 32.1161 2.77326 -2.25445 0
M  V30 310 S 33.6751 3.67383 -2.39948 0
M  V30 311 H 30.4931 0.528122 -0.476034 0
M  V30 312 H 33.0951 0.906633 -1.73206 0
M  V30 313 H 31.7991 2.47788 -3.27153 0
M  V30 314 H 31.3301 3.45886 -1.87421 0
M  V30 315 H 33.3451 4.69334 -1.61059 0
M  V30 316 N 32.5182 1.22032 0.997298 0
M  V30 317 C 33.9342 0.979326 1.26021 0
M  V30 318 C 34.1342 -0.32972 1.98784 0
M  V30 319 O 33.1902 -1.05345 2.29475 0
M  V30 320 C 34.5032 2.17509 2.07631 0
M  V30 321 C 36.0512 2.21817 2.2083 0
M  V30 322 C 36.5262 3.40933 3.05825 0
M  V30 323 N 38.0172 3.41067 3.13412 0
M  V30 324 C 38.7522 4.29885 3.79455 0
M  V30 325 N 38.2482 5.28914 4.47462 0
M  V30 326 N 40.0412 4.17673 3.76173 0
M  V30 327 H 32.1922 2.06202 0.509352 0
M  V30 328 H 34.4552 0.90334 0.287541 0
M  V30 329 H 34.1612 3.12415 1.61524 0
M  V30 330 H 34.0352 2.17206 3.08385 0
M  V30 331 H 36.4222 1.27462 2.66153 0
M  V30 332 H 36.5032 2.2616 1.1952 0
M  V30 333 H 36.1472 4.35586 2.61203 0
M  V30 334 H 36.0772 3.33829 4.07266 0
M  V30 335 H 38.5682 2.69406 2.65007 0
M  V30 336 H 38.8812 5.92973 4.95583 0
M  V30 337 H 37.2262 5.32831 4.46224 0
M  V30 338 H 40.4172 3.39564 3.22202 0
M  V30 339 H 40.5902 4.87098 4.27363 0
M  V30 340 N 33.9963 -1.19345 1.0293 0
M  V30 341 C 35.4073 -1.70725 0.755633 0
M  V30 342 C 35.7583 -1.82326 -0.724676 0
M  V30 343 O 34.8833 -1.49471 -1.56484 0
M  V30 344 C 35.4783 -3.10084 1.36503 0
M  V30 345 C 34.0373 -3.58723 1.13994 0
M  V30 346 C 33.1843 -2.35577 1.46283 0
M  V30 347 H 36.1353 -1.0418 1.19718 0
M  V30 348 H 36.1563 -3.72787 0.762217 0
M  V30 349 H 35.6683 -3.01609 2.44241 0
M  V30 350 H 33.7693 -3.72512 0.0807901 0
M  V30 351 H 33.8823 -4.42816 1.82894 0
M  V30 352 H 32.2463 -2.38935 0.88217 0
M  V30 353 H 33.0293 -2.29731 2.55105 0
M  V30 354 N 35.4744 -0.807222 -1.35358 0
M  V30 355 C 36.7224 -0.387122 -1.98358 0
M  V30 356 C 37.0434 1.04942 -1.64354 0
M  V30 357 O 36.3134 1.72615 -0.926339 0
M  V30 358 H 34.8934 -0.140154 -0.733734 0
M  V30 359 H 37.5554 -1.0332 -1.6526 0
M  V30 360 H 36.6514 -0.493352 -3.08176 0
M  V30 361 N 36.9525 1.47285 -0.560781 0
M  V30 362 C 37.9155 2.28535 0.174488 0
M  V30 363 C 38.9155 1.37153 0.839388 0
M  V30 364 O 40.1055 1.59748 0.694702 0
M  V30 365 C 37.2375 3.16934 1.25561 0
M  V30 366 H 38.4305 2.95012 -0.539262 0
M  V30 367 H 35.9835 1.53034 -0.317865 0
M  V30 368 H 36.7185 2.55157 2.00164 0
M  V30 369 H 36.5035 3.8419 0.783604 0
M  V30 370 H 37.9935 3.78143 1.77193 0
M  V30 371 N 38.4306 0.297415 1.54768 0
M  V30 372 C 39.8416 -0.195947 1.85669 0
M  V30 373 C 40.1926 -1.53707 1.21937 0
M  V30 374 O 39.3176 -2.10164 0.515754 0
M  V30 375 C 39.9126 -0.362318 3.36857 0
M  V30 376 C 38.4716 -0.799901 3.67802 0
M  V30 377 C 37.6186 0.0938578 2.77141 0
M  V30 378 H 40.5696 0.518538 1.4999 0
M  V30 379 H 40.5906 -1.19745 3.61167 0
M  V30 380 H 40.1026 0.613921 3.83214 0
M  V30 381 H 38.2036 -1.78682 3.26961 0
M  V30 382 H 38.3166 -0.621773 4.75048 0
M  V30 383 H 36.6806 -0.426254 2.51108 0
M  V30 384 H 37.4636 1.06639 3.26318 0
M  V30 385 N 39.9087 -1.5758 0.0250728 0
M  V30 386 C 40.8387 -2.13007 -0.956575 0
M  V30 387 C 41.8197 -1.0452 -1.342 0
M  V30 388 O 43.0047 -1.32332 -1.42133 0
M  V30 389 C 40.1347 -2.65386 -2.24026 0
M  V30 390 C 39.0887 -3.78623 -1.99571 0
M  V30 391 C 38.4147 -4.17414 -3.3417 0
M  V30 392 C 39.7147 -5.04867 -1.33814 0
M  V30 393 H 41.4087 -2.9528 -0.494991 0
M  V30 394 H 38.9547 -1.42042 -0.236651 0
M  V30 395 H 40.9077 -3.02794 -2.93076 0
M  V30 396 H 39.6317 -1.80268 -2.72343 0
M  V30 397 H 38.2907 -3.41646 -1.32941 0
M  V30 398 H 37.9387 -3.29284 -3.80238 0
M  V30 399 H 37.6387 -4.93719 -3.18615 0
M  V30 400 H 39.1627 -4.57402 -4.04495 0
M  V30 401 H 40.5767 -5.39888 -1.92857 0
M  V30 402 H 38.9737 -5.86144 -1.28669 0
M  V30 403 H 40.0437 -4.83904 -0.310561 0
M  V30 404 N 41.3868 0.248026 -1.55636 0
M  V30 405 C 42.3168 1.31079 -1.93237 0
M  V30 406 C 43.2978 1.50264 -0.797174 0
M  V30 407 O 44.4828 1.62891 -1.05737 0
M  V30 408 C 41.6128 2.66575 -2.22609 0
M  V30 409 C 40.5668 2.62087 -3.3837 0
M  V30 410 C 39.8928 4.01369 -3.53281 0
M  V30 411 C 41.1928 2.19171 -4.7409 0
M  V30 412 H 42.8868 0.998556 -2.82257 0
M  V30 413 H 40.4328 0.47891 -1.35803 0
M  V30 414 H 42.3858 3.41057 -2.47503 0
M  V30 415 H 41.1098 2.99432 -1.30414 0
M  V30 416 H 39.7688 1.90063 -3.13483 0
M  V30 417 H 39.4168 4.31489 -2.58508 0
M  V30 418 H 39.1168 3.99254 -4.31127 0
M  V30 419 H 40.6408 4.77552 -3.80495 0
M  V30 420 H 42.0548 2.83384 -4.98363 0
M  V30 421 H 40.4518 2.2817 -5.5503 0
M  V30 422 H 41.5218 1.14336 -4.71227 0
M  V30 423 N 42.8649 1.48995 0.513639 0
M  V30 424 C 43.8129 1.65199 1.63744 0
M  V30 425 C 44.8069 0.51809 1.61283 0
M  V30 426 O 46.0129 0.697335 1.65943 0
M  V30 427 H 42.3879 0.52069 0.542574 0
M  V30 428 H 44.3589 2.59552 1.47226 0
M  V30 429 C 43.1079 1.72409 3.01945 0
M  V30 430 H 42.4309 2.59029 3.04539 0
M  V30 431 H 43.8709 1.87785 3.80148 0
M  V30 432 C 42.3299 0.46618 3.33659 0
M  V30 433 O 42.8599 -0.413744 3.99564 0
M  V30 434 N 41.0659 0.332931 2.88687 0
M  V30 435 H 40.6129 1.04996 2.35231 0
M  V30 436 H 40.5709 -0.507665 3.10274 0
M  V30 437 N 44.343 -0.763751 1.37857 0
M  V30 438 C 45.568 -1.55805 1.36893 0
M  V30 439 C 45.993 -1.88054 -0.0416135 0
M  V30 440 O 45.351 -1.49825 -1.02089 0
M  V30 441 C 45.399 -2.84012 2.22192 0
M  V30 442 O 44.503 -3.78732 1.63204 0
M  V30 443 H 43.844 -0.471638 0.46739 0
M  V30 444 H 46.374 -0.944657 1.81487 0
M  V30 445 H 46.384 -3.33037 2.35691 0
M  V30 446 H 45.059 -2.59869 3.24716 0
M  V30 447 H 43.636 -3.37402 1.58791 0
M  V30 448 N 45.8211 -1.22559 -0.990812 0
M  V30 449 C 47.0461 -1.07862 -1.77145 0
M  V30 450 C 47.4711 0.366447 -1.84496 0
M  V30 451 O 46.8291 1.26478 -1.29896 0
M  V30 452 C 46.8771 -1.69686 -3.18181 0
M  V30 453 O 45.9811 -0.951946 -4.01263 0
M  V30 454 H 45.3221 -0.378712 -0.545411 0
M  V30 455 H 47.8521 -1.62399 -1.2445 0
M  V30 456 H 47.8621 -1.74496 -3.68802 0
M  V30 457 H 46.5371 -2.74841 -3.12146 0
M  V30 458 H 45.1141 -0.980011 -3.59792 0
M  V30 459 N 47.2992 1.18797 -1.03562 0
M  V30 460 C 48.5242 1.9314 -0.755764 0
M  V30 461 C 48.9492 1.7537 0.68022 0
M  V30 462 O 48.3072 1.06046 1.47051 0
M  V30 463 C 48.3552 3.42747 -1.12058 0
M  V30 464 O 47.4592 4.11683 -0.243124 0
M  V30 465 H 46.8002 0.602724 -0.278604 0
M  V30 466 H 49.3302 1.50678 -1.3841 0
M  V30 467 H 49.3402 3.93437 -1.08035 0
M  V30 468 H 48.0152 3.55002 -2.16672 0
M  V30 469 H 46.5922 3.71323 -0.342539 0
M  V30 470 N 48.7773 0.814389 1.34928 0
M  V30 471 C 50.0233 0.399013 1.98836 0
M  V30 472 C 50.3563 -1.03314 1.64438 0
M  V30 473 O 49.6313 -1.71811 0.911659 0
M  V30 474 C 49.9143 0.591629 3.55207 0
M  V30 475 C 49.7673 2.06928 3.99376 0
M  V30 476 C 51.0863 0.022199 4.40094 0
M  V30 477 H 48.2053 0.146451 0.722303 0
M  V30 478 H 50.8473 1.02537 1.59957 0
M  V30 479 H 48.9973 0.0584441 3.88456 0
M  V30 480 H 50.6693 2.66544 3.76499 0
M  V30 481 H 48.9123 2.56287 3.49999 0
M  V30 482 H 49.5833 2.1549 5.08201 0
M  V30 483 H 52.0593 0.477643 4.13349 0
M  V30 484 H 50.9353 0.186832 5.48582 0
M  V30 485 H 51.1963 -1.07215 4.28902 0
M  V30 486 N 50.2554 -1.46986 0.568584 0
M  V30 487 C 51.5034 -2.02041 0.0487022 0
M  V30 488 C 51.8244 -1.44408 -1.31039 0
M  V30 489 O 51.0944 -0.623477 -1.85714 0
M  V30 490 H 49.6744 -0.746849 0.015014 0
M  V30 491 H 52.3364 -1.80257 0.741168 0
M  V30 492 H 51.4324 -3.12085 -0.0308961 0
M  V30 493 N 51.7335 -0.305618 -1.54608 0
M  V30 494 C 52.6815 0.584119 -2.25146 0
M  V30 495 C 53.6755 1.13326 -1.25911 0
M  V30 496 O 54.8815 1.08337 -1.43747 0
M  V30 497 H 51.2565 0.206983 -0.722954 0
M  V30 498 H 53.2275 -0.033291 -2.98381 0
M  V30 499 C 51.9765 1.74225 -3.009 0
M  V30 500 H 51.2995 1.32892 -3.77067 0
M  V30 501 H 52.7395 2.34077 -3.53531 0
M  V30 502 C 51.1985 2.64914 -2.0814 0
M  V30 503 O 51.7285 3.66137 -1.65246 0
M  V30 504 N 49.9345 2.3275 -1.74 0
M  V30 505 H 49.4815 1.50479 -2.09078 0
M  V30 506 H 49.4395 2.93694 -1.12211 0
M  V30 507 N 53.2116 1.57565 -0.0334293 0
M  V30 508 C 54.1416 2.13511 0.945265 0
M  V30 509 C 55.1226 1.05231 1.33643 0
M  V30 510 O 56.3076 1.33084 1.41429 0
M  V30 511 C 53.4376 2.6657 2.22616 0
M  V30 512 C 52.3916 3.79676 1.97561 0
M  V30 513 C 51.7176 4.1918 3.31952 0
M  V30 514 C 53.0176 5.0557 1.31135 0
M  V30 515 H 54.7116 2.95538 0.479325 0
M  V30 516 H 52.2576 1.42166 0.229115 0
M  V30 517 H 54.2106 3.04344 2.91466 0
M  V30 518 H 52.9346 1.8171 2.71384 0
M  V30 519 H 51.5936 3.42347 1.31127 0
M  V30 520 H 51.2416 3.31296 3.78487 0
M  V30 521 H 50.9416 4.95402 3.15992 0
M  V30 522 H 52.4656 4.59541 4.02063 0
M  V30 523 H 53.8796 5.40903 1.89992 0
M  V30 524 H 52.2766 5.86818 1.25559 0
M  V30 525 H 53.3466 4.84062 0.284894 0
M  V30 526 N 54.6897 -0.239769 1.55765 0
M  V30 527 C 55.9147 -0.988373 1.82335 0
M  V30 528 C 56.3397 -1.77886 0.611421 0
M  V30 529 O 55.6977 -1.75889 -0.439639 0
M  V30 530 C 55.7457 -1.89627 3.06715 0
M  V30 531 O 54.8497 -2.98904 2.84131 0
M  V30 532 H 54.1907 -0.280858 0.601677 0
M  V30 533 H 56.7207 -0.258597 2.02959 0
M  V30 534 H 56.7307 -2.30957 3.36338 0
M  V30 535 H 55.4057 -1.31511 3.9456 0
M  V30 536 H 53.9827 -2.61651 2.65694 0
M  V30 537 N 56.1678 -1.49265 -0.50573 0
M  V30 538 C 57.4078 -1.60128 -1.27038 0
M  V30 539 C 57.7718 -0.279557 -1.89954 0
M  V30 540 O 58.9728 -0.263329 -2.67507 0
M  V30 541 C 57.2438 -2.72507 -2.31246 0
M  V30 542 S 58.8028 -3.0329 -3.17113 0
M  V30 543 H 55.6208 -0.564863 -0.4318 0
M  V30 544 H 58.2228 -1.86902 -0.573397 0
M  V30 545 H 56.9268 -3.67068 -1.83546 0
M  V30 546 H 56.4578 -2.4771 -3.05619 0
M  V30 547 H 58.4728 -2.44448 -4.31809 0
M  V30 548 N 57.6459 0.756429 -1.3826 0
M  V30 549 C 58.5559 1.9009 -1.37488 0
M  V30 550 C 59.5719 1.71855 -0.272366 0
M  V30 551 O 60.7479 1.94827 -0.510318 0
M  V30 552 C 57.8129 3.25421 -1.19592 0
M  V30 553 C 56.8739 3.56202 -2.39622 0
M  V30 554 C 56.1069 4.85075 -2.2257 0
M  V30 555 O 56.3299 5.57246 -1.21793 0
M  V30 556 O 55.2639 5.15269 -3.11098 0
M  V30 557 H 59.0899 1.93695 -2.33914 0
M  V30 558 H 56.6749 0.901313 -1.1915 0
M  V30 559 H 58.5569 4.06337 -1.11661 0
M  V30 560 H 57.2319 3.22634 -0.262486 0
M  V30 561 H 56.1389 2.75458 -2.53128 0
M  V30 562 H 57.4719 3.63747 -3.31586 0
M  V30 563 N 59.124 1.23083 0.984299 0
M  V30 564 C 60.535 1.05609 1.5396 0
M  V30 565 C 60.886 -0.377793 1.92528 0
M  V30 566 O 60.011 -1.26398 1.75649 0
M  V30 567 C 60.606 1.91087 2.7977 0
M  V30 568 C 59.165 1.77885 3.31713 0
M  V30 569 C 58.312 1.87028 2.04733 0
M  V30 570 H 61.263 1.36802 0.804419 0
M  V30 571 H 61.284 1.43336 3.5247 0
M  V30 572 H 60.796 2.9544 2.51668 0
M  V30 573 H 58.897 0.762995 3.64704 0
M  V30 574 H 59.01 2.61047 4.01735 0
M  V30 575 H 57.374 1.30565 2.18689 0
M  V30 576 H 58.157 2.92929 1.79017 0
M  V30 577 N 60.6021 -1.18246 1.0419 0
M  V30 578 C 62.0131 -1.69914 0.773698 0
M  V30 579 C 62.3641 -1.83085 -0.705297 0
M  V30 580 O 61.4891 -1.51123 -1.5489 0
M  V30 581 C 62.0841 -3.08619 1.39784 0
M  V30 582 C 60.6431 -3.57494 1.17792 0
M  V30 583 C 59.7901 -2.34013 1.48773 0
M  V30 584 H 62.7411 -1.02904 1.20816 0
M  V30 585 H 62.7621 -3.71958 0.801714 0
M  V30 586 H 62.2741 -2.99001 2.47426 0
M  V30 587 H 60.3751 -3.72406 0.120295 0
M  V30 588 H 60.4881 -4.40852 1.87581 0
M  V30 589 H 58.8521 -2.37986 0.907463 0
M  V30 590 H 59.6351 -2.27013 2.57527 0
M  V30 591 N 62.0802 -0.821533 -1.34494 0
M  V30 592 C 63.4962 -0.507117 -1.51329 0
M  V30 593 C 63.6962 0.968964 -1.76673 0
M  V30 594 O 62.7522 1.75348 -1.81685 0
M  V30 595 C 64.0652 -1.36544 -2.67911 0
M  V30 596 C 65.6132 -1.36242 -2.81793 0
M  V30 597 C 66.0882 -2.2052 -4.01416 0
M  V30 598 N 67.5792 -2.18136 -4.08621 0
M  V30 599 C 68.3142 -2.80095 -5.00334 0
M  V30 600 N 67.8102 -3.51039 -5.9728 0
M  V30 601 N 69.6032 -2.69656 -4.93196 0
M  V30 602 H 61.7542 -1.77729 -1.16302 0
M  V30 603 H 64.0172 -0.757291 -0.570276 0
M  V30 604 H 63.7232 -2.41361 -2.55808 0
M  V30 605 H 63.5972 -1.02917 -3.62888 0
M  V30 606 H 65.9842 -0.322041 -2.93338 0
M  V30 607 H 66.0652 -1.73866 -1.87628 0
M  V30 608 H 65.7092 -3.24607 -3.90631 0
M  V30 609 H 65.6392 -1.80247 -4.94791 0
M  V30 610 H 68.1302 -1.6653 -3.39229 0
M  V30 611 H 68.4432 -3.95565 -6.63889 0
M  V30 612 H 66.7882 -3.55145 -5.97409 0
M  V30 613 H 69.9792 -2.13808 -4.16418 0
M  V30 614 H 70.1522 -3.1823 -5.64476 0
M  V30 615 N 63.5583 1.46682 -0.576371 0
M  V30 616 C 64.8073 2.01619 -0.0572825 0
M  V30 617 C 65.1203 1.45417 1.30818 0
M  V30 618 O 66.3263 1.92133 1.91825 0
M  V30 619 C 64.7823 3.59863 -0.0518371 0
M  V30 620 C 64.3903 4.25059 -1.41523 0
M  V30 621 C 66.1343 4.2248 0.413639 0
M  V30 622 C 64.0413 5.75364 -1.36785 0
M  V30 623 H 62.9713 0.753794 -0.0176448 0
M  V30 624 H 65.6223 1.68481 -0.727076 0
M  V30 625 H 64.0043 3.90048 0.683994 0
M  V30 626 H 65.1783 4.06491 -2.17029 0
M  V30 627 H 63.4933 3.7451 -1.8202 0
M  V30 628 H 66.0903 5.3265 0.467779 0
M  V30 629 H 66.4333 3.90976 1.42982 0
M  V30 630 H 66.9663 3.96897 -0.267929 0
M  V30 631 H 63.7053 6.11518 -2.36063 0
M  V30 632 H 63.2253 5.96214 -0.654895 0
M  V30 633 H 64.9043 6.37955 -1.07805 0
M  V30 634 N 65.0364 0.313813 1.54444 0
M  V30 635 C 66.4524 -0.0391619 1.59552 0
M  V30 636 C 66.6524 -1.51322 1.33056 0
M  V30 637 O 65.7084 -2.26782 1.11022 0
M  V30 638 C 67.0214 0.370302 2.98411 0
M  V30 639 C 68.5694 0.320139 3.11358 0
M  V30 640 C 69.0444 0.704617 4.52547 0
M  V30 641 N 70.5354 0.657645 4.58508 0
M  V30 642 C 71.2704 0.927453 5.6585 0
M  V30 643 N 70.7664 1.26389 6.81174 0
M  V30 644 N 72.5594 0.853662 5.5558 0
M  V30 645 H 64.7104 1.27433 1.69925 0
M  V30 646 H 66.9734 0.517511 0.794284 0
M  V30 647 H 66.6794 1.39694 3.22767 0
M  V30 648 H 66.5534 -0.269619 3.76235 0
M  V30 649 H 68.9404 -0.697275 2.86744 0
M  V30 650 H 69.0214 0.99486 2.35661 0
M  V30 651 H 68.6654 1.7199 4.77893 0
M  V30 652 H 68.5954 0.00768843 5.26599 0
M  V30 653 H 71.0864 0.409067 3.75679 0
M  V30 654 H 71.3994 1.4554 7.58972 0
M  V30 655 H 69.7444 1.30206 6.82694 0
M  V30 656 H 72.9354 0.590383 4.64362 0
M  V30 657 H 73.1084 1.0673 6.3915 0
M  V30 658 N 66.5145 -1.57545 0.0417849 0
M  V30 659 C 67.7625 -1.91937 -0.632829 0
M  V30 660 C 68.0835 -0.919978 -1.71934 0
M  V30 661 O 67.3535 0.0366064 -1.95866 0
M  V30 662 H 65.9335 -0.708493 -0.236742 0
M  V30 663 H 68.5955 -1.9468 0.0925745 0
M  V30 664 H 67.6915 -2.92912 -1.07746 0
M  V30 665 N 67.9926 0.231505 -1.5589 0
M  V30 666 C 68.9556 1.27028 -1.90779 0
M  V30 667 C 69.9556 1.40308 -0.785507 0
M  V30 668 O 71.1456 1.38744 -1.05336 0
M  V30 669 C 68.2776 2.64566 -2.14983 0
M  V30 670 H 69.4706 0.973017 -2.83677 0
M  V30 671 H 67.0236 0.471486 -1.49019 0
M  V30 672 H 67.7586 2.99406 -1.24604 0
M  V30 673 H 67.5436 2.56305 -2.96732 0
M  V30 674 H 69.0336 3.39543 -2.43105 0
M  V30 675 N 69.4707 1.49531 0.497807 0
M  V30 676 C 70.7187 1.58865 1.24926 0
M  V30 677 C 71.0397 0.278721 1.92998 0
M  V30 678 O 70.3097 -0.702144 1.82885 0
M  V30 679 H 68.8897 0.585343 0.464094 0
M  V30 680 H 71.5517 1.86174 0.57666 0
M  V30 681 H 70.6477 2.38633 2.01149 0
M  V30 682 N 70.9488 -0.749086 1.3866 0
M  V30 683 C 72.1768 -1.53834 1.38358 0
M  V30 684 C 72.5918 -1.88783 -0.0255219 0
M  V30 685 O 71.9488 -1.53101 -0.993292 0
M  V30 686 C 71.9998 -2.83468 2.2434 0
M  V30 687 O 71.7208 -2.50008 3.5976 0
M  V30 688 C 73.2218 -3.7758 2.32267 0
M  V30 689 H 70.4418 -0.47585 0.473083 0
M  V30 690 H 72.9858 -0.926726 1.82297 0
M  V30 691 H 71.1408 -3.40995 1.83851 0
M  V30 692 H 71.5548 -3.33182 4.05081 0
M  V30 693 H 73.0288 -4.65478 2.96706 0
M  V30 694 H 73.5058 -4.18334 1.33765 0
M  V30 695 H 74.1118 -3.25976 2.73166 0
M  V30 696 N 72.4269 -1.23603 -0.977757 0
M  V30 697 C 73.8429 -0.999251 -1.24447 0
M  V30 698 C 74.0429 0.298053 -1.99283 0
M  V30 699 O 73.0989 1.01681 -2.31122 0
M  V30 700 C 74.4119 -2.20784 -2.04144 0
M  V30 701 C 75.9599 -2.25303 -2.17273 0
M  V30 702 C 76.4349 -3.45755 -3.00362 0
M  V30 703 N 77.9259 -3.4601 -3.07947 0
M  V30 704 C 78.6609 -4.35868 -3.72568 0
M  V30 705 N 78.1569 -5.35966 -4.38991 0
M  V30 706 N 79.9499 -4.23605 -3.6948 0
M  V30 707 H 72.1009 -2.06986 -0.476483 0
M  V30 708 H 74.3639 -0.907801 -0.273134 0
M  V30 709 H 74.0699 -3.14945 -1.56533 0
M  V30 710 H 73.9439 -2.22085 -3.04891 0
M  V30 711 H 76.3309 -1.3168 -2.64092 0
M  V30 712 H 76.4119 -2.28033 -1.15907 0
M  V30 713 H 76.0559 -4.39687 -2.5424 0
M  V30 714 H 75.9859 -3.40266 -4.01904 0
M  V30 715 H 78.4769 -2.73588 -2.60688 0
M  V30 716 H 78.7899 -6.00783 -4.86086 0
M  V30 717 H 77.1349 -5.39863 -4.37691 0
M  V30 718 H 80.3259 -3.44647 -3.16759 0
M  V30 719 H 80.4989 -4.93836 -4.1956 0
M  V30 720 N 73.905 1.17692 -1.04816 0
M  V30 721 C 74.815 2.25229 -0.65643 0
M  V30 722 C 75.831 1.71018 0.320761 0
M  V30 723 O 77.007 2.00649 0.173805 0
M  V30 724 C 74.072 3.46684 -0.0332629 0
M  V30 725 C 73.133 4.15997 -1.06042 0
M  V30 726 C 72.366 5.31654 -0.466893 0
M  V30 727 O 72.589 5.65777 0.724758 0
M  V30 728 O 71.523 5.89831 -1.1993 0
M  V30 729 H 75.349 2.61016 -1.55255 0
M  V30 730 H 72.934 1.24919 -0.81949 0
M  V30 731 H 74.816 4.20234 0.313256 0
M  V30 732 H 73.491 3.12703 0.836566 0
M  V30 733 H 72.398 3.44482 -1.45886 0
M  V30 734 H 73.731 4.53996 -1.90127 0
M  V30 735 N 75.3831 0.828654 1.34056 0
M  V30 736 C 76.3131 0.269443 2.3194 0
M  V30 737 C 77.2941 -0.617247 1.58506 0
M  V30 738 O 78.4791 -0.542931 1.86456 0
M  V30 739 C 75.6091 -0.564793 3.42677 0
M  V30 740 C 74.5631 0.225241 4.27407 0
M  V30 741 C 73.8891 -0.7321 5.29664 0
M  V30 742 C 75.1891 1.43663 5.02154 0
M  V30 743 H 76.8831 1.08728 2.7896 0
M  V30 744 H 74.4291 0.524283 1.34117 0
M  V30 745 H 76.3821 -0.966233 4.10173 0
M  V30 746 H 75.1061 -1.41574 2.9432 0
M  V30 747 H 73.7651 0.608117 3.61521 0
M  V30 748 H 73.4131 -1.57916 4.77568 0
M  V30 749 H 73.1131 -0.20767 5.87233 0
M  V30 750 H 74.6371 -1.13128 6.00029 0
M  V30 751 H 76.0511 1.1089 5.62473 0
M  V30 752 H 74.4481 1.89711 5.69324 0
M  V30 753 H 75.5181 2.21181 4.31517 0
M  V30 754 N 76.8612 -1.46375 0.584142 0
M  V30 755 C 77.7712 -2.34115 -0.150728 0
M  V30 756 C 78.7872 -1.49838 -0.884567 0
M  V30 757 O 79.9632 -1.82704 -0.847429 0
M  V30 758 C 77.0282 -3.2705 -1.15062 0
M  V30 759 C 76.0892 -4.27228 -0.421293 0
M  V30 760 C 75.3222 -5.15722 -1.37355 0
M  V30 761 O 75.5452 -5.07176 -2.61014 0
M  V30 762 O 74.4792 -5.95383 -0.883355 0
M  V30 763 H 78.3052 -2.98309 0.569708 0
M  V30 764 H 75.8902 -1.45373 0.344535 0
M  V30 765 H 77.7722 -3.84381 -1.72712 0
M  V30 766 H 76.4472 -2.65451 -1.8525 0
M  V30 767 H 75.3542 -3.7358 0.197085 0
M  V30 768 H 76.6872 -4.91616 0.239641 0
M  V30 769 N 78.3393 -0.321999 -1.54275 0
M  V30 770 C 79.2693 0.537411 -2.27231 0
M  V30 771 C 80.2503 1.12064 -1.27968 0
M  V30 772 O 81.4353 1.14606 -1.56777 0
M  V30 773 C 78.5653 1.69919 -3.02894 0
M  V30 774 C 77.5193 1.24534 -4.09482 0
M  V30 775 C 76.8453 2.49394 -4.72977 0
M  V30 776 C 78.1453 0.361335 -5.21049 0
M  V30 777 H 79.8393 -0.0711406 -2.99315 0
M  V30 778 H 77.3853 -0.0356555 -1.43956 0
M  V30 779 H 79.3383 2.30668 -3.52662 0
M  V30 780 H 78.0623 2.33431 -2.28424 0
M  V30 781 H 76.7213 0.660782 -3.60596 0
M  V30 782 H 76.3693 3.11265 -3.95124 0
M  V30 783 H 76.0693 2.19718 -5.44975 0
M  V30 784 H 77.5933 3.10908 -5.25517 0
M  V30 785 H 79.0073 0.875072 -5.66582 0
M  V30 786 H 77.4043 0.157428 -5.99893 0
M  V30 787 H 78.4743 -0.60822 -4.8107 0
M  V30 788 N 79.8174 1.5752 -0.0501392 0
M  V30 789 C 80.7804 2.1037 0.909786 0
M  V30 790 C 81.7804 1.02308 1.24056 0
M  V30 791 O 82.9704 1.28385 1.17741 0
M  V30 792 C 80.1024 2.58708 2.21998 0
M  V30 793 H 81.2954 2.96479 0.451665 0
M  V30 794 H 78.8484 1.55038 0.198248 0
M  V30 795 H 79.5834 1.75989 2.72394 0
M  V30 796 H 79.3684 3.37675 1.99295 0
M  V30 797 H 80.8584 2.99747 2.9076 0
M  V30 798 N 81.2955 -0.223234 1.56011 0
M  V30 799 C 82.5445 -0.945912 1.78144 0
M  V30 800 C 82.8575 -1.85567 0.618396 0
M  V30 801 O 84.0635 -2.61688 0.723318 0
M  V30 802 C 82.5195 -1.73216 3.15475 0
M  V30 803 C 82.1275 -0.868619 4.39499 0
M  V30 804 C 83.8715 -2.44615 3.46935 0
M  V30 805 C 81.7785 -1.65212 5.67855 0
M  V30 806 H 80.7085 -0.356929 0.664167 0
M  V30 807 H 83.3595 -0.199845 1.82409 0
M  V30 808 H 81.7415 -2.52107 3.05382 0
M  V30 809 H 82.9155 -0.120366 4.60643 0
M  V30 810 H 81.2305 -0.26683 4.15544 0
M  V30 811 H 83.8275 -3.03732 4.40058 0
M  V30 812 H 84.1705 -3.17417 2.69355 0
M  V30 813 H 84.7035 -1.72715 3.58349 0
M  V30 814 H 81.4425 -0.967407 6.48322 0
M  V30 815 H 80.9625 -2.37503 5.50774 0
M  V30 816 H 82.6415 -2.21322 6.07968 0
M  V30 817 N 82.7736 -1.49793 -0.48987 0
M  V30 818 C 84.1896 -1.36803 -0.822022 0
M  V30 819 C 84.3896 -0.409652 -1.97292 0
M  V30 820 O 83.4456 0.154614 -2.52026 0
M  V30 821 C 84.7586 -2.77768 -1.15175 0
M  V30 822 C 86.3066 -2.86549 -1.25931 0
M  V30 823 C 86.7816 -4.28306 -1.62228 0
M  V30 824 N 88.2726 -4.31169 -1.69256 0
M  V30 825 C 89.0076 -5.37832 -1.98807 0
M  V30 826 N 88.5036 -6.54726 -2.26507 0
M  V30 827 N 90.2966 -5.25258 -2.00152 0
M  V30 828 H 82.4476 -2.10691 0.268881 0
M  V30 829 H 84.7106 -0.946241 0.057728 0
M  V30 830 H 84.4166 -3.49648 -0.379335 0
M  V30 831 H 84.2906 -3.13836 -2.09253 0
M  V30 832 H 86.6776 -2.14899 -2.02243 0
M  V30 833 H 86.7586 -2.54049 -0.298776 0
M  V30 834 H 86.4026 -5.00486 -0.864622 0
M  V30 835 H 86.3326 -4.58279 -2.594 0
M  V30 836 H 88.8236 -3.4687 -1.49965 0
M  V30 837 H 89.1366 -7.31833 -2.48276 0
M  V30 838 H 87.4816 -6.57933 -2.23939 0
M  V30 839 H 90.6726 -4.32938 -1.77996 0
M  V30 840 H 90.8456 -6.08476 -2.22848 0
M  V30 841 N 84.2517 0.741722 -1.39055 0
M  V30 842 C 85.5007 1.49656 -1.35225 0
M  V30 843 C 85.8137 1.95533 0.0512708 0
M  V30 844 O 87.0197 2.7067 0.212138 0
M  V30 845 C 85.4757 2.70389 -2.37525 0
M  V30 846 C 85.0837 2.31489 -3.83558 0
M  V30 847 C 86.8277 3.48236 -2.42759 0
M  V30 848 C 84.7347 3.48903 -4.77515 0
M  V30 849 H 83.6647 0.56197 -0.502699 0
M  V30 850 H 86.3157 0.809727 -1.64668 0
M  V30 851 H 84.6977 3.41113 -2.01142 0
M  V30 852 H 85.8717 1.68354 -4.28945 0
M  V30 853 H 84.1867 1.66749 -3.81554 0
M  V30 854 H 86.7837 4.35558 -3.1015 0
M  V30 855 H 87.1267 3.90229 -1.45008 0
M  V30 856 H 87.6597 2.84535 -2.78002 0
M  V30 857 H 84.3987 3.11966 -5.76504 0
M  V30 858 H 83.9187 4.11041 -4.36813 0
M  V30 859 H 85.5977 4.15328 -4.96096 0
M  V30 860 N 85.7298 1.2412 0.971189 0
M  V30 861 C 86.9578 1.10575 1.74874 0
M  V30 862 C 87.3728 -0.342017 1.85676 0
M  V30 863 O 86.7298 -1.23617 1.34258 0
M  V30 864 C 86.7808 1.73579 3.171 0
M  V30 865 O 86.5018 3.12695 3.06844 0
M  V30 866 C 88.0028 1.65598 4.11208 0
M  V30 867 H 85.2228 0.386504 0.548503 0
M  V30 868 H 87.7668 1.64156 1.21955 0
M  V30 869 H 85.9218 1.24009 3.67016 0
M  V30 870 H 86.3358 3.43412 3.96445 0
M  V30 871 H 87.8098 2.1437 5.08674 0
M  V30 872 H 88.2868 0.616532 4.34851 0
M  V30 873 H 88.8928 2.14578 3.67201 0
M  V30 874 N 87.2079 -1.17134 1.05439 0
M  V30 875 C 88.1379 -2.2342 0.678649 0
M  V30 876 C 89.1189 -1.66971 -0.32476 0
M  V30 877 O 90.3039 -1.93149 -0.201802 0
M  V30 878 C 87.4339 -3.47256 0.0552099 0
M  V30 879 C 86.3879 -4.16543 0.98365 0
M  V30 880 C 85.7139 -5.34231 0.223961 0
M  V30 881 C 87.0139 -4.68495 2.3089 0
M  V30 882 H 88.7079 -2.55105 1.56722 0
M  V30 883 H 86.2539 -1.2262 0.754998 0
M  V30 884 H 88.2069 -4.20828 -0.21946 0
M  V30 885 H 86.9309 -3.14846 -0.868319 0
M  V30 886 H 85.5899 -3.44887 1.24293 0
M  V30 887 H 85.2379 -4.98071 -0.702412 0
M  V30 888 H 84.9379 -5.81527 0.842627 0
M  V30 889 H 86.4619 -6.10585 -0.0433671 0
M  V30 890 H 87.8759 -5.33691 2.09396 0
M  V30 891 H 86.2729 -5.26379 2.88176 0
M  V30 892 H 87.3429 -3.85169 2.94572 0
M  V30 893 N 88.686 -0.835752 -1.33615 0
M  V30 894 C 89.916 -0.442701 -2.01801 0
M  V30 895 C 90.324 0.959807 -1.63047 0
M  V30 896 O 89.667 1.63468 -0.838088 0
M  V30 897 C 89.729 -0.480125 -3.56279 0
M  V30 898 C 89.393 -1.8382 -4.18401 0
M  V30 899 C 90.39 -2.80097 -4.37998 0
M  V30 900 C 88.075 -2.13019 -4.54894 0
M  V30 901 C 90.069 -4.03736 -4.9323 0
M  V30 902 C 87.756 -3.36916 -5.09834 0
M  V30 903 C 88.754 -4.32091 -5.28948 0
M  V30 904 O 88.442 -5.53797 -5.82721 0
M  V30 905 H 88.174 -0.17441 -0.653114 0
M  V30 906 H 90.728 -1.129 -1.71589 0
M  V30 907 H 88.958 0.262931 -3.85805 0
M  V30 908 H 90.647 -0.105335 -4.05763 0
M  V30 909 H 91.413 -2.58838 -4.10156 0
M  V30 910 H 87.292 -1.39733 -4.39313 0
M  V30 911 H 90.836 -4.78034 -5.08064 0
M  V30 912 H 86.733 -3.58033 -5.37106 0
M  V30 913 H 87.501 -5.55494 -6.0114 0
M  V30 914 N 90.1641 1.46063 -0.591896 0
M  V30 915 C 91.1271 2.28854 0.125973 0
M  V30 916 C 92.1271 1.38903 0.810107 0
M  V30 917 O 93.3171 1.61186 0.66066 0
M  V30 918 C 90.4491 3.19526 1.1881 0
M  V30 919 H 91.6421 2.93802 -0.601717 0
M  V30 920 H 89.1951 1.52325 -0.350254 0
M  V30 921 H 89.9301 2.59345 1.94707 0
M  V30 922 H 89.7151 3.85766 0.701936 0
M  V30 923 H 91.2051 3.81817 1.69132 0
M  V30 924 N 91.6422 0.330177 1.54103 0
M  V30 925 C 92.8882 -0.270806 2.00984 0
M  V30 926 C 93.2212 -1.51265 1.21789 0
M  V30 927 O 92.4962 -1.92142 0.301927 0
M  V30 928 C 92.7792 -0.598339 3.55094 0
M  V30 929 C 92.6322 0.654674 4.4501 0
M  V30 930 C 93.9512 -1.41334 4.16789 0
M  V30 931 H 91.0702 -0.0969531 0.730595 0
M  V30 932 H 93.7122 0.448066 1.84641 0
M  V30 933 H 91.8622 -1.21078 3.69151 0
M  V30 934 H 93.5342 1.29285 4.42813 0
M  V30 935 H 91.7772 1.28224 4.14416 0
M  V30 936 H 92.4482 0.380944 5.50684 0
M  V30 937 H 94.9242 -0.895597 4.06347 0
M  V30 938 H 93.8002 -1.61127 5.24718 0
M  V30 939 H 94.0612 -2.41146 3.70541 0
M  V30 940 N 93.1203 -1.57491 0.0584922 0
M  V30 941 C 94.3693 -1.92155 -0.613146 0
M  V30 942 C 94.6823 -0.939334 -1.71569 0
M  V30 943 O 95.8883 -1.17829 -2.44599 0
M  V30 944 C 94.3443 -3.41303 -1.14195 0
M  V30 945 C 93.9523 -4.47944 -0.0711265 0
M  V30 946 C 95.6963 -3.84988 -1.78841 0
M  V30 947 C 93.6033 -5.88212 -0.613225 0
M  V30 948 H 92.5333 -0.717162 -0.232796 0
M  V30 949 H 95.1843 -1.83049 0.12857 0
M  V30 950 H 93.5663 -3.45437 -1.93621 0
M  V30 951 H 94.7403 -4.55408 0.702836 0
M  V30 952 H 93.0553 -4.13644 0.478313 0
M  V30 953 H 95.6523 -4.87159 -2.20408 0
M  V30 954 H 95.9953 -3.21632 -2.64308 0
M  V30 955 H 96.5283 -3.83401 -1.06059 0
M  V30 956 H 93.2673 -6.55183 0.203978 0
M  V30 957 H 92.7873 -5.84294 -1.35501 0
M  V30 958 H 94.4663 -6.37687 -1.09383 0
M  V30 959 N 94.5984 0.214957 -1.56127 0
M  V30 960 C 95.8454 0.938372 -1.79446 0
M  V30 961 C 96.1734 1.8407 -0.628378 0
M  V30 962 O 95.4284 1.91837 0.386925 0
M  V30 963 C 95.7274 1.80314 -3.0858 0
M  V30 964 C 95.3934 1.05349 -4.3842 0
M  V30 965 C 94.0554 0.846435 -4.73697 0
M  V30 966 C 96.4074 0.524588 -5.18553 0
M  V30 967 C 93.7354 0.098683 -5.86617 0
M  V30 968 C 96.0874 -0.209853 -6.32252 0
M  V30 969 C 94.7514 -0.428102 -6.66126 0
M  V30 970 H 94.0214 0.343375 -0.656639 0
M  V30 971 H 96.6684 0.206077 -1.90388 0
M  V30 972 H 94.9734 2.6035 -2.92789 0
M  V30 973 H 96.6704 2.36513 -3.23825 0
M  V30 974 H 93.2604 1.22486 -4.10725 0
M  V30 975 H 97.4444 0.672008 -4.91729 0
M  V30 976 H 92.7004 -0.0805753 -6.11347 0
M  V30 977 H 96.8744 -0.627157 -6.9357 0
M  V30 978 H 94.5014 -1.00944 -7.53468 0
M  V30 979 N 96.0765 1.50051 0.48192 0
M  V30 980 C 97.0065 1.71046 1.58951 0
M  V30 981 C 97.9875 0.559288 1.60642 0
M  V30 982 O 99.1725 0.797243 1.77081 0
M  V30 983 C 96.3025 1.79462 2.97339 0
M  V30 984 C 95.2565 2.94558 3.10515 0
M  V30 985 C 94.5825 2.88105 4.50444 0
M  V30 986 C 95.8825 4.35227 2.88747 0
M  V30 987 H 97.5765 2.6378 1.41635 0
M  V30 988 H 95.1225 1.26936 0.679942 0
M  V30 989 H 97.0755 1.92734 3.74742 0
M  V30 990 H 95.7995 0.833412 3.15788 0
M  V30 991 H 94.4585 2.80918 2.35543 0
M  V30 992 H 94.1065 1.89853 4.65795 0
M  V30 993 H 93.8065 3.65366 4.60197 0
M  V30 994 H 95.3305 3.03412 5.29881 0
M  V30 995 H 96.7445 4.49449 3.55905 0
M  V30 996 H 95.1415 5.13856 3.09955 0
M  V30 997 H 96.2115 4.48347 1.84696 0
M  V30 998 N 97.5546 -0.734337 1.39446 0
M  V30 999 C 98.4876 -1.85715 1.32609 0
M  V30 1000 C 99.4656 -1.6137 0.199636 0
M  V30 1001 O 100.65 -1.84626 0.380195 0
M  V30 1002 C 97.7766 -3.21709 1.05929 0
M  V30 1003 C 96.8226 -3.64913 2.20773 0
M  V30 1004 S 97.6556 -3.74203 3.83056 0
M  V30 1005 C 98.8116 -5.12986 3.58603 0
M  V30 1006 H 99.0446 -1.91232 2.27635 0
M  V30 1007 H 96.5776 -0.899263 1.25509 0
M  V30 1008 H 98.5356 -4.00236 0.912203 0
M  V30 1009 H 97.1966 -3.13848 0.125883 0
M  V30 1010 H 96.3896 -4.63606 1.97699 0
M  V30 1011 H 95.9916 -2.93593 2.31688 0
M  V30 1012 H 98.2836 -5.99339 3.15909 0
M  V30 1013 H 99.2266 -5.41088 4.5676 0
M  V30 1014 H 99.6346 -4.82694 2.9269 0
M  V30 1015 N 99.0327 -1.24633 -0.964593 0
M  V30 1016 C 100.258 -1.11596 -1.74818 0
M  V30 1017 C 100.683 0.32723 -1.85232 0
M  V30 1018 O 100.041 1.23695 -1.32549 0
M  V30 1019 C 100.089 -1.76397 -3.1451 0
M  V30 1020 O 99.1927 -1.03685 -3.99153 0
M  V30 1021 H 98.5337 -0.390196 -0.537255 0
M  V30 1022 H 101.064 -1.65002 -1.20977 0
M  V30 1023 H 101.074 -1.8228 -3.65018 0
M  V30 1024 H 99.7487 -2.81401 -3.06246 0
M  V30 1025 H 98.3257 -1.05611 -3.57632 0
M  V30 1026 N 100.511 1.16574 -1.06058 0
M  V30 1027 C 101.757 1.87324 -0.777022 0
M  V30 1028 C 102.09 1.81351 0.694645 0
M  V30 1029 O 101.365 1.22753 1.50871 0
M  V30 1030 C 101.648 3.36991 -1.26922 0
M  V30 1031 C 101.501 3.51667 -2.80447 0
M  V30 1032 C 102.82 4.3131 -0.87521 0
M  V30 1033 H 99.9388 0.680191 -0.28374 0
M  V30 1034 H 102.581 1.37036 -1.3161 0
M  V30 1035 H 100.731 3.79949 -0.81063 0
M  V30 1036 H 102.403 3.17664 -3.34495 0
M  V30 1037 H 100.646 2.93656 -3.19294 0
M  V30 1038 H 101.317 4.56766 -3.0995 0
M  V30 1039 H 103.793 3.9624 -1.27014 0
M  V30 1040 H 102.669 5.34545 -1.2471 0
M  V30 1041 H 102.93 4.41552 0.220071 0
M  V30 1042 N 101.989 0.842826 1.3317 0
M  V30 1043 C 103.237 0.439577 1.97262 0
M  V30 1044 C 103.558 -1.00548 1.67078 0
M  V30 1045 O 102.828 -1.70098 0.971779 0
M  V30 1046 H 101.408 0.159558 0.72976 0
M  V30 1047 H 104.07 1.07665 1.62463 0
M  V30 1048 H 103.166 0.574886 3.0676 0
M  V30 1049 N 103.467 -1.45747 0.599634 0
M  V30 1050 C 104.715 -2.01893 0.0915472 0
M  V30 1051 C 105.036 -1.47155 -1.27946 0
M  V30 1052 O 104.306 -0.66273 -1.84349 0
M  V30 1053 H 102.886 -0.746363 0.0308524 0
M  V30 1054 H 105.548 -1.78645 0.779237 0
M  V30 1055 H 104.644 -3.1208 0.0353086 0
M  V30 1056 N 104.945 -0.338344 -1.53925 0
M  V30 1057 C 105.893 0.536231 -2.26335 0
M  V30 1058 C 106.887 1.1063 -1.28286 0
M  V30 1059 O 108.093 1.05264 -1.46012 0
M  V30 1060 H 104.468 0.191602 -0.727181 0
M  V30 1061 H 106.439 -0.0965747 -2.98244 0
M  V30 1062 C 105.188 1.67803 -3.04528 0
M  V30 1063 H 104.511 1.24864 -3.79801 0
M  V30 1064 H 105.951 2.26526 -3.58416 0
M  V30 1065 C 104.41 2.60439 -2.13712 0
M  V30 1066 O 104.94 3.6255 -1.72975 0
M  V30 1067 N 103.146 2.29006 -1.78898 0
M  V30 1068 H 102.693 1.46011 -2.12223 0
M  V30 1069 H 102.651 2.91248 -1.18416 0
M  V30 1070 N 106.423 1.57458 -0.0668435 0
M  V30 1071 C 107.356 2.08033 0.93795 0
M  V30 1072 C 108.334 0.984321 1.29421 0
M  V30 1073 O 109.518 1.25736 1.40437 0
M  V30 1074 C 106.645 2.53388 2.24749 0
M  V30 1075 C 105.691 3.74376 2.04315 0
M  V30 1076 S 106.524 5.19303 1.30706 0
M  V30 1077 C 107.68 5.67986 2.62951 0
M  V30 1078 H 107.913 2.92935 0.50759 0
M  V30 1079 H 105.446 1.5371 0.145804 0
M  V30 1080 H 107.404 2.8018 3.00016 0
M  V30 1081 H 106.065 1.68763 2.64911 0
M  V30 1082 H 105.258 4.04083 3.01218 0
M  V30 1083 H 104.86 3.47931 1.37186 0
M  V30 1084 H 107.152 5.74528 3.5906 0
M  V30 1085 H 108.095 6.66955 2.3786 0
M  V30 1086 H 108.503 4.95781 2.69929 0
M  V30 1087 N 107.901 -0.206675 1.56239 0
M  V30 1088 C 108.831 -1.25909 1.96645 0
M  V30 1089 C 109.812 -1.48097 0.836734 0
M  V30 1090 O 110.997 -1.6003 1.10019 0
M  V30 1091 C 108.127 -2.6058 2.29599 0
M  V30 1092 C 107.081 -2.53024 3.452 0
M  V30 1093 C 106.407 -3.91861 3.63798 0
M  V30 1094 C 107.707 -2.06524 4.79734 0
M  V30 1095 H 109.401 -0.923369 2.84806 0
M  V30 1096 H 106.947 -0.442735 1.37025 0
M  V30 1097 H 108.9 -3.34375 2.56459 0
M  V30 1098 H 107.624 -2.95869 1.38307 0
M  V30 1099 H 106.283 -1.81684 3.18412 0
M  V30 1100 H 105.931 -4.24483 2.69857 0
M  V30 1101 H 105.631 -3.87683 4.4156 0
M  V30 1102 H 107.155 -4.67296 3.93022 0
M  V30 1103 H 108.569 -2.70072 5.05702 0
M  V30 1104 H 106.966 -2.13374 5.60885 0
M  V30 1105 H 108.036 -1.01802 4.74093 0
M  V30 1106 N 109.379 -1.50304 -0.473955 0
M  V30 1107 C 110.628 -1.60392 -1.22301 0
M  V30 1108 C 110.941 -0.308411 -1.93153 0
M  V30 1109 O 112.147 -0.288156 -2.69966 0
M  V30 1110 C 110.603 -2.83109 -2.2221 0
M  V30 1111 C 110.211 -4.19524 -1.57173 0
M  V30 1112 C 111.955 -3.0254 -2.97775 0
M  V30 1113 C 109.862 -5.33431 -2.55353 0
M  V30 1114 H 108.792 -0.597286 -0.460179 0
M  V30 1115 H 111.443 -1.76731 -0.493803 0
M  V30 1116 H 109.825 -2.60322 -2.9841 0
M  V30 1117 H 110.999 -4.52554 -0.867824 0
M  V30 1118 H 109.314 -4.05674 -0.939002 0
M  V30 1119 H 111.911 -3.84811 -3.71248 0
M  V30 1120 H 112.254 -2.14154 -3.56992 0
M  V30 1121 H 112.787 -3.25494 -2.28688 0
M  V30 1122 H 109.526 -6.23962 -2.00878 0
M  V30 1123 H 109.046 -5.04823 -3.23904 0
M  V30 1124 H 110.725 -5.63887 -3.17239 0
M  V30 1125 N 110.857 0.726932 -1.39834 0
M  V30 1126 C 112.106 1.48214 -1.36805 0
M  V30 1127 C 112.419 1.95576 0.0305291 0
M  V30 1128 O 113.625 2.7088 0.183417 0
M  V30 1129 C 112.081 2.67854 -2.40379 0
M  V30 1130 C 111.689 2.27408 -3.85992 0
M  V30 1131 C 113.433 3.45641 -2.46439 0
M  V30 1132 C 111.34 3.43819 -4.81189 0
M  V30 1133 H 110.27 0.556606 -0.508631 0
M  V30 1134 H 112.921 0.792216 -1.65518 0
M  V30 1135 H 111.303 3.3896 -2.04749 0
M  V30 1136 H 112.477 1.63795 -4.30706 0
M  V30 1137 H 110.792 1.62692 -3.83302 0
M  V30 1138 H 113.389 4.32244 -3.14753 0
M  V30 1139 H 113.732 3.88669 -1.49139 0
M  V30 1140 H 114.265 2.8157 -2.81004 0
M  V30 1141 H 111.004 3.05834 -5.79781 0
M  V30 1142 H 110.524 4.06385 -4.41148 0
M  V30 1143 H 112.203 4.10043 -5.00474 0
M  V30 1144 N 112.336 1.25143 0.95797 0
M  V30 1145 C 113.582 1.09855 1.70469 0
M  V30 1146 C 113.915 -0.360187 1.90831 0
M  V30 1147 O 113.19 -1.26568 1.47685 0
M  V30 1148 C 113.473 1.8497 3.08963 0
M  V30 1149 C 113.326 3.38652 2.96032 0
M  V30 1150 C 114.645 1.63016 4.08795 0
M  V30 1151 H 111.764 0.400465 0.618706 0
M  V30 1152 H 114.406 1.53933 1.11376 0
M  V30 1153 H 112.556 1.47505 3.59409 0
M  V30 1154 H 114.228 3.85772 2.52938 0
M  V30 1155 H 112.471 3.66534 2.32025 0
M  V30 1156 H 113.142 3.8642 3.94187 0
M  V30 1157 H 115.618 1.95625 3.67247 0
M  V30 1158 H 114.494 2.18015 5.03747 0
M  V30 1159 H 114.755 0.570692 4.38401 0
M  V30 1160 N 113.814 -1.1601 1.06675 0
M  V30 1161 C 115.06 -1.86909 0.786945 0
M  V30 1162 C 115.393 -1.81717 -0.685018 0
M  V30 1163 O 114.668 -1.23551 -1.50218 0
M  V30 1164 C 114.951 -3.36313 1.28707 0
M  V30 1165 C 114.804 -3.50175 2.82308 0
M  V30 1166 C 116.123 -4.3084 0.898071 0
M  V30 1167 H 113.242 -0.678677 0.287343 0
M  V30 1168 H 115.884 -1.36336 1.32334 0
M  V30 1169 H 114.034 -3.79513 0.830768 0
M  V30 1170 H 115.706 -3.15886 3.36175 0
M  V30 1171 H 113.949 -2.91959 3.20847 0
M  V30 1172 H 114.62 -4.55116 3.12368 0
M  V30 1173 H 117.096 -3.95561 1.29114 0
M  V30 1174 H 115.972 -5.33876 1.27543 0
M  V30 1175 H 116.233 -4.41662 -0.196651 0
M  V30 1176 N 115.292 -0.849877 -1.32721 0
M  V30 1177 C 116.222 -0.306308 -2.31482 0
M  V30 1178 C 117.203 0.591952 -1.59468 0
M  V30 1179 O 118.388 0.513199 -1.87296 0
M  V30 1180 C 115.518 0.510204 -3.43532 0
M  V30 1181 C 114.472 -0.293209 -4.26994 0
M  V30 1182 C 113.798 0.647743 -5.30762 0
M  V30 1183 C 115.098 -1.51634 -4.99804 0
M  V30 1184 H 116.792 -1.13153 -2.77195 0
M  V30 1185 H 114.338 -0.545553 -1.33266 0
M  V30 1186 H 116.291 0.900856 -4.11658 0
M  V30 1187 H 115.015 1.36874 -2.96535 0
M  V30 1188 H 113.674 -0.665555 -3.60508 0
M  V30 1189 H 113.322 1.50299 -4.8002 0
M  V30 1190 H 113.022 0.11422 -5.87489 0
M  V30 1191 H 114.546 1.03567 -6.01753 0
M  V30 1192 H 115.96 -1.19824 -5.60638 0
M  V30 1193 H 114.357 -1.98745 -5.66234 0
M  V30 1194 H 115.427 -2.28018 -4.27943 0
M  V30 1195 N 116.77 1.45427 -0.607355 0
M  V30 1196 C 118.018 2.01841 -0.102253 0
M  V30 1197 C 118.339 1.47832 1.27164 0
M  V30 1198 O 117.609 0.672497 1.83995 0
M  V30 1199 H 116.189 0.746188 -0.0348101 0
M  V30 1200 H 118.851 1.78229 -0.7887 0
M  V30 1201 H 117.947 3.12057 -0.0518585 0
M  V30 1202 N 118.248 0.346503 1.53744 0
M  V30 1203 C 119.178 -0.501193 2.28058 0
M  V30 1204 C 120.159 -1.10014 1.29734 0
M  V30 1205 O 121.344 -1.12097 1.58581 0
M  V30 1206 C 118.474 -1.65078 3.05559 0
M  V30 1207 C 117.428 -1.18003 4.11411 0
M  V30 1208 C 116.754 -2.41837 4.76884 0
M  V30 1209 C 118.054 -0.278394 5.21558 0
M  V30 1210 H 119.748 0.11875 2.99164 0
M  V30 1211 H 117.294 0.0585531 1.43881 0
M  V30 1212 H 119.247 -2.25028 3.56287 0
M  V30 1213 H 117.971 -2.29767 2.32109 0
M  V30 1214 H 116.63 -0.603331 3.61601 0
M  V30 1215 H 116.278 -3.0494 4.00026 0
M  V30 1216 H 115.978 -2.1102 5.48402 0
M  V30 1217 H 117.502 -3.02508 5.30397 0
M  V30 1218 H 118.916 -0.784823 5.67903 0
M  V30 1219 H 117.313 -0.0619707 6.00068 0
M  V30 1220 H 118.383 0.684677 4.80042 0
M  V30 1221 N 119.726 -1.57421 0.075193 0
M  V30 1222 C 120.951 -1.98364 -0.605515 0
M  V30 1223 C 121.376 -0.953383 -1.62149 0
M  V30 1224 O 120.734 0.0806053 -1.81121 0
M  V30 1225 C 120.782 -3.38332 -1.24756 0
M  V30 1226 O 119.886 -3.37959 -2.36342 0
M  V30 1227 H 119.227 -0.645553 -0.155428 0
M  V30 1228 H 121.757 -2.04044 0.150714 0
M  V30 1229 H 121.767 -3.75591 -1.5936 0
M  V30 1230 H 120.442 -4.12846 -0.503129 0
M  V30 1231 H 119.019 -3.12474 -2.03506 0
M  V30 1232 N 121.204 0.198386 -1.56346 0
M  V30 1233 C 122.62 0.549085 -1.49857 0
M  V30 1234 C 122.82 1.86016 -0.774611 0
M  V30 1235 O 121.876 2.50416 -0.323776 0
M  V30 1236 C 123.189 0.606868 -2.94512 0
M  V30 1237 C 124.737 0.695925 -3.05165 0
M  V30 1238 C 125.212 0.784848 -4.51225 0
M  V30 1239 N 126.703 0.848463 -4.55363 0
M  V30 1240 C 127.438 0.937378 -5.65686 0
M  V30 1241 N 126.934 0.9888 -6.85707 0
M  V30 1242 N 128.727 0.974312 -5.53592 0
M  V30 1243 H 120.878 -0.661655 -2.01831 0
M  V30 1244 H 123.141 -0.235261 -0.918344 0
M  V30 1245 H 122.847 -0.28732 -3.50524 0
M  V30 1246 H 122.721 1.46268 -3.47686 0
M  V30 1247 H 125.108 1.58055 -2.49204 0
M  V30 1248 H 125.189 -0.186022 -2.55123 0
M  V30 1249 H 124.833 -0.0954072 -5.0781 0
M  V30 1250 H 124.763 1.68255 -4.98997 0
M  V30 1251 H 127.254 0.818103 -3.68938 0
M  V30 1252 H 127.567 1.05707 -7.65536 0
M  V30 1253 H 125.912 0.957534 -6.88372 0
M  V30 1254 H 129.103 0.930954 -4.58749 0
M  V30 1255 H 129.276 1.04015 -6.39597 0
M  V30 1256 N 122.682 1.50554 0.465978 0
M  V30 1257 C 124.098 1.38093 0.800154 0
M  V30 1258 C 124.298 0.440988 1.96615 0
M  V30 1259 O 123.354 -0.114499 2.5224 0
M  V30 1260 C 124.667 2.79565 1.10742 0
M  V30 1261 C 126.215 2.88516 1.21357 0
M  V30 1262 C 126.69 4.30833 1.55393 0
M  V30 1263 N 128.181 4.33807 1.62375 0
M  V30 1264 C 128.916 5.40927 1.90225 0
M  V30 1265 N 128.412 6.58247 2.16062 0
M  V30 1266 N 130.205 5.28376 1.9177 0
M  V30 1267 H 122.356 2.10237 -0.302366 0
M  V30 1268 H 124.619 0.945203 -0.0727746 0
M  V30 1269 H 124.325 3.50208 0.323661 0
M  V30 1270 H 124.199 3.17125 2.04234 0
M  V30 1271 H 126.586 2.1809 1.98799 0
M  V30 1272 H 126.667 2.54492 0.258321 0
M  V30 1273 H 126.311 5.01799 0.784889 0
M  V30 1274 H 126.241 4.62347 2.52076 0
M  V30 1275 H 128.732 3.49212 1.44427 0
M  V30 1276 H 129.045 7.3569 2.36601 0
M  V30 1277 H 127.39 6.61413 2.13444 0
M  V30 1278 H 130.581 4.35715 1.71085 0
M  V30 1279 H 130.754 6.11944 2.13139 0
M  V30 1280 N 124.16 -0.719506 1.40217 0
M  V30 1281 C 125.09 -1.8465 1.42922 0
M  V30 1282 C 126.071 -1.67599 0.29062 0
M  V30 1283 O 127.256 -1.87688 0.498677 0
M  V30 1284 C 124.386 -3.22565 1.28722 0
M  V30 1285 C 123.34 -3.54281 2.40144 0
M  V30 1286 C 122.666 -4.91298 2.11023 0
M  V30 1287 C 123.966 -3.55676 3.82481 0
M  V30 1288 H 125.66 -1.82644 2.37237 0
M  V30 1289 H 123.206 -0.877305 1.1419 0
M  V30 1290 H 125.159 -4.01095 1.29232 0
M  V30 1291 H 123.883 -3.25137 0.308811 0
M  V30 1292 H 122.542 -2.78088 2.38877 0
M  V30 1293 H 122.19 -4.90468 1.11582 0
M  V30 1294 H 121.89 -5.13485 2.8567 0
M  V30 1295 H 123.414 -5.72166 2.13209 0
M  V30 1296 H 124.828 -4.24254 3.85592 0
M  V30 1297 H 123.225 -3.89388 4.56614 0
M  V30 1298 H 124.295 -2.55144 4.12346 0
M  V30 1299 N 125.638 -1.25649 -0.95132 0
M  V30 1300 C 127.054 -1.02542 -1.223 0
M  V30 1301 C 127.254 0.255715 -1.99871 0
M  V30 1302 O 126.31 0.967558 -2.33226 0
M  V30 1303 C 127.623 -2.25065 -1.99415 0
M  V30 1304 C 129.171 -2.29861 -2.12446 0
M  V30 1305 C 129.646 -3.52048 -2.92961 0
M  V30 1306 N 131.137 -3.52465 -3.00538 0
M  V30 1307 C 131.872 -4.43672 -3.63239 0
M  V30 1308 N 131.368 -5.45157 -4.27523 0
M  V30 1309 N 133.161 -4.31346 -3.60412 0
M  V30 1310 H 125.312 -2.07951 -0.432471 0
M  V30 1311 H 127.575 -0.91339 -0.253816 0
M  V30 1312 H 127.281 -3.18194 -1.49817 0
M  V30 1313 H 127.155 -2.28502 -3.00111 0
M  V30 1314 H 129.542 -1.37252 -2.61239 0
M  V30 1315 H 129.623 -2.3044 -1.11044 0
M  V30 1316 H 129.267 -4.44981 -2.44856 0
M  V30 1317 H 129.197 -3.48715 -3.94596 0
M  V30 1318 H 131.688 -2.79056 -2.54826 0
M  V30 1319 H 132.001 -6.10958 -4.73234 0
M  V30 1320 H 130.346 -5.49025 -4.26141 0
M  V30 1321 H 133.537 -3.51288 -3.09377 0
M  V30 1322 H 133.71 -5.02624 -4.0899 0
M  V30 1323 N 127.117 1.15442 -1.07289 0
M  V30 1324 C 128.345 1.90096 -0.81676 0
M  V30 1325 C 128.76 1.7798 0.629966 0
M  V30 1326 O 128.117 1.1313 1.43206 0
M  V30 1327 C 128.168 3.40466 -1.21512 0
M  V30 1328 O 127.889 3.52232 -2.60508 0
M  V30 1329 C 129.39 4.32145 -0.988198 0
M  V30 1330 H 126.61 0.602495 -0.295366 0
M  V30 1331 H 129.154 1.4627 -1.42918 0
M  V30 1332 H 127.309 3.81958 -0.647039 0
M  V30 1333 H 127.723 4.45549 -2.76742 0
M  V30 1334 H 129.197 5.36072 -1.31645 0
M  V30 1335 H 129.674 4.39135 0.0755063 0
M  V30 1336 H 130.28 3.96395 -1.54115 0
M  V30 1337 N 128.595 0.856903 1.32268 0
M  V30 1338 C 129.841 0.462069 1.97466 0
M  V30 1339 C 130.174 -0.980298 1.67642 0
M  V30 1340 O 129.449 -1.68824 0.965858 0
M  V30 1341 C 129.732 0.704336 3.53145 0
M  V30 1342 C 129.585 2.19529 3.9259 0
M  V30 1343 C 130.904 0.1622 4.39801 0
M  V30 1344 H 128.023 0.169357 0.717278 0
M  V30 1345 H 130.665 1.07574 1.56614 0
M  V30 1346 H 128.815 0.181999 3.88073 0
M  V30 1347 H 130.487 2.78387 3.67829 0
M  V30 1348 H 128.73 2.67292 3.41668 0
M  V30 1349 H 129.401 2.31549 5.01088 0
M  V30 1350 H 131.877 0.608905 4.11621 0
M  V30 1351 H 130.753 0.361265 5.4771 0
M  V30 1352 H 131.014 -0.935158 4.32096 0
M  V30 1353 N 130.073 -1.45103 0.615059 0
M  V30 1354 C 131.301 -2.06553 0.11977 0
M  V30 1355 C 131.716 -1.45842 -1.19898 0
M  V30 1356 O 131.073 -0.575325 -1.73194 0
M  V30 1357 C 131.124 -3.61495 -0.018364 0
M  V30 1358 O 130.845 -4.19942 1.24822 0
M  V30 1359 C 132.346 -4.39947 -0.544237 0
M  V30 1360 H 129.566 -0.667096 0.0722739 0
M  V30 1361 H 132.11 -1.8623 0.84491 0
M  V30 1362 H 130.265 -3.81135 -0.693865 0
M  V30 1363 H 130.679 -5.13204 1.0827 0
M  V30 1364 H 132.153 -5.48838 -0.589953 0
M  V30 1365 H 132.63 -4.10255 -1.56805 0
M  V30 1366 H 133.236 -4.25188 0.0974703 0
M  V30 1367 N 131.551 -0.354651 -1.53558 0
M  V30 1368 C 132.499 0.512195 -2.26891 0
M  V30 1369 C 133.493 1.09263 -1.29452 0
M  V30 1370 O 134.699 1.03709 -1.47121 0
M  V30 1371 H 131.074 0.183878 -0.729173 0
M  V30 1372 H 133.045 -0.128202 -2.98124 0
M  V30 1373 C 131.794 1.64563 -3.06291 0
M  V30 1374 H 131.117 1.20829 -3.81104 0
M  V30 1375 H 132.557 2.22711 -3.60799 0
M  V30 1376 C 131.016 2.58158 -2.16462 0
M  V30 1377 O 131.546 3.60695 -1.76811 0
M  V30 1378 N 129.752 2.27096 -1.81317 0
M  V30 1379 H 129.299 1.43751 -2.1376 0
M  V30 1380 H 129.257 2.89975 -1.21498 0
M  V30 1381 N 133.029 1.57378 -0.0835403 0
M  V30 1382 C 133.992 2.12252 0.864959 0
M  V30 1383 C 134.992 1.04916 1.21858 0
M  V30 1384 O 136.182 1.30853 1.14991 0
M  V30 1385 C 133.314 2.63358 2.16461 0
M  V30 1386 H 134.507 2.97371 0.388676 0
M  V30 1387 H 132.06 1.55423 0.165317 0
M  V30 1388 H 132.795 1.81727 2.686 0
M  V30 1389 H 132.58 3.41826 1.92087 0
M  V30 1390 H 134.07 3.05847 2.84337 0
M  V30 1391 N 134.507 -0.190092 1.56449 0
M  V30 1392 C 135.754 -0.909705 1.80916 0
M  V30 1393 C 136.082 -1.83047 0.657583 0
M  V30 1394 O 135.337 -1.92428 -0.356356 0
M  V30 1395 C 135.636 -1.75382 3.1141 0
M  V30 1396 C 135.302 -0.983606 4.40041 0
M  V30 1397 C 133.964 -0.770967 4.74984 0
M  V30 1398 C 136.316 -0.442024 5.19322 0
M  V30 1399 C 133.644 -0.0053448 5.867 0
M  V30 1400 C 135.996 0.310412 6.31838 0
M  V30 1401 C 134.66 0.534023 6.6536 0
M  V30 1402 H 133.93 -0.332885 0.662019 0
M  V30 1403 H 136.577 -0.175762 1.90692 0
M  V30 1404 H 134.882 -2.55659 2.96893 0
M  V30 1405 H 136.579 -2.31331 3.27547 0
M  V30 1406 H 133.169 -1.15936 4.12622 0
M  V30 1407 H 137.353 -0.593693 4.92736 0
M  V30 1408 H 132.609 0.177825 6.11141 0
M  V30 1409 H 136.783 0.737419 6.92485 0
M  V30 1410 H 134.41 1.12918 7.51767 0
M  V30 1411 N 135.985 -1.50799 -0.457987 0
M  V30 1412 C 136.915 -1.73553 -1.5621 0
M  V30 1413 C 137.896 -0.584774 -1.59732 0
M  V30 1414 O 139.081 -0.825314 -1.7579 0
M  V30 1415 C 136.211 -1.84169 -2.94447 0
M  V30 1416 C 135.165 -2.99461 -3.0579 0
M  V30 1417 C 134.491 -2.95235 -4.45803 0
M  V30 1418 C 135.791 -4.39766 -2.81786 0
M  V30 1419 H 137.485 -2.66 -1.37421 0
M  V30 1420 H 135.031 -1.28002 -0.659662 0
M  V30 1421 H 136.984 -1.98672 -3.71628 0
M  V30 1422 H 135.708 -0.883545 -3.14422 0
M  V30 1423 H 134.367 -2.8463 -2.31044 0
M  V30 1424 H 134.015 -1.97239 -4.62715 0
M  V30 1425 H 133.715 -3.72642 -4.54326 0
M  V30 1426 H 135.239 -3.11803 -5.24987 0
M  V30 1427 H 136.653 -4.55054 -3.4871 0
M  V30 1428 H 135.05 -5.18722 -3.0174 0
M  V30 1429 H 136.12 -4.51229 -1.7754 0
M  V30 1430 N 137.463 0.71206 -1.40597 0
M  V30 1431 C 138.393 1.83889 -1.43899 0
M  V30 1432 C 139.374 1.67442 -0.299504 0
M  V30 1433 O 140.559 1.87421 -0.508624 0
M  V30 1434 C 137.689 3.21877 -1.30431 0
M  V30 1435 C 136.643 3.53002 -2.42019 0
M  V30 1436 C 135.969 4.90172 -2.13626 0
M  V30 1437 C 137.269 3.53643 -3.84362 0
M  V30 1438 H 138.963 1.81383 -2.38203 0
M  V30 1439 H 136.509 0.871237 -1.14654 0
M  V30 1440 H 138.462 4.00404 -1.31357 0
M  V30 1441 H 137.186 3.24968 -0.326049 0
M  V30 1442 H 135.845 2.76818 -2.40349 0
M  V30 1443 H 135.493 4.89869 -1.14182 0
M  V30 1444 H 135.193 5.11962 -2.88389 0
M  V30 1445 H 136.717 5.71028 -2.1624 0
M  V30 1446 H 138.131 4.22203 -3.87837 0
M  V30 1447 H 136.528 3.86961 -4.58673 0
M  V30 1448 H 137.598 2.52954 -4.13693 0
M  V30 1449 N 138.941 1.26152 0.944643 0
M  V30 1450 C 140.166 1.14363 1.7302 0
M  V30 1451 C 140.591 -0.29772 1.85729 0
M  V30 1452 O 139.949 -1.2157 1.34501 0
M  V30 1453 C 139.997 1.81378 3.11664 0
M  V30 1454 O 139.101 1.10022 3.97453 0
M  V30 1455 H 138.442 0.398694 0.53098 0
M  V30 1456 H 140.972 1.66906 1.18337 0
M  V30 1457 H 140.982 1.88064 3.62072 0
M  V30 1458 H 139.657 2.86237 3.0173 0
M  V30 1459 H 138.234 1.11287 3.55907 0
M  V30 1460 N 140.419 -1.14872 1.07899 0
M  V30 1461 C 141.349 -2.2193 0.725887 0
M  V30 1462 C 142.33 -1.67622 -0.28927 0
M  V30 1463 O 143.515 -1.93533 -0.160787 0
M  V30 1464 C 140.645 -3.47061 0.128856 0
M  V30 1465 C 139.599 -4.14363 1.07178 0
M  V30 1466 C 138.925 -5.33636 0.337229 0
M  V30 1467 C 140.225 -4.63492 2.40775 0
M  V30 1468 H 141.919 -2.51724 1.62097 0
M  V30 1469 H 139.465 -1.20991 0.780838 0
M  V30 1470 H 141.418 -4.21199 -0.130147 0
M  V30 1471 H 140.142 -3.16617 -0.80134 0
M  V30 1472 H 138.801 -3.42173 1.3158 0
M  V30 1473 H 138.449 -4.99449 -0.596606 0
M  V30 1474 H 138.149 -5.79609 0.965788 0
M  V30 1475 H 139.673 -6.10539 0.0861567 0
M  V30 1476 H 141.087 -5.2913 2.20669 0
M  V30 1477 H 139.484 -5.20148 2.99276 0
M  V30 1478 H 140.554 -3.78834 3.02676 0
M  V30 1479 N 141.898 -0.863906 -1.31812 0
M  V30 1480 C 142.861 -0.320212 -2.26952 0
M  V30 1481 C 143.861 0.525369 -1.51975 0
M  V30 1482 O 145.051 0.335547 -1.70938 0
M  V30 1483 C 142.183 0.545919 -3.365 0
M  V30 1484 H 143.376 -1.16004 -2.76556 0
M  V30 1485 H 140.929 -0.638995 -1.42641 0
M  V30 1486 H 141.664 1.40718 -2.92179 0
M  V30 1487 H 141.449 -0.0594674 -3.92055 0
M  V30 1488 H 142.939 0.918796 -4.07367 0
M  V30 1489 N 143.376 1.44774 -0.622745 0
M  V30 1490 C 144.622 2.0242 -0.124083 0
M  V30 1491 C 144.955 1.4881 1.24777 0
M  V30 1492 O 144.23 0.668799 1.8264 0
M  V30 1493 C 144.513 3.59957 -0.101619 0
M  V30 1494 C 144.366 4.23867 -1.50521 0
M  V30 1495 C 145.685 4.36284 0.578272 0
M  V30 1496 H 142.804 0.735528 -0.0465645 0
M  V30 1497 H 145.446 1.72447 -0.797617 0
M  V30 1498 H 143.596 3.85623 0.471934 0
M  V30 1499 H 145.268 4.09336 -2.12701 0
M  V30 1500 H 143.511 3.81684 -2.06154 0
M  V30 1501 H 144.182 5.32843 -1.4416 0
M  V30 1502 H 146.658 4.16001 0.0906057 0
M  V30 1503 H 145.534 5.46004 0.563149 0
M  V30 1504 H 145.795 4.10271 1.64713 0
M  V30 1505 N 144.854 0.36279 1.53368 0
M  V30 1506 C 146.079 -0.231226 2.06107 0
M  V30 1507 C 146.504 -1.419 1.23474 0
M  V30 1508 O 145.862 -1.79524 0.253128 0
M  V30 1509 C 145.91 -0.605523 3.5548 0
M  V30 1510 O 145.014 -1.70312 3.7559 0
M  V30 1511 H 144.355 -0.034327 0.663112 0
M  V30 1512 H 146.885 0.522584 1.97814 0
M  V30 1513 H 146.895 -0.877314 3.98456 0
M  V30 1514 H 145.57 0.263004 4.15068 0
M  V30 1515 H 144.147 -1.4271 3.44512 0
M  V30 1516 N 146.332 -1.57332 0.0918853 0
M  V30 1517 C 147.609 -1.85691 -0.614668 0
M  V30 1518 C 147.989 -0.988146 -1.86545 0
M  V30 1519 O 147.337 -0.0597055 -2.28422 0
M  V30 1520 C 147.547 -3.36294 -0.933126 0
M  V30 1521 C 148.895 -4.04275 -1.29796 0
M  V30 1522 O 149.919 -3.41157 -1.02424 0
M  V30 1523 O 148.778 -5.1564 -1.81047 0
M  V30 1524 H 145.872 -0.767802 -0.307261 0
M  V30 1525 H 148.418 -1.69244 0.12434 0
M  V30 1526 H 147.19 -3.91273 -0.0456404 0
M  V30 1527 H 146.813 -3.58076 -1.72822 0
M  V30 1528 N 147.81 0.181792 -1.56548 0
M  V30 1529 C 148.74 1.22765 -1.98623 0
M  V30 1530 C 149.721 1.46747 -0.860189 0
M  V30 1531 O 150.906 1.58259 -1.12551 0
M  V30 1532 C 148.036 2.56894 -2.33715 0
M  V30 1533 C 146.99 2.475 -3.49182 0
M  V30 1534 C 146.316 3.86023 -3.69986 0
M  V30 1535 C 147.616 1.98866 -4.82959 0
M  V30 1536 H 149.31 0.877942 -2.86239 0
M  V30 1537 H 146.856 0.42088 -1.37712 0
M  V30 1538 H 148.809 3.30253 -2.61746 0
M  V30 1539 H 147.533 2.93632 -1.42997 0
M  V30 1540 H 146.192 1.76596 -3.21262 0
M  V30 1541 H 145.84 4.20136 -2.76576 0
M  V30 1542 H 145.54 3.80609 -4.47672 0
M  V30 1543 H 147.064 4.60984 -4.00407 0
M  V30 1544 H 148.478 2.61992 -5.09934 0
M  V30 1545 H 146.875 2.04424 -5.64208 0
M  V30 1546 H 147.945 0.942465 -4.75653 0
M  V30 1547 N 149.288 1.51039 0.449983 0
M  V30 1548 C 150.218 1.74379 1.55288 0
M  V30 1549 C 151.199 0.593236 1.5942 0
M  V30 1550 O 152.384 0.834625 1.7535 0
M  V30 1551 C 149.514 1.85728 2.93466 0
M  V30 1552 C 148.468 3.01078 3.04197 0
M  V30 1553 C 147.794 2.97595 4.44231 0
M  V30 1554 C 149.094 4.41254 2.7945 0
M  V30 1555 H 150.788 2.66725 1.36008 0
M  V30 1556 H 148.334 1.2835 0.652864 0
M  V30 1557 H 150.287 2.0064 3.70569 0
M  V30 1558 H 149.011 0.900207 3.13949 0
M  V30 1559 H 147.67 2.85851 2.29531 0
M  V30 1560 H 147.318 1.99691 4.61663 0
M  V30 1561 H 147.018 3.75046 4.52343 0
M  V30 1562 H 148.542 3.14583 5.23326 0
M  V30 1563 H 149.956 4.56897 3.46292 0
M  V30 1564 H 148.353 5.20315 2.98985 0
M  V30 1565 H 149.423 4.52164 1.75144 0
M  V30 1566 N 150.766 -0.704594 1.40972 0
M  V30 1567 C 151.696 -1.83124 1.44872 0
M  V30 1568 C 152.677 -1.67281 0.30838 0
M  V30 1569 O 153.862 -1.87149 0.518556 0
M  V30 1570 C 150.992 -3.21181 1.32136 0
M  V30 1571 C 149.946 -3.51714 2.43888 0
M  V30 1572 C 149.272 -4.89032 2.16222 0
M  V30 1573 C 150.572 -3.516 3.86232 0
M  V30 1574 H 152.266 -1.80117 2.39161 0
M  V30 1575 H 149.812 -0.865145 1.15114 0
M  V30 1576 H 151.765 -3.99702 1.33479 0
M  V30 1577 H 150.489 -3.24791 0.343279 0
M  V30 1578 H 149.148 -2.75539 2.41813 0
M  V30 1579 H 148.796 -4.89256 1.16778 0
M  V30 1580 H 148.496 -5.10426 2.911 0
M  V30 1581 H 150.02 -5.69873 2.19265 0
M  V30 1582 H 151.434 -4.2014 3.9007 0
M  V30 1583 H 149.831 -3.84523 4.60719 0
M  V30 1584 H 150.901 -2.50757 4.15029 0
M  V30 1585 N 152.244 -1.26651 -0.937939 0
M  V30 1586 C 153.207 -1.08546 -2.01867 0
M  V30 1587 C 154.207 -0.0327327 -1.60767 0
M  V30 1588 O 155.397 -0.276427 -1.71993 0
M  V30 1589 C 152.529 -0.651711 -3.34613 0
M  V30 1590 H 153.722 -2.04502 -2.1936 0
M  V30 1591 H 151.275 -1.09294 -1.11734 0
M  V30 1592 H 152.01 0.309696 -3.22818 0
M  V30 1593 H 151.795 -1.41189 -3.65798 0
M  V30 1594 H 153.285 -0.546973 -4.14002 0
M  V30 1595 N 153.722 1.14298 -1.08507 0
M  V30 1596 C 154.968 1.85633 -0.816581 0
M  V30 1597 C 155.301 1.82784 0.656021 0
M  V30 1598 O 154.576 1.25926 1.48233 0
M  V30 1599 C 154.859 3.34223 -1.34041 0
M  V30 1600 C 154.712 3.45639 -2.87843 0
M  V30 1601 C 156.031 4.29356 -0.9665 0
M  V30 1602 H 153.15 0.67402 -0.298104 0
M  V30 1603 H 155.792 1.34214 -1.34487 0
M  V30 1604 H 153.942 3.78144 -0.89104 0
M  V30 1605 H 155.614 3.10498 -3.41158 0
M  V30 1606 H 153.857 2.86817 -3.25451 0
M  V30 1607 H 154.528 4.50089 -3.19569 0
M  V30 1608 H 157.004 3.93457 -1.35391 0
M  V30 1609 H 155.88 5.3178 -1.3602 0
M  V30 1610 H 156.141 4.41919 0.126362 0
M  V30 1611 N 155.201 0.870884 1.31352 0
M  V30 1612 C 156.164 0.332243 2.26779 0
M  V30 1613 C 157.164 -0.517302 1.52252 0
M  V30 1614 O 158.354 -0.326477 1.71113 0
M  V30 1615 C 155.486 -0.528066 3.36785 0
M  V30 1616 H 156.679 1.17469 2.75937 0
M  V30 1617 H 154.232 0.64655 1.423 0
M  V30 1618 H 154.967 -1.39167 2.92922 0
M  V30 1619 H 154.752 0.0802582 3.92018 0
M  V30 1620 H 156.242 -0.897179 4.07849 0
M  V30 1621 N 156.679 -1.44442 0.630414 0
M  V30 1622 C 157.919 -2.03934 0.137919 0
M  V30 1623 C 158.283 -1.48509 -1.21692 0
M  V30 1624 O 159.484 -1.99499 -1.80149 0
M  V30 1625 C 157.755 -3.57187 0.123373 0
M  V30 1626 S 159.314 -4.37741 -0.304604 0
M  V30 1627 H 156.132 -0.708401 0.0607353 0
M  V30 1628 H 158.734 -1.76835 0.833643 0
M  V30 1629 H 157.438 -3.95032 1.11256 0
M  V30 1630 H 156.969 -3.88895 -0.59362 0
M  V30 1631 H 158.984 -4.71403 -1.54897 0
M  V30 1632 N 158.157 -0.370918 -1.53173 0
M  V30 1633 C 159.09 0.516727 -2.22273 0
M  V30 1634 C 160.068 1.07877 -1.21661 0
M  V30 1635 O 161.252 1.13389 -1.50583 0
M  V30 1636 C 158.379 1.71346 -2.92161 0
M  V30 1637 C 157.425 1.27838 -4.0689 0
M  V30 1638 S 158.258 0.275217 -5.34792 0
M  V30 1639 C 159.414 1.47816 -6.08195 0
M  V30 1640 H 159.647 -0.0701054 -2.97217 0
M  V30 1641 H 157.18 -0.155038 -1.5362 0
M  V30 1642 H 159.138 2.39988 -3.3304 0
M  V30 1643 H 157.799 2.27156 -2.16931 0
M  V30 1644 H 156.992 2.17141 -4.54825 0
M  V30 1645 H 156.594 0.671105 -3.6793 0
M  V30 1646 H 158.886 2.40831 -6.33251 0
M  V30 1647 H 159.829 1.04008 -7.0042 0
M  V30 1648 H 160.237 1.68663 -5.38714 0
M  V30 1649 N 159.635 1.57281 -0.100228 0
M  V30 1650 C 161.046 1.81725 0.428107 0
M  V30 1651 C 161.397 1.01619 1.67833 0
M  V30 1652 O 160.522 0.247098 2.14985 0
M  V30 1653 C 161.117 3.29617 0.78347 0
M  V30 1654 C 159.676 3.54808 1.25653 0
M  V30 1655 C 158.823 2.76118 0.255752 0
M  V30 1656 H 161.774 1.55324 -0.325608 0
M  V30 1657 H 161.795 3.4322 1.64256 0
M  V30 1658 H 161.307 3.87893 -0.12665 0
M  V30 1659 H 159.408 3.01868 2.18418 0
M  V30 1660 H 159.521 4.63443 1.21482 0
M  V30 1661 H 157.885 2.43745 0.738956 0
M  V30 1662 H 158.668 3.37145 -0.647136 0
M  V30 1663 N 161.113 -0.173488 1.56642 0
M  V30 1664 C 162.36 -0.890465 1.81871 0
M  V30 1665 C 162.688 -1.82339 0.67696 0
M  V30 1666 O 161.943 -1.92795 -0.335926 0
M  V30 1667 C 162.242 -1.72069 3.13252 0
M  V30 1668 C 161.908 -0.936878 4.41059 0
M  V30 1669 C 160.57 -0.720545 4.75775 0
M  V30 1670 C 162.922 -0.386919 5.19762 0
M  V30 1671 C 160.25 0.0568829 5.86672 0
M  V30 1672 C 162.602 0.37741 6.31473 0
M  V30 1673 C 161.266 0.604563 6.64757 0
M  V30 1674 H 160.536 -0.325844 0.665512 0
M  V30 1675 H 163.183 -0.155527 1.90867 0
M  V30 1676 H 161.488 -2.52496 2.99588 0
M  V30 1677 H 163.185 -2.27844 3.29982 0
M  V30 1678 H 159.775 -1.11553 4.13828 0
M  V30 1679 H 163.959 -0.541398 4.93338 0
M  V30 1680 H 159.215 0.242635 6.10918 0
M  V30 1681 H 163.389 0.810825 6.91664 0
M  V30 1682 H 161.016 1.20885 7.50527 0
M  V30 1683 N 162.591 -1.51276 -0.441967 0
M  V30 1684 C 163.819 -1.67516 -1.21434 0
M  V30 1685 C 164.234 -0.37055 -1.85128 0
M  V30 1686 O 163.591 0.650498 -1.70513 0
M  V30 1687 C 163.642 -2.78748 -2.30177 0
M  V30 1688 O 163.363 -4.04154 -1.69089 0
M  V30 1689 C 164.864 -3.06217 -3.20541 0
M  V30 1690 H 162.084 -0.562276 -0.366178 0
M  V30 1691 H 164.628 -1.97666 -0.524244 0
M  V30 1692 H 162.783 -2.5121 -2.94911 0
M  V30 1693 H 163.197 -4.65894 -2.40922 0
M  V30 1694 H 164.671 -3.8764 -3.92987 0
M  V30 1695 H 165.148 -2.18439 -3.81026 0
M  V30 1696 H 165.754 -3.35397 -2.61513 0
M  V30 1697 N 164.069 0.697108 -1.41344 0
M  V30 1698 C 164.999 1.82353 -1.45841 0
M  V30 1699 C 165.98 1.67115 -0.317247 0
M  V30 1700 O 167.165 1.86871 -0.528474 0
M  V30 1701 C 164.295 3.20476 -1.33838 0
M  V30 1702 C 163.249 3.50415 -2.4575 0
M  V30 1703 C 162.575 4.87878 -2.18813 0
M  V30 1704 C 163.875 3.49546 -3.88091 0
M  V30 1705 H 165.569 1.78846 -2.40113 0
M  V30 1706 H 163.115 0.859028 -1.15571 0
M  V30 1707 H 165.068 3.98988 -1.35596 0
M  V30 1708 H 163.792 3.24604 -0.360498 0
M  V30 1709 H 162.451 2.74253 -2.43271 0
M  V30 1710 H 162.099 4.8863 -1.19371 0
M  V30 1711 H 161.799 5.08875 -2.93803 0
M  V30 1712 H 163.323 5.68702 -2.22284 0
M  V30 1713 H 164.737 4.18066 -3.92293 0
M  V30 1714 H 163.134 3.82075 -4.62751 0
M  V30 1715 H 164.204 2.48552 -4.16353 0
M  V30 1716 N 165.547 1.27147 0.931209 0
M  V30 1717 C 166.477 1.12081 2.04842 0
M  V30 1718 C 167.458 0.0232364 1.70084 0
M  V30 1719 O 168.643 0.197085 1.93197 0
M  V30 1720 C 165.773 0.76354 3.38803 0
M  V30 1721 C 164.727 1.81396 3.87659 0
M  V30 1722 C 164.053 1.31075 5.18385 0
M  V30 1723 C 165.353 3.21739 4.11438 0
M  V30 1724 H 167.047 2.05537 2.17703 0
M  V30 1725 H 164.593 0.989603 1.04608 0
M  V30 1726 H 166.546 0.644982 4.16435 0
M  V30 1727 H 165.27 -0.206727 3.25945 0
M  V30 1728 H 163.929 1.92136 3.12217 0
M  V30 1729 H 163.577 0.330037 5.01916 0
M  V30 1730 H 163.277 2.013 5.52044 0
M  V30 1731 H 164.801 1.20506 5.98591 0
M  V30 1732 H 166.215 3.14019 4.79651 0
M  V30 1733 H 164.612 3.89644 4.56397 0
M  V30 1734 H 165.682 3.67054 3.16859 0
M  V30 1735 N 167.025 -1.13721 1.09112 0
M  V30 1736 C 168.436 -1.6648 0.845068 0
M  V30 1737 C 168.787 -1.85911 -0.62701 0
M  V30 1738 O 167.912 -1.57556 -1.48341 0
M  V30 1739 C 168.507 -3.02413 1.52748 0
M  V30 1740 C 167.066 -3.52176 1.32849 0
M  V30 1741 C 166.213 -2.27492 1.58564 0
M  V30 1742 H 169.164 -0.976872 1.25072 0
M  V30 1743 H 169.185 -3.68223 0.958752 0
M  V30 1744 H 168.697 -2.88238 2.59885 0
M  V30 1745 H 166.798 -3.7156 0.278137 0
M  V30 1746 H 166.911 -4.32499 2.0611 0
M  V30 1747 H 165.275 -2.33923 1.00758 0
M  V30 1748 H 166.058 -2.15886 2.66924 0
M  V30 1749 N 168.503 -0.877838 -1.30888 0
M  V30 1750 C 169.451 -0.328662 -2.30266 0
M  V30 1751 C 170.445 0.560496 -1.59859 0
M  V30 1752 O 171.651 0.445722 -1.74394 0
M  V30 1753 H 168.026 -0.0876142 -0.746879 0
M  V30 1754 H 169.997 -1.18061 -2.74051 0
M  V30 1755 C 168.746 0.448071 -3.44801 0
M  V30 1756 H 168.069 -0.226859 -3.99156 0
M  V30 1757 H 169.509 0.797541 -4.16432 0
M  V30 1758 C 167.968 1.64239 -2.94155 0
M  V30 1759 O 168.498 2.74175 -2.93583 0
M  V30 1760 N 166.704 1.47716 -2.50256 0
M  V30 1761 H 166.251 0.582821 -2.5092 0
M  V30 1762 H 166.209 2.27765 -2.16727 0
M  V30 1763 N 169.982 1.44106 -0.638065 0
M  V30 1764 C 170.912 2.33448 0.0494287 0
M  V30 1765 C 171.893 1.48606 0.827672 0
M  V30 1766 O 173.078 1.77308 0.792173 0
M  V30 1767 C 170.208 3.31771 1.02691 0
M  V30 1768 C 169.162 4.26485 0.359823 0
M  V30 1769 C 168.488 5.14729 1.44769 0
M  V30 1770 C 169.788 5.17056 -0.738296 0
M  V30 1771 H 171.482 2.91183 -0.696636 0
M  V30 1772 H 169.028 1.40014 -0.336456 0
M  V30 1773 H 170.981 3.93161 1.51666 0
M  V30 1774 H 169.705 2.7226 1.80395 0
M  V30 1775 H 168.364 3.66437 -0.10934 0
M  V30 1776 H 168.012 4.51566 2.21578 0
M  V30 1777 H 167.712 5.78913 1.00668 0
M  V30 1778 H 169.236 5.78991 1.93911 0
M  V30 1779 H 170.65 5.72342 -0.331354 0
M  V30 1780 H 169.047 5.89879 -1.10286 0
M  V30 1781 H 170.117 4.57652 -1.60258 0
M  V30 1782 N 171.46 0.379036 1.52974 0
M  V30 1783 C 172.393 -0.504932 2.22544 0
M  V30 1784 C 173.371 -1.0723 1.22231 0
M  V30 1785 O 174.555 -1.12589 1.51182 0
M  V30 1786 C 171.682 -1.69794 2.93066 0
M  V30 1787 C 170.728 -1.25678 4.07563 0
M  V30 1788 S 171.561 -0.246852 5.34931 0
M  V30 1789 C 172.717 -1.44588 6.08971 0
M  V30 1790 H 172.95 0.0858666 2.97176 0
M  V30 1791 H 170.483 0.163183 1.53535 0
M  V30 1792 H 172.441 -2.38219 3.34308 0
M  V30 1793 H 171.102 -2.26002 2.18133 0
M  V30 1794 H 170.295 -2.14725 4.5597 0
M  V30 1795 H 169.897 -0.651584 3.6828 0
M  V30 1796 H 172.189 -2.37469 6.34519 0
M  V30 1797 H 173.132 -1.00292 7.00962 0
M  V30 1798 H 173.54 -1.65804 5.39601 0
M  V30 1799 N 172.938 -1.57226 0.108567 0
M  V30 1800 C 174.186 -1.94448 -0.550853 0
M  V30 1801 C 174.507 -0.992074 -1.67878 0
M  V30 1802 O 173.777 -0.0465 -1.95845 0
M  V30 1803 H 172.357 -0.717897 -0.206479 0
M  V30 1804 H 175.019 -1.94112 0.175062 0
M  V30 1805 H 174.115 -2.97218 -0.952259 0
M  V30 1806 N 174.416 0.165178 -1.56732 0
M  V30 1807 C 175.644 0.896218 -1.86482 0
M  V30 1808 C 176.059 1.75555 -0.694675 0
M  V30 1809 O 175.416 1.79379 0.33607 0
M  V30 1810 C 175.467 1.76792 -3.1532 0
M  V30 1811 O 175.188 0.943239 -4.27825 0
M  V30 1812 C 176.689 2.6081 -3.58459 0
M  V30 1813 H 173.909 0.260064 -0.618553 0
M  V30 1814 H 176.453 0.163428 -2.03846 0
M  V30 1815 H 174.608 2.45398 -2.99764 0
M  V30 1816 H 175.022 1.53998 -5.01383 0
M  V30 1817 H 176.496 3.17579 -4.51495 0
M  V30 1818 H 176.973 3.35977 -2.82872 0
M  V30 1819 H 177.579 1.97526 -3.76648 0
M  V30 1820 N 175.894 1.51508 0.433938 0
M  V30 1821 C 177.141 1.64345 1.18309 0
M  V30 1822 C 177.469 0.361315 1.91115 0
M  V30 1823 O 176.724 -0.654753 1.84422 0
M  V30 1824 C 177.023 2.79928 2.22205 0
M  V30 1825 C 176.689 4.19078 1.66387 0
M  V30 1826 C 175.351 4.56932 1.50887 0
M  V30 1827 C 177.703 5.05894 1.25381 0
M  V30 1828 C 175.031 5.79305 0.928608 0
M  V30 1829 C 177.383 6.2885 0.687823 0
M  V30 1830 C 176.047 6.65473 0.519755 0
M  V30 1831 H 175.317 0.601381 0.432923 0
M  V30 1832 H 177.964 1.85549 0.473676 0
M  V30 1833 H 176.269 2.52959 2.99197 0
M  V30 1834 H 177.966 2.87059 2.79997 0
M  V30 1835 H 174.556 3.89234 1.79428 0
M  V30 1836 H 178.74 4.77253 1.36175 0
M  V30 1837 H 173.996 6.06324 0.786186 0
M  V30 1838 H 178.17 6.95461 0.361581 0
M  V30 1839 H 175.797 7.6017 0.0679979 0
M  V30 1840 N 177.372 -0.689602 1.41712 0
M  V30 1841 C 178.621 -1.44534 1.40686 0
M  V30 1842 C 178.934 -1.95588 0.0213352 0
M  V30 1843 O 180.14 -2.71271 -0.111534 0
M  V30 1844 C 178.596 -2.61387 2.47396 0
M  V30 1845 C 178.204 -2.17094 3.91885 0
M  V30 1846 C 179.948 -3.38986 2.55517 0
M  V30 1847 C 177.855 -3.3094 4.90135 0
M  V30 1848 H 176.785 -0.542925 0.52321 0
M  V30 1849 H 179.436 -0.748054 1.6756 0
M  V30 1850 H 177.818 -3.33412 2.13664 0
M  V30 1851 H 178.992 -1.52318 4.34897 0
M  V30 1852 H 177.307 -1.52473 3.8748 0
M  V30 1853 H 179.904 -4.23747 3.26102 0
M  V30 1854 H 180.247 -3.84578 1.59391 0
M  V30 1855 H 180.78 -2.74021 2.8837 0
M  V30 1856 H 177.519 -2.90355 5.87685 0
M  V30 1857 H 177.039 -3.94546 4.51767 0
M  V30 1858 H 178.718 -3.9663 5.11169 0
M  V30 1859 N 178.85 -1.27639 -0.924453 0
M  V30 1860 C 180.097 -1.14167 -1.67249 0
M  V30 1861 C 180.425 0.311863 -1.91984 0
M  V30 1862 O 179.68 1.24425 -1.51053 0
M  V30 1863 C 179.979 -1.87407 -3.04325 0
M  V30 1864 C 179.645 -3.37249 -2.99289 0
M  V30 1865 C 178.307 -3.7812 -2.97622 0
M  V30 1866 C 180.659 -4.32845 -2.90336 0
M  V30 1867 C 177.987 -5.12944 -2.8479 0
M  V30 1868 C 180.339 -5.6773 -2.79045 0
M  V30 1869 C 179.003 -6.07889 -2.7573 0
M  V30 1870 H 178.273 -0.417766 -0.612007 0
M  V30 1871 H 180.92 -1.58286 -1.07786 0
M  V30 1872 H 179.225 -1.35805 -3.67511 0
M  V30 1873 H 180.922 -1.74408 -3.61086 0
M  V30 1874 H 177.512 -3.04748 -3.01374 0
M  V30 1875 H 181.696 -4.02239 -2.90719 0
M  V30 1876 H 176.952 -5.432 -2.80612 0
M  V30 1877 H 181.126 -6.41472 -2.71083 0
M  V30 1878 H 178.753 -7.12314 -2.65544 0
M  V30 1879 N 180.328 1.1314 -1.09713 0
M  V30 1880 C 181.576 1.84119 -0.833338 0
M  V30 1881 C 181.897 1.84097 0.642904 0
M  V30 1882 O 181.167 1.29881 1.46655 0
M  V30 1883 H 179.747 0.681766 -0.305293 0
M  V30 1884 H 182.409 1.37038 -1.38588 0
M  V30 1885 H 181.505 2.88543 -1.18951 0
M  V30 1886 N 181.806 0.884767 1.30421 0
M  V30 1887 C 183.034 0.518044 2.0031 0
M  V30 1888 C 183.449 -0.893408 1.66324 0
M  V30 1889 O 182.806 -1.5875 0.900262 0
M  V30 1890 C 182.857 0.682997 3.54989 0
M  V30 1891 O 182.578 2.03888 3.87764 0
M  V30 1892 C 184.079 0.31924 4.42149 0
M  V30 1893 H 181.299 0.200265 0.640418 0
M  V30 1894 H 183.843 1.19001 1.6631 0
M  V30 1895 H 181.998 0.0584052 3.87356 0
M  V30 1896 H 182.412 2.05735 4.82466 0
M  V30 1897 H 183.886 0.485555 5.4986 0
M  V30 1898 H 184.363 -0.742717 4.32875 0
M  V30 1899 H 184.969 0.920147 4.15227 0
M  V30 1900 N 183.284 -1.43765 0.645699 0
M  V30 1901 C 184.53 -2.02197 0.156271 0
M  V30 1902 C 184.863 -1.50776 -1.22393 0
M  V30 1903 O 184.138 -0.697771 -1.81553 0
M  V30 1904 C 184.421 -3.59749 0.158872 0
M  V30 1905 C 184.274 -4.21419 1.57245 0
M  V30 1906 C 185.593 -4.37149 -0.50879 0
M  V30 1907 H 182.712 -0.734694 0.0582602 0
M  V30 1908 H 185.354 -1.71157 0.824951 0
M  V30 1909 H 183.504 -3.86325 -0.410525 0
M  V30 1910 H 185.176 -4.059 2.19186 0
M  V30 1911 H 183.419 -3.78356 2.122 0
M  V30 1912 H 184.09 -5.30482 1.52619 0
M  V30 1913 H 186.566 -4.16093 -0.024412 0
M  V30 1914 H 185.442 -5.4683 -0.476213 0
M  V30 1915 H 185.703 -4.12839 -1.58165 0
M  V30 1916 N 184.763 -0.387143 -1.52771 0
M  V30 1917 C 186.012 0.19697 -2.00736 0
M  V30 1918 C 186.325 1.48082 -1.27793 0
M  V30 1919 O 187.531 2.14485 -1.66458 0
M  V30 1920 C 185.987 0.401568 -3.57653 0
M  V30 1921 C 185.595 -0.868907 -4.39493 0
M  V30 1922 C 187.339 0.942164 -4.13912 0
M  V30 1923 C 185.246 -0.632705 -5.88006 0
M  V30 1924 H 184.176 0.0773827 -0.750019 0
M  V30 1925 H 186.827 -0.50921 -1.76293 0
M  V30 1926 H 185.209 1.16954 -3.78335 0
M  V30 1927 H 186.383 -1.64133 -4.30577 0
M  V30 1928 H 184.698 -1.33429 -3.94443 0
M  V30 1929 H 187.295 1.13455 -5.22525 0
M  V30 1930 H 187.638 1.9106 -3.69867 0
M  V30 1931 H 188.171 0.233814 -3.97112 0
M  V30 1932 H 184.91 -1.57208 -6.36369 0
M  V30 1933 H 184.43 0.100825 -5.99715 0
M  V30 1934 H 186.109 -0.26642 -6.46451 0
M  V30 1935 N 186.241 1.57166 -0.116904 0
M  V30 1936 C 187.481 1.97008 0.544715 0
M  V30 1937 C 187.845 0.998713 1.63981 0
M  V30 1938 O 189.046 1.28644 2.36018 0
M  V30 1939 C 187.317 3.41145 1.06559 0
M  V30 1940 S 188.876 4.02998 1.73603 0
M  V30 1941 H 185.694 0.688587 0.177112 0
M  V30 1942 H 188.296 1.94459 -0.201487 0
M  V30 1943 H 187 4.09592 0.257374 0
M  V30 1944 H 186.531 3.4734 1.84712 0
M  V30 1945 H 188.546 3.93585 3.02168 0
M  V30 1946 N 187.719 -0.156864 1.56817 0
M  V30 1947 C 188.666 -1.19394 1.97519 0
M  V30 1948 C 189.636 -1.4322 0.841265 0
M  V30 1949 O 190.821 -1.55719 1.10255 0
M  V30 1950 C 187.961 -2.52483 2.35258 0
M  V30 1951 C 187.074 -2.35914 3.61896 0
M  V30 1952 C 186.209 -3.61969 3.88782 0
M  V30 1953 C 185.248 -3.40395 5.08722 0
M  V30 1954 N 184.385 -4.58556 5.31668 0
M  V30 1955 H 189.225 -0.839845 2.85921 0
M  V30 1956 H 186.762 -0.403264 1.41464 0
M  V30 1957 H 188.72 -3.30071 2.55165 0
M  V30 1958 H 187.35 -2.85859 1.49949 0
M  V30 1959 H 186.402 -1.49429 3.49821 0
M  V30 1960 H 187.714 -2.15926 4.49641 0
M  V30 1961 H 186.868 -4.47989 4.09135 0
M  V30 1962 H 185.607 -3.84951 2.9944 0
M  V30 1963 H 184.612 -2.52763 4.88253 0
M  V30 1964 H 185.837 -3.18822 5.99608 0
M  V30 1965 H 183.783 -4.81729 4.45279 0
M  V30 1966 H 183.7 -4.41535 6.13664 0
M  V30 1967 H 184.968 -5.45817 5.5651 0
M  V30 1968 N 189.197 -1.51736 -0.425897 0
M  V30 1969 C 190.16 -1.73271 -1.50032 0
M  V30 1970 C 191.16 -0.602639 -1.4908 0
M  V30 1971 O 192.35 -0.87033 -1.509 0
M  V30 1972 C 189.482 -1.79969 -2.89523 0
M  V30 1973 H 190.675 -2.69172 -1.32237 0
M  V30 1974 H 188.228 -1.41899 -0.65532 0
M  V30 1975 H 188.963 -0.859241 -3.1271 0
M  V30 1976 H 188.748 -2.62109 -2.91619 0
M  V30 1977 H 190.238 -1.9843 -3.67444 0
M  V30 1978 N 190.675 0.682077 -1.42076 0
M  V30 1979 C 191.921 1.44428 -1.42367 0
M  V30 1980 C 192.254 1.94164 -0.0373056 0
M  V30 1981 O 191.529 1.70429 0.937239 0
M  V30 1982 C 191.812 2.64654 -2.44194 0
M  V30 1983 C 191.665 2.20596 -3.91991 0
M  V30 1984 C 192.984 3.66865 -2.431 0
M  V30 1985 H 190.103 0.523834 -0.518428 0
M  V30 1986 H 192.745 0.77576 -1.73442 0
M  V30 1987 H 190.895 3.2169 -2.17826 0
M  V30 1988 H 192.567 1.68783 -4.29313 0
M  V30 1989 H 190.81 1.52242 -4.06208 0
M  V30 1990 H 191.481 3.06921 -4.58807 0
M  V30 1991 H 193.957 3.19531 -2.66532 0
M  V30 1992 H 192.833 4.48577 -3.16339 0
M  V30 1993 H 193.094 4.17493 -1.45437 0
M  V30 1994 N 192.153 1.28127 0.917671 0
M  V30 1995 C 193.378 1.18007 1.70555 0
M  V30 1996 C 193.803 -0.258257 1.86319 0
M  V30 1997 O 193.161 -1.1869 1.37049 0
M  V30 1998 C 193.209 1.87948 3.07746 0
M  V30 1999 O 192.313 1.18427 3.9503 0
M  V30 2000 H 191.654 0.409867 0.522403 0
M  V30 2001 H 194.184 1.69379 1.1477 0
M  V30 2002 H 194.194 1.95701 3.58001 0
M  V30 2003 H 192.869 2.92573 2.95591 0
M  V30 2004 H 191.446 1.18811 3.53466 0
M  V30 2005 N 193.631 -1.12557 1.10312 0
M  V30 2006 C 194.861 -1.87592 0.865617 0
M  V30 2007 C 195.269 -1.79851 -0.587389 0
M  V30 2008 O 194.612 -1.16949 -1.41664 0
M  V30 2009 C 194.674 -3.37665 1.23381 0
M  V30 2010 C 194.338 -3.69181 2.69359 0
M  V30 2011 C 195.335 -3.67652 3.67597 0
M  V30 2012 C 193.02 -3.98555 3.05711 0
M  V30 2013 C 195.014 -3.95053 5.00212 0
M  V30 2014 C 192.701 -4.25616 4.38514 0
M  V30 2015 C 193.699 -4.23851 5.35574 0
M  V30 2016 O 193.387 -4.50242 6.65986 0
M  V30 2017 H 193.119 -0.600442 0.310557 0
M  V30 2018 H 195.673 -1.4335 1.47105 0
M  V30 2019 H 193.903 -3.82454 0.571467 0
M  V30 2020 H 195.592 -3.94041 0.973994 0
M  V30 2021 H 196.358 -3.45024 3.40857 0
M  V30 2022 H 192.237 -3.99071 2.30789 0
M  V30 2023 H 195.781 -3.93591 5.75962 0
M  V30 2024 H 191.678 -4.47718 4.64994 0
M  V30 2025 H 192.446 -4.67867 6.71597 0
M  V30 2026 N 195.109 -0.891671 -1.2995 0
M  V30 2027 C 196.039 -0.379797 -2.30391 0
M  V30 2028 C 197.02 0.540919 -1.6127 0
M  V30 2029 O 198.205 0.453352 -1.88834 0
M  V30 2030 C 195.335 0.400654 -3.44981 0
M  V30 2031 C 194.289 -0.428905 -4.25846 0
M  V30 2032 C 193.615 0.478557 -5.32554 0
M  V30 2033 C 194.915 -1.67458 -4.94727 0
M  V30 2034 H 196.609 -1.21914 -2.73454 0
M  V30 2035 H 194.155 -0.587675 -1.31462 0
M  V30 2036 H 196.108 0.769434 -4.14316 0
M  V30 2037 H 194.832 1.27371 -3.0074 0
M  V30 2038 H 193.491 -0.779911 -3.58208 0
M  V30 2039 H 193.139 1.34951 -4.84559 0
M  V30 2040 H 192.839 -0.0727433 -5.87555 0
M  V30 2041 H 194.363 0.843705 -6.04743 0
M  V30 2042 H 195.777 -1.376 -5.56542 0
M  V30 2043 H 194.174 -2.16659 -5.59624 0
M  V30 2044 H 195.244 -2.41518 -4.20473 0
M  V30 2045 N 196.587 1.43421 -0.653314 0
M  V30 2046 C 197.52 2.2803 0.0879804 0
M  V30 2047 C 198.498 1.39833 0.82979 0
M  V30 2048 O 199.682 1.69275 0.829341 0
M  V30 2049 C 196.809 3.19247 1.13132 0
M  V30 2050 C 195.855 4.23704 0.487546 0
M  V30 2051 S 196.688 5.30377 -0.738961 0
M  V30 2052 C 197.844 6.25162 0.30384 0
M  V30 2053 H 198.077 2.90554 -0.629739 0
M  V30 2054 H 195.61 1.47934 -0.442156 0
M  V30 2055 H 197.568 3.72346 1.72827 0
M  V30 2056 H 196.229 2.55901 1.82136 0
M  V30 2057 H 195.422 4.87631 1.27407 0
M  V30 2058 H 195.024 3.73983 -0.0352915 0
M  V30 2059 H 197.316 6.67321 1.17 0
M  V30 2060 H 198.259 7.07463 -0.300402 0
M  V30 2061 H 198.667 5.60864 0.63969 0
M  V30 2062 N 198.065 0.39524 1.52563 0
M  V30 2063 C 199.313 -0.184678 2.01254 0
M  V30 2064 C 199.634 -1.46822 1.28329 0
M  V30 2065 O 198.904 -1.91666 0.405094 0
M  V30 2066 H 197.484 -0.0712355 0.743596 0
M  V30 2067 H 200.146 0.528293 1.87603 0
M  V30 2068 H 199.242 -0.390681 3.09645 0
M  V30 2069 N 199.544 -1.57102 0.125237 0
M  V30 2070 C 200.79 -1.95697 -0.532035 0
M  V30 2071 C 201.123 -1.009 -1.6593 0
M  V30 2072 O 200.398 -0.047347 -1.94442 0
M  V30 2073 C 200.681 -3.44181 -1.05884 0
M  V30 2074 C 200.534 -4.49752 0.0654392 0
M  V30 2075 C 201.853 -3.94655 -1.9477 0
M  V30 2076 H 198.972 -0.711571 -0.191925 0
M  V30 2077 H 201.614 -1.88923 0.20206 0
M  V30 2078 H 199.764 -3.50085 -1.68442 0
M  V30 2079 H 201.436 -4.55943 0.700982 0
M  V30 2080 H 199.679 -4.27653 0.727709 0
M  V30 2081 H 200.35 -5.50924 -0.344505 0
M  V30 2082 H 202.826 -3.91094 -1.42074 0
M  V30 2083 H 201.702 -4.99057 -2.28546 0
M  V30 2084 H 201.963 -3.35718 -2.87656 0
M  V30 2085 N 201.022 0.148545 -1.56898 0
M  V30 2086 C 202.247 0.880385 -1.87787 0
M  V30 2087 C 202.672 1.74018 -0.714093 0
M  V30 2088 O 202.03 1.78153 0.336343 0
M  V30 2089 C 202.078 1.71422 -3.17249 0
M  V30 2090 O 201.182 2.8183 -3.01074 0
M  V30 2091 H 200.523 0.245301 -0.617028 0
M  V30 2092 H 203.053 0.139826 -2.04122 0
M  V30 2093 H 203.063 2.10954 -3.49231 0
M  V30 2094 H 201.738 1.08284 -4.01556 0
M  V30 2095 H 200.315 2.45715 -2.80497 0
M  V30 2096 N 202.5 1.5196 0.417844 0
M  V30 2097 C 203.746 1.65836 1.16732 0
M  V30 2098 C 204.079 0.382881 1.90388 0
M  V30 2099 O 203.354 -0.618368 1.84408 0
M  V30 2100 C 203.637 2.87466 2.16876 0
M  V30 2101 C 203.49 4.25041 1.47174 0
M  V30 2102 C 204.809 3.04613 3.17646 0
M  V30 2103 H 201.928 0.603515 0.423011 0
M  V30 2104 H 204.57 1.84494 0.454105 0
M  V30 2105 H 202.72 2.71689 2.777 0
M  V30 2106 H 204.392 4.52527 0.895376 0
M  V30 2107 H 202.635 4.26843 0.773806 0
M  V30 2108 H 203.306 5.06176 2.20204 0
M  V30 2109 H 205.782 3.1923 2.66892 0
M  V30 2110 H 204.658 3.91247 3.8499 0
M  V30 2111 H 204.919 2.17541 3.84874 0
M  V30 2112 N 203.978 -0.674533 1.42435 0
M  V30 2113 C 205.203 -1.46784 1.46524 0
M  V30 2114 C 205.628 -1.87938 0.078066 0
M  V30 2115 O 204.986 -1.56014 -0.92354 0
M  V30 2116 C 205.034 -2.69307 2.39805 0
M  V30 2117 O 204.138 -3.67587 1.86959 0
M  V30 2118 H 203.479 -0.440959 0.496439 0
M  V30 2119 H 206.009 -0.827326 1.87127 0
M  V30 2120 H 206.019 -3.17374 2.56393 0
M  V30 2121 H 204.694 -2.38692 3.40586 0
M  V30 2122 H 203.271 -3.2662 1.79927 0
M  V30 2123 N 205.456 -1.28612 -0.910864 0
M  V30 2124 C 206.702 -1.16106 -1.66274 0
M  V30 2125 C 207.035 0.289113 -1.92036 0
M  V30 2126 O 206.31 1.21 -1.52281 0
M  V30 2127 C 206.593 -1.96309 -3.01885 0
M  V30 2128 C 206.446 -3.49405 -2.8326 0
M  V30 2129 C 207.765 -1.78076 -4.02463 0
M  V30 2130 H 204.884 -0.423152 -0.603417 0
M  V30 2131 H 207.526 -1.57961 -1.05586 0
M  V30 2132 H 205.676 -1.60742 -3.53687 0
M  V30 2133 H 207.348 -3.94894 -2.38446 0
M  V30 2134 H 205.591 -3.74893 -2.18261 0
M  V30 2135 H 206.262 -4.00784 -3.79574 0
M  V30 2136 H 208.738 -2.0912 -3.59733 0
M  V30 2137 H 207.614 -2.36561 -4.95308 0
M  V30 2138 H 207.875 -0.733008 -4.35981 0
M  V30 2139 N 206.934 1.1197 -1.10907 0
M  V30 2140 C 208.159 1.87942 -0.877064 0
M  V30 2141 C 208.584 1.79341 0.567314 0
M  V30 2142 O 207.942 1.15184 1.40009 0
M  V30 2143 C 207.99 3.34926 -1.33629 0
M  V30 2144 O 207.094 4.09303 -0.504447 0
M  V30 2145 H 206.435 0.583785 -0.316371 0
M  V30 2146 H 208.965 1.4157 -1.47712 0
M  V30 2147 H 208.975 3.8577 -1.32837 0
M  V30 2148 H 207.65 3.40504 -2.3881 0
M  V30 2149 H 206.227 3.68393 -0.577993 0
M  V30 2150 N 208.412 0.89855 1.29475 0
M  V30 2151 C 209.64 0.539261 1.99749 0
M  V30 2152 C 210.055 -0.875716 1.67262 0
M  V30 2153 O 209.412 -1.57786 0.917049 0
M  V30 2154 C 209.463 0.72061 3.54245 0
M  V30 2155 O 209.184 2.07989 3.8558 0
M  V30 2156 C 210.685 0.366118 4.41786 0
M  V30 2157 H 207.905 0.207047 0.638258 0
M  V30 2158 H 210.449 1.20758 1.65039 0
M  V30 2159 H 208.604 0.0994862 3.87272 0
M  V30 2160 H 209.018 2.10841 4.80257 0
M  V30 2161 H 210.492 0.543848 5.49314 0
M  V30 2162 H 210.969 -0.696763 4.33638 0
M  V30 2163 H 211.575 0.964135 4.14228 0
M  V30 2164 N 209.89 -1.43072 0.660911 0
M  V30 2165 C 210.82 -2.33497 -0.0122829 0
M  V30 2166 C 211.801 -1.49903 -0.803925 0
M  V30 2167 O 212.986 -1.78546 -0.763864 0
M  V30 2168 C 210.116 -3.33363 -0.973994 0
M  V30 2169 C 209.07 -4.27003 -0.291928 0
M  V30 2170 C 208.396 -5.16967 -1.36562 0
M  V30 2171 C 209.696 -5.15816 0.820462 0
M  V30 2172 H 211.39 -2.90038 0.742873 0
M  V30 2173 H 208.936 -1.39461 0.358688 0
M  V30 2174 H 210.889 -3.95524 -1.45392 0
M  V30 2175 H 209.613 -2.75095 -1.7604 0
M  V30 2176 H 208.272 -3.66217 0.167623 0
M  V30 2177 H 207.92 -4.55034 -2.14366 0
M  V30 2178 H 207.62 -5.80441 -0.914454 0
M  V30 2179 H 209.144 -5.82003 -1.84675 0
M  V30 2180 H 210.558 -5.71742 0.422366 0
M  V30 2181 H 208.955 -5.8805 1.19656 0
M  V30 2182 H 210.025 -4.55045 1.67518 0
M  V30 2183 N 211.368 -0.403325 -1.52352 0
M  V30 2184 C 212.593 0.176499 -2.06648 0
M  V30 2185 C 213.018 1.38577 -1.27193 0
M  V30 2186 O 212.376 1.7879 -0.300637 0
M  V30 2187 C 212.424 0.511061 -3.5696 0
M  V30 2188 O 211.528 1.60294 -3.79973 0
M  V30 2189 H 210.869 0.0167337 -0.663789 0
M  V30 2190 H 213.399 -0.574848 -1.96359 0
M  V30 2191 H 213.409 0.771362 -4.00642 0
M  V30 2192 H 212.084 -0.37296 -4.14224 0
M  V30 2193 H 210.661 1.33526 -3.48174 0
M  V30 2194 N 212.846 1.57033 -0.133567 0
M  V30 2195 C 213.776 2.1909 0.807567 0
M  V30 2196 C 214.757 1.13517 1.26681 0
M  V30 2197 O 215.942 1.41809 1.32679 0
M  V30 2198 C 213.072 2.80188 2.05212 0
M  V30 2199 C 212.026 3.91471 1.73015 0
M  V30 2200 C 211.352 4.39443 3.04622 0
M  V30 2201 C 212.652 5.12886 0.987168 0
M  V30 2202 H 214.346 2.97988 0.290403 0
M  V30 2203 H 211.892 1.43335 0.138239 0
M  V30 2204 H 213.845 3.22264 2.71521 0
M  V30 2205 H 212.569 1.98601 2.59278 0
M  V30 2206 H 211.228 3.49993 1.0909 0
M  V30 2207 H 210.876 3.54695 3.56651 0
M  V30 2208 H 210.576 5.14495 2.83847 0
M  V30 2209 H 212.1 4.8418 3.72024 0
M  V30 2210 H 213.514 5.51891 1.55208 0
M  V30 2211 H 211.911 5.93615 0.87985 0
M  V30 2212 H 212.981 4.84894 -0.0235286 0
M  V30 2213 N 214.325 -0.140222 1.56975 0
M  V30 2214 C 215.571 -0.852949 1.83991 0
M  V30 2215 C 215.904 -1.80512 0.716187 0
M  V30 2216 O 215.179 -1.92479 -0.279681 0
M  V30 2217 C 215.462 -1.6215 3.21527 0
M  V30 2218 C 215.315 -0.690363 4.4447 0
M  V30 2219 C 216.634 -2.58247 3.56366 0
M  V30 2220 H 213.753 -0.308634 0.669264 0
M  V30 2221 H 216.395 -0.117898 1.89634 0
M  V30 2222 H 214.545 -2.24812 3.16847 0
M  V30 2223 H 216.217 -0.0742264 4.6124 0
M  V30 2224 H 214.46 -0.000396433 4.338 0
M  V30 2225 H 215.131 -1.2643 5.37326 0
M  V30 2226 H 217.607 -2.05701 3.61699 0
M  V30 2227 H 216.483 -3.09067 4.53617 0
M  V30 2228 H 216.744 -3.39923 2.82674 0
M  V30 2229 N 215.803 -1.52179 -0.40978 0
M  V30 2230 C 216.766 -1.74853 -1.48186 0
M  V30 2231 C 217.766 -0.618417 -1.48433 0
M  V30 2232 O 218.956 -0.886286 -1.49969 0
M  V30 2233 C 216.088 -1.8303 -2.87598 0
M  V30 2234 H 217.281 -2.70559 -1.29374 0
M  V30 2235 H 214.834 -1.42586 -0.640233 0
M  V30 2236 H 215.569 -0.89236 -3.11781 0
M  V30 2237 H 215.354 -2.65187 -2.88822 0
M  V30 2238 H 216.844 -2.02316 -3.65319 0
M  V30 2239 N 217.281 0.66697 -1.42791 0
M  V30 2240 C 218.53 1.42278 -1.42968 0
M  V30 2241 C 218.843 1.9553 -0.0524489 0
M  V30 2242 O 220.049 2.71414 0.068363 0
M  V30 2243 C 218.505 2.57418 -2.51524 0
M  V30 2244 C 218.113 2.10832 -3.9529 0
M  V30 2245 C 219.857 3.34878 -2.60877 0
M  V30 2246 C 217.764 3.23101 -4.95338 0
M  V30 2247 H 216.694 0.534533 -0.531781 0
M  V30 2248 H 219.345 0.721302 -1.68729 0
M  V30 2249 H 217.727 3.29971 -2.18941 0
M  V30 2250 H 218.901 1.4538 -4.37266 0
M  V30 2251 H 217.216 1.46289 -3.89857 0
M  V30 2252 H 219.813 4.18505 -3.32802 0
M  V30 2253 H 220.156 3.81993 -1.6549 0
M  V30 2254 H 220.689 2.69398 -2.92693 0
M  V30 2255 H 217.428 2.80969 -5.9223 0
M  V30 2256 H 216.948 3.87309 -4.57987 0
M  V30 2257 H 218.627 3.88447 -5.17415 0
M  V30 2258 N 218.759 1.29093 0.90403 0
M  V30 2259 C 219.722 1.1386 1.98919 0
M  V30 2260 C 220.722 0.0753457 1.60623 0
M  V30 2261 O 221.912 0.321931 1.71199 0
M  V30 2262 C 219.044 0.740198 3.32767 0
M  V30 2263 H 220.237 2.10246 2.13861 0
M  V30 2264 H 217.79 1.12218 1.08797 0
M  V30 2265 H 218.525 -0.223997 3.23525 0
M  V30 2266 H 218.31 1.50838 3.61926 0
M  V30 2267 H 219.8 0.656546 4.12407 0
M  V30 2268 N 220.237 -1.11381 1.11499 0
M  V30 2269 C 221.167 -2.19509 0.796125 0
M  V30 2270 C 222.148 -1.68458 -0.235796 0
M  V30 2271 O 223.333 -1.93947 -0.0991344 0
M  V30 2272 C 220.463 -3.46475 0.239205 0
M  V30 2273 C 219.417 -4.10744 1.20307 0
M  V30 2274 C 218.743 -5.32293 0.50683 0
M  V30 2275 C 220.043 -4.55597 2.55399 0
M  V30 2276 H 221.737 -2.46439 1.70024 0
M  V30 2277 H 219.283 -1.18446 0.818935 0
M  V30 2278 H 221.236 -4.214 0.00392006 0
M  V30 2279 H 219.96 -3.19006 -0.700206 0
M  V30 2280 H 218.619 -3.37813 1.42399 0
M  V30 2281 H 218.267 -5.01095 -0.437408 0
M  V30 2282 H 217.967 -5.76243 1.1497 0
M  V30 2283 H 219.491 -6.09956 0.280351 0
M  V30 2284 H 220.905 -5.21841 2.37391 0
M  V30 2285 H 219.302 -5.10363 3.15673 0
M  V30 2286 H 220.372 -3.69013 3.14575 0
M  V30 2287 N 221.715 -0.905404 -1.28997 0
M  V30 2288 C 222.625 -0.392246 -2.31298 0
M  V30 2289 C 223.641 0.515889 -1.66176 0
M  V30 2290 O 224.817 0.404093 -1.97304 0
M  V30 2291 C 221.882 0.36686 -3.44754 0
M  V30 2292 C 220.943 -0.573485 -4.25452 0
M  V30 2293 C 220.176 0.149488 -5.33491 0
M  V30 2294 O 220.399 1.37255 -5.5364 0
M  V30 2295 O 219.333 -0.510919 -5.99728 0
M  V30 2296 H 223.159 -1.2411 -2.77183 0
M  V30 2297 H 220.744 -0.669926 -1.33538 0
M  V30 2298 H 222.626 0.795907 -4.13816 0
M  V30 2299 H 221.301 1.19169 -3.00966 0
M  V30 2300 H 220.208 -1.05176 -3.59011 0
M  V30 2301 H 221.541 -1.36489 -4.72897 0
M  V30 2302 N 223.193 1.4272 -0.668489 0
M  V30 2303 C 224.609 1.55992 -0.33745 0
M  V30 2304 C 224.809 1.64933 1.15756 0
M  V30 2305 O 223.865 1.61278 1.94282 0
M  V30 2306 C 225.178 2.81314 -1.06222 0
M  V30 2307 C 226.726 2.95078 -1.04394 0
M  V30 2308 C 227.201 4.23252 -1.74991 0
M  V30 2309 N 228.692 4.3015 -1.71829 0
M  V30 2310 C 229.427 5.28127 -2.23315 0
M  V30 2311 N 228.923 6.32293 -2.83156 0
M  V30 2312 N 230.716 5.19882 -2.13726 0
M  V30 2313 H 222.867 1.3516 -1.63846 0
M  V30 2314 H 225.13 0.650174 -0.689912 0
M  V30 2315 H 224.836 2.80823 -2.11734 0
M  V30 2316 H 224.71 3.72012 -0.62344 0
M  V30 2317 H 227.097 2.951 0.0028244 0
M  V30 2318 H 227.178 2.05627 -1.52155 0
M  V30 2319 H 226.822 4.2399 -2.79633 0
M  V30 2320 H 226.752 5.11626 -1.24685 0
M  V30 2321 H 229.243 3.55499 -1.28175 0
M  V30 2322 H 229.556 7.03398 -3.20079 0
M  V30 2323 H 227.901 6.32873 -2.87223 0
M  V30 2324 H 231.092 4.37423 -1.66669 0
M  V30 2325 H 231.265 5.96077 -2.54158 0
M  V30 2326 N 224.671 0.411399 1.52136 0
M  V30 2327 C 225.901 -0.16284 2.05957 0
M  V30 2328 C 226.309 -1.3922 1.28119 0
M  V30 2329 O 225.652 -1.80768 0.326881 0
M  V30 2330 C 225.714 -0.575946 3.54856 0
M  V30 2331 C 225.378 0.542998 4.53763 0
M  V30 2332 C 226.375 1.40726 5.00492 0
M  V30 2333 C 224.06 0.716337 4.97166 0
M  V30 2334 C 226.054 2.4298 5.8927 0
M  V30 2335 C 223.741 1.74218 5.8574 0
M  V30 2336 C 224.739 2.59731 6.31687 0
M  V30 2337 O 224.427 3.60558 7.18507 0
M  V30 2338 H 224.159 -0.0229125 0.675612 0
M  V30 2339 H 226.713 0.581634 1.96993 0
M  V30 2340 H 224.943 -1.37274 3.61515 0
M  V30 2341 H 226.632 -1.07836 3.91313 0
M  V30 2342 H 227.398 1.28476 4.67674 0
M  V30 2343 H 223.277 0.0603857 4.6096 0
M  V30 2344 H 226.821 3.0976 6.25055 0
M  V30 2345 H 222.718 1.86498 6.17971 0
M  V30 2346 H 223.486 3.56829 7.36624 0
M  V30 2347 N 226.149 -1.5696 0.141893 0
M  V30 2348 C 227.374 -2.00754 -0.520838 0
M  V30 2349 C 227.799 -1.0213 -1.57959 0
M  V30 2350 O 227.157 0.00371324 -1.813 0
M  V30 2351 C 227.205 -3.43318 -1.10294 0
M  V30 2352 O 226.309 -3.47679 -2.21795 0
M  V30 2353 H 225.65 -0.651564 -0.127908 0
M  V30 2354 H 228.18 -2.03221 0.23712 0
M  V30 2355 H 228.19 -3.82012 -1.43287 0
M  V30 2356 H 226.865 -4.14608 -0.327574 0
M  V30 2357 H 225.442 -3.20824 -1.9007 0
M  V30 2358 N 227.627 0.131896 -1.57047 0
M  V30 2359 C 228.59 1.14638 -1.98471 0
M  V30 2360 C 229.59 1.35029 -0.873148 0
M  V30 2361 O 230.78 1.31764 -1.13946 0
M  V30 2362 C 227.912 2.50358 -2.31373 0
M  V30 2363 H 229.105 0.79064 -2.8929 0
M  V30 2364 H 226.658 0.375761 -1.51716 0
M  V30 2365 H 227.393 2.90876 -1.43393 0
M  V30 2366 H 227.178 2.36915 -3.12432 0
M  V30 2367 H 228.668 3.23395 -2.64207 0
M  V30 2368 N 229.106 1.52395 0.401703 0
M  V30 2369 C 230.355 1.66044 1.14509 0
M  V30 2370 C 230.668 0.400216 1.91462 0
M  V30 2371 O 231.874 0.416632 2.68284 0
M  V30 2372 C 230.33 2.93388 2.0845 0
M  V30 2373 C 229.938 4.26545 1.36978 0
M  V30 2374 C 231.682 3.16402 2.83001 0
M  V30 2375 C 229.589 5.45007 2.29611 0
M  V30 2376 H 228.519 0.618562 0.431158 0
M  V30 2377 H 231.17 1.78886 0.40892 0
M  V30 2378 H 229.552 2.74263 2.8565 0
M  V30 2379 H 230.726 4.56179 0.650916 0
M  V30 2380 H 229.041 4.09692 0.74438 0
M  V30 2381 H 231.638 4.02085 3.52465 0
M  V30 2382 H 231.981 2.30943 3.46368 0
M  V30 2383 H 232.514 3.36034 2.12898 0
M  V30 2384 H 229.253 6.32835 1.70879 0
M  V30 2385 H 228.773 5.19702 2.9945 0
M  V30 2386 H 230.452 5.7838 2.89974 0
M  V30 2387 N 230.584 -0.659388 1.43143 0
M  V30 2388 C 231.824 -1.43121 1.45931 0
M  V30 2389 C 232.188 -1.91838 0.0789298 0
M  V30 2390 O 233.389 -2.68794 -0.018491 0
M  V30 2391 C 231.66 -2.58534 2.46769 0
M  V30 2392 S 233.219 -3.47154 2.68384 0
M  V30 2393 H 230.037 -0.488624 0.516496 0
M  V30 2394 H 232.639 -0.766128 1.79863 0
M  V30 2395 H 231.343 -2.21007 3.45809 0
M  V30 2396 H 230.874 -3.29898 2.14315 0
M  V30 2397 H 232.889 -4.55051 1.97845 0
M  V30 2398 N 232.062 -1.29571 -0.897171 0
M  V30 2399 C 233.478 -1.07637 -1.17841 0
M  V30 2400 C 233.678 0.170713 -2.00776 0
M  V30 2401 O 232.734 0.867768 -2.3712 0
M  V30 2402 C 234.047 -2.3332 -1.8969 0
M  V30 2403 C 235.595 -2.38664 -2.02505 0
M  V30 2404 C 236.07 -3.64157 -2.77765 0
M  V30 2405 N 237.561 -3.64894 -2.85318 0
M  V30 2406 C 238.296 -4.58679 -3.44094 0
M  V30 2407 N 237.792 -5.62799 -4.04017 0
M  V30 2408 N 239.585 -4.46245 -3.41793 0
M  V30 2409 H 231.736 -2.09598 -0.343883 0
M  V30 2410 H 233.999 -0.923333 -0.214848 0
M  V30 2411 H 233.705 -3.24262 -1.36187 0
M  V30 2412 H 233.579 -2.41025 -2.9015 0
M  V30 2413 H 235.966 -1.48208 -2.55183 0
M  V30 2414 H 236.047 -2.34943 -1.01171 0
M  V30 2415 H 235.691 -4.54965 -2.25763 0
M  V30 2416 H 235.621 -3.65137 -3.7945 0
M  V30 2417 H 238.112 -2.89613 -2.42761 0
M  V30 2418 H 238.425 -6.3048 -4.46895 0
M  V30 2419 H 236.77 -5.66605 -4.02472 0
M  V30 2420 H 239.961 -3.64094 -2.94199 0
M  V30 2421 H 240.134 -5.19518 -3.87304 0
M  V30 2422 N 233.54 1.10788 -1.12088 0
M  V30 2423 C 234.951 1.64181 -0.88891 0
M  V30 2424 C 235.302 1.87508 0.577498 0
M  V30 2425 O 234.427 1.61434 1.44112 0
M  V30 2426 C 235.022 2.98257 -1.60712 0
M  V30 2427 C 233.581 3.4853 -1.42139 0
M  V30 2428 C 232.728 2.23208 -1.6454 0
M  V30 2429 H 235.679 0.943368 -1.27618 0
M  V30 2430 H 235.7 3.65552 -1.05604 0
M  V30 2431 H 235.212 2.81246 -2.67436 0
M  V30 2432 H 233.313 3.70692 -0.376552 0
M  V30 2433 H 233.426 4.26882 -2.17505 0
M  V30 2434 H 231.79 2.31169 -1.06925 0
M  V30 2435 H 232.573 2.08733 -2.72554 0
M  V30 2436 N 235.018 0.912232 1.28515 0
M  V30 2437 C 235.948 0.416403 2.29757 0
M  V30 2438 C 236.929 -0.515194 1.6211 0
M  V30 2439 O 238.114 -0.423253 1.89532 0
M  V30 2440 C 235.244 -0.34572 3.45575 0
M  V30 2441 C 234.198 0.496599 4.25109 0
M  V30 2442 C 233.524 -0.393771 5.33248 0
M  V30 2443 C 234.824 1.75307 4.92001 0
M  V30 2444 H 236.518 1.26249 2.7148 0
M  V30 2445 H 234.064 0.608515 1.30511 0
M  V30 2446 H 236.017 -0.703422 4.15488 0
M  V30 2447 H 234.741 -1.2257 3.02728 0
M  V30 2448 H 233.4 0.8368 3.56922 0
M  V30 2449 H 233.048 -1.27225 4.86644 0
M  V30 2450 H 232.748 0.166209 5.87365 0
M  V30 2451 H 234.272 -0.747389 6.06009 0
M  V30 2452 H 235.686 1.46437 5.54283 0
M  V30 2453 H 234.083 2.25534 5.56106 0
M  V30 2454 H 235.153 2.48176 4.16577 0
M  V30 2455 N 236.496 -1.42363 0.676048 0
M  V30 2456 C 237.428 -2.29164 -0.0404605 0
M  V30 2457 C 238.441 -1.43747 -0.764245 0
M  V30 2458 O 239.63 -1.67453 -0.618195 0
M  V30 2459 C 236.73 -3.21196 -1.08103 0
M  V30 2460 C 235.903 -4.35273 -0.430812 0
M  V30 2461 C 234.962 -5.08017 -1.37133 0
M  V30 2462 O 233.988 -5.62494 -0.87116 0
M  V30 2463 N 235.19 -5.13647 -2.70456 0
M  V30 2464 H 237.955 -2.91298 0.704667 0
M  V30 2465 H 235.516 -1.53303 0.520559 0
M  V30 2466 H 237.508 -3.66728 -1.71152 0
M  V30 2467 H 236.078 -2.60505 -1.72788 0
M  V30 2468 H 235.298 -3.92372 0.379209 0
M  V30 2469 H 236.586 -5.08795 0.0221132 0
M  V30 2470 H 235.984 -4.708 -3.1363 0
M  V30 2471 H 234.541 -5.62821 -3.28749 0
M  V30 2472 N 237.974 -0.419461 -1.51915 0
M  V30 2473 C 238.937 0.389116 -2.25873 0
M  V30 2474 C 239.937 0.964924 -1.28631 0
M  V30 2475 O 241.127 0.842179 -1.52489 0
M  V30 2476 C 238.259 1.54874 -3.03689 0
M  V30 2477 H 239.452 -0.258799 -2.98781 0
M  V30 2478 H 237.005 -0.172209 -1.55348 0
M  V30 2479 H 237.74 2.23323 -2.35154 0
M  V30 2480 H 237.525 1.14223 -3.75094 0
M  V30 2481 H 239.015 2.12046 -3.59759 0
M  V30 2482 N 239.452 1.56882 -0.150215 0
M  V30 2483 C 240.868 1.58263 0.20617 0
M  V30 2484 C 241.068 1.16464 1.64434 0
M  V30 2485 O 240.124 0.866422 2.3717 0
M  V30 2486 C 241.437 3.00649 -0.0555025 0
M  V30 2487 C 242.985 3.12999 0.00795388 0
M  V30 2488 C 243.46 4.5744 -0.226429 0
M  V30 2489 N 244.951 4.62875 -0.173469 0
M  V30 2490 C 245.686 5.72454 -0.329288 0
M  V30 2491 N 245.182 6.90669 -0.543005 0
M  V30 2492 N 246.975 5.61467 -0.266666 0
M  V30 2493 H 239.126 1.82345 -1.08922 0
M  V30 2494 H 241.389 0.844149 -0.431413 0
M  V30 2495 H 241.095 3.3563 -1.05096 0
M  V30 2496 H 240.969 3.71337 0.66246 0
M  V30 2497 H 243.356 2.77857 0.993966 0
M  V30 2498 H 243.437 2.4479 -0.742388 0
M  V30 2499 H 243.081 4.93287 -1.20956 0
M  V30 2500 H 243.011 5.2378 0.544274 0
M  V30 2501 H 245.502 3.77898 -0.0130709 0
M  V30 2502 H 245.815 7.70045 -0.651922 0
M  V30 2503 H 244.16 6.92581 -0.579366 0
M  V30 2504 H 247.351 4.67992 -0.100441 0
M  V30 2505 H 247.524 6.46816 -0.391535 0
M  V30 2506 N 240.93 -0.123565 1.57115 0
M  V30 2507 C 242.176 -0.833386 1.84885 0
M  V30 2508 C 242.509 -1.79742 0.735292 0
M  V30 2509 O 241.784 -1.92764 -0.25925 0
M  V30 2510 C 242.067 -1.5873 3.23228 0
M  V30 2511 C 241.92 -0.643183 4.45178 0
M  V30 2512 C 243.239 -2.54453 3.59085 0
M  V30 2513 H 240.358 -0.301518 0.6725 0
M  V30 2514 H 243 -0.097778 1.89748 0
M  V30 2515 H 241.15 -2.21438 3.19214 0
M  V30 2516 H 242.822 -0.0253015 4.61293 0
M  V30 2517 H 241.065 0.0456139 4.33776 0
M  V30 2518 H 241.736 -1.20724 5.38637 0
M  V30 2519 H 244.212 -2.01853 3.63861 0
M  V30 2520 H 243.088 -3.04238 4.5687 0
M  V30 2521 H 243.349 -3.36906 2.86264 0
M  V30 2522 N 242.408 -1.52605 -0.393616 0
M  V30 2523 C 243.654 -1.68624 -1.13743 0
M  V30 2524 C 244.009 -0.418687 -1.87789 0
M  V30 2525 O 243.302 0.58747 -1.82371 0
M  V30 2526 C 243.496 -2.85721 -2.14705 0
M  V30 2527 C 243.325 -4.23742 -1.50575 0
M  V30 2528 C 242.095 -4.89033 -1.2718 0
M  V30 2529 C 244.293 -5.05293 -0.958311 0
M  V30 2530 N 242.275 -6.11048 -0.591058 0
M  V30 2531 C 243.646 -6.18673 -0.405367 0
M  V30 2532 C 245.701 -4.90517 -0.854274 0
M  V30 2533 C 244.404 -7.18895 0.241434 0
M  V30 2534 C 246.43 -5.90986 -0.221301 0
M  V30 2535 C 245.792 -7.03669 0.320894 0
M  V30 2536 H 241.891 -0.670556 -0.402342 0
M  V30 2537 H 244.475 -1.89946 -0.427607 0
M  V30 2538 H 242.646 -2.65987 -2.83029 0
M  V30 2539 H 244.378 -2.90699 -2.8156 0
M  V30 2540 H 241.133 -4.47672 -1.54554 0
M  V30 2541 H 241.557 -6.76474 -0.266862 0
M  V30 2542 H 246.199 -4.03612 -1.25926 0
M  V30 2543 H 243.917 -8.05413 0.658448 0
M  V30 2544 H 247.503 -5.81626 -0.142111 0
M  V30 2545 H 246.383 -7.80078 0.802956 0
M  V30 2546 N 243.887 0.651787 -1.4349 0
M  V30 2547 C 244.819 1.77725 -1.44729 0
M  V30 2548 C 245.832 1.59141 -0.343231 0
M  V30 2549 O 247.021 1.67835 -0.607751 0
M  V30 2550 C 244.121 3.15172 -1.24579 0
M  V30 2551 C 243.294 3.60402 -2.47849 0
M  V30 2552 C 242.353 4.76656 -2.22902 0
M  V30 2553 O 241.379 4.86022 -2.96263 0
M  V30 2554 N 242.581 5.66958 -1.24656 0
M  V30 2555 H 245.346 1.77141 -2.41746 0
M  V30 2556 H 242.907 0.835678 -1.38665 0
M  V30 2557 H 244.899 3.90634 -1.0577 0
M  V30 2558 H 243.469 3.1052 -0.360015 0
M  V30 2559 H 242.689 2.75369 -2.82073 0
M  V30 2560 H 243.977 3.87368 -3.29884 0
M  V30 2561 H 243.375 5.62065 -0.640265 0
M  V30 2562 H 241.932 6.42135 -1.1183 0
M  V30 2563 N 245.365 1.30045 0.890287 0
M  V30 2564 C 246.593 1.21472 1.67487 0
M  V30 2565 C 247.008 -0.223241 1.87476 0
M  V30 2566 O 246.365 -1.14828 1.41847 0
M  V30 2567 C 246.416 1.93394 3.05419 0
M  V30 2568 O 246.137 3.31576 2.86337 0
M  V30 2569 C 247.638 1.91414 3.99844 0
M  V30 2570 H 244.858 0.420604 0.522813 0
M  V30 2571 H 247.402 1.7158 1.11268 0
M  V30 2572 H 245.557 1.47099 3.58386 0
M  V30 2573 H 245.971 3.67929 3.73802 0
M  V30 2574 H 247.445 2.46285 4.94012 0
M  V30 2575 H 247.922 0.891833 4.3005 0
M  V30 2576 H 248.528 2.37496 3.52811 0
M  V30 2577 N 246.843 -1.10192 1.12674 0
M  V30 2578 C 248.259 -1.34235 0.863317 0
M  V30 2579 C 248.459 -1.95062 -0.505277 0
M  V30 2580 O 247.515 -2.19192 -1.25345 0
M  V30 2581 C 248.828 -2.2616 1.98172 0
M  V30 2582 C 250.376 -2.3969 2.0129 0
M  V30 2583 C 250.851 -3.34946 3.1237 0
M  V30 2584 N 252.342 -3.42515 3.11829 0
M  V30 2585 C 253.077 -4.16199 3.94419 0
M  V30 2586 N 252.573 -4.92747 4.87004 0
M  V30 2587 N 254.366 -4.11843 3.82547 0
M  V30 2588 H 246.517 -0.690798 2.00853 0
M  V30 2589 H 248.78 -0.366774 0.874174 0
M  V30 2590 H 248.486 -1.8868 2.96804 0
M  V30 2591 H 248.36 -3.26488 1.88906 0
M  V30 2592 H 250.747 -2.76438 1.03276 0
M  V30 2593 H 250.828 -1.39169 2.14629 0
M  V30 2594 H 250.472 -2.98923 4.10619 0
M  V30 2595 H 250.402 -4.35353 2.96269 0
M  V30 2596 H 252.893 -2.87926 2.44759 0
M  V30 2597 H 253.206 -5.46376 5.46528 0
M  V30 2598 H 251.551 -4.91862 4.91016 0
M  V30 2599 H 254.742 -3.51136 3.0955 0
M  V30 2600 H 254.915 -4.69007 4.47142 0
M  V30 2601 N 248.321 -0.919034 -1.28029 0
M  V30 2602 C 249.546 -0.570357 -1.99403 0
M  V30 2603 C 249.971 0.842486 -1.68178 0
M  V30 2604 O 249.329 1.56391 -0.917141 0
M  V30 2605 C 249.377 -0.792541 -3.51783 0
M  V30 2606 O 248.481 0.145988 -4.12142 0
M  V30 2607 H 247.822 -0.220555 -0.6263 0
M  V30 2608 H 250.352 -1.23592 -1.63053 0
M  V30 2609 H 250.362 -0.704708 -4.01868 0
M  V30 2610 H 249.037 -1.82247 -3.73844 0
M  V30 2611 H 247.614 0.00897528 -3.72899 0
M  V30 2612 N 249.799 1.42003 -0.683588 0
M  V30 2613 C 250.749 2.27997 0.0121992 0
M  V30 2614 C 251.733 1.4156 0.764822 0
M  V30 2615 O 252.925 1.64935 0.642287 0
M  V30 2616 C 250.054 3.29706 0.956482 0
M  V30 2617 C 249.14 4.23625 0.200739 0
M  V30 2618 N 249.531 4.99448 -0.799087 0
M  V30 2619 C 247.829 4.43845 0.437937 0
M  V30 2620 C 248.53 5.68102 -1.25041 0
M  V30 2621 N 247.506 5.40511 -0.578648 0
M  V30 2622 H 251.308 2.84048 -0.754564 0
M  V30 2623 H 248.822 1.54071 -0.513398 0
M  V30 2624 H 250.819 3.90124 1.47 0
M  V30 2625 H 249.479 2.75216 1.72297 0
M  V30 2626 H 250.49 5.04303 -1.17893 0
M  V30 2627 H 247.167 4.00382 1.18325 0
M  V30 2628 H 248.557 6.38913 -2.07942 0
M  V30 2629 N 251.277 0.427512 1.51691 0
M  V30 2630 C 252.24 -0.377132 2.26076 0
M  V30 2631 C 253.24 -0.958089 1.29141 0
M  V30 2632 O 254.43 -0.83408 1.52934 0
M  V30 2633 C 251.562 -1.53262 3.04506 0
M  V30 2634 H 252.755 0.27464 2.9864 0
M  V30 2635 H 250.308 0.180445 1.55255 0
M  V30 2636 H 251.043 -2.22072 2.36335 0
M  V30 2637 H 250.828 -1.12232 3.75694 0
M  V30 2638 H 252.318 -2.10135 3.60878 0
M  V30 2639 N 252.755 -1.56801 0.158532 0
M  V30 2640 C 253.718 -2.16138 -0.762705 0
M  V30 2641 C 254.718 -1.1061 -1.16713 0
M  V30 2642 O 255.908 -1.36191 -1.08617 0
M  V30 2643 C 253.04 -2.73386 -2.03649 0
M  V30 2644 H 254.233 -2.98886 -0.246354 0
M  V30 2645 H 251.786 -1.56035 -0.0909744 0
M  V30 2646 H 252.521 -1.94335 -2.59623 0
M  V30 2647 H 252.306 -3.50601 -1.75559 0
M  V30 2648 H 253.796 -3.19065 -2.6942 0
M  V30 2649 N 254.233 0.115231 -1.57178 0
M  V30 2650 C 255.649 0.468877 -1.52557 0
M  V30 2651 C 255.849 1.81649 -0.872125 0
M  V30 2652 O 254.905 2.48347 -0.45606 0
M  V30 2653 C 256.218 0.4499 -2.97315 0
M  V30 2654 C 257.766 0.533185 -3.08425 0
M  V30 2655 C 258.241 0.54456 -4.54751 0
M  V30 2656 N 259.732 0.605892 -4.5922 0
M  V30 2657 C 260.467 0.636203 -5.6986 0
M  V30 2658 N 259.963 0.623931 -6.89985 0
M  V30 2659 N 261.756 0.679496 -5.57978 0
M  V30 2660 H 253.907 -0.767712 -1.9804 0
M  V30 2661 H 256.17 -0.283609 -0.904583 0
M  V30 2662 H 255.876 -0.472721 -3.48509 0
M  V30 2663 H 255.75 1.27632 -3.5495 0
M  V30 2664 H 258.137 1.44623 -2.57232 0
M  V30 2665 H 258.218 -0.320995 -2.53778 0
M  V30 2666 H 257.862 -0.364452 -5.06591 0
M  V30 2667 H 257.792 1.41568 -5.07214 0
M  V30 2668 H 260.283 0.621386 -3.72756 0
M  V30 2669 H 260.596 0.649787 -7.70063 0
M  V30 2670 H 258.941 0.591296 -6.9248 0
M  V30 2671 H 262.132 0.686472 -4.63039 0
M  V30 2672 H 262.305 0.69965 -6.44212 0
M  V30 2673 N 255.711 1.52812 0.385517 0
M  V30 2674 C 256.957 1.68275 1.13188 0
M  V30 2675 C 257.29 0.423179 1.89533 0
M  V30 2676 O 256.565 -0.579113 1.85679 0
M  V30 2677 C 256.848 2.92001 2.1073 0
M  V30 2678 C 256.701 4.28067 1.38125 0
M  V30 2679 C 258.02 3.11283 3.11113 0
M  V30 2680 H 255.139 0.612352 0.410115 0
M  V30 2681 H 257.781 1.85415 0.414869 0
M  V30 2682 H 255.931 2.77519 2.71874 0
M  V30 2683 H 257.603 4.54324 0.799187 0
M  V30 2684 H 255.846 4.28388 0.683092 0
M  V30 2685 H 256.517 5.10733 2.09417 0
M  V30 2686 H 258.993 3.2482 2.6006 0
M  V30 2687 H 257.869 3.99325 3.76605 0
M  V30 2688 H 258.13 2.25656 3.80173 0
M  V30 2689 N 257.189 -0.644168 1.43834 0
M  V30 2690 C 258.438 -1.39985 1.45214 0
M  V30 2691 C 258.751 -1.95421 0.0835494 0
M  V30 2692 O 259.957 -2.71488 -0.0251748 0
M  V30 2693 C 258.413 -2.53384 2.55587 0
M  V30 2694 C 258.021 -2.04517 3.98594 0
M  V30 2695 C 259.765 -3.30685 2.66172 0
M  V30 2696 C 257.672 -3.1518 5.00416 0
M  V30 2697 H 256.602 -0.526005 0.540218 0
M  V30 2698 H 259.253 -0.694367 1.69855 0
M  V30 2699 H 257.635 -3.26446 2.24163 0
M  V30 2700 H 258.809 -1.38405 4.39523 0
M  V30 2701 H 257.124 -1.40068 3.92135 0
M  V30 2702 H 259.721 -4.13158 3.39418 0
M  V30 2703 H 260.064 -3.79312 1.71546 0
M  V30 2704 H 260.597 -2.64708 2.96942 0
M  V30 2705 H 257.336 -2.71511 5.96625 0
M  V30 2706 H 256.856 -3.79974 4.64091 0
M  V30 2707 H 258.535 -3.80166 5.23529 0
M  V30 2708 N 258.668 -1.30515 -0.883378 0
M  V30 2709 C 259.914 -1.19607 -1.63774 0
M  V30 2710 C 260.247 0.248314 -1.92606 0
M  V30 2711 O 259.522 1.17742 -1.54813 0
M  V30 2712 C 259.805 -2.02669 -2.97653 0
M  V30 2713 C 259.658 -3.55335 -2.75784 0
M  V30 2714 C 260.977 -1.86573 -3.98596 0
M  V30 2715 H 258.096 -0.435856 -0.594305 0
M  V30 2716 H 260.738 -1.60165 -1.02212 0
M  V30 2717 H 258.888 -1.68208 -3.50197 0
M  V30 2718 H 260.56 -3.99863 -2.30016 0
M  V30 2719 H 258.803 -3.79438 -2.1026 0
M  V30 2720 H 259.474 -4.08745 -3.70988 0
M  V30 2721 H 261.95 -2.16703 -3.55217 0
M  V30 2722 H 260.826 -2.47014 -4.90179 0
M  V30 2723 H 261.087 -0.825321 -4.34328 0
M  V30 2724 N 260.146 1.09593 -1.13257 0
M  V30 2725 C 261.109 2.14359 -0.811358 0
M  V30 2726 C 262.109 1.59808 0.178377 0
M  V30 2727 O 263.299 1.74132 -0.0484911 0
M  V30 2728 C 260.431 3.40269 -0.207276 0
M  V30 2729 H 261.624 2.44284 -1.73969 0
M  V30 2730 H 259.177 1.25102 -0.936973 0
M  V30 2731 H 259.912 3.15969 0.73036 0
M  V30 2732 H 259.697 3.81154 -0.919992 0
M  V30 2733 H 261.187 4.176 0.000667944 0
M  V30 2734 N 261.624 0.925811 1.2754 0
M  V30 2735 C 262.852 0.581509 1.9856 0
M  V30 2736 C 263.267 -0.840041 1.69082 0
M  V30 2737 O 262.624 -1.55805 0.950312 0
M  V30 2738 C 262.675 0.795589 3.52637 0
M  V30 2739 O 262.396 2.16121 3.81082 0
M  V30 2740 C 263.897 0.459744 4.4091 0
M  V30 2741 H 261.117 0.220538 0.633722 0
M  V30 2742 H 263.661 1.24232 1.6244 0
M  V30 2743 H 261.816 0.18161 3.86974 0
M  V30 2744 H 262.23 2.2098 4.75676 0
M  V30 2745 H 263.704 0.660244 5.48037 0
M  V30 2746 H 264.181 -0.604625 4.35018 0
M  V30 2747 H 264.787 1.05178 4.12089 0
M  V30 2748 N 263.102 -1.41638 0.69111 0
M  V30 2749 C 264.348 -2.02104 0.229258 0
M  V30 2750 C 264.703 -1.53741 -1.15678 0
M  V30 2751 O 263.996 -0.736849 -1.76865 0
M  V30 2752 C 264.19 -3.56714 0.221277 0
M  V30 2753 C 264.019 -4.20083 1.605 0
M  V30 2754 C 262.789 -4.54566 2.20676 0
M  V30 2755 C 264.987 -4.46587 2.55078 0
M  V30 2756 N 262.969 -5.03199 3.5166 0
M  V30 2757 C 264.34 -4.96946 3.70735 0
M  V30 2758 C 266.395 -4.28593 2.53401 0
M  V30 2759 C 265.098 -5.31203 4.8499 0
M  V30 2760 C 267.124 -4.63936 3.66765 0
M  V30 2761 C 266.486 -5.14463 4.81152 0
M  V30 2762 H 262.585 -0.771256 0.12918 0
M  V30 2763 H 265.169 -1.72251 0.907626 0
M  V30 2764 H 263.34 -3.86051 -0.426562 0
M  V30 2765 H 265.072 -4.03896 -0.254983 0
M  V30 2766 H 261.827 -4.4087 1.73005 0
M  V30 2767 H 262.251 -5.31926 4.18789 0
M  V30 2768 H 266.893 -3.88771 1.66184 0
M  V30 2769 H 264.611 -5.69951 5.72871 0
M  V30 2770 H 268.197 -4.51677 3.66714 0
M  V30 2771 H 267.077 -5.41299 5.67419 0
M  V30 2772 N 264.58 -0.43555 -1.51462 0
M  V30 2773 C 265.51 0.367376 -2.30592 0
M  V30 2774 C 266.491 1.02263 -1.35928 0
M  V30 2775 O 267.676 1.02661 -1.64847 0
M  V30 2776 C 264.806 1.46983 -3.14664 0
M  V30 2777 C 263.76 0.938161 -4.17591 0
M  V30 2778 C 263.086 2.13622 -4.90173 0
M  V30 2779 C 264.386 -0.0261621 -5.22293 0
M  V30 2780 H 266.08 -0.292969 -2.97963 0
M  V30 2781 H 263.626 -0.14234 -1.43295 0
M  V30 2782 H 265.579 2.03873 -3.688 0
M  V30 2783 H 264.303 2.15843 -2.4511 0
M  V30 2784 H 262.962 0.391481 -3.64504 0
M  V30 2785 H 262.61 2.81098 -4.17124 0
M  V30 2786 H 262.31 1.78688 -5.59772 0
M  V30 2787 H 263.834 2.7107 -5.47132 0
M  V30 2788 H 265.248 0.452384 -5.71512 0
M  V30 2789 H 263.645 -0.287992 -5.99409 0
M  V30 2790 H 264.715 -0.963391 -4.75233 0
M  V30 2791 N 266.058 1.56714 -0.166846 0
M  V30 2792 C 266.988 2.20754 0.760913 0
M  V30 2793 C 267.969 1.16178 1.24244 0
M  V30 2794 O 269.154 1.44592 1.29641 0
M  V30 2795 C 266.284 2.84478 1.99223 0
M  V30 2796 C 265.238 3.95053 1.64672 0
M  V30 2797 C 264.564 4.45805 2.95232 0
M  V30 2798 C 265.864 5.14865 0.878155 0
M  V30 2799 H 267.558 2.98537 0.22713 0
M  V30 2800 H 265.104 1.43596 0.107805 0
M  V30 2801 H 267.057 3.27951 2.64624 0
M  V30 2802 H 265.781 2.04056 2.55007 0
M  V30 2803 H 264.44 3.52228 1.01641 0
M  V30 2804 H 264.088 3.62181 3.49047 0
M  V30 2805 H 263.788 5.204 2.7287 0
M  V30 2806 H 265.312 4.91962 3.6167 0
M  V30 2807 H 266.726 5.55059 1.43466 0
M  V30 2808 H 265.123 5.95348 0.753738 0
M  V30 2809 H 266.193 4.84735 -0.126377 0
M  V30 2810 N 267.536 -0.106894 1.57237 0
M  V30 2811 C 268.761 -0.830287 1.90055 0
M  V30 2812 C 269.186 -1.72064 0.75998 0
M  V30 2813 O 268.544 -1.78982 -0.288991 0
M  V30 2814 C 268.592 -1.6295 3.21683 0
M  V30 2815 O 267.696 -2.73748 3.08441 0
M  V30 2816 H 267.037 -0.228855 0.623315 0
M  V30 2817 H 269.567 -0.085658 2.04421 0
M  V30 2818 H 269.577 -2.01621 3.54701 0
M  V30 2819 H 268.252 -0.975989 4.04286 0
M  V30 2820 H 266.829 -2.38192 2.86913 0
M  V30 2821 N 269.014 -1.53014 -0.377408 0
M  V30 2822 C 270.262 -1.6829 -1.11906 0
M  V30 2823 C 270.583 -0.431206 -1.90173 0
M  V30 2824 O 269.853 0.554595 -1.87886 0
M  V30 2825 H 268.433 -0.620371 -0.416112 0
M  V30 2826 H 271.095 -1.90167 -0.426893 0
M  V30 2827 H 270.191 -2.53862 -1.8155 0
M  V30 2828 N 270.492 0.636531 -1.44174 0
M  V30 2829 C 271.422 1.76003 -1.53444 0
M  V30 2830 C 272.403 1.65619 -0.387841 0
M  V30 2831 O 273.588 1.84461 -0.607257 0
M  V30 2832 C 270.718 3.14511 -1.4731 0
M  V30 2833 C 269.672 3.39677 -2.60391 0
M  V30 2834 C 268.998 4.78159 -2.39308 0
M  V30 2835 C 270.298 3.32772 -4.02567 0
M  V30 2836 H 271.992 1.68501 -2.47483 0
M  V30 2837 H 269.538 0.809237 -1.19111 0
M  V30 2838 H 271.491 3.92878 -1.52397 0
M  V30 2839 H 270.215 3.22783 -0.49785 0
M  V30 2840 H 268.874 2.63688 -2.54684 0
M  V30 2841 H 268.522 4.83128 -1.39988 0
M  V30 2842 H 268.222 4.95956 -3.15122 0
M  V30 2843 H 269.746 5.58762 -2.46205 0
M  V30 2844 H 271.16 4.01051 -4.09672 0
M  V30 2845 H 269.557 3.62104 -4.7854 0
M  V30 2846 H 270.627 2.30669 -4.2652 0
M  V30 2847 N 271.97 1.30982 0.876444 0
M  V30 2848 C 272.9 1.20668 1.99903 0
M  V30 2849 C 273.881 0.095354 1.69833 0
M  V30 2850 O 275.066 0.27885 1.92188 0
M  V30 2851 C 272.196 0.90655 3.3526 0
M  V30 2852 C 271.15 1.97675 3.79617 0
M  V30 2853 C 270.476 1.52943 5.1236 0
M  V30 2854 C 271.776 3.389 3.97422 0
M  V30 2855 H 273.47 2.14586 2.0879 0
M  V30 2856 H 271.016 1.03308 1.00317 0
M  V30 2857 H 272.969 0.821025 4.13324 0
M  V30 2858 H 271.693 -0.0682969 3.26529 0
M  V30 2859 H 270.352 2.05205 3.03787 0
M  V30 2860 H 270 0.54262 5.00065 0
M  V30 2861 H 269.7 2.24532 5.43009 0
M  V30 2862 H 271.224 1.45786 5.92941 0
M  V30 2863 H 272.638 3.34081 4.659 0
M  V30 2864 H 271.035 4.0865 4.3946 0
M  V30 2865 H 272.105 3.80163 3.01006 0
M  V30 2866 N 273.449 -1.08991 1.13837 0
M  V30 2867 C 274.382 -2.15049 0.763477 0
M  V30 2868 C 275.36 -1.60629 -0.252398 0
M  V30 2869 O 276.544 -1.87958 -0.142853 0
M  V30 2870 C 273.671 -3.38441 0.132545 0
M  V30 2871 C 272.717 -4.11596 1.11763 0
M  V30 2872 S 273.55 -4.6521 2.65216 0
M  V30 2873 C 274.706 -5.91896 2.03495 0
M  V30 2874 H 274.939 -2.46518 1.66182 0
M  V30 2875 H 272.472 -1.21008 0.958976 0
M  V30 2876 H 274.43 -4.09883 -0.225074 0
M  V30 2877 H 273.091 -3.05182 -0.743135 0
M  V30 2878 H 272.284 -5.00121 0.624076 0
M  V30 2879 H 271.886 -3.46038 1.41894 0
M  V30 2880 H 274.178 -6.63156 1.38675 0
M  V30 2881 H 275.121 -6.45938 2.9012 0
M  V30 2882 H 275.529 -5.44625 1.48471 0
M  V30 2883 N 274.927 -0.932562 -1.27047 0
M  V30 2884 C 276.173 -0.576412 -1.94436 0
M  V30 2885 C 276.506 0.880891 -1.73072 0
M  V30 2886 O 275.781 1.62905 -1.06264 0
M  V30 2887 C 276.064 -0.909031 -3.48437 0
M  V30 2888 C 275.917 -2.42044 -3.79123 0
M  V30 2889 C 277.236 -0.418341 -4.38107 0
M  V30 2890 H 274.355 -0.210888 -0.706184 0
M  V30 2891 H 276.997 -1.16522 -1.50075 0
M  V30 2892 H 275.147 -0.407947 -3.86352 0
M  V30 2893 H 276.819 -2.99359 -3.50973 0
M  V30 2894 H 275.062 -2.86758 -3.25503 0
M  V30 2895 H 275.733 -2.6037 -4.86736 0
M  V30 2896 H 278.209 -0.847856 -4.0737 0
M  V30 2897 H 277.085 -0.679981 -5.44672 0
M  V30 2898 H 277.346 0.681642 -4.36814 0
M  V30 2899 N 276.405 1.4127 -0.698611 0
M  V30 2900 C 277.816 1.84187 -0.305289 0
M  V30 2901 C 278.167 1.58449 1.15708 0
M  V30 2902 O 277.292 1.05651 1.88856 0
M  V30 2903 C 277.887 3.3435 -0.547314 0
M  V30 2904 C 276.446 3.75826 -0.207878 0
M  V30 2905 C 275.593 2.64647 -0.828099 0
M  V30 2906 H 278.544 1.30778 -0.89904 0
M  V30 2907 H 278.565 3.8001 0.192998 0
M  V30 2908 H 278.077 3.53051 -1.61172 0
M  V30 2909 H 276.178 3.62725 0.852143 0
M  V30 2910 H 276.291 4.74462 -0.665021 0
M  V30 2911 H 274.655 2.53395 -0.257458 0
M  V30 2912 H 275.438 2.86165 -1.89643 0
M  V30 2913 N 277.883 0.443576 1.51229 0
M  V30 2914 C 279.113 -0.119117 2.06256 0
M  V30 2915 C 279.521 -1.36471 1.31043 0
M  V30 2916 O 278.864 -1.80034 0.365151 0
M  V30 2917 C 278.926 -0.500546 3.55998 0
M  V30 2918 C 278.59 0.639125 4.52509 0
M  V30 2919 C 279.587 1.51311 4.97394 0
M  V30 2920 C 277.272 0.821632 4.95535 0
M  V30 2921 C 279.266 2.55425 5.83984 0
M  V30 2922 C 276.953 1.86603 5.81913 0
M  V30 2923 C 277.951 2.73072 6.26036 0
M  V30 2924 O 277.639 3.75718 7.10698 0
M  V30 2925 H 277.371 -0.00857665 0.675946 0
M  V30 2926 H 279.925 0.623288 1.95715 0
M  V30 2927 H 278.155 -1.29575 3.64345 0
M  V30 2928 H 279.844 -0.995116 3.93513 0
M  V30 2929 H 280.61 1.38367 4.64844 0
M  V30 2930 H 276.489 0.158149 4.60729 0
M  V30 2931 H 280.033 3.22949 6.18344 0
M  V30 2932 H 275.93 1.99564 6.13876 0
M  V30 2933 H 276.698 3.72374 7.2889 0
M  V30 2934 N 279.361 -1.56624 0.175154 0
M  V30 2935 C 280.772 -1.83561 -0.340916 0
M  V30 2936 C 281.123 -1.09511 -1.62794 0
M  V30 2937 O 280.248 -0.349389 -2.13561 0
M  V30 2938 C 280.843 -3.32979 -0.625313 0
M  V30 2939 C 279.402 -3.60399 -1.08581 0
M  V30 2940 C 278.549 -2.77024 -0.123722 0
M  V30 2941 H 281.5 -1.53593 0.399344 0
M  V30 2942 H 281.521 -3.50666 -1.47694 0
M  V30 2943 H 281.033 -3.86847 0.311575 0
M  V30 2944 H 279.134 -3.11945 -2.03767 0
M  V30 2945 H 279.247 -4.68711 -0.992317 0
M  V30 2946 H 277.611 -2.46993 -0.621821 0
M  V30 2947 H 278.394 -3.33674 0.807256 0
M  V30 2948 N 280.839 0.0985539 -1.57292 0
M  V30 2949 C 282.085 0.803867 -1.86188 0
M  V30 2950 C 282.418 1.78549 -0.763794 0
M  V30 2951 O 281.693 1.93153 0.22855 0
M  V30 2952 C 281.976 1.53568 -3.25713 0
M  V30 2953 C 281.829 0.572277 -4.46145 0
M  V30 2954 C 283.148 2.48708 -3.63087 0
M  V30 2955 H 280.267 0.290781 -0.677211 0
M  V30 2956 H 282.909 0.0675783 -1.8988 0
M  V30 2957 H 281.059 2.16332 -3.22696 0
M  V30 2958 H 282.731 -0.0480894 -4.61275 0
M  V30 2959 H 280.974 -0.114618 -4.33649 0
M  V30 2960 H 281.645 1.12139 -5.40489 0
M  V30 2961 H 284.121 1.96039 -3.67026 0
M  V30 2962 H 282.997 2.96932 -4.61652 0
M  V30 2963 H 283.258 3.32309 -2.91588 0
M  V30 2964 N 282.317 1.53212 0.369288 0
M  V30 2965 C 283.547 1.72868 1.13139 0
M  V30 2966 C 283.955 0.455754 1.83629 0
M  V30 2967 O 283.298 -0.580861 1.74275 0
M  V30 2968 C 283.36 2.83667 2.20847 0
M  V30 2969 C 283.024 4.24142 1.70155 0
M  V30 2970 C 284.021 5.06619 1.16763 0
M  V30 2971 C 281.706 4.70539 1.7578 0
M  V30 2972 C 283.7 6.33581 0.696678 0
M  V30 2973 C 281.387 5.97481 1.28297 0
M  V30 2974 C 282.385 6.78833 0.753307 0
M  V30 2975 O 282.073 8.03393 0.285475 0
M  V30 2976 H 281.805 0.581707 0.344373 0
M  V30 2977 H 284.359 2.00736 0.435243 0
M  V30 2978 H 282.589 2.51265 2.93944 0
M  V30 2979 H 284.278 2.91536 2.82421 0
M  V30 2980 H 285.044 4.71948 1.11758 0
M  V30 2981 H 280.923 4.07293 2.15949 0
M  V30 2982 H 284.467 6.97027 0.282581 0
M  V30 2983 H 280.364 6.31651 1.32994 0
M  V30 2984 H 281.132 8.17497 0.405145 0
M  V30 2985 N 283.795 -0.628877 1.44509 0
M  V30 2986 C 285.023 -1.41554 1.50897 0
M  V30 2987 C 285.438 -1.8832 0.134564 0
M  V30 2988 O 284.795 -1.60969 -0.859965 0
M  V30 2989 C 284.846 -2.63435 2.47556 0
M  V30 2990 O 284.567 -2.18619 3.79654 0
M  V30 2991 C 286.068 -3.56537 2.63431 0
M  V30 2992 H 283.288 -0.434044 0.511709 0
M  V30 2993 H 285.832 -0.768895 1.89495 0
M  V30 2994 H 283.987 -3.24187 2.12089 0
M  V30 2995 H 284.401 -2.97652 4.31861 0
M  V30 2996 H 285.875 -4.38657 3.35088 0
M  V30 2997 H 286.352 -4.05493 1.68738 0
M  V30 2998 H 286.958 -3.01653 2.9981 0
M  V30 2999 N 285.273 -1.31445 -0.869486 0
M  V30 3000 C 286.519 -1.21337 -1.62496 0
M  V30 3001 C 286.852 0.227872 -1.92858 0
M  V30 3002 O 286.127 1.16094 -1.56053 0
M  V30 3003 C 286.41 -2.05814 -2.95487 0
M  V30 3004 C 286.263 -3.5824 -2.72 0
M  V30 3005 C 287.582 -1.9079 -3.96594 0
M  V30 3006 H 284.701 -0.442135 -0.589649 0
M  V30 3007 H 287.343 -1.6124 -1.00507 0
M  V30 3008 H 285.493 -1.71913 -3.48394 0
M  V30 3009 H 287.165 -4.0228 -2.25762 0
M  V30 3010 H 285.408 -3.81647 -2.06224 0
M  V30 3011 H 286.079 -4.12657 -3.66631 0
M  V30 3012 H 288.555 -2.20459 -3.52898 0
M  V30 3013 H 287.431 -2.52199 -4.87531 0
M  V30 3014 H 287.692 -0.871341 -4.33428 0
M  V30 3015 N 286.751 1.08385 -1.14413 0
M  V30 3016 C 287.997 1.81044 -0.913834 0
M  V30 3017 C 288.33 1.86004 0.558209 0
M  V30 3018 O 287.605 1.33606 1.4135 0
M  V30 3019 C 287.888 3.26648 -1.51569 0
M  V30 3020 C 287.741 3.29895 -3.0576 0
M  V30 3021 C 289.06 4.23629 -1.19273 0
M  V30 3022 H 286.179 0.65727 -0.333414 0
M  V30 3023 H 288.821 1.26896 -1.41412 0
M  V30 3024 H 286.971 3.72889 -1.09023 0
M  V30 3025 H 288.643 2.91977 -3.57137 0
M  V30 3026 H 286.886 2.69163 -3.40197 0
M  V30 3027 H 287.557 4.32516 -3.42977 0
M  V30 3028 H 290.033 3.85727 -1.56057 0
M  V30 3029 H 288.909 5.23822 -1.64017 0
M  V30 3030 H 289.17 4.41968 -0.108068 0
M  V30 3031 N 288.23 0.939286 1.26551 0
M  V30 3032 C 289.162 0.404704 2.25599 0
M  V30 3033 C 290.175 -0.470983 1.55838 0
M  V30 3034 O 291.364 -0.281734 1.76263 0
M  V30 3035 C 288.464 -0.43764 3.36062 0
M  V30 3036 C 287.637 0.421449 4.35365 0
M  V30 3037 C 286.696 -0.36015 5.24966 0
M  V30 3038 O 285.722 0.236167 5.6871 0
M  V30 3039 N 286.924 -1.65715 5.56344 0
M  V30 3040 H 289.689 1.25618 2.72103 0
M  V30 3041 H 287.25 0.807963 1.40298 0
M  V30 3042 H 289.242 -0.967866 3.92956 0
M  V30 3043 H 287.812 -1.18991 2.89067 0
M  V30 3044 H 287.032 1.1329 3.7757 0
M  V30 3045 H 288.32 1.00835 4.98708 0
M  V30 3046 H 287.718 -2.16378 5.22682 0
M  V30 3047 H 286.275 -2.13366 6.15888 0
M  V30 3048 N 289.708 -1.40897 0.706093 0
M  V30 3049 C 291.119 -1.84023 0.315052 0
M  V30 3050 C 291.47 -1.5906 -1.14866 0
M  V30 3051 O 290.595 -1.06651 -1.88293 0
M  V30 3052 C 291.19 -3.34055 0.565038 0
M  V30 3053 C 289.749 -3.7571 0.227806 0
M  V30 3054 C 288.896 -2.64204 0.842122 0
M  V30 3055 H 291.847 -1.303 0.905963 0
M  V30 3056 H 291.868 -3.80107 -0.172843 0
M  V30 3057 H 291.38 -3.52192 1.63042 0
M  V30 3058 H 289.481 -3.63172 -0.832895 0
M  V30 3059 H 289.594 -4.74103 0.690174 0
M  V30 3060 H 287.958 -2.53255 0.270893 0
M  V30 3061 H 288.741 -2.85155 1.91158 0
M  V30 3062 N 291.186 -0.45159 -1.50991 0
M  V30 3063 C 292.432 0.110237 -2.025 0
M  V30 3064 C 292.765 1.41109 -1.33424 0
M  V30 3065 O 292.04 1.89135 -0.453659 0
M  V30 3066 C 292.323 0.314271 -3.58726 0
M  V30 3067 C 292.176 -1.00623 -4.38401 0
M  V30 3068 C 293.495 1.07767 -4.26702 0
M  V30 3069 H 290.614 0.0385897 -0.735989 0
M  V30 3070 H 293.256 -0.593374 -1.80497 0
M  V30 3071 H 291.406 0.913601 -3.77605 0
M  V30 3072 H 293.078 -1.64064 -4.31139 0
M  V30 3073 H 291.321 -1.6075 -4.02917 0
M  V30 3074 H 291.992 -0.817341 -5.45915 0
M  V30 3075 H 294.468 0.56986 -4.12179 0
M  V30 3076 H 293.344 1.18921 -5.35863 0
M  V30 3077 H 293.605 2.10939 -3.88532 0
M  V30 3078 N 292.664 1.56529 -0.183458 0
M  V30 3079 C 293.912 1.96855 0.457452 0
M  V30 3080 C 294.233 1.07104 1.62953 0
M  V30 3081 O 293.503 0.139887 1.954 0
M  V30 3082 H 292.083 0.72693 0.171992 0
M  V30 3083 H 294.745 1.93056 -0.267476 0
M  V30 3084 H 293.841 3.01423 0.809368 0
M  V30 3085 N 294.142 -0.090211 1.57342 0
M  V30 3086 C 295.553 -0.644173 1.75235 0
M  V30 3087 C 295.904 -1.78865 0.806335 0
M  V30 3088 O 295.029 -2.16395 -0.0140128 0
M  V30 3089 C 295.624 -1.17532 3.1776 0
M  V30 3090 C 294.183 -1.67531 3.37061 0
M  V30 3091 C 293.33 -0.58693 2.71017 0
M  V30 3092 H 296.281 0.135884 1.58117 0
M  V30 3093 H 296.302 -2.04455 3.20902 0
M  V30 3094 H 295.814 -0.342138 3.86589 0
M  V30 3095 H 293.915 -2.53234 2.73319 0
M  V30 3096 H 294.028 -1.76493 4.45406 0
M  V30 3097 H 292.392 -1.02756 2.33052 0
M  V30 3098 H 293.175 0.235758 3.4249 0
M  V30 3099 N 295.62 -1.53406 -0.361157 0
M  V30 3100 C 297.036 -1.43277 -0.703124 0
M  V30 3101 C 297.236 -0.575384 -1.9311 0
M  V30 3102 O 296.292 -0.0595362 -2.5243 0
M  V30 3103 C 297.605 -2.8653 -0.9122 0
M  V30 3104 C 299.153 -2.96191 -1.01193 0
M  V30 3105 C 299.628 -4.40514 -1.25345 0
M  V30 3106 N 301.119 -4.43962 -1.32105 0
M  V30 3107 C 301.854 -5.52746 -1.5251 0
M  V30 3108 N 301.35 -6.71567 -1.70203 0
M  V30 3109 N 303.143 -5.40331 -1.54916 0
M  V30 3110 H 295.294 -2.07654 0.446475 0
M  V30 3111 H 297.557 -0.937944 0.137715 0
M  V30 3112 H 297.263 -3.51605 -0.0816414 0
M  V30 3113 H 297.137 -3.30441 -1.81903 0
M  V30 3114 H 299.524 -2.31266 -1.83303 0
M  V30 3115 H 299.605 -2.55667 -0.0823929 0
M  V30 3116 H 299.249 -5.06014 -0.437346 0
M  V30 3117 H 299.179 -4.78614 -2.19627 0
M  V30 3118 H 301.67 -3.58332 -1.20028 0
M  V30 3119 H 301.983 -7.50241 -1.85359 0
M  V30 3120 H 300.328 -6.74545 -1.67373 0
M  V30 3121 H 303.519 -4.46465 -1.40663 0
M  V30 3122 H 303.692 -6.25173 -1.70477 0
M  V30 3123 N 297.098 0.621204 -1.44841 0
M  V30 3124 C 298.344 1.3826 -1.48365 0
M  V30 3125 C 298.677 1.93831 -0.119624 0
M  V30 3126 O 297.952 1.74251 0.864111 0
M  V30 3127 C 298.235 2.54058 -2.55199 0
M  V30 3128 C 298.088 2.03772 -4.00995 0
M  V30 3129 C 299.407 3.56225 -2.58442 0
M  V30 3130 H 296.526 0.501374 -0.540179 0
M  V30 3131 H 299.168 0.7015 -1.76576 0
M  V30 3132 H 297.318 3.12162 -2.31274 0
M  V30 3133 H 298.99 1.50423 -4.36086 0
M  V30 3134 H 297.233 1.34876 -4.12299 0
M  V30 3135 H 297.904 2.87185 -4.71411 0
M  V30 3136 H 300.38 3.07939 -2.79844 0
M  V30 3137 H 299.256 4.34756 -3.3508 0
M  V30 3138 H 299.517 4.10949 -1.63013 0
M  V30 3139 N 298.576 1.31904 0.862503 0
M  V30 3140 C 299.506 1.22782 1.98612 0
M  V30 3141 C 300.487 0.113362 1.69722 0
M  V30 3142 O 301.672 0.299218 1.91881 0
M  V30 3143 C 298.802 0.942058 3.34279 0
M  V30 3144 C 297.756 2.0169 3.77499 0
M  V30 3145 C 297.082 1.58369 5.10709 0
M  V30 3146 C 298.382 3.43096 3.93805 0
M  V30 3147 H 300.076 2.16788 2.06502 0
M  V30 3148 H 297.622 1.04366 0.992154 0
M  V30 3149 H 299.575 0.864818 4.1243 0
M  V30 3150 H 298.299 -0.0336603 3.26583 0
M  V30 3151 H 296.958 2.08416 3.01593 0
M  V30 3152 H 296.606 0.595628 4.99461 0
M  V30 3153 H 296.306 2.30279 5.40597 0
M  V30 3154 H 297.83 1.52067 5.91361 0
M  V30 3155 H 299.244 3.39003 4.62331 0
M  V30 3156 H 297.641 4.13288 4.35101 0
M  V30 3157 H 298.711 3.83334 2.96957 0
M  V30 3158 N 300.054 -1.07777 1.14986 0
M  V30 3159 C 300.986 -2.14769 0.800436 0
M  V30 3160 C 301.999 -1.61739 -0.185595 0
M  V30 3161 O 303.188 -1.78462 0.0370358 0
M  V30 3162 C 300.288 -3.38481 0.168533 0
M  V30 3163 C 299.461 -4.20876 1.1909 0
M  V30 3164 C 298.52 -5.22976 0.581575 0
M  V30 3165 O 297.546 -5.55388 1.24633 0
M  V30 3166 N 298.748 -5.76976 -0.638706 0
M  V30 3167 H 301.513 -2.45348 1.72118 0
M  V30 3168 H 299.074 -1.23645 1.04515 0
M  V30 3169 H 301.066 -4.03916 -0.251764 0
M  V30 3170 H 299.636 -3.05651 -0.655467 0
M  V30 3171 H 298.856 -3.51322 1.78791 0
M  V30 3172 H 300.144 -4.7274 1.88133 0
M  V30 3173 H 299.542 -5.52886 -1.19723 0
M  V30 3174 H 298.099 -6.44061 -1.00142 0
M  V30 3175 N 301.532 -0.945985 -1.26051 0
M  V30 3176 C 302.772 -0.603665 -1.95282 0
M  V30 3177 C 303.136 0.842377 -1.72534 0
M  V30 3178 O 304.337 1.29387 -2.35611 0
M  V30 3179 C 302.608 -0.942292 -3.44754 0
M  V30 3180 S 304.167 -0.711242 -4.32997 0
M  V30 3181 H 300.985 -0.222176 -0.675395 0
M  V30 3182 H 303.587 -1.21832 -1.52896 0
M  V30 3183 H 302.291 -1.99203 -3.58812 0
M  V30 3184 H 301.822 -0.317546 -3.92116 0
M  V30 3185 H 303.837 0.422221 -4.944 0
M  V30 3186 N 303.011 1.40521 -0.713556 0
M  V30 3187 C 304.257 2.01221 -0.252564 0
M  V30 3188 C 304.59 1.56444 1.1506 0
M  V30 3189 O 303.865 0.783597 1.78017 0
M  V30 3190 C 304.148 3.58582 -0.330332 0
M  V30 3191 C 304.001 4.13437 -1.77173 0
M  V30 3192 C 305.32 4.39079 0.299641 0
M  V30 3193 H 302.439 0.731077 -0.0932471 0
M  V30 3194 H 305.081 1.67026 -0.905673 0
M  V30 3195 H 303.231 3.87844 0.225737 0
M  V30 3196 H 304.903 3.9498 -2.38303 0
M  V30 3197 H 303.146 3.67801 -2.3001 0
M  V30 3198 H 303.817 5.22597 -1.77755 0
M  V30 3199 H 306.293 4.15735 -0.174139 0
M  V30 3200 H 305.169 5.4848 0.214771 0
M  V30 3201 H 305.43 4.19915 1.38288 0
M  V30 3202 N 304.489 0.459591 1.5075 0
M  V30 3203 C 305.439 -0.358926 2.25157 0
M  V30 3204 C 306.423 -0.971285 1.28276 0
M  V30 3205 O 307.615 -0.885739 1.53244 0
M  V30 3206 C 304.744 -1.44695 3.11317 0
M  V30 3207 C 303.83 -0.842894 4.15639 0
M  V30 3208 N 304.221 0.0299373 5.05791 0
M  V30 3209 C 302.519 -1.10809 4.32015 0
M  V30 3210 C 303.22 0.371563 5.80512 0
M  V30 3211 N 302.196 -0.250409 5.43023 0
M  V30 3212 H 305.998 0.313636 2.92222 0
M  V30 3213 H 303.512 0.273021 1.60089 0
M  V30 3214 H 305.509 -2.04641 3.63218 0
M  V30 3215 H 304.169 -2.12162 2.45799 0
M  V30 3216 H 305.18 0.39797 5.16369 0
M  V30 3217 H 301.857 -1.7786 3.77719 0
M  V30 3218 H 303.247 1.08319 6.63111 0
M  V30 3219 N 305.967 -1.56429 0.191757 0
M  V30 3220 C 307.383 -1.58754 -0.164137 0
M  V30 3221 C 307.583 -1.20782 -1.61288 0
M  V30 3222 O 306.639 -0.928999 -2.34789 0
M  V30 3223 C 307.952 -3.00396 0.135195 0
M  V30 3224 C 309.5 -3.1291 0.0750351 0
M  V30 3225 C 309.975 -4.56679 0.347632 0
M  V30 3226 N 311.466 -4.62252 0.296131 0
M  V30 3227 C 312.201 -5.71379 0.480948 0
M  V30 3228 N 311.697 -6.88986 0.725933 0
M  V30 3229 N 313.49 -5.60563 0.415435 0
M  V30 3230 H 305.641 -1.79393 1.13718 0
M  V30 3231 H 307.904 -0.832414 0.453643 0
M  V30 3232 H 307.61 -3.32726 1.13958 0
M  V30 3233 H 307.484 -3.72963 -0.563773 0
M  V30 3234 H 309.871 -2.80394 -0.919948 0
M  V30 3235 H 309.952 -2.42736 0.807029 0
M  V30 3236 H 309.596 -4.89907 1.33992 0
M  V30 3237 H 309.526 -5.25039 -0.405212 0
M  V30 3238 H 312.017 -3.7773 0.113259 0
M  V30 3239 H 312.33 -7.68046 0.855857 0
M  V30 3240 H 310.675 -6.90801 0.762788 0
M  V30 3241 H 313.866 -4.67561 0.224486 0
M  V30 3242 H 314.039 -6.45551 0.562889 0
M  V30 3243 N 307.445 0.0818655 -1.57387 0
M  V30 3244 C 308.691 0.778884 -1.87896 0
M  V30 3245 C 309.046 1.75692 -0.784229 0
M  V30 3246 O 308.339 1.90417 0.212567 0
M  V30 3247 C 308.533 1.53513 -3.22752 0
M  V30 3248 C 308.362 0.631838 -4.45239 0
M  V30 3249 C 307.132 0.272571 -5.04564 0
M  V30 3250 C 309.33 -0.0670191 -5.14256 0
M  V30 3251 N 307.312 -0.637498 -6.10581 0
M  V30 3252 C 308.683 -0.834653 -6.14356 0
M  V30 3253 C 310.738 -0.139551 -4.97704 0
M  V30 3254 C 309.441 -1.66806 -6.99691 0
M  V30 3255 C 311.467 -0.959903 -5.83558 0
M  V30 3256 C 310.829 -1.71561 -6.83188 0
M  V30 3257 H 306.928 0.260764 -0.737242 0
M  V30 3258 H 309.512 0.0408227 -1.94657 0
M  V30 3259 H 307.683 2.24398 -3.17018 0
M  V30 3260 H 309.415 2.18038 -3.40942 0
M  V30 3261 H 306.17 0.62319 -4.69482 0
M  V30 3262 H 306.594 -1.08548 -6.68241 0
M  V30 3263 H 311.236 0.430376 -4.20604 0
M  V30 3264 H 308.954 -2.249 -7.76174 0
M  V30 3265 H 312.54 -1.01887 -5.72809 0
M  V30 3266 H 311.42 -2.34017 -7.48469 0
M  V30 3267 N 308.923 1.53595 0.353017 0
M  V30 3268 C 310.334 1.61937 0.929153 0
M  V30 3269 C 310.685 0.494686 1.89861 0
M  V30 3270 O 309.81 -0.377017 2.1309 0
M  V30 3271 C 310.405 2.93526 1.69199 0
M  V30 3272 C 308.964 3.04161 2.21727 0
M  V30 3273 C 308.111 2.57322 1.03348 0
M  V30 3274 H 311.062 1.58155 0.131431 0
M  V30 3275 H 311.083 2.82034 2.55416 0
M  V30 3276 H 310.595 3.75362 0.986144 0
M  V30 3277 H 308.696 2.26938 2.95516 0
M  V30 3278 H 308.809 4.09465 2.48748 0
M  V30 3279 H 307.173 2.12499 1.40414 0
M  V30 3280 H 307.956 3.41588 0.342428 0
M  V30 3281 N 310.401 -0.613514 1.45168 0
M  V30 3282 C 311.626 -1.40437 1.52618 0
M  V30 3283 C 312.051 -1.87438 0.157707 0
M  V30 3284 O 311.409 -1.59791 -0.856537 0
M  V30 3285 C 311.457 -2.58894 2.51011 0
M  V30 3286 O 310.561 -3.59326 2.02382 0
M  V30 3287 H 309.902 -0.419506 0.514695 0
M  V30 3288 H 312.432 -0.747215 1.90467 0
M  V30 3289 H 312.442 -3.06214 2.69624 0
M  V30 3290 H 311.117 -2.24032 3.50403 0
M  V30 3291 H 309.694 -3.18695 1.93618 0
M  V30 3292 N 311.879 -1.3236 -0.855495 0
M  V30 3293 C 312.842 -1.21164 -1.94556 0
M  V30 3294 C 313.842 -0.134908 -1.60233 0
M  V30 3295 O 315.032 -0.385249 -1.69887 0
M  V30 3296 C 312.164 -0.863192 -3.29791 0
M  V30 3297 H 313.357 -2.18038 -2.05911 0
M  V30 3298 H 310.91 -1.16179 -1.04557 0
M  V30 3299 H 311.645 0.103769 -3.24134 0
M  V30 3300 H 311.43 -1.64166 -3.56078 0
M  V30 3301 H 312.92 -0.809156 -4.09686 0
M  V30 3302 N 313.357 1.07166 -1.15556 0
M  V30 3303 C 314.773 1.31899 -0.898603 0
M  V30 3304 C 314.973 1.96333 0.453383 0
M  V30 3305 O 314.029 2.22438 1.19489 0
M  V30 3306 C 315.342 2.20826 -2.04099 0
M  V30 3307 C 316.89 2.34269 -2.07574 0
M  V30 3308 C 317.365 3.26546 -3.21141 0
M  V30 3309 N 318.856 3.34127 -3.20801 0
M  V30 3310 C 319.591 4.05595 -4.05315 0
M  V30 3311 N 319.087 4.79661 -4.99897 0
M  V30 3312 N 320.88 4.01555 -3.93332 0
M  V30 3313 H 313.031 0.637302 -2.02613 0
M  V30 3314 H 315.294 0.343468 -0.883591 0
M  V30 3315 H 315 1.80744 -3.01703 0
M  V30 3316 H 314.874 3.21364 -1.97496 0
M  V30 3317 H 317.261 2.73603 -1.10568 0
M  V30 3318 H 317.342 1.33429 -2.18244 0
M  V30 3319 H 316.986 2.87931 -4.184 0
M  V30 3320 H 316.916 4.27345 -3.07708 0
M  V30 3321 H 319.407 2.81336 -2.52306 0
M  V30 3322 H 319.72 5.31694 -5.60822 0
M  V30 3323 H 318.065 4.78671 -5.03884 0
M  V30 3324 H 321.256 3.42806 -3.18751 0
M  V30 3325 H 321.429 4.56987 -4.5942 0
M  V30 3326 N 314.835 0.952656 1.25548 0
M  V30 3327 C 316.081 0.607272 1.93494 0
M  V30 3328 C 316.414 -0.853245 1.74452 0
M  V30 3329 O 315.689 -1.61194 1.08843 0
M  V30 3330 C 315.972 0.96435 3.46947 0
M  V30 3331 C 315.825 2.48045 3.75225 0
M  V30 3332 C 317.144 0.487987 4.37386 0
M  V30 3333 H 314.263 0.222096 0.702739 0
M  V30 3334 H 316.905 1.18895 1.48203 0
M  V30 3335 H 315.055 0.469361 3.85654 0
M  V30 3336 H 316.727 3.04905 3.46166 0
M  V30 3337 H 314.97 2.919 3.209 0
M  V30 3338 H 315.641 2.6808 4.82532 0
M  V30 3339 H 318.117 0.912558 4.0597 0
M  V30 3340 H 316.993 0.766547 5.43521 0
M  V30 3341 H 317.254 -0.612063 4.37843 0
M  V30 3342 N 316.313 -1.40141 0.720998 0
M  V30 3343 C 317.729 -1.54632 0.395113 0
M  V30 3344 C 317.929 -1.69115 -1.09555 0
M  V30 3345 O 316.985 -1.68377 -1.88163 0
M  V30 3346 C 318.298 -2.77177 1.1659 0
M  V30 3347 C 319.846 -2.91 1.15274 0
M  V30 3348 C 320.321 -4.16465 1.90579 0
M  V30 3349 N 321.812 -4.23476 1.87675 0
M  V30 3350 C 322.547 -5.19475 2.42762 0
M  V30 3351 N 322.043 -6.21348 3.06428 0
M  V30 3352 N 323.836 -5.11592 2.32874 0
M  V30 3353 H 315.987 -1.28986 1.68749 0
M  V30 3354 H 318.25 -0.62412 0.713567 0
M  V30 3355 H 317.956 -2.72771 2.22011 0
M  V30 3356 H 317.83 -3.69442 0.76108 0
M  V30 3357 H 320.217 -2.94907 0.106702 0
M  V30 3358 H 320.298 -1.99838 1.59682 0
M  V30 3359 H 319.942 -4.1332 2.95176 0
M  V30 3360 H 319.872 -5.06646 1.43587 0
M  V30 3361 H 322.363 -3.50497 1.41281 0
M  V30 3362 H 322.676 -6.91034 3.45965 0
M  V30 3363 H 321.021 -6.21777 3.10514 0
M  V30 3364 H 324.212 -4.30936 1.82789 0
M  V30 3365 H 324.385 -5.86233 2.76106 0
M  V30 3366 N 317.792 -0.46758 -1.50504 0
M  V30 3367 C 318.724 0.364655 -2.26281 0
M  V30 3368 C 319.737 0.960151 -1.31472 0
M  V30 3369 O 320.926 0.849153 -1.57008 0
M  V30 3370 C 318.026 1.52509 -3.02645 0
M  V30 3371 C 317.199 1.04302 -4.24782 0
M  V30 3372 C 316.258 2.07709 -4.8347 0
M  V30 3373 O 315.284 1.65913 -5.44483 0
M  V30 3374 N 316.486 3.40485 -4.70159 0
M  V30 3375 H 319.251 -0.28495 -2.98342 0
M  V30 3376 H 316.812 -0.298163 -1.59131 0
M  V30 3377 H 318.804 2.21371 -3.38787 0
M  V30 3378 H 317.374 2.07945 -2.33404 0
M  V30 3379 H 316.594 0.180393 -3.93787 0
M  V30 3380 H 317.882 0.698798 -5.03978 0
M  V30 3381 H 317.28 3.77155 -4.21629 0
M  V30 3382 H 315.837 4.05156 -5.1058 0
M  V30 3383 N 319.27 1.56325 -0.20005 0
M  V30 3384 C 320.498 2.02105 0.442874 0
M  V30 3385 C 320.913 1.08014 1.5485 0
M  V30 3386 O 320.27 0.0858797 1.82298 0
M  V30 3387 C 320.321 3.47549 0.994583 0
M  V30 3388 O 320.042 4.38049 -0.0669322 0
M  V30 3389 C 321.543 4.0887 1.7129 0
M  V30 3390 H 318.763 0.661807 0.110691 0
M  V30 3391 H 321.307 2.02134 -0.310207 0
M  V30 3392 H 319.462 3.48204 1.69803 0
M  V30 3393 H 319.876 5.23368 0.344462 0
M  V30 3394 H 321.35 5.12475 2.05118 0
M  V30 3395 H 321.827 3.52615 2.61838 0
M  V30 3396 H 322.433 4.12002 1.05518 0
M  V30 3397 N 320.748 -0.0735177 1.57428 0
M  V30 3398 C 321.994 -0.768909 1.88307 0
M  V30 3399 C 322.349 -1.75273 0.793535 0
M  V30 3400 O 321.642 -1.90527 -0.202466 0
M  V30 3401 C 321.836 -1.51799 3.23561 0
M  V30 3402 C 321.665 -0.608217 4.45568 0
M  V30 3403 C 320.435 -0.245808 5.04702 0
M  V30 3404 C 322.633 0.0942904 5.14214 0
M  V30 3405 N 320.615 0.66987 6.10234 0
M  V30 3406 C 321.986 0.867222 6.13905 0
M  V30 3407 C 324.041 0.165943 4.97623 0
M  V30 3408 C 322.744 1.70515 6.98797 0
M  V30 3409 C 324.77 0.990837 5.83041 0
M  V30 3410 C 324.132 1.75182 6.82269 0
M  V30 3411 H 320.231 -0.25685 0.738615 0
M  V30 3412 H 322.815 -0.030499 1.94676 0
M  V30 3413 H 320.986 -2.22713 3.18203 0
M  V30 3414 H 322.718 -2.16226 3.42094 0
M  V30 3415 H 319.473 -0.598284 4.69806 0
M  V30 3416 H 319.897 1.1209 6.67656 0
M  V30 3417 H 324.539 -0.408064 4.20826 0
M  V30 3418 H 322.257 2.29013 7.7497 0
M  V30 3419 H 325.843 1.04923 5.72261 0
M  V30 3420 H 324.723 2.37983 7.47217 0
M  V30 3421 N 322.226 -1.5378 -0.344866 0
M  V30 3422 C 323.451 -1.75211 -1.10977 0
M  V30 3423 C 323.876 -0.48936 -1.81623 0
M  V30 3424 O 323.234 0.557925 -1.72502 0
M  V30 3425 C 323.282 -2.93147 -2.09993 0
M  V30 3426 O 322.386 -2.63203 -3.17487 0
M  V30 3427 H 321.727 -0.581241 -0.321021 0
M  V30 3428 H 324.257 -2.00738 -0.395661 0
M  V30 3429 H 324.267 -3.19898 -2.53237 0
M  V30 3430 H 322.942 -3.84731 -1.5797 0
M  V30 3431 H 321.519 -2.47336 -2.79069 0
M  V30 3432 N 323.704 0.605807 -1.45491 0
M  V30 3433 C 324.95 1.36679 -1.49823 0
M  V30 3434 C 325.283 1.93693 -0.140175 0
M  V30 3435 O 324.558 1.75158 0.845581 0
M  V30 3436 C 324.841 2.51337 -2.57879 0
M  V30 3437 C 324.694 1.99508 -4.03134 0
M  V30 3438 C 326.013 3.53463 -2.62205 0
M  V30 3439 H 323.132 0.495617 -0.545466 0
M  V30 3440 H 325.774 0.682732 -1.7731 0
M  V30 3441 H 323.924 3.09691 -2.34571 0
M  V30 3442 H 325.596 1.45789 -4.37656 0
M  V30 3443 H 323.839 1.30496 -4.13707 0
M  V30 3444 H 324.51 2.82169 -4.74431 0
M  V30 3445 H 326.986 3.04953 -2.83095 0
M  V30 3446 H 325.862 4.31178 -3.39672 0
M  V30 3447 H 326.123 4.09197 -1.67363 0
M  V30 3448 N 325.182 1.32811 0.848464 0
M  V30 3449 C 326.112 1.24882 1.97299 0
M  V30 3450 C 327.093 0.131357 1.69592 0
M  V30 3451 O 328.278 0.319553 1.91553 0
M  V30 3452 C 325.408 0.97746 3.33261 0
M  V30 3453 C 324.362 2.05682 3.75338 0
M  V30 3454 C 323.688 1.63777 5.09 0
M  V30 3455 C 324.988 3.47254 3.90144 0
M  V30 3456 H 326.682 2.18966 2.04191 0
M  V30 3457 H 324.228 1.05413 0.981029 0
M  V30 3458 H 326.181 0.908513 4.1149 0
M  V30 3459 H 324.905 0.000980011 3.266 0
M  V30 3460 H 323.564 2.11603 2.99366 0
M  V30 3461 H 323.212 0.648569 4.98801 0
M  V30 3462 H 322.912 2.36 5.38124 0
M  V30 3463 H 324.436 1.5833 5.89715 0
M  V30 3464 H 325.85 3.43888 4.58709 0
M  V30 3465 H 324.247 4.1788 4.30693 0
M  V30 3466 H 325.317 3.86462 2.92874 0
M  V30 3467 N 326.66 -1.06551 1.16123 0
M  V30 3468 C 327.59 -2.15935 0.88851 0
M  V30 3469 C 328.571 -1.69306 -0.164135 0
M  V30 3470 O 329.756 -1.94193 -0.0167857 0
M  V30 3471 C 326.886 -3.45149 0.385942 0
M  V30 3472 C 325.84 -4.05271 1.3762 0
M  V30 3473 C 325.166 -5.29664 0.732137 0
M  V30 3474 C 326.466 -4.44355 2.74493 0
M  V30 3475 H 328.16 -2.39006 1.80323 0
M  V30 3476 H 325.706 -1.14866 0.868435 0
M  V30 3477 H 327.659 -4.21004 0.182647 0
M  V30 3478 H 326.383 -3.21689 -0.564274 0
M  V30 3479 H 325.042 -3.3147 1.56599 0
M  V30 3480 H 324.69 -5.02499 -0.224483 0
M  V30 3481 H 324.39 -5.70848 1.39307 0
M  V30 3482 H 325.914 -6.08218 0.538802 0
M  V30 3483 H 327.328 -5.11303 2.59311 0
M  V30 3484 H 325.725 -4.96515 3.37035 0
M  V30 3485 H 326.795 -3.55339 3.29943 0
M  V30 3486 N 328.138 -0.959301 -1.25041 0
M  V30 3487 C 329.068 -0.501388 -2.28053 0
M  V30 3488 C 330.049 0.454673 -1.63911 0
M  V30 3489 O 331.234 0.352618 -1.90972 0
M  V30 3490 C 328.364 0.217224 -3.4662 0
M  V30 3491 C 327.318 -0.654034 -4.22973 0
M  V30 3492 C 326.644 0.195589 -5.34342 0
M  V30 3493 C 327.944 -1.93447 -4.85155 0
M  V30 3494 H 329.638 -1.36238 -2.66608 0
M  V30 3495 H 327.184 -0.656534 -1.28163 0
M  V30 3496 H 329.137 0.548732 -4.17812 0
M  V30 3497 H 327.861 1.1125 -3.07068 0
M  V30 3498 H 326.52 -0.968693 -3.5357 0
M  V30 3499 H 326.168 1.09076 -4.91031 0
M  V30 3500 H 325.868 -0.384091 -5.86343 0
M  V30 3501 H 327.392 0.521958 -6.08365 0
M  V30 3502 H 328.806 -1.66908 -5.48466 0
M  V30 3503 H 327.203 -2.46018 -5.47353 0
M  V30 3504 H 328.273 -2.63466 -4.07079 0
M  V30 3505 N 329.616 1.39756 -0.72842 0
M  V30 3506 C 330.546 2.33289 -0.0991354 0
M  V30 3507 C 331.527 1.53568 0.731489 0
M  V30 3508 O 332.712 1.81987 0.677807 0
M  V30 3509 C 329.842 3.3763 0.813834 0
M  V30 3510 C 328.796 4.2791 0.0878663 0
M  V30 3511 C 328.122 5.22894 1.11741 0
M  V30 3512 C 329.422 5.11314 -1.06563 0
M  V30 3513 H 331.116 2.86163 -0.880408 0
M  V30 3514 H 328.662 1.37591 -0.424819 0
M  V30 3515 H 330.615 4.0201 1.26355 0
M  V30 3516 H 329.339 2.83181 1.62715 0
M  V30 3517 H 327.998 3.65 -0.342159 0
M  V30 3518 H 327.646 4.64744 1.92412 0
M  V30 3519 H 327.346 5.84143 0.636477 0
M  V30 3520 H 328.87 5.90151 1.56697 0
M  V30 3521 H 330.284 5.69076 -0.694671 0
M  V30 3522 H 328.681 5.81671 -1.47577 0
M  V30 3523 H 329.751 4.46534 -1.89038 0
M  V30 3524 N 331.094 0.475555 1.50254 0
M  V30 3525 C 332.024 -0.30611 2.31485 0
M  V30 3526 C 333.005 -0.986228 1.38591 0
M  V30 3527 O 334.19 -0.982541 1.67511 0
M  V30 3528 C 331.32 -1.38588 3.1845 0
M  V30 3529 C 330.274 -0.827115 4.19932 0
M  V30 3530 C 329.6 -2.00551 4.95665 0
M  V30 3531 C 330.9 0.16463 5.2204 0
M  V30 3532 H 332.594 0.371866 2.97082 0
M  V30 3533 H 330.14 0.180282 1.42867 0
M  V30 3534 H 332.093 -1.94023 3.74076 0
M  V30 3535 H 330.817 -2.09269 2.50747 0
M  V30 3536 H 329.476 -0.294702 3.65414 0
M  V30 3537 H 329.124 -2.6994 4.2443 0
M  V30 3538 H 328.824 -1.63784 5.64313 0
M  V30 3539 H 330.348 -2.56468 5.54127 0
M  V30 3540 H 331.762 -0.300699 5.72511 0
M  V30 3541 H 330.159 0.446813 5.98434 0
M  V30 3542 H 331.229 1.08905 4.72512 0
M  V30 3543 N 332.573 -1.56217 0.208337 0
M  V30 3544 C 333.503 -2.22694 -0.702116 0
M  V30 3545 C 334.484 -1.19432 -1.2112 0
M  V30 3546 O 335.669 -1.47978 -1.25762 0
M  V30 3547 C 332.799 -2.8966 -1.9161 0
M  V30 3548 C 331.753 -3.9928 -1.5414 0
M  V30 3549 C 331.079 -4.53476 -2.83308 0
M  V30 3550 C 332.379 -5.17012 -0.741339 0
M  V30 3551 H 334.073 -2.99034 -0.147898 0
M  V30 3552 H 331.619 -1.43831 -0.0696951 0
M  V30 3553 H 333.572 -3.34852 -2.55836 0
M  V30 3554 H 332.296 -2.10746 -2.49507 0
M  V30 3555 H 330.955 -3.54799 -0.922668 0
M  V30 3556 H 330.603 -3.71308 -3.39322 0
M  V30 3557 H 330.303 -5.27451 -2.58976 0
M  V30 3558 H 331.827 -5.01378 -3.485 0
M  V30 3559 H 333.241 -5.58667 -1.28699 0
M  V30 3560 H 331.638 -5.97137 -0.595627 0
M  V30 3561 H 332.708 -4.8423 0.254851 0
M  V30 3562 N 334.051 0.0651679 -1.57465 0
M  V30 3563 C 335.298 0.763063 -1.87573 0
M  V30 3564 C 335.626 1.77242 -0.800961 0
M  V30 3565 O 334.881 1.94651 0.202316 0
M  V30 3566 C 335.18 1.50081 -3.24362 0
M  V30 3567 C 334.846 0.630816 -4.46466 0
M  V30 3568 C 333.508 0.391082 -4.79608 0
M  V30 3569 C 335.86 0.0279465 -5.21193 0
M  V30 3570 C 333.188 -0.460894 -5.84887 0
M  V30 3571 C 335.54 -0.811522 -6.27373 0
M  V30 3572 C 334.204 -1.06106 -6.59013 0
M  V30 3573 H 333.474 0.279224 -0.686378 0
M  V30 3574 H 336.121 0.0236726 -1.91485 0
M  V30 3575 H 334.426 2.31258 -3.16271 0
M  V30 3576 H 336.123 2.04571 -3.44894 0
M  V30 3577 H 332.713 0.8278 -4.2053 0
M  V30 3578 H 336.897 0.200262 -4.95896 0
M  V30 3579 H 332.153 -0.662907 -6.07796 0
M  V30 3580 H 336.327 -1.28537 -6.84435 0
M  V30 3581 H 333.954 -1.723 -7.40417 0
M  V30 3582 N 335.529 1.53961 0.336706 0
M  V30 3583 C 336.776 1.71536 1.07618 0
M  V30 3584 C 337.104 0.482125 1.8843 0
M  V30 3585 O 336.359 -0.536142 1.88213 0
M  V30 3586 C 336.658 2.93493 2.03953 0
M  V30 3587 C 336.324 4.28811 1.39399 0
M  V30 3588 C 334.986 4.65602 1.21523 0
M  V30 3589 C 337.338 5.12844 0.929541 0
M  V30 3590 C 334.666 5.84037 0.558312 0
M  V30 3591 C 337.018 6.31951 0.286505 0
M  V30 3592 C 335.682 6.67432 0.0954869 0
M  V30 3593 H 334.952 0.627696 0.393801 0
M  V30 3594 H 337.599 1.88186 0.354715 0
M  V30 3595 H 335.904 2.71475 2.82504 0
M  V30 3596 H 337.601 3.04285 2.61174 0
M  V30 3597 H 334.191 3.99858 1.54311 0
M  V30 3598 H 338.375 4.84947 1.05548 0
M  V30 3599 H 333.631 6.10097 0.398995 0
M  V30 3600 H 337.805 6.96352 -0.0814376 0
M  V30 3601 H 335.432 7.59063 -0.415579 0
M  V30 3602 N 337.007 -0.598083 1.45811 0
M  V30 3603 C 338.256 -1.35295 1.49594 0
M  V30 3604 C 338.569 -1.95057 0.145679 0
M  V30 3605 O 339.775 -2.71431 0.0612099 0
M  V30 3606 C 338.231 -2.45124 2.63519 0
M  V30 3607 C 337.839 -1.91732 4.04899 0
M  V30 3608 C 339.583 -3.2205 2.76558 0
M  V30 3609 C 337.49 -2.991 5.1019 0
M  V30 3610 H 336.42 -0.508552 0.556679 0
M  V30 3611 H 339.071 -0.639977 1.71978 0
M  V30 3612 H 337.453 -3.19149 2.34435 0
M  V30 3613 H 338.627 -1.24352 4.43704 0
M  V30 3614 H 336.942 -1.27522 3.96393 0
M  V30 3615 H 339.539 -4.0215 3.52391 0
M  V30 3616 H 339.882 -3.73663 1.83526 0
M  V30 3617 H 340.415 -2.55127 3.05213 0
M  V30 3618 H 337.154 -2.52393 6.04961 0
M  V30 3619 H 336.674 -3.65017 4.75944 0
M  V30 3620 H 338.353 -3.63318 5.35359 0
M  V30 3621 N 338.485 -1.33259 -0.841409 0
M  V30 3622 C 339.896 -1.22066 -1.41269 0
M  V30 3623 C 340.247 0.161479 -1.95534 0
M  V30 3624 O 339.372 1.06094 -1.88608 0
M  V30 3625 C 339.967 -2.20996 -2.568 0
M  V30 3626 C 338.526 -2.13649 -3.09888 0
M  V30 3627 C 337.673 -2.08623 -1.82679 0
M  V30 3628 H 340.624 -1.44895 -0.647395 0
M  V30 3629 H 340.645 -1.81621 -3.34356 0
M  V30 3630 H 340.157 -3.2158 -2.17274 0
M  V30 3631 H 338.258 -1.16359 -3.53965 0
M  V30 3632 H 338.371 -3.04079 -3.70234 0
M  V30 3633 H 336.735 -1.54061 -2.02824 0
M  V30 3634 H 337.518 -3.1101 -1.45353 0
M  V30 3635 N 339.963 1.05934 -1.16686 0
M  V30 3636 C 341.211 1.78447 -0.948744 0
M  V30 3637 C 341.532 1.87813 0.524523 0
M  V30 3638 O 340.802 1.38945 1.38098 0
M  V30 3639 H 339.382 0.660971 -0.348033 0
M  V30 3640 H 342.044 1.27947 -1.47022 0
M  V30 3641 H 341.14 2.80394 -1.37061 0
M  V30 3642 N 341.441 0.965919 1.2453 0
M  V30 3643 C 342.687 0.62776 1.92839 0
M  V30 3644 C 343.02 -0.834694 1.75347 0
M  V30 3645 O 342.295 -1.60031 1.10546 0
M  V30 3646 C 342.578 1.00109 3.45905 0
M  V30 3647 C 342.431 2.52011 3.72573 0
M  V30 3648 C 343.75 0.53435 4.36844 0
M  V30 3649 H 340.869 0.229537 0.700344 0
M  V30 3650 H 343.511 1.2046 1.46933 0
M  V30 3651 H 341.661 0.510238 3.85135 0
M  V30 3652 H 343.333 3.08559 3.42912 0
M  V30 3653 H 341.576 2.95287 3.17786 0
M  V30 3654 H 342.247 2.73183 4.79661 0
M  V30 3655 H 344.723 0.955565 4.04979 0
M  V30 3656 H 343.599 0.824152 5.42678 0
M  V30 3657 H 343.86 -0.565589 4.38467 0
M  V30 3658 N 342.919 -1.39368 0.735821 0
M  V30 3659 C 344.165 -2.00794 0.284544 0
M  V30 3660 C 344.498 -1.58255 -1.12557 0
M  V30 3661 O 343.773 -0.811819 -1.76748 0
M  V30 3662 C 344.056 -3.58011 0.387337 0
M  V30 3663 C 343.909 -4.10566 1.83728 0
M  V30 3664 C 345.228 -4.395 -0.22975 0
M  V30 3665 H 342.347 -0.729501 0.104866 0
M  V30 3666 H 344.989 -1.65564 0.93213 0
M  V30 3667 H 343.139 -3.88154 -0.164006 0
M  V30 3668 H 344.811 -3.91139 2.44556 0
M  V30 3669 H 343.054 -3.64095 2.35833 0
M  V30 3670 H 343.725 -5.19702 1.86047 0
M  V30 3671 H 346.201 -4.15406 0.240257 0
M  V30 3672 H 345.077 -5.48752 -0.127485 0
M  V30 3673 H 345.338 -4.22062 -1.3159 0
M  V30 3674 N 344.397 -0.483516 -1.5 0
M  V30 3675 C 345.33 0.350427 -2.25493 0
M  V30 3676 C 346.308 0.985549 -1.29328 0
M  V30 3677 O 347.492 1.01906 -1.58579 0
M  V30 3678 C 344.619 1.49202 -3.04066 0
M  V30 3679 C 343.665 0.973036 -4.15252 0
M  V30 3680 S 344.498 -0.122237 -5.3536 0
M  V30 3681 C 345.654 1.02294 -6.17484 0
M  V30 3682 H 345.887 -0.290381 -2.95878 0
M  V30 3683 H 343.42 -0.268562 -1.52046 0
M  V30 3684 H 345.378 2.14623 -3.49925 0
M  V30 3685 H 344.039 2.10438 -2.33183 0
M  V30 3686 H 343.232 1.82804 -4.69679 0
M  V30 3687 H 342.834 0.396335 -3.71894 0
M  V30 3688 H 345.126 1.93195 -6.49371 0
M  V30 3689 H 346.069 0.517664 -7.06205 0
M  V30 3690 H 346.477 1.28238 -5.49741 0
M  V30 3691 N 345.875 1.56104 -0.216619 0
M  V30 3692 C 346.838 2.18819 0.681962 0
M  V30 3693 C 347.838 1.14866 1.12528 0
M  V30 3694 O 349.028 1.40128 1.03488 0
M  V30 3695 C 346.16 2.80756 1.93362 0
M  V30 3696 H 347.353 2.99595 0.135254 0
M  V30 3697 H 344.906 1.56265 0.0330003 0
M  V30 3698 H 345.641 2.03837 2.52232 0
M  V30 3699 H 345.426 3.56876 1.62426 0
M  V30 3700 H 346.916 3.28844 2.57393 0
M  V30 3701 N 347.353 -0.0568162 1.57498 0
M  V30 3702 C 348.599 -0.75422 1.88253 0
M  V30 3703 C 348.932 -1.76461 0.810865 0
M  V30 3704 O 348.207 -1.93691 -0.177259 0
M  V30 3705 C 348.49 -1.44878 3.2967 0
M  V30 3706 C 348.343 -0.453789 4.47505 0
M  V30 3707 C 349.662 -2.38994 3.69554 0
M  V30 3708 H 346.781 -0.272724 0.684683 0
M  V30 3709 H 349.423 -0.0172113 1.89992 0
M  V30 3710 H 347.573 -2.077 3.28318 0
M  V30 3711 H 349.245 0.170371 4.60985 0
M  V30 3712 H 347.488 0.229552 4.33192 0
M  V30 3713 H 348.159 -0.977699 5.43273 0
M  V30 3714 H 350.635 -1.86239 3.72095 0
M  V30 3715 H 349.511 -2.84587 4.69363 0
M  V30 3716 H 349.772 -3.24461 3.00296 0
M  V30 3717 N 348.832 -1.54138 -0.328536 0
M  V30 3718 C 349.795 -1.82462 -1.38709 0
M  V30 3719 C 350.795 -0.696229 -1.44946 0
M  V30 3720 O 351.985 -0.964535 -1.4506 0
M  V30 3721 C 349.117 -1.98018 -2.77492 0
M  V30 3722 H 350.31 -2.77037 -1.14851 0
M  V30 3723 H 347.863 -1.45779 -0.563751 0
M  V30 3724 H 348.598 -1.05637 -3.06613 0
M  V30 3725 H 348.383 -2.80124 -2.74359 0
M  V30 3726 H 349.873 -2.21396 -3.54081 0
M  V30 3727 N 350.31 0.590341 -1.46126 0
M  V30 3728 C 351.54 1.37304 -1.54373 0
M  V30 3729 C 351.948 1.88332 -0.181071 0
M  V30 3730 O 351.291 1.63852 0.830559 0
M  V30 3731 C 351.353 2.6012 -2.48149 0
M  V30 3732 C 351.017 2.30613 -3.94546 0
M  V30 3733 C 352.014 1.89915 -4.83971 0
M  V30 3734 C 349.699 2.42993 -4.39613 0
M  V30 3735 C 351.693 1.61981 -6.16475 0
M  V30 3736 C 349.38 2.14672 -5.72153 0
M  V30 3737 C 350.378 1.7423 -6.60404 0
M  V30 3738 O 350.066 1.46251 -7.90485 0
M  V30 3739 H 349.798 0.426086 -0.524811 0
M  V30 3740 H 352.352 0.72539 -1.92165 0
M  V30 3741 H 350.582 3.27664 -2.05361 0
M  V30 3742 H 352.271 3.22182 -2.46887 0
M  V30 3743 H 353.037 1.79872 -4.50412 0
M  V30 3744 H 348.916 2.73435 -3.71153 0
M  V30 3745 H 352.46 1.30341 -6.85315 0
M  V30 3746 H 348.357 2.24337 -6.05263 0
M  V30 3747 H 349.125 1.6016 -8.02677 0
M  V30 3748 N 351.788 1.33704 0.83433 0
M  V30 3749 C 353.036 1.25169 1.58673 0
M  V30 3750 C 353.357 -0.18127 1.94156 0
M  V30 3751 O 352.627 -1.11113 1.6134 0
M  V30 3752 H 351.207 0.4603 0.58833 0
M  V30 3753 H 353.869 1.67478 0.996847 0
M  V30 3754 H 352.965 1.84856 2.51465 0
M  V30 3755 N 353.266 -1.05314 1.17247 0
M  V30 3756 C 354.196 -2.1498 0.911362 0
M  V30 3757 C 355.177 -1.69471 -0.146169 0
M  V30 3758 O 356.362 -1.942 0.003812 0
M  V30 3759 C 353.492 -3.4472 0.422528 0
M  V30 3760 C 352.446 -4.03789 1.4191 0
M  V30 3761 C 351.772 -5.28858 0.788274 0
M  V30 3762 C 353.072 -4.41418 2.7919 0
M  V30 3763 H 354.766 -2.3708 1.82848 0
M  V30 3764 H 352.312 -1.13938 0.880569 0
M  V30 3765 H 354.265 -4.20787 0.227289 0
M  V30 3766 H 352.989 -3.22269 -0.530123 0
M  V30 3767 H 351.648 -3.2979 1.60106 0
M  V30 3768 H 351.296 -5.02709 -0.171173 0
M  V30 3769 H 350.996 -5.69338 1.45353 0
M  V30 3770 H 352.52 -6.07612 0.603282 0
M  V30 3771 H 353.934 -5.08524 2.64719 0
M  V30 3772 H 352.331 -4.92913 3.42282 0
M  V30 3773 H 353.401 -3.51819 3.33693 0
M  V30 3774 N 354.744 -0.972509 -1.24016 0
M  V30 3775 C 355.993 -0.632603 -1.91523 0
M  V30 3776 C 356.306 0.836641 -1.76804 0
M  V30 3777 O 357.512 1.28728 -2.39043 0
M  V30 3778 C 355.968 -1.08082 -3.43287 0
M  V30 3779 C 355.576 -2.57386 -3.66683 0
M  V30 3780 C 357.32 -0.814288 -4.16617 0
M  V30 3781 C 355.227 -2.95915 -5.12043 0
M  V30 3782 H 354.157 -0.232898 -0.717129 0
M  V30 3783 H 356.808 -1.17936 -1.40582 0
M  V30 3784 H 355.19 -0.462339 -3.93292 0
M  V30 3785 H 356.364 -3.24405 -3.27258 0
M  V30 3786 H 354.679 -2.81701 -3.06649 0
M  V30 3787 H 357.276 -1.0781 -5.23718 0
M  V30 3788 H 357.619 0.24955 -4.15551 0
M  V30 3789 H 358.152 -1.39397 -3.72577 0
M  V30 3790 H 354.891 -4.0139 -5.18234 0
M  V30 3791 H 354.411 -2.33584 -5.52448 0
M  V30 3792 H 356.09 -2.86086 -5.80314 0
M  V30 3793 N 356.222 1.38976 -0.743202 0
M  V30 3794 C 357.447 2.05161 -0.303936 0
M  V30 3795 C 357.872 1.55677 1.05576 0
M  V30 3796 O 357.23 0.704131 1.67068 0
M  V30 3797 C 357.278 3.59138 -0.324373 0
M  V30 3798 O 356.382 4.06668 0.685204 0
M  V30 3799 H 355.723 0.649815 -0.136518 0
M  V30 3800 H 358.253 1.77852 -1.01142 0
M  V30 3801 H 358.263 4.07639 -0.171618 0
M  V30 3802 H 356.938 3.94515 -1.31647 0
M  V30 3803 H 355.515 3.69561 0.497913 0
M  V30 3804 N 357.7 0.491464 1.49741 0
M  V30 3805 C 359.116 0.146835 1.58923 0
M  V30 3806 C 359.316 -1.34804 1.49767 0
M  V30 3807 O 358.372 -2.12317 1.36667 0
M  V30 3808 C 359.685 0.715157 2.92072 0
M  V30 3809 C 361.233 0.680407 3.05515 0
M  V30 3810 C 361.708 1.22663 4.41269 0
M  V30 3811 N 363.199 1.18691 4.47735 0
M  V30 3812 C 363.934 1.57984 5.51207 0
M  V30 3813 N 363.43 2.04824 6.6183 0
M  V30 3814 N 365.223 1.49459 5.41866 0
M  V30 3815 H 357.374 1.46347 1.53936 0
M  V30 3816 H 359.637 0.606453 0.728642 0
M  V30 3817 H 359.343 1.76317 3.04311 0
M  V30 3818 H 359.217 0.17018 3.76816 0
M  V30 3819 H 361.604 -0.358743 2.92911 0
M  V30 3820 H 361.685 1.26242 2.22478 0
M  V30 3821 H 361.329 2.26451 4.54623 0
M  V30 3822 H 361.259 0.620637 5.2293 0
M  V30 3823 H 363.75 0.843605 3.68364 0
M  V30 3824 H 364.063 2.32901 7.3687 0
M  V30 3825 H 362.408 2.08791 6.62896 0
M  V30 3826 H 365.599 1.12692 4.54333 0
M  V30 3827 H 365.772 1.80406 6.22381 0
M  V30 3828 N 359.178 -1.55987 0.224894 0
M  V30 3829 C 360.088 -2.24066 -0.69511 0
M  V30 3830 C 361.104 -1.24939 -1.21104 0
M  V30 3831 O 362.28 -1.5776 -1.25195 0
M  V30 3832 C 359.345 -2.90983 -1.88493 0
M  V30 3833 C 358.406 -4.05462 -1.41064 0
M  V30 3834 C 357.639 -4.69179 -2.54375 0
M  V30 3835 O 357.862 -4.31895 -3.72589 0
M  V30 3836 O 356.796 -5.58108 -2.25386 0
M  V30 3837 H 360.622 -3.03353 -0.145149 0
M  V30 3838 H 358.207 -1.49399 -0.00569476 0
M  V30 3839 H 360.089 -3.33209 -2.57972 0
M  V30 3840 H 358.764 -2.14653 -2.42293 0
M  V30 3841 H 357.671 -3.67798 -0.683774 0
M  V30 3842 H 359.004 -4.83545 -0.918985 0
M  V30 3843 N 360.656 0.0484629 -1.57525 0
M  V30 3844 C 361.586 1.0549 -2.08313 0
M  V30 3845 C 362.567 1.38929 -0.981463 0
M  V30 3846 O 363.752 1.48151 -1.25558 0
M  V30 3847 C 360.882 2.36162 -2.54646 0
M  V30 3848 C 359.836 2.17016 -3.68901 0
M  V30 3849 C 359.162 3.53278 -4.01371 0
M  V30 3850 C 360.462 1.57219 -4.98076 0
M  V30 3851 H 362.156 0.632195 -2.92649 0
M  V30 3852 H 359.702 0.302654 -1.40784 0
M  V30 3853 H 361.655 3.06882 -2.88793 0
M  V30 3854 H 360.379 2.80456 -1.67368 0
M  V30 3855 H 359.038 1.48733 -3.35073 0
M  V30 3856 H 358.686 3.95185 -3.11188 0
M  V30 3857 H 358.386 3.41299 -4.78318 0
M  V30 3858 H 359.91 4.25391 -4.38035 0
M  V30 3859 H 361.324 2.17832 -5.30304 0
M  V30 3860 H 359.721 1.55871 -5.79503 0
M  V30 3861 H 360.791 0.535956 -4.81929 0
M  V30 3862 N 362.134 1.5431 0.320358 0
M  V30 3863 C 363.364 1.7638 1.07582 0
M  V30 3864 C 363.772 0.513944 1.82086 0
M  V30 3865 O 363.115 -0.525123 1.76035 0
M  V30 3866 C 363.177 2.9055 2.1171 0
M  V30 3867 C 362.841 4.2934 1.56575 0
M  V30 3868 C 363.838 5.10077 1.00586 0
M  V30 3869 C 361.523 4.75893 1.60722 0
M  V30 3870 C 363.517 6.35477 0.494756 0
M  V30 3871 C 361.204 6.0126 1.09224 0
M  V30 3872 C 362.202 6.80886 0.53696 0
M  V30 3873 O 361.89 8.03894 0.0297371 0
M  V30 3874 H 361.622 0.592369 0.325692 0
M  V30 3875 H 364.176 2.02019 0.37116 0
M  V30 3876 H 362.406 2.60489 2.85801 0
M  V30 3877 H 364.095 3.00373 2.73003 0
M  V30 3878 H 364.861 4.75265 0.966869 0
M  V30 3879 H 360.74 4.13957 2.02882 0
M  V30 3880 H 364.284 6.97574 0.0606842 0
M  V30 3881 H 360.181 6.35562 1.12831 0
M  V30 3882 H 360.949 8.18372 0.14486 0
M  V30 3883 N 363.613 -0.582584 1.46437 0
M  V30 3884 C 364.543 -1.70187 1.59871 0
M  V30 3885 C 365.524 -1.64066 0.449042 0
M  V30 3886 O 366.709 -1.82081 0.6753 0
M  V30 3887 C 363.839 -3.08827 1.58881 0
M  V30 3888 C 362.793 -3.29779 2.72819 0
M  V30 3889 C 362.119 -4.68947 2.5689 0
M  V30 3890 C 363.419 -3.17601 4.1464 0
M  V30 3891 H 365.113 -1.592 2.53566 0
M  V30 3892 H 362.659 -0.764472 1.22032 0
M  V30 3893 H 364.612 -3.86951 1.66873 0
M  V30 3894 H 363.336 -3.20713 0.617306 0
M  V30 3895 H 361.995 -2.54054 2.64296 0
M  V30 3896 H 361.643 -4.77599 1.57823 0
M  V30 3897 H 361.343 -4.83919 3.33312 0
M  V30 3898 H 362.867 -5.4924 2.66773 0
M  V30 3899 H 364.281 -3.8557 4.24274 0
M  V30 3900 H 362.678 -3.44094 4.9165 0
M  V30 3901 H 363.748 -2.14681 4.34788 0
M  V30 3902 N 365.091 -1.34144 -0.827227 0
M  V30 3903 C 366.339 -1.26009 -1.58007 0
M  V30 3904 C 366.66 0.170971 -1.94249 0
M  V30 3905 O 365.93 1.10256 -1.61927 0
M  V30 3906 H 364.51 -0.463414 -0.585881 0
M  V30 3907 H 367.172 -1.68005 -0.987951 0
M  V30 3908 H 366.268 -1.86187 -2.50481 0
M  V30 3909 N 366.569 1.04691 -1.17803 0
M  V30 3910 C 367.499 2.14494 -0.92275 0
M  V30 3911 C 368.48 1.69546 0.137179 0
M  V30 3912 O 369.665 1.94195 -0.0141108 0
M  V30 3913 C 366.795 3.44491 -0.440803 0
M  V30 3914 C 365.749 4.03031 -1.4405 0
M  V30 3915 C 365.075 5.28432 -0.81631 0
M  V30 3916 C 366.375 4.39932 -2.81527 0
M  V30 3917 H 368.069 2.36107 -1.84103 0
M  V30 3918 H 365.615 1.1347 -0.886599 0
M  V30 3919 H 367.568 4.2066 -0.249602 0
M  V30 3920 H 366.292 3.22546 0.513025 0
M  V30 3921 H 364.951 3.28937 -1.61853 0
M  V30 3922 H 364.599 5.02792 0.144511 0
M  V30 3923 H 364.299 5.68559 -1.48371 0
M  V30 3924 H 365.823 6.07284 -0.635496 0
M  V30 3925 H 367.237 5.07113 -2.67412 0
M  V30 3926 H 365.634 4.9109 -3.44892 0
M  V30 3927 H 366.704 3.50045 -3.35554 0
M  V30 3928 N 368.047 0.979072 1.23499 0
M  V30 3929 C 369.463 0.687475 1.44034 0
M  V30 3930 C 369.663 -0.746801 1.8715 0
M  V30 3931 O 368.719 -1.51939 2.0167 0
M  V30 3932 C 370.032 1.68127 2.49307 0
M  V30 3933 C 371.58 1.69516 2.63122 0
M  V30 3934 C 372.055 2.67723 3.71603 0
M  V30 3935 N 373.546 2.66233 3.79044 0
M  V30 3936 C 374.281 3.38891 4.62537 0
M  V30 3937 N 373.777 4.21103 5.50131 0
M  V30 3938 N 375.57 3.27661 4.56721 0
M  V30 3939 H 367.721 1.90559 0.938135 0
M  V30 3940 H 369.984 0.821051 0.473897 0
M  V30 3941 H 369.69 2.70693 2.2454 0
M  V30 3942 H 369.564 1.46306 3.4767 0
M  V30 3943 H 371.951 0.676561 2.8724 0
M  V30 3944 H 372.032 1.95404 1.65079 0
M  V30 3945 H 371.676 3.69724 3.48233 0
M  V30 3946 H 371.606 2.39111 4.69184 0
M  V30 3947 H 374.097 2.06568 3.16446 0
M  V30 3948 H 374.41 4.73403 6.10827 0
M  V30 3949 H 372.755 4.25195 5.49759 0
M  V30 3950 H 375.946 2.62887 3.87309 0
M  V30 3951 H 376.119 3.84547 5.21562 0
M  V30 3952 N 369.525 -1.3858 0.750561 0
M  V30 3953 C 370.772 -2.00184 0.305373 0
M  V30 3954 C 371.1 -1.59575 -1.11203 0
M  V30 3955 O 370.355 -0.823236 -1.77542 0
M  V30 3956 C 370.654 -3.55455 0.372373 0
M  V30 3957 C 370.32 -4.15765 1.745 0
M  V30 3958 C 368.982 -4.31951 2.12065 0
M  V30 3959 C 371.334 -4.49067 2.64553 0
M  V30 3960 C 368.662 -4.78734 3.39162 0
M  V30 3961 C 371.014 -4.97265 3.91038 0
M  V30 3962 C 369.678 -5.11658 4.28676 0
M  V30 3963 H 368.948 -0.732526 0.111744 0
M  V30 3964 H 371.595 -1.65673 0.960451 0
M  V30 3965 H 369.9 -3.90084 -0.366272 0
M  V30 3966 H 371.597 -4.00999 0.00953918 0
M  V30 3967 H 368.187 -4.03579 1.44297 0
M  V30 3968 H 372.371 -4.36166 2.36796 0
M  V30 3969 H 367.627 -4.88062 3.68246 0
M  V30 3970 H 371.801 -5.22003 4.60962 0
M  V30 3971 H 369.428 -5.47668 5.27222 0
M  V30 3972 N 371.003 -0.499398 -1.49478 0
M  V30 3973 C 372.28 0.108629 -1.95298 0
M  V30 3974 C 372.66 1.54282 -1.44084 0
M  V30 3975 O 372.008 2.18944 -0.653908 0
M  V30 3976 C 372.218 0.0229111 -3.48992 0
M  V30 3977 C 373.566 0.197643 -4.2414 0
M  V30 3978 O 374.59 0.0981735 -3.56065 0
M  V30 3979 O 373.449 0.401669 -5.45022 0
M  V30 3980 H 370.543 0.096181 -0.821388 0
M  V30 3981 H 373.089 -0.561822 -1.6013 0
M  V30 3982 H 371.861 -0.977321 -3.78899 0
M  V30 3983 H 371.484 0.733579 -3.90774 0
M  V30 3984 N 372.481 1.55866 -0.233164 0
M  V30 3985 C 373.729 1.9821 0.394593 0
M  V30 3986 C 374.05 1.12234 1.59463 0
M  V30 3987 O 373.32 0.201981 1.94856 0
M  V30 3988 H 371.9 0.732034 0.148778 0
M  V30 3989 H 374.562 1.92107 -0.32876 0
M  V30 3990 H 373.658 3.03845 0.713063 0
M  V30 3991 N 373.959 -0.0401083 1.57549 0
M  V30 3992 C 375.236 -0.767917 1.79896 0
M  V30 3993 C 375.616 -1.9416 0.82856 0
M  V30 3994 O 374.964 -2.2812 -0.131671 0
M  V30 3995 C 375.174 -1.2113 3.27305 0
M  V30 3996 C 376.522 -1.63175 3.91994 0
M  V30 3997 O 377.546 -1.30616 3.31388 0
M  V30 3998 O 376.405 -2.23565 4.98679 0
M  V30 3999 H 373.499 -0.370441 0.739393 0
M  V30 4000 H 376.045 -0.017737 1.69691 0
M  V30 4001 H 374.817 -0.372937 3.89519 0
M  V30 4002 H 374.44 -2.02183 3.42356 0
M  V30 4003 N 375.437 -1.54477 -0.31217 0
M  V30 4004 C 376.662 -1.77526 -1.07235 0
M  V30 4005 C 377.087 -0.527775 -1.80544 0
M  V30 4006 O 376.445 0.52121 -1.73646 0
M  V30 4007 C 376.493 -2.97535 -2.03728 0
M  V30 4008 O 375.597 -2.69878 -3.11833 0
M  V30 4009 H 374.938 -0.58792 -0.30862 0
M  V30 4010 H 377.468 -2.01532 -0.352993 0
M  V30 4011 H 377.478 -3.25198 -2.46395 0
M  V30 4012 H 376.153 -3.87996 -1.49774 0
M  V30 4013 H 374.73 -2.53199 -2.7376 0
M  V30 4014 N 376.915 0.57481 -1.46744 0
M  V30 4015 C 378.192 1.3352 -1.4294 0
M  V30 4016 C 378.572 2.10775 -0.117009 0
M  V30 4017 O 377.92 2.09966 0.901474 0
M  V30 4018 C 378.13 2.25456 -2.66403 0
M  V30 4019 C 379.478 2.87035 -3.12883 0
M  V30 4020 O 380.502 2.35766 -2.67007 0
M  V30 4021 O 379.361 3.80179 -3.92589 0
M  V30 4022 H 376.455 0.600318 -0.568812 0
M  V30 4023 H 379.001 0.595171 -1.58921 0
M  V30 4024 H 377.773 1.67851 -3.53471 0
M  V30 4025 H 377.396 3.06785 -2.52921 0
M  V30 4026 N 378.394 1.34581 0.820102 0
M  V30 4027 C 379.619 1.30333 1.61332 0
M  V30 4028 C 380.044 -0.119339 1.87721 0
M  V30 4029 O 379.402 -1.08197 1.45475 0
M  V30 4030 C 379.45 2.10258 2.92957 0
M  V30 4031 O 378.554 1.47404 3.85157 0
M  V30 4032 H 377.895 0.447488 0.490561 0
M  V30 4033 H 380.425 1.77425 1.01889 0
M  V30 4034 H 380.435 2.21718 3.42498 0
M  V30 4035 H 379.11 3.13693 2.73074 0
M  V30 4036 H 377.687 1.44703 3.43679 0
M  V30 4037 N 379.872 -1.04064 1.18357 0
M  V30 4038 C 381.149 -1.74252 0.888581 0
M  V30 4039 C 381.529 -2.02138 -0.60856 0
M  V30 4040 O 380.877 -1.66656 -1.56327 0
M  V30 4041 C 381.087 -3.0277 1.73584 0
M  V30 4042 C 382.435 -3.76506 1.96286 0
M  V30 4043 O 383.459 -3.12668 1.70637 0
M  V30 4044 O 382.318 -4.91243 2.39464 0
M  V30 4045 H 379.412 -0.758271 0.330082 0
M  V30 4046 H 381.958 -1.1013 1.2911 0
M  V30 4047 H 380.73 -2.78299 2.75073 0
M  V30 4048 H 380.353 -3.74631 1.33183 0
M  V30 4049 N 381.35 -0.985608 -1.22978 0
M  V30 4050 C 382.575 -0.675254 -1.961 0
M  V30 4051 C 383 0.752154 -1.72407 0
M  V30 4052 O 382.358 1.5131 -0.998751 0
M  V30 4053 C 382.406 -0.977899 -3.47087 0
M  V30 4054 O 381.51 -0.072685 -4.12336 0
M  V30 4055 H 380.851 -0.253443 -0.613728 0
M  V30 4056 H 383.381 -1.32061 -1.56272 0
M  V30 4057 H 383.391 -0.916739 -3.97567 0
M  V30 4058 H 382.066 -2.01807 -3.63657 0
M  V30 4059 H 380.643 -0.188703 -3.72422 0
M  V30 4060 N 382.828 1.3818 -0.7579 0
M  V30 4061 C 383.76 2.2901 -0.0932177 0
M  V30 4062 C 384.773 1.47958 0.679136 0
M  V30 4063 O 385.962 1.70773 0.519514 0
M  V30 4064 C 383.062 3.26953 0.89192 0
M  V30 4065 C 382.235 4.37045 0.176303 0
M  V30 4066 C 381.294 5.15148 1.07281 0
M  V30 4067 O 380.32 5.66616 0.541728 0
M  V30 4068 N 381.522 5.28542 2.40049 0
M  V30 4069 H 384.287 2.86694 -0.873303 0
M  V30 4070 H 381.848 1.50007 -0.609054 0
M  V30 4071 H 383.84 3.76083 1.49479 0
M  V30 4072 H 382.41 2.70136 1.57306 0
M  V30 4073 H 381.63 3.89493 -0.607328 0
M  V30 4074 H 382.918 5.07801 -0.318718 0
M  V30 4075 H 382.316 4.88285 2.85647 0
M  V30 4076 H 380.873 5.8103 2.95376 0
M  V30 4077 N 384.306 0.507319 1.49211 0
M  V30 4078 C 385.531 -0.033725 2.07373 0
M  V30 4079 C 385.956 -1.29485 1.36437 0
M  V30 4080 O 385.314 -1.76294 0.423087 0
M  V30 4081 C 385.362 -0.263945 3.59633 0
M  V30 4082 O 384.466 -1.33737 3.90113 0
M  V30 4083 H 383.807 0.0290331 0.663365 0
M  V30 4084 H 386.337 0.708749 1.91932 0
M  V30 4085 H 386.347 -0.493536 4.05004 0
M  V30 4086 H 385.022 0.657424 4.10671 0
M  V30 4087 H 383.599 -1.09224 3.56545 0
M  V30 4088 N 385.784 -1.5574 0.241426 0
M  V30 4089 C 387.2 -1.59196 -0.113548 0
M  V30 4090 C 387.4 -1.25852 -1.57364 0
M  V30 4091 O 386.456 -1.00322 -2.31715 0
M  V30 4092 C 387.769 -2.99814 0.230695 0
M  V30 4093 C 389.317 -3.12513 0.174547 0
M  V30 4094 C 389.792 -4.55342 0.492744 0
M  V30 4095 N 391.283 -4.61076 0.443043 0
M  V30 4096 C 392.018 -5.6956 0.662484 0
M  V30 4097 N 391.514 -6.86328 0.944761 0
M  V30 4098 N 393.307 -5.58957 0.593564 0
M  V30 4099 H 385.458 -1.75685 1.19368 0
M  V30 4100 H 387.721 -0.81756 0.479896 0
M  V30 4101 H 387.427 -3.28932 1.24485 0
M  V30 4102 H 387.301 -3.74568 -0.444833 0
M  V30 4103 H 389.688 -2.83179 -0.830277 0
M  V30 4104 H 389.769 -2.40045 0.883845 0
M  V30 4105 H 389.413 -4.85396 1.4951 0
M  V30 4106 H 389.343 -5.26062 -0.23797 0
M  V30 4107 H 391.834 -3.77179 0.233374 0
M  V30 4108 H 392.147 -7.64935 1.09977 0
M  V30 4109 H 390.492 -6.88025 0.982175 0
M  V30 4110 H 393.683 -4.66611 0.373123 0
M  V30 4111 H 393.856 -6.43433 0.767981 0
M  V30 4112 N 387.262 0.0317525 -1.57568 0
M  V30 4113 C 388.508 0.724175 -1.8943 0
M  V30 4114 C 388.841 1.75149 -0.838836 0
M  V30 4115 O 388.116 1.93948 0.146422 0
M  V30 4116 C 388.399 1.39615 -3.31933 0
M  V30 4117 C 388.252 0.382537 -4.4817 0
M  V30 4118 C 389.571 2.33084 -3.73309 0
M  V30 4119 H 386.69 0.261797 -0.688935 0
M  V30 4120 H 389.332 -0.013017 -1.89996 0
M  V30 4121 H 387.482 2.02451 -3.31581 0
M  V30 4122 H 389.154 -0.243689 -4.60656 0
M  V30 4123 H 387.397 -0.29844 -4.32772 0
M  V30 4124 H 388.068 0.891145 -5.44759 0
M  V30 4125 H 390.544 1.80295 -3.7501 0
M  V30 4126 H 389.42 2.77084 -4.73831 0
M  V30 4127 H 389.681 3.19643 -3.05419 0
M  V30 4128 N 388.74 1.54641 0.303973 0
M  V30 4129 C 390.156 1.45788 0.649463 0
M  V30 4130 C 390.356 0.64666 1.90842 0
M  V30 4131 O 389.412 0.153183 2.52035 0
M  V30 4132 C 390.725 2.89718 0.805227 0
M  V30 4133 C 392.273 2.99742 0.901305 0
M  V30 4134 C 392.748 4.44863 1.08909 0
M  V30 4135 N 394.239 4.48559 1.15536 0
M  V30 4136 C 394.974 5.58026 1.3189 0
M  V30 4137 N 394.47 6.77422 1.45161 0
M  V30 4138 N 396.263 5.45708 1.34755 0
M  V30 4139 H 388.414 2.05854 -0.523237 0
M  V30 4140 H 390.677 0.932186 -0.172431 0
M  V30 4141 H 390.383 3.51666 -0.0489108 0
M  V30 4142 H 390.257 3.36964 1.69513 0
M  V30 4143 H 392.644 2.3791 1.74593 0
M  V30 4144 H 392.725 2.55797 -0.0125531 0
M  V30 4145 H 392.369 5.07288 0.249241 0
M  V30 4146 H 392.299 4.86436 2.01713 0
M  V30 4147 H 394.79 3.6254 1.06646 0
M  V30 4148 H 395.103 7.56604 1.57387 0
M  V30 4149 H 393.448 6.80292 1.42223 0
M  V30 4150 H 396.639 4.51378 1.23996 0
M  V30 4151 H 396.812 6.3107 1.47157 0
M  V30 4152 N 390.218 -0.567019 1.47046 0
M  V30 4153 C 391.166 -1.69593 1.59188 0
M  V30 4154 C 392.16 -1.63046 0.459609 0
M  V30 4155 O 393.366 -1.6835 0.637058 0
M  V30 4156 H 389.741 -0.560993 0.500791 0
M  V30 4157 H 391.712 -1.56488 2.54075 0
M  V30 4158 C 390.461 -3.07964 1.61411 0
M  V30 4159 H 389.784 -3.13679 2.47881 0
M  V30 4160 H 391.224 -3.86671 1.73958 0
M  V30 4161 C 389.683 -3.35123 0.34559 0
M  V30 4162 O 390.213 -3.97812 -0.557521 0
M  V30 4163 N 388.419 -2.89699 0.22864 0
M  V30 4164 H 387.966 -2.38863 0.964479 0
M  V30 4165 H 387.924 -3.08242 -0.619192 0
M  V30 4166 N 391.696 -1.35014 -0.812953 0
M  V30 4167 C 392.628 -1.23262 -1.93233 0
M  V30 4168 C 393.641 -0.157371 -1.62038 0
M  V30 4169 O 394.83 -0.410096 -1.73725 0
M  V30 4170 C 391.93 -0.87392 -3.27438 0
M  V30 4171 C 391.103 -2.04622 -3.86586 0
M  V30 4172 C 390.162 -1.66432 -4.99186 0
M  V30 4173 O 389.188 -2.38222 -5.16951 0
M  V30 4174 N 390.39 -0.584248 -5.77552 0
M  V30 4175 H 393.155 -2.19699 -2.03844 0
M  V30 4176 H 390.716 -1.281 -0.99005 0
M  V30 4177 H 392.708 -0.600039 -4.00227 0
M  V30 4178 H 391.278 0.00057392 -3.126 0
M  V30 4179 H 390.498 -2.48427 -3.06068 0
M  V30 4180 H 391.786 -2.82999 -4.22835 0
M  V30 4181 H 391.184 0.0123526 -5.65699 0
M  V30 4182 H 389.741 -0.37013 -6.50748 0
M  V30 4183 N 393.175 1.03435 -1.18907 0
M  V30 4184 C 394.423 1.76394 -0.986382 0
M  V30 4185 C 394.744 1.88883 0.484567 0
M  V30 4186 O 394.014 1.41843 1.3512 0
M  V30 4187 H 392.594 0.65344 -0.361975 0
M  V30 4188 H 395.256 1.248 -1.49703 0
M  V30 4189 H 394.352 2.77424 -1.42978 0
M  V30 4190 N 394.653 0.992116 1.22453 0
M  V30 4191 C 395.901 0.666215 1.90804 0
M  V30 4192 C 396.222 -0.804152 1.77647 0
M  V30 4193 O 395.492 -1.57629 1.16318 0
M  V30 4194 H 394.072 0.243423 0.706225 0
M  V30 4195 H 396.734 1.25845 1.48825 0
M  V30 4196 H 395.83 0.928069 2.97982 0
M  V30 4197 N 396.131 -1.37776 0.765217 0
M  V30 4198 C 397.061 -2.32945 0.160953 0
M  V30 4199 C 398.042 -1.55454 -0.690516 0
M  V30 4200 O 399.227 -1.83721 -0.629318 0
M  V30 4201 C 396.357 -3.39669 -0.724031 0
M  V30 4202 C 395.311 -4.27992 0.0256173 0
M  V30 4203 C 394.637 -5.25673 -0.978383 0
M  V30 4204 C 395.937 -5.08309 1.20082 0
M  V30 4205 H 397.631 -2.83728 0.955969 0
M  V30 4206 H 395.177 -1.36416 0.461149 0
M  V30 4207 H 397.13 -4.05219 -1.15652 0
M  V30 4208 H 395.854 -2.87396 -1.5515 0
M  V30 4209 H 394.513 -3.63964 0.438812 0
M  V30 4210 H 394.161 -4.69682 -1.80022 0
M  V30 4211 H 393.861 -5.85625 -0.481378 0
M  V30 4212 H 395.385 -5.94098 -1.40995 0
M  V30 4213 H 396.799 -5.67034 0.845307 0
M  V30 4214 H 395.196 -5.77554 1.62947 0
M  V30 4215 H 396.266 -4.41365 2.00811 0
M  V30 4216 N 397.609 -0.515225 -1.4894 0
M  V30 4217 C 399.02 -0.0710067 -1.86565 0
M  V30 4218 C 399.371 1.34733 -1.42623 0
M  V30 4219 O 398.496 2.00653 -0.810379 0
M  V30 4220 C 399.091 -0.122083 -3.3858 0
M  V30 4221 C 397.65 0.266863 -3.75453 0
M  V30 4222 C 396.797 -0.488376 -2.72966 0
M  V30 4223 H 399.748 -0.727266 -1.41055 0
M  V30 4224 H 399.769 0.669818 -3.74558 0
M  V30 4225 H 399.281 -1.15448 -3.70531 0
M  V30 4226 H 397.382 1.30196 -3.49113 0
M  V30 4227 H 397.495 -0.0624811 -4.79059 0
M  V30 4228 H 395.859 0.0635622 -2.54621 0
M  V30 4229 H 396.642 -1.52113 -3.07761 0
M  V30 4230 N 399.087 1.5561 -0.249682 0
M  V30 4231 C 400.335 1.98618 0.373548 0
M  V30 4232 C 400.656 1.13919 1.58264 0
M  V30 4233 O 399.926 0.222637 1.94631 0
M  V30 4234 H 398.506 0.733571 0.141006 0
M  V30 4235 H 401.168 1.91748 -0.349117 0
M  V30 4236 H 400.264 3.04584 0.680796 0
M  V30 4237 N 400.565 -0.0233959 1.57583 0
M  V30 4238 C 401.528 -1.00693 2.05897 0
M  V30 4239 C 402.528 -1.28693 0.964092 0
M  V30 4240 O 403.718 -1.23602 1.22753 0
M  V30 4241 C 400.85 -2.33825 2.4807 0
M  V30 4242 H 402.043 -0.589476 2.9405 0
M  V30 4243 H 399.596 -0.270354 1.53944 0
M  V30 4244 H 400.331 -2.80307 1.6309 0
M  V30 4245 H 400.116 -2.1483 3.2801 0
M  V30 4246 H 401.606 -3.04426 2.85857 0
M  V30 4247 N 402.043 -1.548 -0.295768 0
M  V30 4248 C 403.289 -1.74588 -1.03184 0
M  V30 4249 C 403.622 -0.532962 -1.86744 0
M  V30 4250 O 402.897 0.469872 -1.88739 0
M  V30 4251 C 403.18 -3.03791 -1.93347 0
M  V30 4252 C 403.033 -4.35392 -1.12933 0
M  V30 4253 C 404.352 -3.28892 -2.92435 0
M  V30 4254 H 401.471 -0.635221 -0.373715 0
M  V30 4255 H 404.113 -1.87519 -0.30606 0
M  V30 4256 H 402.263 -2.92898 -2.55232 0
M  V30 4257 H 403.935 -4.58211 -0.532943 0
M  V30 4258 H 402.178 -4.31642 -0.432168 0
M  V30 4259 H 402.849 -5.22074 -1.79284 0
M  V30 4260 H 405.325 -3.39429 -2.4068 0
M  V30 4261 H 404.201 -4.20603 -3.52682 0
M  V30 4262 H 404.462 -2.47437 -3.6637 0
M  V30 4263 N 403.521 0.559213 -1.47345 0
M  V30 4264 C 404.471 1.66192 -1.5609 0
M  V30 4265 C 405.455 1.55323 -0.419957 0
M  V30 4266 O 406.647 1.63839 -0.669762 0
M  V30 4267 C 403.776 3.0497 -1.57634 0
M  V30 4268 C 402.862 3.2105 -2.77106 0
M  V30 4269 N 403.253 3.07203 -4.01821 0
M  V30 4270 C 401.551 3.52046 -2.73825 0
M  V30 4271 C 402.252 3.25919 -4.81821 0
M  V30 4272 N 401.228 3.52161 -4.14106 0
M  V30 4273 H 405.03 1.54052 -2.5029 0
M  V30 4274 H 402.544 0.763914 -1.43311 0
M  V30 4275 H 404.541 3.84142 -1.61989 0
M  V30 4276 H 403.201 3.18224 -0.645281 0
M  V30 4277 H 404.212 2.84572 -4.32711 0
M  V30 4278 H 400.889 3.71839 -1.89848 0
M  V30 4279 H 402.279 3.20198 -5.90697 0
M  V30 4280 N 404.999 1.35443 0.805782 0
M  V30 4281 C 405.931 1.24285 1.92577 0
M  V30 4282 C 406.944 0.165962 1.61952 0
M  V30 4283 O 408.133 0.419303 1.73505 0
M  V30 4284 C 405.233 0.891272 3.2697 0
M  V30 4285 C 404.406 2.06669 3.85495 0
M  V30 4286 C 403.465 1.69077 4.98297 0
M  V30 4287 O 402.491 2.4096 5.15681 0
M  V30 4288 N 403.693 0.614869 5.77234 0
M  V30 4289 H 406.458 2.20777 2.02676 0
M  V30 4290 H 404.019 1.28623 0.983243 0
M  V30 4291 H 406.011 0.621256 3.99903 0
M  V30 4292 H 404.581 0.016004 3.12596 0
M  V30 4293 H 403.801 2.50046 3.04747 0
M  V30 4294 H 405.089 2.85237 4.21328 0
M  V30 4295 H 404.487 0.017648 5.65697 0
M  V30 4296 H 403.044 0.404636 6.50543 0
M  V30 4297 N 406.477 -1.02803 1.19454 0
M  V30 4298 C 407.425 -2.13213 0.929673 0
M  V30 4299 C 408.419 -1.69011 -0.114806 0
M  V30 4300 O 409.625 -1.79967 0.0345147 0
M  V30 4301 H 406 -0.69662 0.28324 0
M  V30 4302 H 407.971 -2.32744 1.86743 0
M  V30 4303 C 406.72 -3.4429 0.485797 0
M  V30 4304 H 406.043 -3.7872 1.28105 0
M  V30 4305 H 407.483 -4.22638 0.339582 0
M  V30 4306 C 405.942 -3.27258 -0.800244 0
M  V30 4307 O 406.472 -3.55967 -1.86146 0
M  V30 4308 N 404.678 -2.80545 -0.75781 0
M  V30 4309 H 404.225 -2.57382 0.106039 0
M  V30 4310 H 404.183 -2.6953 -1.61867 0
M  V30 4311 N 407.956 -0.998596 -1.21925 0
M  V30 4312 C 409.204 -0.676325 -1.90448 0
M  V30 4313 C 409.525 0.794719 -1.78071 0
M  V30 4314 O 408.795 1.5701 -1.17152 0
M  V30 4315 H 407.375 -0.247165 -0.704925 0
M  V30 4316 H 410.037 -1.26633 -1.48156 0
M  V30 4317 H 409.133 -0.943858 -2.97486 0
M  V30 4318 N 409.434 1.37368 -0.772513 0
M  V30 4319 C 410.85 1.53059 -0.452231 0
M  V30 4320 C 411.05 1.73065 1.03203 0
M  V30 4321 O 410.106 1.75245 1.81784 0
M  V30 4322 C 411.419 2.72659 -1.26797 0
M  V30 4323 C 412.967 2.86521 -1.25995 0
M  V30 4324 C 413.442 4.09105 -2.05905 0
M  V30 4325 N 414.933 4.16219 -2.03263 0
M  V30 4326 C 415.668 5.10107 -2.61875 0
M  V30 4327 N 415.164 6.09547 -3.29278 0
M  V30 4328 N 416.957 5.02596 -2.51701 0
M  V30 4329 H 409.108 1.22634 -1.7342 0
M  V30 4330 H 411.371 0.597206 -0.736239 0
M  V30 4331 H 411.077 2.64343 -2.31982 0
M  V30 4332 H 410.951 3.66363 -0.897672 0
M  V30 4333 H 413.338 2.94308 -0.216081 0
M  V30 4334 H 413.419 1.93774 -1.66989 0
M  V30 4335 H 413.063 4.0208 -3.10313 0
M  V30 4336 H 412.993 5.00968 -1.62292 0
M  V30 4337 H 415.484 3.45012 -1.54192 0
M  V30 4338 H 415.797 6.77718 -3.71374 0
M  V30 4339 H 414.142 6.09824 -3.33377 0
M  V30 4340 H 417.333 4.23855 -1.98657 0
M  V30 4341 H 417.506 5.75582 -2.97673 0
M  V30 4342 N 410.912 0.523116 1.48665 0
M  V30 4343 C 412.152 -0.0115588 2.04397 0
M  V30 4344 C 412.516 -1.32225 1.39214 0
M  V30 4345 O 413.717 -1.94253 1.85793 0
M  V30 4346 C 411.988 -0.138119 3.57133 0
M  V30 4347 S 413.547 -0.623849 4.34343 0
M  V30 4348 H 410.365 0.00877706 0.710946 0
M  V30 4349 H 412.967 0.702116 1.82457 0
M  V30 4350 H 411.671 0.820748 4.02109 0
M  V30 4351 H 411.202 -0.876377 3.83514 0
M  V30 4352 H 413.217 -1.8895 4.58816 0
M  V30 4353 N 412.39 -1.55475 0.257931 0
M  V30 4354 C 413.806 -1.59307 -0.0966563 0
M  V30 4355 C 414.006 -1.27514 -1.5602 0
M  V30 4356 O 413.062 -1.02774 -2.30637 0
M  V30 4357 C 414.375 -2.99552 0.262481 0
M  V30 4358 C 415.923 -3.1231 0.207683 0
M  V30 4359 C 416.398 -4.54793 0.541012 0
M  V30 4360 N 417.889 -4.6058 0.491921 0
M  V30 4361 C 418.624 -5.68825 0.722857 0
M  V30 4362 N 418.12 -6.85287 1.0175 0
M  V30 4363 N 419.913 -5.58296 0.652815 0
M  V30 4364 H 412.064 -1.74409 1.21224 0
M  V30 4365 H 414.327 -0.812424 0.48854 0
M  V30 4366 H 414.033 -3.27593 1.27967 0
M  V30 4367 H 413.907 -3.75019 -0.40508 0
M  V30 4368 H 416.294 -2.84044 -0.800195 0
M  V30 4369 H 416.375 -2.39095 0.909255 0
M  V30 4370 H 416.019 -4.83783 1.5465 0
M  V30 4371 H 415.949 -5.26285 -0.18216 0
M  V30 4372 H 418.44 -3.7691 0.273366 0
M  V30 4373 H 418.753 -7.63725 1.18084 0
M  V30 4374 H 417.098 -6.86945 1.05509 0
M  V30 4375 H 420.289 -4.66189 0.422592 0
M  V30 4376 H 420.462 -6.42582 0.836182 0
M  V30 4377 N 413.868 0.0150385 -1.57593 0
M  V30 4378 C 415.279 0.559832 -1.78109 0
M  V30 4379 C 415.63 1.74814 -0.890756 0
M  V30 4380 O 414.755 2.16216 -0.0892482 0
M  V30 4381 C 415.35 1.02238 -3.23006 0
M  V30 4382 C 413.909 1.51258 -3.44671 0
M  V30 4383 C 413.056 0.456955 -2.73509 0
M  V30 4384 H 416.007 -0.211169 -1.57289 0
M  V30 4385 H 416.028 1.88912 -3.30292 0
M  V30 4386 H 415.54 0.157302 -3.87781 0
M  V30 4387 H 413.641 2.39905 -2.8509 0
M  V30 4388 H 413.754 1.55042 -4.5332 0
M  V30 4389 H 412.118 0.915196 -2.37689 0
M  V30 4390 H 412.901 -0.398896 -3.40975 0
M  V30 4391 N 415.346 1.54954 0.287554 0
M  V30 4392 C 416.256 1.8991 1.37736 0
M  V30 4393 C 417.272 0.794701 1.54792 0
M  V30 4394 O 418.448 1.09243 1.69198 0
M  V30 4395 C 415.513 2.15108 2.71899 0
M  V30 4396 C 414.574 3.38752 2.63715 0
M  V30 4397 C 413.807 3.62739 3.91479 0
M  V30 4398 O 414.03 2.89492 4.91478 0
M  V30 4399 O 412.964 4.56267 3.92561 0
M  V30 4400 H 416.79 2.82652 1.11092 0
M  V30 4401 H 414.375 1.41315 0.484807 0
M  V30 4402 H 416.257 2.32806 3.51254 0
M  V30 4403 H 414.932 1.25551 2.9836 0
M  V30 4404 H 413.839 3.26405 1.82786 0
M  V30 4405 H 415.172 4.28483 2.42205 0
M  V30 4406 N 416.824 -0.551391 1.4764 0
M  V30 4407 C 418.052 -1.33357 1.58189 0
M  V30 4408 C 418.467 -1.87342 0.234199 0
M  V30 4409 O 417.824 -1.65301 -0.77343 0
M  V30 4410 C 417.875 -2.49942 2.61173 0
M  V30 4411 O 417.596 -1.98187 3.90709 0
M  V30 4412 C 419.097 -3.42072 2.8196 0
M  V30 4413 H 416.317 -0.40631 0.533998 0
M  V30 4414 H 418.861 -0.667367 1.93304 0
M  V30 4415 H 417.016 -3.12489 2.28975 0
M  V30 4416 H 417.43 -2.74342 4.47031 0
M  V30 4417 H 418.904 -4.20278 3.57869 0
M  V30 4418 H 419.381 -3.95978 1.89995 0
M  V30 4419 H 419.987 -2.85336 3.15378 0
M  V30 4420 N 418.302 -1.35869 -0.798587 0
M  V30 4421 C 419.55 -1.29332 -1.55298 0
M  V30 4422 C 419.871 0.129729 -1.94568 0
M  V30 4423 O 419.141 1.06796 -1.6423 0
M  V30 4424 H 417.721 -0.475737 -0.57592 0
M  V30 4425 H 420.383 -1.70062 -0.952093 0
M  V30 4426 H 419.479 -1.91458 -2.46476 0
M  V30 4427 N 419.78 1.02168 -1.19998 0
M  V30 4428 C 420.743 2.08765 -0.94604 0
M  V30 4429 C 421.743 1.60618 0.0763846 0
M  V30 4430 O 422.933 1.73472 -0.159135 0
M  V30 4431 C 420.065 3.38262 -0.423255 0
M  V30 4432 H 421.258 2.32726 -1.89153 0
M  V30 4433 H 418.811 1.1889 -1.01464 0
M  V30 4434 H 419.546 3.19974 0.527938 0
M  V30 4435 H 419.331 3.74532 -1.16053 0
M  V30 4436 H 420.821 4.16759 -0.264911 0
M  V30 4437 N 421.258 1.00505 1.21394 0
M  V30 4438 C 422.504 0.688793 1.90745 0
M  V30 4439 C 422.837 -0.778486 1.77914 0
M  V30 4440 O 422.112 -1.56433 1.15581 0
M  V30 4441 C 422.395 1.11063 3.42545 0
M  V30 4442 C 422.248 2.63737 3.64367 0
M  V30 4443 C 423.567 0.673059 4.34923 0
M  V30 4444 H 420.686 0.251702 0.692687 0
M  V30 4445 H 423.328 1.25074 1.43026 0
M  V30 4446 H 421.478 0.632508 3.83317 0
M  V30 4447 H 423.15 3.19313 3.32922 0
M  V30 4448 H 421.393 3.05248 3.08231 0
M  V30 4449 H 422.064 2.88305 4.70727 0
M  V30 4450 H 424.54 1.08392 4.01734 0
M  V30 4451 H 423.416 0.996383 5.39781 0
M  V30 4452 H 423.677 -0.425808 4.40045 0
M  V30 4453 N 422.737 -1.36956 0.779787 0
M  V30 4454 C 423.985 -1.99097 0.347079 0
M  V30 4455 C 424.306 -1.62206 -1.08232 0
M  V30 4456 O 423.576 -0.891373 -1.74446 0
M  V30 4457 H 422.156 -0.736409 0.125342 0
M  V30 4458 H 424.818 -1.67308 0.999696 0
M  V30 4459 H 423.914 -3.09107 0.431162 0
M  V30 4460 N 424.215 -0.530993 -1.48385 0
M  V30 4461 C 425.125 0.23503 -2.3342 0
M  V30 4462 C 426.141 0.93801 -1.46552 0
M  V30 4463 O 427.317 0.912745 -1.7953 0
M  V30 4464 C 424.382 1.26778 -3.22689 0
M  V30 4465 C 423.443 0.575038 -4.25431 0
M  V30 4466 C 422.676 1.55858 -5.10435 0
M  V30 4467 O 422.899 2.79129 -4.97437 0
M  V30 4468 O 421.833 1.09742 -5.91811 0
M  V30 4469 H 425.659 -0.461794 -3.00169 0
M  V30 4470 H 423.244 -0.291903 -1.46521 0
M  V30 4471 H 425.126 1.86457 -3.77904 0
M  V30 4472 H 423.801 1.94699 -2.586 0
M  V30 4473 H 422.708 -0.0622782 -3.74048 0
M  V30 4474 H 424.041 -0.062253 -4.92161 0
M  V30 4475 N 425.693 1.55336 -0.266172 0
M  V30 4476 C 426.97 1.91372 0.404486 0
M  V30 4477 C 427.35 1.18935 1.74407 0
M  V30 4478 O 426.698 0.3132 2.26343 0
M  V30 4479 C 426.908 3.44581 0.553593 0
M  V30 4480 C 428.256 4.16196 0.840618 0
M  V30 4481 O 429.28 3.50426 0.638739 0
M  V30 4482 O 428.139 5.32567 1.22618 0
M  V30 4483 H 425.233 0.797194 0.220025 0
M  V30 4484 H 427.779 1.66813 -0.311664 0
M  V30 4485 H 426.551 3.89357 -0.389498 0
M  V30 4486 H 426.174 3.75065 1.31955 0
M  V30 4487 N 427.171 -0.0066808 1.57599 0
M  V30 4488 C 428.396 -0.707738 1.94951 0
M  V30 4489 C 428.821 -1.66882 0.867868 0
M  V30 4490 O 428.179 -1.80457 -0.17458 0
M  V30 4491 C 428.227 -1.42162 3.31394 0
M  V30 4492 O 427.331 -2.53578 3.25226 0
M  V30 4493 H 426.672 -0.188752 0.636607 0
M  V30 4494 H 429.202 0.0445193 2.04552 0
M  V30 4495 H 429.212 -1.78655 3.66806 0
M  V30 4496 H 427.887 -0.716903 4.09675 0
M  V30 4497 H 426.464 -2.19463 3.01481 0
M  V30 4498 N 428.649 -1.55105 -0.279332 0
M  V30 4499 C 429.926 -1.66119 -1.03267 0
M  V30 4500 C 430.306 -0.523525 -2.04505 0
M  V30 4501 O 429.654 0.477194 -2.23462 0
M  V30 4502 C 429.864 -3.05067 -1.69515 0
M  V30 4503 C 431.212 -3.62606 -2.20912 0
M  V30 4504 O 432.236 -3.07659 -1.79512 0
M  V30 4505 O 431.095 -4.58861 -2.96831 0
M  V30 4506 H 428.189 -0.674429 -0.478618 0
M  V30 4507 H 430.735 -1.67446 -0.275694 0
M  V30 4508 H 429.507 -3.79311 -0.9612 0
M  V30 4509 H 429.13 -3.07611 -2.51915 0
M  V30 4510 N 430.127 0.543554 -1.4793 0
M  V30 4511 C 431.375 1.29752 -1.54948 0
M  V30 4512 C 431.696 1.93764 -0.219242 0
M  V30 4513 O 430.966 1.80639 0.75805 0
M  V30 4514 H 429.546 0.481874 -0.570795 0
M  V30 4515 H 432.208 0.633636 -1.84312 0
M  V30 4516 H 431.304 2.08392 -2.32334 0
M  V30 4517 N 431.605 1.3629 0.791371 0
M  V30 4518 C 432.845 1.31792 1.56238 0
M  V30 4519 C 433.209 -0.102237 1.91728 0
M  V30 4520 O 434.41 -0.271759 2.67423 0
M  V30 4521 C 432.681 2.21303 2.80642 0
M  V30 4522 S 434.24 2.34468 3.70904 0
M  V30 4523 H 431.058 0.468141 0.535131 0
M  V30 4524 H 433.66 1.71841 0.932246 0
M  V30 4525 H 432.364 3.23439 2.52617 0
M  V30 4526 H 431.895 1.82266 3.4863 0
M  V30 4527 H 433.91 1.54074 4.71673 0
M  V30 4528 N 433.083 -1.0153 1.20538 0
M  V30 4529 C 434.313 -1.78487 1.04048 0
M  V30 4530 C 434.721 -1.84631 -0.413292 0
M  V30 4531 O 434.064 -1.29919 -1.29872 0
M  V30 4532 C 434.126 -3.24367 1.55003 0
M  V30 4533 C 433.79 -3.41827 3.0332 0
M  V30 4534 C 434.787 -3.30941 4.00966 0
M  V30 4535 C 432.472 -3.67602 3.42307 0
M  V30 4536 C 434.466 -3.45577 5.35589 0
M  V30 4537 C 432.153 -3.81881 4.77085 0
M  V30 4538 C 433.151 -3.70874 5.73534 0
M  V30 4539 O 432.839 -3.84714 7.05868 0
M  V30 4540 H 432.571 -0.568108 0.366373 0
M  V30 4541 H 435.125 -1.28677 1.60098 0
M  V30 4542 H 433.355 -3.75266 0.933397 0
M  V30 4543 H 435.044 -3.82963 1.34514 0
M  V30 4544 H 435.81 -3.10964 3.72191 0
M  V30 4545 H 431.689 -3.75256 2.67776 0
M  V30 4546 H 435.233 -3.36902 6.10854 0
M  V30 4547 H 431.13 -4.01359 5.0555 0
M  V30 4548 H 431.898 -4.01724 7.13134 0
M  V30 4549 N 434.561 -1.01147 -1.20859 0
M  V30 4550 C 435.807 -0.698899 -1.90377 0
M  V30 4551 C 436.14 0.76904 -1.78324 0
M  V30 4552 O 435.415 1.55817 -1.16409 0
M  V30 4553 C 435.698 -1.12878 -3.41951 0
M  V30 4554 C 435.551 -2.65665 -3.62963 0
M  V30 4555 C 436.87 -0.696114 -4.3456 0
M  V30 4556 H 433.989 -0.255372 -0.691342 0
M  V30 4557 H 436.631 -1.25831 -1.42361 0
M  V30 4558 H 434.781 -0.652827 -3.82976 0
M  V30 4559 H 436.453 -3.21074 -3.31224 0
M  V30 4560 H 434.696 -3.06878 -3.06608 0
M  V30 4561 H 435.367 -2.90797 -4.69192 0
M  V30 4562 H 437.843 -1.10521 -4.01154 0
M  V30 4563 H 436.719 -1.025 -5.39245 0
M  V30 4564 H 436.98 0.402465 -4.40264 0
M  V30 4565 N 436.039 1.36541 -0.78704 0
M  V30 4566 C 436.971 2.28761 -0.141773 0
M  V30 4567 C 437.984 1.49365 0.647599 0
M  V30 4568 O 439.173 1.71836 0.483173 0
M  V30 4569 C 436.273 3.28771 0.822368 0
M  V30 4570 C 435.446 4.3732 0.0835594 0
M  V30 4571 C 434.505 5.17307 0.963296 0
M  V30 4572 O 433.531 5.67638 0.421419 0
M  V30 4573 N 434.733 5.33515 2.28784 0
M  V30 4574 H 437.498 2.84777 -0.933919 0
M  V30 4575 H 435.059 1.48682 -0.640735 0
M  V30 4576 H 437.051 3.79169 1.41468 0
M  V30 4577 H 435.621 2.73412 1.5154 0
M  V30 4578 H 434.841 3.88118 -0.689809 0
M  V30 4579 H 436.129 5.0701 -0.426358 0
M  V30 4580 H 435.527 4.94234 2.75226 0
M  V30 4581 H 434.084 5.87165 2.82985 0
M  V30 4582 N 437.518 0.538854 1.48102 0
M  V30 4583 C 438.448 -0.207654 2.32575 0
M  V30 4584 C 439.429 -0.926559 1.4265 0
M  V30 4585 O 440.614 -0.91061 1.71527 0
M  V30 4586 C 437.744 -1.24957 3.24042 0
M  V30 4587 C 436.698 -0.648263 4.23062 0
M  V30 4588 C 436.024 -1.79348 5.03725 0
M  V30 4589 C 437.324 0.385897 5.20872 0
M  V30 4590 H 439.018 0.497534 2.95237 0
M  V30 4591 H 436.564 0.240715 1.41974 0
M  V30 4592 H 438.517 -1.77983 3.81969 0
M  V30 4593 H 437.241 -1.98446 2.59397 0
M  V30 4594 H 435.9 -0.139452 3.66335 0
M  V30 4595 H 435.548 -2.51696 4.35498 0
M  V30 4596 H 435.248 -1.39702 5.70751 0
M  V30 4597 H 436.772 -2.32735 5.64506 0
M  V30 4598 H 438.186 -0.057607 5.73271 0
M  V30 4599 H 436.583 0.700227 5.96001 0
M  V30 4600 H 437.653 1.28848 4.67468 0
M  V30 4601 N 438.996 -1.55193 0.274407 0
M  V30 4602 C 440.407 -1.85358 -0.223488 0
M  V30 4603 C 440.758 -1.19642 -1.555 0
M  V30 4604 O 439.883 -0.484498 -2.10907 0
M  V30 4605 C 440.478 -3.36282 -0.412285 0
M  V30 4606 C 439.037 -3.66574 -0.854413 0
M  V30 4607 C 438.184 -2.7725 0.0527056 0
M  V30 4608 H 441.135 -1.50743 0.496215 0
M  V30 4609 H 441.156 -3.59349 -1.25094 0
M  V30 4610 H 440.668 -3.84083 0.556965 0
M  V30 4611 H 438.769 -3.24273 -1.83516 0
M  V30 4612 H 438.882 -4.74073 -0.692226 0
M  V30 4613 H 437.246 -2.50447 -0.463484 0
M  V30 4614 H 438.029 -3.27865 1.01783 0
M  V30 4615 N 440.474 -0.00167713 -1.576 0
M  V30 4616 C 441.89 0.354422 -1.55615 0
M  V30 4617 C 442.09 1.74679 -1.00447 0
M  V30 4618 O 441.146 2.4428 -0.639022 0
M  V30 4619 C 442.459 0.22812 -2.99833 0
M  V30 4620 C 444.007 0.302934 -3.11531 0
M  V30 4621 C 444.482 0.205737 -4.57538 0
M  V30 4622 N 445.973 0.263584 -4.62449 0
M  V30 4623 C 446.708 0.211742 -5.73009 0
M  V30 4624 N 446.204 0.110399 -6.92712 0
M  V30 4625 N 447.997 0.263729 -5.61481 0
M  V30 4626 H 440.148 -0.912498 -1.918 0
M  V30 4627 H 442.411 -0.349928 -0.881053 0
M  V30 4628 H 442.117 -0.729934 -3.44042 0
M  V30 4629 H 441.991 1.00951 -3.6344 0
M  V30 4630 H 444.378 1.25143 -2.67251 0
M  V30 4631 H 444.459 -0.508357 -2.50698 0
M  V30 4632 H 444.103 -0.739225 -5.02492 0
M  V30 4633 H 444.033 1.03554 -5.16318 0
M  V30 4634 H 446.524 0.343173 -3.76339 0
M  V30 4635 H 446.837 0.0767828 -7.72762 0
M  V30 4636 H 445.182 0.0760025 -6.94958 0
M  V30 4637 H 448.373 0.34111 -4.66855 0
M  V30 4638 H 448.546 0.219862 -6.47627 0
M  V30 4639 N 441.952 1.55251 0.271103 0
M  V30 4640 C 443.177 1.80306 1.02491 0
M  V30 4641 C 443.602 0.575457 1.79081 0
M  V30 4642 O 442.96 -0.474987 1.74967 0
M  V30 4643 C 443.008 3.02832 1.95768 0
M  V30 4644 O 442.112 2.78051 3.04568 0
M  V30 4645 H 441.453 0.595896 0.292923 0
M  V30 4646 H 443.983 2.02397 0.299436 0
M  V30 4647 H 443.993 3.31616 2.37686 0
M  V30 4648 H 442.668 3.9183 1.39434 0
M  V30 4649 H 441.245 2.60369 2.66951 0
M  V30 4650 N 443.43 -0.535701 1.48216 0
M  V30 4651 C 444.846 -0.863701 1.3421 0
M  V30 4652 C 445.046 -1.98458 0.34879 0
M  V30 4653 O 444.102 -2.51432 -0.23204 0
M  V30 4654 C 445.415 -1.23662 2.74095 0
M  V30 4655 C 446.963 -1.34683 2.82541 0
M  V30 4656 C 447.438 -1.75322 4.23115 0
M  V30 4657 N 448.929 -1.82434 4.2576 0
M  V30 4658 C 449.664 -2.15252 5.31464 0
M  V30 4659 N 449.16 -2.46533 6.47452 0
M  V30 4660 N 450.953 -2.16209 5.18855 0
M  V30 4661 H 443.104 0.203965 2.11418 0
M  V30 4662 H 445.367 0.0286033 0.947568 0
M  V30 4663 H 445.073 -0.486674 3.48316 0
M  V30 4664 H 444.947 -2.18805 3.07253 0
M  V30 4665 H 447.334 -2.08756 2.08579 0
M  V30 4666 H 447.415 -0.376756 2.5301 0
M  V30 4667 H 447.059 -1.01812 4.97591 0
M  V30 4668 H 446.989 -2.7337 4.50085 0
M  V30 4669 H 449.48 -1.6056 3.42095 0
M  V30 4670 H 449.793 -2.70662 7.23852 0
M  V30 4671 H 448.138 -2.44065 6.50736 0
M  V30 4672 H 451.329 -1.91224 4.2726 0
M  V30 4673 H 451.502 -2.41453 6.01335 0
M  V30 4674 N 444.908 -1.36708 -0.784132 0
M  V30 4675 C 446.319 -1.27947 -1.35965 0
M  V30 4676 C 446.67 0.0784013 -1.96043 0
M  V30 4677 O 445.795 0.979989 -1.92938 0
M  V30 4678 C 446.39 -2.31689 -2.47195 0
M  V30 4679 C 444.949 -2.26601 -3.00548 0
M  V30 4680 C 444.096 -2.16184 -1.73666 0
M  V30 4681 H 447.047 -1.4751 -0.585358 0
M  V30 4682 H 447.068 -1.95638 -3.26352 0
M  V30 4683 H 446.58 -3.30506 -2.03439 0
M  V30 4684 H 444.681 -1.31268 -3.48711 0
M  V30 4685 H 444.794 -3.19508 -3.57004 0
M  V30 4686 H 443.158 -1.62524 -1.96107 0
M  V30 4687 H 443.941 -3.16896 -1.32031 0
M  V30 4688 N 446.386 1.0089 -1.21074 0
M  V30 4689 C 447.349 2.0775 -0.968129 0
M  V30 4690 C 448.349 1.6069 0.0593445 0
M  V30 4691 O 449.539 1.73293 -0.177525 0
M  V30 4692 C 446.671 3.37794 -0.459108 0
M  V30 4693 H 447.864 2.30707 -1.9161 0
M  V30 4694 H 445.417 1.17807 -1.02719 0
M  V30 4695 H 446.152 3.20516 0.49397 0
M  V30 4696 H 445.937 3.7328 -1.20019 0
M  V30 4697 H 447.427 4.16454 -0.309099 0
M  V30 4698 N 447.864 1.01787 1.20321 0
M  V30 4699 C 448.794 0.609625 2.25401 0
M  V30 4700 C 449.775 -0.375951 1.65893 0
M  V30 4701 O 450.96 -0.261101 1.92437 0
M  V30 4702 C 448.09 -0.0515995 3.47262 0
M  V30 4703 C 447.044 0.855095 4.19371 0
M  V30 4704 C 446.37 0.0595757 5.34667 0
M  V30 4705 C 447.67 2.16374 4.75373 0
M  V30 4706 H 449.364 1.48803 2.59804 0
M  V30 4707 H 446.91 0.716934 1.24884 0
M  V30 4708 H 448.863 -0.348764 4.19954 0
M  V30 4709 H 447.587 -0.964726 3.12027 0
M  V30 4710 H 446.246 1.13628 3.48546 0
M  V30 4711 H 445.894 -0.85524 4.95676 0
M  V30 4712 H 445.594 0.663406 5.83843 0
M  V30 4713 H 447.118 -0.231105 6.10162 0
M  V30 4714 H 448.532 1.92885 5.39878 0
M  V30 4715 H 446.929 2.71853 5.34991 0
M  V30 4716 H 447.999 2.82589 3.94045 0
M  V30 4717 N 449.342 -1.36122 0.79427 0
M  V30 4718 C 450.252 -2.33769 0.197296 0
M  V30 4719 C 451.268 -1.61276 -0.653153 0
M  V30 4720 O 452.444 -1.9323 -0.5678 0
M  V30 4721 C 449.509 -3.40474 -0.654098 0
M  V30 4722 C 448.57 -4.28759 0.215411 0
M  V30 4723 C 447.803 -5.30368 -0.595443 0
M  V30 4724 O 448.026 -5.40211 -1.83107 0
M  V30 4725 O 446.96 -6.019 0.00721351 0
M  V30 4726 H 450.786 -2.86597 1.00478 0
M  V30 4727 H 448.371 -1.38676 0.555818 0
M  V30 4728 H 450.253 -4.05703 -1.13944 0
M  V30 4729 H 448.928 -2.89937 -1.43938 0
M  V30 4730 H 447.835 -3.66554 0.747615 0
M  V30 4731 H 449.168 -4.82661 0.964332 0
M  V30 4732 N 450.82 -0.546701 -1.47814 0
M  V30 4733 C 451.75 0.195317 -2.32682 0
M  V30 4734 C 452.731 0.918981 -1.43139 0
M  V30 4735 O 453.916 0.901501 -1.72008 0
M  V30 4736 C 451.046 1.23237 -3.247 0
M  V30 4737 C 450 0.625818 -4.234 0
M  V30 4738 C 449.326 1.76674 -5.04669 0
M  V30 4739 C 450.626 -0.413515 -5.2066 0
M  V30 4740 H 452.32 -0.513184 -2.94969 0
M  V30 4741 H 449.866 -0.248241 -1.41844 0
M  V30 4742 H 451.819 1.75955 -3.82907 0
M  V30 4743 H 450.543 1.97067 -2.60446 0
M  V30 4744 H 449.202 0.120023 -3.66403 0
M  V30 4745 H 448.85 2.49383 -4.36826 0
M  V30 4746 H 448.55 1.36673 -5.71484 0
M  V30 4747 H 450.074 2.29738 -5.65732 0
M  V30 4748 H 451.488 0.0272042 -5.73294 0
M  V30 4749 H 449.885 -0.731825 -5.95621 0
M  V30 4750 H 450.955 -1.31325 -4.66778 0
M  V30 4751 N 452.299 1.55045 -0.282633 0
M  V30 4752 C 453.527 2.04168 0.33512 0
M  V30 4753 C 453.942 1.16071 1.48906 0
M  V30 4754 O 453.299 0.182391 1.81586 0
M  V30 4755 C 453.35 3.52332 0.808957 0
M  V30 4756 O 453.071 4.37078 -0.299038 0
M  V30 4757 C 454.572 4.17375 1.49375 0
M  V30 4758 H 451.792 0.666744 0.0754543 0
M  V30 4759 H 454.336 2.00205 -0.416918 0
M  V30 4760 H 452.491 3.56715 1.51106 0
M  V30 4761 H 452.905 5.24458 0.0665514 0
M  V30 4762 H 454.379 5.22627 1.77664 0
M  V30 4763 H 454.856 3.65999 2.42778 0
M  V30 4764 H 455.462 4.17016 0.835305 0
M  V30 4765 N 453.777 0.010035 1.57597 0
M  V30 4766 C 454.74 -0.963029 2.07986 0
M  V30 4767 C 455.74 -1.26619 0.991173 0
M  V30 4768 O 456.93 -1.2097 1.25347 0
M  V30 4769 C 454.062 -2.2851 2.52974 0
M  V30 4770 H 455.255 -0.526971 2.95234 0
M  V30 4771 H 452.808 -0.237639 1.54483 0
M  V30 4772 H 453.543 -2.76784 1.69 0
M  V30 4773 H 453.328 -2.07824 3.32493 0
M  V30 4774 H 454.818 -2.98294 2.9225 0
M  V30 4775 N 455.255 -1.55392 -0.262866 0
M  V30 4776 C 456.185 -1.91978 -1.32917 0
M  V30 4777 C 457.166 -0.7828 -1.51017 0
M  V30 4778 O 458.351 -1.04178 -1.63892 0
M  V30 4779 C 455.481 -2.20055 -2.68687 0
M  V30 4780 C 454.435 -3.35854 -2.65304 0
M  V30 4781 C 453.761 -3.49435 -4.04721 0
M  V30 4782 C 455.061 -4.71977 -2.23685 0
M  V30 4783 H 456.755 -2.81292 -1.02544 0
M  V30 4784 H 454.301 -1.3534 -0.491846 0
M  V30 4785 H 456.254 -2.44237 -3.43404 0
M  V30 4786 H 454.978 -1.27551 -3.00663 0
M  V30 4787 H 453.637 -3.11655 -1.93045 0
M  V30 4788 H 453.285 -2.54379 -4.33936 0
M  V30 4789 H 452.985 -4.27297 -4.0335 0
M  V30 4790 H 454.509 -3.7592 -4.81161 0
M  V30 4791 H 455.923 -4.95637 -2.88127 0
M  V30 4792 H 454.32 -5.52828 -2.33456 0
M  V30 4793 H 455.39 -4.70115 -1.18827 0
M  V30 4794 N 456.733 0.527833 -1.48498 0
M  V30 4795 C 457.961 1.30823 -1.6029 0
M  V30 4796 C 458.376 1.86945 -0.263974 0
M  V30 4797 O 457.733 1.6651 0.747034 0
M  V30 4798 C 457.784 2.45756 -2.65116 0
M  V30 4799 O 457.505 1.91946 -3.93813 0
M  V30 4800 C 459.006 3.37543 -2.87367 0
M  V30 4801 H 456.226 0.397763 -0.540394 0
M  V30 4802 H 458.77 0.636529 -1.94341 0
M  V30 4803 H 456.925 3.08806 -2.33917 0
M  V30 4804 H 457.339 2.67195 -4.51339 0
M  V30 4805 H 458.813 4.14532 -3.6451 0
M  V30 4806 H 459.29 3.92905 -1.9627 0
M  V30 4807 H 459.896 2.80283 -3.19878 0
M  V30 4808 N 458.211 1.37122 0.776871 0
M  V30 4809 C 459.174 1.32301 1.8716 0
M  V30 4810 C 460.174 0.228099 1.59174 0
M  V30 4811 O 461.364 0.483642 1.67352 0
M  V30 4812 C 458.496 1.054 3.24197 0
M  V30 4813 H 459.689 2.29673 1.92848 0
M  V30 4814 H 457.242 1.22077 0.97606 0
M  V30 4815 H 457.977 0.0853872 3.24188 0
M  V30 4816 H 457.762 1.84648 3.45901 0
M  V30 4817 H 459.252 1.04664 4.04271 0
M  V30 4818 N 459.689 -1.00246 1.21608 0
M  V30 4819 C 461.1 -1.55511 1.03312 0
M  V30 4820 C 461.451 -1.91946 -0.406332 0
M  V30 4821 O 460.576 -1.73753 -1.28992 0
M  V30 4822 C 461.171 -2.82576 1.86913 0
M  V30 4823 C 459.73 -3.34318 1.72941 0
M  V30 4824 C 458.877 -2.07487 1.83968 0
M  V30 4825 H 461.828 -0.824638 1.35593 0
M  V30 4826 H 461.849 -3.54559 1.38087 0
M  V30 4827 H 461.361 -2.56026 2.91672 0
M  V30 4828 H 459.462 -3.65797 0.70877 0
M  V30 4829 H 459.575 -4.05566 2.55055 0
M  V30 4830 H 457.939 -2.20603 1.27304 0
M  V30 4831 H 458.722 -1.83346 2.9024 0
M  V30 4832 N 461.167 -1.02423 -1.1978 0
M  V30 4833 C 462.415 -0.716569 -1.8897 0
M  V30 4834 C 462.736 0.756769 -1.79716 0
M  V30 4835 O 462.006 1.5449 -1.20456 0
M  V30 4836 H 460.586 -0.262062 -0.699523 0
M  V30 4837 H 463.248 -1.29747 -1.45436 0
M  V30 4838 H 462.344 -1.00675 -2.95417 0
M  V30 4839 N 462.645 1.35699 -0.801477 0
M  V30 4840 C 464.056 1.81415 -0.441073 0
M  V30 4841 C 464.407 1.66595 1.03636 0
M  V30 4842 O 463.532 1.19369 1.80499 0
M  V30 4843 C 464.127 3.29369 -0.793819 0
M  V30 4844 C 462.686 3.73248 -0.486083 0
M  V30 4845 C 461.833 2.57775 -1.02213 0
M  V30 4846 H 464.784 1.23749 -0.993572 0
M  V30 4847 H 464.805 3.80395 -0.0894158 0
M  V30 4848 H 464.317 3.40123 -1.86917 0
M  V30 4849 H 462.418 3.68046 0.580735 0
M  V30 4850 H 462.531 4.68222 -1.01513 0
M  V30 4851 H 460.895 2.50788 -0.444712 0
M  V30 4852 H 461.678 2.71309 -2.10348 0
M  V30 4853 N 464.123 0.554532 1.47522 0
M  V30 4854 C 465.371 0.0294208 2.02079 0
M  V30 4855 C 465.692 -1.32411 1.43151 0
M  V30 4856 O 464.962 -1.863 0.605728 0
M  V30 4857 H 463.542 0.00788672 0.746958 0
M  V30 4858 H 466.204 0.723934 1.80956 0
M  V30 4859 H 465.3 -0.0606745 3.12041 0
M  V30 4860 N 465.601 -1.54893 0.290851 0
M  V30 4861 C 466.826 -2.04804 -0.32712 0
M  V30 4862 C 467.251 -1.16721 -1.47506 0
M  V30 4863 O 466.609 -0.169107 -1.8051 0
M  V30 4864 C 466.657 -3.52268 -0.770689 0
M  V30 4865 O 465.761 -3.67236 -1.87647 0
M  V30 4866 H 465.102 -0.660789 -0.0652227 0
M  V30 4867 H 467.632 -2.00036 0.429739 0
M  V30 4868 H 467.642 -3.9393 -1.06223 0
M  V30 4869 H 466.317 -4.15843 0.069096 0
M  V30 4870 H 464.894 -3.37479 -1.58626 0
M  V30 4871 N 467.08 -0.0183926 -1.57589 0
M  V30 4872 C 468.328 0.661253 -1.90976 0
M  V30 4873 C 468.649 1.73281 -0.894353 0
M  V30 4874 O 467.919 1.9579 0.0656788 0
M  V30 4875 H 466.499 0.247233 -0.704901 0
M  V30 4876 H 469.161 -0.0636639 -1.94796 0
M  V30 4877 H 468.257 1.12083 -2.9128 0
M  V30 4878 N 468.558 1.5553 0.254621 0
M  V30 4879 C 469.783 1.81383 1.00573 0
M  V30 4880 C 470.208 0.594419 1.78461 0
M  V30 4881 O 469.566 -0.456403 1.75461 0
M  V30 4882 C 469.614 3.04892 1.92545 0
M  V30 4883 O 468.718 2.81266 3.01601 0
M  V30 4884 H 468.059 0.598969 0.286587 0
M  V30 4885 H 470.589 2.02703 0.277952 0
M  V30 4886 H 470.599 3.34119 2.34155 0
M  V30 4887 H 469.274 3.93287 1.3527 0
M  V30 4888 H 467.851 2.63185 2.64174 0
M  V30 4889 N 470.036 -0.519951 1.48776 0
M  V30 4890 C 471.452 -0.849418 1.35119 0
M  V30 4891 C 471.652 -1.98077 0.36982 0
M  V30 4892 O 470.708 -2.51664 -0.205359 0
M  V30 4893 C 472.021 -1.20748 2.75391 0
M  V30 4894 C 473.569 -1.31679 2.83954 0
M  V30 4895 C 474.044 -1.70824 4.24951 0
M  V30 4896 N 475.535 -1.77908 4.27672 0
M  V30 4897 C 476.27 -2.09603 5.33717 0
M  V30 4898 N 475.766 -2.39652 6.5003 0
M  V30 4899 N 477.559 -2.10694 5.21119 0
M  V30 4900 H 469.71 0.226377 2.1119 0
M  V30 4901 H 471.973 0.0386519 0.947212 0
M  V30 4902 H 471.679 -0.449703 3.48813 0
M  V30 4903 H 471.553 -2.15534 3.09556 0
M  V30 4904 H 473.94 -2.06532 2.10781 0
M  V30 4905 H 474.021 -0.3499 2.53396 0
M  V30 4906 H 473.665 -0.965282 4.98643 0
M  V30 4907 H 473.595 -2.6858 4.52959 0
M  V30 4908 H 476.086 -1.56923 3.43779 0
M  V30 4909 H 476.399 -2.6297 7.26682 0
M  V30 4910 H 474.744 -2.37149 6.53288 0
M  V30 4911 H 477.935 -1.86682 4.29264 0
M  V30 4912 H 478.108 -2.35062 6.03863 0
M  V30 4913 N 471.514 -1.37532 -0.769588 0
M  V30 4914 C 472.925 -1.29382 -1.346 0
M  V30 4915 C 473.276 0.0576039 -1.96115 0
M  V30 4916 O 472.401 0.95947 -1.93967 0
M  V30 4917 C 472.996 -2.34298 -2.44724 0
M  V30 4918 C 471.555 -2.29776 -2.98128 0
M  V30 4919 C 470.702 -2.18013 -1.71364 0
M  V30 4920 H 473.653 -1.48123 -0.56968 0
M  V30 4921 H 473.674 -1.99089 -3.24259 0
M  V30 4922 H 473.186 -3.32645 -1.99922 0
M  V30 4923 H 471.287 -1.34959 -3.47299 0
M  V30 4924 H 471.4 -3.23276 -3.53595 0
M  V30 4925 H 469.764 -1.64595 -1.94372 0
M  V30 4926 H 470.547 -3.18278 -1.28662 0
M  V30 4927 N 472.992 0.995999 -1.22138 0
M  V30 4928 C 474.22 1.77066 -1.07029 0
M  V30 4929 C 474.635 1.8495 0.379357 0
M  V30 4930 O 473.992 1.3174 1.26297 0
M  V30 4931 C 474.043 3.20533 -1.67155 0
M  V30 4932 O 473.764 3.13082 -3.06449 0
M  V30 4933 C 475.265 4.14461 -1.5728 0
M  V30 4934 H 472.485 0.556179 -0.375374 0
M  V30 4935 H 475.029 1.25238 -1.61666 0
M  V30 4936 H 473.184 3.6944 -1.16589 0
M  V30 4937 H 473.598 4.03283 -3.35355 0
M  V30 4938 H 475.072 5.1289 -2.04078 0
M  V30 4939 H 475.549 4.36005 -0.528795 0
M  V30 4940 H 476.155 3.71449 -2.07136 0
M  V30 4941 N 474.47 1.03057 1.19235 0
M  V30 4942 C 475.402 0.570932 2.21975 0
M  V30 4943 C 476.415 -0.354088 1.58903 0
M  V30 4944 O 477.604 -0.150211 1.77867 0
M  V30 4945 C 474.704 -0.187152 3.38383 0
M  V30 4946 C 473.877 0.743231 4.31039 0
M  V30 4947 C 472.936 0.0302493 5.26191 0
M  V30 4948 O 471.962 0.657371 5.65391 0
M  V30 4949 N 473.164 -1.23991 5.67104 0
M  V30 4950 H 475.929 1.45456 2.62036 0
M  V30 4951 H 473.49 0.909807 1.33918 0
M  V30 4952 H 475.482 -0.673715 3.99053 0
M  V30 4953 H 474.052 -0.972205 2.97098 0
M  V30 4954 H 473.272 1.40985 3.68126 0
M  V30 4955 H 474.56 1.3755 4.89854 0
M  V30 4956 H 473.958 -1.77011 5.37293 0
M  V30 4957 H 472.515 -1.67093 6.30018 0
M  V30 4958 N 475.948 -1.35272 0.808662 0
M  V30 4959 C 476.911 -2.28082 0.226093 0
M  V30 4960 C 477.911 -1.49673 -0.587762 0
M  V30 4961 O 479.101 -1.69404 -0.405943 0
M  V30 4962 C 476.233 -3.33955 -0.684596 0
M  V30 4963 H 477.426 -2.81116 1.04469 0
M  V30 4964 H 474.979 -1.45162 0.579466 0
M  V30 4965 H 475.714 -2.86111 -1.5268 0
M  V30 4966 H 475.499 -3.91965 -0.102699 0
M  V30 4967 H 476.989 -4.03219 -1.08646 0
M  V30 4968 N 477.426 -0.562348 -1.47226 0
M  V30 4969 C 478.373 0.182461 -2.30078 0
M  V30 4970 C 479.343 0.903503 -1.39377 0
M  V30 4971 O 480.528 0.898188 -1.68337 0
M  V30 4972 C 477.668 1.20322 -3.23445 0
M  V30 4973 C 476.781 0.487717 -4.29238 0
M  V30 4974 C 475.916 1.49422 -5.09752 0
M  V30 4975 C 474.955 0.763976 -6.07314 0
M  V30 4976 N 474.092 1.71755 -6.80768 0
M  V30 4977 H 478.932 -0.530169 -2.93246 0
M  V30 4978 H 476.469 -0.273276 -1.44539 0
M  V30 4979 H 478.427 1.80768 -3.76004 0
M  V30 4980 H 477.057 1.88382 -2.6213 0
M  V30 4981 H 476.109 -0.231374 -3.79696 0
M  V30 4982 H 477.421 -0.0841003 -4.98729 0
M  V30 4983 H 476.575 2.17206 -5.66486 0
M  V30 4984 H 475.314 2.09995 -4.40174 0
M  V30 4985 H 474.319 0.0722344 -5.49753 0
M  V30 4986 H 475.544 0.16391 -6.78902 0
M  V30 4987 H 473.49 2.31177 -6.13916 0
M  V30 4988 H 473.407 1.19802 -7.46447 0
M  V30 4989 H 474.675 2.38638 -7.42073 0
M  V30 4990 N 478.904 1.54736 -0.299062 0
M  V30 4991 C 479.834 2.26409 0.571085 0
M  V30 4992 C 480.815 1.2629 1.13951 0
M  V30 4993 O 482 1.55059 1.16921 0
M  V30 4994 C 479.13 3.00338 1.74396 0
M  V30 4995 C 478.084 4.07588 1.30599 0
M  V30 4996 C 477.41 4.69222 2.56387 0
M  V30 4997 C 478.71 5.20455 0.438645 0
M  V30 4998 H 480.404 2.99388 -0.0266991 0
M  V30 4999 H 477.95 1.43993 -0.0142812 0
M  V30 5000 H 479.903 3.49198 2.35878 0
M  V30 5001 H 478.627 2.24934 2.36796 0
M  V30 5002 H 477.286 3.59575 0.71424 0
M  V30 5003 H 476.934 3.9046 3.17097 0
M  V30 5004 H 476.634 5.41653 2.27784 0
M  V30 5005 H 478.158 5.20844 3.18675 0
M  V30 5006 H 479.572 5.65221 0.959085 0
M  V30 5007 H 477.969 5.99594 0.246466 0
M  V30 5008 H 479.039 4.8192 -0.536738 0
M  V30 5009 N 480.382 0.0267497 1.57577 0
M  V30 5010 C 481.312 -0.954308 2.13108 0
M  V30 5011 C 482.293 -1.34088 1.04663 0
M  V30 5012 O 483.478 -1.41992 1.32484 0
M  V30 5013 C 480.608 -2.23744 2.65624 0
M  V30 5014 C 479.562 -1.99168 3.78835 0
M  V30 5015 C 478.888 -3.33726 4.17769 0
M  V30 5016 C 480.188 -1.33277 5.0501 0
M  V30 5017 H 481.882 -0.491848 2.95332 0
M  V30 5018 H 479.428 -0.23514 1.42067 0
M  V30 5019 H 481.381 -2.92754 3.03106 0
M  V30 5020 H 480.105 -2.72151 1.80558 0
M  V30 5021 H 478.764 -1.32577 3.41788 0
M  V30 5022 H 478.412 -3.79888 3.29688 0
M  V30 5023 H 478.112 -3.18089 4.94058 0
M  V30 5024 H 479.636 -4.04008 4.57832 0
M  V30 5025 H 481.05 -1.92283 5.40093 0
M  V30 5026 H 479.447 -1.28045 5.8628 0
M  V30 5027 H 480.517 -0.305411 4.83937 0
M  V30 5028 N 481.861 -1.55662 -0.24637 0
M  V30 5029 C 482.824 -1.89558 -1.28842 0
M  V30 5030 C 483.824 -0.772082 -1.41052 0
M  V30 5031 O 485.014 -1.04007 -1.39743 0
M  V30 5032 C 482.146 -2.12449 -2.66605 0
M  V30 5033 H 483.339 -2.82735 -1.00004 0
M  V30 5034 H 480.892 -1.48562 -0.485684 0
M  V30 5035 H 481.627 -1.21742 -3.00582 0
M  V30 5036 H 481.412 -2.94273 -2.59125 0
M  V30 5037 H 482.902 -2.39854 -3.41847 0
M  V30 5038 N 483.339 0.512053 -1.4905 0
M  V30 5039 C 484.286 1.6148 -1.64902 0
M  V30 5040 C 485.256 1.58687 -0.490673 0
M  V30 5041 O 486.441 1.76842 -0.71636 0
M  V30 5042 C 483.581 2.99676 -1.71139 0
M  V30 5043 C 482.694 3.12568 -2.98203 0
M  V30 5044 C 481.829 4.4143 -2.95487 0
M  V30 5045 C 480.868 4.47916 -4.17179 0
M  V30 5046 N 480.005 5.68191 -4.12437 0
M  V30 5047 H 484.845 1.47271 -2.59066 0
M  V30 5048 H 482.382 0.716713 -1.28459 0
M  V30 5049 H 484.34 3.79761 -1.72736 0
M  V30 5050 H 482.97 3.12614 -0.804508 0
M  V30 5051 H 482.022 2.25618 -3.06269 0
M  V30 5052 H 483.334 3.1322 -3.88194 0
M  V30 5053 H 482.488 5.29825 -2.95585 0
M  V30 5054 H 481.227 4.43326 -2.03256 0
M  V30 5055 H 480.232 3.57925 -4.17337 0
M  V30 5056 H 481.457 4.47744 -5.1059 0
M  V30 5057 H 479.403 5.7095 -3.23036 0
M  V30 5058 H 479.32 5.70413 -4.96151 0
M  V30 5059 H 480.588 6.58823 -4.16621 0
M  V30 5060 N 484.817 1.37938 0.762283 0
M  V30 5061 C 485.764 1.34467 1.87583 0
M  V30 5062 C 486.734 0.208633 1.64785 0
M  V30 5063 O 487.919 0.399494 1.86571 0
M  V30 5064 C 485.059 1.16692 3.24772 0
M  V30 5065 C 484.172 2.39608 3.59461 0
M  V30 5066 C 483.307 2.14631 4.85908 0
M  V30 5067 C 482.346 3.33364 5.13357 0
M  V30 5068 N 481.483 3.07877 6.30996 0
M  V30 5069 H 486.323 2.29669 1.89885 0
M  V30 5070 H 483.86 1.14116 0.928219 0
M  V30 5071 H 485.818 1.04405 4.03925 0
M  V30 5072 H 484.448 0.251333 3.2182 0
M  V30 5073 H 483.5 2.626 2.75219 0
M  V30 5074 H 484.812 3.28128 3.75678 0
M  V30 5075 H 483.966 1.99429 5.72986 0
M  V30 5076 H 482.705 1.23463 4.71814 0
M  V30 5077 H 481.71 3.49094 4.24751 0
M  V30 5078 H 482.935 4.25395 5.29354 0
M  V30 5079 H 480.881 2.19348 6.18241 0
M  V30 5080 H 480.798 3.89944 6.47673 0
M  V30 5081 H 482.066 2.96313 7.20985 0
M  V30 5082 N 486.295 -0.989507 1.22664 0
M  V30 5083 C 487.711 -1.25395 0.987331 0
M  V30 5084 C 487.911 -1.9899 -0.317056 0
M  V30 5085 O 486.967 -2.30141 -1.03882 0
M  V30 5086 C 488.28 -2.06242 2.18826 0
M  V30 5087 C 489.828 -2.19413 2.23219 0
M  V30 5088 C 490.303 -3.03648 3.42873 0
M  V30 5089 N 491.794 -3.11234 3.43056 0
M  V30 5090 C 492.529 -3.7671 4.32293 0
M  V30 5091 N 492.025 -4.44085 5.31752 0
M  V30 5092 N 493.818 -3.73505 4.2006 0
M  V30 5093 H 485.969 -0.496212 2.06522 0
M  V30 5094 H 488.232 -0.281784 0.905153 0
M  V30 5095 H 487.938 -1.59531 3.13437 0
M  V30 5096 H 487.812 -3.06996 2.19165 0
M  V30 5097 H 490.199 -2.65336 1.29154 0
M  V30 5098 H 490.28 -1.18078 2.26917 0
M  V30 5099 H 489.924 -2.58424 4.37241 0
M  V30 5100 H 489.854 -4.05132 3.36416 0
M  V30 5101 H 492.345 -2.63287 2.71088 0
M  V30 5102 H 492.658 -4.91797 5.96117 0
M  V30 5103 H 491.003 -4.42822 5.35662 0
M  V30 5104 H 494.194 -3.20033 3.41609 0
M  V30 5105 H 494.367 -4.24253 4.8981 0
M  V30 5106 N 487.773 -1.03688 -1.18687 0
M  V30 5107 C 489.019 -0.739123 -1.88851 0
M  V30 5108 C 489.352 0.731042 -1.79915 0
M  V30 5109 O 488.627 1.53313 -1.19688 0
M  V30 5110 C 488.91 -1.20106 -3.3948 0
M  V30 5111 C 488.763 -2.73304 -3.57246 0
M  V30 5112 C 490.082 -0.788134 -4.32986 0
M  V30 5113 H 487.201 -0.269978 -0.68577 0
M  V30 5114 H 489.843 -1.28822 -1.3966 0
M  V30 5115 H 487.993 -0.733915 -3.81505 0
M  V30 5116 H 489.665 -3.28027 -3.24339 0
M  V30 5117 H 487.908 -3.13313 -3.00029 0
M  V30 5118 H 488.579 -3.00684 -4.62918 0
M  V30 5119 H 491.055 -1.19005 -3.98719 0
M  V30 5120 H 489.931 -1.13915 -5.36949 0
M  V30 5121 H 490.192 0.308988 -4.41019 0
M  V30 5122 N 489.251 1.34841 -0.815825 0
M  V30 5123 C 490.497 1.98793 -0.401129 0
M  V30 5124 C 490.83 1.64548 1.03139 0
M  V30 5125 O 490.105 0.913487 1.71714 0
M  V30 5126 C 490.388 3.55143 -0.595409 0
M  V30 5127 C 490.241 3.99155 -2.07352 0
M  V30 5128 C 491.56 4.40092 -0.0268823 0
M  V30 5129 H 488.679 0.722146 -0.14722 0
M  V30 5130 H 491.321 1.59847 -1.02707 0
M  V30 5131 H 489.471 3.8845 -0.0625779 0
M  V30 5132 H 491.143 3.76216 -2.66945 0
M  V30 5133 H 489.386 3.49726 -2.56659 0
M  V30 5134 H 490.057 5.07971 -2.1603 0
M  V30 5135 H 492.533 4.13298 -0.482042 0
M  V30 5136 H 491.409 5.48562 -0.19267 0
M  V30 5137 H 491.67 4.29016 1.06759 0
M  V30 5138 N 490.729 0.570148 1.46925 0
M  V30 5139 C 492.145 0.23087 1.57921 0
M  V30 5140 C 492.345 -1.26676 1.56702 0
M  V30 5141 O 491.401 -2.04774 1.47729 0
M  V30 5142 C 492.714 0.868973 2.8787 0
M  V30 5143 C 494.262 0.841397 3.01479 0
M  V30 5144 C 494.737 1.45881 4.34146 0
M  V30 5145 N 496.228 1.42258 4.40814 0
M  V30 5146 C 496.963 1.8698 5.42057 0
M  V30 5147 N 496.459 2.39618 6.50042 0
M  V30 5148 N 498.252 1.77972 5.33181 0
M  V30 5149 H 490.403 1.54301 1.45962 0
M  V30 5150 H 492.666 0.644224 0.69547 0
M  V30 5151 H 492.372 1.922 2.94537 0
M  V30 5152 H 492.246 0.369682 3.75384 0
M  V30 5153 H 494.633 -0.202973 2.94401 0
M  V30 5154 H 494.714 1.37858 2.15474 0
M  V30 5155 H 494.358 2.50231 4.4198 0
M  V30 5156 H 494.288 0.896958 5.18905 0
M  V30 5157 H 496.779 1.03768 3.63374 0
M  V30 5158 H 497.092 2.71633 7.23488 0
M  V30 5159 H 495.437 2.43636 6.50897 0
M  V30 5160 H 498.628 1.36617 4.4772 0
M  V30 5161 H 498.801 2.13143 6.11943 0
M  V30 5162 N 492.207 -1.54576 0.307264 0
M  V30 5163 C 493.14 -2.19946 -0.608195 0
M  V30 5164 C 494.118 -1.17096 -1.12815 0
M  V30 5165 O 495.302 -1.45766 -1.19518 0
M  V30 5166 C 492.429 -2.84826 -1.8328 0
M  V30 5167 C 491.475 -4.01256 -1.44554 0
M  V30 5168 S 492.308 -5.33197 -0.49612 0
M  V30 5169 C 493.464 -6.01563 -1.72838 0
M  V30 5170 H 493.697 -2.97253 -0.0528544 0
M  V30 5171 H 491.23 -1.54129 0.0913837 0
M  V30 5172 H 493.188 -3.22832 -2.53554 0
M  V30 5173 H 491.849 -2.07353 -2.35931 0
M  V30 5174 H 491.042 -4.45457 -2.35762 0
M  V30 5175 H 490.644 -3.6484 -0.822671 0
M  V30 5176 H 492.936 -6.22751 -2.6681 0
M  V30 5177 H 493.879 -6.9552 -1.32882 0
M  V30 5178 H 494.287 -5.31279 -1.90795 0
M  V30 5179 N 493.685 -0.035106 -1.57561 0
M  V30 5180 C 494.615 0.942993 -2.13612 0
M  V30 5181 C 495.596 1.33531 -1.05373 0
M  V30 5182 O 496.781 1.41287 -1.33235 0
M  V30 5183 C 493.911 2.22332 -2.66807 0
M  V30 5184 C 492.865 1.97156 -3.79886 0
M  V30 5185 C 492.191 3.31506 -4.19533 0
M  V30 5186 C 493.491 1.30596 -5.05709 0
M  V30 5187 H 495.185 0.476179 -2.95589 0
M  V30 5188 H 492.731 0.227602 -1.4219 0
M  V30 5189 H 494.684 2.91142 -3.04654 0
M  V30 5190 H 493.408 2.7119 -1.81999 0
M  V30 5191 H 492.067 1.30763 -3.42486 0
M  V30 5192 H 491.715 3.78134 -3.31698 0
M  V30 5193 H 491.415 3.15465 -4.95738 0
M  V30 5194 H 492.939 4.01574 -4.59968 0
M  V30 5195 H 494.353 1.89416 -5.41105 0
M  V30 5196 H 492.75 1.24934 -5.86951 0
M  V30 5197 H 493.82 0.279742 -4.84092 0
M  V30 5198 N 495.163 1.55791 0.238111 0
M  V30 5199 C 496.093 1.94068 1.29846 0
M  V30 5200 C 497.074 0.806726 1.49753 0
M  V30 5201 O 498.259 1.06772 1.62214 0
M  V30 5202 C 495.389 2.24302 2.65153 0
M  V30 5203 C 494.343 3.40032 2.59927 0
M  V30 5204 C 493.669 3.55829 3.99111 0
M  V30 5205 C 494.969 4.75476 2.16148 0
M  V30 5206 H 496.663 2.82887 0.980563 0
M  V30 5207 H 494.209 1.36105 0.470253 0
M  V30 5208 H 496.162 2.4967 3.39475 0
M  V30 5209 H 494.886 1.32318 2.98596 0
M  V30 5210 H 493.545 3.14687 1.88063 0
M  V30 5211 H 493.193 2.6125 4.29834 0
M  V30 5212 H 492.893 4.3366 3.96501 0
M  V30 5213 H 494.417 3.83528 4.7512 0
M  V30 5214 H 495.831 5.00158 2.80205 0
M  V30 5215 H 494.228 5.56472 2.24631 0
M  V30 5216 H 495.298 4.71946 1.11333 0
M  V30 5217 N 496.642 -0.504142 1.49319 0
M  V30 5218 C 497.888 -1.26033 1.58882 0
M  V30 5219 C 498.221 -1.92268 0.273274 0
M  V30 5220 O 497.496 -1.80567 -0.72291 0
M  V30 5221 C 497.779 -2.32976 2.7458 0
M  V30 5222 C 497.632 -1.71263 4.1592 0
M  V30 5223 C 498.951 -3.34561 2.85932 0
M  V30 5224 H 496.07 -0.456863 0.578312 0
M  V30 5225 H 498.712 -0.558965 1.81592 0
M  V30 5226 H 496.862 -2.92796 2.55348 0
M  V30 5227 H 498.534 -1.15294 4.4666 0
M  V30 5228 H 496.777 -1.01686 4.21714 0
M  V30 5229 H 497.448 -2.48816 4.92742 0
M  V30 5230 H 499.924 -2.84727 3.0343 0
M  V30 5231 H 498.8 -4.06754 3.68568 0
M  V30 5232 H 499.061 -3.96695 1.95154 0
M  V30 5233 N 498.12 -1.38341 -0.754957 0
M  V30 5234 C 499.369 -1.33791 -1.5094 0
M  V30 5235 C 499.682 0.0699267 -1.95475 0
M  V30 5236 O 500.888 0.237956 -2.70455 0
M  V30 5237 C 499.344 -2.34934 -2.72643 0
M  V30 5238 C 498.952 -3.81332 -2.35138 0
M  V30 5239 C 500.696 -2.39425 -3.50536 0
M  V30 5240 C 498.603 -4.74164 -3.53444 0
M  V30 5241 H 497.533 -0.497314 -0.566741 0
M  V30 5242 H 500.184 -1.63888 -0.825403 0
M  V30 5243 H 498.566 -1.97878 -3.43017 0
M  V30 5244 H 499.74 -4.27319 -1.7244 0
M  V30 5245 H 498.055 -3.79946 -1.70382 0
M  V30 5246 H 500.652 -3.0598 -4.38498 0
M  V30 5247 H 500.995 -1.41278 -3.91594 0
M  V30 5248 H 501.528 -2.75274 -2.87174 0
M  V30 5249 H 498.267 -5.73501 -3.17453 0
M  V30 5250 H 497.787 -4.3287 -4.15191 0
M  V30 5251 H 499.466 -4.92111 -4.20043 0
M  V30 5252 N 499.598 0.982988 -1.23187 0
M  V30 5253 C 500.844 1.72648 -1.06398 0
M  V30 5254 C 501.177 1.90066 0.398561 0
M  V30 5255 O 500.452 1.45105 1.29518 0
M  V30 5256 C 500.735 3.12627 -1.78707 0
M  V30 5257 C 500.588 3.02795 -3.32618 0
M  V30 5258 C 501.907 4.11997 -1.54747 0
M  V30 5259 H 499.026 0.626649 -0.387918 0
M  V30 5260 H 501.668 1.14455 -1.51658 0
M  V30 5261 H 499.818 3.62308 -1.40234 0
M  V30 5262 H 501.49 2.60659 -3.80598 0
M  V30 5263 H 499.733 2.39362 -3.61785 0
M  V30 5264 H 500.404 4.01893 -3.78399 0
M  V30 5265 H 502.88 3.71114 -1.88186 0
M  V30 5266 H 501.756 5.08037 -2.07821 0
M  V30 5267 H 502.017 4.39462 -0.482249 0
M  V30 5268 N 501.076 1.04316 1.18135 0
M  V30 5269 C 502.322 0.749128 1.88457 0
M  V30 5270 C 502.655 -0.72149 1.803 0
M  V30 5271 O 501.93 -1.52676 1.205 0
M  V30 5272 C 502.213 1.21905 3.38838 0
M  V30 5273 C 502.066 2.75195 3.55792 0
M  V30 5274 C 503.385 0.811085 4.32561 0
M  V30 5275 H 500.504 0.273611 0.684329 0
M  V30 5276 H 503.146 1.29561 1.38975 0
M  V30 5277 H 501.296 0.754137 3.8111 0
M  V30 5278 H 502.968 3.29743 3.22595 0
M  V30 5279 H 501.211 3.14899 2.98364 0
M  V30 5280 H 501.882 3.03135 4.61317 0
M  V30 5281 H 504.358 1.21118 3.98082 0
M  V30 5282 H 503.234 1.16761 5.36338 0
M  V30 5283 H 503.495 -0.285596 4.41177 0
M  V30 5284 N 502.554 -1.34406 0.822964 0
M  V30 5285 C 503.484 -2.32052 0.259608 0
M  V30 5286 C 504.465 -1.58243 -0.623961 0
M  V30 5287 O 505.65 -1.86224 -0.55083 0
M  V30 5288 C 502.78 -3.42434 -0.579314 0
M  V30 5289 C 501.734 -4.27499 0.20712 0
M  V30 5290 C 501.06 -5.29349 -0.754547 0
M  V30 5291 C 502.36 -5.02758 1.41533 0
M  V30 5292 H 504.054 -2.79418 1.07545 0
M  V30 5293 H 501.6 -1.34338 0.518593 0
M  V30 5294 H 503.553 -4.0976 -0.983612 0
M  V30 5295 H 502.277 -2.93717 -1.4282 0
M  V30 5296 H 500.936 -3.61776 0.592787 0
M  V30 5297 H 500.584 -4.76895 -1.59939 0
M  V30 5298 H 500.284 -5.8714 -0.232561 0
M  V30 5299 H 501.808 -5.99544 -1.1567 0
M  V30 5300 H 503.222 -5.62938 1.08504 0
M  V30 5301 H 501.619 -5.70123 1.87296 0
M  V30 5302 H 502.689 -4.32451 2.1935 0
M  V30 5303 N 504.032 -0.577932 -1.46621 0
M  V30 5304 C 505.279 -0.0616879 -2.02406 0
M  V30 5305 C 505.607 1.29638 -1.44997 0
M  V30 5306 O 504.862 1.86176 -0.60308 0
M  V30 5307 C 505.161 0.0590832 -3.57351 0
M  V30 5308 C 504.827 -1.23077 -4.33777 0
M  V30 5309 C 503.489 -1.58416 -4.54376 0
M  V30 5310 C 505.841 -2.08457 -4.77698 0
M  V30 5311 C 503.169 -2.78943 -5.16147 0
M  V30 5312 C 505.521 -3.28204 -5.408 0
M  V30 5313 C 504.185 -3.63832 -5.59627 0
M  V30 5314 H 503.455 -0.0225732 -0.740656 0
M  V30 5315 H 506.102 -0.753609 -1.76048 0
M  V30 5316 H 504.407 0.834104 -3.82818 0
M  V30 5317 H 506.104 0.474202 -3.98186 0
M  V30 5318 H 502.694 -0.945652 -4.18038 0
M  V30 5319 H 506.878 -1.82459 -4.61544 0
M  V30 5320 H 502.134 -3.06689 -5.28916 0
M  V30 5321 H 506.308 -3.94634 -5.73792 0
M  V30 5322 H 503.935 -4.57315 -6.07262 0
M  V30 5323 N 505.51 1.54411 -0.315457 0
M  V30 5324 C 506.757 2.00419 0.289543 0
M  V30 5325 C 507.085 1.20373 1.52776 0
M  V30 5326 O 506.34 0.271769 1.93804 0
M  V30 5327 C 506.639 3.50936 0.676652 0
M  V30 5328 C 506.305 4.48532 -0.461472 0
M  V30 5329 C 504.967 4.74936 -0.773879 0
M  V30 5330 C 507.319 5.06567 -1.22637 0
M  V30 5331 C 504.647 5.56634 -1.85405 0
M  V30 5332 C 506.999 5.89441 -2.29657 0
M  V30 5333 C 505.663 6.1415 -2.61488 0
M  V30 5334 H 504.933 0.733386 0.105951 0
M  V30 5335 H 507.58 1.86434 -0.437554 0
M  V30 5336 H 505.885 3.62606 1.48405 0
M  V30 5337 H 507.582 3.83971 1.15618 0
M  V30 5338 H 504.172 4.28096 -0.207893 0
M  V30 5339 H 508.356 4.86157 -0.998271 0
M  V30 5340 H 503.612 5.74012 -2.10523 0
M  V30 5341 H 507.786 6.33432 -2.89374 0
M  V30 5342 H 505.413 6.77245 -3.45317 0
M  V30 5343 N 506.988 0.0434614 1.5754 0
M  V30 5344 C 507.918 -0.931651 2.14109 0
M  V30 5345 C 508.899 -1.32971 1.06079 0
M  V30 5346 O 510.084 -1.40579 1.33982 0
M  V30 5347 C 507.214 -2.20914 2.67982 0
M  V30 5348 C 506.168 -1.95139 3.80926 0
M  V30 5349 C 505.494 -3.29276 4.21285 0
M  V30 5350 C 506.794 -1.27913 5.06395 0
M  V30 5351 H 508.488 -0.460497 2.95837 0
M  V30 5352 H 506.034 -0.220058 1.42309 0
M  V30 5353 H 507.987 -2.89522 3.06194 0
M  V30 5354 H 506.711 -2.70221 1.83434 0
M  V30 5355 H 505.37 -1.28945 3.43175 0
M  V30 5356 H 505.018 -3.76369 3.33699 0
M  V30 5357 H 504.718 -3.12831 4.97404 0
M  V30 5358 H 506.242 -3.99129 4.62091 0
M  V30 5359 H 507.656 -1.86544 5.42102 0
M  V30 5360 H 506.053 -1.2182 5.87605 0
M  V30 5361 H 507.123 -0.254066 4.84234 0
M  V30 5362 N 508.466 -1.55915 -0.229846 0
M  V30 5363 C 509.706 -1.80314 -0.962614 0
M  V30 5364 C 510.07 -0.61568 -1.81861 0
M  V30 5365 O 511.271 -0.738795 -2.58448 0
M  V30 5366 C 509.542 -3.0956 -1.78627 0
M  V30 5367 S 511.101 -3.55243 -2.57581 0
M  V30 5368 H 507.919 -0.633142 -0.323499 0
M  V30 5369 H 510.521 -1.94155 -0.228919 0
M  V30 5370 H 509.225 -3.94033 -1.14742 0
M  V30 5371 H 508.756 -2.98503 -2.56241 0
M  V30 5372 H 510.771 -3.17924 -3.80971 0
M  V30 5373 N 509.944 0.496216 -1.49584 0
M  V30 5374 C 511.19 1.24918 -1.60521 0
M  V30 5375 C 511.545 1.90197 -0.290352 0
M  V30 5376 O 510.838 1.77967 0.709813 0
M  V30 5377 C 511.032 2.3359 -2.705 0
M  V30 5378 C 510.861 1.78969 -4.12553 0
M  V30 5379 C 509.631 1.60057 -4.79281 0
M  V30 5380 C 511.829 1.29883 -4.97629 0
M  V30 5381 N 509.811 1.00415 -6.05632 0
M  V30 5382 C 511.182 0.824057 -6.14499 0
M  V30 5383 C 513.237 1.18501 -4.83593 0
M  V30 5384 C 511.94 0.246721 -7.18877 0
M  V30 5385 C 513.966 0.621634 -5.88124 0
M  V30 5386 C 513.328 0.157116 -7.04225 0
M  V30 5387 H 509.427 0.446896 -0.641722 0
M  V30 5388 H 512.011 0.555456 -1.86609 0
M  V30 5389 H 510.182 3.00418 -2.46178 0
M  V30 5390 H 511.914 3.00628 -2.70933 0
M  V30 5391 H 508.669 1.84562 -4.36158 0
M  V30 5392 H 509.093 0.725074 -6.73106 0
M  V30 5393 H 513.735 1.53012 -3.94141 0
M  V30 5394 H 511.453 -0.110651 -8.08024 0
M  V30 5395 H 515.039 0.536279 -5.79323 0
M  V30 5396 H 513.919 -0.272009 -7.83728 0
M  V30 5397 N 511.423 1.38739 0.74761 0
M  V30 5398 C 512.353 1.39173 1.87492 0
M  V30 5399 C 513.334 0.256794 1.6815 0
M  V30 5400 O 514.519 0.460762 1.88655 0
M  V30 5401 C 511.649 1.22197 3.25093 0
M  V30 5402 C 510.603 2.32957 3.59047 0
M  V30 5403 C 509.929 2.01082 4.95449 0
M  V30 5404 C 511.229 3.75237 3.6331 0
M  V30 5405 H 512.923 2.3351 1.87386 0
M  V30 5406 H 510.469 1.12399 0.900134 0
M  V30 5407 H 512.422 1.21124 4.03617 0
M  V30 5408 H 511.146 0.243241 3.25693 0
M  V30 5409 H 509.805 2.33226 2.82845 0
M  V30 5410 H 509.453 1.01678 4.92616 0
M  V30 5411 H 509.153 2.75267 5.19136 0
M  V30 5412 H 510.677 2.01638 5.76346 0
M  V30 5413 H 512.091 3.76966 4.31937 0
M  V30 5414 H 510.488 4.48677 3.98509 0
M  V30 5415 H 511.558 4.07122 2.634 0
M  V30 5416 N 512.901 -0.976442 1.23707 0
M  V30 5417 C 514.312 -1.53284 1.06587 0
M  V30 5418 C 514.663 -1.92765 -0.365526 0
M  V30 5419 O 513.788 -1.7645 -1.25277 0
M  V30 5420 C 514.383 -2.78548 1.92864 0
M  V30 5421 C 512.942 -3.30574 1.79994 0
M  V30 5422 C 512.089 -2.03538 1.88328 0
M  V30 5423 H 515.04 -0.795692 1.37311 0
M  V30 5424 H 515.061 -3.5155 1.45577 0
M  V30 5425 H 514.573 -2.49782 2.97037 0
M  V30 5426 H 512.674 -3.64211 0.786202 0
M  V30 5427 H 512.787 -4.00065 2.636 0
M  V30 5428 H 511.151 -2.17853 1.31954 0
M  V30 5429 H 511.934 -1.77149 2.94063 0
M  V30 5430 N 514.379 -1.04941 -1.1758 0
M  V30 5431 C 515.625 -0.759112 -1.88057 0
M  V30 5432 C 515.958 0.711918 -1.8068 0
M  V30 5433 O 515.233 1.52035 -1.21308 0
M  V30 5434 C 515.516 -1.237 -3.38187 0
M  V30 5435 C 515.369 -2.77078 -3.54327 0
M  V30 5436 C 516.688 -0.834014 -4.32125 0
M  V30 5437 H 513.807 -0.277237 -0.682868 0
M  V30 5438 H 516.449 -1.30296 -1.38286 0
M  V30 5439 H 514.599 -0.774337 -3.80705 0
M  V30 5440 H 516.271 -3.31449 -3.20842 0
M  V30 5441 H 514.514 -3.16477 -2.96689 0
M  V30 5442 H 515.185 -3.05577 -4.59703 0
M  V30 5443 H 517.661 -1.23228 -3.97434 0
M  V30 5444 H 516.537 -1.19603 -5.35711 0
M  V30 5445 H 516.798 0.262195 -4.41322 0
M  V30 5446 N 515.857 1.33968 -0.830081 0
M  V30 5447 C 517.087 2.01987 -0.434142 0
M  V30 5448 C 517.495 1.62639 0.96671 0
M  V30 5449 O 516.838 0.831151 1.63822 0
M  V30 5450 C 516.9 3.5648 -0.465018 0
M  V30 5451 C 516.564 4.19176 -1.82045 0
M  V30 5452 C 517.561 4.39181 -2.78237 0
M  V30 5453 C 515.246 4.55792 -2.11089 0
M  V30 5454 C 517.24 4.94937 -4.01642 0
M  V30 5455 C 514.927 5.11258 -3.34752 0
M  V30 5456 C 515.925 5.30775 -4.29845 0
M  V30 5457 O 515.613 5.85064 -5.51322 0
M  V30 5458 H 515.345 0.653847 -0.171639 0
M  V30 5459 H 517.899 1.72066 -1.12171 0
M  V30 5460 H 516.129 3.8569 0.279284 0
M  V30 5461 H 517.818 4.05804 -0.0881334 0
M  V30 5462 H 518.584 4.11249 -2.57097 0
M  V30 5463 H 514.463 4.39901 -1.3787 0
M  V30 5464 H 518.007 5.10086 -4.75876 0
M  V30 5465 H 513.904 5.38619 -3.55753 0
M  V30 5466 H 514.672 6.03489 -5.5294 0
M  V30 5467 N 517.335 0.585699 1.46312 0
M  V30 5468 C 518.56 0.0762461 2.0726 0
M  V30 5469 C 518.985 -1.22071 1.43109 0
M  V30 5470 O 518.343 -1.73804 0.515942 0
M  V30 5471 C 518.391 -0.0729404 3.60526 0
M  V30 5472 O 517.495 -1.1287 3.96654 0
M  V30 5473 H 516.836 0.0641558 0.660893 0
M  V30 5474 H 519.366 0.809492 1.87905 0
M  V30 5475 H 519.376 -0.278158 4.07051 0
M  V30 5476 H 518.051 0.874188 4.06609 0
M  V30 5477 H 516.628 -0.901703 3.61834 0
M  V30 5478 N 518.813 -1.54241 0.323641 0
M  V30 5479 C 519.776 -2.22997 -0.529602 0
M  V30 5480 C 520.776 -1.22345 -1.04347 0
M  V30 5481 O 521.966 -1.46924 -0.935889 0
M  V30 5482 C 519.098 -2.93409 -1.73562 0
M  V30 5483 H 520.291 -2.99815 0.0714518 0
M  V30 5484 H 517.844 -1.56121 0.0747258 0
M  V30 5485 H 518.579 -2.20729 -2.37591 0
M  V30 5486 H 518.364 -3.67217 -1.37456 0
M  V30 5487 H 519.854 -3.45794 -2.34128 0
M  V30 5488 N 520.291 -0.0518155 -1.57515 0
M  V30 5489 C 521.239 0.940195 -2.12751 0
M  V30 5490 C 522.233 1.3218 -1.05948 0
M  V30 5491 O 523.439 1.30138 -1.24355 0
M  V30 5492 H 519.814 0.321066 -0.680015 0
M  V30 5493 H 521.785 0.449217 -2.94999 0
M  V30 5494 C 520.534 2.2055 -2.68799 0
M  V30 5495 H 519.857 1.92066 -3.50643 0
M  V30 5496 H 521.297 2.88119 -3.11068 0
M  V30 5497 C 519.756 2.95061 -1.62605 0
M  V30 5498 O 520.286 3.88025 -1.03921 0
M  V30 5499 N 518.492 2.57804 -1.34111 0
M  V30 5500 H 518.039 1.82281 -1.8202 0
M  V30 5501 H 517.997 3.07964 -0.632872 0
M  V30 5502 N 521.769 1.56035 0.221574 0
M  V30 5503 C 522.997 1.8313 0.962864 0
M  V30 5504 C 523.412 0.630934 1.77946 0
M  V30 5505 O 522.769 -0.400519 1.78051 0
M  V30 5506 C 522.82 3.08742 1.88045 0
M  V30 5507 O 522.541 4.24147 1.09686 0
M  V30 5508 C 524.042 3.48824 2.73563 0
M  V30 5509 H 521.262 0.608775 0.282194 0
M  V30 5510 H 523.806 2.03124 0.23681 0
M  V30 5511 H 521.961 2.90723 2.56045 0
M  V30 5512 H 522.375 4.95505 1.71974 0
M  V30 5513 H 523.849 4.39752 3.3365 0
M  V30 5514 H 524.326 2.70575 3.45956 0
M  V30 5515 H 524.932 3.69282 2.10976 0
M  V30 5516 N 523.247 -0.488276 1.49845 0
M  V30 5517 C 524.493 -1.24065 1.61182 0
M  V30 5518 C 524.848 -1.9004 0.300435 0
M  V30 5519 O 524.141 -1.78341 -0.700365 0
M  V30 5520 C 524.335 -2.32152 2.71735 0
M  V30 5521 C 524.164 -1.76778 4.13497 0
M  V30 5522 C 522.934 -1.57513 4.80123 0
M  V30 5523 C 525.132 -1.27242 4.98311 0
M  V30 5524 N 523.114 -0.972015 6.06156 0
M  V30 5525 C 524.485 -0.791457 6.14928 0
M  V30 5526 C 526.54 -1.15934 4.84214 0
M  V30 5527 C 525.243 -0.208593 7.18997 0
M  V30 5528 C 527.269 -0.590436 5.88445 0
M  V30 5529 C 526.631 -0.119767 7.04298 0
M  V30 5530 H 522.73 -0.443487 0.644083 0
M  V30 5531 H 525.314 -0.545551 1.86901 0
M  V30 5532 H 523.485 -2.99108 2.47768 0
M  V30 5533 H 525.217 -2.99187 2.72523 0
M  V30 5534 H 521.972 -1.82247 4.37131 0
M  V30 5535 H 522.396 -0.689367 6.73481 0
M  V30 5536 H 527.038 -1.5092 3.94947 0
M  V30 5537 H 524.756 0.153501 8.07954 0
M  V30 5538 H 528.342 -0.505548 5.79599 0
M  V30 5539 H 527.222 0.313568 7.83573 0
M  V30 5540 N 524.725 -1.39134 -0.740242 0
M  V30 5541 C 526.141 -1.20623 -1.0451 0
M  V30 5542 C 526.341 -0.0641651 -2.01398 0
M  V30 5543 O 525.397 0.585843 -2.4561 0
M  V30 5544 C 526.71 -2.53815 -1.6124 0
M  V30 5545 C 528.258 -2.60615 -1.73346 0
M  V30 5546 C 528.733 -3.94015 -2.33486 0
M  V30 5547 N 530.224 -3.95627 -2.40902 0
M  V30 5548 C 530.959 -4.95616 -2.88361 0
M  V30 5549 N 530.455 -6.06003 -3.35756 0
M  V30 5550 N 532.248 -4.82998 -2.87523 0
M  V30 5551 H 524.399 -2.12176 -0.0975576 0
M  V30 5552 H 526.662 -0.942066 -0.105904 0
M  V30 5553 H 526.368 -3.37911 -0.975144 0
M  V30 5554 H 526.242 -2.73162 -2.6012 0
M  V30 5555 H 528.629 -1.76906 -2.36195 0
M  V30 5556 H 528.71 -2.45123 -0.731336 0
M  V30 5557 H 528.354 -4.78153 -1.71267 0
M  V30 5558 H 528.284 -4.06825 -3.34366 0
M  V30 5559 H 530.775 -3.15903 -2.07398 0
M  V30 5560 H 531.088 -6.78215 -3.70464 0
M  V30 5561 H 529.433 -6.09604 -3.33778 0
M  V30 5562 H 532.624 -3.95866 -2.49816 0
M  V30 5563 H 532.797 -5.61072 -3.24196 0
M  V30 5564 N 526.204 0.969867 -1.24223 0
M  V30 5565 C 527.167 2.04564 -1.03373 0
M  V30 5566 C 528.167 1.60798 0.00819206 0
M  V30 5567 O 529.357 1.72641 -0.232567 0
M  V30 5568 C 526.489 3.36163 -0.566343 0
M  V30 5569 H 527.682 2.24494 -1.98853 0
M  V30 5570 H 525.235 1.1448 -1.06415 0
M  V30 5571 H 525.97 3.21925 0.391751 0
M  V30 5572 H 525.755 3.69273 -1.31834 0
M  V30 5573 H 527.245 4.1526 -0.441435 0
M  V30 5574 N 527.682 1.05563 1.17022 0
M  V30 5575 C 528.929 0.767937 1.87374 0
M  V30 5576 C 529.257 -0.705224 1.81265 0
M  V30 5577 O 528.512 -1.5318 1.21796 0
M  V30 5578 C 528.811 1.19849 3.36706 0
M  V30 5579 C 528.477 2.6745 3.63017 0
M  V30 5580 C 527.139 3.0777 3.69907 0
M  V30 5581 C 529.491 3.62811 3.74189 0
M  V30 5582 C 526.819 4.42307 3.85463 0
M  V30 5583 C 529.171 4.97087 3.91264 0
M  V30 5584 C 527.835 5.37055 3.96394 0
M  V30 5585 H 527.105 0.281008 0.68565 0
M  V30 5586 H 529.752 1.32339 1.38415 0
M  V30 5587 H 528.057 0.562096 3.87747 0
M  V30 5588 H 529.754 0.953038 3.8951 0
M  V30 5589 H 526.344 2.35228 3.58282 0
M  V30 5590 H 530.528 3.32798 3.68183 0
M  V30 5591 H 525.784 4.72769 3.87684 0
M  V30 5592 H 529.958 5.70869 3.9885 0
M  V30 5593 H 527.585 6.41308 4.082 0
M  V30 5594 N 529.16 -1.33526 0.837174 0
M  V30 5595 C 530.437 -1.92369 0.354065 0
M  V30 5596 C 530.817 -1.76348 -1.16038 0
M  V30 5597 O 530.165 -1.15083 -1.97403 0
M  V30 5598 C 530.375 -3.39728 0.799101 0
M  V30 5599 C 531.723 -4.16877 0.806139 0
M  V30 5600 O 532.747 -3.48373 0.742597 0
M  V30 5601 O 531.606 -5.39166 0.892345 0
M  V30 5602 H 528.7 -0.820952 0.0998378 0
M  V30 5603 H 531.246 -1.42409 0.922913 0
M  V30 5604 H 530.018 -3.45254 1.84162 0
M  V30 5605 H 529.641 -3.97062 0.206731 0
M  V30 5606 N 530.638 -0.59345 -1.46 0
M  V30 5607 C 531.886 -0.082988 -2.0193 0
M  V30 5608 C 532.207 1.28569 -1.46612 0
M  V30 5609 O 531.477 1.84629 -0.654909 0
M  V30 5610 H 530.057 -0.0276882 -0.746487 0
M  V30 5611 H 532.719 -0.771657 -1.78973 0
M  V30 5612 H 531.815 -0.022079 -3.12092 0
M  V30 5613 N 532.116 1.54067 -0.331816 0
M  V30 5614 C 533.527 1.86059 0.15454 0
M  V30 5615 C 533.878 1.25331 1.50952 0
M  V30 5616 O 533.003 0.562441 2.08963 0
M  V30 5617 C 533.598 3.37581 0.287192 0
M  V30 5618 C 532.157 3.69493 0.717773 0
M  V30 5619 C 531.304 2.76863 -0.155569 0
M  V30 5620 H 534.255 1.48797 -0.55182 0
M  V30 5621 H 534.276 3.63744 1.11671 0
M  V30 5622 H 533.788 3.81751 -0.699131 0
M  V30 5623 H 531.889 3.3086 1.71354 0
M  V30 5624 H 532.002 4.76315 0.5158 0
M  V30 5625 H 530.366 2.51995 0.370213 0
M  V30 5626 H 531.149 3.23861 -1.13881 0
M  V30 5627 N 533.594 0.0601682 1.57485 0
M  V30 5628 C 534.842 -0.610386 1.92662 0
M  V30 5629 C 535.163 -1.70849 0.939981 0
M  V30 5630 O 534.433 -1.95895 -0.0137455 0
M  V30 5631 H 533.013 -0.228457 0.711208 0
M  V30 5632 H 535.675 0.115288 1.94559 0
M  V30 5633 H 534.771 -1.0432 2.94149 0
M  V30 5634 N 535.072 -1.5615 -0.213296 0
M  V30 5635 C 536.035 -1.92249 -1.24792 0
M  V30 5636 C 537.035 -0.801828 -1.39382 0
M  V30 5637 O 538.225 -1.06948 -1.37506 0
M  V30 5638 C 535.357 -2.18056 -2.62039 0
M  V30 5639 H 536.55 -2.84793 -0.939845 0
M  V30 5640 H 534.103 -1.49559 -0.454062 0
M  V30 5641 H 534.838 -1.2809 -2.97932 0
M  V30 5642 H 534.623 -2.99703 -2.52825 0
M  V30 5643 H 536.113 -2.47051 -3.36683 0
M  V30 5644 N 536.55 0.480323 -1.50102 0
M  V30 5645 C 537.5 1.57685 -1.6468 0
M  V30 5646 C 538.484 1.52878 -0.5017 0
M  V30 5647 O 539.676 1.60058 -0.755668 0
M  V30 5648 C 536.805 2.96185 -1.73578 0
M  V30 5649 C 535.891 3.0591 -2.93734 0
M  V30 5650 N 536.282 2.85471 -4.1754 0
M  V30 5651 C 534.58 3.37036 -2.92101 0
M  V30 5652 C 535.281 2.99921 -4.9842 0
M  V30 5653 N 534.257 3.29715 -4.32191 0
M  V30 5654 H 538.059 1.40568 -2.58104 0
M  V30 5655 H 535.573 0.686874 -1.47159 0
M  V30 5656 H 537.57 3.75015 -1.82124 0
M  V30 5657 H 536.23 3.14356 -0.813057 0
M  V30 5658 H 537.241 2.61235 -4.47188 0
M  V30 5659 H 533.918 3.61253 -2.09291 0
M  V30 5660 H 535.308 2.88436 -6.06839 0
M  V30 5661 N 538.028 1.39524 0.732853 0
M  V30 5662 C 539.444 1.21176 1.03868 0
M  V30 5663 C 539.644 0.0748448 2.01361 0
M  V30 5664 O 538.7 -0.57281 2.45917 0
M  V30 5665 C 540.013 2.54667 1.59892 0
M  V30 5666 C 541.561 2.6153 1.71962 0
M  V30 5667 C 542.036 3.95248 2.31394 0
M  V30 5668 N 543.527 3.96899 2.38801 0
M  V30 5669 C 544.262 4.97138 2.85729 0
M  V30 5670 N 543.758 6.07775 3.32537 0
M  V30 5671 N 545.551 4.84516 2.84957 0
M  V30 5672 H 537.702 2.12225 0.086304 0
M  V30 5673 H 539.965 0.942614 0.100907 0
M  V30 5674 H 539.671 3.38423 0.95721 0
M  V30 5675 H 539.545 2.74538 2.58668 0
M  V30 5676 H 541.932 1.78156 2.35254 0
M  V30 5677 H 542.013 2.45507 0.718327 0
M  V30 5678 H 541.657 4.79054 1.68729 0
M  V30 5679 H 541.587 4.08593 3.32204 0
M  V30 5680 H 544.078 3.16998 2.05719 0
M  V30 5681 H 544.391 6.8017 3.66862 0
M  V30 5682 H 542.736 6.11366 3.30541 0
M  V30 5683 H 545.927 3.97185 2.47713 0
M  V30 5684 H 546.1 5.62783 3.21215 0
M  V30 5685 N 539.506 -0.963266 1.24736 0
M  V30 5686 C 540.469 -2.04013 1.04457 0
M  V30 5687 C 541.469 -1.608 0.000335555 0
M  V30 5688 O 542.659 -1.72515 0.241719 0
M  V30 5689 C 539.791 -3.35858 0.584162 0
M  V30 5690 H 540.984 -2.23436 2.00041 0
M  V30 5691 H 538.537 -1.13914 1.07021 0
M  V30 5692 H 539.272 -3.22128 -0.374673 0
M  V30 5693 H 539.057 -3.68568 1.3379 0
M  V30 5694 H 540.547 -4.1502 0.463451 0
M  V30 5695 N 540.985 -1.06182 -1.16461 0
M  V30 5696 C 541.915 -0.692861 -2.22984 0
M  V30 5697 C 542.896 0.314122 -1.67174 0
M  V30 5698 O 544.081 0.189499 -1.93273 0
M  V30 5699 C 541.211 -0.07732 -3.47214 0
M  V30 5700 C 540.165 -1.01015 -4.15909 0
M  V30 5701 C 539.491 -0.257973 -5.34077 0
M  V30 5702 C 540.791 -2.33868 -4.67015 0
M  V30 5703 H 542.485 -1.58343 -2.54102 0
M  V30 5704 H 540.031 -0.76279 -1.22137 0
M  V30 5705 H 541.984 0.19266 -4.20959 0
M  V30 5706 H 540.708 0.848254 -3.15392 0
M  V30 5707 H 539.367 -1.26486 -3.44088 0
M  V30 5708 H 539.015 0.670684 -4.98509 0
M  V30 5709 H 538.715 -0.879638 -5.80979 0
M  V30 5710 H 540.239 0.00448788 -6.106 0
M  V30 5711 H 541.653 -2.1279 -5.32347 0
M  V30 5712 H 540.05 -2.91522 -5.24533 0
M  V30 5713 H 541.12 -2.97019 -3.83286 0
M  V30 5714 N 542.463 1.3308 -0.844243 0
M  V30 5715 C 543.688 2.02341 -0.455282 0
M  V30 5716 C 544.113 1.6308 0.93737 0
M  V30 5717 O 543.471 0.826118 1.61385 0
M  V30 5718 C 543.519 3.55743 -0.58988 0
M  V30 5719 O 542.623 4.1063 0.38166 0
M  V30 5720 H 541.964 0.637898 -0.184343 0
M  V30 5721 H 544.494 1.6986 -1.14056 0
M  V30 5722 H 544.504 4.05243 -0.473522 0
M  V30 5723 H 543.179 3.83662 -1.60549 0
M  V30 5724 H 541.756 3.72236 0.22241 0
M  V30 5725 N 543.941 0.601185 1.45683 0
M  V30 5726 C 545.189 0.0936957 2.01883 0
M  V30 5727 C 545.51 -1.2779 1.47291 0
M  V30 5728 O 544.78 -1.84279 0.664691 0
M  V30 5729 H 543.36 0.0316466 0.746329 0
M  V30 5730 H 546.022 0.781137 1.78562 0
M  V30 5731 H 545.118 0.0386297 3.12076 0
M  V30 5732 N 545.419 -1.53889 0.339982 0
M  V30 5733 C 546.382 -2.23547 -0.50592 0
M  V30 5734 C 547.382 -1.23445 -1.03044 0
M  V30 5735 O 548.572 -1.47909 -0.920253 0
M  V30 5736 C 545.704 -2.95234 -1.7044 0
M  V30 5737 H 546.897 -2.99722 0.103247 0
M  V30 5738 H 544.45 -1.56033 0.0912804 0
M  V30 5739 H 545.185 -2.23236 -2.35236 0
M  V30 5740 H 544.97 -3.68654 -1.33553 0
M  V30 5741 H 546.46 -3.48258 -2.30447 0
M  V30 5742 N 546.897 -0.0685191 -1.57451 0
M  V30 5743 C 548.308 0.464634 -1.80826 0
M  V30 5744 C 548.659 1.69847 -0.982169 0
M  V30 5745 O 547.784 2.15439 -0.203734 0
M  V30 5746 C 548.379 0.849721 -3.27971 0
M  V30 5747 C 546.938 1.32776 -3.52204 0
M  V30 5748 C 546.085 0.311332 -2.75547 0
M  V30 5749 H 549.036 -0.294248 -1.55948 0
M  V30 5750 H 549.057 1.71138 -3.39841 0
M  V30 5751 H 548.569 -0.0484736 -3.8807 0
M  V30 5752 H 546.67 2.24456 -2.97406 0
M  V30 5753 H 546.783 1.30794 -4.60901 0
M  V30 5754 H 545.147 0.787915 -2.42206 0
M  V30 5755 H 545.93 -0.579078 -3.38381 0
M  V30 5756 N 548.375 1.56261 0.205012 0
M  V30 5757 C 549.624 1.79236 0.925058 0
M  V30 5758 C 549.937 0.640011 1.84833 0
M  V30 5759 O 551.143 0.753809 2.60826 0
M  V30 5760 C 549.599 3.17475 1.69522 0
M  V30 5761 C 549.207 4.40482 0.817269 0
M  V30 5762 C 550.951 3.49766 2.4055 0
M  V30 5763 C 548.858 5.69744 1.58573 0
M  V30 5764 H 547.788 0.668287 0.349153 0
M  V30 5765 H 550.439 1.82629 0.178544 0
M  V30 5766 H 548.821 3.08304 2.48526 0
M  V30 5767 H 549.995 4.60752 0.0665988 0
M  V30 5768 H 548.31 4.15827 0.218316 0
M  V30 5769 H 550.907 4.43573 2.98575 0
M  V30 5770 H 551.25 2.73041 3.14252 0
M  V30 5771 H 551.783 3.60341 1.68522 0
M  V30 5772 H 548.522 6.49407 0.891679 0
M  V30 5773 H 548.042 5.53509 2.31059 0
M  V30 5774 H 549.721 6.1051 2.14212 0
M  V30 5775 N 549.853 -0.472356 1.50355 0
M  V30 5776 C 551.078 -1.25251 1.65309 0
M  V30 5777 C 551.503 -1.85081 0.335643 0
M  V30 5778 O 550.861 -1.67227 -0.700335 0
M  V30 5779 C 550.909 -2.3379 2.74544 0
M  V30 5780 O 550.013 -3.38401 2.35709 0
M  V30 5781 H 549.354 -0.368539 0.552336 0
M  V30 5782 H 551.884 -0.562271 1.96722 0
M  V30 5783 H 551.894 -2.79121 2.97583 0
M  V30 5784 H 550.569 -1.89614 3.70161 0
M  V30 5785 H 549.146 -2.9879 2.23112 0
M  V30 5786 N 551.331 -1.39911 -0.725443 0
M  V30 5787 C 552.578 -1.37654 -1.48518 0
M  V30 5788 C 552.906 0.0243982 -1.94485 0
M  V30 5789 O 552.161 1.00708 -1.67799 0
M  V30 5790 C 552.46 -2.30368 -2.7325 0
M  V30 5791 C 552.126 -3.77817 -2.461 0
M  V30 5792 C 550.788 -4.17991 -2.38405 0
M  V30 5793 C 553.14 -4.71036 -2.23103 0
M  V30 5794 C 550.468 -5.49433 -2.05768 0
M  V30 5795 C 552.82 -6.02766 -1.9198 0
M  V30 5796 C 551.484 -6.41993 -1.82761 0
M  V30 5797 H 550.754 -0.503713 -0.543465 0
M  V30 5798 H 553.401 -1.7249 -0.831822 0
M  V30 5799 H 551.706 -1.88683 -3.43375 0
M  V30 5800 H 553.403 -2.2591 -3.31309 0
M  V30 5801 H 549.993 -3.45982 -2.52972 0
M  V30 5802 H 554.177 -4.40823 -2.2801 0
M  V30 5803 H 549.433 -5.78738 -1.9716 0
M  V30 5804 H 553.607 -6.74519 -1.73197 0
M  V30 5805 H 551.234 -7.43761 -1.57237 0
M  V30 5806 N 552.809 0.956637 -1.25245 0
M  V30 5807 C 554.058 1.69537 -1.0927 0
M  V30 5808 C 554.371 1.92136 0.366503 0
M  V30 5809 O 555.577 2.63687 0.64665 0
M  V30 5810 C 554.033 3.05211 -1.9072 0
M  V30 5811 C 553.641 2.90416 -3.41119 0
M  V30 5812 C 555.385 3.82882 -1.83308 0
M  V30 5813 C 553.292 4.21468 -4.14872 0
M  V30 5814 H 552.222 0.635804 -0.405302 0
M  V30 5815 H 554.873 1.06513 -1.49423 0
M  V30 5816 H 553.255 3.69128 -1.43389 0
M  V30 5817 H 554.429 2.35444 -3.9611 0
M  V30 5818 H 552.744 2.26203 -3.49602 0
M  V30 5819 H 555.341 4.79944 -2.35706 0
M  V30 5820 H 555.684 4.0853 -0.800572 0
M  V30 5821 H 556.217 3.25711 -2.28379 0
M  V30 5822 H 552.956 4.01009 -5.18529 0
M  V30 5823 H 552.476 4.76213 -3.64665 0
M  V30 5824 H 554.155 4.90022 -4.22478 0
M  V30 5825 N 554.287 1.06798 1.15896 0
M  V30 5826 C 555.237 0.653213 2.18443 0
M  V30 5827 C 556.221 -0.318763 1.57711 0
M  V30 5828 O 557.413 -0.133388 1.76497 0
M  V30 5829 C 554.542 0.0465785 3.43268 0
M  V30 5830 C 553.628 1.04336 4.11066 0
M  V30 5831 N 554.019 2.22084 4.54436 0
M  V30 5832 C 552.317 0.875433 4.37324 0
M  V30 5833 C 553.018 2.85276 5.06944 0
M  V30 5834 N 551.994 2.12973 5.00143 0
M  V30 5835 H 555.796 1.55011 2.49698 0
M  V30 5836 H 553.31 0.940384 1.32403 0
M  V30 5837 H 555.307 -0.26843 4.16035 0
M  V30 5838 H 553.967 -0.845504 3.13499 0
M  V30 5839 H 554.978 2.59833 4.48004 0
M  V30 5840 H 551.655 0.0357721 4.17485 0
M  V30 5841 H 553.045 3.85223 5.50503 0
M  V30 5842 N 555.766 -1.3263 0.851289 0
M  V30 5843 C 556.696 -2.31449 0.308771 0
M  V30 5844 C 557.677 -1.59531 -0.590255 0
M  V30 5845 O 558.862 -1.87351 -0.511205 0
M  V30 5846 C 555.992 -3.43586 -0.506548 0
M  V30 5847 C 554.946 -4.26963 0.297753 0
M  V30 5848 C 554.272 -5.30831 -0.642094 0
M  V30 5849 C 555.572 -4.99643 1.52166 0
M  V30 5850 H 557.266 -2.77074 1.13447 0
M  V30 5851 H 554.812 -1.33207 0.546971 0
M  V30 5852 H 556.765 -4.11754 -0.896474 0
M  V30 5853 H 555.489 -2.96681 -1.36558 0
M  V30 5854 H 554.148 -3.60437 0.669391 0
M  V30 5855 H 553.796 -4.8018 -1.49788 0
M  V30 5856 H 553.496 -5.87501 -0.107968 0
M  V30 5857 H 555.02 -6.01862 -1.02927 0
M  V30 5858 H 556.434 -5.6051 1.20421 0
M  V30 5859 H 554.831 -5.66022 1.99347 0
M  V30 5860 H 555.901 -4.27701 2.28474 0
M  V30 5861 N 557.244 -0.608902 -1.45362 0
M  V30 5862 C 558.174 0.0964526 -2.33301 0
M  V30 5863 C 559.155 0.857444 -1.46908 0
M  V30 5864 O 560.34 0.827735 -1.75676 0
M  V30 5865 C 557.47 1.09354 -3.29635 0
M  V30 5866 C 556.424 0.445676 -4.25673 0
M  V30 5867 C 555.75 1.5511 -5.11708 0
M  V30 5868 C 557.05 -0.633972 -5.18438 0
M  V30 5869 H 558.744 -0.637829 -2.92527 0
M  V30 5870 H 556.29 -0.308178 -1.40664 0
M  V30 5871 H 558.243 1.59556 -3.90025 0
M  V30 5872 H 556.967 1.85843 -2.6857 0
M  V30 5873 H 555.626 -0.0354897 -3.66583 0
M  V30 5874 H 555.274 2.30631 -4.4701 0
M  V30 5875 H 554.974 1.12311 -5.76767 0
M  V30 5876 H 556.498 2.05537 -5.74967 0
M  V30 5877 H 557.912 -0.215974 -5.72893 0
M  V30 5878 H 556.309 -0.983789 -5.91981 0
M  V30 5879 H 557.379 -1.51005 -4.60788 0
M  V30 5880 N 558.722 1.53707 -0.348139 0
M  V30 5881 C 559.947 2.05877 0.250883 0
M  V30 5882 C 560.372 1.22115 1.43072 0
M  V30 5883 O 559.73 0.235986 1.79758 0
M  V30 5884 C 559.778 3.54886 0.639416 0
M  V30 5885 O 558.882 3.73948 1.73888 0
M  V30 5886 H 558.223 0.662754 0.040653 0
M  V30 5887 H 560.753 1.98303 -0.503685 0
M  V30 5888 H 560.763 3.97601 0.915295 0
M  V30 5889 H 559.438 4.153 -0.223386 0
M  V30 5890 H 558.015 3.43134 1.45991 0
M  V30 5891 N 560.2 0.0768682 1.57412 0
M  V30 5892 C 561.43 -0.5991 1.97723 0
M  V30 5893 C 561.838 -1.63378 0.954166 0
M  V30 5894 O 561.181 -1.83578 -0.0668706 0
M  V30 5895 C 561.243 -1.32078 3.34358 0
M  V30 5896 C 560.907 -0.438985 4.54887 0
M  V30 5897 C 561.904 0.305492 5.19002 0
M  V30 5898 C 559.589 -0.362378 5.00991 0
M  V30 5899 C 561.583 1.11475 6.27576 0
M  V30 5900 C 559.27 0.450543 6.09437 0
M  V30 5901 C 560.268 1.18777 6.72593 0
M  V30 5902 O 559.956 1.98727 7.7895 0
M  V30 5903 H 559.688 -0.166725 0.655117 0
M  V30 5904 H 562.242 0.147337 2.04871 0
M  V30 5905 H 560.472 -2.1134 3.2384 0
M  V30 5906 H 562.161 -1.88949 3.5924 0
M  V30 5907 H 562.927 0.25593 4.84324 0
M  V30 5908 H 558.806 -0.925832 4.51608 0
M  V30 5909 H 562.35 1.69068 6.76803 0
M  V30 5910 H 558.247 0.501651 6.43548 0
M  V30 5911 H 559.015 1.91214 7.95851 0
M  V30 5912 N 561.678 -1.56367 -0.196722 0
M  V30 5913 C 562.641 -1.93561 -1.22746 0
M  V30 5914 C 563.641 -0.816566 -1.38524 0
M  V30 5915 O 564.831 -1.084 -1.36363 0
M  V30 5916 C 561.963 -2.20823 -2.59712 0
M  V30 5917 H 563.156 -2.85774 -0.909586 0
M  V30 5918 H 560.709 -1.50032 -0.438174 0
M  V30 5919 H 561.444 -1.31243 -2.96557 0
M  V30 5920 H 561.229 -3.02368 -2.49632 0
M  V30 5921 H 562.719 -2.50608 -3.34044 0
M  V30 5922 N 563.156 0.464375 -1.50603 0
M  V30 5923 C 564.381 1.24372 -1.65971 0
M  V30 5924 C 564.806 1.84901 -0.345453 0
M  V30 5925 O 564.164 1.67596 0.691457 0
M  V30 5926 C 564.212 2.32331 -2.7578 0
M  V30 5927 O 563.316 3.37146 -2.375 0
M  V30 5928 H 562.657 0.365604 -0.554283 0
M  V30 5929 H 565.187 0.55183 -1.97018 0
M  V30 5930 H 565.197 2.77539 -2.99059 0
M  V30 5931 H 563.872 1.87648 -3.71162 0
M  V30 5932 H 562.449 2.97602 -2.24694 0
M  V30 5933 N 564.634 1.40294 0.718013 0
M  V30 5934 C 565.597 1.4012 1.81381 0
M  V30 5935 C 566.597 0.295405 1.58063 0
M  V30 5936 O 567.787 0.554187 1.6515 0
M  V30 5937 C 564.919 1.19056 3.19435 0
M  V30 5938 H 566.112 2.37645 1.82933 0
M  V30 5939 H 563.665 1.26107 0.923405 0
M  V30 5940 H 564.4 0.222809 3.23534 0
M  V30 5941 H 564.185 1.99152 3.37758 0
M  V30 5942 H 565.675 1.21716 3.99468 0
M  V30 5943 N 566.112 -0.949982 1.2575 0
M  V30 5944 C 567.352 -1.70994 1.11984 0
M  V30 5945 C 567.716 -1.89095 -0.332746 0
M  V30 5946 O 568.917 -2.62192 -0.592331 0
M  V30 5947 C 567.188 -3.05286 1.85837 0
M  V30 5948 S 568.747 -3.96477 1.88019 0
M  V30 5949 H 565.565 -0.587689 0.400178 0
M  V30 5950 H 568.167 -1.13271 1.59342 0
M  V30 5951 H 566.871 -2.89785 2.90608 0
M  V30 5952 H 566.402 -3.68069 1.38885 0
M  V30 5953 H 568.417 -4.86814 0.96057 0
M  V30 5954 N 567.59 -1.07411 -1.15328 0
M  V30 5955 C 568.836 -0.798831 -1.86404 0
M  V30 5956 C 569.169 0.673433 -1.8215 0
M  V30 5957 O 568.444 1.49428 -1.24505 0
M  V30 5958 C 568.727 -1.30846 -3.35487 0
M  V30 5959 C 568.58 -2.84532 -3.4837 0
M  V30 5960 C 569.899 -0.925486 -4.30259 0
M  V30 5961 H 567.018 -0.291659 -0.676834 0
M  V30 5962 H 569.66 -1.332 -1.35491 0
M  V30 5963 H 567.81 -0.854916 -3.78977 0
M  V30 5964 H 569.482 -3.3818 -3.13739 0
M  V30 5965 H 567.725 -3.22699 -2.8991 0
M  V30 5966 H 568.396 -3.15259 -4.53118 0
M  V30 5967 H 570.872 -1.3163 -3.94731 0
M  V30 5968 H 569.748 -1.3094 -5.33053 0
M  V30 5969 H 570.009 0.168525 -4.41779 0
M  V30 5970 N 569.068 1.32177 -0.85831 0
M  V30 5971 C 570.016 2.30729 -0.294442 0
M  V30 5972 C 571.01 1.59009 0.584165 0
M  V30 5973 O 572.216 1.73713 0.471562 0
M  V30 5974 H 568.591 0.748097 -0.0765171 0
M  V30 5975 H 570.562 2.75774 -1.1398 0
M  V30 5976 C 569.311 3.44098 0.499208 0
M  V30 5977 H 568.634 3.99449 -0.167579 0
M  V30 5978 H 570.074 4.15202 0.859273 0
M  V30 5979 C 568.533 2.91684 1.68588 0
M  V30 5980 O 569.063 2.89481 2.78503 0
M  V30 5981 N 567.269 2.48036 1.51415 0
M  V30 5982 H 566.816 2.50027 0.620006 0
M  V30 5983 H 566.774 2.13322 2.30957 0
M  V30 5984 N 570.547 0.616602 1.45037 0
M  V30 5985 C 571.958 0.199359 1.85633 0
M  V30 5986 C 572.309 -1.24588 1.51566 0
M  V30 5987 O 571.434 -1.94594 0.94668 0
M  V30 5988 C 572.029 0.355033 3.36935 0
M  V30 5989 C 570.588 -0.00758748 3.76399 0
M  V30 5990 C 569.735 0.675256 2.68953 0
M  V30 5991 H 572.686 0.822708 1.3571 0
M  V30 5992 H 572.707 -0.410201 3.78282 0
M  V30 5993 H 572.219 1.40699 3.61698 0
M  V30 5994 H 570.32 -1.05837 3.57252 0
M  V30 5995 H 570.433 0.392346 4.77491 0
M  V30 5996 H 568.797 0.111992 2.54454 0
M  V30 5997 H 569.58 1.72952 2.96551 0
M  V30 5998 N 572.025 -1.5352 0.356285 0
M  V30 5999 C 572.955 -2.28372 -0.486661 0
M  V30 6000 C 573.936 -1.30432 -1.09185 0
M  V30 6001 O 575.121 -1.59291 -1.11085 0
M  V30 6002 C 572.251 -3.06604 -1.63129 0
M  V30 6003 C 571.205 -4.12154 -1.15381 0
M  V30 6004 C 570.531 -4.78415 -2.38796 0
M  V30 6005 C 571.831 -5.21724 -0.245179 0
M  V30 6006 H 573.525 -2.99083 0.137797 0
M  V30 6007 H 571.071 -1.43841 0.0677134 0
M  V30 6008 H 573.024 -3.57712 -2.22755 0
M  V30 6009 H 571.748 -2.33568 -2.28284 0
M  V30 6010 H 570.407 -3.61978 -0.580294 0
M  V30 6011 H 570.055 -4.01959 -3.02387 0
M  V30 6012 H 569.755 -5.49734 -2.07524 0
M  V30 6013 H 571.279 -5.32313 -2.99125 0
M  V30 6014 H 572.693 -5.68391 -0.748646 0
M  V30 6015 H 571.09 -6.00095 -0.0237608 0
M  V30 6016 H 572.16 -4.79596 0.715229 0
M  V30 6017 N 573.503 -0.0852151 -1.57369 0
M  V30 6018 C 574.749 0.581666 -1.94279 0
M  V30 6019 C 575.082 1.68444 -0.966446 0
M  V30 6020 O 574.357 1.945 0.00215277 0
M  V30 6021 C 574.64 1.14609 -3.41375 0
M  V30 6022 C 574.493 0.0490414 -4.49773 0
M  V30 6023 C 575.812 2.04751 -3.8957 0
M  V30 6024 H 572.931 0.209972 -0.706456 0
M  V30 6025 H 575.573 -0.153915 -1.89376 0
M  V30 6026 H 573.723 1.77297 -3.45685 0
M  V30 6027 H 575.395 -0.584721 -4.57579 0
M  V30 6028 H 573.638 -0.618638 -4.29366 0
M  V30 6029 H 574.309 0.484601 -5.49869 0
M  V30 6030 H 576.785 1.51981 -3.87351 0
M  V30 6031 H 575.661 2.41173 -4.93079 0
M  V30 6032 H 575.922 2.96107 -3.28288 0
M  V30 6033 N 574.981 1.5647 0.188427 0
M  V30 6034 C 576.211 1.84863 0.922463 0
M  V30 6035 C 576.619 0.666413 1.77075 0
M  V30 6036 O 575.962 -0.374044 1.79852 0
M  V30 6037 C 576.024 3.07447 1.86324 0
M  V30 6038 C 575.688 4.41066 1.19625 0
M  V30 6039 C 576.685 5.16767 0.569946 0
M  V30 6040 C 574.37 4.87802 1.19811 0
M  V30 6041 C 576.364 6.37384 -0.045594 0
M  V30 6042 C 574.051 6.08353 0.57874 0
M  V30 6043 C 575.049 6.82987 -0.0420259 0
M  V30 6044 O 574.737 8.01254 -0.651675 0
M  V30 6045 H 574.469 0.61784 0.274316 0
M  V30 6046 H 577.023 2.04437 0.198613 0
M  V30 6047 H 575.253 2.83774 2.62696 0
M  V30 6048 H 576.942 3.2243 2.46564 0
M  V30 6049 H 577.708 4.81749 0.560601 0
M  V30 6050 H 573.587 4.29662 1.67069 0
M  V30 6051 H 577.131 6.95578 -0.530731 0
M  V30 6052 H 573.028 6.42838 0.58561 0
M  V30 6053 H 573.796 8.16655 -0.549236 0
M  V30 6054 N 576.459 -0.456382 1.50847 0
M  V30 6055 C 577.699 -1.21704 1.64218 0
M  V30 6056 C 578.063 -1.88932 0.341859 0
M  V30 6057 O 579.264 -2.66497 0.351137 0
M  V30 6058 C 577.535 -2.22162 2.79962 0
M  V30 6059 S 579.094 -3.0697 3.13552 0
M  V30 6060 H 575.912 -0.412995 0.578754 0
M  V30 6061 H 578.514 -0.511637 1.88686 0
M  V30 6062 H 577.218 -1.71379 3.72904 0
M  V30 6063 H 576.749 -2.9731 2.57624 0
M  V30 6064 H 578.764 -4.23539 2.58513 0
M  V30 6065 N 577.937 -1.40673 -0.710563 0
M  V30 6066 C 579.184 -1.39222 -1.47049 0
M  V30 6067 C 579.512 0.0037691 -1.945 0
M  V30 6068 O 578.767 0.989224 -1.68857 0
M  V30 6069 C 579.066 -2.33253 -2.70791 0
M  V30 6070 C 578.732 -3.80406 -2.42079 0
M  V30 6071 C 577.394 -4.20496 -2.33959 0
M  V30 6072 C 579.746 -4.73375 -2.18094 0
M  V30 6073 C 577.074 -5.51584 -1.99929 0
M  V30 6074 C 579.426 -6.04768 -1.85576 0
M  V30 6075 C 578.09 -6.43895 -1.75941 0
M  V30 6076 H 577.36 -0.509449 -0.538092 0
M  V30 6077 H 580.007 -1.73363 -0.81348 0
M  V30 6078 H 578.312 -1.92314 -3.41354 0
M  V30 6079 H 580.009 -2.29412 -3.28894 0
M  V30 6080 H 576.599 -3.48645 -2.49288 0
M  V30 6081 H 580.783 -4.43217 -2.23321 0
M  V30 6082 H 576.039 -5.80797 -1.91011 0
M  V30 6083 H 580.213 -6.76318 -1.66033 0
M  V30 6084 H 577.84 -7.45387 -1.4934 0
M  V30 6085 N 579.415 0.9433 -1.26252 0
M  V30 6086 C 580.348 2.04162 -1.01946 0
M  V30 6087 C 581.326 1.62507 0.0550808 0
M  V30 6088 O 582.51 1.883 -0.0869025 0
M  V30 6089 C 579.637 3.34313 -0.54335 0
M  V30 6090 C 578.683 3.94939 -1.61013 0
M  V30 6091 S 579.516 4.29484 -3.19849 0
M  V30 6092 C 580.672 5.62738 -2.74001 0
M  V30 6093 H 580.905 2.24466 -1.94942 0
M  V30 6094 H 578.438 1.08441 -1.09909 0
M  V30 6095 H 580.396 4.09576 -0.275315 0
M  V30 6096 H 579.057 3.11957 0.36629 0
M  V30 6097 H 578.25 4.88812 -1.22795 0
M  V30 6098 H 577.852 3.26202 -1.82943 0
M  V30 6099 H 580.144 6.41356 -2.18333 0
M  V30 6100 H 581.087 6.05839 -3.66558 0
M  V30 6101 H 581.495 5.22514 -2.13634 0
M  V30 6102 N 580.893 1.08022 1.14757 0
M  V30 6103 C 581.843 0.676345 2.17737 0
M  V30 6104 C 582.827 -0.302018 1.5804 0
M  V30 6105 O 584.019 -0.11466 1.76628 0
M  V30 6106 C 581.148 0.082984 3.432 0
M  V30 6107 C 580.234 1.0869 4.09936 0
M  V30 6108 N 580.625 2.26891 4.52055 0
M  V30 6109 C 578.923 0.921768 4.36371 0
M  V30 6110 C 579.624 2.90636 5.0389 0
M  V30 6111 N 578.6 2.18266 4.97856 0
M  V30 6112 H 582.402 1.5765 2.4804 0
M  V30 6113 H 579.916 0.954374 1.31398 0
M  V30 6114 H 581.913 -0.224289 4.16296 0
M  V30 6115 H 580.573 -0.812206 3.14378 0
M  V30 6116 H 581.584 2.6457 4.45223 0
M  V30 6117 H 578.261 0.0800499 4.17423 0
M  V30 6118 H 579.651 3.9104 5.46386 0
M  V30 6119 N 582.371 -1.3172 0.865308 0
M  V30 6120 C 583.787 -1.4958 0.556596 0
M  V30 6121 C 583.987 -1.79763 -0.910353 0
M  V30 6122 O 583.043 -1.87351 -1.6928 0
M  V30 6123 C 584.356 -2.63277 1.45279 0
M  V30 6124 C 585.904 -2.77161 1.45433 0
M  V30 6125 C 586.379 -3.93949 2.33598 0
M  V30 6126 N 587.87 -4.01228 2.31453 0
M  V30 6127 C 588.605 -4.90855 2.96393 0
M  V30 6128 N 588.101 -5.85416 3.70486 0
M  V30 6129 N 589.894 -4.84063 2.85726 0
M  V30 6130 H 582.045 -1.10396 1.81456 0
M  V30 6131 H 584.308 -0.54507 0.775631 0
M  V30 6132 H 584.014 -2.47734 2.49641 0
M  V30 6133 H 583.888 -3.59309 1.14792 0
M  V30 6134 H 586.275 -2.9212 0.41831 0
M  V30 6135 H 586.356 -1.8181 1.79941 0
M  V30 6136 H 586 -3.79748 3.37274 0
M  V30 6137 H 585.93 -4.88598 1.96417 0
M  V30 6138 H 588.421 -3.3357 1.77593 0
M  V30 6139 H 588.734 -6.50525 4.17178 0
M  V30 6140 H 587.079 -5.85409 3.74594 0
M  V30 6141 H 590.27 -4.09163 2.27384 0
M  V30 6142 H 590.443 -5.53708 3.36617 0
M  V30 6143 N 583.85 -0.624285 -1.44708 0
M  V30 6144 C 585.266 -0.289322 -1.56956 0
M  V30 6145 C 585.466 1.20773 -1.61295 0
M  V30 6146 O 584.522 1.9915 -1.55227 0
M  V30 6147 C 585.835 -0.975215 -2.84447 0
M  V30 6148 C 587.383 -0.952709 -2.98148 0
M  V30 6149 C 587.858 -1.61893 -4.28433 0
M  V30 6150 N 589.349 -1.5852 -4.35231 0
M  V30 6151 C 590.084 -2.06969 -5.34744 0
M  V30 6152 N 589.58 -2.63579 -6.40701 0
M  V30 6153 N 591.373 -1.97638 -5.26209 0
M  V30 6154 H 583.524 -1.59612 -1.40135 0
M  V30 6155 H 585.787 -0.669592 -0.671081 0
M  V30 6156 H 585.493 -2.02999 -2.87201 0
M  V30 6157 H 585.367 -0.508749 -3.73753 0
M  V30 6158 H 587.754 0.093568 -2.94952 0
M  V30 6159 H 587.835 -1.4576 -2.10209 0
M  V30 6160 H 587.479 -2.66463 -4.32389 0
M  V30 6161 H 587.409 -1.08893 -5.15218 0
M  V30 6162 H 589.899 -1.17183 -3.59272 0
M  V30 6163 H 590.213 -2.98298 -7.12908 0
M  V30 6164 H 588.558 -2.67626 -6.41406 0
M  V30 6165 H 591.749 -1.5314 -4.42341 0
M  V30 6166 H 591.922 -2.35708 -6.03611 0
M  V30 6167 N 585.328 1.53329 -0.364422 0
M  V30 6168 C 586.575 2.01239 0.225634 0
M  V30 6169 C 586.903 1.25172 1.48869 0
M  V30 6170 O 586.158 0.333289 1.92841 0
M  V30 6171 C 586.457 3.52911 0.564661 0
M  V30 6172 C 586.123 4.46837 -0.603936 0
M  V30 6173 C 584.785 4.72234 -0.924585 0
M  V30 6174 C 587.137 5.02409 -1.38691 0
M  V30 6175 C 584.465 5.50454 -2.0302 0
M  V30 6176 C 586.817 5.81836 -2.48293 0
M  V30 6177 C 585.481 6.0552 -2.80894 0
M  V30 6178 H 584.751 0.736386 0.0825654 0
M  V30 6179 H 587.398 1.84948 -0.496645 0
M  V30 6180 H 585.703 3.67144 1.36794 0
M  V30 6181 H 587.4 3.87455 1.03344 0
M  V30 6182 H 583.99 4.27217 -0.343983 0
M  V30 6183 H 588.174 4.82735 -1.15243 0
M  V30 6184 H 583.43 5.67024 -2.28678 0
M  V30 6185 H 587.604 6.23905 -3.0938 0
M  V30 6186 H 585.231 6.65916 -3.66688 0
M  V30 6187 N 586.806 0.0935595 1.57322 0
M  V30 6188 C 588.222 -0.263091 1.57417 0
M  V30 6189 C 588.422 -1.68526 1.1046 0
M  V30 6190 O 587.478 -2.40139 0.780357 0
M  V30 6191 C 588.791 -0.0529201 3.00653 0
M  V30 6192 C 590.339 -0.120788 3.12767 0
M  V30 6193 C 590.814 0.0613707 4.57959 0
M  V30 6194 N 592.305 0.00648534 4.632 0
M  V30 6195 C 593.04 0.122699 5.73269 0
M  V30 6196 N 592.536 0.29366 6.92177 0
M  V30 6197 N 594.329 0.0640787 5.62063 0
M  V30 6198 H 586.48 1.02277 1.86154 0
M  V30 6199 H 588.743 0.4007 0.859153 0
M  V30 6200 H 588.449 0.929279 3.39201 0
M  V30 6201 H 588.323 -0.795899 3.68708 0
M  V30 6202 H 590.71 -1.09349 2.74093 0
M  V30 6203 H 590.791 0.653656 2.47307 0
M  V30 6204 H 590.435 1.03093 4.97327 0
M  V30 6205 H 590.365 -0.732748 5.21477 0
M  V30 6206 H 592.856 -0.123173 3.77699 0
M  V30 6207 H 593.169 0.37389 7.71895 0
M  V30 6208 H 591.514 0.329307 6.94219 0
M  V30 6209 H 594.705 -0.0683396 4.6805 0
M  V30 6210 H 594.878 0.158097 6.47807 0
M  V30 6211 N 588.284 -1.56567 -0.180126 0
M  V30 6212 C 589.216 -1.92275 -1.24751 0
M  V30 6213 C 590.229 -0.814922 -1.40936 0
M  V30 6214 O 591.418 -1.09336 -1.41095 0
M  V30 6215 C 588.518 -2.15265 -2.61752 0
M  V30 6216 C 587.691 -3.46467 -2.66981 0
M  V30 6217 C 586.75 -3.58391 -3.85283 0
M  V30 6218 O 585.776 -4.31086 -3.7169 0
M  V30 6219 N 586.978 -2.92587 -5.01371 0
M  V30 6220 H 589.743 -2.84435 -0.944302 0
M  V30 6221 H 587.304 -1.57617 -0.369952 0
M  V30 6222 H 589.296 -2.20515 -3.39345 0
M  V30 6223 H 587.866 -1.29533 -2.845 0
M  V30 6224 H 587.086 -3.52953 -1.75549 0
M  V30 6225 H 588.374 -4.32819 -2.67479 0
M  V30 6226 H 587.772 -2.3338 -5.15316 0
M  V30 6227 H 586.329 -3.03444 -5.76858 0
M  V30 6228 N 589.762 0.448376 -1.51087 0
M  V30 6229 C 590.725 1.52588 -1.71025 0
M  V30 6230 C 591.725 1.49958 -0.580442 0
M  V30 6231 O 592.915 1.52176 -0.847833 0
M  V30 6232 C 590.047 2.92163 -1.75652 0
M  V30 6233 H 591.24 1.36218 -2.67179 0
M  V30 6234 H 588.793 0.676313 -1.4091 0
M  V30 6235 H 589.528 3.13951 -0.812724 0
M  V30 6236 H 589.313 2.95478 -2.57751 0
M  V30 6237 H 590.803 3.70349 -1.92953 0
M  V30 6238 N 591.24 1.41047 0.703093 0
M  V30 6239 C 592.48 1.41461 1.4754 0
M  V30 6240 C 592.844 0.0199013 1.9199 0
M  V30 6241 O 594.045 -0.101138 2.6861 0
M  V30 6242 C 592.316 2.38703 2.66 0
M  V30 6243 S 593.875 2.57582 3.55242 0
M  V30 6244 H 590.693 0.501226 0.504275 0
M  V30 6245 H 593.295 1.77422 0.821074 0
M  V30 6246 H 591.999 3.3885 2.31536 0
M  V30 6247 H 591.53 2.04069 3.36333 0
M  V30 6248 H 593.545 1.83758 4.6092 0
M  V30 6249 N 592.718 -0.936591 1.26751 0
M  V30 6250 C 593.648 -2.05315 1.11212 0
M  V30 6251 C 594.629 -1.70092 0.0160262 0
M  V30 6252 O 595.814 -1.93279 0.188894 0
M  V30 6253 C 592.944 -3.39123 0.749171 0
M  V30 6254 C 591.898 -3.88425 1.79751 0
M  V30 6255 C 591.224 -5.18936 1.28876 0
M  V30 6256 C 592.524 -4.12798 3.19992 0
M  V30 6257 H 594.218 -2.18573 2.04613 0
M  V30 6258 H 591.764 -1.05027 0.985159 0
M  V30 6259 H 593.717 -4.16704 0.627323 0
M  V30 6260 H 592.441 -3.25855 -0.220543 0
M  V30 6261 H 591.1 -3.13028 1.90811 0
M  V30 6262 H 590.748 -5.02051 0.308757 0
M  V30 6263 H 590.448 -5.52892 1.98958 0
M  V30 6264 H 591.972 -5.99096 1.17967 0
M  V30 6265 H 593.386 -4.80977 3.11983 0
M  V30 6266 H 591.783 -4.58044 3.87705 0
M  V30 6267 H 592.853 -3.18412 3.65707 0
M  V30 6268 N 594.196 -1.08629 -1.14182 0
M  V30 6269 C 595.106 -0.730126 -2.22949 0
M  V30 6270 C 596.122 0.26436 -1.7198 0
M  V30 6271 O 597.298 0.107742 -2.01112 0
M  V30 6272 C 594.363 -0.147227 -3.46387 0
M  V30 6273 C 593.424 -1.19662 -4.12286 0
M  V30 6274 C 592.657 -0.641437 -5.29831 0
M  V30 6275 O 592.88 0.538351 -5.67854 0
M  V30 6276 O 591.814 -1.39257 -5.85569 0
M  V30 6277 H 595.64 -1.63753 -2.55771 0
M  V30 6278 H 593.225 -0.860118 -1.22157 0
M  V30 6279 H 595.107 0.174923 -4.21037 0
M  V30 6280 H 593.782 0.733304 -3.15285 0
M  V30 6281 H 592.689 -1.57133 -3.395 0
M  V30 6282 H 594.022 -2.0495 -4.475 0
M  V30 6283 N 595.674 1.31259 -0.872281 0
M  V30 6284 C 596.902 2.00795 -0.498907 0
M  V30 6285 C 597.317 1.65464 0.909238 0
M  V30 6286 O 596.674 0.885073 1.59602 0
M  V30 6287 C 596.725 3.55625 -0.649092 0
M  V30 6288 O 596.446 3.89692 -2.00179 0
M  V30 6289 C 597.947 4.42434 -0.277034 0
M  V30 6290 H 595.167 0.642299 -0.194145 0
M  V30 6291 H 597.711 1.67438 -1.17408 0
M  V30 6292 H 595.866 3.87394 -0.0214402 0
M  V30 6293 H 596.28 4.84407 -2.01122 0
M  V30 6294 H 597.754 5.50299 -0.433064 0
M  V30 6295 H 598.231 4.32146 0.783989 0
M  V30 6296 H 598.837 4.16086 -0.880483 0
M  V30 6297 N 597.152 0.631951 1.44375 0
M  V30 6298 C 598.392 0.14009 2.03919 0
M  V30 6299 C 598.756 -1.21534 1.48639 0
M  V30 6300 O 599.957 -1.79936 1.99691 0
M  V30 6301 C 598.228 0.127174 3.57174 0
M  V30 6302 S 599.787 -0.299946 4.37774 0
M  V30 6303 H 596.605 0.0614891 0.708336 0
M  V30 6304 H 599.207 0.835524 1.76746 0
M  V30 6305 H 597.911 1.11676 3.94913 0
M  V30 6306 H 597.442 -0.589482 3.88958 0
M  V30 6307 H 599.457 -1.54396 4.71568 0
M  V30 6308 N 598.631 -1.53133 0.372548 0
M  V30 6309 C 599.594 -2.24569 -0.458389 0
M  V30 6310 C 600.594 -1.25603 -1.00402 0
M  V30 6311 O 601.784 -1.49827 -0.888672 0
M  V30 6312 C 598.916 -2.98783 -1.6414 0
M  V30 6313 H 600.109 -2.99436 0.166799 0
M  V30 6314 H 597.662 -1.55805 0.124357 0
M  V30 6315 H 598.397 -2.28176 -2.30448 0
M  V30 6316 H 598.182 -3.71404 -1.25704 0
M  V30 6317 H 599.672 -3.53068 -2.23008 0
M  V30 6318 N 600.109 -0.101901 -1.5727 0
M  V30 6319 C 601.525 0.254739 -1.57554 0
M  V30 6320 C 601.725 1.67937 -1.11352 0
M  V30 6321 O 600.781 2.39722 -0.793081 0
M  V30 6322 C 602.094 0.036975 -3.00677 0
M  V30 6323 C 603.642 0.104199 -3.12827 0
M  V30 6324 C 604.117 -0.0856565 -4.5792 0
M  V30 6325 N 605.608 -0.0310498 -4.6319 0
M  V30 6326 C 606.343 -0.153099 -5.73196 0
M  V30 6327 N 605.839 -0.330364 -6.92012 0
M  V30 6328 N 607.632 -0.0938854 -5.62022 0
M  V30 6329 H 599.783 -1.03263 -1.85609 0
M  V30 6330 H 602.046 -0.405251 -0.857016 0
M  V30 6331 H 601.752 -0.947254 -3.38703 0
M  V30 6332 H 601.626 0.776335 -3.69124 0
M  V30 6333 H 604.013 1.07894 -2.74669 0
M  V30 6334 H 604.094 -0.666762 -2.46957 0
M  V30 6335 H 603.738 -1.05729 -4.96773 0
M  V30 6336 H 603.668 0.705082 -5.21858 0
M  V30 6337 H 606.159 0.103141 -3.77759 0
M  V30 6338 H 606.472 -0.41482 -7.71686 0
M  V30 6339 H 604.817 -0.366119 -6.94035 0
M  V30 6340 H 608.008 0.0435168 -4.6808 0
M  V30 6341 H 608.181 -0.19245 -6.47714 0
M  V30 6342 N 601.587 1.56661 0.17182 0
M  V30 6343 C 602.827 1.83762 0.895029 0
M  V30 6344 C 603.191 0.682752 1.79451 0
M  V30 6345 O 604.392 0.834208 2.55528 0
M  V30 6346 C 602.663 3.15976 1.67015 0
M  V30 6347 S 604.222 3.64558 2.44219 0
M  V30 6348 H 601.04 0.644713 0.299778 0
M  V30 6349 H 603.642 1.94871 0.156701 0
M  V30 6350 H 602.346 3.98021 1.00039 0
M  V30 6351 H 601.877 3.07807 2.44986 0
M  V30 6352 H 603.892 3.31845 3.68909 0
M  V30 6353 N 603.065 -0.440357 1.51323 0
M  V30 6354 C 604.305 -1.19956 1.65499 0
M  V30 6355 C 604.669 -1.88559 0.361878 0
M  V30 6356 O 605.87 -2.66109 0.379383 0
M  V30 6357 C 604.141 -2.1918 2.82303 0
M  V30 6358 S 605.7 -3.03627 3.1679 0
M  V30 6359 H 602.518 -0.406833 0.583102 0
M  V30 6360 H 605.12 -0.491596 1.89218 0
M  V30 6361 H 603.824 -1.67414 3.74701 0
M  V30 6362 H 603.355 -2.94561 2.60763 0
M  V30 6363 H 605.37 -4.20773 2.62991 0
M  V30 6364 N 604.543 -1.41418 -0.695603 0
M  V30 6365 C 605.954 -1.36335 -1.27552 0
M  V30 6366 C 606.305 -0.0464336 -1.96145 0
M  V30 6367 O 605.43 0.855304 -1.9878 0
M  V30 6368 C 606.025 -2.46941 -2.3196 0
M  V30 6369 C 604.584 -2.45256 -2.85529 0
M  V30 6370 C 603.731 -2.2679 -1.59566 0
M  V30 6371 H 606.682 -1.50934 -0.490362 0
M  V30 6372 H 606.703 -2.15997 -3.1325 0
M  V30 6373 H 606.215 -3.42775 -1.82008 0
M  V30 6374 H 604.316 -1.53179 -3.39657 0
M  V30 6375 H 604.429 -3.41565 -3.35961 0
M  V30 6376 H 602.793 -1.74667 -1.85374 0
M  V30 6377 H 603.576 -3.24651 -1.1161 0
M  V30 6378 N 606.021 0.929856 -1.27246 0
M  V30 6379 C 607.437 1.20542 -1.04603 0
M  V30 6380 C 607.637 2.00276 0.221754 0
M  V30 6381 O 606.693 2.34835 0.927833 0
M  V30 6382 C 608.006 1.95566 -2.28417 0
M  V30 6383 C 609.554 2.08513 -2.33433 0
M  V30 6384 C 610.029 2.86943 -3.5697 0
M  V30 6385 N 611.52 2.94512 -3.57515 0
M  V30 6386 C 612.255 3.55656 -4.49774 0
M  V30 6387 N 611.751 4.18209 -5.52334 0
M  V30 6388 N 613.544 3.53038 -4.37402 0
M  V30 6389 H 605.695 0.397113 -2.08655 0
M  V30 6390 H 607.958 0.238277 -0.917566 0
M  V30 6391 H 607.664 1.44395 -3.20691 0
M  V30 6392 H 607.538 2.9619 -2.33563 0
M  V30 6393 H 609.925 2.58872 -1.41666 0
M  V30 6394 H 610.006 1.07117 -2.32292 0
M  V30 6395 H 609.65 2.37268 -4.49072 0
M  V30 6396 H 609.58 3.8862 -3.55362 0
M  V30 6397 H 612.071 2.50053 -2.83341 0
M  V30 6398 H 612.384 4.62796 -6.18902 0
M  V30 6399 H 610.729 4.16761 -5.56179 0
M  V30 6400 H 613.92 3.0337 -3.56489 0
M  V30 6401 H 614.093 4.004 -5.09493 0
M  V30 6402 N 607.499 1.09233 1.13605 0
M  V30 6403 C 608.91 0.846839 1.6639 0
M  V30 6404 C 609.261 -0.625031 1.85978 0
M  V30 6405 O 608.386 -1.48173 1.57714 0
M  V30 6406 C 608.981 1.5307 3.0225 0
M  V30 6407 C 607.54 1.33223 3.52035 0
M  V30 6408 C 606.687 1.58806 2.27323 0
M  V30 6409 H 609.638 1.25175 0.975541 0
M  V30 6410 H 609.659 0.96267 3.68121 0
M  V30 6411 H 609.171 2.60192 2.87961 0
M  V30 6412 H 607.272 0.282091 3.71531 0
M  V30 6413 H 607.385 2.0657 4.32279 0
M  V30 6414 H 605.749 1.01007 2.33815 0
M  V30 6415 H 606.532 2.67153 2.15602 0
M  V30 6416 N 608.977 -1.30795 0.87923 0
M  V30 6417 C 610.388 -1.78535 0.546093 0
M  V30 6418 C 610.739 -1.72354 -0.937467 0
M  V30 6419 O 609.864 -1.2969 -1.73233 0
M  V30 6420 C 610.459 -3.24181 0.9845 0
M  V30 6421 C 609.018 -3.69779 0.702871 0
M  V30 6422 C 608.165 -2.51377 1.17068 0
M  V30 6423 H 611.116 -1.17746 1.06403 0
M  V30 6424 H 611.137 -3.79227 0.311045 0
M  V30 6425 H 610.649 -3.28647 2.06429 0
M  V30 6426 H 608.75 -3.70806 -0.365166 0
M  V30 6427 H 608.863 -4.61507 1.28639 0
M  V30 6428 H 607.227 -2.47768 0.590172 0
M  V30 6429 H 608.01 -2.58584 2.25808 0
M  V30 6430 N 610.455 -0.639598 -1.44038 0
M  V30 6431 C 611.871 -0.305953 -1.5664 0
M  V30 6432 C 612.071 1.19055 -1.62567 0
M  V30 6433 O 611.127 1.97492 -1.57331 0
M  V30 6434 C 612.44 -1.00533 -2.83397 0
M  V30 6435 C 613.988 -0.984278 -2.97121 0
M  V30 6436 C 614.463 -1.66428 -4.26691 0
M  V30 6437 N 615.954 -1.63127 -4.33525 0
M  V30 6438 C 616.689 -2.12629 -5.32519 0
M  V30 6439 N 616.185 -2.70359 -6.3787 0
M  V30 6440 N 617.978 -2.03208 -5.24083 0
M  V30 6441 H 610.129 -1.6109 -1.38434 0
M  V30 6442 H 612.392 -0.676672 -0.663942 0
M  V30 6443 H 612.098 -2.06034 -2.85032 0
M  V30 6444 H 611.972 -0.548362 -3.73193 0
M  V30 6445 H 614.359 0.0622792 -2.95034 0
M  V30 6446 H 614.44 -1.47981 -2.08651 0
M  V30 6447 H 614.084 -2.71034 -4.29538 0
M  V30 6448 H 614.014 -1.14351 -5.14034 0
M  V30 6449 H 616.505 -1.20987 -3.58009 0
M  V30 6450 H 616.818 -3.05842 -7.09704 0
M  V30 6451 H 615.163 -2.74414 -6.38531 0
M  V30 6452 H 618.354 -1.57823 -4.40692 0
M  V30 6453 H 618.527 -2.42097 -6.01077 0
M  V30 6454 N 611.933 1.52934 -0.380664 0
M  V30 6455 C 612.896 2.24809 0.446473 0
M  V30 6456 C 613.896 1.26133 0.997347 0
M  V30 6457 O 615.086 1.50297 0.880714 0
M  V30 6458 C 612.218 2.99649 1.62553 0
M  V30 6459 H 613.411 2.99343 -0.182677 0
M  V30 6460 H 610.964 1.55736 -0.132618 0
M  V30 6461 H 611.699 2.29395 2.29235 0
M  V30 6462 H 611.484 3.72066 1.23732 0
M  V30 6463 H 612.974 3.54246 2.21133 0
M  V30 6464 N 613.412 0.11024 1.57214 0
M  V30 6465 C 614.828 -0.24638 1.57687 0
M  V30 6466 C 615.028 -1.67344 1.12241 0
M  V30 6467 O 614.084 -2.39298 0.805783 0
M  V30 6468 C 615.397 -0.0210288 3.00693 0
M  V30 6469 C 616.945 -0.0876077 3.12877 0
M  V30 6470 C 617.42 0.10994 4.57868 0
M  V30 6471 N 618.911 0.0556135 4.63167 0
M  V30 6472 C 619.646 0.183495 5.73106 0
M  V30 6473 N 619.142 0.367058 6.91827 0
M  V30 6474 N 620.935 0.123689 5.61964 0
M  V30 6475 H 613.086 1.04246 1.85058 0
M  V30 6476 H 615.349 0.40979 0.854854 0
M  V30 6477 H 615.055 0.965203 3.38196 0
M  V30 6478 H 614.929 -0.756748 3.69531 0
M  V30 6479 H 617.316 -1.06436 2.75237 0
M  V30 6480 H 617.397 0.67985 2.466 0
M  V30 6481 H 617.041 1.08362 4.96206 0
M  V30 6482 H 616.971 -0.677397 5.22225 0
M  V30 6483 H 619.462 -0.0831062 3.77809 0
M  V30 6484 H 619.775 0.455739 7.71455 0
M  V30 6485 H 618.12 0.40292 6.93831 0
M  V30 6486 H 621.311 -0.0186928 4.68096 0
M  V30 6487 H 621.484 0.226797 6.47603 0
M  V30 6488 N 614.89 -1.56749 -0.16351 0
M  V30 6489 C 616.301 -1.72039 -0.725216 0
M  V30 6490 C 616.652 -0.72202 -1.82432 0
M  V30 6491 O 615.777 0.114942 -2.16095 0
M  V30 6492 C 616.372 -3.11932 -1.32227 0
M  V30 6493 C 614.931 -3.28879 -1.83072 0
M  V30 6494 C 614.078 -2.67984 -0.712716 0
M  V30 6495 H 617.029 -1.58579 0.0619772 0
M  V30 6496 H 617.05 -3.11015 -2.19202 0
M  V30 6497 H 616.562 -3.84572 -0.522103 0
M  V30 6498 H 614.663 -2.61209 -2.65708 0
M  V30 6499 H 614.776 -4.36688 -1.97079 0
M  V30 6500 H 613.14 -2.28005 -1.13515 0
M  V30 6501 H 613.923 -3.43216 0.0757361 0
M  V30 6502 N 616.368 0.432326 -1.51554 0
M  V30 6503 C 617.784 0.769195 -1.39841 0
M  V30 6504 C 617.984 1.95584 -0.484675 0
M  V30 6505 O 617.04 2.52433 0.0582829 0
M  V30 6506 C 618.353 1.04487 -2.81963 0
M  V30 6507 C 619.901 1.149 -2.91148 0
M  V30 6508 C 620.376 1.45758 -4.34187 0
M  V30 6509 N 621.867 1.52671 -4.37317 0
M  V30 6510 C 622.602 1.78129 -5.4503 0
M  V30 6511 N 622.098 2.01345 -6.62897 0
M  V30 6512 N 623.891 1.79953 -5.32516 0
M  V30 6513 H 616.042 -0.349122 -2.09511 0
M  V30 6514 H 618.305 -0.0938113 -0.943347 0
M  V30 6515 H 618.011 0.24557 -3.50842 0
M  V30 6516 H 617.885 1.97119 -3.21596 0
M  V30 6517 H 620.272 1.93891 -2.22464 0
M  V30 6518 H 620.353 0.201568 -2.55005 0
M  V30 6519 H 619.997 0.672917 -5.03423 0
M  V30 6520 H 619.927 2.41715 -4.67848 0
M  V30 6521 H 622.418 1.36612 -3.52343 0
M  V30 6522 H 622.731 2.20155 -7.40778 0
M  V30 6523 H 621.076 1.98657 -6.66003 0
M  V30 6524 H 624.267 1.61337 -4.39418 0
M  V30 6525 H 624.44 1.99455 -6.1654 0
M  V30 6526 N 617.846 1.41785 0.688094 0
M  V30 6527 C 618.809 1.43936 1.78368 0
M  V30 6528 C 619.809 0.328866 1.57401 0
M  V30 6529 O 620.999 0.589093 1.63937 0
M  V30 6530 C 618.131 1.25804 3.16838 0
M  V30 6531 H 619.324 2.41472 1.77852 0
M  V30 6532 H 616.877 1.28037 0.896448 0
M  V30 6533 H 617.612 0.291386 3.22988 0
M  V30 6534 H 617.397 2.06272 3.33458 0
M  V30 6535 H 618.887 1.30162 3.96797 0
M  V30 6536 N 619.324 -0.923095 1.27737 0
M  V30 6537 C 620.254 -2.04124 1.13383 0
M  V30 6538 C 621.235 -1.70066 0.0340658 0
M  V30 6539 O 622.42 -1.93068 0.209383 0
M  V30 6540 C 619.55 -3.3831 0.785097 0
M  V30 6541 C 618.504 -3.86496 1.8386 0
M  V30 6542 C 617.83 -5.1754 1.34373 0
M  V30 6543 C 619.13 -4.09381 3.24353 0
M  V30 6544 H 620.824 -2.1639 2.06919 0
M  V30 6545 H 618.37 -1.03976 0.996243 0
M  V30 6546 H 620.323 -4.16016 0.671485 0
M  V30 6547 H 619.047 -3.2607 -0.185969 0
M  V30 6548 H 617.706 -3.10987 1.9412 0
M  V30 6549 H 617.354 -5.01696 0.361989 0
M  V30 6550 H 617.054 -5.50751 2.04811 0
M  V30 6551 H 618.578 -5.97811 1.24315 0
M  V30 6552 H 619.992 -4.77641 3.17067 0
M  V30 6553 H 618.389 -4.53906 3.92542 0
M  V30 6554 H 619.459 -3.14515 3.69064 0
M  V30 6555 N 620.802 -1.09834 -1.13024 0
M  V30 6556 C 622.213 -0.855651 -1.65938 0
M  V30 6557 C 622.564 0.615159 -1.86307 0
M  V30 6558 O 621.689 1.47335 -1.58497 0
M  V30 6559 C 622.284 -1.5467 -3.01434 0
M  V30 6560 C 620.843 -1.35088 -3.51323 0
M  V30 6561 C 619.99 -1.6001 -2.26478 0
M  V30 6562 H 622.941 -1.25691 -0.968889 0
M  V30 6563 H 622.962 -0.982179 -3.67605 0
M  V30 6564 H 622.474 -2.61715 -2.86578 0
M  V30 6565 H 620.575 -0.30179 -3.71376 0
M  V30 6566 H 620.688 -2.0886 -4.31178 0
M  V30 6567 H 619.052 -1.02246 -2.33276 0
M  V30 6568 H 619.835 -2.68293 -2.14182 0
M  V30 6569 N 622.28 1.30327 -0.886154 0
M  V30 6570 C 623.557 1.90922 -0.425217 0
M  V30 6571 C 623.937 1.80533 1.09413 0
M  V30 6572 O 623.285 1.2233 1.92996 0
M  V30 6573 C 623.495 3.36529 -0.924638 0
M  V30 6574 C 624.843 4.13598 -0.960305 0
M  V30 6575 O 625.867 3.45377 -0.871382 0
M  V30 6576 O 624.726 5.35482 -1.09184 0
M  V30 6577 H 621.82 0.81668 -0.130238 0
M  V30 6578 H 624.366 1.38886 -0.975132 0
M  V30 6579 H 623.138 3.38181 -1.96849 0
M  V30 6580 H 622.761 3.96021 -0.353955 0
M  V30 6581 N 623.758 0.647228 1.43697 0
M  V30 6582 C 624.668 -0.0487997 2.34549 0
M  V30 6583 C 625.684 -0.818586 1.53542 0
M  V30 6584 O 626.86 -0.767195 1.86215 0
M  V30 6585 C 623.925 -1.00734 3.31743 0
M  V30 6586 C 622.986 -0.23515 4.28655 0
M  V30 6587 C 622.219 -1.14803 5.21206 0
M  V30 6588 O 622.442 -2.38717 5.18045 0
M  V30 6589 O 621.376 -0.623667 5.9866 0
M  V30 6590 H 625.202 0.698863 2.9555 0
M  V30 6591 H 622.787 0.407412 1.43738 0
M  V30 6592 H 624.669 -1.55837 3.91526 0
M  V30 6593 H 623.344 -1.73534 2.73254 0
M  V30 6594 H 622.251 0.359319 3.7237 0
M  V30 6595 H 623.584 0.453152 4.9011 0
M  V30 6596 N 625.236 -1.5273 0.388769 0
M  V30 6597 C 626.513 -1.93981 -0.251133 0
M  V30 6598 C 626.893 -1.32418 -1.64404 0
M  V30 6599 O 626.241 -0.492074 -2.23139 0
M  V30 6600 C 626.451 -3.47891 -0.27802 0
M  V30 6601 C 627.799 -4.21559 -0.507229 0
M  V30 6602 O 628.823 -3.54394 -0.358252 0
M  V30 6603 O 627.682 -5.40626 -0.799094 0
M  V30 6604 H 624.776 -0.812157 -0.15598 0
M  V30 6605 H 627.322 -1.63809 0.443237 0
M  V30 6606 H 626.094 -3.8503 0.697669 0
M  V30 6607 H 625.717 -3.84364 -1.01733 0
M  V30 6608 N 626.714 -0.118576 -1.57153 0
M  V30 6609 C 628.125 0.40687 -1.82213 0
M  V30 6610 C 628.476 1.66636 -1.03571 0
M  V30 6611 O 627.601 2.14682 -0.272171 0
M  V30 6612 C 628.196 0.744949 -3.30509 0
M  V30 6613 C 626.755 1.21503 -3.5625 0
M  V30 6614 C 625.902 0.223511 -2.76398 0
M  V30 6615 H 628.853 -0.343712 -1.54933 0
M  V30 6616 H 628.874 1.6024 -3.45114 0
M  V30 6617 H 628.386 -0.171911 -3.87719 0
M  V30 6618 H 626.487 2.1488 -3.04396 0
M  V30 6619 H 626.6 1.16065 -4.64829 0
M  V30 6620 H 624.964 0.71046 -2.44591 0
M  V30 6621 H 625.747 -0.686439 -3.36367 0
M  V30 6622 N 628.193 1.56834 0.155195 0
M  V30 6623 C 629.604 1.72421 0.716082 0
M  V30 6624 C 629.955 0.731685 1.82046 0
M  V30 6625 O 629.08 -0.103481 2.16152 0
M  V30 6626 C 629.675 3.12629 1.30571 0
M  V30 6627 C 628.234 3.29846 1.81325 0
M  V30 6628 C 627.381 2.68359 0.698494 0
M  V30 6629 H 630.332 1.58544 -0.0703861 0
M  V30 6630 H 630.353 3.12174 2.1755 0
M  V30 6631 H 629.865 3.84844 0.501701 0
M  V30 6632 H 627.966 2.62614 2.64319 0
M  V30 6633 H 628.079 4.37727 1.9476 0
M  V30 6634 H 626.443 2.28604 1.12305 0
M  V30 6635 H 627.226 3.43171 -0.0939366 0
M  V30 6636 N 629.671 -0.424282 1.51781 0
M  V30 6637 C 630.899 -1.1947 1.68921 0
M  V30 6638 C 631.314 -1.84683 0.39213 0
M  V30 6639 O 630.671 -1.71261 -0.630554 0
M  V30 6640 C 630.722 -2.26909 2.81416 0
M  V30 6641 O 630.443 -1.64361 4.061 0
M  V30 6642 C 631.944 -3.16945 3.09937 0
M  V30 6643 H 629.164 -0.359591 0.566511 0
M  V30 6644 H 631.708 -0.501139 1.98265 0
M  V30 6645 H 629.863 -2.91959 2.54635 0
M  V30 6646 H 630.277 -2.35468 4.68674 0
M  V30 6647 H 631.751 -3.88437 3.922 0
M  V30 6648 H 632.228 -3.78451 2.22871 0
M  V30 6649 H 632.834 -2.57581 3.38426 0
M  V30 6650 N 631.149 -1.42148 -0.680565 0
M  V30 6651 C 632.56 -1.3768 -1.26099 0
M  V30 6652 C 632.911 -0.0672348 -1.96085 0
M  V30 6653 O 632.036 0.834172 -1.99676 0
M  V30 6654 C 632.631 -2.49387 -2.29328 0
M  V30 6655 C 631.19 -2.4827 -2.82911 0
M  V30 6656 C 630.337 -2.2847 -1.57152 0
M  V30 6657 H 633.288 -1.51446 -0.474326 0
M  V30 6658 H 633.309 -2.19307 -3.10941 0
M  V30 6659 H 632.821 -3.44686 -1.78363 0
M  V30 6660 H 630.922 -1.56773 -3.38013 0
M  V30 6661 H 631.035 -3.45109 -3.3232 0
M  V30 6662 H 629.399 -1.76623 -1.83511 0
M  V30 6663 H 630.182 -3.25816 -1.0816 0
M  V30 6664 N 632.627 0.916307 -1.28225 0
M  V30 6665 C 633.852 1.7043 -1.18188 0
M  V30 6666 C 634.277 1.86346 0.256274 0
M  V30 6667 O 633.635 1.37175 1.18544 0
M  V30 6668 C 633.683 3.07546 -1.88275 0
M  V30 6669 O 632.787 3.94904 -1.18848 0
M  V30 6670 H 632.128 0.521967 -0.410423 0
M  V30 6671 H 634.658 1.14589 -1.69501 0
M  V30 6672 H 634.668 3.57793 -1.96082 0
M  V30 6673 H 633.343 2.95279 -2.92887 0
M  V30 6674 H 631.92 3.53339 -1.19187 0
M  V30 6675 N 634.105 1.10431 1.1244 0
M  V30 6676 C 635.354 0.841539 1.83306 0
M  V30 6677 C 635.667 -0.634961 1.85007 0
M  V30 6678 O 636.873 -1.01363 2.51869 0
M  V30 6679 C 635.329 1.45565 3.29149 0
M  V30 6680 C 634.937 2.96544 3.35806 0
M  V30 6681 C 636.681 1.27227 4.04986 0
M  V30 6682 C 634.588 3.5099 4.75983 0
M  V30 6683 H 633.518 0.311156 0.686803 0
M  V30 6684 H 636.169 1.32829 1.26604 0
M  V30 6685 H 634.551 0.896574 3.85717 0
M  V30 6686 H 635.725 3.58766 2.89177 0
M  V30 6687 H 634.04 3.14036 2.73442 0
M  V30 6688 H 636.637 1.65348 5.08492 0
M  V30 6689 H 636.98 0.213834 4.1575 0
M  V30 6690 H 637.513 1.79941 3.54776 0
M  V30 6691 H 634.252 4.56499 4.70413 0
M  V30 6692 H 633.772 2.93535 5.23065 0
M  V30 6693 H 635.451 3.48808 5.44924 0
M  V30 6694 N 635.583 -1.29855 0.893053 0
M  V30 6695 C 636.546 -2.26183 0.370687 0
M  V30 6696 C 637.546 -1.53108 -0.491385 0
M  V30 6697 O 638.736 -1.71643 -0.297386 0
M  V30 6698 C 635.868 -3.37633 -0.470827 0
M  V30 6699 H 637.061 -2.73903 1.22135 0
M  V30 6700 H 634.614 -1.41183 0.67061 0
M  V30 6701 H 635.349 -2.95241 -1.34175 0
M  V30 6702 H 635.134 -3.91825 0.146784 0
M  V30 6703 H 636.624 -4.09313 -0.827825 0
M  V30 6704 N 637.061 -0.65484 -1.43351 0
M  V30 6705 C 638.286 -0.175046 -2.0666 0
M  V30 6706 C 638.711 1.15104 -1.4877 0
M  V30 6707 O 638.069 1.71144 -0.598279 0
M  V30 6708 C 638.117 -0.0991544 -3.60464 0
M  V30 6709 O 637.221 0.938169 -4.01587 0
M  V30 6710 H 636.562 -0.0956148 -0.65708 0
M  V30 6711 H 639.092 -0.898222 -1.83829 0
M  V30 6712 H 639.102 0.083632 -4.07914 0
M  V30 6713 H 637.777 -1.06719 -4.01975 0
M  V30 6714 H 636.354 0.72804 -3.65724 0
M  V30 6715 N 638.539 1.52521 -0.396863 0
M  V30 6716 C 639.469 2.29582 0.425941 0
M  V30 6717 C 640.45 1.33281 1.05689 0
M  V30 6718 O 641.635 1.62181 1.06823 0
M  V30 6719 C 638.765 3.10821 1.54943 0
M  V30 6720 C 637.719 4.15069 1.04413 0
M  V30 6721 C 637.045 4.84578 2.26028 0
M  V30 6722 C 638.345 5.22191 0.106767 0
M  V30 6723 H 640.039 2.98612 -0.217045 0
M  V30 6724 H 637.585 1.43611 -0.105826 0
M  V30 6725 H 639.538 3.63492 2.13193 0
M  V30 6726 H 638.262 2.39538 2.22011 0
M  V30 6727 H 636.921 3.63389 0.484118 0
M  V30 6728 H 636.569 4.09835 2.91623 0
M  V30 6729 H 636.269 5.55043 1.92876 0
M  V30 6730 H 637.793 5.40056 2.84906 0
M  V30 6731 H 639.207 5.70176 0.597685 0
M  V30 6732 H 637.604 5.99947 -0.135352 0
M  V30 6733 H 638.674 4.77531 -0.842134 0
M  V30 6734 N 640.017 0.126909 1.57088 0
M  V30 6735 C 641.242 -0.53997 2.00248 0
M  V30 6736 C 641.667 -1.58927 1.00618 0
M  V30 6737 O 641.025 -1.81288 -0.0210131 0
M  V30 6738 C 641.073 -1.13565 3.4225 0
M  V30 6739 O 640.177 -2.25103 3.45547 0
M  V30 6740 H 639.518 -0.13412 0.650314 0
M  V30 6741 H 642.048 0.217718 2.03438 0
M  V30 6742 H 642.058 -1.46925 3.80627 0
M  V30 6743 H 640.733 -0.367122 4.14277 0
M  V30 6744 H 639.31 -1.93123 3.18995 0
M  V30 6745 N 641.495 -1.56914 -0.146875 0
M  V30 6746 C 642.911 -1.51582 -0.499518 0
M  V30 6747 C 643.111 -0.83535 -1.83369 0
M  V30 6748 O 642.167 -0.405932 -2.49216 0
M  V30 6749 C 643.48 -2.96349 -0.509711 0
M  V30 6750 C 645.028 -3.07288 -0.595217 0
M  V30 6751 C 645.503 -4.53562 -0.636071 0
M  V30 6752 N 646.994 -4.57906 -0.69829 0
M  V30 6753 C 647.729 -5.68462 -0.750886 0
M  V30 6754 N 647.225 -6.88588 -0.76282 0
M  V30 6755 N 649.018 -5.56496 -0.791777 0
M  V30 6756 H 641.169 -1.99547 0.727656 0
M  V30 6757 H 643.432 -0.910113 0.265327 0
M  V30 6758 H 643.138 -3.4939 0.402409 0
M  V30 6759 H 643.012 -3.52307 -1.34758 0
M  V30 6760 H 645.399 -2.54266 -1.49776 0
M  V30 6761 H 645.48 -2.54373 0.2698 0
M  V30 6762 H 645.124 -5.07222 0.262313 0
M  V30 6763 H 645.054 -5.04259 -1.51758 0
M  V30 6764 H 647.545 -3.71429 -0.696362 0
M  V30 6765 H 647.858 -7.68598 -0.804804 0
M  V30 6766 H 646.203 -6.91148 -0.730694 0
M  V30 6767 H 649.394 -4.61562 -0.779624 0
M  V30 6768 H 649.567 -6.42671 -0.829301 0
M  V30 6769 N 642.974 0.416227 -1.52004 0
M  V30 6770 C 643.904 1.51365 -1.77795 0
M  V30 6771 C 644.885 1.58059 -0.628601 0
M  V30 6772 O 646.07 1.73447 -0.873478 0
M  V30 6773 C 643.2 2.89256 -1.92219 0
M  V30 6774 C 642.154 2.97415 -3.0778 0
M  V30 6775 C 641.48 4.37492 -3.07417 0
M  V30 6776 C 642.78 2.69551 -4.47369 0
M  V30 6777 H 644.474 1.30033 -2.69688 0
M  V30 6778 H 642.02 0.624112 -1.29772 0
M  V30 6779 H 643.973 3.66008 -2.08845 0
M  V30 6780 H 642.697 3.11866 -0.969917 0
M  V30 6781 H 641.356 2.23107 -2.90893 0
M  V30 6782 H 641.004 4.571 -2.09925 0
M  V30 6783 H 640.704 4.43877 -3.85029 0
M  V30 6784 H 642.228 5.16188 -3.26162 0
M  V30 6785 H 643.642 3.36028 -4.64497 0
M  V30 6786 H 642.039 2.87321 -5.26846 0
M  V30 6787 H 643.109 1.65029 -4.55953 0
M  V30 6788 N 644.452 1.42507 0.673017 0
M  V30 6789 C 645.677 1.4668 1.46627 0
M  V30 6790 C 646.102 0.080066 1.8793 0
M  V30 6791 O 645.46 -0.921879 1.56112 0
M  V30 6792 C 645.508 2.40091 2.69051 0
M  V30 6793 O 644.612 1.8735 3.67387 0
M  V30 6794 H 643.953 0.496908 0.44043 0
M  V30 6795 H 646.483 1.87215 0.825334 0
M  V30 6796 H 646.493 2.56731 3.17101 0
M  V30 6797 H 645.168 3.4084 2.3833 0
M  V30 6798 H 643.745 1.80274 3.26429 0
M  V30 6799 N 645.93 -0.909495 1.28709 0
M  V30 6800 C 647.16 -1.69027 1.188 0
M  V30 6801 C 647.568 -1.87469 -0.255329 0
M  V30 6802 O 646.911 -1.40458 -1.18394 0
M  V30 6803 C 646.973 -3.10064 1.81936 0
M  V30 6804 C 646.637 -3.14891 3.31199 0
M  V30 6805 C 647.634 -2.95768 4.27571 0
M  V30 6806 C 645.319 -3.37269 3.7223 0
M  V30 6807 C 647.313 -2.98942 5.6295 0
M  V30 6808 C 645 -3.40074 5.07733 0
M  V30 6809 C 645.998 -3.20932 6.02903 0
M  V30 6810 O 645.686 -3.23507 7.35934 0
M  V30 6811 H 645.418 -0.535014 0.413203 0
M  V30 6812 H 647.972 -1.14645 1.70428 0
M  V30 6813 H 646.202 -3.66005 1.24808 0
M  V30 6814 H 647.891 -3.70185 1.66486 0
M  V30 6815 H 648.657 -2.78302 3.97206 0
M  V30 6816 H 644.536 -3.51212 2.98615 0
M  V30 6817 H 648.08 -2.83919 6.37209 0
M  V30 6818 H 643.977 -3.5707 5.37747 0
M  V30 6819 H 644.745 -3.3984 7.44615 0
M  V30 6820 N 647.408 -1.11026 -1.11852 0
M  V30 6821 C 648.636 -0.878818 -1.87308 0
M  V30 6822 C 649.051 0.57111 -1.79955 0
M  V30 6823 O 648.408 1.39409 -1.17777 0
M  V30 6824 C 648.459 -1.3264 -3.36287 0
M  V30 6825 O 648.18 -2.71948 -3.43476 0
M  V30 6826 C 649.681 -1.12974 -4.28663 0
M  V30 6827 H 646.901 -0.315015 -0.592458 0
M  V30 6828 H 649.445 -1.47649 -1.41492 0
M  V30 6829 H 647.6 -0.772269 -3.79625 0
M  V30 6830 H 648.014 -2.91241 -4.3621 0
M  V30 6831 H 649.488 -1.49198 -5.31454 0
M  V30 6832 H 649.965 -0.0689127 -4.39146 0
M  V30 6833 H 650.571 -1.67064 -3.91113 0
M  V30 6834 N 648.886 1.2938 -0.899927 0
M  V30 6835 C 650.114 1.99691 -0.541386 0
M  V30 6836 C 650.529 1.67355 0.873936 0
M  V30 6837 O 649.886 0.918728 1.57688 0
M  V30 6838 C 649.937 3.54168 -0.72438 0
M  V30 6839 O 649.658 3.85359 -2.08399 0
M  V30 6840 C 651.159 4.41746 -0.370819 0
M  V30 6841 H 648.379 0.638037 -0.207726 0
M  V30 6842 H 650.923 1.6491 -1.20934 0
M  V30 6843 H 649.078 3.87261 -0.103607 0
M  V30 6844 H 649.492 4.80032 -2.11352 0
M  V30 6845 H 650.966 5.49256 -0.549693 0
M  V30 6846 H 651.443 4.33712 0.692148 0
M  V30 6847 H 652.049 4.14125 -0.968543 0
M  V30 6848 N 650.364 0.662433 1.43002 0
M  V30 6849 C 651.613 0.176873 2.00923 0
M  V30 6850 C 651.926 -1.21954 1.52927 0
M  V30 6851 O 653.132 -1.80081 2.03182 0
M  V30 6852 C 651.588 0.265379 3.5892 0
M  V30 6853 C 651.196 1.66507 4.15908 0
M  V30 6854 C 652.94 -0.162103 4.2419 0
M  V30 6855 C 650.847 1.707 5.66229 0
M  V30 6856 H 649.777 0.0623627 0.751417 0
M  V30 6857 H 652.428 0.825813 1.63868 0
M  V30 6858 H 650.81 -0.451235 3.93421 0
M  V30 6859 H 651.984 2.40777 3.92891 0
M  V30 6860 H 650.299 2.03932 3.63044 0
M  V30 6861 H 652.896 -0.150745 5.34487 0
M  V30 6862 H 653.239 -1.19519 3.98774 0
M  V30 6863 H 653.772 0.503075 3.94606 0
M  V30 6864 H 650.511 2.7195 5.96426 0
M  V30 6865 H 650.031 1.00768 5.91275 0
M  V30 6866 H 651.71 1.45487 6.3043 0
M  V30 6867 N 651.842 -1.52309 0.404946 0
M  V30 6868 C 653.067 -2.06666 -0.1743 0
M  V30 6869 C 653.492 -1.27341 -1.38441 0
M  V30 6870 O 652.85 -0.302539 -1.78758 0
M  V30 6871 C 652.898 -3.57014 -0.507262 0
M  V30 6872 O 652.002 -3.80144 -1.59889 0
M  V30 6873 H 651.343 -0.663807 -0.0160273 0
M  V30 6874 H 653.873 -1.96297 0.576937 0
M  V30 6875 H 653.883 -4.00724 -0.767098 0
M  V30 6876 H 652.558 -4.14184 0.377368 0
M  V30 6877 H 651.135 -3.48316 -1.33155 0
M  V30 6878 N 653.32 -0.135238 -1.57019 0
M  V30 6879 C 654.548 0.526066 -2.001 0
M  V30 6880 C 654.963 1.59184 -1.01519 0
M  V30 6881 O 654.32 1.82497 -0.0104258 0
M  V30 6882 C 654.371 1.13744 -3.43139 0
M  V30 6883 O 654.092 0.114259 -4.37951 0
M  V30 6884 C 655.593 1.8805 -4.01438 0
M  V30 6885 H 652.813 0.137962 -0.656664 0
M  V30 6886 H 655.357 -0.226359 -2.03243 0
M  V30 6887 H 653.512 1.84056 -3.40885 0
M  V30 6888 H 653.926 0.56058 -5.21496 0
M  V30 6889 H 655.4 2.26133 -5.03555 0
M  V30 6890 H 655.877 2.76194 -3.41487 0
M  V30 6891 H 656.483 1.22464 -4.07287 0
M  V30 6892 N 654.798 1.5699 0.138552 0
M  V30 6893 C 655.728 2.01933 1.17241 0
M  V30 6894 C 656.709 0.90033 1.44319 0
M  V30 6895 O 657.894 1.16872 1.55095 0
M  V30 6896 C 655.024 2.40711 2.50351 0
M  V30 6897 C 653.978 3.55874 2.37776 0
M  V30 6898 C 653.304 3.80491 3.75674 0
M  V30 6899 C 654.604 4.8826 1.85472 0
M  V30 6900 H 656.298 2.88551 0.798672 0
M  V30 6901 H 653.844 1.3882 0.382743 0
M  V30 6902 H 655.797 2.70754 3.22909 0
M  V30 6903 H 654.521 1.5104 2.89576 0
M  V30 6904 H 653.18 3.2601 1.67669 0
M  V30 6905 H 652.828 2.88057 4.12349 0
M  V30 6906 H 652.528 4.57998 3.68119 0
M  V30 6907 H 654.052 4.12967 4.49767 0
M  V30 6908 H 655.466 5.16965 2.4783 0
M  V30 6909 H 653.863 5.69631 1.88787 0
M  V30 6910 H 654.933 4.78071 0.810935 0
M  V30 6911 N 656.276 -0.40816 1.52223 0
M  V30 6912 C 657.524 -1.15274 1.66001 0
M  V30 6913 C 657.845 -1.91003 0.392803 0
M  V30 6914 O 657.115 -1.8673 -0.592336 0
M  V30 6915 H 655.695 -0.428526 0.611861 0
M  V30 6916 H 658.357 -0.46512 1.89269 0
M  V30 6917 H 657.453 -1.86628 2.50153 0
M  V30 6918 N 657.755 -1.42862 -0.66545 0
M  V30 6919 C 659.166 -1.3901 -1.24632 0
M  V30 6920 C 659.517 -0.0880285 -1.96002 0
M  V30 6921 O 658.642 0.812947 -2.0055 0
M  V30 6922 C 659.237 -2.51806 -2.2667 0
M  V30 6923 C 657.796 -2.51257 -2.80262 0
M  V30 6924 C 656.943 -2.30124 -1.5472 0
M  V30 6925 H 659.894 -1.5194 -0.458237 0
M  V30 6926 H 659.915 -2.22593 -3.08598 0
M  V30 6927 H 659.427 -3.46558 -1.74697 0
M  V30 6928 H 657.528 -1.60349 -3.36332 0
M  V30 6929 H 657.641 -3.48614 -3.28641 0
M  V30 6930 H 656.005 -1.7856 -1.81627 0
M  V30 6931 H 656.788 -3.26945 -1.04699 0
M  V30 6932 N 659.233 0.902656 -1.29189 0
M  V30 6933 C 660.481 1.6496 -1.16758 0
M  V30 6934 C 660.802 1.92952 0.28188 0
M  V30 6935 O 660.072 1.55351 1.19344 0
M  V30 6936 H 658.652 0.611447 -0.429118 0
M  V30 6937 H 661.314 1.0825 -1.62074 0
M  V30 6938 H 660.41 2.60728 -1.71544 0
M  V30 6939 O 660.75 1.23723 1.03802 0
M  V30 6940 H 661.441 1.01035 1.65262 0
M  V30 END ATOM
M  V30 BEGIN BOND
M  V30 END BOND
M  V30 END CTAB
M  END
$$$$
