drugbank_target|P32245 Melanocortin receptor 4 (DB11653; DB11700)
 OpenBabel12092121203D

  0  0  0     0  0            999 V3000
M  V30 BEGIN CTAB
M  V30 COUNTS 5241 5297 0 0 0
M  V30 BEGIN ATOM
M  V30 1 H -0.908 1.98254 -0.117106 0
M  V30 2 N 0 1.576 0 0
M  V30 3 C 0.933 2.03868 1.02534 0
M  V30 4 C 1.911 0.928543 1.3348 0
M  V30 5 O 3.095 1.19667 1.45644 0
M  V30 6 C 0.222 2.43627 2.35294 0
M  V30 7 C -0.732 3.65373 2.2001 0
M  V30 8 S 0.101 5.13292 1.52614 0
M  V30 9 C 1.257 5.56322 2.86805 0
M  V30 10 H 1.49 2.90518 0.631377 0
M  V30 11 H -0.977 1.52953 0.210867 0
M  V30 12 H 0.981 2.67203 3.11629 0
M  V30 13 H -0.358 1.57376 2.7183 0
M  V30 14 H -1.165 3.90944 3.18086 0
M  V30 15 H -1.563 3.418 1.51819 0
M  V30 16 H 0.729 5.58782 3.83104 0
M  V30 17 H 1.672 6.56266 2.65933 0
M  V30 18 H 2.08 4.83886 2.90714 0
M  V30 19 N 1.4781 -0.272755 1.55222 0
M  V30 20 C 2.7241 -1.00581 1.761 0
M  V30 21 C 3.0571 -1.85932 0.560625 0
M  V30 22 O 2.3321 -1.89416 -0.441801 0
M  V30 23 C 2.6151 -1.88816 3.06628 0
M  V30 24 C 2.4681 -1.06457 4.37021 0
M  V30 25 C 3.7871 -2.8752 3.33197 0
M  V30 26 H 0.9061 -0.364244 0.640699 0
M  V30 27 H 3.5481 -0.278189 1.87952 0
M  V30 28 H 1.6981 -2.50856 2.96654 0
M  V30 29 H 3.3701 -0.464863 4.58952 0
M  V30 30 H 1.6131 -0.368043 4.32236 0
M  V30 31 H 2.2841 -1.71514 5.24678 0
M  V30 32 H 4.7601 -2.35615 3.42965 0
M  V30 33 H 3.6361 -3.46399 4.25792 0
M  V30 34 H 3.8971 -3.62657 2.52849 0
M  V30 35 N 2.9562 -1.48159 -0.537278 0
M  V30 36 C 3.9042 -1.62573 -1.66352 0
M  V30 37 C 4.8982 -0.492366 -1.62087 0
M  V30 38 O 6.1042 -0.670847 -1.67032 0
M  V30 39 H 2.4792 -0.511992 -0.550789 0
M  V30 40 H 4.4502 -2.57176 -1.51337 0
M  V30 41 C 3.1992 -1.67583 -3.04649 0
M  V30 42 H 2.5222 -2.54151 -3.08622 0
M  V30 43 H 3.9622 -1.81713 -3.83088 0
M  V30 44 C 2.4212 -0.413039 -3.34358 0
M  V30 45 O 2.9512 0.477259 -3.98855 0
M  V30 46 N 1.1572 -0.286961 -2.8918 0
M  V30 47 H 0.7042 -1.01241 -2.36871 0
M  V30 48 H 0.6622 0.556963 -3.09427 0
M  V30 49 N 4.4343 0.785586 -1.36625 0
M  V30 50 C 5.6593 1.57963 -1.34397 0
M  V30 51 C 6.0843 1.87964 0.071526 0
M  V30 52 O 5.4423 1.48182 1.0446 0
M  V30 53 C 5.4903 2.87511 -2.17646 0
M  V30 54 O 4.5943 3.81281 -1.57158 0
M  V30 55 H 3.9353 0.479014 -0.459828 0
M  V30 56 H 6.4653 0.973411 -1.79961 0
M  V30 57 H 6.4753 3.36745 -2.30362 0
M  V30 58 H 5.1503 2.65002 -3.20541 0
M  V30 59 H 3.7273 3.39885 -1.53403 0
M  V30 60 N 5.9124 1.20967 1.01018 0
M  V30 61 C 7.1404 1.04956 1.78303 0
M  V30 62 C 7.5554 -0.400915 1.84494 0
M  V30 63 O 6.9124 -1.27826 1.30257 0
M  V30 64 C 6.9634 1.63403 3.22462 0
M  V30 65 O 6.6844 3.02775 3.16637 0
M  V30 66 C 8.1854 1.52432 4.16268 0
M  V30 67 H 5.4054 0.368858 0.560522 0
M  V30 68 H 7.9494 1.60193 1.27116 0
M  V30 69 H 6.1044 1.1227 3.70775 0
M  V30 70 H 6.5184 3.30626 4.07169 0
M  V30 71 H 7.9924 1.98078 5.15237 0
M  V30 72 H 8.4694 0.477875 4.36592 0
M  V30 73 H 9.0754 2.02787 3.73841 0
M  V30 74 N 7.3905 -1.2043 1.01659 0
M  V30 75 C 8.3405 -2.21076 0.557623 0
M  V30 76 C 9.3245 -1.56176 -0.387029 0
M  V30 77 O 10.5165 -1.7575 -0.209996 0
M  V30 78 C 7.6455 -3.43146 -0.102707 0
M  V30 79 C 6.7315 -4.15213 0.863652 0
M  V30 80 N 7.1225 -4.63662 2.02117 0
M  V30 81 C 5.4205 -4.40716 0.684472 0
M  V30 82 C 6.1215 -5.18868 2.62966 0
M  V30 83 N 5.0975 -5.0893 1.91027 0
M  V30 84 H 8.8995 -2.56201 1.44008 0
M  V30 85 H 6.4135 -1.36366 0.881931 0
M  V30 86 H 8.4105 -4.14475 -0.449054 0
M  V30 87 H 7.0705 -3.09526 -0.981003 0
M  V30 88 H 8.0815 -4.58877 2.40109 0
M  V30 89 H 4.7585 -4.17245 -0.14577 0
M  V30 90 H 6.1485 -5.6673 3.60924 0
M  V30 91 N 8.8686 -0.792821 -1.36206 0
M  V30 92 C 10.2846 -0.474903 -1.52371 0
M  V30 93 C 10.4846 1.00622 -1.74578 0
M  V30 94 O 9.5406 1.79162 -1.77924 0
M  V30 95 C 10.8536 -1.3083 -2.70747 0
M  V30 96 C 12.4016 -1.30234 -2.84619 0
M  V30 97 C 12.8766 -2.11956 -4.06004 0
M  V30 98 N 14.3676 -2.09419 -4.13156 0
M  V30 99 C 15.1026 -2.69419 -5.06163 0
M  V30 100 N 14.5986 -3.3829 -6.04592 0
M  V30 101 N 16.3916 -2.59134 -4.98804 0
M  V30 102 H 8.5426 -1.75222 -1.20046 0
M  V30 103 H 10.8056 -0.745024 -0.586211 0
M  V30 104 H 10.5116 -2.35881 -2.6087 0
M  V30 105 H 10.3856 -0.95196 -3.6499 0
M  V30 106 H 12.7726 -0.259748 -2.93955 0
M  V30 107 H 12.8536 -1.69847 -1.91274 0
M  V30 108 H 12.4976 -3.16248 -3.97429 0
M  V30 109 H 12.4276 -1.69711 -4.98503 0
M  V30 110 H 14.9186 -1.59297 -3.42685 0
M  V30 111 H 15.2316 -3.81394 -6.7213 0
M  V30 112 H 13.5766 -3.42393 -6.04807 0
M  V30 113 H 16.7676 -2.04927 -4.20859 0
M  V30 114 H 16.9406 -3.06185 -5.711 0
M  V30 115 N 10.3467 1.47872 -0.545128 0
M  V30 116 C 11.5947 2.02093 -0.016553 0
M  V30 117 C 11.9157 1.42305 1.3332 0
M  V30 118 O 11.1857 0.593853 1.86682 0
M  V30 119 H 9.7657 0.746993 -0.00313038 0
M  V30 120 H 12.4277 1.81414 -0.712397 0
M  V30 121 H 11.5237 3.11996 0.0805422 0
M  V30 122 N 11.8248 0.280983 1.55075 0
M  V30 123 C 12.7578 -0.645439 2.18882 0
M  V30 124 C 13.7358 -1.14786 1.15165 0
M  V30 125 O 14.9198 -1.21975 1.43716 0
M  V30 126 C 12.0468 -1.88088 2.81674 0
M  V30 127 C 11.0928 -1.51343 3.98745 0
M  V30 128 S 11.9258 -0.586548 5.32278 0
M  V30 129 C 13.0818 -1.83024 5.98543 0
M  V30 130 H 13.3148 -0.1033 2.9712 0
M  V30 131 H 10.8478 0.0652099 1.54262 0
M  V30 132 H 12.8058 -2.58997 3.18482 0
M  V30 133 H 11.4668 -2.39417 2.03318 0
M  V30 134 H 10.6598 -2.43289 4.41392 0
M  V30 135 H 10.2618 -0.884477 3.63391 0
M  V30 136 H 12.5538 -2.77342 6.18133 0
M  V30 137 H 13.4968 -1.44668 6.93164 0
M  V30 138 H 13.9048 -1.99785 5.27964 0
M  V30 139 N 13.3029 -1.57598 0.00835791 0
M  V30 140 C 14.2529 -2.05431 -0.989045 0
M  V30 141 C 15.2369 -0.950662 -1.29812 0
M  V30 142 O 16.4289 -1.21438 -1.28771 0
M  V30 143 C 13.5579 -2.56801 -2.27833 0
M  V30 144 C 12.6439 -3.74058 -1.99853 0
M  V30 145 N 13.0349 -4.8544 -1.42062 0
M  V30 146 C 11.3329 -3.82148 -2.29953 0
M  V30 147 C 12.0339 -5.66817 -1.30743 0
M  V30 148 N 11.0099 -5.13077 -1.7959 0
M  V30 149 H 14.8119 -2.88955 -0.536853 0
M  V30 150 H 12.3259 -1.61199 -0.197148 0
M  V30 151 H 14.3229 -2.89349 -3.00137 0
M  V30 152 H 12.9829 -1.74699 -2.73698 0
M  V30 153 H 13.9939 -5.0612 -1.09833 0
M  V30 154 H 10.6709 -3.10916 -2.78635 0
M  V30 155 H 12.0609 -6.66343 -0.862328 0
M  V30 156 N 14.781 0.264519 -1.55364 0
M  V30 157 C 16.009 1.013 -1.80405 0
M  V30 158 C 16.424 1.79618 -0.581622 0
M  V30 159 O 15.781 1.76879 0.449468 0
M  V30 160 C 15.832 1.96487 -3.03439 0
M  V30 161 O 15.553 1.21341 -4.20961 0
M  V30 162 C 17.054 2.83079 -3.41147 0
M  V30 163 H 14.274 0.298875 -0.600762 0
M  V30 164 H 16.818 0.292736 -2.02394 0
M  V30 165 H 14.973 2.63965 -2.83551 0
M  V30 166 H 15.387 1.85573 -4.90574 0
M  V30 167 H 16.861 3.4565 -4.30384 0
M  V30 168 H 17.338 3.53286 -2.60932 0
M  V30 169 H 17.944 2.2108 -3.63323 0
M  V30 170 N 16.2591 1.48442 0.529413 0
M  V30 171 C 17.4841 1.60406 1.31471 0
M  V30 172 C 17.9091 0.264738 1.86228 0
M  V30 173 O 17.2671 -0.763668 1.64432 0
M  V30 174 C 17.3151 2.65419 2.44101 0
M  V30 175 O 16.4191 2.22618 3.47153 0
M  V30 176 H 15.7601 0.537863 0.389357 0
M  V30 177 H 18.2901 1.94432 0.636965 0
M  V30 178 H 18.3001 2.86709 2.90279 0
M  V30 179 H 16.9751 3.62652 2.03608 0
M  V30 180 H 15.5521 2.11543 3.0709 0
M  V30 181 N 17.7372 -0.778329 1.37039 0
M  V30 182 C 18.6672 -1.90546 1.34962 0
M  V30 183 C 19.6482 -1.68681 0.219274 0
M  V30 184 O 20.8332 -1.89634 0.418624 0
M  V30 185 C 17.9632 -3.27734 1.14925 0
M  V30 186 C 16.9172 -3.64147 2.24902 0
M  V30 187 C 16.2432 -4.99806 1.89996 0
M  V30 188 C 17.5432 -3.71579 3.67051 0
M  V30 189 H 19.2372 -1.92541 2.29277 0
M  V30 190 H 16.7832 -0.924948 1.10366 0
M  V30 191 H 18.7362 -4.06215 1.12104 0
M  V30 192 H 17.4602 -3.26154 0.170631 0
M  V30 193 H 16.1192 -2.8797 2.26868 0
M  V30 194 H 15.7672 -4.94759 0.906796 0
M  V30 195 H 15.4672 -5.25139 2.63634 0
M  V30 196 H 16.9912 -5.80694 1.88749 0
M  V30 197 H 18.4052 -4.40227 3.67251 0
M  V30 198 H 16.8022 -4.08405 4.39688 0
M  V30 199 H 17.8722 -2.72404 4.01154 0
M  V30 200 N 19.2153 -1.21501 -1.00376 0
M  V30 201 C 20.1653 -0.942843 -2.07592 0
M  V30 202 C 21.1493 0.102384 -1.60574 0
M  V30 203 O 22.3413 -0.10671 -1.76678 0
M  V30 204 C 19.4703 -0.510729 -3.3948 0
M  V30 205 C 18.5563 -1.59009 -3.93163 0
M  V30 206 N 18.9473 -2.81544 -4.20198 0
M  V30 207 C 17.2453 -1.45925 -4.21452 0
M  V30 208 C 17.9463 -3.51261 -4.63671 0
M  V30 209 N 16.9223 -2.78703 -4.66718 0
M  V30 210 H 20.7243 -1.87378 -2.26421 0
M  V30 211 H 18.2383 -1.11093 -1.18458 0
M  V30 212 H 20.2353 -0.297101 -4.1584 0
M  V30 213 H 18.8953 0.413436 -3.22057 0
M  V30 214 H 19.9063 -3.18075 -4.08716 0
M  V30 215 H 16.5833 -0.600467 -4.13159 0
M  V30 216 H 17.9733 -4.56183 -4.93302 0
M  V30 217 N 20.6934 1.19889 -1.02296 0
M  V30 218 C 21.6234 2.25141 -0.619174 0
M  V30 219 C 22.6044 1.66051 0.368915 0
M  V30 220 O 23.7894 1.92546 0.252941 0
M  V30 221 C 20.9194 3.4728 0.0368783 0
M  V30 222 C 19.8734 4.19005 -0.872865 0
M  V30 223 C 19.1994 5.34637 -0.0822402 0
M  V30 224 C 20.4994 4.74452 -2.18387 0
M  V30 225 H 22.1934 2.59171 -1.49903 0
M  V30 226 H 19.7394 1.24579 -0.722222 0
M  V30 227 H 21.6924 4.20098 0.330958 0
M  V30 228 H 20.4164 3.12433 0.95149 0
M  V30 229 H 19.0754 3.48061 -1.15105 0
M  V30 230 H 18.7234 4.96034 0.83422 0
M  V30 231 H 18.4234 5.83557 -0.688149 0
M  V30 232 H 19.9474 6.10255 0.205238 0
M  V30 233 H 21.3614 5.39055 -1.95172 0
M  V30 234 H 19.7584 5.33834 -2.74119 0
M  V30 235 H 20.8284 3.92844 -2.84257 0
M  V30 236 N 22.1715 0.800033 1.35784 0
M  V30 237 C 23.4175 0.38701 1.99684 0
M  V30 238 C 23.7725 -1.03268 1.62338 0
M  V30 239 O 23.0655 -1.70543 0.87325 0
M  V30 240 C 23.2595 0.500276 3.53881 0
M  V30 241 C 23.0885 1.92942 4.06206 0
M  V30 242 C 21.8585 2.55637 4.35865 0
M  V30 243 C 24.0565 2.89307 4.25213 0
M  V30 244 N 22.0385 3.9003 4.74078 0
M  V30 245 C 23.4095 4.08556 4.66349 0
M  V30 246 C 25.4645 2.86225 4.07406 0
M  V30 247 C 24.1675 5.25146 4.91543 0
M  V30 248 C 26.1935 4.02011 4.33752 0
M  V30 249 C 25.5555 5.20007 4.75155 0
M  V30 250 H 21.6545 0.189252 0.758754 0
M  V30 251 H 24.2385 1.03988 1.64604 0
M  V30 252 H 22.4095 -0.122568 3.88207 0
M  V30 253 H 24.1415 0.0624733 4.04652 0
M  V30 254 H 20.8965 2.07039 4.25948 0
M  V30 255 H 21.3205 4.59205 4.97454 0
M  V30 256 H 25.9625 1.96154 3.74544 0
M  V30 257 H 23.6805 6.15794 5.23281 0
M  V30 258 H 27.2665 4.00999 4.21534 0
M  V30 259 H 26.1465 6.08113 4.95145 0
M  V30 260 N 23.6496 -1.47581 0.552962 0
M  V30 261 C 24.5976 -2.31648 -0.21023 0
M  V30 262 C 25.5916 -1.42663 -0.913432 0
M  V30 263 O 26.7976 -1.5945 -0.835201 0
M  V30 264 H 23.1726 -0.746989 -0.0866676 0
M  V30 265 H 25.1436 -2.93869 0.518051 0
M  V30 266 C 23.8926 -3.25226 -1.22976 0
M  V30 267 H 23.2156 -3.93658 -0.698077 0
M  V30 268 H 24.6556 -3.86889 -1.73473 0
M  V30 269 C 23.1146 -2.48448 -2.27542 0
M  V30 270 O 23.6446 -2.22585 -3.34393 0
M  V30 271 N 21.8506 -2.09532 -2.01357 0
M  V30 272 H 21.3976 -2.30765 -1.14478 0
M  V30 273 H 21.3556 -1.58476 -2.71538 0
M  V30 274 N 25.1277 -0.289203 -1.54924 0
M  V30 275 C 26.5437 0.0645403 -1.59469 0
M  V30 276 C 26.7437 1.53419 -1.30632 0
M  V30 277 O 25.7997 2.2852 -1.074 0
M  V30 278 C 27.1127 -0.32278 -2.98963 0
M  V30 279 C 28.6607 -0.270564 -3.11828 0
M  V30 280 C 29.1357 -0.632532 -4.53611 0
M  V30 281 N 30.6267 -0.584617 -4.59496 0
M  V30 282 C 31.3617 -0.837314 -5.67254 0
M  V30 283 N 30.8577 -1.15536 -6.83098 0
M  V30 284 N 32.6507 -0.765166 -5.56868 0
M  V30 285 H 24.8017 -1.24714 -1.71931 0
M  V30 286 H 27.0647 -0.504809 -0.802416 0
M  V30 287 H 26.7707 -1.34541 -3.24948 0
M  V30 288 H 26.6447 0.32944 -3.75759 0
M  V30 289 H 29.0317 0.742805 -2.85598 0
M  V30 290 H 29.1127 -0.957242 -2.37214 0
M  V30 291 H 28.7567 -1.64365 -4.80569 0
M  V30 292 H 28.6867 0.07609 -5.26545 0
M  V30 293 H 31.1777 -0.349248 -3.76283 0
M  V30 294 H 31.4907 -1.33447 -7.61191 0
M  V30 295 H 29.8357 -1.19328 -6.84679 0
M  V30 296 H 33.0267 -0.516432 -4.65243 0
M  V30 297 H 33.1997 -0.965477 -6.40767 0
M  V30 298 N 26.6058 1.57591 -0.0167156 0
M  V30 299 C 27.8308 1.9598 0.67872 0
M  V30 300 C 28.2558 0.892546 1.65575 0
M  V30 301 O 27.6138 -0.147772 1.80697 0
M  V30 302 C 27.6618 3.33468 1.37227 0
M  V30 303 O 26.7658 3.28954 2.48722 0
M  V30 304 H 26.1068 0.639339 0.17928 0
M  V30 305 H 28.6368 2.04463 -0.0748802 0
M  V30 306 H 28.6468 3.69417 1.7319 0
M  V30 307 H 27.3218 4.10694 0.656007 0
M  V30 308 H 25.8988 3.04705 2.14963 0
M  V30 309 N 28.0839 -0.256276 1.55502 0
M  V30 310 C 29.3089 -1.00766 1.81276 0
M  V30 311 C 29.7339 -1.78524 0.59252 0
M  V30 312 O 29.0919 -1.75413 -0.45827 0
M  V30 313 C 29.1399 -1.92869 3.04687 0
M  V30 314 O 28.2439 -3.019 2.80945 0
M  V30 315 H 27.5849 -0.287224 0.598664 0
M  V30 316 H 30.1149 -0.280109 2.02674 0
M  V30 317 H 30.1249 -2.34511 3.33869 0
M  V30 318 H 28.7999 -1.35689 3.93143 0
M  V30 319 H 27.3769 -2.64454 2.62904 0
M  V30 320 N 29.562 -1.4872 -0.521534 0
M  V30 321 C 30.792 -1.6061 -1.29954 0
M  V30 322 C 31.2 -0.268728 -1.87282 0
M  V30 323 O 30.543 0.753221 -1.67548 0
M  V30 324 C 30.605 -2.60013 -2.48261 0
M  V30 325 C 30.269 -4.04874 -2.11957 0
M  V30 326 C 31.266 -4.92304 -1.67132 0
M  V30 327 C 28.951 -4.5047 -2.22221 0
M  V30 328 C 30.945 -6.2336 -1.33047 0
M  V30 329 C 28.632 -5.81544 -1.87748 0
M  V30 330 C 29.63 -6.67812 -1.43234 0
M  V30 331 O 29.318 -7.96446 -1.09217 0
M  V30 332 H 29.05 -0.544116 -0.401141 0
M  V30 333 H 31.604 -1.95339 -0.634958 0
M  V30 334 H 29.834 -2.20422 -3.17728 0
M  V30 335 H 31.523 -2.61648 -3.10315 0
M  V30 336 H 32.289 -4.58312 -1.58665 0
M  V30 337 H 28.168 -3.83504 -2.55823 0
M  V30 338 H 31.712 -6.90649 -0.982299 0
M  V30 339 H 27.609 -6.15069 -1.95858 0
M  V30 340 H 28.377 -8.09275 -1.22542 0
M  V30 341 N 31.0401 0.771051 -1.3745 0
M  V30 342 C 32.4561 1.07171 -1.18265 0
M  V30 343 C 32.6561 2.01491 -0.019287 0
M  V30 344 O 31.7121 2.44244 0.640408 0
M  V30 345 C 33.0251 1.66854 -2.50161 0
M  V30 346 C 34.5731 1.79109 -2.56689 0
M  V30 347 C 35.0481 2.42205 -3.88717 0
M  V30 348 N 36.5391 2.49655 -3.90162 0
M  V30 349 C 37.2741 2.9933 -4.8907 0
M  V30 350 N 36.7701 3.49172 -5.98374 0
M  V30 351 N 38.5631 2.9821 -4.76474 0
M  V30 352 H 30.7141 0.144796 -2.11906 0
M  V30 353 H 32.9771 0.126863 -0.939473 0
M  V30 354 H 32.6831 1.05017 -3.35655 0
M  V30 355 H 32.5571 2.6614 -2.673 0
M  V30 356 H 34.9441 2.40077 -1.71601 0
M  V30 357 H 35.0251 0.785757 -2.43433 0
M  V30 358 H 34.6691 1.81875 -4.74219 0
M  V30 359 H 34.5991 3.43345 -3.99276 0
M  V30 360 H 37.0901 2.14383 -3.11205 0
M  V30 361 H 37.4031 3.8548 -6.69795 0
M  V30 362 H 35.7481 3.47275 -6.02018 0
M  V30 363 H 38.9391 2.58572 -3.90203 0
M  V30 364 H 39.1121 3.36613 -5.53711 0
M  V30 365 N 32.5182 1.22032 0.997298 0
M  V30 366 C 33.4482 1.01065 2.10495 0
M  V30 367 C 34.4292 -0.0669542 1.69968 0
M  V30 368 O 35.6142 0.0943987 1.9397 0
M  V30 369 C 32.7442 0.582874 3.42374 0
M  V30 370 C 31.6982 1.60592 3.96729 0
M  V30 371 C 31.0242 1.03412 5.24605 0
M  V30 372 C 32.3242 2.99478 4.27914 0
M  V30 373 H 34.0182 1.93708 2.28292 0
M  V30 374 H 31.5642 0.932761 1.09707 0
M  V30 375 H 33.5172 0.423332 4.19268 0
M  V30 376 H 32.2412 -0.379213 3.24391 0
M  V30 377 H 30.9002 1.75316 3.21963 0
M  V30 378 H 30.5482 0.063518 5.0296 0
M  V30 379 H 30.2482 1.71754 5.61938 0
M  V30 380 H 31.7722 0.886066 6.04137 0
M  V30 381 H 33.1862 2.88153 4.95622 0
M  V30 382 H 31.5832 3.64903 4.76409 0
M  V30 383 H 32.6532 3.49742 3.3587 0
M  V30 384 N 33.9963 -1.19345 1.0293 0
M  V30 385 C 34.9463 -2.20472 0.58104 0
M  V30 386 C 35.9303 -1.56578 -0.370442 0
M  V30 387 O 37.1223 -1.75963 -0.191344 0
M  V30 388 C 34.2513 -3.43236 -0.066306 0
M  V30 389 C 33.3373 -4.14274 0.907642 0
M  V30 390 N 33.7283 -4.61492 2.07023 0
M  V30 391 C 32.0263 -4.39966 0.731177 0
M  V30 392 C 32.7273 -5.1605 2.68454 0
M  V30 393 N 31.7033 -5.06875 1.96414 0
M  V30 394 H 35.5053 -2.54659 1.46717 0
M  V30 395 H 33.0193 -1.35423 0.896345 0
M  V30 396 H 35.0163 -4.14927 -0.405068 0
M  V30 397 H 33.6763 -3.10549 -0.948118 0
M  V30 398 H 34.6873 -4.56304 2.44963 0
M  V30 399 H 31.3643 -4.17377 -0.101507 0
M  V30 400 H 32.7543 -5.6287 3.66915 0
M  V30 401 N 35.4744 -0.807222 -1.35358 0
M  V30 402 C 36.6994 -0.399309 -2.0352 0
M  V30 403 C 37.1244 0.981986 -1.60433 0
M  V30 404 O 36.4824 1.63601 -0.781299 0
M  V30 405 C 36.5304 -0.491552 -3.57234 0
M  V30 406 O 35.6344 0.494754 -4.09421 0
M  V30 407 H 34.9754 -0.166682 -0.642739 0
M  V30 408 H 37.5054 -1.09328 -1.72941 0
M  V30 409 H 37.5154 -0.361588 -4.06395 0
M  V30 410 H 36.1904 -1.49907 -3.87944 0
M  V30 411 H 34.7674 0.324977 -3.71481 0
M  V30 412 N 36.9525 1.47285 -0.560781 0
M  V30 413 C 37.9005 2.31756 0.197942 0
M  V30 414 C 38.8945 1.43146 0.905854 0
M  V30 415 O 40.1005 1.59891 0.826733 0
M  V30 416 H 36.4755 0.747438 0.0827049 0
M  V30 417 H 38.4465 2.9359 -0.533629 0
M  V30 418 C 37.1955 3.25874 1.21249 0
M  V30 419 H 36.5185 3.94023 0.67719 0
M  V30 420 H 37.9585 3.87803 1.71419 0
M  V30 421 C 36.4175 2.49651 2.26221 0
M  V30 422 O 36.9475 2.24355 3.33208 0
M  V30 423 N 35.1535 2.10597 2.00243 0
M  V30 424 H 34.7005 2.31369 1.13252 0
M  V30 425 H 34.6585 1.59913 2.70694 0
M  V30 426 N 38.4306 0.297415 1.54768 0
M  V30 427 C 39.3936 -0.567375 2.22066 0
M  V30 428 C 40.3936 -1.06409 1.20556 0
M  V30 429 O 41.5836 -0.960691 1.45315 0
M  V30 430 C 38.7156 -1.78517 2.90421 0
M  V30 431 H 39.9086 0.0205534 2.99893 0
M  V30 432 H 37.4616 0.0482163 1.56226 0
M  V30 433 H 38.1966 -2.41303 2.16664 0
M  V30 434 H 37.9816 -1.43669 3.64831 0
M  V30 435 H 39.4716 -2.39964 3.41771 0
M  V30 436 N 39.9087 -1.5758 0.0250728 0
M  V30 437 C 41.1337 -1.96337 -0.668317 0
M  V30 438 C 41.5587 -0.901314 -1.651 0
M  V30 439 O 40.9167 0.138187 -1.80773 0
M  V30 440 C 40.9647 -3.34191 -1.35457 0
M  V30 441 O 40.0687 -3.30269 -2.46974 0
M  V30 442 H 39.4097 -0.640281 -0.175887 0
M  V30 443 H 41.9397 -2.0442 0.0857224 0
M  V30 444 H 41.9497 -3.70331 -1.71228 0
M  V30 445 H 40.6247 -4.11036 -0.634218 0
M  V30 446 H 39.2017 -3.05841 -2.13344 0
M  V30 447 N 41.3868 0.248026 -1.55636 0
M  V30 448 C 42.2968 1.32859 -1.93354 0
M  V30 449 C 43.3128 1.52719 -0.833838 0
M  V30 450 O 44.4888 1.66363 -1.13513 0
M  V30 451 C 41.5538 2.66337 -2.21958 0
M  V30 452 C 40.6148 2.55008 -3.45354 0
M  V30 453 C 39.8478 3.82121 -3.72584 0
M  V30 454 O 40.0708 4.83951 -3.01907 0
M  V30 455 O 39.0048 3.80822 -4.6611 0
M  V30 456 H 42.8308 1.03862 -2.85388 0
M  V30 457 H 40.4158 0.448686 -1.42503 0
M  V30 458 H 42.2978 3.45216 -2.4167 0
M  V30 459 H 40.9728 2.95068 -1.33103 0
M  V30 460 H 39.8798 1.7442 -3.30951 0
M  V30 461 H 41.2128 2.31222 -4.34508 0
M  V30 462 N 42.8649 1.48995 0.513639 0
M  V30 463 C 44.0899 1.61792 1.29762 0
M  V30 464 C 44.5149 0.284475 1.85936 0
M  V30 465 O 43.8729 -0.746185 1.65232 0
M  V30 466 C 43.9209 2.67993 2.41272 0
M  V30 467 O 43.0249 2.26287 3.44772 0
M  V30 468 H 42.3659 0.541963 0.38363 0
M  V30 469 H 44.8959 1.95097 0.616307 0
M  V30 470 H 44.9059 2.89772 2.87221 0
M  V30 471 H 43.5809 3.64791 1.9975 0
M  V30 472 H 42.1579 2.14788 3.04829 0
M  V30 473 N 44.343 -0.763751 1.37857 0
M  V30 474 C 45.273 -1.89103 1.36975 0
M  V30 475 C 46.254 -1.68439 0.237152 0
M  V30 476 O 47.439 -1.8918 0.438713 0
M  V30 477 C 44.569 -3.26496 1.18395 0
M  V30 478 C 43.523 -3.61741 2.28751 0
M  V30 479 C 42.849 -4.97762 1.95286 0
M  V30 480 C 44.149 -3.67665 3.70972 0
M  V30 481 H 45.843 -1.90099 2.31307 0
M  V30 482 H 43.389 -0.91319 1.11341 0
M  V30 483 H 45.342 -4.05003 1.16406 0
M  V30 484 H 44.066 -3.25955 0.205215 0
M  V30 485 H 42.725 -2.85547 2.29909 0
M  V30 486 H 42.373 -4.93769 0.959221 0
M  V30 487 H 42.073 -5.22313 2.69189 0
M  V30 488 H 43.597 -5.7866 1.94898 0
M  V30 489 H 45.011 -4.36307 3.719 0
M  V30 490 H 43.408 -4.03718 4.43995 0
M  V30 491 H 44.478 -2.68134 4.0402 0
M  V30 492 N 45.8211 -1.22559 -0.990812 0
M  V30 493 C 47.0691 -1.04933 -1.72724 0
M  V30 494 C 47.3901 0.416158 -1.90508 0
M  V30 495 O 46.6601 1.29918 -1.46622 0
M  V30 496 H 45.2401 -0.385296 -0.639965 0
M  V30 497 H 47.9021 -1.54105 -1.19322 0
M  V30 498 H 46.9981 -1.52886 -2.72089 0
M  V30 499 N 47.2992 1.18797 -1.03562 0
M  V30 500 C 48.2462 2.22253 -0.622259 0
M  V30 501 C 49.2162 1.61987 0.36736 0
M  V30 502 O 50.4012 1.88986 0.262492 0
M  V30 503 C 47.5412 3.45097 0.0138462 0
M  V30 504 C 46.6542 4.19722 -1.02263 0
M  V30 505 C 45.7892 5.30009 -0.355573 0
M  V30 506 C 44.8282 5.96399 -1.37749 0
M  V30 507 N 43.9652 6.98234 -0.735766 0
M  V30 508 H 48.8052 2.56968 -1.50903 0
M  V30 509 H 46.3422 1.26245 -0.755017 0
M  V30 510 H 48.3002 4.15279 0.399948 0
M  V30 511 H 46.9302 3.11018 0.864158 0
M  V30 512 H 45.9822 3.48418 -1.52673 0
M  V30 513 H 47.2942 4.65227 -1.79903 0
M  V30 514 H 46.4482 6.0664 0.0850095 0
M  V30 515 H 45.1872 4.85592 0.452967 0
M  V30 516 H 44.1922 5.18512 -1.82826 0
M  V30 517 H 45.4172 6.42899 -2.18764 0
M  V30 518 H 43.3632 6.55979 0.0525597 0
M  V30 519 H 43.2802 7.41965 -1.44995 0
M  V30 520 H 44.5482 7.78845 -0.31941 0
M  V30 521 N 48.7773 0.814389 1.34928 0
M  V30 522 C 50.0253 0.397636 1.9815 0
M  V30 523 C 50.3463 -1.04069 1.64908 0
M  V30 524 O 49.6163 -1.72121 0.93548 0
M  V30 525 H 48.1963 0.144043 0.732981 0
M  V30 526 H 50.8583 1.04195 1.6471 0
M  V30 527 H 49.9543 0.509688 3.0791 0
M  V30 528 N 50.2554 -1.46986 0.568584 0
M  V30 529 C 51.4854 -2.0653 0.0539173 0
M  V30 530 C 51.8934 -1.42004 -1.25026 0
M  V30 531 O 51.2364 -0.514541 -1.76347 0
M  V30 532 C 51.2984 -3.58938 -0.200854 0
M  V30 533 C 50.9624 -4.45572 1.01559 0
M  V30 534 C 51.9594 -4.82986 1.92407 0
M  V30 535 C 49.6444 -4.8692 1.23346 0
M  V30 536 C 51.6384 -5.60559 3.03402 0
M  V30 537 C 49.3254 -5.64255 2.34649 0
M  V30 538 C 50.3234 -6.00986 3.24507 0
M  V30 539 O 50.0114 -6.76761 4.33878 0
M  V30 540 H 49.7434 -0.674292 0.0480234 0
M  V30 541 H 52.2974 -1.89812 0.784896 0
M  V30 542 H 50.5274 -3.73911 -0.986279 0
M  V30 543 H 52.2164 -4.0046 -0.662294 0
M  V30 544 H 52.9824 -4.51633 1.76785 0
M  V30 545 H 48.8614 -4.57789 0.543178 0
M  V30 546 H 52.4054 -5.89147 3.73565 0
M  V30 547 H 48.3024 -5.95021 2.5024 0
M  V30 548 H 49.0704 -6.95168 4.32068 0
M  V30 549 N 51.7335 -0.305618 -1.54608 0
M  V30 550 C 52.9585 0.307562 -2.05107 0
M  V30 551 C 53.3835 1.46385 -1.18123 0
M  V30 552 O 52.7415 1.8034 -0.186324 0
M  V30 553 C 52.7895 0.73704 -3.52987 0
M  V30 554 O 51.8935 1.84134 -3.6901 0
M  V30 555 H 51.2345 0.0589143 -0.661381 0
M  V30 556 H 53.7645 -0.448807 -1.99617 0
M  V30 557 H 53.7745 1.02459 -3.94925 0
M  V30 558 H 52.4495 -0.108773 -4.15758 0
M  V30 559 H 51.0265 1.55398 -3.38978 0
M  V30 560 N 53.2116 1.57565 -0.0334293 0
M  V30 561 C 54.4886 1.83282 0.683163 0
M  V30 562 C 54.8686 0.91823 1.90084 0
M  V30 563 O 54.2166 -0.025113 2.28486 0
M  V30 564 C 54.4266 3.32599 1.0573 0
M  V30 565 C 55.7746 3.99179 1.44711 0
M  V30 566 O 56.7986 3.3712 1.15015 0
M  V30 567 O 55.6576 5.08565 2.0006 0
M  V30 568 H 52.7516 0.755869 0.335546 0
M  V30 569 H 55.2976 1.69589 -0.0614402 0
M  V30 570 H 54.0696 3.90834 0.190828 0
M  V30 571 H 53.6926 3.51415 1.85993 0
M  V30 572 N 54.6897 -0.239769 1.55765 0
M  V30 573 C 55.9377 -0.964892 1.77579 0
M  V30 574 C 56.2587 -1.85582 0.598699 0
M  V30 575 O 55.5287 -1.92075 -0.385226 0
M  V30 576 H 54.1087 -0.359265 0.654933 0
M  V30 577 H 56.7707 -0.256001 1.93211 0
M  V30 578 H 55.8667 -1.58243 2.69009 0
M  V30 579 N 56.1678 -1.49265 -0.50573 0
M  V30 580 C 57.4158 -1.582 -1.25766 0
M  V30 581 C 57.7368 -0.268482 -1.93143 0
M  V30 582 O 57.0068 0.711833 -1.8251 0
M  V30 583 H 55.5868 -0.582873 -0.467191 0
M  V30 584 H 58.2488 -1.85865 -0.586525 0
M  V30 585 H 57.3448 -2.37563 -2.02412 0
M  V30 586 N 57.6459 0.756429 -1.3826 0
M  V30 587 C 58.8859 1.52833 -1.35725 0
M  V30 588 C 59.2499 1.91926 0.0534106 0
M  V30 589 O 60.4509 2.68028 0.203613 0
M  V30 590 C 58.7219 2.74919 -2.28373 0
M  V30 591 S 60.2809 3.64817 -2.43832 0
M  V30 592 H 57.0989 0.523043 -0.481608 0
M  V30 593 H 59.7009 0.888212 -1.74158 0
M  V30 594 H 58.4049 2.44304 -3.29763 0
M  V30 595 H 57.9359 3.43878 -1.91079 0
M  V30 596 H 59.9509 4.676 -1.66027 0
M  V30 597 N 59.124 1.23083 0.984299 0
M  V30 598 C 60.354 1.08556 1.75781 0
M  V30 599 C 60.762 -0.366171 1.85623 0
M  V30 600 O 60.105 -1.26524 1.33182 0
M  V30 601 C 60.167 1.63208 3.20318 0
M  V30 602 C 59.831 3.11922 3.33997 0
M  V30 603 C 60.828 4.09259 3.2063 0
M  V30 604 C 58.513 3.51552 3.58771 0
M  V30 605 C 60.507 5.4421 3.31835 0
M  V30 606 C 58.194 4.86649 3.69616 0
M  V30 607 C 59.192 5.82787 3.56157 0
M  V30 608 O 58.88 7.15431 3.66626 0
M  V30 609 H 58.612 0.380713 0.5586 0
M  V30 610 H 61.166 1.63321 1.2456 0
M  V30 611 H 59.396 1.0286 3.72769 0
M  V30 612 H 61.085 1.44216 3.79416 0
M  V30 613 H 61.851 3.79984 3.01392 0
M  V30 614 H 57.73 2.77239 3.6832 0
M  V30 615 H 61.274 6.1923 3.21247 0
M  V30 616 H 57.171 5.15601 3.88363 0
M  V30 617 H 57.939 7.23127 3.83445 0
M  V30 618 N 60.6021 -1.18246 1.0419 0
M  V30 619 C 61.5121 -2.25574 0.644476 0
M  V30 620 C 62.5281 -1.70845 -0.329826 0
M  V30 621 O 63.7041 -2.00554 -0.184443 0
M  V30 622 C 60.7691 -3.46697 0.014877 0
M  V30 623 C 59.8301 -4.16554 1.03834 0
M  V30 624 C 59.0631 -5.31894 0.438692 0
M  V30 625 O 59.2861 -5.65385 -0.754752 0
M  V30 626 O 58.2201 -5.90459 1.168 0
M  V30 627 H 62.0461 -2.61836 1.53869 0
M  V30 628 H 59.6311 -1.25352 0.812854 0
M  V30 629 H 61.5131 -4.20062 -0.335538 0
M  V30 630 H 60.1881 -3.12255 -0.853138 0
M  V30 631 H 59.0951 -3.45251 1.44057 0
M  V30 632 H 60.4281 -4.54998 1.87716 0
M  V30 633 N 62.0802 -0.821533 -1.34494 0
M  V30 634 C 63.0122 -0.199946 -2.28326 0
M  V30 635 C 64.0252 0.609377 -1.50965 0
M  V30 636 O 65.2142 0.439285 -1.7301 0
M  V30 637 C 62.3142 0.738431 -3.30757 0
M  V30 638 C 61.4872 -0.0277632 -4.37391 0
M  V30 639 C 60.5462 0.831332 -5.19591 0
M  V30 640 O 59.5722 0.276822 -5.68526 0
M  V30 641 N 60.7742 2.15132 -5.39165 0
M  V30 642 H 63.5392 -1.00609 -2.82308 0
M  V30 643 H 61.1002 -0.678366 -1.47003 0
M  V30 644 H 63.0922 1.31773 -3.82646 0
M  V30 645 H 61.6622 1.44533 -2.7718 0
M  V30 646 H 60.8822 -0.788359 -3.86236 0
M  V30 647 H 62.1702 -0.555251 -5.05761 0
M  V30 648 H 61.5682 2.62559 -5.01078 0
M  V30 649 H 60.1252 2.6795 -5.94177 0
M  V30 650 N 63.5583 1.46682 -0.576371 0
M  V30 651 C 64.4883 2.33028 0.148397 0
M  V30 652 C 65.4693 1.44961 0.889956 0
M  V30 653 O 66.6543 1.73789 0.866662 0
M  V30 654 C 63.7843 3.27117 1.1667 0
M  V30 655 C 62.7383 4.24575 0.540386 0
M  V30 656 C 62.0643 5.08126 1.6647 0
M  V30 657 C 63.3643 5.19722 -0.518331 0
M  V30 658 H 65.0583 2.93875 -0.572509 0
M  V30 659 H 62.6043 1.41315 -0.276768 0
M  V30 660 H 64.5573 3.86374 1.68204 0
M  V30 661 H 63.2813 2.64364 1.9178 0
M  V30 662 H 61.9403 3.66571 0.0461769 0
M  V30 663 H 61.5883 4.41762 2.40531 0
M  V30 664 H 61.2883 5.74122 1.25131 0
M  V30 665 H 62.8123 5.70246 2.18293 0
M  V30 666 H 64.2263 5.73232 -0.0883058 0
M  V30 667 H 62.6233 5.94026 -0.851679 0
M  V30 668 H 63.6933 4.64037 -1.40703 0
M  V30 669 N 65.0364 0.313813 1.54444 0
M  V30 670 C 66.2834 -0.291675 2.00388 0
M  V30 671 C 66.6114 -1.52904 1.2021 0
M  V30 672 O 65.8664 -1.93833 0.269707 0
M  V30 673 C 66.1654 -0.680386 3.50864 0
M  V30 674 C 65.8314 0.456699 4.48581 0
M  V30 675 C 64.4934 0.768824 4.75018 0
M  V30 676 C 66.8454 1.22098 5.06697 0
M  V30 677 C 64.1734 1.84812 5.56831 0
M  V30 678 C 66.5254 2.29029 5.89685 0
M  V30 679 C 65.1894 2.60834 6.14428 0
M  V30 680 H 64.4594 -0.106732 0.733273 0
M  V30 681 H 67.1064 0.43557 1.86481 0
M  V30 682 H 65.4114 -1.48791 3.62448 0
M  V30 683 H 67.1084 -1.16026 3.83847 0
M  V30 684 H 63.6984 0.203337 4.28117 0
M  V30 685 H 67.8824 0.993096 4.86263 0
M  V30 686 H 63.1384 2.09912 5.74236 0
M  V30 687 H 67.3124 2.887 6.33739 0
M  V30 688 H 64.9394 3.44596 6.77612 0
M  V30 689 N 66.5145 -1.57545 0.0417849 0
M  V30 690 C 67.7605 -1.92601 -0.635021 0
M  V30 691 C 68.0935 -0.919627 -1.71045 0
M  V30 692 O 67.3685 0.0557892 -1.9442 0
M  V30 693 C 67.6515 -3.38085 -1.23979 0
M  V30 694 C 67.5045 -4.49467 -0.173057 0
M  V30 695 C 68.8235 -3.83776 -2.15416 0
M  V30 696 H 65.9425 -0.700397 -0.229374 0
M  V30 697 H 68.5845 -1.89728 0.101633 0
M  V30 698 H 66.7345 -3.40664 -1.86762 0
M  V30 699 H 68.4065 -4.59018 0.458312 0
M  V30 700 H 66.6495 -4.30909 0.499996 0
M  V30 701 H 67.3205 -5.48323 -0.636054 0
M  V30 702 H 69.7965 -3.83013 -1.62605 0
M  V30 703 H 68.6725 -4.8624 -2.54679 0
M  V30 704 H 68.9335 -3.19998 -3.05047 0
M  V30 705 N 67.9926 0.231505 -1.5589 0
M  V30 706 C 69.2176 0.978689 -1.82856 0
M  V30 707 C 69.6426 1.77559 -0.620846 0
M  V30 708 O 69.0006 1.76119 0.430305 0
M  V30 709 C 69.0486 1.87997 -3.07716 0
M  V30 710 O 68.1526 2.97393 -2.85712 0
M  V30 711 H 67.4936 0.277663 -0.603158 0
M  V30 712 H 70.0236 0.24783 -2.03093 0
M  V30 713 H 70.0336 2.2917 -3.37558 0
M  V30 714 H 68.7086 1.29417 -3.95252 0
M  V30 715 H 67.2856 2.60238 -2.67078 0
M  V30 716 N 69.4707 1.49531 0.497807 0
M  V30 717 C 70.8817 1.52344 1.07927 0
M  V30 718 C 71.2327 0.311469 1.93712 0
M  V30 719 O 70.3577 -0.578405 2.08527 0
M  V30 720 C 70.9527 2.76062 1.96405 0
M  V30 721 C 69.5117 2.81643 2.49709 0
M  V30 722 C 68.6587 2.46299 1.27404 0
M  V30 723 H 71.6097 1.56182 0.281576 0
M  V30 724 H 71.6307 2.56405 2.81135 0
M  V30 725 H 71.1427 3.64254 1.33943 0
M  V30 726 H 69.2437 1.97739 3.15801 0
M  V30 727 H 69.3567 3.83891 2.86643 0
M  V30 728 H 67.7207 1.98148 1.60029 0
M  V30 729 H 68.5037 3.36769 0.66645 0
M  V30 730 N 70.9488 -0.749086 1.3866 0
M  V30 731 C 71.8588 -1.89358 1.38494 0
M  V30 732 C 72.8748 -1.71708 0.281476 0
M  V30 733 O 74.0508 -1.94554 0.520643 0
M  V30 734 C 71.1158 -3.24782 1.21316 0
M  V30 735 C 70.1768 -3.54926 2.41508 0
M  V30 736 C 69.4098 -4.83888 2.2514 0
M  V30 737 O 69.6328 -5.56592 1.24746 0
M  V30 738 O 68.5668 -5.13612 3.13826 0
M  V30 739 H 72.3928 -1.92452 2.34938 0
M  V30 740 H 69.9778 -0.894981 1.19626 0
M  V30 741 H 71.8598 -4.05739 1.13814 0
M  V30 742 H 70.5348 -3.2249 0.279592 0
M  V30 743 H 69.4418 -2.74112 2.54585 0
M  V30 744 H 70.7748 -3.61983 3.3351 0
M  V30 745 N 72.4269 -1.23603 -0.977757 0
M  V30 746 C 73.6729 -1.07129 -1.72195 0
M  V30 747 C 74.0059 0.390501 -1.90233 0
M  V30 748 O 73.2809 1.28902 -1.45653 0
M  V30 749 C 73.5639 -1.80031 -3.11867 0
M  V30 750 C 73.4169 -3.33899 -3.01383 0
M  V30 751 C 74.7359 -1.56492 -4.11337 0
M  V30 752 H 71.8549 -0.390571 -0.624999 0
M  V30 753 H 74.4969 -1.52142 -1.13811 0
M  V30 754 H 72.6469 -1.41768 -3.6171 0
M  V30 755 H 74.3189 -3.81699 -2.59043 0
M  V30 756 H 72.5619 -3.62796 -2.37827 0
M  V30 757 H 73.2329 -3.801 -4.00285 0
M  V30 758 H 75.7089 -1.89757 -3.70313 0
M  V30 759 H 74.5849 -2.09973 -5.07151 0
M  V30 760 H 74.8459 -0.500874 -4.39254 0
M  V30 761 N 73.905 1.17692 -1.04816 0
M  V30 762 C 75.152 1.87859 -0.75599 0
M  V30 763 C 75.48 1.80812 0.716752 0
M  V30 764 O 74.735 1.20819 1.53952 0
M  V30 765 C 75.034 3.37462 -1.17703 0
M  V30 766 C 74.7 3.64713 -2.65133 0
M  V30 767 C 73.362 3.71859 -3.05408 0
M  V30 768 C 75.714 3.76492 -3.60421 0
M  V30 769 C 73.042 3.88271 -4.39843 0
M  V30 770 C 75.394 3.94421 -4.94585 0
M  V30 771 C 74.058 3.99806 -5.3452 0
M  V30 772 H 73.328 0.687425 -0.276636 0
M  V30 773 H 75.975 1.39255 -1.31455 0
M  V30 774 H 74.28 3.88097 -0.537395 0
M  V30 775 H 75.977 3.90109 -0.928218 0
M  V30 776 H 72.567 3.59772 -2.32942 0
M  V30 777 H 76.751 3.70295 -3.30447 0
M  V30 778 H 72.007 3.90687 -4.70291 0
M  V30 779 H 76.181 4.02477 -5.68318 0
M  V30 780 H 73.808 4.12276 -6.38696 0
M  V30 781 N 75.3831 0.828654 1.34056 0
M  V30 782 C 76.6291 0.42008 1.98402 0
M  V30 783 C 76.9621 -1.01564 1.65525 0
M  V30 784 O 76.2371 -1.70834 0.929831 0
M  V30 785 C 76.5201 0.62927 3.54559 0
M  V30 786 C 76.3731 2.11152 3.97159 0
M  V30 787 C 77.6921 0.0688756 4.40046 0
M  V30 788 H 74.8111 0.154104 0.720709 0
M  V30 789 H 77.4531 1.04228 1.5886 0
M  V30 790 H 75.6031 0.0996418 3.88372 0
M  V30 791 H 77.2751 2.70522 3.73651 0
M  V30 792 H 75.5181 2.59985 3.47261 0
M  V30 793 H 76.1891 2.20868 5.05887 0
M  V30 794 H 78.6651 0.521458 4.1282 0
M  V30 795 H 77.5411 0.245006 5.48353 0
M  V30 796 H 77.8021 -1.0266 4.30015 0
M  V30 797 N 76.8612 -1.46375 0.584142 0
M  V30 798 C 78.0892 -2.06761 0.0759296 0
M  V30 799 C 78.5042 -1.43266 -1.22965 0
M  V30 800 O 77.8612 -0.538458 -1.74376 0
M  V30 801 C 77.9122 -3.61375 -0.0950384 0
M  V30 802 O 77.6332 -4.22495 1.15887 0
M  V30 803 C 79.1342 -4.38693 -0.637434 0
M  V30 804 H 76.3542 -0.668479 0.0581075 0
M  V30 805 H 78.8982 -1.8798 0.805218 0
M  V30 806 H 77.0532 -3.79578 -0.774554 0
M  V30 807 H 77.4672 -5.15385 0.973598 0
M  V30 808 H 78.9412 -5.47464 -0.706237 0
M  V30 809 H 79.4182 -4.06836 -1.65472 0
M  V30 810 H 80.0242 -4.25299 0.00725967 0
M  V30 811 N 78.3393 -0.321999 -1.54275 0
M  V30 812 C 79.2693 0.537411 -2.27231 0
M  V30 813 C 80.2503 1.12064 -1.27968 0
M  V30 814 O 81.4353 1.14606 -1.56777 0
M  V30 815 C 78.5653 1.69919 -3.02894 0
M  V30 816 C 77.5193 1.24534 -4.09482 0
M  V30 817 C 76.8453 2.49394 -4.72977 0
M  V30 818 C 78.1453 0.361335 -5.21049 0
M  V30 819 H 79.8393 -0.0711406 -2.99315 0
M  V30 820 H 77.3853 -0.0356555 -1.43956 0
M  V30 821 H 79.3383 2.30668 -3.52662 0
M  V30 822 H 78.0623 2.33431 -2.28424 0
M  V30 823 H 76.7213 0.660782 -3.60596 0
M  V30 824 H 76.3693 3.11265 -3.95124 0
M  V30 825 H 76.0693 2.19718 -5.44975 0
M  V30 826 H 77.5933 3.10908 -5.25517 0
M  V30 827 H 79.0073 0.875072 -5.66582 0
M  V30 828 H 77.4043 0.157428 -5.99893 0
M  V30 829 H 78.4743 -0.60822 -4.8107 0
M  V30 830 N 79.8174 1.5752 -0.0501392 0
M  V30 831 C 81.0654 1.9227 0.622642 0
M  V30 832 C 81.3864 0.929083 1.71444 0
M  V30 833 O 80.6564 -0.0262186 1.95882 0
M  V30 834 H 79.2364 0.709739 0.232981 0
M  V30 835 H 81.8984 1.94628 -0.102898 0
M  V30 836 H 80.9944 2.93479 1.06191 0
M  V30 837 N 81.2955 -0.223234 1.56011 0
M  V30 838 C 82.5415 -0.949279 1.79211 0
M  V30 839 C 82.8745 -1.84054 0.619494 0
M  V30 840 O 82.1495 -1.90726 -0.381317 0
M  V30 841 C 82.4325 -1.78965 3.12479 0
M  V30 842 C 82.2855 -0.924997 4.40186 0
M  V30 843 C 83.6045 -2.76774 3.42175 0
M  V30 844 H 80.7235 -0.343676 0.651963 0
M  V30 845 H 83.3655 -0.218253 1.88742 0
M  V30 846 H 81.5155 -2.41291 3.04485 0
M  V30 847 H 83.1875 -0.318615 4.60198 0
M  V30 848 H 81.4305 -0.230344 4.33188 0
M  V30 849 H 82.1015 -1.54735 5.29869 0
M  V30 850 H 84.5775 -2.24584 3.50287 0
M  V30 851 H 83.4535 -3.32678 4.36597 0
M  V30 852 H 83.7145 -3.54429 2.64258 0
M  V30 853 N 82.7736 -1.49793 -0.48987 0
M  V30 854 C 84.0226 -1.59085 -1.23995 0
M  V30 855 C 84.3356 -0.287907 -1.9347 0
M  V30 856 O 85.5416 -0.259506 -2.70257 0
M  V30 857 C 83.9976 -2.80736 -2.252 0
M  V30 858 C 83.6056 -4.17833 -1.61614 0
M  V30 859 C 85.3496 -2.99364 -3.00967 0
M  V30 860 C 83.2566 -5.30693 -2.60996 0
M  V30 861 H 82.1866 -0.592372 -0.466488 0
M  V30 862 H 84.8376 -1.76197 -0.51252 0
M  V30 863 H 83.2196 -2.57142 -3.01154 0
M  V30 864 H 84.3936 -4.51608 -0.915774 0
M  V30 865 H 82.7086 -4.04656 -0.981977 0
M  V30 866 H 85.3056 -3.80851 -3.75308 0
M  V30 867 H 85.6486 -2.10356 -3.59244 0
M  V30 868 H 86.1816 -3.2305 -2.32128 0
M  V30 869 H 82.9206 -6.21796 -2.07485 0
M  V30 870 H 82.4406 -5.01359 -3.2924 0
M  V30 871 H 84.1196 -5.6049 -3.23202 0
M  V30 872 N 84.2517 0.741722 -1.39055 0
M  V30 873 C 85.4767 1.53607 -1.39354 0
M  V30 874 C 85.9017 1.88096 0.0116905 0
M  V30 875 O 85.2597 1.5143 0.996924 0
M  V30 876 C 85.3077 2.80441 -2.26682 0
M  V30 877 O 84.4117 3.76088 -1.69208 0
M  V30 878 H 83.7527 0.464142 -0.474835 0
M  V30 879 H 86.2827 0.915665 -1.82967 0
M  V30 880 H 86.2927 3.29246 -2.40959 0
M  V30 881 H 84.9677 2.5467 -3.2881 0
M  V30 882 H 83.5447 3.34833 -1.64138 0
M  V30 883 N 85.7298 1.2412 0.971189 0
M  V30 884 C 86.6598 1.05508 2.08304 0
M  V30 885 C 87.6408 -0.0308864 1.70072 0
M  V30 886 O 88.8258 0.135521 1.93727 0
M  V30 887 C 85.9558 0.655365 3.4106 0
M  V30 888 C 84.9098 1.68971 3.93234 0
M  V30 889 C 84.2358 1.14516 5.22293 0
M  V30 890 C 85.5358 3.08487 4.21465 0
M  V30 891 H 87.2298 1.98507 2.24132 0
M  V30 892 H 84.7758 0.955821 1.07704 0
M  V30 893 H 86.7288 0.51217 4.18276 0
M  V30 894 H 85.4528 -0.31032 3.25122 0
M  V30 895 H 84.1118 1.82106 3.18171 0
M  V30 896 H 83.7598 0.170189 5.02712 0
M  V30 897 H 83.4598 1.83635 5.58168 0
M  V30 898 H 84.9838 1.01401 6.02121 0
M  V30 899 H 86.3978 2.98601 4.89398 0
M  V30 900 H 84.7948 3.74926 4.68562 0
M  V30 901 H 85.8648 3.56787 3.28376 0
M  V30 902 N 87.2079 -1.17134 1.05439 0
M  V30 903 C 88.1379 -2.2342 0.678649 0
M  V30 904 C 89.1189 -1.66971 -0.32476 0
M  V30 905 O 90.3039 -1.93149 -0.201802 0
M  V30 906 C 87.4339 -3.47256 0.0552099 0
M  V30 907 C 86.3879 -4.16543 0.98365 0
M  V30 908 C 85.7139 -5.34231 0.223961 0
M  V30 909 C 87.0139 -4.68495 2.3089 0
M  V30 910 H 88.7079 -2.55105 1.56722 0
M  V30 911 H 86.2539 -1.2262 0.754998 0
M  V30 912 H 88.2069 -4.20828 -0.21946 0
M  V30 913 H 86.9309 -3.14846 -0.868319 0
M  V30 914 H 85.5899 -3.44887 1.24293 0
M  V30 915 H 85.2379 -4.98071 -0.702412 0
M  V30 916 H 84.9379 -5.81527 0.842627 0
M  V30 917 H 86.4619 -6.10585 -0.0433671 0
M  V30 918 H 87.8759 -5.33691 2.09396 0
M  V30 919 H 86.2729 -5.26379 2.88176 0
M  V30 920 H 87.3429 -3.85169 2.94572 0
M  V30 921 N 88.686 -0.835752 -1.33615 0
M  V30 922 C 89.596 -0.269088 -2.33052 0
M  V30 923 C 90.612 0.603251 -1.63208 0
M  V30 924 O 91.788 0.508112 -1.94885 0
M  V30 925 C 88.853 0.549091 -3.42324 0
M  V30 926 C 87.914 -0.347156 -4.27894 0
M  V30 927 C 87.147 0.43207 -5.31948 0
M  V30 928 O 87.37 1.66409 -5.45586 0
M  V30 929 O 86.304 -0.192298 -6.01593 0
M  V30 930 H 90.13 -1.09243 -2.83372 0
M  V30 931 H 87.715 -0.598198 -1.36901 0
M  V30 932 H 89.597 1.01414 -4.09015 0
M  V30 933 H 88.272 1.34955 -2.94226 0
M  V30 934 H 87.179 -0.859979 -3.64081 0
M  V30 935 H 88.512 -1.1123 -4.79467 0
M  V30 936 N 90.1641 1.46063 -0.591896 0
M  V30 937 C 91.1121 2.32124 0.148739 0
M  V30 938 C 92.1061 1.45035 0.875286 0
M  V30 939 O 93.3121 1.61609 0.792632 0
M  V30 940 H 89.6871 0.749024 0.066832 0
M  V30 941 H 91.6581 2.92392 -0.595783 0
M  V30 942 C 90.4071 3.28373 1.1431 0
M  V30 943 H 89.7301 3.95371 0.59346 0
M  V30 944 H 91.1701 3.91352 1.63155 0
M  V30 945 C 89.6291 2.54393 2.20875 0
M  V30 946 O 90.1591 2.31373 3.28374 0
M  V30 947 N 88.3651 2.14797 1.95731 0
M  V30 948 H 87.9121 2.33719 1.08319 0
M  V30 949 H 87.8701 1.65619 2.67241 0
M  V30 950 N 91.6422 0.330177 1.54103 0
M  V30 951 C 92.8912 -0.271336 1.99867 0
M  V30 952 C 93.2042 -1.52723 1.22209 0
M  V30 953 O 94.4102 -2.20515 1.58383 0
M  V30 954 C 92.8662 -0.534032 3.55916 0
M  V30 955 C 92.4742 0.705193 4.42415 0
M  V30 956 C 94.2182 -1.09514 4.1013 0
M  V30 957 C 92.1252 0.414035 5.89949 0
M  V30 958 H 91.0552 -0.105166 0.74663 0
M  V30 959 H 93.7062 0.443429 1.78062 0
M  V30 960 H 92.0882 -1.30915 3.73734 0
M  V30 961 H 93.2622 1.4804 4.36372 0
M  V30 962 H 91.5772 1.18698 3.99124 0
M  V30 963 H 94.1742 -1.3277 5.17954 0
M  V30 964 H 94.5172 -2.04656 3.62521 0
M  V30 965 H 95.0502 -0.381038 3.95971 0
M  V30 966 H 91.7892 1.33481 6.41766 0
M  V30 967 H 91.3092 -0.323336 5.98928 0
M  V30 968 H 92.9882 0.0263105 6.46995 0
M  V30 969 N 93.1203 -1.57491 0.0584922 0
M  V30 970 C 94.0503 -2.14988 -0.911178 0
M  V30 971 C 95.0313 -1.07343 -1.31952 0
M  V30 972 O 96.2163 -1.35318 -1.39294 0
M  V30 973 C 93.3463 -2.70078 -2.18347 0
M  V30 974 C 92.3003 -3.82771 -1.91495 0
M  V30 975 C 91.6263 -4.24408 -3.25241 0
M  V30 976 C 92.9263 -5.07592 -1.23075 0
M  V30 977 H 94.6203 -2.96263 -0.432246 0
M  V30 978 H 92.1663 -1.42512 -0.206469 0
M  V30 979 H 94.1193 -3.08943 -2.86587 0
M  V30 980 H 92.8433 -1.86005 -2.68458 0
M  V30 981 H 91.5023 -3.44389 -1.25664 0
M  V30 982 H 91.1503 -3.37275 -3.73168 0
M  V30 983 H 90.8503 -5.00366 -3.08071 0
M  V30 984 H 92.3743 -4.65879 -3.94701 0
M  V30 985 H 93.7883 -5.43857 -1.81362 0
M  V30 986 H 92.1853 -5.88741 -1.16207 0
M  V30 987 H 93.2553 -4.84454 -0.207847 0
M  V30 988 N 94.5984 0.214957 -1.56127 0
M  V30 989 C 95.8444 0.939762 -1.79712 0
M  V30 990 C 96.1774 1.83723 -0.629247 0
M  V30 991 O 95.4524 1.90925 0.371197 0
M  V30 992 C 95.7354 1.77306 -3.13424 0
M  V30 993 C 95.5884 0.90164 -4.40671 0
M  V30 994 C 96.9074 2.74956 -3.43638 0
M  V30 995 H 94.0264 0.340214 -0.653776 0
M  V30 996 H 96.6684 0.20824 -1.88855 0
M  V30 997 H 94.8184 2.39673 -3.0576 0
M  V30 998 H 96.4904 0.294206 -4.60361 0
M  V30 999 H 94.7334 0.207368 -4.33304 0
M  V30 1000 H 95.4044 1.51923 -5.30682 0
M  V30 1001 H 97.8804 2.22724 -3.51473 0
M  V30 1002 H 96.7564 3.30358 -4.38355 0
M  V30 1003 H 97.0174 3.53023 -2.66134 0
M  V30 1004 N 96.0765 1.50051 0.48192 0
M  V30 1005 C 97.3255 1.59741 1.23149 0
M  V30 1006 C 97.6385 0.298163 1.93314 0
M  V30 1007 O 98.8445 0.273835 2.70116 0
M  V30 1008 C 97.3005 2.81926 2.23708 0
M  V30 1009 C 96.9085 4.18685 1.59396 0
M  V30 1010 C 98.6525 3.00956 2.99375 0
M  V30 1011 C 96.5595 5.3207 2.58178 0
M  V30 1012 H 95.4895 0.594838 0.46334 0
M  V30 1013 H 98.1405 1.76467 0.503169 0
M  V30 1014 H 96.5225 2.58736 2.99786 0
M  V30 1015 H 97.6965 4.52088 0.891811 0
M  V30 1016 H 96.0115 4.05171 0.960503 0
M  V30 1017 H 98.6085 3.82836 3.73283 0
M  V30 1018 H 98.9515 2.12258 3.58123 0
M  V30 1019 H 99.4845 3.24277 2.30411 0
M  V30 1020 H 96.2235 6.22888 2.04184 0
M  V30 1021 H 95.7435 5.03098 3.26577 0
M  V30 1022 H 97.4225 5.62196 3.20225 0
M  V30 1023 N 97.5546 -0.734337 1.39446 0
M  V30 1024 C 98.8006 -1.49613 1.36908 0
M  V30 1025 C 99.1336 -1.94169 -0.0347829 0
M  V30 1026 O 98.4086 -1.66833 -0.999847 0
M  V30 1027 C 98.6916 -2.73534 2.34203 0
M  V30 1028 C 98.5446 -2.34993 3.83534 0
M  V30 1029 C 99.8636 -3.75635 2.29317 0
M  V30 1030 H 96.9826 -0.542714 0.498629 0
M  V30 1031 H 99.6246 -0.839597 1.70443 0
M  V30 1032 H 97.7746 -3.29553 2.05736 0
M  V30 1033 H 99.4466 -1.84601 4.22753 0
M  V30 1034 H 97.6896 -1.67213 4.00278 0
M  V30 1035 H 98.3606 -3.23738 4.47099 0
M  V30 1036 H 100.837 -3.29203 2.54489 0
M  V30 1037 H 99.7126 -4.60008 2.99472 0
M  V30 1038 H 99.9736 -4.22603 1.29842 0
M  V30 1039 N 99.0327 -1.24633 -0.964593 0
M  V30 1040 C 99.9957 -1.0424 -2.04124 0
M  V30 1041 C 100.996 0.00137563 -1.608 0
M  V30 1042 O 102.186 -0.239883 -1.7254 0
M  V30 1043 C 99.3177 -0.580588 -3.3592 0
M  V30 1044 H 100.511 -1.99803 -2.23649 0
M  V30 1045 H 98.0637 -1.06899 -1.14027 0
M  V30 1046 H 98.7987 0.3781 -3.22088 0
M  V30 1047 H 98.5837 -1.33398 -3.6871 0
M  V30 1048 H 100.074 -0.459034 -4.15069 0
M  V30 1049 N 100.511 1.16574 -1.06058 0
M  V30 1050 C 101.76 1.86385 -0.770944 0
M  V30 1051 C 102.073 1.82448 0.705129 0
M  V30 1052 O 103.279 2.47815 1.10905 0
M  V30 1053 C 101.735 3.34466 -1.32893 0
M  V30 1054 C 101.343 3.46883 -2.83507 0
M  V30 1055 C 103.087 4.09548 -1.11672 0
M  V30 1056 C 100.994 4.89036 -3.32562 0
M  V30 1057 H 99.9238 0.698181 -0.284709 0
M  V30 1058 H 102.575 1.31583 -1.27899 0
M  V30 1059 H 100.957 3.88859 -0.748662 0
M  V30 1060 H 102.131 3.02663 -3.47465 0
M  V30 1061 H 100.446 2.85232 -3.03368 0
M  V30 1062 H 103.043 5.14434 -1.45814 0
M  V30 1063 H 103.386 4.16264 -0.0549535 0
M  V30 1064 H 103.919 3.61387 -1.66265 0
M  V30 1065 H 100.658 4.87499 -4.38207 0
M  V30 1066 H 100.178 5.3389 -2.73351 0
M  V30 1067 H 101.857 5.57843 -3.2775 0
M  V30 1068 N 101.989 0.842826 1.3317 0
M  V30 1069 C 102.952 0.284065 2.27433 0
M  V30 1070 C 103.952 -0.54948 1.5112 0
M  V30 1071 O 105.142 -0.362699 1.70382 0
M  V30 1072 C 102.274 -0.599384 3.35589 0
M  V30 1073 H 103.467 1.11589 2.78366 0
M  V30 1074 H 101.02 0.616221 1.4364 0
M  V30 1075 H 101.755 -1.45349 2.89904 0
M  V30 1076 H 101.54 -0.00291266 3.921 0
M  V30 1077 H 103.03 -0.983488 4.05854 0
M  V30 1078 N 103.467 -1.45747 0.599634 0
M  V30 1079 C 104.414 -2.30467 -0.123849 0
M  V30 1080 C 105.384 -1.41632 -0.86774 0
M  V30 1081 O 106.569 -1.70568 -0.855056 0
M  V30 1082 C 103.709 -3.26402 -1.12051 0
M  V30 1083 C 102.822 -4.3034 -0.37832 0
M  V30 1084 C 101.957 -5.13389 -1.364 0
M  V30 1085 C 100.996 -6.09061 -0.609171 0
M  V30 1086 N 100.133 -6.84918 -1.54374 0
M  V30 1087 H 104.973 -2.91802 0.604627 0
M  V30 1088 H 102.51 -1.43797 0.309972 0
M  V30 1089 H 104.468 -3.80482 -1.7114 0
M  V30 1090 H 103.098 -2.66839 -1.8165 0
M  V30 1091 H 102.15 -3.78984 0.327929 0
M  V30 1092 H 103.462 -4.98354 0.210997 0
M  V30 1093 H 102.616 -5.7183 -2.02719 0
M  V30 1094 H 101.355 -4.45376 -1.98725 0
M  V30 1095 H 100.36 -5.49758 0.0676979 0
M  V30 1096 H 101.585 -6.79099 0.00891991 0
M  V30 1097 H 99.531 -6.19601 -2.15478 0
M  V30 1098 H 99.448 -7.49254 -1.00766 0
M  V30 1099 H 100.716 -7.47906 -2.19676 0
M  V30 1100 N 104.945 -0.338344 -1.53925 0
M  V30 1101 C 105.893 0.536231 -2.26335 0
M  V30 1102 C 106.887 1.1063 -1.28286 0
M  V30 1103 O 108.093 1.05264 -1.46012 0
M  V30 1104 H 104.468 0.191602 -0.727181 0
M  V30 1105 H 106.439 -0.0965747 -2.98244 0
M  V30 1106 C 105.188 1.67803 -3.04528 0
M  V30 1107 H 104.511 1.24864 -3.79801 0
M  V30 1108 H 105.951 2.26526 -3.58416 0
M  V30 1109 C 104.41 2.60439 -2.13712 0
M  V30 1110 O 104.94 3.6255 -1.72975 0
M  V30 1111 N 103.146 2.29006 -1.78898 0
M  V30 1112 H 102.693 1.46011 -2.12223 0
M  V30 1113 H 102.651 2.91248 -1.18416 0
M  V30 1114 N 106.423 1.57458 -0.0668435 0
M  V30 1115 C 107.37 2.12439 0.902122 0
M  V30 1116 C 108.34 1.03565 1.2986 0
M  V30 1117 O 109.525 1.312 1.38532 0
M  V30 1118 C 106.665 2.6865 2.16614 0
M  V30 1119 C 105.778 3.91663 1.82274 0
M  V30 1120 C 104.913 4.36134 3.0325 0
M  V30 1121 C 103.952 5.51808 2.64904 0
M  V30 1122 N 103.089 5.9126 3.78624 0
M  V30 1123 H 107.929 2.94934 0.426382 0
M  V30 1124 H 105.466 1.4575 0.198819 0
M  V30 1125 H 107.424 2.99346 2.90599 0
M  V30 1126 H 106.054 1.88928 2.61737 0
M  V30 1127 H 105.106 3.6746 0.983719 0
M  V30 1128 H 106.418 4.75693 1.50059 0
M  V30 1129 H 105.572 4.68465 3.85519 0
M  V30 1130 H 104.311 3.50948 3.38655 0
M  V30 1131 H 103.316 5.19133 1.81055 0
M  V30 1132 H 104.541 6.38722 2.30675 0
M  V30 1133 H 102.487 5.09024 4.138 0
M  V30 1134 H 102.404 6.70018 3.5016 0
M  V30 1135 H 103.672 6.28212 4.61486 0
M  V30 1136 N 107.901 -0.206675 1.56239 0
M  V30 1137 C 108.849 -1.27571 1.94495 0
M  V30 1138 C 109.843 -1.47737 0.828862 0
M  V30 1139 O 111.049 -1.48735 1.0138 0
M  V30 1140 H 107.424 -0.428029 0.6183 0
M  V30 1141 H 109.395 -0.925961 2.8367 0
M  V30 1142 C 108.144 -2.61568 2.29079 0
M  V30 1143 H 107.467 -2.46863 3.14482 0
M  V30 1144 H 108.907 -3.35144 2.5972 0
M  V30 1145 C 107.366 -3.17695 1.12123 0
M  V30 1146 O 107.896 -3.99801 0.390153 0
M  V30 1147 N 106.102 -2.76276 0.901097 0
M  V30 1148 H 105.649 -2.09613 1.49733 0
M  V30 1149 H 105.607 -3.1417 0.120319 0
M  V30 1150 N 109.379 -1.50304 -0.473955 0
M  V30 1151 C 110.309 -1.71886 -1.58042 0
M  V30 1152 C 111.29 -0.567799 -1.60344 0
M  V30 1153 O 112.475 -0.806623 -1.76656 0
M  V30 1154 C 109.605 -1.81036 -2.96384 0
M  V30 1155 C 108.559 -2.962 -3.08949 0
M  V30 1156 C 107.885 -2.9049 -4.48909 0
M  V30 1157 C 109.185 -4.36752 -2.86434 0
M  V30 1158 H 110.879 -2.64527 -1.40234 0
M  V30 1159 H 108.425 -1.27295 -0.673201 0
M  V30 1160 H 110.378 -1.94719 -3.73714 0
M  V30 1161 H 109.102 -0.850147 -3.15341 0
M  V30 1162 H 107.761 -2.82164 -2.3405 0
M  V30 1163 H 107.409 -1.92321 -4.64781 0
M  V30 1164 H 107.109 -3.67802 -4.58253 0
M  V30 1165 H 108.633 -3.06218 -5.28264 0
M  V30 1166 H 110.047 -4.5133 -3.53517 0
M  V30 1167 H 108.444 -5.15493 -3.07225 0
M  V30 1168 H 109.514 -4.49321 -1.82316 0
M  V30 1169 N 110.857 0.726932 -1.39834 0
M  V30 1170 C 111.807 1.83232 -1.35683 0
M  V30 1171 C 112.791 1.59155 -0.236295 0
M  V30 1172 O 113.983 1.70522 -0.474488 0
M  V30 1173 C 111.112 3.21246 -1.21062 0
M  V30 1174 C 110.198 3.51125 -2.37849 0
M  V30 1175 N 110.589 3.51889 -3.63329 0
M  V30 1176 C 108.887 3.81527 -2.30982 0
M  V30 1177 C 109.588 3.79791 -4.40606 0
M  V30 1178 N 108.564 3.97971 -3.70297 0
M  V30 1179 H 112.366 1.8214 -2.30656 0
M  V30 1180 H 109.88 0.925545 -1.33444 0
M  V30 1181 H 111.877 4.00387 -1.16171 0
M  V30 1182 H 110.537 3.23572 -0.270458 0
M  V30 1183 H 111.548 3.33008 -3.96643 0
M  V30 1184 H 108.225 3.91411 -1.45272 0
M  V30 1185 H 109.615 3.86783 -5.49408 0
M  V30 1186 N 112.336 1.25143 0.95797 0
M  V30 1187 C 113.561 1.12521 1.74223 0
M  V30 1188 C 113.986 -0.317402 1.85403 0
M  V30 1189 O 113.344 -1.2299 1.33204 0
M  V30 1190 C 113.392 1.78062 3.1357 0
M  V30 1191 O 112.496 1.058 3.98598 0
M  V30 1192 H 111.837 0.39304 0.535178 0
M  V30 1193 H 114.367 1.65641 1.201 0
M  V30 1194 H 114.377 1.84213 3.64046 0
M  V30 1195 H 113.052 2.83021 3.04749 0
M  V30 1196 H 111.629 1.07506 3.57067 0
M  V30 1197 N 113.814 -1.1601 1.06675 0
M  V30 1198 C 115.225 -1.68235 0.809565 0
M  V30 1199 C 115.576 -1.8454 -0.666303 0
M  V30 1200 O 114.701 -1.54374 -1.5165 0
M  V30 1201 C 115.296 -3.05585 1.46299 0
M  V30 1202 C 113.855 -3.54915 1.25349 0
M  V30 1203 C 113.002 -2.30804 1.53703 0
M  V30 1204 H 115.953 -1.00318 1.22971 0
M  V30 1205 H 115.974 -3.70174 0.880431 0
M  V30 1206 H 115.486 -2.93686 2.53713 0
M  V30 1207 H 113.587 -3.72067 0.199261 0
M  V30 1208 H 113.7 -4.36774 1.9689 0
M  V30 1209 H 112.064 -2.36007 0.957739 0
M  V30 1210 H 112.847 -2.21499 2.62284 0
M  V30 1211 N 115.292 -0.849877 -1.32721 0
M  V30 1212 C 116.225 -0.235903 -2.26977 0
M  V30 1213 C 117.203 0.623355 -1.50177 0
M  V30 1214 O 118.387 0.581207 -1.79316 0
M  V30 1215 C 115.514 0.667712 -3.32053 0
M  V30 1216 C 114.56 -0.11753 -4.26338 0
M  V30 1217 S 115.393 -1.48277 -5.14562 0
M  V30 1218 C 116.549 -0.584741 -6.23163 0
M  V30 1219 H 116.782 -1.03495 -2.78704 0
M  V30 1220 H 114.315 -0.64724 -1.40179 0
M  V30 1221 H 116.273 1.18343 -3.93072 0
M  V30 1222 H 114.934 1.44052 -2.7912 0
M  V30 1223 H 114.127 0.57051 -5.00761 0
M  V30 1224 H 113.729 -0.564668 -3.69713 0
M  V30 1225 H 116.021 0.212968 -6.77165 0
M  V30 1226 H 116.964 -1.29947 -6.96074 0
M  V30 1227 H 117.372 -0.161202 -5.6427 0
M  V30 1228 N 116.77 1.45427 -0.607355 0
M  V30 1229 C 118 2.06314 -0.108656 0
M  V30 1230 C 118.408 1.45269 1.21217 0
M  V30 1231 O 117.751 0.561115 1.74921 0
M  V30 1232 C 117.813 3.59345 0.105618 0
M  V30 1233 C 117.477 4.42723 -1.13337 0
M  V30 1234 C 118.474 4.77715 -2.05145 0
M  V30 1235 C 116.159 4.83478 -1.36213 0
M  V30 1236 C 118.153 5.52317 -3.18158 0
M  V30 1237 C 115.84 5.57835 -2.49527 0
M  V30 1238 C 116.838 5.92171 -3.40327 0
M  V30 1239 O 116.526 6.65019 -4.51669 0
M  V30 1240 H 116.258 0.672782 -0.0658842 0
M  V30 1241 H 118.812 1.87664 -0.834945 0
M  V30 1242 H 117.042 3.76394 0.886796 0
M  V30 1243 H 118.731 4.02076 0.555886 0
M  V30 1244 H 119.497 4.46787 -1.88697 0
M  V30 1245 H 115.376 4.56188 -0.664362 0
M  V30 1246 H 118.92 5.79036 -3.89054 0
M  V30 1247 H 114.817 5.88177 -2.65928 0
M  V30 1248 H 115.585 6.83469 -4.50348 0
M  V30 1249 N 118.248 0.346503 1.53744 0
M  V30 1250 C 119.495 -0.249104 2.00962 0
M  V30 1251 C 119.823 -1.5032 1.23426 0
M  V30 1252 O 119.078 -1.93217 0.310761 0
M  V30 1253 C 119.377 -0.605809 3.52228 0
M  V30 1254 C 119.043 0.551747 4.47512 0
M  V30 1255 C 117.705 0.86941 4.73281 0
M  V30 1256 C 120.057 1.32818 5.03993 0
M  V30 1257 C 117.385 1.96582 5.52786 0
M  V30 1258 C 119.737 2.41486 5.84694 0
M  V30 1259 C 118.401 2.73808 6.08757 0
M  V30 1260 H 117.671 -0.0911538 0.735372 0
M  V30 1261 H 120.318 0.475027 1.85515 0
M  V30 1262 H 118.623 -1.4107 3.65522 0
M  V30 1263 H 120.32 -1.07858 3.86222 0
M  V30 1264 H 116.91 0.294102 4.2759 0
M  V30 1265 H 121.094 1.09602 4.84047 0
M  V30 1266 H 116.35 2.22045 5.69654 0
M  V30 1267 H 120.524 3.02078 6.27473 0
M  V30 1268 H 118.151 3.58892 6.7015 0
M  V30 1269 N 119.726 -1.57421 0.075193 0
M  V30 1270 C 120.973 -1.93618 -0.593146 0
M  V30 1271 C 121.301 -0.955484 -1.69413 0
M  V30 1272 O 120.556 0.0283251 -1.9568 0
M  V30 1273 C 120.855 -3.36428 -1.20626 0
M  V30 1274 C 120.521 -4.50307 -0.231078 0
M  V30 1275 C 119.183 -4.81186 0.0371936 0
M  V30 1276 C 121.535 -5.19374 0.435888 0
M  V30 1277 C 118.863 -5.78466 0.979461 0
M  V30 1278 C 121.215 -6.17665 1.3665 0
M  V30 1279 C 119.879 -6.46958 1.6432 0
M  V30 1280 H 119.149 -0.708499 -0.217047 0
M  V30 1281 H 121.796 -1.90937 0.146793 0
M  V30 1282 H 120.101 -3.35592 -2.02201 0
M  V30 1283 H 121.798 -3.61727 -1.73073 0
M  V30 1284 H 118.388 -4.26227 -0.450357 0
M  V30 1285 H 122.572 -4.95711 0.241748 0
M  V30 1286 H 117.828 -5.99487 1.20106 0
M  V30 1287 H 122.002 -6.70284 1.88924 0
M  V30 1288 H 119.629 -7.2215 2.37494 0
M  V30 1289 N 121.204 0.198386 -1.56346 0
M  V30 1290 C 122.453 0.917451 -1.79627 0
M  V30 1291 C 122.766 1.8456 -0.64784 0
M  V30 1292 O 123.972 2.60504 -0.764859 0
M  V30 1293 C 122.428 1.68175 -3.18191 0
M  V30 1294 C 122.036 0.798589 -4.40825 0
M  V30 1295 C 123.78 2.39065 -3.50782 0
M  V30 1296 C 121.687 1.56157 -5.70411 0
M  V30 1297 H 120.617 0.346317 -0.669762 0
M  V30 1298 H 123.268 0.170801 -1.82703 0
M  V30 1299 H 121.65 2.47216 -3.09354 0
M  V30 1300 H 122.824 0.0470665 -4.60776 0
M  V30 1301 H 121.139 0.200686 -4.15916 0
M  V30 1302 H 123.736 2.96692 -4.44835 0
M  V30 1303 H 124.079 3.13091 -2.74371 0
M  V30 1304 H 124.612 1.66993 -3.61052 0
M  V30 1305 H 121.351 0.864142 -6.49779 0
M  V30 1306 H 120.871 2.2871 -5.54483 0
M  V30 1307 H 122.55 2.11622 -6.11412 0
M  V30 1308 N 122.682 1.50554 0.465978 0
M  V30 1309 C 123.922 1.63439 1.22747 0
M  V30 1310 C 124.286 0.329822 1.89146 0
M  V30 1311 O 125.487 0.334161 2.66715 0
M  V30 1312 C 123.758 2.78542 2.2394 0
M  V30 1313 S 125.317 3.11591 3.0896 0
M  V30 1314 H 122.135 0.576113 0.416672 0
M  V30 1315 H 124.737 1.88357 0.523641 0
M  V30 1316 H 123.441 3.71805 1.7375 0
M  V30 1317 H 122.972 2.55726 2.98944 0
M  V30 1318 H 124.987 2.55811 4.25176 0
M  V30 1319 N 124.16 -0.719506 1.40217 0
M  V30 1320 C 125.385 -1.51371 1.4178 0
M  V30 1321 C 125.81 -1.88091 0.0182355 0
M  V30 1322 O 125.168 -1.52997 -0.972707 0
M  V30 1323 C 125.216 -2.768 2.31115 0
M  V30 1324 O 124.32 -3.73349 1.7517 0
M  V30 1325 H 123.661 -0.456529 0.482159 0
M  V30 1326 H 126.191 -0.88644 1.844 0
M  V30 1327 H 126.201 -3.25371 2.46167 0
M  V30 1328 H 124.876 -2.49407 3.3282 0
M  V30 1329 H 123.453 -3.32179 1.69444 0
M  V30 1330 N 125.638 -1.25649 -0.95132 0
M  V30 1331 C 126.568 -1.08808 -2.06599 0
M  V30 1332 C 127.549 0.00382547 -1.701 0
M  V30 1333 O 128.734 -0.166325 -1.93486 0
M  V30 1334 C 125.864 -0.709542 -3.39975 0
M  V30 1335 C 124.818 -1.75206 -3.90496 0
M  V30 1336 C 124.144 -1.22811 -5.20405 0
M  V30 1337 C 125.444 -3.15153 -4.16504 0
M  V30 1338 H 127.138 -2.02048 -2.20946 0
M  V30 1339 H 124.684 -0.972835 -1.06169 0
M  V30 1340 H 126.637 -0.578649 -4.17408 0
M  V30 1341 H 125.361 0.258556 -3.25575 0
M  V30 1342 H 124.02 -1.87145 -3.15234 0
M  V30 1343 H 123.668 -0.250145 -5.02378 0
M  V30 1344 H 123.368 -1.92492 -5.55176 0
M  V30 1345 H 124.892 -1.10968 -6.00432 0
M  V30 1346 H 126.306 -3.06349 -4.84586 0
M  V30 1347 H 124.703 -3.82333 -4.62538 0
M  V30 1348 H 125.773 -3.61966 -3.22658 0
M  V30 1349 N 127.117 1.15442 -1.07289 0
M  V30 1350 C 128.08 2.18358 -0.696591 0
M  V30 1351 C 129.08 1.58637 0.262837 0
M  V30 1352 O 130.27 1.74145 0.0438809 0
M  V30 1353 C 127.402 3.4089 -0.0266151 0
M  V30 1354 H 128.595 2.53162 -1.60776 0
M  V30 1355 H 126.148 1.29893 -0.869342 0
M  V30 1356 H 126.883 3.11653 0.896822 0
M  V30 1357 H 126.668 3.85495 -0.716657 0
M  V30 1358 H 128.158 4.17009 0.222028 0
M  V30 1359 N 128.595 0.856903 1.32268 0
M  V30 1360 C 129.841 0.462069 1.97466 0
M  V30 1361 C 130.174 -0.980298 1.67642 0
M  V30 1362 O 129.449 -1.68824 0.965858 0
M  V30 1363 C 129.732 0.704336 3.53145 0
M  V30 1364 C 129.585 2.19529 3.9259 0
M  V30 1365 C 130.904 0.1622 4.39801 0
M  V30 1366 H 128.023 0.169357 0.717278 0
M  V30 1367 H 130.665 1.07574 1.56614 0
M  V30 1368 H 128.815 0.181999 3.88073 0
M  V30 1369 H 130.487 2.78387 3.67829 0
M  V30 1370 H 128.73 2.67292 3.41668 0
M  V30 1371 H 129.401 2.31549 5.01088 0
M  V30 1372 H 131.877 0.608905 4.11621 0
M  V30 1373 H 130.753 0.361265 5.4771 0
M  V30 1374 H 131.014 -0.935158 4.32096 0
M  V30 1375 N 130.073 -1.45103 0.615059 0
M  V30 1376 C 131.036 -2.29025 -0.0895485 0
M  V30 1377 C 132.036 -1.40174 -0.787906 0
M  V30 1378 O 133.226 -1.62217 -0.634933 0
M  V30 1379 C 130.358 -3.21376 -1.13711 0
M  V30 1380 H 131.551 -2.92807 0.648382 0
M  V30 1381 H 129.104 -1.51749 0.374444 0
M  V30 1382 H 129.839 -2.6241 -1.90556 0
M  V30 1383 H 129.624 -3.86834 -0.640475 0
M  V30 1384 H 131.114 -3.84459 -1.63036 0
M  V30 1385 N 131.551 -0.354651 -1.53558 0
M  V30 1386 C 132.828 0.294281 -1.93374 0
M  V30 1387 C 133.208 1.67313 -1.28723 0
M  V30 1388 O 132.556 2.24179 -0.442247 0
M  V30 1389 C 132.766 0.355445 -3.47185 0
M  V30 1390 C 134.114 0.601007 -4.20325 0
M  V30 1391 O 135.138 0.437106 -3.53508 0
M  V30 1392 O 133.997 0.919322 -5.38712 0
M  V30 1393 H 131.091 0.174033 -0.808481 0
M  V30 1394 H 133.637 -0.406638 -1.64756 0
M  V30 1395 H 132.409 -0.611729 -3.86489 0
M  V30 1396 H 132.032 1.1027 -3.82003 0
M  V30 1397 N 133.029 1.57378 -0.0835403 0
M  V30 1398 C 133.962 2.09016 0.915833 0
M  V30 1399 C 134.94 0.997993 1.2837 0
M  V30 1400 O 136.124 1.27219 1.39096 0
M  V30 1401 C 133.251 2.55757 2.22049 0
M  V30 1402 C 132.297 3.76522 2.00333 0
M  V30 1403 S 133.13 5.20661 1.25191 0
M  V30 1404 C 134.286 5.70743 2.56912 0
M  V30 1405 H 134.519 2.93457 0.476492 0
M  V30 1406 H 132.052 1.53856 0.129493 0
M  V30 1407 H 134.01 2.83346 2.97027 0
M  V30 1408 H 132.671 1.71564 2.63106 0
M  V30 1409 H 131.864 4.07256 2.96916 0
M  V30 1410 H 131.466 3.49367 1.33488 0
M  V30 1411 H 133.758 5.78304 3.52946 0
M  V30 1412 H 134.701 6.6944 2.30772 0
M  V30 1413 H 135.109 4.98616 2.64655 0
M  V30 1414 N 134.507 -0.190092 1.56449 0
M  V30 1415 C 135.437 -1.23816 1.97969 0
M  V30 1416 C 136.418 -1.47201 0.852395 0
M  V30 1417 O 137.603 -1.58854 1.1171 0
M  V30 1418 C 134.733 -2.5813 2.3235 0
M  V30 1419 C 133.687 -2.49348 3.47864 0
M  V30 1420 C 133.013 -3.8798 3.67934 0
M  V30 1421 C 134.313 -2.01424 4.81898 0
M  V30 1422 H 136.007 -0.89311 2.85769 0
M  V30 1423 H 133.553 -0.428177 1.37487 0
M  V30 1424 H 135.506 -3.31637 2.59991 0
M  V30 1425 H 134.23 -2.94386 1.41438 0
M  V30 1426 H 132.889 -1.78297 3.20321 0
M  V30 1427 H 132.537 -4.21597 2.74344 0
M  V30 1428 H 132.237 -3.82978 4.45648 0
M  V30 1429 H 133.761 -4.63101 3.97957 0
M  V30 1430 H 135.175 -2.64693 5.08538 0
M  V30 1431 H 133.572 -2.07413 5.63116 0
M  V30 1432 H 134.642 -0.967677 4.75146 0
M  V30 1433 N 135.985 -1.50799 -0.457987 0
M  V30 1434 C 137.231 -1.62683 -1.21088 0
M  V30 1435 C 137.564 -0.332268 -1.91336 0
M  V30 1436 O 136.839 0.667043 -1.82704 0
M  V30 1437 C 137.122 -2.81615 -2.24422 0
M  V30 1438 C 136.975 -4.20989 -1.58392 0
M  V30 1439 C 138.294 -2.96085 -3.2561 0
M  V30 1440 H 135.413 -0.592087 -0.438864 0
M  V30 1441 H 138.055 -1.83225 -0.50286 0
M  V30 1442 H 136.205 -2.64231 -2.84806 0
M  V30 1443 H 137.877 -4.49994 -1.01504 0
M  V30 1444 H 136.12 -4.24641 -0.886704 0
M  V30 1445 H 136.791 -5.0016 -2.33547 0
M  V30 1446 H 139.267 -3.12042 -2.75262 0
M  V30 1447 H 138.143 -3.80902 -3.95228 0
M  V30 1448 H 138.404 -2.0726 -3.90507 0
M  V30 1449 N 137.463 0.71206 -1.40597 0
M  V30 1450 C 138.688 1.50617 -1.42581 0
M  V30 1451 C 139.113 1.88079 -0.0282102 0
M  V30 1452 O 138.471 1.53511 0.964579 0
M  V30 1453 C 138.519 2.7557 -2.3258 0
M  V30 1454 O 137.623 3.72414 -1.77148 0
M  V30 1455 H 136.964 0.453966 -0.484573 0
M  V30 1456 H 139.494 0.876649 -1.84868 0
M  V30 1457 H 139.504 3.2406 -2.47889 0
M  V30 1458 H 138.179 2.47639 -3.34138 0
M  V30 1459 H 136.756 3.31276 -1.71204 0
M  V30 1460 N 138.941 1.26152 0.944643 0
M  V30 1461 C 140.187 1.11657 1.69294 0
M  V30 1462 C 140.52 -0.339926 1.91202 0
M  V30 1463 O 139.795 -1.24994 1.49019 0
M  V30 1464 C 140.078 1.88236 3.06984 0
M  V30 1465 C 139.931 3.41772 2.92424 0
M  V30 1466 C 141.25 1.67343 4.07043 0
M  V30 1467 H 138.369 0.407004 0.614424 0
M  V30 1468 H 141.011 1.55106 1.09737 0
M  V30 1469 H 139.161 1.51308 3.57824 0
M  V30 1470 H 140.833 3.88433 2.48832 0
M  V30 1471 H 139.076 3.68974 2.28124 0
M  V30 1472 H 139.747 3.90579 3.90067 0
M  V30 1473 H 142.223 1.99509 3.65151 0
M  V30 1474 H 141.099 2.23346 5.01406 0
M  V30 1475 H 141.36 0.617158 4.37771 0
M  V30 1476 N 140.419 -1.14872 1.07899 0
M  V30 1477 C 141.644 -1.90202 0.826926 0
M  V30 1478 C 142.069 -1.77774 -0.614664 0
M  V30 1479 O 141.427 -1.11431 -1.43013 0
M  V30 1480 C 141.475 -3.38352 1.24702 0
M  V30 1481 O 140.579 -4.10497 0.39575 0
M  V30 1482 H 139.92 -0.591968 0.300782 0
M  V30 1483 H 142.45 -1.45437 1.43907 0
M  V30 1484 H 142.46 -3.89156 1.22563 0
M  V30 1485 H 141.135 -3.46715 2.29698 0
M  V30 1486 H 139.712 -3.69796 0.480117 0
M  V30 1487 N 141.898 -0.863906 -1.31812 0
M  V30 1488 C 142.846 -0.30422 -2.30602 0
M  V30 1489 C 143.84 0.577419 -1.59255 0
M  V30 1490 O 145.046 0.464194 -1.73912 0
M  V30 1491 H 141.421 -0.0796877 -0.747766 0
M  V30 1492 H 143.392 -1.15148 -2.75288 0
M  V30 1493 C 142.141 0.484617 -3.44306 0
M  V30 1494 H 141.464 -0.18451 -3.99374 0
M  V30 1495 H 142.904 0.841664 -4.15562 0
M  V30 1496 C 141.363 1.6735 -2.92396 0
M  V30 1497 O 141.893 2.77273 -2.90659 0
M  V30 1498 N 140.099 1.50362 -2.48676 0
M  V30 1499 H 139.646 0.609402 -2.50288 0
M  V30 1500 H 139.604 2.30051 -2.14299 0
M  V30 1501 N 143.376 1.44774 -0.622745 0
M  V30 1502 C 144.624 2.01721 -0.123655 0
M  V30 1503 C 144.945 1.49172 1.25589 0
M  V30 1504 O 144.215 0.691974 1.83272 0
M  V30 1505 H 142.795 0.745777 -0.0427225 0
M  V30 1506 H 145.457 1.77382 -0.807559 0
M  V30 1507 H 144.553 3.11984 -0.0849534 0
M  V30 1508 N 144.854 0.36279 1.53368 0
M  V30 1509 C 146.079 -0.231226 2.06107 0
M  V30 1510 C 146.504 -1.419 1.23474 0
M  V30 1511 O 145.862 -1.79524 0.253128 0
M  V30 1512 C 145.91 -0.605523 3.5548 0
M  V30 1513 O 145.014 -1.70312 3.7559 0
M  V30 1514 H 144.355 -0.034327 0.663112 0
M  V30 1515 H 146.885 0.522584 1.97814 0
M  V30 1516 H 146.895 -0.877314 3.98456 0
M  V30 1517 H 145.57 0.263004 4.15068 0
M  V30 1518 H 144.147 -1.4271 3.44512 0
M  V30 1519 N 146.332 -1.57332 0.0918853 0
M  V30 1520 C 147.242 -2.17368 -0.882505 0
M  V30 1521 C 148.258 -1.14226 -1.31257 0
M  V30 1522 O 149.434 -1.46582 -1.38115 0
M  V30 1523 C 146.499 -2.73962 -2.12476 0
M  V30 1524 C 145.56 -3.92048 -1.7492 0
M  V30 1525 C 144.793 -4.45933 -2.93223 0
M  V30 1526 O 145.016 -3.98764 -4.07852 0
M  V30 1527 O 143.95 -5.36999 -2.71875 0
M  V30 1528 H 147.776 -3.01031 -0.40172 0
M  V30 1529 H 145.361 -1.48813 -0.132291 0
M  V30 1530 H 147.243 -3.10147 -2.85283 0
M  V30 1531 H 145.918 -1.93347 -2.59613 0
M  V30 1532 H 144.825 -3.6068 -0.993025 0
M  V30 1533 H 146.158 -4.74017 -1.32548 0
M  V30 1534 N 147.81 0.181792 -1.56548 0
M  V30 1535 C 149.038 0.915947 -1.85521 0
M  V30 1536 C 149.453 1.76282 -0.676016 0
M  V30 1537 O 148.81 1.79012 0.355077 0
M  V30 1538 C 148.861 1.80126 -3.13427 0
M  V30 1539 O 148.582 0.988562 -4.26801 0
M  V30 1540 C 150.083 2.64597 -3.55673 0
M  V30 1541 H 147.303 0.26661 -0.61576 0
M  V30 1542 H 149.847 0.185039 -2.03661 0
M  V30 1543 H 148.002 2.48563 -2.97145 0
M  V30 1544 H 148.416 1.59308 -4.99721 0
M  V30 1545 H 149.89 3.2235 -4.48101 0
M  V30 1546 H 150.367 3.38958 -2.79292 0
M  V30 1547 H 150.973 2.0151 -3.74532 0
M  V30 1548 N 149.288 1.51039 0.449983 0
M  V30 1549 C 150.537 1.62317 1.19733 0
M  V30 1550 C 150.85 0.339101 1.92638 0
M  V30 1551 O 152.056 0.331069 2.69474 0
M  V30 1552 C 150.512 2.86608 2.17678 0
M  V30 1553 C 150.12 4.21972 1.50479 0
M  V30 1554 C 151.864 3.07239 2.92924 0
M  V30 1555 C 149.771 5.37426 2.46834 0
M  V30 1556 H 148.701 0.604532 0.450619 0
M  V30 1557 H 151.352 1.77494 0.465625 0
M  V30 1558 H 149.734 2.65037 2.94231 0
M  V30 1559 H 150.908 4.53878 0.795716 0
M  V30 1560 H 149.223 4.07117 0.874344 0
M  V30 1561 H 151.82 3.90668 3.65079 0
M  V30 1562 H 152.163 2.19807 3.5354 0
M  V30 1563 H 152.696 3.29091 2.23481 0
M  V30 1564 H 149.435 6.27079 1.90926 0
M  V30 1565 H 148.955 5.09912 3.15832 0
M  V30 1566 H 150.634 5.68862 3.08228 0
M  V30 1567 N 150.766 -0.704594 1.40972 0
M  V30 1568 C 152.012 -1.46675 1.40051 0
M  V30 1569 C 152.345 -1.94199 0.00641102 0
M  V30 1570 O 151.62 -1.68916 -0.964235 0
M  V30 1571 C 151.903 -2.68505 2.39952 0
M  V30 1572 C 151.756 -2.26805 3.88432 0
M  V30 1573 C 153.075 -3.70686 2.37233 0
M  V30 1574 H 150.194 -0.532015 0.510028 0
M  V30 1575 H 152.836 -0.803255 1.72185 0
M  V30 1576 H 150.986 -3.25114 2.1268 0
M  V30 1577 H 152.658 -1.75592 4.26574 0
M  V30 1578 H 150.901 -1.58685 4.03734 0
M  V30 1579 H 151.572 -3.14181 4.53866 0
M  V30 1580 H 154.048 -3.23731 2.61415 0
M  V30 1581 H 152.924 -4.53553 3.09162 0
M  V30 1582 H 153.185 -4.19754 1.38777 0
M  V30 1583 N 152.244 -1.26651 -0.937939 0
M  V30 1584 C 153.493 -1.11775 -1.67897 0
M  V30 1585 C 153.806 0.33794 -1.92659 0
M  V30 1586 O 155.012 0.607434 -2.64618 0
M  V30 1587 C 153.468 -1.9523 -3.02346 0
M  V30 1588 C 153.076 -3.45393 -2.8532 0
M  V30 1589 C 154.82 -1.88972 -3.80118 0
M  V30 1590 C 152.727 -4.21083 -4.15263 0
M  V30 1591 H 151.657 -0.414696 -0.629717 0
M  V30 1592 H 154.308 -1.50988 -1.04283 0
M  V30 1593 H 152.69 -1.48853 -3.66959 0
M  V30 1594 H 153.864 -3.99561 -2.29537 0
M  V30 1595 H 152.179 -3.52921 -2.20988 0
M  V30 1596 H 154.776 -2.42805 -4.76392 0
M  V30 1597 H 155.119 -0.86113 -4.07296 0
M  V30 1598 H 155.652 -2.33189 -3.22285 0
M  V30 1599 H 152.391 -5.24425 -3.93267 0
M  V30 1600 H 151.911 -3.71695 -4.70747 0
M  V30 1601 H 153.59 -4.29706 -4.83696 0
M  V30 1602 N 153.722 1.14298 -1.08507 0
M  V30 1603 C 154.95 1.89219 -0.836876 0
M  V30 1604 C 155.365 1.78638 0.611054 0
M  V30 1605 O 154.722 1.14643 1.41998 0
M  V30 1606 C 154.773 3.39158 -1.25116 0
M  V30 1607 O 154.494 3.49449 -2.64229 0
M  V30 1608 C 155.995 4.31073 -1.03398 0
M  V30 1609 H 153.215 0.599328 -0.301739 0
M  V30 1610 H 155.759 1.44746 -1.44461 0
M  V30 1611 H 153.914 3.81251 -0.687514 0
M  V30 1612 H 154.328 4.42589 -2.81452 0
M  V30 1613 H 155.802 5.34646 -1.37323 0
M  V30 1614 H 156.279 4.3919 0.0289259 0
M  V30 1615 H 156.885 3.94738 -1.58311 0
M  V30 1616 N 155.201 0.870884 1.31352 0
M  V30 1617 C 156.131 0.343096 2.30966 0
M  V30 1618 C 157.112 -0.566507 1.60389 0
M  V30 1619 O 158.297 -0.483336 1.88089 0
M  V30 1620 C 155.427 -0.455487 3.443 0
M  V30 1621 C 154.381 0.361103 4.26474 0
M  V30 1622 C 153.707 -0.563221 5.31725 0
M  V30 1623 C 155.007 1.59566 4.97329 0
M  V30 1624 H 156.701 1.17548 2.75359 0
M  V30 1625 H 154.247 0.566686 1.32381 0
M  V30 1626 H 156.2 -0.83525 4.13039 0
M  V30 1627 H 154.924 -1.32139 2.98675 0
M  V30 1628 H 153.583 0.722825 3.59403 0
M  V30 1629 H 153.231 -1.42643 4.82351 0
M  V30 1630 H 152.931 -0.0207409 5.87596 0
M  V30 1631 H 154.455 -0.939808 6.03324 0
M  V30 1632 H 155.869 1.28728 5.58661 0
M  V30 1633 H 154.266 2.07728 5.63 0
M  V30 1634 H 155.336 2.34798 4.24262 0
M  V30 1635 N 156.679 -1.44442 0.630414 0
M  V30 1636 C 157.609 -2.33418 -0.0618083 0
M  V30 1637 C 158.59 -1.48165 -0.835541 0
M  V30 1638 O 159.775 -1.76886 -0.801564 0
M  V30 1639 C 156.905 -3.31222 -1.04449 0
M  V30 1640 C 155.859 -4.26288 -0.382436 0
M  V30 1641 C 155.185 -5.13954 -1.47497 0
M  V30 1642 C 156.485 -5.1744 0.710865 0
M  V30 1643 H 158.179 -2.91548 0.681184 0
M  V30 1644 H 155.725 -1.40191 0.329026 0
M  V30 1645 H 157.678 -3.92351 -1.53748 0
M  V30 1646 H 156.402 -2.71299 -1.81836 0
M  V30 1647 H 155.061 -3.6649 0.0899054 0
M  V30 1648 H 154.709 -4.50385 -2.2397 0
M  V30 1649 H 154.409 -5.7837 -1.03737 0
M  V30 1650 H 155.933 -5.77955 -1.96979 0
M  V30 1651 H 157.347 -5.72509 0.300996 0
M  V30 1652 H 155.744 -5.90455 1.07156 0
M  V30 1653 H 156.814 -4.58496 1.57829 0
M  V30 1654 N 158.157 -0.370918 -1.53173 0
M  V30 1655 C 159.105 0.488101 -2.27421 0
M  V30 1656 C 160.099 1.07884 -1.30604 0
M  V30 1657 O 161.305 1.02143 -1.48212 0
M  V30 1658 H 157.68 0.176134 -0.731082 0
M  V30 1659 H 159.651 -0.159815 -2.97972 0
M  V30 1660 C 158.4 1.61306 -3.08019 0
M  V30 1661 H 157.723 1.1678 -3.82364 0
M  V30 1662 H 159.163 2.18872 -3.63141 0
M  V30 1663 C 157.622 2.55848 -2.19188 0
M  V30 1664 O 158.152 3.58799 -1.80626 0
M  V30 1665 N 156.358 2.2516 -1.83715 0
M  V30 1666 H 155.905 1.41476 -2.15273 0
M  V30 1667 H 155.863 2.8867 -1.24567 0
M  V30 1668 N 159.635 1.57281 -0.100228 0
M  V30 1669 C 160.86 1.99302 0.573881 0
M  V30 1670 C 161.285 0.979059 1.60611 0
M  V30 1671 O 160.643 -0.0517803 1.81226 0
M  V30 1672 C 160.691 3.40274 1.19358 0
M  V30 1673 O 159.795 3.41676 2.30935 0
M  V30 1674 H 159.136 0.647944 0.145138 0
M  V30 1675 H 161.666 2.03779 -0.183156 0
M  V30 1676 H 161.676 3.78078 1.53365 0
M  V30 1677 H 160.351 4.13594 0.437385 0
M  V30 1678 H 158.928 3.15672 1.98509 0
M  V30 1679 N 161.113 -0.173488 1.56642 0
M  V30 1680 C 162.341 -0.906095 1.86004 0
M  V30 1681 C 162.756 -1.75921 0.685355 0
M  V30 1682 O 162.113 -1.79198 -0.345578 0
M  V30 1683 C 162.164 -1.78462 3.14378 0
M  V30 1684 O 161.885 -0.965914 4.27319 0
M  V30 1685 C 163.386 -2.62707 3.57071 0
M  V30 1686 H 160.606 -0.263341 0.617165 0
M  V30 1687 H 163.15 -0.174236 2.03756 0
M  V30 1688 H 161.305 -2.46984 2.98459 0
M  V30 1689 H 161.719 -1.56655 5.00559 0
M  V30 1690 H 163.193 -3.19969 4.49804 0
M  V30 1691 H 163.67 -3.37472 2.81086 0
M  V30 1692 H 164.276 -1.99521 3.75595 0
M  V30 1693 N 162.591 -1.51276 -0.441967 0
M  V30 1694 C 163.868 -1.54252 -1.20273 0
M  V30 1695 C 164.248 -0.30408 -2.08898 0
M  V30 1696 O 163.596 0.711084 -2.17154 0
M  V30 1697 C 163.806 -2.85406 -2.00859 0
M  V30 1698 C 165.154 -3.37181 -2.58059 0
M  V30 1699 O 166.178 -2.86925 -2.11074 0
M  V30 1700 O 165.037 -4.24858 -3.43741 0
M  V30 1701 H 162.131 -0.619969 -0.547328 0
M  V30 1702 H 164.677 -1.63586 -0.451413 0
M  V30 1703 H 163.449 -3.67003 -1.35736 0
M  V30 1704 H 163.072 -2.79213 -2.83065 0
M  V30 1705 N 164.069 0.697108 -1.41344 0
M  V30 1706 C 165.297 1.48593 -1.43972 0
M  V30 1707 C 165.712 1.88747 -0.0445612 0
M  V30 1708 O 165.069 1.56682 0.935785 0
M  V30 1709 C 165.12 2.74946 -2.34706 0
M  V30 1710 O 164.841 2.36484 -3.68791 0
M  V30 1711 C 166.342 3.687 -2.46121 0
M  V30 1712 H 163.562 0.457964 -0.490418 0
M  V30 1713 H 166.106 0.858429 -1.8561 0
M  V30 1714 H 164.261 3.33937 -1.9638 0
M  V30 1715 H 164.675 3.17918 -4.17167 0
M  V30 1716 H 166.149 4.54145 -3.13777 0
M  V30 1717 H 166.626 4.13081 -1.49199 0
M  V30 1718 H 167.232 3.15613 -2.85076 0
M  V30 1719 N 165.547 1.27147 0.931209 0
M  V30 1720 C 166.824 1.0401 1.65654 0
M  V30 1721 C 167.204 -0.426297 2.06751 0
M  V30 1722 O 166.552 -1.40879 1.79904 0
M  V30 1723 C 166.762 1.99834 2.86125 0
M  V30 1724 C 168.11 2.29007 3.57549 0
M  V30 1725 O 169.134 1.97779 2.96246 0
M  V30 1726 O 167.993 2.82222 4.67989 0
M  V30 1727 H 165.087 0.396239 0.725895 0
M  V30 1728 H 167.633 1.38397 0.982056 0
M  V30 1729 H 166.405 2.98744 2.52721 0
M  V30 1730 H 166.028 1.65987 3.61295 0
M  V30 1731 N 167.025 -1.13721 1.09112 0
M  V30 1732 C 167.988 -2.17222 0.731241 0
M  V30 1733 C 168.988 -1.59035 -0.237566 0
M  V30 1734 O 170.178 -1.74192 -0.0161704 0
M  V30 1735 C 167.31 -3.40804 0.0808443 0
M  V30 1736 H 168.503 -2.50573 1.64783 0
M  V30 1737 H 166.056 -1.28493 0.889897 0
M  V30 1738 H 166.791 -3.1304 -0.847127 0
M  V30 1739 H 166.576 -3.84306 0.777896 0
M  V30 1740 H 168.066 -4.1731 -0.155657 0
M  V30 1741 N 168.503 -0.877838 -1.30888 0
M  V30 1742 C 169.435 -0.296607 -2.27273 0
M  V30 1743 C 170.448 0.544799 -1.53414 0
M  V30 1744 O 171.637 0.365511 -1.74718 0
M  V30 1745 C 168.737 0.597481 -3.33592 0
M  V30 1746 C 167.91 -0.213251 -4.3688 0
M  V30 1747 C 166.969 0.610208 -5.2265 0
M  V30 1748 O 165.995 0.035441 -5.69189 0
M  V30 1749 N 167.197 1.92071 -5.47804 0
M  V30 1750 H 169.962 -1.12492 -2.77787 0
M  V30 1751 H 167.523 -0.740105 -1.43993 0
M  V30 1752 H 169.515 1.15425 -3.87891 0
M  V30 1753 H 168.085 1.32647 -2.83061 0
M  V30 1754 H 167.305 -0.951466 -3.82545 0
M  V30 1755 H 168.593 -0.769262 -5.02951 0
M  V30 1756 H 167.991 2.4107 -5.11763 0
M  V30 1757 H 166.548 2.42508 -6.05007 0
M  V30 1758 N 169.982 1.44106 -0.638065 0
M  V30 1759 C 171.207 2.0685 -0.150916 0
M  V30 1760 C 171.632 1.47417 1.16833 0
M  V30 1761 O 170.99 0.578264 1.71831 0
M  V30 1762 C 171.038 3.60555 -0.05708 0
M  V30 1763 O 170.142 4.00465 0.984972 0
M  V30 1764 H 169.483 0.658151 -0.0879399 0
M  V30 1765 H 172.013 1.84865 -0.876707 0
M  V30 1766 H 172.023 4.07789 0.131232 0
M  V30 1767 H 170.698 4.03193 -1.02021 0
M  V30 1768 H 169.275 3.64849 0.770672 0
M  V30 1769 N 171.46 0.379036 1.52974 0
M  V30 1770 C 172.707 -0.206421 2.01445 0
M  V30 1771 C 173.035 -1.47668 1.26587 0
M  V30 1772 O 172.29 -1.92514 0.351675 0
M  V30 1773 C 172.589 -0.53096 3.53434 0
M  V30 1774 C 172.255 0.646546 4.46241 0
M  V30 1775 C 170.917 0.969604 4.7133 0
M  V30 1776 C 173.269 1.43479 5.01062 0
M  V30 1777 C 170.597 2.08263 5.48492 0
M  V30 1778 C 172.949 2.53834 5.7944 0
M  V30 1779 C 171.613 2.86659 6.02812 0
M  V30 1780 H 170.883 -0.0755349 0.73714 0
M  V30 1781 H 173.53 0.514271 1.84465 0
M  V30 1782 H 171.835 -1.33285 3.68432 0
M  V30 1783 H 173.532 -0.996417 3.88423 0
M  V30 1784 H 170.122 0.384734 4.2687 0
M  V30 1785 H 174.306 1.19844 4.81613 0
M  V30 1786 H 169.562 2.34078 5.64816 0
M  V30 1787 H 173.736 3.15319 6.20924 0
M  V30 1788 H 171.363 3.73026 6.62387 0
M  V30 1789 N 172.938 -1.57226 0.108567 0
M  V30 1790 C 174.166 -1.99179 -0.559954 0
M  V30 1791 C 174.581 -0.988022 -1.60884 0
M  V30 1792 O 173.938 0.0205512 -1.82488 0
M  V30 1793 C 173.989 -3.41159 -1.19552 0
M  V30 1794 O 173.71 -4.37694 -0.188577 0
M  V30 1795 C 175.211 -3.98188 -1.94837 0
M  V30 1796 H 172.431 -0.654228 -0.149088 0
M  V30 1797 H 174.975 -2.03598 0.19183 0
M  V30 1798 H 173.13 -3.37711 -1.89815 0
M  V30 1799 H 173.544 -5.20469 -0.649014 0
M  V30 1800 H 175.018 -4.99644 -2.34648 0
M  V30 1801 H 175.495 -3.3675 -2.81951 0
M  V30 1802 H 176.101 -4.0515 -1.2936 0
M  V30 1803 N 174.416 0.165178 -1.56732 0
M  V30 1804 C 175.662 0.882112 -1.82611 0
M  V30 1805 C 175.995 1.81628 -0.687378 0
M  V30 1806 O 175.27 1.92009 0.310267 0
M  V30 1807 C 175.553 1.67245 -3.18906 0
M  V30 1808 C 175.406 0.760987 -4.43316 0
M  V30 1809 C 176.725 2.63884 -3.52212 0
M  V30 1810 H 173.844 0.319242 -0.664269 0
M  V30 1811 H 176.486 0.148052 -1.89422 0
M  V30 1812 H 174.636 2.29824 -3.1323 0
M  V30 1813 H 176.308 0.147596 -4.61064 0
M  V30 1814 H 174.551 0.0694102 -4.33744 0
M  V30 1815 H 175.222 1.34962 -5.35247 0
M  V30 1816 H 177.698 2.11429 -3.58381 0
M  V30 1817 H 176.574 3.16245 -4.48643 0
M  V30 1818 H 176.835 3.44377 -2.77231 0
M  V30 1819 N 175.894 1.51508 0.433938 0
M  V30 1820 C 176.842 1.73646 1.54757 0
M  V30 1821 C 177.836 0.602854 1.5831 0
M  V30 1822 O 179.042 0.784318 1.62014 0
M  V30 1823 H 175.417 0.548718 0.51421 0
M  V30 1824 H 177.388 2.66991 1.33261 0
M  V30 1825 C 176.137 1.88172 2.92381 0
M  V30 1826 H 175.46 2.74808 2.90381 0
M  V30 1827 H 176.9 2.07672 3.6966 0
M  V30 1828 C 175.359 0.64239 3.30719 0
M  V30 1829 O 175.889 -0.201362 4.01195 0
M  V30 1830 N 174.095 0.485489 2.86516 0
M  V30 1831 H 173.642 1.17318 2.29334 0
M  V30 1832 H 173.6 -0.342482 3.12529 0
M  V30 1833 N 177.372 -0.689602 1.41712 0
M  V30 1834 C 178.621 -1.44534 1.40686 0
M  V30 1835 C 178.934 -1.95588 0.0213352 0
M  V30 1836 O 180.14 -2.71271 -0.111534 0
M  V30 1837 C 178.596 -2.61387 2.47396 0
M  V30 1838 C 178.204 -2.17094 3.91885 0
M  V30 1839 C 179.948 -3.38986 2.55517 0
M  V30 1840 C 177.855 -3.3094 4.90135 0
M  V30 1841 H 176.785 -0.542925 0.52321 0
M  V30 1842 H 179.436 -0.748054 1.6756 0
M  V30 1843 H 177.818 -3.33412 2.13664 0
M  V30 1844 H 178.992 -1.52318 4.34897 0
M  V30 1845 H 177.307 -1.52473 3.8748 0
M  V30 1846 H 179.904 -4.23747 3.26102 0
M  V30 1847 H 180.247 -3.84578 1.59391 0
M  V30 1848 H 180.78 -2.74021 2.8837 0
M  V30 1849 H 177.519 -2.90355 5.87685 0
M  V30 1850 H 177.039 -3.94546 4.51767 0
M  V30 1851 H 178.718 -3.9663 5.11169 0
M  V30 1852 N 178.85 -1.27639 -0.924453 0
M  V30 1853 C 180.127 -1.04887 -1.651 0
M  V30 1854 C 180.507 0.415327 -2.06974 0
M  V30 1855 O 179.855 1.39923 -1.80648 0
M  V30 1856 C 180.065 -2.01348 -2.85061 0
M  V30 1857 C 181.413 -2.30899 -3.56329 0
M  V30 1858 O 182.437 -1.99348 -2.95193 0
M  V30 1859 O 181.296 -2.84699 -4.66485 0
M  V30 1860 H 178.39 -0.400083 -0.723784 0
M  V30 1861 H 180.936 -1.38916 -0.974703 0
M  V30 1862 H 179.708 -3.0008 -2.51133 0
M  V30 1863 H 179.331 -1.679 -3.6041 0
M  V30 1864 N 180.328 1.1314 -1.09713 0
M  V30 1865 C 181.276 2.20717 -0.733934 0
M  V30 1866 C 182.27 1.6729 0.266506 0
M  V30 1867 O 183.476 1.79547 0.127656 0
M  V30 1868 H 179.851 0.719292 -0.21937 0
M  V30 1869 H 181.822 2.48611 -1.6503 0
M  V30 1870 C 180.571 3.47265 -0.173849 0
M  V30 1871 H 179.894 3.88716 -0.934873 0
M  V30 1872 H 181.334 4.23979 0.0423126 0
M  V30 1873 C 179.793 3.18724 1.09164 0
M  V30 1874 O 180.323 3.37762 2.17439 0
M  V30 1875 N 178.529 2.72583 1.00732 0
M  V30 1876 H 178.076 2.57291 0.126121 0
M  V30 1877 H 178.034 2.53862 1.85476 0
M  V30 1878 N 181.806 0.884767 1.30421 0
M  V30 1879 C 183.052 0.503851 1.96441 0
M  V30 1880 C 183.385 -0.944518 1.69684 0
M  V30 1881 O 182.66 -1.66737 1.00145 0
M  V30 1882 C 182.943 0.779085 3.51571 0
M  V30 1883 C 182.796 2.27807 3.87846 0
M  V30 1884 C 184.115 0.255452 4.39358 0
M  V30 1885 H 181.234 0.184533 0.713524 0
M  V30 1886 H 183.876 1.10872 1.54297 0
M  V30 1887 H 182.026 0.264274 3.876 0
M  V30 1888 H 183.698 2.86127 3.61841 0
M  V30 1889 H 181.941 2.74479 3.35922 0
M  V30 1890 H 182.612 2.42125 4.96064 0
M  V30 1891 H 185.088 0.696079 4.10236 0
M  V30 1892 H 183.964 0.477361 5.4682 0
M  V30 1893 H 184.225 -0.843293 4.33983 0
M  V30 1894 N 183.284 -1.43765 0.645699 0
M  V30 1895 C 184.533 -2.01116 0.153412 0
M  V30 1896 C 184.846 -1.51493 -1.23731 0
M  V30 1897 O 186.052 -2.01067 -1.8244 0
M  V30 1898 C 184.508 -3.59206 0.223473 0
M  V30 1899 C 184.116 -4.17823 1.61642 0
M  V30 1900 C 185.86 -4.23972 -0.211597 0
M  V30 1901 C 183.767 -5.68183 1.64081 0
M  V30 1902 H 182.697 -0.752093 0.0535891 0
M  V30 1903 H 185.348 -1.6482 0.806633 0
M  V30 1904 H 183.73 -3.92867 -0.497118 0
M  V30 1905 H 184.904 -3.95674 2.36176 0
M  V30 1906 H 183.219 -3.65399 1.99681 0
M  V30 1907 H 185.816 -5.34275 -0.213112 0
M  V30 1908 H 186.159 -3.97352 -1.24165 0
M  V30 1909 H 186.692 -3.95166 0.456988 0
M  V30 1910 H 183.431 -5.99559 2.64971 0
M  V30 1911 H 182.951 -5.9241 0.938611 0
M  V30 1912 H 184.63 -6.32085 1.3812 0
M  V30 1913 N 184.763 -0.387143 -1.52771 0
M  V30 1914 C 186.04 0.253197 -1.93954 0
M  V30 1915 C 186.42 1.64545 -1.32243 0
M  V30 1916 O 185.768 2.23191 -0.489699 0
M  V30 1917 C 185.978 0.281722 -3.47861 0
M  V30 1918 C 187.326 0.511715 -4.21505 0
M  V30 1919 O 188.35 0.362023 -3.54356 0
M  V30 1920 O 187.209 0.804847 -5.40541 0
M  V30 1921 H 184.303 0.156845 -0.811991 0
M  V30 1922 H 186.849 -0.441494 -1.63856 0
M  V30 1923 H 185.621 -0.693571 -3.85104 0
M  V30 1924 H 185.244 1.02142 -3.84256 0
M  V30 1925 N 186.241 1.57166 -0.116904 0
M  V30 1926 C 187.466 1.999 0.55271 0
M  V30 1927 C 187.891 0.996039 1.59564 0
M  V30 1928 O 187.249 -0.032556 1.81271 0
M  V30 1929 C 187.297 3.4152 1.15742 0
M  V30 1930 O 186.401 3.44106 2.27299 0
M  V30 1931 H 185.742 0.649447 0.138258 0
M  V30 1932 H 188.272 2.03573 -0.204759 0
M  V30 1933 H 188.282 3.79684 1.49346 0
M  V30 1934 H 186.957 4.14034 0.393493 0
M  V30 1935 H 185.534 3.17759 1.9515 0
M  V30 1936 N 187.719 -0.156864 1.56817 0
M  V30 1937 C 188.965 -0.872416 1.83076 0
M  V30 1938 C 189.298 -1.81261 0.697001 0
M  V30 1939 O 188.573 -1.92171 -0.30008 0
M  V30 1940 C 188.856 -1.65551 3.19789 0
M  V30 1941 C 188.709 -0.737467 4.43713 0
M  V30 1942 C 190.028 -2.62012 3.53606 0
M  V30 1943 H 187.147 -0.315715 0.665953 0
M  V30 1944 H 189.789 -0.138004 1.89498 0
M  V30 1945 H 187.939 -2.28159 3.14445 0
M  V30 1946 H 189.611 -0.123143 4.61136 0
M  V30 1947 H 187.854 -0.0464067 4.33775 0
M  V30 1948 H 188.525 -1.32122 5.35955 0
M  V30 1949 H 191.001 -2.09525 3.59497 0
M  V30 1950 H 189.877 -3.13861 4.50314 0
M  V30 1951 H 190.138 -3.42902 2.79053 0
M  V30 1952 N 189.197 -1.51736 -0.425897 0
M  V30 1953 C 190.446 -1.64201 -1.17136 0
M  V30 1954 C 190.759 -0.369705 -1.92074 0
M  V30 1955 O 191.965 -0.373898 -2.68913 0
M  V30 1956 C 190.421 -2.90035 -2.13091 0
M  V30 1957 C 190.029 -4.24312 -1.43747 0
M  V30 1958 C 191.773 -3.1186 -2.87999 0
M  V30 1959 C 189.68 -5.41285 -2.38253 0
M  V30 1960 H 188.61 -0.611624 -0.440944 0
M  V30 1961 H 191.261 -1.78212 -0.437328 0
M  V30 1962 H 189.643 -2.69684 -2.89977 0
M  V30 1963 H 190.817 -4.55086 -0.723408 0
M  V30 1964 H 189.132 -4.08456 -0.809465 0
M  V30 1965 H 191.729 -3.96427 -3.58817 0
M  V30 1966 H 192.072 -2.25403 -3.49999 0
M  V30 1967 H 192.605 -3.32605 -2.18217 0
M  V30 1968 H 189.344 -6.30037 -1.80925 0
M  V30 1969 H 188.864 -5.14872 -3.0768 0
M  V30 1970 H 190.543 -5.73694 -2.99139 0
M  V30 1971 N 190.675 0.682077 -1.42076 0
M  V30 1972 C 191.915 1.45424 -1.43636 0
M  V30 1973 C 192.279 1.91939 -0.0484001 0
M  V30 1974 O 193.48 2.6873 0.0612514 0
M  V30 1975 C 191.751 2.62427 -2.42625 0
M  V30 1976 S 193.31 3.51379 -2.62827 0
M  V30 1977 H 190.128 0.496779 -0.508657 0
M  V30 1978 H 192.73 0.794645 -1.78621 0
M  V30 1979 H 191.434 2.26481 -3.42249 0
M  V30 1980 H 190.965 3.33266 -2.09039 0
M  V30 1981 H 192.98 4.58141 -1.9058 0
M  V30 1982 N 192.153 1.28127 0.917671 0
M  V30 1983 C 193.378 1.18007 1.70555 0
M  V30 1984 C 193.803 -0.258257 1.86319 0
M  V30 1985 O 193.161 -1.1869 1.37049 0
M  V30 1986 C 193.209 1.87948 3.07746 0
M  V30 1987 O 192.313 1.18427 3.9503 0
M  V30 1988 H 191.654 0.409867 0.522403 0
M  V30 1989 H 194.184 1.69379 1.1477 0
M  V30 1990 H 194.194 1.95701 3.58001 0
M  V30 1991 H 192.869 2.92573 2.95591 0
M  V30 1992 H 191.446 1.18811 3.53466 0
M  V30 1993 N 193.631 -1.12557 1.10312 0
M  V30 1994 C 194.856 -1.88405 0.867085 0
M  V30 1995 C 195.281 -1.79038 -0.576817 0
M  V30 1996 O 194.639 -1.14439 -1.40618 0
M  V30 1997 C 194.687 -3.3563 1.31851 0
M  V30 1998 O 193.791 -4.09565 0.482734 0
M  V30 1999 H 193.132 -0.585455 0.313271 0
M  V30 2000 H 195.662 -1.42352 1.4696 0
M  V30 2001 H 195.672 -3.86469 1.3079 0
M  V30 2002 H 194.347 -3.41765 2.37001 0
M  V30 2003 H 192.924 -3.68695 0.558448 0
M  V30 2004 N 195.109 -0.891671 -1.2995 0
M  V30 2005 C 196.039 -0.379797 -2.30391 0
M  V30 2006 C 197.02 0.540919 -1.6127 0
M  V30 2007 O 198.205 0.453352 -1.88834 0
M  V30 2008 C 195.335 0.400654 -3.44981 0
M  V30 2009 C 194.289 -0.428905 -4.25846 0
M  V30 2010 C 193.615 0.478557 -5.32554 0
M  V30 2011 C 194.915 -1.67458 -4.94727 0
M  V30 2012 H 196.609 -1.21914 -2.73454 0
M  V30 2013 H 194.155 -0.587675 -1.31462 0
M  V30 2014 H 196.108 0.769434 -4.14316 0
M  V30 2015 H 194.832 1.27371 -3.0074 0
M  V30 2016 H 193.491 -0.779911 -3.58208 0
M  V30 2017 H 193.139 1.34951 -4.84559 0
M  V30 2018 H 192.839 -0.0727433 -5.87555 0
M  V30 2019 H 194.363 0.843705 -6.04743 0
M  V30 2020 H 195.777 -1.376 -5.56542 0
M  V30 2021 H 194.174 -2.16659 -5.59624 0
M  V30 2022 H 195.244 -2.41518 -4.20473 0
M  V30 2023 N 196.587 1.43421 -0.653314 0
M  V30 2024 C 197.517 2.33487 0.0246656 0
M  V30 2025 C 198.498 1.49475 0.811863 0
M  V30 2026 O 199.683 1.78139 0.773322 0
M  V30 2027 C 196.813 3.32841 0.99166 0
M  V30 2028 C 195.767 4.26842 0.314568 0
M  V30 2029 C 195.093 5.16236 1.39302 0
M  V30 2030 C 196.393 5.16243 -0.793095 0
M  V30 2031 H 198.087 2.90427 -0.727481 0
M  V30 2032 H 195.633 1.39649 -0.351287 0
M  V30 2033 H 197.586 3.94747 1.47487 0
M  V30 2034 H 196.31 2.74158 1.77497 0
M  V30 2035 H 194.969 3.663 -0.148199 0
M  V30 2036 H 194.617 4.53891 2.16776 0
M  V30 2037 H 194.317 5.79948 0.945223 0
M  V30 2038 H 195.841 5.81015 1.87759 0
M  V30 2039 H 197.255 5.71958 -0.392039 0
M  V30 2040 H 195.652 5.88676 -1.16536 0
M  V30 2041 H 196.722 4.55927 -1.65103 0
M  V30 2042 N 198.065 0.39524 1.52563 0
M  V30 2043 C 199.028 -0.425001 2.25225 0
M  V30 2044 C 200.028 -0.985266 1.27079 0
M  V30 2045 O 201.218 -0.866332 1.5113 0
M  V30 2046 C 198.35 -1.59686 3.01186 0
M  V30 2047 H 199.543 0.211233 2.99155 0
M  V30 2048 H 197.096 0.147472 1.55603 0
M  V30 2049 H 197.831 -2.27035 2.31572 0
M  V30 2050 H 197.616 -1.20176 3.73229 0
M  V30 2051 H 199.106 -2.17743 3.5634 0
M  V30 2052 N 199.544 -1.57102 0.125237 0
M  V30 2053 C 200.769 -2.0019 -0.542101 0
M  V30 2054 C 201.194 -1.00449 -1.59034 0
M  V30 2055 O 200.552 0.0229423 -1.81285 0
M  V30 2056 C 200.6 -3.42129 -1.13929 0
M  V30 2057 O 199.704 -3.45307 -2.2547 0
M  V30 2058 H 199.045 -0.650171 -0.134812 0
M  V30 2059 H 201.575 -2.03461 0.215553 0
M  V30 2060 H 201.585 -3.80471 -1.4733 0
M  V30 2061 H 200.26 -4.14237 -0.371531 0
M  V30 2062 H 198.837 -3.1879 -1.93462 0
M  V30 2063 N 201.022 0.148545 -1.56898 0
M  V30 2064 C 202.271 0.85984 -1.82454 0
M  V30 2065 C 202.584 1.82406 -0.706229 0
M  V30 2066 O 203.79 2.57938 -0.847349 0
M  V30 2067 C 202.246 1.57967 -3.2338 0
M  V30 2068 C 201.854 0.65794 -4.43142 0
M  V30 2069 C 203.598 2.27784 -3.58211 0
M  V30 2070 C 201.505 1.3793 -5.75091 0
M  V30 2071 H 200.435 0.324834 -0.68044 0
M  V30 2072 H 203.086 0.112588 -1.83154 0
M  V30 2073 H 201.468 2.37249 -3.17063 0
M  V30 2074 H 202.642 -0.0995497 -4.60692 0
M  V30 2075 H 200.957 0.0682643 -4.16344 0
M  V30 2076 H 203.554 2.8239 -4.54048 0
M  V30 2077 H 203.897 3.04204 -2.84193 0
M  V30 2078 H 204.43 1.55421 -3.66182 0
M  V30 2079 H 201.169 0.656982 -6.52199 0
M  V30 2080 H 200.689 2.10954 -5.61479 0
M  V30 2081 H 202.368 1.92063 -6.17835 0
M  V30 2082 N 202.5 1.5196 0.417844 0
M  V30 2083 C 203.74 1.67262 1.17486 0
M  V30 2084 C 204.104 0.38983 1.88001 0
M  V30 2085 O 205.305 0.418845 2.65517 0
M  V30 2086 C 203.576 2.85526 2.14965 0
M  V30 2087 S 205.135 3.21263 2.98891 0
M  V30 2088 H 201.953 0.589077 0.398132 0
M  V30 2089 H 204.555 1.89927 0.463452 0
M  V30 2090 H 203.259 3.77145 1.61833 0
M  V30 2091 H 202.79 2.65107 2.90657 0
M  V30 2092 H 204.805 2.69208 4.16823 0
M  V30 2093 N 203.978 -0.674533 1.42435 0
M  V30 2094 C 205.203 -1.46784 1.46524 0
M  V30 2095 C 205.628 -1.87938 0.078066 0
M  V30 2096 O 204.986 -1.56014 -0.92354 0
M  V30 2097 C 205.034 -2.69307 2.39805 0
M  V30 2098 O 204.138 -3.67587 1.86959 0
M  V30 2099 H 203.479 -0.440959 0.496439 0
M  V30 2100 H 206.009 -0.827326 1.87127 0
M  V30 2101 H 206.019 -3.17374 2.56393 0
M  V30 2102 H 204.694 -2.38692 3.40586 0
M  V30 2103 H 203.271 -3.2662 1.79927 0
M  V30 2104 N 205.456 -1.28612 -0.910864 0
M  V30 2105 C 206.386 -1.15326 -2.03032 0
M  V30 2106 C 207.367 -0.0502924 -1.70026 0
M  V30 2107 O 208.552 -0.227797 -1.92859 0
M  V30 2108 C 205.682 -0.817343 -3.37545 0
M  V30 2109 C 204.636 -1.8754 -3.84724 0
M  V30 2110 C 203.962 -1.39305 -5.16235 0
M  V30 2111 C 205.262 -3.28244 -4.06267 0
M  V30 2112 H 206.956 -2.08975 -2.14406 0
M  V30 2113 H 204.502 -1.00612 -1.03021 0
M  V30 2114 H 206.455 -0.711151 -4.15356 0
M  V30 2115 H 205.179 0.154846 -3.26233 0
M  V30 2116 H 203.838 -1.97079 -3.09121 0
M  V30 2117 H 203.486 -0.409846 -5.01328 0
M  V30 2118 H 203.186 -2.10057 -5.48771 0
M  V30 2119 H 204.71 -1.30014 -5.96598 0
M  V30 2120 H 206.124 -3.21611 -4.74594 0
M  V30 2121 H 204.521 -3.96855 -4.5014 0
M  V30 2122 H 205.591 -3.72048 -3.10979 0
M  V30 2123 N 206.934 1.1197 -1.10907 0
M  V30 2124 C 207.864 2.19928 -0.784473 0
M  V30 2125 C 208.845 1.6833 0.244726 0
M  V30 2126 O 210.03 1.93892 0.109418 0
M  V30 2127 C 207.16 3.46597 -0.220827 0
M  V30 2128 C 206.114 4.11376 -1.18127 0
M  V30 2129 C 205.44 5.32554 -0.478594 0
M  V30 2130 C 206.74 4.56945 -2.52979 0
M  V30 2131 H 208.434 2.47337 -1.68715 0
M  V30 2132 H 205.98 1.18879 -0.812642 0
M  V30 2133 H 207.933 4.21396 0.0184278 0
M  V30 2134 H 206.657 3.1863 0.717113 0
M  V30 2135 H 205.316 3.38564 -1.40606 0
M  V30 2136 H 204.964 5.00856 0.463976 0
M  V30 2137 H 204.664 5.76844 -1.11912 0
M  V30 2138 H 206.188 6.10096 -0.248 0
M  V30 2139 H 207.602 5.23093 -2.3462 0
M  V30 2140 H 205.999 5.1203 -3.12962 0
M  V30 2141 H 207.069 3.70676 -3.12614 0
M  V30 2142 N 208.412 0.89855 1.29475 0
M  V30 2143 C 209.637 0.538561 2.00285 0
M  V30 2144 C 210.062 -0.869135 1.66816 0
M  V30 2145 O 209.42 -1.57831 0.892145 0
M  V30 2146 C 209.468 0.736475 3.52999 0
M  V30 2147 O 208.572 -0.211537 4.11857 0
M  V30 2148 H 207.913 0.210563 0.62973 0
M  V30 2149 H 210.443 1.20982 1.64998 0
M  V30 2150 H 210.453 0.640685 4.02938 0
M  V30 2151 H 209.128 1.76276 3.76696 0
M  V30 2152 H 207.705 -0.0682991 3.72837 0
M  V30 2153 N 209.89 -1.43072 0.660911 0
M  V30 2154 C 211.139 -2.00942 0.174735 0
M  V30 2155 C 211.452 -1.52797 -1.22117 0
M  V30 2156 O 212.658 -2.02991 -1.80297 0
M  V30 2157 C 211.114 -3.58948 0.261559 0
M  V30 2158 C 210.722 -4.16085 1.66064 0
M  V30 2159 C 212.466 -4.24173 -0.166617 0
M  V30 2160 C 210.373 -5.6641 1.70098 0
M  V30 2161 H 209.303 -0.751483 0.0615631 0
M  V30 2162 H 211.954 -1.63955 0.824069 0
M  V30 2163 H 210.336 -3.93372 -0.455421 0
M  V30 2164 H 211.51 -3.93147 2.40359 0
M  V30 2165 H 209.825 -3.6326 2.03546 0
M  V30 2166 H 212.422 -5.34471 -0.156433 0
M  V30 2167 H 212.765 -3.98647 -1.19943 0
M  V30 2168 H 213.298 -3.94659 0.498875 0
M  V30 2169 H 210.037 -5.96715 2.71315 0
M  V30 2170 H 209.557 -5.91382 1.00139 0
M  V30 2171 H 211.236 -6.30585 1.44816 0
M  V30 2172 N 211.368 -0.403325 -1.52352 0
M  V30 2173 C 212.331 0.413051 -2.25447 0
M  V30 2174 C 213.331 0.978513 -1.276 0
M  V30 2175 O 214.521 0.858305 -1.51587 0
M  V30 2176 C 211.653 1.58087 -3.02029 0
M  V30 2177 H 212.846 -0.227094 -2.99039 0
M  V30 2178 H 210.399 -0.155722 -1.55522 0
M  V30 2179 H 211.134 2.25804 -2.32772 0
M  V30 2180 H 210.919 1.18195 -3.73861 0
M  V30 2181 H 212.409 2.1585 -3.57489 0
M  V30 2182 N 212.846 1.57033 -0.133567 0
M  V30 2183 C 214.092 1.95976 0.521649 0
M  V30 2184 C 214.425 1.01779 1.65393 0
M  V30 2185 O 213.7 0.0576581 1.94415 0
M  V30 2186 C 213.983 3.44738 1.04057 0
M  V30 2187 C 213.836 4.49711 -0.0892897 0
M  V30 2188 C 215.155 3.95682 1.92675 0
M  V30 2189 H 212.274 0.712579 0.188149 0
M  V30 2190 H 214.916 1.88813 -0.212076 0
M  V30 2191 H 213.066 3.50973 1.66583 0
M  V30 2192 H 214.738 4.55565 -0.725152 0
M  V30 2193 H 212.981 4.27261 -0.750378 0
M  V30 2194 H 213.652 5.51099 0.315284 0
M  V30 2195 H 216.128 3.91841 1.39998 0
M  V30 2196 H 215.004 5.00262 2.25897 0
M  V30 2197 H 215.265 3.37239 2.85872 0
M  V30 2198 N 214.325 -0.140222 1.56975 0
M  V30 2199 C 215.602 -0.880769 1.74648 0
M  V30 2200 C 215.982 -1.99036 0.703404 0
M  V30 2201 O 215.33 -2.26821 -0.27648 0
M  V30 2202 C 215.54 -1.417 3.18939 0
M  V30 2203 C 216.888 -1.87774 3.80823 0
M  V30 2204 O 217.912 -1.51427 3.2241 0
M  V30 2205 O 216.771 -2.54827 4.83452 0
M  V30 2206 H 213.865 -0.416713 0.714338 0
M  V30 2207 H 216.411 -0.125618 1.69234 0
M  V30 2208 H 215.183 -0.619902 3.86359 0
M  V30 2209 H 214.806 -2.23546 3.28805 0
M  V30 2210 N 215.803 -1.52179 -0.40978 0
M  V30 2211 C 217.219 -1.40968 -0.74835 0
M  V30 2212 C 217.419 -0.513657 -1.94843 0
M  V30 2213 O 216.475 0.0208026 -2.52491 0
M  V30 2214 C 217.788 -2.83483 -1.0029 0
M  V30 2215 C 219.336 -2.92821 -1.10565 0
M  V30 2216 C 219.811 -4.36303 -1.39296 0
M  V30 2217 N 221.302 -4.39535 -1.46162 0
M  V30 2218 C 222.037 -5.47614 -1.70018 0
M  V30 2219 N 221.533 -6.65812 -1.91483 0
M  V30 2220 N 223.326 -5.35129 -1.72027 0
M  V30 2221 H 215.477 -2.0897 0.380186 0
M  V30 2222 H 217.74 -0.94185 0.107805 0
M  V30 2223 H 217.446 -3.51168 -0.193461 0
M  V30 2224 H 217.32 -3.24487 -1.92323 0
M  V30 2225 H 219.707 -2.25318 -1.90568 0
M  V30 2226 H 219.788 -2.55276 -0.16369 0
M  V30 2227 H 219.432 -5.04366 -0.598109 0
M  V30 2228 H 219.362 -4.71385 -2.34743 0
M  V30 2229 H 221.853 -3.54332 -1.31367 0
M  V30 2230 H 222.166 -7.43964 -2.09134 0
M  V30 2231 H 220.511 -6.68879 -1.88749 0
M  V30 2232 H 223.702 -4.41764 -1.54796 0
M  V30 2233 H 223.875 -6.19433 -1.9028 0
M  V30 2234 N 217.281 0.66697 -1.42791 0
M  V30 2235 C 218.511 1.45294 -1.46878 0
M  V30 2236 C 218.919 1.89027 -0.0809861 0
M  V30 2237 O 218.262 1.59219 0.916246 0
M  V30 2238 C 218.324 2.72908 -2.34012 0
M  V30 2239 C 217.988 2.51203 -3.81767 0
M  V30 2240 C 218.985 2.15302 -4.73224 0
M  V30 2241 C 216.67 2.65954 -4.26115 0
M  V30 2242 C 218.664 1.94431 -6.07022 0
M  V30 2243 C 216.351 2.44699 -5.59969 0
M  V30 2244 C 217.349 2.08992 -6.5024 0
M  V30 2245 O 217.037 1.87948 -7.81621 0
M  V30 2246 H 216.769 0.453306 -0.501487 0
M  V30 2247 H 219.323 0.826232 -1.88049 0
M  V30 2248 H 217.553 3.38089 -1.87703 0
M  V30 2249 H 219.242 3.34816 -2.29462 0
M  V30 2250 H 220.008 2.03495 -4.40244 0
M  V30 2251 H 215.887 2.92724 -3.56137 0
M  V30 2252 H 219.431 1.66484 -6.77443 0
M  V30 2253 H 215.328 2.56105 -5.9252 0
M  V30 2254 H 216.096 2.02483 -7.93059 0
M  V30 2255 N 218.759 1.29093 0.90403 0
M  V30 2256 C 220.006 1.16813 1.65411 0
M  V30 2257 C 220.334 -0.28128 1.92455 0
M  V30 2258 O 219.589 -1.22006 1.53013 0
M  V30 2259 C 219.888 1.92224 3.01305 0
M  V30 2260 C 219.554 3.41968 2.93885 0
M  V30 2261 C 218.216 3.82807 2.91569 0
M  V30 2262 C 220.568 4.37409 2.83413 0
M  V30 2263 C 217.896 5.1741 2.76594 0
M  V30 2264 C 220.248 5.72097 2.69977 0
M  V30 2265 C 218.912 6.12199 2.66024 0
M  V30 2266 H 218.182 0.42745 0.605283 0
M  V30 2267 H 220.829 1.59981 1.05254 0
M  V30 2268 H 219.134 1.41635 3.65304 0
M  V30 2269 H 220.831 1.80131 3.58265 0
M  V30 2270 H 217.421 3.09504 2.96488 0
M  V30 2271 H 221.605 4.06813 2.84283 0
M  V30 2272 H 216.861 5.47596 2.71935 0
M  V30 2273 H 221.035 6.45704 2.60844 0
M  V30 2274 H 218.662 7.16448 2.54178 0
M  V30 2275 N 220.237 -1.11381 1.11499 0
M  V30 2276 C 221.465 -1.86934 0.88675 0
M  V30 2277 C 221.88 -1.80195 -0.563476 0
M  V30 2278 O 221.237 -1.18367 -1.38908 0
M  V30 2279 C 221.288 -3.35722 1.34064 0
M  V30 2280 O 221.009 -3.4232 2.73401 0
M  V30 2281 C 222.51 -4.2818 1.14791 0
M  V30 2282 H 219.73 -0.591117 0.317523 0
M  V30 2283 H 222.274 -1.40865 1.48248 0
M  V30 2284 H 220.429 -3.79294 0.788355 0
M  V30 2285 H 220.843 -4.34971 2.93087 0
M  V30 2286 H 222.317 -5.30817 1.5145 0
M  V30 2287 H 222.794 -4.39113 0.0875279 0
M  V30 2288 H 223.4 -3.90402 1.68721 0
M  V30 2289 N 221.715 -0.905404 -1.28997 0
M  V30 2290 C 222.964 -0.530191 -1.94607 0
M  V30 2291 C 223.277 0.929185 -1.72121 0
M  V30 2292 O 224.483 1.41218 -2.31883 0
M  V30 2293 C 222.939 -0.897333 -3.48534 0
M  V30 2294 C 222.547 -2.37587 -3.79811 0
M  V30 2295 C 224.291 -0.592304 -4.20347 0
M  V30 2296 C 222.198 -2.68357 -5.27009 0
M  V30 2297 H 221.128 -0.194558 -0.728466 0
M  V30 2298 H 223.779 -1.10318 -1.46636 0
M  V30 2299 H 222.161 -0.253214 -3.9519 0
M  V30 2300 H 223.335 -3.06602 -3.43994 0
M  V30 2301 H 221.65 -2.6505 -3.2115 0
M  V30 2302 H 224.247 -0.798975 -5.28697 0
M  V30 2303 H 224.59 0.469474 -4.13644 0
M  V30 2304 H 225.123 -1.19452 -3.79442 0
M  V30 2305 H 221.862 -3.73355 -5.38782 0
M  V30 2306 H 221.382 -2.03971 -5.64053 0
M  V30 2307 H 223.061 -2.54922 -5.94663 0
M  V30 2308 N 223.193 1.4272 -0.668489 0
M  V30 2309 C 224.44 2.01624 -0.18814 0
M  V30 2310 C 224.768 1.5282 1.20317 0
M  V30 2311 O 224.023 0.718323 1.8204 0
M  V30 2312 C 224.322 3.57021 -0.164499 0
M  V30 2313 C 223.988 4.25232 -1.49962 0
M  V30 2314 C 222.65 4.4358 -1.8652 0
M  V30 2315 C 225.002 4.63727 -2.37921 0
M  V30 2316 C 222.33 4.97694 -3.10674 0
M  V30 2317 C 224.682 5.19218 -3.6138 0
M  V30 2318 C 223.346 5.3578 -3.98115 0
M  V30 2319 H 222.616 0.737795 -0.0688454 0
M  V30 2320 H 225.263 1.70991 -0.862225 0
M  V30 2321 H 223.568 3.87285 0.593079 0
M  V30 2322 H 225.265 4.00372 0.224271 0
M  V30 2323 H 221.855 4.11306 -1.20522 0
M  V30 2324 H 226.039 4.4923 -2.10964 0
M  V30 2325 H 221.295 5.08702 -3.39164 0
M  V30 2326 H 225.469 5.4799 -4.29743 0
M  V30 2327 H 223.096 5.77475 -4.94395 0
M  V30 2328 N 224.671 0.411399 1.52136 0
M  V30 2329 C 225.901 -0.16284 2.05957 0
M  V30 2330 C 226.309 -1.3922 1.28119 0
M  V30 2331 O 225.652 -1.80768 0.326881 0
M  V30 2332 C 225.714 -0.575946 3.54856 0
M  V30 2333 C 225.378 0.542998 4.53763 0
M  V30 2334 C 226.375 1.40726 5.00492 0
M  V30 2335 C 224.06 0.716337 4.97166 0
M  V30 2336 C 226.054 2.4298 5.8927 0
M  V30 2337 C 223.741 1.74218 5.8574 0
M  V30 2338 C 224.739 2.59731 6.31687 0
M  V30 2339 O 224.427 3.60558 7.18507 0
M  V30 2340 H 224.159 -0.0229125 0.675612 0
M  V30 2341 H 226.713 0.581634 1.96993 0
M  V30 2342 H 224.943 -1.37274 3.61515 0
M  V30 2343 H 226.632 -1.07836 3.91313 0
M  V30 2344 H 227.398 1.28476 4.67674 0
M  V30 2345 H 223.277 0.0603857 4.6096 0
M  V30 2346 H 226.821 3.0976 6.25055 0
M  V30 2347 H 222.718 1.86498 6.17971 0
M  V30 2348 H 223.486 3.56829 7.36624 0
M  V30 2349 N 226.149 -1.5696 0.141893 0
M  V30 2350 C 227.112 -2.15316 -0.785587 0
M  V30 2351 C 228.112 -1.09366 -1.1788 0
M  V30 2352 O 229.302 -1.35031 -1.10056 0
M  V30 2353 C 226.434 -2.71211 -2.06537 0
M  V30 2354 H 227.627 -2.98608 -0.278041 0
M  V30 2355 H 225.18 -1.5593 -0.107519 0
M  V30 2356 H 225.915 -1.91571 -2.6167 0
M  V30 2357 H 225.7 -3.4872 -1.79268 0
M  V30 2358 H 227.19 -3.16189 -2.72789 0
M  V30 2359 N 227.627 0.131896 -1.57047 0
M  V30 2360 C 228.557 1.16384 -2.02428 0
M  V30 2361 C 229.538 1.43936 -0.90644 0
M  V30 2362 O 230.723 1.54599 -1.17528 0
M  V30 2363 C 227.853 2.49328 -2.4177 0
M  V30 2364 C 226.807 2.36266 -3.56879 0
M  V30 2365 C 226.133 3.74057 -3.8208 0
M  V30 2366 C 227.433 1.834 -4.89042 0
M  V30 2367 H 229.127 0.786433 -2.88887 0
M  V30 2368 H 226.673 0.376855 -1.38981 0
M  V30 2369 H 228.626 3.21759 -2.7212 0
M  V30 2370 H 227.35 2.88934 -1.52266 0
M  V30 2371 H 226.009 1.66286 -3.26718 0
M  V30 2372 H 225.657 4.11125 -2.89803 0
M  V30 2373 H 225.357 3.66174 -4.59554 0
M  V30 2374 H 226.881 4.48012 -4.1487 0
M  V30 2375 H 228.295 2.45636 -5.18011 0
M  V30 2376 H 226.692 1.8637 -5.70426 0
M  V30 2377 H 227.762 0.790662 -4.7841 0
M  V30 2378 N 229.106 1.52395 0.401703 0
M  V30 2379 C 230.038 1.72505 1.50912 0
M  V30 2380 C 231.051 0.605468 1.51122 0
M  V30 2381 O 232.24 0.880828 1.55254 0
M  V30 2382 C 229.34 1.75711 2.89791 0
M  V30 2383 C 228.513 3.04824 3.1369 0
M  V30 2384 C 227.572 2.99743 4.32482 0
M  V30 2385 O 226.598 3.73635 4.29402 0
M  V30 2386 N 227.8 2.18047 5.37992 0
M  V30 2387 H 230.565 2.68049 1.34052 0
M  V30 2388 H 228.126 1.50724 0.591084 0
M  V30 2389 H 230.118 1.69834 3.6734 0
M  V30 2390 H 228.688 0.876092 3.00072 0
M  V30 2391 H 227.908 3.2429 2.24119 0
M  V30 2392 H 229.196 3.90221 3.26504 0
M  V30 2393 H 228.594 1.57456 5.43345 0
M  V30 2394 H 227.151 2.18021 6.14256 0
M  V30 2395 N 230.584 -0.659388 1.43143 0
M  V30 2396 C 231.814 -1.44513 1.47646 0
M  V30 2397 C 232.222 -1.88981 0.0910095 0
M  V30 2398 O 231.565 -1.59702 -0.907789 0
M  V30 2399 C 231.627 -2.71663 2.35456 0
M  V30 2400 C 231.291 -2.49175 3.83094 0
M  V30 2401 C 232.288 -2.1279 4.74359 0
M  V30 2402 C 229.973 -2.63691 4.27519 0
M  V30 2403 C 231.967 -1.9121 6.08044 0
M  V30 2404 C 229.654 -2.41726 5.61259 0
M  V30 2405 C 230.652 -2.0554 6.51339 0
M  V30 2406 O 230.34 -1.838 7.82606 0
M  V30 2407 H 230.072 -0.45064 0.503884 0
M  V30 2408 H 232.626 -0.816248 1.88485 0
M  V30 2409 H 230.856 -3.37089 1.89493 0
M  V30 2410 H 232.545 -3.33595 2.31235 0
M  V30 2411 H 233.311 -2.01157 4.41317 0
M  V30 2412 H 229.19 -2.90832 3.57684 0
M  V30 2413 H 232.734 -1.62889 6.78316 0
M  V30 2414 H 228.631 -2.52959 5.9387 0
M  V30 2415 H 229.399 -1.98275 7.94122 0
M  V30 2416 N 232.062 -1.29571 -0.897171 0
M  V30 2417 C 233.012 -1.11539 -1.98855 0
M  V30 2418 C 233.996 -0.0340716 -1.60864 0
M  V30 2419 O 235.188 -0.256062 -1.75138 0
M  V30 2420 C 232.317 -0.796603 -3.3393 0
M  V30 2421 C 231.403 -1.91758 -3.78272 0
M  V30 2422 N 231.794 -3.16143 -3.94826 0
M  V30 2423 C 230.092 -1.81119 -4.07568 0
M  V30 2424 C 230.793 -3.89293 -4.32233 0
M  V30 2425 N 229.769 -3.17255 -4.41419 0
M  V30 2426 H 233.571 -2.05894 -2.09726 0
M  V30 2427 H 231.085 -1.20732 -1.08616 0
M  V30 2428 H 233.082 -0.648459 -4.11826 0
M  V30 2429 H 231.742 0.139003 -3.24402 0
M  V30 2430 H 232.753 -3.5157 -3.80288 0
M  V30 2431 H 229.43 -0.948461 -4.06584 0
M  V30 2432 H 230.82 -4.9635 -4.52865 0
M  V30 2433 N 233.54 1.10788 -1.12088 0
M  V30 2434 C 234.488 2.19111 -0.780587 0
M  V30 2435 C 235.482 1.67818 0.230961 0
M  V30 2436 O 236.688 1.79777 0.0895427 0
M  V30 2437 H 233.063 0.714477 -0.234578 0
M  V30 2438 H 235.034 2.45055 -1.70266 0
M  V30 2439 C 233.783 3.46818 -0.24747 0
M  V30 2440 H 233.106 3.86646 -1.01712 0
M  V30 2441 H 234.546 4.23973 -0.0476291 0
M  V30 2442 C 233.005 3.20968 1.02378 0
M  V30 2443 O 233.535 3.42298 2.10226 0
M  V30 2444 N 231.741 2.74658 0.949271 0
M  V30 2445 H 231.288 2.57501 0.0715173 0
M  V30 2446 H 231.246 2.57739 1.80049 0
M  V30 2447 N 235.018 0.912232 1.28515 0
M  V30 2448 C 236.267 0.540504 1.94323 0
M  V30 2449 C 236.58 -0.920044 1.72611 0
M  V30 2450 O 237.786 -1.39986 2.32629 0
M  V30 2451 C 236.242 0.915803 3.48053 0
M  V30 2452 C 235.85 2.39598 3.78546 0
M  V30 2453 C 237.594 0.614588 4.20027 0
M  V30 2454 C 235.501 2.71148 5.25578 0
M  V30 2455 H 234.431 0.198418 0.727424 0
M  V30 2456 H 237.082 1.11094 1.46049 0
M  V30 2457 H 235.464 0.274168 3.9505 0
M  V30 2458 H 236.638 3.08422 3.42364 0
M  V30 2459 H 234.953 2.66749 3.1974 0
M  V30 2460 H 237.55 0.827002 5.28266 0
M  V30 2461 H 237.893 -0.447531 4.13887 0
M  V30 2462 H 238.426 1.21462 3.78803 0
M  V30 2463 H 235.165 3.76207 5.36794 0
M  V30 2464 H 234.685 2.0696 5.62963 0
M  V30 2465 H 236.364 2.58072 5.93302 0
M  V30 2466 N 236.496 -1.42363 0.676048 0
M  V30 2467 C 237.429 -2.28141 -0.0516916 0
M  V30 2468 C 238.407 -1.41135 -0.807439 0
M  V30 2469 O 239.591 -1.70573 -0.802305 0
M  V30 2470 C 236.718 -3.21007 -1.08039 0
M  V30 2471 C 235.764 -4.24426 -0.420076 0
M  V30 2472 S 236.597 -5.29134 0.823246 0
M  V30 2473 C 237.753 -6.25566 -0.204344 0
M  V30 2474 H 237.986 -2.89515 0.675884 0
M  V30 2475 H 235.519 -1.47211 0.465635 0
M  V30 2476 H 237.477 -3.75048 -1.66881 0
M  V30 2477 H 236.138 -2.58766 -1.78042 0
M  V30 2478 H 235.331 -4.89596 -1.19633 0
M  V30 2479 H 234.933 -3.7388 0.0947845 0
M  V30 2480 H 237.225 -6.69098 -1.06369 0
M  V30 2481 H 238.168 -7.06895 0.412915 0
M  V30 2482 H 238.576 -5.61811 -0.55038 0
M  V30 2483 N 237.974 -0.419461 -1.51915 0
M  V30 2484 C 239.202 0.152136 -2.0634 0
M  V30 2485 C 239.617 1.37988 -1.28859 0
M  V30 2486 O 238.974 1.79243 -0.343232 0
M  V30 2487 C 239.025 0.492266 -3.58133 0
M  V30 2488 O 238.746 -0.686736 -4.32684 0
M  V30 2489 C 240.247 1.11648 -4.2901 0
M  V30 2490 H 237.467 0.0158325 -0.670813 0
M  V30 2491 H 240.011 -0.593394 -1.95702 0
M  V30 2492 H 238.166 1.18769 -3.68745 0
M  V30 2493 H 238.58 -0.400341 -5.2297 0
M  V30 2494 H 240.054 1.3046 -5.36362 0
M  V30 2495 H 240.531 2.09251 -3.86148 0
M  V30 2496 H 241.137 0.460958 -4.22795 0
M  V30 2497 N 239.452 1.56882 -0.150215 0
M  V30 2498 C 240.698 1.96518 0.500834 0
M  V30 2499 C 241.031 1.03527 1.64304 0
M  V30 2500 O 240.306 0.0782751 1.94342 0
M  V30 2501 C 240.589 3.45822 1.00395 0
M  V30 2502 C 240.442 4.49591 -0.136983 0
M  V30 2503 C 241.761 3.97704 1.88467 0
M  V30 2504 H 238.88 0.714535 0.18058 0
M  V30 2505 H 241.522 1.88577 -0.232091 0
M  V30 2506 H 239.672 3.5272 1.62851 0
M  V30 2507 H 241.344 4.5477 -0.77343 0
M  V30 2508 H 239.587 4.26441 -0.795652 0
M  V30 2509 H 240.258 5.51402 0.256815 0
M  V30 2510 H 242.734 3.93304 1.35834 0
M  V30 2511 H 241.61 5.0263 2.20578 0
M  V30 2512 H 241.871 3.40252 2.82279 0
M  V30 2513 N 240.93 -0.123565 1.57115 0
M  V30 2514 C 241.877 -1.15177 2.00007 0
M  V30 2515 C 242.847 -1.41403 0.871454 0
M  V30 2516 O 244.032 -1.53346 1.13533 0
M  V30 2517 C 241.172 -2.47436 2.40561 0
M  V30 2518 C 240.285 -2.28184 3.66819 0
M  V30 2519 C 239.42 -3.53641 3.96373 0
M  V30 2520 C 238.459 -3.29528 5.15827 0
M  V30 2521 N 237.596 -4.47175 5.41275 0
M  V30 2522 H 242.436 -0.779008 2.87638 0
M  V30 2523 H 239.973 -0.373166 1.42288 0
M  V30 2524 H 241.931 -3.24584 2.62109 0
M  V30 2525 H 240.561 -2.82614 1.55978 0
M  V30 2526 H 239.613 -1.41976 3.52912 0
M  V30 2527 H 240.925 -2.0634 4.5412 0
M  V30 2528 H 240.079 -4.39209 4.18545 0
M  V30 2529 H 238.818 -3.78512 3.07538 0
M  V30 2530 H 237.823 -2.42349 4.93505 0
M  V30 2531 H 239.048 -3.06031 6.06236 0
M  V30 2532 H 236.994 -4.72175 4.55397 0
M  V30 2533 H 236.911 -4.28419 6.22891 0
M  V30 2534 H 238.179 -5.3389 5.67963 0
M  V30 2535 N 242.408 -1.52605 -0.393616 0
M  V30 2536 C 243.824 -1.41753 -0.733357 0
M  V30 2537 C 244.024 -0.534293 -1.94287 0
M  V30 2538 O 243.08 -0.0059787 -2.52499 0
M  V30 2539 C 244.393 -2.84531 -0.972772 0
M  V30 2540 C 245.941 -2.93978 -1.07453 0
M  V30 2541 C 246.416 -4.37756 -1.3466 0
M  V30 2542 N 247.907 -4.4106 -1.41492 0
M  V30 2543 C 248.642 -5.49387 -1.642 0
M  V30 2544 N 248.138 -6.67806 -1.8441 0
M  V30 2545 N 249.931 -5.36923 -1.66342 0
M  V30 2546 H 242.082 -2.08555 0.402328 0
M  V30 2547 H 244.345 -0.940654 0.117789 0
M  V30 2548 H 244.051 -3.51353 -0.156204 0
M  V30 2549 H 243.925 -3.26508 -1.88871 0
M  V30 2550 H 246.312 -2.27326 -1.88167 0
M  V30 2551 H 246.393 -2.55435 -0.136605 0
M  V30 2552 H 246.037 -5.04972 -0.544581 0
M  V30 2553 H 245.967 -4.73848 -2.2973 0
M  V30 2554 H 248.458 -3.55705 -1.27601 0
M  V30 2555 H 248.771 -7.46141 -2.01231 0
M  V30 2556 H 247.116 -6.70843 -1.81644 0
M  V30 2557 H 250.307 -4.43381 -1.50102 0
M  V30 2558 H 250.48 -6.21416 -1.837 0
M  V30 2559 N 243.887 0.651787 -1.4349 0
M  V30 2560 C 245.133 1.41376 -1.45398 0
M  V30 2561 C 245.466 1.94041 -0.0784823 0
M  V30 2562 O 244.741 1.72379 0.900878 0
M  V30 2563 C 245.024 2.59414 -2.49752 0
M  V30 2564 C 244.877 2.12232 -3.96582 0
M  V30 2565 C 246.196 3.61626 -2.50827 0
M  V30 2566 H 243.315 0.512719 -0.529422 0
M  V30 2567 H 245.957 0.738796 -1.75048 0
M  V30 2568 H 244.107 3.16997 -2.246 0
M  V30 2569 H 245.779 1.59639 -4.32797 0
M  V30 2570 H 244.022 1.43592 -4.09346 0
M  V30 2571 H 244.693 2.9712 -4.65214 0
M  V30 2572 H 247.169 3.13805 -2.7325 0
M  V30 2573 H 246.045 4.41766 -3.25783 0
M  V30 2574 H 246.306 4.14314 -1.5426 0
M  V30 2575 N 245.365 1.30045 0.890287 0
M  V30 2576 C 246.613 1.18327 1.63839 0
M  V30 2577 C 246.934 -0.263455 1.93212 0
M  V30 2578 O 246.204 -1.17856 1.56482 0
M  V30 2579 H 244.784 0.434933 0.607324 0
M  V30 2580 H 247.446 1.631 1.06698 0
M  V30 2581 H 246.542 1.74024 2.59079 0
M  V30 2582 N 246.843 -1.10192 1.12674 0
M  V30 2583 C 248.092 -1.81573 0.8783 0
M  V30 2584 C 248.405 -1.86249 -0.597557 0
M  V30 2585 O 249.611 -2.5386 -0.962681 0
M  V30 2586 C 248.067 -3.26149 1.52167 0
M  V30 2587 C 247.675 -3.29763 3.03249 0
M  V30 2588 C 249.419 -4.0234 1.3536 0
M  V30 2589 C 247.326 -4.68815 3.60508 0
M  V30 2590 H 246.256 -0.680394 0.324931 0
M  V30 2591 H 248.907 -1.23902 1.35353 0
M  V30 2592 H 247.289 -3.83832 0.974104 0
M  V30 2593 H 248.463 -2.8189 3.6452 0
M  V30 2594 H 246.778 -2.67059 3.19481 0
M  V30 2595 H 249.375 -5.05058 1.75559 0
M  V30 2596 H 249.718 -4.15235 0.297554 0
M  V30 2597 H 250.251 -3.51079 1.87052 0
M  V30 2598 H 246.99 -4.61121 4.65884 0
M  V30 2599 H 246.51 -5.17045 3.04014 0
M  V30 2600 H 248.189 -5.37785 3.59717 0
M  V30 2601 N 248.321 -0.919034 -1.28029 0
M  V30 2602 C 249.57 -0.550802 -1.94034 0
M  V30 2603 C 249.883 0.910877 -1.73096 0
M  V30 2604 O 251.089 1.3875 -2.33368 0
M  V30 2605 C 249.545 -0.934249 -3.47563 0
M  V30 2606 C 249.153 -2.41602 -3.7727 0
M  V30 2607 C 250.897 -0.636854 -4.19696 0
M  V30 2608 C 248.804 -2.73932 -5.24133 0
M  V30 2609 H 247.734 -0.202273 -0.726362 0
M  V30 2610 H 250.385 -1.11867 -1.45458 0
M  V30 2611 H 248.767 -0.295115 -3.94899 0
M  V30 2612 H 249.941 -3.10233 -3.40723 0
M  V30 2613 H 248.256 -2.68441 -3.18321 0
M  V30 2614 H 250.853 -0.855005 -5.2782 0
M  V30 2615 H 251.196 0.425575 -4.14119 0
M  V30 2616 H 251.729 -1.23469 -3.78154 0
M  V30 2617 H 248.468 -3.79049 -5.34792 0
M  V30 2618 H 247.988 -2.09942 -5.61858 0
M  V30 2619 H 249.667 -2.61215 -5.91925 0
M  V30 2620 N 249.799 1.42003 -0.683588 0
M  V30 2621 C 251.048 2.00638 -0.206681 0
M  V30 2622 C 251.361 1.5472 1.19671 0
M  V30 2623 O 252.567 2.05833 1.77045 0
M  V30 2624 C 251.023 3.58487 -0.318632 0
M  V30 2625 C 250.631 4.1339 -1.72663 0
M  V30 2626 C 252.375 4.24384 0.0991141 0
M  V30 2627 C 250.282 5.63633 -1.79087 0
M  V30 2628 H 249.212 0.750408 -0.0735107 0
M  V30 2629 H 251.863 1.62624 -0.850048 0
M  V30 2630 H 250.245 3.94047 0.392781 0
M  V30 2631 H 251.419 3.89273 -2.46583 0
M  V30 2632 H 249.734 3.59976 -2.09299 0
M  V30 2633 H 252.331 5.34652 0.0713833 0
M  V30 2634 H 252.674 4.00505 1.13586 0
M  V30 2635 H 253.207 3.93816 -0.561599 0
M  V30 2636 H 249.946 5.92323 -2.80774 0
M  V30 2637 H 249.466 5.89714 -1.09535 0
M  V30 2638 H 251.145 6.28201 -1.5483 0
M  V30 2639 N 251.277 0.427512 1.51691 0
M  V30 2640 C 252.502 -0.143601 2.06902 0
M  V30 2641 C 252.927 -1.36536 1.29382 0
M  V30 2642 O 252.285 -1.78289 0.329043 0
M  V30 2643 C 252.333 -0.454207 3.57728 0
M  V30 2644 O 251.437 -1.54228 3.82475 0
M  V30 2645 H 250.778 -0.00617128 0.663971 0
M  V30 2646 H 253.308 0.606014 1.95419 0
M  V30 2647 H 253.318 -0.707525 4.01818 0
M  V30 2648 H 251.993 0.438812 4.13579 0
M  V30 2649 H 250.57 -1.2797 3.50254 0
M  V30 2650 N 252.755 -1.56801 0.158532 0
M  V30 2651 C 253.995 -1.98383 -0.49229 0
M  V30 2652 C 254.359 -1.04184 -1.61275 0
M  V30 2653 O 255.56 -1.34856 -2.32524 0
M  V30 2654 C 253.831 -3.4385 -0.974766 0
M  V30 2655 S 255.39 -4.07459 -1.62857 0
M  V30 2656 H 252.208 -0.693041 -0.158794 0
M  V30 2657 H 254.81 -1.93856 0.252974 0
M  V30 2658 H 253.514 -4.10131 -0.148688 0
M  V30 2659 H 253.045 -3.52115 -1.75438 0
M  V30 2660 H 255.06 -4.01458 -2.91627 0
M  V30 2661 N 254.233 0.115231 -1.57178 0
M  V30 2662 C 255.482 0.820945 -1.84237 0
M  V30 2663 C 255.795 1.80866 -0.744761 0
M  V30 2664 O 257.001 2.56083 -0.901871 0
M  V30 2665 C 255.457 1.51072 -3.26658 0
M  V30 2666 C 255.065 0.563795 -4.44438 0
M  V30 2667 C 256.809 2.20134 -3.62962 0
M  V30 2668 C 254.716 1.25701 -5.77887 0
M  V30 2669 H 253.646 0.310328 -0.687177 0
M  V30 2670 H 256.297 0.0737134 -1.83352 0
M  V30 2671 H 254.679 2.30471 -3.22024 0
M  V30 2672 H 255.853 -0.197247 -4.60378 0
M  V30 2673 H 254.168 -0.0200638 -4.16395 0
M  V30 2674 H 256.765 2.72696 -4.59936 0
M  V30 2675 H 257.108 2.98107 -2.90582 0
M  V30 2676 H 257.641 1.47619 -3.69396 0
M  V30 2677 H 254.38 0.518493 -6.53446 0
M  V30 2678 H 253.9 1.98997 -5.65827 0
M  V30 2679 H 255.579 1.78915 -6.2177 0
M  V30 2680 N 255.711 1.52812 0.385517 0
M  V30 2681 C 256.957 1.69225 1.12847 0
M  V30 2682 C 257.312 0.42864 1.87564 0
M  V30 2683 O 256.605 -0.57779 1.8268 0
M  V30 2684 C 256.799 2.86856 2.13187 0
M  V30 2685 C 256.628 4.24535 1.48325 0
M  V30 2686 C 255.398 4.89701 1.24585 0
M  V30 2687 C 257.596 5.05794 0.931501 0
M  V30 2688 N 255.578 6.11353 0.558644 0
M  V30 2689 C 256.949 6.1888 0.372552 0
M  V30 2690 C 259.004 4.90963 0.828248 0
M  V30 2691 C 257.707 7.18757 -0.279556 0
M  V30 2692 C 259.733 5.91095 0.189956 0
M  V30 2693 C 259.095 7.03489 -0.358207 0
M  V30 2694 H 255.194 0.67268 0.39878 0
M  V30 2695 H 257.778 1.9017 0.417528 0
M  V30 2696 H 255.949 2.67484 2.81614 0
M  V30 2697 H 257.681 2.92188 2.80014 0
M  V30 2698 H 254.436 4.48485 1.52178 0
M  V30 2699 H 254.86 6.76606 0.230983 0
M  V30 2700 H 259.502 4.04274 1.23784 0
M  V30 2701 H 257.22 8.05052 -0.701152 0
M  V30 2702 H 260.806 5.81694 0.111264 0
M  V30 2703 H 259.686 7.79642 -0.844314 0
M  V30 2704 N 257.189 -0.644168 1.43834 0
M  V30 2705 C 258.152 -1.73857 1.49353 0
M  V30 2706 C 259.152 -1.56315 0.377112 0
M  V30 2707 O 260.342 -1.62048 0.639226 0
M  V30 2708 C 257.474 -3.12819 1.35488 0
M  V30 2709 H 258.667 -1.70342 2.46827 0
M  V30 2710 H 256.22 -0.856652 1.30733 0
M  V30 2711 H 256.955 -3.2194 0.390569 0
M  V30 2712 H 256.74 -3.26958 2.16428 0
M  V30 2713 H 258.23 -3.92606 1.42302 0
M  V30 2714 N 258.668 -1.30515 -0.883378 0
M  V30 2715 C 259.631 -1.1701 -1.97082 0
M  V30 2716 C 260.631 -0.10089 -1.60483 0
M  V30 2717 O 261.821 -0.349127 -1.70666 0
M  V30 2718 C 258.953 -0.793045 -3.31547 0
M  V30 2719 H 260.146 -2.13622 -2.10489 0
M  V30 2720 H 257.699 -1.13935 -1.06998 0
M  V30 2721 H 258.434 0.172499 -3.23841 0
M  V30 2722 H 258.219 -1.56576 -3.5948 0
M  V30 2723 H 259.709 -0.722073 -4.1131 0
M  V30 2724 N 260.146 1.09593 -1.13257 0
M  V30 2725 C 261.386 1.83349 -0.903472 0
M  V30 2726 C 261.75 1.83641 0.560351 0
M  V30 2727 O 262.951 2.53037 0.906947 0
M  V30 2728 C 261.222 3.25629 -1.47311 0
M  V30 2729 S 262.781 4.16408 -1.38382 0
M  V30 2730 H 259.599 0.632014 -0.325699 0
M  V30 2731 H 262.201 1.31817 -1.44376 0
M  V30 2732 H 260.905 3.22991 -2.53189 0
M  V30 2733 H 260.436 3.82233 -0.930689 0
M  V30 2734 H 262.451 4.94884 -0.361113 0
M  V30 2735 N 261.624 0.925811 1.2754 0
M  V30 2736 C 262.852 0.581509 1.9856 0
M  V30 2737 C 263.267 -0.840041 1.69082 0
M  V30 2738 O 262.624 -1.55805 0.950312 0
M  V30 2739 C 262.675 0.795589 3.52637 0
M  V30 2740 O 262.396 2.16121 3.81082 0
M  V30 2741 C 263.897 0.459744 4.4091 0
M  V30 2742 H 261.117 0.220538 0.633722 0
M  V30 2743 H 263.661 1.24232 1.6244 0
M  V30 2744 H 261.816 0.18161 3.86974 0
M  V30 2745 H 262.23 2.2098 4.75676 0
M  V30 2746 H 263.704 0.660244 5.48037 0
M  V30 2747 H 264.181 -0.604625 4.35018 0
M  V30 2748 H 264.787 1.05178 4.12089 0
M  V30 2749 N 263.102 -1.41638 0.69111 0
M  V30 2750 C 264.348 -2.01598 0.220519 0
M  V30 2751 C 264.681 -1.54594 -1.17535 0
M  V30 2752 O 263.956 -0.755177 -1.79241 0
M  V30 2753 C 264.239 -3.59062 0.273243 0
M  V30 2754 C 264.092 -4.16203 1.70573 0
M  V30 2755 C 265.411 -4.38546 -0.369457 0
M  V30 2756 H 262.53 -0.732468 0.0816045 0
M  V30 2757 H 265.172 -1.68445 0.878986 0
M  V30 2758 H 263.322 -3.87435 -0.287411 0
M  V30 2759 H 264.994 -3.98722 2.31989 0
M  V30 2760 H 263.237 -3.71414 2.2413 0
M  V30 2761 H 263.908 -5.25358 1.69419 0
M  V30 2762 H 266.384 -4.1596 0.107977 0
M  V30 2763 H 265.26 -5.48069 -0.302002 0
M  V30 2764 H 265.521 -4.17662 -1.44951 0
M  V30 2765 N 264.58 -0.43555 -1.51462 0
M  V30 2766 C 265.805 0.132627 -2.06976 0
M  V30 2767 C 266.23 1.35848 -1.30104 0
M  V30 2768 O 265.588 1.78112 -0.338493 0
M  V30 2769 C 265.636 0.43523 -3.57964 0
M  V30 2770 O 264.74 1.52198 -3.83288 0
M  V30 2771 H 264.081 0.00265 -0.663995 0
M  V30 2772 H 266.611 -0.616369 -1.95095 0
M  V30 2773 H 266.621 0.686206 -4.02188 0
M  V30 2774 H 265.296 -0.460739 -4.1334 0
M  V30 2775 H 263.873 1.2611 -3.50928 0
M  V30 2776 N 266.058 1.56714 -0.166846 0
M  V30 2777 C 267.306 1.96358 0.478305 0
M  V30 2778 C 267.627 1.0537 1.6408 0
M  V30 2779 O 266.897 0.119154 1.95537 0
M  V30 2780 H 265.477 0.725065 0.179692 0
M  V30 2781 H 268.139 1.93329 -0.246985 0
M  V30 2782 H 267.235 3.00547 0.841292 0
M  V30 2783 N 267.536 -0.106894 1.57237 0
M  V30 2784 C 268.785 -0.811163 1.8467 0
M  V30 2785 C 269.098 -1.80469 0.754342 0
M  V30 2786 O 270.304 -2.55601 0.915439 0
M  V30 2787 C 268.76 -1.49337 3.27454 0
M  V30 2788 C 268.368 -0.540217 4.44731 0
M  V30 2789 C 270.112 -2.18206 3.64124 0
M  V30 2790 C 268.019 -1.22634 5.78545 0
M  V30 2791 H 266.949 -0.306679 0.688813 0
M  V30 2792 H 269.6 -0.0639887 1.83388 0
M  V30 2793 H 267.982 -2.2876 3.23241 0
M  V30 2794 H 269.156 0.221659 4.60267 0
M  V30 2795 H 267.471 0.042146 4.16379 0
M  V30 2796 H 270.068 -2.70253 4.61376 0
M  V30 2797 H 270.411 -2.96562 2.92158 0
M  V30 2798 H 270.944 -1.45658 3.70174 0
M  V30 2799 H 267.683 -0.483832 6.53712 0
M  V30 2800 H 267.203 -1.95993 5.66874 0
M  V30 2801 H 268.882 -1.75615 6.2271 0
M  V30 2802 N 269.014 -1.53014 -0.377408 0
M  V30 2803 C 269.944 -1.81589 -1.46791 0
M  V30 2804 C 270.925 -0.668622 -1.56408 0
M  V30 2805 O 272.11 -0.917337 -1.71168 0
M  V30 2806 C 269.24 -1.99519 -2.8427 0
M  V30 2807 C 268.194 -3.15249 -2.89486 0
M  V30 2808 C 267.52 -3.18451 -4.29527 0
M  V30 2809 C 268.82 -4.54084 -2.58079 0
M  V30 2810 H 270.514 -2.7291 -1.23127 0
M  V30 2811 H 268.06 -1.31319 -0.590883 0
M  V30 2812 H 270.013 -2.18092 -3.60575 0
M  V30 2813 H 268.737 -1.04897 -3.09296 0
M  V30 2814 H 267.396 -2.96477 -2.15631 0
M  V30 2815 H 267.044 -2.2149 -4.5161 0
M  V30 2816 H 266.744 -3.962 -4.33934 0
M  V30 2817 H 268.268 -3.39193 -5.07721 0
M  V30 2818 H 269.682 -4.72899 -3.24098 0
M  V30 2819 H 268.079 -5.33987 -2.7382 0
M  V30 2820 H 269.149 -4.60006 -1.53372 0
M  V30 2821 N 270.492 0.636531 -1.44174 0
M  V30 2822 C 271.739 1.39619 -1.46672 0
M  V30 2823 C 272.067 1.94257 -0.0972691 0
M  V30 2824 O 271.322 1.73768 0.900175 0
M  V30 2825 C 271.621 2.58309 -2.47005 0
M  V30 2826 C 271.287 2.21992 -3.92467 0
M  V30 2827 C 269.949 2.118 -4.32081 0
M  V30 2828 C 272.301 1.9321 -4.84065 0
M  V30 2829 C 269.629 1.71007 -5.61225 0
M  V30 2830 C 271.981 1.53911 -6.13591 0
M  V30 2831 C 270.645 1.42257 -6.52165 0
M  V30 2832 H 269.915 0.510902 -0.536712 0
M  V30 2833 H 272.562 0.722328 -1.77355 0
M  V30 2834 H 270.867 3.30903 -2.09786 0
M  V30 2835 H 272.564 3.16533 -2.46186 0
M  V30 2836 H 269.154 2.30841 -3.61124 0
M  V30 2837 H 273.338 1.99997 -4.54219 0
M  V30 2838 H 268.594 1.60583 -5.89935 0
M  V30 2839 H 272.768 1.30677 -6.8403 0
M  V30 2840 H 270.395 1.10419 -7.52138 0
M  V30 2841 N 271.97 1.30982 0.876444 0
M  V30 2842 C 273.219 1.19658 1.62373 0
M  V30 2843 C 273.532 -0.245636 1.94052 0
M  V30 2844 O 274.738 -0.48049 2.67214 0
M  V30 2845 C 273.194 2.09433 2.92687 0
M  V30 2846 C 272.802 3.58613 2.68516 0
M  V30 2847 C 274.546 2.06893 3.70669 0
M  V30 2848 C 272.453 4.40416 3.94699 0
M  V30 2849 H 271.383 0.444268 0.609214 0
M  V30 2850 H 274.034 1.55791 0.969605 0
M  V30 2851 H 272.416 1.66191 3.59439 0
M  V30 2852 H 273.59 4.10058 2.10212 0
M  V30 2853 H 271.905 3.63063 2.03898 0
M  V30 2854 H 274.502 2.65258 4.64265 0
M  V30 2855 H 274.845 1.05448 4.02724 0
M  V30 2856 H 275.378 2.48301 3.10792 0
M  V30 2857 H 272.117 5.42591 3.67798 0
M  V30 2858 H 271.637 3.93731 4.52477 0
M  V30 2859 H 273.316 4.52294 4.62644 0
M  V30 2860 N 273.449 -1.08991 1.13837 0
M  V30 2861 C 274.698 -1.80631 0.897509 0
M  V30 2862 C 275.011 -1.86872 -0.57777 0
M  V30 2863 O 276.217 -2.54866 -0.935701 0
M  V30 2864 C 274.673 -3.24517 1.55618 0
M  V30 2865 C 274.281 -3.26529 3.0673 0
M  V30 2866 C 276.025 -4.00882 1.3962 0
M  V30 2867 C 273.932 -4.64965 3.65461 0
M  V30 2868 H 272.862 -0.67691 0.332129 0
M  V30 2869 H 275.513 -1.2246 1.3666 0
M  V30 2870 H 273.895 -3.82778 1.01476 0
M  V30 2871 H 275.069 -2.78008 3.67489 0
M  V30 2872 H 273.384 -2.63656 3.22296 0
M  V30 2873 H 275.981 -5.03167 1.80906 0
M  V30 2874 H 276.324 -4.14896 0.341578 0
M  V30 2875 H 276.857 -3.49075 1.90766 0
M  V30 2876 H 273.596 -4.56153 4.70749 0
M  V30 2877 H 273.116 -5.13792 3.09481 0
M  V30 2878 H 274.795 -5.3394 3.654 0
M  V30 2879 N 274.927 -0.932562 -1.27047 0
M  V30 2880 C 276.157 -0.591173 -1.97961 0
M  V30 2881 C 276.565 0.836219 -1.69717 0
M  V30 2882 O 275.908 1.56801 -0.957036 0
M  V30 2883 C 275.97 -0.743082 -3.51736 0
M  V30 2884 C 275.634 -2.1435 -4.03613 0
M  V30 2885 C 276.631 -3.11815 -4.16014 0
M  V30 2886 C 274.316 -2.46175 -4.37839 0
M  V30 2887 C 276.31 -4.39211 -4.61923 0
M  V30 2888 C 273.997 -3.73806 -4.83438 0
M  V30 2889 C 274.995 -4.70137 -4.95439 0
M  V30 2890 O 274.683 -5.95496 -5.40037 0
M  V30 2891 H 274.415 -0.222375 -0.638377 0
M  V30 2892 H 276.969 -1.25317 -1.62742 0
M  V30 2893 H 275.199 -0.0239739 -3.86693 0
M  V30 2894 H 276.888 -0.40603 -4.03864 0
M  V30 2895 H 277.654 -2.88549 -3.89826 0
M  V30 2896 H 273.533 -1.71936 -4.27737 0
M  V30 2897 H 277.077 -5.14404 -4.71205 0
M  V30 2898 H 272.974 -3.96888 -5.09068 0
M  V30 2899 H 273.742 -5.98554 -5.58279 0
M  V30 2900 N 276.405 1.4127 -0.698611 0
M  V30 2901 C 277.63 2.06024 -0.238512 0
M  V30 2902 C 278.055 1.5224 1.10475 0
M  V30 2903 O 277.413 0.650623 1.69223 0
M  V30 2904 C 277.461 3.59988 -0.209952 0
M  V30 2905 O 276.565 4.04282 0.814235 0
M  V30 2906 H 275.906 0.653829 -0.115775 0
M  V30 2907 H 278.436 1.8098 -0.954326 0
M  V30 2908 H 278.446 4.07979 -0.0418436 0
M  V30 2909 H 277.121 3.98503 -1.1903 0
M  V30 2910 H 275.698 3.6779 0.615234 0
M  V30 2911 N 277.883 0.443576 1.51229 0
M  V30 2912 C 279.16 -0.181038 1.9476 0
M  V30 2913 C 279.54 -1.59523 1.38259 0
M  V30 2914 O 278.888 -2.2122 0.572198 0
M  V30 2915 C 279.098 -0.152422 3.48667 0
M  V30 2916 C 280.446 -0.354923 4.23114 0
M  V30 2917 O 281.47 -0.230257 3.55455 0
M  V30 2918 O 280.329 -0.603674 5.43156 0
M  V30 2919 H 277.423 -0.1266 0.817252 0
M  V30 2920 H 279.969 0.502004 1.62105 0
M  V30 2921 H 278.741 0.836022 3.82265 0
M  V30 2922 H 278.364 -0.878107 3.87782 0
M  V30 2923 N 279.361 -1.56624 0.175154 0
M  V30 2924 C 280.586 -2.01813 -0.478137 0
M  V30 2925 C 281.011 -1.05457 -1.55757 0
M  V30 2926 O 280.369 -0.0347439 -1.81267 0
M  V30 2927 C 280.417 -3.45581 -1.02987 0
M  V30 2928 O 279.521 -3.52305 -2.14371 0
M  V30 2929 H 278.862 -0.65413 -0.114059 0
M  V30 2930 H 281.392 -2.02673 0.280173 0
M  V30 2931 H 281.402 -3.84965 -1.35151 0
M  V30 2932 H 280.077 -4.1521 -0.239556 0
M  V30 2933 H 278.654 -3.24783 -1.83222 0
M  V30 2934 N 280.839 0.0985539 -1.57292 0
M  V30 2935 C 282.064 0.820196 -1.90493 0
M  V30 2936 C 282.489 1.71658 -0.769094 0
M  V30 2937 O 281.847 1.79133 0.279495 0
M  V30 2938 C 281.895 1.61242 -3.22542 0
M  V30 2939 O 280.999 2.72108 -3.09888 0
M  V30 2940 H 280.34 0.225547 -0.62452 0
M  V30 2941 H 282.87 0.0748159 -2.04463 0
M  V30 2942 H 282.88 1.99737 -3.55766 0
M  V30 2943 H 281.555 0.954535 -4.04798 0
M  V30 2944 H 280.132 2.36667 -2.88172 0
M  V30 2945 N 282.317 1.53212 0.369288 0
M  V30 2946 C 283.28 1.7872 1.43498 0
M  V30 2947 C 284.28 0.657554 1.46741 0
M  V30 2948 O 285.47 0.925736 1.47566 0
M  V30 2949 C 282.602 1.90591 2.82645 0
M  V30 2950 H 283.795 2.73894 1.22156 0
M  V30 2951 H 281.348 1.44233 0.602203 0
M  V30 2952 H 282.083 0.974709 3.09306 0
M  V30 2953 H 281.868 2.72751 2.8169 0
M  V30 2954 H 283.358 2.11931 3.59826 0
M  V30 2955 N 283.795 -0.628877 1.44509 0
M  V30 2956 C 285.041 -1.39045 1.47629 0
M  V30 2957 C 285.374 -1.93892 0.109343 0
M  V30 2958 O 284.649 -1.7379 -0.87334 0
M  V30 2959 C 284.932 -2.55408 2.53848 0
M  V30 2960 C 284.785 -2.05896 3.99909 0
M  V30 2961 C 286.104 -3.5759 2.56549 0
M  V30 2962 H 283.223 -0.504232 0.537512 0
M  V30 2963 H 285.865 -0.710854 1.76201 0
M  V30 2964 H 284.015 -3.13384 2.29615 0
M  V30 2965 H 285.687 -1.52734 4.35282 0
M  V30 2966 H 283.93 -1.37061 4.11578 0
M  V30 2967 H 284.601 -2.89681 4.69882 0
M  V30 2968 H 287.077 -3.09419 2.78207 0
M  V30 2969 H 285.953 -4.36527 3.32769 0
M  V30 2970 H 286.214 -4.11808 1.60832 0
M  V30 2971 N 285.273 -1.31445 -0.869486 0
M  V30 2972 C 286.522 -1.20517 -1.61736 0
M  V30 2973 C 286.835 0.235341 -1.94179 0
M  V30 2974 O 288.041 0.466312 -2.67465 0
M  V30 2975 C 286.497 -2.10982 -2.91573 0
M  V30 2976 C 286.105 -3.60032 -2.66611 0
M  V30 2977 C 287.849 -2.08856 -3.69567 0
M  V30 2978 C 285.756 -4.42503 -3.92358 0
M  V30 2979 H 284.686 -0.447493 -0.606849 0
M  V30 2980 H 287.337 -1.56303 -0.96133 0
M  V30 2981 H 285.719 -1.68095 -3.58553 0
M  V30 2982 H 286.893 -4.11167 -2.08035 0
M  V30 2983 H 285.208 -3.64139 -2.0197 0
M  V30 2984 H 287.805 -2.67716 -4.62852 0
M  V30 2985 H 288.148 -1.07582 -4.02159 0
M  V30 2986 H 288.681 -2.49945 -3.09471 0
M  V30 2987 H 285.42 -5.44533 -3.64916 0
M  V30 2988 H 284.94 -3.96125 -4.50383 0
M  V30 2989 H 286.619 -4.54741 -4.60238 0
M  V30 2990 N 286.751 1.08385 -1.14413 0
M  V30 2991 C 288 1.80153 -0.907076 0
M  V30 2992 C 288.313 1.87176 0.567851 0
M  V30 2993 O 289.519 2.55359 0.922172 0
M  V30 2994 C 287.975 3.23687 -1.57336 0
M  V30 2995 C 287.583 3.24897 -3.08457 0
M  V30 2996 C 289.327 4.00136 -1.41744 0
M  V30 2997 C 287.234 4.6302 -3.67921 0
M  V30 2998 H 286.164 0.675139 -0.335714 0
M  V30 2999 H 288.815 1.21733 -1.37307 0
M  V30 3000 H 287.197 3.82234 -1.03505 0
M  V30 3001 H 288.371 2.76055 -3.68958 0
M  V30 3002 H 286.686 2.61943 -3.2369 0
M  V30 3003 H 289.283 5.02201 -1.83572 0
M  V30 3004 H 289.626 4.14709 -0.363576 0
M  V30 3005 H 290.159 3.48058 -1.92614 0
M  V30 3006 H 286.898 4.5365 -4.73161 0
M  V30 3007 H 286.418 5.12143 -3.12201 0
M  V30 3008 H 288.097 5.31994 -3.68227 0
M  V30 3009 N 288.23 0.939286 1.26551 0
M  V30 3010 C 289.47 0.5933 1.956 0
M  V30 3011 C 289.834 -0.851515 1.72085 0
M  V30 3012 O 291.035 -1.30634 2.34921 0
M  V30 3013 C 289.306 0.923996 3.45249 0
M  V30 3014 S 290.865 0.688269 4.33369 0
M  V30 3015 H 287.683 0.218591 0.676564 0
M  V30 3016 H 290.285 1.2102 1.5354 0
M  V30 3017 H 288.989 1.97297 3.59864 0
M  V30 3018 H 288.52 0.296746 3.92279 0
M  V30 3019 H 290.535 -0.448434 4.9417 0
M  V30 3020 N 289.708 -1.40897 0.706093 0
M  V30 3021 C 290.638 -2.33418 0.0620085 0
M  V30 3022 C 291.619 -1.52385 -0.755827 0
M  V30 3023 O 292.804 -1.80886 -0.706674 0
M  V30 3024 C 289.934 -3.36293 -0.867445 0
M  V30 3025 C 288.888 -4.27716 -0.155932 0
M  V30 3026 C 288.214 -5.2105 -1.20046 0
M  V30 3027 C 289.514 -5.12944 0.984149 0
M  V30 3028 H 291.208 -2.87527 0.83477 0
M  V30 3029 H 288.754 -1.38249 0.402875 0
M  V30 3030 H 290.707 -3.99949 -1.32735 0
M  V30 3031 H 289.431 -2.80556 -1.67199 0
M  V30 3032 H 288.09 -3.65498 0.284047 0
M  V30 3033 H 287.738 -4.61624 -1.99781 0
M  V30 3034 H 287.438 -5.83056 -0.729328 0
M  V30 3035 H 288.962 -5.87584 -1.66066 0
M  V30 3036 H 290.376 -5.70109 0.604048 0
M  V30 3037 H 288.773 -5.83945 1.38304 0
M  V30 3038 H 289.843 -4.49485 1.81911 0
M  V30 3039 N 291.186 -0.45159 -1.50991 0
M  V30 3040 C 292.435 0.111653 -2.01391 0
M  V30 3041 C 292.748 1.42529 -1.33959 0
M  V30 3042 O 293.954 2.07232 -1.75405 0
M  V30 3043 C 292.41 0.249514 -3.59034 0
M  V30 3044 C 292.018 -1.05453 -4.35412 0
M  V30 3045 C 293.762 0.765762 -4.17536 0
M  V30 3046 C 291.669 -0.881529 -5.84793 0
M  V30 3047 H 290.599 0.0455022 -0.752626 0
M  V30 3048 H 293.25 -0.583524 -1.73975 0
M  V30 3049 H 291.632 1.00803 -3.82955 0
M  V30 3050 H 292.806 -1.82248 -4.23229 0
M  V30 3051 H 291.121 -1.50039 -3.88429 0
M  V30 3052 H 293.718 0.911913 -5.26866 0
M  V30 3053 H 294.061 1.75201 -3.77638 0
M  V30 3054 H 294.594 0.0651744 -3.97747 0
M  V30 3055 H 291.333 -1.84057 -6.29129 0
M  V30 3056 H 290.853 -0.153625 -5.99603 0
M  V30 3057 H 292.532 -0.540363 -6.4474 0
M  V30 3058 N 292.664 1.56529 -0.183458 0
M  V30 3059 C 293.892 2.01623 0.464285 0
M  V30 3060 C 294.307 1.06366 1.55986 0
M  V30 3061 O 293.664 0.0665398 1.82379 0
M  V30 3062 C 293.715 3.46475 1.03139 0
M  V30 3063 O 293.436 4.38095 -0.0204675 0
M  V30 3064 C 294.937 4.0703 1.75617 0
M  V30 3065 H 292.157 0.660596 0.117704 0
M  V30 3066 H 294.701 2.02451 -0.288751 0
M  V30 3067 H 292.856 3.46383 1.73486 0
M  V30 3068 H 293.27 5.22973 0.399952 0
M  V30 3069 H 294.744 5.10271 2.10542 0
M  V30 3070 H 295.221 3.49819 2.65563 0
M  V30 3071 H 295.827 4.1086 1.09882 0
M  V30 3072 N 294.142 -0.090211 1.57342 0
M  V30 3073 C 295.075 -1.14035 1.97664 0
M  V30 3074 C 296.053 -1.38576 0.850616 0
M  V30 3075 O 297.237 -1.52255 1.11134 0
M  V30 3076 C 294.364 -2.48854 2.2976 0
M  V30 3077 C 293.41 -2.40564 3.52181 0
M  V30 3078 S 294.243 -1.81745 5.03715 0
M  V30 3079 C 295.399 -3.18178 5.38993 0
M  V30 3080 H 295.632 -0.796636 2.86428 0
M  V30 3081 H 293.165 -0.298072 1.51496 0
M  V30 3082 H 295.123 -3.26413 2.48927 0
M  V30 3083 H 293.784 -2.80393 1.41558 0
M  V30 3084 H 292.977 -3.39942 3.72096 0
M  V30 3085 H 292.579 -1.71135 3.32549 0
M  V30 3086 H 294.871 -4.14461 5.35937 0
M  V30 3087 H 295.814 -3.03062 6.39968 0
M  V30 3088 H 296.222 -3.17935 4.66452 0
M  V30 3089 N 295.62 -1.53406 -0.361157 0
M  V30 3090 C 296.867 -1.69802 -1.10333 0
M  V30 3091 C 297.195 -0.452087 -1.89173 0
M  V30 3092 O 296.45 0.566017 -1.87336 0
M  V30 3093 C 296.749 -2.90211 -2.08596 0
M  V30 3094 C 296.415 -4.26539 -1.46203 0
M  V30 3095 C 295.077 -4.6361 -1.28915 0
M  V30 3096 C 297.429 -5.113 -1.01101 0
M  V30 3097 C 294.757 -5.83075 -0.651157 0
M  V30 3098 C 297.109 -6.31415 -0.387007 0
M  V30 3099 C 295.773 -6.67195 -0.201657 0
M  V30 3100 H 295.043 -0.621351 -0.403737 0
M  V30 3101 H 297.69 -1.87598 -0.384609 0
M  V30 3102 H 295.995 -2.66946 -2.86788 0
M  V30 3103 H 297.692 -3.00091 -2.65982 0
M  V30 3104 H 294.282 -3.97352 -1.60653 0
M  V30 3105 H 298.466 -4.83206 -1.13249 0
M  V30 3106 H 293.722 -6.09385 -0.496006 0
M  V30 3107 H 297.896 -6.96394 -0.0293563 0
M  V30 3108 H 295.523 -7.59628 0.294766 0
M  V30 3109 N 297.098 0.621204 -1.44841 0
M  V30 3110 C 298.345 1.38055 -1.48145 0
M  V30 3111 C 298.673 1.94143 -0.117867 0
M  V30 3112 O 297.928 1.74713 0.881694 0
M  V30 3113 C 298.227 2.55675 -2.4973 0
M  V30 3114 C 297.893 2.17817 -3.94799 0
M  V30 3115 C 296.555 2.07205 -4.34303 0
M  V30 3116 C 298.907 1.88065 -4.86087 0
M  V30 3117 C 296.235 1.65045 -5.63007 0
M  V30 3118 C 298.587 1.47394 -6.15189 0
M  V30 3119 C 297.251 1.35331 -6.53637 0
M  V30 3120 H 296.521 0.505181 -0.542101 0
M  V30 3121 H 299.168 0.703477 -1.78111 0
M  V30 3122 H 297.473 3.2866 -2.13284 0
M  V30 3123 H 299.17 3.13904 -2.4953 0
M  V30 3124 H 295.76 2.26998 -3.63552 0
M  V30 3125 H 299.944 1.95168 -4.56315 0
M  V30 3126 H 295.2 1.54317 -5.91605 0
M  V30 3127 H 299.374 1.23415 -6.85377 0
M  V30 3128 H 297.001 1.02435 -7.53267 0
M  V30 3129 N 298.576 1.31904 0.862503 0
M  V30 3130 C 299.804 1.24998 1.64873 0
M  V30 3131 C 300.219 -0.183425 1.87907 0
M  V30 3132 O 299.576 -1.11794 1.44251 0
M  V30 3133 C 299.627 1.99829 3.01248 0
M  V30 3134 O 299.348 3.37575 2.79239 0
M  V30 3135 C 300.849 1.99852 3.95694 0
M  V30 3136 H 298.069 0.431599 0.513773 0
M  V30 3137 H 300.613 1.73901 1.07604 0
M  V30 3138 H 298.768 1.54668 3.55185 0
M  V30 3139 H 299.182 3.75776 3.65914 0
M  V30 3140 H 300.656 2.56709 4.88676 0
M  V30 3141 H 301.133 0.982852 4.28062 0
M  V30 3142 H 301.739 2.44926 3.47694 0
M  V30 3143 N 300.054 -1.07777 1.14986 0
M  V30 3144 C 300.987 -2.14228 0.786243 0
M  V30 3145 C 301.965 -1.60888 -0.235347 0
M  V30 3146 O 303.149 -1.88099 -0.122909 0
M  V30 3147 C 300.276 -3.38281 0.168433 0
M  V30 3148 C 299.322 -4.10387 1.16123 0
M  V30 3149 S 300.155 -4.62371 2.70135 0
M  V30 3150 C 301.311 -5.89704 2.09762 0
M  V30 3151 H 301.544 -2.44741 1.68787 0
M  V30 3152 H 299.077 -1.19984 0.971756 0
M  V30 3153 H 301.035 -4.10098 -0.181588 0
M  V30 3154 H 299.696 -3.05953 -0.710725 0
M  V30 3155 H 298.889 -4.99431 0.677086 0
M  V30 3156 H 298.491 -3.44513 1.45556 0
M  V30 3157 H 300.783 -6.61648 1.45701 0
M  V30 3158 H 301.726 -6.42824 2.96955 0
M  V30 3159 H 302.134 -5.4302 1.54239 0
M  V30 3160 N 301.532 -0.945985 -1.26051 0
M  V30 3161 C 302.462 -0.477172 -2.28572 0
M  V30 3162 C 303.443 0.472032 -1.63419 0
M  V30 3163 O 304.628 0.372853 -1.90587 0
M  V30 3164 C 301.758 0.253975 -3.4637 0
M  V30 3165 C 300.712 -0.609135 -4.23643 0
M  V30 3166 C 300.038 0.252252 -5.34105 0
M  V30 3167 C 301.338 -1.8829 -4.8718 0
M  V30 3168 H 303.032 -1.33402 -2.68038 0
M  V30 3169 H 300.578 -0.642904 -1.28852 0
M  V30 3170 H 302.531 0.593016 -4.17207 0
M  V30 3171 H 301.255 1.145 -3.05871 0
M  V30 3172 H 299.914 -0.931138 -3.54578 0
M  V30 3173 H 299.562 1.14278 -4.89846 0
M  V30 3174 H 299.262 -0.32188 -5.86718 0
M  V30 3175 H 300.786 0.586454 -6.07777 0
M  V30 3176 H 302.2 -1.61081 -5.50205 0
M  V30 3177 H 300.597 -2.40199 -5.49931 0
M  V30 3178 H 301.667 -2.59134 -4.09851 0
M  V30 3179 N 303.011 1.40521 -0.713556 0
M  V30 3180 C 303.974 2.29098 -0.0684347 0
M  V30 3181 C 304.974 1.45268 0.689472 0
M  V30 3182 O 306.164 1.66205 0.521677 0
M  V30 3183 C 303.296 3.28446 0.913024 0
M  V30 3184 H 304.489 2.87645 -0.84855 0
M  V30 3185 H 302.042 1.48809 -0.47809 0
M  V30 3186 H 302.777 2.74913 1.72027 0
M  V30 3187 H 302.562 3.90327 0.372472 0
M  V30 3188 H 304.052 3.94777 1.36165 0
M  V30 3189 N 304.489 0.459591 1.5075 0
M  V30 3190 C 305.419 -0.330644 2.31147 0
M  V30 3191 C 306.4 -1.00087 1.37538 0
M  V30 3192 O 307.585 -1.00025 1.66459 0
M  V30 3193 C 304.715 -1.41958 3.16962 0
M  V30 3194 C 303.669 -0.871608 4.19031 0
M  V30 3195 C 302.995 -2.05797 4.9351 0
M  V30 3196 C 304.295 0.109251 5.22186 0
M  V30 3197 H 305.989 0.340336 2.97459 0
M  V30 3198 H 303.535 0.165119 1.4305 0
M  V30 3199 H 305.488 -1.9798 3.71997 0
M  V30 3200 H 304.212 -2.11917 2.48513 0
M  V30 3201 H 302.871 -0.333442 3.6508 0
M  V30 3202 H 302.519 -2.74427 4.21544 0
M  V30 3203 H 302.219 -1.6976 5.62544 0
M  V30 3204 H 303.743 -2.62331 5.51375 0
M  V30 3205 H 305.157 -0.361405 5.7216 0
M  V30 3206 H 303.554 0.383316 5.98875 0
M  V30 3207 H 304.624 1.03887 4.73641 0
M  V30 3208 N 305.967 -1.56429 0.191757 0
M  V30 3209 C 306.9 -2.14829 -0.76967 0
M  V30 3210 C 307.878 -1.08405 -1.2119 0
M  V30 3211 O 309.062 -1.36498 -1.30002 0
M  V30 3212 C 306.189 -2.70446 -2.03903 0
M  V30 3213 C 305.235 -3.89428 -1.7392 0
M  V30 3214 S 306.068 -5.28048 -0.890265 0
M  V30 3215 C 307.224 -5.87085 -2.16984 0
M  V30 3216 H 307.457 -2.96042 -0.273204 0
M  V30 3217 H 304.99 -1.54383 -0.0231975 0
M  V30 3218 H 306.948 -3.03134 -2.76803 0
M  V30 3219 H 305.609 -1.89281 -2.50662 0
M  V30 3220 H 304.802 -4.26742 -2.68155 0
M  V30 3221 H 304.404 -3.57732 -1.09103 0
M  V30 3222 H 306.696 -6.01244 -3.12269 0
M  V30 3223 H 307.639 -6.83747 -1.84108 0
M  V30 3224 H 308.047 -5.15663 -2.29678 0
M  V30 3225 N 307.445 0.0818655 -1.57387 0
M  V30 3226 C 308.408 1.08265 -2.02018 0
M  V30 3227 C 309.408 1.32183 -0.915664 0
M  V30 3228 O 310.598 1.28073 -1.18081 0
M  V30 3229 C 307.73 2.42871 -2.39221 0
M  V30 3230 H 308.923 0.698204 -2.91659 0
M  V30 3231 H 306.476 0.327303 -1.52835 0
M  V30 3232 H 307.211 2.86167 -1.52575 0
M  V30 3233 H 306.996 2.26855 -3.19811 0
M  V30 3234 H 308.486 3.14826 -2.74362 0
M  V30 3235 N 308.923 1.53595 0.353017 0
M  V30 3236 C 310.148 1.7462 1.11904 0
M  V30 3237 C 310.573 0.479721 1.8188 0
M  V30 3238 O 309.931 -0.567066 1.72204 0
M  V30 3239 C 309.979 2.92029 2.11545 0
M  V30 3240 O 309.083 2.61516 3.18878 0
M  V30 3241 H 308.424 0.579531 0.324099 0
M  V30 3242 H 310.954 2.00525 0.406301 0
M  V30 3243 H 310.964 3.18551 2.5493 0
M  V30 3244 H 309.639 3.83888 1.60008 0
M  V30 3245 H 308.216 2.45852 2.80377 0
M  V30 3246 N 310.401 -0.613514 1.45168 0
M  V30 3247 C 311.331 -1.7354 1.56225 0
M  V30 3248 C 312.312 -1.64981 0.41414 0
M  V30 3249 O 313.497 -1.83472 0.636526 0
M  V30 3250 C 310.627 -3.12128 1.52295 0
M  V30 3251 C 309.581 -3.35491 2.65762 0
M  V30 3252 C 308.907 -4.74291 2.46885 0
M  V30 3253 C 310.207 -3.26325 4.0781 0
M  V30 3254 H 311.901 -1.64543 2.50132 0
M  V30 3255 H 309.447 -0.790185 1.20383 0
M  V30 3256 H 311.4 -3.90404 1.58628 0
M  V30 3257 H 310.124 -3.2195 0.549139 0
M  V30 3258 H 308.783 -2.59603 2.58847 0
M  V30 3259 H 308.431 -4.80839 1.47657 0
M  V30 3260 H 308.131 -4.9088 3.22972 0
M  V30 3261 H 309.655 -5.54775 2.55063 0
M  V30 3262 H 311.069 -3.94483 4.16 0
M  V30 3263 H 309.466 -3.54445 4.8424 0
M  V30 3264 H 310.536 -2.23855 4.30136 0
M  V30 3265 N 311.879 -1.3236 -0.855495 0
M  V30 3266 C 313.109 -1.25688 -1.6397 0
M  V30 3267 C 313.517 0.177592 -1.88365 0
M  V30 3268 O 312.86 1.12485 -1.45234 0
M  V30 3269 C 312.922 -1.94602 -3.02275 0
M  V30 3270 C 312.586 -3.43937 -3.00926 0
M  V30 3271 C 313.583 -4.39435 -2.77835 0
M  V30 3272 C 311.268 -3.85858 -3.21588 0
M  V30 3273 C 313.262 -5.74829 -2.75409 0
M  V30 3274 C 310.949 -5.21361 -3.18789 0
M  V30 3275 C 311.947 -6.15658 -2.95727 0
M  V30 3276 O 311.635 -7.48681 -2.928 0
M  V30 3277 H 311.367 -0.434972 -0.51747 0
M  V30 3278 H 313.921 -1.75023 -1.075 0
M  V30 3279 H 312.151 -1.39836 -3.60531 0
M  V30 3280 H 313.84 -1.81651 -3.62985 0
M  V30 3281 H 314.606 -4.08374 -2.6164 0
M  V30 3282 H 310.485 -3.12883 -3.38564 0
M  V30 3283 H 314.029 -6.48404 -2.57328 0
M  V30 3284 H 309.926 -5.52052 -3.34528 0
M  V30 3285 H 310.694 -7.5803 -3.0876 0
M  V30 3286 N 313.357 1.07166 -1.15556 0
M  V30 3287 C 314.603 1.80065 -0.932984 0
M  V30 3288 C 314.936 1.86586 0.53845 0
M  V30 3289 O 314.211 1.35098 1.39924 0
M  V30 3290 C 314.494 3.25022 -1.55025 0
M  V30 3291 C 314.347 3.26634 -3.09242 0
M  V30 3292 C 315.666 4.22341 -1.2376 0
M  V30 3293 H 312.785 0.653697 -0.340366 0
M  V30 3294 H 315.427 1.25389 -1.4275 0
M  V30 3295 H 313.577 3.71712 -1.12972 0
M  V30 3296 H 315.249 2.88173 -3.60214 0
M  V30 3297 H 313.492 2.65539 -3.43033 0
M  V30 3298 H 314.163 4.28854 -3.47546 0
M  V30 3299 H 316.639 3.8405 -1.60139 0
M  V30 3300 H 315.515 5.22053 -1.69564 0
M  V30 3301 H 315.776 4.41828 -0.154938 0
M  V30 3302 N 314.835 0.952656 1.25548 0
M  V30 3303 C 315.785 0.442033 2.23674 0
M  V30 3304 C 316.769 -0.467632 1.53955 0
M  V30 3305 O 317.961 -0.301006 1.74422 0
M  V30 3306 C 315.09 -0.280816 3.4215 0
M  V30 3307 C 314.176 0.646803 4.19139 0
M  V30 3308 N 314.567 1.77759 4.73535 0
M  V30 3309 C 312.865 0.454617 4.43677 0
M  V30 3310 C 313.566 2.35658 5.31827 0
M  V30 3311 N 312.542 1.64333 5.18166 0
M  V30 3312 H 316.344 1.30505 2.63336 0
M  V30 3313 H 313.858 0.809904 1.40763 0
M  V30 3314 H 315.855 -0.663747 4.11582 0
M  V30 3315 H 314.515 -1.14046 3.04012 0
M  V30 3316 H 315.526 2.15949 4.7073 0
M  V30 3317 H 312.203 -0.362312 4.15925 0
M  V30 3318 H 313.593 3.30998 5.84713 0
M  V30 3319 N 316.313 -1.40141 0.720998 0
M  V30 3320 C 317.246 -2.2819 0.020916 0
M  V30 3321 C 318.224 -1.43633 -0.762129 0
M  V30 3322 O 319.408 -1.7304 -0.747633 0
M  V30 3323 C 316.535 -3.24281 -0.977715 0
M  V30 3324 C 315.581 -4.25548 -0.284836 0
M  V30 3325 S 316.414 -5.26247 0.991169 0
M  V30 3326 C 317.57 -6.259 -0.0052214 0
M  V30 3327 H 317.803 -2.87218 0.767649 0
M  V30 3328 H 315.336 -1.45656 0.512233 0
M  V30 3329 H 317.294 -3.80167 -1.54865 0
M  V30 3330 H 315.955 -2.643 -1.69719 0
M  V30 3331 H 315.148 -4.93154 -1.03996 0
M  V30 3332 H 314.75 -3.73389 0.213684 0
M  V30 3333 H 317.042 -6.72143 -0.850279 0
M  V30 3334 H 317.985 -7.05224 0.637599 0
M  V30 3335 H 318.393 -5.63277 -0.371366 0
M  V30 3336 N 317.792 -0.46758 -1.50504 0
M  V30 3337 C 319.039 0.0886219 -2.02306 0
M  V30 3338 C 319.367 1.40037 -1.34981 0
M  V30 3339 O 318.622 1.90136 -0.463318 0
M  V30 3340 C 318.921 0.323995 -3.55928 0
M  V30 3341 C 318.587 -0.905618 -4.41712 0
M  V30 3342 C 317.249 -1.24275 -4.64875 0
M  V30 3343 C 319.601 -1.72448 -4.91845 0
M  V30 3344 C 316.929 -2.39888 -5.35417 0
M  V30 3345 C 319.281 -2.87185 -5.63656 0
M  V30 3346 C 317.945 -3.21317 -5.85074 0
M  V30 3347 H 317.215 0.0324291 -0.74029 0
M  V30 3348 H 319.862 -0.620945 -1.81153 0
M  V30 3349 H 318.167 1.11577 -3.75577 0
M  V30 3350 H 319.864 0.76826 -3.93572 0
M  V30 3351 H 316.454 -0.632956 -4.239 0
M  V30 3352 H 320.638 -1.4772 -4.73806 0
M  V30 3353 H 315.894 -2.66611 -5.50208 0
M  V30 3354 H 320.068 -3.50985 -6.01484 0
M  V30 3355 H 317.695 -4.1101 -6.39511 0
M  V30 3356 N 319.27 1.56325 -0.20005 0
M  V30 3357 C 320.2 2.22318 0.713916 0
M  V30 3358 C 321.181 1.18788 1.21752 0
M  V30 3359 O 322.366 1.47309 1.26545 0
M  V30 3360 C 319.496 2.88639 1.93144 0
M  V30 3361 C 318.45 3.98457 1.56255 0
M  V30 3362 C 317.776 4.51967 2.85709 0
M  V30 3363 C 319.076 5.16612 0.768747 0
M  V30 3364 H 320.77 2.98952 0.163755 0
M  V30 3365 H 318.316 1.43792 0.0773219 0
M  V30 3366 H 320.269 3.33491 2.57608 0
M  V30 3367 H 318.993 2.09419 2.50621 0
M  V30 3368 H 317.652 3.54305 0.941471 0
M  V30 3369 H 317.3 3.69503 3.41287 0
M  V30 3370 H 317 5.26071 2.6177 0
M  V30 3371 H 318.524 4.99523 3.51154 0
M  V30 3372 H 319.938 5.57977 1.3166 0
M  V30 3373 H 318.335 5.96812 0.627286 0
M  V30 3374 H 319.405 4.84358 -0.229168 0
M  V30 3375 N 320.748 -0.0735177 1.57428 0
M  V30 3376 C 321.681 -1.11932 1.98863 0
M  V30 3377 C 322.659 -1.37666 0.865266 0
M  V30 3378 O 323.843 -1.51068 1.12742 0
M  V30 3379 C 320.97 -2.46403 2.32386 0
M  V30 3380 C 320.016 -2.36815 3.54713 0
M  V30 3381 S 320.849 -1.76392 5.05614 0
M  V30 3382 C 322.005 -3.12444 5.42337 0
M  V30 3383 H 322.238 -0.766212 2.87257 0
M  V30 3384 H 319.771 -0.281987 1.51803 0
M  V30 3385 H 321.729 -3.23755 2.52375 0
M  V30 3386 H 320.39 -2.78876 1.44524 0
M  V30 3387 H 319.583 -3.35977 3.7568 0
M  V30 3388 H 319.185 -1.67598 3.34345 0
M  V30 3389 H 321.477 -4.08753 5.40303 0
M  V30 3390 H 322.42 -2.96258 6.43146 0
M  V30 3391 H 322.828 -3.1297 4.69798 0
M  V30 3392 N 322.226 -1.5378 -0.344866 0
M  V30 3393 C 323.189 -1.80981 -1.40637 0
M  V30 3394 C 324.189 -0.680816 -1.45676 0
M  V30 3395 O 325.379 -0.949095 -1.46075 0
M  V30 3396 C 322.511 -1.95063 -2.79577 0
M  V30 3397 H 323.704 -2.75803 -1.17783 0
M  V30 3398 H 321.257 -1.45173 -0.579181 0
M  V30 3399 H 321.992 -1.02379 -3.07716 0
M  V30 3400 H 321.777 -2.77198 -2.77315 0
M  V30 3401 H 323.267 -2.17629 -3.56409 0
M  V30 3402 N 323.704 0.605807 -1.45491 0
M  V30 3403 C 325.12 0.926751 -1.29936 0
M  V30 3404 C 325.32 1.99896 -0.253706 0
M  V30 3405 O 324.376 2.50038 0.351737 0
M  V30 3406 C 325.689 1.36599 -2.67883 0
M  V30 3407 C 327.237 1.4801 -2.75793 0
M  V30 3408 C 327.712 1.95309 -4.14268 0
M  V30 3409 N 329.203 2.0254 -4.16571 0
M  V30 3410 C 329.938 2.40363 -5.20589 0
M  V30 3411 N 329.434 2.77143 -6.34952 0
M  V30 3412 N 331.227 2.40718 -5.07948 0
M  V30 3413 H 323.378 -0.102862 -2.12151 0
M  V30 3414 H 325.641 0.016639 -0.947854 0
M  V30 3415 H 325.347 0.652306 -3.45598 0
M  V30 3416 H 325.221 2.33215 -2.96463 0
M  V30 3417 H 327.608 2.1847 -1.98381 0
M  V30 3418 H 327.689 0.497041 -2.50925 0
M  V30 3419 H 327.333 1.25436 -4.92167 0
M  V30 3420 H 327.263 2.94532 -4.3653 0
M  V30 3421 H 329.754 1.76699 -3.34045 0
M  V30 3422 H 330.067 3.0489 -7.10114 0
M  V30 3423 H 328.412 2.74834 -6.3835 0
M  V30 3424 H 331.603 2.11392 -4.1765 0
M  V30 3425 H 331.776 2.69869 -5.89131 0
M  V30 3426 N 325.182 1.32811 0.848464 0
M  V30 3427 C 326.112 1.24882 1.97299 0
M  V30 3428 C 327.093 0.131357 1.69592 0
M  V30 3429 O 328.278 0.319553 1.91553 0
M  V30 3430 C 325.408 0.97746 3.33261 0
M  V30 3431 C 324.362 2.05682 3.75338 0
M  V30 3432 C 323.688 1.63777 5.09 0
M  V30 3433 C 324.988 3.47254 3.90144 0
M  V30 3434 H 326.682 2.18966 2.04191 0
M  V30 3435 H 324.228 1.05413 0.981029 0
M  V30 3436 H 326.181 0.908513 4.1149 0
M  V30 3437 H 324.905 0.000980011 3.266 0
M  V30 3438 H 323.564 2.11603 2.99366 0
M  V30 3439 H 323.212 0.648569 4.98801 0
M  V30 3440 H 322.912 2.36 5.38124 0
M  V30 3441 H 324.436 1.5833 5.89715 0
M  V30 3442 H 325.85 3.43888 4.58709 0
M  V30 3443 H 324.247 4.1788 4.30693 0
M  V30 3444 H 325.317 3.86462 2.92874 0
M  V30 3445 N 326.66 -1.06551 1.16123 0
M  V30 3446 C 327.61 -2.12209 0.833736 0
M  V30 3447 C 328.594 -1.59825 -0.185656 0
M  V30 3448 O 329.786 -1.76994 0.0147906 0
M  V30 3449 C 326.915 -3.41674 0.333697 0
M  V30 3450 C 326.001 -4.00892 1.38372 0
M  V30 3451 N 326.392 -4.34256 2.59337 0
M  V30 3452 C 324.69 -4.28463 1.23836 0
M  V30 3453 C 325.391 -4.81291 3.26701 0
M  V30 3454 N 324.367 -4.80565 2.54083 0
M  V30 3455 H 328.169 -2.35849 1.75364 0
M  V30 3456 H 325.683 -1.24068 1.04789 0
M  V30 3457 H 327.68 -4.16822 0.0806918 0
M  V30 3458 H 326.34 -3.19475 -0.58017 0
M  V30 3459 H 327.351 -4.24687 2.96415 0
M  V30 3460 H 324.028 -4.15721 0.38504 0
M  V30 3461 H 325.418 -5.16332 4.29943 0
M  V30 3462 N 328.138 -0.959301 -1.25041 0
M  V30 3463 C 329.387 -0.612254 -1.92183 0
M  V30 3464 C 329.7 0.855347 -1.75907 0
M  V30 3465 O 330.906 1.31256 -2.37664 0
M  V30 3466 C 329.362 -1.04435 -3.44414 0
M  V30 3467 C 328.97 -2.53482 -3.69393 0
M  V30 3468 C 330.714 -0.770055 -4.17457 0
M  V30 3469 C 328.621 -2.90468 -5.15153 0
M  V30 3470 H 327.551 -0.225279 -0.719559 0
M  V30 3471 H 330.202 -1.16438 -1.41825 0
M  V30 3472 H 328.584 -0.4206 -3.9376 0
M  V30 3473 H 329.758 -3.20916 -3.30681 0
M  V30 3474 H 328.073 -2.78432 -3.0962 0
M  V30 3475 H 330.67 -1.02249 -5.24832 0
M  V30 3476 H 331.013 0.293611 -4.15263 0
M  V30 3477 H 331.546 -1.35437 -3.74034 0
M  V30 3478 H 328.285 -3.95871 -5.22462 0
M  V30 3479 H 327.805 -2.27711 -5.54894 0
M  V30 3480 H 329.484 -2.79914 -5.83315 0
M  V30 3481 N 329.616 1.39756 -0.72842 0
M  V30 3482 C 330.563 2.30647 -0.0841519 0
M  V30 3483 C 331.533 1.48869 0.7367 0
M  V30 3484 O 332.718 1.77574 0.698015 0
M  V30 3485 C 329.858 3.35165 0.822091 0
M  V30 3486 C 328.971 4.31999 -0.0106663 0
M  V30 3487 C 328.106 5.23585 0.896241 0
M  V30 3488 C 327.145 6.12072 0.0583381 0
M  V30 3489 N 326.282 6.96035 0.920818 0
M  V30 3490 H 331.122 2.85173 -0.864891 0
M  V30 3491 H 328.659 1.40422 -0.438179 0
M  V30 3492 H 330.617 3.94345 1.36189 0
M  V30 3493 H 329.247 2.8211 1.56888 0
M  V30 3494 H 328.299 3.74492 -0.66781 0
M  V30 3495 H 329.611 4.9443 -0.658825 0
M  V30 3496 H 328.765 5.87759 1.50412 0
M  V30 3497 H 327.504 4.61459 1.57819 0
M  V30 3498 H 326.509 5.46916 -0.562389 0
M  V30 3499 H 327.734 6.76261 -0.6203 0
M  V30 3500 H 325.68 6.36485 1.58818 0
M  V30 3501 H 325.597 7.55284 0.32899 0
M  V30 3502 H 326.865 7.64646 1.51447 0
M  V30 3503 N 331.094 0.475555 1.50254 0
M  V30 3504 C 332.51 0.12997 1.5907 0
M  V30 3505 C 332.71 -1.36385 1.48328 0
M  V30 3506 O 331.766 -2.13754 1.34407 0
M  V30 3507 C 333.079 0.684139 2.92814 0
M  V30 3508 C 334.627 0.647965 3.0622 0
M  V30 3509 C 335.102 1.17975 4.42545 0
M  V30 3510 N 336.593 1.13936 4.48969 0
M  V30 3511 C 337.328 1.52129 5.52851 0
M  V30 3512 N 336.824 1.97793 6.63965 0
M  V30 3513 N 338.617 1.43704 5.4342 0
M  V30 3514 H 330.768 1.44706 1.55479 0
M  V30 3515 H 333.031 0.598691 0.735033 0
M  V30 3516 H 332.737 1.73079 3.06164 0
M  V30 3517 H 332.611 0.130204 3.76975 0
M  V30 3518 H 334.998 -0.38979 2.92514 0
M  V30 3519 H 335.079 1.23876 2.23805 0
M  V30 3520 H 334.723 2.21616 4.57 0
M  V30 3521 H 334.653 0.565138 5.23559 0
M  V30 3522 H 337.144 0.804488 3.69238 0
M  V30 3523 H 337.457 2.25072 7.39299 0
M  V30 3524 H 335.802 2.01749 6.65073 0
M  V30 3525 H 338.993 1.07867 4.55502 0
M  V30 3526 H 339.166 1.73794 6.24259 0
M  V30 3527 N 332.573 -1.56217 0.208337 0
M  V30 3528 C 333.822 -1.97124 -0.427204 0
M  V30 3529 C 334.135 -1.09859 -1.61835 0
M  V30 3530 O 335.341 -1.40606 -2.32255 0
M  V30 3531 C 333.797 -3.50633 -0.811442 0
M  V30 3532 C 333.405 -4.46582 0.35615 0
M  V30 3533 C 335.149 -4.00282 -1.41332 0
M  V30 3534 C 333.056 -5.91379 -0.0497852 0
M  V30 3535 H 331.986 -0.736086 -0.163381 0
M  V30 3536 H 334.637 -1.8099 0.302456 0
M  V30 3537 H 333.019 -3.62319 -1.59815 0
M  V30 3538 H 334.193 -4.46636 1.1337 0
M  V30 3539 H 332.508 -4.07202 0.870396 0
M  V30 3540 H 335.105 -5.0595 -1.72972 0
M  V30 3541 H 335.448 -3.45359 -2.32449 0
M  V30 3542 H 335.981 -3.91764 -0.690323 0
M  V30 3543 H 332.72 -6.50255 0.827529 0
M  V30 3544 H 332.24 -5.94549 -0.791926 0
M  V30 3545 H 333.919 -6.45209 -0.481042 0
M  V30 3546 N 334.051 0.0651679 -1.57465 0
M  V30 3547 C 335.014 1.06117 -2.03155 0
M  V30 3548 C 336.014 1.31204 -0.929632 0
M  V30 3549 O 337.204 1.26813 -1.19432 0
M  V30 3550 C 334.336 2.4032 -2.41783 0
M  V30 3551 H 335.529 0.667231 -2.92383 0
M  V30 3552 H 333.082 0.311075 -1.53173 0
M  V30 3553 H 333.817 2.84532 -1.55601 0
M  V30 3554 H 333.602 2.23451 -3.22199 0
M  V30 3555 H 335.092 3.11898 -2.77685 0
M  V30 3556 N 335.529 1.53961 0.336706 0
M  V30 3557 C 336.775 1.7179 1.07777 0
M  V30 3558 C 337.108 0.483263 1.88091 0
M  V30 3559 O 336.383 -0.519747 1.87427 0
M  V30 3560 C 336.666 2.98558 2.01334 0
M  V30 3561 C 336.519 4.32245 1.24437 0
M  V30 3562 C 337.838 3.21023 3.01052 0
M  V30 3563 H 334.957 0.625089 0.390426 0
M  V30 3564 H 337.599 1.86641 0.35567 0
M  V30 3565 H 335.749 2.86028 2.62908 0
M  V30 3566 H 337.421 4.56637 0.654243 0
M  V30 3567 H 335.664 4.30344 0.546458 0
M  V30 3568 H 336.335 5.17137 1.93063 0
M  V30 3569 H 338.811 3.32929 2.49595 0
M  V30 3570 H 337.687 4.11104 3.6371 0
M  V30 3571 H 337.948 2.37637 3.72802 0
M  V30 3572 N 337.007 -0.598083 1.45811 0
M  V30 3573 C 337.937 -1.71873 1.58057 0
M  V30 3574 C 338.918 -1.64533 0.431615 0
M  V30 3575 O 340.103 -1.82787 0.65595 0
M  V30 3576 C 337.233 -3.10495 1.55597 0
M  V30 3577 C 336.187 -3.32654 2.69305 0
M  V30 3578 C 335.513 -4.71646 2.51902 0
M  V30 3579 C 336.813 -3.21981 4.11248 0
M  V30 3580 H 338.507 -1.61881 2.51863 0
M  V30 3581 H 336.053 -0.777372 1.21214 0
M  V30 3582 H 338.006 -3.88699 1.6276 0
M  V30 3583 H 336.73 -3.2135 0.583255 0
M  V30 3584 H 335.389 -2.56843 2.61586 0
M  V30 3585 H 335.037 -4.79246 1.52748 0
M  V30 3586 H 334.737 -4.87426 3.2816 0
M  V30 3587 H 336.261 -5.52038 2.60933 0
M  V30 3588 H 337.675 -3.90049 4.20161 0
M  V30 3589 H 336.072 -3.49289 4.87972 0
M  V30 3590 H 337.142 -2.1928 4.32486 0
M  V30 3591 N 338.485 -1.33259 -0.841409 0
M  V30 3592 C 339.896 -1.22066 -1.41269 0
M  V30 3593 C 340.247 0.161479 -1.95534 0
M  V30 3594 O 339.372 1.06094 -1.88608 0
M  V30 3595 C 339.967 -2.20996 -2.568 0
M  V30 3596 C 338.526 -2.13649 -3.09888 0
M  V30 3597 C 337.673 -2.08623 -1.82679 0
M  V30 3598 H 340.624 -1.44895 -0.647395 0
M  V30 3599 H 340.645 -1.81621 -3.34356 0
M  V30 3600 H 340.157 -3.2158 -2.17274 0
M  V30 3601 H 338.258 -1.16359 -3.53965 0
M  V30 3602 H 338.371 -3.04079 -3.70234 0
M  V30 3603 H 336.735 -1.54061 -2.02824 0
M  V30 3604 H 337.518 -3.1101 -1.45353 0
M  V30 3605 N 339.963 1.05934 -1.16686 0
M  V30 3606 C 341.211 1.78447 -0.948744 0
M  V30 3607 C 341.532 1.87813 0.524523 0
M  V30 3608 O 340.802 1.38945 1.38098 0
M  V30 3609 H 339.382 0.660971 -0.348033 0
M  V30 3610 H 342.044 1.27947 -1.47022 0
M  V30 3611 H 341.14 2.80394 -1.37061 0
M  V30 3612 N 341.441 0.965919 1.2453 0
M  V30 3613 C 342.669 0.644385 1.96609 0
M  V30 3614 C 343.084 -0.785823 1.71669 0
M  V30 3615 O 342.441 -1.52703 0.999399 0
M  V30 3616 C 342.492 0.907375 3.49927 0
M  V30 3617 O 342.213 2.28136 3.74013 0
M  V30 3618 C 343.714 0.599784 4.39224 0
M  V30 3619 H 340.934 0.240588 0.626385 0
M  V30 3620 H 343.478 1.29337 1.58405 0
M  V30 3621 H 341.633 0.304631 3.862 0
M  V30 3622 H 342.047 2.36002 4.68405 0
M  V30 3623 H 343.521 0.834263 5.45659 0
M  V30 3624 H 343.998 -0.465921 4.36722 0
M  V30 3625 H 344.604 1.18235 4.08535 0
M  V30 3626 N 342.919 -1.39368 0.735821 0
M  V30 3627 C 344.167 -2.00101 0.283562 0
M  V30 3628 C 344.488 -1.5868 -1.13338 0
M  V30 3629 O 343.758 -0.835423 -1.77193 0
M  V30 3630 H 342.338 -0.740024 0.101851 0
M  V30 3631 H 345 -1.70404 0.945962 0
M  V30 3632 H 344.096 -3.10323 0.332604 0
M  V30 3633 N 344.397 -0.483516 -1.5 0
M  V30 3634 C 345.36 0.292965 -2.2732 0
M  V30 3635 C 346.36 0.909499 -1.32608 0
M  V30 3636 O 347.55 0.776745 -1.55924 0
M  V30 3637 C 344.682 1.41854 -3.09984 0
M  V30 3638 H 345.875 -0.385289 -2.97415 0
M  V30 3639 H 343.428 -0.237942 -1.54478 0
M  V30 3640 H 344.163 2.13148 -2.44414 0
M  V30 3641 H 343.948 0.982114 -3.79601 0
M  V30 3642 H 345.438 1.96597 -3.68429 0
M  V30 3643 N 345.875 1.56104 -0.216619 0
M  V30 3644 C 347.124 1.97348 0.416744 0
M  V30 3645 C 347.437 1.10715 1.6125 0
M  V30 3646 O 348.643 1.41836 2.31506 0
M  V30 3647 C 347.099 3.51059 0.792835 0
M  V30 3648 C 346.707 4.46387 -0.379828 0
M  V30 3649 C 348.451 4.01026 1.39208 0
M  V30 3650 C 346.358 5.91397 0.0184223 0
M  V30 3651 H 345.288 0.736942 0.159475 0
M  V30 3652 H 347.939 1.80827 -0.31205 0
M  V30 3653 H 346.321 3.63162 1.57891 0
M  V30 3654 H 347.495 4.46029 -1.15737 0
M  V30 3655 H 345.81 4.06734 -0.891979 0
M  V30 3656 H 348.407 5.0686 1.70286 0
M  V30 3657 H 348.75 3.46587 2.30614 0
M  V30 3658 H 349.283 3.92125 0.669537 0
M  V30 3659 H 346.022 6.49807 -0.862002 0
M  V30 3660 H 345.542 5.94961 0.760384 0
M  V30 3661 H 347.221 6.45455 0.446818 0
M  V30 3662 N 347.353 -0.0568162 1.57498 0
M  V30 3663 C 348.769 -0.411933 1.54192 0
M  V30 3664 C 348.969 -1.78287 0.938942 0
M  V30 3665 O 348.025 -2.46483 0.547919 0
M  V30 3666 C 349.338 -0.339244 2.9878 0
M  V30 3667 C 350.886 -0.418348 3.10192 0
M  V30 3668 C 351.361 -0.375407 4.56459 0
M  V30 3669 N 352.852 -0.435038 4.61153 0
M  V30 3670 C 353.587 -0.424265 5.71828 0
M  V30 3671 N 353.083 -0.367418 6.91825 0
M  V30 3672 N 354.876 -0.471938 5.60115 0
M  V30 3673 H 347.027 0.840684 1.95055 0
M  V30 3674 H 349.29 0.316987 0.893433 0
M  V30 3675 H 348.996 0.601742 3.46514 0
M  V30 3676 H 348.87 -1.14371 3.59443 0
M  V30 3677 H 351.257 -1.34976 2.62422 0
M  V30 3678 H 351.338 0.414962 2.52412 0
M  V30 3679 H 350.982 0.552219 5.04889 0
M  V30 3680 H 350.912 -1.22645 5.12119 0
M  V30 3681 H 353.403 -0.482612 3.74806 0
M  V30 3682 H 353.716 -0.363535 7.71944 0
M  V30 3683 H 352.061 -0.333879 6.94198 0
M  V30 3684 H 355.252 -0.514145 4.65268 0
M  V30 3685 H 355.425 -0.460073 6.46365 0
M  V30 3686 N 348.832 -1.54138 -0.328536 0
M  V30 3687 C 349.764 -1.79509 -1.4251 0
M  V30 3688 C 350.777 -0.67688 -1.48061 0
M  V30 3689 O 351.966 -0.953898 -1.50874 0
M  V30 3690 C 349.066 -1.89337 -2.81078 0
M  V30 3691 C 348.239 -3.19443 -2.98789 0
M  V30 3692 C 347.298 -3.20036 -4.17688 0
M  V30 3693 O 346.324 -3.93697 -4.11086 0
M  V30 3694 N 347.526 -2.43467 -5.26976 0
M  V30 3695 H 350.291 -2.74139 -1.21111 0
M  V30 3696 H 347.852 -1.53373 -0.518499 0
M  V30 3697 H 349.844 -1.87167 -3.58818 0
M  V30 3698 H 348.414 -1.01826 -2.95551 0
M  V30 3699 H 347.634 -3.34614 -2.08391 0
M  V30 3700 H 348.922 -4.05354 -3.07515 0
M  V30 3701 H 348.32 -1.83201 -5.35214 0
M  V30 3702 H 346.877 -2.4708 -6.03154 0
M  V30 3703 N 350.31 0.590341 -1.46126 0
M  V30 3704 C 351.558 1.34616 -1.50742 0
M  V30 3705 C 351.879 1.94363 -0.157486 0
M  V30 3706 O 351.149 1.78136 0.815136 0
M  V30 3707 H 349.729 0.499789 -0.555175 0
M  V30 3708 H 352.391 0.691953 -1.82203 0
M  V30 3709 H 351.487 2.15678 -2.25587 0
M  V30 3710 N 351.788 1.33704 0.83433 0
M  V30 3711 C 352.751 1.24244 1.92603 0
M  V30 3712 C 353.751 0.160383 1.59998 0
M  V30 3713 O 354.941 0.412228 1.69252 0
M  V30 3714 C 352.073 0.91555 3.28376 0
M  V30 3715 H 353.266 2.21287 2.02416 0
M  V30 3716 H 350.819 1.17827 1.02696 0
M  V30 3717 H 351.554 -0.0521886 3.24258 0
M  V30 3718 H 351.339 1.69811 3.53422 0
M  V30 3719 H 352.829 0.874231 4.08347 0
M  V30 3720 N 353.266 -1.05314 1.17247 0
M  V30 3721 C 354.214 -2.15137 0.884238 0
M  V30 3722 C 355.208 -1.68729 -0.15063 0
M  V30 3723 O 356.414 -1.8 -0.00366673 0
M  V30 3724 H 352.789 -0.702471 0.2684 0
M  V30 3725 H 354.76 -2.36652 1.81764 0
M  V30 3726 C 353.509 -3.45243 0.412659 0
M  V30 3727 H 352.832 -3.81352 1.20043 0
M  V30 3728 H 354.272 -4.23263 0.249858 0
M  V30 3729 C 352.731 -3.25487 -0.86948 0
M  V30 3730 O 353.261 -3.51938 -1.93655 0
M  V30 3731 N 351.467 -2.78875 -0.817147 0
M  V30 3732 H 351.014 -2.57549 0.0514211 0
M  V30 3733 H 350.972 -2.66036 -1.67547 0
M  V30 3734 N 354.744 -0.972509 -1.24016 0
M  V30 3735 C 355.677 -0.45117 -2.23696 0
M  V30 3736 C 356.655 0.477378 -1.55434 0
M  V30 3737 O 357.839 0.407647 -1.84039 0
M  V30 3738 C 354.966 0.34818 -3.36906 0
M  V30 3739 C 354.012 -0.523355 -4.23277 0
M  V30 3740 S 354.845 -1.96647 -4.98087 0
M  V30 3741 C 356.001 -1.17604 -6.14752 0
M  V30 3742 H 356.234 -1.29588 -2.67571 0
M  V30 3743 H 353.767 -0.777903 -1.33372 0
M  V30 3744 H 355.725 0.803387 -4.02562 0
M  V30 3745 H 354.386 1.16792 -2.91579 0
M  V30 3746 H 353.579 0.0906181 -5.03919 0
M  V30 3747 H 353.181 -0.914485 -3.62647 0
M  V30 3748 H 355.473 -0.433434 -6.76112 0
M  V30 3749 H 356.416 -1.95701 -6.8052 0
M  V30 3750 H 356.824 -0.698295 -5.60164 0
M  V30 3751 N 356.222 1.38976 -0.743202 0
M  V30 3752 C 357.169 2.30544 -0.10861 0
M  V30 3753 C 358.139 1.49642 0.720869 0
M  V30 3754 O 359.324 1.78304 0.679142 0
M  V30 3755 C 356.464 3.36018 0.786496 0
M  V30 3756 C 355.577 4.31963 -0.0564849 0
M  V30 3757 C 354.712 5.24506 0.840657 0
M  V30 3758 C 353.751 6.121 -0.00658363 0
M  V30 3759 N 352.888 6.96973 0.846943 0
M  V30 3760 H 357.728 2.8424 -0.895088 0
M  V30 3761 H 355.265 1.3995 -0.453048 0
M  V30 3762 H 357.223 3.95768 1.31999 0
M  V30 3763 H 355.853 2.83758 1.53887 0
M  V30 3764 H 354.905 3.73763 -0.707492 0
M  V30 3765 H 356.217 4.93703 -0.711229 0
M  V30 3766 H 355.371 5.89322 1.4417 0
M  V30 3767 H 354.11 4.63107 1.52916 0
M  V30 3768 H 353.115 5.46289 -0.620366 0
M  V30 3769 H 354.34 6.75565 -0.691992 0
M  V30 3770 H 352.286 6.38133 1.52059 0
M  V30 3771 H 352.203 7.5559 0.248864 0
M  V30 3772 H 353.471 7.6621 1.43328 0
M  V30 3773 N 357.7 0.491464 1.49741 0
M  V30 3774 C 358.948 -0.0563141 2.02022 0
M  V30 3775 C 359.269 -1.38363 1.37407 0
M  V30 3776 O 358.539 -1.88702 0.526166 0
M  V30 3777 H 357.119 -0.0238014 0.746621 0
M  V30 3778 H 359.781 0.646533 1.83864 0
M  V30 3779 H 358.877 -0.192967 3.11503 0
M  V30 3780 N 359.178 -1.55987 0.224894 0
M  V30 3781 C 360.141 -2.19178 -0.670348 0
M  V30 3782 C 361.141 -1.15461 -1.11917 0
M  V30 3783 O 362.331 -1.40675 -1.02743 0
M  V30 3784 C 359.463 -2.81777 -1.9187 0
M  V30 3785 H 360.656 -2.99662 -0.119364 0
M  V30 3786 H 358.209 -1.5628 -0.0247128 0
M  V30 3787 H 358.944 -2.05172 -2.51147 0
M  V30 3788 H 358.729 -3.57732 -1.60531 0
M  V30 3789 H 360.219 -3.30205 -2.55645 0
M  V30 3790 N 360.656 0.0484629 -1.57525 0
M  V30 3791 C 361.905 0.742065 -1.87553 0
M  V30 3792 C 362.218 1.77545 -0.820802 0
M  V30 3793 O 363.424 2.52027 -1.00967 0
M  V30 3794 C 361.88 1.37081 -3.32771 0
M  V30 3795 C 361.488 0.374786 -4.4643 0
M  V30 3796 C 363.232 2.04542 -3.71972 0
M  V30 3797 C 361.139 1.01077 -5.82698 0
M  V30 3798 H 360.069 0.280903 -0.699721 0
M  V30 3799 H 362.72 -0.00411877 -1.835 0
M  V30 3800 H 361.102 2.16605 -3.31509 0
M  V30 3801 H 362.276 -0.392331 -4.59127 0
M  V30 3802 H 360.591 -0.196653 -4.15935 0
M  V30 3803 H 363.188 2.52943 -4.71088 0
M  V30 3804 H 363.531 2.85515 -3.02964 0
M  V30 3805 H 364.064 1.31819 -3.75325 0
M  V30 3806 H 360.803 0.240878 -6.55057 0
M  V30 3807 H 360.323 1.74819 -5.73758 0
M  V30 3808 H 362.002 1.52383 -6.28799 0
M  V30 3809 N 362.134 1.5431 0.320358 0
M  V30 3810 C 363.362 1.76636 1.07738 0
M  V30 3811 C 363.777 0.51649 1.81598 0
M  V30 3812 O 363.134 -0.512942 1.75143 0
M  V30 3813 C 363.185 2.96158 2.07299 0
M  V30 3814 O 362.906 4.16313 1.36438 0
M  V30 3815 C 364.407 3.3072 2.95193 0
M  V30 3816 H 361.627 0.589597 0.320339 0
M  V30 3817 H 364.171 2.01207 0.36551 0
M  V30 3818 H 362.326 2.73851 2.74016 0
M  V30 3819 H 362.74 4.83565 2.03138 0
M  V30 3820 H 364.214 4.17643 3.60941 0
M  V30 3821 H 364.691 2.48026 3.62463 0
M  V30 3822 H 365.297 3.55117 2.34034 0
M  V30 3823 N 363.613 -0.582584 1.46437 0
M  V30 3824 C 364.543 -1.70187 1.59871 0
M  V30 3825 C 365.524 -1.64066 0.449042 0
M  V30 3826 O 366.709 -1.82081 0.6753 0
M  V30 3827 C 363.839 -3.08827 1.58881 0
M  V30 3828 C 362.793 -3.29779 2.72819 0
M  V30 3829 C 362.119 -4.68947 2.5689 0
M  V30 3830 C 363.419 -3.17601 4.1464 0
M  V30 3831 H 365.113 -1.592 2.53566 0
M  V30 3832 H 362.659 -0.764472 1.22032 0
M  V30 3833 H 364.612 -3.86951 1.66873 0
M  V30 3834 H 363.336 -3.20713 0.617306 0
M  V30 3835 H 361.995 -2.54054 2.64296 0
M  V30 3836 H 361.643 -4.77599 1.57823 0
M  V30 3837 H 361.343 -4.83919 3.33312 0
M  V30 3838 H 362.867 -5.4924 2.66773 0
M  V30 3839 H 364.281 -3.8557 4.24274 0
M  V30 3840 H 362.678 -3.44094 4.9165 0
M  V30 3841 H 363.748 -2.14681 4.34788 0
M  V30 3842 N 365.091 -1.34144 -0.827227 0
M  V30 3843 C 366.319 -1.29325 -1.61501 0
M  V30 3844 C 366.734 0.13354 -1.88327 0
M  V30 3845 O 366.091 1.0793 -1.47164 0
M  V30 3846 C 366.142 -2.07746 -2.95844 0
M  V30 3847 O 365.863 -3.4486 -2.70191 0
M  V30 3848 C 367.364 -2.10273 -3.90256 0
M  V30 3849 H 364.584 -0.445069 -0.50215 0
M  V30 3850 H 367.128 -1.76693 -1.02955 0
M  V30 3851 H 365.283 -1.6403 -3.5096 0
M  V30 3852 H 365.697 -3.85345 -3.55822 0
M  V30 3853 H 367.171 -2.69575 -4.81698 0
M  V30 3854 H 367.648 -1.096 -4.25305 0
M  V30 3855 H 368.254 -2.54059 -3.41078 0
M  V30 3856 N 366.569 1.04691 -1.17803 0
M  V30 3857 C 367.818 1.77176 -0.963931 0
M  V30 3858 C 368.131 1.88888 0.508015 0
M  V30 3859 O 369.337 2.58164 0.840465 0
M  V30 3860 C 367.793 3.18518 -1.67555 0
M  V30 3861 C 367.401 3.14919 -3.18637 0
M  V30 3862 C 369.145 3.95424 -1.54402 0
M  V30 3863 C 367.052 4.51081 -3.82466 0
M  V30 3864 H 365.982 0.664116 -0.357023 0
M  V30 3865 H 368.633 1.17303 -1.4111 0
M  V30 3866 H 367.015 3.78748 -1.15613 0
M  V30 3867 H 368.189 2.64178 -3.77554 0
M  V30 3868 H 366.504 2.51512 -3.31859 0
M  V30 3869 H 369.101 4.96106 -1.99456 0
M  V30 3870 H 369.444 4.13343 -0.495329 0
M  V30 3871 H 369.977 3.41754 -2.0359 0
M  V30 3872 H 366.716 4.38368 -4.87354 0
M  V30 3873 H 366.236 5.01951 -3.28337 0
M  V30 3874 H 367.915 5.2001 -3.84965 0
M  V30 3875 N 368.047 0.979072 1.23499 0
M  V30 3876 C 368.977 0.537606 2.27227 0
M  V30 3877 C 369.958 -0.428539 1.64613 0
M  V30 3878 O 371.143 -0.322191 1.91509 0
M  V30 3879 C 368.273 -0.162052 3.46922 0
M  V30 3880 C 367.227 0.721242 4.21879 0
M  V30 3881 C 366.553 -0.110555 5.34586 0
M  V30 3882 C 367.853 2.01141 4.82016 0
M  V30 3883 H 369.547 1.40462 2.64406 0
M  V30 3884 H 367.093 0.67684 1.27102 0
M  V30 3885 H 369.046 -0.482192 4.18632 0
M  V30 3886 H 367.77 -1.06351 3.08799 0
M  V30 3887 H 366.429 1.02482 3.51984 0
M  V30 3888 H 366.077 -1.0125 4.92704 0
M  V30 3889 H 365.777 0.477325 5.85658 0
M  V30 3890 H 367.301 -0.425107 6.09118 0
M  V30 3891 H 368.715 1.75612 5.45741 0
M  V30 3892 H 367.112 2.54695 5.43369 0
M  V30 3893 H 368.182 2.69909 4.02836 0
M  V30 3894 N 369.525 -1.3858 0.750561 0
M  V30 3895 C 370.774 -1.99424 0.302172 0
M  V30 3896 C 371.087 -1.60254 -1.12152 0
M  V30 3897 O 372.293 -2.14046 -1.67023 0
M  V30 3898 C 370.749 -3.56558 0.489307 0
M  V30 3899 C 370.357 -4.04682 1.92189 0
M  V30 3900 C 372.101 -4.24374 0.103478 0
M  V30 3901 C 370.008 -5.54446 2.05775 0
M  V30 3902 H 368.938 -0.746046 0.10923 0
M  V30 3903 H 371.589 -1.58383 0.92667 0
M  V30 3904 H 369.971 -3.95472 -0.204329 0
M  V30 3905 H 371.145 -3.77065 2.64875 0
M  V30 3906 H 369.46 -3.4958 2.26236 0
M  V30 3907 H 372.057 -5.34384 0.183787 0
M  V30 3908 H 372.4 -4.05468 -0.943481 0
M  V30 3909 H 372.933 -3.90688 0.748854 0
M  V30 3910 H 369.672 -5.78252 3.08714 0
M  V30 3911 H 369.192 -5.83816 1.37546 0
M  V30 3912 H 370.871 -6.20099 1.84626 0
M  V30 3913 N 371.003 -0.499398 -1.49478 0
M  V30 3914 C 372.251 0.0455996 -2.02049 0
M  V30 3915 C 372.572 1.37633 -1.38138 0
M  V30 3916 O 371.842 1.8842 -0.536166 0
M  V30 3917 H 370.422 0.0198416 -0.746736 0
M  V30 3918 H 373.084 -0.656274 -1.83519 0
M  V30 3919 H 372.18 0.176445 -3.11601 0
M  V30 3920 N 372.481 1.55866 -0.233164 0
M  V30 3921 C 373.727 1.98897 0.395959 0
M  V30 3922 C 374.06 1.12091 1.58585 0
M  V30 3923 O 373.335 0.181182 1.93654 0
M  V30 3924 C 373.618 3.50658 0.819224 0
M  V30 3925 C 373.471 4.48233 -0.375109 0
M  V30 3926 C 374.79 4.07135 1.67121 0
M  V30 3927 H 371.909 0.723102 0.142451 0
M  V30 3928 H 374.551 1.87082 -0.331725 0
M  V30 3929 H 372.701 3.60857 1.43925 0
M  V30 3930 H 374.373 4.50031 -1.01341 0
M  V30 3931 H 372.616 4.21624 -1.02058 0
M  V30 3932 H 373.287 5.51988 -0.0358328 0
M  V30 3933 H 375.763 3.99952 1.14795 0
M  V30 3934 H 374.639 5.13615 1.93625 0
M  V30 3935 H 374.9 3.54736 2.63846 0
M  V30 3936 N 373.959 -0.0401083 1.57549 0
M  V30 3937 C 375.206 -0.733125 1.88763 0
M  V30 3938 C 375.534 -1.75946 0.829058 0
M  V30 3939 O 374.789 -1.94949 -0.171323 0
M  V30 3940 C 375.088 -1.44902 3.26708 0
M  V30 3941 C 374.754 -0.559707 4.47413 0
M  V30 3942 C 373.416 -0.314731 4.8017 0
M  V30 3943 C 375.768 0.0549743 5.21171 0
M  V30 3944 C 373.096 0.553886 5.8408 0
M  V30 3945 C 375.448 0.911229 6.26003 0
M  V30 3946 C 374.112 1.16577 6.57241 0
M  V30 3947 H 373.382 -0.268269 0.690733 0
M  V30 3948 H 376.029 0.00679408 1.91499 0
M  V30 3949 H 374.334 -2.26197 3.1991 0
M  V30 3950 H 376.031 -1.99058 3.48105 0
M  V30 3951 H 372.621 -0.760793 4.21794 0
M  V30 3952 H 376.805 -0.121344 4.96152 0
M  V30 3953 H 372.061 0.759518 6.06664 0
M  V30 3954 H 376.235 1.3941 6.82303 0
M  V30 3955 H 373.862 1.84058 7.37582 0
M  V30 3956 N 375.437 -1.54477 -0.31217 0
M  V30 3957 C 376.683 -1.73483 -1.0503 0
M  V30 3958 C 377.016 -0.513125 -1.87298 0
M  V30 3959 O 376.291 0.489864 -1.8823 0
M  V30 3960 C 376.574 -3.01723 -1.96558 0
M  V30 3961 C 376.427 -4.3417 -1.17545 0
M  V30 3962 C 377.746 -3.25772 -2.95907 0
M  V30 3963 H 374.865 -0.631222 -0.380432 0
M  V30 3964 H 377.507 -1.87184 -0.325932 0
M  V30 3965 H 375.657 -2.90174 -2.58324 0
M  V30 3966 H 377.329 -4.5762 -0.581513 0
M  V30 3967 H 375.572 -4.31159 -0.477925 0
M  V30 3968 H 376.243 -5.20143 -1.84811 0
M  V30 3969 H 378.719 -3.36857 -2.44267 0
M  V30 3970 H 377.595 -4.16838 -3.57123 0
M  V30 3971 H 377.856 -2.43537 -3.68974 0
M  V30 3972 N 376.915 0.57481 -1.46744 0
M  V30 3973 C 378.161 1.3347 -1.52688 0
M  V30 3974 C 378.494 1.93353 -0.181229 0
M  V30 3975 O 377.769 1.76912 0.808237 0
M  V30 3976 C 378.052 2.45811 -2.63152 0
M  V30 3977 C 377.905 1.90912 -4.07275 0
M  V30 3978 C 379.224 3.47822 -2.69644 0
M  V30 3979 H 376.343 0.483935 -0.555856 0
M  V30 3980 H 378.985 0.644968 -1.78718 0
M  V30 3981 H 377.135 3.04646 -2.41088 0
M  V30 3982 H 378.807 1.36473 -4.4065 0
M  V30 3983 H 377.05 1.21691 -4.16382 0
M  V30 3984 H 377.721 2.72042 -4.80309 0
M  V30 3985 H 380.197 2.9888 -2.895 0
M  V30 3986 H 379.073 4.23876 -3.48742 0
M  V30 3987 H 379.334 4.05555 -1.76005 0
M  V30 3988 N 378.394 1.34581 0.820102 0
M  V30 3989 C 379.634 1.28448 1.58998 0
M  V30 3990 C 379.998 -0.142883 1.91468 0
M  V30 3991 O 381.199 -0.328422 2.66786 0
M  V30 3992 C 379.47 2.153 2.85273 0
M  V30 3993 S 381.029 2.26548 3.75794 0
M  V30 3994 H 377.847 0.456685 0.54494 0
M  V30 3995 H 380.449 1.69825 0.968487 0
M  V30 3996 H 379.153 3.18008 2.59421 0
M  V30 3997 H 378.684 1.7483 3.52417 0
M  V30 3998 H 380.699 1.44034 4.74835 0
M  V30 3999 N 379.872 -1.04064 1.18357 0
M  V30 4000 C 381.118 -1.77658 0.990412 0
M  V30 4001 C 381.473 -1.86446 -0.474944 0
M  V30 4002 O 380.766 -1.36153 -1.34807 0
M  V30 4003 C 380.96 -3.20634 1.57888 0
M  V30 4004 C 380.789 -3.25782 3.09994 0
M  V30 4005 C 379.559 -3.34411 3.7881 0
M  V30 4006 C 381.757 -3.13791 4.0748 0
M  V30 4007 N 379.739 -3.28809 5.18418 0
M  V30 4008 C 381.11 -3.15689 5.33611 0
M  V30 4009 C 383.165 -2.97833 3.98998 0
M  V30 4010 C 381.868 -3.03268 6.52243 0
M  V30 4011 C 383.894 -2.86759 5.17227 0
M  V30 4012 C 383.256 -2.893 6.4225 0
M  V30 4013 H 379.355 -0.661901 0.416427 0
M  V30 4014 H 381.939 -1.23968 1.50133 0
M  V30 4015 H 380.11 -3.7267 1.09414 0
M  V30 4016 H 381.842 -3.82525 1.32124 0
M  V30 4017 H 378.597 -3.40144 3.29543 0
M  V30 4018 H 379.021 -3.29448 5.91433 0
M  V30 4019 H 383.663 -2.94698 3.03171 0
M  V30 4020 H 381.381 -3.05156 7.48268 0
M  V30 4021 H 384.967 -2.75465 5.12455 0
M  V30 4022 H 383.847 -2.80818 7.32196 0
M  V30 4023 N 381.35 -0.985608 -1.22978 0
M  V30 4024 C 382.313 -0.535071 -2.22867 0
M  V30 4025 C 383.313 0.378123 -1.56291 0
M  V30 4026 O 384.503 0.171092 -1.73358 0
M  V30 4027 C 381.635 0.222702 -3.40172 0
M  V30 4028 H 382.828 -1.41835 -2.6424 0
M  V30 4029 H 380.381 -0.772042 -1.35901 0
M  V30 4030 H 381.116 1.12229 -3.04262 0
M  V30 4031 H 380.901 -0.43288 -3.89703 0
M  V30 4032 H 382.391 0.526335 -4.1427 0
M  V30 4033 N 382.828 1.3818 -0.7579 0
M  V30 4034 C 384.239 1.82726 -0.383134 0
M  V30 4035 C 384.59 1.63214 1.08884 0
M  V30 4036 O 383.715 1.13566 1.84205 0
M  V30 4037 C 384.31 3.31728 -0.688631 0
M  V30 4038 C 382.869 3.74606 -0.367091 0
M  V30 4039 C 382.016 2.60896 -0.939599 0
M  V30 4040 H 384.967 1.26847 -0.953699 0
M  V30 4041 H 384.988 3.80487 0.0316492 0
M  V30 4042 H 384.5 3.45898 -1.76001 0
M  V30 4043 H 382.601 3.66013 0.697532 0
M  V30 4044 H 382.714 4.71215 -0.865658 0
M  V30 4045 H 381.078 2.52075 -0.3647 0
M  V30 4046 H 381.861 2.77864 -2.0161 0
M  V30 4047 N 384.306 0.507319 1.49211 0
M  V30 4048 C 385.553 -0.0349529 2.0247 0
M  V30 4049 C 385.881 -1.36409 1.38647 0
M  V30 4050 O 385.136 -1.88841 0.513566 0
M  V30 4051 C 385.435 -0.229513 3.56662 0
M  V30 4052 C 385.101 1.02241 4.39156 0
M  V30 4053 C 383.763 1.36557 4.61417 0
M  V30 4054 C 386.115 1.85428 4.871 0
M  V30 4055 C 383.443 2.53999 5.28868 0
M  V30 4056 C 385.795 3.02028 5.55843 0
M  V30 4057 C 384.459 3.36717 5.76349 0
M  V30 4058 H 383.729 -0.0127902 0.74089 0
M  V30 4059 H 386.376 0.668756 1.79443 0
M  V30 4060 H 384.681 -1.0158 3.78403 0
M  V30 4061 H 386.378 -0.663641 3.9547 0
M  V30 4062 H 382.968 0.745124 4.22073 0
M  V30 4063 H 387.152 1.6023 4.69723 0
M  V30 4064 H 382.408 2.81105 5.42946 0
M  V30 4065 H 386.582 3.66808 5.91967 0
M  V30 4066 H 384.209 4.27821 6.28389 0
M  V30 4067 N 385.784 -1.5574 0.241426 0
M  V30 4068 C 387.031 -1.9881 -0.384836 0
M  V30 4069 C 387.359 -1.12947 -1.58346 0
M  V30 4070 O 386.614 -0.178993 -1.9488 0
M  V30 4071 C 386.913 -3.47308 -0.843317 0
M  V30 4072 C 386.579 -4.50223 0.246946 0
M  V30 4073 C 385.241 -4.78088 0.546399 0
M  V30 4074 C 387.593 -5.11841 0.983282 0
M  V30 4075 C 384.921 -5.64846 1.58636 0
M  V30 4076 C 387.273 -5.99727 2.01272 0
M  V30 4077 C 385.937 -6.25927 2.31888 0
M  V30 4078 H 385.207 -0.727496 -0.140821 0
M  V30 4079 H 387.854 -1.8831 0.348106 0
M  V30 4080 H 386.159 -3.55112 -1.65537 0
M  V30 4081 H 387.856 -3.78017 -1.33806 0
M  V30 4082 H 384.446 -4.286 0.00340639 0
M  V30 4083 H 388.63 -4.90366 0.765182 0
M  V30 4084 H 383.886 -5.83403 1.82896 0
M  V30 4085 H 388.06 -6.46517 2.58823 0
M  V30 4086 H 385.687 -6.92949 3.12611 0
M  V30 4087 N 387.262 0.0317525 -1.57568 0
M  V30 4088 C 388.192 1.03274 -2.0942 0
M  V30 4089 C 389.173 1.3788 -0.996143 0
M  V30 4090 O 390.358 1.46811 -1.27122 0
M  V30 4091 C 387.488 2.33448 -2.57137 0
M  V30 4092 C 386.442 2.13091 -3.71182 0
M  V30 4093 C 385.768 3.49001 -4.05095 0
M  V30 4094 C 387.068 1.51928 -4.99715 0
M  V30 4095 H 388.762 0.60112 -2.93303 0
M  V30 4096 H 386.308 0.287705 -1.41097 0
M  V30 4097 H 388.261 3.03802 -2.92032 0
M  V30 4098 H 386.985 2.78665 -1.70333 0
M  V30 4099 H 385.644 1.45171 -3.36632 0
M  V30 4100 H 385.292 3.91862 -3.15362 0
M  V30 4101 H 384.992 3.36207 -4.81911 0
M  V30 4102 H 386.516 4.20721 -4.42522 0
M  V30 4103 H 387.93 2.12196 -5.32584 0
M  V30 4104 H 386.327 1.49716 -5.81124 0
M  V30 4105 H 387.397 0.484811 -4.8247 0
M  V30 4106 N 388.74 1.54641 0.303973 0
M  V30 4107 C 389.69 1.8177 1.37636 0
M  V30 4108 C 390.674 0.674697 1.46071 0
M  V30 4109 O 391.866 0.935251 1.50273 0
M  V30 4110 C 388.995 2.06584 2.74186 0
M  V30 4111 C 388.081 3.2706 2.69986 0
M  V30 4112 N 388.472 4.47682 2.35402 0
M  V30 4113 C 386.77 3.29028 3.01092 0
M  V30 4114 C 387.471 5.29689 2.40426 0
M  V30 4115 N 386.447 4.67339 2.7766 0
M  V30 4116 H 390.249 2.72596 1.09857 0
M  V30 4117 H 387.763 1.541 0.51254 0
M  V30 4118 H 389.76 2.24166 3.51504 0
M  V30 4119 H 388.42 1.17024 3.02879 0
M  V30 4120 H 389.431 4.74336 2.07908 0
M  V30 4121 H 386.108 2.49565 3.34699 0
M  V30 4122 H 387.498 6.3606 2.16512 0
M  V30 4123 N 390.218 -0.567019 1.47046 0
M  V30 4124 C 391.148 -1.68482 1.61667 0
M  V30 4125 C 392.129 -1.6358 0.466418 0
M  V30 4126 O 393.314 -1.81354 0.694574 0
M  V30 4127 C 390.444 -3.07124 1.62148 0
M  V30 4128 C 389.398 -3.26867 2.76301 0
M  V30 4129 C 388.724 -4.66196 2.61849 0
M  V30 4130 C 390.024 -3.13186 4.17986 0
M  V30 4131 H 391.718 -1.56502 2.5524 0
M  V30 4132 H 389.264 -0.751486 1.22836 0
M  V30 4133 H 391.217 -3.8516 1.70968 0
M  V30 4134 H 389.941 -3.2004 0.651287 0
M  V30 4135 H 388.6 -2.51237 2.66975 0
M  V30 4136 H 388.248 -4.75898 1.62879 0
M  V30 4137 H 387.948 -4.80356 3.38425 0
M  V30 4138 H 389.472 -5.46379 2.72584 0
M  V30 4139 H 390.886 -3.81049 4.2834 0
M  V30 4140 H 389.283 -3.3886 4.95272 0
M  V30 4141 H 390.353 -2.10057 4.3704 0
M  V30 4142 N 391.696 -1.35014 -0.812953 0
M  V30 4143 C 392.945 -1.27269 -1.56479 0
M  V30 4144 C 393.258 0.152771 -1.95002 0
M  V30 4145 O 394.464 0.352451 -2.69203 0
M  V30 4146 C 392.92 -2.23159 -2.82362 0
M  V30 4147 C 392.528 -3.71016 -2.511 0
M  V30 4148 C 394.272 -2.24342 -3.60376 0
M  V30 4149 C 392.179 -4.58746 -3.73237 0
M  V30 4150 H 391.109 -0.472829 -0.587324 0
M  V30 4151 H 393.76 -1.6024 -0.894171 0
M  V30 4152 H 392.142 -1.83151 -3.51101 0
M  V30 4153 H 393.316 -4.1962 -1.90409 0
M  V30 4154 H 391.631 -3.72378 -1.86343 0
M  V30 4155 H 394.228 -2.87107 -4.51081 0
M  V30 4156 H 394.571 -1.24542 -3.97234 0
M  V30 4157 H 395.104 -2.62846 -2.98591 0
M  V30 4158 H 391.843 -5.59521 -3.41492 0
M  V30 4159 H 391.363 -4.14871 -4.33176 0
M  V30 4160 H 393.042 -4.73852 -4.40537 0
M  V30 4161 N 393.175 1.03435 -1.18907 0
M  V30 4162 C 394.422 1.76743 -0.988334 0
M  V30 4163 C 394.75 1.88447 0.481441 0
M  V30 4164 O 394.005 1.39383 1.37371 0
M  V30 4165 C 394.304 3.19792 -1.59586 0
M  V30 4166 C 393.97 3.28108 -3.09283 0
M  V30 4167 C 392.632 3.30084 -3.5014 0
M  V30 4168 C 394.984 3.27696 -4.05296 0
M  V30 4169 C 392.312 3.29299 -4.85571 0
M  V30 4170 C 394.664 3.28451 -5.4065 0
M  V30 4171 C 393.328 3.28723 -5.80946 0
M  V30 4172 H 392.598 0.64675 -0.361657 0
M  V30 4173 H 395.245 1.21442 -1.48068 0
M  V30 4174 H 393.55 3.78136 -1.02568 0
M  V30 4175 H 395.247 3.75171 -1.41589 0
M  V30 4176 H 391.837 3.27294 -2.76725 0
M  V30 4177 H 396.021 3.25354 -3.74778 0
M  V30 4178 H 391.277 3.2783 -5.16079 0
M  V30 4179 H 395.451 3.27082 -6.14809 0
M  V30 4180 H 393.078 3.27868 -6.85862 0
M  V30 4181 N 394.653 0.992116 1.22453 0
M  V30 4182 C 395.883 0.684949 1.94915 0
M  V30 4183 C 396.291 -0.754292 1.73514 0
M  V30 4184 O 395.634 -1.52056 1.03076 0
M  V30 4185 C 395.696 0.910054 3.47791 0
M  V30 4186 C 395.36 2.33363 3.92926 0
M  V30 4187 C 396.357 3.31308 4.00663 0
M  V30 4188 C 394.042 2.66785 4.25595 0
M  V30 4189 C 396.036 4.6075 4.40441 0
M  V30 4190 C 393.723 3.96446 4.65053 0
M  V30 4191 C 394.721 4.9324 4.72444 0
M  V30 4192 O 394.409 6.20584 5.1101 0
M  V30 4193 H 394.141 0.25258 0.62704 0
M  V30 4194 H 396.695 1.32939 1.56577 0
M  V30 4195 H 394.925 0.208443 3.86138 0
M  V30 4196 H 396.614 0.598257 4.01467 0
M  V30 4197 H 397.38 3.0682 3.75615 0
M  V30 4198 H 393.259 1.92148 4.19047 0
M  V30 4199 H 396.803 5.363 4.46126 0
M  V30 4200 H 392.7 4.20724 4.89552 0
M  V30 4201 H 393.468 6.24509 5.29085 0
M  V30 4202 N 396.131 -1.37776 0.765217 0
M  V30 4203 C 397.38 -1.99092 0.323307 0
M  V30 4204 C 397.693 -1.61434 -1.10446 0
M  V30 4205 O 398.899 -2.15805 -1.64743 0
M  V30 4206 C 397.355 -3.56019 0.527098 0
M  V30 4207 C 396.963 -4.0262 1.96471 0
M  V30 4208 C 398.707 -4.2424 0.148483 0
M  V30 4209 C 396.614 -5.52233 2.11644 0
M  V30 4210 H 395.544 -0.744846 0.117137 0
M  V30 4211 H 398.195 -1.57391 0.943417 0
M  V30 4212 H 396.577 -3.95667 -0.162372 0
M  V30 4213 H 397.751 -3.74234 2.68859 0
M  V30 4214 H 396.066 -3.47161 2.29931 0
M  V30 4215 H 398.663 -5.34159 0.240456 0
M  V30 4216 H 399.006 -4.06446 -0.900422 0
M  V30 4217 H 399.539 -3.89872 0.79025 0
M  V30 4218 H 396.278 -5.74945 3.1483 0
M  V30 4219 H 395.798 -5.82324 1.4373 0
M  V30 4220 H 397.477 -6.18106 1.91193 0
M  V30 4221 N 397.609 -0.515225 -1.4894 0
M  V30 4222 C 398.834 0.022727 -2.07388 0
M  V30 4223 C 399.259 1.2876 -1.37122 0
M  V30 4224 O 398.617 1.76067 -0.432431 0
M  V30 4225 C 398.665 0.244869 -3.59768 0
M  V30 4226 O 397.769 1.31667 -3.90817 0
M  V30 4227 H 397.11 -0.0325506 -0.663202 0
M  V30 4228 H 399.64 -0.718918 -1.91553 0
M  V30 4229 H 399.65 0.47205 -4.0526 0
M  V30 4230 H 398.325 -0.679194 -4.10317 0
M  V30 4231 H 396.902 1.07331 -3.5712 0
M  V30 4232 N 399.087 1.5561 -0.249682 0
M  V30 4233 C 400.327 2.00916 0.37579 0
M  V30 4234 C 400.691 1.13409 1.54927 0
M  V30 4235 O 401.892 1.48183 2.24266 0
M  V30 4236 C 400.163 3.48949 0.772633 0
M  V30 4237 S 401.722 4.16261 1.38824 0
M  V30 4238 H 398.54 0.70112 0.118117 0
M  V30 4239 H 401.142 1.92052 -0.365567 0
M  V30 4240 H 399.846 4.103 -0.090683 0
M  V30 4241 H 399.377 3.61745 1.5461 0
M  V30 4242 H 401.392 4.17778 2.67724 0
M  V30 4243 N 400.565 -0.0233959 1.57583 0
M  V30 4244 C 401.976 -0.56927 1.77809 0
M  V30 4245 C 402.327 -1.75284 0.881472 0
M  V30 4246 O 401.452 -2.1626 0.0777805 0
M  V30 4247 C 402.047 -1.03949 3.22459 0
M  V30 4248 C 400.606 -1.53084 3.43864 0
M  V30 4249 C 399.753 -0.471454 2.73263 0
M  V30 4250 H 402.704 0.202825 1.57399 0
M  V30 4251 H 402.725 -1.90661 3.29285 0
M  V30 4252 H 402.237 -0.177865 3.87692 0
M  V30 4253 H 400.338 -2.41414 2.83814 0
M  V30 4254 H 400.451 -1.57443 4.52491 0
M  V30 4255 H 398.815 -0.927788 2.37201 0
M  V30 4256 H 399.598 0.380808 3.41181 0
M  V30 4257 N 402.043 -1.548 -0.295768 0
M  V30 4258 C 402.975 -1.82492 -1.3867 0
M  V30 4259 C 403.988 -0.708134 -1.46592 0
M  V30 4260 O 405.177 -0.985686 -1.48817 0
M  V30 4261 C 402.277 -1.95256 -2.76999 0
M  V30 4262 C 401.45 -3.25709 -2.91946 0
M  V30 4263 C 400.509 -3.28824 -4.10806 0
M  V30 4264 O 399.535 -4.02328 -4.02643 0
M  V30 4265 N 400.737 -2.5459 -5.21694 0
M  V30 4266 H 403.502 -2.76646 -1.15269 0
M  V30 4267 H 401.063 -1.54438 -0.485849 0
M  V30 4268 H 403.055 -1.94736 -3.54768 0
M  V30 4269 H 401.625 -1.08072 -2.93324 0
M  V30 4270 H 400.845 -3.38959 -2.01247 0
M  V30 4271 H 402.133 -4.11786 -2.98847 0
M  V30 4272 H 401.531 -1.94512 -5.31208 0
M  V30 4273 H 400.088 -2.59818 -5.97778 0
M  V30 4274 N 403.521 0.559213 -1.47345 0
M  V30 4275 C 404.469 1.68747 -1.60085 0
M  V30 4276 C 405.463 1.628 -0.46825 0
M  V30 4277 O 406.669 1.68009 -0.645977 0
M  V30 4278 H 403.044 0.558329 -0.503759 0
M  V30 4279 H 405.015 1.55138 -2.54902 0
M  V30 4280 C 403.764 3.07103 -1.63042 0
M  V30 4281 H 403.087 3.12361 -2.49541 0
M  V30 4282 H 404.527 3.85743 -1.76006 0
M  V30 4283 C 402.986 3.34935 -0.363357 0
M  V30 4284 O 403.516 3.98102 0.536416 0
M  V30 4285 N 401.722 2.89574 -0.244 0
M  V30 4286 H 401.269 2.38348 -0.977133 0
M  V30 4287 H 401.227 3.08566 0.602836 0
M  V30 4288 N 404.999 1.35443 0.805782 0
M  V30 4289 C 406.41 1.25768 1.37983 0
M  V30 4290 C 406.761 -0.10958 1.95894 0
M  V30 4291 O 405.886 -1.01056 1.91355 0
M  V30 4292 C 406.481 2.27727 2.5085 0
M  V30 4293 C 405.04 2.2179 3.04115 0
M  V30 4294 C 404.187 2.13393 1.77084 0
M  V30 4295 H 407.138 1.4656 0.608752 0
M  V30 4296 H 407.159 1.90422 3.29424 0
M  V30 4297 H 406.671 3.27227 2.08671 0
M  V30 4298 H 404.772 1.25703 3.50756 0
M  V30 4299 H 404.885 3.13788 3.62042 0
M  V30 4300 H 403.249 1.59384 1.98668 0
M  V30 4301 H 404.032 3.14755 1.37056 0
M  V30 4302 N 406.477 -1.02803 1.19454 0
M  V30 4303 C 407.707 -1.79581 1.02149 0
M  V30 4304 C 408.115 -1.84182 -0.432851 0
M  V30 4305 O 407.458 -1.28534 -1.31243 0
M  V30 4306 C 407.52 -3.25993 1.51554 0
M  V30 4307 C 407.184 -3.45025 2.99678 0
M  V30 4308 C 408.181 -3.35175 3.97434 0
M  V30 4309 C 405.866 -3.71212 3.38389 0
M  V30 4310 C 407.86 -3.51238 5.31893 0
M  V30 4311 C 405.547 -3.8692 4.73008 0
M  V30 4312 C 406.545 -3.76936 5.69569 0
M  V30 4313 O 406.233 -3.92179 7.01748 0
M  V30 4314 H 405.965 -0.571962 0.360327 0
M  V30 4315 H 408.519 -1.30367 1.58725 0
M  V30 4316 H 406.749 -3.76235 0.893543 0
M  V30 4317 H 408.438 -3.84368 1.30444 0
M  V30 4318 H 409.204 -3.14895 3.68872 0
M  V30 4319 H 405.083 -3.78075 2.6378 0
M  V30 4320 H 408.627 -3.43362 6.07247 0
M  V30 4321 H 404.524 -4.06699 5.01265 0
M  V30 4322 H 405.292 -4.09265 7.08833 0
M  V30 4323 N 407.956 -0.998596 -1.21925 0
M  V30 4324 C 409.196 -0.685948 -1.92546 0
M  V30 4325 C 409.56 0.768441 -1.75952 0
M  V30 4326 O 410.761 1.19277 -2.40887 0
M  V30 4327 C 409.032 -1.08767 -3.40448 0
M  V30 4328 S 410.591 -0.894251 -4.29591 0
M  V30 4329 H 407.409 -0.250622 -0.665364 0
M  V30 4330 H 410.011 -1.28207 -1.47591 0
M  V30 4331 H 408.715 -2.14242 -3.50041 0
M  V30 4332 H 408.246 -0.48357 -3.90417 0
M  V30 4333 H 410.261 0.212149 -4.95746 0
M  V30 4334 N 409.434 1.37368 -0.772513 0
M  V30 4335 C 410.68 1.99969 -0.337681 0
M  V30 4336 C 411.013 1.61184 1.08321 0
M  V30 4337 O 410.288 0.858395 1.74533 0
M  V30 4338 C 410.571 3.56858 -0.482121 0
M  V30 4339 C 410.424 4.0555 -1.94549 0
M  V30 4340 C 411.743 4.39955 0.113143 0
M  V30 4341 H 408.862 0.726464 -0.124171 0
M  V30 4342 H 411.504 1.63034 -0.975699 0
M  V30 4343 H 409.654 3.88452 0.0610361 0
M  V30 4344 H 411.326 3.84518 -2.54841 0
M  V30 4345 H 409.569 3.57715 -2.45403 0
M  V30 4346 H 410.24 5.14587 -1.9976 0
M  V30 4347 H 412.716 4.14623 -0.35031 0
M  V30 4348 H 411.592 5.48897 -0.0180514 0
M  V30 4349 H 411.853 4.25403 1.20354 0
M  V30 4350 N 410.912 0.523116 1.48665 0
M  V30 4351 C 412.152 -0.0115588 2.04397 0
M  V30 4352 C 412.516 -1.32225 1.39214 0
M  V30 4353 O 413.717 -1.94253 1.85793 0
M  V30 4354 C 411.988 -0.138119 3.57133 0
M  V30 4355 S 413.547 -0.623849 4.34343 0
M  V30 4356 H 410.365 0.00877706 0.710946 0
M  V30 4357 H 412.967 0.702116 1.82457 0
M  V30 4358 H 411.671 0.820748 4.02109 0
M  V30 4359 H 411.202 -0.876377 3.83514 0
M  V30 4360 H 413.217 -1.8895 4.58816 0
M  V30 4361 N 412.39 -1.55475 0.257931 0
M  V30 4362 C 413.637 -1.99207 -0.363728 0
M  V30 4363 C 413.965 -1.1462 -1.57139 0
M  V30 4364 O 413.22 -0.199653 -1.94679 0
M  V30 4365 C 413.519 -3.48183 -0.806433 0
M  V30 4366 C 413.185 -4.49936 0.294684 0
M  V30 4367 C 411.847 -4.77481 0.597076 0
M  V30 4368 C 414.199 -5.10769 1.03751 0
M  V30 4369 C 411.527 -5.63132 1.64618 0
M  V30 4370 C 413.879 -5.97558 2.07622 0
M  V30 4371 C 412.543 -6.23432 2.38514 0
M  V30 4372 H 411.813 -0.728949 -0.133097 0
M  V30 4373 H 414.46 -1.8793 0.368059 0
M  V30 4374 H 412.765 -3.56848 -1.61761 0
M  V30 4375 H 414.462 -3.79415 -1.29789 0
M  V30 4376 H 411.052 -4.28572 0.0488649 0
M  V30 4377 H 415.236 -4.89527 0.817149 0
M  V30 4378 H 410.492 -5.8143 1.89074 0
M  V30 4379 H 414.666 -6.43735 2.65666 0
M  V30 4380 H 412.293 -6.89594 3.19943 0
M  V30 4381 N 413.868 0.0150385 -1.57593 0
M  V30 4382 C 414.801 1.04475 -2.0288 0
M  V30 4383 C 415.779 1.3436 -0.915764 0
M  V30 4384 O 416.963 1.46779 -1.18271 0
M  V30 4385 C 414.09 2.37608 -2.41371 0
M  V30 4386 C 413.136 2.23487 -3.63257 0
M  V30 4387 S 413.969 1.57505 -5.11813 0
M  V30 4388 C 415.125 2.921 -5.5356 0
M  V30 4389 H 415.358 0.65907 -2.89903 0
M  V30 4390 H 412.891 0.225452 -1.52745 0
M  V30 4391 H 414.849 3.14165 -2.64217 0
M  V30 4392 H 413.51 2.7332 -1.54775 0
M  V30 4393 H 412.703 3.21802 -3.87891 0
M  V30 4394 H 412.305 1.55074 -3.40335 0
M  V30 4395 H 414.597 3.88419 -5.55101 0
M  V30 4396 H 415.54 2.72184 -6.53698 0
M  V30 4397 H 415.948 2.95318 -4.8109 0
M  V30 4398 N 415.346 1.54954 0.287554 0
M  V30 4399 C 416.571 1.79209 1.04397 0
M  V30 4400 C 416.996 0.556431 1.79682 0
M  V30 4401 O 416.354 -0.493518 1.74454 0
M  V30 4402 C 416.402 3.00739 1.98969 0
M  V30 4403 O 415.506 2.74805 3.075 0
M  V30 4404 H 414.847 0.592755 0.299227 0
M  V30 4405 H 417.377 2.02068 0.320886 0
M  V30 4406 H 417.387 3.29077 2.4119 0
M  V30 4407 H 416.062 3.90329 1.43582 0
M  V30 4408 H 414.639 2.57523 2.69697 0
M  V30 4409 N 416.824 -0.551391 1.4764 0
M  V30 4410 C 417.774 -1.65362 1.56969 0
M  V30 4411 C 418.758 -1.55098 0.428189 0
M  V30 4412 O 419.95 -1.63481 0.678441 0
M  V30 4413 C 417.079 -3.04129 1.59249 0
M  V30 4414 C 416.165 -3.19576 2.78804 0
M  V30 4415 N 416.556 -3.05067 4.03445 0
M  V30 4416 C 414.854 -3.50588 2.75688 0
M  V30 4417 C 415.555 -3.2336 4.83543 0
M  V30 4418 N 414.531 -3.4996 4.15968 0
M  V30 4419 H 418.333 -1.52722 2.51104 0
M  V30 4420 H 415.847 -0.756303 1.43714 0
M  V30 4421 H 417.844 -3.83278 1.64024 0
M  V30 4422 H 416.504 -3.17877 0.662148 0
M  V30 4423 H 417.515 -2.82273 4.34215 0
M  V30 4424 H 414.192 -3.70827 1.91817 0
M  V30 4425 H 415.582 -3.17061 5.92387 0
M  V30 4426 N 418.302 -1.35869 -0.798587 0
M  V30 4427 C 419.549 -1.29588 -1.55606 0
M  V30 4428 C 419.877 0.127456 -1.94082 0
M  V30 4429 O 419.132 1.09461 -1.62225 0
M  V30 4430 C 419.431 -2.1556 -2.85077 0
M  V30 4431 C 419.097 -3.6424 -2.65781 0
M  V30 4432 C 417.759 -4.04766 -2.60227 0
M  V30 4433 C 420.111 -4.58547 -2.47758 0
M  V30 4434 C 417.439 -5.37753 -2.34603 0
M  V30 4435 C 419.791 -5.91742 -2.23662 0
M  V30 4436 C 418.455 -6.31402 -2.16534 0
M  V30 4437 H 417.725 -0.474197 -0.569402 0
M  V30 4438 H 420.372 -1.67839 -0.922086 0
M  V30 4439 H 418.677 -1.70216 -3.52893 0
M  V30 4440 H 420.374 -2.08031 -3.42818 0
M  V30 4441 H 416.964 -3.32086 -2.70956 0
M  V30 4442 H 421.148 -4.28117 -2.51056 0
M  V30 4443 H 416.404 -5.67474 -2.2756 0
M  V30 4444 H 420.578 -6.6439 -2.08708 0
M  V30 4445 H 418.205 -7.34381 -1.96441 0
M  V30 4446 N 419.78 1.02168 -1.19998 0
M  V30 4447 C 420.728 2.12717 -0.940967 0
M  V30 4448 C 421.722 1.69069 0.105841 0
M  V30 4449 O 422.928 1.79946 -0.0440583 0
M  V30 4450 H 419.303 0.695108 -0.28693 0
M  V30 4451 H 421.274 2.3175 -1.87975 0
M  V30 4452 C 420.023 3.44027 -0.504049 0
M  V30 4453 H 419.346 3.78036 -1.30112 0
M  V30 4454 H 420.786 4.22452 -0.361991 0
M  V30 4455 C 419.245 3.27678 0.782878 0
M  V30 4456 O 419.775 3.56949 1.84256 0
M  V30 4457 N 417.981 2.80943 0.742921 0
M  V30 4458 H 417.528 2.57322 -0.119687 0
M  V30 4459 H 417.486 2.70385 1.60435 0
M  V30 4460 N 421.258 1.00505 1.21394 0
M  V30 4461 C 422.188 0.585684 2.26035 0
M  V30 4462 C 423.169 -0.393525 1.65485 0
M  V30 4463 O 424.354 -0.281497 1.92149 0
M  V30 4464 C 421.484 -0.0884283 3.47187 0
M  V30 4465 C 420.438 0.810567 4.20254 0
M  V30 4466 C 419.764 0.00286382 5.347 0
M  V30 4467 C 421.064 2.1132 4.77641 0
M  V30 4468 H 422.758 1.46039 2.61368 0
M  V30 4469 H 420.304 0.703648 1.25638 0
M  V30 4470 H 422.257 -0.393286 4.19561 0
M  V30 4471 H 420.981 -0.997766 3.10986 0
M  V30 4472 H 419.64 1.09925 3.49731 0
M  V30 4473 H 419.288 -0.907765 4.94741 0
M  V30 4474 H 418.988 0.601444 5.84514 0
M  V30 4475 H 420.512 -0.295808 6.09883 0
M  V30 4476 H 421.926 1.87148 5.41893 0
M  V30 4477 H 420.323 2.66164 5.37845 0
M  V30 4478 H 421.393 2.78393 3.9702 0
M  V30 4479 N 422.737 -1.36956 0.779787 0
M  V30 4480 C 423.967 -2.03459 0.358877 0
M  V30 4481 C 424.375 -1.58939 -1.02641 0
M  V30 4482 O 423.718 -0.769777 -1.66794 0
M  V30 4483 C 423.78 -3.5796 0.332393 0
M  V30 4484 C 423.444 -4.25644 1.66362 0
M  V30 4485 C 424.441 -4.49205 2.61746 0
M  V30 4486 C 422.126 -4.63313 1.94027 0
M  V30 4487 C 424.12 -5.09503 3.82996 0
M  V30 4488 C 421.807 -5.2333 3.15546 0
M  V30 4489 C 422.805 -5.46363 4.0985 0
M  V30 4490 O 422.493 -6.05122 5.29228 0
M  V30 4491 H 422.225 -0.659767 0.147254 0
M  V30 4492 H 424.779 -1.76111 1.05708 0
M  V30 4493 H 423.009 -3.84388 -0.422237 0
M  V30 4494 H 424.698 -4.05852 -0.0625389 0
M  V30 4495 H 425.464 -4.20508 2.41657 0
M  V30 4496 H 421.343 -4.44715 1.21448 0
M  V30 4497 H 424.887 -5.27397 4.56617 0
M  V30 4498 H 420.784 -5.51451 3.35517 0
M  V30 4499 H 421.552 -6.23595 5.30161 0
M  V30 4500 N 424.215 -0.530993 -1.48385 0
M  V30 4501 C 425.145 0.219985 -2.32461 0
M  V30 4502 C 426.126 0.934111 -1.42156 0
M  V30 4503 O 427.311 0.919694 -1.71042 0
M  V30 4504 C 424.441 1.26674 -3.23375 0
M  V30 4505 C 423.395 0.67069 -4.22712 0
M  V30 4506 C 422.721 1.82017 -5.02766 0
M  V30 4507 C 424.021 -0.358268 -5.2107 0
M  V30 4508 H 425.715 -0.48187 -2.95497 0
M  V30 4509 H 423.261 -0.233182 -1.42099 0
M  V30 4510 H 425.214 1.80006 -3.81019 0
M  V30 4511 H 423.938 1.99818 -2.58341 0
M  V30 4512 H 422.597 0.158878 -3.66256 0
M  V30 4513 H 422.245 2.54002 -4.34157 0
M  V30 4514 H 421.945 1.42727 -5.70003 0
M  V30 4515 H 423.469 2.35725 -5.63264 0
M  V30 4516 H 424.883 0.0880081 -5.73232 0
M  V30 4517 H 423.28 -0.66861 -5.96364 0
M  V30 4518 H 424.35 -1.26367 -4.68145 0
M  V30 4519 N 425.693 1.55336 -0.266172 0
M  V30 4520 C 426.942 1.98574 0.353749 0
M  V30 4521 C 427.255 1.15789 1.57646 0
M  V30 4522 O 428.461 1.49129 2.26876 0
M  V30 4523 C 426.917 3.53403 0.680747 0
M  V30 4524 C 426.525 4.44953 -0.52165 0
M  V30 4525 C 428.269 4.05251 1.26379 0
M  V30 4526 C 426.176 5.91156 -0.169736 0
M  V30 4527 H 425.106 0.741643 0.135949 0
M  V30 4528 H 427.757 1.79743 -0.369421 0
M  V30 4529 H 426.139 3.68001 1.46257 0
M  V30 4530 H 427.313 4.42121 -1.29869 0
M  V30 4531 H 425.628 4.03691 -1.02093 0
M  V30 4532 H 428.225 5.12021 1.54074 0
M  V30 4533 H 428.568 3.53749 2.19471 0
M  V30 4534 H 429.101 3.94057 0.544447 0
M  V30 4535 H 425.84 6.46736 -1.0683 0
M  V30 4536 H 425.36 5.97079 0.570717 0
M  V30 4537 H 427.039 6.4655 0.241245 0
M  V30 4538 N 427.171 -0.0066808 1.57599 0
M  V30 4539 C 428.101 -0.999296 2.11036 0
M  V30 4540 C 429.082 -1.36278 1.01795 0
M  V30 4541 O 430.267 -1.4477 1.29442 0
M  V30 4542 C 427.397 -2.29328 2.60818 0
M  V30 4543 C 426.351 -2.07159 3.74525 0
M  V30 4544 C 425.677 -3.42512 4.10596 0
M  V30 4545 C 426.977 -1.43959 5.02069 0
M  V30 4546 H 428.671 -0.554382 2.94223 0
M  V30 4547 H 426.217 -0.265221 1.41536 0
M  V30 4548 H 428.17 -2.99117 2.96828 0
M  V30 4549 H 426.894 -2.7592 1.74745 0
M  V30 4550 H 425.553 -1.39797 3.38899 0
M  V30 4551 H 425.201 -3.86795 3.21556 0
M  V30 4552 H 424.901 -3.28498 4.87199 0
M  V30 4553 H 426.425 -4.13628 4.4916 0
M  V30 4554 H 427.839 -2.03696 5.35893 0
M  V30 4555 H 426.236 -1.40452 5.83432 0
M  V30 4556 H 427.306 -0.407992 4.83181 0
M  V30 4557 N 428.649 -1.55105 -0.279332 0
M  V30 4558 C 429.898 -1.74618 -1.00952 0
M  V30 4559 C 430.211 -0.551096 -1.87676 0
M  V30 4560 O 431.417 -0.628507 -2.64125 0
M  V30 4561 C 429.873 -3.09025 -1.84476 0
M  V30 4562 C 429.481 -4.36081 -1.0265 0
M  V30 4563 C 431.225 -3.37891 -2.56963 0
M  V30 4564 C 429.132 -5.6153 -1.85576 0
M  V30 4565 H 428.062 -0.650868 -0.38064 0
M  V30 4566 H 430.713 -1.81569 -0.265475 0
M  V30 4567 H 429.095 -2.96095 -2.62952 0
M  V30 4568 H 430.269 -4.59909 -0.286354 0
M  V30 4569 H 428.584 -4.14312 -0.416464 0
M  V30 4570 H 431.181 -4.28822 -3.19399 0
M  V30 4571 H 431.524 -2.57737 -3.26921 0
M  V30 4572 H 432.057 -3.5189 -1.85522 0
M  V30 4573 H 428.796 -6.44413 -1.2005 0
M  V30 4574 H 428.316 -5.41854 -2.57204 0
M  V30 4575 H 429.995 -5.99594 -2.43096 0
M  V30 4576 N 430.127 0.543554 -1.4793 0
M  V30 4577 C 431.06 1.66556 -1.55995 0
M  V30 4578 C 432.038 1.57315 -0.411205 0
M  V30 4579 O 433.222 1.7798 -0.620922 0
M  V30 4580 C 430.349 3.04883 -1.47527 0
M  V30 4581 C 429.395 3.32526 -2.67074 0
M  V30 4582 S 430.228 3.20282 -4.29162 0
M  V30 4583 C 431.384 4.61079 -4.23269 0
M  V30 4584 H 431.617 1.59462 -2.50917 0
M  V30 4585 H 429.15 0.725456 -1.36296 0
M  V30 4586 H 431.108 3.84665 -1.43328 0
M  V30 4587 H 429.769 3.09429 -0.539665 0
M  V30 4588 H 428.962 4.33403 -2.5725 0
M  V30 4589 H 428.564 2.60389 -2.68466 0
M  V30 4590 H 430.856 5.52318 -3.92365 0
M  V30 4591 H 431.799 4.75959 -5.24279 0
M  V30 4592 H 432.207 4.39766 -3.5393 0
M  V30 4593 N 431.605 1.3629 0.791371 0
M  V30 4594 C 432.845 1.31792 1.56238 0
M  V30 4595 C 433.209 -0.102237 1.91728 0
M  V30 4596 O 434.41 -0.271759 2.67423 0
M  V30 4597 C 432.681 2.21303 2.80642 0
M  V30 4598 S 434.24 2.34468 3.70904 0
M  V30 4599 H 431.058 0.468141 0.535131 0
M  V30 4600 H 433.66 1.71841 0.932246 0
M  V30 4601 H 432.364 3.23439 2.52617 0
M  V30 4602 H 431.895 1.82266 3.4863 0
M  V30 4603 H 433.91 1.54074 4.71673 0
M  V30 4604 N 433.083 -1.0153 1.20538 0
M  V30 4605 C 434.031 -2.12215 0.952235 0
M  V30 4606 C 435.025 -1.69123 -0.0968735 0
M  V30 4607 O 436.231 -1.7992 0.0536006 0
M  V30 4608 H 432.606 -0.693576 0.290613 0
M  V30 4609 H 434.577 -2.3075 1.89201 0
M  V30 4610 C 433.326 -3.43755 0.522287 0
M  V30 4611 H 432.649 -3.7734 1.32115 0
M  V30 4612 H 434.089 -4.22254 0.384389 0
M  V30 4613 C 432.548 -3.28088 -0.765489 0
M  V30 4614 O 433.078 -3.57921 -1.8236 0
M  V30 4615 N 431.284 -2.81333 -0.728011 0
M  V30 4616 H 430.831 -2.57255 0.133332 0
M  V30 4617 H 430.789 -2.71232 -1.58999 0
M  V30 4618 N 434.561 -1.01147 -1.20859 0
M  V30 4619 C 435.786 -0.716698 -1.94623 0
M  V30 4620 C 436.211 0.715415 -1.73964 0
M  V30 4621 O 435.569 1.49157 -1.03062 0
M  V30 4622 C 435.617 -1.0513 -3.44935 0
M  V30 4623 O 434.721 -0.160131 -4.12089 0
M  V30 4624 H 434.062 -0.266404 -0.608214 0
M  V30 4625 H 436.592 -1.35346 -1.53436 0
M  V30 4626 H 436.602 -1.00086 -3.95533 0
M  V30 4627 H 435.277 -2.09475 -3.59295 0
M  V30 4628 H 433.854 -0.267657 -3.71938 0
M  V30 4629 N 436.039 1.36541 -0.78704 0
M  V30 4630 C 437.288 1.98552 -0.35494 0
M  V30 4631 C 437.601 1.63171 1.07864 0
M  V30 4632 O 438.807 2.18399 1.61289 0
M  V30 4633 C 437.263 3.55136 -0.583671 0
M  V30 4634 C 436.871 3.99444 -2.02851 0
M  V30 4635 C 438.615 4.2395 -0.215957 0
M  V30 4636 C 436.522 5.48796 -2.20403 0
M  V30 4637 H 435.452 0.742888 -0.128972 0
M  V30 4638 H 438.103 1.5587 -0.968337 0
M  V30 4639 H 436.485 3.95875 0.0994046 0
M  V30 4640 H 437.659 3.6991 -2.74779 0
M  V30 4641 H 435.974 3.43459 -2.35425 0
M  V30 4642 H 438.571 5.33709 -0.325405 0
M  V30 4643 H 438.914 4.07827 0.835646 0
M  V30 4644 H 439.447 3.88565 -0.852175 0
M  V30 4645 H 436.186 5.69864 -3.23937 0
M  V30 4646 H 435.706 5.79964 -1.52977 0
M  V30 4647 H 437.385 6.14986 -2.01002 0
M  V30 4648 N 437.518 0.538854 1.48102 0
M  V30 4649 C 438.767 0.0059532 2.01699 0
M  V30 4650 C 439.08 -1.34476 1.42041 0
M  V30 4651 O 440.286 -1.96653 1.87189 0
M  V30 4652 C 438.742 -0.0397627 3.59878 0
M  V30 4653 C 438.35 1.30659 4.28523 0
M  V30 4654 C 440.094 -0.521024 4.2129 0
M  V30 4655 C 438.001 1.22098 5.78659 0
M  V30 4656 H 436.931 -0.00154456 0.753998 0
M  V30 4657 H 439.582 0.683963 1.70277 0
M  V30 4658 H 437.964 -0.783037 3.88181 0
M  V30 4659 H 439.138 2.06613 4.11883 0
M  V30 4660 H 437.453 1.7243 3.79021 0
M  V30 4661 H 440.05 -0.603184 5.31287 0
M  V30 4662 H 440.393 -1.52885 3.8721 0
M  V30 4663 H 440.926 0.166834 3.9745 0
M  V30 4664 H 437.665 2.20424 6.17328 0
M  V30 4665 H 437.185 0.50295 5.97688 0
M  V30 4666 H 438.864 0.915345 6.40492 0
M  V30 4667 N 438.996 -1.55193 0.274407 0
M  V30 4668 C 440.273 -1.91584 -0.394331 0
M  V30 4669 C 440.653 -1.19858 -1.73774 0
M  V30 4670 O 440.001 -0.3252 -2.26174 0
M  V30 4671 C 440.211 -3.4487 -0.535311 0
M  V30 4672 C 441.559 -4.16636 -0.818534 0
M  V30 4673 O 442.583 -3.5076 -0.620146 0
M  V30 4674 O 441.442 -5.33209 -1.19792 0
M  V30 4675 H 438.536 -0.798349 -0.215794 0
M  V30 4676 H 441.082 -1.66646 0.320507 0
M  V30 4677 H 439.854 -3.89145 0.410141 0
M  V30 4678 H 439.477 -3.75759 -1.29964 0
M  V30 4679 N 440.474 -0.00167713 -1.576 0
M  V30 4680 C 441.885 0.54091 -1.78693 0
M  V30 4681 C 442.236 1.7386 -0.909247 0
M  V30 4682 O 441.361 2.16109 -0.112176 0
M  V30 4683 C 441.956 0.98806 -3.24072 0
M  V30 4684 C 440.515 1.47594 -3.46256 0
M  V30 4685 C 439.662 0.42792 -2.73978 0
M  V30 4686 H 442.613 -0.22784 -1.57056 0
M  V30 4687 H 442.634 1.85398 -3.32277 0
M  V30 4688 H 442.146 0.116164 -3.87926 0
M  V30 4689 H 440.247 2.36868 -2.87618 0
M  V30 4690 H 440.36 1.50225 -4.54939 0
M  V30 4691 H 438.724 0.889934 -2.38647 0
M  V30 4692 H 439.507 -0.435038 -3.40532 0
M  V30 4693 N 441.952 1.55251 0.271103 0
M  V30 4694 C 442.882 1.9127 1.33933 0
M  V30 4695 C 443.863 0.77478 1.5143 0
M  V30 4696 O 445.048 1.03307 1.64442 0
M  V30 4697 C 442.178 2.18627 2.69851 0
M  V30 4698 C 441.132 3.34442 2.67081 0
M  V30 4699 C 440.458 3.47284 4.06569 0
M  V30 4700 C 441.758 4.70784 2.26185 0
M  V30 4701 H 443.452 2.80744 1.04035 0
M  V30 4702 H 440.998 1.35077 0.499017 0
M  V30 4703 H 442.951 2.42413 3.44694 0
M  V30 4704 H 441.675 1.25955 3.01335 0
M  V30 4705 H 440.334 3.10627 1.94695 0
M  V30 4706 H 439.982 2.52074 4.35279 0
M  V30 4707 H 439.682 4.25152 4.0561 0
M  V30 4708 H 441.206 3.73363 4.83148 0
M  V30 4709 H 442.62 4.94102 2.90751 0
M  V30 4710 H 441.017 5.51582 2.36384 0
M  V30 4711 H 442.087 4.69478 1.21319 0
M  V30 4712 N 443.43 -0.535701 1.48216 0
M  V30 4713 C 444.679 -1.28828 1.55197 0
M  V30 4714 C 444.992 -1.94263 0.228278 0
M  V30 4715 O 446.198 -2.70927 0.176278 0
M  V30 4716 C 444.654 -2.33727 2.73678 0
M  V30 4717 C 444.262 -1.74386 4.12666 0
M  V30 4718 C 446.006 -3.1003 2.89968 0
M  V30 4719 C 443.913 -2.77192 5.22416 0
M  V30 4720 H 442.843 -0.484484 0.577747 0
M  V30 4721 H 445.494 -0.56646 1.74538 0
M  V30 4722 H 443.876 -3.08919 2.4776 0
M  V30 4723 H 445.05 -1.05421 4.48579 0
M  V30 4724 H 443.365 -1.10595 4.01445 0
M  V30 4725 H 445.962 -3.86842 3.6913 0
M  V30 4726 H 446.305 -3.65542 1.9921 0
M  V30 4727 H 446.838 -2.41952 3.15759 0
M  V30 4728 H 443.577 -2.26507 6.15122 0
M  V30 4729 H 443.097 -3.44502 4.90998 0
M  V30 4730 H 444.776 -3.40285 5.50286 0
M  V30 4731 N 444.908 -1.36708 -0.784132 0
M  V30 4732 C 446.138 -1.34203 -1.57077 0
M  V30 4733 C 446.546 0.0774945 -1.89041 0
M  V30 4734 O 445.889 1.04628 -1.50992 0
M  V30 4735 C 445.951 -2.10351 -2.91535 0
M  V30 4736 C 445.615 -3.59405 -2.82272 0
M  V30 4737 C 446.612 -4.53545 -2.54151 0
M  V30 4738 C 444.297 -4.02362 -3.00683 0
M  V30 4739 C 446.291 -5.8862 -2.44551 0
M  V30 4740 C 443.978 -5.37526 -2.90704 0
M  V30 4741 C 444.976 -6.30468 -2.62677 0
M  V30 4742 O 444.664 -7.63149 -2.52702 0
M  V30 4743 H 444.396 -0.461791 -0.493685 0
M  V30 4744 H 446.95 -1.80475 -0.980712 0
M  V30 4745 H 445.18 -1.5875 -3.52612 0
M  V30 4746 H 446.869 -2.00636 -3.52845 0
M  V30 4747 H 447.635 -4.21669 -2.39625 0
M  V30 4748 H 443.514 -3.30389 -3.21503 0
M  V30 4749 H 447.058 -6.61133 -2.22596 0
M  V30 4750 H 442.955 -5.69008 -3.04795 0
M  V30 4751 H 443.723 -7.73331 -2.68144 0
M  V30 4752 N 446.386 1.0089 -1.21074 0
M  V30 4753 C 447.349 2.0775 -0.968129 0
M  V30 4754 C 448.349 1.6069 0.0593445 0
M  V30 4755 O 449.539 1.73293 -0.177525 0
M  V30 4756 C 446.671 3.37794 -0.459108 0
M  V30 4757 H 447.864 2.30707 -1.9161 0
M  V30 4758 H 445.417 1.17807 -1.02719 0
M  V30 4759 H 446.152 3.20516 0.49397 0
M  V30 4760 H 445.937 3.7328 -1.20019 0
M  V30 4761 H 447.427 4.16454 -0.309099 0
M  V30 4762 N 447.864 1.01787 1.20321 0
M  V30 4763 C 448.794 0.609625 2.25401 0
M  V30 4764 C 449.775 -0.375951 1.65893 0
M  V30 4765 O 450.96 -0.261101 1.92437 0
M  V30 4766 C 448.09 -0.0515995 3.47262 0
M  V30 4767 C 447.044 0.855095 4.19371 0
M  V30 4768 C 446.37 0.0595757 5.34667 0
M  V30 4769 C 447.67 2.16374 4.75373 0
M  V30 4770 H 449.364 1.48803 2.59804 0
M  V30 4771 H 446.91 0.716934 1.24884 0
M  V30 4772 H 448.863 -0.348764 4.19954 0
M  V30 4773 H 447.587 -0.964726 3.12027 0
M  V30 4774 H 446.246 1.13628 3.48546 0
M  V30 4775 H 445.894 -0.85524 4.95676 0
M  V30 4776 H 445.594 0.663406 5.83843 0
M  V30 4777 H 447.118 -0.231105 6.10162 0
M  V30 4778 H 448.532 1.92885 5.39878 0
M  V30 4779 H 446.929 2.71853 5.34991 0
M  V30 4780 H 447.999 2.82589 3.94045 0
M  V30 4781 N 449.342 -1.36122 0.79427 0
M  V30 4782 C 450.758 -1.5232 0.476525 0
M  V30 4783 C 450.958 -1.74685 -1.00436 0
M  V30 4784 O 450.014 -1.78115 -1.78973 0
M  V30 4785 C 451.327 -2.70607 1.31119 0
M  V30 4786 C 452.875 -2.8448 1.30537 0
M  V30 4787 C 453.35 -4.05778 2.12387 0
M  V30 4788 N 454.841 -4.12933 2.09859 0
M  V30 4789 C 455.576 -5.05876 2.69957 0
M  V30 4790 N 455.072 -6.04232 3.38934 0
M  V30 4791 N 456.865 -4.98528 2.59665 0
M  V30 4792 H 449.016 -1.1986 1.75349 0
M  V30 4793 H 451.279 -0.585418 0.745647 0
M  V30 4794 H 450.985 -2.60619 2.36158 0
M  V30 4795 H 450.859 -3.64888 0.955843 0
M  V30 4796 H 453.246 -2.93927 0.262876 0
M  V30 4797 H 453.327 -1.91093 1.70051 0
M  V30 4798 H 452.971 -3.97092 3.1667 0
M  V30 4799 H 452.901 -4.98323 1.70242 0
M  V30 4800 H 455.392 -3.42515 1.59662 0
M  V30 4801 H 455.705 -6.71724 3.82109 0
M  V30 4802 H 454.05 -6.04443 3.43036 0
M  V30 4803 H 457.241 -4.20641 2.05375 0
M  V30 4804 H 457.414 -5.70773 3.06793 0
M  V30 4805 N 450.82 -0.546701 -1.47814 0
M  V30 4806 C 452.045 -0.021268 -2.07389 0
M  V30 4807 C 452.47 1.25822 -1.39822 0
M  V30 4808 O 451.828 1.75111 -0.46968 0
M  V30 4809 C 451.876 0.168502 -3.60206 0
M  V30 4810 O 450.98 1.23347 -3.93522 0
M  V30 4811 H 450.321 -0.0466108 -0.662362 0
M  V30 4812 H 452.851 -0.759387 -1.89985 0
M  V30 4813 H 452.861 0.385982 -4.0617 0
M  V30 4814 H 451.536 -0.766075 -4.08784 0
M  V30 4815 H 450.113 0.997319 -3.59316 0
M  V30 4816 N 452.299 1.55045 -0.282633 0
M  V30 4817 C 453.231 2.2023 0.634924 0
M  V30 4818 C 454.244 1.18931 1.11172 0
M  V30 4819 O 455.433 1.4562 1.03233 0
M  V30 4820 C 452.533 2.82041 1.87899 0
M  V30 4821 C 451.706 4.091 1.54776 0
M  V30 4822 C 450.765 4.54887 2.64507 0
M  V30 4823 O 449.791 5.20496 2.30375 0
M  V30 4824 N 450.993 4.25659 3.94709 0
M  V30 4825 H 453.758 2.99601 0.0769811 0
M  V30 4826 H 451.319 1.61565 -0.104048 0
M  V30 4827 H 453.311 3.09613 2.60619 0
M  V30 4828 H 451.881 2.06618 2.3458 0
M  V30 4829 H 451.101 3.88736 0.654049 0
M  V30 4830 H 452.389 4.9187 1.30158 0
M  V30 4831 H 451.787 3.7306 4.25256 0
M  V30 4832 H 450.344 4.57984 4.63782 0
M  V30 4833 N 453.777 0.010035 1.57597 0
M  V30 4834 C 454.687 -0.994226 2.12491 0
M  V30 4835 C 455.703 -1.37013 1.07254 0
M  V30 4836 O 456.879 -1.45542 1.3921 0
M  V30 4837 C 453.944 -2.2642 2.62555 0
M  V30 4838 C 453.005 -1.95049 3.82432 0
M  V30 4839 C 452.238 -3.15991 4.30099 0
M  V30 4840 O 452.461 -4.28015 3.7704 0
M  V30 4841 O 451.395 -2.99403 5.22151 0
M  V30 4842 H 455.221 -0.557549 2.98538 0
M  V30 4843 H 452.806 -0.209413 1.47925 0
M  V30 4844 H 454.688 -3.01009 2.9491 0
M  V30 4845 H 453.363 -2.69306 1.796 0
M  V30 4846 H 452.27 -1.17904 3.55034 0
M  V30 4847 H 453.603 -1.56992 4.66491 0
M  V30 4848 N 455.255 -1.55392 -0.262866 0
M  V30 4849 C 456.185 -1.91978 -1.32917 0
M  V30 4850 C 457.166 -0.7828 -1.51017 0
M  V30 4851 O 458.351 -1.04178 -1.63892 0
M  V30 4852 C 455.481 -2.20055 -2.68687 0
M  V30 4853 C 454.435 -3.35854 -2.65304 0
M  V30 4854 C 453.761 -3.49435 -4.04721 0
M  V30 4855 C 455.061 -4.71977 -2.23685 0
M  V30 4856 H 456.755 -2.81292 -1.02544 0
M  V30 4857 H 454.301 -1.3534 -0.491846 0
M  V30 4858 H 456.254 -2.44237 -3.43404 0
M  V30 4859 H 454.978 -1.27551 -3.00663 0
M  V30 4860 H 453.637 -3.11655 -1.93045 0
M  V30 4861 H 453.285 -2.54379 -4.33936 0
M  V30 4862 H 452.985 -4.27297 -4.0335 0
M  V30 4863 H 454.509 -3.7592 -4.81161 0
M  V30 4864 H 455.923 -4.95637 -2.88127 0
M  V30 4865 H 454.32 -5.52828 -2.33456 0
M  V30 4866 H 455.39 -4.70115 -1.18827 0
M  V30 4867 N 456.733 0.527833 -1.48498 0
M  V30 4868 C 458.149 0.856571 -1.34666 0
M  V30 4869 C 458.349 1.98271 -0.35931 0
M  V30 4870 O 457.405 2.51551 0.218703 0
M  V30 4871 C 458.718 1.22207 -2.74747 0
M  V30 4872 C 460.266 1.33183 -2.83251 0
M  V30 4873 C 460.741 1.73075 -4.24039 0
M  V30 4874 N 462.232 1.80174 -4.26722 0
M  V30 4875 C 462.967 2.1243 -5.32598 0
M  V30 4876 N 462.463 2.43096 -6.4875 0
M  V30 4877 N 464.256 2.13454 -5.19994 0
M  V30 4878 H 456.407 -0.215174 -2.11307 0
M  V30 4879 H 458.67 -0.0336281 -0.947403 0
M  V30 4880 H 458.376 0.468195 -3.4857 0
M  V30 4881 H 458.25 2.17173 -3.08409 0
M  V30 4882 H 460.637 2.07647 -2.09683 0
M  V30 4883 H 460.718 0.363333 -2.53206 0
M  V30 4884 H 460.362 0.991712 -4.98124 0
M  V30 4885 H 460.292 2.70979 -4.51529 0
M  V30 4886 H 462.783 1.58744 -3.42942 0
M  V30 4887 H 463.096 2.6682 -7.25277 0
M  V30 4888 H 461.441 2.40611 -6.52021 0
M  V30 4889 H 464.632 1.88956 -4.28268 0
M  V30 4890 H 464.805 2.38261 -6.02608 0
M  V30 4891 N 458.211 1.37122 0.776871 0
M  V30 4892 C 459.158 1.3247 1.88998 0
M  V30 4893 C 460.128 0.191143 1.64997 0
M  V30 4894 O 461.313 0.379683 1.86984 0
M  V30 4895 C 458.453 1.13241 3.25992 0
M  V30 4896 C 457.566 2.35782 3.61982 0
M  V30 4897 C 456.701 2.09465 4.88158 0
M  V30 4898 C 455.74 3.279 5.16864 0
M  V30 4899 N 454.877 3.01167 6.34226 0
M  V30 4900 H 459.717 2.27642 1.9231 0
M  V30 4901 H 457.254 1.13125 0.94027 0
M  V30 4902 H 459.212 1.00115 4.0501 0
M  V30 4903 H 457.842 0.217186 3.22069 0
M  V30 4904 H 456.894 2.59666 2.77989 0
M  V30 4905 H 458.206 3.24125 3.79137 0
M  V30 4906 H 457.36 1.93341 5.75069 0
M  V30 4907 H 456.099 1.18452 4.73097 0
M  V30 4908 H 455.104 3.44569 4.2843 0
M  V30 4909 H 456.329 4.19757 5.33836 0
M  V30 4910 H 454.275 2.12779 6.20533 0
M  V30 4911 H 454.192 3.83052 6.51772 0
M  V30 4912 H 455.46 2.88649 7.24087 0
M  V30 4913 N 459.689 -1.00246 1.21608 0
M  V30 4914 C 460.917 -1.77631 1.06089 0
M  V30 4915 C 461.332 -1.84746 -0.38916 0
M  V30 4916 O 460.689 -1.31068 -1.26994 0
M  V30 4917 C 460.74 -3.21415 1.65453 0
M  V30 4918 O 460.461 -3.14703 3.04785 0
M  V30 4919 C 461.962 -4.15289 1.55079 0
M  V30 4920 H 459.182 -0.558162 0.37242 0
M  V30 4921 H 461.726 -1.26093 1.60999 0
M  V30 4922 H 459.881 -3.70053 1.14629 0
M  V30 4923 H 460.295 -4.05056 3.33212 0
M  V30 4924 H 461.769 -5.13965 2.01355 0
M  V30 4925 H 462.246 -4.36279 0.505665 0
M  V30 4926 H 462.852 -3.72543 2.05163 0
M  V30 4927 N 461.167 -1.02423 -1.1978 0
M  V30 4928 C 462.414 -0.717988 -1.89344 0
M  V30 4929 C 462.742 0.753036 -1.79331 0
M  V30 4930 O 461.997 1.56355 -1.17692 0
M  V30 4931 C 462.296 -1.1088 -3.39765 0
M  V30 4932 C 461.962 -2.57731 -3.6998 0
M  V30 4933 C 460.624 -2.97854 -3.77937 0
M  V30 4934 C 462.976 -3.52763 -3.83677 0
M  V30 4935 C 460.304 -4.31931 -3.97054 0
M  V30 4936 C 462.656 -4.86538 -4.04306 0
M  V30 4937 C 461.32 -5.26356 -4.10494 0
M  V30 4938 H 460.59 -0.26273 -0.692859 0
M  V30 4939 H 463.237 -1.28623 -1.41875 0
M  V30 4940 H 461.542 -0.459094 -3.89101 0
M  V30 4941 H 463.239 -0.849432 -3.919 0
M  V30 4942 H 459.829 -2.25646 -3.64393 0
M  V30 4943 H 464.013 -3.2292 -3.76877 0
M  V30 4944 H 459.269 -4.62324 -4.00083 0
M  V30 4945 H 463.443 -5.60093 -4.13846 0
M  V30 4946 H 461.07 -6.3026 -4.2506 0
M  V30 4947 N 462.645 1.35699 -0.801477 0
M  V30 4948 C 463.592 2.29876 -0.206294 0
M  V30 4949 C 464.562 1.52565 0.656752 0
M  V30 4950 O 465.747 1.81024 0.602906 0
M  V30 4951 C 462.887 3.39052 0.643272 0
M  V30 4952 C 462 4.31335 -0.239644 0
M  V30 4953 C 461.135 5.27599 0.61744 0
M  V30 4954 C 460.174 6.11521 -0.26619 0
M  V30 4955 N 459.311 6.99938 0.550571 0
M  V30 4956 H 464.151 2.80187 -1.01484 0
M  V30 4957 H 461.688 1.37902 -0.511997 0
M  V30 4958 H 463.646 4.0101 1.15094 0
M  V30 4959 H 462.276 2.9003 1.41713 0
M  V30 4960 H 461.328 3.70426 -0.865381 0
M  V30 4961 H 462.64 4.90243 -0.919985 0
M  V30 4962 H 461.794 5.94906 1.19045 0
M  V30 4963 H 460.533 4.69176 1.33137 0
M  V30 4964 H 459.538 5.43166 -0.851507 0
M  V30 4965 H 460.763 6.72022 -0.9779 0
M  V30 4966 H 458.709 6.44008 1.24856 0
M  V30 4967 H 458.626 7.55966 -0.071832 0
M  V30 4968 H 459.894 7.71599 1.10702 0
M  V30 4969 N 464.123 0.554532 1.47522 0
M  V30 4970 C 465.033 -0.197865 2.33764 0
M  V30 4971 C 466.049 -0.914576 1.48025 0
M  V30 4972 O 467.225 -0.884067 1.80959 0
M  V30 4973 C 464.29 -1.21628 3.24665 0
M  V30 4974 C 463.351 -0.507283 4.26292 0
M  V30 4975 C 462.584 -1.47718 5.1285 0
M  V30 4976 O 462.807 -2.7118 5.01814 0
M  V30 4977 O 461.741 -1.00313 5.93482 0
M  V30 4978 H 465.567 0.50949 2.99396 0
M  V30 4979 H 463.152 0.315176 1.46038 0
M  V30 4980 H 465.034 -1.80421 3.80823 0
M  V30 4981 H 463.709 -1.9056 2.61665 0
M  V30 4982 H 462.616 0.121778 3.73902 0
M  V30 4983 H 463.949 0.140544 4.91999 0
M  V30 4984 N 465.601 -1.54893 0.290851 0
M  V30 4985 C 466.85 -1.99111 -0.322113 0
M  V30 4986 C 467.163 -1.18283 -1.55784 0
M  V30 4987 O 468.369 -1.5272 -2.24475 0
M  V30 4988 C 466.825 -3.54442 -0.624438 0
M  V30 4989 C 466.433 -4.44066 0.592373 0
M  V30 4990 C 468.177 -4.07211 -1.19916 0
M  V30 4991 C 466.084 -5.90812 0.263762 0
M  V30 4992 H 465.014 -0.743712 -0.124133 0
M  V30 4993 H 467.665 -1.79132 0.39797 0
M  V30 4994 H 466.047 -3.70281 -1.40384 0
M  V30 4995 H 467.221 -4.39999 1.36886 0
M  V30 4996 H 465.536 -4.02015 1.08502 0
M  V30 4997 H 468.133 -5.14407 -1.45909 0
M  V30 4998 H 468.476 -3.57196 -2.13815 0
M  V30 4999 H 469.009 -3.94873 -0.481687 0
M  V30 5000 H 465.748 -6.44955 1.17105 0
M  V30 5001 H 465.268 -5.97911 -0.475655 0
M  V30 5002 H 466.947 -6.46852 -0.138354 0
M  V30 5003 N 467.08 -0.0183926 -1.57589 0
M  V30 5004 C 468.329 0.66185 -1.90532 0
M  V30 5005 C 468.642 1.73904 -0.895366 0
M  V30 5006 O 469.848 2.47518 -1.11566 0
M  V30 5007 C 468.304 1.22844 -3.38286 0
M  V30 5008 C 467.912 0.185103 -4.47617 0
M  V30 5009 C 469.656 1.88581 -3.80312 0
M  V30 5010 C 467.563 0.762723 -5.86461 0
M  V30 5011 H 466.493 0.250972 -0.711006 0
M  V30 5012 H 469.144 -0.0819435 -1.83317 0
M  V30 5013 H 467.526 2.0235 -3.40398 0
M  V30 5014 H 468.7 -0.58671 -4.5705 0
M  V30 5015 H 467.015 -0.372889 -4.14727 0
M  V30 5016 H 469.612 2.32735 -4.81392 0
M  V30 5017 H 469.955 2.72408 -3.14801 0
M  V30 5018 H 470.488 1.15782 -3.80578 0
M  V30 5019 H 467.227 -0.0371713 -6.55489 0
M  V30 5020 H 466.747 1.50327 -5.80656 0
M  V30 5021 H 468.426 1.25576 -6.34697 0
M  V30 5022 N 468.558 1.5553 0.254621 0
M  V30 5023 C 469.798 1.7876 0.991179 0
M  V30 5024 C 470.162 0.586669 1.82817 0
M  V30 5025 O 471.363 0.697585 2.5959 0
M  V30 5026 C 469.634 3.06679 1.83529 0
M  V30 5027 S 471.193 3.511 2.632 0
M  V30 5028 H 468.011 0.627916 0.333531 0
M  V30 5029 H 470.613 1.93766 0.259778 0
M  V30 5030 H 469.317 3.92158 1.20996 0
M  V30 5031 H 468.848 2.94388 2.60958 0
M  V30 5032 H 470.863 3.11823 3.8598 0
M  V30 5033 N 470.036 -0.519951 1.48776 0
M  V30 5034 C 471.276 -1.2856 1.58908 0
M  V30 5035 C 471.64 -1.90212 0.261418 0
M  V30 5036 O 472.841 -2.67746 0.237791 0
M  V30 5037 C 471.112 -2.33836 2.70288 0
M  V30 5038 S 472.671 -3.19992 3.0025 0
M  V30 5039 H 469.489 -0.43717 0.560717 0
M  V30 5040 H 472.091 -0.591205 1.86346 0
M  V30 5041 H 470.795 -1.87041 3.653 0
M  V30 5042 H 470.326 -3.07969 2.44783 0
M  V30 5043 H 472.341 -4.34122 2.40317 0
M  V30 5044 N 471.514 -1.37532 -0.769588 0
M  V30 5045 C 472.744 -1.35861 -1.55645 0
M  V30 5046 C 473.152 0.0574398 -1.89113 0
M  V30 5047 O 472.495 1.03021 -1.52093 0
M  V30 5048 C 472.557 -2.13431 -2.89288 0
M  V30 5049 C 472.221 -3.62378 -2.78444 0
M  V30 5050 C 473.218 -4.56215 -2.49326 0
M  V30 5051 C 470.903 -4.05529 -2.96398 0
M  V30 5052 C 472.897 -5.91181 -2.38294 0
M  V30 5053 C 470.584 -5.40579 -2.84987 0
M  V30 5054 C 471.582 -6.33218 -2.55975 0
M  V30 5055 O 471.27 -7.65787 -2.44594 0
M  V30 5056 H 471.002 -0.467001 -0.48876 0
M  V30 5057 H 473.556 -1.81505 -0.961515 0
M  V30 5058 H 471.786 -1.62481 -3.50909 0
M  V30 5059 H 473.475 -2.04368 -3.50697 0
M  V30 5060 H 474.241 -4.24187 -2.35139 0
M  V30 5061 H 470.12 -3.33781 -3.1798 0
M  V30 5062 H 473.664 -6.63457 -2.15571 0
M  V30 5063 H 469.561 -5.72209 -2.98743 0
M  V30 5064 H 470.329 -7.76132 -2.59927 0
M  V30 5065 N 472.992 0.995999 -1.22138 0
M  V30 5066 C 474.403 1.54961 -1.04135 0
M  V30 5067 C 474.754 1.92159 0.396147 0
M  V30 5068 O 473.879 1.74435 1.28069 0
M  V30 5069 C 474.474 2.81581 -1.88408 0
M  V30 5070 C 473.033 3.33396 -1.74712 0
M  V30 5071 C 472.18 2.06509 -1.85066 0
M  V30 5072 H 475.131 0.817436 -1.36028 0
M  V30 5073 H 475.152 3.53822 -1.39966 0
M  V30 5074 H 474.664 2.54476 -2.93025 0
M  V30 5075 H 472.765 3.65416 -0.728159 0
M  V30 5076 H 472.878 4.04208 -2.57202 0
M  V30 5077 H 471.242 2.19925 -1.28472 0
M  V30 5078 H 472.025 1.81804 -2.91208 0
M  V30 5079 N 474.47 1.03057 1.19235 0
M  V30 5080 C 475.4 0.633497 2.24742 0
M  V30 5081 C 476.381 -0.358335 1.66283 0
M  V30 5082 O 477.566 -0.240676 1.92703 0
M  V30 5083 C 474.696 -0.0147648 3.47297 0
M  V30 5084 C 473.65 0.899527 4.18441 0
M  V30 5085 C 472.976 0.116281 5.34574 0
M  V30 5086 C 474.276 2.21404 4.73051 0
M  V30 5087 H 475.97 1.5155 2.58211 0
M  V30 5088 H 473.516 0.73014 1.24117 0
M  V30 5089 H 475.469 -0.304202 4.20301 0
M  V30 5090 H 474.193 -0.931577 3.13032 0
M  V30 5091 H 472.852 1.17319 3.47321 0
M  V30 5092 H 472.5 -0.802619 4.96555 0
M  V30 5093 H 472.2 0.725293 5.83107 0
M  V30 5094 H 473.724 -0.166376 6.10373 0
M  V30 5095 H 475.138 1.98601 5.37802 0
M  V30 5096 H 473.535 2.77512 5.32078 0
M  V30 5097 H 474.605 2.86752 3.91026 0
M  V30 5098 N 475.948 -1.35272 0.808662 0
M  V30 5099 C 477.196 -1.98316 0.389233 0
M  V30 5100 C 477.517 -1.64465 -1.04767 0
M  V30 5101 O 476.787 -0.928175 -1.72516 0
M  V30 5102 H 475.367 -0.733585 0.140935 0
M  V30 5103 H 478.029 -1.6515 1.03496 0
M  V30 5104 H 477.125 -3.08123 0.496631 0
M  V30 5105 N 477.426 -0.562348 -1.47226 0
M  V30 5106 C 478.674 -0.0401371 -2.0206 0
M  V30 5107 C 478.995 1.3165 -1.43852 0
M  V30 5108 O 478.265 1.85976 -0.615599 0
M  V30 5109 H 476.845 -0.0118479 -0.746906 0
M  V30 5110 H 479.507 -0.73352 -1.8057 0
M  V30 5111 H 478.603 0.0441254 -3.12069 0
M  V30 5112 N 478.904 1.54736 -0.299062 0
M  V30 5113 C 479.834 2.26409 0.571085 0
M  V30 5114 C 480.815 1.2629 1.13951 0
M  V30 5115 O 482 1.55059 1.16921 0
M  V30 5116 C 479.13 3.00338 1.74396 0
M  V30 5117 C 478.084 4.07588 1.30599 0
M  V30 5118 C 477.41 4.69222 2.56387 0
M  V30 5119 C 478.71 5.20455 0.438645 0
M  V30 5120 H 480.404 2.99388 -0.0266991 0
M  V30 5121 H 477.95 1.43993 -0.0142812 0
M  V30 5122 H 479.903 3.49198 2.35878 0
M  V30 5123 H 478.627 2.24934 2.36796 0
M  V30 5124 H 477.286 3.59575 0.71424 0
M  V30 5125 H 476.934 3.9046 3.17097 0
M  V30 5126 H 476.634 5.41653 2.27784 0
M  V30 5127 H 478.158 5.20844 3.18675 0
M  V30 5128 H 479.572 5.65221 0.959085 0
M  V30 5129 H 477.969 5.99594 0.246466 0
M  V30 5130 H 479.039 4.8192 -0.536738 0
M  V30 5131 N 480.382 0.0267497 1.57577 0
M  V30 5132 C 481.622 -0.65659 1.93567 0
M  V30 5133 C 481.986 -1.69429 0.903213 0
M  V30 5134 O 483.187 -2.42994 1.14923 0
M  V30 5135 C 481.458 -1.25912 3.34486 0
M  V30 5136 S 483.017 -1.96386 3.924 0
M  V30 5137 H 479.835 -0.216237 0.67732 0
M  V30 5138 H 482.437 0.0898475 1.95293 0
M  V30 5139 H 481.141 -0.491405 4.07447 0
M  V30 5140 H 480.672 -2.04291 3.36198 0
M  V30 5141 H 482.687 -3.24202 3.75643 0
M  V30 5142 N 481.861 -1.55662 -0.24637 0
M  V30 5143 C 483.138 -1.68272 -0.997198 0
M  V30 5144 C 483.518 -0.566785 -2.03349 0
M  V30 5145 O 482.866 0.429688 -2.24424 0
M  V30 5146 C 483.076 -3.08594 -1.63006 0
M  V30 5147 C 484.424 -3.6721 -2.13171 0
M  V30 5148 O 485.448 -3.11397 -1.72946 0
M  V30 5149 O 484.307 -4.65054 -2.87031 0
M  V30 5150 H 481.401 -0.684429 -0.464205 0
M  V30 5151 H 483.947 -1.67993 -0.240114 0
M  V30 5152 H 482.719 -3.81264 -0.880527 0
M  V30 5153 H 482.342 -3.12886 -2.45333 0
M  V30 5154 N 483.339 0.512053 -1.4905 0
M  V30 5155 C 484.269 1.62365 -1.67809 0
M  V30 5156 C 485.25 1.61737 -0.526809 0
M  V30 5157 O 486.435 1.78651 -0.761404 0
M  V30 5158 C 483.565 3.00895 -1.73435 0
M  V30 5159 C 482.519 3.16387 -2.88242 0
M  V30 5160 C 481.845 4.56157 -2.78971 0
M  V30 5161 C 483.145 2.97457 -4.29321 0
M  V30 5162 H 484.839 1.46921 -2.60873 0
M  V30 5163 H 482.385 0.705379 -1.2554 0
M  V30 5164 H 484.338 3.78549 -1.85145 0
M  V30 5165 H 483.062 3.17403 -0.769619 0
M  V30 5166 H 481.721 2.41155 -2.76116 0
M  V30 5167 H 481.369 4.69525 -1.8043 0
M  V30 5168 H 481.069 4.67465 -3.5602 0
M  V30 5169 H 482.593 5.35886 -2.92675 0
M  V30 5170 H 484.007 3.64888 -4.42187 0
M  V30 5171 H 482.404 3.20245 -5.07507 0
M  V30 5172 H 483.474 1.93692 -4.44535 0
M  V30 5173 N 484.817 1.37938 0.762283 0
M  V30 5174 C 486.042 1.37059 1.55659 0
M  V30 5175 C 486.467 -0.0396123 1.88058 0
M  V30 5176 O 485.825 -1.01929 1.49934 0
M  V30 5177 C 485.873 2.22494 2.83776 0
M  V30 5178 O 484.977 1.63607 3.78559 0
M  V30 5179 H 484.318 0.467892 0.47114 0
M  V30 5180 H 486.848 1.81587 0.942725 0
M  V30 5181 H 486.858 2.36045 3.32786 0
M  V30 5182 H 485.533 3.24993 2.59524 0
M  V30 5183 H 484.11 1.5915 3.37233 0
M  V30 5184 N 486.295 -0.989507 1.22664 0
M  V30 5185 C 487.52 -1.77031 1.08051 0
M  V30 5186 C 487.945 -1.84535 -0.364483 0
M  V30 5187 O 487.303 -1.3003 -1.2634 0
M  V30 5188 C 487.351 -3.18 1.70024 0
M  V30 5189 O 486.455 -4.01161 0.956216 0
M  V30 5190 H 485.796 -0.545008 0.379292 0
M  V30 5191 H 488.326 -1.24277 1.62531 0
M  V30 5192 H 488.336 -3.68616 1.74888 0
M  V30 5193 H 487.011 -3.11853 2.75174 0
M  V30 5194 H 485.588 -3.59687 0.98384 0
M  V30 5195 N 487.773 -1.03688 -1.18687 0
M  V30 5196 C 489.189 -0.755413 -1.4059 0
M  V30 5197 C 489.389 0.656659 -1.905 0
M  V30 5198 O 488.445 1.42144 -2.08689 0
M  V30 5199 C 489.758 -1.7983 -2.41001 0
M  V30 5200 C 491.306 -1.81877 -2.54735 0
M  V30 5201 C 491.781 -2.85148 -3.58406 0
M  V30 5202 N 493.272 -2.84015 -3.6591 0
M  V30 5203 C 494.007 -3.60573 -4.45841 0
M  V30 5204 N 493.503 -4.46871 -5.29413 0
M  V30 5205 N 495.296 -3.49079 -4.40568 0
M  V30 5206 H 487.447 -1.94818 -0.846148 0
M  V30 5207 H 489.71 -0.842727 -0.434184 0
M  V30 5208 H 489.416 -2.81097 -2.1137 0
M  V30 5209 H 489.29 -1.62727 -3.40294 0
M  V30 5210 H 491.677 -0.812836 -2.83685 0
M  V30 5211 H 491.758 -2.03057 -1.55568 0
M  V30 5212 H 491.402 -3.85918 -3.30197 0
M  V30 5213 H 491.332 -2.61224 -4.57241 0
M  V30 5214 H 493.823 -2.21431 -3.0623 0
M  V30 5215 H 494.136 -5.02007 -5.87545 0
M  V30 5216 H 492.481 -4.5094 -5.28846 0
M  V30 5217 H 495.672 -2.81066 -3.74325 0
M  V30 5218 H 495.845 -4.08994 -5.02621 0
M  V30 5219 N 489.251 1.34841 -0.815825 0
M  V30 5220 C 490.481 2.02436 -0.412695 0
M  V30 5221 C 490.889 1.61604 0.983906 0
M  V30 5222 O 490.232 0.813729 1.64694 0
M  V30 5223 C 490.294 3.56953 -0.427182 0
M  V30 5224 C 489.958 4.21083 -1.77589 0
M  V30 5225 C 490.955 4.42107 -2.73564 0
M  V30 5226 C 488.64 4.58006 -2.06243 0
M  V30 5227 C 490.634 4.99169 -3.9637 0
M  V30 5228 C 488.321 5.1478 -3.2931 0
M  V30 5229 C 489.319 5.35304 -4.24191 0
M  V30 5230 O 489.007 5.90878 -5.45086 0
M  V30 5231 H 488.739 0.655631 -0.164695 0
M  V30 5232 H 491.293 1.73246 -1.1034 0
M  V30 5233 H 489.523 3.85372 0.320175 0
M  V30 5234 H 491.212 4.05875 -0.0450875 0
M  V30 5235 H 491.978 4.13953 -2.52721 0
M  V30 5236 H 487.857 4.41339 -1.33196 0
M  V30 5237 H 491.401 5.15105 -4.70439 0
M  V30 5238 H 487.298 5.42362 -3.5002 0
M  V30 5239 H 488.066 6.0932 -5.46508 0
M  V30 5240 O 490.768 0.711044 1.45005 0
M  V30 5241 H 491.459 0.254759 1.92017 0
M  V30 END ATOM
M  V30 BEGIN BOND
M  V30 END BOND
M  V30 END CTAB
M  END
$$$$
