drugbank_target|P32397 Protoporphyrinogen oxidase (DB07338)
 OpenBabel12092120413D

  0  0  0     0  0            999 V3000
M  V30 BEGIN CTAB
M  V30 COUNTS 7258 7324 0 0 0
M  V30 BEGIN ATOM
M  V30 1 H -0.908 1.98254 -0.117106 0
M  V30 2 N 0 1.576 0 0
M  V30 3 C 0.933 2.03868 1.02534 0
M  V30 4 C 1.911 0.928543 1.3348 0
M  V30 5 O 3.095 1.19667 1.45644 0
M  V30 6 C 0.222 2.43627 2.35294 0
M  V30 7 C -0.732 3.65373 2.2001 0
M  V30 8 S 0.101 5.13292 1.52614 0
M  V30 9 C 1.257 5.56322 2.86805 0
M  V30 10 H 1.49 2.90518 0.631377 0
M  V30 11 H -0.977 1.52953 0.210867 0
M  V30 12 H 0.981 2.67203 3.11629 0
M  V30 13 H -0.358 1.57376 2.7183 0
M  V30 14 H -1.165 3.90944 3.18086 0
M  V30 15 H -1.563 3.418 1.51819 0
M  V30 16 H 0.729 5.58782 3.83104 0
M  V30 17 H 1.672 6.56266 2.65933 0
M  V30 18 H 2.08 4.83886 2.90714 0
M  V30 19 N 1.4781 -0.272755 1.55222 0
M  V30 20 C 2.7031 -1.02683 1.80197 0
M  V30 21 C 3.1281 -1.79142 0.573551 0
M  V30 22 O 2.4861 -1.74917 -0.476849 0
M  V30 23 C 2.5341 -1.9609 3.02624 0
M  V30 24 O 1.6381 -3.04863 2.77727 0
M  V30 25 H 0.9791 -0.293557 0.595584 0
M  V30 26 H 3.5091 -0.30159 2.02365 0
M  V30 27 H 3.5191 -2.38039 3.31363 0
M  V30 28 H 2.1941 -1.39851 3.91682 0
M  V30 29 H 0.7711 -2.67228 2.60084 0
M  V30 30 N 2.9562 -1.48159 -0.537278 0
M  V30 31 C 4.2332 -1.46291 -1.29839 0
M  V30 32 C 4.6132 -0.170613 -2.10409 0
M  V30 33 O 3.9612 0.847746 -2.12192 0
M  V30 34 C 4.1712 -2.72055 -2.18603 0
M  V30 35 C 5.5192 -3.20087 -2.7898 0
M  V30 36 O 6.5432 -2.72921 -2.28894 0
M  V30 37 O 5.4022 -4.02138 -3.70064 0
M  V30 38 H 2.4962 -0.583906 -0.585647 0
M  V30 39 H 5.0422 -1.60384 -0.554534 0
M  V30 40 H 3.8142 -3.57628 -1.58801 0
M  V30 41 H 3.4372 -2.60646 -3.00249 0
M  V30 42 N 4.4343 0.785586 -1.36625 0
M  V30 43 C 5.6823 1.54057 -1.30808 0
M  V30 44 C 6.0033 1.94683 0.111157 0
M  V30 45 O 5.2733 1.65241 1.05224 0
M  V30 46 H 3.8533 0.571354 -0.481211 0
M  V30 47 H 6.5153 0.935821 -1.70963 0
M  V30 48 H 5.6113 2.44637 -1.93801 0
M  V30 49 N 5.9124 1.20967 1.01018 0
M  V30 50 C 6.8594 0.964281 2.09691 0
M  V30 51 C 7.8294 -0.107853 1.65749 0
M  V30 52 O 9.0144 0.0381987 1.90762 0
M  V30 53 C 6.1544 0.52943 3.41015 0
M  V30 54 C 5.2674 1.67043 3.98398 0
M  V30 55 C 4.4024 1.18525 5.17808 0
M  V30 56 C 3.4414 2.29892 5.67288 0
M  V30 57 N 2.5784 1.82546 6.77954 0
M  V30 58 H 7.4184 1.89463 2.30017 0
M  V30 59 H 4.9554 0.944289 1.1279 0
M  V30 60 H 6.9134 0.258588 4.16398 0
M  V30 61 H 5.5434 -0.363919 3.20742 0
M  V30 62 H 4.5954 2.05603 3.20049 0
M  V30 63 H 5.9074 2.50877 4.31117 0
M  V30 64 H 5.0614 0.870762 6.00419 0
M  V30 65 H 3.8004 0.316887 4.86669 0
M  V30 66 H 2.8054 2.6215 4.83278 0
M  V30 67 H 4.0304 3.17216 6.00459 0
M  V30 68 H 1.9764 0.980454 6.48632 0
M  V30 69 H 1.8934 2.59956 7.09901 0
M  V30 70 H 3.1614 1.54115 7.64113 0
M  V30 71 N 7.3905 -1.2043 1.01659 0
M  V30 72 C 8.3375 -2.23215 0.586822 0
M  V30 73 C 9.3075 -1.61382 -0.393085 0
M  V30 74 O 10.4925 -1.88544 -0.292525 0
M  V30 75 C 7.6325 -3.45032 -0.0687464 0
M  V30 76 C 6.7455 -4.21296 0.955724 0
M  V30 77 C 5.8805 -5.30507 0.271208 0
M  V30 78 C 4.9195 -5.98515 1.28244 0
M  V30 79 N 4.0565 -6.99316 0.62459 0
M  V30 80 H 8.8965 -2.59336 1.46796 0
M  V30 81 H 6.4335 -1.27431 0.734836 0
M  V30 82 H 8.3915 -4.1459 -0.465965 0
M  V30 83 H 7.0215 -3.09604 -0.913529 0
M  V30 84 H 6.0735 -3.50803 1.4711 0
M  V30 85 H 7.3855 -4.6803 1.72479 0
M  V30 86 H 6.5395 -6.06428 -0.18151 0
M  V30 87 H 5.2785 -4.8481 -0.530163 0
M  V30 88 H 4.2835 -5.21355 1.74554 0
M  V30 89 H 5.5085 -6.46298 2.08509 0
M  V30 90 H 3.4545 -6.55812 -0.156914 0
M  V30 91 H 3.3715 -7.44178 1.33172 0
M  V30 92 H 4.6395 -7.79255 0.195462 0
M  V30 93 N 8.8686 -0.792821 -1.36206 0
M  V30 94 C 9.8186 -0.166598 -2.27391 0
M  V30 95 C 10.8026 0.651479 -1.47121 0
M  V30 96 O 11.9946 0.510994 -1.69463 0
M  V30 97 C 9.1236 0.695033 -3.36191 0
M  V30 98 C 8.2096 -0.132019 -4.23894 0
M  V30 99 N 8.6006 -1.18822 -4.91645 0
M  V30 100 C 6.8986 0.0885952 -4.45912 0
M  V30 101 C 7.5996 -1.69198 -5.56549 0
M  V30 102 N 6.5756 -1.00065 -5.34311 0
M  V30 103 H 10.3776 -0.974947 -2.77258 0
M  V30 104 H 7.8916 -0.632616 -1.49572 0
M  V30 105 H 9.8886 1.1596 -4.00448 0
M  V30 106 H 8.5486 1.50189 -2.87877 0
M  V30 107 H 9.5596 -1.57069 -4.93507 0
M  V30 108 H 6.2366 0.865688 -4.08426 0
M  V30 109 H 7.6266 -2.57395 -6.20643 0
M  V30 110 N 10.3467 1.47872 -0.545128 0
M  V30 111 C 11.5927 2.02793 -0.0166104 0
M  V30 112 C 11.9257 1.41987 1.32489 0
M  V30 113 O 11.2007 0.571045 1.85928 0
M  V30 114 C 11.4837 3.59989 0.0893294 0
M  V30 115 C 11.3367 4.3125 -1.27841 0
M  V30 116 C 12.6557 4.32606 0.808724 0
M  V30 117 H 9.7747 0.736962 -0.00751035 0
M  V30 118 H 12.4167 1.76433 -0.705085 0
M  V30 119 H 10.5667 3.82579 0.675681 0
M  V30 120 H 12.2387 4.20035 -1.90704 0
M  V30 121 H 10.4817 3.92076 -1.85632 0
M  V30 122 H 11.1527 5.39736 -1.15713 0
M  V30 123 H 13.6287 4.14936 0.310992 0
M  V30 124 H 12.5047 5.42251 0.851782 0
M  V30 125 H 12.7657 4.00963 1.86229 0
M  V30 126 N 11.8248 0.280983 1.55075 0
M  V30 127 C 13.0708 -0.33461 2.00021 0
M  V30 128 C 13.4038 -1.55063 1.16915 0
M  V30 129 O 12.6788 -1.93006 0.240646 0
M  V30 130 C 12.9618 -0.711007 3.53011 0
M  V30 131 C 12.8148 0.512766 4.46868 0
M  V30 132 C 14.1338 -1.54522 4.12081 0
M  V30 133 H 11.2528 -0.120147 0.727141 0
M  V30 134 H 13.8948 0.389097 1.85973 0
M  V30 135 H 12.0448 -1.32761 3.65112 0
M  V30 136 H 13.7168 1.15131 4.46702 0
M  V30 137 H 11.9598 1.14975 4.18286 0
M  V30 138 H 12.6308 0.205556 5.51617 0
M  V30 139 H 15.1068 -1.02442 4.03293 0
M  V30 140 H 13.9828 -1.77739 5.19327 0
M  V30 141 H 14.2438 -2.52813 3.62682 0
M  V30 142 N 13.3029 -1.57598 0.00835791 0
M  V30 143 C 14.5519 -1.90107 -0.673968 0
M  V30 144 C 14.8649 -0.884275 -1.7447 0
M  V30 145 O 16.0709 -1.09987 -2.48224 0
M  V30 146 C 14.5269 -3.37497 -1.24995 0
M  V30 147 C 14.1349 -4.47491 -0.2136 0
M  V30 148 C 15.8789 -3.79104 -1.90999 0
M  V30 149 C 13.7859 -5.85963 -0.80005 0
M  V30 150 H 12.7159 -0.709393 -0.255495 0
M  V30 151 H 15.3669 -1.83365 0.0702693 0
M  V30 152 H 13.7489 -3.39102 -2.04513 0
M  V30 153 H 14.9229 -4.57414 0.557596 0
M  V30 154 H 13.2379 -4.14956 0.346474 0
M  V30 155 H 15.8349 -4.79901 -2.35795 0
M  V30 156 H 16.1779 -3.1306 -2.74407 0
M  V30 157 H 16.7109 -3.79833 -1.18203 0
M  V30 158 H 13.4499 -6.555 -0.00456708 0
M  V30 159 H 12.9699 -5.79687 -1.54021 0
M  V30 160 H 14.6489 -6.33884 -1.29615 0
M  V30 161 N 14.781 0.264519 -1.55364 0
M  V30 162 C 16.03 0.992812 -1.75574 0
M  V30 163 C 16.343 1.87142 -0.568979 0
M  V30 164 O 17.549 2.63513 -0.653682 0
M  V30 165 C 16.005 1.81519 -3.10771 0
M  V30 166 C 15.613 0.984839 -4.37041 0
M  V30 167 C 17.357 2.53727 -3.40327 0
M  V30 168 C 15.264 1.80209 -5.63275 0
M  V30 169 H 14.194 0.374412 -0.65447 0
M  V30 170 H 16.845 0.248138 -1.81815 0
M  V30 171 H 15.227 2.60115 -2.98591 0
M  V30 172 H 16.401 0.242455 -4.60162 0
M  V30 173 H 14.716 0.37691 -4.14691 0
M  V30 174 H 17.313 3.15292 -4.3185 0
M  V30 175 H 17.656 3.24447 -2.60845 0
M  V30 176 H 18.189 1.82156 -3.53644 0
M  V30 177 H 14.928 1.13896 -6.45529 0
M  V30 178 H 14.448 2.52022 -5.44284 0
M  V30 179 H 16.127 2.37364 -6.01887 0
M  V30 180 N 16.2591 1.48442 0.529413 0
M  V30 181 C 17.5071 1.56179 1.28267 0
M  V30 182 C 17.8281 0.237721 1.93546 0
M  V30 183 O 17.0981 -0.740779 1.81354 0
M  V30 184 H 15.6781 0.575367 0.476405 0
M  V30 185 H 18.3401 1.84909 0.61602 0
M  V30 186 H 17.4361 2.34312 2.06165 0
M  V30 187 N 17.7372 -0.778329 1.37039 0
M  V30 188 C 18.9852 -1.53361 1.31623 0
M  V30 189 C 19.3062 -1.94739 -0.100831 0
M  V30 190 O 18.5762 -1.65797 -1.04347 0
M  V30 191 H 17.1562 -0.568794 0.484234 0
M  V30 192 H 19.8182 -0.926742 1.71457 0
M  V30 193 H 18.9142 -2.43606 1.95096 0
M  V30 194 N 19.2153 -1.21501 -1.00376 0
M  V30 195 C 20.4633 -1.03095 -1.73827 0
M  V30 196 C 20.7843 0.436341 -1.90055 0
M  V30 197 O 20.0543 1.31466 -1.45236 0
M  V30 198 H 18.6343 -0.378487 -0.644016 0
M  V30 199 H 21.2963 -1.52831 -1.20949 0
M  V30 200 H 20.3923 -1.49991 -2.73695 0
M  V30 201 N 20.6934 1.19889 -1.02296 0
M  V30 202 C 21.9424 1.88743 -0.711257 0
M  V30 203 C 22.2554 1.80112 0.762817 0
M  V30 204 O 23.4614 2.44161 1.18733 0
M  V30 205 C 21.9174 3.38525 -1.22185 0
M  V30 206 C 21.5254 3.55727 -2.72328 0
M  V30 207 C 23.2694 4.12893 -0.985864 0
M  V30 208 C 21.1764 4.99369 -3.16835 0
M  V30 209 H 20.1064 0.706885 -0.262353 0
M  V30 210 H 22.7574 1.35586 -1.23648 0
M  V30 211 H 21.1394 3.91044 -0.624571 0
M  V30 212 H 22.3134 3.13564 -3.3766 0
M  V30 213 H 20.6284 2.94739 -2.9414 0
M  V30 214 H 23.2254 5.18813 -1.29374 0
M  V30 215 H 23.5684 4.16228 0.0775055 0
M  V30 216 H 24.1014 3.66494 -1.54684 0
M  V30 217 H 20.8404 5.01193 -4.22476 0
M  V30 218 H 20.3604 5.42317 -2.56228 0
M  V30 219 H 22.0394 5.67988 -3.09837 0
M  V30 220 N 22.1715 0.800033 1.35784 0
M  V30 221 C 23.3995 0.389606 2.03199 0
M  V30 222 C 23.8145 -0.997375 1.60306 0
M  V30 223 O 23.1715 -1.64154 0.797481 0
M  V30 224 C 23.2225 0.455855 3.58614 0
M  V30 225 O 22.9435 1.78815 3.99946 0
M  V30 226 C 24.4445 0.0374032 4.43284 0
M  V30 227 H 21.6645 0.159132 0.651857 0
M  V30 228 H 24.2085 1.08183 1.73541 0
M  V30 229 H 22.3635 -0.188057 3.86943 0
M  V30 230 H 22.7775 1.74636 4.94573 0
M  V30 231 H 24.2515 0.134882 5.51835 0
M  V30 232 H 24.7285 -1.01651 4.27275 0
M  V30 233 H 25.3345 0.654215 4.20238 0
M  V30 234 N 23.6496 -1.47581 0.552962 0
M  V30 235 C 24.8976 -2.02082 0.0272703 0
M  V30 236 C 25.2186 -1.4301 -1.32563 0
M  V30 237 O 24.4886 -0.603745 -1.86365 0
M  V30 238 H 23.0686 -0.746966 0.00709182 0
M  V30 239 H 25.7306 -1.81033 0.722008 0
M  V30 240 H 24.8266 -3.12034 -0.0639951 0
M  V30 241 N 25.1277 -0.289203 -1.54924 0
M  V30 242 C 26.0577 0.58549 -2.2604 0
M  V30 243 C 27.0387 1.14753 -1.25562 0
M  V30 244 O 28.2237 1.17906 -1.54311 0
M  V30 245 C 25.3537 1.76305 -2.99222 0
M  V30 246 C 24.3077 1.33191 -4.06748 0
M  V30 247 C 23.6337 2.5937 -4.6758 0
M  V30 248 C 24.9337 0.471775 -5.20165 0
M  V30 249 H 26.6277 -0.00763532 -2.99399 0
M  V30 250 H 24.1737 -0.00511229 -1.43999 0
M  V30 251 H 26.1267 2.38097 -3.47689 0
M  V30 252 H 24.8507 2.38223 -2.23422 0
M  V30 253 H 23.5097 0.737121 -3.59113 0
M  V30 254 H 23.1577 3.19576 -3.88433 0
M  V30 255 H 22.8577 2.31228 -5.40192 0
M  V30 256 H 24.3817 3.21985 -5.18804 0
M  V30 257 H 25.7957 0.995056 -5.64599 0
M  V30 258 H 24.1927 0.284639 -5.99425 0
M  V30 259 H 25.2627 -0.506041 -4.82252 0
M  V30 260 N 26.6058 1.57591 -0.0167156 0
M  V30 261 C 27.5688 2.08393 0.954204 0
M  V30 262 C 28.5688 0.996531 1.26198 0
M  V30 263 O 29.7588 1.25858 1.20438 0
M  V30 264 C 26.8908 2.5394 2.27436 0
M  V30 265 H 28.0838 2.95455 0.514451 0
M  V30 266 H 25.6368 1.54582 0.231089 0
M  V30 267 H 26.3718 1.70171 2.76066 0
M  V30 268 H 26.1568 3.33371 2.06412 0
M  V30 269 H 27.6468 2.93512 2.97053 0
M  V30 270 N 28.0839 -0.256276 1.55502 0
M  V30 271 C 29.0469 -1.30047 1.88734 0
M  V30 272 C 30.0469 -1.4154 0.763086 0
M  V30 273 O 31.2369 -1.40403 1.03115 0
M  V30 274 C 28.3689 -2.67953 2.10747 0
M  V30 275 H 29.5619 -1.01802 2.82093 0
M  V30 276 H 27.1149 -0.495134 1.4825 0
M  V30 277 H 27.8499 -3.01351 1.19825 0
M  V30 278 H 27.6349 -2.60993 2.92617 0
M  V30 279 H 29.1249 -3.43368 2.37673 0
M  V30 280 N 29.562 -1.4872 -0.521534 0
M  V30 281 C 30.525 -1.63379 -1.60748 0
M  V30 282 C 31.525 -0.50661 -1.52611 0
M  V30 283 O 32.715 -0.772601 -1.5613 0
M  V30 284 C 29.847 -1.61192 -3.00383 0
M  V30 285 H 31.04 -2.60217 -1.49087 0
M  V30 286 H 28.593 -1.37444 -0.744235 0
M  V30 287 H 29.328 -0.65863 -3.17541 0
M  V30 288 H 29.113 -2.43032 -3.07698 0
M  V30 289 H 30.603 -1.7466 -3.7932 0
M  V30 290 N 31.0401 0.771051 -1.3745 0
M  V30 291 C 32.2871 1.52963 -1.32697 0
M  V30 292 C 32.6151 1.94299 0.0883274 0
M  V30 293 O 31.8701 1.64397 1.0617 0
M  V30 294 C 32.1691 2.80676 -2.2126 0
M  V30 295 C 31.8351 2.58389 -3.69521 0
M  V30 296 C 30.4971 2.52019 -4.09927 0
M  V30 297 C 32.8491 2.38469 -4.63446 0
M  V30 298 C 30.1771 2.23721 -5.42371 0
M  V30 299 C 32.5291 2.11694 -5.96128 0
M  V30 300 C 31.1931 2.03769 -6.35637 0
M  V30 301 H 30.4631 0.559732 -0.485573 0
M  V30 302 H 33.1101 0.888083 -1.69662 0
M  V30 303 H 31.4151 3.49392 -1.77291 0
M  V30 304 H 33.1121 3.38557 -2.14895 0
M  V30 305 H 29.7021 2.6421 -3.37478 0
M  V30 306 H 33.8861 2.4238 -4.33089 0
M  V30 307 H 29.1421 2.16081 -5.71943 0
M  V30 308 H 33.3161 1.9528 -6.6846 0
M  V30 309 H 30.9431 1.81606 -7.38189 0
M  V30 310 N 32.5182 1.22032 0.997298 0
M  V30 311 C 33.7482 1.06686 1.76923 0
M  V30 312 C 34.1562 -0.385838 1.85224 0
M  V30 313 O 33.4992 -1.27929 1.31833 0
M  V30 314 C 33.5612 1.59802 3.22031 0
M  V30 315 C 33.2252 3.08362 3.37286 0
M  V30 316 C 34.2222 4.05835 3.24952 0
M  V30 317 C 31.9072 3.47727 3.6248 0
M  V30 318 C 33.9012 5.4066 3.37588 0
M  V30 319 C 31.5882 4.82701 3.74757 0
M  V30 320 C 32.5862 5.78977 3.62319 0
M  V30 321 O 32.2742 7.11502 3.74193 0
M  V30 322 H 32.0062 0.374767 0.562606 0
M  V30 323 H 34.5602 1.61991 1.26286 0
M  V30 324 H 32.7902 0.989003 3.73839 0
M  V30 325 H 34.4792 1.40184 3.80924 0
M  V30 326 H 35.2452 3.76766 3.05405 0
M  V30 327 H 31.1242 2.73317 3.7124 0
M  V30 328 H 34.6682 6.15788 3.27796 0
M  V30 329 H 30.5652 5.11453 3.9381 0
M  V30 330 H 31.3332 7.19019 3.91093 0
M  V30 331 N 33.9963 -1.19345 1.0293 0
M  V30 332 C 34.9293 -2.21347 0.555029 0
M  V30 333 C 35.9073 -1.57492 -0.404351 0
M  V30 334 O 37.0913 -1.85741 -0.321352 0
M  V30 335 C 34.2183 -3.38163 -0.19064 0
M  V30 336 C 33.2643 -4.20375 0.720236 0
M  V30 337 S 34.0973 -4.88371 2.19668 0
M  V30 338 C 35.2533 -6.08597 1.46153 0
M  V30 339 H 35.4863 -2.61235 1.41929 0
M  V30 340 H 33.0193 -1.29598 0.839272 0
M  V30 341 H 34.9773 -4.05871 -0.614724 0
M  V30 342 H 33.6383 -2.9671 -1.03063 0
M  V30 343 H 32.8313 -5.03793 0.14455 0
M  V30 344 H 32.4333 -3.57987 1.08266 0
M  V30 345 H 34.7253 -6.73354 0.748357 0
M  V30 346 H 35.6683 -6.7065 2.27233 0
M  V30 347 H 36.0763 -5.56297 0.958842 0
M  V30 348 N 35.4744 -0.807222 -1.35358 0
M  V30 349 C 36.3844 -0.219594 -2.3357 0
M  V30 350 C 37.4004 0.637734 -1.61892 0
M  V30 351 O 38.5764 0.549336 -1.93763 0
M  V30 352 C 35.6414 0.62158 -3.41083 0
M  V30 353 C 34.7024 -0.256315 -4.28534 0
M  V30 354 C 33.9354 0.544807 -5.30912 0
M  V30 355 O 34.1584 1.77944 -5.41934 0
M  V30 356 O 33.0924 -0.0646478 -6.01865 0
M  V30 357 H 36.9184 -1.03208 -2.85625 0
M  V30 358 H 34.5034 -0.569025 -1.38139 0
M  V30 359 H 36.3854 1.10067 -4.06772 0
M  V30 360 H 35.0604 1.41165 -2.91297 0
M  V30 361 H 33.9674 -0.782559 -3.65823 0
M  V30 362 H 35.3004 -1.01034 -4.81719 0
M  V30 363 N 36.9525 1.47285 -0.560781 0
M  V30 364 C 37.8995 2.30058 0.18491 0
M  V30 365 C 38.8695 1.39281 0.904986 0
M  V30 366 O 40.0545 1.68241 0.899979 0
M  V30 367 C 37.1945 3.23317 1.20666 0
M  V30 368 C 36.3075 4.29186 0.492285 0
M  V30 369 C 35.4425 5.09592 1.49964 0
M  V30 370 C 34.4815 6.07232 0.770439 0
M  V30 371 N 33.6185 6.80584 1.72479 0
M  V30 372 H 38.4585 2.93302 -0.527048 0
M  V30 373 H 35.9955 1.44568 -0.271738 0
M  V30 374 H 37.9535 3.75811 1.81168 0
M  V30 375 H 36.5835 2.61929 1.88661 0
M  V30 376 H 35.6355 3.7972 -0.227333 0
M  V30 377 H 36.9475 4.98738 -0.0787929 0
M  V30 378 H 36.1015 5.66254 2.17809 0
M  V30 379 H 34.8405 4.3995 2.10464 0
M  V30 380 H 33.8455 5.49745 0.0780846 0
M  V30 381 H 35.0705 6.78884 0.171134 0
M  V30 382 H 33.0165 6.1367 2.3183 0
M  V30 383 H 32.9335 7.46319 1.20596 0
M  V30 384 H 34.2015 7.41818 2.39428 0
M  V30 385 N 38.4306 0.297415 1.54768 0
M  V30 386 C 39.3406 -0.58983 2.27064 0
M  V30 387 C 40.3566 -1.15144 1.30453 0
M  V30 388 O 41.5326 -1.17699 1.63428 0
M  V30 389 C 38.5976 -1.74714 2.9946 0
M  V30 390 C 37.6586 -1.21997 4.11601 0
M  V30 391 C 36.8916 -2.32212 4.80535 0
M  V30 392 O 37.1146 -3.52036 4.48806 0
M  V30 393 O 36.0486 -1.99106 5.68014 0
M  V30 394 H 39.8746 -0.00348199 3.037 0
M  V30 395 H 37.4596 0.0640035 1.49263 0
M  V30 396 H 39.3416 -2.42147 3.44881 0
M  V30 397 H 38.0166 -2.32016 2.25722 0
M  V30 398 H 36.9236 -0.511458 3.70587 0
M  V30 399 H 38.2566 -0.692419 4.87305 0
M  V30 400 N 39.9087 -1.5758 0.0250728 0
M  V30 401 C 41.1577 -1.90811 -0.653767 0
M  V30 402 C 41.4707 -0.90273 -1.73523 0
M  V30 403 O 42.6767 -1.12614 -2.47043 0
M  V30 404 C 41.1327 -3.38804 -1.21409 0
M  V30 405 C 40.7407 -4.47692 -0.166126 0
M  V30 406 C 42.4847 -3.81108 -1.86967 0
M  V30 407 C 40.3917 -5.86779 -0.737856 0
M  V30 408 H 39.3217 -0.712063 -0.247956 0
M  V30 409 H 41.9727 -1.83281 0.0897137 0
M  V30 410 H 40.3547 -3.41252 -2.00905 0
M  V30 411 H 41.5287 -4.56797 0.606079 0
M  V30 412 H 39.8437 -4.14565 0.390466 0
M  V30 413 H 42.4407 -4.82375 -2.30692 0
M  V30 414 H 42.7837 -3.15953 -2.71071 0
M  V30 415 H 43.3167 -3.81065 -1.14167 0
M  V30 416 H 40.0557 -6.55468 0.0649577 0
M  V30 417 H 39.5757 -5.81288 -1.47864 0
M  V30 418 H 41.2547 -6.35223 -1.22884 0
M  V30 419 N 41.3868 0.248026 -1.55636 0
M  V30 420 C 42.3338 1.30707 -1.90222 0
M  V30 421 C 43.3038 1.47881 -0.756332 0
M  V30 422 O 44.4888 1.61883 -1.00988 0
M  V30 423 C 41.6288 2.65769 -2.20138 0
M  V30 424 C 40.7418 2.56612 -3.47526 0
M  V30 425 C 39.8768 3.8402 -3.67017 0
M  V30 426 C 38.9158 3.69476 -4.8801 0
M  V30 427 N 38.0528 4.88774 -5.04029 0
M  V30 428 H 42.8928 1.00512 -2.80538 0
M  V30 429 H 40.4298 0.485055 -1.38873 0
M  V30 430 H 42.3878 3.44386 -2.35487 0
M  V30 431 H 41.0178 2.94115 -1.33027 0
M  V30 432 H 40.0698 1.69571 -3.40514 0
M  V30 433 H 41.3818 2.41774 -4.36287 0
M  V30 434 H 40.5358 4.7108 -3.8232 0
M  V30 435 H 39.2748 4.01754 -2.76487 0
M  V30 436 H 38.2798 2.80799 -4.72686 0
M  V30 437 H 39.5048 3.53238 -5.8 0
M  V30 438 H 37.4508 5.0687 -4.16435 0
M  V30 439 H 37.3678 4.76562 -5.86877 0
M  V30 440 H 38.6358 5.77335 -5.23741 0
M  V30 441 N 42.8649 1.48995 0.513639 0
M  V30 442 C 43.7749 1.67443 1.64317 0
M  V30 443 C 44.7909 0.556947 1.64846 0
M  V30 444 O 45.9669 0.830082 1.83498 0
M  V30 445 C 43.0319 1.72515 3.00732 0
M  V30 446 C 42.0929 2.96009 3.1093 0
M  V30 447 C 41.3259 3.00829 4.40837 0
M  V30 448 O 41.5489 2.13594 5.28898 0
M  V30 449 O 40.4829 3.93168 4.55744 0
M  V30 450 H 44.3089 2.63106 1.51687 0
M  V30 451 H 41.8939 1.32588 0.688543 0
M  V30 452 H 43.7759 1.78277 3.81831 0
M  V30 453 H 42.4509 0.800278 3.13651 0
M  V30 454 H 41.3579 2.9577 2.29065 0
M  V30 455 H 42.6909 3.87934 3.02933 0
M  V30 456 N 44.343 -0.763751 1.37857 0
M  V30 457 C 45.29 -1.87726 1.34267 0
M  V30 458 C 46.26 -1.64807 0.206879 0
M  V30 459 O 47.445 -1.86613 0.397508 0
M  V30 460 C 44.585 -3.24896 1.16346 0
M  V30 461 C 43.698 -3.59716 2.39225 0
M  V30 462 C 42.833 -4.86137 2.14114 0
M  V30 463 C 41.872 -5.13711 3.32817 0
M  V30 464 N 41.009 -6.31323 3.07206 0
M  V30 465 H 45.849 -1.90129 2.29466 0
M  V30 466 H 43.386 -0.929433 1.14017 0
M  V30 467 H 45.344 -4.04036 1.03975 0
M  V30 468 H 43.974 -3.21847 0.247909 0
M  V30 469 H 43.026 -2.75498 2.62307 0
M  V30 470 H 44.338 -3.76027 3.27728 0
M  V30 471 H 43.492 -5.73198 1.9882 0
M  V30 472 H 42.231 -4.71945 1.22961 0
M  V30 473 H 41.236 -4.25123 3.48641 0
M  V30 474 H 42.461 -5.29807 4.24832 0
M  V30 475 H 40.407 -6.18474 2.1869 0
M  V30 476 H 40.324 -6.48087 3.89254 0
M  V30 477 H 41.592 -7.213 2.95546 0
M  V30 478 N 45.8211 -1.22559 -0.990812 0
M  V30 479 C 46.7691 -0.994798 -2.10253 0
M  V30 480 C 47.7631 0.0627798 -1.69284 0
M  V30 481 O 48.9691 -0.0898392 -1.79776 0
M  V30 482 H 45.3441 -0.304527 -0.687581 0
M  V30 483 H 47.3151 -1.93812 -2.26891 0
M  V30 484 C 46.0641 -0.591439 -3.42633 0
M  V30 485 H 45.3871 -1.3969 -3.74602 0
M  V30 486 H 46.8271 -0.469385 -4.21394 0
M  V30 487 C 45.2861 0.699232 -3.29564 0
M  V30 488 O 45.8161 1.75112 -3.61523 0
M  V30 489 N 44.0221 0.671182 -2.82743 0
M  V30 490 H 43.5691 -0.185136 -2.56934 0
M  V30 491 H 43.5271 1.53502 -2.7438 0
M  V30 492 N 47.2992 1.18797 -1.03562 0
M  V30 493 C 48.2292 2.24472 -0.643019 0
M  V30 494 C 49.2102 1.66433 0.351283 0
M  V30 495 O 50.3952 1.92803 0.232505 0
M  V30 496 C 47.5252 3.473 4.24935e-05 0
M  V30 497 C 46.4792 4.18055 -0.917257 0
M  V30 498 C 45.8052 5.34519 -0.138941 0
M  V30 499 C 47.1052 4.72109 -2.23407 0
M  V30 500 H 48.7992 2.57566 -1.52643 0
M  V30 501 H 46.3452 1.23806 -0.735394 0
M  V30 502 H 48.2982 4.20426 0.286383 0
M  V30 503 H 47.0222 3.13424 0.918299 0
M  V30 504 H 45.6812 3.46821 -1.1879 0
M  V30 505 H 45.3292 4.96891 0.781562 0
M  V30 506 H 45.0292 5.82794 -0.750005 0
M  V30 507 H 46.5532 6.10438 0.1405 0
M  V30 508 H 47.9672 5.36955 -2.00879 0
M  V30 509 H 46.3642 5.30897 -2.79765 0
M  V30 510 H 47.4342 3.89807 -2.88407 0
M  V30 511 N 48.7773 0.814389 1.34928 0
M  V30 512 C 50.1883 0.458364 1.80986 0
M  V30 513 C 50.5393 -1.02042 1.67577 0
M  V30 514 O 49.6643 -1.79352 1.21086 0
M  V30 515 C 50.2593 0.825212 3.28597 0
M  V30 516 C 48.8183 0.521677 3.72767 0
M  V30 517 C 47.9653 1.04668 2.56788 0
M  V30 518 H 50.9163 1.00533 1.22795 0
M  V30 519 H 50.9373 0.12571 3.80292 0
M  V30 520 H 50.4493 1.90154 3.38324 0
M  V30 521 H 48.5503 -0.545589 3.68584 0
M  V30 522 H 48.6633 1.05977 4.67232 0
M  V30 523 H 47.0273 0.468622 2.50352 0
M  V30 524 H 47.8103 2.12927 2.6929 0
M  V30 525 N 50.2554 -1.46986 0.568584 0
M  V30 526 C 51.1854 -2.32946 -0.160753 0
M  V30 527 C 52.1664 -1.44487 -0.897631 0
M  V30 528 O 53.3514 -1.73327 -0.875867 0
M  V30 529 C 50.4814 -3.26494 -1.18403 0
M  V30 530 C 49.4354 -4.24282 -0.562895 0
M  V30 531 C 48.7614 -5.07236 -1.69163 0
M  V30 532 C 50.0614 -5.19989 0.490761 0
M  V30 533 H 51.7554 -2.94175 0.556916 0
M  V30 534 H 49.3014 -1.4146 0.26927 0
M  V30 535 H 51.2544 -3.85477 -1.70251 0
M  V30 536 H 49.9784 -2.63343 -1.93179 0
M  V30 537 H 48.6374 -3.66541 -0.0656164 0
M  V30 538 H 48.2854 -4.4048 -2.42871 0
M  V30 539 H 47.9854 -5.7345 -1.28174 0
M  V30 540 H 49.5094 -5.6908 -2.21314 0
M  V30 541 H 50.9234 -5.73271 0.0579047 0
M  V30 542 H 49.3204 -5.94469 0.820165 0
M  V30 543 H 50.3904 -4.64777 1.3824 0
M  V30 544 N 51.7335 -0.305618 -1.54608 0
M  V30 545 C 52.6435 0.57778 -2.27374 0
M  V30 546 C 53.6595 1.14451 -1.31061 0
M  V30 547 O 54.8355 1.16831 -1.6405 0
M  V30 548 C 51.9005 1.73123 -3.00382 0
M  V30 549 C 50.9615 1.19812 -4.12242 0
M  V30 550 C 50.1945 2.2966 -4.81759 0
M  V30 551 O 50.4175 3.49651 -4.50666 0
M  V30 552 O 49.3515 1.96091 -5.69062 0
M  V30 553 H 53.1775 -0.012624 -3.03697 0
M  V30 554 H 50.7625 -0.0719184 -1.49227 0
M  V30 555 H 52.6445 2.40315 -3.4616 0
M  V30 556 H 51.3195 2.30815 -2.26949 0
M  V30 557 H 50.2265 0.491798 -3.70853 0
M  V30 558 H 51.5595 0.666566 -4.87666 0
M  V30 559 N 53.2116 1.57565 -0.0334293 0
M  V30 560 C 54.1416 2.13511 0.945265 0
M  V30 561 C 55.1226 1.05231 1.33643 0
M  V30 562 O 56.3076 1.33084 1.41429 0
M  V30 563 C 53.4376 2.6657 2.22616 0
M  V30 564 C 52.3916 3.79676 1.97561 0
M  V30 565 C 51.7176 4.1918 3.31952 0
M  V30 566 C 53.0176 5.0557 1.31135 0
M  V30 567 H 54.7116 2.95538 0.479325 0
M  V30 568 H 52.2576 1.42166 0.229115 0
M  V30 569 H 54.2106 3.04344 2.91466 0
M  V30 570 H 52.9346 1.8171 2.71384 0
M  V30 571 H 51.5936 3.42347 1.31127 0
M  V30 572 H 51.2416 3.31296 3.78487 0
M  V30 573 H 50.9416 4.95402 3.15992 0
M  V30 574 H 52.4656 4.59541 4.02063 0
M  V30 575 H 53.8796 5.40903 1.89992 0
M  V30 576 H 52.2766 5.86818 1.25559 0
M  V30 577 H 53.3466 4.84062 0.284894 0
M  V30 578 N 54.6897 -0.239769 1.55765 0
M  V30 579 C 55.9177 -0.98417 1.81994 0
M  V30 580 C 56.3327 -1.7867 0.610124 0
M  V30 581 O 55.6897 -1.77571 -0.421271 0
M  V30 582 C 55.7407 -1.91635 3.06526 0
M  V30 583 O 55.4617 -1.14629 4.22838 0
M  V30 584 C 56.9627 -2.77616 3.45607 0
M  V30 585 H 54.1827 -0.28928 0.605441 0
M  V30 586 H 56.7267 -0.260499 2.02834 0
M  V30 587 H 54.8817 -2.5942 2.87715 0
M  V30 588 H 55.2957 -1.77745 4.93464 0
M  V30 589 H 56.7697 -3.38759 4.35828 0
M  V30 590 H 57.2467 -3.4909 2.6652 0
M  V30 591 H 57.8527 -2.15271 3.66795 0
M  V30 592 N 56.1678 -1.49265 -0.50573 0
M  V30 593 C 57.0978 -1.68495 -1.61653 0
M  V30 594 C 58.0788 -0.53366 -1.61512 0
M  V30 595 O 59.2638 -0.76897 -1.78327 0
M  V30 596 C 56.3938 -1.74709 -3.00157 0
M  V30 597 C 55.3478 -2.89581 -3.15162 0
M  V30 598 C 54.6738 -2.80903 -4.5497 0
M  V30 599 C 55.9738 -4.30578 -2.95634 0
M  V30 600 H 57.6678 -2.61493 -1.45814 0
M  V30 601 H 55.2138 -1.25838 -0.70005 0
M  V30 602 H 57.1668 -1.86748 -3.77761 0
M  V30 603 H 55.8908 -0.783067 -3.17074 0
M  V30 604 H 54.5498 -2.77136 -2.39982 0
M  V30 605 H 54.1978 -1.82419 -4.68756 0
M  V30 606 H 53.8978 -3.57999 -4.65951 0
M  V30 607 H 55.4218 -2.94944 -5.34641 0
M  V30 608 H 56.8358 -4.4373 -3.63011 0
M  V30 609 H 55.2328 -5.0886 -3.18091 0
M  V30 610 H 56.3028 -4.45352 -1.91806 0
M  V30 611 N 57.6459 0.756429 -1.3826 0
M  V30 612 C 58.8919 1.51772 -1.34511 0
M  V30 613 C 59.2249 1.94089 0.0656691 0
M  V30 614 O 58.4999 1.65221 1.02626 0
M  V30 615 C 58.7829 2.77226 -2.29821 0
M  V30 616 C 58.6359 2.41065 -3.79747 0
M  V30 617 C 59.9549 3.79236 -2.23312 0
M  V30 618 H 57.0739 0.550578 -0.489931 0
M  V30 619 H 59.7159 0.866607 -1.69086 0
M  V30 620 H 57.8659 3.32784 -2.00467 0
M  V30 621 H 59.5379 1.91303 -4.19763 0
M  V30 622 H 57.7809 1.7356 -3.97567 0
M  V30 623 H 58.4519 3.3081 -4.41892 0
M  V30 624 H 60.9279 3.3321 -2.49219 0
M  V30 625 H 59.8039 4.64714 -2.92116 0
M  V30 626 H 60.0649 4.24615 -1.23102 0
M  V30 627 N 59.124 1.23083 0.984299 0
M  V30 628 C 60.034 1.02515 2.11016 0
M  V30 629 C 61.05 -0.0291702 1.73976 0
M  V30 630 O 62.226 0.165434 2.00719 0
M  V30 631 C 59.291 0.614673 3.41208 0
M  V30 632 C 58.352 1.74359 3.92297 0
M  V30 633 C 57.585 1.35261 5.16275 0
M  V30 634 O 57.808 0.235136 5.69915 0
M  V30 635 O 56.742 2.17227 5.61334 0
M  V30 636 H 60.568 1.96862 2.31255 0
M  V30 637 H 58.153 1.01753 1.09392 0
M  V30 638 H 60.035 0.396518 4.1953 0
M  V30 639 H 58.71 -0.299851 3.22308 0
M  V30 640 H 57.617 2.01635 3.1511 0
M  V30 641 H 58.95 2.63629 4.15645 0
M  V30 642 N 60.6021 -1.18246 1.0419 0
M  V30 643 C 61.5651 -2.20128 0.638452 0
M  V30 644 C 62.5651 -1.57885 -0.304805 0
M  V30 645 O 63.7551 -1.73967 -0.0900369 0
M  V30 646 C 60.8871 -3.4084 -0.0637751 0
M  V30 647 H 62.0801 -2.57336 1.54007 0
M  V30 648 H 59.6331 -1.32152 0.834598 0
M  V30 649 H 60.3681 -3.09166 -0.979136 0
M  V30 650 H 60.1531 -3.8726 0.614198 0
M  V30 651 H 61.6431 -4.16274 -0.332512 0
M  V30 652 N 62.0802 -0.821533 -1.34494 0
M  V30 653 C 63.3052 -0.420873 -2.03085 0
M  V30 654 C 63.7302 0.964915 -1.61465 0
M  V30 655 O 63.0882 1.62763 -0.798607 0
M  V30 656 C 63.1362 -0.529414 -3.56693 0
M  V30 657 O 62.2402 0.451302 -4.09923 0
M  V30 658 H 61.5812 -0.173489 -0.640935 0
M  V30 659 H 64.1112 -1.11157 -1.71771 0
M  V30 660 H 64.1212 -0.404671 -4.05988 0
M  V30 661 H 62.7962 -1.54014 -3.86332 0
M  V30 662 H 61.3732 0.285558 -3.71805 0
M  V30 663 N 63.5583 1.46682 -0.576371 0
M  V30 664 C 64.9693 1.86112 -0.148091 0
M  V30 665 C 65.3203 1.48073 1.2872 0
M  V30 666 O 64.4453 0.892656 1.97131 0
M  V30 667 C 65.0403 3.37786 -0.261982 0
M  V30 668 C 63.5993 3.76235 0.111384 0
M  V30 669 C 62.7463 2.70713 -0.60083 0
M  V30 670 H 65.6973 1.37927 -0.78497 0
M  V30 671 H 65.7183 3.77007 0.514364 0
M  V30 672 H 65.2303 3.6544 -1.30671 0
M  V30 673 H 63.3313 3.54198 1.15649 0
M  V30 674 H 63.4443 4.78391 -0.26052 0
M  V30 675 H 61.8083 2.54666 -0.0417783 0
M  V30 676 H 62.5913 3.01208 -1.64708 0
M  V30 677 N 65.0364 0.313813 1.54444 0
M  V30 678 C 66.4524 -0.0391619 1.59552 0
M  V30 679 C 66.6524 -1.51322 1.33056 0
M  V30 680 O 65.7084 -2.26782 1.11022 0
M  V30 681 C 67.0214 0.370302 2.98411 0
M  V30 682 C 68.5694 0.320139 3.11358 0
M  V30 683 C 69.0444 0.704617 4.52547 0
M  V30 684 N 70.5354 0.657645 4.58508 0
M  V30 685 C 71.2704 0.927453 5.6585 0
M  V30 686 N 70.7664 1.26389 6.81174 0
M  V30 687 N 72.5594 0.853662 5.5558 0
M  V30 688 H 64.7104 1.27433 1.69925 0
M  V30 689 H 66.9734 0.517511 0.794284 0
M  V30 690 H 66.6794 1.39694 3.22767 0
M  V30 691 H 66.5534 -0.269619 3.76235 0
M  V30 692 H 68.9404 -0.697275 2.86744 0
M  V30 693 H 69.0214 0.99486 2.35661 0
M  V30 694 H 68.6654 1.7199 4.77893 0
M  V30 695 H 68.5954 0.00768843 5.26599 0
M  V30 696 H 71.0864 0.409067 3.75679 0
M  V30 697 H 71.3994 1.4554 7.58972 0
M  V30 698 H 69.7444 1.30206 6.82694 0
M  V30 699 H 72.9354 0.590383 4.64362 0
M  V30 700 H 73.1084 1.0673 6.3915 0
M  V30 701 N 66.5145 -1.57545 0.0417849 0
M  V30 702 C 67.7605 -1.92601 -0.635021 0
M  V30 703 C 68.0935 -0.919627 -1.71045 0
M  V30 704 O 67.3685 0.0557892 -1.9442 0
M  V30 705 C 67.6515 -3.38085 -1.23979 0
M  V30 706 C 67.5045 -4.49467 -0.173057 0
M  V30 707 C 68.8235 -3.83776 -2.15416 0
M  V30 708 H 65.9425 -0.700397 -0.229374 0
M  V30 709 H 68.5845 -1.89728 0.101633 0
M  V30 710 H 66.7345 -3.40664 -1.86762 0
M  V30 711 H 68.4065 -4.59018 0.458312 0
M  V30 712 H 66.6495 -4.30909 0.499996 0
M  V30 713 H 67.3205 -5.48323 -0.636054 0
M  V30 714 H 69.7965 -3.83013 -1.62605 0
M  V30 715 H 68.6725 -4.8624 -2.54679 0
M  V30 716 H 68.9335 -3.19998 -3.05047 0
M  V30 717 N 67.9926 0.231505 -1.5589 0
M  V30 718 C 69.2406 0.955461 -1.78088 0
M  V30 719 C 69.5616 1.85262 -0.608533 0
M  V30 720 O 68.8316 1.92277 0.375035 0
M  V30 721 H 67.4116 0.355787 -0.656829 0
M  V30 722 H 70.0736 0.245751 -1.93344 0
M  V30 723 H 69.1696 1.56814 -2.69844 0
M  V30 724 N 69.4707 1.49531 0.497807 0
M  V30 725 C 70.7187 1.58865 1.24926 0
M  V30 726 C 71.0397 0.278721 1.92998 0
M  V30 727 O 70.3097 -0.702144 1.82885 0
M  V30 728 H 68.8897 0.585343 0.464094 0
M  V30 729 H 71.5517 1.86174 0.57666 0
M  V30 730 H 70.6477 2.38633 2.01149 0
M  V30 731 N 70.9488 -0.749086 1.3866 0
M  V30 732 C 71.8958 -1.86291 1.36251 0
M  V30 733 C 72.8658 -1.64578 0.224347 0
M  V30 734 O 74.0508 -1.86181 0.417279 0
M  V30 735 C 71.1908 -3.23644 1.19786 0
M  V30 736 C 70.3038 -3.57158 2.43027 0
M  V30 737 C 69.4388 -4.83838 2.19258 0
M  V30 738 C 68.4778 -5.10152 3.38247 0
M  V30 739 N 67.6148 -6.28029 3.13884 0
M  V30 740 H 72.4548 -1.87685 2.3147 0
M  V30 741 H 69.9918 -0.917287 1.14997 0
M  V30 742 H 71.9498 -4.0291 1.08254 0
M  V30 743 H 70.5798 -3.21566 0.282031 0
M  V30 744 H 69.6318 -2.72701 2.65214 0
M  V30 745 H 70.9438 -3.7253 3.31697 0
M  V30 746 H 70.0978 -5.71057 2.04888 0
M  V30 747 H 68.8368 -4.70614 1.2796 0
M  V30 748 H 67.8418 -4.21401 3.53131 0
M  V30 749 H 69.0668 -5.25271 4.30427 0
M  V30 750 H 67.0128 -6.1612 2.25238 0
M  V30 751 H 66.9298 -6.43922 3.96106 0
M  V30 752 H 68.1978 -7.18124 3.03179 0
M  V30 753 N 72.4269 -1.23603 -0.977757 0
M  V30 754 C 73.6759 -1.06377 -1.71368 0
M  V30 755 C 73.9889 0.399062 -1.91486 0
M  V30 756 O 75.1949 0.691312 -2.62551 0
M  V30 757 C 73.6509 -1.85512 -3.08404 0
M  V30 758 C 73.2589 -3.36141 -2.96164 0
M  V30 759 C 75.0029 -1.76783 -3.85938 0
M  V30 760 C 72.9099 -4.07659 -4.28449 0
M  V30 761 H 71.8399 -0.394452 -0.642591 0
M  V30 762 H 74.4909 -1.47594 -1.09034 0
M  V30 763 H 72.8729 -1.37103 -3.71509 0
M  V30 764 H 74.0469 -3.92056 -2.42133 0
M  V30 765 H 72.3619 -3.45712 -2.32104 0
M  V30 766 H 74.9589 -2.27526 -4.83876 0
M  V30 767 H 75.3019 -0.731116 -4.0983 0
M  V30 768 H 75.8349 -2.22818 -3.2954 0
M  V30 769 H 72.5739 -5.11648 -4.09752 0
M  V30 770 H 72.0939 -3.5653 -4.82334 0
M  V30 771 H 73.7729 -4.141 -4.97122 0
M  V30 772 N 73.905 1.17692 -1.04816 0
M  V30 773 C 74.837 2.21103 -0.603822 0
M  V30 774 C 75.85 1.59411 0.33046 0
M  V30 775 O 77.039 1.7807 0.12379 0
M  V30 776 C 74.139 3.38623 0.136898 0
M  V30 777 C 73.312 4.29888 -0.807137 0
M  V30 778 C 72.371 5.26088 -0.10836 0
M  V30 779 O 71.397 5.64353 -0.741232 0
M  V30 780 N 72.599 5.68882 1.15558 0
M  V30 781 H 75.364 2.59848 -1.49329 0
M  V30 782 H 72.925 1.32553 -0.929587 0
M  V30 783 H 74.917 4.00009 0.614401 0
M  V30 784 H 73.487 2.98508 0.927993 0
M  V30 785 H 72.707 3.65993 -1.46434 0
M  V30 786 H 73.995 4.87759 -1.44807 0
M  V30 787 H 73.393 5.39861 1.69015 0
M  V30 788 H 71.95 6.32429 1.57722 0
M  V30 789 N 75.3831 0.828654 1.34056 0
M  V30 790 C 76.6111 0.43262 2.02326 0
M  V30 791 C 77.0261 -0.963147 1.62385 0
M  V30 792 O 76.3831 -1.62425 0.832121 0
M  V30 793 C 76.4341 0.53182 3.57567 0
M  V30 794 O 76.1551 1.87258 3.96063 0
M  V30 795 C 77.6561 0.131422 4.43105 0
M  V30 796 H 74.8761 0.172923 0.648335 0
M  V30 797 H 77.4201 1.1184 1.71208 0
M  V30 798 H 75.5751 -0.105938 3.87255 0
M  V30 799 H 75.9891 1.85087 4.90758 0
M  V30 800 H 77.4631 0.251904 5.51425 0
M  V30 801 H 77.9401 -0.925645 4.29335 0
M  V30 802 H 78.5461 0.743207 4.18756 0
M  V30 803 N 76.8612 -1.46375 0.584142 0
M  V30 804 C 78.1072 -2.02678 0.0703716 0
M  V30 805 C 78.4402 -1.4545 -1.28678 0
M  V30 806 O 77.7152 -0.62014 -1.84349 0
M  V30 807 C 77.9982 -3.60099 0.00614674 0
M  V30 808 C 77.8512 -4.27709 1.3923 0
M  V30 809 C 79.1702 -4.34598 -0.693742 0
M  V30 810 H 76.2892 -0.736504 0.027047 0
M  V30 811 H 78.9312 -1.74501 0.751615 0
M  V30 812 H 77.0812 -3.84236 -0.574009 0
M  V30 813 H 78.7532 -4.14832 2.01773 0
M  V30 814 H 76.9962 -3.87016 1.95962 0
M  V30 815 H 77.6672 -5.36478 1.29982 0
M  V30 816 H 80.1432 -4.15615 -0.200869 0
M  V30 817 H 79.0192 -5.44318 -0.707714 0
M  V30 818 H 79.2802 -4.05759 -1.75533 0
M  V30 819 N 78.3393 -0.321999 -1.54275 0
M  V30 820 C 79.2863 0.544664 -2.24281 0
M  V30 821 C 80.2563 1.1129 -1.23303 0
M  V30 822 O 81.4413 1.15354 -1.51981 0
M  V30 823 C 78.5813 1.70045 -3.00298 0
M  V30 824 C 77.6943 1.16159 -4.1609 0
M  V30 825 C 76.8293 2.28293 -4.79641 0
M  V30 826 C 75.8683 1.71648 -5.8754 0
M  V30 827 N 75.0053 2.77438 -6.44959 0
M  V30 828 H 79.8453 -0.0588907 -2.97942 0
M  V30 829 H 77.3823 -0.0408345 -1.47043 0
M  V30 830 H 79.3403 2.38054 -3.42616 0
M  V30 831 H 77.9703 2.27531 -2.28975 0
M  V30 832 H 77.0223 0.373092 -3.78566 0
M  V30 833 H 78.3343 0.707087 -4.93763 0
M  V30 834 H 77.4883 3.0421 -5.2492 0
M  V30 835 H 76.2273 2.77079 -4.01346 0
M  V30 836 H 75.2323 0.942282 -5.41665 0
M  V30 837 H 76.4573 1.23741 -6.67731 0
M  V30 838 H 74.4033 3.25519 -5.69538 0
M  V30 839 H 74.3203 2.36547 -7.1804 0
M  V30 840 H 75.5883 3.53189 -6.94894 0
M  V30 841 N 79.8174 1.5752 -0.0501392 0
M  V30 842 C 80.7644 2.1147 0.924603 0
M  V30 843 C 81.7344 1.02182 1.30951 0
M  V30 844 O 82.9194 1.29723 1.39916 0
M  V30 845 C 80.0594 2.66337 2.19451 0
M  V30 846 C 79.1724 3.89708 1.86418 0
M  V30 847 C 78.3074 4.32893 3.07859 0
M  V30 848 C 77.3464 5.48967 2.70742 0
M  V30 849 N 76.4834 5.87211 3.84874 0
M  V30 850 H 81.3234 2.94465 0.457639 0
M  V30 851 H 78.8604 1.45531 0.214266 0
M  V30 852 H 80.8184 2.96247 2.93758 0
M  V30 853 H 79.4484 1.86141 2.63726 0
M  V30 854 H 78.5004 3.66396 1.02264 0
M  V30 855 H 79.8124 4.74074 1.55096 0
M  V30 856 H 78.9664 4.6435 3.90466 0
M  V30 857 H 77.7054 3.47336 3.42358 0
M  V30 858 H 76.7104 5.17183 1.86551 0
M  V30 859 H 77.9354 6.3624 2.37436 0
M  V30 860 H 75.8814 5.04607 4.19175 0
M  V30 861 H 75.7984 6.66266 3.57247 0
M  V30 862 H 77.0664 6.23282 4.68123 0
M  V30 863 N 81.2955 -0.223234 1.56011 0
M  V30 864 C 82.5725 -0.972108 1.69733 0
M  V30 865 C 82.9525 -2.02485 0.59691 0
M  V30 866 O 82.3005 -2.25037 -0.396324 0
M  V30 867 C 82.5105 -1.58407 3.10979 0
M  V30 868 C 83.8585 -2.07696 3.70334 0
M  V30 869 O 84.8825 -1.68304 3.1393 0
M  V30 870 O 83.7415 -2.80096 4.69264 0
M  V30 871 H 80.8355 -0.453993 0.691245 0
M  V30 872 H 83.3815 -0.215149 1.68331 0
M  V30 873 H 82.1535 -0.823831 3.82529 0
M  V30 874 H 81.7765 -2.40661 3.16493 0
M  V30 875 N 82.7736 -1.49793 -0.48987 0
M  V30 876 C 84.0216 -1.59525 -1.24081 0
M  V30 877 C 84.3426 -0.288953 -1.92847 0
M  V30 878 O 83.6126 0.692436 -1.83254 0
M  V30 879 H 82.1926 -0.587796 -0.460983 0
M  V30 880 H 84.8546 -1.86477 -0.566778 0
M  V30 881 H 83.9506 -2.39696 -1.99881 0
M  V30 882 N 84.2517 0.741722 -1.39055 0
M  V30 883 C 85.4817 1.52876 -1.3897 0
M  V30 884 C 85.8897 1.8919 0.0193266 0
M  V30 885 O 85.2327 1.54138 0.999356 0
M  V30 886 C 85.2947 2.84929 -2.19216 0
M  V30 887 C 84.9587 2.71086 -3.67915 0
M  V30 888 C 85.9557 2.40084 -4.61146 0
M  V30 889 C 83.6407 2.88168 -4.11418 0
M  V30 890 C 85.6347 2.26335 -5.95862 0
M  V30 891 C 83.3217 2.74037 -5.46211 0
M  V30 892 C 84.3197 2.43166 -6.38247 0
M  V30 893 O 84.0077 2.29115 -7.70559 0
M  V30 894 H 83.7397 0.479252 -0.476753 0
M  V30 895 H 86.2937 0.924751 -1.83405 0
M  V30 896 H 84.5237 3.47564 -1.69518 0
M  V30 897 H 86.2127 3.46509 -2.11392 0
M  V30 898 H 86.9787 2.26545 -4.28838 0
M  V30 899 H 82.8577 3.11191 -3.40119 0
M  V30 900 H 86.4017 2.0216 -6.67665 0
M  V30 901 H 82.2987 2.87153 -5.78112 0
M  V30 902 H 83.0667 2.44237 -7.81211 0
M  V30 903 N 85.7298 1.2412 0.971189 0
M  V30 904 C 86.9788 1.07284 1.70801 0
M  V30 905 C 87.2918 -0.388902 1.91695 0
M  V30 906 O 88.4978 -0.677379 2.62914 0
M  V30 907 C 86.9538 1.87145 3.07416 0
M  V30 908 C 86.5618 3.37707 2.94377 0
M  V30 909 C 88.3058 1.78828 3.84995 0
M  V30 910 C 86.2128 4.09925 4.26281 0
M  V30 911 H 85.1428 0.397854 0.64049 0
M  V30 912 H 87.7938 1.4817 1.0825 0
M  V30 913 H 86.1758 1.39071 3.70777 0
M  V30 914 H 87.3498 3.93335 2.4005 0
M  V30 915 H 85.6648 3.46938 2.30267 0
M  V30 916 H 88.2618 2.30089 4.82662 0
M  V30 917 H 88.6048 0.75284 4.09436 0
M  V30 918 H 89.1378 2.24563 3.28354 0
M  V30 919 H 85.8768 5.13813 4.07033 0
M  V30 920 H 85.3968 3.59083 4.80437 0
M  V30 921 H 87.0758 4.1673 4.94919 0
M  V30 922 N 87.2079 -1.17134 1.05439 0
M  V30 923 C 88.4569 -1.86791 0.761049 0
M  V30 924 C 88.7699 -1.82072 -0.714795 0
M  V30 925 O 89.9759 -2.47223 -1.12218 0
M  V30 926 C 88.4319 -3.35166 1.31117 0
M  V30 927 C 88.0399 -3.48381 2.81664 0
M  V30 928 C 89.7839 -4.10134 1.09499 0
M  V30 929 C 87.6909 -4.90793 3.29964 0
M  V30 930 H 86.6209 -0.699681 0.281002 0
M  V30 931 H 89.2719 -1.3226 1.27199 0
M  V30 932 H 87.6539 -3.8925 0.72803 0
M  V30 933 H 88.8279 -3.04502 3.45855 0
M  V30 934 H 87.1429 -2.86836 3.01851 0
M  V30 935 H 89.7399 -5.152 1.43084 0
M  V30 936 H 90.0829 -4.16287 0.0328772 0
M  V30 937 H 90.6159 -3.62264 1.64346 0
M  V30 938 H 87.3549 -4.89816 4.35616 0
M  V30 939 H 86.8749 -5.35333 2.70516 0
M  V30 940 H 88.5539 -5.59573 3.24787 0
M  V30 941 N 88.686 -0.835752 -1.33615 0
M  V30 942 C 89.596 -0.269088 -2.33052 0
M  V30 943 C 90.612 0.603251 -1.63208 0
M  V30 944 O 91.788 0.508112 -1.94885 0
M  V30 945 C 88.853 0.549091 -3.42324 0
M  V30 946 C 87.914 -0.347156 -4.27894 0
M  V30 947 C 87.147 0.43207 -5.31948 0
M  V30 948 O 87.37 1.66409 -5.45586 0
M  V30 949 O 86.304 -0.192298 -6.01593 0
M  V30 950 H 90.13 -1.09243 -2.83372 0
M  V30 951 H 87.715 -0.598198 -1.36901 0
M  V30 952 H 89.597 1.01414 -4.09015 0
M  V30 953 H 88.272 1.34955 -2.94226 0
M  V30 954 H 87.179 -0.859979 -3.64081 0
M  V30 955 H 88.512 -1.1123 -4.79467 0
M  V30 956 N 90.1641 1.46063 -0.591896 0
M  V30 957 C 91.5801 1.57561 -0.254288 0
M  V30 958 C 91.7801 1.58565 1.24336 0
M  V30 959 O 90.8361 1.50753 2.02558 0
M  V30 960 C 92.1491 2.86549 -0.911611 0
M  V30 961 C 93.6971 3.00197 -0.886059 0
M  V30 962 C 94.1721 4.31933 -1.5231 0
M  V30 963 N 95.6631 4.38654 -1.48786 0
M  V30 964 C 96.3981 5.39222 -1.95006 0
M  V30 965 N 95.8941 6.46414 -2.49241 0
M  V30 966 N 97.6871 5.3048 -1.85868 0
M  V30 967 H 89.8381 1.43655 -1.56451 0
M  V30 968 H 92.1011 0.68583 -0.654478 0
M  V30 969 H 91.8071 2.91651 -1.96551 0
M  V30 970 H 91.6811 3.74794 -0.425368 0
M  V30 971 H 94.0681 2.9467 0.159246 0
M  V30 972 H 94.1491 2.13403 -1.41041 0
M  V30 973 H 93.7931 4.38217 -2.56765 0
M  V30 974 H 93.7231 5.17516 -0.973891 0
M  V30 975 H 96.2141 3.61793 -1.09151 0
M  V30 976 H 96.5271 7.19376 -2.82344 0
M  V30 977 H 94.8721 6.47208 -2.53272 0
M  V30 978 H 98.0631 4.45643 -1.43248 0
M  V30 979 H 98.2361 6.08711 -2.22204 0
M  V30 980 N 91.6422 0.330177 1.54103 0
M  V30 981 C 92.8902 -0.269871 2.0029 0
M  V30 982 C 93.2112 -1.52133 1.21986 0
M  V30 983 O 92.4812 -1.93212 0.323438 0
M  V30 984 H 91.0612 -0.10271 0.739905 0
M  V30 985 H 93.7232 0.448249 1.89675 0
M  V30 986 H 92.8192 -0.52166 3.07709 0
M  V30 987 N 93.1203 -1.57491 0.0584922 0
M  V30 988 C 94.5313 -1.80526 -0.476138 0
M  V30 989 C 94.8823 -0.971334 -1.70469 0
M  V30 990 O 94.0073 -0.190012 -2.15564 0
M  V30 991 C 94.6023 -3.27424 -0.870587 0
M  V30 992 C 93.1613 -3.51351 -1.35015 0
M  V30 993 C 92.3083 -2.75343 -0.32887 0
M  V30 994 H 95.2593 -1.56133 0.284312 0
M  V30 995 H 95.2803 -3.38745 -1.73299 0
M  V30 996 H 94.7923 -3.88093 0.0237627 0
M  V30 997 H 92.8933 -2.95971 -2.26345 0
M  V30 998 H 93.0063 -4.60059 -1.33726 0
M  V30 999 H 91.3703 -2.417 -0.803321 0
M  V30 1000 H 92.1533 -3.38743 0.557521 0
M  V30 1001 N 94.5984 0.214957 -1.56127 0
M  V30 1002 C 95.8754 0.963093 -1.70247 0
M  V30 1003 C 96.2554 2.02166 -0.60764 0
M  V30 1004 O 95.6034 2.25244 0.384385 0
M  V30 1005 C 95.8134 1.56756 -3.11815 0
M  V30 1006 C 97.1614 2.0573 -3.7143 0
M  V30 1007 O 98.1854 1.66637 -3.14818 0
M  V30 1008 O 97.0444 2.77603 -4.70743 0
M  V30 1009 H 94.1384 0.450321 -0.693643 0
M  V30 1010 H 96.6844 0.206219 -1.68442 0
M  V30 1011 H 95.4564 0.803533 -3.82961 0
M  V30 1012 H 95.0794 2.3898 -3.17765 0
M  V30 1013 N 96.0765 1.50051 0.48192 0
M  V30 1014 C 97.3015 1.64508 1.26301 0
M  V30 1015 C 97.7265 0.323851 1.85291 0
M  V30 1016 O 97.0845 -0.710969 1.66778 0
M  V30 1017 C 97.1325 2.7305 2.35533 0
M  V30 1018 O 96.2365 2.3355 3.39895 0
M  V30 1019 H 95.5775 0.549978 0.372048 0
M  V30 1020 H 98.1075 1.9636 0.574786 0
M  V30 1021 H 98.1175 2.95799 2.8101 0
M  V30 1022 H 96.7925 3.68946 1.91967 0
M  V30 1023 H 95.3695 2.21205 3.00204 0
M  V30 1024 N 97.5546 -0.734337 1.39446 0
M  V30 1025 C 98.8016 -1.49391 1.36706 0
M  V30 1026 C 99.1296 -1.94465 -0.0367813 0
M  V30 1027 O 98.3846 -1.67154 -1.01774 0
M  V30 1028 C 98.6836 -2.74711 2.28623 0
M  V30 1029 C 98.3496 -2.48501 3.76242 0
M  V30 1030 C 97.0116 -2.41062 4.16464 0
M  V30 1031 C 99.3636 -2.26098 4.69606 0
M  V30 1032 C 96.6916 -2.09262 5.48112 0
M  V30 1033 C 99.0436 -1.95814 6.01531 0
M  V30 1034 C 97.7076 -1.86845 6.40816 0
M  V30 1035 H 96.9776 -0.546661 0.500243 0
M  V30 1036 H 99.6246 -0.842788 1.71957 0
M  V30 1037 H 97.9296 -3.44569 1.86492 0
M  V30 1038 H 99.6266 -3.32741 2.23796 0
M  V30 1039 H 96.2166 -2.55169 3.44364 0
M  V30 1040 H 100.401 -2.30812 4.39363 0
M  V30 1041 H 95.6566 -2.00841 5.77471 0
M  V30 1042 H 99.8306 -1.77488 6.73403 0
M  V30 1043 H 97.4576 -1.6197 7.42745 0
M  V30 1044 N 99.0327 -1.24633 -0.964593 0
M  V30 1045 C 99.9627 -1.06611 -2.07741 0
M  V30 1046 C 100.944 0.0218666 -1.70086 0
M  V30 1047 O 102.129 -0.145793 -1.93652 0
M  V30 1048 C 99.2587 -0.673444 -3.40708 0
M  V30 1049 C 98.2127 -1.71054 -3.92332 0
M  V30 1050 C 97.5387 -1.17285 -5.21678 0
M  V30 1051 C 98.8387 -3.10718 -4.19824 0
M  V30 1052 H 100.533 -1.99693 -2.23076 0
M  V30 1053 H 98.0787 -0.96152 -1.07195 0
M  V30 1054 H 100.032 -0.534345 -4.17998 0
M  V30 1055 H 98.7557 0.293073 -3.25282 0
M  V30 1056 H 97.4147 -1.83791 -3.17201 0
M  V30 1057 H 97.0627 -0.196847 -5.02615 0
M  V30 1058 H 96.7627 -1.86592 -5.57187 0
M  V30 1059 H 98.2867 -1.04593 -6.01575 0
M  V30 1060 H 99.7007 -3.01192 -4.87808 0
M  V30 1061 H 98.0977 -3.77406 -4.66567 0
M  V30 1062 H 99.1677 -3.58524 -3.26479 0
M  V30 1063 N 100.511 1.16574 -1.06058 0
M  V30 1064 C 101.421 2.2452 -0.680282 0
M  V30 1065 C 102.437 1.71348 0.302604 0
M  V30 1066 O 103.613 2.00822 0.152513 0
M  V30 1067 C 100.678 3.46629 -0.0700315 0
M  V30 1068 C 99.7388 4.14849 -1.10448 0
M  V30 1069 C 98.9718 5.31129 -0.523256 0
M  V30 1070 O 99.1948 5.66514 0.664709 0
M  V30 1071 O 98.1288 5.88526 -1.26179 0
M  V30 1072 H 101.955 2.59355 -1.58015 0
M  V30 1073 H 99.5398 1.24043 -0.832694 0
M  V30 1074 H 101.422 4.20543 0.268667 0
M  V30 1075 H 100.097 3.13573 0.803353 0
M  V30 1076 H 99.0038 3.42916 -1.49532 0
M  V30 1077 H 100.337 4.51954 -1.94931 0
M  V30 1078 N 101.989 0.842826 1.3317 0
M  V30 1079 C 103.405 0.531128 1.50503 0
M  V30 1080 C 103.605 -0.940734 1.78192 0
M  V30 1081 O 102.661 -1.72436 1.84451 0
M  V30 1082 C 103.974 1.40789 2.65705 0
M  V30 1083 C 105.522 1.40708 2.79589 0
M  V30 1084 C 105.997 2.26878 3.97857 0
M  V30 1085 N 107.488 2.24609 4.05099 0
M  V30 1086 C 108.223 2.88019 4.95815 0
M  V30 1087 N 107.719 3.60496 5.9162 0
M  V30 1088 N 109.512 2.77469 4.88843 0
M  V30 1089 H 101.663 1.79557 1.1346 0
M  V30 1090 H 103.926 0.766267 0.558156 0
M  V30 1091 H 103.632 2.454 2.51936 0
M  V30 1092 H 103.506 1.08677 3.61205 0
M  V30 1093 H 105.893 0.368668 2.92788 0
M  V30 1094 H 105.974 1.76829 1.84838 0
M  V30 1095 H 105.618 3.3078 3.85418 0
M  V30 1096 H 105.548 1.88096 4.91861 0
M  V30 1097 H 108.039 1.71906 3.36536 0
M  V30 1098 H 108.352 4.06076 6.57512 0
M  V30 1099 H 106.697 3.64604 5.91683 0
M  V30 1100 H 109.888 2.20406 4.12963 0
M  V30 1101 H 110.061 3.2717 5.59342 0
M  V30 1102 N 103.467 -1.45747 0.599634 0
M  V30 1103 C 104.414 -2.30467 -0.123849 0
M  V30 1104 C 105.384 -1.41632 -0.86774 0
M  V30 1105 O 106.569 -1.70568 -0.855056 0
M  V30 1106 C 103.709 -3.26402 -1.12051 0
M  V30 1107 C 102.822 -4.3034 -0.37832 0
M  V30 1108 C 101.957 -5.13389 -1.364 0
M  V30 1109 C 100.996 -6.09061 -0.609171 0
M  V30 1110 N 100.133 -6.84918 -1.54374 0
M  V30 1111 H 104.973 -2.91802 0.604627 0
M  V30 1112 H 102.51 -1.43797 0.309972 0
M  V30 1113 H 104.468 -3.80482 -1.7114 0
M  V30 1114 H 103.098 -2.66839 -1.8165 0
M  V30 1115 H 102.15 -3.78984 0.327929 0
M  V30 1116 H 103.462 -4.98354 0.210997 0
M  V30 1117 H 102.616 -5.7183 -2.02719 0
M  V30 1118 H 101.355 -4.45376 -1.98725 0
M  V30 1119 H 100.36 -5.49758 0.0676979 0
M  V30 1120 H 101.585 -6.79099 0.00891991 0
M  V30 1121 H 99.531 -6.19601 -2.15478 0
M  V30 1122 H 99.448 -7.49254 -1.00766 0
M  V30 1123 H 100.716 -7.47906 -2.19676 0
M  V30 1124 N 104.945 -0.338344 -1.53925 0
M  V30 1125 C 105.892 0.520845 -2.24846 0
M  V30 1126 C 106.862 1.09976 -1.24477 0
M  V30 1127 O 108.047 1.13735 -1.53196 0
M  V30 1128 C 105.187 1.6685 -3.02084 0
M  V30 1129 C 104.3 1.11739 -4.17299 0
M  V30 1130 C 103.435 2.23193 -4.82036 0
M  V30 1131 C 102.474 1.65407 -5.89328 0
M  V30 1132 N 101.611 2.70582 -6.47866 0
M  V30 1133 H 106.451 -0.0904881 -2.97863 0
M  V30 1134 H 103.988 -0.0564282 -1.46992 0
M  V30 1135 H 105.946 2.34407 -3.45122 0
M  V30 1136 H 104.576 2.2509 -2.31375 0
M  V30 1137 H 103.628 0.332919 -3.7894 0
M  V30 1138 H 104.94 0.654677 -4.94485 0
M  V30 1139 H 104.094 2.98626 -5.28117 0
M  V30 1140 H 102.833 2.72807 -4.04262 0
M  V30 1141 H 101.838 0.884779 -5.42634 0
M  V30 1142 H 103.063 1.16652 -6.69006 0
M  V30 1143 H 101.009 3.1946 -5.72959 0
M  V30 1144 H 100.926 2.28917 -7.20509 0
M  V30 1145 H 102.194 3.45799 -6.98601 0
M  V30 1146 N 106.423 1.57458 -0.0668435 0
M  V30 1147 C 107.648 1.9804 0.616027 0
M  V30 1148 C 108.073 0.944771 1.62652 0
M  V30 1149 O 107.431 -0.0902094 1.81075 0
M  V30 1150 C 107.479 3.37665 1.26549 0
M  V30 1151 O 106.583 3.36701 2.38131 0
M  V30 1152 H 105.924 0.644719 0.158849 0
M  V30 1153 H 108.454 2.04121 -0.139891 0
M  V30 1154 H 108.464 3.7474 1.6135 0
M  V30 1155 H 107.139 4.12573 0.525016 0
M  V30 1156 H 105.716 3.1139 2.0516 0
M  V30 1157 N 107.901 -0.206675 1.56239 0
M  V30 1158 C 108.864 -1.23976 1.92776 0
M  V30 1159 C 109.864 -1.39041 0.807729 0
M  V30 1160 O 111.054 -1.37051 1.0753 0
M  V30 1161 C 108.186 -2.61112 2.19165 0
M  V30 1162 H 109.379 -0.927764 2.85189 0
M  V30 1163 H 106.932 -0.447718 1.4975 0
M  V30 1164 H 107.667 -2.97386 1.29352 0
M  V30 1165 H 107.452 -2.51552 3.00772 0
M  V30 1166 H 108.942 -3.35633 2.48476 0
M  V30 1167 N 109.379 -1.50304 -0.473955 0
M  V30 1168 C 110.79 -1.54042 -1.0549 0
M  V30 1169 C 111.141 -0.342248 -1.93192 0
M  V30 1170 O 110.266 0.545157 -2.09421 0
M  V30 1171 C 110.861 -2.79152 -1.91989 0
M  V30 1172 C 109.42 -2.8558 -2.45196 0
M  V30 1173 C 108.567 -2.48295 -1.2347 0
M  V30 1174 H 111.518 -1.5661 -0.256693 0
M  V30 1175 H 111.539 -2.60845 -2.7702 0
M  V30 1176 H 111.051 -3.66339 -1.28131 0
M  V30 1177 H 109.152 -2.02738 -3.12615 0
M  V30 1178 H 109.265 -3.88403 -2.80499 0
M  V30 1179 H 107.629 -2.00669 -1.56856 0
M  V30 1180 H 108.412 -3.37787 -0.612789 0
M  V30 1181 N 110.857 0.726932 -1.39834 0
M  V30 1182 C 111.789 1.85147 -1.35104 0
M  V30 1183 C 112.802 1.60736 -0.258392 0
M  V30 1184 O 113.991 1.70821 -0.517931 0
M  V30 1185 C 111.091 3.21332 -1.07697 0
M  V30 1186 C 110.264 3.73033 -2.28396 0
M  V30 1187 C 109.323 4.87802 -1.97322 0
M  V30 1188 O 108.349 5.01043 -2.70083 0
M  V30 1189 N 109.551 5.72768 -0.944273 0
M  V30 1190 H 112.316 1.89706 -2.32017 0
M  V30 1191 H 109.877 0.908006 -1.3404 0
M  V30 1192 H 111.869 3.95691 -0.849144 0
M  V30 1193 H 110.439 3.11992 -0.194909 0
M  V30 1194 H 109.659 2.89934 -2.6708 0
M  V30 1195 H 110.947 4.0431 -3.08887 0
M  V30 1196 H 110.345 5.64669 -0.341427 0
M  V30 1197 H 108.902 6.4716 -0.776346 0
M  V30 1198 N 112.336 1.25143 0.95797 0
M  V30 1199 C 113.266 1.07711 2.07173 0
M  V30 1200 C 114.247 -0.0128462 1.70095 0
M  V30 1201 O 115.432 0.156061 1.93572 0
M  V30 1202 C 112.562 0.691503 3.40346 0
M  V30 1203 C 111.516 1.73132 3.9142 0
M  V30 1204 C 110.842 1.20049 5.21049 0
M  V30 1205 C 112.142 3.1294 4.1817 0
M  V30 1206 H 113.836 2.00873 2.22014 0
M  V30 1207 H 111.382 0.967191 1.06684 0
M  V30 1208 H 113.335 0.556505 4.17709 0
M  V30 1209 H 112.059 -0.275819 3.25433 0
M  V30 1210 H 110.718 1.8547 3.16222 0
M  V30 1211 H 110.366 0.223499 5.02503 0
M  V30 1212 H 110.066 1.89545 5.56189 0
M  V30 1213 H 111.59 1.07782 6.01012 0
M  V30 1214 H 113.004 3.03775 4.86203 0
M  V30 1215 H 111.401 3.79875 4.64559 0
M  V30 1216 H 112.471 3.6025 3.24573 0
M  V30 1217 N 113.814 -1.1601 1.06675 0
M  V30 1218 C 115.06 -1.86909 0.786945 0
M  V30 1219 C 115.393 -1.81717 -0.685018 0
M  V30 1220 O 114.668 -1.23551 -1.50218 0
M  V30 1221 C 114.951 -3.36313 1.28707 0
M  V30 1222 C 114.804 -3.50175 2.82308 0
M  V30 1223 C 116.123 -4.3084 0.898071 0
M  V30 1224 H 113.242 -0.678677 0.287343 0
M  V30 1225 H 115.884 -1.36336 1.32334 0
M  V30 1226 H 114.034 -3.79513 0.830768 0
M  V30 1227 H 115.706 -3.15886 3.36175 0
M  V30 1228 H 113.949 -2.91959 3.20847 0
M  V30 1229 H 114.62 -4.55116 3.12368 0
M  V30 1230 H 117.096 -3.95561 1.29114 0
M  V30 1231 H 115.972 -5.33876 1.27543 0
M  V30 1232 H 116.233 -4.41662 -0.196651 0
M  V30 1233 N 115.292 -0.849877 -1.32721 0
M  V30 1234 C 116.239 -0.289033 -2.28983 0
M  V30 1235 C 117.209 0.601324 -1.54833 0
M  V30 1236 O 118.394 0.537253 -1.8308 0
M  V30 1237 C 115.534 0.520623 -3.4115 0
M  V30 1238 C 114.647 -0.394989 -4.3019 0
M  V30 1239 C 113.782 0.426834 -5.29482 0
M  V30 1240 C 112.821 -0.486476 -6.10164 0
M  V30 1241 N 111.958 0.297879 -7.01468 0
M  V30 1242 H 116.798 -1.11519 -2.76347 0
M  V30 1243 H 114.335 -0.56138 -1.35967 0
M  V30 1244 H 116.293 1.00563 -4.04899 0
M  V30 1245 H 114.923 1.31165 -2.9495 0
M  V30 1246 H 113.975 -0.99836 -3.67065 0
M  V30 1247 H 115.287 -1.09612 -4.86607 0
M  V30 1248 H 114.441 0.975205 -5.98811 0
M  V30 1249 H 113.18 1.16136 -4.73671 0
M  V30 1250 H 112.185 -1.04677 -5.39743 0
M  V30 1251 H 113.41 -1.21953 -6.6806 0
M  V30 1252 H 111.356 1.01558 -6.48091 0
M  V30 1253 H 111.273 -0.344318 -7.55216 0
M  V30 1254 H 112.541 0.828131 -7.75089 0
M  V30 1255 N 116.77 1.45427 -0.607355 0
M  V30 1256 C 118.047 1.9557 -0.0344566 0
M  V30 1257 C 118.427 1.54979 1.43334 0
M  V30 1258 O 117.775 0.812241 2.13576 0
M  V30 1259 C 117.985 3.48226 -0.232321 0
M  V30 1260 C 119.333 4.2445 -0.113001 0
M  V30 1261 O 120.357 3.55829 -0.162431 0
M  V30 1262 O 119.216 5.465 0.00209442 0
M  V30 1263 H 116.31 0.826222 0.0358667 0
M  V30 1264 H 118.856 1.55594 -0.6774 0
M  V30 1265 H 117.628 3.70739 -1.25174 0
M  V30 1266 H 117.251 3.95092 0.445896 0
M  V30 1267 N 118.248 0.346503 1.53744 0
M  V30 1268 C 119.178 -0.501193 2.28058 0
M  V30 1269 C 120.159 -1.10014 1.29734 0
M  V30 1270 O 121.344 -1.12097 1.58581 0
M  V30 1271 C 118.474 -1.65078 3.05559 0
M  V30 1272 C 117.428 -1.18003 4.11411 0
M  V30 1273 C 116.754 -2.41837 4.76884 0
M  V30 1274 C 118.054 -0.278394 5.21558 0
M  V30 1275 H 119.748 0.11875 2.99164 0
M  V30 1276 H 117.294 0.0585531 1.43881 0
M  V30 1277 H 119.247 -2.25028 3.56287 0
M  V30 1278 H 117.971 -2.29767 2.32109 0
M  V30 1279 H 116.63 -0.603331 3.61601 0
M  V30 1280 H 116.278 -3.0494 4.00026 0
M  V30 1281 H 115.978 -2.1102 5.48402 0
M  V30 1282 H 117.502 -3.02508 5.30397 0
M  V30 1283 H 118.916 -0.784823 5.67903 0
M  V30 1284 H 117.313 -0.0619707 6.00068 0
M  V30 1285 H 118.383 0.684677 4.80042 0
M  V30 1286 N 119.726 -1.57421 0.075193 0
M  V30 1287 C 120.974 -1.93236 -0.591974 0
M  V30 1288 C 121.295 -0.956241 -1.69944 0
M  V30 1289 O 120.565 -0.00494792 -1.95899 0
M  V30 1290 H 119.145 -0.713355 -0.22166 0
M  V30 1291 H 121.807 -1.9444 0.133848 0
M  V30 1292 H 120.903 -2.95131 -1.01509 0
M  V30 1293 N 121.204 0.198386 -1.56346 0
M  V30 1294 C 122.134 1.24865 -1.9731 0
M  V30 1295 C 123.115 1.47651 -0.844576 0
M  V30 1296 O 124.3 1.59444 -1.10866 0
M  V30 1297 C 121.43 2.59358 -2.30977 0
M  V30 1298 C 120.384 2.5119 -3.46537 0
M  V30 1299 C 119.71 3.89926 -3.65871 0
M  V30 1300 C 121.01 2.03977 -4.80823 0
M  V30 1301 H 122.704 0.908252 -2.85291 0
M  V30 1302 H 120.25 0.435462 -1.37258 0
M  V30 1303 H 122.203 3.33011 -2.58228 0
M  V30 1304 H 120.927 2.95132 -1.39874 0
M  V30 1305 H 119.586 1.79993 -3.19371 0
M  V30 1306 H 119.234 4.23046 -2.72105 0
M  V30 1307 H 118.934 3.85336 -4.4361 0
M  V30 1308 H 120.458 4.65205 -3.95495 0
M  V30 1309 H 121.872 2.67386 -5.07127 0
M  V30 1310 H 120.269 2.10397 -5.62008 0
M  V30 1311 H 121.339 0.992861 -4.74626 0
M  V30 1312 N 122.682 1.50554 0.465978 0
M  V30 1313 C 123.592 1.72585 1.58907 0
M  V30 1314 C 124.608 0.60911 1.6299 0
M  V30 1315 O 125.784 0.88804 1.80765 0
M  V30 1316 C 122.849 1.81995 2.95091 0
M  V30 1317 C 121.91 3.05751 3.01355 0
M  V30 1318 C 121.143 3.14702 4.31043 0
M  V30 1319 O 121.366 2.30313 5.21835 0
M  V30 1320 O 120.3 4.07468 4.43005 0
M  V30 1321 H 124.126 2.67799 1.43239 0
M  V30 1322 H 121.711 1.34711 0.646013 0
M  V30 1323 H 123.593 1.90335 3.75966 0
M  V30 1324 H 122.268 0.899659 3.10947 0
M  V30 1325 H 121.175 3.02908 2.19539 0
M  V30 1326 H 122.508 3.97375 2.90437 0
M  V30 1327 N 124.16 -0.719506 1.40217 0
M  V30 1328 C 125.11 -1.8251 1.36653 0
M  V30 1329 C 126.094 -1.59028 0.244732 0
M  V30 1330 O 127.286 -1.70268 0.483524 0
M  V30 1331 C 124.415 -3.20599 1.22763 0
M  V30 1332 C 123.501 -3.49858 2.39708 0
M  V30 1333 N 123.892 -3.49957 3.6519 0
M  V30 1334 C 122.19 -3.80297 2.33002 0
M  V30 1335 C 122.891 -3.77449 4.42614 0
M  V30 1336 N 121.867 -3.96002 3.72402 0
M  V30 1337 H 125.669 -1.80914 2.31619 0
M  V30 1338 H 123.183 -0.918455 1.33933 0
M  V30 1339 H 125.18 -3.99766 1.18292 0
M  V30 1340 H 123.84 -3.23424 0.287614 0
M  V30 1341 H 124.851 -3.309 3.98404 0
M  V30 1342 H 121.528 -3.90635 1.47346 0
M  V30 1343 H 122.918 -3.83863 5.51451 0
M  V30 1344 N 125.638 -1.25649 -0.95132 0
M  V30 1345 C 126.568 -1.08808 -2.06599 0
M  V30 1346 C 127.549 0.00382547 -1.701 0
M  V30 1347 O 128.734 -0.166325 -1.93486 0
M  V30 1348 C 125.864 -0.709542 -3.39975 0
M  V30 1349 C 124.818 -1.75206 -3.90496 0
M  V30 1350 C 124.144 -1.22811 -5.20405 0
M  V30 1351 C 125.444 -3.15153 -4.16504 0
M  V30 1352 H 127.138 -2.02048 -2.20946 0
M  V30 1353 H 124.684 -0.972835 -1.06169 0
M  V30 1354 H 126.637 -0.578649 -4.17408 0
M  V30 1355 H 125.361 0.258556 -3.25575 0
M  V30 1356 H 124.02 -1.87145 -3.15234 0
M  V30 1357 H 123.668 -0.250145 -5.02378 0
M  V30 1358 H 123.368 -1.92492 -5.55176 0
M  V30 1359 H 124.892 -1.10968 -6.00432 0
M  V30 1360 H 126.306 -3.06349 -4.84586 0
M  V30 1361 H 124.703 -3.82333 -4.62538 0
M  V30 1362 H 125.773 -3.61966 -3.22658 0
M  V30 1363 N 127.117 1.15442 -1.07289 0
M  V30 1364 C 128.047 2.22312 -0.714107 0
M  V30 1365 C 129.028 1.67467 0.298155 0
M  V30 1366 O 130.213 1.93445 0.171048 0
M  V30 1367 C 127.343 3.47124 -0.110448 0
M  V30 1368 C 126.297 4.14926 -1.04979 0
M  V30 1369 C 125.623 5.33807 -0.308924 0
M  V30 1370 C 126.923 4.64762 -2.38314 0
M  V30 1371 H 128.617 2.5258 -1.6076 0
M  V30 1372 H 126.163 1.21404 -0.77441 0
M  V30 1373 H 128.116 4.21124 0.152482 0
M  V30 1374 H 126.84 3.16187 0.81812 0
M  V30 1375 H 125.499 3.42866 -1.29764 0
M  V30 1376 H 125.147 4.99126 0.623084 0
M  V30 1377 H 124.847 5.80113 -0.935036 0
M  V30 1378 H 126.371 6.10576 -0.0537771 0
M  V30 1379 H 127.785 5.30292 -2.1786 0
M  V30 1380 H 126.182 5.21728 -2.96514 0
M  V30 1381 H 127.252 3.80434 -3.00663 0
M  V30 1382 N 128.595 0.856903 1.32268 0
M  V30 1383 C 129.841 0.462069 1.97466 0
M  V30 1384 C 130.174 -0.980298 1.67642 0
M  V30 1385 O 129.449 -1.68824 0.965858 0
M  V30 1386 C 129.732 0.704336 3.53145 0
M  V30 1387 C 129.585 2.19529 3.9259 0
M  V30 1388 C 130.904 0.1622 4.39801 0
M  V30 1389 H 128.023 0.169357 0.717278 0
M  V30 1390 H 130.665 1.07574 1.56614 0
M  V30 1391 H 128.815 0.181999 3.88073 0
M  V30 1392 H 130.487 2.78387 3.67829 0
M  V30 1393 H 128.73 2.67292 3.41668 0
M  V30 1394 H 129.401 2.31549 5.01088 0
M  V30 1395 H 131.877 0.608905 4.11621 0
M  V30 1396 H 130.753 0.361265 5.4771 0
M  V30 1397 H 131.014 -0.935158 4.32096 0
M  V30 1398 N 130.073 -1.45103 0.615059 0
M  V30 1399 C 131.021 -2.32331 -0.111791 0
M  V30 1400 C 132.015 -1.46409 -0.852102 0
M  V30 1401 O 133.221 -1.62849 -0.766821 0
M  V30 1402 H 129.596 -0.749993 -0.0549072 0
M  V30 1403 H 131.567 -2.91407 0.642225 0
M  V30 1404 C 130.316 -3.3015 -1.09071 0
M  V30 1405 H 129.639 -3.96265 -0.530485 0
M  V30 1406 H 131.079 -3.93898 -1.56908 0
M  V30 1407 C 129.538 -2.57875 -2.168 0
M  V30 1408 O 130.068 -2.36567 -3.24652 0
M  V30 1409 N 128.274 -2.17884 -1.92289 0
M  V30 1410 H 127.821 -2.35413 -1.04587 0
M  V30 1411 H 127.779 -1.6985 -2.64572 0
M  V30 1412 N 131.551 -0.354651 -1.53558 0
M  V30 1413 C 132.499 0.512195 -2.26891 0
M  V30 1414 C 133.493 1.09263 -1.29452 0
M  V30 1415 O 134.699 1.03709 -1.47121 0
M  V30 1416 H 131.074 0.183878 -0.729173 0
M  V30 1417 H 133.045 -0.128202 -2.98124 0
M  V30 1418 C 131.794 1.64563 -3.06291 0
M  V30 1419 H 131.117 1.20829 -3.81104 0
M  V30 1420 H 132.557 2.22711 -3.60799 0
M  V30 1421 C 131.016 2.58158 -2.16462 0
M  V30 1422 O 131.546 3.60695 -1.76811 0
M  V30 1423 N 129.752 2.27096 -1.81317 0
M  V30 1424 H 129.299 1.43751 -2.1376 0
M  V30 1425 H 129.257 2.89975 -1.21498 0
M  V30 1426 N 133.029 1.57378 -0.0835403 0
M  V30 1427 C 133.992 2.12252 0.864959 0
M  V30 1428 C 134.992 1.04916 1.21858 0
M  V30 1429 O 136.182 1.30853 1.14991 0
M  V30 1430 C 133.314 2.63358 2.16461 0
M  V30 1431 H 134.507 2.97371 0.388676 0
M  V30 1432 H 132.06 1.55423 0.165317 0
M  V30 1433 H 132.795 1.81727 2.686 0
M  V30 1434 H 132.58 3.41826 1.92087 0
M  V30 1435 H 134.07 3.05847 2.84337 0
M  V30 1436 N 134.507 -0.190092 1.56449 0
M  V30 1437 C 135.735 -0.925772 1.85033 0
M  V30 1438 C 136.15 -1.76638 0.666658 0
M  V30 1439 O 135.507 -1.78822 -0.364565 0
M  V30 1440 C 135.558 -1.81786 3.12468 0
M  V30 1441 O 135.279 -1.01118 4.26271 0
M  V30 1442 C 136.78 -2.6648 3.54265 0
M  V30 1443 H 134 -0.269872 0.614337 0
M  V30 1444 H 136.544 -0.195837 2.0356 0
M  V30 1445 H 134.699 -2.50136 2.95822 0
M  V30 1446 H 135.113 -1.61956 4.98869 0
M  V30 1447 H 136.587 -3.24722 4.46385 0
M  V30 1448 H 137.064 -3.40434 2.77491 0
M  V30 1449 H 137.67 -2.03493 3.73458 0
M  V30 1450 N 135.985 -1.50799 -0.457987 0
M  V30 1451 C 137.233 -1.62121 -1.2067 0
M  V30 1452 C 137.554 -0.329793 -1.92191 0
M  V30 1453 O 136.824 0.653409 -1.84682 0
M  V30 1454 H 135.404 -0.597441 -0.448411 0
M  V30 1455 H 138.066 -1.87637 -0.527096 0
M  V30 1456 H 137.162 -2.43882 -1.94751 0
M  V30 1457 N 137.463 0.71206 -1.40597 0
M  V30 1458 C 138.395 1.83704 -1.37061 0
M  V30 1459 C 139.408 1.60453 -0.275426 0
M  V30 1460 O 140.597 1.70262 -0.53602 0
M  V30 1461 C 137.697 3.20172 -1.11099 0
M  V30 1462 C 136.87 3.7059 -2.3234 0
M  V30 1463 C 135.929 4.85681 -2.02485 0
M  V30 1464 O 134.955 4.9815 -2.75382 0
M  V30 1465 N 136.157 5.71735 -1.00497 0
M  V30 1466 H 138.922 1.87235 -2.34016 0
M  V30 1467 H 136.483 0.893739 -1.34996 0
M  V30 1468 H 138.475 3.94768 -0.891064 0
M  V30 1469 H 137.045 3.11767 -0.227989 0
M  V30 1470 H 136.265 2.87085 -2.7014 0
M  V30 1471 H 137.553 4.01011 -3.13157 0
M  V30 1472 H 136.951 5.64275 -0.401298 0
M  V30 1473 H 135.508 6.463 -0.844942 0
M  V30 1474 N 138.941 1.26152 0.944643 0
M  V30 1475 C 140.166 1.14363 1.7302 0
M  V30 1476 C 140.591 -0.29772 1.85729 0
M  V30 1477 O 139.949 -1.2157 1.34501 0
M  V30 1478 C 139.997 1.81378 3.11664 0
M  V30 1479 O 139.101 1.10022 3.97453 0
M  V30 1480 H 138.442 0.398694 0.53098 0
M  V30 1481 H 140.972 1.66906 1.18337 0
M  V30 1482 H 140.982 1.88064 3.62072 0
M  V30 1483 H 139.657 2.86237 3.0173 0
M  V30 1484 H 138.234 1.11287 3.55907 0
M  V30 1485 N 140.419 -1.14872 1.07899 0
M  V30 1486 C 141.649 -1.89386 0.825631 0
M  V30 1487 C 142.057 -1.78565 -0.625406 0
M  V30 1488 O 141.4 -1.13918 -1.44113 0
M  V30 1489 C 141.462 -3.40206 1.16191 0
M  V30 1490 C 141.126 -3.74812 2.61467 0
M  V30 1491 C 142.123 -3.75367 3.59716 0
M  V30 1492 C 139.808 -4.0495 2.97189 0
M  V30 1493 C 141.802 -4.05574 4.9172 0
M  V30 1494 C 139.489 -4.34821 4.29388 0
M  V30 1495 C 140.487 -4.35116 5.26463 0
M  V30 1496 O 140.175 -4.64267 6.56286 0
M  V30 1497 H 139.907 -0.606894 0.297751 0
M  V30 1498 H 142.461 -1.46438 1.44031 0
M  V30 1499 H 140.691 -3.8358 0.490214 0
M  V30 1500 H 142.38 -3.96018 0.890193 0
M  V30 1501 H 143.146 -3.52176 3.33462 0
M  V30 1502 H 139.025 -4.03876 2.22273 0
M  V30 1503 H 142.569 -4.05719 5.67484 0
M  V30 1504 H 138.466 -4.5748 4.55392 0
M  V30 1505 H 139.234 -4.82007 6.61522 0
M  V30 1506 N 141.898 -0.863906 -1.31812 0
M  V30 1507 C 143.144 -0.472535 -1.97218 0
M  V30 1508 C 143.477 0.971394 -1.68159 0
M  V30 1509 O 142.752 1.68309 -0.974798 0
M  V30 1510 C 143.035 -0.723054 -3.52766 0
M  V30 1511 C 142.888 -2.21608 -3.91421 0
M  V30 1512 C 144.207 -0.185522 -4.39709 0
M  V30 1513 H 141.326 -0.173158 -0.71637 0
M  V30 1514 H 143.968 -1.08403 -1.56041 0
M  V30 1515 H 142.118 -0.202577 -3.87971 0
M  V30 1516 H 143.79 -2.80334 -3.66347 0
M  V30 1517 H 142.033 -2.691 -3.40246 0
M  V30 1518 H 142.704 -2.34203 -4.99853 0
M  V30 1519 H 145.18 -0.630726 -4.11292 0
M  V30 1520 H 144.056 -0.390306 -5.47511 0
M  V30 1521 H 144.317 0.912229 -4.32586 0
M  V30 1522 N 143.376 1.44774 -0.622745 0
M  V30 1523 C 144.306 2.33382 0.0741861 0
M  V30 1524 C 145.287 1.47719 0.843387 0
M  V30 1525 O 146.472 1.76458 0.810934 0
M  V30 1526 C 143.602 3.30663 1.06204 0
M  V30 1527 C 142.556 4.26079 0.405037 0
M  V30 1528 C 141.882 5.13165 1.5022 0
M  V30 1529 C 143.182 5.1781 -0.683414 0
M  V30 1530 H 144.876 2.91905 -0.665713 0
M  V30 1531 H 142.422 1.40363 -0.321587 0
M  V30 1532 H 144.375 3.9153 1.55827 0
M  V30 1533 H 143.099 2.70331 1.83272 0
M  V30 1534 H 141.758 3.66532 -0.0704683 0
M  V30 1535 H 141.406 4.49191 2.26355 0
M  V30 1536 H 141.106 5.77812 1.06803 0
M  V30 1537 H 142.63 5.76902 2.00041 0
M  V30 1538 H 144.044 5.72661 -0.270631 0
M  V30 1539 H 142.441 5.91015 -1.04023 0
M  V30 1540 H 143.511 4.59326 -1.55395 0
M  V30 1541 N 144.854 0.36279 1.53368 0
M  V30 1542 C 146.1 -0.228113 2.01513 0
M  V30 1543 C 146.433 -1.48648 1.2497 0
M  V30 1544 O 145.708 -1.91459 0.342616 0
M  V30 1545 C 145.991 -0.522884 3.56284 0
M  V30 1546 C 145.844 0.74892 4.43521 0
M  V30 1547 C 147.163 -1.32461 4.19693 0
M  V30 1548 H 144.282 -0.0814343 0.732487 0
M  V30 1549 H 146.924 0.48713 1.83649 0
M  V30 1550 H 145.074 -1.1322 3.71636 0
M  V30 1551 H 146.746 1.38648 4.39971 0
M  V30 1552 H 144.989 1.36986 4.11603 0
M  V30 1553 H 145.66 0.497667 5.49752 0
M  V30 1554 H 148.136 -0.809203 4.08156 0
M  V30 1555 H 147.012 -1.49961 5.28018 0
M  V30 1556 H 147.273 -2.33232 3.75573 0
M  V30 1557 N 146.332 -1.57332 0.0918853 0
M  V30 1558 C 147.28 -2.15075 -0.885747 0
M  V30 1559 C 148.274 -1.09277 -1.29441 0
M  V30 1560 O 149.48 -1.27627 -1.26931 0
M  V30 1561 H 145.855 -0.687966 -0.303656 0
M  V30 1562 H 147.826 -2.96047 -0.373995 0
M  V30 1563 C 146.575 -2.74325 -2.13638 0
M  V30 1564 H 145.898 -3.55418 -1.8308 0
M  V30 1565 H 147.338 -3.183 -2.80109 0
M  V30 1566 C 145.797 -1.70062 -2.90827 0
M  V30 1567 O 146.327 -1.13763 -3.85254 0
M  V30 1568 N 144.533 -1.40628 -2.54307 0
M  V30 1569 H 144.08 -1.866 -1.7759 0
M  V30 1570 H 144.038 -0.711043 -3.06254 0
M  V30 1571 N 147.81 0.181792 -1.56548 0
M  V30 1572 C 149.226 0.53316 -1.50431 0
M  V30 1573 C 149.426 1.85184 -0.794297 0
M  V30 1574 O 148.482 2.50058 -0.350318 0
M  V30 1575 C 149.795 0.575597 -2.9514 0
M  V30 1576 C 151.343 0.663519 -3.05886 0
M  V30 1577 C 151.818 0.736946 -4.52032 0
M  V30 1578 N 153.309 0.800118 -4.56237 0
M  V30 1579 C 154.044 0.877327 -5.66649 0
M  V30 1580 N 153.54 0.916016 -6.86718 0
M  V30 1581 N 155.333 0.915542 -5.54594 0
M  V30 1582 H 147.484 -0.683025 -2.01118 0
M  V30 1583 H 149.747 -0.244988 -0.915797 0
M  V30 1584 H 149.453 -0.324482 -3.502 0
M  V30 1585 H 149.327 1.42572 -3.49218 0
M  V30 1586 H 151.714 1.55403 -2.50867 0
M  V30 1587 H 151.795 -0.21307 -2.54911 0
M  V30 1588 H 151.439 -0.149262 -5.07681 0
M  V30 1589 H 151.369 1.62953 -5.00753 0
M  V30 1590 H 153.86 0.778926 -3.69785 0
M  V30 1591 H 154.173 0.975813 -7.66614 0
M  V30 1592 H 152.518 0.884469 -6.89349 0
M  V30 1593 H 155.709 0.882245 -4.59711 0
M  V30 1594 H 155.882 0.972253 -6.40665 0
M  V30 1595 N 149.288 1.51039 0.449983 0
M  V30 1596 C 150.516 1.66869 1.2232 0
M  V30 1597 C 150.931 0.360727 1.85322 0
M  V30 1598 O 150.288 -0.659531 1.70166 0
M  V30 1599 C 150.339 2.77524 2.31652 0
M  V30 1600 O 150.06 4.03252 1.7123 0
M  V30 1601 C 151.561 3.04512 3.2216 0
M  V30 1602 H 148.781 0.560326 0.369155 0
M  V30 1603 H 151.325 1.97385 0.534719 0
M  V30 1604 H 149.48 2.49642 2.96239 0
M  V30 1605 H 149.894 4.64609 2.43389 0
M  V30 1606 H 151.368 3.85551 3.95038 0
M  V30 1607 H 151.845 2.16415 3.8218 0
M  V30 1608 H 152.451 3.34005 2.63288 0
M  V30 1609 N 150.766 -0.704594 1.40972 0
M  V30 1610 C 151.696 -1.83124 1.44872 0
M  V30 1611 C 152.677 -1.67281 0.30838 0
M  V30 1612 O 153.862 -1.87149 0.518556 0
M  V30 1613 C 150.992 -3.21181 1.32136 0
M  V30 1614 C 149.946 -3.51714 2.43888 0
M  V30 1615 C 149.272 -4.89032 2.16222 0
M  V30 1616 C 150.572 -3.516 3.86232 0
M  V30 1617 H 152.266 -1.80117 2.39161 0
M  V30 1618 H 149.812 -0.865145 1.15114 0
M  V30 1619 H 151.765 -3.99702 1.33479 0
M  V30 1620 H 150.489 -3.24791 0.343279 0
M  V30 1621 H 149.148 -2.75539 2.41813 0
M  V30 1622 H 148.796 -4.89256 1.16778 0
M  V30 1623 H 148.496 -5.10426 2.911 0
M  V30 1624 H 150.02 -5.69873 2.19265 0
M  V30 1625 H 151.434 -4.2014 3.9007 0
M  V30 1626 H 149.831 -3.84523 4.60719 0
M  V30 1627 H 150.901 -2.50757 4.15029 0
M  V30 1628 N 152.244 -1.26651 -0.937939 0
M  V30 1629 C 153.194 -1.05156 -2.02302 0
M  V30 1630 C 154.178 0.0171233 -1.60891 0
M  V30 1631 O 155.37 -0.200213 -1.75864 0
M  V30 1632 C 152.499 -0.689962 -3.36295 0
M  V30 1633 C 151.585 -1.79626 -3.84181 0
M  V30 1634 N 151.976 -3.03422 -4.04684 0
M  V30 1635 C 150.274 -1.6806 -4.13124 0
M  V30 1636 C 150.975 -3.75345 -4.444 0
M  V30 1637 N 149.951 -3.03051 -4.51288 0
M  V30 1638 H 153.753 -1.99117 -2.1617 0
M  V30 1639 H 151.267 -1.17216 -1.12402 0
M  V30 1640 H 153.264 -0.517112 -4.13681 0
M  V30 1641 H 151.924 0.242139 -3.23796 0
M  V30 1642 H 152.935 -3.39293 -3.91281 0
M  V30 1643 H 149.612 -0.818629 -4.09396 0
M  V30 1644 H 151.002 -4.81691 -4.68427 0
M  V30 1645 N 153.722 1.14298 -1.08507 0
M  V30 1646 C 155.133 1.66926 -0.836227 0
M  V30 1647 C 155.484 1.85576 0.63686 0
M  V30 1648 O 154.609 1.56767 1.49175 0
M  V30 1649 C 155.204 3.03219 -1.51142 0
M  V30 1650 C 153.763 3.52876 -1.30979 0
M  V30 1651 C 152.91 2.2833 -1.57356 0
M  V30 1652 H 155.861 0.983491 -1.24552 0
M  V30 1653 H 155.882 3.68726 -0.939211 0
M  V30 1654 H 155.394 2.89612 -2.58353 0
M  V30 1655 H 153.495 3.71703 -0.258429 0
M  V30 1656 H 153.608 4.33586 -2.03814 0
M  V30 1657 H 151.972 2.34454 -0.995164 0
M  V30 1658 H 152.755 2.17298 -2.65775 0
M  V30 1659 N 155.201 0.870884 1.31352 0
M  V30 1660 C 156.134 0.271983 2.26573 0
M  V30 1661 C 157.112 -0.599385 1.51149 0
M  V30 1662 O 158.296 -0.552605 1.80218 0
M  V30 1663 C 155.423 -0.614801 3.33073 0
M  V30 1664 C 154.469 0.185342 4.26097 0
M  V30 1665 S 155.302 1.56444 5.12138 0
M  V30 1666 C 156.458 0.683807 6.22153 0
M  V30 1667 H 156.691 1.07916 2.77023 0
M  V30 1668 H 154.224 0.669459 1.39132 0
M  V30 1669 H 156.182 -1.12074 3.94905 0
M  V30 1670 H 154.843 -1.39593 2.81376 0
M  V30 1671 H 154.036 -0.490771 5.01605 0
M  V30 1672 H 153.638 0.623415 3.68768 0
M  V30 1673 H 155.93 -0.10521 6.77418 0
M  V30 1674 H 156.873 1.41004 6.93919 0
M  V30 1675 H 157.281 0.250952 5.63942 0
M  V30 1676 N 156.679 -1.44442 0.630414 0
M  V30 1677 C 158.09 -1.85434 0.217063 0
M  V30 1678 C 158.441 -1.52748 -1.23136 0
M  V30 1679 O 157.566 -0.965205 -1.93682 0
M  V30 1680 C 158.161 -3.36581 0.387168 0
M  V30 1681 C 156.72 -3.76389 0.0283297 0
M  V30 1682 C 155.867 -2.68296 0.700889 0
M  V30 1683 H 158.818 -1.34919 0.83562 0
M  V30 1684 H 158.839 -3.78657 -0.374086 0
M  V30 1685 H 158.351 -3.60339 1.44144 0
M  V30 1686 H 156.452 -3.58246 -1.02423 0
M  V30 1687 H 156.565 -4.77095 0.437892 0
M  V30 1688 H 154.929 -2.54335 0.136267 0
M  V30 1689 H 155.712 -2.94887 1.75774 0
M  V30 1690 N 158.157 -0.370918 -1.53173 0
M  V30 1691 C 159.104 0.473035 -2.259 0
M  V30 1692 C 160.074 1.07311 -1.26781 0
M  V30 1693 O 161.259 1.1046 -1.55574 0
M  V30 1694 C 158.399 1.60405 -3.05556 0
M  V30 1695 C 157.512 1.02863 -4.19575 0
M  V30 1696 C 156.647 2.12918 -4.86661 0
M  V30 1697 C 155.686 1.52869 -5.92704 0
M  V30 1698 N 154.823 2.56779 -6.53459 0
M  V30 1699 H 159.663 -0.153649 -2.97604 0
M  V30 1700 H 157.2 -0.0875946 -1.46839 0
M  V30 1701 H 159.158 2.27034 -3.50016 0
M  V30 1702 H 157.788 2.20131 -2.36097 0
M  V30 1703 H 156.84 0.252465 -3.79561 0
M  V30 1704 H 158.152 0.549642 -4.95762 0
M  V30 1705 H 157.306 2.87356 -5.34333 0
M  V30 1706 H 156.045 2.6417 -4.09958 0
M  V30 1707 H 155.05 0.769479 -5.44389 0
M  V30 1708 H 156.275 1.02435 -6.7133 0
M  V30 1709 H 154.221 3.07235 -5.79606 0
M  V30 1710 H 154.138 2.13583 -7.25202 0
M  V30 1711 H 155.406 3.30903 -7.05779 0
M  V30 1712 N 159.635 1.57281 -0.100228 0
M  V30 1713 C 160.883 1.94153 0.561157 0
M  V30 1714 C 161.204 0.983157 1.68401 0
M  V30 1715 O 160.474 0.0361132 1.95867 0
M  V30 1716 H 159.054 0.716791 0.210283 0
M  V30 1717 H 161.716 1.94202 -0.164765 0
M  V30 1718 H 160.812 2.96709 0.968008 0
M  V30 1719 N 161.113 -0.173488 1.56642 0
M  V30 1720 C 162.076 -1.19859 1.95362 0
M  V30 1721 C 163.076 -1.37296 0.83704 0
M  V30 1722 O 164.266 -1.34739 1.10413 0
M  V30 1723 C 161.398 -2.56405 2.24654 0
M  V30 1724 H 162.591 -0.867062 2.87092 0
M  V30 1725 H 160.144 -0.415853 1.50666 0
M  V30 1726 H 160.879 -2.94576 1.35631 0
M  V30 1727 H 160.664 -2.45115 3.06041 0
M  V30 1728 H 162.154 -3.30287 2.5554 0
M  V30 1729 N 162.591 -1.51276 -0.441967 0
M  V30 1730 C 163.837 -1.63958 -1.19355 0
M  V30 1731 C 164.17 -0.352543 -1.90973 0
M  V30 1732 O 163.445 0.647627 -1.83401 0
M  V30 1733 C 163.728 -2.83979 -2.21422 0
M  V30 1734 C 163.581 -4.22646 -1.53918 0
M  V30 1735 C 164.9 -2.99521 -3.22451 0
M  V30 1736 H 162.019 -0.596709 -0.432559 0
M  V30 1737 H 164.661 -1.83748 -0.483398 0
M  V30 1738 H 162.811 -2.67237 -2.81987 0
M  V30 1739 H 164.483 -4.51045 -0.967256 0
M  V30 1740 H 162.726 -4.25558 -0.841615 0
M  V30 1741 H 163.397 -5.02609 -2.28229 0
M  V30 1742 H 165.873 -3.14944 -2.71937 0
M  V30 1743 H 164.749 -3.85072 -3.91166 0
M  V30 1744 H 165.01 -2.11391 -3.88287 0
M  V30 1745 N 164.069 0.697108 -1.41344 0
M  V30 1746 C 165.002 1.82134 -1.37486 0
M  V30 1747 C 165.98 1.60784 -0.242351 0
M  V30 1748 O 167.164 1.83553 -0.429012 0
M  V30 1749 C 164.291 3.18788 -1.14421 0
M  V30 1750 C 163.337 3.58932 -2.3037 0
M  V30 1751 S 164.17 3.63916 -3.92843 0
M  V30 1752 C 165.326 5.03298 -3.72078 0
M  V30 1753 H 165.559 1.85129 -2.32625 0
M  V30 1754 H 163.092 0.865671 -1.2785 0
M  V30 1755 H 165.05 3.97677 -1.018 0
M  V30 1756 H 163.711 3.13404 -0.20905 0
M  V30 1757 H 162.904 4.58202 -2.09922 0
M  V30 1758 H 162.506 2.87347 -2.39391 0
M  V30 1759 H 164.798 5.90753 -3.31688 0
M  V30 1760 H 165.741 5.28788 -4.70945 0
M  V30 1761 H 166.149 4.74764 -3.05384 0
M  V30 1762 N 165.547 1.27147 0.931209 0
M  V30 1763 C 166.795 1.13055 1.6752 0
M  V30 1764 C 167.116 -0.324791 1.92276 0
M  V30 1765 O 166.386 -1.22775 1.52654 0
M  V30 1766 H 164.966 0.415391 0.620854 0
M  V30 1767 H 167.628 1.59623 1.11833 0
M  V30 1768 H 166.724 1.65694 2.64485 0
M  V30 1769 N 167.025 -1.13721 1.09112 0
M  V30 1770 C 168.274 -1.84275 0.82009 0
M  V30 1771 C 168.587 -1.84253 -0.656509 0
M  V30 1772 O 169.793 -2.50668 -1.04296 0
M  V30 1773 C 168.249 -3.30825 1.41714 0
M  V30 1774 C 167.857 -3.39244 2.92605 0
M  V30 1775 C 169.601 -4.06443 1.22492 0
M  V30 1776 C 167.508 -4.80047 3.45411 0
M  V30 1777 H 166.438 -0.690387 0.30312 0
M  V30 1778 H 169.089 -1.28146 1.31343 0
M  V30 1779 H 167.471 -3.86737 0.851498 0
M  V30 1780 H 168.645 -2.93344 3.55367 0
M  V30 1781 H 166.96 -2.77088 3.10823 0
M  V30 1782 H 169.557 -5.10387 1.59402 0
M  V30 1783 H 169.9 -4.15972 0.165299 0
M  V30 1784 H 170.433 -3.56852 1.75788 0
M  V30 1785 H 167.172 -4.75709 4.50978 0
M  V30 1786 H 166.692 -5.26455 2.87411 0
M  V30 1787 H 168.371 -5.48957 3.42425 0
M  V30 1788 N 168.503 -0.877838 -1.30888 0
M  V30 1789 C 169.914 -0.544193 -1.78593 0
M  V30 1790 C 170.265 0.939301 -1.72254 0
M  V30 1791 O 169.39 1.7337 -1.29505 0
M  V30 1792 C 169.985 -0.98105 -3.24285 0
M  V30 1793 C 168.544 -0.698935 -3.69854 0
M  V30 1794 C 167.691 -1.168 -2.51502 0
M  V30 1795 H 170.642 -1.06278 -1.17859 0
M  V30 1796 H 170.663 -0.307009 -3.79259 0
M  V30 1797 H 170.175 -2.06079 -3.28866 0
M  V30 1798 H 168.276 0.369112 -3.70767 0
M  V30 1799 H 168.389 -1.28148 -4.61644 0
M  V30 1800 H 166.753 -0.587535 -2.47831 0
M  V30 1801 H 167.536 -2.25533 -2.58824 0
M  V30 1802 N 169.982 1.44106 -0.638065 0
M  V30 1803 C 171.21 2.06336 -0.152615 0
M  V30 1804 C 171.625 1.47731 1.17563 0
M  V30 1805 O 170.982 0.602806 1.72257 0
M  V30 1806 C 171.033 3.61479 -0.0391491 0
M  V30 1807 O 170.754 4.17903 -1.31487 0
M  V30 1808 C 172.255 4.40757 0.474176 0
M  V30 1809 H 169.475 0.665862 -0.0828776 0
M  V30 1810 H 172.019 1.84862 -0.87443 0
M  V30 1811 H 170.174 3.82191 0.633142 0
M  V30 1812 H 170.588 5.11416 -1.16421 0
M  V30 1813 H 172.062 5.49707 0.502562 0
M  V30 1814 H 172.539 4.12697 1.50258 0
M  V30 1815 H 173.145 4.24979 -0.165102 0
M  V30 1816 N 171.46 0.379036 1.52974 0
M  V30 1817 C 172.407 -0.461048 2.26148 0
M  V30 1818 C 173.377 -1.06637 1.27349 0
M  V30 1819 O 174.562 -1.09633 1.56157 0
M  V30 1820 C 171.702 -1.58782 3.06402 0
M  V30 1821 C 170.815 -1.00636 4.20115 0
M  V30 1822 C 169.95 -2.10334 4.87784 0
M  V30 1823 C 168.989 -1.49724 5.93506 0
M  V30 1824 N 168.126 -2.5331 6.54812 0
M  V30 1825 H 172.966 0.169429 2.97518 0
M  V30 1826 H 170.503 0.0953806 1.4679 0
M  V30 1827 H 172.461 -2.25174 3.51215 0
M  V30 1828 H 171.091 -2.18876 2.37261 0
M  V30 1829 H 170.143 -0.232332 3.7969 0
M  V30 1830 H 171.455 -0.523343 4.96047 0
M  V30 1831 H 170.609 -2.84519 5.35849 0
M  V30 1832 H 169.348 -2.61992 4.11353 0
M  V30 1833 H 168.353 -0.740598 5.44789 0
M  V30 1834 H 169.578 -0.988732 6.71864 0
M  V30 1835 H 167.524 -3.04156 5.81227 0
M  V30 1836 H 167.441 -2.09734 7.26325 0
M  V30 1837 H 168.709 -3.27155 7.07524 0
M  V30 1838 N 172.938 -1.57226 0.108567 0
M  V30 1839 C 174.187 -1.94008 -0.551703 0
M  V30 1840 C 174.5 -0.993442 -1.68494 0
M  V30 1841 O 175.706 -1.25551 -2.40726 0
M  V30 1842 C 174.162 -3.44763 -1.03279 0
M  V30 1843 C 173.77 -4.47943 0.0714193 0
M  V30 1844 C 175.514 -3.90483 -1.66503 0
M  V30 1845 C 173.421 -5.89865 -0.425779 0
M  V30 1846 H 172.351 -0.724206 -0.209863 0
M  V30 1847 H 175.002 -1.82547 0.186741 0
M  V30 1848 H 173.384 -3.51422 -1.82533 0
M  V30 1849 H 174.558 -4.52942 0.847365 0
M  V30 1850 H 172.873 -4.11913 0.609669 0
M  V30 1851 H 175.47 -4.93925 -2.04798 0
M  V30 1852 H 175.813 -3.29877 -2.53942 0
M  V30 1853 H 176.346 -3.86581 -0.938074 0
M  V30 1854 H 173.085 -6.54202 0.412316 0
M  V30 1855 H 172.605 -5.88309 -1.16843 0
M  V30 1856 H 174.284 -6.40844 -0.890397 0
M  V30 1857 N 174.416 0.165178 -1.56732 0
M  V30 1858 C 175.379 1.18822 -1.95995 0
M  V30 1859 C 176.379 1.3685 -0.84431 0
M  V30 1860 O 177.569 1.34152 -1.11126 0
M  V30 1861 C 174.701 2.5521 -2.26011 0
M  V30 1862 H 175.894 0.851825 -2.87548 0
M  V30 1863 H 173.447 0.407857 -1.50885 0
M  V30 1864 H 174.182 2.93852 -1.37191 0
M  V30 1865 H 173.967 2.43489 -3.07336 0
M  V30 1866 H 175.457 3.28927 -2.57288 0
M  V30 1867 N 175.894 1.51508 0.433938 0
M  V30 1868 C 177.305 1.56784 1.01369 0
M  V30 1869 C 177.656 0.393349 1.92217 0
M  V30 1870 O 176.781 -0.489441 2.10792 0
M  V30 1871 C 177.376 2.84144 1.8452 0
M  V30 1872 C 175.935 2.9198 2.37539 0
M  V30 1873 C 175.082 2.51482 1.16843 0
M  V30 1874 H 178.033 1.57236 0.215081 0
M  V30 1875 H 178.054 2.68098 2.70007 0
M  V30 1876 H 177.566 3.69607 1.18373 0
M  V30 1877 H 175.667 2.10955 3.0713 0
M  V30 1878 H 175.78 3.95704 2.70103 0
M  V30 1879 H 174.144 2.04758 1.51481 0
M  V30 1880 H 174.927 3.39293 0.523015 0
M  V30 1881 N 177.372 -0.689602 1.41712 0
M  V30 1882 C 178.619 -1.44966 1.4139 0
M  V30 1883 C 178.947 -1.94484 0.025105 0
M  V30 1884 O 178.202 -1.70307 -0.964048 0
M  V30 1885 C 178.501 -2.67298 2.37247 0
M  V30 1886 C 178.167 -2.36405 3.83958 0
M  V30 1887 C 176.829 -2.27691 4.23923 0
M  V30 1888 C 179.181 -2.11043 4.76561 0
M  V30 1889 C 176.509 -1.91719 5.54492 0
M  V30 1890 C 178.861 -1.76578 6.07456 0
M  V30 1891 C 177.525 -1.66363 6.46436 0
M  V30 1892 H 176.795 -0.53047 0.517381 0
M  V30 1893 H 179.442 -0.787655 1.74552 0
M  V30 1894 H 177.747 -3.38461 1.9736 0
M  V30 1895 H 179.444 -3.25452 2.34269 0
M  V30 1896 H 176.034 -2.44085 3.52308 0
M  V30 1897 H 180.218 -2.16717 4.46483 0
M  V30 1898 H 175.474 -1.82367 5.83568 0
M  V30 1899 H 179.648 -1.55974 6.78708 0
M  V30 1900 H 177.275 -1.38258 7.47522 0
M  V30 1901 N 178.85 -1.27639 -0.924453 0
M  V30 1902 C 180.096 -1.14336 -1.67497 0
M  V30 1903 C 180.429 0.309465 -1.91718 0
M  V30 1904 O 179.704 1.22608 -1.50989 0
M  V30 1905 C 179.987 -1.93096 -3.0395 0
M  V30 1906 C 179.84 -3.46381 -2.8695 0
M  V30 1907 C 181.159 -1.73798 -4.0433 0
M  V30 1908 H 178.278 -0.416728 -0.607871 0
M  V30 1909 H 180.92 -1.56832 -1.07256 0
M  V30 1910 H 179.07 -1.56982 -3.55372 0
M  V30 1911 H 180.742 -3.92343 -2.42621 0
M  V30 1912 H 178.985 -3.72557 -2.22225 0
M  V30 1913 H 179.656 -3.96735 -3.83804 0
M  V30 1914 H 182.132 -2.05293 -3.61931 0
M  V30 1915 H 181.008 -2.31294 -4.97789 0
M  V30 1916 H 181.269 -0.686725 -4.36734 0
M  V30 1917 N 180.328 1.1314 -1.09713 0
M  V30 1918 C 181.553 1.88862 -0.857081 0
M  V30 1919 C 181.978 1.78729 0.586304 0
M  V30 1920 O 181.336 1.13692 1.41222 0
M  V30 1921 C 181.384 3.36325 -1.30069 0
M  V30 1922 O 180.488 4.09815 -0.461007 0
M  V30 1923 H 179.829 0.587108 -0.310162 0
M  V30 1924 H 182.359 1.43129 -1.46203 0
M  V30 1925 H 182.369 3.87157 -1.28738 0
M  V30 1926 H 181.044 3.43017 -2.35185 0
M  V30 1927 H 179.621 3.68986 -0.538888 0
M  V30 1928 N 181.806 0.884767 1.30421 0
M  V30 1929 C 183.034 0.518044 2.0031 0
M  V30 1930 C 183.449 -0.893408 1.66324 0
M  V30 1931 O 182.806 -1.5875 0.900262 0
M  V30 1932 C 182.857 0.682997 3.54989 0
M  V30 1933 O 182.578 2.03888 3.87764 0
M  V30 1934 C 184.079 0.31924 4.42149 0
M  V30 1935 H 181.299 0.200265 0.640418 0
M  V30 1936 H 183.843 1.19001 1.6631 0
M  V30 1937 H 181.998 0.0584052 3.87356 0
M  V30 1938 H 182.412 2.05735 4.82466 0
M  V30 1939 H 183.886 0.485555 5.4986 0
M  V30 1940 H 184.363 -0.742717 4.32875 0
M  V30 1941 H 184.969 0.920147 4.15227 0
M  V30 1942 N 183.284 -1.43765 0.645699 0
M  V30 1943 C 184.532 -2.01499 0.155731 0
M  V30 1944 C 184.853 -1.51151 -1.232 0
M  V30 1945 O 184.123 -0.721044 -1.82148 0
M  V30 1946 H 182.703 -0.745003 0.0545817 0
M  V30 1947 H 185.365 -1.76075 0.835677 0
M  V30 1948 H 184.461 -3.1181 0.134577 0
M  V30 1949 N 184.763 -0.387143 -1.52771 0
M  V30 1950 C 185.693 0.440551 -2.29306 0
M  V30 1951 C 186.674 1.06535 -1.32606 0
M  V30 1952 O 187.859 1.07853 -1.61497 0
M  V30 1953 C 184.989 1.56919 -3.09829 0
M  V30 1954 C 183.943 1.07054 -4.14395 0
M  V30 1955 C 183.269 2.29109 -4.83129 0
M  V30 1956 C 184.569 0.140015 -5.22112 0
M  V30 1957 H 186.263 -0.198026 -2.98744 0
M  V30 1958 H 183.809 -0.09668 -1.43675 0
M  V30 1959 H 185.762 2.15503 -3.62128 0
M  V30 1960 H 184.486 2.23532 -2.3812 0
M  V30 1961 H 183.145 0.507247 -3.63074 0
M  V30 1962 H 182.793 2.94227 -4.0797 0
M  V30 1963 H 182.493 1.96406 -5.53804 0
M  V30 1964 H 184.017 2.88339 -5.38231 0
M  V30 1965 H 185.431 0.633978 -5.69784 0
M  V30 1966 H 183.828 -0.0971485 -6.00021 0
M  V30 1967 H 184.898 -0.811711 -4.78058 0
M  V30 1968 N 186.241 1.57166 -0.116904 0
M  V30 1969 C 187.488 1.95123 0.541603 0
M  V30 1970 C 187.816 1.00006 1.6682 0
M  V30 1971 O 187.071 0.0235658 1.95686 0
M  V30 1972 C 187.37 3.39508 1.11664 0
M  V30 1973 C 187.036 4.50762 0.111606 0
M  V30 1974 C 185.698 4.80918 -0.164758 0
M  V30 1975 C 188.05 5.18036 -0.573438 0
M  V30 1976 C 185.378 5.75666 -1.13249 0
M  V30 1977 C 187.73 6.13824 -1.52978 0
M  V30 1978 C 186.394 6.42374 -1.81415 0
M  V30 1979 H 185.664 0.714005 0.198187 0
M  V30 1980 H 188.311 1.9048 -0.197365 0
M  V30 1981 H 186.616 3.40835 1.93232 0
M  V30 1982 H 188.313 3.66189 1.63422 0
M  V30 1983 H 184.903 4.27272 0.337192 0
M  V30 1984 H 189.087 4.94896 -0.373092 0
M  V30 1985 H 184.343 5.96092 -1.35958 0
M  V30 1986 H 188.517 6.65039 -2.06629 0
M  V30 1987 H 186.144 7.15599 -2.56557 0
M  V30 1988 N 187.719 -0.156864 1.56817 0
M  V30 1989 C 188.944 -0.890331 1.87318 0
M  V30 1990 C 189.369 -1.74394 0.704855 0
M  V30 1991 O 188.727 -1.77972 -0.345786 0
M  V30 1992 C 188.775 -1.73102 3.16336 0
M  V30 1993 O 187.879 -2.83422 2.99576 0
M  V30 1994 H 187.22 -0.24857 0.615718 0
M  V30 1995 H 189.75 -0.150649 2.04045 0
M  V30 1996 H 189.76 -2.12803 3.48107 0
M  V30 1997 H 188.435 -1.10412 4.00976 0
M  V30 1998 H 187.012 -2.47199 2.7919 0
M  V30 1999 N 189.197 -1.51736 -0.425897 0
M  V30 2000 C 190.127 -1.76827 -1.52494 0
M  V30 2001 C 191.108 -0.618524 -1.58456 0
M  V30 2002 O 192.293 -0.862416 -1.74 0
M  V30 2003 C 189.423 -1.90374 -2.90474 0
M  V30 2004 C 188.377 -3.0588 -2.99369 0
M  V30 2005 C 187.703 -3.04625 -4.3944 0
M  V30 2006 C 189.003 -4.45644 -2.72394 0
M  V30 2007 H 190.697 -2.68855 -1.31748 0
M  V30 2008 H 188.243 -1.29372 -0.632362 0
M  V30 2009 H 190.196 -2.0651 -3.6733 0
M  V30 2010 H 188.92 -0.95004 -3.12477 0
M  V30 2011 H 187.579 -2.89467 -2.24954 0
M  V30 2012 H 187.227 -2.0701 -4.58428 0
M  V30 2013 H 186.927 -3.82195 -4.46319 0
M  V30 2014 H 188.451 -3.22869 -5.18255 0
M  V30 2015 H 189.865 -4.62348 -3.38979 0
M  V30 2016 H 188.262 -5.25006 -2.9067 0
M  V30 2017 H 189.332 -4.54893 -1.67929 0
M  V30 2018 N 190.675 0.682077 -1.42076 0
M  V30 2019 C 191.9 1.47558 -1.45744 0
M  V30 2020 C 192.325 1.87977 -0.0680981 0
M  V30 2021 O 191.683 1.55522 0.9318 0
M  V30 2022 C 191.731 2.70575 -2.38373 0
M  V30 2023 O 190.835 3.68573 -1.85007 0
M  V30 2024 H 190.176 0.443585 -0.494093 0
M  V30 2025 H 192.706 0.837238 -1.86686 0
M  V30 2026 H 192.716 3.18729 -2.54707 0
M  V30 2027 H 191.391 2.40495 -3.39315 0
M  V30 2028 H 189.968 3.2757 -1.78192 0
M  V30 2029 N 192.153 1.28127 0.917671 0
M  V30 2030 C 193.401 1.14825 1.66312 0
M  V30 2031 C 193.722 -0.304379 1.9261 0
M  V30 2032 O 192.992 -1.21149 1.53947 0
M  V30 2033 H 191.572 0.421953 0.616413 0
M  V30 2034 H 194.234 1.608 1.10134 0
M  V30 2035 H 193.33 1.68489 2.62712 0
M  V30 2036 N 193.631 -1.12557 1.10312 0
M  V30 2037 C 194.578 -2.18247 0.750781 0
M  V30 2038 C 195.548 -1.63853 -0.272293 0
M  V30 2039 O 196.733 -1.90195 -0.151862 0
M  V30 2040 C 193.873 -3.44591 0.187379 0
M  V30 2041 C 192.986 -4.13046 1.2656 0
M  V30 2042 C 192.121 -5.27034 0.663978 0
M  V30 2043 C 191.16 -5.87353 1.72287 0
M  V30 2044 N 190.297 -6.92757 1.1416 0
M  V30 2045 H 195.137 -2.47732 1.65628 0
M  V30 2046 H 192.674 -1.21629 0.827337 0
M  V30 2047 H 194.632 -4.16904 -0.157148 0
M  V30 2048 H 193.262 -3.15527 -0.681355 0
M  V30 2049 H 192.314 -3.38924 1.72727 0
M  V30 2050 H 193.626 -4.53947 2.06721 0
M  V30 2051 H 192.78 -6.06104 0.268824 0
M  V30 2052 H 191.519 -4.87407 -0.169082 0
M  V30 2053 H 190.524 -5.06971 2.12746 0
M  V30 2054 H 191.749 -6.29051 2.55875 0
M  V30 2055 H 189.695 -6.5517 0.329984 0
M  V30 2056 H 189.612 -7.3225 1.88007 0
M  V30 2057 H 190.88 -7.75658 0.772956 0
M  V30 2058 N 195.109 -0.891671 -1.2995 0
M  V30 2059 C 196.072 -0.36828 -2.26222 0
M  V30 2060 C 197.072 0.493014 -1.53056 0
M  V30 2061 O 198.262 0.299213 -1.71611 0
M  V30 2062 C 195.394 0.47442 -3.37583 0
M  V30 2063 H 196.587 -1.21844 -2.74033 0
M  V30 2064 H 194.14 -0.669107 -1.41254 0
M  V30 2065 H 194.875 1.34489 -2.95099 0
M  V30 2066 H 194.66 -0.142615 -3.91841 0
M  V30 2067 H 196.15 0.83218 -4.09224 0
M  V30 2068 N 196.587 1.43421 -0.653314 0
M  V30 2069 C 198.003 1.56341 -0.320886 0
M  V30 2070 C 198.203 1.63696 1.17499 0
M  V30 2071 O 197.259 1.59208 1.95982 0
M  V30 2072 C 198.572 2.82424 -1.03233 0
M  V30 2073 C 200.12 2.96168 -1.01259 0
M  V30 2074 C 200.595 4.25084 -1.70492 0
M  V30 2075 N 202.086 4.31948 -1.67257 0
M  V30 2076 C 202.821 5.30466 -2.17701 0
M  V30 2077 N 202.317 6.35261 -2.76434 0
M  V30 2078 N 204.11 5.2212 -2.082 0
M  V30 2079 H 196.261 1.3689 -1.62403 0
M  V30 2080 H 198.524 0.657455 -0.682977 0
M  V30 2081 H 198.23 2.83053 -2.08744 0
M  V30 2082 H 198.104 3.72653 -0.583948 0
M  V30 2083 H 200.491 2.9508 0.0341235 0
M  V30 2084 H 200.572 2.07229 -1.49966 0
M  V30 2085 H 200.216 4.26932 -2.7512 0
M  V30 2086 H 200.146 5.1292 -1.19251 0
M  V30 2087 H 202.637 3.56838 -1.24398 0
M  V30 2088 H 202.95 7.06754 -3.12601 0
M  V30 2089 H 201.295 6.35884 -2.80495 0
M  V30 2090 H 204.486 4.39166 -1.62021 0
M  V30 2091 H 204.659 5.98739 -2.47822 0
M  V30 2092 N 198.065 0.39524 1.52563 0
M  V30 2093 C 199.028 -0.425001 2.25225 0
M  V30 2094 C 200.028 -0.985266 1.27079 0
M  V30 2095 O 201.218 -0.866332 1.5113 0
M  V30 2096 C 198.35 -1.59686 3.01186 0
M  V30 2097 H 199.543 0.211233 2.99155 0
M  V30 2098 H 197.096 0.147472 1.55603 0
M  V30 2099 H 197.831 -2.27035 2.31572 0
M  V30 2100 H 197.616 -1.20176 3.73229 0
M  V30 2101 H 199.106 -2.17743 3.5634 0
M  V30 2102 N 199.544 -1.57102 0.125237 0
M  V30 2103 C 200.507 -2.14471 -0.80838 0
M  V30 2104 C 201.507 -1.0811 -1.19033 0
M  V30 2105 O 202.697 -1.33856 -1.11482 0
M  V30 2106 C 199.829 -2.69005 -2.09402 0
M  V30 2107 H 201.022 -2.98297 -0.309696 0
M  V30 2108 H 198.575 -1.55807 -0.124051 0
M  V30 2109 H 199.31 -1.88785 -2.63687 0
M  V30 2110 H 199.095 -3.46799 -1.82957 0
M  V30 2111 H 200.585 -3.13278 -2.76128 0
M  V30 2112 N 201.022 0.148545 -1.56898 0
M  V30 2113 C 201.955 1.21293 -1.93296 0
M  V30 2114 C 202.933 1.41637 -0.798599 0
M  V30 2115 O 204.117 1.56275 -1.05406 0
M  V30 2116 C 201.244 2.5721 -2.20365 0
M  V30 2117 C 200.29 2.53469 -3.4301 0
M  V30 2118 S 201.123 2.00315 -4.96623 0
M  V30 2119 C 202.279 3.37964 -5.26812 0
M  V30 2120 H 202.512 0.902393 -2.83274 0
M  V30 2121 H 200.045 0.354094 -1.50285 0
M  V30 2122 H 202.003 3.35427 -2.36641 0
M  V30 2123 H 200.664 2.85454 -1.31054 0
M  V30 2124 H 199.857 3.53518 -3.59223 0
M  V30 2125 H 199.459 1.83359 -3.25968 0
M  V30 2126 H 201.751 4.34066 -5.20185 0
M  V30 2127 H 202.694 3.26606 -6.28279 0
M  V30 2128 H 203.102 3.35028 -4.54331 0
M  V30 2129 N 202.5 1.5196 0.417844 0
M  V30 2130 C 203.777 1.56146 1.17803 0
M  V30 2131 C 204.157 0.337275 2.08388 0
M  V30 2132 O 203.505 -0.676447 2.18258 0
M  V30 2133 C 203.715 2.88566 1.96293 0
M  V30 2134 C 205.063 3.41244 2.52662 0
M  V30 2135 O 206.087 2.90247 2.06483 0
M  V30 2136 O 204.946 4.30273 3.36938 0
M  V30 2137 H 202.04 0.628598 0.537395 0
M  V30 2138 H 204.586 1.64283 0.425331 0
M  V30 2139 H 203.358 3.69116 1.2988 0
M  V30 2140 H 202.981 2.83681 2.78587 0
M  V30 2141 N 203.978 -0.674533 1.42435 0
M  V30 2142 C 205.225 -1.43459 1.42919 0
M  V30 2143 C 205.553 -1.94446 0.0457312 0
M  V30 2144 O 204.808 -1.7132 -0.94593 0
M  V30 2145 C 205.107 -2.64767 2.40069 0
M  V30 2146 C 204.773 -2.3232 3.86443 0
M  V30 2147 C 203.435 -2.23182 4.26314 0
M  V30 2148 C 205.787 -2.05977 4.78773 0
M  V30 2149 C 203.115 -1.85827 5.56494 0
M  V30 2150 C 205.467 -1.70125 6.09295 0
M  V30 2151 C 204.131 -1.59498 6.48164 0
M  V30 2152 H 203.401 -0.524952 0.522978 0
M  V30 2153 H 206.048 -0.769097 1.75377 0
M  V30 2154 H 204.353 -3.36349 2.00939 0
M  V30 2155 H 206.05 -3.22949 2.37707 0
M  V30 2156 H 202.64 -2.40334 3.54877 0
M  V30 2157 H 206.824 -2.11969 4.48757 0
M  V30 2158 H 202.08 -1.76168 5.8547 0
M  V30 2159 H 206.254 -1.48767 6.80324 0
M  V30 2160 H 203.881 -1.30322 7.48946 0
M  V30 2161 N 205.456 -1.28612 -0.910864 0
M  V30 2162 C 206.705 -1.15311 -1.65488 0
M  V30 2163 C 207.018 0.296999 -1.93332 0
M  V30 2164 O 208.224 0.551168 -2.65847 0
M  V30 2165 C 206.68 -2.01599 -2.98137 0
M  V30 2166 C 206.288 -3.51367 -2.7793 0
M  V30 2167 C 208.032 -1.96993 -3.76024 0
M  V30 2168 C 205.939 -4.29797 -4.06237 0
M  V30 2169 H 204.869 -0.42796 -0.620779 0
M  V30 2170 H 207.52 -1.53166 -1.01057 0
M  V30 2171 H 205.902 -1.56603 -3.63719 0
M  V30 2172 H 207.076 -4.0434 -2.21011 0
M  V30 2173 H 205.391 -3.57529 -2.13452 0
M  V30 2174 H 207.988 -2.52856 -4.71135 0
M  V30 2175 H 208.331 -0.94733 -4.05378 0
M  V30 2176 H 208.864 -2.39973 -3.17266 0
M  V30 2177 H 205.603 -5.32648 -3.82055 0
M  V30 2178 H 205.123 -3.81596 -4.62757 0
M  V30 2179 H 206.802 -4.39869 -4.74473 0
M  V30 2180 N 206.934 1.1197 -1.10907 0
M  V30 2181 C 207.864 2.19928 -0.784473 0
M  V30 2182 C 208.845 1.6833 0.244726 0
M  V30 2183 O 210.03 1.93892 0.109418 0
M  V30 2184 C 207.16 3.46597 -0.220827 0
M  V30 2185 C 206.114 4.11376 -1.18127 0
M  V30 2186 C 205.44 5.32554 -0.478594 0
M  V30 2187 C 206.74 4.56945 -2.52979 0
M  V30 2188 H 208.434 2.47337 -1.68715 0
M  V30 2189 H 205.98 1.18879 -0.812642 0
M  V30 2190 H 207.933 4.21396 0.0184278 0
M  V30 2191 H 206.657 3.1863 0.717113 0
M  V30 2192 H 205.316 3.38564 -1.40606 0
M  V30 2193 H 204.964 5.00856 0.463976 0
M  V30 2194 H 204.664 5.76844 -1.11912 0
M  V30 2195 H 206.188 6.10096 -0.248 0
M  V30 2196 H 207.602 5.23093 -2.3462 0
M  V30 2197 H 205.999 5.1203 -3.12962 0
M  V30 2198 H 207.069 3.70676 -3.12614 0
M  V30 2199 N 208.412 0.89855 1.29475 0
M  V30 2200 C 209.823 0.572537 1.77705 0
M  V30 2201 C 210.174 -0.911778 1.73727 0
M  V30 2202 O 209.299 -1.71288 1.32247 0
M  V30 2203 C 209.894 1.03252 3.22683 0
M  V30 2204 C 208.453 0.757687 3.68695 0
M  V30 2205 C 207.6 1.20787 2.49612 0
M  V30 2206 H 210.551 1.08139 1.16153 0
M  V30 2207 H 210.572 0.367307 3.78723 0
M  V30 2208 H 210.084 2.11285 3.25546 0
M  V30 2209 H 208.185 -0.310079 3.71308 0
M  V30 2210 H 208.298 1.35476 4.59547 0
M  V30 2211 H 206.662 0.626888 2.46865 0
M  V30 2212 H 207.445 2.29622 2.55203 0
M  V30 2213 N 209.89 -1.43072 0.660911 0
M  V30 2214 C 210.853 -2.29194 -0.0166406 0
M  V30 2215 C 211.853 -1.42609 -0.742912 0
M  V30 2216 O 213.043 -1.64155 -0.583004 0
M  V30 2217 C 210.175 -3.24831 -1.0343 0
M  V30 2218 H 211.368 -2.90596 0.741208 0
M  V30 2219 H 208.921 -1.5048 0.422532 0
M  V30 2220 H 209.656 -2.68339 -1.82111 0
M  V30 2221 H 209.441 -3.88676 -0.517082 0
M  V30 2222 H 210.931 -3.89451 -1.50723 0
M  V30 2223 N 211.368 -0.403325 -1.52352 0
M  V30 2224 C 212.593 0.176499 -2.06648 0
M  V30 2225 C 213.018 1.38577 -1.27193 0
M  V30 2226 O 212.376 1.7879 -0.300637 0
M  V30 2227 C 212.424 0.511061 -3.5696 0
M  V30 2228 O 211.528 1.60294 -3.79973 0
M  V30 2229 H 210.869 0.0167337 -0.663789 0
M  V30 2230 H 213.399 -0.574848 -1.96359 0
M  V30 2231 H 213.409 0.771362 -4.00642 0
M  V30 2232 H 212.084 -0.37296 -4.14224 0
M  V30 2233 H 210.661 1.33526 -3.48174 0
M  V30 2234 N 212.846 1.57033 -0.133567 0
M  V30 2235 C 213.793 2.16074 0.811208 0
M  V30 2236 C 214.763 1.08979 1.2535 0
M  V30 2237 O 215.948 1.36958 1.32843 0
M  V30 2238 C 213.088 2.77595 2.05024 0
M  V30 2239 C 212.201 3.99042 1.65498 0
M  V30 2240 C 211.336 4.48603 2.84479 0
M  V30 2241 C 210.375 5.62547 2.41262 0
M  V30 2242 N 209.512 6.06787 3.53206 0
M  V30 2243 H 214.352 2.96477 0.300906 0
M  V30 2244 H 211.889 1.46462 0.136822 0
M  V30 2245 H 213.847 3.11402 2.77642 0
M  V30 2246 H 212.477 1.99859 2.53488 0
M  V30 2247 H 211.529 3.71302 0.826981 0
M  V30 2248 H 212.841 4.81629 1.29748 0
M  V30 2249 H 211.995 4.84395 3.65303 0
M  V30 2250 H 210.734 3.64995 3.23465 0
M  V30 2251 H 209.739 5.26345 1.58874 0
M  V30 2252 H 210.964 6.47931 2.03377 0
M  V30 2253 H 208.91 5.26117 3.91838 0
M  V30 2254 H 208.827 6.84266 3.21427 0
M  V30 2255 H 210.095 6.4722 4.34427 0
M  V30 2256 N 214.325 -0.140222 1.56975 0
M  V30 2257 C 215.553 -0.866437 1.87884 0
M  V30 2258 C 215.968 -1.74428 0.722517 0
M  V30 2259 O 215.325 -1.79891 -0.30749 0
M  V30 2260 C 215.376 -1.71753 3.18093 0
M  V30 2261 O 215.097 -0.875056 4.29272 0
M  V30 2262 C 216.598 -2.55074 3.62563 0
M  V30 2263 H 213.818 -0.25019 0.622612 0
M  V30 2264 H 216.362 -0.130977 2.0408 0
M  V30 2265 H 214.517 -2.40598 3.03631 0
M  V30 2266 H 214.931 -1.46002 5.03769 0
M  V30 2267 H 216.405 -3.10356 4.5649 0
M  V30 2268 H 216.882 -3.31434 2.88181 0
M  V30 2269 H 217.488 -1.91509 3.79743 0
M  V30 2270 N 215.803 -1.52179 -0.40978 0
M  V30 2271 C 216.75 -1.75475 -1.49924 0
M  V30 2272 C 217.72 -0.597175 -1.54994 0
M  V30 2273 O 218.905 -0.834655 -1.71575 0
M  V30 2274 C 216.045 -1.9107 -2.87378 0
M  V30 2275 C 215.158 -3.18717 -2.91622 0
M  V30 2276 C 214.293 -3.24747 -4.20372 0
M  V30 2277 C 213.332 -4.46598 -4.18588 0
M  V30 2278 N 212.469 -4.50025 -5.38908 0
M  V30 2279 H 217.309 -2.68458 -1.29361 0
M  V30 2280 H 214.846 -1.33024 -0.627934 0
M  V30 2281 H 216.804 -1.98096 -3.6717 0
M  V30 2282 H 215.434 -1.01469 -3.06437 0
M  V30 2283 H 214.486 -3.20866 -2.04326 0
M  V30 2284 H 215.798 -4.08544 -2.86169 0
M  V30 2285 H 214.952 -3.30841 -5.08556 0
M  V30 2286 H 213.691 -2.32857 -4.28519 0
M  V30 2287 H 212.696 -4.40652 -3.28794 0
M  V30 2288 H 213.921 -5.39783 -4.12081 0
M  V30 2289 H 211.867 -3.61017 -5.47725 0
M  V30 2290 H 211.784 -5.33697 -5.35447 0
M  V30 2291 H 213.052 -4.60347 -6.29048 0
M  V30 2292 N 217.281 0.66697 -1.42791 0
M  V30 2293 C 218.558 1.4234 -1.34159 0
M  V30 2294 C 218.938 2.11093 0.0172729 0
M  V30 2295 O 218.286 2.03808 1.03318 0
M  V30 2296 C 218.496 2.41942 -2.51526 0
M  V30 2297 C 219.844 3.06353 -2.93995 0
M  V30 2298 O 220.868 2.52269 -2.51473 0
M  V30 2299 O 219.727 4.04376 -3.67617 0
M  V30 2300 H 216.821 0.635277 -0.529483 0
M  V30 2301 H 219.367 0.695034 -1.54814 0
M  V30 2302 H 218.139 1.89991 -3.42081 0
M  V30 2303 H 217.762 3.22249 -2.32898 0
M  V30 2304 N 218.759 1.29093 0.90403 0
M  V30 2305 C 220.036 1.075 1.63411 0
M  V30 2306 C 220.416 -0.382346 2.07609 0
M  V30 2307 O 219.764 -1.37031 1.82851 0
M  V30 2308 C 219.974 2.05858 2.81822 0
M  V30 2309 C 221.322 2.36539 3.52611 0
M  V30 2310 O 222.346 2.04019 2.91984 0
M  V30 2311 O 221.205 2.92085 4.61897 0
M  V30 2312 H 218.299 0.411547 0.717327 0
M  V30 2313 H 220.845 1.40449 0.952479 0
M  V30 2314 H 219.617 3.04037 2.46327 0
M  V30 2315 H 219.24 1.73613 3.57693 0
M  V30 2316 N 220.237 -1.11381 1.11499 0
M  V30 2317 C 221.169 -2.17207 0.731704 0
M  V30 2318 C 222.182 -1.61066 -0.236957 0
M  V30 2319 O 223.371 -1.78489 -0.0197591 0
M  V30 2320 C 220.471 -3.38846 0.0607624 0
M  V30 2321 C 219.644 -4.24451 1.0564 0
M  V30 2322 C 218.703 -5.24562 0.4149 0
M  V30 2323 O 217.729 -5.59071 1.069 0
M  V30 2324 N 218.931 -5.74651 -0.821943 0
M  V30 2325 H 221.696 -2.50699 1.64225 0
M  V30 2326 H 219.257 -1.26908 1.00529 0
M  V30 2327 H 221.249 -4.02911 -0.380139 0
M  V30 2328 H 219.819 -3.03411 -0.752376 0
M  V30 2329 H 219.039 -3.56833 1.67524 0
M  V30 2330 H 220.327 -4.78486 1.72998 0
M  V30 2331 H 219.725 -5.48797 -1.37252 0
M  V30 2332 H 218.282 -6.40549 -1.20582 0
M  V30 2333 N 221.715 -0.905404 -1.28997 0
M  V30 2334 C 222.94 -0.549175 -1.99997 0
M  V30 2335 C 223.365 0.860276 -1.67275 0
M  V30 2336 O 222.723 1.57355 -0.900502 0
M  V30 2337 C 222.771 -0.755185 -3.52604 0
M  V30 2338 O 221.875 0.189692 -4.11964 0
M  V30 2339 H 221.216 -0.213899 -0.628604 0
M  V30 2340 H 223.746 -1.21856 -1.64354 0
M  V30 2341 H 223.756 -0.662045 -4.02593 0
M  V30 2342 H 222.431 -1.78271 -3.75755 0
M  V30 2343 H 221.008 0.0485257 -3.72868 0
M  V30 2344 N 223.193 1.4272 -0.668489 0
M  V30 2345 C 224.123 2.335 -0.000100175 0
M  V30 2346 C 225.104 1.50328 0.795964 0
M  V30 2347 O 226.289 1.78949 0.754385 0
M  V30 2348 C 223.419 3.33874 0.956302 0
M  V30 2349 C 222.373 4.27152 0.269278 0
M  V30 2350 C 221.699 5.17684 1.33818 0
M  V30 2351 C 222.999 5.15373 -0.847805 0
M  V30 2352 H 224.693 2.89639 -0.758244 0
M  V30 2353 H 222.239 1.39269 -0.366079 0
M  V30 2354 H 224.192 3.9629 1.43292 0
M  V30 2355 H 222.916 2.76025 1.74579 0
M  V30 2356 H 221.575 3.66123 -0.187042 0
M  V30 2357 H 221.223 4.56165 2.1195 0
M  V30 2358 H 220.923 5.80918 0.883659 0
M  V30 2359 H 222.447 5.82974 1.81586 0
M  V30 2360 H 223.861 5.7151 -0.452681 0
M  V30 2361 H 222.258 5.87407 -1.22773 0
M  V30 2362 H 223.328 4.5415 -1.69929 0
M  V30 2363 N 224.671 0.411399 1.52136 0
M  V30 2364 C 225.919 -0.163322 2.01439 0
M  V30 2365 C 226.24 -1.45453 1.29879 0
M  V30 2366 O 225.51 -1.91225 0.4254 0
M  V30 2367 H 224.09 -0.0633447 0.744309 0
M  V30 2368 H 226.752 0.548161 1.87033 0
M  V30 2369 H 225.848 -0.357817 3.10042 0
M  V30 2370 N 226.149 -1.5696 0.141893 0
M  V30 2371 C 227.059 -2.20066 -0.812905 0
M  V30 2372 C 228.075 -1.18344 -1.27557 0
M  V30 2373 O 229.251 -1.50902 -1.33381 0
M  V30 2374 C 226.316 -2.80583 -2.03652 0
M  V30 2375 C 225.377 -3.97414 -1.62359 0
M  V30 2376 C 224.61 -4.55036 -2.78887 0
M  V30 2377 O 224.833 -4.11538 -3.94959 0
M  V30 2378 O 223.767 -5.45376 -2.54653 0
M  V30 2379 H 227.593 -3.02157 -0.305746 0
M  V30 2380 H 225.178 -1.49159 -0.0848799 0
M  V30 2381 H 227.06 -3.19067 -2.75272 0
M  V30 2382 H 225.735 -2.01508 -2.5333 0
M  V30 2383 H 224.642 -3.63656 -0.877775 0
M  V30 2384 H 225.975 -4.77994 -1.17401 0
M  V30 2385 N 227.627 0.131896 -1.57047 0
M  V30 2386 C 228.874 0.841932 -1.84168 0
M  V30 2387 C 229.202 1.8048 -0.725066 0
M  V30 2388 O 228.457 1.93618 0.284692 0
M  V30 2389 C 228.756 1.63703 -3.17704 0
M  V30 2390 C 228.422 0.81961 -4.43388 0
M  V30 2391 C 227.084 0.594148 -4.77518 0
M  V30 2392 C 229.436 0.248977 -5.20605 0
M  V30 2393 C 226.764 -0.212409 -5.86315 0
M  V30 2394 C 229.116 -0.544701 -6.30251 0
M  V30 2395 C 227.78 -0.780599 -6.6292 0
M  V30 2396 H 227.05 0.308085 -0.673917 0
M  V30 2397 H 229.697 0.104867 -1.91213 0
M  V30 2398 H 228.002 2.44464 -3.06177 0
M  V30 2399 H 229.699 2.19015 -3.35907 0
M  V30 2400 H 226.289 1.00542 -4.16641 0
M  V30 2401 H 230.473 0.410408 -4.946 0
M  V30 2402 H 225.729 -0.404524 -6.1006 0
M  V30 2403 H 229.903 -0.993922 -6.89271 0
M  V30 2404 H 227.53 -1.40742 -7.47058 0
M  V30 2405 N 229.106 1.52395 0.401703 0
M  V30 2406 C 230.353 1.66817 1.14796 0
M  V30 2407 C 230.681 0.401772 1.90305 0
M  V30 2408 O 229.936 -0.615487 1.85769 0
M  V30 2409 C 230.235 2.84578 2.16217 0
M  V30 2410 C 229.901 4.22513 1.5746 0
M  V30 2411 C 228.563 4.60029 1.41161 0
M  V30 2412 C 230.915 5.0844 1.14622 0
M  V30 2413 C 228.243 5.81144 0.80552 0
M  V30 2414 C 230.595 6.30167 0.55428 0
M  V30 2415 C 229.259 6.66426 0.378482 0
M  V30 2416 H 228.529 0.610428 0.420069 0
M  V30 2417 H 231.176 1.86512 0.434212 0
M  V30 2418 H 229.481 2.59248 2.93764 0
M  V30 2419 H 231.178 2.92933 2.73845 0
M  V30 2420 H 227.768 3.92953 1.71132 0
M  V30 2421 H 231.952 4.80034 1.26021 0
M  V30 2422 H 227.208 6.07855 0.657399 0
M  V30 2423 H 231.382 6.96071 0.213983 0
M  V30 2424 H 229.009 7.60143 -0.0932606 0
M  V30 2425 N 230.584 -0.659388 1.43143 0
M  V30 2426 C 232 -0.974337 1.26407 0
M  V30 2427 C 232.2 -2.007 0.179341 0
M  V30 2428 O 231.256 -2.4856 -0.444295 0
M  V30 2429 C 232.569 -1.46447 2.62628 0
M  V30 2430 C 234.117 -1.58144 2.7011 0
M  V30 2431 C 234.592 -2.1055 4.06734 0
M  V30 2432 N 236.083 -2.17861 4.08767 0
M  V30 2433 C 236.818 -2.59519 5.1131 0
M  V30 2434 N 236.314 -3.00518 6.24228 0
M  V30 2435 N 238.107 -2.59404 4.98664 0
M  V30 2436 H 230.258 0.0240528 2.12386 0
M  V30 2437 H 232.521 -0.0518065 0.946583 0
M  V30 2438 H 232.227 -0.780123 3.42939 0
M  V30 2439 H 232.101 -2.44058 2.87603 0
M  V30 2440 H 234.488 -2.25682 1.90136 0
M  V30 2441 H 234.569 -0.589828 2.48907 0
M  V30 2442 H 234.213 -1.43616 4.87172 0
M  V30 2443 H 234.143 -3.10531 4.25298 0
M  V30 2444 H 236.634 -1.88975 3.27257 0
M  V30 2445 H 236.947 -3.31036 6.98309 0
M  V30 2446 H 235.292 -2.98337 6.2771 0
M  V30 2447 H 238.483 -2.26747 4.09516 0
M  V30 2448 H 238.656 -2.91548 5.78709 0
M  V30 2449 N 232.062 -1.29571 -0.897171 0
M  V30 2450 C 233.478 -1.07637 -1.17841 0
M  V30 2451 C 233.678 0.170713 -2.00776 0
M  V30 2452 O 232.734 0.867768 -2.3712 0
M  V30 2453 C 234.047 -2.3332 -1.8969 0
M  V30 2454 C 235.595 -2.38664 -2.02505 0
M  V30 2455 C 236.07 -3.64157 -2.77765 0
M  V30 2456 N 237.561 -3.64894 -2.85318 0
M  V30 2457 C 238.296 -4.58679 -3.44094 0
M  V30 2458 N 237.792 -5.62799 -4.04017 0
M  V30 2459 N 239.585 -4.46245 -3.41793 0
M  V30 2460 H 231.736 -2.09598 -0.343883 0
M  V30 2461 H 233.999 -0.923333 -0.214848 0
M  V30 2462 H 233.705 -3.24262 -1.36187 0
M  V30 2463 H 233.579 -2.41025 -2.9015 0
M  V30 2464 H 235.966 -1.48208 -2.55183 0
M  V30 2465 H 236.047 -2.34943 -1.01171 0
M  V30 2466 H 235.691 -4.54965 -2.25763 0
M  V30 2467 H 235.621 -3.65137 -3.7945 0
M  V30 2468 H 238.112 -2.89613 -2.42761 0
M  V30 2469 H 238.425 -6.3048 -4.46895 0
M  V30 2470 H 236.77 -5.66605 -4.02472 0
M  V30 2471 H 239.961 -3.64094 -2.94199 0
M  V30 2472 H 240.134 -5.19518 -3.87304 0
M  V30 2473 N 233.54 1.10788 -1.12088 0
M  V30 2474 C 234.956 1.34691 -0.856186 0
M  V30 2475 C 235.156 1.94791 0.515615 0
M  V30 2476 O 234.212 2.18524 1.26505 0
M  V30 2477 C 235.525 2.27208 -1.9697 0
M  V30 2478 C 237.073 2.40755 -2.00016 0
M  V30 2479 C 237.548 3.36598 -3.1059 0
M  V30 2480 N 239.039 3.44164 -3.10008 0
M  V30 2481 C 239.774 4.18284 -3.92206 0
M  V30 2482 N 239.27 4.95322 -4.84384 0
M  V30 2483 N 241.063 4.13865 -3.80357 0
M  V30 2484 H 233.214 0.70144 -2.00483 0
M  V30 2485 H 235.477 0.371405 -0.872217 0
M  V30 2486 H 235.183 1.90251 -2.958 0
M  V30 2487 H 235.057 3.27485 -1.87172 0
M  V30 2488 H 237.444 2.76982 -1.01808 0
M  V30 2489 H 237.525 1.40305 -2.13888 0
M  V30 2490 H 237.169 3.01096 -4.09028 0
M  V30 2491 H 237.099 4.36918 -2.93956 0
M  V30 2492 H 239.59 2.8922 -2.43228 0
M  V30 2493 H 239.903 5.49267 -5.43623 0
M  V30 2494 H 238.248 4.94459 -4.884 0
M  V30 2495 H 241.439 3.52773 -3.07683 0
M  V30 2496 H 241.612 4.71372 -4.44649 0
M  V30 2497 N 235.018 0.912232 1.28515 0
M  V30 2498 C 236.264 0.545405 1.95328 0
M  V30 2499 C 236.597 -0.908313 1.71649 0
M  V30 2500 O 235.872 -1.64575 1.03659 0
M  V30 2501 C 236.155 0.853483 3.4984 0
M  V30 2502 C 236.008 2.35982 3.82926 0
M  V30 2503 C 237.327 0.348589 4.38717 0
M  V30 2504 H 234.446 0.199626 0.709449 0
M  V30 2505 H 237.088 1.1412 1.5191 0
M  V30 2506 H 235.238 0.34643 3.86952 0
M  V30 2507 H 236.91 2.93738 3.55691 0
M  V30 2508 H 235.153 2.81543 3.30024 0
M  V30 2509 H 235.824 2.52593 4.90816 0
M  V30 2510 H 238.3 0.78294 4.08668 0
M  V30 2511 H 237.176 0.593242 5.45685 0
M  V30 2512 H 237.437 -0.751049 4.35674 0
M  V30 2513 N 236.496 -1.42363 0.676048 0
M  V30 2514 C 237.744 -2.01123 0.198437 0
M  V30 2515 C 238.065 -1.53731 -1.19966 0
M  V30 2516 O 237.335 -0.759518 -1.80577 0
M  V30 2517 H 235.915 -0.743678 0.0703721 0
M  V30 2518 H 238.577 -1.74263 0.872837 0
M  V30 2519 H 237.673 -3.11454 0.200686 0
M  V30 2520 N 237.974 -0.419461 -1.51915 0
M  V30 2521 C 239.251 0.211999 -1.94448 0
M  V30 2522 C 239.631 1.61703 -1.35703 0
M  V30 2523 O 238.979 2.22102 -0.536931 0
M  V30 2524 C 239.189 0.207872 -3.4838 0
M  V30 2525 C 240.537 0.422192 -4.22496 0
M  V30 2526 O 241.561 0.286778 -3.55044 0
M  V30 2527 O 240.42 0.690009 -5.42126 0
M  V30 2528 H 237.514 0.139586 -0.815135 0
M  V30 2529 H 240.06 -0.476151 -1.62883 0
M  V30 2530 H 238.832 -0.775102 -3.83546 0
M  V30 2531 H 238.455 0.939688 -3.86336 0
M  V30 2532 N 239.452 1.56882 -0.150215 0
M  V30 2533 C 240.362 2.20494 0.801222 0
M  V30 2534 C 241.378 1.19019 1.26927 0
M  V30 2535 O 242.554 1.51607 1.32579 0
M  V30 2536 C 239.619 2.81659 2.02161 0
M  V30 2537 C 238.68 3.9827 1.60249 0
M  V30 2538 C 237.913 4.56508 2.7647 0
M  V30 2539 O 238.136 4.13627 3.92771 0
M  V30 2540 O 237.07 5.46719 2.51757 0
M  V30 2541 H 240.896 3.02315 0.289717 0
M  V30 2542 H 238.481 1.49202 0.0769684 0
M  V30 2543 H 240.363 3.20522 2.73576 0
M  V30 2544 H 239.038 2.02849 2.52258 0
M  V30 2545 H 237.945 3.64117 0.858477 0
M  V30 2546 H 239.278 4.78609 1.14864 0
M  V30 2547 N 240.93 -0.123565 1.57115 0
M  V30 2548 C 242.176 -0.833386 1.84885 0
M  V30 2549 C 242.509 -1.79742 0.735292 0
M  V30 2550 O 241.784 -1.92764 -0.25925 0
M  V30 2551 C 242.067 -1.5873 3.23228 0
M  V30 2552 C 241.92 -0.643183 4.45178 0
M  V30 2553 C 243.239 -2.54453 3.59085 0
M  V30 2554 H 240.358 -0.301518 0.6725 0
M  V30 2555 H 243 -0.097778 1.89748 0
M  V30 2556 H 241.15 -2.21438 3.19214 0
M  V30 2557 H 242.822 -0.0253015 4.61293 0
M  V30 2558 H 241.065 0.0456139 4.33776 0
M  V30 2559 H 241.736 -1.20724 5.38637 0
M  V30 2560 H 244.212 -2.01853 3.63861 0
M  V30 2561 H 243.088 -3.04238 4.5687 0
M  V30 2562 H 243.349 -3.36906 2.86264 0
M  V30 2563 N 242.408 -1.52605 -0.393616 0
M  V30 2564 C 243.654 -1.67672 -1.14079 0
M  V30 2565 C 243.987 -0.413121 -1.89755 0
M  V30 2566 O 243.262 0.588952 -1.85369 0
M  V30 2567 C 243.545 -2.9088 -2.12276 0
M  V30 2568 C 243.398 -4.27329 -1.40394 0
M  V30 2569 C 244.717 -3.09628 -3.12759 0
M  V30 2570 H 241.836 -0.610168 -0.413356 0
M  V30 2571 H 244.478 -1.85193 -0.424696 0
M  V30 2572 H 242.628 -2.76073 -2.73342 0
M  V30 2573 H 244.3 -4.53894 -0.82327 0
M  V30 2574 H 242.543 -4.2802 -0.705801 0
M  V30 2575 H 243.214 -5.09615 -2.12123 0
M  V30 2576 H 245.69 -3.23436 -2.61779 0
M  V30 2577 H 244.566 -3.97322 -3.78717 0
M  V30 2578 H 244.827 -2.23637 -3.81365 0
M  V30 2579 N 243.887 0.651787 -1.4349 0
M  V30 2580 C 244.797 1.79368 -1.5121 0
M  V30 2581 C 245.813 1.69361 -0.399093 0
M  V30 2582 O 246.989 1.90505 -0.653431 0
M  V30 2583 C 244.054 3.15653 -1.43401 0
M  V30 2584 C 243.115 3.37446 -2.65384 0
M  V30 2585 C 242.348 4.67229 -2.57939 0
M  V30 2586 O 242.571 5.46676 -1.62792 0
M  V30 2587 O 241.505 4.90773 -3.48462 0
M  V30 2588 H 245.331 1.7581 -2.47638 0
M  V30 2589 H 242.916 0.810447 -1.25507 0
M  V30 2590 H 244.798 3.96935 -1.41494 0
M  V30 2591 H 243.473 3.19798 -0.501085 0
M  V30 2592 H 242.38 2.55923 -2.72863 0
M  V30 2593 H 243.713 3.38148 -3.57654 0
M  V30 2594 N 245.365 1.30045 0.890287 0
M  V30 2595 C 246.313 1.15873 2.01683 0
M  V30 2596 C 247.307 0.0719403 1.69247 0
M  V30 2597 O 248.513 0.232414 1.78493 0
M  V30 2598 H 244.888 0.358203 0.661207 0
M  V30 2599 H 246.859 2.11229 2.10772 0
M  V30 2600 C 245.608 0.861842 3.36849 0
M  V30 2601 H 244.931 1.69016 3.62317 0
M  V30 2602 H 246.371 0.802762 4.16331 0
M  V30 2603 C 244.83 -0.435132 3.34078 0
M  V30 2604 O 245.36 -1.4583 3.74295 0
M  V30 2605 N 243.566 -0.444377 2.87182 0
M  V30 2606 H 243.113 0.388723 2.5465 0
M  V30 2607 H 243.071 -1.31213 2.85711 0
M  V30 2608 N 246.843 -1.10192 1.12674 0
M  V30 2609 C 247.773 -2.18652 0.819362 0
M  V30 2610 C 248.754 -1.68698 -0.217915 0
M  V30 2611 O 249.939 -1.94041 -0.0785581 0
M  V30 2612 C 247.069 -3.46202 0.27594 0
M  V30 2613 C 246.023 -4.09444 1.24656 0
M  V30 2614 C 245.349 -5.31725 0.563258 0
M  V30 2615 C 246.649 -4.52863 2.60217 0
M  V30 2616 H 248.343 -2.44622 1.72628 0
M  V30 2617 H 245.889 -1.17571 0.831451 0
M  V30 2618 H 247.842 -4.21372 0.0486149 0
M  V30 2619 H 246.566 -3.1973 -0.666331 0
M  V30 2620 H 245.225 -3.36284 1.45974 0
M  V30 2621 H 244.873 -5.0153 -0.384235 0
M  V30 2622 H 244.573 -5.74991 1.21075 0
M  V30 2623 H 246.097 -6.09624 0.34503 0
M  V30 2624 H 247.511 -5.19294 2.42913 0
M  V30 2625 H 245.908 -5.06986 3.21068 0
M  V30 2626 H 246.978 -3.65656 3.18471 0
M  V30 2627 N 248.321 -0.919034 -1.28029 0
M  V30 2628 C 249.57 -0.550802 -1.94034 0
M  V30 2629 C 249.883 0.910877 -1.73096 0
M  V30 2630 O 251.089 1.3875 -2.33368 0
M  V30 2631 C 249.545 -0.934249 -3.47563 0
M  V30 2632 C 249.153 -2.41602 -3.7727 0
M  V30 2633 C 250.897 -0.636854 -4.19696 0
M  V30 2634 C 248.804 -2.73932 -5.24133 0
M  V30 2635 H 247.734 -0.202273 -0.726362 0
M  V30 2636 H 250.385 -1.11867 -1.45458 0
M  V30 2637 H 248.767 -0.295115 -3.94899 0
M  V30 2638 H 249.941 -3.10233 -3.40723 0
M  V30 2639 H 248.256 -2.68441 -3.18321 0
M  V30 2640 H 250.853 -0.855005 -5.2782 0
M  V30 2641 H 251.196 0.425575 -4.14119 0
M  V30 2642 H 251.729 -1.23469 -3.78154 0
M  V30 2643 H 248.468 -3.79049 -5.34792 0
M  V30 2644 H 247.988 -2.09942 -5.61858 0
M  V30 2645 H 249.667 -2.61215 -5.91925 0
M  V30 2646 N 249.799 1.42003 -0.683588 0
M  V30 2647 C 250.709 2.34597 -0.0109075 0
M  V30 2648 C 251.725 1.55576 0.779245 0
M  V30 2649 O 252.901 1.88107 0.719555 0
M  V30 2650 C 249.966 3.34199 0.922588 0
M  V30 2651 C 249.027 4.29115 0.125984 0
M  V30 2652 C 248.26 5.23959 1.01502 0
M  V30 2653 O 248.483 5.23952 2.25456 0
M  V30 2654 O 247.417 6.00053 0.47111 0
M  V30 2655 H 251.243 2.93675 -0.773853 0
M  V30 2656 H 248.828 1.42654 -0.443861 0
M  V30 2657 H 250.71 3.95365 1.45823 0
M  V30 2658 H 249.385 2.77582 1.66523 0
M  V30 2659 H 248.292 3.71335 -0.453969 0
M  V30 2660 H 249.625 4.88798 -0.577736 0
M  V30 2661 N 251.277 0.427512 1.51691 0
M  V30 2662 C 252.688 -0.0378867 1.86662 0
M  V30 2663 C 253.039 -1.42819 1.34525 0
M  V30 2664 O 252.164 -2.05037 0.692014 0
M  V30 2665 C 252.759 -0.0755266 3.38716 0
M  V30 2666 C 251.318 -0.485309 3.73258 0
M  V30 2667 C 250.465 0.328399 2.75349 0
M  V30 2668 H 253.416 0.64379 1.45055 0
M  V30 2669 H 253.437 -0.887056 3.70016 0
M  V30 2670 H 252.949 0.936487 3.76632 0
M  V30 2671 H 251.05 -1.50329 3.40928 0
M  V30 2672 H 251.163 -0.21693 4.78609 0
M  V30 2673 H 249.527 -0.211905 2.53817 0
M  V30 2674 H 250.31 1.3391 3.16106 0
M  V30 2675 N 252.755 -1.56801 0.158532 0
M  V30 2676 C 253.685 -2.20347 -0.772609 0
M  V30 2677 C 254.666 -1.15518 -1.24859 0
M  V30 2678 O 255.851 -1.43902 -1.30406 0
M  V30 2679 C 252.981 -2.83417 -2.00729 0
M  V30 2680 C 251.935 -3.94174 -1.66765 0
M  V30 2681 C 251.261 -4.44233 -2.97592 0
M  V30 2682 C 252.561 -5.14392 -0.905447 0
M  V30 2683 H 254.255 -2.98413 -0.242959 0
M  V30 2684 H 251.801 -1.43537 -0.115419 0
M  V30 2685 H 253.754 -3.26543 -2.6636 0
M  V30 2686 H 252.478 -2.02701 -2.56086 0
M  V30 2687 H 251.137 -3.51684 -1.03508 0
M  V30 2688 H 250.785 -3.60325 -3.50963 0
M  V30 2689 H 250.485 -5.18945 -2.75626 0
M  V30 2690 H 252.009 -4.90037 -3.64274 0
M  V30 2691 H 253.423 -5.5429 -1.46408 0
M  V30 2692 H 251.82 -5.9494 -0.7853 0
M  V30 2693 H 252.89 -4.84795 0.100668 0
M  V30 2694 N 254.233 0.115231 -1.57178 0
M  V30 2695 C 255.163 1.1423 -2.03651 0
M  V30 2696 C 256.144 1.42967 -0.921655 0
M  V30 2697 O 257.329 1.53343 -1.19162 0
M  V30 2698 C 254.459 2.4675 -2.44401 0
M  V30 2699 C 253.413 2.32467 -3.59365 0
M  V30 2700 C 252.739 3.69984 -3.86026 0
M  V30 2701 C 254.039 1.78203 -4.90959 0
M  V30 2702 H 255.733 0.755749 -2.89705 0
M  V30 2703 H 253.279 0.362093 -1.39373 0
M  V30 2704 H 255.232 3.18854 -2.75517 0
M  V30 2705 H 253.956 2.87302 -1.55322 0
M  V30 2706 H 252.615 1.62811 -3.28463 0
M  V30 2707 H 252.263 4.08028 -2.94147 0
M  V30 2708 H 251.963 3.61279 -4.63412 0
M  V30 2709 H 253.487 4.43587 -4.19599 0
M  V30 2710 H 254.901 2.40128 -5.20587 0
M  V30 2711 H 253.298 1.8031 -5.72371 0
M  V30 2712 H 254.368 0.739876 -4.79222 0
M  V30 2713 N 255.711 1.52812 0.385517 0
M  V30 2714 C 256.936 1.72207 1.15583 0
M  V30 2715 C 257.361 0.441034 1.82857 0
M  V30 2716 O 256.719 -0.603465 1.70962 0
M  V30 2717 C 256.767 2.87476 2.17692 0
M  V30 2718 O 255.871 2.54693 3.24354 0
M  V30 2719 H 255.212 0.572526 0.336319 0
M  V30 2720 H 257.742 1.99618 0.448744 0
M  V30 2721 H 257.752 3.13072 2.6163 0
M  V30 2722 H 256.427 3.80408 1.68115 0
M  V30 2723 H 255.004 2.3985 2.85529 0
M  V30 2724 N 257.189 -0.644168 1.43834 0
M  V30 2725 C 258.437 -1.40117 1.45642 0
M  V30 2726 C 258.758 -1.94814 0.0852413 0
M  V30 2727 O 258.028 -1.74988 -0.880688 0
M  V30 2728 H 256.608 -0.52005 0.536243 0
M  V30 2729 H 259.27 -0.7591 1.7951 0
M  V30 2730 H 258.366 -2.23902 2.17427 0
M  V30 2731 N 258.668 -1.30515 -0.883378 0
M  V30 2732 C 259.917 -1.18795 -1.63005 0
M  V30 2733 C 260.23 0.255923 -1.93919 0
M  V30 2734 O 261.436 0.494654 -2.66956 0
M  V30 2735 C 259.892 -2.07878 -2.93794 0
M  V30 2736 C 259.5 -3.57184 -2.70414 0
M  V30 2737 C 261.244 -2.04924 -3.71761 0
M  V30 2738 C 259.151 -4.38317 -3.97029 0
M  V30 2739 H 258.081 -0.441031 -0.611562 0
M  V30 2740 H 260.732 -1.55275 -0.977854 0
M  V30 2741 H 259.114 -1.64283 -3.60315 0
M  V30 2742 H 260.288 -4.08937 -2.12384 0
M  V30 2743 H 258.603 -3.61976 -2.0582 0
M  V30 2744 H 261.2 -2.62792 -4.65665 0
M  V30 2745 H 261.543 -1.0331 -4.03277 0
M  V30 2746 H 262.076 -2.46649 -3.12104 0
M  V30 2747 H 258.815 -5.40632 -3.70671 0
M  V30 2748 H 258.335 -3.91326 -4.54559 0
M  V30 2749 H 260.014 -4.49834 -4.65036 0
M  V30 2750 N 260.146 1.09593 -1.13257 0
M  V30 2751 C 261.376 1.85231 -0.915049 0
M  V30 2752 C 261.784 1.81345 0.539498 0
M  V30 2753 O 261.127 1.20664 1.38513 0
M  V30 2754 C 261.189 3.34275 -1.3229 0
M  V30 2755 C 260.853 3.6191 -2.79052 0
M  V30 2756 C 261.85 3.57777 -3.77216 0
M  V30 2757 C 259.535 3.90309 -3.16171 0
M  V30 2758 C 261.529 3.81652 -5.1051 0
M  V30 2759 C 259.216 4.13839 -4.49644 0
M  V30 2760 C 260.214 4.09502 -5.46623 0
M  V30 2761 O 259.902 4.32426 -6.77689 0
M  V30 2762 H 259.634 0.591997 -0.326367 0
M  V30 2763 H 262.188 1.394 -1.50854 0
M  V30 2764 H 260.418 3.80805 -0.672667 0
M  V30 2765 H 262.107 3.9132 -1.07812 0
M  V30 2766 H 262.873 3.35865 -3.49885 0
M  V30 2767 H 258.752 3.92811 -2.41289 0
M  V30 2768 H 262.296 3.78182 -5.86195 0
M  V30 2769 H 258.193 4.35232 -4.767 0
M  V30 2770 H 258.961 4.49896 -6.83766 0
M  V30 2771 N 261.624 0.925811 1.2754 0
M  V30 2772 C 262.587 0.428129 2.25166 0
M  V30 2773 C 263.587 -0.452261 1.54309 0
M  V30 2774 O 264.777 -0.253608 1.72344 0
M  V30 2775 C 261.909 -0.384749 3.38722 0
M  V30 2776 H 263.102 1.29066 2.70706 0
M  V30 2777 H 260.655 0.706323 1.3943 0
M  V30 2778 H 261.39 -1.26618 2.98561 0
M  V30 2779 H 261.175 0.246454 3.91325 0
M  V30 2780 H 262.665 -0.723389 4.11287 0
M  V30 2781 N 263.102 -1.41638 0.69111 0
M  V30 2782 C 264.35 -2.00902 0.219758 0
M  V30 2783 C 264.671 -1.54994 -1.18329 0
M  V30 2784 O 263.941 -0.778628 -1.79762 0
M  V30 2785 H 262.521 -0.74289 0.0782558 0
M  V30 2786 H 265.183 -1.73327 0.891271 0
M  V30 2787 H 264.279 -3.11224 0.233708 0
M  V30 2788 N 264.58 -0.43555 -1.51462 0
M  V30 2789 C 265.857 0.191364 -1.94662 0
M  V30 2790 C 266.237 1.60254 -1.37411 0
M  V30 2791 O 265.585 2.2152 -0.560458 0
M  V30 2792 C 265.795 0.17091 -3.48581 0
M  V30 2793 C 267.143 0.377357 -4.2292 0
M  V30 2794 O 268.167 0.249104 -3.55328 0
M  V30 2795 O 267.026 0.63247 -5.42828 0
M  V30 2796 H 264.12 0.130932 -0.816569 0
M  V30 2797 H 266.666 -0.4934 -1.62369 0
M  V30 2798 H 265.438 -0.815738 -3.82703 0
M  V30 2799 H 265.061 0.898659 -3.87311 0
M  V30 2800 N 266.058 1.56714 -0.166846 0
M  V30 2801 C 267.307 1.95922 0.479318 0
M  V30 2802 C 267.62 1.05529 1.6469 0
M  V30 2803 O 268.826 1.34399 2.35901 0
M  V30 2804 C 267.282 3.48359 0.90412 0
M  V30 2805 C 266.89 4.47369 -0.237621 0
M  V30 2806 C 268.634 3.96394 1.51896 0
M  V30 2807 C 266.541 5.91039 0.206561 0
M  V30 2808 H 265.471 0.731495 0.18284 0
M  V30 2809 H 268.122 1.81728 -0.254363 0
M  V30 2810 H 266.504 3.57955 1.69365 0
M  V30 2811 H 267.678 4.49485 -1.01489 0
M  V30 2812 H 265.993 4.09366 -0.762128 0
M  V30 2813 H 268.59 5.01186 1.86325 0
M  V30 2814 H 268.933 3.39075 2.41524 0
M  V30 2815 H 269.466 3.89796 0.79395 0
M  V30 2816 H 266.205 6.52221 -0.654834 0
M  V30 2817 H 265.725 5.9224 0.949282 0
M  V30 2818 H 267.404 6.43707 0.651939 0
M  V30 2819 N 267.536 -0.106894 1.57237 0
M  V30 2820 C 268.813 -0.843526 1.76477 0
M  V30 2821 C 269.193 -1.97499 0.745464 0
M  V30 2822 O 268.541 -2.27357 -0.228306 0
M  V30 2823 C 268.751 -1.34903 3.21873 0
M  V30 2824 C 270.099 -1.79654 3.8472 0
M  V30 2825 O 271.123 -1.44554 3.2555 0
M  V30 2826 O 269.982 -2.44515 4.88748 0
M  V30 2827 H 267.076 -0.401468 0.723016 0
M  V30 2828 H 269.622 -0.0896927 1.69463 0
M  V30 2829 H 268.394 -0.53781 3.87586 0
M  V30 2830 H 268.017 -2.16522 3.33473 0
M  V30 2831 N 269.014 -1.53014 -0.377408 0
M  V30 2832 C 269.961 -1.78616 -1.46168 0
M  V30 2833 C 270.931 -0.629917 -1.53692 0
M  V30 2834 O 272.116 -0.870861 -1.69766 0
M  V30 2835 C 269.256 -1.97123 -2.8326 0
M  V30 2836 C 268.369 -3.24831 -2.84796 0
M  V30 2837 C 267.504 -3.33591 -4.13389 0
M  V30 2838 C 266.543 -4.55377 -4.09021 0
M  V30 2839 N 265.68 -4.61355 -5.29241 0
M  V30 2840 H 270.52 -2.71142 -1.23637 0
M  V30 2841 H 268.057 -1.34326 -0.599577 0
M  V30 2842 H 270.015 -2.05839 -3.62886 0
M  V30 2843 H 268.645 -1.07946 -3.04216 0
M  V30 2844 H 267.697 -3.25128 -1.97474 0
M  V30 2845 H 269.009 -4.14523 -2.77439 0
M  V30 2846 H 268.163 -3.41554 -5.01424 0
M  V30 2847 H 266.902 -2.41894 -4.23484 0
M  V30 2848 H 265.907 -4.47527 -3.19373 0
M  V30 2849 H 267.132 -5.48402 -4.00539 0
M  V30 2850 H 265.078 -3.72554 -5.39944 0
M  V30 2851 H 264.995 -5.44935 -5.24006 0
M  V30 2852 H 266.263 -4.73586 -6.19141 0
M  V30 2853 N 270.492 0.636531 -1.44174 0
M  V30 2854 C 271.422 1.76003 -1.53444 0
M  V30 2855 C 272.403 1.65619 -0.387841 0
M  V30 2856 O 273.588 1.84461 -0.607257 0
M  V30 2857 C 270.718 3.14511 -1.4731 0
M  V30 2858 C 269.672 3.39677 -2.60391 0
M  V30 2859 C 268.998 4.78159 -2.39308 0
M  V30 2860 C 270.298 3.32772 -4.02567 0
M  V30 2861 H 271.992 1.68501 -2.47483 0
M  V30 2862 H 269.538 0.809237 -1.19111 0
M  V30 2863 H 271.491 3.92878 -1.52397 0
M  V30 2864 H 270.215 3.22783 -0.49785 0
M  V30 2865 H 268.874 2.63688 -2.54684 0
M  V30 2866 H 268.522 4.83128 -1.39988 0
M  V30 2867 H 268.222 4.95956 -3.15122 0
M  V30 2868 H 269.746 5.58762 -2.46205 0
M  V30 2869 H 271.16 4.01051 -4.09672 0
M  V30 2870 H 269.557 3.62104 -4.7854 0
M  V30 2871 H 270.627 2.30669 -4.2652 0
M  V30 2872 N 271.97 1.30982 0.876444 0
M  V30 2873 C 273.195 1.23373 1.66715 0
M  V30 2874 C 273.62 -0.19885 1.87046 0
M  V30 2875 O 272.978 -1.1427 1.40756 0
M  V30 2876 C 273.026 1.97644 3.01611 0
M  V30 2877 O 272.13 1.30935 3.91062 0
M  V30 2878 H 271.471 0.426279 0.509099 0
M  V30 2879 H 274.001 1.72944 1.09323 0
M  V30 2880 H 274.011 2.06992 3.51594 0
M  V30 2881 H 272.686 3.01829 2.86133 0
M  V30 2882 H 271.263 1.29996 3.49507 0
M  V30 2883 N 273.449 -1.08991 1.13837 0
M  V30 2884 C 274.379 -2.17771 0.842507 0
M  V30 2885 C 275.36 -1.6892 -0.20001 0
M  V30 2886 O 276.545 -1.94113 -0.0579731 0
M  V30 2887 C 273.675 -3.4589 0.312644 0
M  V30 2888 C 272.629 -4.08099 1.28992 0
M  V30 2889 C 271.955 -5.31098 0.619623 0
M  V30 2890 C 273.255 -4.50077 2.65005 0
M  V30 2891 H 274.949 -2.42777 1.75213 0
M  V30 2892 H 272.495 -1.16682 0.843875 0
M  V30 2893 H 274.448 -4.21297 0.0933043 0
M  V30 2894 H 273.172 -3.20419 -0.632382 0
M  V30 2895 H 271.831 -3.34717 1.49533 0
M  V30 2896 H 271.479 -5.0191 -0.33102 0
M  V30 2897 H 271.179 -5.73674 1.27167 0
M  V30 2898 H 272.703 -6.09224 0.409669 0
M  V30 2899 H 274.117 -5.16688 2.48407 0
M  V30 2900 H 272.514 -5.03553 3.26427 0
M  V30 2901 H 273.584 -3.62257 3.22332 0
M  V30 2902 N 274.927 -0.932562 -1.27047 0
M  V30 2903 C 275.86 -0.379774 -2.25018 0
M  V30 2904 C 276.838 0.526587 -1.53837 0
M  V30 2905 O 278.022 0.465992 -1.82649 0
M  V30 2906 C 275.149 0.455187 -3.35627 0
M  V30 2907 C 274.195 -0.388428 -4.24728 0
M  V30 2908 S 275.028 -1.80701 -5.04091 0
M  V30 2909 C 276.184 -0.979865 -6.18182 0
M  V30 2910 H 276.417 -1.2101 -2.71558 0
M  V30 2911 H 273.95 -0.735078 -1.35779 0
M  V30 2912 H 275.908 0.931052 -3.99802 0
M  V30 2913 H 274.569 1.26009 -2.87716 0
M  V30 2914 H 273.762 0.25089 -5.03375 0
M  V30 2915 H 273.364 -0.798649 -3.65373 0
M  V30 2916 H 275.656 -0.218115 -6.77149 0
M  V30 2917 H 276.599 -1.73951 -6.86401 0
M  V30 2918 H 277.007 -0.51973 -5.62102 0
M  V30 2919 N 276.405 1.4127 -0.698611 0
M  V30 2920 C 277.63 2.06024 -0.238512 0
M  V30 2921 C 278.055 1.5224 1.10475 0
M  V30 2922 O 277.413 0.650623 1.69223 0
M  V30 2923 C 277.461 3.59988 -0.209952 0
M  V30 2924 O 276.565 4.04282 0.814235 0
M  V30 2925 H 275.906 0.653829 -0.115775 0
M  V30 2926 H 278.436 1.8098 -0.954326 0
M  V30 2927 H 278.446 4.07979 -0.0418436 0
M  V30 2928 H 277.121 3.98503 -1.1903 0
M  V30 2929 H 275.698 3.6779 0.615234 0
M  V30 2930 N 277.883 0.443576 1.51229 0
M  V30 2931 C 279.111 -0.11929 2.06556 0
M  V30 2932 C 279.526 -1.35921 1.31038 0
M  V30 2933 O 278.883 -1.78675 0.371704 0
M  V30 2934 C 278.934 -0.435228 3.5887 0
M  V30 2935 O 278.655 0.755486 4.31537 0
M  V30 2936 C 280.156 -1.04808 4.30732 0
M  V30 2937 H 277.376 -0.0051584 0.67098 0
M  V30 2938 H 279.92 0.624453 1.94733 0
M  V30 2939 H 278.075 -1.12887 3.70588 0
M  V30 2940 H 278.489 0.483491 5.22267 0
M  V30 2941 H 279.963 -1.2191 5.3837 0
M  V30 2942 H 280.44 -2.03081 3.89429 0
M  V30 2943 H 281.046 -0.393637 4.23474 0
M  V30 2944 N 279.361 -1.56624 0.175154 0
M  V30 2945 C 280.608 -1.96999 -0.468811 0
M  V30 2946 C 280.936 -1.06129 -1.62994 0
M  V30 2947 O 280.191 -0.0961771 -1.95464 0
M  V30 2948 C 280.49 -3.43419 -0.989864 0
M  V30 2949 C 280.156 -4.50866 0.0557687 0
M  V30 2950 C 278.818 -4.79975 0.343134 0
M  V30 2951 C 281.17 -5.15551 0.765308 0
M  V30 2952 C 278.498 -5.71066 1.34536 0
M  V30 2953 C 280.85 -6.07724 1.75654 0
M  V30 2954 C 279.514 -6.35199 2.05132 0
M  V30 2955 H 278.784 -0.720869 -0.17155 0
M  V30 2956 H 281.431 -1.89616 0.267924 0
M  V30 2957 H 279.736 -3.47772 -1.80449 0
M  V30 2958 H 281.433 -3.72002 -1.49719 0
M  V30 2959 H 278.023 -4.28229 -0.178381 0
M  V30 2960 H 282.207 -4.9317 0.556513 0
M  V30 2961 H 277.463 -5.90635 1.57988 0
M  V30 2962 H 281.637 -6.56912 2.31169 0
M  V30 2963 H 279.264 -7.05584 2.8294 0
M  V30 2964 N 280.839 0.0985539 -1.57292 0
M  V30 2965 C 282.25 0.653457 -1.74891 0
M  V30 2966 C 282.601 1.7929 -0.796838 0
M  V30 2967 O 281.726 2.16385 0.0254886 0
M  V30 2968 C 282.321 1.19216 -3.17133 0
M  V30 2969 C 280.88 1.69316 -3.36168 0
M  V30 2970 C 280.027 0.601294 -2.70702 0
M  V30 2971 H 282.978 -0.127497 -1.58187 0
M  V30 2972 H 282.999 2.06154 -3.19814 0
M  V30 2973 H 282.511 0.362635 -3.86402 0
M  V30 2974 H 280.612 2.5468 -2.71972 0
M  V30 2975 H 280.725 1.78853 -4.44464 0
M  V30 2976 H 279.089 1.0399 -2.32504 0
M  V30 2977 H 279.872 -0.217592 -3.4261 0
M  V30 2978 N 282.317 1.53212 0.369288 0
M  V30 2979 C 283.249 1.75668 1.47219 0
M  V30 2980 C 284.262 0.637387 1.49804 0
M  V30 2981 O 285.451 0.913561 1.5335 0
M  V30 2982 C 282.551 1.81818 2.85999 0
M  V30 2983 C 281.724 3.11409 3.07153 0
M  V30 2984 C 280.783 3.08849 4.26026 0
M  V30 2985 O 279.809 3.82659 4.2138 0
M  V30 2986 N 281.011 2.29409 5.33246 0
M  V30 2987 H 283.776 2.70832 1.28337 0
M  V30 2988 H 281.337 1.51944 0.55898 0
M  V30 2989 H 283.329 1.77588 3.63655 0
M  V30 2990 H 281.899 0.939544 2.98146 0
M  V30 2991 H 281.119 3.28971 2.1719 0
M  V30 2992 H 282.407 3.97059 3.18154 0
M  V30 2993 H 281.805 1.68946 5.39883 0
M  V30 2994 H 280.362 2.31001 6.09493 0
M  V30 2995 N 283.795 -0.628877 1.44509 0
M  V30 2996 C 285.042 -1.38839 1.47411 0
M  V30 2997 C 285.37 -1.94202 0.10757 0
M  V30 2998 O 284.625 -1.74243 -0.890947 0
M  V30 2999 C 284.924 -2.56995 2.48371 0
M  V30 3000 C 284.59 -2.19908 3.93639 0
M  V30 3001 C 283.252 -2.09506 4.33198 0
M  V30 3002 C 285.604 -1.9064 4.85083 0
M  V30 3003 C 282.932 -1.68028 5.62124 0
M  V30 3004 C 285.284 -1.50655 6.14399 0
M  V30 3005 C 283.948 -1.38796 6.5291 0
M  V30 3006 H 283.218 -0.508048 0.539414 0
M  V30 3007 H 285.865 -0.712913 1.77735 0
M  V30 3008 H 284.17 -3.29786 2.11538 0
M  V30 3009 H 285.867 -3.15223 2.47861 0
M  V30 3010 H 282.457 -2.28922 3.62343 0
M  V30 3011 H 286.641 -1.97585 4.55273 0
M  V30 3012 H 281.897 -1.57452 5.90778 0
M  V30 3013 H 286.071 -1.27048 6.84713 0
M  V30 3014 H 283.698 -1.06429 7.52713 0
M  V30 3015 N 285.273 -1.31445 -0.869486 0
M  V30 3016 C 286.503 -1.23942 -1.65294 0
M  V30 3017 C 286.911 0.197561 -1.88166 0
M  V30 3018 O 286.254 1.14019 -1.44033 0
M  V30 3019 C 286.316 -1.91385 -3.04322 0
M  V30 3020 C 285.98 -3.40726 -3.04557 0
M  V30 3021 C 286.977 -4.36464 -2.82481 0
M  V30 3022 C 284.662 -3.82425 -3.25663 0
M  V30 3023 C 286.656 -5.71876 -2.8149 0
M  V30 3024 C 284.343 -5.1795 -3.243 0
M  V30 3025 C 285.341 -6.12486 -3.02241 0
M  V30 3026 O 285.029 -7.45534 -3.00724 0
M  V30 3027 H 284.761 -0.429459 -0.522054 0
M  V30 3028 H 287.315 -1.73873 -1.0935 0
M  V30 3029 H 285.545 -1.36004 -3.61994 0
M  V30 3030 H 287.234 -1.77791 -3.64891 0
M  V30 3031 H 288 -4.05576 -2.65956 0
M  V30 3032 H 283.879 -3.09274 -3.41863 0
M  V30 3033 H 287.423 -6.45638 -2.64191 0
M  V30 3034 H 283.32 -5.48473 -3.40365 0
M  V30 3035 H 284.088 -7.54713 -3.16782 0
M  V30 3036 N 286.751 1.08385 -1.14413 0
M  V30 3037 C 287.683 2.1519 -0.789036 0
M  V30 3038 C 288.696 1.61638 0.19417 0
M  V30 3039 O 289.885 1.78479 -0.0275711 0
M  V30 3040 C 286.985 3.38565 -0.15058 0
M  V30 3041 C 286.158 4.21501 -1.16857 0
M  V30 3042 C 285.217 5.23277 -0.553832 0
M  V30 3043 O 284.243 5.56041 -1.21686 0
M  V30 3044 N 285.445 5.76629 0.669296 0
M  V30 3045 H 288.21 2.46257 -1.70814 0
M  V30 3046 H 285.771 1.24198 -1.03858 0
M  V30 3047 H 287.763 4.03777 0.273181 0
M  V30 3048 H 286.333 3.05299 0.671667 0
M  V30 3049 H 285.553 3.52265 -1.76926 0
M  V30 3050 H 286.841 4.73731 -1.85624 0
M  V30 3051 H 286.239 5.52243 1.22654 0
M  V30 3052 H 284.796 6.43521 1.03556 0
M  V30 3053 N 288.23 0.939286 1.26551 0
M  V30 3054 C 289.458 0.602536 1.97932 0
M  V30 3055 C 289.873 -0.82206 1.69964 0
M  V30 3056 O 289.23 -1.54789 0.966784 0
M  V30 3057 C 289.281 0.832946 3.51773 0
M  V30 3058 O 289.002 2.20151 3.78768 0
M  V30 3059 C 290.503 0.506483 4.40397 0
M  V30 3060 H 287.723 0.227248 0.631347 0
M  V30 3061 H 290.267 1.25948 1.61113 0
M  V30 3062 H 288.422 0.222644 3.8676 0
M  V30 3063 H 288.836 2.26013 4.73306 0
M  V30 3064 H 290.31 0.718333 5.47306 0
M  V30 3065 H 290.787 -0.558451 4.35635 0
M  V30 3066 H 291.393 1.09543 4.10951 0
M  V30 3067 N 289.708 -1.40897 0.706093 0
M  V30 3068 C 290.618 -2.3455 0.0482286 0
M  V30 3069 C 291.634 -1.56796 -0.754396 0
M  V30 3070 O 292.81 -1.89228 -0.689538 0
M  V30 3071 C 289.875 -3.35625 -0.869303 0
M  V30 3072 C 288.936 -4.29261 -0.0576994 0
M  V30 3073 C 288.169 -5.25508 -0.931531 0
M  V30 3074 O 288.392 -5.27472 -2.17092 0
M  V30 3075 O 287.326 -6.00727 -0.375587 0
M  V30 3076 H 291.152 -2.92407 0.820476 0
M  V30 3077 H 288.737 -1.4193 0.4665 0
M  V30 3078 H 290.619 -3.97635 -1.39514 0
M  V30 3079 H 289.294 -2.80196 -1.62086 0
M  V30 3080 H 288.201 -3.70566 0.512988 0
M  V30 3081 H 289.534 -4.87817 0.655426 0
M  V30 3082 N 291.186 -0.45159 -1.50991 0
M  V30 3083 C 292.118 0.388634 -2.25881 0
M  V30 3084 C 293.131 0.974041 -1.30446 0
M  V30 3085 O 294.32 0.865758 -1.56099 0
M  V30 3086 C 291.42 1.5571 -3.01011 0
M  V30 3087 C 290.593 1.08801 -4.23652 0
M  V30 3088 C 289.652 2.12825 -4.8124 0
M  V30 3089 O 288.678 1.71678 -5.42693 0
M  V30 3090 N 289.88 3.45453 -4.66522 0
M  V30 3091 H 292.645 -0.25329 -2.98628 0
M  V30 3092 H 290.206 -0.281268 -1.59438 0
M  V30 3093 H 292.198 2.24952 -3.3642 0
M  V30 3094 H 290.768 2.10409 -2.31186 0
M  V30 3095 H 289.988 0.22215 -3.93574 0
M  V30 3096 H 291.276 0.752213 -5.03209 0
M  V30 3097 H 290.674 3.81605 -4.17605 0
M  V30 3098 H 289.231 4.10549 -5.06254 0
M  V30 3099 N 292.664 1.56529 -0.183458 0
M  V30 3100 C 293.611 2.18546 0.742055 0
M  V30 3101 C 294.581 1.12912 1.2182 0
M  V30 3102 O 295.766 1.41115 1.28418 0
M  V30 3103 C 292.906 2.83977 1.96089 0
M  V30 3104 C 292.019 4.04105 1.52719 0
M  V30 3105 C 291.154 4.57427 2.70063 0
M  V30 3106 C 290.193 5.69938 2.23243 0
M  V30 3107 N 289.33 6.17717 3.33722 0
M  V30 3108 H 294.17 2.97284 0.206432 0
M  V30 3109 H 291.707 1.46823 0.0901571 0
M  V30 3110 H 293.665 3.20077 2.67594 0
M  V30 3111 H 292.295 2.07822 2.47002 0
M  V30 3112 H 291.347 3.73745 0.708436 0
M  V30 3113 H 292.659 4.85513 1.1436 0
M  V30 3114 H 291.813 4.95772 3.49708 0
M  V30 3115 H 290.552 3.75101 3.11689 0
M  V30 3116 H 289.557 5.31133 1.42048 0
M  V30 3117 H 290.782 6.54073 1.82661 0
M  V30 3118 H 288.728 5.38317 3.74902 0
M  V30 3119 H 288.645 6.94146 2.99495 0
M  V30 3120 H 289.913 6.60713 4.13616 0
M  V30 3121 N 294.142 -0.090211 1.57342 0
M  V30 3122 C 295.092 -1.11557 1.98844 0
M  V30 3123 C 296.076 -1.35503 0.867624 0
M  V30 3124 O 297.268 -1.36113 1.13148 0
M  V30 3125 C 294.397 -2.43446 2.42051 0
M  V30 3126 C 293.483 -2.22853 3.60828 0
M  V30 3127 N 293.874 -1.72141 4.75606 0
M  V30 3128 C 292.172 -2.53401 3.67021 0
M  V30 3129 C 292.873 -1.65932 5.57531 0
M  V30 3130 N 291.849 -2.11323 5.00843 0
M  V30 3131 H 295.651 -0.716499 2.85032 0
M  V30 3132 H 293.165 -0.297567 1.59651 0
M  V30 3133 H 295.162 -3.17644 2.70014 0
M  V30 3134 H 293.822 -2.84087 1.57241 0
M  V30 3135 H 294.833 -1.41268 4.98261 0
M  V30 3136 H 291.51 -2.97532 2.92884 0
M  V30 3137 H 292.9 -1.27733 6.59647 0
M  V30 3138 N 295.62 -1.53406 -0.361157 0
M  V30 3139 C 297.036 -1.43277 -0.703124 0
M  V30 3140 C 297.236 -0.575384 -1.9311 0
M  V30 3141 O 296.292 -0.0595362 -2.5243 0
M  V30 3142 C 297.605 -2.8653 -0.9122 0
M  V30 3143 C 299.153 -2.96191 -1.01193 0
M  V30 3144 C 299.628 -4.40514 -1.25345 0
M  V30 3145 N 301.119 -4.43962 -1.32105 0
M  V30 3146 C 301.854 -5.52746 -1.5251 0
M  V30 3147 N 301.35 -6.71567 -1.70203 0
M  V30 3148 N 303.143 -5.40331 -1.54916 0
M  V30 3149 H 295.294 -2.07654 0.446475 0
M  V30 3150 H 297.557 -0.937944 0.137715 0
M  V30 3151 H 297.263 -3.51605 -0.0816414 0
M  V30 3152 H 297.137 -3.30441 -1.81903 0
M  V30 3153 H 299.524 -2.31266 -1.83303 0
M  V30 3154 H 299.605 -2.55667 -0.0823929 0
M  V30 3155 H 299.249 -5.06014 -0.437346 0
M  V30 3156 H 299.179 -4.78614 -2.19627 0
M  V30 3157 H 301.67 -3.58332 -1.20028 0
M  V30 3158 H 301.983 -7.50241 -1.85359 0
M  V30 3159 H 300.328 -6.74545 -1.67373 0
M  V30 3160 H 303.519 -4.46465 -1.40663 0
M  V30 3161 H 303.692 -6.25173 -1.70477 0
M  V30 3162 N 297.098 0.621204 -1.44841 0
M  V30 3163 C 298.323 1.41244 -1.51871 0
M  V30 3164 C 298.748 1.87519 -0.147764 0
M  V30 3165 O 298.106 1.59334 0.865 0
M  V30 3166 C 298.154 2.60221 -2.49634 0
M  V30 3167 O 297.258 3.60395 -2.00473 0
M  V30 3168 H 296.599 0.42223 -0.512463 0
M  V30 3169 H 299.129 0.757305 -1.90069 0
M  V30 3170 H 299.139 3.0764 -2.67996 0
M  V30 3171 H 297.814 2.25887 -3.4921 0
M  V30 3172 H 296.391 3.19717 -1.91925 0
M  V30 3173 N 298.576 1.31904 0.862503 0
M  V30 3174 C 299.506 1.22782 1.98612 0
M  V30 3175 C 300.487 0.113362 1.69722 0
M  V30 3176 O 301.672 0.299218 1.91881 0
M  V30 3177 C 298.802 0.942058 3.34279 0
M  V30 3178 C 297.756 2.0169 3.77499 0
M  V30 3179 C 297.082 1.58369 5.10709 0
M  V30 3180 C 298.382 3.43096 3.93805 0
M  V30 3181 H 300.076 2.16788 2.06502 0
M  V30 3182 H 297.622 1.04366 0.992154 0
M  V30 3183 H 299.575 0.864818 4.1243 0
M  V30 3184 H 298.299 -0.0336603 3.26583 0
M  V30 3185 H 296.958 2.08416 3.01593 0
M  V30 3186 H 296.606 0.595628 4.99461 0
M  V30 3187 H 296.306 2.30279 5.40597 0
M  V30 3188 H 297.83 1.52067 5.91361 0
M  V30 3189 H 299.244 3.39003 4.62331 0
M  V30 3190 H 297.641 4.13288 4.35101 0
M  V30 3191 H 298.711 3.83334 2.96957 0
M  V30 3192 N 300.054 -1.07777 1.14986 0
M  V30 3193 C 301.303 -1.79669 0.916617 0
M  V30 3194 C 301.616 -1.87474 -0.557917 0
M  V30 3195 O 302.822 -2.55845 -0.908617 0
M  V30 3196 C 301.278 -3.22848 1.59051 0
M  V30 3197 C 300.886 -3.23257 3.10176 0
M  V30 3198 C 302.63 -3.99379 1.43864 0
M  V30 3199 C 300.537 -4.61063 3.70372 0
M  V30 3200 H 299.467 -0.673349 0.33929 0
M  V30 3201 H 302.118 -1.21003 1.37951 0
M  V30 3202 H 300.5 -3.8168 1.0553 0
M  V30 3203 H 301.674 -2.74095 3.70417 0
M  V30 3204 H 299.989 -2.60222 3.25074 0
M  V30 3205 H 302.586 -5.0122 1.86232 0
M  V30 3206 H 302.929 -4.14511 0.385564 0
M  V30 3207 H 303.462 -3.47032 1.94457 0
M  V30 3208 H 300.201 -4.51135 4.7556 0
M  V30 3209 H 299.721 -5.1048 3.14913 0
M  V30 3210 H 301.4 -5.30034 3.71043 0
M  V30 3211 N 301.532 -0.945985 -1.26051 0
M  V30 3212 C 302.462 -0.477172 -2.28572 0
M  V30 3213 C 303.443 0.472032 -1.63419 0
M  V30 3214 O 304.628 0.372853 -1.90587 0
M  V30 3215 C 301.758 0.253975 -3.4637 0
M  V30 3216 C 300.712 -0.609135 -4.23643 0
M  V30 3217 C 300.038 0.252252 -5.34105 0
M  V30 3218 C 301.338 -1.8829 -4.8718 0
M  V30 3219 H 303.032 -1.33402 -2.68038 0
M  V30 3220 H 300.578 -0.642904 -1.28852 0
M  V30 3221 H 302.531 0.593016 -4.17207 0
M  V30 3222 H 301.255 1.145 -3.05871 0
M  V30 3223 H 299.914 -0.931138 -3.54578 0
M  V30 3224 H 299.562 1.14278 -4.89846 0
M  V30 3225 H 299.262 -0.32188 -5.86718 0
M  V30 3226 H 300.786 0.586454 -6.07777 0
M  V30 3227 H 302.2 -1.61081 -5.50205 0
M  V30 3228 H 300.597 -2.40199 -5.49931 0
M  V30 3229 H 301.667 -2.59134 -4.09851 0
M  V30 3230 N 303.011 1.40521 -0.713556 0
M  V30 3231 C 304.259 2.00527 -0.251692 0
M  V30 3232 C 304.58 1.56857 1.15848 0
M  V30 3233 O 303.85 0.807127 1.785 0
M  V30 3234 H 302.43 0.741551 -0.0900646 0
M  V30 3235 H 305.092 1.71887 -0.918733 0
M  V30 3236 H 304.188 3.10813 -0.283192 0
M  V30 3237 N 304.489 0.459591 1.5075 0
M  V30 3238 C 305.422 -0.386257 2.24907 0
M  V30 3239 C 306.4 -1.006 1.27744 0
M  V30 3240 O 307.584 -1.04416 1.56938 0
M  V30 3241 C 304.711 -1.54021 3.01654 0
M  V30 3242 C 303.757 -1.03898 4.13651 0
M  V30 3243 S 304.59 0.0370501 5.35487 0
M  V30 3244 C 305.746 -1.12105 6.15779 0
M  V30 3245 H 305.979 0.243272 2.96303 0
M  V30 3246 H 303.512 0.244339 1.52454 0
M  V30 3247 H 305.47 -2.20163 3.46466 0
M  V30 3248 H 304.131 -2.14121 2.29806 0
M  V30 3249 H 303.324 -1.90254 4.66711 0
M  V30 3250 H 302.926 -0.45545 3.71216 0
M  V30 3251 H 305.218 -2.03501 6.46215 0
M  V30 3252 H 306.161 -0.62995 7.05292 0
M  V30 3253 H 306.569 -1.36967 5.47631 0
M  V30 3254 N 305.967 -1.56429 0.191757 0
M  V30 3255 C 306.914 -2.18936 -0.730454 0
M  V30 3256 C 307.884 -1.13557 -1.21219 0
M  V30 3257 O 309.069 -1.41794 -1.27668 0
M  V30 3258 C 306.209 -2.85013 -1.9458 0
M  V30 3259 C 305.322 -4.04909 -1.50574 0
M  V30 3260 C 304.457 -4.58853 -2.67634 0
M  V30 3261 C 303.496 -5.71114 -2.20217 0
M  V30 3262 N 302.633 -6.19478 -3.30442 0
M  V30 3263 H 307.473 -2.97389 -0.190664 0
M  V30 3264 H 305.01 -1.46869 -0.0823694 0
M  V30 3265 H 306.968 -3.21492 -2.65893 0
M  V30 3266 H 305.598 -2.09129 -2.45896 0
M  V30 3267 H 304.65 -3.74115 -0.688605 0
M  V30 3268 H 305.962 -4.86113 -1.11784 0
M  V30 3269 H 305.116 -4.97619 -3.47074 0
M  V30 3270 H 303.855 -3.76749 -3.09696 0
M  V30 3271 H 302.86 -5.31879 -1.3923 0
M  V30 3272 H 304.085 -6.55033 -1.79189 0
M  V30 3273 H 302.031 -5.40297 -3.72041 0
M  V30 3274 H 301.948 -6.95725 -2.9581 0
M  V30 3275 H 303.216 -6.62898 -4.10106 0
M  V30 3276 N 307.445 0.0818655 -1.57387 0
M  V30 3277 C 308.392 1.09834 -2.0299 0
M  V30 3278 C 309.362 1.39043 -0.908639 0
M  V30 3279 O 310.547 1.50282 -1.17559 0
M  V30 3280 C 307.687 2.40971 -2.47037 0
M  V30 3281 C 306.8 2.18379 -3.7274 0
M  V30 3282 C 305.935 3.43008 -4.0561 0
M  V30 3283 C 304.974 3.15736 -5.24383 0
M  V30 3284 N 304.111 4.32667 -5.52941 0
M  V30 3285 H 308.951 0.702472 -2.89602 0
M  V30 3286 H 306.488 0.33531 -1.43227 0
M  V30 3287 H 308.446 3.1752 -2.70623 0
M  V30 3288 H 307.076 2.78379 -1.63417 0
M  V30 3289 H 306.128 1.32569 -3.56552 0
M  V30 3290 H 307.44 1.94227 -4.59431 0
M  V30 3291 H 306.594 4.27958 -4.30043 0
M  V30 3292 H 305.333 3.70225 -3.17466 0
M  V30 3293 H 304.338 2.2918 -4.99757 0
M  V30 3294 H 305.563 2.8985 -6.14136 0
M  V30 3295 H 303.509 4.59935 -4.67756 0
M  V30 3296 H 303.426 4.11753 -6.34031 0
M  V30 3297 H 304.694 5.18644 -5.81918 0
M  V30 3298 N 308.923 1.53595 0.353017 0
M  V30 3299 C 310.151 1.74311 1.1146 0
M  V30 3300 C 310.566 0.477854 1.82653 0
M  V30 3301 O 309.923 -0.549977 1.74016 0
M  V30 3302 C 309.974 2.91694 2.13534 0
M  V30 3303 O 309.695 4.13325 1.45238 0
M  V30 3304 C 311.196 3.24384 3.02142 0
M  V30 3305 H 308.416 0.582669 0.332773 0
M  V30 3306 H 310.96 2.00386 0.408107 0
M  V30 3307 H 309.115 2.67977 2.79763 0
M  V30 3308 H 309.529 4.79148 2.13349 0
M  V30 3309 H 311.003 4.09893 3.69718 0
M  V30 3310 H 311.48 2.40282 3.67643 0
M  V30 3311 H 312.086 3.50073 2.41514 0
M  V30 3312 N 310.401 -0.613514 1.45168 0
M  V30 3313 C 311.817 -0.933629 1.29443 0
M  V30 3314 C 312.017 -2.00028 0.243101 0
M  V30 3315 O 311.073 -2.49848 -0.364992 0
M  V30 3316 C 312.386 -1.38018 2.67155 0
M  V30 3317 C 313.934 -1.49471 2.75004 0
M  V30 3318 C 314.409 -1.97503 4.13227 0
M  V30 3319 N 315.9 -2.04746 4.15491 0
M  V30 3320 C 316.635 -2.43121 5.19307 0
M  V30 3321 N 316.131 -2.80506 6.33473 0
M  V30 3322 N 317.924 -2.43408 5.06664 0
M  V30 3323 H 310.075 0.0916097 2.12202 0
M  V30 3324 H 312.338 -0.0216655 0.947752 0
M  V30 3325 H 312.044 -0.670625 3.45247 0
M  V30 3326 H 311.918 -2.34784 2.95222 0
M  V30 3327 H 314.305 -2.19519 1.9722 0
M  V30 3328 H 314.386 -0.510342 2.50657 0
M  V30 3329 H 314.03 -1.28045 4.91495 0
M  V30 3330 H 313.96 -2.96843 4.34962 0
M  V30 3331 H 316.451 -1.78468 3.33103 0
M  V30 3332 H 316.764 -3.08652 7.08487 0
M  V30 3333 H 315.109 -2.78216 6.36884 0
M  V30 3334 H 318.3 -2.13604 4.16523 0
M  V30 3335 H 318.473 -2.72989 5.87691 0
M  V30 3336 N 311.879 -1.3236 -0.855495 0
M  V30 3337 C 313.29 -1.2056 -1.42556 0
M  V30 3338 C 313.641 0.182209 -1.95352 0
M  V30 3339 O 312.766 1.08088 -1.87472 0
M  V30 3340 C 313.361 -2.1826 -2.59129 0
M  V30 3341 C 311.92 -2.10351 -3.12137 0
M  V30 3342 C 311.067 -2.06674 -1.84882 0
M  V30 3343 H 314.018 -1.442 -0.662727 0
M  V30 3344 H 314.039 -1.78064 -3.36264 0
M  V30 3345 H 313.551 -3.19257 -2.20673 0
M  V30 3346 H 311.652 -1.12599 -3.55179 0
M  V30 3347 H 311.765 -3.00135 -3.73438 0
M  V30 3348 H 310.129 -1.51901 -2.04446 0
M  V30 3349 H 310.912 -3.09451 -1.48643 0
M  V30 3350 N 313.357 1.07166 -1.15556 0
M  V30 3351 C 314.289 2.14341 -0.811815 0
M  V30 3352 C 315.302 1.61835 0.177015 0
M  V30 3353 O 316.491 1.78439 -0.0464996 0
M  V30 3354 C 313.591 3.38387 -0.186481 0
M  V30 3355 C 312.764 4.20238 -1.21321 0
M  V30 3356 C 311.823 5.2266 -0.609302 0
M  V30 3357 O 310.849 5.54719 -1.27576 0
M  V30 3358 N 312.051 5.77306 0.608099 0
M  V30 3359 H 314.816 2.44431 -1.73417 0
M  V30 3360 H 312.377 1.23089 -1.0517 0
M  V30 3361 H 314.369 4.04044 0.230339 0
M  V30 3362 H 312.939 3.05994 0.639249 0
M  V30 3363 H 312.159 3.50369 -1.80652 0
M  V30 3364 H 313.447 4.71736 -1.90638 0
M  V30 3365 H 312.845 5.53513 1.1679 0
M  V30 3366 H 311.402 6.44583 0.96725 0
M  V30 3367 N 314.835 0.952656 1.25548 0
M  V30 3368 C 316.083 0.605176 1.92826 0
M  V30 3369 C 316.404 -0.860261 1.74999 0
M  V30 3370 O 315.674 -1.6125 1.11244 0
M  V30 3371 H 314.254 0.220832 0.713612 0
M  V30 3372 H 316.916 1.21047 1.52754 0
M  V30 3373 H 316.012 0.832798 3.00784 0
M  V30 3374 N 316.313 -1.40141 0.720998 0
M  V30 3375 C 317.538 -2.05618 0.271258 0
M  V30 3376 C 317.963 -1.53978 -1.08039 0
M  V30 3377 O 317.321 -0.677463 -1.68167 0
M  V30 3378 C 317.369 -3.59609 0.267197 0
M  V30 3379 O 316.473 -4.05526 -0.749814 0
M  V30 3380 H 315.814 -0.651904 0.126162 0
M  V30 3381 H 318.344 -1.79439 0.982997 0
M  V30 3382 H 318.354 -4.0786 0.106744 0
M  V30 3383 H 317.029 -3.96559 1.25354 0
M  V30 3384 H 315.606 -3.68722 -0.556644 0
M  V30 3385 N 317.792 -0.46758 -1.50504 0
M  V30 3386 C 319.04 0.0884469 -2.01906 0
M  V30 3387 C 319.361 1.40532 -1.35188 0
M  V30 3388 O 318.631 1.89515 -0.496079 0
M  V30 3389 H 317.211 0.0356765 -0.746148 0
M  V30 3390 H 319.873 -0.6172 -1.84869 0
M  V30 3391 H 318.969 0.2425 -3.11156 0
M  V30 3392 N 319.27 1.56325 -0.20005 0
M  V30 3393 C 320.202 2.16555 0.750771 0
M  V30 3394 C 321.215 1.12871 1.1732 0
M  V30 3395 O 322.404 1.39943 1.10807 0
M  V30 3396 C 319.504 2.71684 2.02586 0
M  V30 3397 C 318.677 4.00321 1.76244 0
M  V30 3398 C 317.736 4.40227 2.88248 0
M  V30 3399 O 316.762 5.07552 2.57642 0
M  V30 3400 N 317.964 4.04138 4.16717 0
M  V30 3401 H 320.729 2.98772 0.235685 0
M  V30 3402 H 318.29 1.6189 -0.0182594 0
M  V30 3403 H 320.282 2.95363 2.76664 0
M  V30 3404 H 318.852 1.93893 2.45202 0
M  V30 3405 H 318.072 3.84723 0.85919 0
M  V30 3406 H 319.36 4.84279 1.56048 0
M  V30 3407 H 318.758 3.49993 4.44434 0
M  V30 3408 H 317.315 4.32756 4.87407 0
M  V30 3409 N 320.748 -0.0735177 1.57428 0
M  V30 3410 C 321.68 -1.11423 2.00294 0
M  V30 3411 C 322.693 -1.35084 0.908637 0
M  V30 3412 O 323.882 -1.33355 1.18654 0
M  V30 3413 C 320.982 -2.46548 2.32523 0
M  V30 3414 C 320.155 -2.42867 3.63778 0
M  V30 3415 C 319.214 -3.60087 3.83697 0
M  V30 3416 O 318.24 -3.41595 4.55304 0
M  V30 3417 N 319.442 -4.80372 3.25919 0
M  V30 3418 H 322.207 -0.749206 2.90184 0
M  V30 3419 H 319.768 -0.262195 1.59763 0
M  V30 3420 H 321.76 -3.23607 2.43024 0
M  V30 3421 H 320.33 -2.75059 1.48531 0
M  V30 3422 H 319.55 -1.51206 3.64047 0
M  V30 3423 H 320.838 -2.37506 4.49965 0
M  V30 3424 H 320.236 -4.983 2.67795 0
M  V30 3425 H 318.793 -5.54948 3.41871 0
M  V30 3426 N 322.226 -1.5378 -0.344866 0
M  V30 3427 C 323.156 -1.84662 -1.42906 0
M  V30 3428 C 324.137 -0.701648 -1.54955 0
M  V30 3429 O 325.322 -0.953438 -1.69184 0
M  V30 3430 C 322.452 -2.05503 -2.79974 0
M  V30 3431 C 321.406 -3.21318 -2.82734 0
M  V30 3432 C 320.732 -3.2749 -4.22675 0
M  V30 3433 C 322.032 -4.59456 -2.48389 0
M  V30 3434 H 323.726 -2.75461 -1.17311 0
M  V30 3435 H 321.272 -1.32542 -0.562896 0
M  V30 3436 H 323.225 -2.25691 -3.55867 0
M  V30 3437 H 321.949 -1.11434 -3.07002 0
M  V30 3438 H 320.608 -3.00984 -2.09294 0
M  V30 3439 H 320.256 -2.31019 -4.4681 0
M  V30 3440 H 319.956 -4.05316 -4.25433 0
M  V30 3441 H 321.48 -3.49887 -5.00412 0
M  V30 3442 H 322.894 -4.79667 -3.13995 0
M  V30 3443 H 321.291 -5.39675 -2.62432 0
M  V30 3444 H 322.361 -4.63155 -1.4358 0
M  V30 3445 N 323.704 0.605807 -1.45491 0
M  V30 3446 C 324.932 1.39136 -1.5313 0
M  V30 3447 C 325.347 1.88082 -0.164507 0
M  V30 3448 O 324.704 1.62316 0.834247 0
M  V30 3449 C 324.755 2.59463 -2.51716 0
M  V30 3450 O 324.476 2.12551 -3.83084 0
M  V30 3451 C 325.977 3.52301 -2.6907 0
M  V30 3452 H 323.197 0.425849 -0.51855 0
M  V30 3453 H 325.741 0.73865 -1.90694 0
M  V30 3454 H 323.896 3.20772 -2.17219 0
M  V30 3455 H 324.31 2.90744 -4.36541 0
M  V30 3456 H 325.784 4.33271 -3.42024 0
M  V30 3457 H 326.261 4.02757 -1.75167 0
M  V30 3458 H 326.867 2.96845 -3.04571 0
M  V30 3459 N 325.182 1.32811 0.848464 0
M  V30 3460 C 326.145 1.22194 1.9391 0
M  V30 3461 C 327.145 0.143404 1.60159 0
M  V30 3462 O 328.335 0.394253 1.6968 0
M  V30 3463 C 325.467 0.88067 3.29328 0
M  V30 3464 H 326.66 2.19127 2.04752 0
M  V30 3465 H 324.213 1.16731 1.0394 0
M  V30 3466 H 324.948 -0.0865776 3.24184 0
M  V30 3467 H 324.733 1.66052 3.55203 0
M  V30 3468 H 326.223 0.830871 4.09251 0
M  V30 3469 N 326.66 -1.06551 1.16123 0
M  V30 3470 C 327.607 -2.13961 0.865414 0
M  V30 3471 C 328.577 -1.65066 -0.185055 0
M  V30 3472 O 329.762 -1.90732 -0.05083 0
M  V30 3473 C 326.902 -3.43113 0.369776 0
M  V30 3474 C 326.015 -4.05756 1.48276 0
M  V30 3475 C 325.15 -5.22773 0.942414 0
M  V30 3476 C 324.189 -5.77395 2.03179 0
M  V30 3477 N 323.326 -6.85731 1.50721 0
M  V30 3478 H 328.166 -2.38605 1.78527 0
M  V30 3479 H 325.703 -1.17072 0.890646 0
M  V30 3480 H 327.661 -4.17151 0.0640643 0
M  V30 3481 H 326.291 -3.18695 -0.513143 0
M  V30 3482 H 325.343 -3.29292 1.9045 0
M  V30 3483 H 326.655 -4.42351 2.30493 0
M  V30 3484 H 325.809 -6.03827 0.589729 0
M  V30 3485 H 324.548 -4.87618 0.0895191 0
M  V30 3486 H 323.553 -4.94981 2.3932 0
M  V30 3487 H 324.778 -6.14603 2.8886 0
M  V30 3488 H 322.724 -6.52499 0.676811 0
M  V30 3489 H 322.641 -7.21254 2.26557 0
M  V30 3490 H 323.909 -7.7047 1.18303 0
M  V30 3491 N 328.138 -0.959301 -1.25041 0
M  V30 3492 C 329.085 -0.482057 -2.2571 0
M  V30 3493 C 330.055 0.467939 -1.59372 0
M  V30 3494 O 331.24 0.380159 -1.86974 0
M  V30 3495 C 328.38 0.229623 -3.44335 0
M  V30 3496 C 327.493 -0.758156 -4.25295 0
M  V30 3497 C 326.628 -0.0234403 -5.31195 0
M  V30 3498 C 325.667 -1.00184 -6.03846 0
M  V30 3499 N 324.804 -0.29769 -7.01469 0
M  V30 3500 H 329.644 -1.34538 -2.65901 0
M  V30 3501 H 327.181 -0.674592 -1.3072 0
M  V30 3502 H 329.139 0.658856 -4.11965 0
M  V30 3503 H 327.769 1.05696 -3.05005 0
M  V30 3504 H 326.821 -1.30586 -3.57284 0
M  V30 3505 H 328.133 -1.50458 -4.75567 0
M  V30 3506 H 327.287 0.464201 -6.04922 0
M  V30 3507 H 326.026 0.755741 -4.81809 0
M  V30 3508 H 325.031 -1.50044 -5.2893 0
M  V30 3509 H 326.256 -1.78133 -6.55321 0
M  V30 3510 H 324.202 0.462668 -6.54366 0
M  V30 3511 H 324.119 -0.983128 -7.4958 0
M  V30 3512 H 325.387 0.16826 -7.79318 0
M  V30 3513 N 329.616 1.39756 -0.72842 0
M  V30 3514 C 330.548 2.29157 -0.0446202 0
M  V30 3515 C 331.561 1.46484 0.710367 0
M  V30 3516 O 332.75 1.69632 0.55562 0
M  V30 3517 C 329.85 3.24987 0.961071 0
M  V30 3518 C 329.023 4.36572 0.268967 0
M  V30 3519 C 328.082 5.12756 1.18184 0
M  V30 3520 O 327.108 5.6534 0.661794 0
M  V30 3521 N 328.31 5.23331 2.51206 0
M  V30 3522 H 331.075 2.88482 -0.812295 0
M  V30 3523 H 328.636 1.51265 -0.577098 0
M  V30 3524 H 330.628 3.72827 1.57423 0
M  V30 3525 H 329.198 2.66739 1.63 0
M  V30 3526 H 328.418 3.90694 -0.524574 0
M  V30 3527 H 329.706 5.08363 -0.210934 0
M  V30 3528 H 329.104 4.82116 2.9594 0
M  V30 3529 H 327.661 5.74634 3.07634 0
M  V30 3530 N 331.094 0.475555 1.50254 0
M  V30 3531 C 332.342 -0.077738 2.0195 0
M  V30 3532 C 332.663 -1.39813 1.35931 0
M  V30 3533 O 331.933 -1.89249 0.506123 0
M  V30 3534 H 330.513 -0.031719 0.746326 0
M  V30 3535 H 333.175 0.626995 1.84539 0
M  V30 3536 H 332.271 -0.225995 3.11281 0
M  V30 3537 N 332.573 -1.56217 0.208337 0
M  V30 3538 C 333.505 -2.1695 -0.739276 0
M  V30 3539 C 334.518 -1.13492 -1.1672 0
M  V30 3540 O 335.707 -1.40529 -1.10063 0
M  V30 3541 C 332.807 -2.72755 -2.01142 0
M  V30 3542 C 331.98 -4.0125 -1.74118 0
M  V30 3543 C 331.039 -4.41749 -2.85909 0
M  V30 3544 O 330.065 -5.08912 -2.54946 0
M  V30 3545 N 331.267 -4.06342 -4.14568 0
M  V30 3546 H 334.032 -2.98893 -0.219837 0
M  V30 3547 H 331.593 -1.61878 0.0268445 0
M  V30 3548 H 333.585 -2.96826 -2.75094 0
M  V30 3549 H 332.155 -1.95191 -2.4417 0
M  V30 3550 H 331.375 -3.85173 -0.838775 0
M  V30 3551 H 332.663 -4.851 -1.53477 0
M  V30 3552 H 332.061 -3.52345 -4.42571 0
M  V30 3553 H 330.618 -4.35335 -4.85105 0
M  V30 3554 N 334.051 0.0651679 -1.57465 0
M  V30 3555 C 335.298 0.763063 -1.87573 0
M  V30 3556 C 335.626 1.77242 -0.800961 0
M  V30 3557 O 334.881 1.94651 0.202316 0
M  V30 3558 C 335.18 1.50081 -3.24362 0
M  V30 3559 C 334.846 0.630816 -4.46466 0
M  V30 3560 C 333.508 0.391082 -4.79608 0
M  V30 3561 C 335.86 0.0279465 -5.21193 0
M  V30 3562 C 333.188 -0.460894 -5.84887 0
M  V30 3563 C 335.54 -0.811522 -6.27373 0
M  V30 3564 C 334.204 -1.06106 -6.59013 0
M  V30 3565 H 333.474 0.279224 -0.686378 0
M  V30 3566 H 336.121 0.0236726 -1.91485 0
M  V30 3567 H 334.426 2.31258 -3.16271 0
M  V30 3568 H 336.123 2.04571 -3.44894 0
M  V30 3569 H 332.713 0.8278 -4.2053 0
M  V30 3570 H 336.897 0.200262 -4.95896 0
M  V30 3571 H 332.153 -0.662907 -6.07796 0
M  V30 3572 H 336.327 -1.28537 -6.84435 0
M  V30 3573 H 333.954 -1.723 -7.40417 0
M  V30 3574 N 335.529 1.53961 0.336706 0
M  V30 3575 C 336.461 1.78751 1.4346 0
M  V30 3576 C 337.474 0.669019 1.48418 0
M  V30 3577 O 338.663 0.945884 1.51378 0
M  V30 3578 C 335.763 1.87844 2.82078 0
M  V30 3579 C 334.936 3.17854 3.00479 0
M  V30 3580 C 333.995 3.17816 4.19379 0
M  V30 3581 O 333.021 3.91511 4.13168 0
M  V30 3582 N 334.223 2.40669 5.2826 0
M  V30 3583 H 336.988 2.73493 1.22563 0
M  V30 3584 H 334.549 1.53096 0.526625 0
M  V30 3585 H 336.541 1.85261 3.59806 0
M  V30 3586 H 335.111 1.00257 2.96086 0
M  V30 3587 H 334.331 3.33504 2.10163 0
M  V30 3588 H 335.619 4.03718 3.0966 0
M  V30 3589 H 335.017 1.8036 5.36178 0
M  V30 3590 H 333.574 2.43877 6.04456 0
M  V30 3591 N 337.007 -0.598083 1.45811 0
M  V30 3592 C 338.235 -1.38322 1.53866 0
M  V30 3593 C 338.65 -1.87992 0.174479 0
M  V30 3594 O 338.007 -1.62756 -0.825627 0
M  V30 3595 C 338.058 -2.58125 2.53089 0
M  V30 3596 O 337.779 -2.10516 3.84206 0
M  V30 3597 C 339.28 -3.50869 2.70935 0
M  V30 3598 H 336.5 -0.423093 0.520801 0
M  V30 3599 H 339.044 -0.728527 1.91083 0
M  V30 3600 H 337.199 -3.19615 2.18917 0
M  V30 3601 H 337.613 -2.88425 4.38077 0
M  V30 3602 H 339.087 -4.31451 3.44317 0
M  V30 3603 H 339.564 -4.01822 1.77301 0
M  V30 3604 H 340.17 -2.95225 3.06141 0
M  V30 3605 N 338.485 -1.33259 -0.841409 0
M  V30 3606 C 339.415 -1.25926 -1.96634 0
M  V30 3607 C 340.396 -0.140349 -1.6952 0
M  V30 3608 O 341.581 -0.329707 -1.91381 0
M  V30 3609 C 338.711 -0.99512 -3.32738 0
M  V30 3610 C 337.665 -2.0767 -3.74242 0
M  V30 3611 C 336.991 -1.66474 -5.08125 0
M  V30 3612 C 338.291 -3.49318 -3.88297 0
M  V30 3613 H 339.985 -2.20046 -2.03027 0
M  V30 3614 H 337.531 -1.05931 -0.975425 0
M  V30 3615 H 339.484 -0.930323 -4.11002 0
M  V30 3616 H 338.208 -0.0183004 -3.26595 0
M  V30 3617 H 336.867 -2.13187 -2.98239 0
M  V30 3618 H 336.515 -0.675012 -4.9845 0
M  V30 3619 H 336.215 -2.3885 -5.36865 0
M  V30 3620 H 337.739 -1.61455 -5.88867 0
M  V30 3621 H 339.153 -3.46316 -4.56879 0
M  V30 3622 H 337.55 -4.20158 -4.28471 0
M  V30 3623 H 338.62 -3.8801 -2.9082 0
M  V30 3624 N 339.963 1.05934 -1.16686 0
M  V30 3625 C 341.188 1.83029 -0.975455 0
M  V30 3626 C 341.613 1.82096 0.471452 0
M  V30 3627 O 340.971 1.22443 1.33706 0
M  V30 3628 C 341.019 3.27372 -1.51195 0
M  V30 3629 O 340.123 4.06054 -0.720701 0
M  V30 3630 H 339.464 0.566194 -0.346872 0
M  V30 3631 H 341.994 1.33541 -1.55009 0
M  V30 3632 H 342.004 3.78186 -1.53099 0
M  V30 3633 H 340.679 3.27366 -2.56523 0
M  V30 3634 H 339.256 3.64812 -0.772458 0
M  V30 3635 N 341.441 0.965919 1.2453 0
M  V30 3636 C 342.669 0.644385 1.96609 0
M  V30 3637 C 343.084 -0.785823 1.71669 0
M  V30 3638 O 342.441 -1.52703 0.999399 0
M  V30 3639 C 342.492 0.907375 3.49927 0
M  V30 3640 O 342.213 2.28136 3.74013 0
M  V30 3641 C 343.714 0.599784 4.39224 0
M  V30 3642 H 340.934 0.240588 0.626385 0
M  V30 3643 H 343.478 1.29337 1.58405 0
M  V30 3644 H 341.633 0.304631 3.862 0
M  V30 3645 H 342.047 2.36002 4.68405 0
M  V30 3646 H 343.521 0.834263 5.45659 0
M  V30 3647 H 343.998 -0.465921 4.36722 0
M  V30 3648 H 344.604 1.18235 4.08535 0
M  V30 3649 N 342.919 -1.39368 0.735821 0
M  V30 3650 C 344.167 -2.00101 0.283562 0
M  V30 3651 C 344.488 -1.5868 -1.13338 0
M  V30 3652 O 343.758 -0.835423 -1.77193 0
M  V30 3653 H 342.338 -0.740024 0.101851 0
M  V30 3654 H 345 -1.70404 0.945962 0
M  V30 3655 H 344.096 -3.10323 0.332604 0
M  V30 3656 N 344.397 -0.483516 -1.5 0
M  V30 3657 C 345.327 0.293829 -2.31644 0
M  V30 3658 C 346.308 0.978864 -1.39112 0
M  V30 3659 O 347.493 0.973644 -1.68029 0
M  V30 3660 C 344.623 1.36897 -3.19181 0
M  V30 3661 C 343.577 0.804833 -4.20365 0
M  V30 3662 C 342.903 1.9792 -4.96721 0
M  V30 3663 C 344.203 -0.192313 -5.21946 0
M  V30 3664 H 345.897 -0.387616 -2.9688 0
M  V30 3665 H 343.443 -0.187856 -1.42769 0
M  V30 3666 H 345.396 1.92037 -3.751 0
M  V30 3667 H 344.12 2.07936 -2.51853 0
M  V30 3668 H 342.779 0.275319 -3.65565 0
M  V30 3669 H 342.427 2.67686 -4.25856 0
M  V30 3670 H 342.127 1.60789 -5.65173 0
M  V30 3671 H 343.651 2.53526 -5.55479 0
M  V30 3672 H 345.065 0.270333 -5.72662 0
M  V30 3673 H 343.462 -0.478543 -5.98189 0
M  V30 3674 H 344.532 -1.11409 -4.71928 0
M  V30 3675 N 345.875 1.56104 -0.216619 0
M  V30 3676 C 346.807 2.17339 0.72776 0
M  V30 3677 C 347.82 1.14109 1.16116 0
M  V30 3678 O 349.009 1.4111 1.09317 0
M  V30 3679 C 346.109 2.73818 1.99693 0
M  V30 3680 C 345.282 4.02168 1.71988 0
M  V30 3681 C 344.341 4.43259 2.83562 0
M  V30 3682 O 343.367 5.10257 2.52244 0
M  V30 3683 N 344.569 4.08535 4.12407 0
M  V30 3684 H 347.334 2.99005 0.203983 0
M  V30 3685 H 344.895 1.61861 -0.0354289 0
M  V30 3686 H 346.887 2.9828 2.73516 0
M  V30 3687 H 345.457 1.96483 2.43132 0
M  V30 3688 H 344.677 3.85612 0.818337 0
M  V30 3689 H 345.965 4.85907 1.50903 0
M  V30 3690 H 345.363 3.54687 4.40696 0
M  V30 3691 H 343.92 4.37901 4.8279 0
M  V30 3692 N 347.353 -0.0568162 1.57498 0
M  V30 3693 C 348.581 -0.765626 1.92213 0
M  V30 3694 C 348.996 -1.70353 0.813961 0
M  V30 3695 O 348.353 -1.81268 -0.211701 0
M  V30 3696 C 348.404 -1.5465 3.2675 0
M  V30 3697 O 348.125 -0.646278 4.33307 0
M  V30 3698 C 349.626 -2.35497 3.75574 0
M  V30 3699 H 346.846 -0.216835 0.634999 0
M  V30 3700 H 349.39 -0.0226146 2.04487 0
M  V30 3701 H 347.545 -2.24165 3.15957 0
M  V30 3702 H 347.959 -1.19093 5.108 0
M  V30 3703 H 349.433 -2.85722 4.72299 0
M  V30 3704 H 349.91 -3.15692 3.05344 0
M  V30 3705 H 350.516 -1.7111 3.8936 0
M  V30 3706 N 348.832 -1.54138 -0.328536 0
M  V30 3707 C 349.762 -1.86167 -1.40939 0
M  V30 3708 C 350.743 -0.718044 -1.54202 0
M  V30 3709 O 351.928 -0.971328 -1.68163 0
M  V30 3710 C 349.058 -2.08461 -2.77779 0
M  V30 3711 C 348.012 -3.24299 -2.7931 0
M  V30 3712 C 347.338 -3.31955 -4.19178 0
M  V30 3713 C 348.638 -4.62065 -2.43502 0
M  V30 3714 H 350.332 -2.76689 -1.14383 0
M  V30 3715 H 347.878 -1.33132 -0.548806 0
M  V30 3716 H 349.831 -2.29453 -3.53454 0
M  V30 3717 H 348.555 -1.14684 -3.05802 0
M  V30 3718 H 347.214 -3.03187 -2.0609 0
M  V30 3719 H 346.862 -2.35745 -4.44335 0
M  V30 3720 H 346.562 -4.09805 -4.2111 0
M  V30 3721 H 348.086 -3.55175 -4.96672 0
M  V30 3722 H 349.5 -4.8297 -3.08889 0
M  V30 3723 H 347.897 -5.42429 -2.56693 0
M  V30 3724 H 348.967 -4.64652 -1.38659 0
M  V30 3725 N 350.31 0.590341 -1.46126 0
M  V30 3726 C 351.556 1.35082 -1.51264 0
M  V30 3727 C 351.889 1.93534 -0.160711 0
M  V30 3728 O 351.164 1.76045 0.826956 0
M  V30 3729 C 351.447 2.48588 -2.6053 0
M  V30 3730 C 351.3 1.95221 -4.05227 0
M  V30 3731 C 352.619 3.50662 -2.6594 0
M  V30 3732 H 349.738 0.489803 -0.550692 0
M  V30 3733 H 352.38 0.663887 -1.78024 0
M  V30 3734 H 350.53 3.07186 -2.37843 0
M  V30 3735 H 352.202 1.41139 -4.39178 0
M  V30 3736 H 350.445 1.26101 -4.15068 0
M  V30 3737 H 351.116 2.77121 -4.77397 0
M  V30 3738 H 353.592 3.01934 -2.86313 0
M  V30 3739 H 352.468 4.27551 -3.44226 0
M  V30 3740 H 352.729 4.07399 -1.71694 0
M  V30 3741 N 351.788 1.33704 0.83433 0
M  V30 3742 C 352.698 1.26382 1.97648 0
M  V30 3743 C 353.714 0.173548 1.73132 0
M  V30 3744 O 354.89 0.397962 1.97429 0
M  V30 3745 C 351.955 1.00769 3.31733 0
M  V30 3746 C 351.016 2.1884 3.69334 0
M  V30 3747 C 350.249 1.9444 4.9702 0
M  V30 3748 O 350.472 0.896961 5.63303 0
M  V30 3749 O 349.406 2.81093 5.32231 0
M  V30 3750 H 353.232 2.22444 2.06767 0
M  V30 3751 H 350.817 1.13795 0.968037 0
M  V30 3752 H 352.699 0.882186 4.12062 0
M  V30 3753 H 351.374 0.0773783 3.23608 0
M  V30 3754 H 350.281 2.36946 2.89495 0
M  V30 3755 H 351.614 3.10221 3.82131 0
M  V30 3756 N 353.266 -1.05314 1.17247 0
M  V30 3757 C 354.176 -2.16538 0.90268 0
M  V30 3758 C 355.192 -1.73523 -0.128707 0
M  V30 3759 O 356.368 -2.01337 0.0502701 0
M  V30 3760 C 353.433 -3.44167 0.418356 0
M  V30 3761 C 352.494 -4.01635 1.51618 0
M  V30 3762 C 351.727 -5.23171 1.05487 0
M  V30 3763 O 351.95 -5.70327 -0.0914715 0
M  V30 3764 O 350.884 -5.72848 1.8474 0
M  V30 3765 H 354.71 -2.42145 1.83302 0
M  V30 3766 H 352.295 -1.15037 0.953246 0
M  V30 3767 H 354.177 -4.21112 0.155726 0
M  V30 3768 H 352.852 -3.20063 -0.48385 0
M  V30 3769 H 351.759 -3.26135 1.83268 0
M  V30 3770 H 353.092 -4.30053 2.39405 0
M  V30 3771 N 354.744 -0.972509 -1.24016 0
M  V30 3772 C 355.993 -0.632603 -1.91523 0
M  V30 3773 C 356.306 0.836641 -1.76804 0
M  V30 3774 O 357.512 1.28728 -2.39043 0
M  V30 3775 C 355.968 -1.08082 -3.43287 0
M  V30 3776 C 355.576 -2.57386 -3.66683 0
M  V30 3777 C 357.32 -0.814288 -4.16617 0
M  V30 3778 C 355.227 -2.95915 -5.12043 0
M  V30 3779 H 354.157 -0.232898 -0.717129 0
M  V30 3780 H 356.808 -1.17936 -1.40582 0
M  V30 3781 H 355.19 -0.462339 -3.93292 0
M  V30 3782 H 356.364 -3.24405 -3.27258 0
M  V30 3783 H 354.679 -2.81701 -3.06649 0
M  V30 3784 H 357.276 -1.0781 -5.23718 0
M  V30 3785 H 357.619 0.24955 -4.15551 0
M  V30 3786 H 358.152 -1.39397 -3.72577 0
M  V30 3787 H 354.891 -4.0139 -5.18234 0
M  V30 3788 H 354.411 -2.33584 -5.52448 0
M  V30 3789 H 356.09 -2.86086 -5.80314 0
M  V30 3790 N 356.222 1.38976 -0.743202 0
M  V30 3791 C 357.132 2.3434 -0.110399 0
M  V30 3792 C 358.148 1.58741 0.712559 0
M  V30 3793 O 359.324 1.9099 0.639125 0
M  V30 3794 C 356.389 3.37812 0.780012 0
M  V30 3795 C 355.45 4.29263 -0.0561319 0
M  V30 3796 C 354.683 5.27793 0.791875 0
M  V30 3797 O 354.906 5.33043 2.03031 0
M  V30 3798 O 353.84 6.01512 0.216183 0
M  V30 3799 H 357.666 2.90129 -0.897714 0
M  V30 3800 H 355.251 1.40643 -0.503966 0
M  V30 3801 H 357.133 4.01194 1.28923 0
M  V30 3802 H 355.808 2.84395 1.546 0
M  V30 3803 H 354.715 3.69076 -0.611056 0
M  V30 3804 H 356.048 4.85907 -0.784531 0
M  V30 3805 N 357.7 0.491464 1.49741 0
M  V30 3806 C 358.647 -0.292027 2.28945 0
M  V30 3807 C 359.617 -0.968973 1.34908 0
M  V30 3808 O 360.802 -0.97748 1.6386 0
M  V30 3809 C 357.942 -1.35617 3.17336 0
M  V30 3810 C 357.055 -0.691957 4.26422 0
M  V30 3811 C 356.19 -1.73572 5.02042 0
M  V30 3812 C 355.229 -1.05286 6.02977 0
M  V30 3813 N 354.366 -2.0404 6.71798 0
M  V30 3814 H 359.206 0.389654 2.95442 0
M  V30 3815 H 356.743 0.204003 1.45679 0
M  V30 3816 H 358.701 -1.98502 3.66951 0
M  V30 3817 H 357.331 -2.00674 2.52844 0
M  V30 3818 H 356.383 0.0499523 3.80367 0
M  V30 3819 H 357.695 -0.153946 4.98562 0
M  V30 3820 H 356.849 -2.43987 5.55478 0
M  V30 3821 H 355.588 -2.30757 4.29654 0
M  V30 3822 H 354.593 -0.334446 5.48782 0
M  V30 3823 H 355.818 -0.487636 6.77347 0
M  V30 3824 H 353.764 -2.60205 6.02187 0
M  V30 3825 H 353.681 -1.55279 7.39881 0
M  V30 3826 H 354.949 -2.73772 7.29842 0
M  V30 3827 N 359.178 -1.55987 0.224894 0
M  V30 3828 C 360.11 -2.17722 -0.716224 0
M  V30 3829 C 361.123 -1.14723 -1.15509 0
M  V30 3830 O 362.312 -1.41688 -1.08567 0
M  V30 3831 C 359.412 -2.74873 -1.98238 0
M  V30 3832 C 358.585 -4.03074 -1.69853 0
M  V30 3833 C 357.644 -4.44757 -2.81208 0
M  V30 3834 O 356.67 -5.11587 -2.49534 0
M  V30 3835 N 357.872 -4.10716 -4.10235 0
M  V30 3836 H 360.637 -2.99109 -0.188123 0
M  V30 3837 H 358.198 -1.6184 0.0440123 0
M  V30 3838 H 360.19 -2.99727 -2.7193 0
M  V30 3839 H 358.76 -1.9777 -2.42086 0
M  V30 3840 H 357.98 -3.86041 -0.797875 0
M  V30 3841 H 359.268 -4.86701 -1.48324 0
M  V30 3842 H 358.666 -3.57019 -4.38809 0
M  V30 3843 H 357.223 -4.40455 -4.80461 0
M  V30 3844 N 360.656 0.0484629 -1.57525 0
M  V30 3845 C 361.586 1.0549 -2.08313 0
M  V30 3846 C 362.567 1.38929 -0.981463 0
M  V30 3847 O 363.752 1.48151 -1.25558 0
M  V30 3848 C 360.882 2.36162 -2.54646 0
M  V30 3849 C 359.836 2.17016 -3.68901 0
M  V30 3850 C 359.162 3.53278 -4.01371 0
M  V30 3851 C 360.462 1.57219 -4.98076 0
M  V30 3852 H 362.156 0.632195 -2.92649 0
M  V30 3853 H 359.702 0.302654 -1.40784 0
M  V30 3854 H 361.655 3.06882 -2.88793 0
M  V30 3855 H 360.379 2.80456 -1.67368 0
M  V30 3856 H 359.038 1.48733 -3.35073 0
M  V30 3857 H 358.686 3.95185 -3.11188 0
M  V30 3858 H 358.386 3.41299 -4.78318 0
M  V30 3859 H 359.91 4.25391 -4.38035 0
M  V30 3860 H 361.324 2.17832 -5.30304 0
M  V30 3861 H 359.721 1.55871 -5.79503 0
M  V30 3862 H 360.791 0.535956 -4.81929 0
M  V30 3863 N 362.134 1.5431 0.320358 0
M  V30 3864 C 363.081 1.83918 1.39438 0
M  V30 3865 C 364.051 0.686525 1.51248 0
M  V30 3866 O 365.236 0.933269 1.66417 0
M  V30 3867 C 362.376 2.075 2.75749 0
M  V30 3868 C 361.489 3.35177 2.72544 0
M  V30 3869 C 360.624 3.48704 4.00723 0
M  V30 3870 C 359.663 4.70244 3.91838 0
M  V30 3871 N 358.8 4.80679 5.11754 0
M  V30 3872 H 363.64 2.75544 1.13489 0
M  V30 3873 H 361.177 1.36459 0.549309 0
M  V30 3874 H 363.135 2.19166 3.54996 0
M  V30 3875 H 361.765 1.19163 3 0
M  V30 3876 H 360.817 3.32233 1.85271 0
M  V30 3877 H 362.129 4.24534 2.61863 0
M  V30 3878 H 361.283 3.59928 4.88402 0
M  V30 3879 H 360.022 2.57445 4.14214 0
M  V30 3880 H 359.027 4.59072 3.02544 0
M  V30 3881 H 360.252 5.6289 3.7991 0
M  V30 3882 H 358.198 3.92337 5.25745 0
M  V30 3883 H 358.115 5.64007 5.0342 0
M  V30 3884 H 359.383 4.96239 6.01138 0
M  V30 3885 N 363.613 -0.582584 1.46437 0
M  V30 3886 C 364.543 -1.70187 1.59871 0
M  V30 3887 C 365.524 -1.64066 0.449042 0
M  V30 3888 O 366.709 -1.82081 0.6753 0
M  V30 3889 C 363.839 -3.08827 1.58881 0
M  V30 3890 C 362.793 -3.29779 2.72819 0
M  V30 3891 C 362.119 -4.68947 2.5689 0
M  V30 3892 C 363.419 -3.17601 4.1464 0
M  V30 3893 H 365.113 -1.592 2.53566 0
M  V30 3894 H 362.659 -0.764472 1.22032 0
M  V30 3895 H 364.612 -3.86951 1.66873 0
M  V30 3896 H 363.336 -3.20713 0.617306 0
M  V30 3897 H 361.995 -2.54054 2.64296 0
M  V30 3898 H 361.643 -4.77599 1.57823 0
M  V30 3899 H 361.343 -4.83919 3.33312 0
M  V30 3900 H 362.867 -5.4924 2.66773 0
M  V30 3901 H 364.281 -3.8557 4.24274 0
M  V30 3902 H 362.678 -3.44094 4.9165 0
M  V30 3903 H 363.748 -2.14681 4.34788 0
M  V30 3904 N 365.091 -1.34144 -0.827227 0
M  V30 3905 C 366.319 -1.29325 -1.61501 0
M  V30 3906 C 366.734 0.13354 -1.88327 0
M  V30 3907 O 366.091 1.0793 -1.47164 0
M  V30 3908 C 366.142 -2.07746 -2.95844 0
M  V30 3909 O 365.863 -3.4486 -2.70191 0
M  V30 3910 C 367.364 -2.10273 -3.90256 0
M  V30 3911 H 364.584 -0.445069 -0.50215 0
M  V30 3912 H 367.128 -1.76693 -1.02955 0
M  V30 3913 H 365.283 -1.6403 -3.5096 0
M  V30 3914 H 365.697 -3.85345 -3.55822 0
M  V30 3915 H 367.171 -2.69575 -4.81698 0
M  V30 3916 H 367.648 -1.096 -4.25305 0
M  V30 3917 H 368.254 -2.54059 -3.41078 0
M  V30 3918 N 366.569 1.04691 -1.17803 0
M  V30 3919 C 367.516 2.12557 -0.899343 0
M  V30 3920 C 368.486 1.65339 0.158771 0
M  V30 3921 O 369.671 1.90789 0.0204797 0
M  V30 3922 C 366.811 3.42481 -0.424315 0
M  V30 3923 C 365.924 4.03346 -1.54713 0
M  V30 3924 C 365.059 5.21208 -1.02546 0
M  V30 3925 C 364.098 5.74089 -2.12339 0
M  V30 3926 N 363.235 6.83247 -1.61612 0
M  V30 3927 H 368.075 2.35734 -1.823 0
M  V30 3928 H 365.612 1.1564 -0.909159 0
M  V30 3929 H 367.57 4.16996 -0.130421 0
M  V30 3930 H 366.2 3.19471 0.462377 0
M  V30 3931 H 365.252 3.2622 -1.95664 0
M  V30 3932 H 366.564 4.38628 -2.37501 0
M  V30 3933 H 365.718 6.02812 -0.685718 0
M  V30 3934 H 364.457 4.87414 -0.167084 0
M  V30 3935 H 363.462 4.91111 -2.47165 0
M  V30 3936 H 364.687 6.0993 -2.98601 0
M  V30 3937 H 362.633 6.5134 -0.780533 0
M  V30 3938 H 362.55 7.17559 -2.38003 0
M  V30 3939 H 363.818 7.68491 -1.30545 0
M  V30 3940 N 368.047 0.979072 1.23499 0
M  V30 3941 C 369.293 0.648178 1.92163 0
M  V30 3942 C 369.626 -0.816049 1.76222 0
M  V30 3943 O 368.901 -1.58849 1.12237 0
M  V30 3944 C 369.184 1.03773 3.44824 0
M  V30 3945 C 369.037 2.55948 3.69879 0
M  V30 3946 C 370.356 0.580653 4.36253 0
M  V30 3947 H 367.475 0.236952 0.69787 0
M  V30 3948 H 370.117 1.22012 1.45647 0
M  V30 3949 H 368.267 0.551058 3.84572 0
M  V30 3950 H 369.939 3.12179 3.3962 0
M  V30 3951 H 368.182 2.98641 3.14636 0
M  V30 3952 H 368.853 2.78255 4.76737 0
M  V30 3953 H 371.329 0.998465 4.03943 0
M  V30 3954 H 370.205 0.881663 5.41773 0
M  V30 3955 H 370.466 -0.519052 4.39042 0
M  V30 3956 N 369.525 -1.3858 0.750561 0
M  V30 3957 C 370.755 -2.04175 0.31564 0
M  V30 3958 C 371.163 -1.56726 -1.05989 0
M  V30 3959 O 370.506 -0.734225 -1.68389 0
M  V30 3960 C 370.568 -3.58585 0.256389 0
M  V30 3961 C 370.232 -4.29077 1.57296 0
M  V30 3962 C 371.229 -4.54656 2.52159 0
M  V30 3963 C 368.914 -4.67324 1.84156 0
M  V30 3964 C 370.908 -5.17512 3.72103 0
M  V30 3965 C 368.595 -5.29905 3.04374 0
M  V30 3966 C 369.593 -5.54933 3.98168 0
M  V30 3967 O 369.281 -6.16212 5.16273 0
M  V30 3968 H 369.013 -0.662742 0.133226 0
M  V30 3969 H 371.567 -1.78313 1.01948 0
M  V30 3970 H 369.797 -3.83406 -0.503677 0
M  V30 3971 H 371.486 -4.05628 -0.148612 0
M  V30 3972 H 372.252 -4.25539 2.32683 0
M  V30 3973 H 368.131 -4.47191 1.11988 0
M  V30 3974 H 371.675 -5.36963 4.45327 0
M  V30 3975 H 367.572 -5.58444 3.23745 0
M  V30 3976 H 368.34 -6.34701 5.16815 0
M  V30 3977 N 371.003 -0.499398 -1.49478 0
M  V30 3978 C 371.95 0.279881 -2.29097 0
M  V30 3979 C 372.92 0.961805 -1.3542 0
M  V30 3980 O 374.105 0.968777 -1.64376 0
M  V30 3981 C 371.245 1.33932 -3.18051 0
M  V30 3982 C 370.358 0.669333 -4.26783 0
M  V30 3983 C 369.493 1.70907 -5.02955 0
M  V30 3984 C 368.532 1.02087 -6.03527 0
M  V30 3985 N 367.669 2.00474 -6.7287 0
M  V30 3986 H 372.509 -0.405317 -2.95231 0
M  V30 3987 H 370.046 -0.211726 -1.45568 0
M  V30 3988 H 372.004 1.96553 -3.67998 0
M  V30 3989 H 370.634 1.9933 -2.53904 0
M  V30 3990 H 369.686 -0.0701234 -3.80335 0
M  V30 3991 H 370.998 0.127503 -4.98637 0
M  V30 3992 H 370.152 2.41037 -5.56764 0
M  V30 3993 H 368.891 2.28476 -4.30871 0
M  V30 3994 H 367.896 0.305338 -5.48951 0
M  V30 3995 H 369.121 0.451708 -6.77596 0
M  V30 3996 H 367.067 2.57007 -6.03559 0
M  V30 3997 H 366.984 1.51353 -7.40694 0
M  V30 3998 H 368.252 2.69897 -7.31284 0
M  V30 3999 N 372.481 1.55866 -0.233164 0
M  V30 4000 C 373.729 1.9821 0.394593 0
M  V30 4001 C 374.05 1.12234 1.59463 0
M  V30 4002 O 373.32 0.201981 1.94856 0
M  V30 4003 H 371.9 0.732034 0.148778 0
M  V30 4004 H 374.562 1.92107 -0.32876 0
M  V30 4005 H 373.658 3.03845 0.713063 0
M  V30 4006 N 373.959 -0.0401083 1.57549 0
M  V30 4007 C 375.187 -0.745196 1.93014 0
M  V30 4008 C 375.602 -1.6948 0.831984 0
M  V30 4009 O 374.959 -1.81482 -0.192463 0
M  V30 4010 C 375.01 -1.51176 3.28372 0
M  V30 4011 O 374.731 -0.600284 4.33968 0
M  V30 4012 C 376.232 -2.315 3.78051 0
M  V30 4013 H 373.452 -0.210088 0.637263 0
M  V30 4014 H 375.996 -0.000924689 2.045 0
M  V30 4015 H 374.151 -2.20801 3.18317 0
M  V30 4016 H 374.565 -1.13669 5.12035 0
M  V30 4017 H 376.039 -2.80697 4.75303 0
M  V30 4018 H 376.516 -3.12436 3.08675 0
M  V30 4019 H 377.122 -1.66971 3.91153 0
M  V30 4020 N 375.437 -1.54477 -0.31217 0
M  V30 4021 C 376.384 -1.84655 -1.38461 0
M  V30 4022 C 377.354 -0.694536 -1.50882 0
M  V30 4023 O 378.539 -0.942081 -1.6592 0
M  V30 4024 C 375.679 -2.0896 -2.74645 0
M  V30 4025 C 374.792 -3.36618 -2.70763 0
M  V30 4026 C 373.927 -3.50824 -3.98868 0
M  V30 4027 C 372.966 -4.72315 -3.89339 0
M  V30 4028 N 372.103 -4.83387 -5.09197 0
M  V30 4029 H 376.943 -2.76142 -1.12026 0
M  V30 4030 H 374.48 -1.36748 -0.542065 0
M  V30 4031 H 376.438 -2.21045 -3.53829 0
M  V30 4032 H 375.068 -1.20752 -2.99364 0
M  V30 4033 H 374.12 -3.33211 -1.83506 0
M  V30 4034 H 375.432 -4.25917 -2.59608 0
M  V30 4035 H 374.586 -3.62513 -4.86486 0
M  V30 4036 H 373.325 -2.59638 -4.12843 0
M  V30 4037 H 372.33 -4.6067 -3.00105 0
M  V30 4038 H 373.555 -5.64897 -3.76919 0
M  V30 4039 H 371.501 -3.9512 -5.23657 0
M  V30 4040 H 371.418 -5.66669 -5.00422 0
M  V30 4041 H 372.686 -4.9942 -5.98498 0
M  V30 4042 N 376.915 0.57481 -1.46744 0
M  V30 4043 C 378.161 1.3347 -1.52688 0
M  V30 4044 C 378.494 1.93353 -0.181229 0
M  V30 4045 O 377.769 1.76912 0.808237 0
M  V30 4046 C 378.052 2.45811 -2.63152 0
M  V30 4047 C 377.905 1.90912 -4.07275 0
M  V30 4048 C 379.224 3.47822 -2.69644 0
M  V30 4049 H 376.343 0.483935 -0.555856 0
M  V30 4050 H 378.985 0.644968 -1.78718 0
M  V30 4051 H 377.135 3.04646 -2.41088 0
M  V30 4052 H 378.807 1.36473 -4.4065 0
M  V30 4053 H 377.05 1.21691 -4.16382 0
M  V30 4054 H 377.721 2.72042 -4.80309 0
M  V30 4055 H 380.197 2.9888 -2.895 0
M  V30 4056 H 379.073 4.23876 -3.48742 0
M  V30 4057 H 379.334 4.05555 -1.76005 0
M  V30 4058 N 378.394 1.34581 0.820102 0
M  V30 4059 C 379.622 1.3018 1.60813 0
M  V30 4060 C 380.037 -0.123551 1.88395 0
M  V30 4061 O 379.394 -1.07148 1.47735 0
M  V30 4062 C 379.445 2.09312 2.94739 0
M  V30 4063 O 379.166 3.46288 2.68358 0
M  V30 4064 C 380.667 2.1234 3.89136 0
M  V30 4065 H 377.887 0.447726 0.499782 0
M  V30 4066 H 380.431 1.77237 1.02017 0
M  V30 4067 H 378.586 1.65889 3.50085 0
M  V30 4068 H 379 3.87227 3.53774 0
M  V30 4069 H 380.474 2.72126 4.80262 0
M  V30 4070 H 380.951 1.11854 4.24718 0
M  V30 4071 H 381.557 2.55864 3.39726 0
M  V30 4072 N 379.872 -1.04064 1.18357 0
M  V30 4073 C 380.819 -2.12077 0.910603 0
M  V30 4074 C 381.789 -1.65421 -0.15 0
M  V30 4075 O 382.974 -1.90797 -0.0103614 0
M  V30 4076 C 380.114 -3.42252 0.442472 0
M  V30 4077 C 379.227 -4.0252 1.5685 0
M  V30 4078 C 378.362 -5.20657 1.05309 0
M  V30 4079 C 377.401 -5.72955 2.1538 0
M  V30 4080 N 376.538 -6.8238 1.65233 0
M  V30 4081 H 381.378 -2.34764 1.83548 0
M  V30 4082 H 378.915 -1.15157 0.915279 0
M  V30 4083 H 380.873 -4.16921 0.152534 0
M  V30 4084 H 379.503 -3.19712 -0.445428 0
M  V30 4085 H 378.555 -3.25178 1.97391 0
M  V30 4086 H 379.867 -4.37362 2.39824 0
M  V30 4087 H 379.021 -6.0244 0.717677 0
M  V30 4088 H 377.76 -4.87318 0.19293 0
M  V30 4089 H 376.765 -4.89793 2.49766 0
M  V30 4090 H 377.99 -6.08337 3.01832 0
M  V30 4091 H 375.936 -6.50917 0.815064 0
M  V30 4092 H 375.853 -7.16286 2.41805 0
M  V30 4093 H 377.121 -7.67788 1.34619 0
M  V30 4094 N 381.35 -0.985608 -1.22978 0
M  V30 4095 C 382.28 -0.549649 -2.26939 0
M  V30 4096 C 383.261 0.419803 -1.64838 0
M  V30 4097 O 384.446 0.31203 -1.91677 0
M  V30 4098 C 381.576 0.143652 -3.47003 0
M  V30 4099 C 380.53 -0.743606 -4.21491 0
M  V30 4100 C 379.856 0.0822027 -5.34637 0
M  V30 4101 C 381.156 -2.03694 -4.80943 0
M  V30 4102 H 382.85 -1.41862 -2.63658 0
M  V30 4103 H 380.396 -0.683571 -1.26741 0
M  V30 4104 H 382.349 0.459985 -4.18882 0
M  V30 4105 H 381.073 1.04711 -3.09359 0
M  V30 4106 H 379.732 -1.04347 -3.51436 0
M  V30 4107 H 379.38 0.986359 -4.93234 0
M  V30 4108 H 379.08 -0.508377 -5.85397 0
M  V30 4109 H 380.604 0.392797 -6.09335 0
M  V30 4110 H 382.018 -1.78504 -5.44802 0
M  V30 4111 H 380.415 -2.57573 -5.42011 0
M  V30 4112 H 381.485 -2.72042 -4.01399 0
M  V30 4113 N 382.828 1.3818 -0.7579 0
M  V30 4114 C 384.053 2.04827 -0.325679 0
M  V30 4115 C 384.478 1.56788 1.03919 0
M  V30 4116 O 383.836 0.721811 1.66312 0
M  V30 4117 C 383.884 3.58774 -0.362447 0
M  V30 4118 O 382.988 4.07372 0.642033 0
M  V30 4119 H 382.329 0.64833 -0.143402 0
M  V30 4120 H 384.859 1.7677 -1.03023 0
M  V30 4121 H 384.869 4.07434 -0.214844 0
M  V30 4122 H 383.544 3.93096 -1.35824 0
M  V30 4123 H 382.121 3.70068 0.458688 0
M  V30 4124 N 384.306 0.507319 1.49211 0
M  V30 4125 C 385.256 -0.287112 2.26185 0
M  V30 4126 C 386.24 -0.929983 1.31302 0
M  V30 4127 O 387.432 -0.836538 1.55984 0
M  V30 4128 C 384.561 -1.34718 3.15763 0
M  V30 4129 C 383.647 -0.710235 4.18111 0
M  V30 4130 N 384.038 0.190836 5.0544 0
M  V30 4131 C 382.336 -0.97009 4.35322 0
M  V30 4132 C 383.037 0.55606 5.79036 0
M  V30 4133 N 382.013 -0.0775232 5.43545 0
M  V30 4134 H 385.815 0.406445 2.91076 0
M  V30 4135 H 383.329 0.323814 1.59139 0
M  V30 4136 H 385.326 -1.92982 3.69545 0
M  V30 4137 H 383.986 -2.04235 2.52424 0
M  V30 4138 H 384.997 0.562047 5.14841 0
M  V30 4139 H 381.674 -1.65753 3.83187 0
M  V30 4140 H 383.064 1.2936 6.5933 0
M  V30 4141 N 385.784 -1.5574 0.241426 0
M  V30 4142 C 387.009 -2.0366 -0.392111 0
M  V30 4143 C 387.434 -1.11969 -1.51144 0
M  V30 4144 O 386.792 -0.111594 -1.80956 0
M  V30 4145 C 386.84 -3.49638 -0.882371 0
M  V30 4146 O 385.944 -3.6108 -1.99235 0
M  V30 4147 H 385.285 -0.658379 -0.0862122 0
M  V30 4148 H 387.815 -2.01302 0.365881 0
M  V30 4149 H 387.825 -3.90351 -1.18702 0
M  V30 4150 H 386.5 -4.15852 -0.0632361 0
M  V30 4151 H 385.077 -3.32262 -1.69282 0
M  V30 4152 N 387.262 0.0317525 -1.57568 0
M  V30 4153 C 388.51 0.721676 -1.88776 0
M  V30 4154 C 388.831 1.76039 -0.838772 0
M  V30 4155 O 388.101 1.95482 0.127935 0
M  V30 4156 H 386.681 0.269534 -0.696678 0
M  V30 4157 H 389.343 -0.00165879 -1.949 0
M  V30 4158 H 388.439 1.21293 -2.87566 0
M  V30 4159 N 388.74 1.54641 0.303973 0
M  V30 4160 C 389.965 1.78092 1.06292 0
M  V30 4161 C 390.39 0.537342 1.80262 0
M  V30 4162 O 389.748 -0.511993 1.7392 0
M  V30 4163 C 389.796 2.98612 2.02147 0
M  V30 4164 O 388.9 2.71528 3.10397 0
M  V30 4165 H 388.241 0.589548 0.305497 0
M  V30 4166 H 390.771 2.01716 0.3423 0
M  V30 4167 H 390.781 3.265 2.44667 0
M  V30 4168 H 389.456 3.88785 1.47714 0
M  V30 4169 H 388.033 2.54648 2.72413 0
M  V30 4170 N 390.218 -0.567019 1.47046 0
M  V30 4171 C 391.458 -1.3355 1.54738 0
M  V30 4172 C 391.822 -1.90947 0.200772 0
M  V30 4173 O 393.023 -2.68367 0.152489 0
M  V30 4174 C 391.294 -2.42317 2.62712 0
M  V30 4175 S 392.853 -3.29383 2.89918 0
M  V30 4176 H 389.671 -0.454788 0.546525 0
M  V30 4177 H 392.273 -0.650191 1.84371 0
M  V30 4178 H 390.977 -1.98568 3.59164 0
M  V30 4179 H 390.508 -3.15601 2.34861 0
M  V30 4180 H 392.523 -4.41548 2.26384 0
M  V30 4181 N 391.696 -1.35014 -0.812953 0
M  V30 4182 C 392.926 -1.30841 -1.59888 0
M  V30 4183 C 393.334 0.117576 -1.88834 0
M  V30 4184 O 392.677 1.07807 -1.48739 0
M  V30 4185 C 392.739 -2.0412 -2.95931 0
M  V30 4186 C 392.403 -3.53336 -2.89832 0
M  V30 4187 C 393.4 -4.48052 -2.63714 0
M  V30 4188 C 391.085 -3.95894 -3.0915 0
M  V30 4189 C 393.079 -5.833 -2.56982 0
M  V30 4190 C 390.766 -5.31239 -3.0204 0
M  V30 4191 C 391.764 -6.24754 -2.75991 0
M  V30 4192 O 391.452 -7.57617 -2.68833 0
M  V30 4193 H 391.184 -0.451215 -0.50337 0
M  V30 4194 H 393.738 -1.78354 -1.01877 0
M  V30 4195 H 391.968 -1.51235 -3.559 0
M  V30 4196 H 393.657 -1.93107 -3.57022 0
M  V30 4197 H 394.423 -4.16492 -2.48515 0
M  V30 4198 H 390.302 -3.23495 -3.28438 0
M  V30 4199 H 393.846 -6.56263 -2.36569 0
M  V30 4200 H 389.743 -5.62415 -3.16796 0
M  V30 4201 H 390.511 -7.67469 -2.84487 0
M  V30 4202 N 393.175 1.03435 -1.18907 0
M  V30 4203 C 394.4 1.80919 -1.01406 0
M  V30 4204 C 394.825 1.83055 0.432721 0
M  V30 4205 O 394.183 1.25252 1.31079 0
M  V30 4206 C 394.231 3.24091 -1.58105 0
M  V30 4207 O 393.335 4.04434 -0.806669 0
M  V30 4208 H 392.676 0.558709 -0.358803 0
M  V30 4209 H 395.206 1.30223 -1.57807 0
M  V30 4210 H 395.216 3.74853 -1.61087 0
M  V30 4211 H 393.891 3.21851 -2.6341 0
M  V30 4212 H 392.468 3.63091 -0.849666 0
M  V30 4213 N 394.653 0.992116 1.22453 0
M  V30 4214 C 395.583 0.561677 2.26644 0
M  V30 4215 C 396.564 -0.411055 1.65059 0
M  V30 4216 O 397.749 -0.301861 1.9184 0
M  V30 4217 C 394.879 -0.125247 3.47074 0
M  V30 4218 C 393.833 0.765948 4.21091 0
M  V30 4219 C 393.159 -0.0538484 5.34673 0
M  V30 4220 C 394.459 2.06242 4.79856 0
M  V30 4221 H 396.153 1.43259 2.62902 0
M  V30 4222 H 393.699 0.690283 1.26377 0
M  V30 4223 H 395.652 -0.437764 4.1912 0
M  V30 4224 H 394.376 -1.03069 3.0991 0
M  V30 4225 H 393.035 1.0621 3.50878 0
M  V30 4226 H 392.683 -0.960188 4.9375 0
M  V30 4227 H 392.383 0.539415 5.85119 0
M  V30 4228 H 393.907 -0.360477 6.09535 0
M  V30 4229 H 395.321 1.8139 5.43848 0
M  V30 4230 H 393.718 2.60444 5.40638 0
M  V30 4231 H 394.788 2.74167 3.99951 0
M  V30 4232 N 396.131 -1.37776 0.765217 0
M  V30 4233 C 397.041 -2.34135 0.147666 0
M  V30 4234 C 398.057 -1.59854 -0.687215 0
M  V30 4235 O 399.233 -1.91983 -0.608659 0
M  V30 4236 C 396.298 -3.3901 -0.72617 0
M  V30 4237 C 395.359 -4.2912 0.124417 0
M  V30 4238 C 394.592 -5.28986 -0.707807 0
M  V30 4239 O 394.815 -5.36205 -1.94525 0
M  V30 4240 O 393.749 -6.01779 -0.12046 0
M  V30 4241 H 397.575 -2.88664 0.943758 0
M  V30 4242 H 395.16 -1.39824 0.526277 0
M  V30 4243 H 397.042 -4.03195 -1.22524 0
M  V30 4244 H 395.717 -2.86819 -1.50056 0
M  V30 4245 H 394.624 -3.68057 0.669696 0
M  V30 4246 H 395.957 -4.84598 0.861736 0
M  V30 4247 N 397.609 -0.515225 -1.4894 0
M  V30 4248 C 398.539 0.244628 -2.32215 0
M  V30 4249 C 399.52 0.949136 -1.41157 0
M  V30 4250 O 400.705 0.937783 -1.70057 0
M  V30 4251 C 397.835 1.30096 -3.22013 0
M  V30 4252 C 396.789 0.715486 -4.21977 0
M  V30 4253 C 396.115 1.87339 -5.00808 0
M  V30 4254 C 397.415 -0.302982 -5.2142 0
M  V30 4255 H 399.109 -0.450501 -2.95991 0
M  V30 4256 H 396.655 -0.218098 -1.42339 0
M  V30 4257 H 398.608 1.84037 -3.79089 0
M  V30 4258 H 397.332 2.02547 -2.56207 0
M  V30 4259 H 395.991 0.197715 -3.66066 0
M  V30 4260 H 395.639 2.58592 -4.31438 0
M  V30 4261 H 395.339 1.48764 -5.68457 0
M  V30 4262 H 396.863 2.41686 -5.60732 0
M  V30 4263 H 398.277 0.148802 -5.73107 0
M  V30 4264 H 396.674 -0.60532 -5.97039 0
M  V30 4265 H 397.744 -1.21395 -4.69459 0
M  V30 4266 N 399.087 1.5561 -0.249682 0
M  V30 4267 C 400.364 1.90932 0.424761 0
M  V30 4268 C 400.744 1.17078 1.75658 0
M  V30 4269 O 400.092 0.289176 2.26663 0
M  V30 4270 C 400.302 3.43975 0.590109 0
M  V30 4271 C 401.65 4.15281 0.884714 0
M  V30 4272 O 402.674 3.49729 0.67587 0
M  V30 4273 O 401.533 5.31236 1.28259 0
M  V30 4274 H 398.627 0.794815 0.228468 0
M  V30 4275 H 401.173 1.67135 -0.293954 0
M  V30 4276 H 399.945 3.89748 -0.34818 0
M  V30 4277 H 399.568 3.73644 1.35926 0
M  V30 4278 N 400.565 -0.0233959 1.57583 0
M  V30 4279 C 401.513 -1.04063 2.08023 0
M  V30 4280 C 402.507 -1.37084 0.995204 0
M  V30 4281 O 403.713 -1.35923 1.18004 0
M  V30 4282 H 400.088 -0.353144 0.663922 0
M  V30 4283 H 402.059 -0.589453 2.9252 0
M  V30 4284 C 400.808 -2.33123 2.57971 0
M  V30 4285 H 400.131 -2.08577 3.4108 0
M  V30 4286 H 401.571 -3.02632 2.96967 0
M  V30 4287 C 400.03 -3.02483 1.48342 0
M  V30 4288 O 400.56 -3.92541 0.852898 0
M  V30 4289 N 398.766 -2.63909 1.21658 0
M  V30 4290 H 398.313 -1.90758 1.73116 0
M  V30 4291 H 398.271 -3.10633 0.485218 0
M  V30 4292 N 402.043 -1.548 -0.295768 0
M  V30 4293 C 403.291 -1.73985 -1.02828 0
M  V30 4294 C 403.612 -0.531406 -1.87619 0
M  V30 4295 O 402.882 0.454221 -1.90561 0
M  V30 4296 H 401.462 -0.641556 -0.382642 0
M  V30 4297 H 404.124 -1.92163 -0.325489 0
M  V30 4298 H 403.22 -2.63129 -1.67838 0
M  V30 4299 N 403.521 0.559213 -1.47345 0
M  V30 4300 C 404.767 1.31843 -1.54095 0
M  V30 4301 C 405.1 1.93149 -0.201726 0
M  V30 4302 O 404.375 1.77759 0.789428 0
M  V30 4303 C 404.658 2.43006 -2.65744 0
M  V30 4304 C 404.511 1.86581 -4.09277 0
M  V30 4305 C 405.83 3.44943 -2.73318 0
M  V30 4306 H 402.949 0.478012 -0.560957 0
M  V30 4307 H 405.591 0.625977 -1.79392 0
M  V30 4308 H 403.741 3.02072 -2.44305 0
M  V30 4309 H 405.413 1.31792 -4.42073 0
M  V30 4310 H 403.656 1.17268 -4.17649 0
M  V30 4311 H 404.327 2.66933 -4.83168 0
M  V30 4312 H 406.803 2.95793 -2.92653 0
M  V30 4313 H 405.679 4.20153 -3.53218 0
M  V30 4314 H 405.94 4.03665 -1.80296 0
M  V30 4315 N 404.999 1.35443 0.805782 0
M  V30 4316 C 406.227 1.31878 1.59423 0
M  V30 4317 C 406.642 -0.103562 1.88516 0
M  V30 4318 O 405.999 -1.05575 1.48863 0
M  V30 4319 C 406.05 2.12426 2.92502 0
M  V30 4320 O 405.771 3.49115 2.6467 0
M  V30 4321 C 407.272 2.16455 3.86862 0
M  V30 4322 H 404.492 0.453002 0.495005 0
M  V30 4323 H 407.036 1.78309 1.00131 0
M  V30 4324 H 405.191 1.69593 3.48306 0
M  V30 4325 H 405.605 3.90957 3.49647 0
M  V30 4326 H 407.079 2.77204 4.77349 0
M  V30 4327 H 407.556 1.16352 4.23508 0
M  V30 4328 H 408.162 2.59453 3.36993 0
M  V30 4329 N 406.477 -1.02803 1.19454 0
M  V30 4330 C 407.407 -2.12999 0.956758 0
M  V30 4331 C 408.388 -1.69743 -0.110188 0
M  V30 4332 O 409.573 -1.94148 0.0450038 0
M  V30 4333 C 406.703 -3.43746 0.495553 0
M  V30 4334 C 405.657 -4.00688 1.50443 0
M  V30 4335 C 404.983 -5.27067 0.900275 0
M  V30 4336 C 406.283 -4.35397 2.8849 0
M  V30 4337 H 407.977 -2.33148 1.87836 0
M  V30 4338 H 405.523 -1.12045 0.904539 0
M  V30 4339 H 407.476 -4.2021 0.316493 0
M  V30 4340 H 406.2 -3.23321 -0.461646 0
M  V30 4341 H 404.859 -3.2632 1.67065 0
M  V30 4342 H 404.507 -5.02959 -0.064503 0
M  V30 4343 H 404.207 -5.66127 1.57397 0
M  V30 4344 H 405.731 -6.06196 0.73203 0
M  V30 4345 H 407.145 -5.02795 2.75446 0
M  V30 4346 H 405.542 -4.85541 3.52661 0
M  V30 4347 H 406.612 -3.44662 3.41081 0
M  V30 4348 N 407.956 -0.998596 -1.21925 0
M  V30 4349 C 409.233 -0.593401 -1.86382 0
M  V30 4350 C 409.613 0.92916 -1.89552 0
M  V30 4351 O 408.961 1.81347 -1.39017 0
M  V30 4352 C 409.171 -1.22039 -3.26967 0
M  V30 4353 C 410.519 -1.32449 -4.03413 0
M  V30 4354 O 411.543 -1.17522 -3.36254 0
M  V30 4355 O 410.402 -1.56395 -5.23644 0
M  V30 4356 H 407.496 -0.202385 -0.801854 0
M  V30 4357 H 410.042 -1.09484 -1.29659 0
M  V30 4358 H 408.814 -2.26158 -3.19325 0
M  V30 4359 H 408.437 -0.704906 -3.91301 0
M  V30 4360 N 409.434 1.37368 -0.772513 0
M  V30 4361 C 410.397 2.28601 -0.165541 0
M  V30 4362 C 411.397 1.48062 0.627238 0
M  V30 4363 O 412.587 1.68268 0.450715 0
M  V30 4364 C 409.719 3.32023 0.772897 0
M  V30 4365 H 410.912 2.83787 -0.969787 0
M  V30 4366 H 408.465 1.46647 -0.540775 0
M  V30 4367 H 409.2 2.81962 1.60212 0
M  V30 4368 H 408.985 3.91555 0.206585 0
M  V30 4369 H 410.475 4.00197 1.19298 0
M  V30 4370 N 410.912 0.523116 1.48665 0
M  V30 4371 C 412.189 -0.0775449 1.95446 0
M  V30 4372 C 412.569 -1.5197 1.4652 0
M  V30 4373 O 411.917 -2.17876 0.688657 0
M  V30 4374 C 412.127 0.0326135 3.48985 0
M  V30 4375 C 413.475 -0.130141 4.24401 0
M  V30 4376 O 414.499 -0.0415142 3.56176 0
M  V30 4377 O 413.358 -0.31491 5.45592 0
M  V30 4378 H 410.452 -0.0831012 0.822814 0
M  V30 4379 H 412.998 0.587227 1.59216 0
M  V30 4380 H 411.77 1.03748 3.77296 0
M  V30 4381 H 411.393 -0.671317 3.91892 0
M  V30 4382 N 412.39 -1.55475 0.257931 0
M  V30 4383 C 413.615 -2.04064 -0.370488 0
M  V30 4384 C 414.04 -1.13565 -1.49948 0
M  V30 4385 O 413.398 -0.130781 -1.80828 0
M  V30 4386 C 413.446 -3.50554 -0.845237 0
M  V30 4387 O 412.55 -3.63173 -1.95394 0
M  V30 4388 H 411.891 -0.659257 -0.0792243 0
M  V30 4389 H 414.421 -2.00903 0.387212 0
M  V30 4390 H 414.431 -3.91588 -1.14555 0
M  V30 4391 H 413.106 -4.15896 -0.0191259 0
M  V30 4392 H 411.683 -3.34039 -1.65748 0
M  V30 4393 N 413.868 0.0150385 -1.57593 0
M  V30 4394 C 415.114 0.704043 -1.90187 0
M  V30 4395 C 415.447 1.74249 -0.857366 0
M  V30 4396 O 414.722 1.94092 0.125843 0
M  V30 4397 C 415.005 1.36087 -3.33395 0
M  V30 4398 C 414.858 0.334981 -4.48551 0
M  V30 4399 C 416.177 2.29112 -3.7576 0
M  V30 4400 H 413.296 0.254475 -0.691673 0
M  V30 4401 H 415.938 -0.0331678 -1.89971 0
M  V30 4402 H 414.088 1.98922 -3.3371 0
M  V30 4403 H 415.76 -0.292534 -4.60372 0
M  V30 4404 H 414.003 -0.344325 -4.32431 0
M  V30 4405 H 414.674 0.833316 -5.45674 0
M  V30 4406 H 417.15 1.76308 -3.76902 0
M  V30 4407 H 416.026 2.72043 -4.76743 0
M  V30 4408 H 416.287 3.16385 -3.08793 0
M  V30 4409 N 415.346 1.54954 0.287554 0
M  V30 4410 C 416.595 1.74081 1.01877 0
M  V30 4411 C 416.908 0.541135 1.87966 0
M  V30 4412 O 418.114 0.614491 2.64455 0
M  V30 4413 C 416.57 3.08042 1.86113 0
M  V30 4414 C 416.178 4.35531 1.04961 0
M  V30 4415 C 417.922 3.36523 2.58752 0
M  V30 4416 C 415.829 5.60538 1.88551 0
M  V30 4417 H 414.759 0.64884 0.384087 0
M  V30 4418 H 417.41 1.81426 0.275101 0
M  V30 4419 H 415.792 2.94696 2.64519 0
M  V30 4420 H 416.966 4.59751 0.31074 0
M  V30 4421 H 415.281 4.14085 0.43843 0
M  V30 4422 H 417.878 4.27122 3.21668 0
M  V30 4423 H 418.221 2.56 3.28283 0
M  V30 4424 H 418.754 3.50901 1.87386 0
M  V30 4425 H 415.493 6.43767 1.23466 0
M  V30 4426 H 415.013 5.40483 2.60074 0
M  V30 4427 H 416.692 5.98297 2.46273 0
M  V30 4428 N 416.824 -0.551391 1.4764 0
M  V30 4429 C 418.07 -1.31024 1.54792 0
M  V30 4430 C 418.403 -1.9304 0.211967 0
M  V30 4431 O 417.678 -1.78175 -0.77999 0
M  V30 4432 C 417.961 -2.41593 2.67029 0
M  V30 4433 C 417.814 -1.84408 4.10261 0
M  V30 4434 C 419.133 -3.43488 2.75143 0
M  V30 4435 H 416.252 -0.475031 0.563485 0
M  V30 4436 H 418.894 -0.616454 1.79722 0
M  V30 4437 H 417.044 -3.00772 2.45904 0
M  V30 4438 H 418.716 -1.29445 4.42766 0
M  V30 4439 H 416.959 -1.15051 4.18265 0
M  V30 4440 H 417.63 -2.64367 4.84576 0
M  V30 4441 H 420.106 -2.94236 2.94218 0
M  V30 4442 H 418.982 -4.18274 3.55441 0
M  V30 4443 H 419.243 -4.02703 1.82435 0
M  V30 4444 N 418.302 -1.35869 -0.798587 0
M  V30 4445 C 419.53 -1.32722 -1.58722 0
M  V30 4446 C 419.945 0.0935631 -1.88568 0
M  V30 4447 O 419.302 1.04784 -1.49421 0
M  V30 4448 C 419.353 -2.13974 -2.91371 0
M  V30 4449 O 419.074 -3.50514 -2.62815 0
M  V30 4450 C 420.575 -2.18504 -3.85708 0
M  V30 4451 H 417.795 -0.45562 -0.492596 0
M  V30 4452 H 420.339 -1.78837 -0.991843 0
M  V30 4453 H 418.494 -1.71438 -3.47402 0
M  V30 4454 H 418.908 -3.92806 -3.47568 0
M  V30 4455 H 420.382 -2.79732 -4.75872 0
M  V30 4456 H 420.859 -1.18597 -4.22885 0
M  V30 4457 H 421.465 -2.61236 -3.35612 0
M  V30 4458 N 419.78 1.02168 -1.19998 0
M  V30 4459 C 420.743 2.08765 -0.94604 0
M  V30 4460 C 421.743 1.60618 0.0763846 0
M  V30 4461 O 422.933 1.73472 -0.159135 0
M  V30 4462 C 420.065 3.38262 -0.423255 0
M  V30 4463 H 421.258 2.32726 -1.89153 0
M  V30 4464 H 418.811 1.1889 -1.01464 0
M  V30 4465 H 419.546 3.19974 0.527938 0
M  V30 4466 H 419.331 3.74532 -1.16053 0
M  V30 4467 H 420.821 4.16759 -0.264911 0
M  V30 4468 N 421.258 1.00505 1.21394 0
M  V30 4469 C 422.669 0.721082 1.72213 0
M  V30 4470 C 423.02 -0.761263 1.80829 0
M  V30 4471 O 422.145 -1.59464 1.46288 0
M  V30 4472 C 422.74 1.30228 3.12772 0
M  V30 4473 C 421.299 1.06743 3.60947 0
M  V30 4474 C 420.446 1.41507 2.38477 0
M  V30 4475 H 423.397 1.17594 1.06571 0
M  V30 4476 H 423.418 0.686955 3.74247 0
M  V30 4477 H 422.93 2.38115 3.06468 0
M  V30 4478 H 421.031 0.00572162 3.726 0
M  V30 4479 H 421.144 1.73936 4.46411 0
M  V30 4480 H 419.508 0.833852 2.40664 0
M  V30 4481 H 420.291 2.50424 2.34824 0
M  V30 4482 N 422.737 -1.36956 0.779787 0
M  V30 4483 C 423.687 -2.27539 0.144892 0
M  V30 4484 C 424.671 -1.46493 -0.665488 0
M  V30 4485 O 425.863 -1.68968 -0.527141 0
M  V30 4486 C 422.992 -3.35512 -0.727082 0
M  V30 4487 C 422.078 -4.24001 0.0915642 0
M  V30 4488 N 422.469 -4.92757 1.14125 0
M  V30 4489 C 420.767 -4.45807 -0.131141 0
M  V30 4490 C 421.468 -5.58138 1.6388 0
M  V30 4491 N 420.444 -5.35241 0.94962 0
M  V30 4492 H 424.246 -2.78176 0.948446 0
M  V30 4493 H 421.76 -1.50169 0.618315 0
M  V30 4494 H 423.757 -3.99324 -1.19776 0
M  V30 4495 H 422.417 -2.86431 -1.52929 0
M  V30 4496 H 423.428 -4.94984 1.52353 0
M  V30 4497 H 420.105 -4.07582 -0.904621 0
M  V30 4498 H 421.495 -6.23071 2.51461 0
M  V30 4499 N 424.215 -0.530993 -1.48385 0
M  V30 4500 C 425.162 0.231223 -2.29639 0
M  V30 4501 C 426.132 0.932864 -1.37429 0
M  V30 4502 O 427.317 0.933692 -1.66394 0
M  V30 4503 C 424.457 1.27155 -3.2082 0
M  V30 4504 C 423.57 0.578655 -4.28107 0
M  V30 4505 C 422.705 1.602 -5.06467 0
M  V30 4506 C 421.744 0.892625 -6.05556 0
M  V30 4507 N 420.881 1.86157 -6.76971 0
M  V30 4508 H 425.721 -0.467848 -2.94305 0
M  V30 4509 H 423.258 -0.242556 -1.45086 0
M  V30 4510 H 425.216 1.88703 -3.72085 0
M  V30 4511 H 423.846 1.939 -2.58075 0
M  V30 4512 H 422.898 -0.150782 -3.80101 0
M  V30 4513 H 424.21 0.0217065 -4.98795 0
M  V30 4514 H 423.364 2.29173 -5.61751 0
M  V30 4515 H 422.103 2.19285 -4.35621 0
M  V30 4516 H 421.108 0.188829 -5.49476 0
M  V30 4517 H 422.333 0.307878 -6.78402 0
M  V30 4518 H 420.279 2.44147 -6.08875 0
M  V30 4519 H 420.196 1.35608 -7.43738 0
M  V30 4520 H 421.464 2.54325 -7.36844 0
M  V30 4521 N 425.693 1.55336 -0.266172 0
M  V30 4522 C 426.656 2.20878 0.612001 0
M  V30 4523 C 427.656 1.18388 1.08816 0
M  V30 4524 O 428.846 1.4335 0.989774 0
M  V30 4525 C 425.978 2.86765 1.84332 0
M  V30 4526 H 427.171 2.99873 0.0398718 0
M  V30 4527 H 424.724 1.56291 -0.0167309 0
M  V30 4528 H 425.459 2.11759 2.45619 0
M  V30 4529 H 425.244 3.61862 1.5099 0
M  V30 4530 H 426.734 3.36867 2.46801 0
M  V30 4531 N 427.171 -0.0066808 1.57599 0
M  V30 4532 C 428.134 -0.985035 2.06953 0
M  V30 4533 C 429.134 -1.27663 0.977687 0
M  V30 4534 O 430.324 -1.22293 1.24057 0
M  V30 4535 C 427.456 -2.3118 2.50536 0
M  V30 4536 H 428.649 -0.558255 2.94658 0
M  V30 4537 H 426.202 -0.254011 1.54222 0
M  V30 4538 H 426.937 -2.78561 1.66054 0
M  V30 4539 H 426.722 -2.11338 3.3027 0
M  V30 4540 H 428.212 -3.01377 2.8907 0
M  V30 4541 N 428.649 -1.55105 -0.279332 0
M  V30 4542 C 429.612 -1.86783 -1.32834 0
M  V30 4543 C 430.612 -0.74199 -1.42657 0
M  V30 4544 O 431.802 -1.0102 -1.41918 0
M  V30 4545 C 428.934 -2.06746 -2.71052 0
M  V30 4546 H 430.127 -2.8055 -1.05979 0
M  V30 4547 H 427.68 -1.47499 -0.517087 0
M  V30 4548 H 428.415 -1.15339 -3.03097 0
M  V30 4549 H 428.2 -2.88711 -2.65309 0
M  V30 4550 H 429.69 -2.32549 -3.46858 0
M  V30 4551 N 430.127 0.543554 -1.4793 0
M  V30 4552 C 431.375 1.29752 -1.54948 0
M  V30 4553 C 431.696 1.93764 -0.219242 0
M  V30 4554 O 430.966 1.80639 0.75805 0
M  V30 4555 H 429.546 0.481874 -0.570795 0
M  V30 4556 H 432.208 0.633636 -1.84312 0
M  V30 4557 H 431.304 2.08392 -2.32334 0
M  V30 4558 N 431.605 1.3629 0.791371 0
M  V30 4559 C 432.538 1.24816 1.9104 0
M  V30 4560 C 433.516 0.132739 1.62057 0
M  V30 4561 O 434.7 0.303527 1.8604 0
M  V30 4562 C 431.827 0.925355 3.25814 0
M  V30 4563 C 430.873 2.05495 3.7373 0
M  V30 4564 S 431.706 3.67255 3.89723 0
M  V30 4565 C 432.862 3.37084 5.27376 0
M  V30 4566 H 433.095 2.19533 2.00481 0
M  V30 4567 H 430.628 1.21684 0.950393 0
M  V30 4568 H 432.586 0.745924 4.03666 0
M  V30 4569 H 431.247 -0.00400098 3.141 0
M  V30 4570 H 430.44 1.7836 4.71385 0
M  V30 4571 H 430.042 2.1935 3.02922 0
M  V30 4572 H 432.334 2.90856 6.1189 0
M  V30 4573 H 433.277 4.33995 5.59512 0
M  V30 4574 H 433.685 2.7248 4.94383 0
M  V30 4575 N 433.083 -1.0153 1.20538 0
M  V30 4576 C 434.013 -2.11972 0.979295 0
M  V30 4577 C 434.994 -1.6985 -0.0921787 0
M  V30 4578 O 436.179 -1.94089 0.0655932 0
M  V30 4579 C 433.309 -3.43201 0.531984 0
M  V30 4580 C 432.263 -3.9907 1.54685 0
M  V30 4581 C 431.589 -5.26082 0.956127 0
M  V30 4582 C 432.889 -4.32313 2.93092 0
M  V30 4583 H 434.583 -2.31143 1.90298 0
M  V30 4584 H 432.129 -1.11079 0.916372 0
M  V30 4585 H 434.082 -4.1985 0.361044 0
M  V30 4586 H 432.806 -3.23792 -0.427327 0
M  V30 4587 H 431.465 -3.2453 1.70517 0
M  V30 4588 H 431.113 -5.02999 -0.0111538 0
M  V30 4589 H 430.813 -5.64426 1.63393 0
M  V30 4590 H 432.337 -6.05386 0.796284 0
M  V30 4591 H 433.751 -4.99845 2.80763 0
M  V30 4592 H 432.148 -4.81774 3.57791 0
M  V30 4593 H 433.218 -3.41025 3.44717 0
M  V30 4594 N 434.561 -1.01147 -1.20859 0
M  V30 4595 C 435.786 -0.716698 -1.94623 0
M  V30 4596 C 436.211 0.715415 -1.73964 0
M  V30 4597 O 435.569 1.49157 -1.03062 0
M  V30 4598 C 435.617 -1.0513 -3.44935 0
M  V30 4599 O 434.721 -0.160131 -4.12089 0
M  V30 4600 H 434.062 -0.266404 -0.608214 0
M  V30 4601 H 436.592 -1.35346 -1.53436 0
M  V30 4602 H 436.602 -1.00086 -3.95533 0
M  V30 4603 H 435.277 -2.09475 -3.59295 0
M  V30 4604 H 433.854 -0.267657 -3.71938 0
M  V30 4605 N 436.039 1.36541 -0.78704 0
M  V30 4606 C 436.949 2.3387 -0.184896 0
M  V30 4607 C 437.965 1.60927 0.661697 0
M  V30 4608 O 439.141 1.92927 0.57804 0
M  V30 4609 C 436.206 3.40122 0.672145 0
M  V30 4610 C 435.267 4.28867 -0.19267 0
M  V30 4611 C 434.5 5.30045 0.623561 0
M  V30 4612 O 434.723 5.39232 1.8597 0
M  V30 4613 O 433.657 6.01895 0.0247068 0
M  V30 4614 H 437.483 2.87126 -0.989562 0
M  V30 4615 H 435.068 1.38969 -0.548455 0
M  V30 4616 H 436.95 4.05093 1.16094 0
M  V30 4617 H 435.625 2.89169 1.45474 0
M  V30 4618 H 434.532 3.66945 -0.728166 0
M  V30 4619 H 435.865 4.83165 -0.938722 0
M  V30 4620 N 437.518 0.538854 1.48102 0
M  V30 4621 C 438.448 -0.207654 2.32575 0
M  V30 4622 C 439.429 -0.926559 1.4265 0
M  V30 4623 O 440.614 -0.91061 1.71527 0
M  V30 4624 C 437.744 -1.24957 3.24042 0
M  V30 4625 C 436.698 -0.648263 4.23062 0
M  V30 4626 C 436.024 -1.79348 5.03725 0
M  V30 4627 C 437.324 0.385897 5.20872 0
M  V30 4628 H 439.018 0.497534 2.95237 0
M  V30 4629 H 436.564 0.240715 1.41974 0
M  V30 4630 H 438.517 -1.77983 3.81969 0
M  V30 4631 H 437.241 -1.98446 2.59397 0
M  V30 4632 H 435.9 -0.139452 3.66335 0
M  V30 4633 H 435.548 -2.51696 4.35498 0
M  V30 4634 H 435.248 -1.39702 5.70751 0
M  V30 4635 H 436.772 -2.32735 5.64506 0
M  V30 4636 H 438.186 -0.057607 5.73271 0
M  V30 4637 H 436.583 0.700227 5.96001 0
M  V30 4638 H 437.653 1.28848 4.67468 0
M  V30 4639 N 438.996 -1.55193 0.274407 0
M  V30 4640 C 440.407 -1.85358 -0.223488 0
M  V30 4641 C 440.758 -1.19642 -1.555 0
M  V30 4642 O 439.883 -0.484498 -2.10907 0
M  V30 4643 C 440.478 -3.36282 -0.412285 0
M  V30 4644 C 439.037 -3.66574 -0.854413 0
M  V30 4645 C 438.184 -2.7725 0.0527056 0
M  V30 4646 H 441.135 -1.50743 0.496215 0
M  V30 4647 H 441.156 -3.59349 -1.25094 0
M  V30 4648 H 440.668 -3.84083 0.556965 0
M  V30 4649 H 438.769 -3.24273 -1.83516 0
M  V30 4650 H 438.882 -4.74073 -0.692226 0
M  V30 4651 H 437.246 -2.50447 -0.463484 0
M  V30 4652 H 438.029 -3.27865 1.01783 0
M  V30 4653 N 440.474 -0.00167713 -1.576 0
M  V30 4654 C 441.437 0.974046 -2.07473 0
M  V30 4655 C 442.437 1.27143 -0.984444 0
M  V30 4656 O 443.627 1.21633 -1.24703 0
M  V30 4657 C 440.759 2.29849 -2.51759 0
M  V30 4658 H 441.952 0.54262 -2.9495 0
M  V30 4659 H 439.505 0.245829 -1.54355 0
M  V30 4660 H 440.24 2.77677 -1.67529 0
M  V30 4661 H 440.025 2.09584 -3.31386 0
M  V30 4662 H 441.515 2.9984 -2.90664 0
M  V30 4663 N 441.952 1.55251 0.271103 0
M  V30 4664 C 443.201 1.75151 1.00025 0
M  V30 4665 C 443.514 0.561041 1.87381 0
M  V30 4666 O 444.72 0.642506 2.63788 0
M  V30 4667 C 443.176 3.09999 1.82835 0
M  V30 4668 C 442.784 4.3662 1.00336 0
M  V30 4669 C 444.528 3.39249 2.55168 0
M  V30 4670 C 442.435 5.62506 1.82595 0
M  V30 4671 H 441.365 0.652877 0.377183 0
M  V30 4672 H 444.016 1.81708 0.255843 0
M  V30 4673 H 442.398 2.97485 2.61378 0
M  V30 4674 H 443.572 4.60055 0.261959 0
M  V30 4675 H 441.887 4.14527 0.394486 0
M  V30 4676 H 444.484 4.3051 3.1712 0
M  V30 4677 H 444.827 2.59467 3.2555 0
M  V30 4678 H 445.36 3.52869 1.83653 0
M  V30 4679 H 442.099 6.45041 1.16631 0
M  V30 4680 H 441.619 5.43211 2.54327 0
M  V30 4681 H 443.298 6.00875 2.39913 0
M  V30 4682 N 443.43 -0.535701 1.48216 0
M  V30 4683 C 444.655 -1.32149 1.59848 0
M  V30 4684 C 445.08 -1.86338 0.256842 0
M  V30 4685 O 444.438 -1.64107 -0.770632 0
M  V30 4686 C 444.486 -2.45224 2.64381 0
M  V30 4687 O 443.59 -3.48093 2.21144 0
M  V30 4688 H 442.931 -0.391634 0.536208 0
M  V30 4689 H 445.461 -0.645202 1.94161 0
M  V30 4690 H 445.471 -2.91491 2.85476 0
M  V30 4691 H 444.146 -2.05143 3.61786 0
M  V30 4692 H 442.723 -3.07984 2.10239 0
M  V30 4693 N 444.908 -1.36708 -0.784132 0
M  V30 4694 C 445.858 -1.2799 -1.88686 0
M  V30 4695 C 446.842 -0.170282 -1.59996 0
M  V30 4696 O 448.034 -0.403571 -1.72338 0
M  V30 4697 C 445.163 -1.07674 -3.25977 0
M  V30 4698 C 444.249 -2.23127 -3.60659 0
M  V30 4699 N 444.64 -3.48467 -3.66612 0
M  V30 4700 C 442.938 -2.15009 -3.90752 0
M  V30 4701 C 443.639 -4.24525 -3.97685 0
M  V30 4702 N 442.615 -3.53524 -4.12943 0
M  V30 4703 H 446.417 -2.22927 -1.91522 0
M  V30 4704 H 443.931 -1.29503 -0.979933 0
M  V30 4705 H 445.928 -0.995151 -4.04849 0
M  V30 4706 H 444.588 -0.13643 -3.24413 0
M  V30 4707 H 445.599 -3.82534 -3.49125 0
M  V30 4708 H 442.276 -1.28963 -3.97083 0
M  V30 4709 H 443.666 -5.32944 -4.0917 0
M  V30 4710 N 446.386 1.0089 -1.21074 0
M  V30 4711 C 447.316 2.1145 -0.990523 0
M  V30 4712 C 448.297 1.69897 0.0831699 0
M  V30 4713 O 449.482 1.94052 -0.0758853 0
M  V30 4714 C 446.612 3.42914 -0.550177 0
M  V30 4715 C 445.566 3.98244 -1.56799 0
M  V30 4716 C 444.892 5.25568 -0.984013 0
M  V30 4717 C 446.192 4.30752 -2.95381 0
M  V30 4718 H 447.886 2.3013 -1.91521 0
M  V30 4719 H 445.432 1.10592 -0.92225 0
M  V30 4720 H 447.385 4.19653 -0.383305 0
M  V30 4721 H 446.109 3.24014 0.41015 0
M  V30 4722 H 444.768 3.23621 -1.72236 0
M  V30 4723 H 444.416 5.02998 -0.0155216 0
M  V30 4724 H 444.116 5.63551 -1.66384 0
M  V30 4725 H 445.64 6.04955 -0.828378 0
M  V30 4726 H 447.054 4.98349 -2.8341 0
M  V30 4727 H 445.451 4.79869 -3.60341 0
M  V30 4728 H 446.521 3.39192 -3.46521 0
M  V30 4729 N 447.864 1.01787 1.20321 0
M  V30 4730 C 448.811 0.589197 2.23153 0
M  V30 4731 C 449.781 -0.391367 1.61423 0
M  V30 4732 O 450.966 -0.290518 1.88575 0
M  V30 4733 C 448.106 -0.0650747 3.45039 0
M  V30 4734 C 447.219 0.960207 4.21194 0
M  V30 4735 C 446.354 0.276854 5.30478 0
M  V30 4736 C 445.393 1.2888 5.98378 0
M  V30 4737 N 444.53 0.632031 6.99249 0
M  V30 4738 H 449.37 1.47071 2.59179 0
M  V30 4739 H 446.907 0.736192 1.27352 0
M  V30 4740 H 448.865 -0.461552 4.14639 0
M  V30 4741 H 447.495 -0.910233 3.09701 0
M  V30 4742 H 446.547 1.47484 3.50646 0
M  V30 4743 H 447.859 1.72977 4.67847 0
M  V30 4744 H 447.013 -0.175056 6.06447 0
M  V30 4745 H 445.752 -0.525004 4.84866 0
M  V30 4746 H 444.757 1.75109 5.21169 0
M  V30 4747 H 445.982 2.09196 6.46076 0
M  V30 4748 H 443.928 -0.149935 6.55829 0
M  V30 4749 H 443.845 1.33964 7.44036 0
M  V30 4750 H 445.113 0.203755 7.79234 0
M  V30 4751 N 449.342 -1.36122 0.79427 0
M  V30 4752 C 450.29 -2.31871 0.184023 0
M  V30 4753 C 451.284 -1.56041 -0.659365 0
M  V30 4754 O 452.49 -1.71266 -0.553906 0
M  V30 4755 H 448.865 -0.750896 0.0407373 0
M  V30 4756 H 450.836 -2.80898 1.00693 0
M  V30 4757 C 449.585 -3.41324 -0.662813 0
M  V30 4758 H 448.908 -3.99793 -0.0231944 0
M  V30 4759 H 450.348 -4.10629 -1.05639 0
M  V30 4760 C 448.807 -2.83308 -1.82313 0
M  V30 4761 O 449.337 -2.75863 -2.91997 0
M  V30 4762 N 447.543 -2.40529 -1.63077 0
M  V30 4763 H 447.09 -2.46785 -0.738591 0
M  V30 4764 H 447.048 -2.02059 -2.40872 0
M  V30 4765 N 450.82 -0.546701 -1.47814 0
M  V30 4766 C 451.753 0.254472 -2.26777 0
M  V30 4767 C 452.731 0.929809 -1.33392 0
M  V30 4768 O 453.915 0.950889 -1.62759 0
M  V30 4769 C 451.042 1.36171 -3.10121 0
M  V30 4770 C 450.088 0.796038 -4.19005 0
M  V30 4771 S 450.921 -0.349191 -5.3436 0
M  V30 4772 C 452.077 0.760122 -6.21267 0
M  V30 4773 H 452.31 -0.415612 -2.94381 0
M  V30 4774 H 449.843 -0.332809 -1.5077 0
M  V30 4775 H 451.801 1.99588 -3.58713 0
M  V30 4776 H 450.462 2.00359 -2.41899 0
M  V30 4777 H 449.655 1.62719 -4.7701 0
M  V30 4778 H 449.257 0.238246 -3.7324 0
M  V30 4779 H 451.549 1.65479 -6.5698 0
M  V30 4780 H 452.492 0.217673 -7.07765 0
M  V30 4781 H 452.9 1.04806 -5.54685 0
M  V30 4782 N 452.299 1.55045 -0.282633 0
M  V30 4783 C 453.249 2.19514 0.616249 0
M  V30 4784 C 454.233 1.16216 1.11277 0
M  V30 4785 O 455.425 1.42004 1.05659 0
M  V30 4786 C 452.554 2.92548 1.7964 0
M  V30 4787 C 451.64 4.03142 1.31671 0
M  V30 4788 N 452.031 5.0276 0.553695 0
M  V30 4789 C 450.329 4.1635 1.59903 0
M  V30 4790 C 451.03 5.80923 0.30054 0
M  V30 4791 N 450.006 5.3651 0.875116 0
M  V30 4792 H 453.808 2.93889 0.0255363 0
M  V30 4793 H 451.322 1.62169 -0.0865362 0
M  V30 4794 H 453.319 3.37188 2.45173 0
M  V30 4795 H 451.979 2.19685 2.39099 0
M  V30 4796 H 452.99 5.17512 0.20032 0
M  V30 4797 H 449.667 3.54682 2.20243 0
M  V30 4798 H 451.057 6.7118 -0.311053 0
M  V30 4799 N 453.777 0.010035 1.57597 0
M  V30 4800 C 455.002 -0.687021 1.95691 0
M  V30 4801 C 455.427 -1.65952 0.885519 0
M  V30 4802 O 454.785 -1.80633 -0.15543 0
M  V30 4803 C 454.833 -1.3864 3.32884 0
M  V30 4804 O 453.937 -2.50115 3.27897 0
M  V30 4805 H 453.278 -0.181989 0.638573 0
M  V30 4806 H 455.808 0.0662122 2.04493 0
M  V30 4807 H 455.818 -1.74754 3.6868 0
M  V30 4808 H 454.493 -0.673411 4.10412 0
M  V30 4809 H 453.07 -2.16253 3.03791 0
M  V30 4810 N 455.255 -1.55392 -0.262866 0
M  V30 4811 C 456.483 -1.80513 -1.01108 0
M  V30 4812 C 456.898 -0.583533 -1.79556 0
M  V30 4813 O 456.255 0.447585 -1.76926 0
M  V30 4814 C 456.306 -3.03648 -1.96164 0
M  V30 4815 O 456.027 -4.2109 -1.20893 0
M  V30 4816 C 457.528 -3.41448 -2.82715 0
M  V30 4817 H 454.748 -0.601079 -0.298236 0
M  V30 4818 H 457.292 -2.02425 -0.290582 0
M  V30 4819 H 455.447 -2.83832 -2.63663 0
M  V30 4820 H 455.861 -4.90771 -1.85051 0
M  V30 4821 H 457.335 -4.30751 -3.45192 0
M  V30 4822 H 457.812 -2.61308 -3.53008 0
M  V30 4823 H 458.418 -3.63559 -2.20693 0
M  V30 4824 N 456.733 0.527833 -1.48498 0
M  V30 4825 C 457.958 1.313 -1.60546 0
M  V30 4826 C 458.383 1.86199 -0.26672 0
M  V30 4827 O 457.741 1.64513 0.761918 0
M  V30 4828 C 457.789 2.43818 -2.65678 0
M  V30 4829 O 456.893 3.46916 -2.22987 0
M  V30 4830 H 456.234 0.388784 -0.538277 0
M  V30 4831 H 458.764 0.634896 -1.945 0
M  V30 4832 H 458.774 2.89973 -2.87018 0
M  V30 4833 H 457.449 2.03222 -3.62869 0
M  V30 4834 H 456.026 3.06864 -2.11869 0
M  V30 4835 N 458.211 1.37122 0.776871 0
M  V30 4836 C 459.457 1.32243 1.53752 0
M  V30 4837 C 459.79 -0.0944745 1.9397 0
M  V30 4838 O 459.065 -1.05068 1.6368 0
M  V30 4839 C 459.348 2.25681 2.80607 0
M  V30 4840 C 459.201 3.76127 2.46676 0
M  V30 4841 C 460.52 2.17657 3.82509 0
M  V30 4842 H 457.639 0.481704 0.557791 0
M  V30 4843 H 460.281 1.6778 0.891612 0
M  V30 4844 H 458.431 1.95505 3.35723 0
M  V30 4845 H 460.103 4.16877 1.97513 0
M  V30 4846 H 458.346 3.94946 1.79443 0
M  V30 4847 H 459.017 4.36933 3.37333 0
M  V30 4848 H 461.493 2.44245 3.36873 0
M  V30 4849 H 460.369 2.85185 4.69 0
M  V30 4850 H 460.63 1.16785 4.26396 0
M  V30 4851 N 459.689 -1.00246 1.21608 0
M  V30 4852 C 460.652 -2.07233 0.979133 0
M  V30 4853 C 461.652 -1.6072 -0.0508219 0
M  V30 4854 O 462.842 -1.73196 0.186712 0
M  V30 4855 C 459.974 -3.37546 0.477016 0
M  V30 4856 H 461.167 -2.29687 1.92831 0
M  V30 4857 H 458.72 -1.17261 1.03342 0
M  V30 4858 H 459.455 -3.20773 -0.476966 0
M  V30 4859 H 459.24 -3.72638 1.21997 0
M  V30 4860 H 460.73 -4.16285 0.331181 0
M  V30 4861 N 461.167 -1.02423 -1.1978 0
M  V30 4862 C 462.115 -0.594474 -2.24875 0
M  V30 4863 C 463.109 0.370598 -1.65296 0
M  V30 4864 O 464.315 0.239684 -1.78397 0
M  V30 4865 H 460.69 -0.173961 -0.731602 0
M  V30 4866 H 462.661 -1.4916 -2.58445 0
M  V30 4867 C 461.41 0.0436512 -3.47673 0
M  V30 4868 H 460.733 -0.689963 -3.93801 0
M  V30 4869 H 462.173 0.307362 -4.22884 0
M  V30 4870 C 460.632 1.28881 -3.11274 0
M  V30 4871 O 461.162 2.38135 -3.23503 0
M  V30 4872 N 459.368 1.1758 -2.6575 0
M  V30 4873 H 458.915 0.286769 -2.55999 0
M  V30 4874 H 458.873 2.00988 -2.41767 0
M  V30 4875 N 462.645 1.35699 -0.801477 0
M  V30 4876 C 463.891 1.99208 -0.380022 0
M  V30 4877 C 464.224 1.63445 1.04878 0
M  V30 4878 O 463.499 0.895223 1.72673 0
M  V30 4879 C 463.782 3.55755 -0.557708 0
M  V30 4880 C 463.635 4.01332 -2.03107 0
M  V30 4881 C 464.954 4.40096 0.0197968 0
M  V30 4882 H 462.073 0.723667 -0.139552 0
M  V30 4883 H 464.715 1.60928 -1.01006 0
M  V30 4884 H 462.865 3.88494 -0.0213741 0
M  V30 4885 H 464.537 3.79026 -2.62939 0
M  V30 4886 H 462.78 3.52429 -2.52936 0
M  V30 4887 H 463.451 5.10234 -2.1063 0
M  V30 4888 H 465.927 4.13786 -0.438179 0
M  V30 4889 H 464.803 5.48735 -0.134477 0
M  V30 4890 H 465.064 4.2786 1.11303 0
M  V30 4891 N 464.123 0.554532 1.47522 0
M  V30 4892 C 465.086 -0.184174 2.28459 0
M  V30 4893 C 466.086 -0.845195 1.36796 0
M  V30 4894 O 467.276 -0.701467 1.59452 0
M  V30 4895 C 464.408 -1.26903 3.16399 0
M  V30 4896 H 465.601 0.526751 2.95238 0
M  V30 4897 H 463.154 0.311375 1.53167 0
M  V30 4898 H 463.889 -2.01244 2.54306 0
M  V30 4899 H 463.674 -0.799883 3.83854 0
M  V30 4900 H 465.164 -1.78794 3.77389 0
M  V30 4901 N 465.601 -1.54893 0.290851 0
M  V30 4902 C 466.531 -2.26103 -0.583084 0
M  V30 4903 C 467.512 -1.25684 -1.14619 0
M  V30 4904 O 468.697 -1.54436 -1.17741 0
M  V30 4905 C 465.827 -2.99409 -1.75987 0
M  V30 4906 C 464.781 -4.0689 -1.32758 0
M  V30 4907 C 464.107 -4.67856 -2.58872 0
M  V30 4908 C 465.407 -5.20215 -0.46624 0
M  V30 4909 H 467.101 -2.99398 0.0108214 0
M  V30 4910 H 464.647 -1.43998 0.00664468 0
M  V30 4911 H 466.6 -3.47943 -2.37727 0
M  V30 4912 H 465.324 -2.23675 -2.37985 0
M  V30 4913 H 463.983 -3.59191 -0.733299 0
M  V30 4914 H 463.631 -3.88772 -3.19163 0
M  V30 4915 H 463.331 -5.40438 -2.30653 0
M  V30 4916 H 464.855 -5.19147 -3.21433 0
M  V30 4917 H 466.269 -5.64704 -0.989047 0
M  V30 4918 H 464.666 -5.99455 -0.27826 0
M  V30 4919 H 465.736 -4.82198 0.511173 0
M  V30 4920 N 467.08 -0.0183926 -1.57589 0
M  V30 4921 C 468.328 0.661253 -1.90976 0
M  V30 4922 C 468.649 1.73281 -0.894353 0
M  V30 4923 O 467.919 1.9579 0.0656788 0
M  V30 4924 H 466.499 0.247233 -0.704901 0
M  V30 4925 H 469.161 -0.0636639 -1.94796 0
M  V30 4926 H 468.257 1.12083 -2.9128 0
M  V30 4927 N 468.558 1.5553 0.254621 0
M  V30 4928 C 469.805 1.77 0.983736 0
M  V30 4929 C 470.133 0.58133 1.85609 0
M  V30 4930 O 469.388 -0.435621 1.9079 0
M  V30 4931 C 469.687 3.03891 1.88109 0
M  V30 4932 C 469.353 4.35597 1.16472 0
M  V30 4933 C 468.015 4.7139 0.966714 0
M  V30 4934 C 470.367 5.1705 0.656387 0
M  V30 4935 C 467.695 5.86176 0.247942 0
M  V30 4936 C 470.047 6.32581 -0.0488807 0
M  V30 4937 C 468.711 6.67 -0.258438 0
M  V30 4938 H 467.981 0.647688 0.359974 0
M  V30 4939 H 470.628 1.89802 0.254463 0
M  V30 4940 H 468.933 2.86068 2.67717 0
M  V30 4941 H 470.63 3.17701 2.44677 0
M  V30 4942 H 467.22 4.07475 1.32899 0
M  V30 4943 H 471.404 4.8986 0.796933 0
M  V30 4944 H 466.66 6.11354 0.075035 0
M  V30 4945 H 470.834 6.94942 -0.450444 0
M  V30 4946 H 468.461 7.55793 -0.817358 0
M  V30 4947 N 470.036 -0.519951 1.48776 0
M  V30 4948 C 471.447 -1.10177 1.50725 0
M  V30 4949 C 471.798 -1.94153 0.282678 0
M  V30 4950 O 470.923 -2.07645 -0.609298 0
M  V30 4951 C 471.518 -2.00482 2.73116 0
M  V30 4952 C 470.077 -2.53862 2.77905 0
M  V30 4953 C 469.224 -1.31047 2.44381 0
M  V30 4954 H 472.175 -0.30473 1.55747 0
M  V30 4955 H 472.196 -2.8491 2.52203 0
M  V30 4956 H 471.708 -1.39335 3.62225 0
M  V30 4957 H 469.809 -3.18702 1.93029 0
M  V30 4958 H 469.922 -2.9231 3.79594 0
M  V30 4959 H 468.286 -1.62953 1.95751 0
M  V30 4960 H 469.069 -0.71637 3.35743 0
M  V30 4961 N 471.514 -1.37532 -0.769588 0
M  V30 4962 C 472.424 -1.35668 -1.91393 0
M  V30 4963 C 473.44 -0.255954 -1.72107 0
M  V30 4964 O 474.616 -0.491704 -1.95305 0
M  V30 4965 C 471.681 -1.16481 -3.26547 0
M  V30 4966 C 470.742 -2.36212 -3.58472 0
M  V30 4967 C 469.975 -2.17932 -4.87177 0
M  V30 4968 O 470.198 -1.1647 -5.58382 0
M  V30 4969 O 469.132 -3.06167 -5.18214 0
M  V30 4970 H 472.958 -2.32055 -1.95918 0
M  V30 4971 H 470.543 -1.18284 -0.912641 0
M  V30 4972 H 472.425 -1.07778 -4.07384 0
M  V30 4973 H 471.1 -0.231687 -3.2287 0
M  V30 4974 H 470.007 -2.50488 -2.77861 0
M  V30 4975 H 471.34 -3.281 -3.66894 0
M  V30 4976 N 472.992 0.995999 -1.22138 0
M  V30 4977 C 474.24 1.73167 -1.042 0
M  V30 4978 C 474.561 1.90329 0.42423 0
M  V30 4979 O 473.831 1.4607 1.30539 0
M  V30 4980 H 472.411 0.641593 -0.38258 0
M  V30 4981 H 475.073 1.19974 -1.53598 0
M  V30 4982 H 474.169 2.72734 -1.51731 0
M  V30 4983 N 474.47 1.03057 1.19235 0
M  V30 4984 C 475.695 0.74757 1.93458 0
M  V30 4985 C 476.12 -0.687648 1.7508 0
M  V30 4986 O 475.478 -1.47499 1.05422 0
M  V30 4987 C 475.526 1.10604 3.43219 0
M  V30 4988 O 474.63 0.225671 4.11782 0
M  V30 4989 H 473.971 0.276047 0.603899 0
M  V30 4990 H 476.501 1.3777 1.51263 0
M  V30 4991 H 476.511 1.06366 3.93891 0
M  V30 4992 H 475.186 2.15165 3.55917 0
M  V30 4993 H 473.763 0.326795 3.71465 0
M  V30 4994 N 475.948 -1.35272 0.808662 0
M  V30 4995 C 477.194 -1.99003 0.390581 0
M  V30 4996 C 477.527 -1.63999 -1.0401 0
M  V30 4997 O 476.802 -0.904368 -1.72196 0
M  V30 4998 C 477.085 -3.55454 0.576566 0
M  V30 4999 C 476.938 -4.00249 2.05233 0
M  V30 5000 C 478.257 -4.401 0.00354277 0
M  V30 5001 H 475.376 -0.722917 0.143388 0
M  V30 5002 H 478.018 -1.6039 1.01858 0
M  V30 5003 H 476.168 -3.88477 0.0419766 0
M  V30 5004 H 477.84 -3.77626 2.64946 0
M  V30 5005 H 476.083 -3.51082 2.54801 0
M  V30 5006 H 476.754 -5.0911 2.13333 0
M  V30 5007 H 479.23 -4.13548 0.460117 0
M  V30 5008 H 478.106 -5.48656 0.163575 0
M  V30 5009 H 478.367 -4.28444 -1.09032 0
M  V30 5010 N 477.426 -0.562348 -1.47226 0
M  V30 5011 C 478.358 0.220011 -2.28142 0
M  V30 5012 C 479.371 0.874596 -1.37312 0
M  V30 5013 O 480.56 0.747583 -1.62091 0
M  V30 5014 C 477.66 1.32953 -3.11732 0
M  V30 5015 C 476.833 0.770759 -4.30556 0
M  V30 5016 C 475.892 1.76541 -4.95701 0
M  V30 5017 O 474.918 1.3095 -5.53932 0
M  V30 5018 N 476.12 3.09896 -4.90861 0
M  V30 5019 H 478.885 -0.474107 -2.95926 0
M  V30 5020 H 476.446 -0.398761 -1.56912 0
M  V30 5021 H 478.438 1.99378 -3.5218 0
M  V30 5022 H 477.008 1.92681 -2.46156 0
M  V30 5023 H 476.228 -0.0704056 -3.94137 0
M  V30 5024 H 477.516 0.376872 -5.07402 0
M  V30 5025 H 476.914 3.49577 -4.44761 0
M  V30 5026 H 475.471 3.71865 -5.35313 0
M  V30 5027 N 478.904 1.54736 -0.299062 0
M  V30 5028 C 479.837 2.1962 0.619851 0
M  V30 5029 C 480.815 1.16496 1.13434 0
M  V30 5030 O 481.999 1.4513 1.2029 0
M  V30 5031 C 479.126 2.8385 1.84788 0
M  V30 5032 C 478.172 4.00484 1.46679 0
M  V30 5033 S 479.005 5.32926 0.524389 0
M  V30 5034 C 480.161 6.00638 1.76026 0
M  V30 5035 H 480.394 2.97221 0.0686177 0
M  V30 5036 H 477.927 1.54176 -0.0832085 0
M  V30 5037 H 479.885 3.21483 2.55263 0
M  V30 5038 H 478.546 2.06099 2.37028 0
M  V30 5039 H 477.739 4.44201 2.38121 0
M  V30 5040 H 477.341 3.64398 0.842008 0
M  V30 5041 H 479.633 6.21327 2.70109 0
M  V30 5042 H 480.576 6.94805 1.36569 0
M  V30 5043 H 480.984 5.3026 1.93609 0
M  V30 5044 N 480.382 0.0267497 1.57577 0
M  V30 5045 C 481.292 -0.971633 2.13533 0
M  V30 5046 C 482.308 -1.35868 1.08701 0
M  V30 5047 O 483.484 -1.44058 1.40746 0
M  V30 5048 C 480.549 -2.23622 2.64941 0
M  V30 5049 C 479.61 -1.90982 3.8448 0
M  V30 5050 C 478.843 -3.11411 4.33427 0
M  V30 5051 O 479.066 -4.23992 3.81558 0
M  V30 5052 O 478 -2.93848 5.25297 0
M  V30 5053 H 481.826 -0.525853 2.99113 0
M  V30 5054 H 479.411 -0.193712 1.48139 0
M  V30 5055 H 481.293 -2.97864 2.98086 0
M  V30 5056 H 479.968 -2.67386 1.82446 0
M  V30 5057 H 478.875 -1.14132 3.56265 0
M  V30 5058 H 480.208 -1.52036 4.6813 0
M  V30 5059 N 481.861 -1.55662 -0.24637 0
M  V30 5060 C 482.811 -1.86753 -1.30795 0
M  V30 5061 C 483.795 -0.728445 -1.43466 0
M  V30 5062 O 484.987 -0.99038 -1.46699 0
M  V30 5063 C 482.116 -2.16618 -2.66329 0
M  V30 5064 C 481.202 -3.36855 -2.57661 0
M  V30 5065 N 481.593 -4.56111 -2.18624 0
M  V30 5066 C 479.891 -3.39976 -2.88673 0
M  V30 5067 C 480.592 -5.38247 -2.20601 0
M  V30 5068 N 479.568 -4.77322 -2.60124 0
M  V30 5069 H 483.37 -2.76486 -0.996642 0
M  V30 5070 H 480.884 -1.55896 -0.454994 0
M  V30 5071 H 482.881 -2.37057 -3.42942 0
M  V30 5072 H 481.541 -1.28185 -2.98327 0
M  V30 5073 H 482.552 -4.81726 -1.9016 0
M  V30 5074 H 479.229 -2.61815 -3.25206 0
M  V30 5075 H 480.619 -6.43657 -1.92756 0
M  V30 5076 N 483.339 0.512053 -1.4905 0
M  V30 5077 C 484.249 1.64139 -1.67617 0
M  V30 5078 C 485.265 1.64786 -0.558701 0
M  V30 5079 O 486.441 1.8341 -0.832034 0
M  V30 5080 C 483.506 3.00548 -1.72835 0
M  V30 5081 C 482.567 3.10615 -2.96339 0
M  V30 5082 C 481.8 4.40517 -3.01298 0
M  V30 5083 O 482.023 5.28671 -2.14157 0
M  V30 5084 O 480.957 4.55325 -3.93653 0
M  V30 5085 H 484.783 1.51407 -2.63267 0
M  V30 5086 H 482.368 0.687131 -1.32661 0
M  V30 5087 H 484.25 3.81641 -1.78683 0
M  V30 5088 H 482.925 3.13566 -0.803616 0
M  V30 5089 H 481.832 2.2875 -2.96014 0
M  V30 5090 H 483.165 3.0252 -3.88256 0
M  V30 5091 N 484.817 1.37938 0.762283 0
M  V30 5092 C 486.065 1.33404 1.51815 0
M  V30 5093 C 486.386 -0.0780975 1.94844 0
M  V30 5094 O 485.656 -1.02405 1.67003 0
M  V30 5095 H 484.236 0.490839 0.563104 0
M  V30 5096 H 486.898 1.72527 0.906669 0
M  V30 5097 H 485.994 1.97926 2.41313 0
M  V30 5098 N 486.295 -0.989507 1.22664 0
M  V30 5099 C 487.523 -1.76496 1.07967 0
M  V30 5100 C 487.938 -1.85148 -0.369543 0
M  V30 5101 O 487.295 -1.32408 -1.25596 0
M  V30 5102 C 487.346 -3.19642 1.68853 0
M  V30 5103 O 487.067 -3.11453 3.08105 0
M  V30 5104 C 488.568 -4.13621 1.59475 0
M  V30 5105 H 485.788 -0.55418 0.378319 0
M  V30 5106 H 488.332 -1.24378 1.62328 0
M  V30 5107 H 486.487 -3.68816 1.18547 0
M  V30 5108 H 486.901 -4.01499 3.37489 0
M  V30 5109 H 488.375 -5.11801 2.06795 0
M  V30 5110 H 488.852 -4.35718 0.55191 0
M  V30 5111 H 489.458 -3.70346 2.09103 0
M  V30 5112 N 487.773 -1.03688 -1.18687 0
M  V30 5113 C 489.021 -0.736572 -1.88199 0
M  V30 5114 C 489.342 0.737665 -1.80509 0
M  V30 5115 O 488.612 1.53204 -1.22088 0
M  V30 5116 H 487.192 -0.269466 -0.696704 0
M  V30 5117 H 489.854 -1.31282 -1.44052 0
M  V30 5118 H 488.95 -1.03802 -2.94332 0
M  V30 5119 N 489.251 1.34841 -0.815825 0
M  V30 5120 C 490.498 1.98499 -0.400535 0
M  V30 5121 C 490.826 1.64699 1.03463 0
M  V30 5122 O 490.081 0.907006 1.73412 0
M  V30 5123 C 490.38 3.53273 -0.541541 0
M  V30 5124 C 490.046 4.06966 -1.94138 0
M  V30 5125 C 488.708 4.21341 -2.32433 0
M  V30 5126 C 491.06 4.35933 -2.85677 0
M  V30 5127 C 488.388 4.62007 -3.61617 0
M  V30 5128 C 490.74 4.78042 -4.14317 0
M  V30 5129 C 489.404 4.90622 -4.52599 0
M  V30 5130 H 488.674 0.72636 -0.146566 0
M  V30 5131 H 491.321 1.60902 -1.0384 0
M  V30 5132 H 489.626 3.91387 0.179741 0
M  V30 5133 H 491.323 4.00497 -0.20085 0
M  V30 5134 H 487.913 3.96235 -1.63388 0
M  V30 5135 H 492.097 4.24372 -2.57337 0
M  V30 5136 H 487.353 4.69937 -3.91113 0
M  V30 5137 H 491.527 4.99415 -4.85342 0
M  V30 5138 H 489.154 5.2189 -5.52752 0
M  V30 5139 N 490.729 0.570148 1.46925 0
M  V30 5140 C 491.975 0.0510284 2.02736 0
M  V30 5141 C 492.308 -1.3006 1.44215 0
M  V30 5142 O 491.583 -1.84932 0.602521 0
M  V30 5143 C 491.866 -0.028215 3.60089 0
M  V30 5144 C 491.719 1.35142 4.29018 0
M  V30 5145 C 493.038 -0.735181 4.33916 0
M  V30 5146 H 490.157 0.0200178 0.736728 0
M  V30 5147 H 492.799 0.73493 1.75211 0
M  V30 5148 H 490.949 -0.610648 3.83671 0
M  V30 5149 H 492.621 1.97806 4.16738 0
M  V30 5150 H 490.864 1.9226 3.88868 0
M  V30 5151 H 491.535 1.24857 5.37694 0
M  V30 5152 H 494.011 -0.240519 4.15404 0
M  V30 5153 H 492.887 -0.759622 5.43618 0
M  V30 5154 H 493.148 -1.79397 4.04066 0
M  V30 5155 N 492.207 -1.54576 0.307264 0
M  V30 5156 C 493.456 -1.99442 -0.300976 0
M  V30 5157 C 493.769 -1.19928 -1.5452 0
M  V30 5158 O 494.975 -1.55092 -2.22842 0
M  V30 5159 C 493.431 -3.55084 -0.586809 0
M  V30 5160 C 493.039 -4.43413 0.639438 0
M  V30 5161 C 494.783 -4.0846 -1.1559 0
M  V30 5162 C 492.69 -5.90499 0.326411 0
M  V30 5163 H 491.62 -0.744986 -0.116238 0
M  V30 5164 H 494.271 -1.787 0.416947 0
M  V30 5165 H 492.653 -3.71749 -1.36449 0
M  V30 5166 H 493.827 -4.38522 1.41545 0
M  V30 5167 H 492.142 -4.00842 1.1276 0
M  V30 5168 H 494.739 -5.15926 -1.40445 0
M  V30 5169 H 495.082 -3.59443 -2.10015 0
M  V30 5170 H 495.615 -3.95362 -0.439778 0
M  V30 5171 H 492.354 -6.43676 1.23939 0
M  V30 5172 H 491.874 -5.98382 -0.412212 0
M  V30 5173 H 493.553 -6.46962 -0.0697393 0
M  V30 5174 N 493.685 -0.035106 -1.57561 0
M  V30 5175 C 494.91 0.655802 -1.96759 0
M  V30 5176 C 495.335 1.64523 -0.911809 0
M  V30 5177 O 494.693 1.80857 0.126673 0
M  V30 5178 C 494.741 1.33326 -3.35047 0
M  V30 5179 O 493.845 2.44866 -3.31835 0
M  V30 5180 H 493.186 0.171807 -0.641388 0
M  V30 5181 H 495.716 -0.0987369 -2.04362 0
M  V30 5182 H 495.726 1.68867 -3.71413 0
M  V30 5183 H 494.401 0.608033 -4.11431 0
M  V30 5184 H 492.978 2.11392 -3.07193 0
M  V30 5185 N 495.163 1.55791 0.238111 0
M  V30 5186 C 496.579 1.48411 0.587045 0
M  V30 5187 C 496.779 0.72702 1.87927 0
M  V30 5188 O 495.835 0.259942 2.51158 0
M  V30 5189 C 497.148 2.92873 0.681623 0
M  V30 5190 C 498.696 3.03295 0.773363 0
M  V30 5191 C 499.171 4.49082 0.899428 0
M  V30 5192 N 500.662 4.53056 0.964075 0
M  V30 5193 C 501.397 5.63117 1.08104 0
M  V30 5194 N 500.893 6.82969 1.16299 0
M  V30 5195 N 502.686 5.50933 1.11488 0
M  V30 5196 H 494.837 2.0345 -0.610076 0
M  V30 5197 H 497.1 0.924034 -0.211813 0
M  V30 5198 H 496.806 3.51142 -0.19802 0
M  V30 5199 H 496.68 3.43851 1.55069 0
M  V30 5200 H 499.067 2.45101 1.64346 0
M  V30 5201 H 499.148 2.55513 -0.121034 0
M  V30 5202 H 498.792 5.07889 0.0338586 0
M  V30 5203 H 498.722 4.94553 1.809 0
M  V30 5204 H 501.213 3.66737 0.91173 0
M  V30 5205 H 501.526 7.62598 1.25155 0
M  V30 5206 H 499.871 6.85712 1.13241 0
M  V30 5207 H 503.062 4.56231 1.0474 0
M  V30 5208 H 503.235 6.36743 1.20259 0
M  V30 5209 N 496.642 -0.504142 1.49319 0
M  V30 5210 C 497.59 -1.62689 1.66238 0
M  V30 5211 C 498.584 -1.6095 0.528349 0
M  V30 5212 O 499.79 -1.65496 0.707887 0
M  V30 5213 H 496.165 -0.539247 0.524134 0
M  V30 5214 H 498.136 -1.45571 2.60484 0
M  V30 5215 C 496.885 -3.00841 1.74328 0
M  V30 5216 H 496.208 -3.02884 2.60963 0
M  V30 5217 H 497.648 -3.78945 1.90202 0
M  V30 5218 C 496.107 -3.33355 0.487416 0
M  V30 5219 O 496.637 -3.99819 -0.388294 0
M  V30 5220 N 494.843 -2.88469 0.351306 0
M  V30 5221 H 494.39 -2.34557 1.06492 0
M  V30 5222 H 494.348 -3.10591 -0.487899 0
M  V30 5223 N 498.12 -1.38341 -0.754957 0
M  V30 5224 C 499.345 -1.37882 -1.5493 0
M  V30 5225 C 499.77 0.0296385 -1.88077 0
M  V30 5226 O 499.128 1.01133 -1.50472 0
M  V30 5227 C 499.176 -2.23996 -2.82592 0
M  V30 5228 O 498.28 -1.65612 -3.77686 0
M  V30 5229 H 497.621 -0.470384 -0.468652 0
M  V30 5230 H 500.151 -1.82084 -0.933082 0
M  V30 5231 H 500.161 -2.37806 -3.3153 0
M  V30 5232 H 498.836 -3.26365 -2.57796 0
M  V30 5233 H 497.413 -1.60936 -3.36384 0
M  V30 5234 N 499.598 0.982988 -1.23187 0
M  V30 5235 C 500.875 1.69814 -0.970707 0
M  V30 5236 C 501.255 2.04811 0.511424 0
M  V30 5237 O 500.603 1.73924 1.48198 0
M  V30 5238 C 500.813 2.94143 -1.87831 0
M  V30 5239 C 502.161 3.66712 -2.14026 0
M  V30 5240 O 503.185 3.04171 -1.8536 0
M  V30 5241 O 502.044 4.79258 -2.62629 0
M  V30 5242 H 499.138 0.741659 -0.365884 0
M  V30 5243 H 501.684 1.03844 -1.34218 0
M  V30 5244 H 500.456 2.64858 -2.88038 0
M  V30 5245 H 500.079 3.6785 -1.50905 0
M  V30 5246 N 501.076 1.04316 1.18135 0
M  V30 5247 C 502.323 0.74802 1.88178 0
M  V30 5248 C 502.651 -0.72441 1.80506 0
M  V30 5249 O 501.906 -1.54463 1.20165 0
M  V30 5250 C 502.205 1.16271 3.37958 0
M  V30 5251 C 501.871 2.63585 3.65833 0
M  V30 5252 C 500.533 3.03829 3.73151 0
M  V30 5253 C 502.885 3.58822 3.78016 0
M  V30 5254 C 500.213 4.38194 3.90132 0
M  V30 5255 C 502.565 4.92909 3.96514 0
M  V30 5256 C 501.229 5.3282 4.02068 0
M  V30 5257 H 500.499 0.27372 0.688592 0
M  V30 5258 H 503.146 1.30863 1.39811 0
M  V30 5259 H 501.451 0.520938 3.88321 0
M  V30 5260 H 503.148 0.911672 3.90499 0
M  V30 5261 H 499.738 2.31414 3.60757 0
M  V30 5262 H 503.922 3.28875 3.71692 0
M  V30 5263 H 499.178 4.68631 3.92677 0
M  V30 5264 H 503.352 5.66606 4.04883 0
M  V30 5265 H 500.979 6.36943 4.14979 0
M  V30 5266 N 502.554 -1.34406 0.822964 0
M  V30 5267 C 503.517 -2.2783 0.250271 0
M  V30 5268 C 504.517 -1.50288 -0.571854 0
M  V30 5269 O 505.707 -1.69825 -0.387952 0
M  V30 5270 C 502.839 -3.34663 -0.649137 0
M  V30 5271 H 504.032 -2.79992 1.07444 0
M  V30 5272 H 501.585 -1.44539 0.594829 0
M  V30 5273 H 502.32 -2.87714 -1.49637 0
M  V30 5274 H 502.105 -3.92052 -0.0611199 0
M  V30 5275 H 503.595 -4.04349 -1.04363 0
M  V30 5276 N 504.032 -0.577932 -1.46621 0
M  V30 5277 C 505.281 -0.0594281 -2.01612 0
M  V30 5278 C 505.594 1.30663 -1.45556 0
M  V30 5279 O 506.8 1.91621 -1.92337 0
M  V30 5280 C 505.256 -0.0556666 -3.59857 0
M  V30 5281 C 504.864 -1.41975 -4.24908 0
M  V30 5282 C 506.608 0.409143 -4.22524 0
M  V30 5283 C 504.515 -1.37397 -5.75218 0
M  V30 5284 H 503.445 -0.0184469 -0.753774 0
M  V30 5285 H 506.096 -0.728869 -1.68404 0
M  V30 5286 H 504.478 0.679843 -3.90121 0
M  V30 5287 H 505.652 -2.17461 -4.0626 0
M  V30 5288 H 503.967 -1.82419 -3.74316 0
M  V30 5289 H 506.564 0.46211 -5.32699 0
M  V30 5290 H 506.907 1.42565 -3.91128 0
M  V30 5291 H 507.44 -0.272152 -3.96868 0
M  V30 5292 H 504.179 -2.36714 -6.11267 0
M  V30 5293 H 503.699 -0.661239 -5.96144 0
M  V30 5294 H 505.378 -1.08484 -6.3784 0
M  V30 5295 N 505.51 1.54411 -0.315457 0
M  V30 5296 C 506.738 2.04833 0.291738 0
M  V30 5297 C 507.153 1.19203 1.46411 0
M  V30 5298 O 506.51 0.220867 1.81159 0
M  V30 5299 C 506.561 3.53969 0.73404 0
M  V30 5300 O 506.282 4.36346 -0.391682 0
M  V30 5301 C 507.783 4.2045 1.40489 0
M  V30 5302 H 505.003 0.668195 0.0612947 0
M  V30 5303 H 507.547 1.99276 -0.45929 0
M  V30 5304 H 505.702 3.5984 1.43506 0
M  V30 5305 H 506.116 5.24481 -0.0447088 0
M  V30 5306 H 507.59 5.26278 1.66539 0
M  V30 5307 H 508.067 3.71067 2.3496 0
M  V30 5308 H 508.673 4.18694 0.746662 0
M  V30 5309 N 506.988 0.0434614 1.5754 0
M  V30 5310 C 507.951 -0.918696 2.09982 0
M  V30 5311 C 508.951 -1.24488 1.01781 0
M  V30 5312 O 510.141 -1.18284 1.27885 0
M  V30 5313 C 507.273 -2.23093 2.57764 0
M  V30 5314 H 508.466 -0.464229 2.96285 0
M  V30 5315 H 506.019 -0.204818 1.54952 0
M  V30 5316 H 506.754 -2.73137 1.74832 0
M  V30 5317 H 506.539 -2.00724 3.36827 0
M  V30 5318 H 508.029 -2.92028 2.98512 0
M  V30 5319 N 508.466 -1.55915 -0.229846 0
M  V30 5320 C 509.706 -1.80314 -0.962614 0
M  V30 5321 C 510.07 -0.61568 -1.81861 0
M  V30 5322 O 511.271 -0.738795 -2.58448 0
M  V30 5323 C 509.542 -3.0956 -1.78627 0
M  V30 5324 S 511.101 -3.55243 -2.57581 0
M  V30 5325 H 507.919 -0.633142 -0.323499 0
M  V30 5326 H 510.521 -1.94155 -0.228919 0
M  V30 5327 H 509.225 -3.94033 -1.14742 0
M  V30 5328 H 508.756 -2.98503 -2.56241 0
M  V30 5329 H 510.771 -3.17924 -3.80971 0
M  V30 5330 N 509.944 0.496216 -1.49584 0
M  V30 5331 C 511.172 1.27394 -1.63029 0
M  V30 5332 C 511.587 1.86344 -0.303569 0
M  V30 5333 O 510.944 1.68057 0.711547 0
M  V30 5334 C 510.995 2.40077 -2.70269 0
M  V30 5335 O 510.716 1.83549 -3.97796 0
M  V30 5336 C 512.217 3.31372 -2.94462 0
M  V30 5337 H 509.437 0.386211 -0.54871 0
M  V30 5338 H 511.981 0.595163 -1.95648 0
M  V30 5339 H 510.136 3.03775 -2.40415 0
M  V30 5340 H 510.55 2.57561 -4.56905 0
M  V30 5341 H 512.024 4.06707 -3.73221 0
M  V30 5342 H 512.501 3.88654 -2.0456 0
M  V30 5343 H 513.107 2.73435 -3.25751 0
M  V30 5344 N 511.423 1.38739 0.74761 0
M  V30 5345 C 512.669 1.3648 1.50814 0
M  V30 5346 C 513.024 -0.0431982 1.92351 0
M  V30 5347 O 512.317 -1.0071 1.62997 0
M  V30 5348 C 512.511 2.25992 2.7688 0
M  V30 5349 C 512.34 3.75354 2.47668 0
M  V30 5350 C 511.11 4.44348 2.40589 0
M  V30 5351 C 513.308 4.67642 2.14046 0
M  V30 5352 N 511.29 5.79114 2.03715 0
M  V30 5353 C 512.661 5.90965 1.87512 0
M  V30 5354 C 514.716 4.55787 2.00407 0
M  V30 5355 C 513.419 7.03759 1.48714 0
M  V30 5356 C 515.445 5.68491 1.63011 0
M  V30 5357 C 514.807 6.90879 1.37353 0
M  V30 5358 H 510.906 0.554695 0.551214 0
M  V30 5359 H 513.49 1.7418 0.870033 0
M  V30 5360 H 511.661 1.9047 3.3849 0
M  V30 5361 H 513.393 2.14815 3.42982 0
M  V30 5362 H 510.148 3.97634 2.57262 0
M  V30 5363 H 510.572 6.504 1.87906 0
M  V30 5364 H 515.214 3.61712 2.18916 0
M  V30 5365 H 512.932 7.97746 1.28945 0
M  V30 5366 H 516.518 5.613 1.53081 0
M  V30 5367 H 515.398 7.76609 1.08848 0
M  V30 5368 N 512.901 -0.976442 1.23707 0
M  V30 5369 C 514.129 -1.75341 1.09833 0
M  V30 5370 C 514.544 -1.8553 -0.349885 0
M  V30 5371 O 513.901 -1.33732 -1.24185 0
M  V30 5372 C 513.952 -3.17833 1.72233 0
M  V30 5373 O 513.673 -3.08167 3.11391 0
M  V30 5374 C 515.174 -4.11906 1.63853 0
M  V30 5375 H 512.394 -0.550137 0.384175 0
M  V30 5376 H 514.938 -1.2265 1.63638 0
M  V30 5377 H 513.093 -3.67538 1.22452 0
M  V30 5378 H 513.507 -3.97897 3.41729 0
M  V30 5379 H 514.981 -5.09579 2.12211 0
M  V30 5380 H 515.458 -4.35109 0.598092 0
M  V30 5381 H 516.064 -3.68107 2.13019 0
M  V30 5382 N 514.379 -1.04941 -1.1758 0
M  V30 5383 C 515.327 -0.64204 -2.23563 0
M  V30 5384 C 516.321 0.335453 -1.66045 0
M  V30 5385 O 517.527 0.20179 -1.78865 0
M  V30 5386 H 513.902 -0.18944 -0.727748 0
M  V30 5387 H 515.873 -1.54609 -2.55223 0
M  V30 5388 C 514.622 -0.0301051 -3.47687 0
M  V30 5389 H 513.945 -0.773339 -3.92249 0
M  V30 5390 H 515.385 0.217592 -4.23441 0
M  V30 5391 C 513.844 1.2225 -3.13937 0
M  V30 5392 O 514.374 2.3122 -3.28482 0
M  V30 5393 N 512.58 1.11917 -2.68185 0
M  V30 5394 H 512.127 0.232403 -2.5655 0
M  V30 5395 H 512.085 1.95814 -2.45976 0
M  V30 5396 N 515.857 1.33968 -0.830081 0
M  V30 5397 C 516.804 2.29387 -0.255008 0
M  V30 5398 C 517.774 1.53923 0.624243 0
M  V30 5399 O 518.959 1.82262 0.564372 0
M  V30 5400 C 516.099 3.4034 0.571209 0
M  V30 5401 C 515.212 4.30729 -0.331083 0
M  V30 5402 C 514.347 5.2879 0.505389 0
M  V30 5403 C 513.386 6.10819 -0.395843 0
M  V30 5404 N 512.523 7.00948 0.401979 0
M  V30 5405 H 517.363 2.77972 -1.07404 0
M  V30 5406 H 514.9 1.36785 -0.541133 0
M  V30 5407 H 516.858 4.03361 1.06562 0
M  V30 5408 H 515.488 2.9297 1.35529 0
M  V30 5409 H 514.54 3.68507 -0.943759 0
M  V30 5410 H 515.852 4.88181 -1.02377 0
M  V30 5411 H 515.006 5.97297 1.06399 0
M  V30 5412 H 513.745 4.71894 1.23155 0
M  V30 5413 H 512.75 5.41238 -0.966529 0
M  V30 5414 H 513.975 6.69797 -1.12023 0
M  V30 5415 H 511.921 6.46512 1.11168 0
M  V30 5416 H 511.838 7.55643 -0.232167 0
M  V30 5417 H 513.106 7.73774 0.943102 0
M  V30 5418 N 517.335 0.585699 1.46312 0
M  V30 5419 C 518.282 -0.145835 2.30339 0
M  V30 5420 C 519.252 -0.881215 1.40797 0
M  V30 5421 O 520.437 -0.871293 1.69744 0
M  V30 5422 C 517.577 -1.15161 3.25318 0
M  V30 5423 C 516.69 -0.419367 4.2996 0
M  V30 5424 C 515.825 -1.41293 5.12064 0
M  V30 5425 C 514.864 -0.667261 6.08452 0
M  V30 5426 N 514.001 -1.60903 6.83414 0
M  V30 5427 H 518.841 0.576755 2.92365 0
M  V30 5428 H 516.378 0.296237 1.44086 0
M  V30 5429 H 518.336 -1.74763 3.78832 0
M  V30 5430 H 516.966 -1.84188 2.65094 0
M  V30 5431 H 516.018 0.291751 3.7928 0
M  V30 5432 H 517.33 0.163433 4.98532 0
M  V30 5433 H 516.484 -2.08167 5.6987 0
M  V30 5434 H 515.223 -2.02966 4.43459 0
M  V30 5435 H 514.228 0.0152356 5.49798 0
M  V30 5436 H 515.453 -0.0558817 6.79077 0
M  V30 5437 H 513.399 -2.21381 6.17516 0
M  V30 5438 H 513.316 -1.07911 7.48259 0
M  V30 5439 H 514.584 -2.26802 7.45775 0
M  V30 5440 N 518.813 -1.54241 0.323641 0
M  V30 5441 C 520.059 -2.01572 -0.272089 0
M  V30 5442 C 520.414 -1.20774 -1.49771 0
M  V30 5443 O 519.707 -0.281821 -1.89516 0
M  V30 5444 C 519.901 -3.5129 -0.658031 0
M  V30 5445 C 519.73 -4.46582 0.528645 0
M  V30 5446 C 518.5 -4.94737 1.02777 0
M  V30 5447 C 520.698 -4.95416 1.38086 0
M  V30 5448 N 518.68 -5.73933 2.17885 0
M  V30 5449 C 520.051 -5.72537 2.3791 0
M  V30 5450 C 522.106 -4.77559 1.40861 0
M  V30 5451 C 520.809 -6.33702 3.40314 0
M  V30 5452 C 522.835 -5.39559 2.42136 0
M  V30 5453 C 522.197 -6.16532 3.40688 0
M  V30 5454 H 518.296 -0.779425 -0.0634072 0
M  V30 5455 H 520.88 -1.8922 0.458697 0
M  V30 5456 H 519.051 -3.63888 -1.35795 0
M  V30 5457 H 520.783 -3.85388 -1.23524 0
M  V30 5458 H 517.538 -4.69796 0.599046 0
M  V30 5459 H 517.962 -6.18209 2.75947 0
M  V30 5460 H 522.604 -4.17611 0.660352 0
M  V30 5461 H 520.322 -6.9277 4.16047 0
M  V30 5462 H 523.908 -5.27659 2.45086 0
M  V30 5463 H 522.788 -6.63655 4.1777 0
M  V30 5464 N 520.291 -0.0518155 -1.57515 0
M  V30 5465 C 521.702 0.483787 -1.80323 0
M  V30 5466 C 522.053 1.70879 -0.964099 0
M  V30 5467 O 521.178 2.15643 -0.180872 0
M  V30 5468 C 521.773 0.884459 -3.27052 0
M  V30 5469 C 520.332 1.36504 -3.50776 0
M  V30 5470 C 519.479 0.340539 -2.75201 0
M  V30 5471 H 522.43 -0.277691 -1.56252 0
M  V30 5472 H 522.451 1.74733 -3.38007 0
M  V30 5473 H 521.963 -0.00731093 -3.88099 0
M  V30 5474 H 520.064 2.27598 -2.95009 0
M  V30 5475 H 520.177 1.35675 -4.59488 0
M  V30 5476 H 518.541 0.81356 -2.41357 0
M  V30 5477 H 519.324 -0.543156 -3.38976 0
M  V30 5478 N 521.769 1.56035 0.221574 0
M  V30 5479 C 522.719 1.8881 1.27807 0
M  V30 5480 C 523.703 0.751177 1.42289 0
M  V30 5481 O 524.895 1.01359 1.45104 0
M  V30 5482 C 522.024 2.20828 2.6285 0
M  V30 5483 C 521.11 3.40912 2.52269 0
M  V30 5484 N 521.501 4.59531 2.1134 0
M  V30 5485 C 519.799 3.44526 2.83228 0
M  V30 5486 C 520.5 5.41689 2.1201 0
M  V30 5487 N 519.476 4.814 2.52497 0
M  V30 5488 H 523.278 2.78036 0.952529 0
M  V30 5489 H 520.792 1.566 0.430134 0
M  V30 5490 H 522.789 2.42483 3.39127 0
M  V30 5491 H 521.449 1.32914 2.9625 0
M  V30 5492 H 522.46 4.8469 1.82472 0
M  V30 5493 H 519.137 2.66956 3.21 0
M  V30 5494 H 520.527 6.46643 1.82491 0
M  V30 5495 N 523.247 -0.488276 1.49845 0
M  V30 5496 C 524.21 -1.57069 1.66919 0
M  V30 5497 C 525.21 -1.51445 0.540479 0
M  V30 5498 O 526.4 -1.5437 0.807188 0
M  V30 5499 C 523.532 -2.96718 1.67844 0
M  V30 5500 H 524.725 -1.43254 2.63474 0
M  V30 5501 H 522.278 -0.713435 1.39068 0
M  V30 5502 H 523.013 -3.15996 0.7292 0
M  V30 5503 H 522.798 -3.02208 2.49826 0
M  V30 5504 H 524.288 -3.75335 1.83066 0
M  V30 5505 N 524.725 -1.39134 -0.740242 0
M  V30 5506 C 525.688 -1.37217 -1.83587 0
M  V30 5507 C 526.688 -0.270221 -1.58513 0
M  V30 5508 O 527.878 -0.527843 -1.6601 0
M  V30 5509 C 525.01 -1.13959 -3.21288 0
M  V30 5510 H 526.203 -2.34705 -1.86691 0
M  V30 5511 H 523.756 -1.24622 -0.94335 0
M  V30 5512 H 524.491 -0.17131 -3.23847 0
M  V30 5513 H 524.276 -1.93754 -3.40884 0
M  V30 5514 H 525.766 -1.15346 -4.01354 0
M  V30 5515 N 526.204 0.969867 -1.24223 0
M  V30 5516 C 527.615 1.52717 -1.07399 0
M  V30 5517 C 527.966 1.92956 0.355298 0
M  V30 5518 O 527.091 1.77112 1.2434 0
M  V30 5519 C 527.686 2.77521 -1.94339 0
M  V30 5520 C 526.245 3.29615 -1.81744 0
M  V30 5521 C 525.392 2.02537 -1.89405 0
M  V30 5522 H 528.343 0.788399 -1.37732 0
M  V30 5523 H 528.364 3.50773 -1.47439 0
M  V30 5524 H 527.876 2.48203 -2.98357 0
M  V30 5525 H 525.977 3.63789 -0.805505 0
M  V30 5526 H 526.09 3.98661 -2.65718 0
M  V30 5527 H 524.454 2.17151 -1.33108 0
M  V30 5528 H 525.237 1.75587 -2.94999 0
M  V30 5529 N 527.682 1.05563 1.17022 0
M  V30 5530 C 528.592 0.670758 2.24807 0
M  V30 5531 C 529.608 -0.309865 1.71219 0
M  V30 5532 O 530.784 -0.161025 2.00755 0
M  V30 5533 C 527.849 0.055337 3.46656 0
M  V30 5534 C 526.91 1.08688 4.15314 0
M  V30 5535 C 526.143 0.500736 5.31346 0
M  V30 5536 O 526.366 -0.688718 5.66227 0
M  V30 5537 O 525.3 1.23683 5.89055 0
M  V30 5538 H 529.126 1.56914 2.60023 0
M  V30 5539 H 526.711 0.827428 1.24395 0
M  V30 5540 H 528.593 -0.286492 4.20425 0
M  V30 5541 H 527.268 -0.816638 3.13229 0
M  V30 5542 H 526.175 1.48077 3.43546 0
M  V30 5543 H 527.508 1.93014 4.52777 0
M  V30 5544 N 529.16 -1.33526 0.837174 0
M  V30 5545 C 530.408 -1.97446 0.431211 0
M  V30 5546 C 530.729 -1.6665 -1.01255 0
M  V30 5547 O 529.999 -0.964559 -1.70508 0
M  V30 5548 H 528.579 -0.73043 0.156463 0
M  V30 5549 H 531.241 -1.62918 1.06976 0
M  V30 5550 H 530.337 -3.07001 0.561877 0
M  V30 5551 N 530.638 -0.59345 -1.46 0
M  V30 5552 C 531.585 0.133618 -2.30413 0
M  V30 5553 C 532.555 0.873736 -1.41262 0
M  V30 5554 O 533.74 0.862279 -1.70204 0
M  V30 5555 C 530.88 1.13434 -3.25924 0
M  V30 5556 C 529.993 0.39656 -4.30176 0
M  V30 5557 C 529.128 1.38575 -5.12806 0
M  V30 5558 C 528.167 0.634984 -6.08797 0
M  V30 5559 N 527.304 1.57276 -6.84258 0
M  V30 5560 H 532.144 -0.592252 -2.92055 0
M  V30 5561 H 529.681 -0.303874 -1.43927 0
M  V30 5562 H 531.639 1.72752 -3.79753 0
M  V30 5563 H 530.269 1.82779 -2.66067 0
M  V30 5564 H 529.321 -0.311861 -3.79119 0
M  V30 5565 H 530.633 -0.189869 -4.98438 0
M  V30 5566 H 529.787 2.05141 -5.70966 0
M  V30 5567 H 528.526 2.00611 -4.44529 0
M  V30 5568 H 527.531 -0.0443925 -5.49782 0
M  V30 5569 H 528.756 0.0198678 -6.79097 0
M  V30 5570 H 526.702 2.18103 -6.18682 0
M  V30 5571 H 526.619 1.03941 -7.48821 0
M  V30 5572 H 527.887 2.22844 -7.46968 0
M  V30 5573 N 532.116 1.54067 -0.331816 0
M  V30 5574 C 533.344 2.05131 0.269996 0
M  V30 5575 C 533.759 1.20749 1.45138 0
M  V30 5576 O 533.116 0.240069 1.80914 0
M  V30 5577 C 533.167 3.54728 0.696456 0
M  V30 5578 O 532.888 4.35906 -0.43794 0
M  V30 5579 C 534.389 4.21916 1.36021 0
M  V30 5580 H 531.609 0.668807 0.0542042 0
M  V30 5581 H 534.153 1.98777 -0.4804 0
M  V30 5582 H 532.308 3.61342 1.39681 0
M  V30 5583 H 532.722 5.24404 -0.100334 0
M  V30 5584 H 534.196 5.28015 1.60947 0
M  V30 5585 H 534.673 3.73538 2.31011 0
M  V30 5586 H 535.279 4.19463 0.702212 0
M  V30 5587 N 533.594 0.0601682 1.57485 0
M  V30 5588 C 534.524 -0.90889 2.15085 0
M  V30 5589 C 535.505 -1.31838 1.07484 0
M  V30 5590 O 536.69 -1.3915 1.35466 0
M  V30 5591 C 533.82 -2.18059 2.7031 0
M  V30 5592 C 532.774 -1.91088 3.82974 0
M  V30 5593 C 532.1 -3.24789 4.24754 0
M  V30 5594 C 533.4 -1.22535 5.07723 0
M  V30 5595 H 535.094 -0.429093 2.96309 0
M  V30 5596 H 532.64 -0.204952 1.42534 0
M  V30 5597 H 534.593 -2.86258 3.09248 0
M  V30 5598 H 533.317 -2.6826 1.8629 0
M  V30 5599 H 531.976 -1.25297 3.44523 0
M  V30 5600 H 531.624 -3.72809 3.37672 0
M  V30 5601 H 531.324 -3.07538 5.00694 0
M  V30 5602 H 532.848 -3.94205 4.66299 0
M  V30 5603 H 534.262 -1.80783 5.4405 0
M  V30 5604 H 532.659 -1.1558 5.88864 0
M  V30 5605 H 533.729 -0.202692 4.84476 0
M  V30 5606 N 535.072 -1.5615 -0.213296 0
M  V30 5607 C 536.002 -1.96109 -1.26742 0
M  V30 5608 C 536.983 -0.830448 -1.48451 0
M  V30 5609 O 538.168 -1.09339 -1.60495 0
M  V30 5610 C 535.298 -2.28492 -2.61551 0
M  V30 5611 C 534.252 -3.44124 -2.54485 0
M  V30 5612 C 533.578 -3.62134 -3.93399 0
M  V30 5613 C 534.878 -4.78855 -2.08556 0
M  V30 5614 H 536.572 -2.84412 -0.935434 0
M  V30 5615 H 534.118 -1.36836 -0.44854 0
M  V30 5616 H 536.071 -2.55039 -3.3546 0
M  V30 5617 H 534.795 -1.37052 -2.96453 0
M  V30 5618 H 533.454 -3.17639 -1.83033 0
M  V30 5619 H 533.102 -2.68055 -4.25623 0
M  V30 5620 H 532.802 -4.39913 -3.89551 0
M  V30 5621 H 534.326 -3.91038 -4.68958 0
M  V30 5622 H 535.74 -5.04552 -2.72213 0
M  V30 5623 H 534.137 -5.59975 -2.1575 0
M  V30 5624 H 535.207 -4.73657 -1.03811 0
M  V30 5625 N 536.55 0.480323 -1.50102 0
M  V30 5626 C 537.966 0.813295 -1.37323 0
M  V30 5627 C 538.166 1.97027 -0.422206 0
M  V30 5628 O 537.222 2.5212 0.138563 0
M  V30 5629 C 538.535 1.13404 -2.78496 0
M  V30 5630 C 540.083 1.24104 -2.87345 0
M  V30 5631 C 540.558 1.59497 -4.29331 0
M  V30 5632 N 542.049 1.66507 -4.32238 0
M  V30 5633 C 542.784 1.95378 -5.39087 0
M  V30 5634 N 542.28 2.22333 -6.56155 0
M  V30 5635 N 544.073 1.96803 -5.26522 0
M  V30 5636 H 536.224 -0.282291 -2.10516 0
M  V30 5637 H 538.487 -0.063752 -0.945854 0
M  V30 5638 H 538.193 0.357064 -3.49883 0
M  V30 5639 H 538.067 2.07251 -3.15162 0
M  V30 5640 H 540.454 2.00871 -2.16183 0
M  V30 5641 H 540.535 0.282593 -2.54234 0
M  V30 5642 H 540.179 0.832736 -5.01027 0
M  V30 5643 H 540.109 2.56477 -4.59921 0
M  V30 5644 H 542.6 1.47753 -3.47818 0
M  V30 5645 H 542.913 2.43611 -7.33399 0
M  V30 5646 H 541.258 2.19745 -6.59346 0
M  V30 5647 H 544.449 1.75235 -4.34062 0
M  V30 5648 H 544.622 2.18969 -6.09883 0
M  V30 5649 N 538.028 1.39524 0.732853 0
M  V30 5650 C 538.991 1.38189 1.82857 0
M  V30 5651 C 539.991 0.278624 1.58368 0
M  V30 5652 O 541.181 0.536639 1.65728 0
M  V30 5653 C 538.313 1.15661 3.2068 0
M  V30 5654 H 539.506 2.35692 1.85444 0
M  V30 5655 H 537.059 1.2512 0.936728 0
M  V30 5656 H 537.794 0.188482 3.23752 0
M  V30 5657 H 537.579 1.95559 3.39852 0
M  V30 5658 H 539.069 1.17472 4.00737 0
M  V30 5659 N 539.506 -0.963266 1.24736 0
M  V30 5660 C 540.736 -1.73913 1.11524 0
M  V30 5661 C 541.144 -1.86218 -0.334612 0
M  V30 5662 O 540.487 -1.3531 -1.24245 0
M  V30 5663 C 540.549 -3.17501 1.68622 0
M  V30 5664 C 540.213 -3.28655 3.17546 0
M  V30 5665 C 541.21 -3.13637 4.14642 0
M  V30 5666 C 538.895 -3.52753 3.5759 0
M  V30 5667 C 540.889 -3.2255 5.49764 0
M  V30 5668 C 538.576 -3.61303 4.92852 0
M  V30 5669 C 539.574 -3.46214 5.88748 0
M  V30 5670 O 539.262 -3.5443 7.2155 0
M  V30 5671 H 538.994 -0.552057 0.390139 0
M  V30 5672 H 541.548 -1.2177 1.65412 0
M  V30 5673 H 539.778 -3.70969 1.09172 0
M  V30 5674 H 541.467 -3.76914 1.50635 0
M  V30 5675 H 542.233 -2.94899 3.85045 0
M  V30 5676 H 538.112 -3.63561 2.83451 0
M  V30 5677 H 541.656 -3.1069 6.24594 0
M  V30 5678 H 537.553 -3.79556 5.22118 0
M  V30 5679 H 538.321 -3.71116 7.29531 0
M  V30 5680 N 540.985 -1.06182 -1.16461 0
M  V30 5681 C 542.231 -0.779015 -1.87241 0
M  V30 5682 C 542.564 0.692715 -1.81425 0
M  V30 5683 O 541.839 1.5074 -1.22913 0
M  V30 5684 C 542.122 -1.2728 -3.36856 0
M  V30 5685 C 541.975 -2.80821 -3.51368 0
M  V30 5686 C 543.294 -0.879799 -4.31216 0
M  V30 5687 H 540.413 -0.284464 -0.679889 0
M  V30 5688 H 543.055 -1.31755 -1.36896 0
M  V30 5689 H 541.205 -0.814673 -3.79862 0
M  V30 5690 H 542.877 -3.34833 -3.17308 0
M  V30 5691 H 541.12 -3.19606 -2.93316 0
M  V30 5692 H 541.791 -3.10435 -4.56436 0
M  V30 5693 H 544.267 -1.27436 -3.96105 0
M  V30 5694 H 543.143 -1.25278 -5.34412 0
M  V30 5695 H 543.404 0.215372 -4.41575 0
M  V30 5696 N 542.463 1.3308 -0.844243 0
M  V30 5697 C 543.711 1.97215 -0.441676 0
M  V30 5698 C 544.032 1.67185 1.0037 0
M  V30 5699 O 543.302 0.973588 1.69994 0
M  V30 5700 H 541.882 0.72959 -0.160335 0
M  V30 5701 H 544.544 1.62348 -1.07838 0
M  V30 5702 H 543.64 3.06698 -0.57815 0
M  V30 5703 N 543.941 0.601185 1.45683 0
M  V30 5704 C 544.888 -0.121396 2.30481 0
M  V30 5705 C 545.858 -0.866232 1.41724 0
M  V30 5706 O 547.043 -0.85324 1.70659 0
M  V30 5707 C 544.183 -1.11704 3.26521 0
M  V30 5708 C 543.296 -0.373741 4.3038 0
M  V30 5709 C 542.431 -1.35854 5.13534 0
M  V30 5710 C 541.47 -0.602689 6.09126 0
M  V30 5711 N 540.607 -1.53645 6.85082 0
M  V30 5712 H 545.447 0.607732 2.91737 0
M  V30 5713 H 542.984 0.311502 1.43764 0
M  V30 5714 H 544.942 -1.70735 3.80664 0
M  V30 5715 H 543.572 -1.81366 2.67032 0
M  V30 5716 H 542.624 0.331962 3.78949 0
M  V30 5717 H 543.936 0.2163 4.98331 0
M  V30 5718 H 543.09 -2.02111 5.72046 0
M  V30 5719 H 541.829 -1.98251 4.45587 0
M  V30 5720 H 540.834 0.0735482 5.49751 0
M  V30 5721 H 542.059 0.0161467 6.79098 0
M  V30 5722 H 540.005 -2.14819 6.1983 0
M  V30 5723 H 539.922 -0.999688 7.49361 0
M  V30 5724 H 541.19 -2.1888 7.48139 0
M  V30 5725 N 545.419 -1.53889 0.339982 0
M  V30 5726 C 546.382 -2.23547 -0.50592 0
M  V30 5727 C 547.382 -1.23445 -1.03044 0
M  V30 5728 O 548.572 -1.47909 -0.920253 0
M  V30 5729 C 545.704 -2.95234 -1.7044 0
M  V30 5730 H 546.897 -2.99722 0.103247 0
M  V30 5731 H 544.45 -1.56033 0.0912804 0
M  V30 5732 H 545.185 -2.23236 -2.35236 0
M  V30 5733 H 544.97 -3.68654 -1.33553 0
M  V30 5734 H 546.46 -3.48258 -2.30447 0
M  V30 5735 N 546.897 -0.0685191 -1.57451 0
M  V30 5736 C 548.145 0.60016 -1.92983 0
M  V30 5737 C 548.466 1.70348 -0.949028 0
M  V30 5738 O 547.736 1.959 0.00335647 0
M  V30 5739 H 546.316 0.224682 -0.712409 0
M  V30 5740 H 548.978 -0.125605 -1.94495 0
M  V30 5741 H 548.074 1.02759 -2.94698 0
M  V30 5742 N 548.375 1.56261 0.205012 0
M  V30 5743 C 549.652 1.70856 0.952233 0
M  V30 5744 C 550.032 0.620501 2.01775 0
M  V30 5745 O 549.38 -0.370035 2.25484 0
M  V30 5746 C 549.59 3.12807 1.54767 0
M  V30 5747 C 550.938 3.72733 2.0336 0
M  V30 5748 O 551.962 3.15873 1.64629 0
M  V30 5749 O 550.821 4.72501 2.746 0
M  V30 5750 H 547.915 0.696496 0.445895 0
M  V30 5751 H 550.461 1.6857 0.195489 0
M  V30 5752 H 549.233 3.83465 0.779132 0
M  V30 5753 H 548.856 3.1928 2.36951 0
M  V30 5754 N 549.853 -0.472356 1.50355 0
M  V30 5755 C 550.763 -1.59637 1.7191 0
M  V30 5756 C 551.779 -1.63247 0.602195 0
M  V30 5757 O 552.955 -1.81139 0.880369 0
M  V30 5758 C 550.02 -2.9586 1.80742 0
M  V30 5759 C 549.081 -3.02649 3.04471 0
M  V30 5760 C 548.314 -4.32374 3.12872 0
M  V30 5761 O 548.537 -5.22807 2.28099 0
M  V30 5762 O 547.471 -4.44728 4.05587 0
M  V30 5763 H 551.297 -1.44373 2.67189 0
M  V30 5764 H 548.882 -0.651717 1.34436 0
M  V30 5765 H 550.764 -3.7677 1.88739 0
M  V30 5766 H 549.439 -3.11325 0.88647 0
M  V30 5767 H 548.346 -2.20821 3.01975 0
M  V30 5768 H 549.679 -2.92119 3.9614 0
M  V30 5769 N 551.331 -1.39911 -0.725443 0
M  V30 5770 C 552.556 -1.41137 -1.5197 0
M  V30 5771 C 552.981 -0.010262 -1.88097 0
M  V30 5772 O 552.339 0.979184 -1.52583 0
M  V30 5773 C 552.387 -2.2994 -2.77777 0
M  V30 5774 O 551.491 -1.73586 -3.74088 0
M  V30 5775 H 550.832 -0.480219 -0.458569 0
M  V30 5776 H 553.362 -1.84023 -0.894249 0
M  V30 5777 H 553.372 -2.44785 -3.26411 0
M  V30 5778 H 552.047 -3.31759 -2.50816 0
M  V30 5779 H 550.624 -1.68035 -3.32894 0
M  V30 5780 N 552.809 0.956637 -1.25245 0
M  V30 5781 C 554.058 1.69537 -1.0927 0
M  V30 5782 C 554.371 1.92136 0.366503 0
M  V30 5783 O 555.577 2.63687 0.64665 0
M  V30 5784 C 554.033 3.05211 -1.9072 0
M  V30 5785 C 553.641 2.90416 -3.41119 0
M  V30 5786 C 555.385 3.82882 -1.83308 0
M  V30 5787 C 553.292 4.21468 -4.14872 0
M  V30 5788 H 552.222 0.635804 -0.405302 0
M  V30 5789 H 554.873 1.06513 -1.49423 0
M  V30 5790 H 553.255 3.69128 -1.43389 0
M  V30 5791 H 554.429 2.35444 -3.9611 0
M  V30 5792 H 552.744 2.26203 -3.49602 0
M  V30 5793 H 555.341 4.79944 -2.35706 0
M  V30 5794 H 555.684 4.0853 -0.800572 0
M  V30 5795 H 556.217 3.25711 -2.28379 0
M  V30 5796 H 552.956 4.01009 -5.18529 0
M  V30 5797 H 552.476 4.76213 -3.64665 0
M  V30 5798 H 554.155 4.90022 -4.22478 0
M  V30 5799 N 554.287 1.06798 1.15896 0
M  V30 5800 C 555.533 0.788934 1.86825 0
M  V30 5801 C 555.866 -0.683084 1.8179 0
M  V30 5802 O 555.141 -1.50086 1.23711 0
M  V30 5803 C 555.424 1.29065 3.36176 0
M  V30 5804 C 555.277 2.8268 3.49874 0
M  V30 5805 C 556.596 0.902655 4.30744 0
M  V30 5806 H 553.715 0.288066 0.678371 0
M  V30 5807 H 556.357 1.32479 1.36195 0
M  V30 5808 H 554.507 0.834806 3.79425 0
M  V30 5809 H 556.179 3.36511 3.15528 0
M  V30 5810 H 554.422 3.21157 2.91617 0
M  V30 5811 H 555.093 3.12852 4.54783 0
M  V30 5812 H 557.569 1.29535 3.95424 0
M  V30 5813 H 556.445 1.28111 5.3374 0
M  V30 5814 H 556.706 -0.191951 4.41683 0
M  V30 5815 N 555.766 -1.3263 0.851289 0
M  V30 5816 C 557.043 -1.91982 0.374448 0
M  V30 5817 C 557.423 -1.77568 -1.14161 0
M  V30 5818 O 556.771 -1.1717 -1.96172 0
M  V30 5819 C 556.981 -3.38862 0.835088 0
M  V30 5820 C 558.329 -4.15999 0.850309 0
M  V30 5821 O 559.353 -3.47566 0.779505 0
M  V30 5822 O 558.212 -5.38189 0.949481 0
M  V30 5823 H 555.306 -0.819846 0.10854 0
M  V30 5824 H 557.852 -1.41422 0.937966 0
M  V30 5825 H 556.624 -3.43281 1.87814 0
M  V30 5826 H 556.247 -3.96821 0.248833 0
M  V30 5827 N 557.244 -0.608902 -1.45362 0
M  V30 5828 C 558.174 0.0964526 -2.33301 0
M  V30 5829 C 559.155 0.857444 -1.46908 0
M  V30 5830 O 560.34 0.827735 -1.75676 0
M  V30 5831 C 557.47 1.09354 -3.29635 0
M  V30 5832 C 556.424 0.445676 -4.25673 0
M  V30 5833 C 555.75 1.5511 -5.11708 0
M  V30 5834 C 557.05 -0.633972 -5.18438 0
M  V30 5835 H 558.744 -0.637829 -2.92527 0
M  V30 5836 H 556.29 -0.308178 -1.40664 0
M  V30 5837 H 558.243 1.59556 -3.90025 0
M  V30 5838 H 556.967 1.85843 -2.6857 0
M  V30 5839 H 555.626 -0.0354897 -3.66583 0
M  V30 5840 H 555.274 2.30631 -4.4701 0
M  V30 5841 H 554.974 1.12311 -5.76767 0
M  V30 5842 H 556.498 2.05537 -5.74967 0
M  V30 5843 H 557.912 -0.215974 -5.72893 0
M  V30 5844 H 556.309 -0.983789 -5.91981 0
M  V30 5845 H 557.379 -1.51005 -4.60788 0
M  V30 5846 N 558.722 1.53707 -0.348139 0
M  V30 5847 C 559.947 2.05877 0.250883 0
M  V30 5848 C 560.372 1.22115 1.43072 0
M  V30 5849 O 559.73 0.235986 1.79758 0
M  V30 5850 C 559.778 3.54886 0.639416 0
M  V30 5851 O 558.882 3.73948 1.73888 0
M  V30 5852 H 558.223 0.662754 0.040653 0
M  V30 5853 H 560.753 1.98303 -0.503685 0
M  V30 5854 H 560.763 3.97601 0.915295 0
M  V30 5855 H 559.438 4.153 -0.223386 0
M  V30 5856 H 558.015 3.43134 1.45991 0
M  V30 5857 N 560.2 0.0768682 1.57412 0
M  V30 5858 C 561.477 -0.632359 1.85096 0
M  V30 5859 C 561.857 -1.87479 0.9703 0
M  V30 5860 O 561.205 -2.28469 0.0379062 0
M  V30 5861 C 561.415 -0.965174 3.35388 0
M  V30 5862 C 562.763 -1.33648 4.03018 0
M  V30 5863 O 563.787 -1.05675 3.40164 0
M  V30 5864 O 562.646 -1.85959 5.13889 0
M  V30 5865 H 559.74 -0.314574 0.764835 0
M  V30 5866 H 562.286 0.108184 1.69355 0
M  V30 5867 H 561.058 -0.0829745 3.91212 0
M  V30 5868 H 560.681 -1.76231 3.5641 0
M  V30 5869 N 561.678 -1.56367 -0.196722 0
M  V30 5870 C 562.626 -1.95304 -1.2633 0
M  V30 5871 C 563.62 -0.838252 -1.47206 0
M  V30 5872 O 564.826 -1.02325 -1.48087 0
M  V30 5873 H 561.201 -0.621013 -0.424083 0
M  V30 5874 H 563.172 -2.84254 -0.907879 0
M  V30 5875 C 561.921 -2.3074 -2.60104 0
M  V30 5876 H 561.244 -3.16047 -2.44856 0
M  V30 5877 H 562.684 -2.61849 -3.33484 0
M  V30 5878 C 561.143 -1.14143 -3.16975 0
M  V30 5879 O 561.673 -0.415602 -3.99544 0
M  V30 5880 N 559.879 -0.91867 -2.75697 0
M  V30 5881 H 559.426 -1.51065 -2.08656 0
M  V30 5882 H 559.384 -0.140321 -3.14087 0
M  V30 5883 N 563.156 0.464375 -1.50603 0
M  V30 5884 C 564.433 1.22549 -1.5245 0
M  V30 5885 C 564.813 2.09327 -0.273035 0
M  V30 5886 O 564.161 2.16074 0.743242 0
M  V30 5887 C 564.371 2.05074 -2.82393 0
M  V30 5888 C 565.719 2.63036 -3.33313 0
M  V30 5889 O 566.743 2.1531 -2.8376 0
M  V30 5890 O 565.602 3.5001 -4.19709 0
M  V30 5891 H 562.696 0.556471 -0.611775 0
M  V30 5892 H 565.242 0.475648 -1.62898 0
M  V30 5893 H 564.014 1.41169 -3.64948 0
M  V30 5894 H 563.637 2.87179 -2.7498 0
M  V30 5895 N 564.634 1.40294 0.718013 0
M  V30 5896 C 565.883 1.37746 1.4734 0
M  V30 5897 C 566.196 -0.0180754 1.95592 0
M  V30 5898 O 567.402 -0.166166 2.70991 0
M  V30 5899 C 565.858 2.4208 2.66318 0
M  V30 5900 C 565.466 3.87432 2.24945 0
M  V30 5901 C 567.21 2.48635 3.44065 0
M  V30 5902 C 565.117 4.83368 3.40748 0
M  V30 5903 H 564.047 0.512165 0.553356 0
M  V30 5904 H 566.698 1.66019 0.781661 0
M  V30 5905 H 565.08 2.06903 3.3765 0
M  V30 5906 H 566.254 4.3174 1.6105 0
M  V30 5907 H 564.569 3.8433 1.60249 0
M  V30 5908 H 567.166 3.17499 4.30231 0
M  V30 5909 H 567.509 1.51611 3.87711 0
M  V30 5910 H 568.042 2.82791 2.79775 0
M  V30 5911 H 564.781 5.81716 3.02136 0
M  V30 5912 H 564.301 4.43726 4.03568 0
M  V30 5913 H 565.98 5.03074 4.06848 0
M  V30 5914 N 566.112 -0.949982 1.2575 0
M  V30 5915 C 567.361 -1.68956 1.10168 0
M  V30 5916 C 567.674 -1.92327 -0.356309 0
M  V30 5917 O 568.88 -2.64026 -0.632657 0
M  V30 5918 C 567.336 -3.04196 1.92336 0
M  V30 5919 C 566.944 -2.88603 3.42655 0
M  V30 5920 C 568.688 -3.81904 1.85336 0
M  V30 5921 C 566.595 -4.19262 4.17101 0
M  V30 5922 H 565.525 -0.633645 0.408668 0
M  V30 5923 H 568.176 -1.05719 1.49986 0
M  V30 5924 H 566.558 -3.68363 1.45344 0
M  V30 5925 H 567.732 -2.3334 3.97353 0
M  V30 5926 H 566.047 -2.24345 3.50796 0
M  V30 5927 H 568.644 -4.78688 2.38248 0
M  V30 5928 H 568.987 -4.08099 0.822226 0
M  V30 5929 H 569.52 -3.24495 2.30104 0
M  V30 5930 H 566.259 -3.98254 5.20648 0
M  V30 5931 H 565.779 -4.74273 3.67186 0
M  V30 5932 H 567.458 -4.87775 4.25071 0
M  V30 5933 N 567.59 -1.07411 -1.15328 0
M  V30 5934 C 568.538 -0.689316 -2.22151 0
M  V30 5935 C 569.532 0.300156 -1.6672 0
M  V30 5936 O 570.738 0.163804 -1.79253 0
M  V30 5937 H 567.113 -0.204834 -0.723566 0
M  V30 5938 H 569.084 -1.59988 -2.51886 0
M  V30 5939 C 567.833 -0.103848 -3.47545 0
M  V30 5940 H 567.156 -0.856367 -3.90521 0
M  V30 5941 H 568.596 0.127725 -4.23808 0
M  V30 5942 C 567.055 1.15563 -3.1646 0
M  V30 5943 O 567.585 2.242 -3.33312 0
M  V30 5944 N 565.791 1.06203 -2.70498 0
M  V30 5945 H 565.338 0.177933 -2.56985 0
M  V30 5946 H 565.296 1.90553 -2.50074 0
M  V30 5947 N 569.068 1.32177 -0.85831 0
M  V30 5948 C 570.317 1.96392 -0.459689 0
M  V30 5949 C 570.63 1.68659 0.990632 0
M  V30 5950 O 571.836 2.26641 1.49485 0
M  V30 5951 C 570.292 3.51542 -0.7711 0
M  V30 5952 C 569.9 3.8813 -2.2374 0
M  V30 5953 C 571.644 4.2221 -0.44038 0
M  V30 5954 C 569.551 5.36341 -2.49183 0
M  V30 5955 H 568.481 0.735007 -0.168169 0
M  V30 5956 H 571.132 1.50518 -1.0496 0
M  V30 5957 H 569.514 3.95846 -0.11058 0
M  V30 5958 H 570.688 3.54824 -2.94001 0
M  V30 5959 H 569.003 3.30497 -2.533 0
M  V30 5960 H 571.6 5.31234 -0.607855 0
M  V30 5961 H 571.943 4.11683 0.618291 0
M  V30 5962 H 572.476 3.83502 -1.05695 0
M  V30 5963 H 569.215 5.51892 -3.53689 0
M  V30 5964 H 568.735 5.7104 -1.83504 0
M  V30 5965 H 570.414 6.03466 -2.33318 0
M  V30 5966 N 570.547 0.616602 1.45037 0
M  V30 5967 C 571.793 0.115501 2.02471 0
M  V30 5968 C 572.126 -1.25406 1.4828 0
M  V30 5969 O 571.401 -1.82922 0.661051 0
M  V30 5970 C 571.684 0.0863588 3.59996 0
M  V30 5971 C 571.537 1.48723 4.24501 0
M  V30 5972 C 572.856 -0.596762 4.36035 0
M  V30 5973 H 569.975 0.0434461 0.735718 0
M  V30 5974 H 572.617 0.7903 1.72784 0
M  V30 5975 H 570.767 -0.488277 3.85419 0
M  V30 5976 H 572.439 2.10964 4.10234 0
M  V30 5977 H 570.682 2.04534 3.82555 0
M  V30 5978 H 571.353 1.419 5.3345 0
M  V30 5979 H 573.829 -0.10824 4.15959 0
M  V30 5980 H 572.705 -0.586289 5.4576 0
M  V30 5981 H 572.966 -1.66451 4.09569 0
M  V30 5982 N 572.025 -1.5352 0.356285 0
M  V30 5983 C 572.955 -2.28372 -0.486661 0
M  V30 5984 C 573.936 -1.30432 -1.09185 0
M  V30 5985 O 575.121 -1.59291 -1.11085 0
M  V30 5986 C 572.251 -3.06604 -1.63129 0
M  V30 5987 C 571.205 -4.12154 -1.15381 0
M  V30 5988 C 570.531 -4.78415 -2.38796 0
M  V30 5989 C 571.831 -5.21724 -0.245179 0
M  V30 5990 H 573.525 -2.99083 0.137797 0
M  V30 5991 H 571.071 -1.43841 0.0677134 0
M  V30 5992 H 573.024 -3.57712 -2.22755 0
M  V30 5993 H 571.748 -2.33568 -2.28284 0
M  V30 5994 H 570.407 -3.61978 -0.580294 0
M  V30 5995 H 570.055 -4.01959 -3.02387 0
M  V30 5996 H 569.755 -5.49734 -2.07524 0
M  V30 5997 H 571.279 -5.32313 -2.99125 0
M  V30 5998 H 572.693 -5.68391 -0.748646 0
M  V30 5999 H 571.09 -6.00095 -0.0237608 0
M  V30 6000 H 572.16 -4.79596 0.715229 0
M  V30 6001 N 573.503 -0.0852151 -1.57369 0
M  V30 6002 C 574.413 0.891712 -2.16992 0
M  V30 6003 C 575.429 1.3174 -1.13669 0
M  V30 6004 O 576.605 1.38735 -1.45995 0
M  V30 6005 C 573.67 2.13635 -2.73059 0
M  V30 6006 C 572.731 1.7658 -3.91303 0
M  V30 6007 C 571.964 2.95111 -4.44686 0
M  V30 6008 O 572.187 4.09539 -3.97032 0
M  V30 6009 O 571.121 2.74149 -5.35841 0
M  V30 6010 H 574.947 0.414477 -3.00858 0
M  V30 6011 H 572.532 0.138598 -1.48756 0
M  V30 6012 H 574.414 2.86595 -3.08935 0
M  V30 6013 H 573.089 2.6043 -1.92244 0
M  V30 6014 H 571.996 1.00831 -3.60255 0
M  V30 6015 H 573.329 1.34557 -4.7345 0
M  V30 6016 N 574.981 1.5647 0.188427 0
M  V30 6017 C 576.258 1.71857 0.934058 0
M  V30 6018 C 576.638 0.641867 2.01105 0
M  V30 6019 O 575.986 -0.346098 2.25864 0
M  V30 6020 C 576.196 3.14431 1.5144 0
M  V30 6021 C 577.544 3.74869 1.99396 0
M  V30 6022 O 578.568 3.17601 1.61269 0
M  V30 6023 O 577.427 4.75387 2.69573 0
M  V30 6024 H 574.521 0.701186 0.438483 0
M  V30 6025 H 577.067 1.68768 0.177599 0
M  V30 6026 H 575.839 3.8427 0.738416 0
M  V30 6027 H 575.462 3.21775 2.33552 0
M  V30 6028 N 576.459 -0.456382 1.50847 0
M  V30 6029 C 577.389 -1.56025 1.73719 0
M  V30 6030 C 578.37 -1.5967 0.586473 0
M  V30 6031 O 579.555 -1.75702 0.827185 0
M  V30 6032 C 576.685 -2.94251 1.84483 0
M  V30 6033 C 575.639 -3.05471 2.99786 0
M  V30 6034 C 574.965 -4.45489 2.95709 0
M  V30 6035 C 576.265 -2.81318 4.40065 0
M  V30 6036 H 577.959 -1.37138 2.66146 0
M  V30 6037 H 575.505 -0.658299 1.28072 0
M  V30 6038 H 577.458 -3.71417 1.99067 0
M  V30 6039 H 576.182 -3.14328 0.886891 0
M  V30 6040 H 574.841 -2.30741 2.84876 0
M  V30 6041 H 574.489 -4.62505 1.97732 0
M  V30 6042 H 574.189 -4.53929 3.73125 0
M  V30 6043 H 575.713 -5.24655 3.12362 0
M  V30 6044 H 577.127 -3.48226 4.55425 0
M  V30 6045 H 575.524 -3.01188 5.19043 0
M  V30 6046 H 576.594 -1.7706 4.51418 0
M  V30 6047 N 577.937 -1.40673 -0.710563 0
M  V30 6048 C 578.884 -1.41336 -1.82463 0
M  V30 6049 C 579.854 -0.269648 -1.63897 0
M  V30 6050 O 581.039 -0.468463 -1.8496 0
M  V30 6051 C 578.179 -1.28665 -3.20218 0
M  V30 6052 C 577.292 -2.52784 -3.5032 0
M  V30 6053 C 576.427 -2.32517 -4.77608 0
M  V30 6054 C 575.466 -3.52187 -5.0063 0
M  V30 6055 N 574.603 -3.31084 -6.19135 0
M  V30 6056 H 579.443 -2.36558 -1.8123 0
M  V30 6057 H 576.98 -1.17483 -0.885226 0
M  V30 6058 H 578.938 -1.19324 -3.99772 0
M  V30 6059 H 577.568 -0.370602 -3.20666 0
M  V30 6060 H 576.62 -2.72634 -2.65283 0
M  V30 6061 H 577.932 -3.41845 -3.63241 0
M  V30 6062 H 577.086 -2.20558 -5.65189 0
M  V30 6063 H 575.825 -1.40889 -4.66906 0
M  V30 6064 H 574.83 -3.64617 -4.11502 0
M  V30 6065 H 576.055 -4.44749 -5.13201 0
M  V30 6066 H 574.001 -2.42143 -6.09674 0
M  V30 6067 H 573.918 -4.13713 -6.32754 0
M  V30 6068 H 575.186 -3.22868 -7.0949 0
M  V30 6069 N 579.415 0.9433 -1.26252 0
M  V30 6070 C 580.362 2.0417 -1.07625 0
M  V30 6071 C 581.332 1.6609 0.0180738 0
M  V30 6072 O 582.517 1.90276 -0.141289 0
M  V30 6073 C 579.657 3.37653 -0.713043 0
M  V30 6074 C 578.77 3.88783 -1.8834 0
M  V30 6075 C 577.905 5.10642 -1.4635 0
M  V30 6076 C 576.944 5.54028 -2.60229 0
M  V30 6077 N 576.081 6.67092 -2.18936 0
M  V30 6078 H 580.921 2.19436 -2.01623 0
M  V30 6079 H 578.458 1.07519 -1.00389 0
M  V30 6080 H 580.416 4.14391 -0.483358 0
M  V30 6081 H 579.046 3.22241 0.18996 0
M  V30 6082 H 578.098 3.08464 -2.22608 0
M  V30 6083 H 579.41 4.16922 -2.73821 0
M  V30 6084 H 578.564 5.94832 -1.19414 0
M  V30 6085 H 577.303 4.84244 -0.579568 0
M  V30 6086 H 576.308 4.68396 -2.87898 0
M  V30 6087 H 577.533 5.82429 -3.49219 0
M  V30 6088 H 575.479 6.42381 -1.32974 0
M  V30 6089 H 575.396 6.94806 -2.97961 0
M  V30 6090 H 576.664 7.54662 -1.95206 0
M  V30 6091 N 580.893 1.08022 1.14757 0
M  V30 6092 C 582.139 0.808705 1.85978 0
M  V30 6093 C 582.472 -0.663764 1.82504 0
M  V30 6094 O 581.747 -1.48765 1.25296 0
M  V30 6095 C 582.03 1.32623 3.34788 0
M  V30 6096 C 581.883 2.86375 3.46856 0
M  V30 6097 C 583.202 0.948291 4.29762 0
M  V30 6098 H 580.321 0.295244 0.675278 0
M  V30 6099 H 582.963 1.33917 1.34783 0
M  V30 6100 H 581.113 0.875002 3.78518 0
M  V30 6101 H 582.785 3.39839 3.11941 0
M  V30 6102 H 581.028 3.24232 2.88194 0
M  V30 6103 H 581.699 3.17658 4.51439 0
M  V30 6104 H 584.175 1.33722 3.94028 0
M  V30 6105 H 583.051 1.33765 5.32352 0
M  V30 6106 H 583.312 -0.145094 4.41862 0
M  V30 6107 N 582.371 -1.3172 0.865308 0
M  V30 6108 C 583.304 -2.26687 0.262376 0
M  V30 6109 C 584.282 -1.50894 -0.605787 0
M  V30 6110 O 585.466 -1.79982 -0.56024 0
M  V30 6111 C 582.593 -3.3281 -0.628915 0
M  V30 6112 C 581.639 -4.26172 0.167278 0
M  V30 6113 S 582.472 -5.12797 1.54272 0
M  V30 6114 C 583.628 -6.22438 0.657427 0
M  V30 6115 H 583.861 -2.77478 1.0674 0
M  V30 6116 H 581.394 -1.39414 0.663555 0
M  V30 6117 H 583.352 -3.94426 -1.13747 0
M  V30 6118 H 582.013 -2.80782 -1.40785 0
M  V30 6119 H 581.206 -5.01392 -0.51203 0
M  V30 6120 H 580.808 -3.69029 0.607777 0
M  V30 6121 H 583.1 -6.77368 -0.133925 0
M  V30 6122 H 584.043 -6.9451 1.38061 0
M  V30 6123 H 584.451 -5.64043 0.227044 0
M  V30 6124 N 583.85 -0.624285 -1.44708 0
M  V30 6125 C 584.798 0.0969952 -2.32398 0
M  V30 6126 C 585.792 0.842762 -1.46949 0
M  V30 6127 O 586.998 0.756436 -1.63334 0
M  V30 6128 H 583.373 0.0501306 -0.750327 0
M  V30 6129 H 585.344 -0.660767 -2.90992 0
M  V30 6130 C 584.093 1.06967 -3.30837 0
M  V30 6131 H 583.416 0.505242 -3.96595 0
M  V30 6132 H 584.856 1.54397 -3.94889 0
M  V30 6133 C 583.315 2.15153 -2.5925 0
M  V30 6134 O 583.845 3.23139 -2.3863 0
M  V30 6135 N 582.051 1.90898 -2.19103 0
M  V30 6136 H 581.598 1.03086 -2.36074 0
M  V30 6137 H 581.556 2.63485 -1.71531 0
M  V30 6138 N 585.328 1.53329 -0.364422 0
M  V30 6139 C 586.577 2.00421 0.226747 0
M  V30 6140 C 586.89 1.25581 1.49963 0
M  V30 6141 O 588.096 1.63256 2.16933 0
M  V30 6142 C 586.552 3.57017 0.454618 0
M  V30 6143 C 586.16 4.40734 -0.803568 0
M  V30 6144 C 587.904 4.12468 1.00351 0
M  V30 6145 C 585.811 5.8888 -0.545345 0
M  V30 6146 H 584.741 0.748787 0.0885082 0
M  V30 6147 H 587.392 1.7703 -0.482983 0
M  V30 6148 H 585.774 3.76558 1.22558 0
M  V30 6149 H 586.948 4.32967 -1.57723 0
M  V30 6150 H 585.263 3.96381 -1.27559 0
M  V30 6151 H 587.86 5.20783 1.212 0
M  V30 6152 H 588.203 3.6699 1.9653 0
M  V30 6153 H 588.736 3.96721 0.29274 0
M  V30 6154 H 585.475 6.38633 -1.47743 0
M  V30 6155 H 584.995 5.99499 0.189842 0
M  V30 6156 H 586.674 6.46776 -0.170425 0
M  V30 6157 N 586.806 0.0935595 1.57322 0
M  V30 6158 C 587.754 -0.883457 2.15169 0
M  V30 6159 C 588.748 -1.29324 1.09415 0
M  V30 6160 O 589.954 -1.26795 1.27762 0
M  V30 6161 H 586.329 -0.302923 0.688289 0
M  V30 6162 H 588.3 -0.370845 2.96087 0
M  V30 6163 C 587.049 -2.13345 2.74552 0
M  V30 6164 H 586.372 -1.82702 3.55612 0
M  V30 6165 H 587.812 -2.7977 3.18598 0
M  V30 6166 C 586.271 -2.90646 1.70371 0
M  V30 6167 O 586.801 -3.85133 1.14173 0
M  V30 6168 N 585.007 -2.54157 1.40899 0
M  V30 6169 H 584.554 -1.77391 1.86789 0
M  V30 6170 H 584.512 -3.06178 0.714301 0
M  V30 6171 N 588.284 -1.56567 -0.180126 0
M  V30 6172 C 589.532 -1.81133 -0.896392 0
M  V30 6173 C 589.853 -0.669114 -1.83161 0
M  V30 6174 O 589.123 0.311616 -1.93406 0
M  V30 6175 H 587.703 -0.668172 -0.333999 0
M  V30 6176 H 590.365 -1.94048 -0.182051 0
M  V30 6177 H 589.461 -2.74854 -1.47857 0
M  V30 6178 N 589.762 0.448376 -1.51087 0
M  V30 6179 C 590.672 1.56882 -1.74428 0
M  V30 6180 C 591.688 1.62268 -0.62809 0
M  V30 6181 O 592.864 1.79716 -0.909075 0
M  V30 6182 C 589.929 2.92947 -1.85426 0
M  V30 6183 C 588.99 2.97766 -3.09247 0
M  V30 6184 C 588.223 4.27341 -3.19711 0
M  V30 6185 O 588.446 5.19112 -2.36387 0
M  V30 6186 O 587.38 4.38219 -4.12611 0
M  V30 6187 H 591.206 1.40104 -2.69452 0
M  V30 6188 H 588.791 0.630247 -1.35456 0
M  V30 6189 H 590.673 3.73719 -1.94709 0
M  V30 6190 H 589.348 3.09876 -0.935887 0
M  V30 6191 H 588.255 2.15989 -3.0545 0
M  V30 6192 H 589.588 2.8578 -4.00738 0
M  V30 6193 N 591.24 1.41047 0.703093 0
M  V30 6194 C 592.651 1.35657 1.28274 0
M  V30 6195 C 593.002 0.0360309 1.96167 0
M  V30 6196 O 592.127 -0.865833 1.98324 0
M  V30 6197 C 592.722 2.45707 2.33267 0
M  V30 6198 C 591.281 2.43738 2.86825 0
M  V30 6199 C 590.428 2.25941 1.60767 0
M  V30 6200 H 593.379 1.50672 0.49836 0
M  V30 6201 H 593.4 2.14333 3.14391 0
M  V30 6202 H 592.912 3.41805 1.83824 0
M  V30 6203 H 591.013 1.51375 3.40465 0
M  V30 6204 H 591.126 3.39779 3.37768 0
M  V30 6205 H 589.49 1.73681 1.86298 0
M  V30 6206 H 590.273 3.24054 1.1333 0
M  V30 6207 N 592.718 -0.936591 1.26751 0
M  V30 6208 C 593.628 -2.06949 1.10496 0
M  V30 6209 C 594.644 -1.7396 0.037271 0
M  V30 6210 O 595.82 -1.99941 0.241944 0
M  V30 6211 C 592.885 -3.38612 0.744491 0
M  V30 6212 C 591.946 -3.85355 1.89209 0
M  V30 6213 C 591.179 -5.10735 1.54873 0
M  V30 6214 O 591.402 -5.68602 0.452546 0
M  V30 6215 O 590.336 -5.52632 2.38499 0
M  V30 6216 H 594.162 -2.23571 2.05547 0
M  V30 6217 H 591.747 -1.05428 1.05855 0
M  V30 6218 H 593.629 -4.17711 0.556396 0
M  V30 6219 H 592.304 -3.23218 -0.176582 0
M  V30 6220 H 591.211 -3.07182 2.13518 0
M  V30 6221 H 592.544 -4.05277 2.79305 0
M  V30 6222 N 594.196 -1.08629 -1.14182 0
M  V30 6223 C 595.129 -0.662329 -2.18377 0
M  V30 6224 C 596.107 0.327054 -1.59277 0
M  V30 6225 O 597.291 0.230376 -1.87087 0
M  V30 6226 C 594.418 0.0254765 -3.3869 0
M  V30 6227 C 593.464 -0.924414 -4.16361 0
M  V30 6228 S 594.297 -2.43226 -4.77076 0
M  V30 6229 C 595.453 -1.75663 -6.00744 0
M  V30 6230 H 595.686 -1.54501 -2.54001 0
M  V30 6231 H 593.219 -0.901484 -1.2535 0
M  V30 6232 H 595.177 0.416032 -4.08386 0
M  V30 6233 H 593.838 0.884689 -3.01384 0
M  V30 6234 H 593.031 -0.390099 -5.02488 0
M  V30 6235 H 592.633 -1.25598 -3.5228 0
M  V30 6236 H 594.925 -1.07589 -6.68903 0
M  V30 6237 H 595.868 -2.59673 -6.58768 0
M  V30 6238 H 596.276 -1.22903 -5.50958 0
M  V30 6239 N 595.674 1.31259 -0.872281 0
M  V30 6240 C 596.902 2.00795 -0.498907 0
M  V30 6241 C 597.317 1.65464 0.909238 0
M  V30 6242 O 596.674 0.885073 1.59602 0
M  V30 6243 C 596.725 3.55625 -0.649092 0
M  V30 6244 O 596.446 3.89692 -2.00179 0
M  V30 6245 C 597.947 4.42434 -0.277034 0
M  V30 6246 H 595.167 0.642299 -0.194145 0
M  V30 6247 H 597.711 1.67438 -1.17408 0
M  V30 6248 H 595.866 3.87394 -0.0214402 0
M  V30 6249 H 596.28 4.84407 -2.01122 0
M  V30 6250 H 597.754 5.50299 -0.433064 0
M  V30 6251 H 598.231 4.32146 0.783989 0
M  V30 6252 H 598.837 4.16086 -0.880483 0
M  V30 6253 N 597.152 0.631951 1.44375 0
M  V30 6254 C 598.392 0.14009 2.03919 0
M  V30 6255 C 598.756 -1.21534 1.48639 0
M  V30 6256 O 599.957 -1.79936 1.99691 0
M  V30 6257 C 598.228 0.127174 3.57174 0
M  V30 6258 S 599.787 -0.299946 4.37774 0
M  V30 6259 H 596.605 0.0614891 0.708336 0
M  V30 6260 H 599.207 0.835524 1.76746 0
M  V30 6261 H 597.911 1.11676 3.94913 0
M  V30 6262 H 597.442 -0.589482 3.88958 0
M  V30 6263 H 599.457 -1.54396 4.71568 0
M  V30 6264 N 598.631 -1.53133 0.372548 0
M  V30 6265 C 599.877 -2.01654 -0.215277 0
M  V30 6266 C 600.21 -1.25914 -1.47849 0
M  V30 6267 O 599.485 -0.3548 -1.91237 0
M  V30 6268 C 599.768 -3.56609 -0.500187 0
M  V30 6269 C 599.621 -4.43036 0.777145 0
M  V30 6270 C 600.94 -4.20528 -1.29786 0
M  V30 6271 H 598.059 -0.732991 -0.0767686 0
M  V30 6272 H 600.701 -1.83335 0.498814 0
M  V30 6273 H 598.851 -3.7235 -1.10852 0
M  V30 6274 H 600.523 -4.39079 1.41447 0
M  V30 6275 H 598.766 -4.10723 1.39604 0
M  V30 6276 H 599.437 -5.49424 0.532662 0
M  V30 6277 H 601.913 -4.08663 -0.783198 0
M  V30 6278 H 600.789 -5.28962 -1.46596 0
M  V30 6279 H 601.05 -3.77051 -2.30836 0
M  V30 6280 N 600.109 -0.101901 -1.5727 0
M  V30 6281 C 601.337 0.568392 -1.98939 0
M  V30 6282 C 601.752 1.61301 -0.981194 0
M  V30 6283 O 601.109 1.82478 0.0282869 0
M  V30 6284 C 601.16 1.20997 -3.40649 0
M  V30 6285 O 600.881 0.207129 -4.3761 0
M  V30 6286 C 602.382 1.96523 -3.97358 0
M  V30 6287 H 599.602 0.15186 -0.65359 0
M  V30 6288 H 602.146 -0.183198 -2.03678 0
M  V30 6289 H 600.301 1.91245 -3.36904 0
M  V30 6290 H 600.715 0.671071 -5.20189 0
M  V30 6291 H 602.189 2.36764 -4.98645 0
M  V30 6292 H 602.666 2.83376 -3.35552 0
M  V30 6293 H 603.272 1.31076 -4.04598 0
M  V30 6294 N 601.587 1.56661 0.17182 0
M  V30 6295 C 603.003 1.50768 0.52357 0
M  V30 6296 C 603.203 0.806072 1.84675 0
M  V30 6297 O 602.259 0.366233 2.4983 0
M  V30 6298 C 603.572 2.955 0.556793 0
M  V30 6299 C 605.12 3.06303 0.644029 0
M  V30 6300 C 605.595 4.52492 0.708148 0
M  V30 6301 N 607.086 4.56737 0.771051 0
M  V30 6302 C 607.821 5.67196 0.841229 0
M  V30 6303 N 607.317 6.87287 0.872272 0
M  V30 6304 N 609.11 5.55165 0.88021 0
M  V30 6305 H 601.261 2.00679 -0.695817 0
M  V30 6306 H 603.524 0.914219 -0.250814 0
M  V30 6307 H 603.23 3.49986 -0.346774 0
M  V30 6308 H 603.104 3.50119 1.40346 0
M  V30 6309 H 605.491 2.51851 1.53802 0
M  V30 6310 H 605.572 2.5477 -0.229297 0
M  V30 6311 H 605.216 5.07575 -0.181585 0
M  V30 6312 H 605.146 5.01781 1.59761 0
M  V30 6313 H 607.637 3.70274 0.755364 0
M  V30 6314 H 607.95 7.6722 0.92698 0
M  V30 6315 H 606.295 6.89898 0.840557 0
M  V30 6316 H 609.486 4.60263 0.852956 0
M  V30 6317 H 609.659 6.41271 0.931439 0
M  V30 6318 N 603.065 -0.440357 1.51323 0
M  V30 6319 C 604.311 -1.18874 1.65047 0
M  V30 6320 C 604.666 -1.88988 0.360742 0
M  V30 6321 O 603.959 -1.80479 -0.643272 0
M  V30 6322 C 604.153 -2.2339 2.78984 0
M  V30 6323 C 603.982 -1.63534 4.18911 0
M  V30 6324 C 602.752 -1.42158 4.84891 0
M  V30 6325 C 604.95 -1.11324 5.02107 0
M  V30 6326 N 602.932 -0.778679 6.08942 0
M  V30 6327 C 604.303 -0.595421 6.17134 0
M  V30 6328 C 606.358 -1.00471 4.87658 0
M  V30 6329 C 605.061 0.0202557 7.19297 0
M  V30 6330 C 607.087 -0.402928 5.90026 0
M  V30 6331 C 606.449 0.10436 7.04323 0
M  V30 6332 H 602.548 -0.422771 0.657866 0
M  V30 6333 H 605.132 -0.485814 1.88542 0
M  V30 6334 H 603.303 -2.91074 2.57158 0
M  V30 6335 H 605.035 -2.90366 2.81904 0
M  V30 6336 H 601.79 -1.68247 4.42707 0
M  V30 6337 H 602.214 -0.474755 6.75333 0
M  V30 6338 H 606.856 -1.38278 3.99548 0
M  V30 6339 H 604.574 0.410468 8.07057 0
M  V30 6340 H 608.16 -0.320897 5.80914 0
M  V30 6341 H 607.04 0.562697 7.82179 0
M  V30 6342 N 604.543 -1.41418 -0.695603 0
M  V30 6343 C 605.493 -1.39731 -1.80165 0
M  V30 6344 C 606.477 -0.271689 -1.5859 0
M  V30 6345 O 607.669 -0.512354 -1.69422 0
M  V30 6346 C 604.798 -1.28187 -3.1847 0
M  V30 6347 C 603.884 -2.45612 -3.45739 0
M  V30 6348 N 604.275 -3.71077 -3.43708 0
M  V30 6349 C 602.573 -2.39424 -3.76288 0
M  V30 6350 C 603.274 -4.48957 -3.69882 0
M  V30 6351 N 602.25 -3.7907 -3.89624 0
M  V30 6352 H 606.052 -2.34656 -1.76957 0
M  V30 6353 H 603.566 -1.35473 -0.89559 0
M  V30 6354 H 605.563 -1.2506 -3.977 0
M  V30 6355 H 604.223 -0.342468 -3.22889 0
M  V30 6356 H 605.234 -4.03963 -3.2409 0
M  V30 6357 H 601.911 -1.53955 -3.88077 0
M  V30 6358 H 603.301 -5.57887 -3.74448 0
M  V30 6359 N 606.021 0.929856 -1.27246 0
M  V30 6360 C 606.931 2.0636 -1.11592 0
M  V30 6361 C 607.947 1.73938 -0.046496 0
M  V30 6362 O 609.123 1.9981 -0.252544 0
M  V30 6363 C 606.188 3.38213 -0.762437 0
M  V30 6364 C 605.249 3.84346 -1.9125 0
M  V30 6365 C 604.482 5.09906 -1.57579 0
M  V30 6366 O 604.705 5.68354 -0.482694 0
M  V30 6367 O 603.639 5.51359 -2.41426 0
M  V30 6368 H 607.465 2.22478 -2.0673 0
M  V30 6369 H 605.05 1.04865 -1.06413 0
M  V30 6370 H 606.932 4.1741 -0.57854 0
M  V30 6371 H 605.607 3.23307 0.159439 0
M  V30 6372 H 604.514 3.06045 -2.15144 0
M  V30 6373 H 605.847 4.0379 -2.81451 0
M  V30 6374 N 607.499 1.09233 1.13605 0
M  V30 6375 C 608.724 0.849067 1.89224 0
M  V30 6376 C 609.149 -0.593875 1.78479 0
M  V30 6377 O 608.507 -1.41703 1.13092 0
M  V30 6378 C 608.555 1.28642 3.36873 0
M  V30 6379 O 607.659 0.44363 4.10007 0
M  V30 6380 H 607 0.30767 0.588417 0
M  V30 6381 H 609.53 1.45595 1.43748 0
M  V30 6382 H 609.54 1.27096 3.87699 0
M  V30 6383 H 608.215 2.33729 3.44011 0
M  V30 6384 H 606.792 0.523241 3.69211 0
M  V30 6385 N 608.977 -1.30795 0.87923 0
M  V30 6386 C 609.91 -2.26396 0.286404 0
M  V30 6387 C 610.888 -1.51528 -0.589748 0
M  V30 6388 O 612.072 -1.80566 -0.541119 0
M  V30 6389 C 609.199 -3.33458 -0.593581 0
M  V30 6390 C 608.245 -4.2597 0.21247 0
M  V30 6391 S 609.078 -5.11132 1.59702 0
M  V30 6392 C 610.234 -6.21705 0.723408 0
M  V30 6393 H 610.467 -2.7633 1.09677 0
M  V30 6394 H 608 -1.38703 0.678305 0
M  V30 6395 H 609.958 -3.9561 -1.09557 0
M  V30 6396 H 608.619 -2.82259 -1.37799 0
M  V30 6397 H 607.812 -5.01907 -0.458822 0
M  V30 6398 H 607.414 -3.68363 0.646883 0
M  V30 6399 H 609.706 -6.77472 -0.0620739 0
M  V30 6400 H 610.649 -6.93007 1.4542 0
M  V30 6401 H 611.057 -5.63771 0.286855 0
M  V30 6402 N 610.455 -0.639598 -1.44038 0
M  V30 6403 C 611.866 -0.228866 -1.85292 0
M  V30 6404 C 612.217 1.22161 -1.53529 0
M  V30 6405 O 611.342 1.93064 -0.977518 0
M  V30 6406 C 611.937 -0.408592 -3.36327 0
M  V30 6407 C 610.496 -0.0522953 -3.76364 0
M  V30 6408 C 609.643 -0.717959 -2.67844 0
M  V30 6409 H 612.594 -0.844194 -1.34384 0
M  V30 6410 H 612.615 0.349968 -3.78887 0
M  V30 6411 H 612.127 -1.46435 -3.59414 0
M  V30 6412 H 610.228 1.0014 -3.58891 0
M  V30 6413 H 610.341 -0.468261 -4.76806 0
M  V30 6414 H 608.705 -0.152459 -2.54243 0
M  V30 6415 H 609.488 -1.77648 -2.93762 0
M  V30 6416 N 611.933 1.52934 -0.380664 0
M  V30 6417 C 612.865 2.23822 0.493581 0
M  V30 6418 C 613.878 1.25761 1.03383 0
M  V30 6419 O 615.067 1.5189 0.937633 0
M  V30 6420 C 612.167 2.9342 1.69582 0
M  V30 6421 C 611.34 4.18115 1.28445 0
M  V30 6422 C 610.399 4.70788 2.35042 0
M  V30 6423 O 609.425 5.34093 1.96807 0
M  V30 6424 N 610.627 4.49899 3.66839 0
M  V30 6425 H 613.392 2.99484 -0.11371 0
M  V30 6426 H 610.953 1.60577 -0.206587 0
M  V30 6427 H 612.945 3.2556 2.40401 0
M  V30 6428 H 611.515 2.21119 2.20965 0
M  V30 6429 H 610.735 3.92109 0.405503 0
M  V30 6430 H 612.023 4.99152 0.986132 0
M  V30 6431 H 611.421 3.99349 4.0067 0
M  V30 6432 H 609.978 4.86551 4.33718 0
M  V30 6433 N 613.412 0.11024 1.57214 0
M  V30 6434 C 614.642 -0.557025 1.98949 0
M  V30 6435 C 615.05 -1.61317 0.988606 0
M  V30 6436 O 614.393 -1.83679 -0.0279159 0
M  V30 6437 C 614.455 -1.24956 3.37085 0
M  V30 6438 C 614.119 -0.342398 4.55716 0
M  V30 6439 C 615.116 0.415511 5.18237 0
M  V30 6440 C 612.801 -0.256029 5.01647 0
M  V30 6441 C 614.795 1.24761 6.25071 0
M  V30 6442 C 612.482 0.579713 6.08344 0
M  V30 6443 C 613.48 1.33017 6.69922 0
M  V30 6444 O 613.168 2.15205 7.74559 0
M  V30 6445 H 612.9 -0.152792 0.658506 0
M  V30 6446 H 615.454 0.19076 2.04512 0
M  V30 6447 H 613.684 -2.04424 3.2825 0
M  V30 6448 H 615.373 -1.81286 3.63167 0
M  V30 6449 H 616.139 0.358605 4.83672 0
M  V30 6450 H 612.018 -0.829831 4.5347 0
M  V30 6451 H 615.562 1.83386 6.73064 0
M  V30 6452 H 611.459 0.638044 6.42339 0
M  V30 6453 H 612.227 2.08052 7.91617 0
M  V30 6454 N 614.89 -1.56749 -0.16351 0
M  V30 6455 C 615.84 -1.93424 -1.20712 0
M  V30 6456 C 616.824 -0.803469 -1.39403 0
M  V30 6457 O 618.016 -1.06675 -1.41243 0
M  V30 6458 C 615.145 -2.30431 -2.54473 0
M  V30 6459 C 614.231 -3.5004 -2.39443 0
M  V30 6460 N 614.622 -4.67058 -1.9414 0
M  V30 6461 C 612.92 -3.548 -2.70246 0
M  V30 6462 C 613.621 -5.49184 -1.9176 0
M  V30 6463 N 612.597 -4.9044 -2.34457 0
M  V30 6464 H 616.399 -2.8138 -0.848681 0
M  V30 6465 H 613.913 -1.58089 -0.371717 0
M  V30 6466 H 615.91 -2.54903 -3.29894 0
M  V30 6467 H 614.57 -1.43818 -2.91112 0
M  V30 6468 H 615.581 -4.91128 -1.64357 0
M  V30 6469 H 612.258 -2.78685 -3.10871 0
M  V30 6470 H 613.648 -6.5297 -1.58366 0
M  V30 6471 N 616.368 0.432326 -1.51554 0
M  V30 6472 C 617.614 1.18309 -1.64714 0
M  V30 6473 C 617.947 1.90745 -0.364696 0
M  V30 6474 O 617.222 1.8381 0.635936 0
M  V30 6475 C 617.505 2.1961 -2.85383 0
M  V30 6476 C 617.358 1.51223 -4.23617 0
M  V30 6477 C 618.677 3.20538 -3.01569 0
M  V30 6478 H 615.796 0.428751 -0.599451 0
M  V30 6479 H 618.438 0.471689 -1.84052 0
M  V30 6480 H 616.588 2.8028 -2.69027 0
M  V30 6481 H 618.26 0.938516 -4.51652 0
M  V30 6482 H 616.503 0.814501 -4.26085 0
M  V30 6483 H 617.174 2.25024 -5.04052 0
M  V30 6484 H 619.65 2.69926 -3.16669 0
M  V30 6485 H 618.526 3.88706 -3.87555 0
M  V30 6486 H 618.787 3.86933 -2.13859 0
M  V30 6487 N 617.846 1.41785 0.688094 0
M  V30 6488 C 619.094 1.41264 1.4453 0
M  V30 6489 C 619.415 0.0252946 1.94984 0
M  V30 6490 O 618.685 -0.934081 1.72197 0
M  V30 6491 H 617.265 0.519998 0.536294 0
M  V30 6492 H 619.927 1.7709 0.813941 0
M  V30 6493 H 619.023 2.10439 2.30482 0
M  V30 6494 N 619.324 -0.923095 1.27737 0
M  V30 6495 C 620.274 -2.01061 1.0751 0
M  V30 6496 C 621.258 -1.609 0.00165451 0
M  V30 6497 O 622.45 -1.75618 0.220724 0
M  V30 6498 C 619.579 -3.35467 0.729162 0
M  V30 6499 C 618.665 -3.82059 1.84098 0
M  V30 6500 N 619.056 -4.01115 3.08124 0
M  V30 6501 C 617.354 -4.11135 1.7287 0
M  V30 6502 C 618.055 -4.39989 3.80506 0
M  V30 6503 N 617.031 -4.47721 3.08297 0
M  V30 6504 H 620.833 -2.13832 2.01626 0
M  V30 6505 H 618.347 -1.11027 1.18519 0
M  V30 6506 H 620.344 -4.13049 0.565355 0
M  V30 6507 H 619.004 -3.24056 -0.204334 0
M  V30 6508 H 620.015 -3.87294 3.43836 0
M  V30 6509 H 616.692 -4.08412 0.866352 0
M  V30 6510 H 618.082 -4.62773 4.87125 0
M  V30 6511 N 620.802 -1.09834 -1.13024 0
M  V30 6512 C 621.749 -0.741522 -2.18564 0
M  V30 6513 C 622.719 0.279236 -1.63736 0
M  V30 6514 O 623.904 0.159923 -1.90129 0
M  V30 6515 C 621.044 -0.17277 -3.44667 0
M  V30 6516 C 620.157 -1.24808 -4.13578 0
M  V30 6517 C 619.292 -0.641631 -5.27311 0
M  V30 6518 C 618.331 -1.69795 -5.88078 0
M  V30 6519 N 617.468 -1.11223 -6.93234 0
M  V30 6520 H 622.308 -1.64576 -2.48432 0
M  V30 6521 H 619.845 -0.822174 -1.21978 0
M  V30 6522 H 621.803 0.17482 -4.16834 0
M  V30 6523 H 620.433 0.694725 -3.15235 0
M  V30 6524 H 619.485 -1.71288 -3.39653 0
M  V30 6525 H 620.797 -2.04795 -4.54819 0
M  V30 6526 H 619.951 -0.243128 -6.06213 0
M  V30 6527 H 618.69 0.189742 -4.87331 0
M  V30 6528 H 617.695 -2.10595 -5.07868 0
M  V30 6529 H 618.92 -2.53206 -6.3013 0
M  V30 6530 H 616.866 -0.302208 -6.55304 0
M  V30 6531 H 616.783 -1.84901 -7.3304 0
M  V30 6532 H 618.051 -0.740068 -7.75979 0
M  V30 6533 N 622.28 1.30327 -0.886154 0
M  V30 6534 C 623.212 2.27079 -0.311072 0
M  V30 6535 C 624.225 1.53758 0.53502 0
M  V30 6536 O 625.414 1.74947 0.354378 0
M  V30 6537 C 622.514 3.33965 0.576228 0
M  V30 6538 C 621.687 4.36735 -0.241064 0
M  V30 6539 C 620.746 5.23028 0.576916 0
M  V30 6540 O 619.772 5.692 -0.000802231 0
M  V30 6541 N 620.974 5.49016 1.88579 0
M  V30 6542 H 623.739 2.77065 -1.14259 0
M  V30 6543 H 621.3 1.43519 -0.749258 0
M  V30 6544 H 623.292 3.88618 1.12953 0
M  V30 6545 H 621.862 2.839 1.30842 0
M  V30 6546 H 621.082 3.81932 -0.975805 0
M  V30 6547 H 622.37 5.02451 -0.801272 0
M  V30 6548 H 621.768 5.13288 2.37806 0
M  V30 6549 H 620.325 6.06539 2.38651 0
M  V30 6550 N 623.758 0.647228 1.43697 0
M  V30 6551 C 625.174 0.314256 1.56476 0
M  V30 6552 C 625.374 -1.18191 1.63196 0
M  V30 6553 O 624.43 -1.96655 1.58376 0
M  V30 6554 C 625.743 1.02034 2.82859 0
M  V30 6555 C 627.291 1.00002 2.96595 0
M  V30 6556 C 627.766 1.68689 4.25803 0
M  V30 6557 N 629.257 1.65424 4.32654 0
M  V30 6558 C 629.992 2.1545 5.31384 0
M  V30 6559 N 629.488 2.73738 6.36427 0
M  V30 6560 N 631.281 2.05985 5.22998 0
M  V30 6561 H 623.432 1.61821 1.37578 0
M  V30 6562 H 625.695 0.680184 0.660344 0
M  V30 6563 H 625.401 2.07542 2.83935 0
M  V30 6564 H 625.275 0.568146 3.72897 0
M  V30 6565 H 627.662 -0.0466319 2.95063 0
M  V30 6566 H 627.743 1.49086 2.07863 0
M  V30 6567 H 627.387 2.73308 4.28095 0
M  V30 6568 H 627.317 1.17076 5.13421 0
M  V30 6569 H 629.808 1.22884 3.57363 0
M  V30 6570 H 630.121 3.09602 7.08072 0
M  V30 6571 H 628.466 2.77796 6.37067 0
M  V30 6572 H 631.657 1.60157 4.39849 0
M  V30 6573 H 631.83 2.45281 5.99784 0
M  V30 6574 N 625.236 -1.5273 0.388769 0
M  V30 6575 C 626.485 -2.00757 -0.194833 0
M  V30 6576 C 626.798 -1.27951 -1.47946 0
M  V30 6577 O 628.004 -1.66686 -2.14308 0
M  V30 6578 C 626.46 -3.57695 -0.397762 0
M  V30 6579 C 626.068 -4.394 0.873583 0
M  V30 6580 C 627.812 -4.14012 -0.937759 0
M  V30 6581 C 625.719 -5.87938 0.638962 0
M  V30 6582 H 624.649 -0.750101 -0.0765845 0
M  V30 6583 H 627.3 -1.76239 0.511086 0
M  V30 6584 H 625.682 -3.7846 -1.16552 0
M  V30 6585 H 626.856 -4.30403 1.64591 0
M  V30 6586 H 625.171 -3.94301 1.33849 0
M  V30 6587 H 627.768 -5.22645 -1.12899 0
M  V30 6588 H 628.111 -3.7007 -1.90666 0
M  V30 6589 H 628.644 -3.97137 -0.229588 0
M  V30 6590 H 625.383 -6.36202 1.57885 0
M  V30 6591 H 624.903 -5.99726 -0.094443 0
M  V30 6592 H 626.582 -6.46423 0.273299 0
M  V30 6593 N 626.714 -0.118576 -1.57153 0
M  V30 6594 C 627.661 0.831789 -2.1529 0
M  V30 6595 C 628.631 1.26385 -1.07778 0
M  V30 6596 O 629.816 1.34144 -1.35684 0
M  V30 6597 C 626.956 2.07664 -2.75626 0
M  V30 6598 C 626.069 1.69298 -3.97444 0
M  V30 6599 C 625.204 2.88747 -4.45868 0
M  V30 6600 C 624.243 2.46619 -5.60219 0
M  V30 6601 N 623.38 3.5898 -6.03389 0
M  V30 6602 H 628.22 0.329183 -2.96176 0
M  V30 6603 H 625.757 0.150792 -1.46325 0
M  V30 6604 H 627.715 2.80601 -3.08738 0
M  V30 6605 H 626.345 2.55384 -1.97431 0
M  V30 6606 H 625.397 0.862374 -3.70496 0
M  V30 6607 H 626.709 1.34338 -4.80369 0
M  V30 6608 H 625.863 3.69909 -4.80887 0
M  V30 6609 H 624.602 3.26933 -3.61892 0
M  V30 6610 H 623.607 1.63889 -5.24805 0
M  V30 6611 H 624.832 2.0955 -6.45961 0
M  V30 6612 H 622.778 3.9684 -5.22354 0
M  V30 6613 H 622.695 3.27942 -6.81168 0
M  V30 6614 H 623.963 4.40583 -6.43045 0
M  V30 6615 N 628.193 1.56834 0.155195 0
M  V30 6616 C 629.103 2.009 1.21146 0
M  V30 6617 C 630.119 0.923029 1.475 0
M  V30 6618 O 631.295 1.23189 1.59331 0
M  V30 6619 C 628.36 2.37378 2.52691 0
M  V30 6620 C 627.421 3.59883 2.34057 0
M  V30 6621 C 626.654 3.94612 3.59329 0
M  V30 6622 O 626.877 3.30104 4.65175 0
M  V30 6623 O 625.811 4.87895 3.52479 0
M  V30 6624 H 629.637 2.9105 0.867371 0
M  V30 6625 H 627.222 1.44916 0.363298 0
M  V30 6626 H 629.104 2.61737 3.3026 0
M  V30 6627 H 627.779 1.50385 2.86646 0
M  V30 6628 H 626.686 3.40722 1.54465 0
M  V30 6629 H 628.019 4.47468 2.0502 0
M  V30 6630 N 629.671 -0.424282 1.51781 0
M  V30 6631 C 630.601 -1.52305 1.7699 0
M  V30 6632 C 631.582 -1.5839 0.620209 0
M  V30 6633 O 632.767 -1.73908 0.864268 0
M  V30 6634 C 629.897 -2.90271 1.90683 0
M  V30 6635 C 628.851 -2.99043 3.06198 0
M  V30 6636 C 628.177 -4.39116 3.05092 0
M  V30 6637 C 629.477 -2.7192 4.45934 0
M  V30 6638 H 631.171 -1.31461 2.68995 0
M  V30 6639 H 628.717 -0.630985 1.29439 0
M  V30 6640 H 630.67 -3.6711 2.06901 0
M  V30 6641 H 629.394 -3.12376 0.953365 0
M  V30 6642 H 628.053 -2.24646 2.89706 0
M  V30 6643 H 627.701 -4.58207 2.07498 0
M  V30 6644 H 627.401 -4.45912 3.82669 0
M  V30 6645 H 628.925 -5.17911 3.2342 0
M  V30 6646 H 630.339 -3.38487 4.62709 0
M  V30 6647 H 628.736 -2.90111 5.25315 0
M  V30 6648 H 629.806 -1.67445 4.55072 0
M  V30 6649 N 631.149 -1.42148 -0.680565 0
M  V30 6650 C 632.565 -1.24947 -0.992995 0
M  V30 6651 C 632.765 -0.149527 -2.00944 0
M  V30 6652 O 631.821 0.481145 -2.47873 0
M  V30 6653 C 633.134 -2.60426 -1.5033 0
M  V30 6654 C 634.682 -2.67733 -1.62137 0
M  V30 6655 C 635.157 -4.03564 -2.16565 0
M  V30 6656 N 636.648 -4.05488 -2.23905 0
M  V30 6657 C 637.383 -5.07401 -2.67081 0
M  V30 6658 N 636.879 -6.19698 -3.09751 0
M  V30 6659 N 638.672 -4.94758 -2.66778 0
M  V30 6660 H 630.823 -2.12399 -0.0074788 0
M  V30 6661 H 633.086 -0.94571 -0.0658529 0
M  V30 6662 H 632.792 -3.41743 -0.830947 0
M  V30 6663 H 632.666 -2.83949 -2.483 0
M  V30 6664 H 635.053 -1.86765 -2.2848 0
M  V30 6665 H 635.134 -2.48004 -0.626713 0
M  V30 6666 H 634.778 -4.84987 -1.50833 0
M  V30 6667 H 634.708 -4.20641 -3.1681 0
M  V30 6668 H 637.199 -3.24415 -1.93812 0
M  V30 6669 H 637.512 -6.93318 -3.41365 0
M  V30 6670 H 635.857 -6.23212 -3.07623 0
M  V30 6671 H 639.048 -4.06105 -2.32801 0
M  V30 6672 H 639.221 -5.74317 -3.00107 0
M  V30 6673 N 632.627 0.916307 -1.28225 0
M  V30 6674 C 633.537 2.05165 -1.13775 0
M  V30 6675 C 634.553 1.73879 -0.0649418 0
M  V30 6676 O 635.729 1.99531 -0.273722 0
M  V30 6677 C 632.794 3.37385 -0.798267 0
M  V30 6678 C 631.855 3.82296 -1.95316 0
M  V30 6679 C 631.088 5.08206 -1.62978 0
M  V30 6680 O 631.311 5.6781 -0.542948 0
M  V30 6681 O 630.245 5.48768 -2.47261 0
M  V30 6682 H 634.071 2.20273 -2.09078 0
M  V30 6683 H 631.656 1.0373 -1.07519 0
M  V30 6684 H 633.538 4.16773 -0.62278 0
M  V30 6685 H 632.213 3.23458 0.125139 0
M  V30 6686 H 631.12 3.03746 -2.18378 0
M  V30 6687 H 632.453 4.00782 -2.85718 0
M  V30 6688 N 634.105 1.10431 1.1244 0
M  V30 6689 C 635.068 0.756542 2.16354 0
M  V30 6690 C 636.068 -0.21899 1.59302 0
M  V30 6691 O 637.258 0.00415969 1.742 0
M  V30 6692 C 634.39 0.120612 3.40687 0
M  V30 6693 H 635.583 1.67696 2.48632 0
M  V30 6694 H 633.136 0.904832 1.27446 0
M  V30 6695 H 633.871 -0.810536 3.14008 0
M  V30 6696 H 633.656 0.822693 3.83372 0
M  V30 6697 H 635.146 -0.106945 4.17463 0
M  V30 6698 N 635.583 -1.29855 0.893053 0
M  V30 6699 C 636.513 -2.3035 0.382249 0
M  V30 6700 C 637.494 -1.61328 -0.539203 0
M  V30 6701 O 638.679 -1.88882 -0.451342 0
M  V30 6702 C 635.809 -3.45024 -0.396983 0
M  V30 6703 C 634.763 -4.258 0.433437 0
M  V30 6704 C 634.089 -5.32605 -0.472889 0
M  V30 6705 C 635.389 -4.94549 1.67984 0
M  V30 6706 H 637.083 -2.73325 1.22205 0
M  V30 6707 H 634.629 -1.314 0.589073 0
M  V30 6708 H 636.582 -4.14398 -0.765024 0
M  V30 6709 H 635.306 -3.00875 -1.2705 0
M  V30 6710 H 633.965 -3.58125 0.783723 0
M  V30 6711 H 633.613 -4.84702 -1.34435 0
M  V30 6712 H 633.313 -5.87547 0.0789958 0
M  V30 6713 H 634.837 -6.04832 -0.837269 0
M  V30 6714 H 636.251 -5.56395 1.38192 0
M  V30 6715 H 634.648 -5.59393 2.17254 0
M  V30 6716 H 635.718 -4.20215 2.41965 0
M  V30 6717 N 637.061 -0.65484 -1.43351 0
M  V30 6718 C 638.024 0.0263562 -2.29185 0
M  V30 6719 C 639.024 0.748951 -1.42293 0
M  V30 6720 O 640.214 0.589957 -1.63906 0
M  V30 6721 C 637.346 1.04806 -3.2439 0
M  V30 6722 H 638.539 -0.728883 -2.90908 0
M  V30 6723 H 636.092 -0.416149 -1.50658 0
M  V30 6724 H 636.827 1.83247 -2.67565 0
M  V30 6725 H 636.612 0.533554 -3.88453 0
M  V30 6726 H 638.102 1.52372 -3.88809 0
M  V30 6727 N 638.539 1.52521 -0.396863 0
M  V30 6728 C 639.764 2.06571 0.185258 0
M  V30 6729 C 640.189 1.26605 1.39115 0
M  V30 6730 O 639.547 0.293055 1.78916 0
M  V30 6731 C 639.595 3.5674 0.526189 0
M  V30 6732 O 638.699 3.7929 1.61903 0
M  V30 6733 H 638.04 0.663712 0.0195474 0
M  V30 6734 H 640.57 1.966 -0.566519 0
M  V30 6735 H 640.58 4.00311 0.788338 0
M  V30 6736 H 639.255 4.14379 -0.355397 0
M  V30 6737 H 637.832 3.47605 1.35 0
M  V30 6738 N 640.017 0.126909 1.57088 0
M  V30 6739 C 640.98 -0.806097 2.14557 0
M  V30 6740 C 641.98 -1.18918 1.08236 0
M  V30 6741 O 643.17 -1.11339 1.33975 0
M  V30 6742 C 640.302 -2.09116 2.69227 0
M  V30 6743 H 641.495 -0.306522 2.98329 0
M  V30 6744 H 639.048 -0.122393 1.5582 0
M  V30 6745 H 639.783 -2.63486 1.89065 0
M  V30 6746 H 639.568 -1.82588 3.46993 0
M  V30 6747 H 641.058 -2.75794 3.13572 0
M  V30 6748 N 641.495 -1.56914 -0.146875 0
M  V30 6749 C 642.725 -1.87243 -0.873126 0
M  V30 6750 C 643.133 -0.713127 -1.75246 0
M  V30 6751 O 642.476 0.326228 -1.8078 0
M  V30 6752 C 642.538 -3.12279 -1.78107 0
M  V30 6753 C 642.202 -4.44082 -1.07889 0
M  V30 6754 C 643.199 -5.18096 -0.432734 0
M  V30 6755 C 640.884 -4.90807 -1.06836 0
M  V30 6756 C 642.878 -6.37039 0.214569 0
M  V30 6757 C 640.565 -6.09674 -0.417243 0
M  V30 6758 C 641.563 -6.82636 0.223093 0
M  V30 6759 O 641.251 -7.99245 0.863884 0
M  V30 6760 H 640.983 -0.624896 -0.257839 0
M  V30 6761 H 643.537 -2.04892 -0.14434 0
M  V30 6762 H 641.767 -2.90639 -2.5508 0
M  V30 6763 H 643.456 -3.28854 -2.37929 0
M  V30 6764 H 644.222 -4.83066 -0.432677 0
M  V30 6765 H 640.101 -4.3394 -1.55618 0
M  V30 6766 H 643.645 -6.93927 0.714965 0
M  V30 6767 H 639.542 -6.44165 -0.414967 0
M  V30 6768 H 640.31 -8.14912 0.765564 0
M  V30 6769 N 642.974 0.416227 -1.52004 0
M  V30 6770 C 644.385 0.995319 -1.57957 0
M  V30 6771 C 644.736 1.91744 -0.415754 0
M  V30 6772 O 643.861 2.11349 0.464808 0
M  V30 6773 C 644.456 1.81191 -2.86278 0
M  V30 6774 C 643.015 2.34115 -2.94732 0
M  V30 6775 C 642.162 1.139 -2.52828 0
M  V30 6776 H 645.113 0.196716 -1.57476 0
M  V30 6777 H 645.134 2.66859 -2.71231 0
M  V30 6778 H 644.646 1.14051 -3.70963 0
M  V30 6779 H 642.747 3.04647 -2.14525 0
M  V30 6780 H 642.86 2.65466 -3.98829 0
M  V30 6781 H 641.224 1.49081 -2.06511 0
M  V30 6782 H 642.007 0.483383 -3.3988 0
M  V30 6783 N 644.452 1.42507 0.673017 0
M  V30 6784 C 645.7 1.42789 1.43023 0
M  V30 6785 C 646.021 0.0459738 1.94946 0
M  V30 6786 O 645.291 -0.915765 1.73178 0
M  V30 6787 H 643.871 0.525657 0.530748 0
M  V30 6788 H 646.533 1.77944 0.795113 0
M  V30 6789 H 645.629 2.12872 2.28237 0
M  V30 6790 N 645.93 -0.909495 1.28709 0
M  V30 6791 C 647.176 -1.66151 1.16283 0
M  V30 6792 C 647.509 -1.92067 -0.287069 0
M  V30 6793 O 646.784 -1.52409 -1.20837 0
M  V30 6794 C 647.067 -3.01676 1.9663 0
M  V30 6795 C 646.92 -2.82888 3.49707 0
M  V30 6796 C 648.239 -4.02274 1.78504 0
M  V30 6797 H 645.358 -0.602966 0.423793 0
M  V30 6798 H 648 -1.05418 1.58073 0
M  V30 6799 H 646.15 -3.53515 1.61119 0
M  V30 6800 H 647.822 -2.38026 3.95147 0
M  V30 6801 H 646.065 -2.17862 3.75125 0
M  V30 6802 H 646.736 -3.79147 4.01187 0
M  V30 6803 H 649.212 -3.59511 2.09503 0
M  V30 6804 H 648.088 -4.95056 2.37088 0
M  V30 6805 H 648.349 -4.35903 0.737647 0
M  V30 6806 N 647.408 -1.11026 -1.11852 0
M  V30 6807 C 648.638 -0.877544 -1.87037 0
M  V30 6808 C 649.046 0.575925 -1.80221 0
M  V30 6809 O 648.389 1.40916 -1.17849 0
M  V30 6810 C 648.451 -1.25529 -3.36872 0
M  V30 6811 C 648.115 -2.71704 -3.67459 0
M  V30 6812 C 649.112 -3.69931 -3.65304 0
M  V30 6813 C 646.797 -3.08243 -3.966 0
M  V30 6814 C 648.791 -5.02717 -3.9186 0
M  V30 6815 C 646.478 -4.41215 -4.22815 0
M  V30 6816 C 647.476 -5.38262 -4.20432 0
M  V30 6817 O 647.164 -6.68839 -4.45992 0
M  V30 6818 H 646.896 -0.314374 -0.598452 0
M  V30 6819 H 649.45 -1.48015 -1.42411 0
M  V30 6820 H 647.68 -0.595808 -3.82082 0
M  V30 6821 H 649.369 -0.999064 -3.93413 0
M  V30 6822 H 650.135 -3.43047 -3.42846 0
M  V30 6823 H 646.014 -2.33326 -3.97593 0
M  V30 6824 H 649.558 -5.78456 -3.89916 0
M  V30 6825 H 645.455 -4.67835 -4.44748 0
M  V30 6826 H 646.223 -6.74563 -4.63581 0
M  V30 6827 N 648.886 1.2938 -0.899927 0
M  V30 6828 C 649.819 2.25911 -0.322386 0
M  V30 6829 C 650.797 1.52447 0.565567 0
M  V30 6830 O 651.981 1.81404 0.512324 0
M  V30 6831 C 649.108 3.3436 0.540455 0
M  V30 6832 C 648.154 4.25579 -0.280211 0
M  V30 6833 S 648.987 5.08526 -1.67814 0
M  V30 6834 C 650.143 6.20476 -0.822224 0
M  V30 6835 H 650.376 2.7455 -1.1406 0
M  V30 6836 H 647.909 1.37606 -0.700285 0
M  V30 6837 H 649.867 3.97303 1.0325 0
M  V30 6838 H 648.528 2.84416 1.33291 0
M  V30 6839 H 647.721 5.02574 0.378915 0
M  V30 6840 H 647.323 3.67287 -0.705405 0
M  V30 6841 H 649.615 6.77485 -0.0457138 0
M  V30 6842 H 650.558 6.90606 -1.56426 0
M  V30 6843 H 650.966 5.63243 -0.37651 0
M  V30 6844 N 650.364 0.662433 1.43002 0
M  V30 6845 C 651.592 0.187615 2.06048 0
M  V30 6846 C 652.007 -1.15039 1.49705 0
M  V30 6847 O 651.364 -1.71209 0.631956 0
M  V30 6848 C 651.415 0.100498 3.6136 0
M  V30 6849 O 651.136 1.38562 4.15611 0
M  V30 6850 C 652.637 -0.399298 4.41498 0
M  V30 6851 H 649.857 0.0941675 0.664359 0
M  V30 6852 H 652.401 0.905681 1.83351 0
M  V30 6853 H 650.556 -0.568181 3.83211 0
M  V30 6854 H 650.97 1.25084 5.09366 0
M  V30 6855 H 652.444 -0.409187 5.50481 0
M  V30 6856 H 652.921 -1.43232 4.15188 0
M  V30 6857 H 653.527 0.23721 4.24638 0
M  V30 6858 N 651.842 -1.52309 0.404946 0
M  V30 6859 C 653.09 -2.01368 -0.17186 0
M  V30 6860 C 653.411 -1.29261 -1.46002 0
M  V30 6861 O 652.681 -0.41729 -1.91404 0
M  V30 6862 H 651.261 -0.744034 -0.0664993 0
M  V30 6863 H 653.923 -1.87263 0.540228 0
M  V30 6864 H 653.019 -3.09888 -0.370957 0
M  V30 6865 N 653.32 -0.135238 -1.57019 0
M  V30 6866 C 654.283 0.794707 -2.14981 0
M  V30 6867 C 655.283 1.18342 -1.08866 0
M  V30 6868 O 656.473 1.10627 -1.34563 0
M  V30 6869 C 653.605 2.07685 -2.70333 0
M  V30 6870 H 654.798 0.290696 -2.98488 0
M  V30 6871 H 652.351 0.114128 -1.55883 0
M  V30 6872 H 653.086 2.6248 -1.9046 0
M  V30 6873 H 652.871 1.80745 -3.47957 0
M  V30 6874 H 654.361 2.74127 -3.1503 0
M  V30 6875 N 654.798 1.5699 0.138552 0
M  V30 6876 C 656.023 1.88344 0.86841 0
M  V30 6877 C 656.448 0.725159 1.7356 0
M  V30 6878 O 655.806 -0.324992 1.78363 0
M  V30 6879 C 655.854 3.18334 1.69398 0
M  V30 6880 O 654.958 3.02863 2.79907 0
M  V30 6881 H 654.299 0.618577 0.241367 0
M  V30 6882 H 656.829 2.04207 0.126826 0
M  V30 6883 H 656.839 3.50567 2.08726 0
M  V30 6884 H 655.514 4.02238 1.05725 0
M  V30 6885 H 654.091 2.82056 2.43924 0
M  V30 6886 N 656.276 -0.40816 1.52223 0
M  V30 6887 C 657.523 -1.15502 1.66329 0
M  V30 6888 C 657.851 -1.90474 0.393701 0
M  V30 6889 O 657.106 -1.85507 -0.623356 0
M  V30 6890 C 657.405 -2.17422 2.83659 0
M  V30 6891 C 657.071 -1.5925 4.21841 0
M  V30 6892 C 655.733 -1.4311 4.59427 0
M  V30 6893 C 658.085 -1.16776 5.0795 0
M  V30 6894 C 655.413 -0.830148 5.80797 0
M  V30 6895 C 657.765 -0.580988 6.29926 0
M  V30 6896 C 656.429 -0.406729 6.6626 0
M  V30 6897 H 655.699 -0.422653 0.608642 0
M  V30 6898 H 658.346 -0.442114 1.86327 0
M  V30 6899 H 656.651 -2.94861 2.58001 0
M  V30 6900 H 658.348 -2.75084 2.9177 0
M  V30 6901 H 654.938 -1.72796 3.92224 0
M  V30 6902 H 659.122 -1.28055 4.79495 0
M  V30 6903 H 654.378 -0.68316 6.07571 0
M  V30 6904 H 658.552 -0.243488 6.95974 0
M  V30 6905 H 656.179 0.0610366 7.60175 0
M  V30 6906 N 657.755 -1.42862 -0.66545 0
M  V30 6907 C 658.665 -1.49491 -1.80803 0
M  V30 6908 C 659.681 -0.382914 -1.69734 0
M  V30 6909 O 660.857 -0.635223 -1.9112 0
M  V30 6910 C 657.922 -1.40383 -3.17007 0
M  V30 6911 C 656.983 -2.62152 -3.39963 0
M  V30 6912 C 656.216 -2.53469 -4.69669 0
M  V30 6913 O 656.439 -1.57568 -5.48205 0
M  V30 6914 O 655.373 -3.43763 -4.94075 0
M  V30 6915 H 659.199 -2.45949 -1.78165 0
M  V30 6916 H 656.784 -1.24728 -0.822387 0
M  V30 6917 H 658.666 -1.377 -3.98267 0
M  V30 6918 H 657.341 -0.470546 -3.20262 0
M  V30 6919 H 656.248 -2.70409 -2.58515 0
M  V30 6920 H 657.581 -3.54411 -3.41546 0
M  V30 6921 N 659.233 0.902656 -1.29189 0
M  V30 6922 C 660.481 1.6496 -1.16758 0
M  V30 6923 C 660.802 1.92952 0.28188 0
M  V30 6924 O 660.072 1.55351 1.19344 0
M  V30 6925 H 658.652 0.611447 -0.429118 0
M  V30 6926 H 661.314 1.0825 -1.62074 0
M  V30 6927 H 660.41 2.60728 -1.71544 0
M  V30 6928 N 660.711 1.11618 1.11262 0
M  V30 6929 C 661.957 0.867463 1.83311 0
M  V30 6930 C 662.29 -0.605366 1.84524 0
M  V30 6931 O 661.565 -1.44704 1.29965 0
M  V30 6932 C 661.848 1.43207 3.30399 0
M  V30 6933 C 661.701 2.97265 3.3757 0
M  V30 6934 C 663.02 1.08454 4.26528 0
M  V30 6935 H 660.139 0.316578 0.665543 0
M  V30 6936 H 662.781 1.38137 1.30454 0
M  V30 6937 H 660.931 0.994982 3.75543 0
M  V30 6938 H 662.603 3.49591 3.00971 0
M  V30 6939 H 660.846 3.33237 2.77733 0
M  V30 6940 H 661.517 3.31859 4.41105 0
M  V30 6941 H 663.993 1.4619 3.89574 0
M  V30 6942 H 662.869 1.50633 5.27826 0
M  V30 6943 H 663.13 -0.00444568 4.421 0
M  V30 6944 N 662.189 -1.289 0.906776 0
M  V30 6945 C 663.437 -1.94883 0.535266 0
M  V30 6946 C 663.758 -1.71784 -0.922791 0
M  V30 6947 O 663.028 -1.05359 -1.65156 0
M  V30 6948 H 661.608 -0.721109 0.194962 0
M  V30 6949 H 664.27 -1.57018 1.15461 0
M  V30 6950 H 663.366 -3.03591 0.723821 0
M  V30 6951 N 663.667 -0.670007 -1.42649 0
M  V30 6952 C 664.916 -0.187526 -2.00826 0
M  V30 6953 C 665.229 1.21142 -1.53571 0
M  V30 6954 O 666.435 1.79001 -2.04134 0
M  V30 6955 C 664.891 -0.284409 -3.58774 0
M  V30 6956 C 664.499 -1.6871 -4.15019 0
M  V30 6957 C 666.243 0.139605 -4.2427 0
M  V30 6958 C 664.15 -1.73701 -5.65316 0
M  V30 6959 H 663.08 -0.0663468 -0.751075 0
M  V30 6960 H 665.731 -0.834492 -1.63427 0
M  V30 6961 H 664.113 0.430364 -3.93655 0
M  V30 6962 H 665.287 -2.42857 -3.91608 0
M  V30 6963 H 663.602 -2.05855 -3.61957 0
M  V30 6964 H 666.199 0.122398 -5.3456 0
M  V30 6965 H 666.542 1.17403 -3.99402 0
M  V30 6966 H 667.075 -0.523995 -3.94334 0
M  V30 6967 H 663.814 -2.75109 -5.94975 0
M  V30 6968 H 663.334 -1.03903 -5.90732 0
M  V30 6969 H 665.013 -1.48829 -6.2965 0
M  V30 6970 N 665.145 1.52092 -0.413018 0
M  V30 6971 C 666.556 1.86617 0.0556967 0
M  V30 6972 C 666.907 1.33156 1.44097 0
M  V30 6973 O 666.032 0.672417 2.05688 0
M  V30 6974 C 666.627 3.38628 0.107844 0
M  V30 6975 C 665.186 3.72778 0.520904 0
M  V30 6976 C 664.333 2.75649 -0.302109 0
M  V30 6977 H 667.284 1.45663 -0.629919 0
M  V30 6978 H 667.305 3.69152 0.922324 0
M  V30 6979 H 666.817 3.77508 -0.900506 0
M  V30 6980 H 664.918 3.39478 1.53575 0
M  V30 6981 H 665.031 4.7838 0.262591 0
M  V30 6982 H 663.395 2.53603 0.236115 0
M  V30 6983 H 664.178 3.17369 -1.30888 0
M  V30 6984 N 666.623 0.143563 1.56945 0
M  V30 6985 C 667.9 -0.553285 1.87612 0
M  V30 6986 C 668.28 -1.83195 1.04894 0
M  V30 6987 O 667.628 -2.28102 0.134773 0
M  V30 6988 C 667.838 -0.822055 3.3918 0
M  V30 6989 C 669.186 -1.16435 4.08324 0
M  V30 6990 O 670.21 -0.911522 3.4434 0
M  V30 6991 O 669.069 -1.63996 5.21313 0
M  V30 6992 H 666.163 -0.281851 0.777489 0
M  V30 6993 H 668.709 0.179916 1.68744 0
M  V30 6994 H 667.481 0.0830265 3.91212 0
M  V30 6995 H 667.104 -1.60956 3.63564 0
M  V30 6996 N 668.101 -1.57061 -0.130224 0
M  V30 6997 C 669.341 -1.86071 -0.845993 0
M  V30 6998 C 669.705 -0.73009 -1.77577 0
M  V30 6999 O 670.906 -0.901663 -2.53226 0
M  V30 7000 C 669.177 -3.20293 -1.58579 0
M  V30 7001 S 670.736 -3.70905 -2.34467 0
M  V30 7002 H 667.554 -0.652434 -0.282579 0
M  V30 7003 H 670.156 -1.95218 -0.10498 0
M  V30 7004 H 668.86 -4.00533 -0.894509 0
M  V30 7005 H 668.391 -3.14195 -2.36739 0
M  V30 7006 H 670.406 -3.41509 -3.59981 0
M  V30 7007 N 669.579 0.400081 -1.52437 0
M  V30 7008 C 670.828 1.14332 -1.66166 0
M  V30 7009 C 671.141 1.91419 -0.402253 0
M  V30 7010 O 672.347 2.6824 -0.419487 0
M  V30 7011 C 670.803 2.08137 -2.9361 0
M  V30 7012 C 670.411 1.36524 -4.26691 0
M  V30 7013 C 672.155 2.82664 -3.16703 0
M  V30 7014 C 670.062 2.29031 -5.45251 0
M  V30 7015 H 668.992 0.430499 -0.61902 0
M  V30 7016 H 671.643 0.407017 -1.78929 0
M  V30 7017 H 670.025 2.85358 -2.74567 0
M  V30 7018 H 671.199 0.646061 -4.56249 0
M  V30 7019 H 669.514 0.74002 -4.09771 0
M  V30 7020 H 672.111 3.52037 -4.0246 0
M  V30 7021 H 672.454 3.46122 -2.31312 0
M  V30 7022 H 672.987 2.12541 -3.36261 0
M  V30 7023 H 669.726 1.70206 -6.33017 0
M  V30 7024 H 669.246 2.98896 -5.2002 0
M  V30 7025 H 670.925 2.89359 -5.78689 0
M  V30 7026 N 671.057 1.43213 0.657864 0
M  V30 7027 C 672.334 1.35063 1.41483 0
M  V30 7028 C 672.714 -0.0038314 2.111 0
M  V30 7029 O 672.062 -1.02018 2.04462 0
M  V30 7030 C 672.272 2.53061 2.40335 0
M  V30 7031 C 673.62 2.9594 3.04474 0
M  V30 7032 O 674.644 2.53074 2.50663 0
M  V30 7033 O 673.503 3.70184 4.02027 0
M  V30 7034 H 670.597 0.533517 0.631893 0
M  V30 7035 H 673.143 1.55253 0.685162 0
M  V30 7036 H 671.915 3.43283 1.87809 0
M  V30 7037 H 671.538 2.34945 3.20759 0
M  V30 7038 N 672.536 -0.895792 1.29666 0
M  V30 7039 C 673.468 -2.00563 1.10937 0
M  V30 7040 C 674.481 -1.62705 0.055734 0
M  V30 7041 O 675.67 -1.7595 0.300656 0
M  V30 7042 C 672.77 -3.32262 0.667448 0
M  V30 7043 C 671.943 -3.98625 1.80047 0
M  V30 7044 C 671.002 -5.08617 1.3489 0
M  V30 7045 O 670.028 -5.30837 2.05429 0
M  V30 7046 N 671.23 -5.80076 0.221937 0
M  V30 7047 H 673.995 -2.17184 2.06522 0
M  V30 7048 H 671.556 -1.06822 1.21658 0
M  V30 7049 H 673.548 -4.03196 0.348586 0
M  V30 7050 H 672.118 -3.11985 -0.196055 0
M  V30 7051 H 671.338 -3.21005 2.28801 0
M  V30 7052 H 672.626 -4.39704 2.56003 0
M  V30 7053 H 672.024 -5.64514 -0.366084 0
M  V30 7054 H 670.581 -6.51789 -0.0375346 0
M  V30 7055 N 674.014 -1.12206 -1.10668 0
M  V30 7056 C 675.262 -0.874144 -1.82217 0
M  V30 7057 C 675.583 0.601736 -1.85484 0
M  V30 7058 O 674.853 1.43725 -1.33116 0
M  V30 7059 H 673.433 -0.320404 -0.674797 0
M  V30 7060 H 676.095 -1.41606 -1.33917 0
M  V30 7061 H 675.191 -1.25349 -2.85822 0
M  V30 7062 N 675.492 1.28418 -0.913599 0
M  V30 7063 C 676.439 2.27301 -0.400373 0
M  V30 7064 C 677.409 1.57582 0.52509 0
M  V30 7065 O 678.594 1.85482 0.447318 0
M  V30 7066 C 675.734 3.43284 0.35361 0
M  V30 7067 C 674.847 4.27752 -0.604341 0
M  V30 7068 C 673.982 5.30934 0.168075 0
M  V30 7069 C 673.021 6.07065 -0.783499 0
M  V30 7070 N 672.158 7.02086 -0.0446112 0
M  V30 7071 H 676.998 2.70579 -1.24865 0
M  V30 7072 H 674.535 1.33067 -0.627028 0
M  V30 7073 H 676.493 4.09322 0.806945 0
M  V30 7074 H 675.123 3.00997 1.16623 0
M  V30 7075 H 674.175 3.61759 -1.17621 0
M  V30 7076 H 675.487 4.80682 -1.33216 0
M  V30 7077 H 674.641 6.02855 0.681979 0
M  V30 7078 H 673.38 4.78771 0.928947 0
M  V30 7079 H 672.385 5.33995 -1.30878 0
M  V30 7080 H 673.61 6.61317 -1.54392 0
M  V30 7081 H 671.556 6.52273 0.698272 0
M  V30 7082 H 671.473 7.52637 -0.712258 0
M  V30 7083 H 672.741 7.78205 0.449102 0
M  V30 7084 N 676.97 0.677563 1.42291 0
M  V30 7085 C 677.933 0.0101085 2.29198 0
M  V30 7086 C 678.933 -0.726219 1.43467 0
M  V30 7087 O 680.123 -0.563807 1.64824 0
M  V30 7088 C 677.255 -0.996316 3.26016 0
M  V30 7089 H 678.448 0.775071 2.89711 0
M  V30 7090 H 676.001 0.440065 1.49977 0
M  V30 7091 H 676.736 -1.78967 2.70446 0
M  V30 7092 H 676.521 -0.471687 3.89253 0
M  V30 7093 H 678.011 -1.46167 3.91184 0
M  V30 7094 N 678.448 -1.51871 0.421078 0
M  V30 7095 C 679.411 -2.25914 -0.386712 0
M  V30 7096 C 680.411 -1.28733 -0.963555 0
M  V30 7097 O 681.601 -1.52579 -0.840556 0
M  V30 7098 C 678.733 -3.03853 -1.54551 0
M  V30 7099 H 679.926 -2.98754 0.261978 0
M  V30 7100 H 677.479 -1.5533 0.173862 0
M  V30 7101 H 678.214 -2.35392 -2.23072 0
M  V30 7102 H 677.999 -3.75215 -1.13824 0
M  V30 7103 H 679.489 -3.59984 -2.11663 0
M  V30 7104 N 679.926 -0.151884 -1.56866 0
M  V30 7105 C 681.172 0.498742 -1.96572 0
M  V30 7106 C 681.505 1.64194 -1.03702 0
M  V30 7107 O 680.78 1.94334 -0.0803432 0
M  V30 7108 C 681.063 1.00027 -3.45929 0
M  V30 7109 C 680.916 -0.141767 -4.49577 0
M  V30 7110 C 682.235 1.88044 -3.97904 0
M  V30 7111 H 679.354 0.17982 -0.714726 0
M  V30 7112 H 681.996 -0.234097 -1.88552 0
M  V30 7113 H 680.146 1.62476 -3.52894 0
M  V30 7114 H 681.818 -0.778269 -4.54687 0
M  V30 7115 H 680.061 -0.80019 -4.26356 0
M  V30 7116 H 680.732 0.250947 -5.51429 0
M  V30 7117 H 683.208 1.35416 -3.93449 0
M  V30 7118 H 682.084 2.20043 -5.02864 0
M  V30 7119 H 682.345 2.81916 -3.40552 0
M  V30 7120 N 681.404 1.57128 0.121893 0
M  V30 7121 C 682.629 1.89254 0.848385 0
M  V30 7122 C 683.054 0.743527 1.72781 0
M  V30 7123 O 682.412 -0.306056 1.78698 0
M  V30 7124 C 682.46 3.20113 1.66012 0
M  V30 7125 O 681.564 3.05815 2.76679 0
M  V30 7126 H 680.905 0.621103 0.234793 0
M  V30 7127 H 683.435 2.0433 0.10516 0
M  V30 7128 H 683.445 3.52761 2.04996 0
M  V30 7129 H 682.12 4.03336 1.01452 0
M  V30 7130 H 680.697 2.84627 2.40918 0
M  V30 7131 N 682.882 -0.391992 1.52647 0
M  V30 7132 C 684.159 -1.15136 1.58123 0
M  V30 7133 C 684.539 -2.07786 0.372597 0
M  V30 7134 O 683.887 -2.19374 -0.639304 0
M  V30 7135 C 684.097 -1.91367 2.91856 0
M  V30 7136 C 685.445 -2.46833 3.45483 0
M  V30 7137 O 686.469 -2.01527 2.9371 0
M  V30 7138 O 685.328 -3.29587 4.3593 0
M  V30 7139 H 682.422 -0.526649 0.637629 0
M  V30 7140 H 684.968 -0.397386 1.64982 0
M  V30 7141 H 683.74 -1.23597 3.71268 0
M  V30 7142 H 683.363 -2.73732 2.88369 0
M  V30 7143 N 684.36 -1.4356 -0.65026 0
M  V30 7144 C 685.323 -1.48615 -1.74489 0
M  V30 7145 C 686.323 -0.370483 -1.56474 0
M  V30 7146 O 687.513 -0.632351 -1.62317 0
M  V30 7147 C 684.645 -1.34161 -3.13391 0
M  V30 7148 H 685.838 -2.46103 -1.71387 0
M  V30 7149 H 683.391 -1.30369 -0.862186 0
M  V30 7150 H 684.126 -0.376918 -3.22102 0
M  V30 7151 H 683.911 -2.1504 -3.27872 0
M  V30 7152 H 685.401 -1.40637 -3.93206 0
M  V30 7153 N 685.838 0.888903 -1.30139 0
M  V30 7154 C 686.768 2.01046 -1.18755 0
M  V30 7155 C 687.749 1.69916 -0.0791438 0
M  V30 7156 O 688.934 1.92445 -0.260498 0
M  V30 7157 C 686.064 3.36109 -0.874518 0
M  V30 7158 C 685.018 3.81486 -1.94043 0
M  V30 7159 C 684.344 5.13796 -1.48047 0
M  V30 7160 C 685.644 4.00637 -3.35093 0
M  V30 7161 H 687.338 2.10828 -2.12584 0
M  V30 7162 H 684.884 1.01298 -1.02346 0
M  V30 7163 H 686.837 4.14089 -0.781548 0
M  V30 7164 H 685.561 3.26449 0.0994519 0
M  V30 7165 H 684.22 3.05731 -2.02297 0
M  V30 7166 H 683.868 5.0056 -0.494878 0
M  V30 7167 H 683.568 5.45127 -2.19341 0
M  V30 7168 H 685.092 5.94305 -1.40121 0
M  V30 7169 H 686.506 4.69067 -3.2962 0
M  V30 7170 H 684.903 4.43339 -4.04438 0
M  V30 7171 H 685.973 3.0462 -3.77273 0
M  V30 7172 N 687.317 1.12792 1.10072 0
M  V30 7173 C 688.545 0.908506 1.85886 0
M  V30 7174 C 688.96 -0.542408 1.80841 0
M  V30 7175 O 688.317 -1.37517 1.1998 0
M  V30 7176 C 688.368 1.37973 3.34134 0
M  V30 7177 O 688.089 2.77378 3.39106 0
M  V30 7178 C 689.59 1.1978 4.26811 0
M  V30 7179 H 686.81 0.3244 0.587372 0
M  V30 7180 H 689.354 1.49882 1.39125 0
M  V30 7181 H 687.509 0.832566 3.78348 0
M  V30 7182 H 687.923 2.98144 4.31521 0
M  V30 7183 H 689.397 1.57635 5.29014 0
M  V30 7184 H 689.874 0.138768 4.38981 0
M  V30 7185 H 690.48 1.73266 3.88406 0
M  V30 7186 N 688.795 -1.27931 0.920396 0
M  V30 7187 C 690.025 -1.98516 0.572256 0
M  V30 7188 C 690.433 -1.68912 -0.852375 0
M  V30 7189 O 689.776 -0.94203 -1.57707 0
M  V30 7190 C 689.838 -3.5243 0.709485 0
M  V30 7191 C 689.502 -4.0564 2.10489 0
M  V30 7192 C 690.499 -4.1897 3.07831 0
M  V30 7193 C 688.184 -4.40168 2.41986 0
M  V30 7194 C 690.178 -4.66093 4.34783 0
M  V30 7195 C 687.865 -4.86983 3.69176 0
M  V30 7196 C 688.863 -4.99903 4.65388 0
M  V30 7197 O 688.551 -5.45694 5.90316 0
M  V30 7198 H 688.283 -0.64047 0.216274 0
M  V30 7199 H 690.837 -1.6393 1.23758 0
M  V30 7200 H 689.067 -3.86698 -0.0129263 0
M  V30 7201 H 690.756 -4.04233 0.367474 0
M  V30 7202 H 691.522 -3.92562 2.84816 0
M  V30 7203 H 687.401 -4.29358 1.67846 0
M  V30 7204 H 690.945 -4.76092 5.09884 0
M  V30 7205 H 686.842 -5.12832 3.92012 0
M  V30 7206 H 687.61 -5.63965 5.932 0
M  V30 7207 N 690.273 -0.685099 -1.4193 0
M  V30 7208 C 691.203 -0.0273506 -2.33484 0
M  V30 7209 C 692.184 0.778366 -1.51246 0
M  V30 7210 O 693.369 0.733449 -1.79817 0
M  V30 7211 C 690.499 0.917272 -3.34968 0
M  V30 7212 C 689.453 0.21941 -4.27437 0
M  V30 7213 C 688.779 1.27768 -5.1921 0
M  V30 7214 C 690.079 -0.907894 -5.14349 0
M  V30 7215 H 691.773 -0.791994 -2.88735 0
M  V30 7216 H 689.319 -0.382308 -1.38832 0
M  V30 7217 H 691.272 1.38657 -3.97935 0
M  V30 7218 H 689.996 1.71346 -2.78043 0
M  V30 7219 H 688.655 -0.229757 -3.65879 0
M  V30 7220 H 688.303 2.06612 -4.58607 0
M  V30 7221 H 688.003 0.815803 -5.81909 0
M  V30 7222 H 689.527 1.7477 -5.85054 0
M  V30 7223 H 690.941 -0.519348 -5.70943 0
M  V30 7224 H 689.338 -1.2962 -5.85934 0
M  V30 7225 H 690.408 -1.75218 -4.52136 0
M  V30 7226 N 691.751 1.51645 -0.429126 0
M  V30 7227 C 692.998 2.02015 0.140079 0
M  V30 7228 C 693.326 1.31374 1.43427 0
M  V30 7229 O 692.581 0.414779 1.91254 0
M  V30 7230 C 692.88 3.54989 0.414472 0
M  V30 7231 C 692.546 4.43874 -0.792911 0
M  V30 7232 C 691.208 4.67887 -1.12404 0
M  V30 7233 C 693.56 4.96074 -1.59875 0
M  V30 7234 C 690.888 5.41348 -2.26184 0
M  V30 7235 C 693.24 5.70782 -2.72747 0
M  V30 7236 C 691.904 5.93062 -3.06324 0
M  V30 7237 H 691.174 0.739225 0.0512585 0
M  V30 7238 H 693.821 1.82675 -0.574641 0
M  V30 7239 H 692.126 3.72615 1.21099 0
M  V30 7240 H 693.823 3.91489 0.868173 0
M  V30 7241 H 690.413 4.25374 -0.524871 0
M  V30 7242 H 694.597 4.77412 -1.35614 0
M  V30 7243 H 689.853 5.56815 -2.52522 0
M  V30 7244 H 694.027 6.10221 -3.35564 0
M  V30 7245 H 691.654 6.49764 -3.94602 0
M  V30 7246 N 693.229 0.160201 1.56784 0
M  V30 7247 C 694.454 -0.497373 2.01348 0
M  V30 7248 C 694.879 -1.56757 1.03966 0
M  V30 7249 O 694.237 -1.81292 0.0174455 0
M  V30 7250 C 694.285 -1.0628 3.44582 0
M  V30 7251 O 693.389 -2.17723 3.50244 0
M  V30 7252 H 692.73 -0.120295 0.653012 0
M  V30 7253 H 695.26 0.260821 2.02931 0
M  V30 7254 H 695.27 -1.38819 3.83658 0
M  V30 7255 H 693.945 -0.279166 4.14962 0
M  V30 7256 H 692.522 -1.86313 3.2302 0
M  V30 7257 O 694.746 -1.61485 0.0219998 0
M  V30 7258 H 695.437 -1.84445 -0.591595 0
M  V30 END ATOM
M  V30 BEGIN BOND
M  V30 END BOND
M  V30 END CTAB
M  END
$$$$
