drugbank_target|P32320 Cytidine deaminase (DB03185; DB15694)
 OpenBabel12092120213D

  0  0  0     0  0            999 V3000
M  V30 BEGIN CTAB
M  V30 COUNTS 2246 2270 0 0 0
M  V30 BEGIN ATOM
M  V30 1 H -0.908 1.98254 -0.117106 0
M  V30 2 N 0 1.576 0 0
M  V30 3 C 0.933 2.03868 1.02534 0
M  V30 4 C 1.911 0.928543 1.3348 0
M  V30 5 O 3.095 1.19667 1.45644 0
M  V30 6 C 0.222 2.43627 2.35294 0
M  V30 7 C -0.732 3.65373 2.2001 0
M  V30 8 S 0.101 5.13292 1.52614 0
M  V30 9 C 1.257 5.56322 2.86805 0
M  V30 10 H 1.49 2.90518 0.631377 0
M  V30 11 H -0.977 1.52953 0.210867 0
M  V30 12 H 0.981 2.67203 3.11629 0
M  V30 13 H -0.358 1.57376 2.7183 0
M  V30 14 H -1.165 3.90944 3.18086 0
M  V30 15 H -1.563 3.418 1.51819 0
M  V30 16 H 0.729 5.58782 3.83104 0
M  V30 17 H 1.672 6.56266 2.65933 0
M  V30 18 H 2.08 4.83886 2.90714 0
M  V30 19 N 1.4781 -0.272755 1.55222 0
M  V30 20 C 2.4411 -1.32041 1.87344 0
M  V30 21 C 3.4411 -1.42342 0.74803 0
M  V30 22 O 4.6311 -1.41488 1.0162 0
M  V30 23 C 1.7631 -2.70173 2.07893 0
M  V30 24 H 2.9561 -1.04789 2.80997 0
M  V30 25 H 0.5091 -0.51083 1.47717 0
M  V30 26 H 1.2441 -3.02605 1.16622 0
M  V30 27 H 1.0291 -2.64082 2.89833 0
M  V30 28 H 2.5191 -3.45869 2.34017 0
M  V30 29 N 2.9562 -1.48159 -0.537278 0
M  V30 30 C 3.8882 -1.58218 -1.65831 0
M  V30 31 C 4.9012 -0.466948 -1.5596 0
M  V30 32 O 6.0902 -0.73747 -1.62553 0
M  V30 33 C 3.1902 -1.48906 -3.04434 0
M  V30 34 C 2.3632 -2.75343 -3.3986 0
M  V30 35 C 1.4222 -2.59588 -4.57712 0
M  V30 36 O 0.4482 -3.33457 -4.61297 0
M  V30 37 N 1.6502 -1.68724 -5.55439 0
M  V30 38 H 4.4152 -2.54891 -1.57641 0
M  V30 39 H 1.9762 -1.4479 -0.724386 0
M  V30 40 H 3.9682 -1.36072 -3.81139 0
M  V30 41 H 2.5382 -0.602368 -3.06741 0
M  V30 42 H 1.7582 -3.02795 -2.52406 0
M  V30 43 H 3.0462 -3.5924 -3.60311 0
M  V30 44 H 2.4442 -1.07898 -5.55315 0
M  V30 45 H 1.0012 -1.61832 -6.3139 0
M  V30 46 N 4.4343 0.785586 -1.36625 0
M  V30 47 C 5.3813 1.89838 -1.31264 0
M  V30 48 C 6.3513 1.65115 -0.180633 0
M  V30 49 O 7.5363 1.87222 -0.36777 0
M  V30 50 C 4.6763 3.26706 -1.11163 0
M  V30 51 C 3.7893 3.63476 -2.33472 0
M  V30 52 C 2.9243 4.89481 -2.06353 0
M  V30 53 C 1.9633 5.18941 -3.24602 0
M  V30 54 N 1.1003 6.36131 -2.97123 0
M  V30 55 H 5.9403 1.93756 -2.26413 0
M  V30 56 H 3.4773 0.947454 -1.12524 0
M  V30 57 H 5.4353 4.05639 -0.975337 0
M  V30 58 H 4.0653 3.222 -0.196674 0
M  V30 59 H 3.1173 2.79636 -2.57891 0
M  V30 60 H 4.4293 3.81193 -3.21704 0
M  V30 61 H 3.5833 5.76288 -1.89675 0
M  V30 62 H 2.3223 4.73841 -1.15437 0
M  V30 63 H 1.3273 4.30615 -3.41834 0
M  V30 64 H 2.5523 5.36498 -4.16349 0
M  V30 65 H 0.4983 6.21875 -2.08823 0
M  V30 66 H 0.4153 6.54198 -3.78894 0
M  V30 67 H 1.6833 7.2591 -2.84033 0
M  V30 68 N 5.9124 1.20967 1.01018 0
M  V30 69 C 7.3284 0.965905 1.27053 0
M  V30 70 C 7.5284 -0.350785 1.98423 0
M  V30 71 O 6.5844 -1.07773 2.28344 0
M  V30 72 C 7.8974 2.15294 2.09926 0
M  V30 73 C 9.4454 2.19463 2.23171 0
M  V30 74 C 9.9204 3.3767 3.09424 0
M  V30 75 N 11.4114 3.37724 3.17012 0
M  V30 76 C 12.1464 4.25837 3.83993 0
M  V30 77 N 11.6424 5.24138 4.53047 0
M  V30 78 N 13.4354 4.1366 3.80581 0
M  V30 79 H 5.5864 2.0565 0.531194 0
M  V30 80 H 7.8494 0.90024 0.297106 0
M  V30 81 H 7.5554 3.10684 1.64828 0
M  V30 82 H 7.4294 2.13923 3.10672 0
M  V30 83 H 9.8164 1.24632 2.6749 0
M  V30 84 H 9.8974 2.2488 1.21912 0
M  V30 85 H 9.5414 4.32791 2.65808 0
M  V30 86 H 9.4714 3.29491 4.10784 0
M  V30 87 H 11.9624 2.6658 2.6785 0
M  V30 88 H 12.2754 5.87684 5.01844 0
M  V30 89 H 10.6204 5.28068 4.5185 0
M  V30 90 H 13.8114 3.36127 3.25785 0
M  V30 91 H 13.9844 4.82538 4.32505 0
M  V30 92 N 7.3905 -1.2043 1.01659 0
M  V30 93 C 8.8015 -1.71517 0.737482 0
M  V30 94 C 9.1525 -1.81547 -0.743973 0
M  V30 95 O 8.2775 -1.47803 -1.58061 0
M  V30 96 C 8.8725 -3.11515 1.33206 0
M  V30 97 C 7.4315 -3.59912 1.10183 0
M  V30 98 C 6.5785 -2.37116 1.43776 0
M  V30 99 H 9.5295 -1.05444 1.18606 0
M  V30 100 H 9.5505 -3.73575 0.722636 0
M  V30 101 H 9.0625 -3.04182 2.41028 0
M  V30 102 H 7.1635 -3.72577 0.0412756 0
M  V30 103 H 7.2765 -4.44731 1.78188 0
M  V30 104 H 5.6405 -2.39857 0.856778 0
M  V30 105 H 6.4235 -2.32424 2.52654 0
M  V30 106 N 8.8686 -0.792821 -1.36206 0
M  V30 107 C 9.8316 -0.199459 -2.2833 0
M  V30 108 C 10.8316 0.605189 -1.48977 0
M  V30 109 O 12.0216 0.425685 -1.68919 0
M  V30 110 C 9.1536 0.723523 -3.33134 0
M  V30 111 H 10.3466 -1.01181 -2.82316 0
M  V30 112 H 7.8996 -0.562485 -1.45828 0
M  V30 113 H 8.6346 1.56008 -2.84309 0
M  V30 114 H 8.4196 0.148436 -3.91819 0
M  V30 115 H 9.9096 1.13344 -4.01924 0
M  V30 116 N 10.3467 1.47872 -0.545128 0
M  V30 117 C 11.5867 2.04391 -0.0187854 0
M  V30 118 C 11.9507 1.41162 1.30144 0
M  V30 119 O 13.1517 1.88656 1.91474 0
M  V30 120 C 11.4227 3.57299 0.0850867 0
M  V30 121 S 12.9817 4.35221 0.559302 0
M  V30 122 H 9.7997 0.710737 -0.0193301 0
M  V30 123 H 12.4017 1.81395 -0.729125 0
M  V30 124 H 11.1057 4.00847 -0.880351 0
M  V30 125 H 10.6367 3.84773 0.819348 0
M  V30 126 H 12.6517 4.61571 1.82118 0
M  V30 127 N 11.8248 0.280983 1.55075 0
M  V30 128 C 13.0528 -0.337293 2.04132 0
M  V30 129 C 13.4678 -1.4903 1.15912 0
M  V30 130 O 12.8248 -1.81606 0.180459 0
M  V30 131 C 12.8758 -0.812706 3.52246 0
M  V30 132 O 12.5968 0.294387 4.3711 0
M  V30 133 C 14.0978 -1.4982 4.17216 0
M  V30 134 H 11.3178 -0.0761638 0.666663 0
M  V30 135 H 13.8618 0.414787 2.00249 0
M  V30 136 H 12.0168 -1.51486 3.56554 0
M  V30 137 H 12.4308 -0.0721325 5.2445 0
M  V30 138 H 13.9048 -1.7822 5.22438 0
M  V30 139 H 14.3818 -2.43168 3.65741 0
M  V30 140 H 14.9878 -0.839742 4.16927 0
M  V30 141 N 13.3029 -1.57598 0.00835791 0
M  V30 142 C 14.2329 -2.1198 -0.979113 0
M  V30 143 C 15.2139 -1.03091 -1.35301 0
M  V30 144 O 16.3989 -1.30818 -1.43528 0
M  V30 145 C 13.5289 -2.62995 -2.26828 0
M  V30 146 C 12.4829 -3.76485 -2.03576 0
M  V30 147 C 11.8089 -4.13846 -3.38579 0
M  V30 148 C 13.1089 -5.0342 -1.39161 0
M  V30 149 H 14.8029 -2.94738 -0.526281 0
M  V30 150 H 12.3489 -1.41783 -0.251704 0
M  V30 151 H 14.3019 -2.99669 -2.96271 0
M  V30 152 H 13.0259 -1.7737 -2.7424 0
M  V30 153 H 11.6849 -3.40217 -1.36557 0
M  V30 154 H 11.3329 -3.25232 -3.83709 0
M  V30 155 H 11.0329 -4.90312 -3.23834 0
M  V30 156 H 12.5569 -4.53086 -4.09323 0
M  V30 157 H 13.9709 -5.37812 -1.98573 0
M  V30 158 H 12.3679 -5.84746 -1.34878 0
M  V30 159 H 13.4379 -4.83548 -0.361868 0
M  V30 160 N 14.781 0.264519 -1.55364 0
M  V30 161 C 15.728 1.32717 -1.88825 0
M  V30 162 C 16.698 1.48675 -0.740605 0
M  V30 163 O 17.883 1.62945 -0.992657 0
M  V30 164 C 15.023 2.68089 -2.17307 0
M  V30 165 C 14.136 2.60284 -3.44785 0
M  V30 166 C 13.271 3.87892 -3.62924 0
M  V30 167 C 12.31 3.74631 -4.84064 0
M  V30 168 N 11.447 4.94092 -4.98816 0
M  V30 169 H 16.287 1.03481 -2.79456 0
M  V30 170 H 13.824 0.499757 -1.3835 0
M  V30 171 H 15.782 3.46864 -2.31821 0
M  V30 172 H 14.412 2.95509 -1.299 0
M  V30 173 H 13.464 1.73173 -3.38697 0
M  V30 174 H 14.776 2.46388 -4.33698 0
M  V30 175 H 13.93 4.75109 -3.77302 0
M  V30 176 H 12.669 4.04664 -2.7221 0
M  V30 177 H 11.674 2.85797 -4.69681 0
M  V30 178 H 12.899 3.5937 -5.76221 0
M  V30 179 H 10.845 5.11259 -4.11036 0
M  V30 180 H 10.762 4.8276 -5.81789 0
M  V30 181 H 12.03 5.82857 -5.17588 0
M  V30 182 N 16.2591 1.48442 0.529413 0
M  V30 183 C 17.6701 1.5002 1.11134 0
M  V30 184 C 18.0211 0.27031 1.94329 0
M  V30 185 O 17.1461 -0.622507 2.07253 0
M  V30 186 C 17.7411 2.71834 2.02217 0
M  V30 187 C 16.3001 2.76283 2.55627 0
M  V30 188 C 15.4471 2.43542 1.326 0
M  V30 189 H 18.3981 1.5555 0.314641 0
M  V30 190 H 18.4191 2.50384 2.8651 0
M  V30 191 H 17.9311 3.61331 1.41639 0
M  V30 192 H 16.0321 1.90995 3.19924 0
M  V30 193 H 16.1451 3.77725 2.94721 0
M  V30 194 H 14.5091 1.94709 1.64196 0
M  V30 195 H 15.2921 3.3528 0.737734 0
M  V30 196 N 17.7372 -0.778329 1.37039 0
M  V30 197 C 18.6472 -1.92253 1.34446 0
M  V30 198 C 19.6632 -1.72267 0.244991 0
M  V30 199 O 20.8392 -1.95615 0.479258 0
M  V30 200 C 17.9042 -3.27282 1.144 0
M  V30 201 C 16.9652 -3.59969 2.33925 0
M  V30 202 C 16.1982 -4.88555 2.14825 0
M  V30 203 O 16.4212 -5.59113 1.12912 0
M  V30 204 O 15.3552 -5.20153 3.02861 0
M  V30 205 H 19.1812 -1.97392 2.30803 0
M  V30 206 H 16.7662 -0.920154 1.17701 0
M  V30 207 H 18.6482 -4.08062 1.05182 0
M  V30 208 H 17.3232 -3.23011 0.211124 0
M  V30 209 H 16.2302 -2.7945 2.48714 0
M  V30 210 H 17.5632 -3.68976 3.25757 0
M  V30 211 N 19.2153 -1.21501 -1.00376 0
M  V30 212 C 20.4553 -1.04444 -1.75701 0
M  V30 213 C 20.8193 0.414644 -1.87469 0
M  V30 214 O 22.0203 0.705763 -2.59369 0
M  V30 215 C 20.2913 -1.72389 -3.13077 0
M  V30 216 S 21.8503 -1.70604 -4.04277 0
M  V30 217 H 18.6683 -0.374249 -0.604532 0
M  V30 218 H 21.2703 -1.54267 -1.20091 0
M  V30 219 H 19.9743 -2.77734 -3.02146 0
M  V30 220 H 19.5053 -1.22751 -3.73759 0
M  V30 221 H 21.5203 -0.748012 -4.9053 0
M  V30 222 N 20.6934 1.19889 -1.02296 0
M  V30 223 C 21.9394 1.89701 -0.717033 0
M  V30 224 C 22.2724 1.7905 0.751989 0
M  V30 225 O 21.5474 1.17891 1.547 0
M  V30 226 C 21.8304 3.40858 -1.16136 0
M  V30 227 C 21.6834 3.60411 -2.69117 0
M  V30 228 C 23.0024 4.33876 -0.737549 0
M  V30 229 H 20.1214 0.688874 -0.261957 0
M  V30 230 H 22.7634 1.41154 -1.27183 0
M  V30 231 H 20.9134 3.82335 -0.689342 0
M  V30 232 H 22.5854 3.28145 -3.2422 0
M  V30 233 H 20.8284 3.03665 -3.0979 0
M  V30 234 H 21.4994 4.66396 -2.95261 0
M  V30 235 H 23.9754 4.00081 -1.14344 0
M  V30 236 H 22.8514 5.38242 -1.0764 0
M  V30 237 H 23.1124 4.40628 0.360436 0
M  V30 238 N 22.1715 0.800033 1.35784 0
M  V30 239 C 23.1035 0.163596 2.28615 0
M  V30 240 C 24.1165 -0.633317 1.49976 0
M  V30 241 O 25.3055 -0.466754 1.72289 0
M  V30 242 C 22.4055 -0.790958 3.29541 0
M  V30 243 C 21.5785 -0.0418255 4.3738 0
M  V30 244 C 20.6375 -0.91389 5.18203 0
M  V30 245 O 19.6635 -0.367234 5.68014 0
M  V30 246 N 20.8655 -2.23682 5.35674 0
M  V30 247 H 23.6305 0.96105 2.83873 0
M  V30 248 H 21.1915 0.654894 1.48063 0
M  V30 249 H 23.1835 -1.37844 3.80501 0
M  V30 250 H 21.7535 -1.48925 2.74846 0
M  V30 251 H 20.9735 0.726813 3.87442 0
M  V30 252 H 22.2615 0.474719 5.06581 0
M  V30 253 H 21.6595 -2.70497 4.96838 0
M  V30 254 H 20.2165 -2.77369 5.89839 0
M  V30 255 N 23.6496 -1.47581 0.552962 0
M  V30 256 C 24.5816 -2.27997 -0.234533 0
M  V30 257 C 25.5946 -1.36753 -0.883321 0
M  V30 258 O 26.7836 -1.61612 -0.757889 0
M  V30 259 C 23.8836 -3.10879 -1.34935 0
M  V30 260 C 23.0566 -4.30056 -0.798158 0
M  V30 261 C 22.1156 -4.94567 -1.79694 0
M  V30 262 O 21.1416 -5.53087 -1.34474 0
M  V30 263 N 22.3436 -4.88878 -3.13015 0
M  V30 264 H 25.1086 -2.96222 0.455255 0
M  V30 265 H 22.6696 -1.57163 0.388761 0
M  V30 266 H 24.6616 -3.50903 -2.01616 0
M  V30 267 H 23.2316 -2.44924 -1.94244 0
M  V30 268 H 22.4516 -3.94174 0.0453079 0
M  V30 269 H 23.7396 -5.07152 -0.409173 0
M  V30 270 H 23.1376 -4.42526 -3.52402 0
M  V30 271 H 21.6946 -5.32934 -3.75266 0
M  V30 272 N 25.1277 -0.289203 -1.54924 0
M  V30 273 C 26.0577 0.58549 -2.2604 0
M  V30 274 C 27.0387 1.14753 -1.25562 0
M  V30 275 O 28.2237 1.17906 -1.54311 0
M  V30 276 C 25.3537 1.76305 -2.99222 0
M  V30 277 C 24.3077 1.33191 -4.06748 0
M  V30 278 C 23.6337 2.5937 -4.6758 0
M  V30 279 C 24.9337 0.471775 -5.20165 0
M  V30 280 H 26.6277 -0.00763532 -2.99399 0
M  V30 281 H 24.1737 -0.00511229 -1.43999 0
M  V30 282 H 26.1267 2.38097 -3.47689 0
M  V30 283 H 24.8507 2.38223 -2.23422 0
M  V30 284 H 23.5097 0.737121 -3.59113 0
M  V30 285 H 23.1577 3.19576 -3.88433 0
M  V30 286 H 22.8577 2.31228 -5.40192 0
M  V30 287 H 24.3817 3.21985 -5.18804 0
M  V30 288 H 25.7957 0.995056 -5.64599 0
M  V30 289 H 24.1927 0.284639 -5.99425 0
M  V30 290 H 25.2627 -0.506041 -4.82252 0
M  V30 291 N 26.6058 1.57591 -0.0167156 0
M  V30 292 C 27.5358 2.12496 0.967858 0
M  V30 293 C 28.5168 1.03807 1.34752 0
M  V30 294 O 29.7018 1.31577 1.42833 0
M  V30 295 C 26.8318 2.64194 2.25431 0
M  V30 296 C 25.7858 3.77559 2.01576 0
M  V30 297 C 25.1118 4.15636 3.36379 0
M  V30 298 C 26.4118 5.04151 1.36489 0
M  V30 299 H 28.1058 2.95013 0.510643 0
M  V30 300 H 25.6518 1.41915 0.244181 0
M  V30 301 H 27.6048 3.01236 2.94678 0
M  V30 302 H 26.3288 1.78821 2.73296 0
M  V30 303 H 24.9878 3.40937 1.34751 0
M  V30 304 H 24.6358 3.27263 3.81979 0
M  V30 305 H 24.3358 4.92022 3.21229 0
M  V30 306 H 25.8598 4.5525 4.06915 0
M  V30 307 H 27.2738 5.38857 1.95718 0
M  V30 308 H 25.6708 5.85453 1.31776 0
M  V30 309 H 26.7408 4.83733 0.336219 0
M  V30 310 N 28.0839 -0.256276 1.55502 0
M  V30 311 C 29.3299 -0.987079 1.77157 0
M  V30 312 C 29.6629 -1.85327 0.580315 0
M  V30 313 O 28.9379 -1.89874 -0.421686 0
M  V30 314 C 29.2209 -1.85553 3.08613 0
M  V30 315 C 29.0739 -1.01816 4.38125 0
M  V30 316 C 30.3929 -2.8397 3.36228 0
M  V30 317 H 27.5119 -0.357428 0.644526 0
M  V30 318 H 30.1539 -0.258239 1.88237 0
M  V30 319 H 28.3039 -2.47695 2.99298 0
M  V30 320 H 29.9759 -0.416159 4.59419 0
M  V30 321 H 28.2189 -0.322178 4.32602 0
M  V30 322 H 28.8899 -1.65939 5.26468 0
M  V30 323 H 31.3659 -2.31964 3.45445 0
M  V30 324 H 30.2419 -3.41864 4.29442 0
M  V30 325 H 30.5029 -3.59955 2.56681 0
M  V30 326 N 29.562 -1.4872 -0.521534 0
M  V30 327 C 30.802 -1.58771 -1.28729 0
M  V30 328 C 31.166 -0.259394 -1.9024 0
M  V30 329 O 32.367 -0.234942 -2.67771 0
M  V30 330 C 30.638 -2.70039 -2.34124 0
M  V30 331 S 32.197 -2.9991 -3.20312 0
M  V30 332 H 29.015 -0.560251 -0.437767 0
M  V30 333 H 31.617 -1.86283 -0.593188 0
M  V30 334 H 30.321 -3.65101 -1.87429 0
M  V30 335 H 29.852 -2.44455 -3.08229 0
M  V30 336 H 31.867 -2.39855 -4.34378 0
M  V30 337 N 31.0401 0.771051 -1.3745 0
M  V30 338 C 32.2651 1.56529 -1.36065 0
M  V30 339 C 32.6901 1.88029 0.0515859 0
M  V30 340 O 32.0481 1.49282 1.02882 0
M  V30 341 C 32.0961 2.85187 -2.20683 0
M  V30 342 O 31.2001 3.79593 -1.61193 0
M  V30 343 H 30.5411 0.47411 -0.464883 0
M  V30 344 H 33.0711 0.954269 -1.80983 0
M  V30 345 H 33.0811 3.34283 -2.33921 0
M  V30 346 H 31.7561 2.61588 -3.23334 0
M  V30 347 H 30.3331 3.38239 -1.56999 0
M  V30 348 N 32.5182 1.22032 0.997298 0
M  V30 349 C 33.4502 0.944263 2.08845 0
M  V30 350 C 34.4632 -0.0754663 1.62625 0
M  V30 351 O 35.6522 0.157994 1.77799 0
M  V30 352 C 32.7522 0.397723 3.36558 0
M  V30 353 C 31.9252 1.47362 4.11829 0
M  V30 354 C 30.9842 0.934951 5.17827 0
M  V30 355 O 30.0102 1.62016 5.45655 0
M  V30 356 N 31.2122 -0.245895 5.79979 0
M  V30 357 H 33.9772 1.88363 2.33109 0
M  V30 358 H 31.5382 1.12661 1.16272 0
M  V30 359 H 33.5302 0.0227771 4.04694 0
M  V30 360 H 32.1002 -0.446646 3.09393 0
M  V30 361 H 31.3202 2.02208 3.38386 0
M  V30 362 H 32.6082 2.19764 4.58891 0
M  V30 363 H 32.0062 -0.819475 5.59733 0
M  V30 364 H 30.5632 -0.562272 6.4937 0
M  V30 365 N 33.9963 -1.19345 1.0293 0
M  V30 366 C 34.9063 -2.26245 0.620515 0
M  V30 367 C 35.9223 -1.70486 -0.347928 0
M  V30 368 O 37.0983 -2.00347 -0.205704 0
M  V30 369 C 34.1633 -3.46693 -0.0218957 0
M  V30 370 C 33.2243 -4.17632 0.994102 0
M  V30 371 C 32.4573 -5.32329 0.382253 0
M  V30 372 O 32.6803 -5.64552 -0.814676 0
M  V30 373 O 31.6143 -5.91664 1.10531 0
M  V30 374 H 35.4403 -2.63453 1.51083 0
M  V30 375 H 33.0253 -1.26207 0.799513 0
M  V30 376 H 34.9073 -4.19683 -0.380072 0
M  V30 377 H 33.5823 -3.11333 -0.886209 0
M  V30 378 H 32.4893 -3.4676 1.40387 0
M  V30 379 H 33.8223 -4.56964 1.8288 0
M  V30 380 N 35.4744 -0.807222 -1.35358 0
M  V30 381 C 36.4374 -0.223665 -2.28106 0
M  V30 382 C 37.4374 0.589354 -1.4961 0
M  V30 383 O 38.6274 0.407745 -1.69361 0
M  V30 384 C 35.7594 0.688149 -3.33882 0
M  V30 385 H 36.9524 -1.04169 -2.81227 0
M  V30 386 H 34.5054 -0.577921 -1.45223 0
M  V30 387 H 35.2404 1.52984 -2.85948 0
M  V30 388 H 35.0254 0.10687 -3.91954 0
M  V30 389 H 36.5154 1.09075 -4.03104 0
M  V30 390 N 36.9525 1.47285 -0.560781 0
M  V30 391 C 37.8995 2.30058 0.18491 0
M  V30 392 C 38.8695 1.39281 0.904986 0
M  V30 393 O 40.0545 1.68241 0.899979 0
M  V30 394 C 37.1945 3.23317 1.20666 0
M  V30 395 C 36.3075 4.29186 0.492285 0
M  V30 396 C 35.4425 5.09592 1.49964 0
M  V30 397 C 34.4815 6.07232 0.770439 0
M  V30 398 N 33.6185 6.80584 1.72479 0
M  V30 399 H 38.4585 2.93302 -0.527048 0
M  V30 400 H 35.9955 1.44568 -0.271738 0
M  V30 401 H 37.9535 3.75811 1.81168 0
M  V30 402 H 36.5835 2.61929 1.88661 0
M  V30 403 H 35.6355 3.7972 -0.227333 0
M  V30 404 H 36.9475 4.98738 -0.0787929 0
M  V30 405 H 36.1015 5.66254 2.17809 0
M  V30 406 H 34.8405 4.3995 2.10464 0
M  V30 407 H 33.8455 5.49745 0.0780846 0
M  V30 408 H 35.0705 6.78884 0.171134 0
M  V30 409 H 33.0165 6.1367 2.3183 0
M  V30 410 H 32.9335 7.46319 1.20596 0
M  V30 411 H 34.2015 7.41818 2.39428 0
M  V30 412 N 38.4306 0.297415 1.54768 0
M  V30 413 C 39.3776 -0.580276 2.23386 0
M  V30 414 C 40.3476 -1.13238 1.21517 0
M  V30 415 O 41.5326 -1.17757 1.50126 0
M  V30 416 C 38.6726 -1.74801 2.97555 0
M  V30 417 C 37.7856 -1.22764 4.1419 0
M  V30 418 C 36.9206 -2.35895 4.75949 0
M  V30 419 C 35.9596 -1.80974 5.84735 0
M  V30 420 N 35.0966 -2.87664 6.40464 0
M  V30 421 H 39.9366 0.0114833 2.97998 0
M  V30 422 H 37.4736 0.0174361 1.4709 0
M  V30 423 H 39.4316 -2.43475 3.38786 0
M  V30 424 H 38.0616 -2.31145 2.25326 0
M  V30 425 H 37.1136 -0.433271 3.77924 0
M  V30 426 H 38.4256 -0.785551 4.92575 0
M  V30 427 H 37.5796 -3.12523 5.20014 0
M  V30 428 H 36.3186 -2.83429 3.96887 0
M  V30 429 H 35.3236 -1.02834 5.40097 0
M  V30 430 H 36.5486 -1.34348 6.65678 0
M  V30 431 H 34.4946 -3.34538 5.64287 0
M  V30 432 H 34.4116 -2.4794 7.14186 0
M  V30 433 H 35.6796 -3.642 6.89187 0
M  V30 434 N 39.9087 -1.5758 0.0250728 0
M  V30 435 C 41.1337 -1.96337 -0.668317 0
M  V30 436 C 41.5587 -0.901314 -1.651 0
M  V30 437 O 40.9167 0.138187 -1.80773 0
M  V30 438 C 40.9647 -3.34191 -1.35457 0
M  V30 439 O 40.0687 -3.30269 -2.46974 0
M  V30 440 H 39.4097 -0.640281 -0.175887 0
M  V30 441 H 41.9397 -2.0442 0.0857224 0
M  V30 442 H 41.9497 -3.70331 -1.71228 0
M  V30 443 H 40.6247 -4.11036 -0.634218 0
M  V30 444 H 39.2017 -3.05841 -2.13344 0
M  V30 445 N 41.3868 0.248026 -1.55636 0
M  V30 446 C 42.3498 1.29044 -1.89421 0
M  V30 447 C 43.3498 1.41134 -0.770581 0
M  V30 448 O 44.5398 1.39854 -1.03858 0
M  V30 449 C 41.6718 2.66831 -2.12165 0
M  V30 450 H 42.8648 1.00305 -2.82629 0
M  V30 451 H 40.4178 0.487265 -1.48511 0
M  V30 452 H 41.1528 3.00711 -1.21422 0
M  V30 453 H 40.9378 2.59438 -2.93997 0
M  V30 454 H 42.4278 3.42103 -2.3949 0
M  V30 455 N 42.8649 1.48995 0.513639 0
M  V30 456 C 44.0949 1.61297 1.291 0
M  V30 457 C 44.5029 0.278656 1.87137 0
M  V30 458 O 43.8459 -0.744325 1.67945 0
M  V30 459 C 43.9079 2.61326 2.46879 0
M  V30 460 C 43.5719 4.05993 2.09807 0
M  V30 461 C 44.5689 4.93183 1.64519 0
M  V30 462 C 42.2539 4.51642 2.19829 0
M  V30 463 C 44.2479 6.24056 1.2974 0
M  V30 464 C 41.9349 5.82532 1.84662 0
M  V30 465 C 42.9329 6.68562 1.3969 0
M  V30 466 O 42.6209 7.97014 1.04992 0
M  V30 467 H 42.3529 0.546236 0.39825 0
M  V30 468 H 44.9069 1.95673 0.62459 0
M  V30 469 H 43.1369 2.22104 3.16554 0
M  V30 470 H 44.8259 2.6329 3.08923 0
M  V30 471 H 45.5919 4.59147 1.56233 0
M  V30 472 H 41.4709 3.84855 2.53786 0
M  V30 473 H 45.0149 6.91161 0.945659 0
M  V30 474 H 40.9119 6.16099 1.92594 0
M  V30 475 H 41.6799 8.09913 1.18249 0
M  V30 476 N 44.343 -0.763751 1.37857 0
M  V30 477 C 45.583 -1.53551 1.34913 0
M  V30 478 C 45.947 -1.91895 -0.0635882 0
M  V30 479 O 47.148 -2.67916 -0.217825 0
M  V30 480 C 45.419 -2.76126 2.26912 0
M  V30 481 S 46.978 -3.66105 2.41893 0
M  V30 482 H 43.796 -0.52559 0.478828 0
M  V30 483 H 46.398 -0.897435 1.73685 0
M  V30 484 H 45.102 -2.4605 3.28463 0
M  V30 485 H 44.633 -3.44887 1.89253 0
M  V30 486 H 46.648 -4.68473 1.63545 0
M  V30 487 N 45.8211 -1.22559 -0.990812 0
M  V30 488 C 47.2321 -1.04791 -1.54518 0
M  V30 489 C 47.5831 0.387998 -1.92325 0
M  V30 490 O 46.7081 1.27328 -1.74976 0
M  V30 491 C 47.3031 -1.896 -2.80779 0
M  V30 492 C 45.8621 -1.76124 -3.32652 0
M  V30 493 C 45.0091 -1.8594 -2.05722 0
M  V30 494 H 47.9601 -1.36374 -0.811662 0
M  V30 495 H 47.9811 -1.41464 -3.53225 0
M  V30 496 H 47.4931 -2.94101 -2.53231 0
M  V30 497 H 45.5941 -0.743643 -3.65104 0
M  V30 498 H 45.7071 -2.58913 -4.03114 0
M  V30 499 H 44.0711 -1.29403 -2.19379 0
M  V30 500 H 44.8541 -2.91976 -1.80568 0
M  V30 501 N 47.2992 1.18797 -1.03562 0
M  V30 502 C 48.5292 1.92319 -0.754773 0
M  V30 503 C 48.9372 1.7612 0.691248 0
M  V30 504 O 48.2802 1.08491 1.48241 0
M  V30 505 C 48.3422 3.44284 -1.03484 0
M  V30 506 C 48.0062 3.84258 -2.47376 0
M  V30 507 C 49.0032 3.88459 -3.45537 0
M  V30 508 C 46.6882 4.15701 -2.81954 0
M  V30 509 C 48.6822 4.23545 -4.76328 0
M  V30 510 C 46.3692 4.50458 -4.12954 0
M  V30 511 C 47.3672 4.54356 -5.09951 0
M  V30 512 O 47.0552 4.88305 -6.38603 0
M  V30 513 H 46.7872 0.617527 -0.275021 0
M  V30 514 H 49.3412 1.51683 -1.38497 0
M  V30 515 H 47.5712 3.85135 -0.347513 0
M  V30 516 H 49.2602 3.99049 -0.7426 0
M  V30 517 H 50.0262 3.6431 -3.20162 0
M  V30 518 H 45.9052 4.11847 -2.0713 0
M  V30 519 H 49.4492 4.26502 -5.52035 0
M  V30 520 H 45.3462 4.74067 -4.38099 0
M  V30 521 H 46.1142 5.06227 -6.43177 0
M  V30 522 N 48.7773 0.814389 1.34928 0
M  V30 523 C 50.0023 0.410097 2.03305 0
M  V30 524 C 50.4273 -0.973464 1.60951 0
M  V30 525 O 49.7853 -1.63185 0.789964 0
M  V30 526 C 49.8333 0.51049 3.56968 0
M  V30 527 O 48.9373 -0.473035 4.09678 0
M  V30 528 H 48.2783 0.170088 0.641846 0
M  V30 529 H 50.8083 1.10244 1.72358 0
M  V30 530 H 50.8183 0.383135 4.06197 0
M  V30 531 H 49.4933 1.51963 3.87144 0
M  V30 532 H 48.0703 -0.305272 3.71648 0
M  V30 533 N 50.2554 -1.46986 0.568584 0
M  V30 534 C 51.2054 -2.27179 -0.193339 0
M  V30 535 C 52.1894 -1.35035 -0.874895 0
M  V30 536 O 53.3814 -1.5931 -0.771322 0
M  V30 537 C 50.5104 -3.21063 -1.21546 0
M  V30 538 C 49.5964 -4.2069 -0.536738 0
M  V30 539 N 49.9874 -5.04218 0.399673 0
M  V30 540 C 48.2854 -4.38961 -0.789254 0
M  V30 541 C 48.9864 -5.76242 0.795017 0
M  V30 542 N 47.9624 -5.434 0.1473 0
M  V30 543 H 51.7644 -2.89146 0.526458 0
M  V30 544 H 49.2784 -1.57664 0.389342 0
M  V30 545 H 51.2754 -3.77209 -1.77536 0
M  V30 546 H 49.9354 -2.60654 -1.93623 0
M  V30 547 H 50.9464 -5.12077 0.774454 0
M  V30 548 H 47.6234 -3.89713 -1.49767 0
M  V30 549 H 49.0134 -6.53417 1.56513 0
M  V30 550 N 51.7335 -0.305618 -1.54608 0
M  V30 551 C 52.9805 0.302298 -2.00231 0
M  V30 552 C 53.3085 1.5354 -1.19398 0
M  V30 553 O 52.5635 1.93973 -0.259423 0
M  V30 554 C 52.8625 0.698983 -3.50498 0
M  V30 555 C 52.5285 -0.432903 -4.48817 0
M  V30 556 C 51.1905 -0.743622 -4.75419 0
M  V30 557 C 53.5425 -1.19409 -5.07337 0
M  V30 558 C 50.8705 -1.81857 -5.57804 0
M  V30 559 C 53.2225 -2.25899 -5.90891 0
M  V30 560 C 51.8865 -2.57572 -6.15803 0
M  V30 561 H 51.1565 0.110619 -0.732697 0
M  V30 562 H 53.8035 -0.425674 -1.86709 0
M  V30 563 H 52.1085 1.50711 -3.61654 0
M  V30 564 H 53.8055 1.1806 -3.83227 0
M  V30 565 H 50.3955 -0.18063 -4.28219 0
M  V30 566 H 54.5795 -0.967295 -4.86782 0
M  V30 567 H 49.8355 -2.06864 -5.75341 0
M  V30 568 H 54.0095 -2.85335 -6.35261 0
M  V30 569 H 51.6365 -3.40998 -6.7943 0
M  V30 570 N 53.2116 1.57565 -0.0334293 0
M  V30 571 C 54.6226 1.79746 0.504798 0
M  V30 572 C 54.9736 0.944091 1.71992 0
M  V30 573 O 54.0986 0.155694 2.15839 0
M  V30 574 C 54.6936 3.25997 0.922567 0
M  V30 575 C 53.2526 3.49159 1.40588 0
M  V30 576 C 52.3996 2.74785 0.372633 0
M  V30 577 H 55.3506 1.56565 -0.259436 0
M  V30 578 H 55.3716 3.35945 1.78666 0
M  V30 579 H 54.8836 3.88081 0.0379825 0
M  V30 580 H 52.9846 2.92332 2.31025 0
M  V30 581 H 53.0976 4.57873 1.41028 0
M  V30 582 H 51.4616 2.40391 0.841672 0
M  V30 583 H 52.2446 3.39587 -0.503559 0
M  V30 584 N 54.6897 -0.239769 1.55765 0
M  V30 585 C 55.9357 -0.968234 1.78194 0
M  V30 586 C 56.2687 -1.84701 0.599938 0
M  V30 587 O 55.5437 -1.9031 -0.401524 0
M  V30 588 C 55.8267 -1.8227 3.10564 0
M  V30 589 C 55.6797 -0.971633 4.3918 0
M  V30 590 C 56.9987 -2.80388 3.39221 0
M  V30 591 H 54.1177 -0.350572 0.648281 0
M  V30 592 H 56.7597 -0.238259 1.885 0
M  V30 593 H 54.9097 -2.44507 3.01908 0
M  V30 594 H 56.5817 -0.367408 4.59835 0
M  V30 595 H 54.8247 -0.276276 4.32919 0
M  V30 596 H 55.4957 -1.60346 5.28198 0
M  V30 597 H 57.9717 -2.28287 3.47885 0
M  V30 598 H 56.8477 -3.3729 4.33044 0
M  V30 599 H 57.1087 -3.57212 2.60484 0
M  V30 600 N 56.1678 -1.49265 -0.50573 0
M  V30 601 C 57.4158 -1.582 -1.25766 0
M  V30 602 C 57.7368 -0.268482 -1.93143 0
M  V30 603 O 57.0068 0.711833 -1.8251 0
M  V30 604 H 55.5868 -0.582873 -0.467191 0
M  V30 605 H 58.2488 -1.85865 -0.586525 0
M  V30 606 H 57.3448 -2.37563 -2.02412 0
M  V30 607 N 57.6459 0.756429 -1.3826 0
M  V30 608 C 58.6089 1.85176 -1.35065 0
M  V30 609 C 59.6089 1.58818 -0.251703 0
M  V30 610 O 60.7989 1.66615 -0.508433 0
M  V30 611 C 57.9309 3.22596 -1.10201 0
M  V30 612 H 59.1239 1.89417 -2.3251 0
M  V30 613 H 56.6769 0.95783 -1.23512 0
M  V30 614 H 57.4119 3.24025 -0.133504 0
M  V30 615 H 57.1969 3.43122 -1.89762 0
M  V30 616 H 58.6869 4.02673 -1.10654 0
M  V30 617 N 59.124 1.23083 0.984299 0
M  V30 618 C 60.087 1.00979 2.05757 0
M  V30 619 C 61.087 -0.0269573 1.60777 0
M  V30 620 O 62.277 0.212403 1.729 0
M  V30 621 C 59.409 0.527072 3.36801 0
M  V30 622 H 60.602 1.9622 2.26799 0
M  V30 623 H 58.155 1.05072 1.15714 0
M  V30 624 H 58.89 -0.429294 3.21446 0
M  V30 625 H 58.675 1.27515 3.70786 0
M  V30 626 H 60.165 0.392942 4.15747 0
M  V30 627 N 60.6021 -1.18246 1.0419 0
M  V30 628 C 61.5321 -2.24127 0.654914 0
M  V30 629 C 62.5131 -1.66617 -0.342451 0
M  V30 630 O 63.6981 -1.92924 -0.222277 0
M  V30 631 C 60.8281 -3.47295 0.0183757 0
M  V30 632 C 59.7821 -4.17563 0.939414 0
M  V30 633 C 59.1081 -5.34438 0.167286 0
M  V30 634 C 60.4081 -4.70917 2.25908 0
M  V30 635 H 62.1021 -2.56753 1.54007 0
M  V30 636 H 59.6481 -1.23414 0.74195 0
M  V30 637 H 61.6011 -4.20572 -0.264082 0
M  V30 638 H 60.3251 -3.13907 -0.901664 0
M  V30 639 H 58.9841 -3.46186 1.20628 0
M  V30 640 H 58.6321 -4.97298 -0.7552 0
M  V30 641 H 58.3321 -5.82388 0.780901 0
M  V30 642 H 59.8561 -6.10504 -0.108125 0
M  V30 643 H 61.2701 -5.35882 2.03724 0
M  V30 644 H 59.6671 -5.29406 2.82577 0
M  V30 645 H 60.7371 -3.88272 2.9047 0
M  V30 646 N 62.0802 -0.821533 -1.34494 0
M  V30 647 C 63.0102 -0.257138 -2.3208 0
M  V30 648 C 63.9912 0.625645 -1.58176 0
M  V30 649 O 65.1762 0.552811 -1.86166 0
M  V30 650 C 62.3062 0.582958 -3.42372 0
M  V30 651 C 61.2602 -0.202571 -4.2752 0
M  V30 652 C 60.5862 0.760179 -5.29269 0
M  V30 653 C 61.8862 -1.40998 -5.02908 0
M  V30 654 H 63.5802 -1.07247 -2.79532 0
M  V30 655 H 61.1262 -0.517163 -1.34393 0
M  V30 656 H 63.0792 0.987972 -4.09655 0
M  V30 657 H 61.8032 1.43133 -2.93565 0
M  V30 658 H 60.4622 -0.588936 -3.61838 0
M  V30 659 H 60.1102 1.60447 -4.76724 0
M  V30 660 H 59.8102 0.238809 -5.87115 0
M  V30 661 H 61.3342 1.16308 -5.9942 0
M  V30 662 H 62.7482 -1.07905 -5.63054 0
M  V30 663 H 61.1452 -1.86689 -5.70322 0
M  V30 664 H 62.2152 -2.1889 -4.32684 0
M  V30 665 N 63.5583 1.46682 -0.576371 0
M  V30 666 C 64.7863 2.06798 -0.0649635 0
M  V30 667 C 65.2013 1.42612 1.23723 0
M  V30 668 O 64.5583 0.529203 1.74659 0
M  V30 669 C 64.6093 3.6132 0.114202 0
M  V30 670 O 64.3303 4.23104 -1.13644 0
M  V30 671 C 65.8313 4.38349 0.66069 0
M  V30 672 H 63.0513 0.668778 -0.0545616 0
M  V30 673 H 65.5953 1.88404 -0.795237 0
M  V30 674 H 63.7503 3.79162 0.794673 0
M  V30 675 H 64.1643 5.15894 -0.946253 0
M  V30 676 H 65.6383 5.47081 0.73526 0
M  V30 677 H 66.1153 4.05953 1.67627 0
M  V30 678 H 66.7213 4.25297 0.0152951 0
M  V30 679 N 65.0364 0.313813 1.54444 0
M  V30 680 C 65.9684 -0.590425 2.21465 0
M  V30 681 C 66.9814 -1.08753 1.21147 0
M  V30 682 O 68.1704 -1.00278 1.4767 0
M  V30 683 C 65.2704 -1.82179 2.85769 0
M  V30 684 C 64.4434 -1.46502 4.12136 0
M  V30 685 C 63.5024 -2.55288 4.60124 0
M  V30 686 O 62.5284 -2.19842 5.25032 0
M  V30 687 N 63.7304 -3.86053 4.33525 0
M  V30 688 H 66.4954 -0.0166033 2.99695 0
M  V30 689 H 64.0564 0.136578 1.61323 0
M  V30 690 H 66.0484 -2.54328 3.14801 0
M  V30 691 H 64.6184 -2.30369 2.11303 0
M  V30 692 H 63.8384 -0.575595 3.89975 0
M  V30 693 H 65.1264 -1.20221 4.94393 0
M  V30 694 H 64.5244 -4.17654 3.81552 0
M  V30 695 H 63.0814 -4.54461 4.67235 0
M  V30 696 N 66.5145 -1.57545 0.0417849 0
M  V30 697 C 67.4245 -2.14451 -0.951213 0
M  V30 698 C 68.4405 -1.09992 -1.34825 0
M  V30 699 O 69.6165 -1.42114 -1.42708 0
M  V30 700 C 66.6815 -2.67063 -2.21084 0
M  V30 701 C 65.7425 -3.86284 -1.87304 0
M  V30 702 C 64.9755 -4.36378 -3.07261 0
M  V30 703 O 65.1985 -3.85587 -4.20332 0
M  V30 704 O 64.1325 -5.28077 -2.88822 0
M  V30 705 H 67.9585 -2.99601 -0.497287 0
M  V30 706 H 65.5435 -1.48317 -0.179567 0
M  V30 707 H 67.4255 -3.00914 -2.95006 0
M  V30 708 H 66.1005 -1.84989 -2.65633 0
M  V30 709 H 65.0075 -3.57338 -1.10727 0
M  V30 710 H 66.3405 -4.6956 -1.47562 0
M  V30 711 N 67.9926 0.231505 -1.5589 0
M  V30 712 C 69.2406 0.955461 -1.78088 0
M  V30 713 C 69.5616 1.85262 -0.608533 0
M  V30 714 O 68.8316 1.92277 0.375035 0
M  V30 715 H 67.4116 0.355787 -0.656829 0
M  V30 716 H 70.0736 0.245751 -1.93344 0
M  V30 717 H 69.1696 1.56814 -2.69844 0
M  V30 718 N 69.4707 1.49531 0.497807 0
M  V30 719 C 70.8867 1.36365 0.829266 0
M  V30 720 C 71.0867 0.399184 1.97506 0
M  V30 721 O 70.1427 -0.167977 2.51941 0
M  V30 722 C 71.4557 2.77153 1.16647 0
M  V30 723 C 73.0037 2.85877 1.27449 0
M  V30 724 C 73.4787 4.2744 1.64497 0
M  V30 725 N 74.9697 4.30265 1.7154 0
M  V30 726 C 75.7047 5.3677 2.01656 0
M  V30 727 N 75.2007 6.53516 2.29976 0
M  V30 728 N 76.9937 5.24189 2.02934 0
M  V30 729 H 69.1447 2.10831 -0.257703 0
M  V30 730 H 71.4077 0.946534 -0.0527091 0
M  V30 731 H 71.1137 3.49442 0.397872 0
M  V30 732 H 70.9877 3.12722 2.10915 0
M  V30 733 H 73.3747 2.13824 2.0338 0
M  V30 734 H 73.4557 2.53887 0.312244 0
M  V30 735 H 73.0997 5.00021 0.891151 0
M  V30 736 H 73.0297 4.56896 2.61827 0
M  V30 737 H 75.5207 3.4607 1.51802 0
M  V30 738 H 75.8337 7.30506 2.52153 0
M  V30 739 H 74.1787 6.56737 2.27425 0
M  V30 740 H 77.3697 4.31988 1.80289 0
M  V30 741 H 77.5427 6.07286 2.26071 0
M  V30 742 N 70.9488 -0.749086 1.3866 0
M  V30 743 C 72.1978 -1.50371 1.3443 0
M  V30 744 C 72.5108 -1.95503 -0.0616397 0
M  V30 745 O 73.7168 -2.70554 -0.226489 0
M  V30 746 C 72.1728 -2.71644 2.36088 0
M  V30 747 C 71.7808 -2.3352 3.82325 0
M  V30 748 C 73.5248 -3.49518 2.40909 0
M  V30 749 C 71.4318 -3.51431 4.75658 0
M  V30 750 H 70.3618 -0.564628 0.499712 0
M  V30 751 H 73.0128 -0.818449 1.64237 0
M  V30 752 H 71.3948 -3.42175 1.9933 0
M  V30 753 H 72.5688 -1.70627 4.28046 0
M  V30 754 H 70.8838 -1.6877 3.80665 0
M  V30 755 H 73.4808 -4.37197 3.07836 0
M  V30 756 H 73.8238 -3.90992 1.42937 0
M  V30 757 H 74.3568 -2.86005 2.76489 0
M  V30 758 H 71.0958 -3.15019 5.74842 0
M  V30 759 H 70.6158 -4.13352 4.34627 0
M  V30 760 H 72.2948 -4.17953 4.93887 0
M  V30 761 N 72.4269 -1.23603 -0.977757 0
M  V30 762 C 73.6739 -1.06971 -1.71941 0
M  V30 763 C 74.0019 0.393009 -1.90488 0
M  V30 764 O 73.2569 1.30719 -1.4564 0
M  V30 765 C 73.5559 -1.7433 -3.11999 0
M  V30 766 C 73.2219 -3.24252 -3.13323 0
M  V30 767 C 71.8839 -3.65156 -3.13392 0
M  V30 768 C 74.2359 -4.20141 -3.08433 0
M  V30 769 C 71.5639 -5.00403 -3.0629 0
M  V30 770 C 73.9159 -5.55384 -3.02873 0
M  V30 771 C 72.5799 -5.95647 -3.01265 0
M  V30 772 H 71.8499 -0.391433 -0.629175 0
M  V30 773 H 74.4969 -1.53572 -1.14403 0
M  V30 774 H 72.8019 -1.20096 -3.7294 0
M  V30 775 H 74.4989 -1.58936 -3.68158 0
M  V30 776 H 71.0889 -2.91692 -3.14029 0
M  V30 777 H 75.2729 -3.89547 -3.07517 0
M  V30 778 H 70.5289 -5.3081 -3.03399 0
M  V30 779 H 74.7029 -6.29398 -2.98046 0
M  V30 780 H 72.3299 -7.0041 -2.95516 0
M  V30 781 N 73.905 1.17692 -1.04816 0
M  V30 782 C 74.852 2.21581 -0.645797 0
M  V30 783 C 75.822 1.62367 0.350159 0
M  V30 784 O 77.007 1.89254 0.242433 0
M  V30 785 C 74.147 3.45092 -0.0227568 0
M  V30 786 C 73.26 4.18613 -1.06709 0
M  V30 787 C 72.395 5.29602 -0.411767 0
M  V30 788 C 71.434 5.94904 -1.44067 0
M  V30 789 N 70.571 6.97414 -0.809781 0
M  V30 790 H 75.411 2.55353 -1.5362 0
M  V30 791 H 72.948 1.25438 -0.768364 0
M  V30 792 H 74.906 4.15679 0.35588 0
M  V30 793 H 73.536 3.11917 0.831122 0
M  V30 794 H 72.588 3.46779 -1.5636 0
M  V30 795 H 73.9 4.63293 -1.84827 0
M  V30 796 H 73.054 6.06696 0.0206623 0
M  V30 797 H 71.793 4.86045 0.401438 0
M  V30 798 H 70.798 5.16544 -1.88316 0
M  V30 799 H 72.023 6.40542 -2.25571 0
M  V30 800 H 69.969 6.55998 -0.0170186 0
M  V30 801 H 69.886 7.40386 -1.52856 0
M  V30 802 H 71.154 7.78463 -0.401999 0
M  V30 803 N 75.3831 0.828654 1.34056 0
M  V30 804 C 76.6311 0.41863 1.97717 0
M  V30 805 C 76.9521 -1.02314 1.66002 0
M  V30 806 O 76.2221 -1.71119 0.953683 0
M  V30 807 H 74.8021 0.151809 0.731412 0
M  V30 808 H 77.4641 1.05936 1.63596 0
M  V30 809 H 76.5601 0.542318 3.07352 0
M  V30 810 N 76.8612 -1.46375 0.584142 0
M  V30 811 C 78.1012 -2.0427 0.0729695 0
M  V30 812 C 78.4652 -1.44563 -1.26355 0
M  V30 813 O 79.6662 -1.93667 -1.86405 0
M  V30 814 C 77.9372 -3.57399 0.00967464 0
M  V30 815 S 79.4962 -4.36551 -0.443714 0
M  V30 816 H 76.3142 -0.709975 0.0381673 0
M  V30 817 H 78.9162 -1.79398 0.776962 0
M  V30 818 H 77.6202 -3.98372 0.986319 0
M  V30 819 H 77.1512 -3.8681 -0.717044 0
M  V30 820 H 79.1662 -4.66237 -1.69816 0
M  V30 821 N 78.3393 -0.321999 -1.54275 0
M  V30 822 C 79.2873 0.560206 -2.25753 0
M  V30 823 C 80.2813 1.11984 -1.27106 0
M  V30 824 O 81.4873 1.06806 -1.44888 0
M  V30 825 H 77.8623 0.199304 -0.725108 0
M  V30 826 H 79.8333 -0.0649365 -2.98329 0
M  V30 827 C 78.5823 1.71023 -3.02731 0
M  V30 828 H 77.9053 1.28885 -3.78456 0
M  V30 829 H 79.3453 2.30314 -3.55993 0
M  V30 830 C 77.8043 2.62692 -2.10938 0
M  V30 831 O 78.3343 3.64364 -1.6912 0
M  V30 832 N 76.5403 2.30891 -1.76459 0
M  V30 833 H 76.0873 1.48253 -2.10663 0
M  V30 834 H 76.0453 2.92487 -1.1532 0
M  V30 835 N 79.8174 1.5752 -0.0501392 0
M  V30 836 C 81.0664 1.91827 0.623328 0
M  V30 837 C 81.3794 0.930222 1.72065 0
M  V30 838 O 82.5854 1.1653 2.4522 0
M  V30 839 C 81.0414 3.40692 1.16003 0
M  V30 840 C 80.6494 4.479 0.0948811 0
M  V30 841 C 82.3934 3.84034 1.80881 0
M  V30 842 C 80.3004 5.87879 0.644411 0
M  V30 843 H 79.2304 0.715918 0.236596 0
M  V30 844 H 81.8814 1.83115 -0.118861 0
M  V30 845 H 80.2634 3.44405 1.9545 0
M  V30 846 H 81.4374 4.55775 -0.678675 0
M  V30 847 H 79.7524 4.13892 -0.45637 0
M  V30 848 H 82.3494 4.85984 2.22988 0
M  V30 849 H 82.6924 3.20225 2.6601 0
M  V30 850 H 83.2254 3.82833 1.0809 0
M  V30 851 H 79.9644 6.55282 -0.169229 0
M  V30 852 H 79.4844 5.83567 1.38598 0
M  V30 853 H 81.1634 6.37098 1.12763 0
M  V30 854 N 81.2955 -0.223234 1.56011 0
M  V30 855 C 82.2055 -1.29766 1.95443 0
M  V30 856 C 83.2215 -1.51373 0.858028 0
M  V30 857 O 84.3975 -1.64536 1.16146 0
M  V30 858 C 81.4625 -2.62772 2.26167 0
M  V30 859 C 80.5235 -2.49482 3.49367 0
M  V30 860 C 79.7565 -3.76145 3.78616 0
M  V30 861 O 79.9795 -4.79087 3.09568 0
M  V30 862 O 78.9135 -3.73358 4.72109 0
M  V30 863 H 82.7395 -0.99309 2.87004 0
M  V30 864 H 80.3245 -0.425958 1.43199 0
M  V30 865 H 82.2065 -3.41327 2.47131 0
M  V30 866 H 80.8815 -2.92913 1.37781 0
M  V30 867 H 79.7885 -1.69133 3.33684 0
M  V30 868 H 81.1215 -2.2428 4.38131 0
M  V30 869 N 82.7736 -1.49793 -0.48987 0
M  V30 870 C 83.7216 -1.67783 -1.61095 0
M  V30 871 C 84.7156 -0.543683 -1.60438 0
M  V30 872 O 85.9216 -0.723647 -1.64813 0
M  V30 873 H 82.2966 -0.529255 -0.534222 0
M  V30 874 H 84.2676 -2.61861 -1.43078 0
M  V30 875 C 83.0166 -1.77191 -2.99164 0
M  V30 876 H 82.3396 -2.63841 -3.0038 0
M  V30 877 H 83.7796 -1.93809 -3.77113 0
M  V30 878 C 82.2386 -0.519203 -3.32875 0
M  V30 879 O 82.7686 0.350124 -4.00171 0
M  V30 880 N 80.9746 -0.378816 -2.8812 0
M  V30 881 H 80.5216 -1.08725 -2.33531 0
M  V30 882 H 80.4796 0.458239 -3.11043 0
M  V30 883 N 84.2517 0.741722 -1.39055 0
M  V30 884 C 85.2147 1.83733 -1.37021 0
M  V30 885 C 86.2147 1.58542 -0.268534 0
M  V30 886 O 87.4047 1.66067 -0.526076 0
M  V30 887 C 84.5367 3.2141 -1.13617 0
M  V30 888 H 85.7297 1.86941 -2.34506 0
M  V30 889 H 83.2827 0.944676 -1.24521 0
M  V30 890 H 84.0177 3.23865 -0.167863 0
M  V30 891 H 83.8027 3.4109 -1.93391 0
M  V30 892 H 85.2927 4.01477 -1.14918 0
M  V30 893 N 85.7298 1.2412 0.971189 0
M  V30 894 C 86.9698 1.09066 1.7287 0
M  V30 895 C 87.3338 -0.364794 1.88503 0
M  V30 896 O 88.5348 -0.636748 2.61149 0
M  V30 897 C 86.8058 1.80629 3.08396 0
M  V30 898 S 88.3648 1.81263 3.99611 0
M  V30 899 H 85.1828 0.390145 0.594397 0
M  V30 900 H 87.7848 1.57397 1.15959 0
M  V30 901 H 86.4888 2.85647 2.94676 0
M  V30 902 H 86.0198 1.32617 3.70373 0
M  V30 903 H 88.0348 0.877804 4.88374 0
M  V30 904 N 87.2079 -1.17134 1.05439 0
M  V30 905 C 88.4379 -1.91094 0.785274 0
M  V30 906 C 88.8459 -1.77198 -0.663142 0
M  V30 907 O 88.1889 -1.10835 -1.46497 0
M  V30 908 C 88.2509 -3.42594 1.08949 0
M  V30 909 C 87.9149 -3.80274 2.53458 0
M  V30 910 C 88.9119 -3.82912 3.51673 0
M  V30 911 C 86.5969 -4.11162 2.88532 0
M  V30 912 C 88.5909 -4.15913 4.83006 0
M  V30 913 C 86.2779 -4.43831 4.20068 0
M  V30 914 C 87.2759 -4.46185 5.17115 0
M  V30 915 O 86.9639 -4.78083 6.46291 0
M  V30 916 H 86.6959 -0.613073 0.284811 0
M  V30 917 H 89.2499 -1.49461 1.40893 0
M  V30 918 H 87.4799 -3.84534 0.408741 0
M  V30 919 H 89.1689 -3.97817 0.805991 0
M  V30 920 H 89.9349 -3.5917 3.25917 0
M  V30 921 H 85.8139 -4.085 2.13656 0
M  V30 922 H 89.3579 -4.17665 5.5875 0
M  V30 923 H 85.2549 -4.67037 4.45586 0
M  V30 924 H 86.0229 -4.9593 6.51149 0
M  V30 925 N 88.686 -0.835752 -1.33615 0
M  V30 926 C 90.097 -0.487099 -1.80234 0
M  V30 927 C 90.448 0.993627 -1.69179 0
M  V30 928 O 89.573 1.77403 -1.23924 0
M  V30 929 C 90.168 -0.877385 -3.27242 0
M  V30 930 C 88.727 -0.580915 -3.7189 0
M  V30 931 C 87.874 -1.0874 -2.5509 0
M  V30 932 H 90.825 -1.02474 -1.2118 0
M  V30 933 H 90.846 -0.186195 -3.80044 0
M  V30 934 H 90.358 -1.95512 -3.35256 0
M  V30 935 H 88.459 0.486881 -3.69405 0
M  V30 936 H 88.572 -1.13396 -4.65487 0
M  V30 937 H 86.936 -0.508392 -2.49575 0
M  V30 938 H 87.719 -2.17184 -2.65868 0
M  V30 939 N 90.1641 1.46063 -0.591896 0
M  V30 940 C 91.0941 2.33172 0.123673 0
M  V30 941 C 92.0751 1.45897 0.87453 0
M  V30 942 O 93.2601 1.74698 0.848181 0
M  V30 943 C 90.3901 3.28336 1.13194 0
M  V30 944 C 89.3441 4.25124 0.495324 0
M  V30 945 C 88.6701 5.09863 1.61071 0
M  V30 946 C 89.9701 5.19143 -0.573425 0
M  V30 947 H 91.6641 2.93252 -0.603646 0
M  V30 948 H 89.2101 1.41014 -0.291741 0
M  V30 949 H 91.1631 3.88137 1.64097 0
M  V30 950 H 89.8871 2.66383 1.88965 0
M  V30 951 H 88.5461 3.66599 0.00729452 0
M  V30 952 H 88.1941 4.44288 2.35832 0
M  V30 953 H 87.8941 5.75417 1.19035 0
M  V30 954 H 89.4181 5.72529 2.12233 0
M  V30 955 H 90.8321 5.73106 -0.1491 0
M  V30 956 H 89.2291 5.93089 -0.914636 0
M  V30 957 H 90.2991 4.62519 -1.45617 0
M  V30 958 N 91.6422 0.330177 1.54103 0
M  V30 959 C 92.8902 -0.269871 2.0029 0
M  V30 960 C 93.2112 -1.52133 1.21986 0
M  V30 961 O 92.4812 -1.93212 0.323438 0
M  V30 962 H 91.0612 -0.10271 0.739905 0
M  V30 963 H 93.7232 0.448249 1.89675 0
M  V30 964 H 92.8192 -0.52166 3.07709 0
M  V30 965 N 93.1203 -1.57491 0.0584922 0
M  V30 966 C 94.3693 -1.92155 -0.613146 0
M  V30 967 C 94.6823 -0.939334 -1.71569 0
M  V30 968 O 95.8883 -1.17829 -2.44599 0
M  V30 969 C 94.3443 -3.41303 -1.14195 0
M  V30 970 C 93.9523 -4.47944 -0.0711265 0
M  V30 971 C 95.6963 -3.84988 -1.78841 0
M  V30 972 C 93.6033 -5.88212 -0.613225 0
M  V30 973 H 92.5333 -0.717162 -0.232796 0
M  V30 974 H 95.1843 -1.83049 0.12857 0
M  V30 975 H 93.5663 -3.45437 -1.93621 0
M  V30 976 H 94.7403 -4.55408 0.702836 0
M  V30 977 H 93.0553 -4.13644 0.478313 0
M  V30 978 H 95.6523 -4.87159 -2.20408 0
M  V30 979 H 95.9953 -3.21632 -2.64308 0
M  V30 980 H 96.5283 -3.83401 -1.06059 0
M  V30 981 H 93.2673 -6.55183 0.203978 0
M  V30 982 H 92.7873 -5.84294 -1.35501 0
M  V30 983 H 94.4663 -6.37687 -1.09383 0
M  V30 984 N 94.5984 0.214957 -1.56127 0
M  V30 985 C 95.8384 0.945364 -1.81224 0
M  V30 986 C 96.2024 1.81265 -0.633005 0
M  V30 987 O 97.4034 2.57731 -0.763423 0
M  V30 988 C 95.6744 1.75665 -3.1125 0
M  V30 989 S 97.2334 2.54179 -3.57685 0
M  V30 990 H 94.0514 0.317443 -0.6362 0
M  V30 991 H 96.6534 0.210381 -1.94365 0
M  V30 992 H 95.3574 1.10977 -3.9511 0
M  V30 993 H 94.8884 2.53381 -3.00934 0
M  V30 994 H 96.9034 3.7792 -3.21545 0
M  V30 995 N 96.0765 1.50051 0.48192 0
M  V30 996 C 97.0395 1.67584 1.5636 0
M  V30 997 C 98.0395 0.546894 1.51214 0
M  V30 998 O 99.2295 0.813725 1.54026 0
M  V30 999 C 96.3615 1.691 2.96003 0
M  V30 1000 H 97.5545 2.64078 1.42136 0
M  V30 1001 H 95.1075 1.39369 0.707533 0
M  V30 1002 H 95.8425 0.742589 3.15684 0
M  V30 1003 H 95.6275 2.51105 3.01146 0
M  V30 1004 H 97.1175 1.84656 3.74556 0
M  V30 1005 N 97.5546 -0.734337 1.39446 0
M  V30 1006 C 98.4646 -1.87879 1.40495 0
M  V30 1007 C 99.4806 -1.714 0.299672 0
M  V30 1008 O 100.657 -1.93991 0.541249 0
M  V30 1009 C 97.7216 -3.23477 1.24754 0
M  V30 1010 C 96.7826 -3.52344 2.45259 0
M  V30 1011 C 96.0156 -4.81473 2.30259 0
M  V30 1012 O 96.2386 -5.55237 1.30643 0
M  V30 1013 O 95.1726 -5.10254 3.19256 0
M  V30 1014 H 98.9986 -1.89949 2.36966 0
M  V30 1015 H 96.5836 -0.882243 1.20569 0
M  V30 1016 H 98.4656 -4.04509 1.18111 0
M  V30 1017 H 97.1406 -3.22176 0.313781 0
M  V30 1018 H 96.0476 -2.71396 2.57478 0
M  V30 1019 H 97.3806 -3.58426 3.37331 0
M  V30 1020 N 99.0327 -1.24633 -0.964593 0
M  V30 1021 C 100.449 -1.01239 -1.2338 0
M  V30 1022 C 100.649 0.2769 -1.99588 0
M  V30 1023 O 99.7047 0.992241 -2.32187 0
M  V30 1024 C 101.018 -2.22937 -2.01791 0
M  V30 1025 C 102.566 -2.27594 -2.14872 0
M  V30 1026 C 103.041 -3.48921 -2.96678 0
M  V30 1027 N 104.532 -3.49257 -3.04259 0
M  V30 1028 C 105.267 -4.39795 -3.67924 0
M  V30 1029 N 104.763 -5.40591 -4.33281 0
M  V30 1030 N 106.556 -4.275 -3.64966 0
M  V30 1031 H 98.7067 -2.0748 -0.454502 0
M  V30 1032 H 100.97 -0.910647 -0.26349 0
M  V30 1033 H 100.676 -3.16587 -1.53184 0
M  V30 1034 H 100.55 -2.25306 -3.02518 0
M  V30 1035 H 102.937 -1.34473 -2.6268 0
M  V30 1036 H 103.018 -2.2925 -1.13482 0
M  V30 1037 H 102.662 -4.42359 -2.49562 0
M  V30 1038 H 102.592 -3.4451 -3.98272 0
M  V30 1039 H 105.083 -2.76337 -2.57771 0
M  V30 1040 H 105.396 -6.05904 -4.79687 0
M  V30 1041 H 103.741 -5.44475 -4.3194 0
M  V30 1042 H 106.932 -3.47987 -3.13086 0
M  V30 1043 H 107.105 -4.98258 -4.14298 0
M  V30 1044 N 100.511 1.16574 -1.06058 0
M  V30 1045 C 101.739 1.90952 -0.796552 0
M  V30 1046 C 102.154 1.77302 0.648808 0
M  V30 1047 O 101.511 1.11605 1.44397 0
M  V30 1048 C 101.562 3.41736 -1.17894 0
M  V30 1049 O 101.283 3.54975 -2.56758 0
M  V30 1050 C 102.784 4.33169 -0.942308 0
M  V30 1051 H 100.004 0.605594 -0.288959 0
M  V30 1052 H 102.548 1.47777 -1.41358 0
M  V30 1053 H 100.703 3.82623 -0.606491 0
M  V30 1054 H 101.117 4.4846 -2.72 0
M  V30 1055 H 102.591 5.37439 -1.25952 0
M  V30 1056 H 103.068 4.3903 0.122078 0
M  V30 1057 H 103.674 3.98007 -1.49902 0
M  V30 1058 N 101.989 0.842826 1.3317 0
M  V30 1059 C 102.952 0.284065 2.27433 0
M  V30 1060 C 103.952 -0.54948 1.5112 0
M  V30 1061 O 105.142 -0.362699 1.70382 0
M  V30 1062 C 102.274 -0.599384 3.35589 0
M  V30 1063 H 103.467 1.11589 2.78366 0
M  V30 1064 H 101.02 0.616221 1.4364 0
M  V30 1065 H 101.755 -1.45349 2.89904 0
M  V30 1066 H 101.54 -0.00291266 3.921 0
M  V30 1067 H 103.03 -0.983488 4.05854 0
M  V30 1068 N 103.467 -1.45747 0.599634 0
M  V30 1069 C 104.716 -2.01502 0.0893511 0
M  V30 1070 C 105.029 -1.4748 -1.28488 0
M  V30 1071 O 106.235 -1.95161 -1.88745 0
M  V30 1072 C 104.691 -3.59735 0.109082 0
M  V30 1073 C 104.299 -4.22754 1.48267 0
M  V30 1074 C 106.043 -4.23085 -0.346374 0
M  V30 1075 C 103.95 -5.73115 1.45921 0
M  V30 1076 H 102.88 -0.753417 0.0296347 0
M  V30 1077 H 105.531 -1.67303 0.753788 0
M  V30 1078 H 103.913 -3.91087 -0.621854 0
M  V30 1079 H 105.087 -4.02987 2.23468 0
M  V30 1080 H 103.402 -3.71567 1.87955 0
M  V30 1081 H 105.999 -5.33327 -0.38298 0
M  V30 1082 H 106.342 -3.93201 -1.36743 0
M  V30 1083 H 106.875 -3.9642 0.331038 0
M  V30 1084 H 103.614 -6.07685 2.45762 0
M  V30 1085 H 103.134 -5.95097 0.749665 0
M  V30 1086 H 104.813 -6.3616 1.17941 0
M  V30 1087 N 104.945 -0.338344 -1.53925 0
M  V30 1088 C 105.877 0.555117 -2.22376 0
M  V30 1089 C 106.89 1.06812 -1.22862 0
M  V30 1090 O 108.079 0.979163 -1.49247 0
M  V30 1091 C 105.179 1.77609 -2.88631 0
M  V30 1092 C 104.352 1.39927 -4.14414 0
M  V30 1093 C 103.411 2.47936 -4.64127 0
M  V30 1094 O 102.437 2.11461 -5.28463 0
M  V30 1095 N 103.639 3.79107 -4.39612 0
M  V30 1096 H 106.404 -0.0310778 -2.99684 0
M  V30 1097 H 103.965 -0.162226 -1.61085 0
M  V30 1098 H 105.957 2.49287 -3.18807 0
M  V30 1099 H 104.527 2.26978 -2.14941 0
M  V30 1100 H 103.747 0.513481 -3.90841 0
M  V30 1101 H 105.035 1.12341 -4.96243 0
M  V30 1102 H 104.433 4.11531 -3.88148 0
M  V30 1103 H 102.99 4.4697 -4.74406 0
M  V30 1104 N 106.423 1.57458 -0.0668435 0
M  V30 1105 C 107.37 2.12439 0.902122 0
M  V30 1106 C 108.34 1.03565 1.2986 0
M  V30 1107 O 109.525 1.312 1.38532 0
M  V30 1108 C 106.665 2.6865 2.16614 0
M  V30 1109 C 105.778 3.91663 1.82274 0
M  V30 1110 C 104.913 4.36134 3.0325 0
M  V30 1111 C 103.952 5.51808 2.64904 0
M  V30 1112 N 103.089 5.9126 3.78624 0
M  V30 1113 H 107.929 2.94934 0.426382 0
M  V30 1114 H 105.466 1.4575 0.198819 0
M  V30 1115 H 107.424 2.99346 2.90599 0
M  V30 1116 H 106.054 1.88928 2.61737 0
M  V30 1117 H 105.106 3.6746 0.983719 0
M  V30 1118 H 106.418 4.75693 1.50059 0
M  V30 1119 H 105.572 4.68465 3.85519 0
M  V30 1120 H 104.311 3.50948 3.38655 0
M  V30 1121 H 103.316 5.19133 1.81055 0
M  V30 1122 H 104.541 6.38722 2.30675 0
M  V30 1123 H 102.487 5.09024 4.138 0
M  V30 1124 H 102.404 6.70018 3.5016 0
M  V30 1125 H 103.672 6.28212 4.61486 0
M  V30 1126 N 107.901 -0.206675 1.56239 0
M  V30 1127 C 108.864 -1.23976 1.92776 0
M  V30 1128 C 109.864 -1.39041 0.807729 0
M  V30 1129 O 111.054 -1.37051 1.0753 0
M  V30 1130 C 108.186 -2.61112 2.19165 0
M  V30 1131 H 109.379 -0.927764 2.85189 0
M  V30 1132 H 106.932 -0.447718 1.4975 0
M  V30 1133 H 107.667 -2.97386 1.29352 0
M  V30 1134 H 107.452 -2.51552 3.00772 0
M  V30 1135 H 108.942 -3.35633 2.48476 0
M  V30 1136 N 109.379 -1.50304 -0.473955 0
M  V30 1137 C 110.625 -1.61389 -1.22806 0
M  V30 1138 C 110.958 -0.311955 -1.91678 0
M  V30 1139 O 110.233 0.686384 -1.81986 0
M  V30 1140 C 110.516 -2.79219 -2.27396 0
M  V30 1141 C 110.369 -4.19286 -1.62848 0
M  V30 1142 C 111.688 -2.92614 -3.28732 0
M  V30 1143 H 108.807 -0.587399 -0.445119 0
M  V30 1144 H 111.449 -1.82681 -0.522265 0
M  V30 1145 H 109.599 -2.61195 -2.87592 0
M  V30 1146 H 111.271 -4.48892 -1.06271 0
M  V30 1147 H 109.514 -4.23677 -0.931693 0
M  V30 1148 H 110.185 -4.97655 -2.38838 0
M  V30 1149 H 112.661 -3.09105 -2.78556 0
M  V30 1150 H 111.537 -3.76688 -3.99246 0
M  V30 1151 H 111.798 -2.03107 -3.92683 0
M  V30 1152 N 110.857 0.726932 -1.39834 0
M  V30 1153 C 112.082 1.52121 -1.40976 0
M  V30 1154 C 112.507 1.88098 -0.00826029 0
M  V30 1155 O 111.865 1.52479 0.980807 0
M  V30 1156 C 111.913 2.78021 -2.29644 0
M  V30 1157 O 111.017 3.74272 -1.73188 0
M  V30 1158 H 110.358 0.45908 -0.479731 0
M  V30 1159 H 112.888 0.896207 -1.83927 0
M  V30 1160 H 112.898 3.26671 -2.44438 0
M  V30 1161 H 111.573 2.51169 -3.31492 0
M  V30 1162 H 110.15 3.33073 -1.6768 0
M  V30 1163 N 112.336 1.25143 0.95797 0
M  V30 1164 C 113.246 1.06968 2.08794 0
M  V30 1165 C 114.262 0.00773911 1.73998 0
M  V30 1166 O 115.438 0.207972 2.00323 0
M  V30 1167 C 112.503 0.68691 3.39827 0
M  V30 1168 C 111.564 1.82641 3.88511 0
M  V30 1169 C 110.797 1.46181 5.1329 0
M  V30 1170 O 111.02 0.355971 5.69288 0
M  V30 1171 O 109.954 2.29085 5.566 0
M  V30 1172 H 113.78 2.01723 2.27027 0
M  V30 1173 H 111.365 1.04051 1.07209 0
M  V30 1174 H 113.247 0.485417 4.18595 0
M  V30 1175 H 111.922 -0.231417 3.22872 0
M  V30 1176 H 110.829 2.08274 3.10762 0
M  V30 1177 H 112.162 2.72386 4.09959 0
M  V30 1178 N 113.814 -1.1601 1.06675 0
M  V30 1179 C 115.062 -1.86264 0.784229 0
M  V30 1180 C 115.383 -1.82328 -0.691488 0
M  V30 1181 O 114.653 -1.25947 -1.50047 0
M  V30 1182 H 113.233 -0.689621 0.28711 0
M  V30 1183 H 115.895 -1.40664 1.34906 0
M  V30 1184 H 114.991 -2.91595 1.11259 0
M  V30 1185 N 115.292 -0.849877 -1.32721 0
M  V30 1186 C 116.522 -0.46408 -2.0132 0
M  V30 1187 C 116.93 0.94246 -1.64056 0
M  V30 1188 O 116.273 1.6257 -0.855379 0
M  V30 1189 C 116.335 -0.517887 -3.5575 0
M  V30 1190 C 115.999 -1.88248 -4.16427 0
M  V30 1191 C 116.996 -2.84726 -4.35002 0
M  V30 1192 C 114.681 -2.17832 -4.52609 0
M  V30 1193 C 116.675 -4.08945 -4.8892 0
M  V30 1194 C 114.362 -3.42304 -5.06232 0
M  V30 1195 C 115.36 -4.37677 -5.24335 0
M  V30 1196 O 115.048 -5.59946 -5.76815 0
M  V30 1197 H 114.78 -0.181327 -0.651227 0
M  V30 1198 H 117.334 -1.14713 -1.70382 0
M  V30 1199 H 115.564 0.221997 -3.86062 0
M  V30 1200 H 117.253 -0.148366 -4.05629 0
M  V30 1201 H 118.019 -2.63174 -4.07388 0
M  V30 1202 H 113.898 -1.44385 -4.37806 0
M  V30 1203 H 117.442 -4.83396 -5.02966 0
M  V30 1204 H 113.339 -3.63709 -5.33278 0
M  V30 1205 H 114.107 -5.61838 -5.95214 0
M  V30 1206 N 116.77 1.45427 -0.607355 0
M  V30 1207 C 117.717 2.3053 0.111625 0
M  V30 1208 C 118.687 1.4209 0.860216 0
M  V30 1209 O 119.872 1.71019 0.845998 0
M  V30 1210 C 117.012 3.26992 1.10319 0
M  V30 1211 C 116.125 4.30535 0.355493 0
M  V30 1212 C 115.26 5.14105 1.33676 0
M  V30 1213 C 114.299 6.09376 0.576862 0
M  V30 1214 N 113.436 6.85727 1.5074 0
M  V30 1215 H 118.276 2.91477 -0.620093 0
M  V30 1216 H 115.813 1.43631 -0.317594 0
M  V30 1217 H 117.771 3.81385 1.6912 0
M  V30 1218 H 116.401 2.67799 1.80232 0
M  V30 1219 H 115.453 3.78805 -0.348023 0
M  V30 1220 H 116.765 4.98235 -0.237423 0
M  V30 1221 H 115.919 5.72897 1.99684 0
M  V30 1222 H 114.658 4.46423 1.9636 0
M  V30 1223 H 113.663 5.49715 -0.0968519 0
M  V30 1224 H 114.888 6.79085 -0.0449341 0
M  V30 1225 H 112.834 6.20735 2.12189 0
M  V30 1226 H 112.751 7.49778 0.967913 0
M  V30 1227 H 114.019 7.4906 2.15706 0
M  V30 1228 N 118.248 0.346503 1.53744 0
M  V30 1229 C 119.525 -0.304532 1.93215 0
M  V30 1230 C 119.905 -1.67993 1.27834 0
M  V30 1231 O 119.253 -2.24411 0.430352 0
M  V30 1232 C 119.463 -0.373852 3.46992 0
M  V30 1233 C 120.811 -0.62329 4.2 0
M  V30 1234 O 121.835 -0.455847 3.53271 0
M  V30 1235 O 120.694 -0.947879 5.38217 0
M  V30 1236 H 117.788 -0.178318 0.807547 0
M  V30 1237 H 120.334 0.397895 1.64969 0
M  V30 1238 H 119.106 0.591224 3.86808 0
M  V30 1239 H 118.729 -1.12294 3.81413 0
M  V30 1240 N 119.726 -1.57421 0.075193 0
M  V30 1241 C 120.973 -1.93618 -0.593146 0
M  V30 1242 C 121.301 -0.955484 -1.69413 0
M  V30 1243 O 120.556 0.0283251 -1.9568 0
M  V30 1244 C 120.855 -3.36428 -1.20626 0
M  V30 1245 C 120.521 -4.50307 -0.231078 0
M  V30 1246 C 119.183 -4.81186 0.0371936 0
M  V30 1247 C 121.535 -5.19374 0.435888 0
M  V30 1248 C 118.863 -5.78466 0.979461 0
M  V30 1249 C 121.215 -6.17665 1.3665 0
M  V30 1250 C 119.879 -6.46958 1.6432 0
M  V30 1251 H 119.149 -0.708499 -0.217047 0
M  V30 1252 H 121.796 -1.90937 0.146793 0
M  V30 1253 H 120.101 -3.35592 -2.02201 0
M  V30 1254 H 121.798 -3.61727 -1.73073 0
M  V30 1255 H 118.388 -4.26227 -0.450357 0
M  V30 1256 H 122.572 -4.95711 0.241748 0
M  V30 1257 H 117.828 -5.99487 1.20106 0
M  V30 1258 H 122.002 -6.70284 1.88924 0
M  V30 1259 H 119.629 -7.2215 2.37494 0
M  V30 1260 N 121.204 0.198386 -1.56346 0
M  V30 1261 C 122.62 0.549085 -1.49857 0
M  V30 1262 C 122.82 1.86016 -0.774611 0
M  V30 1263 O 121.876 2.50416 -0.323776 0
M  V30 1264 C 123.189 0.606868 -2.94512 0
M  V30 1265 C 124.737 0.695925 -3.05165 0
M  V30 1266 C 125.212 0.784848 -4.51225 0
M  V30 1267 N 126.703 0.848463 -4.55363 0
M  V30 1268 C 127.438 0.937378 -5.65686 0
M  V30 1269 N 126.934 0.9888 -6.85707 0
M  V30 1270 N 128.727 0.974312 -5.53592 0
M  V30 1271 H 120.878 -0.661655 -2.01831 0
M  V30 1272 H 123.141 -0.235261 -0.918344 0
M  V30 1273 H 122.847 -0.28732 -3.50524 0
M  V30 1274 H 122.721 1.46268 -3.47686 0
M  V30 1275 H 125.108 1.58055 -2.49204 0
M  V30 1276 H 125.189 -0.186022 -2.55123 0
M  V30 1277 H 124.833 -0.0954072 -5.0781 0
M  V30 1278 H 124.763 1.68255 -4.98997 0
M  V30 1279 H 127.254 0.818103 -3.68938 0
M  V30 1280 H 127.567 1.05707 -7.65536 0
M  V30 1281 H 125.912 0.957534 -6.88372 0
M  V30 1282 H 129.103 0.930954 -4.58749 0
M  V30 1283 H 129.276 1.04015 -6.39597 0
M  V30 1284 N 122.682 1.50554 0.465978 0
M  V30 1285 C 123.645 1.69233 1.54574 0
M  V30 1286 C 124.645 0.562901 1.50626 0
M  V30 1287 O 125.835 0.830016 1.53155 0
M  V30 1288 C 122.967 1.7223 2.94193 0
M  V30 1289 H 124.16 2.65571 1.39327 0
M  V30 1290 H 121.713 1.40111 0.692711 0
M  V30 1291 H 122.448 0.77603 3.14878 0
M  V30 1292 H 122.233 2.54285 2.98466 0
M  V30 1293 H 123.723 1.88618 3.72576 0
M  V30 1294 N 124.16 -0.719506 1.40217 0
M  V30 1295 C 125.409 -1.47486 1.37589 0
M  V30 1296 C 125.722 -1.9559 -0.0201568 0
M  V30 1297 O 126.928 -2.70973 -0.169049 0
M  V30 1298 C 125.384 -2.66575 2.41796 0
M  V30 1299 C 124.992 -2.25358 3.87192 0
M  V30 1300 C 126.736 -3.4433 2.48269 0
M  V30 1301 C 124.643 -3.41262 4.83005 0
M  V30 1302 H 123.573 -0.553901 0.511576 0
M  V30 1303 H 126.224 -0.783427 1.65936 0
M  V30 1304 H 124.606 -3.3787 2.06543 0
M  V30 1305 H 125.78 -1.61509 4.31569 0
M  V30 1306 H 124.095 -1.60657 3.84159 0
M  V30 1307 H 126.692 -4.30569 3.17041 0
M  V30 1308 H 127.035 -3.87872 1.51198 0
M  V30 1309 H 127.568 -2.80076 2.82493 0
M  V30 1310 H 124.307 -3.02755 5.81394 0
M  V30 1311 H 123.827 -4.0404 4.43297 0
M  V30 1312 H 125.506 -4.07383 5.02641 0
M  V30 1313 N 125.638 -1.25649 -0.95132 0
M  V30 1314 C 126.601 -1.06399 -2.03007 0
M  V30 1315 C 127.601 -0.0156794 -1.60792 0
M  V30 1316 O 128.791 -0.25817 -1.72276 0
M  V30 1317 C 125.923 -0.616184 -3.35285 0
M  V30 1318 H 127.116 -2.02164 -2.21517 0
M  V30 1319 H 124.669 -1.08103 -1.12887 0
M  V30 1320 H 125.404 0.343917 -3.22471 0
M  V30 1321 H 125.189 -1.37301 -3.67275 0
M  V30 1322 H 126.679 -0.503032 -4.14559 0
M  V30 1323 N 127.117 1.15442 -1.07289 0
M  V30 1324 C 128.366 1.85557 -0.790669 0
M  V30 1325 C 128.679 1.83186 0.685739 0
M  V30 1326 O 129.885 2.48977 1.0827 0
M  V30 1327 C 128.341 3.33038 -1.36433 0
M  V30 1328 C 127.949 3.43856 -2.8717 0
M  V30 1329 C 129.693 4.0834 -1.1601 0
M  V30 1330 C 127.6 4.85482 -3.3773 0
M  V30 1331 H 126.53 0.695122 -0.292098 0
M  V30 1332 H 129.181 1.30219 -1.29287 0
M  V30 1333 H 127.563 3.88043 -0.789864 0
M  V30 1334 H 128.737 2.98961 -3.50655 0
M  V30 1335 H 127.052 2.81998 -3.06376 0
M  V30 1336 H 129.649 5.12859 -1.51262 0
M  V30 1337 H 129.992 4.16182 -0.0991007 0
M  V30 1338 H 130.525 3.59603 -1.70089 0
M  V30 1339 H 127.264 4.82823 -4.43353 0
M  V30 1340 H 126.784 5.30961 -2.78999 0
M  V30 1341 H 128.463 5.54335 -3.33648 0
M  V30 1342 N 128.595 0.856903 1.32268 0
M  V30 1343 C 129.558 0.308171 2.27119 0
M  V30 1344 C 130.558 -0.533421 1.51695 0
M  V30 1345 O 131.748 -0.344607 1.70757 0
M  V30 1346 C 128.88 -0.563757 3.36206 0
M  V30 1347 H 130.073 1.14535 2.77167 0
M  V30 1348 H 127.626 0.631421 1.42978 0
M  V30 1349 H 128.361 -1.42266 2.91429 0
M  V30 1350 H 128.146 0.0386749 3.92081 0
M  V30 1351 H 129.636 -0.940386 4.06874 0
M  V30 1352 N 130.073 -1.45103 0.615059 0
M  V30 1353 C 131.298 -2.07064 0.117988 0
M  V30 1354 C 131.723 -1.4554 -1.19163 0
M  V30 1355 O 131.081 -0.550855 -1.72729 0
M  V30 1356 C 131.129 -3.606 -0.000288387 0
M  V30 1357 O 130.233 -3.98847 -1.04856 0
M  V30 1358 H 129.574 -0.659467 0.0774581 0
M  V30 1359 H 132.104 -1.86236 0.847186 0
M  V30 1360 H 132.114 -4.07529 -0.196091 0
M  V30 1361 H 130.789 -4.04765 0.955932 0
M  V30 1362 H 129.366 -3.63577 -0.828619 0
M  V30 1363 N 131.551 -0.354651 -1.53558 0
M  V30 1364 C 132.828 0.294281 -1.93374 0
M  V30 1365 C 133.208 1.67313 -1.28723 0
M  V30 1366 O 132.556 2.24179 -0.442247 0
M  V30 1367 C 132.766 0.355445 -3.47185 0
M  V30 1368 C 134.114 0.601007 -4.20325 0
M  V30 1369 O 135.138 0.437106 -3.53508 0
M  V30 1370 O 133.997 0.919322 -5.38712 0
M  V30 1371 H 131.091 0.174033 -0.808481 0
M  V30 1372 H 133.637 -0.406638 -1.64756 0
M  V30 1373 H 132.409 -0.611729 -3.86489 0
M  V30 1374 H 132.032 1.1027 -3.82003 0
M  V30 1375 N 133.029 1.57378 -0.0835403 0
M  V30 1376 C 133.962 2.09016 0.915833 0
M  V30 1377 C 134.94 0.997993 1.2837 0
M  V30 1378 O 136.124 1.27219 1.39096 0
M  V30 1379 C 133.251 2.55757 2.22049 0
M  V30 1380 C 132.297 3.76522 2.00333 0
M  V30 1381 S 133.13 5.20661 1.25191 0
M  V30 1382 C 134.286 5.70743 2.56912 0
M  V30 1383 H 134.519 2.93457 0.476492 0
M  V30 1384 H 132.052 1.53856 0.129493 0
M  V30 1385 H 134.01 2.83346 2.97027 0
M  V30 1386 H 132.671 1.71564 2.63106 0
M  V30 1387 H 131.864 4.07256 2.96916 0
M  V30 1388 H 131.466 3.49367 1.33488 0
M  V30 1389 H 133.758 5.78304 3.52946 0
M  V30 1390 H 134.701 6.6944 2.30772 0
M  V30 1391 H 135.109 4.98616 2.64655 0
M  V30 1392 N 134.507 -0.190092 1.56449 0
M  V30 1393 C 135.439 -1.25973 1.91477 0
M  V30 1394 C 136.452 -1.41452 0.805931 0
M  V30 1395 O 137.641 -1.41789 1.08435 0
M  V30 1396 C 134.741 -2.63117 2.13594 0
M  V30 1397 C 133.914 -2.69182 3.4476 0
M  V30 1398 C 132.973 -3.87557 3.5593 0
M  V30 1399 O 131.999 -3.74427 4.28711 0
M  V30 1400 N 133.201 -5.03224 2.89388 0
M  V30 1401 H 135.966 -0.962394 2.83828 0
M  V30 1402 H 133.527 -0.379981 1.57378 0
M  V30 1403 H 135.519 -3.40742 2.1835 0
M  V30 1404 H 134.089 -2.85319 1.27719 0
M  V30 1405 H 133.309 -1.77793 3.51828 0
M  V30 1406 H 134.597 -2.70229 4.31107 0
M  V30 1407 H 133.995 -5.16791 2.30094 0
M  V30 1408 H 132.552 -5.78778 2.99764 0
M  V30 1409 N 135.985 -1.50799 -0.457987 0
M  V30 1410 C 137.262 -1.52968 -1.21902 0
M  V30 1411 C 137.642 -0.281906 -2.09209 0
M  V30 1412 O 136.99 0.734076 -2.16388 0
M  V30 1413 C 137.2 -2.8326 -2.03875 0
M  V30 1414 C 138.548 -3.34425 -2.6162 0
M  V30 1415 O 139.572 -2.8467 -2.14106 0
M  V30 1416 O 138.431 -4.21188 -3.48228 0
M  V30 1417 H 135.525 -0.614129 -0.553873 0
M  V30 1418 H 138.071 -1.63098 -0.468739 0
M  V30 1419 H 136.843 -3.65543 -1.39621 0
M  V30 1420 H 136.466 -2.76195 -2.8601 0
M  V30 1421 N 137.463 0.71206 -1.40597 0
M  V30 1422 C 138.74 1.46536 -1.29563 0
M  V30 1423 C 139.12 2.10931 0.0844217 0
M  V30 1424 O 138.468 2.00418 1.0975 0
M  V30 1425 C 138.678 2.49821 -2.43701 0
M  V30 1426 C 140.026 3.15551 -2.841 0
M  V30 1427 O 141.05 2.60142 -2.4332 0
M  V30 1428 O 139.909 4.15867 -3.54566 0
M  V30 1429 H 137.003 0.651801 -0.509004 0
M  V30 1430 H 139.549 0.743935 -1.52524 0
M  V30 1431 H 138.321 2.00778 -3.35863 0
M  V30 1432 H 137.944 3.29495 -2.22528 0
M  V30 1433 N 138.941 1.26152 0.944643 0
M  V30 1434 C 140.188 1.11492 1.69044 0
M  V30 1435 C 140.516 -0.342366 1.91463 0
M  V30 1436 O 139.771 -1.26812 1.49054 0
M  V30 1437 C 140.07 1.82541 3.07268 0
M  V30 1438 C 139.736 3.32445 3.04616 0
M  V30 1439 C 138.398 3.73337 3.036 0
M  V30 1440 C 140.75 4.28171 2.97185 0
M  V30 1441 C 138.078 5.08348 2.92915 0
M  V30 1442 C 140.43 5.63218 2.88041 0
M  V30 1443 C 139.094 6.03426 2.85366 0
M  V30 1444 H 138.364 0.407977 0.618576 0
M  V30 1445 H 141.011 1.56551 1.10291 0
M  V30 1446 H 139.316 1.29941 3.69625 0
M  V30 1447 H 141.013 1.68642 3.63815 0
M  V30 1448 H 137.603 2.99915 3.06185 0
M  V30 1449 H 141.787 3.97563 2.97081 0
M  V30 1450 H 137.043 5.38667 2.89219 0
M  V30 1451 H 141.217 6.37078 2.81254 0
M  V30 1452 H 138.844 7.07999 2.76842 0
M  V30 1453 N 140.419 -1.14872 1.07899 0
M  V30 1454 C 141.668 -1.85135 0.800499 0
M  V30 1455 C 141.981 -1.83547 -0.676014 0
M  V30 1456 O 143.187 -2.49548 -1.06948 0
M  V30 1457 C 141.643 -3.3231 1.38197 0
M  V30 1458 C 141.251 -3.42329 2.8899 0
M  V30 1459 C 142.995 -4.0772 1.18174 0
M  V30 1460 C 140.902 -4.83684 3.403 0
M  V30 1461 H 139.832 -0.693563 0.29578 0
M  V30 1462 H 142.483 -1.29532 1.29976 0
M  V30 1463 H 140.865 -3.87618 0.810431 0
M  V30 1464 H 142.039 -2.97097 3.52236 0
M  V30 1465 H 140.354 -2.80369 3.07867 0
M  V30 1466 H 142.951 -5.12049 1.5398 0
M  V30 1467 H 143.294 -4.16124 0.12117 0
M  V30 1468 H 143.827 -3.58696 1.71994 0
M  V30 1469 H 140.566 -4.80465 4.45907 0
M  V30 1470 H 140.086 -5.29474 2.81811 0
M  V30 1471 H 141.765 -5.52558 3.36584 0
M  V30 1472 N 141.898 -0.863906 -1.31812 0
M  V30 1473 C 143.123 -0.48527 -2.01643 0
M  V30 1474 C 143.548 0.913058 -1.64453 0
M  V30 1475 O 142.906 1.6014 -0.849985 0
M  V30 1476 C 142.954 -0.642625 -3.54828 0
M  V30 1477 O 142.058 0.320659 -4.11151 0
M  V30 1478 H 141.399 -0.193793 -0.635091 0
M  V30 1479 H 143.929 -1.16565 -1.68148 0
M  V30 1480 H 143.939 -0.533628 -4.04495 0
M  V30 1481 H 142.614 -1.66227 -3.81237 0
M  V30 1482 H 141.191 0.167126 -3.72525 0
M  V30 1483 N 143.376 1.44774 -0.622745 0
M  V30 1484 C 144.787 1.85546 -0.207226 0
M  V30 1485 C 145.138 1.52093 1.23944 0
M  V30 1486 O 144.263 0.95492 1.94191 0
M  V30 1487 C 144.858 3.36781 -0.369313 0
M  V30 1488 C 143.417 3.76399 -0.00836847 0
M  V30 1489 C 142.564 2.68664 -0.686651 0
M  V30 1490 H 145.515 1.3536 -0.828454 0
M  V30 1491 H 145.536 3.78453 0.394162 0
M  V30 1492 H 145.048 3.61098 -1.42231 0
M  V30 1493 H 143.149 3.57698 1.04322 0
M  V30 1494 H 143.262 4.7732 -0.412584 0
M  V30 1495 H 141.626 2.54404 -0.122777 0
M  V30 1496 H 142.409 2.95815 -1.74208 0
M  V30 1497 N 144.854 0.36279 1.53368 0
M  V30 1498 C 146.094 -0.227882 2.03126 0
M  V30 1499 C 146.458 -1.4622 1.24434 0
M  V30 1500 O 147.659 -2.12831 1.64184 0
M  V30 1501 C 145.93 -0.515427 3.53664 0
M  V30 1502 S 147.489 -1.08017 4.25297 0
M  V30 1503 H 144.307 -0.0665377 0.70788 0
M  V30 1504 H 146.909 0.50501 1.88865 0
M  V30 1505 H 145.613 0.390436 4.08539 0
M  V30 1506 H 145.144 -1.27747 3.72081 0
M  V30 1507 H 147.159 -2.36462 4.36234 0
M  V30 1508 N 146.332 -1.57332 0.0918853 0
M  V30 1509 C 147.58 -1.93853 -0.571446 0
M  V30 1510 C 147.901 -0.974212 -1.6892 0
M  V30 1511 O 147.171 -0.0257254 -1.95883 0
M  V30 1512 H 145.751 -0.715666 -0.214082 0
M  V30 1513 H 148.413 -1.94287 0.154464 0
M  V30 1514 H 147.509 -2.96191 -0.983729 0
M  V30 1515 N 147.81 0.181792 -1.56548 0
M  V30 1516 C 148.773 1.20894 -1.94724 0
M  V30 1517 C 149.773 1.37738 -0.829747 0
M  V30 1518 O 150.963 1.35323 -1.09697 0
M  V30 1519 C 148.095 2.57593 -2.23291 0
M  V30 1520 H 149.288 0.882275 -2.86629 0
M  V30 1521 H 146.841 0.423838 -1.50444 0
M  V30 1522 H 147.576 2.95291 -1.34067 0
M  V30 1523 H 147.361 2.46735 -3.04736 0
M  V30 1524 H 148.851 3.31637 -2.53785 0
M  V30 1525 N 149.288 1.51039 0.449983 0
M  V30 1526 C 150.528 1.64732 1.21007 0
M  V30 1527 C 150.892 0.349865 1.88785 0
M  V30 1528 O 152.093 0.362431 2.66345 0
M  V30 1529 C 150.364 2.80902 2.20973 0
M  V30 1530 S 151.923 3.14851 3.05638 0
M  V30 1531 H 148.741 0.5805 0.410538 0
M  V30 1532 H 151.343 1.88901 0.503634 0
M  V30 1533 H 150.047 3.73627 1.69796 0
M  V30 1534 H 149.578 2.58882 2.96215 0
M  V30 1535 H 151.593 2.60306 4.22439 0
M  V30 1536 N 150.766 -0.704594 1.40972 0
M  V30 1537 C 152.182 -1.01406 1.23244 0
M  V30 1538 C 152.382 -2.01169 0.115399 0
M  V30 1539 O 151.438 -2.47021 -0.523147 0
M  V30 1540 C 152.751 -1.54728 2.57836 0
M  V30 1541 C 154.299 -1.66658 2.64942 0
M  V30 1542 C 154.774 -2.23383 3.9983 0
M  V30 1543 N 156.265 -2.30756 4.01629 0
M  V30 1544 C 157 -2.75655 5.02794 0
M  V30 1545 N 156.496 -3.20225 6.14352 0
M  V30 1546 N 158.289 -2.75138 4.90159 0
M  V30 1547 H 150.44 -0.0435285 2.12355 0
M  V30 1548 H 152.703 -0.0818951 0.944456 0
M  V30 1549 H 152.409 -0.888832 3.40283 0
M  V30 1550 H 152.283 -2.53084 2.79693 0
M  V30 1551 H 154.67 -2.31617 1.8286 0
M  V30 1552 H 154.751 -0.668717 2.46904 0
M  V30 1553 H 154.395 -1.59043 4.82357 0
M  V30 1554 H 154.325 -3.23904 4.15203 0
M  V30 1555 H 156.816 -1.99291 3.21079 0
M  V30 1556 H 157.129 -3.53084 6.87424 0
M  V30 1557 H 155.474 -3.18156 6.17901 0
M  V30 1558 H 158.665 -2.39661 4.02095 0
M  V30 1559 H 158.838 -3.09812 5.6914 0
M  V30 1560 N 152.244 -1.26651 -0.937939 0
M  V30 1561 C 153.176 -1.04283 -2.04102 0
M  V30 1562 C 154.189 -0.00221014 -1.628 0
M  V30 1563 O 155.378 -0.242645 -1.76843 0
M  V30 1564 C 152.478 -0.557846 -3.34277 0
M  V30 1565 C 151.651 -1.66843 -4.04329 0
M  V30 1566 C 150.71 -1.18095 -5.12777 0
M  V30 1567 O 149.736 -1.87865 -5.37304 0
M  V30 1568 N 150.938 -0.0311006 -5.80492 0
M  V30 1569 H 153.703 -1.9927 -2.23856 0
M  V30 1570 H 151.264 -1.1808 -1.10764 0
M  V30 1571 H 153.256 -0.215836 -4.04124 0
M  V30 1572 H 151.826 0.298523 -3.11171 0
M  V30 1573 H 151.046 -2.18123 -3.28353 0
M  V30 1574 H 152.334 -2.41408 -4.47883 0
M  V30 1575 H 151.732 0.551486 -5.63005 0
M  V30 1576 H 150.289 0.251809 -6.51313 0
M  V30 1577 N 153.722 1.14298 -1.08507 0
M  V30 1578 C 154.968 1.85633 -0.816581 0
M  V30 1579 C 155.301 1.82784 0.656021 0
M  V30 1580 O 154.576 1.25926 1.48233 0
M  V30 1581 C 154.859 3.34223 -1.34041 0
M  V30 1582 C 154.712 3.45639 -2.87843 0
M  V30 1583 C 156.031 4.29356 -0.9665 0
M  V30 1584 H 153.15 0.67402 -0.298104 0
M  V30 1585 H 155.792 1.34214 -1.34487 0
M  V30 1586 H 153.942 3.78144 -0.89104 0
M  V30 1587 H 155.614 3.10498 -3.41158 0
M  V30 1588 H 153.857 2.86817 -3.25451 0
M  V30 1589 H 154.528 4.50089 -3.19569 0
M  V30 1590 H 157.004 3.93457 -1.35391 0
M  V30 1591 H 155.88 5.3178 -1.3602 0
M  V30 1592 H 156.141 4.41919 0.126362 0
M  V30 1593 N 155.201 0.870884 1.31352 0
M  V30 1594 C 156.134 0.271983 2.26573 0
M  V30 1595 C 157.112 -0.599385 1.51149 0
M  V30 1596 O 158.296 -0.552605 1.80218 0
M  V30 1597 C 155.423 -0.614801 3.33073 0
M  V30 1598 C 154.469 0.185342 4.26097 0
M  V30 1599 S 155.302 1.56444 5.12138 0
M  V30 1600 C 156.458 0.683807 6.22153 0
M  V30 1601 H 156.691 1.07916 2.77023 0
M  V30 1602 H 154.224 0.669459 1.39132 0
M  V30 1603 H 156.182 -1.12074 3.94905 0
M  V30 1604 H 154.843 -1.39593 2.81376 0
M  V30 1605 H 154.036 -0.490771 5.01605 0
M  V30 1606 H 153.638 0.623415 3.68768 0
M  V30 1607 H 155.93 -0.10521 6.77418 0
M  V30 1608 H 156.873 1.41004 6.93919 0
M  V30 1609 H 157.281 0.250952 5.63942 0
M  V30 1610 N 156.679 -1.44442 0.630414 0
M  V30 1611 C 158.095 -1.56832 0.295973 0
M  V30 1612 C 158.295 -1.61806 -1.20088 0
M  V30 1613 O 157.351 -1.5607 -1.9849 0
M  V30 1614 C 158.664 -2.84031 0.987264 0
M  V30 1615 C 160.212 -2.97742 0.96534 0
M  V30 1616 C 160.687 -4.27743 1.63708 0
M  V30 1617 N 162.178 -4.34555 1.60364 0
M  V30 1618 C 162.913 -5.33862 2.09234 0
M  V30 1619 N 162.409 -6.39578 2.66292 0
M  V30 1620 N 164.202 -5.25366 1.99867 0
M  V30 1621 H 156.353 -1.39457 1.60205 0
M  V30 1622 H 158.616 -0.668237 0.672431 0
M  V30 1623 H 158.322 -2.86338 2.04215 0
M  V30 1624 H 158.196 -3.73534 0.524588 0
M  V30 1625 H 160.583 -2.94989 -0.0810639 0
M  V30 1626 H 160.664 -2.09589 1.4665 0
M  V30 1627 H 160.308 -4.31255 2.68293 0
M  V30 1628 H 160.238 -5.14752 1.11076 0
M  V30 1629 H 162.729 -3.58772 1.18705 0
M  V30 1630 H 163.042 -7.11637 3.01317 0
M  V30 1631 H 161.387 -6.40265 2.70343 0
M  V30 1632 H 164.578 -4.41688 1.55013 0
M  V30 1633 H 164.751 -6.02606 2.38265 0
M  V30 1634 N 158.157 -0.370918 -1.53173 0
M  V30 1635 C 159.067 0.480823 -2.2962 0
M  V30 1636 C 160.083 1.08789 -1.35798 0
M  V30 1637 O 161.259 1.09768 -1.68858 0
M  V30 1638 C 158.324 1.60227 -3.07454 0
M  V30 1639 C 157.385 1.0222 -4.16953 0
M  V30 1640 C 156.618 2.0902 -4.91066 0
M  V30 1641 O 156.841 3.30222 -4.65091 0
M  V30 1642 O 155.775 1.71778 -5.76867 0
M  V30 1643 H 159.601 -0.141421 -3.03371 0
M  V30 1644 H 157.186 -0.135146 -1.48787 0
M  V30 1645 H 159.068 2.25417 -3.56041 0
M  V30 1646 H 157.743 2.20982 -2.36535 0
M  V30 1647 H 156.65 0.334064 -3.72605 0
M  V30 1648 H 157.983 0.459131 -4.90054 0
M  V30 1649 N 159.635 1.57281 -0.100228 0
M  V30 1650 C 160.882 1.94537 0.562268 0
M  V30 1651 C 161.21 0.982315 1.67871 0
M  V30 1652 O 160.465 0.00280936 1.957 0
M  V30 1653 C 160.764 3.38305 1.15259 0
M  V30 1654 C 160.43 4.50618 0.159409 0
M  V30 1655 C 159.092 4.81066 -0.113741 0
M  V30 1656 C 161.444 5.18615 -0.518461 0
M  V30 1657 C 158.772 5.76835 -1.07137 0
M  V30 1658 C 161.124 6.15412 -1.46459 0
M  V30 1659 C 159.788 6.44262 -1.74592 0
M  V30 1660 H 159.058 0.711863 0.205748 0
M  V30 1661 H 161.705 1.90679 -0.17715 0
M  V30 1662 H 160.01 3.38766 1.96836 0
M  V30 1663 H 161.707 3.64435 1.67297 0
M  V30 1664 H 158.297 4.2689 0.382491 0
M  V30 1665 H 162.481 4.95264 -0.320581 0
M  V30 1666 H 157.737 5.975 -1.29628 0
M  V30 1667 H 161.911 6.67194 -1.99564 0
M  V30 1668 H 159.538 7.1828 -2.48953 0
M  V30 1669 N 161.113 -0.173488 1.56642 0
M  V30 1670 C 162.361 -0.888706 1.81512 0
M  V30 1671 C 162.682 -1.82875 0.676872 0
M  V30 1672 O 161.952 -1.93536 -0.303414 0
M  V30 1673 H 160.532 -0.331164 0.669582 0
M  V30 1674 H 163.194 -0.173823 1.94123 0
M  V30 1675 H 162.29 -1.46691 2.75478 0
M  V30 1676 N 162.591 -1.51276 -0.441967 0
M  V30 1677 C 163.819 -1.67516 -1.21434 0
M  V30 1678 C 164.234 -0.37055 -1.85128 0
M  V30 1679 O 163.591 0.650498 -1.70513 0
M  V30 1680 C 163.642 -2.78748 -2.30177 0
M  V30 1681 O 163.363 -4.04154 -1.69089 0
M  V30 1682 C 164.864 -3.06217 -3.20541 0
M  V30 1683 H 162.084 -0.562276 -0.366178 0
M  V30 1684 H 164.628 -1.97666 -0.524244 0
M  V30 1685 H 162.783 -2.5121 -2.94911 0
M  V30 1686 H 163.197 -4.65894 -2.40922 0
M  V30 1687 H 164.671 -3.8764 -3.92987 0
M  V30 1688 H 165.148 -2.18439 -3.81026 0
M  V30 1689 H 165.754 -3.35397 -2.61513 0
M  V30 1690 N 164.069 0.697108 -1.41344 0
M  V30 1691 C 165.017 1.83237 -1.43272 0
M  V30 1692 C 166.011 1.66522 -0.310947 0
M  V30 1693 O 167.217 1.73402 -0.482899 0
M  V30 1694 H 163.592 0.603802 -0.448249 0
M  V30 1695 H 165.563 1.78727 -2.38954 0
M  V30 1696 C 164.312 3.21245 -1.33029 0
M  V30 1697 H 163.635 3.34723 -2.18633 0
M  V30 1698 H 165.075 4.00763 -1.38439 0
M  V30 1699 C 163.534 3.36873 -0.0424635 0
M  V30 1700 O 164.064 3.91177 0.913421 0
M  V30 1701 N 162.27 2.90581 0.0331145 0
M  V30 1702 H 161.817 2.46577 -0.745506 0
M  V30 1703 H 161.775 3.01416 0.894199 0
M  V30 1704 N 165.547 1.27147 0.931209 0
M  V30 1705 C 166.793 1.14455 1.68141 0
M  V30 1706 C 167.148 -0.307172 1.89932 0
M  V30 1707 O 166.441 -1.22158 1.47607 0
M  V30 1708 C 166.635 1.8579 3.05314 0
M  V30 1709 C 166.464 3.3775 2.96909 0
M  V30 1710 C 165.234 4.07062 2.99381 0
M  V30 1711 C 167.432 4.33783 2.76291 0
M  V30 1712 N 165.414 5.45618 2.8138 0
M  V30 1713 C 166.785 5.59582 2.6696 0
M  V30 1714 C 168.84 4.23915 2.61152 0
M  V30 1715 C 167.543 6.76639 2.44033 0
M  V30 1716 C 169.569 5.40689 2.39602 0
M  V30 1717 C 168.931 6.65443 2.3101 0
M  V30 1718 H 165.03 0.473667 0.622225 0
M  V30 1719 H 167.614 1.60568 1.10118 0
M  V30 1720 H 165.785 1.42138 3.61457 0
M  V30 1721 H 167.517 1.65634 3.69253 0
M  V30 1722 H 164.272 3.585 3.09475 0
M  V30 1723 H 164.696 6.184 2.75519 0
M  V30 1724 H 169.338 3.28189 2.66555 0
M  V30 1725 H 167.056 7.72451 2.3737 0
M  V30 1726 H 170.642 5.34932 2.28778 0
M  V30 1727 H 169.522 7.54277 2.14558 0
M  V30 1728 N 167.025 -1.13721 1.09112 0
M  V30 1729 C 168.436 -1.6648 0.845068 0
M  V30 1730 C 168.787 -1.85911 -0.62701 0
M  V30 1731 O 167.912 -1.57556 -1.48341 0
M  V30 1732 C 168.507 -3.02413 1.52748 0
M  V30 1733 C 167.066 -3.52176 1.32849 0
M  V30 1734 C 166.213 -2.27492 1.58564 0
M  V30 1735 H 169.164 -0.976872 1.25072 0
M  V30 1736 H 169.185 -3.68223 0.958752 0
M  V30 1737 H 168.697 -2.88238 2.59885 0
M  V30 1738 H 166.798 -3.7156 0.278137 0
M  V30 1739 H 166.911 -4.32499 2.0611 0
M  V30 1740 H 165.275 -2.33923 1.00758 0
M  V30 1741 H 166.058 -2.15886 2.66924 0
M  V30 1742 N 168.503 -0.877838 -1.30888 0
M  V30 1743 C 169.749 -0.493426 -1.96706 0
M  V30 1744 C 170.082 0.953504 -1.6918 0
M  V30 1745 O 169.357 1.67266 -0.992594 0
M  V30 1746 C 169.64 -0.760429 -3.51979 0
M  V30 1747 C 169.493 -2.25747 -3.89048 0
M  V30 1748 C 170.812 -0.232148 -4.39487 0
M  V30 1749 H 167.931 -0.180746 -0.714493 0
M  V30 1750 H 170.573 -1.10052 -1.54882 0
M  V30 1751 H 168.723 -0.243715 -3.87735 0
M  V30 1752 H 170.395 -2.84204 -3.63354 0
M  V30 1753 H 168.638 -2.72694 -3.37373 0
M  V30 1754 H 169.309 -2.39491 -4.97341 0
M  V30 1755 H 171.785 -0.674314 -4.106 0
M  V30 1756 H 170.661 -0.448355 -5.47066 0
M  V30 1757 H 170.922 0.866297 -4.33529 0
M  V30 1758 N 169.982 1.44106 -0.638065 0
M  V30 1759 C 171.212 2.06037 -0.152394 0
M  V30 1760 C 171.62 1.47808 1.18108 0
M  V30 1761 O 170.963 0.598092 1.73691 0
M  V30 1762 C 171.025 3.59488 0.0293714 0
M  V30 1763 C 170.689 4.4022 -1.22702 0
M  V30 1764 C 171.686 4.73256 -2.15232 0
M  V30 1765 C 169.371 4.8048 -1.46437 0
M  V30 1766 C 171.365 5.45444 -3.29802 0
M  V30 1767 C 169.052 5.52417 -2.61303 0
M  V30 1768 C 170.05 5.84819 -3.52811 0
M  V30 1769 O 169.738 6.55289 -4.65673 0
M  V30 1770 H 169.47 0.671233 -0.0801401 0
M  V30 1771 H 172.024 1.85851 -0.874563 0
M  V30 1772 H 170.254 3.78191 0.806758 0
M  V30 1773 H 171.943 4.03164 0.470475 0
M  V30 1774 H 172.709 4.42684 -1.98131 0
M  V30 1775 H 168.588 4.54676 -0.760977 0
M  V30 1776 H 172.132 5.70653 -4.01249 0
M  V30 1777 H 168.029 5.82404 -2.78344 0
M  V30 1778 H 168.797 6.73762 -4.64744 0
M  V30 1779 N 171.46 0.379036 1.52974 0
M  V30 1780 C 172.393 -0.504932 2.22544 0
M  V30 1781 C 173.371 -1.0723 1.22231 0
M  V30 1782 O 174.555 -1.12589 1.51182 0
M  V30 1783 C 171.682 -1.69794 2.93066 0
M  V30 1784 C 170.728 -1.25678 4.07563 0
M  V30 1785 S 171.561 -0.246852 5.34931 0
M  V30 1786 C 172.717 -1.44588 6.08971 0
M  V30 1787 H 172.95 0.0858666 2.97176 0
M  V30 1788 H 170.483 0.163183 1.53535 0
M  V30 1789 H 172.441 -2.38219 3.34308 0
M  V30 1790 H 171.102 -2.26002 2.18133 0
M  V30 1791 H 170.295 -2.14725 4.5597 0
M  V30 1792 H 169.897 -0.651584 3.6828 0
M  V30 1793 H 172.189 -2.37469 6.34519 0
M  V30 1794 H 173.132 -1.00292 7.00962 0
M  V30 1795 H 173.54 -1.65804 5.39601 0
M  V30 1796 N 172.938 -1.57226 0.108567 0
M  V30 1797 C 174.166 -1.99179 -0.559954 0
M  V30 1798 C 174.581 -0.988022 -1.60884 0
M  V30 1799 O 173.938 0.0205512 -1.82488 0
M  V30 1800 C 173.989 -3.41159 -1.19552 0
M  V30 1801 O 173.71 -4.37694 -0.188577 0
M  V30 1802 C 175.211 -3.98188 -1.94837 0
M  V30 1803 H 172.431 -0.654228 -0.149088 0
M  V30 1804 H 174.975 -2.03598 0.19183 0
M  V30 1805 H 173.13 -3.37711 -1.89815 0
M  V30 1806 H 173.544 -5.20469 -0.649014 0
M  V30 1807 H 175.018 -4.99644 -2.34648 0
M  V30 1808 H 175.495 -3.3675 -2.81951 0
M  V30 1809 H 176.101 -4.0515 -1.2936 0
M  V30 1810 N 174.416 0.165178 -1.56732 0
M  V30 1811 C 175.363 1.2044 -1.96883 0
M  V30 1812 C 176.333 1.43664 -0.833657 0
M  V30 1813 O 177.518 1.56302 -1.09427 0
M  V30 1814 C 174.658 2.53727 -2.33916 0
M  V30 1815 C 173.771 2.3783 -3.6064 0
M  V30 1816 C 172.906 3.64026 -3.86857 0
M  V30 1817 C 171.945 3.43088 -5.06909 0
M  V30 1818 N 171.082 4.61369 -5.29229 0
M  V30 1819 H 175.922 0.854996 -2.85471 0
M  V30 1820 H 173.459 0.41076 -1.41249 0
M  V30 1821 H 175.417 3.31419 -2.53411 0
M  V30 1822 H 174.047 2.8665 -1.48431 0
M  V30 1823 H 173.099 1.51282 -3.49024 0
M  V30 1824 H 174.411 2.18308 -4.4849 0
M  V30 1825 H 173.565 4.50152 -4.06753 0
M  V30 1826 H 172.304 3.86533 -2.97394 0
M  V30 1827 H 171.309 2.55349 -4.86906 0
M  V30 1828 H 172.534 3.21997 -5.97909 0
M  V30 1829 H 170.48 4.84084 -4.42718 0
M  V30 1830 H 170.397 4.44783 -6.11313 0
M  V30 1831 H 171.665 5.48761 -5.53608 0
M  V30 1832 N 175.894 1.51508 0.433938 0
M  V30 1833 C 177.305 1.56784 1.01369 0
M  V30 1834 C 177.656 0.393349 1.92217 0
M  V30 1835 O 176.781 -0.489441 2.10792 0
M  V30 1836 C 177.376 2.84144 1.8452 0
M  V30 1837 C 175.935 2.9198 2.37539 0
M  V30 1838 C 175.082 2.51482 1.16843 0
M  V30 1839 H 178.033 1.57236 0.215081 0
M  V30 1840 H 178.054 2.68098 2.70007 0
M  V30 1841 H 177.566 3.69607 1.18373 0
M  V30 1842 H 175.667 2.10955 3.0713 0
M  V30 1843 H 175.78 3.95704 2.70103 0
M  V30 1844 H 174.144 2.04758 1.51481 0
M  V30 1845 H 174.927 3.39293 0.523015 0
M  V30 1846 N 177.372 -0.689602 1.41712 0
M  V30 1847 C 178.649 -1.44457 1.31877 0
M  V30 1848 C 179.029 -2.11039 -0.0508537 0
M  V30 1849 O 178.377 -2.02138 -1.06547 0
M  V30 1850 C 178.587 -2.45913 2.47645 0
M  V30 1851 C 179.935 -3.10991 2.89084 0
M  V30 1852 O 180.959 -2.56238 2.47428 0
M  V30 1853 O 179.818 -4.10174 3.61137 0
M  V30 1854 H 176.912 -0.64362 0.519309 0
M  V30 1855 H 179.458 -0.719576 1.53689 0
M  V30 1856 H 178.23 -1.95409 3.39015 0
M  V30 1857 H 177.853 -3.25913 2.27742 0
M  V30 1858 N 178.85 -1.27639 -0.924453 0
M  V30 1859 C 180.098 -1.13941 -1.66918 0
M  V30 1860 C 180.419 0.314589 -1.92446 0
M  V30 1861 O 179.689 1.21964 -1.53303 0
M  V30 1862 H 178.269 -0.418678 -0.618642 0
M  V30 1863 H 180.931 -1.60213 -1.10985 0
M  V30 1864 H 180.027 -1.67094 -2.63602 0
M  V30 1865 N 180.328 1.1314 -1.09713 0
M  V30 1866 C 181.556 1.88321 -0.856898 0
M  V30 1867 C 181.971 1.79276 0.592073 0
M  V30 1868 O 181.328 1.16142 1.40774 0
M  V30 1869 C 181.379 3.37812 -1.28706 0
M  V30 1870 O 181.1 3.46627 -2.67921 0
M  V30 1871 C 182.601 4.29952 -1.07964 0
M  V30 1872 H 179.821 0.596094 -0.308079 0
M  V30 1873 H 182.365 1.43205 -1.45988 0
M  V30 1874 H 180.52 3.805 -0.727912 0
M  V30 1875 H 180.934 4.39579 -2.8613 0
M  V30 1876 H 182.408 5.33159 -1.42986 0
M  V30 1877 H 182.885 4.39196 -0.0176577 0
M  V30 1878 H 183.491 3.93036 -1.62489 0
M  V30 1879 N 181.806 0.884767 1.30421 0
M  V30 1880 C 183.036 0.517293 2.00019 0
M  V30 1881 C 183.444 -0.898632 1.66497 0
M  V30 1882 O 182.787 -1.60245 0.898181 0
M  V30 1883 C 182.849 0.612025 3.54252 0
M  V30 1884 C 182.513 1.99222 4.1129 0
M  V30 1885 C 183.51 2.9616 4.273 0
M  V30 1886 C 181.195 2.29755 4.46674 0
M  V30 1887 C 183.189 4.21764 4.77906 0
M  V30 1888 C 180.876 3.55606 4.96979 0
M  V30 1889 C 181.874 4.51425 5.12547 0
M  V30 1890 O 181.562 5.75043 5.61766 0
M  V30 1891 H 181.294 0.198529 0.64619 0
M  V30 1892 H 183.848 1.1919 1.67281 0
M  V30 1893 H 182.078 -0.119561 3.86515 0
M  V30 1894 H 183.767 0.255859 4.05093 0
M  V30 1895 H 184.533 2.73882 4.00267 0
M  V30 1896 H 180.412 1.55942 4.33824 0
M  V30 1897 H 183.956 4.96561 4.89972 0
M  V30 1898 H 179.853 3.7772 5.23448 0
M  V30 1899 H 180.621 5.77422 5.80109 0
M  V30 1900 N 183.284 -1.43765 0.645699 0
M  V30 1901 C 184.533 -2.01116 0.153412 0
M  V30 1902 C 184.846 -1.51493 -1.23731 0
M  V30 1903 O 186.052 -2.01067 -1.8244 0
M  V30 1904 C 184.508 -3.59206 0.223473 0
M  V30 1905 C 184.116 -4.17823 1.61642 0
M  V30 1906 C 185.86 -4.23972 -0.211597 0
M  V30 1907 C 183.767 -5.68183 1.64081 0
M  V30 1908 H 182.697 -0.752093 0.0535891 0
M  V30 1909 H 185.348 -1.6482 0.806633 0
M  V30 1910 H 183.73 -3.92867 -0.497118 0
M  V30 1911 H 184.904 -3.95674 2.36176 0
M  V30 1912 H 183.219 -3.65399 1.99681 0
M  V30 1913 H 185.816 -5.34275 -0.213112 0
M  V30 1914 H 186.159 -3.97352 -1.24165 0
M  V30 1915 H 186.692 -3.95166 0.456988 0
M  V30 1916 H 183.431 -5.99559 2.64971 0
M  V30 1917 H 182.951 -5.9241 0.938611 0
M  V30 1918 H 184.63 -6.32085 1.3812 0
M  V30 1919 N 184.763 -0.387143 -1.52771 0
M  V30 1920 C 186.009 0.196025 -2.0185 0
M  V30 1921 C 186.342 1.46641 -1.27319 0
M  V30 1922 O 185.617 1.90889 -0.373032 0
M  V30 1923 C 185.9 0.466136 -3.5707 0
M  V30 1924 C 185.753 -0.819385 -4.42274 0
M  V30 1925 C 187.072 1.25768 -4.21747 0
M  V30 1926 H 184.191 0.0697708 -0.73369 0
M  V30 1927 H 186.833 -0.516286 -1.82851 0
M  V30 1928 H 184.983 1.07293 -3.7339 0
M  V30 1929 H 186.655 -1.4563 -4.37709 0
M  V30 1930 H 184.898 -1.43517 -4.09372 0
M  V30 1931 H 185.569 -0.585065 -5.48891 0
M  V30 1932 H 188.045 0.744167 -4.09391 0
M  V30 1933 H 186.921 1.41541 -5.30337 0
M  V30 1934 H 187.182 2.27228 -3.79236 0
M  V30 1935 N 186.241 1.57166 -0.116904 0
M  V30 1936 C 187.174 2.10912 0.871291 0
M  V30 1937 C 188.152 1.025 1.26224 0
M  V30 1938 O 189.336 1.3014 1.36366 0
M  V30 1939 C 186.463 2.6041 2.16574 0
M  V30 1940 C 185.509 3.80687 1.92302 0
M  V30 1941 S 186.342 5.23199 1.14119 0
M  V30 1942 C 187.498 5.76064 2.44748 0
M  V30 1943 H 187.731 2.94401 0.414138 0
M  V30 1944 H 185.264 1.54096 0.096829 0
M  V30 1945 H 187.222 2.89583 2.9095 0
M  V30 1946 H 185.883 1.77106 2.59408 0
M  V30 1947 H 185.076 4.13462 2.8821 0
M  V30 1948 H 184.678 3.5212 1.26047 0
M  V30 1949 H 186.97 5.8566 3.406 0
M  V30 1950 H 187.913 6.74184 2.16521 0
M  V30 1951 H 188.321 5.04117 2.54019 0
M  V30 1952 N 187.719 -0.156864 1.56817 0
M  V30 1953 C 188.947 -0.886316 1.86955 0
M  V30 1954 C 189.362 -1.75185 0.703975 0
M  V30 1955 O 188.719 -1.79555 -0.326552 0
M  V30 1956 C 188.77 -1.75117 3.16253 0
M  V30 1957 O 188.491 -0.920537 4.2832 0
M  V30 1958 C 189.992 -2.58905 3.59837 0
M  V30 1959 H 187.212 -0.25678 0.619923 0
M  V30 1960 H 189.756 -0.152615 2.0393 0
M  V30 1961 H 187.911 -2.43805 3.01062 0
M  V30 1962 H 188.325 -1.51337 5.02192 0
M  V30 1963 H 189.799 -3.1518 4.53172 0
M  V30 1964 H 190.276 -3.34472 2.84649 0
M  V30 1965 H 190.882 -1.95526 3.7769 0
M  V30 1966 N 189.197 -1.51736 -0.425897 0
M  V30 1967 C 190.443 -1.65214 -1.1761 0
M  V30 1968 C 190.776 -0.372778 -1.90589 0
M  V30 1969 O 190.051 0.628139 -1.84078 0
M  V30 1970 C 190.334 -2.86312 -2.18398 0
M  V30 1971 C 190.187 -4.24254 -1.49426 0
M  V30 1972 C 191.506 -3.02925 -3.19256 0
M  V30 1973 H 188.625 -0.601263 -0.426206 0
M  V30 1974 H 191.267 -1.8425 -0.463882 0
M  V30 1975 H 189.417 -2.70213 -2.79137 0
M  V30 1976 H 191.089 -4.52046 -0.919362 0
M  V30 1977 H 189.332 -4.26426 -0.796432 0
M  V30 1978 H 190.003 -5.05001 -2.22885 0
M  V30 1979 H 192.479 -3.1781 -2.68581 0
M  V30 1980 H 191.355 -3.89199 -3.8706 0
M  V30 1981 H 191.616 -2.15497 -3.86023 0
M  V30 1982 N 190.675 0.682077 -1.42076 0
M  V30 1983 C 191.607 1.80755 -1.40926 0
M  V30 1984 C 192.62 1.59833 -0.309398 0
M  V30 1985 O 193.809 1.69087 -0.572014 0
M  V30 1986 C 190.909 3.17744 -1.17865 0
M  V30 1987 C 190.082 3.65578 -2.40149 0
M  V30 1988 C 189.141 4.81277 -2.12742 0
M  V30 1989 O 188.167 4.92197 -2.85887 0
M  V30 1990 N 189.369 5.69474 -1.12602 0
M  V30 1991 H 192.134 1.82229 -2.37935 0
M  V30 1992 H 189.695 0.864903 -1.36861 0
M  V30 1993 H 191.687 3.9279 -0.9746 0
M  V30 1994 H 190.257 3.11214 -0.294068 0
M  V30 1995 H 189.477 2.81291 -2.76169 0
M  V30 1996 H 190.765 3.94278 -3.21593 0
M  V30 1997 H 190.163 5.63297 -0.520899 0
M  V30 1998 H 188.72 6.44363 -0.981842 0
M  V30 1999 N 192.153 1.28127 0.917671 0
M  V30 2000 C 193.063 1.13556 2.05286 0
M  V30 2001 C 194.079 0.0630914 1.73886 0
M  V30 2002 O 195.255 0.271598 1.9956 0
M  V30 2003 C 192.32 0.794676 3.3747 0
M  V30 2004 C 191.381 1.94909 3.82504 0
M  V30 2005 C 190.614 1.62437 5.0838 0
M  V30 2006 O 190.837 0.536905 5.67867 0
M  V30 2007 O 189.771 2.46677 5.4903 0
M  V30 2008 H 193.597 2.08844 2.20495 0
M  V30 2009 H 191.182 1.07409 1.03845 0
M  V30 2010 H 193.064 0.618344 4.16839 0
M  V30 2011 H 191.739 -0.128581 3.23445 0
M  V30 2012 H 190.646 2.18055 3.03978 0
M  V30 2013 H 191.979 2.85291 4.01086 0
M  V30 2014 N 193.631 -1.12557 1.10312 0
M  V30 2015 C 194.561 -2.20341 0.772798 0
M  V30 2016 C 195.542 -1.68198 -0.25365 0
M  V30 2017 O 196.727 -1.93831 -0.119699 0
M  V30 2018 C 193.857 -3.46709 0.202443 0
M  V30 2019 C 192.811 -4.11996 1.15943 0
M  V30 2020 C 192.137 -5.328 0.450345 0
M  V30 2021 C 193.437 -4.5828 2.50552 0
M  V30 2022 H 195.131 -2.48229 1.674 0
M  V30 2023 H 192.677 -1.19308 0.806326 0
M  V30 2024 H 194.63 -4.2138 -0.0407752 0
M  V30 2025 H 193.354 -3.18245 -0.734001 0
M  V30 2026 H 192.013 -3.39305 1.38808 0
M  V30 2027 H 191.661 -5.00602 -0.490531 0
M  V30 2028 H 191.361 -5.7743 1.08851 0
M  V30 2029 H 192.885 -6.10219 0.215642 0
M  V30 2030 H 194.299 -5.2433 2.31843 0
M  V30 2031 H 192.696 -5.13683 3.10242 0
M  V30 2032 H 193.766 -3.72329 3.10643 0
M  V30 2033 N 195.109 -0.891671 -1.2995 0
M  V30 2034 C 196.039 -0.379797 -2.30391 0
M  V30 2035 C 197.02 0.540919 -1.6127 0
M  V30 2036 O 198.205 0.453352 -1.88834 0
M  V30 2037 C 195.335 0.400654 -3.44981 0
M  V30 2038 C 194.289 -0.428905 -4.25846 0
M  V30 2039 C 193.615 0.478557 -5.32554 0
M  V30 2040 C 194.915 -1.67458 -4.94727 0
M  V30 2041 H 196.609 -1.21914 -2.73454 0
M  V30 2042 H 194.155 -0.587675 -1.31462 0
M  V30 2043 H 196.108 0.769434 -4.14316 0
M  V30 2044 H 194.832 1.27371 -3.0074 0
M  V30 2045 H 193.491 -0.779911 -3.58208 0
M  V30 2046 H 193.139 1.34951 -4.84559 0
M  V30 2047 H 192.839 -0.0727433 -5.87555 0
M  V30 2048 H 194.363 0.843705 -6.04743 0
M  V30 2049 H 195.777 -1.376 -5.56542 0
M  V30 2050 H 194.174 -2.16659 -5.59624 0
M  V30 2051 H 195.244 -2.41518 -4.20473 0
M  V30 2052 N 196.587 1.43421 -0.653314 0
M  V30 2053 C 197.998 1.85065 -0.246537 0
M  V30 2054 C 198.349 1.54688 1.2069 0
M  V30 2055 O 197.474 0.995896 1.92122 0
M  V30 2056 C 198.069 3.35922 -0.440666 0
M  V30 2057 C 196.628 3.76297 -0.0882064 0
M  V30 2058 C 195.775 2.67147 -0.743484 0
M  V30 2059 H 198.726 1.33572 -0.856979 0
M  V30 2060 H 198.747 3.79204 0.313798 0
M  V30 2061 H 198.259 3.58 -1.49858 0
M  V30 2062 H 196.36 3.5983 0.96711 0
M  V30 2063 H 196.473 4.76338 -0.513738 0
M  V30 2064 H 194.837 2.54086 -0.176712 0
M  V30 2065 H 195.62 2.92053 -1.80443 0
M  V30 2066 N 198.065 0.39524 1.52563 0
M  V30 2067 C 199.29 -0.187456 2.06551 0
M  V30 2068 C 199.715 -1.39249 1.26457 0
M  V30 2069 O 199.073 -1.78947 0.291151 0
M  V30 2070 C 199.121 -0.529985 3.56684 0
M  V30 2071 O 198.225 -1.62307 3.79118 0
M  V30 2072 H 197.566 -0.0202537 0.663691 0
M  V30 2073 H 200.096 0.564426 1.96661 0
M  V30 2074 H 200.106 -0.792598 4.00227 0
M  V30 2075 H 198.781 0.350987 4.14416 0
M  V30 2076 H 197.358 -1.3537 3.47461 0
M  V30 2077 N 199.544 -1.57102 0.125237 0
M  V30 2078 C 200.769 -2.0019 -0.542101 0
M  V30 2079 C 201.194 -1.00449 -1.59034 0
M  V30 2080 O 200.552 0.0229423 -1.81285 0
M  V30 2081 C 200.6 -3.42129 -1.13929 0
M  V30 2082 O 199.704 -3.45307 -2.2547 0
M  V30 2083 H 199.045 -0.650171 -0.134812 0
M  V30 2084 H 201.575 -2.03461 0.215553 0
M  V30 2085 H 201.585 -3.80471 -1.4733 0
M  V30 2086 H 200.26 -4.14237 -0.371531 0
M  V30 2087 H 198.837 -3.1879 -1.93462 0
M  V30 2088 N 201.022 0.148545 -1.56898 0
M  V30 2089 C 202.269 0.861418 -1.83264 0
M  V30 2090 C 202.597 1.81239 -0.705883 0
M  V30 2091 O 201.852 1.93305 0.305212 0
M  V30 2092 C 202.151 1.67064 -3.1595 0
M  V30 2093 C 201.817 0.866591 -4.42494 0
M  V30 2094 C 200.479 0.644762 -4.76861 0
M  V30 2095 C 202.831 0.30418 -5.20312 0
M  V30 2096 C 200.159 -0.15021 -5.86508 0
M  V30 2097 C 202.511 -0.477824 -6.30793 0
M  V30 2098 C 201.175 -0.710244 -6.63711 0
M  V30 2099 H 200.445 0.315215 -0.670612 0
M  V30 2100 H 203.092 0.125142 -1.91091 0
M  V30 2101 H 201.397 2.47698 -3.03567 0
M  V30 2102 H 203.094 2.22566 -3.33565 0
M  V30 2103 H 199.684 1.04955 -4.15551 0
M  V30 2104 H 203.868 0.462844 -4.94137 0
M  V30 2105 H 199.124 -0.339796 -6.10455 0
M  V30 2106 H 203.298 -0.92076 -6.90286 0
M  V30 2107 H 200.925 -1.3281 -7.48509 0
M  V30 2108 N 202.5 1.5196 0.417844 0
M  V30 2109 C 203.748 1.65263 1.16329 0
M  V30 2110 C 204.069 0.380634 1.91249 0
M  V30 2111 O 203.339 -0.604214 1.86349 0
M  V30 2112 H 201.919 0.60912 0.432414 0
M  V30 2113 H 204.581 1.88969 0.477162 0
M  V30 2114 H 203.677 2.4896 1.88217 0
M  V30 2115 N 203.978 -0.674533 1.42435 0
M  V30 2116 C 205.389 -1.25514 1.38214 0
M  V30 2117 C 205.74 -1.96055 0.0755464 0
M  V30 2118 O 204.865 -2.00028 -0.8257 0
M  V30 2119 C 205.46 -2.28269 2.50357 0
M  V30 2120 C 204.019 -2.81856 2.49467 0
M  V30 2121 C 203.166 -1.56182 2.29134 0
M  V30 2122 H 206.117 -0.467902 1.51646 0
M  V30 2123 H 206.138 -3.10009 2.20624 0
M  V30 2124 H 205.65 -1.769 3.45439 0
M  V30 2125 H 203.751 -3.37346 1.58204 0
M  V30 2126 H 203.864 -3.30854 3.46515 0
M  V30 2127 H 202.228 -1.82761 1.774 0
M  V30 2128 H 203.011 -1.06778 3.26272 0
M  V30 2129 N 205.456 -1.28612 -0.910864 0
M  V30 2130 C 206.366 -1.14643 -2.0468 0
M  V30 2131 C 207.382 -0.0723121 -1.7385 0
M  V30 2132 O 208.558 -0.282178 -1.99413 0
M  V30 2133 C 205.623 -0.812561 -3.37044 0
M  V30 2134 C 204.684 -1.96935 -3.81465 0
M  V30 2135 C 203.917 -1.65131 -5.07511 0
M  V30 2136 O 204.14 -0.567013 -5.67575 0
M  V30 2137 O 203.074 -2.49585 -5.47714 0
M  V30 2138 H 206.9 -2.1001 -2.19384 0
M  V30 2139 H 204.485 -1.07958 -1.03274 0
M  V30 2140 H 206.367 -0.640441 -4.16505 0
M  V30 2141 H 205.042 0.111426 -3.23508 0
M  V30 2142 H 203.949 -2.19664 -3.02818 0
M  V30 2143 H 205.282 -2.87414 -3.99567 0
M  V30 2144 N 206.934 1.1197 -1.10907 0
M  V30 2145 C 208.211 1.79959 -0.766432 0
M  V30 2146 C 208.591 1.97466 0.746363 0
M  V30 2147 O 207.939 1.55491 1.67436 0
M  V30 2148 C 208.149 3.14009 -1.52314 0
M  V30 2149 C 209.497 3.89134 -1.69883 0
M  V30 2150 O 210.521 3.2368 -1.48692 0
M  V30 2151 O 209.38 5.06572 -2.05054 0
M  V30 2152 H 206.474 0.779208 -0.277062 0
M  V30 2153 H 209.02 1.18762 -1.21217 0
M  V30 2154 H 207.792 2.96587 -2.55249 0
M  V30 2155 H 207.415 3.82915 -1.07059 0
M  V30 2156 N 208.412 0.89855 1.29475 0
M  V30 2157 C 209.342 0.39201 2.30186 0
M  V30 2158 C 210.323 -0.532359 1.61555 0
M  V30 2159 O 211.508 -0.443331 1.89072 0
M  V30 2160 C 208.638 -0.382353 3.45189 0
M  V30 2161 C 207.592 0.451483 4.25612 0
M  V30 2162 C 206.918 -0.450307 5.328 0
M  V30 2163 C 208.218 1.70079 4.93832 0
M  V30 2164 H 209.912 1.23362 2.72804 0
M  V30 2165 H 207.458 0.594638 1.31149 0
M  V30 2166 H 209.411 -0.747451 4.14718 0
M  V30 2167 H 208.135 -1.25774 3.01411 0
M  V30 2168 H 206.794 0.798897 3.57789 0
M  V30 2169 H 206.442 -1.32379 4.85268 0
M  V30 2170 H 206.142 0.103902 5.87508 0
M  V30 2171 H 207.666 -0.811623 6.05182 0
M  V30 2172 H 209.08 1.40549 5.55805 0
M  V30 2173 H 207.477 2.19623 5.58467 0
M  V30 2174 H 208.547 2.43744 4.19186 0
M  V30 2175 N 209.89 -1.43072 0.660911 0
M  V30 2176 C 210.822 -2.29108 -0.0647641 0
M  V30 2177 C 211.835 -1.42928 -0.779448 0
M  V30 2178 O 213.024 -1.66788 -0.635921 0
M  V30 2179 C 210.124 -3.20032 -1.11503 0
M  V30 2180 C 209.297 -4.34792 -0.476955 0
M  V30 2181 C 208.356 -5.06534 -1.42513 0
M  V30 2182 O 207.382 -5.61538 -0.930771 0
M  V30 2183 N 208.584 -5.1075 -2.75889 0
M  V30 2184 H 211.349 -2.92029 0.673731 0
M  V30 2185 H 208.91 -1.53846 0.50427 0
M  V30 2186 H 210.902 -3.64892 -1.75032 0
M  V30 2187 H 209.472 -2.58658 -1.75541 0
M  V30 2188 H 208.692 -3.92752 0.337572 0
M  V30 2189 H 209.98 -5.0879 -0.0318525 0
M  V30 2190 H 209.378 -4.67447 -3.18606 0
M  V30 2191 H 207.935 -5.59302 -3.347 0
M  V30 2192 N 211.368 -0.403325 -1.52352 0
M  V30 2193 C 212.315 0.425011 -2.26853 0
M  V30 2194 C 213.285 1.04598 -1.29029 0
M  V30 2195 O 214.47 1.07135 -1.57882 0
M  V30 2196 C 211.61 1.53888 -3.08889 0
M  V30 2197 C 210.723 0.939396 -4.21663 0
M  V30 2198 C 209.858 2.02547 -4.91068 0
M  V30 2199 C 208.897 1.40263 -5.95813 0
M  V30 2200 N 208.034 2.4286 -6.58759 0
M  V30 2201 H 212.874 -0.21674 -2.97211 0
M  V30 2202 H 210.411 -0.118722 -1.4662 0
M  V30 2203 H 212.369 2.19558 -3.54753 0
M  V30 2204 H 210.999 2.15074 -2.40714 0
M  V30 2205 H 210.051 0.171898 -3.80011 0
M  V30 2206 H 211.363 0.44436 -4.96817 0
M  V30 2207 H 210.517 2.75958 -5.40308 0
M  V30 2208 H 209.256 2.55415 -4.15469 0
M  V30 2209 H 208.261 0.653833 -5.45898 0
M  V30 2210 H 209.486 0.881719 -6.73352 0
M  V30 2211 H 207.432 2.94871 -5.85992 0
M  V30 2212 H 207.349 1.98152 -7.2957 0
M  V30 2213 H 208.617 3.15858 -7.12639 0
M  V30 2214 N 212.846 1.57033 -0.133567 0
M  V30 2215 C 214.074 2.00044 0.528195 0
M  V30 2216 C 214.489 1.01349 1.59291 0
M  V30 2217 O 213.846 0.00848369 1.82498 0
M  V30 2218 C 213.897 3.43018 1.1411 0
M  V30 2219 O 213.618 4.37939 0.11892 0
M  V30 2220 C 215.119 4.01237 1.88477 0
M  V30 2221 H 212.339 0.656517 0.138661 0
M  V30 2222 H 214.883 2.03267 -0.224196 0
M  V30 2223 H 213.038 3.40688 1.84418 0
M  V30 2224 H 213.452 5.21436 0.56613 0
M  V30 2225 H 214.926 5.03314 2.26669 0
M  V30 2226 H 215.403 3.41193 2.76558 0
M  V30 2227 H 216.009 4.07156 1.22898 0
M  V30 2228 N 214.325 -0.140222 1.56975 0
M  V30 2229 C 215.257 -1.19818 1.95388 0
M  V30 2230 C 216.27 -1.38816 0.850525 0
M  V30 2231 O 217.459 -1.38267 1.12891 0
M  V30 2232 C 214.559 -2.56189 2.21857 0
M  V30 2233 C 213.732 -2.58077 3.5315 0
M  V30 2234 C 212.791 -3.76037 3.6808 0
M  V30 2235 O 211.817 -3.60598 4.40406 0
M  V30 2236 N 213.019 -4.93763 3.05251 0
M  V30 2237 H 215.784 -0.871609 2.86746 0
M  V30 2238 H 213.345 -0.32972 1.58507 0
M  V30 2239 H 215.337 -3.33623 2.2908 0
M  V30 2240 H 213.907 -2.81111 1.36731 0
M  V30 2241 H 213.127 -1.6651 3.57307 0
M  V30 2242 H 214.415 -2.56377 4.39486 0
M  V30 2243 H 213.813 -5.09209 2.46419 0
M  V30 2244 H 212.37 -5.68949 3.18026 0
M  V30 2245 O 215.842 -1.58968 -0.284834 0
M  V30 2246 H 216.533 -1.69867 -0.930848 0
M  V30 END ATOM
M  V30 BEGIN BOND
M  V30 END BOND
M  V30 END CTAB
M  END
$$$$
