drugbank_target|P32396 Ferrochelatase (DB01911; DB02188)
 OpenBabel12092119523D

  0  0  0     0  0            999 V3000
M  V30 BEGIN CTAB
M  V30 COUNTS 4908 4970 0 0 0
M  V30 BEGIN ATOM
M  V30 1 H -0.908 1.98254 -0.117106 0
M  V30 2 N 0 1.576 0 0
M  V30 3 C 0.933 2.03868 1.02534 0
M  V30 4 C 1.911 0.928543 1.3348 0
M  V30 5 O 3.095 1.19667 1.45644 0
M  V30 6 C 0.222 2.43627 2.35294 0
M  V30 7 C -0.732 3.65373 2.2001 0
M  V30 8 S 0.101 5.13292 1.52614 0
M  V30 9 C 1.257 5.56322 2.86805 0
M  V30 10 H 1.49 2.90518 0.631377 0
M  V30 11 H -0.977 1.52953 0.210867 0
M  V30 12 H 0.981 2.67203 3.11629 0
M  V30 13 H -0.358 1.57376 2.7183 0
M  V30 14 H -1.165 3.90944 3.18086 0
M  V30 15 H -1.563 3.418 1.51819 0
M  V30 16 H 0.729 5.58782 3.83104 0
M  V30 17 H 1.672 6.56266 2.65933 0
M  V30 18 H 2.08 4.83886 2.90714 0
M  V30 19 N 1.4781 -0.272755 1.55222 0
M  V30 20 C 2.7031 -1.02683 1.80197 0
M  V30 21 C 3.1281 -1.79142 0.573551 0
M  V30 22 O 2.4861 -1.74917 -0.476849 0
M  V30 23 C 2.5341 -1.9609 3.02624 0
M  V30 24 O 1.6381 -3.04863 2.77727 0
M  V30 25 H 0.9791 -0.293557 0.595584 0
M  V30 26 H 3.5091 -0.30159 2.02365 0
M  V30 27 H 3.5191 -2.38039 3.31363 0
M  V30 28 H 2.1941 -1.39851 3.91682 0
M  V30 29 H 0.7711 -2.67228 2.60084 0
M  V30 30 N 2.9562 -1.48159 -0.537278 0
M  V30 31 C 4.3722 -1.34118 -0.865129 0
M  V30 32 C 4.5722 -0.346678 -1.98495 0
M  V30 33 O 3.6282 0.234715 -2.51407 0
M  V30 34 C 4.9412 -2.73963 -1.23954 0
M  V30 35 C 6.4892 -2.82397 -1.34984 0
M  V30 36 C 6.9642 -4.22928 -1.75772 0
M  V30 37 N 8.4552 -4.25566 -1.82887 0
M  V30 38 C 9.1902 -5.31235 -2.15817 0
M  V30 39 N 8.6862 -6.47189 -2.47222 0
M  V30 40 N 10.4792 -5.18624 -2.16761 0
M  V30 41 H 2.6302 -2.1144 0.201715 0
M  V30 42 H 4.8932 -0.947598 0.0275949 0
M  V30 43 H 4.5992 -3.48264 -0.490381 0
M  V30 44 H 4.4732 -3.0702 -2.19132 0
M  V30 45 H 6.8602 -2.08356 -2.08978 0
M  V30 46 H 6.9412 -2.5297 -0.379448 0
M  V30 47 H 6.5852 -4.97482 -1.02341 0
M  V30 48 H 6.5152 -4.49794 -2.73848 0
M  V30 49 H 9.0062 -3.41924 -1.60924 0
M  V30 50 H 9.3192 -7.23564 -2.71433 0
M  V30 51 H 7.6642 -6.50476 -2.44757 0
M  V30 52 H 10.8552 -4.27056 -1.91679 0
M  V30 53 H 11.0282 -6.01078 -2.42093 0
M  V30 54 N 4.4343 0.785586 -1.36625 0
M  V30 55 C 5.3813 1.89838 -1.31264 0
M  V30 56 C 6.3513 1.65115 -0.180633 0
M  V30 57 O 7.5363 1.87222 -0.36777 0
M  V30 58 C 4.6763 3.26706 -1.11163 0
M  V30 59 C 3.7893 3.63476 -2.33472 0
M  V30 60 C 2.9243 4.89481 -2.06353 0
M  V30 61 C 1.9633 5.18941 -3.24602 0
M  V30 62 N 1.1003 6.36131 -2.97123 0
M  V30 63 H 5.9403 1.93756 -2.26413 0
M  V30 64 H 3.4773 0.947454 -1.12524 0
M  V30 65 H 5.4353 4.05639 -0.975337 0
M  V30 66 H 4.0653 3.222 -0.196674 0
M  V30 67 H 3.1173 2.79636 -2.57891 0
M  V30 68 H 4.4293 3.81193 -3.21704 0
M  V30 69 H 3.5833 5.76288 -1.89675 0
M  V30 70 H 2.3223 4.73841 -1.15437 0
M  V30 71 H 1.3273 4.30615 -3.41834 0
M  V30 72 H 2.5523 5.36498 -4.16349 0
M  V30 73 H 0.4983 6.21875 -2.08823 0
M  V30 74 H 0.4153 6.54198 -3.78894 0
M  V30 75 H 1.6833 7.2591 -2.84033 0
M  V30 76 N 5.9124 1.20967 1.01018 0
M  V30 77 C 6.8594 0.964281 2.09691 0
M  V30 78 C 7.8294 -0.107853 1.65749 0
M  V30 79 O 9.0144 0.0381987 1.90762 0
M  V30 80 C 6.1544 0.52943 3.41015 0
M  V30 81 C 5.2674 1.67043 3.98398 0
M  V30 82 C 4.4024 1.18525 5.17808 0
M  V30 83 C 3.4414 2.29892 5.67288 0
M  V30 84 N 2.5784 1.82546 6.77954 0
M  V30 85 H 7.4184 1.89463 2.30017 0
M  V30 86 H 4.9554 0.944289 1.1279 0
M  V30 87 H 6.9134 0.258588 4.16398 0
M  V30 88 H 5.5434 -0.363919 3.20742 0
M  V30 89 H 4.5954 2.05603 3.20049 0
M  V30 90 H 5.9074 2.50877 4.31117 0
M  V30 91 H 5.0614 0.870762 6.00419 0
M  V30 92 H 3.8004 0.316887 4.86669 0
M  V30 93 H 2.8054 2.6215 4.83278 0
M  V30 94 H 4.0304 3.17216 6.00459 0
M  V30 95 H 1.9764 0.980454 6.48632 0
M  V30 96 H 1.8934 2.59956 7.09901 0
M  V30 97 H 3.1614 1.54115 7.64113 0
M  V30 98 N 7.3905 -1.2043 1.01659 0
M  V30 99 C 8.3235 -2.21924 0.531521 0
M  V30 100 C 9.3015 -1.57054 -0.421032 0
M  V30 101 O 10.4855 -1.85389 -0.341035 0
M  V30 102 C 7.6125 -3.37942 -0.226496 0
M  V30 103 C 6.6585 -4.21115 0.67561 0
M  V30 104 S 7.4915 -4.90674 2.14475 0
M  V30 105 C 8.6475 -6.10113 1.3969 0
M  V30 106 H 8.8805 -2.62725 1.3915 0
M  V30 107 H 6.4135 -1.30481 0.825479 0
M  V30 108 H 8.3715 -4.05196 -0.657738 0
M  V30 109 H 7.0325 -2.956 -1.06205 0
M  V30 110 H 6.2255 -5.03918 0.091108 0
M  V30 111 H 5.8275 -3.59115 1.04463 0
M  V30 112 H 8.1195 -6.7411 0.676897 0
M  V30 113 H 9.0625 -6.73022 2.20107 0
M  V30 114 H 9.4705 -5.57283 0.899786 0
M  V30 115 N 8.8686 -0.792821 -1.36206 0
M  V30 116 C 10.1166 -0.366062 -1.98757 0
M  V30 117 C 10.4376 1.0668 -1.63231 0
M  V30 118 O 9.7076 1.73587 -0.907978 0
M  V30 119 H 8.2876 -0.132364 -0.735179 0
M  V30 120 H 10.9496 -1.01562 -1.66347 0
M  V30 121 H 10.0456 -0.460638 -3.08682 0
M  V30 122 N 10.3467 1.47872 -0.545128 0
M  V30 123 C 11.2767 2.32661 0.197793 0
M  V30 124 C 12.2577 1.43041 0.920504 0
M  V30 125 O 13.4427 1.71912 0.90333 0
M  V30 126 C 10.5727 3.24569 1.23582 0
M  V30 127 C 9.5267 4.23333 0.630323 0
M  V30 128 C 8.8527 5.0448 1.77211 0
M  V30 129 C 10.1527 5.20704 -0.407974 0
M  V30 130 H 11.8467 2.95024 -0.510045 0
M  V30 131 H 9.3927 1.4187 -0.246731 0
M  V30 132 H 11.3457 3.8272 1.76362 0
M  V30 133 H 10.0697 2.60236 1.97344 0
M  V30 134 H 8.7287 3.6639 0.123922 0
M  V30 135 H 8.3767 4.36561 2.49847 0
M  V30 136 H 8.0767 5.71339 1.37281 0
M  V30 137 H 9.6007 5.65487 2.3034 0
M  V30 138 H 11.0147 5.7329 0.033305 0
M  V30 139 H 9.4117 5.95699 -0.725486 0
M  V30 140 H 10.4817 4.66917 -1.30828 0
M  V30 141 N 11.8248 0.280983 1.55075 0
M  V30 142 C 12.7548 -0.597469 2.25727 0
M  V30 143 C 13.7358 -1.15417 1.24952 0
M  V30 144 O 14.9208 -1.18722 1.53684 0
M  V30 145 C 12.0508 -1.7789 2.98283 0
M  V30 146 C 11.0048 -1.35347 4.06036 0
M  V30 147 C 10.3308 -2.61846 4.66198 0
M  V30 148 C 11.6308 -0.499354 5.19907 0
M  V30 149 H 13.3248 -0.00824265 2.99399 0
M  V30 150 H 10.8708 -0.0025244 1.44 0
M  V30 151 H 12.8238 -2.39937 3.46422 0
M  V30 152 H 11.5478 -2.39405 2.22155 0
M  V30 153 H 10.2068 -0.756156 3.58717 0
M  V30 154 H 9.8548 -3.21632 3.86732 0
M  V30 155 H 9.5548 -2.3409 5.38958 0
M  V30 156 H 11.0788 -3.24732 5.1709 0
M  V30 157 H 12.4928 -1.02498 5.64063 0
M  V30 158 H 10.8898 -0.316424 5.99265 0
M  V30 159 H 11.9598 0.480459 4.82514 0
M  V30 160 N 13.3029 -1.57598 0.00835791 0
M  V30 161 C 14.5489 -1.91211 -0.675732 0
M  V30 162 C 14.8819 -0.883139 -1.72958 0
M  V30 163 O 14.1569 0.097016 -1.94258 0
M  V30 164 C 14.4399 -3.35379 -1.31123 0
M  V30 165 C 14.2929 -4.48999 -0.268356 0
M  V30 166 C 15.6119 -3.7912 -2.23508 0
M  V30 167 H 12.7309 -0.695374 -0.244179 0
M  V30 168 H 15.3729 -1.89901 0.0613655 0
M  V30 169 H 13.5229 -3.36626 -1.93946 0
M  V30 170 H 15.1949 -4.59887 0.360844 0
M  V30 171 H 13.4379 -4.31873 0.408482 0
M  V30 172 H 14.1089 -5.46851 -0.752218 0
M  V30 173 H 16.5849 -3.79477 -1.70693 0
M  V30 174 H 15.4609 -4.80729 -2.64936 0
M  V30 175 H 15.7219 -3.13455 -3.11766 0
M  V30 176 N 14.781 0.264519 -1.55364 0
M  V30 177 C 15.714 1.35297 -1.83766 0
M  V30 178 C 16.692 1.47171 -0.691336 0
M  V30 179 O 17.876 1.63663 -0.935238 0
M  V30 180 C 15.003 2.72847 -2.00679 0
M  V30 181 C 14.049 2.78214 -3.23263 0
M  V30 182 S 14.882 2.36601 -4.80396 0
M  V30 183 C 16.038 3.7611 -5.00292 0
M  V30 184 H 16.271 1.11003 -2.758 0
M  V30 185 H 13.804 0.464596 -1.47244 0
M  V30 186 H 15.762 3.52057 -2.11108 0
M  V30 187 H 14.423 2.94388 -1.09518 0
M  V30 188 H 13.616 3.7919 -3.3201 0
M  V30 189 H 13.218 2.07034 -3.11469 0
M  V30 190 H 15.51 4.71457 -4.86554 0
M  V30 191 H 16.453 3.7231 -6.02321 0
M  V30 192 H 16.861 3.67806 -4.28228 0
M  V30 193 N 16.2591 1.48442 0.529413 0
M  V30 194 C 17.2221 1.62524 1.61612 0
M  V30 195 C 18.2221 0.498509 1.52877 0
M  V30 196 O 19.4121 0.76431 1.56537 0
M  V30 197 C 16.5441 1.59597 3.01233 0
M  V30 198 H 17.7371 2.59423 1.50465 0
M  V30 199 H 15.2901 1.37047 0.751514 0
M  V30 200 H 16.0251 0.641781 3.17886 0
M  V30 201 H 15.8101 2.41397 3.08982 0
M  V30 202 H 17.3001 1.72646 3.80241 0
M  V30 203 N 17.7372 -0.778329 1.37039 0
M  V30 204 C 18.9672 -1.56507 1.34868 0
M  V30 205 C 19.3752 -1.89072 -0.0694802 0
M  V30 206 O 18.7182 -1.51434 -1.03987 0
M  V30 207 C 18.7802 -2.90641 2.11585 0
M  V30 208 C 18.4442 -2.80746 3.60598 0
M  V30 209 C 19.4412 -2.52226 4.54618 0
M  V30 210 C 17.1262 -2.98974 4.03633 0
M  V30 211 C 19.1202 -2.42054 5.89651 0
M  V30 212 C 16.8072 -2.88423 5.38754 0
M  V30 213 C 17.8052 -2.60002 6.31576 0
M  V30 214 O 17.4932 -2.49465 7.64214 0
M  V30 215 H 17.2252 -0.491723 0.463879 0
M  V30 216 H 19.7792 -0.973053 1.80889 0
M  V30 217 H 18.0092 -3.51936 1.60243 0
M  V30 218 H 19.6982 -3.51992 2.0213 0
M  V30 219 H 20.4642 -2.37835 4.22681 0
M  V30 220 H 16.3432 -3.20099 3.31749 0
M  V30 221 H 19.8872 -2.19791 6.62071 0
M  V30 222 H 15.7842 -3.0238 5.70295 0
M  V30 223 H 16.5522 -2.64864 7.74461 0
M  V30 224 N 19.2153 -1.21501 -1.00376 0
M  V30 225 C 20.4633 -1.03095 -1.73827 0
M  V30 226 C 20.7843 0.436341 -1.90055 0
M  V30 227 O 20.0543 1.31466 -1.45236 0
M  V30 228 H 18.6343 -0.378487 -0.644016 0
M  V30 229 H 21.2963 -1.52831 -1.20949 0
M  V30 230 H 20.3923 -1.49991 -2.73695 0
M  V30 231 N 20.6934 1.19889 -1.02296 0
M  V30 232 C 21.9214 1.9339 -0.735399 0
M  V30 233 C 22.3364 1.75148 0.704887 0
M  V30 234 O 21.6934 1.06954 1.47875 0
M  V30 235 C 21.7444 3.45313 -1.06962 0
M  V30 236 O 21.4654 3.62964 -2.45334 0
M  V30 237 C 22.9664 4.35948 -0.804021 0
M  V30 238 H 20.1864 0.61448 -0.269546 0
M  V30 239 H 22.7304 1.522 -1.36585 0
M  V30 240 H 20.8854 3.84359 -0.484455 0
M  V30 241 H 21.2994 4.56886 -2.57595 0
M  V30 242 H 22.7734 5.41174 -1.0879 0
M  V30 243 H 23.2504 4.3842 0.261691 0
M  V30 244 H 23.8564 4.02574 -1.37164 0
M  V30 245 N 22.1715 0.800033 1.35784 0
M  V30 246 C 23.5825 0.439142 1.81462 0
M  V30 247 C 23.9335 -1.03813 1.66485 0
M  V30 248 O 23.0585 -1.80626 1.19177 0
M  V30 249 C 23.6535 0.790314 3.29453 0
M  V30 250 C 22.2125 0.482111 3.733 0
M  V30 251 C 21.3595 1.01938 2.57883 0
M  V30 252 H 24.3105 0.992254 1.23855 0
M  V30 253 H 24.3315 0.0853677 3.80404 0
M  V30 254 H 23.8435 1.86554 3.40322 0
M  V30 255 H 21.9445 -0.584652 3.67984 0
M  V30 256 H 22.0575 1.01015 4.6833 0
M  V30 257 H 20.4215 0.442043 2.50835 0
M  V30 258 H 21.2045 2.10059 2.71533 0
M  V30 259 N 23.6496 -1.47581 0.552962 0
M  V30 260 C 24.8796 -2.06575 0.0320091 0
M  V30 261 C 25.2876 -1.4067 -1.26525 0
M  V30 262 O 24.6306 -0.495808 -1.76883 0
M  V30 263 C 24.6926 -3.58705 -0.238913 0
M  V30 264 C 24.3566 -4.46625 0.968272 0
M  V30 265 C 25.3536 -4.85 1.87274 0
M  V30 266 C 23.0386 -4.88201 1.18175 0
M  V30 267 C 25.0326 -5.63745 2.9744 0
M  V30 268 C 22.7196 -5.66712 2.28651 0
M  V30 269 C 23.7176 -6.04394 3.18114 0
M  V30 270 O 23.4056 -6.81324 4.26676 0
M  V30 271 H 23.1376 -0.674763 0.0408689 0
M  V30 272 H 25.6916 -1.90634 0.764719 0
M  V30 273 H 23.9216 -3.72844 -1.02588 0
M  V30 274 H 25.6106 -3.99735 -0.704731 0
M  V30 275 H 26.3766 -4.53482 1.71984 0
M  V30 276 H 22.2556 -4.58339 0.494593 0
M  V30 277 H 25.7996 -5.93077 3.67296 0
M  V30 278 H 21.6966 -5.97642 2.43915 0
M  V30 279 H 22.4646 -6.99712 4.24671 0
M  V30 280 N 25.1277 -0.289203 -1.54924 0
M  V30 281 C 26.0747 0.592115 -2.23075 0
M  V30 282 C 27.0447 1.13881 -1.20915 0
M  V30 283 O 28.2297 1.18551 -1.495 0
M  V30 284 C 25.3697 1.76376 -2.96623 0
M  V30 285 C 24.4827 1.24959 -4.13533 0
M  V30 286 C 23.6177 2.38416 -4.74691 0
M  V30 287 C 22.6567 1.84072 -5.83767 0
M  V30 288 N 21.7937 2.91057 -6.38929 0
M  V30 289 H 26.6337 0.00432038 -2.98 0
M  V30 290 H 24.1707 -0.00963529 -1.47097 0
M  V30 291 H 26.1287 2.45268 -3.3749 0
M  V30 292 H 24.7587 2.32337 -2.24097 0
M  V30 293 H 23.8107 0.453307 -3.77689 0
M  V30 294 H 25.1227 0.811662 -4.92152 0
M  V30 295 H 24.2767 3.15276 -5.18349 0
M  V30 296 H 23.0157 2.8553 -3.95378 0
M  V30 297 H 22.0207 1.05697 -5.39545 0
M  V30 298 H 23.2457 1.37877 -6.64956 0
M  V30 299 H 21.1917 3.37526 -5.62505 0
M  V30 300 H 21.1087 2.51724 -7.12861 0
M  V30 301 H 22.3767 3.6785 -6.87246 0
M  V30 302 N 26.6058 1.57591 -0.0167156 0
M  V30 303 C 27.5158 2.1291 0.98521 0
M  V30 304 C 28.5318 1.07834 1.36557 0
M  V30 305 O 29.7078 1.39826 1.44951 0
M  V30 306 C 26.7728 2.63512 2.25305 0
M  V30 307 C 25.8338 3.83256 1.93426 0
M  V30 308 C 25.0668 4.31435 3.14165 0
M  V30 309 O 25.2898 3.78851 4.26413 0
M  V30 310 O 24.2238 5.23416 2.97186 0
M  V30 311 H 28.0498 2.98772 0.544888 0
M  V30 312 H 25.6348 1.48012 0.203141 0
M  V30 313 H 27.5168 2.96183 2.99756 0
M  V30 314 H 26.1918 1.8074 2.68542 0
M  V30 315 H 25.0988 3.55531 1.16398 0
M  V30 316 H 26.4318 4.67153 1.55013 0
M  V30 317 N 28.0839 -0.256276 1.55502 0
M  V30 318 C 28.9939 -1.33882 1.92647 0
M  V30 319 C 30.0099 -1.53159 0.825727 0
M  V30 320 O 31.1859 -1.66963 1.12629 0
M  V30 321 C 28.2509 -2.6751 2.20543 0
M  V30 322 C 27.3119 -2.56836 3.43997 0
M  V30 323 C 26.5449 -3.84092 3.70553 0
M  V30 324 O 26.7679 -4.85545 2.99336 0
M  V30 325 O 25.7019 -3.83288 4.64084 0
M  V30 326 H 29.5279 -1.05374 2.84833 0
M  V30 327 H 27.1129 -0.456237 1.42263 0
M  V30 328 H 28.9949 -3.46492 2.39835 0
M  V30 329 H 27.6699 -2.9577 1.31536 0
M  V30 330 H 26.5769 -1.76172 3.30021 0
M  V30 331 H 27.9099 -2.33523 4.33275 0
M  V30 332 N 29.562 -1.4872 -0.521534 0
M  V30 333 C 30.839 -1.4766 -1.2828 0
M  V30 334 C 31.219 -0.19292 -2.10217 0
M  V30 335 O 30.567 0.825193 -2.13079 0
M  V30 336 C 30.777 -2.74358 -2.15705 0
M  V30 337 C 32.125 -3.23028 -2.75569 0
M  V30 338 O 33.149 -2.75333 -2.25987 0
M  V30 339 O 32.008 -4.0604 -3.65778 0
M  V30 340 H 29.102 -0.590085 -0.579421 0
M  V30 341 H 31.648 -1.60963 -0.537492 0
M  V30 342 H 30.42 -3.59292 -1.54999 0
M  V30 343 H 30.043 -2.63816 -2.97467 0
M  V30 344 N 31.0401 0.771051 -1.3745 0
M  V30 345 C 32.2891 1.52491 -1.3202 0
M  V30 346 C 32.6021 1.9538 0.0927347 0
M  V30 347 O 33.8081 2.70159 0.269503 0
M  V30 348 C 32.2641 2.75366 -2.31736 0
M  V30 349 C 31.8721 2.39573 -3.78562 0
M  V30 350 C 33.6161 3.53307 -2.35318 0
M  V30 351 C 31.5231 3.58954 -4.70007 0
M  V30 352 H 30.4531 0.572506 -0.490666 0
M  V30 353 H 33.1041 0.844474 -1.62914 0
M  V30 354 H 31.4861 3.45303 -1.93861 0
M  V30 355 H 32.6601 1.77415 -4.25277 0
M  V30 356 H 30.9751 1.74805 -3.77932 0
M  V30 357 H 33.5721 4.42039 -3.00842 0
M  V30 358 H 33.9151 3.93217 -1.36698 0
M  V30 359 H 34.4481 2.90367 -2.71904 0
M  V30 360 H 31.1871 3.24125 -5.69757 0
M  V30 361 H 30.7071 4.20214 -4.27996 0
M  V30 362 H 32.3861 4.25758 -4.87175 0
M  V30 363 N 32.5182 1.22032 0.997298 0
M  V30 364 C 33.4282 1.00271 2.12092 0
M  V30 365 C 34.4442 -0.047621 1.73935 0
M  V30 366 O 35.6202 0.144136 2.00884 0
M  V30 367 C 32.6852 0.578449 3.4184 0
M  V30 368 C 31.7462 1.70189 3.94125 0
M  V30 369 C 30.9792 1.29778 5.17681 0
M  V30 370 O 31.2022 0.174676 5.70132 0
M  V30 371 O 30.1362 2.11261 5.63607 0
M  V30 372 H 33.9622 1.94398 2.3333 0
M  V30 373 H 31.5472 1.00587 1.10465 0
M  V30 374 H 33.4292 0.351998 4.19927 0
M  V30 375 H 32.1042 -0.334019 3.21972 0
M  V30 376 H 31.0112 1.98282 3.1723 0
M  V30 377 H 32.3442 2.59206 4.18417 0
M  V30 378 N 33.9963 -1.19345 1.0293 0
M  V30 379 C 35.4123 -1.41069 0.746446 0
M  V30 380 C 35.6123 -1.90078 -0.668776 0
M  V30 381 O 34.6683 -2.0778 -1.4347 0
M  V30 382 C 35.9813 -2.42141 1.78292 0
M  V30 383 C 37.5293 -2.55887 1.80252 0
M  V30 384 C 38.0043 -3.60214 2.8286 0
M  V30 385 N 39.4953 -3.67711 2.81679 0
M  V30 386 C 40.2303 -4.48128 3.57727 0
M  V30 387 N 39.7263 -5.32248 4.43491 0
M  V30 388 N 41.5193 -4.42782 3.46267 0
M  V30 389 H 33.6703 -0.858536 1.94275 0
M  V30 390 H 35.9333 -0.439541 0.839945 0
M  V30 391 H 35.6393 -2.13155 2.79746 0
M  V30 392 H 35.5133 -3.41323 1.60557 0
M  V30 393 H 37.9003 -2.84196 0.794757 0
M  V30 394 H 37.9813 -1.56858 2.02062 0
M  V30 395 H 37.6253 -3.32647 3.83807 0
M  V30 396 H 37.5553 -4.58895 2.58307 0
M  V30 397 H 40.0463 -3.07634 2.19476 0
M  V30 398 H 40.3593 -5.90729 4.98256 0
M  V30 399 H 38.7043 -5.31707 4.47564 0
M  V30 400 H 41.8953 -3.76107 2.78677 0
M  V30 401 H 42.0683 -5.05215 4.05785 0
M  V30 402 N 35.4744 -0.807222 -1.35358 0
M  V30 403 C 36.7044 -0.399796 -2.02695 0
M  V30 404 C 37.1124 0.994176 -1.60974 0
M  V30 405 O 36.4554 1.65209 -0.803226 0
M  V30 406 C 36.5174 -0.404445 -3.57218 0
M  V30 407 C 36.1814 -1.74904 -4.22206 0
M  V30 408 C 37.1784 -2.70743 -4.4384 0
M  V30 409 C 34.8634 -2.03322 -4.5931 0
M  V30 410 C 36.8574 -3.93183 -5.01683 0
M  V30 411 C 34.5444 -3.26026 -5.16866 0
M  V30 412 C 35.5424 -4.20774 -5.37994 0
M  V30 413 O 35.2304 -5.41312 -5.94337 0
M  V30 414 H 34.9624 -0.160517 -0.656666 0
M  V30 415 H 37.5164 -1.09235 -1.73945 0
M  V30 416 H 35.7464 0.344707 -3.85161 0
M  V30 417 H 37.4354 -0.0192429 -4.05895 0
M  V30 418 H 38.2014 -2.5008 -4.15554 0
M  V30 419 H 34.0804 -1.30384 -4.42178 0
M  V30 420 H 37.6244 -4.6715 -5.1809 0
M  V30 421 H 33.5214 -3.46559 -5.44579 0
M  V30 422 H 34.2894 -5.42618 -6.12787 0
M  V30 423 N 36.9525 1.47285 -0.560781 0
M  V30 424 C 38.1825 2.06555 -0.0429638 0
M  V30 425 C 38.5905 1.41339 1.25777 0
M  V30 426 O 37.9335 0.505182 1.76617 0
M  V30 427 C 37.9955 3.58827 0.219887 0
M  V30 428 C 37.6595 4.46105 -0.991944 0
M  V30 429 C 38.6565 4.84 -1.89843 0
M  V30 430 C 36.3415 4.87567 -1.20762 0
M  V30 431 C 38.3355 5.6216 -3.00425 0
M  V30 432 C 36.0225 5.65491 -2.31653 0
M  V30 433 C 37.0205 6.02699 -3.21315 0
M  V30 434 O 36.7085 6.79052 -4.30283 0
M  V30 435 H 36.4405 0.674537 -0.0444468 0
M  V30 436 H 38.9945 1.90225 -0.774818 0
M  V30 437 H 37.2245 3.73383 1.00609 0
M  V30 438 H 38.9135 4.00103 0.683522 0
M  V30 439 H 39.6795 4.52564 -1.74387 0
M  V30 440 H 35.5585 4.5807 -0.518893 0
M  V30 441 H 39.1025 5.9112 -3.70436 0
M  V30 442 H 34.9995 5.9634 -2.47081 0
M  V30 443 H 35.7675 6.9745 -4.28376 0
M  V30 444 N 38.4306 0.297415 1.54768 0
M  V30 445 C 39.6586 -0.315623 2.04478 0
M  V30 446 C 40.0736 -1.47792 1.17486 0
M  V30 447 O 39.4306 -1.81404 0.19971 0
M  V30 448 C 39.4816 -0.7753 3.53088 0
M  V30 449 O 39.2026 0.340732 4.36773 0
M  V30 450 C 40.7036 -1.45386 4.18781 0
M  V30 451 H 37.9236 -0.0690887 0.667434 0
M  V30 452 H 40.4676 0.436003 1.99798 0
M  V30 453 H 38.6226 -1.47696 3.58141 0
M  V30 454 H 39.0366 -0.0165035 5.24497 0
M  V30 455 H 40.5106 -1.72669 5.24299 0
M  V30 456 H 40.9876 -2.39275 3.68299 0
M  V30 457 H 41.5936 -0.795475 4.17795 0
M  V30 458 N 39.9087 -1.5758 0.0250728 0
M  V30 459 C 40.8587 -2.06468 -0.967201 0
M  V30 460 C 41.8427 -0.964376 -1.28797 0
M  V30 461 O 43.0347 -1.22797 -1.27475 0
M  V30 462 C 40.1637 -2.59203 -2.25097 0
M  V30 463 C 39.2497 -3.76157 -1.95874 0
M  V30 464 N 39.6407 -4.86919 -1.36905 0
M  V30 465 C 37.9387 -3.84566 -2.25887 0
M  V30 466 C 38.6397 -5.68172 -1.24724 0
M  V30 467 N 37.6157 -5.14953 -1.74138 0
M  V30 468 H 41.4177 -2.89508 -0.506176 0
M  V30 469 H 38.9317 -1.61399 -0.18004 0
M  V30 470 H 40.9287 -2.92517 -2.97052 0
M  V30 471 H 39.5887 -1.77592 -2.71829 0
M  V30 472 H 40.5997 -5.07256 -1.04459 0
M  V30 473 H 37.2767 -3.13854 -2.75321 0
M  V30 474 H 38.6667 -6.67221 -0.791605 0
M  V30 475 N 41.3868 0.248026 -1.55636 0
M  V30 476 C 42.6358 0.974134 -1.76617 0
M  V30 477 C 42.9488 1.86528 -0.588796 0
M  V30 478 O 44.1548 2.62805 -0.681594 0
M  V30 479 C 42.6108 1.78213 -3.12679 0
M  V30 480 C 42.2188 0.93843 -4.38061 0
M  V30 481 C 43.9628 2.50104 -3.42999 0
M  V30 482 C 41.8698 1.74225 -5.65155 0
M  V30 483 H 40.7998 0.36745 -0.658405 0
M  V30 484 H 43.4508 0.22884 -1.82067 0
M  V30 485 H 41.8328 2.56933 -3.01333 0
M  V30 486 H 43.0068 0.193635 -4.60393 0
M  V30 487 H 41.3218 0.332905 -4.15067 0
M  V30 488 H 43.9188 3.10694 -4.3517 0
M  V30 489 H 44.2618 3.21662 -2.64271 0
M  V30 490 H 44.7948 1.78395 -3.55556 0
M  V30 491 H 41.5338 1.07043 -6.46701 0
M  V30 492 H 41.0538 2.46235 -5.46926 0
M  V30 493 H 42.7328 2.30967 -6.0437 0
M  V30 494 N 42.8649 1.48995 0.513639 0
M  V30 495 C 44.2809 1.35478 0.843682 0
M  V30 496 C 44.4809 0.378213 1.97919 0
M  V30 497 O 43.5369 -0.194689 2.51748 0
M  V30 498 C 44.8499 2.75901 1.1958 0
M  V30 499 C 46.3979 2.84509 1.30474 0
M  V30 500 C 46.8729 4.25671 1.69021 0
M  V30 501 N 48.3639 4.28422 1.76094 0
M  V30 502 C 49.0989 5.34601 2.07338 0
M  V30 503 N 48.5949 6.5104 2.36894 0
M  V30 504 N 50.3879 5.22007 2.08483 0
M  V30 505 H 42.5389 2.11092 -0.235328 0
M  V30 506 H 44.8019 0.947039 -0.0426669 0
M  V30 507 H 44.5079 3.49001 0.434913 0
M  V30 508 H 44.3819 3.10467 2.1422 0
M  V30 509 H 46.7689 2.11655 2.05637 0
M  V30 510 H 46.8499 2.53542 0.339155 0
M  V30 511 H 46.4939 4.99048 0.944135 0
M  V30 512 H 46.4239 4.54094 2.66658 0
M  V30 513 H 48.9149 3.44441 1.55464 0
M  V30 514 H 49.2279 7.2779 2.59887 0
M  V30 515 H 47.5729 6.54287 2.34378 0
M  V30 516 H 50.7639 4.30051 1.84861 0
M  V30 517 H 50.9369 6.04854 2.325 0
M  V30 518 N 44.343 -0.763751 1.37857 0
M  V30 519 C 45.759 -1.06542 1.18832 0
M  V30 520 C 45.959 -2.01478 0.0299722 0
M  V30 521 O 45.015 -2.4458 -0.627447 0
M  V30 522 C 46.328 -1.65525 2.51042 0
M  V30 523 C 47.876 -1.77745 2.57635 0
M  V30 524 C 48.351 -2.4014 3.89996 0
M  V30 525 N 49.842 -2.47582 3.91481 0
M  V30 526 C 50.577 -2.96732 4.9065 0
M  V30 527 N 50.073 -3.45993 6.00217 0
M  V30 528 N 51.866 -2.95679 4.78048 0
M  V30 529 H 44.017 -0.133556 2.1198 0
M  V30 530 H 46.28 -0.121879 0.940133 0
M  V30 531 H 45.986 -1.03236 3.36207 0
M  V30 532 H 45.86 -2.64719 2.68707 0
M  V30 533 H 48.247 -2.39164 1.72872 0
M  V30 534 H 48.328 -0.772836 2.43846 0
M  V30 535 H 47.972 -1.79358 4.75177 0
M  V30 536 H 47.902 -3.41223 4.01092 0
M  V30 537 H 50.393 -2.1273 3.12337 0
M  V30 538 H 50.706 -3.81922 6.7183 0
M  V30 539 H 49.051 -3.44077 6.03851 0
M  V30 540 H 52.242 -2.56499 3.91568 0
M  V30 541 H 52.415 -3.33672 5.55488 0
M  V30 542 N 45.8211 -1.22559 -0.990812 0
M  V30 543 C 47.0691 -1.04933 -1.72724 0
M  V30 544 C 47.3901 0.416158 -1.90508 0
M  V30 545 O 46.6601 1.29918 -1.46622 0
M  V30 546 H 45.2401 -0.385296 -0.639965 0
M  V30 547 H 47.9021 -1.54105 -1.19322 0
M  V30 548 H 46.9981 -1.52886 -2.72089 0
M  V30 549 N 47.2992 1.18797 -1.03562 0
M  V30 550 C 48.7152 1.40671 -0.753917 0
M  V30 551 C 48.9152 1.9043 0.658686 0
M  V30 552 O 47.9712 2.08538 1.42366 0
M  V30 553 C 49.2842 2.41192 -1.79574 0
M  V30 554 C 50.8322 2.54928 -1.81606 0
M  V30 555 C 51.3072 3.58709 -2.84766 0
M  V30 556 N 52.7982 3.66212 -2.83625 0
M  V30 557 C 53.5332 4.46225 -3.60098 0
M  V30 558 N 53.0292 5.29888 -4.46308 0
M  V30 559 N 54.8222 4.40939 -3.4861 0
M  V30 560 H 46.9732 0.848221 -1.94728 0
M  V30 561 H 49.2362 0.435081 -0.842264 0
M  V30 562 H 48.9422 2.11669 -2.80872 0
M  V30 563 H 48.8162 3.40467 -1.62365 0
M  V30 564 H 51.2032 2.83771 -0.809817 0
M  V30 565 H 51.2842 1.55784 -2.02891 0
M  V30 566 H 50.9282 3.30607 -3.85566 0
M  V30 567 H 50.8582 4.57519 -2.60737 0
M  V30 568 H 53.3492 3.06466 -2.21105 0
M  V30 569 H 53.6622 5.88078 -5.01382 0
M  V30 570 H 52.0072 5.29326 -4.50377 0
M  V30 571 H 55.1982 3.74624 -2.80668 0
M  V30 572 H 55.3712 5.03056 -4.08459 0
M  V30 573 N 48.7773 0.814389 1.34928 0
M  V30 574 C 49.7243 0.22822 2.29669 0
M  V30 575 C 50.6943 -0.642164 1.53184 0
M  V30 576 O 51.8793 -0.585605 1.81591 0
M  V30 577 C 49.0193 -0.61089 3.3965 0
M  V30 578 C 48.1323 0.280792 4.31086 0
M  V30 579 C 47.2673 -0.567067 5.28165 0
M  V30 580 C 46.3063 0.324531 6.11239 0
M  V30 581 N 45.4433 -0.483756 7.00431 0
M  V30 582 H 50.2833 1.04153 2.79206 0
M  V30 583 H 47.8203 0.525133 1.37407 0
M  V30 584 H 49.7783 -1.11263 4.0209 0
M  V30 585 H 48.4083 -1.38939 2.91369 0
M  V30 586 H 47.4603 0.900688 3.69583 0
M  V30 587 H 48.7723 0.966723 4.89342 0
M  V30 588 H 47.9263 -1.13363 5.96015 0
M  V30 589 H 46.6653 -1.28654 4.70425 0
M  V30 590 H 45.6703 0.903298 5.42329 0
M  V30 591 H 46.8953 1.04198 6.71059 0
M  V30 592 H 44.8413 -1.18706 6.45171 0
M  V30 593 H 44.7583 0.143965 7.55863 0
M  V30 594 H 46.0263 -1.03334 7.7262 0
M  V30 595 N 50.2554 -1.46986 0.568584 0
M  V30 596 C 51.6664 -1.86188 0.138219 0
M  V30 597 C 52.0174 -1.47388 -1.29504 0
M  V30 598 O 51.1424 -0.88219 -1.97602 0
M  V30 599 C 51.7374 -3.3792 0.244065 0
M  V30 600 C 50.2964 -3.76171 -0.131335 0
M  V30 601 C 49.4434 -2.71027 0.586465 0
M  V30 602 H 52.3944 -1.38342 0.777645 0
M  V30 603 H 52.4154 -3.76729 -0.534351 0
M  V30 604 H 51.9274 -3.66128 1.28731 0
M  V30 605 H 50.0284 -3.5358 -1.17526 0
M  V30 606 H 50.1414 -4.78523 0.235146 0
M  V30 607 H 48.5054 -2.54684 0.0282722 0
M  V30 608 H 49.2884 -3.02077 1.63109 0
M  V30 609 N 51.7335 -0.305618 -1.54608 0
M  V30 610 C 52.6435 0.57778 -2.27374 0
M  V30 611 C 53.6595 1.14451 -1.31061 0
M  V30 612 O 54.8355 1.16831 -1.6405 0
M  V30 613 C 51.9005 1.73123 -3.00382 0
M  V30 614 C 50.9615 1.19812 -4.12242 0
M  V30 615 C 50.1945 2.2966 -4.81759 0
M  V30 616 O 50.4175 3.49651 -4.50666 0
M  V30 617 O 49.3515 1.96091 -5.69062 0
M  V30 618 H 53.1775 -0.012624 -3.03697 0
M  V30 619 H 50.7625 -0.0719184 -1.49227 0
M  V30 620 H 52.6445 2.40315 -3.4616 0
M  V30 621 H 51.3195 2.30815 -2.26949 0
M  V30 622 H 50.2265 0.491798 -3.70853 0
M  V30 623 H 51.5595 0.666566 -4.87666 0
M  V30 624 N 53.2116 1.57565 -0.0334293 0
M  V30 625 C 54.6226 1.79746 0.504798 0
M  V30 626 C 54.9736 0.944091 1.71992 0
M  V30 627 O 54.0986 0.155694 2.15839 0
M  V30 628 C 54.6936 3.25997 0.922567 0
M  V30 629 C 53.2526 3.49159 1.40588 0
M  V30 630 C 52.3996 2.74785 0.372633 0
M  V30 631 H 55.3506 1.56565 -0.259436 0
M  V30 632 H 55.3716 3.35945 1.78666 0
M  V30 633 H 54.8836 3.88081 0.0379825 0
M  V30 634 H 52.9846 2.92332 2.31025 0
M  V30 635 H 53.0976 4.57873 1.41028 0
M  V30 636 H 51.4616 2.40391 0.841672 0
M  V30 637 H 52.2446 3.39587 -0.503559 0
M  V30 638 N 54.6897 -0.239769 1.55765 0
M  V30 639 C 55.5997 -1.31831 1.94056 0
M  V30 640 C 56.6157 -1.52275 0.841925 0
M  V30 641 O 57.7917 -1.65759 1.14394 0
M  V30 642 C 54.8567 -2.65156 2.23368 0
M  V30 643 C 53.9177 -2.53173 3.46701 0
M  V30 644 C 53.1507 -3.8014 3.74606 0
M  V30 645 O 53.3737 -4.82343 3.04469 0
M  V30 646 O 52.3077 -3.78344 4.68123 0
M  V30 647 H 56.1337 -1.02347 2.85935 0
M  V30 648 H 53.7187 -0.441123 1.42739 0
M  V30 649 H 55.6007 -3.43929 2.43497 0
M  V30 650 H 54.2757 -2.94358 1.34666 0
M  V30 651 H 53.1827 -1.72662 3.31871 0
M  V30 652 H 54.5157 -2.28915 4.35728 0
M  V30 653 N 56.1678 -1.49265 -0.50573 0
M  V30 654 C 57.1008 -1.60183 -1.62532 0
M  V30 655 C 58.0788 -0.451107 -1.56217 0
M  V30 656 O 59.2628 -0.666016 -1.76342 0
M  V30 657 C 56.3898 -1.55238 -3.01029 0
M  V30 658 C 55.4358 -2.7545 -3.25621 0
M  V30 659 S 56.2688 -4.37174 -3.09256 0
M  V30 660 C 57.4248 -4.34866 -4.50158 0
M  V30 661 H 57.6578 -2.54894 -1.53025 0
M  V30 662 H 55.1908 -1.38098 -0.690535 0
M  V30 663 H 57.1488 -1.53071 -3.80893 0
M  V30 664 H 55.8098 -0.618238 -3.07956 0
M  V30 665 H 55.0028 -2.68197 -4.26716 0
M  V30 666 H 54.6048 -2.75005 -2.53472 0
M  V30 667 H 56.8968 -4.06295 -5.42154 0
M  V30 668 H 57.8398 -5.36223 -4.62462 0
M  V30 669 H 58.2478 -3.65007 -4.30616 0
M  V30 670 N 57.6459 0.756429 -1.3826 0
M  V30 671 C 58.5759 1.88374 -1.37976 0
M  V30 672 C 59.5569 1.68311 -0.246082 0
M  V30 673 O 60.7419 1.88944 -0.44874 0
M  V30 674 C 57.8719 3.25864 -1.20125 0
M  V30 675 C 56.8259 3.60523 -2.30666 0
M  V30 676 C 56.1519 4.9672 -1.97923 0
M  V30 677 C 57.4519 3.65692 -3.72916 0
M  V30 678 H 59.1459 1.88869 -2.32312 0
M  V30 679 H 56.6919 0.907272 -1.11824 0
M  V30 680 H 58.6449 4.0438 -1.18552 0
M  V30 681 H 57.3689 3.25841 -0.222498 0
M  V30 682 H 56.0279 2.84324 -2.3142 0
M  V30 683 H 55.6759 4.93253 -0.985393 0
M  V30 684 H 55.3759 5.20878 -2.71955 0
M  V30 685 H 56.8999 5.77618 -1.97964 0
M  V30 686 H 58.3139 4.34328 -3.74208 0
M  V30 687 H 56.7109 4.01358 -4.4613 0
M  V30 688 H 57.7809 2.65987 -4.05436 0
M  V30 689 N 59.124 1.23083 0.984299 0
M  V30 690 C 60.056 0.96636 2.07832 0
M  V30 691 C 61.069 -0.0582135 1.62696 0
M  V30 692 O 62.258 0.176843 1.77622 0
M  V30 693 C 59.358 0.433397 3.36117 0
M  V30 694 C 58.531 1.51722 4.10243 0
M  V30 695 C 57.59 0.989821 5.16807 0
M  V30 696 O 56.616 1.67794 5.43906 0
M  V30 697 N 57.818 -0.184367 5.80207 0
M  V30 698 H 60.583 1.90824 2.31098 0
M  V30 699 H 58.144 1.13888 1.1507 0
M  V30 700 H 60.136 0.065699 4.04647 0
M  V30 701 H 58.706 -0.413806 3.09849 0
M  V30 702 H 57.926 2.05786 3.36223 0
M  V30 703 H 59.214 2.24619 4.56534 0
M  V30 704 H 58.612 -0.760062 5.60571 0
M  V30 705 H 57.169 -0.493366 6.4993 0
M  V30 706 N 60.6021 -1.18246 1.0419 0
M  V30 707 C 61.8791 -1.84121 0.660208 0
M  V30 708 C 62.2591 -1.92778 -0.860221 0
M  V30 709 O 61.6071 -1.45464 -1.76217 0
M  V30 710 C 61.8171 -3.22355 1.33747 0
M  V30 711 C 63.1651 -3.98376 1.46906 0
M  V30 712 O 64.1891 -3.31799 1.29568 0
M  V30 713 O 63.0481 -5.17665 1.75171 0
M  V30 714 H 60.1421 -0.794036 0.231161 0
M  V30 715 H 62.6881 -1.25628 1.14087 0
M  V30 716 H 61.4601 -3.10964 2.37522 0
M  V30 717 H 61.0831 -3.88506 0.845515 0
M  V30 718 N 62.0802 -0.821533 -1.34494 0
M  V30 719 C 63.0102 -0.257138 -2.3208 0
M  V30 720 C 63.9912 0.625645 -1.58176 0
M  V30 721 O 65.1762 0.552811 -1.86166 0
M  V30 722 C 62.3062 0.582958 -3.42372 0
M  V30 723 C 61.2602 -0.202571 -4.2752 0
M  V30 724 C 60.5862 0.760179 -5.29269 0
M  V30 725 C 61.8862 -1.40998 -5.02908 0
M  V30 726 H 63.5802 -1.07247 -2.79532 0
M  V30 727 H 61.1262 -0.517163 -1.34393 0
M  V30 728 H 63.0792 0.987972 -4.09655 0
M  V30 729 H 61.8032 1.43133 -2.93565 0
M  V30 730 H 60.4622 -0.588936 -3.61838 0
M  V30 731 H 60.1102 1.60447 -4.76724 0
M  V30 732 H 59.8102 0.238809 -5.87115 0
M  V30 733 H 61.3342 1.16308 -5.9942 0
M  V30 734 H 62.7482 -1.07905 -5.63054 0
M  V30 735 H 61.1452 -1.86689 -5.70322 0
M  V30 736 H 62.2152 -2.1889 -4.32684 0
M  V30 737 N 63.5583 1.46682 -0.576371 0
M  V30 738 C 64.5053 2.30241 0.160499 0
M  V30 739 C 65.4753 1.40233 0.890162 0
M  V30 740 O 66.6603 1.69186 0.882084 0
M  V30 741 C 63.8003 3.24578 1.1723 0
M  V30 742 C 62.9133 4.29684 0.446736 0
M  V30 743 C 62.0483 5.11154 1.44551 0
M  V30 744 C 61.0873 6.08015 0.70599 0
M  V30 745 N 60.2243 6.82376 1.65251 0
M  V30 746 H 65.0643 2.92727 -0.558127 0
M  V30 747 H 62.6013 1.44272 -0.287056 0
M  V30 748 H 64.5593 3.77711 1.77172 0
M  V30 749 H 63.1893 2.63916 1.85872 0
M  V30 750 H 62.2413 3.79458 -0.267594 0
M  V30 751 H 63.5533 4.98626 -0.131686 0
M  V30 752 H 62.7073 5.68533 2.11791 0
M  V30 753 H 61.4463 4.42158 2.05786 0
M  V30 754 H 60.4513 5.49796 0.0197725 0
M  V30 755 H 61.6763 6.79028 0.09912 0
M  V30 756 H 59.6223 6.16094 2.25308 0
M  V30 757 H 59.5393 7.47556 1.12673 0
M  V30 758 H 60.8073 7.44316 2.31546 0
M  V30 759 N 65.0364 0.313813 1.54444 0
M  V30 760 C 66.3134 -0.345447 1.92525 0
M  V30 761 C 66.6934 -1.70667 1.24242 0
M  V30 762 O 66.0414 -2.25273 0.382654 0
M  V30 763 C 66.2514 -0.44737 3.46121 0
M  V30 764 C 67.5994 -0.712238 4.18584 0
M  V30 765 O 68.6234 -0.530678 3.52225 0
M  V30 766 O 67.4824 -1.06183 5.36085 0
M  V30 767 H 64.5764 -0.195407 0.803583 0
M  V30 768 H 67.1224 0.362813 1.65776 0
M  V30 769 H 65.8944 0.509043 3.87975 0
M  V30 770 H 65.5174 -1.20359 3.78945 0
M  V30 771 N 66.5145 -1.57545 0.0417849 0
M  V30 772 C 67.9305 -1.56467 -0.314704 0
M  V30 773 C 68.1305 -1.04859 -1.72066 0
M  V30 774 O 67.1865 -0.700983 -2.42575 0
M  V30 775 C 68.4995 -3.00317 -0.15174 0
M  V30 776 C 70.0475 -3.12201 -0.223553 0
M  V30 777 C 70.5225 -4.57913 -0.0892295 0
M  V30 778 N 72.0135 -4.6297 -0.145808 0
M  V30 779 C 72.7485 -5.73362 -0.0658459 0
M  V30 780 N 72.2445 -6.92769 0.0659282 0
M  V30 781 N 74.0375 -5.6197 -0.12075 0
M  V30 782 H 66.1885 -1.89416 0.961014 0
M  V30 783 H 68.4515 -0.871862 0.372237 0
M  V30 784 H 68.1575 -3.42073 0.817254 0
M  V30 785 H 68.0315 -3.65892 -0.916692 0
M  V30 786 H 70.4185 -2.70349 -1.18301 0
M  V30 787 H 70.4995 -2.49323 0.571994 0
M  V30 788 H 70.1435 -5.00448 0.866867 0
M  V30 789 H 70.0735 -5.18786 -0.903802 0
M  V30 790 H 72.5645 -3.7709 -0.247286 0
M  V30 791 H 72.8775 -7.72707 0.119905 0
M  V30 792 H 71.2225 -6.94927 0.100885 0
M  V30 793 H 74.4135 -4.67572 -0.222187 0
M  V30 794 H 74.5865 -6.47977 -0.0549735 0
M  V30 795 N 67.9926 0.231505 -1.5589 0
M  V30 796 C 69.2226 0.973092 -1.82248 0
M  V30 797 C 69.6306 1.78845 -0.617328 0
M  V30 798 O 68.9736 1.78752 0.423499 0
M  V30 799 C 69.0356 1.94732 -3.02192 0
M  V30 800 C 68.6996 1.31743 -4.37599 0
M  V30 801 C 69.6966 0.712238 -5.14998 0
M  V30 802 C 67.3816 1.33218 -4.84312 0
M  V30 803 C 69.3756 0.130195 -6.37267 0
M  V30 804 C 67.0626 0.746286 -6.06526 0
M  V30 805 C 68.0606 0.146337 -6.82843 0
M  V30 806 O 67.7486 -0.430465 -8.02747 0
M  V30 807 H 67.4806 0.29125 -0.61004 0
M  V30 808 H 70.0346 0.254915 -2.03812 0
M  V30 809 H 68.2646 2.70422 -2.76422 0
M  V30 810 H 69.9536 2.55362 -3.15508 0
M  V30 811 H 70.7196 0.69324 -4.8002 0
M  V30 812 H 66.5986 1.78854 -4.24891 0
M  V30 813 H 70.1426 -0.33871 -6.96777 0
M  V30 814 H 66.0396 0.762663 -6.40979 0
M  V30 815 H 66.8076 -0.323818 -8.17859 0
M  V30 816 N 69.4707 1.49531 0.497807 0
M  V30 817 C 70.3807 1.69176 1.62532 0
M  V30 818 C 71.3967 0.5744 1.64246 0
M  V30 819 O 72.5727 0.849497 1.82608 0
M  V30 820 C 69.6377 1.75695 2.98885 0
M  V30 821 C 68.6987 2.9929 3.07773 0
M  V30 822 C 67.9317 3.05488 4.37622 0
M  V30 823 O 68.1547 2.19192 5.26603 0
M  V30 824 O 67.0887 3.9798 4.51548 0
M  V30 825 H 70.9147 2.647 1.48887 0
M  V30 826 H 68.4997 1.3331 0.674441 0
M  V30 827 H 70.3817 1.82317 3.79919 0
M  V30 828 H 69.0567 0.8335 3.12785 0
M  V30 829 H 67.9637 2.98183 2.25915 0
M  V30 830 H 69.2967 3.91125 2.98801 0
M  V30 831 N 70.9488 -0.749086 1.3866 0
M  V30 832 C 71.9118 -1.84457 1.36045 0
M  V30 833 C 72.9118 -1.58682 0.260122 0
M  V30 834 O 74.1018 -1.66343 0.517261 0
M  V30 835 C 71.2338 -3.22008 1.11911 0
M  V30 836 H 72.4268 -1.88182 2.33512 0
M  V30 837 H 69.9798 -0.951266 1.24019 0
M  V30 838 H 70.7148 -3.2395 0.150686 0
M  V30 839 H 70.4998 -3.42111 1.91579 0
M  V30 840 H 71.9898 -4.0208 1.12788 0
M  V30 841 N 72.4269 -1.23603 -0.977757 0
M  V30 842 C 73.6759 -1.06377 -1.71368 0
M  V30 843 C 73.9889 0.399062 -1.91486 0
M  V30 844 O 75.1949 0.691312 -2.62551 0
M  V30 845 C 73.6509 -1.85512 -3.08404 0
M  V30 846 C 73.2589 -3.36141 -2.96164 0
M  V30 847 C 75.0029 -1.76783 -3.85938 0
M  V30 848 C 72.9099 -4.07659 -4.28449 0
M  V30 849 H 71.8399 -0.394452 -0.642591 0
M  V30 850 H 74.4909 -1.47594 -1.09034 0
M  V30 851 H 72.8729 -1.37103 -3.71509 0
M  V30 852 H 74.0469 -3.92056 -2.42133 0
M  V30 853 H 72.3619 -3.45712 -2.32104 0
M  V30 854 H 74.9589 -2.27526 -4.83876 0
M  V30 855 H 75.3019 -0.731116 -4.0983 0
M  V30 856 H 75.8349 -2.22818 -3.2954 0
M  V30 857 H 72.5739 -5.11648 -4.09752 0
M  V30 858 H 72.0939 -3.5653 -4.82334 0
M  V30 859 H 73.7729 -4.141 -4.97122 0
M  V30 860 N 73.905 1.17692 -1.04816 0
M  V30 861 C 75.153 1.87488 -0.754497 0
M  V30 862 C 75.474 1.81205 0.720407 0
M  V30 863 O 74.744 1.23544 1.52032 0
M  V30 864 H 73.324 0.694101 -0.276102 0
M  V30 865 H 75.986 1.42793 -1.32651 0
M  V30 866 H 75.082 2.93328 -1.06606 0
M  V30 867 N 75.3831 0.828654 1.34056 0
M  V30 868 C 76.6311 0.41863 1.97717 0
M  V30 869 C 76.9521 -1.02314 1.66002 0
M  V30 870 O 76.2221 -1.71119 0.953683 0
M  V30 871 H 74.8021 0.151809 0.731412 0
M  V30 872 H 77.4641 1.05936 1.63596 0
M  V30 873 H 76.5601 0.542318 3.07352 0
M  V30 874 N 76.8612 -1.46375 0.584142 0
M  V30 875 C 78.1102 -2.01585 0.0679741 0
M  V30 876 C 78.4232 -1.46109 -1.30045 0
M  V30 877 O 79.6292 -1.93148 -1.90804 0
M  V30 878 C 78.0852 -3.5983 0.0709207 0
M  V30 879 C 77.6932 -4.24303 1.43775 0
M  V30 880 C 79.4372 -4.22693 -0.391228 0
M  V30 881 C 77.3442 -5.74631 1.39834 0
M  V30 882 H 76.2742 -0.753689 0.0216421 0
M  V30 883 H 78.9252 -1.68093 0.736001 0
M  V30 884 H 77.3072 -3.90405 -0.663299 0
M  V30 885 H 78.4812 -4.05335 2.19181 0
M  V30 886 H 76.7962 -3.73539 1.84004 0
M  V30 887 H 79.3932 -5.3289 -0.439524 0
M  V30 888 H 79.7362 -3.91728 -1.40906 0
M  V30 889 H 80.2692 -3.96749 0.288974 0
M  V30 890 H 77.0082 -6.10258 2.39303 0
M  V30 891 H 76.5282 -5.95858 0.686505 0
M  V30 892 H 78.2072 -6.37375 1.11187 0
M  V30 893 N 78.3393 -0.321999 -1.54275 0
M  V30 894 C 79.5643 0.285791 -2.05422 0
M  V30 895 C 79.9893 1.45124 -1.19669 0
M  V30 896 O 79.3473 1.80132 -0.205441 0
M  V30 897 C 79.3953 0.69956 -3.53749 0
M  V30 898 O 78.4993 1.8021 -3.70942 0
M  V30 899 H 77.8403 0.0518962 -0.661969 0
M  V30 900 H 80.3703 -0.469954 -1.9913 0
M  V30 901 H 80.3803 0.982649 -3.9599 0
M  V30 902 H 79.0553 -0.152864 -4.15619 0
M  V30 903 H 77.6323 1.51794 -3.40607 0
M  V30 904 N 79.8174 1.5752 -0.0501392 0
M  V30 905 C 81.2284 1.80271 0.485705 0
M  V30 906 C 81.5794 0.96228 1.70981 0
M  V30 907 O 80.7044 0.178578 2.15662 0
M  V30 908 C 81.2994 3.26957 0.887938 0
M  V30 909 C 79.8584 3.5063 1.36877 0
M  V30 910 C 79.0054 2.75165 0.343468 0
M  V30 911 H 81.9564 1.56281 -0.276028 0
M  V30 912 H 81.9774 3.37821 1.75093 0
M  V30 913 H 81.4894 3.881 -0.0031809 0
M  V30 914 H 79.5904 2.94766 2.27911 0
M  V30 915 H 79.7034 4.59343 1.36164 0
M  V30 916 H 78.0674 2.4127 0.816128 0
M  V30 917 H 78.8504 3.39034 -0.539548 0
M  V30 918 N 81.2955 -0.223234 1.56011 0
M  V30 919 C 82.2255 -1.27988 1.95298 0
M  V30 920 C 83.2065 -1.48976 0.820979 0
M  V30 921 O 84.3915 -1.61188 1.08315 0
M  V30 922 C 81.5215 -2.63 2.26822 0
M  V30 923 C 80.4755 -2.56671 3.42497 0
M  V30 924 C 79.8015 -3.95697 3.59622 0
M  V30 925 C 81.1015 -2.11601 4.77517 0
M  V30 926 H 82.7955 -0.953525 2.8381 0
M  V30 927 H 80.3415 -0.457244 1.36548 0
M  V30 928 H 82.2945 -3.37077 2.52898 0
M  V30 929 H 81.0185 -2.9732 1.35161 0
M  V30 930 H 79.6775 -1.85051 3.16467 0
M  V30 931 H 79.3255 -4.27322 2.6534 0
M  V30 932 H 79.0255 -3.92345 4.37424 0
M  V30 933 H 80.5495 -4.71438 3.88044 0
M  V30 934 H 81.9635 -2.7542 5.02809 0
M  V30 935 H 80.3605 -2.19311 5.5859 0
M  V30 936 H 81.4305 -1.06824 4.72987 0
M  V30 937 N 82.7736 -1.49793 -0.48987 0
M  V30 938 C 83.7366 -1.66752 -1.57246 0
M  V30 939 C 84.7366 -0.538867 -1.51502 0
M  V30 940 O 85.9266 -0.805545 -1.54456 0
M  V30 941 C 83.0586 -1.67528 -2.96896 0
M  V30 942 H 84.2516 -2.63321 -1.43534 0
M  V30 943 H 81.8046 -1.38992 -0.714914 0
M  V30 944 H 82.5396 -0.725837 -3.16073 0
M  V30 945 H 82.3246 -2.49504 -3.02473 0
M  V30 946 H 83.8146 -1.82667 -3.7553 0
M  V30 947 N 84.2517 0.741722 -1.39055 0
M  V30 948 C 85.1837 1.8657 -1.33133 0
M  V30 949 C 86.1967 1.61001 -0.241329 0
M  V30 950 O 87.3857 1.7136 -0.499784 0
M  V30 951 C 84.4857 3.22457 -1.04283 0
M  V30 952 C 83.6587 3.75435 -2.24427 0
M  V30 953 C 82.7177 4.89867 -1.92138 0
M  V30 954 O 81.7437 5.03879 -2.64754 0
M  V30 955 N 82.9457 5.73738 -0.88347 0
M  V30 956 H 85.7107 1.92156 -2.29991 0
M  V30 957 H 83.2717 0.922172 -1.3307 0
M  V30 958 H 85.2637 3.9657 -0.807128 0
M  V30 959 H 83.8337 3.12181 -0.161807 0
M  V30 960 H 83.0537 2.92751 -2.6399 0
M  V30 961 H 84.3417 4.07563 -3.04581 0
M  V30 962 H 83.7397 5.64999 -0.281517 0
M  V30 963 H 82.2967 6.47947 -0.707662 0
M  V30 964 N 85.7298 1.2412 0.971189 0
M  V30 965 C 86.9788 1.07284 1.70801 0
M  V30 966 C 87.2918 -0.388902 1.91695 0
M  V30 967 O 88.4978 -0.677379 2.62914 0
M  V30 968 C 86.9538 1.87145 3.07416 0
M  V30 969 C 86.5618 3.37707 2.94377 0
M  V30 970 C 88.3058 1.78828 3.84995 0
M  V30 971 C 86.2128 4.09925 4.26281 0
M  V30 972 H 85.1428 0.397854 0.64049 0
M  V30 973 H 87.7938 1.4817 1.0825 0
M  V30 974 H 86.1758 1.39071 3.70777 0
M  V30 975 H 87.3498 3.93335 2.4005 0
M  V30 976 H 85.6648 3.46938 2.30267 0
M  V30 977 H 88.2618 2.30089 4.82662 0
M  V30 978 H 88.6048 0.75284 4.09436 0
M  V30 979 H 89.1378 2.24563 3.28354 0
M  V30 980 H 85.8768 5.13813 4.07033 0
M  V30 981 H 85.3968 3.59083 4.80437 0
M  V30 982 H 87.0758 4.1673 4.94919 0
M  V30 983 N 87.2079 -1.17134 1.05439 0
M  V30 984 C 88.4359 -1.91372 0.786414 0
M  V30 985 C 88.8509 -1.76955 -0.658202 0
M  V30 986 O 88.2079 -1.10838 -1.44987 0
M  V30 987 C 88.2589 -3.42356 1.1608 0
M  V30 988 O 87.9799 -3.56332 2.54871 0
M  V30 989 C 89.4809 -4.33663 0.919322 0
M  V30 990 H 86.7009 -0.607118 0.285743 0
M  V30 991 H 89.2449 -1.48525 1.40572 0
M  V30 992 H 87.3999 -3.82939 0.586191 0
M  V30 993 H 87.8139 -4.49896 2.69618 0
M  V30 994 H 89.2879 -5.38099 1.231 0
M  V30 995 H 89.7649 -4.38959 -0.145359 0
M  V30 996 H 90.3709 -3.98796 1.47789 0
M  V30 997 N 88.686 -0.835752 -1.33615 0
M  V30 998 C 89.596 -0.269088 -2.33052 0
M  V30 999 C 90.612 0.603251 -1.63208 0
M  V30 1000 O 91.788 0.508112 -1.94885 0
M  V30 1001 C 88.853 0.549091 -3.42324 0
M  V30 1002 C 87.914 -0.347156 -4.27894 0
M  V30 1003 C 87.147 0.43207 -5.31948 0
M  V30 1004 O 87.37 1.66409 -5.45586 0
M  V30 1005 O 86.304 -0.192298 -6.01593 0
M  V30 1006 H 90.13 -1.09243 -2.83372 0
M  V30 1007 H 87.715 -0.598198 -1.36901 0
M  V30 1008 H 89.597 1.01414 -4.09015 0
M  V30 1009 H 88.272 1.34955 -2.94226 0
M  V30 1010 H 87.179 -0.859979 -3.64081 0
M  V30 1011 H 88.512 -1.1123 -4.79467 0
M  V30 1012 N 90.1641 1.46063 -0.591896 0
M  V30 1013 C 91.0961 2.28539 0.174001 0
M  V30 1014 C 92.1091 1.39047 0.846753 0
M  V30 1015 O 93.2981 1.63564 0.714774 0
M  V30 1016 C 90.3981 3.14347 1.26645 0
M  V30 1017 C 89.5711 4.32021 0.683856 0
M  V30 1018 C 88.6301 4.99157 1.66518 0
M  V30 1019 O 87.6561 5.56458 1.19763 0
M  V30 1020 N 88.8581 4.97005 2.99943 0
M  V30 1021 H 91.6231 2.94911 -0.533633 0
M  V30 1022 H 89.1841 1.56077 -0.430294 0
M  V30 1023 H 91.1761 3.56125 1.92242 0
M  V30 1024 H 89.7461 2.49988 1.87682 0
M  V30 1025 H 88.9661 3.93915 -0.1498 0
M  V30 1026 H 90.2541 5.08059 0.274567 0
M  V30 1027 H 89.6521 4.51714 3.40545 0
M  V30 1028 H 88.2091 5.42696 3.61004 0
M  V30 1029 N 91.6422 0.330177 1.54103 0
M  V30 1030 C 92.5742 -0.566902 2.22079 0
M  V30 1031 C 93.5872 -1.07462 1.22294 0
M  V30 1032 O 94.7762 -0.987065 1.48726 0
M  V30 1033 C 91.8762 -1.79138 2.87685 0
M  V30 1034 C 91.0492 -1.42123 4.13666 0
M  V30 1035 C 90.1082 -2.50394 4.62806 0
M  V30 1036 O 89.1342 -2.14261 5.27334 0
M  V30 1037 N 90.3362 -3.81433 4.37595 0
M  V30 1038 H 93.1012 0.0151844 2.99696 0
M  V30 1039 H 90.6622 0.153681 1.61169 0
M  V30 1040 H 92.6542 -2.50975 3.1748 0
M  V30 1041 H 91.2242 -2.28115 2.13734 0
M  V30 1042 H 90.4442 -0.534201 3.90564 0
M  V30 1043 H 91.7322 -1.14971 4.9564 0
M  V30 1044 H 91.1302 -4.13584 3.8596 0
M  V30 1045 H 89.6872 -4.4948 4.72029 0
M  V30 1046 N 93.1203 -1.57491 0.0584922 0
M  V30 1047 C 94.0833 -2.1085 -0.898617 0
M  V30 1048 C 95.0833 -1.02964 -1.23511 0
M  V30 1049 O 96.2733 -1.29007 -1.17059 0
M  V30 1050 C 93.4053 -2.59881 -2.20623 0
M  V30 1051 H 94.5983 -2.96715 -0.435936 0
M  V30 1052 H 92.1513 -1.55141 -0.190023 0
M  V30 1053 H 92.8863 -1.77431 -2.71457 0
M  V30 1054 H 92.6713 -3.38727 -1.97501 0
M  V30 1055 H 94.1613 -3.01285 -2.89166 0
M  V30 1056 N 94.5984 0.214957 -1.56127 0
M  V30 1057 C 95.5484 1.27006 -1.8935 0
M  V30 1058 C 96.5324 1.41969 -0.757202 0
M  V30 1059 O 97.7244 1.44673 -1.01973 0
M  V30 1060 C 94.8534 2.61911 -2.2194 0
M  V30 1061 C 93.9394 2.50822 -3.41978 0
M  V30 1062 N 94.3304 2.09391 -4.60423 0
M  V30 1063 C 92.6284 2.81765 -3.45723 0
M  V30 1064 C 93.3294 2.09712 -5.42582 0
M  V30 1065 N 92.3054 2.50454 -4.82466 0
M  V30 1066 H 96.1074 0.940734 -2.78437 0
M  V30 1067 H 93.6214 0.423492 -1.56781 0
M  V30 1068 H 95.6184 3.38096 -2.43919 0
M  V30 1069 H 94.2784 2.95684 -1.34169 0
M  V30 1070 H 95.2894 1.80416 -4.85459 0
M  V30 1071 H 91.9664 3.19865 -2.68314 0
M  V30 1072 H 93.3564 1.79748 -6.4741 0
M  V30 1073 N 96.0765 1.50051 0.48192 0
M  V30 1074 C 97.0245 1.68635 1.60203 0
M  V30 1075 C 98.0185 0.552184 1.60148 0
M  V30 1076 O 99.2245 0.732377 1.64427 0
M  V30 1077 H 95.5995 0.532081 0.531407 0
M  V30 1078 H 97.5705 2.62616 1.41688 0
M  V30 1079 C 96.3195 1.78775 2.9822 0
M  V30 1080 H 95.6425 2.6543 2.98976 0
M  V30 1081 H 97.0825 1.95806 3.7608 0
M  V30 1082 C 95.5415 0.536849 3.32595 0
M  V30 1083 O 96.0715 -0.328897 4.00351 0
M  V30 1084 N 94.2775 0.394091 2.87915 0
M  V30 1085 H 93.8245 1.09962 2.32951 0
M  V30 1086 H 93.7825 -0.441737 3.11281 0
M  V30 1087 N 97.5546 -0.734337 1.39446 0
M  V30 1088 C 98.4846 -1.86155 1.40955 0
M  V30 1089 C 99.4656 -1.67898 0.272827 0
M  V30 1090 O 100.651 -1.88207 0.478743 0
M  V30 1091 C 97.7806 -3.23912 1.25294 0
M  V30 1092 C 96.7346 -3.56808 2.36373 0
M  V30 1093 C 96.0606 -4.93508 2.058 0
M  V30 1094 C 97.3606 -3.59713 3.78687 0
M  V30 1095 H 99.0546 -1.8515 2.35287 0
M  V30 1096 H 96.6006 -0.889367 1.13253 0
M  V30 1097 H 98.5536 -4.02443 1.2497 0
M  V30 1098 H 97.2776 -3.25446 0.274308 0
M  V30 1099 H 95.9366 -2.80606 2.35914 0
M  V30 1100 H 95.5846 -4.91623 1.06374 0
M  V30 1101 H 95.2846 -5.16486 2.80208 0
M  V30 1102 H 96.8086 -5.74396 2.07128 0
M  V30 1103 H 98.2226 -4.2832 3.81071 0
M  V30 1104 H 96.6196 -3.94209 4.52459 0
M  V30 1105 H 97.6896 -2.59504 4.09617 0
M  V30 1106 N 99.0327 -1.24633 -0.964593 0
M  V30 1107 C 99.9427 -1.05859 -2.09359 0
M  V30 1108 C 100.959 0.00148855 -1.74 0
M  V30 1109 O 102.135 -0.197346 -2.00431 0
M  V30 1110 C 99.1997 -0.668879 -3.40187 0
M  V30 1111 C 98.2607 -1.80578 -3.89474 0
M  V30 1112 C 97.4937 -1.43457 -5.14058 0
M  V30 1113 O 97.7167 -0.325775 -5.69469 0
M  V30 1114 O 96.6507 -2.2613 -5.57807 0
M  V30 1115 H 100.477 -2.00516 -2.28094 0
M  V30 1116 H 98.0617 -1.03481 -1.0776 0
M  V30 1117 H 99.9437 -0.463211 -4.18846 0
M  V30 1118 H 98.6187 0.248536 -3.22744 0
M  V30 1119 H 97.5257 -2.06623 -3.11862 0
M  V30 1120 H 98.8587 -2.70208 -4.11398 0
M  V30 1121 N 100.511 1.16574 -1.06058 0
M  V30 1122 C 101.443 2.2045 -0.627239 0
M  V30 1123 C 102.456 1.59752 0.313534 0
M  V30 1124 O 103.645 1.78192 0.104896 0
M  V30 1125 C 100.745 3.3875 0.100974 0
M  V30 1126 C 99.9178 4.29008 -0.852687 0
M  V30 1127 C 98.9768 5.25944 -0.164152 0
M  V30 1128 O 98.0028 5.63535 -0.801047 0
M  V30 1129 N 99.2048 5.70075 1.09518 0
M  V30 1130 H 101.97 2.58249 -1.52077 0
M  V30 1131 H 99.5308 1.3156 -0.943594 0
M  V30 1132 H 101.523 4.00638 0.57194 0
M  V30 1133 H 100.093 2.99476 0.89628 0
M  V30 1134 H 99.3128 3.64419 -1.50308 0
M  V30 1135 H 100.601 4.86195 -1.49972 0
M  V30 1136 H 99.9988 5.41624 1.6328 0
M  V30 1137 H 98.5558 6.34067 1.51006 0
M  V30 1138 N 101.989 0.842826 1.3317 0
M  V30 1139 C 102.939 0.250877 2.26616 0
M  V30 1140 C 103.923 -0.596427 1.49437 0
M  V30 1141 O 105.115 -0.447747 1.71243 0
M  V30 1142 C 102.244 -0.569779 3.38539 0
M  V30 1143 C 101.33 0.289254 4.23112 0
M  V30 1144 N 101.721 1.36987 4.86897 0
M  V30 1145 C 100.019 0.0769631 4.45934 0
M  V30 1146 C 100.72 1.89737 5.49886 0
M  V30 1147 N 99.6959 1.19827 5.30229 0
M  V30 1148 H 103.498 1.07718 2.73448 0
M  V30 1149 H 101.012 0.687693 1.47121 0
M  V30 1150 H 103.009 -1.01018 4.04476 0
M  V30 1151 H 101.669 -1.39401 2.93253 0
M  V30 1152 H 102.68 1.75277 4.87338 0
M  V30 1153 H 99.3569 -0.713507 4.11358 0
M  V30 1154 H 100.747 2.80253 6.10662 0
M  V30 1155 N 103.467 -1.45747 0.599634 0
M  V30 1156 C 104.397 -2.33235 -0.111306 0
M  V30 1157 C 105.378 -1.46359 -0.866781 0
M  V30 1158 O 106.563 -1.75146 -0.838904 0
M  V30 1159 C 103.693 -3.28932 -1.11451 0
M  V30 1160 C 102.647 -4.25381 -0.472772 0
M  V30 1161 C 101.973 -5.1071 -1.58365 0
M  V30 1162 C 103.273 -5.18831 0.600948 0
M  V30 1163 H 104.967 -2.92927 0.61919 0
M  V30 1164 H 102.513 -1.40857 0.299215 0
M  V30 1165 H 104.466 -3.89002 -1.62036 0
M  V30 1166 H 103.19 -2.67381 -1.8755 0
M  V30 1167 H 101.849 -3.66598 0.0121472 0
M  V30 1168 H 101.497 -4.45533 -2.33473 0
M  V30 1169 H 101.197 -5.7604 -1.15982 0
M  V30 1170 H 102.721 -5.73647 -2.09194 0
M  V30 1171 H 104.135 -5.73019 0.179491 0
M  V30 1172 H 102.532 -5.92595 0.946076 0
M  V30 1173 H 103.602 -4.6174 1.48068 0
M  V30 1174 N 104.945 -0.338344 -1.53925 0
M  V30 1175 C 105.893 0.536231 -2.26335 0
M  V30 1176 C 106.887 1.1063 -1.28286 0
M  V30 1177 O 108.093 1.05264 -1.46012 0
M  V30 1178 H 104.468 0.191602 -0.727181 0
M  V30 1179 H 106.439 -0.0965747 -2.98244 0
M  V30 1180 C 105.188 1.67803 -3.04528 0
M  V30 1181 H 104.511 1.24864 -3.79801 0
M  V30 1182 H 105.951 2.26526 -3.58416 0
M  V30 1183 C 104.41 2.60439 -2.13712 0
M  V30 1184 O 104.94 3.6255 -1.72975 0
M  V30 1185 N 103.146 2.29006 -1.78898 0
M  V30 1186 H 102.693 1.46011 -2.12223 0
M  V30 1187 H 102.651 2.91248 -1.18416 0
M  V30 1188 N 106.423 1.57458 -0.0668435 0
M  V30 1189 C 107.333 2.15937 0.916975 0
M  V30 1190 C 108.349 1.12123 1.33058 0
M  V30 1191 O 109.525 1.44366 1.40429 0
M  V30 1192 C 106.59 2.70547 2.16807 0
M  V30 1193 C 105.651 3.89215 1.81135 0
M  V30 1194 C 104.884 4.41211 3.0028 0
M  V30 1195 O 105.107 3.92225 4.14144 0
M  V30 1196 O 104.041 5.32605 2.80384 0
M  V30 1197 H 107.867 3.00354 0.449561 0
M  V30 1198 H 105.452 1.48584 0.155949 0
M  V30 1199 H 107.334 3.0557 2.90181 0
M  V30 1200 H 106.009 1.89192 2.62656 0
M  V30 1201 H 104.916 3.59054 1.05028 0
M  V30 1202 H 106.249 4.71848 1.40073 0
M  V30 1203 N 107.901 -0.206675 1.56239 0
M  V30 1204 C 109.15 -0.926964 1.79138 0
M  V30 1205 C 109.463 -1.84901 0.638043 0
M  V30 1206 O 110.669 -2.60906 0.751033 0
M  V30 1207 C 109.125 -1.6986 3.17294 0
M  V30 1208 C 108.733 -0.821956 4.40395 0
M  V30 1209 C 110.477 -2.40922 3.4951 0
M  V30 1210 C 108.384 -1.59179 5.69575 0
M  V30 1211 H 107.314 -0.349864 0.667915 0
M  V30 1212 H 109.965 -0.180487 1.8261 0
M  V30 1213 H 108.347 -2.48853 3.08039 0
M  V30 1214 H 109.521 -0.0715019 4.60745 0
M  V30 1215 H 107.836 -0.222741 4.15804 0
M  V30 1216 H 110.433 -2.99047 4.43255 0
M  V30 1217 H 110.776 -3.14542 2.72707 0
M  V30 1218 H 111.309 -1.68905 3.60161 0
M  V30 1219 H 108.048 -0.898589 6.49312 0
M  V30 1220 H 107.568 -2.31648 5.53262 0
M  V30 1221 H 109.247 -2.14862 6.10281 0
M  V30 1222 N 109.379 -1.50304 -0.473955 0
M  V30 1223 C 110.311 -1.65109 -1.58971 0
M  V30 1224 C 111.324 -0.532676 -1.53839 0
M  V30 1225 O 112.513 -0.805751 -1.59279 0
M  V30 1226 C 109.613 -1.61684 -2.97845 0
M  V30 1227 C 108.786 -2.8951 -3.27876 0
M  V30 1228 C 107.845 -2.78768 -4.4629 0
M  V30 1229 O 106.871 -3.52722 -4.46739 0
M  V30 1230 N 108.073 -1.9213 -5.47783 0
M  V30 1231 H 110.838 -2.61347 -1.46689 0
M  V30 1232 H 108.399 -1.47732 -0.662324 0
M  V30 1233 H 110.391 -1.52114 -3.75024 0
M  V30 1234 H 108.961 -0.731925 -3.03911 0
M  V30 1235 H 108.181 -3.13228 -2.39336 0
M  V30 1236 H 109.469 -3.74199 -3.4475 0
M  V30 1237 H 108.867 -1.31353 -5.50239 0
M  V30 1238 H 107.424 -1.88466 -6.23958 0
M  V30 1239 N 110.857 0.726932 -1.39834 0
M  V30 1240 C 112.134 1.47902 -1.28001 0
M  V30 1241 C 112.514 2.1083 0.106789 0
M  V30 1242 O 111.862 1.99242 1.11869 0
M  V30 1243 C 112.072 2.52392 -2.41038 0
M  V30 1244 C 113.42 3.18546 -2.80737 0
M  V30 1245 O 114.444 2.62708 -2.40547 0
M  V30 1246 O 113.303 4.19604 -3.50135 0
M  V30 1247 H 110.397 0.657163 -0.502062 0
M  V30 1248 H 112.943 0.760071 -1.51727 0
M  V30 1249 H 111.715 2.04329 -3.33715 0
M  V30 1250 H 111.338 3.31837 -2.19021 0
M  V30 1251 N 112.336 1.25143 0.95797 0
M  V30 1252 C 113.246 1.06968 2.08794 0
M  V30 1253 C 114.262 0.00773911 1.73998 0
M  V30 1254 O 115.438 0.207972 2.00323 0
M  V30 1255 C 112.503 0.68691 3.39827 0
M  V30 1256 C 111.564 1.82641 3.88511 0
M  V30 1257 C 110.797 1.46181 5.1329 0
M  V30 1258 O 111.02 0.355971 5.69288 0
M  V30 1259 O 109.954 2.29085 5.566 0
M  V30 1260 H 113.78 2.01723 2.27027 0
M  V30 1261 H 111.365 1.04051 1.07209 0
M  V30 1262 H 113.247 0.485417 4.18595 0
M  V30 1263 H 111.922 -0.231417 3.22872 0
M  V30 1264 H 110.829 2.08274 3.10762 0
M  V30 1265 H 112.162 2.72386 4.09959 0
M  V30 1266 N 113.814 -1.1601 1.06675 0
M  V30 1267 C 115.063 -1.85973 0.780818 0
M  V30 1268 C 115.376 -1.82819 -0.695444 0
M  V30 1269 O 116.582 -2.484 -1.09589 0
M  V30 1270 C 115.038 -3.33757 1.34665 0
M  V30 1271 C 114.646 -3.45374 2.85343 0
M  V30 1272 C 116.39 -4.0895 1.13843 0
M  V30 1273 C 114.297 -4.87266 3.35151 0
M  V30 1274 H 113.227 -0.696661 0.288407 0
M  V30 1275 H 115.878 -1.30903 1.28595 0
M  V30 1276 H 114.26 -3.88456 0.769274 0
M  V30 1277 H 115.434 -3.00816 3.49065 0
M  V30 1278 H 113.749 -2.83619 3.04876 0
M  V30 1279 H 116.346 -5.13654 1.4854 0
M  V30 1280 H 116.689 -4.16229 0.0770282 0
M  V30 1281 H 117.222 -3.605 1.68179 0
M  V30 1282 H 113.961 -4.85168 4.40786 0
M  V30 1283 H 113.481 -5.32433 2.76179 0
M  V30 1284 H 115.16 -5.56097 3.30704 0
M  V30 1285 N 115.292 -0.849877 -1.32721 0
M  V30 1286 C 116.52 -0.464754 -2.01613 0
M  V30 1287 C 116.935 0.937191 -1.63897 0
M  V30 1288 O 116.292 1.61081 -0.857856 0
M  V30 1289 C 116.343 -0.588638 -3.56675 0
M  V30 1290 O 116.064 -1.93535 -3.93034 0
M  V30 1291 C 117.565 -0.2019 -4.4284 0
M  V30 1292 H 114.785 -0.183215 -0.645502 0
M  V30 1293 H 117.329 -1.1455 -1.69407 0
M  V30 1294 H 115.484 0.0443159 -3.87375 0
M  V30 1295 H 115.898 -1.92871 -4.87751 0
M  V30 1296 H 117.372 -0.339599 -5.50954 0
M  V30 1297 H 117.849 0.857224 -4.30753 0
M  V30 1298 H 118.455 -0.809733 -4.17521 0
M  V30 1299 N 116.77 1.45427 -0.607355 0
M  V30 1300 C 118.017 2.02241 -0.102455 0
M  V30 1301 C 118.345 1.4758 1.26691 0
M  V30 1302 O 117.6 0.640468 1.84923 0
M  V30 1303 C 117.899 3.57398 -0.0129263 0
M  V30 1304 C 117.565 4.3121 -1.31792 0
M  V30 1305 C 116.227 4.51092 -1.67539 0
M  V30 1306 C 118.579 4.73401 -2.18039 0
M  V30 1307 C 115.907 5.10422 -2.89285 0
M  V30 1308 C 118.259 5.34078 -3.39034 0
M  V30 1309 C 116.923 5.52184 -3.75033 0
M  V30 1310 H 116.193 0.740051 -0.037491 0
M  V30 1311 H 118.84 1.74494 -0.788926 0
M  V30 1312 H 117.145 3.84421 0.756806 0
M  V30 1313 H 118.842 3.99061 0.393881 0
M  V30 1314 H 115.432 4.16047 -1.02968 0
M  V30 1315 H 119.616 4.57774 -1.91721 0
M  V30 1316 H 114.872 5.22629 -3.17283 0
M  V30 1317 H 119.046 5.65724 -4.06115 0
M  V30 1318 H 116.673 5.97925 -4.69457 0
M  V30 1319 N 118.248 0.346503 1.53744 0
M  V30 1320 C 119.195 -0.508914 2.25119 0
M  V30 1321 C 120.165 -1.09315 1.25058 0
M  V30 1322 O 121.35 -1.12921 1.53797 0
M  V30 1323 C 118.49 -1.65246 3.02965 0
M  V30 1324 C 117.603 -1.09525 4.17886 0
M  V30 1325 C 116.738 -2.20634 4.83212 0
M  V30 1326 C 115.777 -1.62279 5.90196 0
M  V30 1327 N 114.914 -2.67143 6.49291 0
M  V30 1328 H 119.754 0.106283 2.9781 0
M  V30 1329 H 117.291 0.0642227 1.4696 0
M  V30 1330 H 119.249 -2.32574 3.4636 0
M  V30 1331 H 117.879 -2.2386 2.32565 0
M  V30 1332 H 116.931 -0.312818 3.79112 0
M  V30 1333 H 118.243 -0.628444 4.94825 0
M  V30 1334 H 117.397 -2.95821 5.29693 0
M  V30 1335 H 116.136 -2.70659 4.05703 0
M  V30 1336 H 115.141 -0.855989 5.43096 0
M  V30 1337 H 116.366 -1.13102 6.69615 0
M  V30 1338 H 114.312 -3.16417 5.74645 0
M  V30 1339 H 114.229 -2.25093 7.21713 0
M  V30 1340 H 115.497 -3.4209 7.00425 0
M  V30 1341 N 119.726 -1.57421 0.075193 0
M  V30 1342 C 120.689 -2.11791 -0.876203 0
M  V30 1343 C 121.689 -1.04268 -1.22412 0
M  V30 1344 O 122.879 -1.30242 -1.15684 0
M  V30 1345 C 120.011 -2.62207 -2.17854 0
M  V30 1346 H 121.204 -2.9716 -0.40444 0
M  V30 1347 H 118.757 -1.55333 -0.173557 0
M  V30 1348 H 119.492 -1.803 -2.6956 0
M  V30 1349 H 119.277 -3.40802 -1.93897 0
M  V30 1350 H 120.767 -3.04335 -2.85955 0
M  V30 1351 N 121.204 0.198386 -1.56346 0
M  V30 1352 C 122.434 0.934215 -1.84271 0
M  V30 1353 C 122.842 1.77496 -0.655125 0
M  V30 1354 O 122.185 1.7961 0.385488 0
M  V30 1355 C 122.247 1.88278 -3.06254 0
M  V30 1356 C 121.911 1.22431 -4.40295 0
M  V30 1357 C 122.908 0.602839 -5.16393 0
M  V30 1358 C 120.593 1.22915 -4.87029 0
M  V30 1359 C 122.587 -0.0050083 -6.374 0
M  V30 1360 C 120.274 0.617465 -6.07973 0
M  V30 1361 C 121.272 0.00146341 -6.83 0
M  V30 1362 O 120.96 -0.600642 -8.01653 0
M  V30 1363 H 120.692 0.278245 -0.616081 0
M  V30 1364 H 123.246 0.211626 -2.04307 0
M  V30 1365 H 121.476 2.64498 -2.82095 0
M  V30 1366 H 123.165 2.48612 -3.20853 0
M  V30 1367 H 123.931 0.591265 -4.81382 0
M  V30 1368 H 119.81 1.69801 -4.28589 0
M  V30 1369 H 123.354 -0.48643 -6.95902 0
M  V30 1370 H 119.251 0.62653 -6.42452 0
M  V30 1371 H 120.019 -0.497225 -8.16988 0
M  V30 1372 N 122.682 1.50554 0.465978 0
M  V30 1373 C 123.931 1.61038 1.21448 0
M  V30 1374 C 124.244 0.31865 1.92987 0
M  V30 1375 O 125.45 0.302469 2.6981 0
M  V30 1376 C 123.906 2.84283 2.20706 0
M  V30 1377 C 123.514 4.20352 1.54946 0
M  V30 1378 C 125.258 3.04115 2.96166 0
M  V30 1379 C 123.165 5.34778 2.5252 0
M  V30 1380 H 122.095 0.599718 0.457005 0
M  V30 1381 H 124.746 1.7699 0.484424 0
M  V30 1382 H 123.128 2.61901 2.97025 0
M  V30 1383 H 124.302 4.53008 0.843811 0
M  V30 1384 H 122.617 4.06167 0.917475 0
M  V30 1385 H 125.214 3.86774 3.69202 0
M  V30 1386 H 125.557 2.16045 3.55852 0
M  V30 1387 H 126.09 3.26702 2.26959 0
M  V30 1388 H 122.829 6.25018 1.97566 0
M  V30 1389 H 122.349 5.06534 3.21222 0
M  V30 1390 H 124.028 5.65561 3.14245 0
M  V30 1391 N 124.16 -0.719506 1.40217 0
M  V30 1392 C 125.408 -1.47641 1.3801 0
M  V30 1393 C 125.729 -1.94992 -0.018145 0
M  V30 1394 O 124.999 -1.70073 -0.972207 0
M  V30 1395 H 123.579 -0.547744 0.507923 0
M  V30 1396 H 126.241 -0.853187 1.75233 0
M  V30 1397 H 125.337 -2.35112 2.05253 0
M  V30 1398 N 125.638 -1.25649 -0.95132 0
M  V30 1399 C 126.568 -1.08808 -2.06599 0
M  V30 1400 C 127.549 0.00382547 -1.701 0
M  V30 1401 O 128.734 -0.166325 -1.93486 0
M  V30 1402 C 125.864 -0.709542 -3.39975 0
M  V30 1403 C 124.818 -1.75206 -3.90496 0
M  V30 1404 C 124.144 -1.22811 -5.20405 0
M  V30 1405 C 125.444 -3.15153 -4.16504 0
M  V30 1406 H 127.138 -2.02048 -2.20946 0
M  V30 1407 H 124.684 -0.972835 -1.06169 0
M  V30 1408 H 126.637 -0.578649 -4.17408 0
M  V30 1409 H 125.361 0.258556 -3.25575 0
M  V30 1410 H 124.02 -1.87145 -3.15234 0
M  V30 1411 H 123.668 -0.250145 -5.02378 0
M  V30 1412 H 123.368 -1.92492 -5.55176 0
M  V30 1413 H 124.892 -1.10968 -6.00432 0
M  V30 1414 H 126.306 -3.06349 -4.84586 0
M  V30 1415 H 124.703 -3.82333 -4.62538 0
M  V30 1416 H 125.773 -3.61966 -3.22658 0
M  V30 1417 N 127.117 1.15442 -1.07289 0
M  V30 1418 C 128.064 2.20161 -0.692653 0
M  V30 1419 C 129.034 1.63073 0.31564 0
M  V30 1420 O 130.219 1.89725 0.202235 0
M  V30 1421 C 127.359 3.44967 -0.0959509 0
M  V30 1422 C 126.472 4.16256 -1.15564 0
M  V30 1423 C 125.607 5.28609 -0.524011 0
M  V30 1424 C 124.646 5.91715 -1.56653 0
M  V30 1425 N 123.783 6.9554 -0.957531 0
M  V30 1426 H 128.623 2.52037 -1.59002 0
M  V30 1427 H 126.16 1.2378 -0.794798 0
M  V30 1428 H 128.118 4.16341 0.267628 0
M  V30 1429 H 126.748 3.1361 0.764772 0
M  V30 1430 H 125.8 3.43385 -1.6368 0
M  V30 1431 H 127.112 4.59268 -1.94613 0
M  V30 1432 H 126.266 6.06604 -0.108032 0
M  V30 1433 H 125.005 4.86787 0.29825 0
M  V30 1434 H 124.01 5.12433 -1.9923 0
M  V30 1435 H 125.235 6.35614 -2.39107 0
M  V30 1436 H 123.181 6.55814 -0.156162 0
M  V30 1437 H 123.098 7.36977 -1.68526 0
M  V30 1438 H 124.366 7.77435 -0.567032 0
M  V30 1439 N 128.595 0.856903 1.32268 0
M  V30 1440 C 129.545 0.274899 2.26337 0
M  V30 1441 C 130.529 -0.580543 1.50062 0
M  V30 1442 O 131.721 -0.429559 1.71708 0
M  V30 1443 C 128.85 -0.533841 3.39124 0
M  V30 1444 C 127.936 0.334114 4.22782 0
M  V30 1445 N 128.327 1.42143 4.85416 0
M  V30 1446 C 126.625 0.124256 4.45827 0
M  V30 1447 C 127.326 1.95559 5.47843 0
M  V30 1448 N 126.302 1.25444 5.28928 0
M  V30 1449 H 130.104 1.10612 2.72291 0
M  V30 1450 H 127.618 0.703258 1.46383 0
M  V30 1451 H 129.615 -0.96722 4.05525 0
M  V30 1452 H 128.275 -1.36283 2.94715 0
M  V30 1453 H 129.286 1.80436 4.85451 0
M  V30 1454 H 125.963 -0.669837 4.12092 0
M  V30 1455 H 127.353 2.86714 6.07655 0
M  V30 1456 N 130.073 -1.45103 0.615059 0
M  V30 1457 C 131.322 -2.01396 0.110718 0
M  V30 1458 C 131.635 -1.48834 -1.26916 0
M  V30 1459 O 132.841 -1.97152 -1.86664 0
M  V30 1460 C 131.297 -3.59599 0.14723 0
M  V30 1461 C 130.905 -4.21158 1.52743 0
M  V30 1462 C 132.649 -4.23428 -0.30148 0
M  V30 1463 C 130.556 -5.71535 1.51992 0
M  V30 1464 H 129.486 -0.753061 0.0376241 0
M  V30 1465 H 132.137 -1.66494 0.77149 0
M  V30 1466 H 130.519 -3.91724 -0.580339 0
M  V30 1467 H 131.693 -4.00594 2.2773 0
M  V30 1468 H 130.008 -3.69552 1.91886 0
M  V30 1469 H 132.605 -5.33703 -0.326392 0
M  V30 1470 H 132.948 -3.94629 -1.32565 0
M  V30 1471 H 133.481 -3.96047 0.373065 0
M  V30 1472 H 130.22 -6.05044 2.52193 0
M  V30 1473 H 129.74 -5.94268 0.81274 0
M  V30 1474 H 131.419 -6.34873 1.24681 0
M  V30 1475 N 131.551 -0.354651 -1.53558 0
M  V30 1476 C 132.461 0.50515 -2.29097 0
M  V30 1477 C 133.477 1.10223 -1.34636 0
M  V30 1478 O 134.653 1.11553 -1.67684 0
M  V30 1479 C 131.718 1.63479 -3.05738 0
M  V30 1480 C 130.779 1.06636 -4.15845 0
M  V30 1481 C 130.012 2.14217 -4.88822 0
M  V30 1482 O 130.235 3.35137 -4.61562 0
M  V30 1483 O 129.169 1.77887 -5.75013 0
M  V30 1484 H 132.995 -0.109237 -3.03503 0
M  V30 1485 H 130.58 -0.119357 -1.48922 0
M  V30 1486 H 132.462 2.2918 -3.5363 0
M  V30 1487 H 131.137 2.23478 -2.34178 0
M  V30 1488 H 130.044 0.373565 -3.7223 0
M  V30 1489 H 131.377 0.511081 -4.89539 0
M  V30 1490 N 133.029 1.57378 -0.0835403 0
M  V30 1491 C 134.44 1.81261 0.447358 0
M  V30 1492 C 134.791 0.998331 1.68902 0
M  V30 1493 O 133.916 0.224282 2.15235 0
M  V30 1494 C 134.511 3.28767 0.818386 0
M  V30 1495 C 133.07 3.53455 1.29409 0
M  V30 1496 C 132.217 2.75831 0.285024 0
M  V30 1497 H 135.168 1.5566 -0.309115 0
M  V30 1498 H 135.189 3.41459 1.67887 0
M  V30 1499 H 134.701 3.88006 -0.0855019 0
M  V30 1500 H 132.802 2.99534 2.21608 0
M  V30 1501 H 132.915 4.62128 1.2639 0
M  V30 1502 H 131.279 2.42947 0.764767 0
M  V30 1503 H 132.062 3.37813 -0.611341 0
M  V30 1504 N 134.507 -0.190092 1.56449 0
M  V30 1505 C 135.754 -0.909705 1.80916 0
M  V30 1506 C 136.082 -1.83047 0.657583 0
M  V30 1507 O 135.337 -1.92428 -0.356356 0
M  V30 1508 C 135.636 -1.75382 3.1141 0
M  V30 1509 C 135.302 -0.983606 4.40041 0
M  V30 1510 C 133.964 -0.770967 4.74984 0
M  V30 1511 C 136.316 -0.442024 5.19322 0
M  V30 1512 C 133.644 -0.0053448 5.867 0
M  V30 1513 C 135.996 0.310412 6.31838 0
M  V30 1514 C 134.66 0.534023 6.6536 0
M  V30 1515 H 133.93 -0.332885 0.662019 0
M  V30 1516 H 136.577 -0.175762 1.90692 0
M  V30 1517 H 134.882 -2.55659 2.96893 0
M  V30 1518 H 136.579 -2.31331 3.27547 0
M  V30 1519 H 133.169 -1.15936 4.12622 0
M  V30 1520 H 137.353 -0.593693 4.92736 0
M  V30 1521 H 132.609 0.177825 6.11141 0
M  V30 1522 H 136.783 0.737419 6.92485 0
M  V30 1523 H 134.41 1.12918 7.51767 0
M  V30 1524 N 135.985 -1.50799 -0.457987 0
M  V30 1525 C 137.234 -1.6168 -1.20593 0
M  V30 1526 C 137.547 -0.32888 -1.92815 0
M  V30 1527 O 138.753 -0.316773 -2.69646 0
M  V30 1528 C 137.209 -2.8545 -2.19195 0
M  V30 1529 C 136.817 -4.21168 -1.52715 0
M  V30 1530 C 138.561 -3.05681 -2.94549 0
M  V30 1531 C 136.468 -5.3611 -2.4968 0
M  V30 1532 H 135.398 -0.602134 -0.453818 0
M  V30 1533 H 138.049 -1.77245 -0.475031 0
M  V30 1534 H 136.431 -2.63472 -2.95632 0
M  V30 1535 H 137.605 -4.53449 -0.819775 0
M  V30 1536 H 135.92 -4.06648 -0.895922 0
M  V30 1537 H 138.517 -3.88727 -3.67145 0
M  V30 1538 H 138.86 -2.17929 -3.54701 0
M  V30 1539 H 139.393 -3.27901 -2.25223 0
M  V30 1540 H 136.132 -6.26057 -1.94249 0
M  V30 1541 H 135.652 -5.0823 -3.18532 0
M  V30 1542 H 137.331 -5.6722 -3.11241 0
M  V30 1543 N 137.463 0.71206 -1.40597 0
M  V30 1544 C 138.373 1.8562 -1.43466 0
M  V30 1545 C 139.389 1.70902 -0.326902 0
M  V30 1546 O 140.565 1.93105 -0.572043 0
M  V30 1547 C 137.63 3.21451 -1.29884 0
M  V30 1548 C 136.691 3.48398 -2.50833 0
M  V30 1549 C 135.924 4.77749 -2.3789 0
M  V30 1550 O 136.147 5.53089 -1.39459 0
M  V30 1551 O 135.081 5.05111 -3.27333 0
M  V30 1552 H 138.907 1.86155 -2.39958 0
M  V30 1553 H 136.492 0.86295 -1.21957 0
M  V30 1554 H 138.374 4.02579 -1.24531 0
M  V30 1555 H 137.049 3.21636 -0.364997 0
M  V30 1556 H 135.956 2.67265 -2.61763 0
M  V30 1557 H 137.289 3.53014 -3.4299 0
M  V30 1558 N 138.941 1.26152 0.944643 0
M  V30 1559 C 140.218 1.02247 1.66748 0
M  V30 1560 C 140.598 -0.448202 2.06287 0
M  V30 1561 O 139.946 -1.42779 1.78399 0
M  V30 1562 C 140.156 1.96788 2.88228 0
M  V30 1563 C 141.504 2.25201 3.59958 0
M  V30 1564 O 142.528 1.94626 2.98327 0
M  V30 1565 O 141.387 2.77242 4.70956 0
M  V30 1566 H 138.481 0.388517 0.730057 0
M  V30 1567 H 141.027 1.37348 0.99668 0
M  V30 1568 H 139.799 2.96047 2.55875 0
M  V30 1569 H 139.422 1.62145 3.63035 0
M  V30 1570 N 140.419 -1.14872 1.07899 0
M  V30 1571 C 141.382 -2.17986 0.708161 0
M  V30 1572 C 142.382 -1.58775 -0.25442 0
M  V30 1573 O 143.572 -1.74166 -0.034645 0
M  V30 1574 C 140.704 -3.40871 0.0446929 0
M  V30 1575 H 141.897 -2.52306 1.62116 0
M  V30 1576 H 139.45 -1.2943 0.876218 0
M  V30 1577 H 140.185 -3.12124 -0.880281 0
M  V30 1578 H 139.97 -3.8511 0.737091 0
M  V30 1579 H 141.46 -4.17121 -0.19991 0
M  V30 1580 N 141.898 -0.863906 -1.31812 0
M  V30 1581 C 143.144 -0.472535 -1.97218 0
M  V30 1582 C 143.477 0.971394 -1.68159 0
M  V30 1583 O 142.752 1.68309 -0.974798 0
M  V30 1584 C 143.035 -0.723054 -3.52766 0
M  V30 1585 C 142.888 -2.21608 -3.91421 0
M  V30 1586 C 144.207 -0.185522 -4.39709 0
M  V30 1587 H 141.326 -0.173158 -0.71637 0
M  V30 1588 H 143.968 -1.08403 -1.56041 0
M  V30 1589 H 142.118 -0.202577 -3.87971 0
M  V30 1590 H 143.79 -2.80334 -3.66347 0
M  V30 1591 H 142.033 -2.691 -3.40246 0
M  V30 1592 H 142.704 -2.34203 -4.99853 0
M  V30 1593 H 145.18 -0.630726 -4.11292 0
M  V30 1594 H 144.056 -0.390306 -5.47511 0
M  V30 1595 H 144.317 0.912229 -4.32586 0
M  V30 1596 N 143.376 1.44774 -0.622745 0
M  V30 1597 C 144.339 2.29069 0.0774015 0
M  V30 1598 C 145.339 1.4059 0.780461 0
M  V30 1599 O 146.529 1.62551 0.626322 0
M  V30 1600 C 143.661 3.21974 1.12006 0
M  V30 1601 H 144.854 2.92459 -0.663901 0
M  V30 1602 H 142.407 1.51548 -0.382486 0
M  V30 1603 H 143.142 2.63417 1.89162 0
M  V30 1604 H 142.927 3.87168 0.619951 0
M  V30 1605 H 144.417 3.85318 1.60995 0
M  V30 1606 N 144.854 0.36279 1.53368 0
M  V30 1607 C 145.764 -0.492994 2.29362 0
M  V30 1608 C 146.78 -1.09507 1.35219 0
M  V30 1609 O 147.956 -1.10662 1.68273 0
M  V30 1610 C 145.021 -1.61855 3.066 0
M  V30 1611 C 144.082 -1.04429 4.16405 0
M  V30 1612 C 143.315 -2.11621 4.89951 0
M  V30 1613 O 143.538 -3.32684 4.63333 0
M  V30 1614 O 142.472 -1.74835 5.75948 0
M  V30 1615 H 146.298 0.125331 3.03441 0
M  V30 1616 H 143.883 0.127253 1.48857 0
M  V30 1617 H 145.765 -2.27302 3.54841 0
M  V30 1618 H 144.44 -2.22233 2.3536 0
M  V30 1619 H 143.347 -0.353819 3.72423 0
M  V30 1620 H 144.68 -0.485113 4.89804 0
M  V30 1621 N 146.332 -1.57332 0.0918853 0
M  V30 1622 C 147.265 -2.09499 -0.904735 0
M  V30 1623 C 148.243 -1.00479 -1.27839 0
M  V30 1624 O 149.427 -1.27954 -1.38419 0
M  V30 1625 C 146.554 -2.56931 -2.2069 0
M  V30 1626 C 145.6 -3.77579 -1.98334 0
M  V30 1627 S 146.433 -5.21317 -1.22428 0
M  V30 1628 C 147.589 -5.72097 -2.53882 0
M  V30 1629 H 147.822 -2.93705 -0.460922 0
M  V30 1630 H 145.355 -1.53923 -0.121332 0
M  V30 1631 H 147.313 -2.84917 -2.95521 0
M  V30 1632 H 145.974 -1.72956 -2.62192 0
M  V30 1633 H 145.167 -4.08824 -2.94752 0
M  V30 1634 H 144.769 -3.5007 -1.31633 0
M  V30 1635 H 147.061 -5.80168 -3.49874 0
M  V30 1636 H 148.004 -6.70654 -2.27219 0
M  V30 1637 H 148.412 -5.00012 -2.62007 0
M  V30 1638 N 147.81 0.181792 -1.56548 0
M  V30 1639 C 148.76 1.22961 -1.92002 0
M  V30 1640 C 149.744 1.40331 -0.787146 0
M  V30 1641 O 150.936 1.42478 -1.05019 0
M  V30 1642 C 148.065 2.57144 -2.27446 0
M  V30 1643 C 147.151 2.43512 -3.47222 0
M  V30 1644 N 147.542 1.99577 -4.64761 0
M  V30 1645 C 145.84 2.74368 -3.51622 0
M  V30 1646 C 146.541 1.98156 -5.46909 0
M  V30 1647 N 145.517 2.40164 -4.8767 0
M  V30 1648 H 149.319 0.881462 -2.8037 0
M  V30 1649 H 146.833 0.390141 -1.57644 0
M  V30 1650 H 148.83 3.32847 -2.51035 0
M  V30 1651 H 147.49 2.92771 -1.40411 0
M  V30 1652 H 148.501 1.70078 -4.89177 0
M  V30 1653 H 145.178 3.14102 -2.75038 0
M  V30 1654 H 146.568 1.65975 -6.51077 0
M  V30 1655 N 149.288 1.51039 0.449983 0
M  V30 1656 C 150.235 1.71439 1.54523 0
M  V30 1657 C 151.205 0.555871 1.56522 0
M  V30 1658 O 152.39 0.788871 1.73728 0
M  V30 1659 C 149.53 1.83384 2.92343 0
M  V30 1660 C 148.643 3.10873 2.9997 0
M  V30 1661 C 147.778 3.13488 4.28834 0
M  V30 1662 C 146.817 4.35343 4.30282 0
M  V30 1663 N 145.954 4.35579 5.5065 0
M  V30 1664 H 150.794 2.64934 1.36433 0
M  V30 1665 H 148.331 1.31312 0.662982 0
M  V30 1666 H 150.289 1.88291 3.72293 0
M  V30 1667 H 148.919 0.933086 3.0902 0
M  V30 1668 H 147.971 3.15336 2.12761 0
M  V30 1669 H 149.283 4.00814 2.96901 0
M  V30 1670 H 148.437 3.17241 5.17149 0
M  V30 1671 H 147.176 2.21414 4.34543 0
M  V30 1672 H 146.181 4.3178 3.40362 0
M  V30 1673 H 147.406 5.28668 4.26248 0
M  V30 1674 H 145.352 3.46369 5.57104 0
M  V30 1675 H 145.269 5.19313 5.49409 0
M  V30 1676 H 146.537 4.43507 6.41032 0
M  V30 1677 N 150.766 -0.704594 1.40972 0
M  V30 1678 C 152.043 -1.45847 1.30338 0
M  V30 1679 C 152.423 -2.10973 -0.0732344 0
M  V30 1680 O 151.771 -2.00997 -1.08685 0
M  V30 1681 C 151.981 -2.48525 2.45023 0
M  V30 1682 C 153.329 -3.1404 2.8577 0
M  V30 1683 O 154.353 -2.58848 2.44696 0
M  V30 1684 O 153.212 -4.13981 3.56766 0
M  V30 1685 H 150.306 -0.649092 0.512454 0
M  V30 1686 H 152.852 -0.735836 1.52917 0
M  V30 1687 H 151.624 -1.98994 3.36923 0
M  V30 1688 H 151.247 -3.2831 2.24272 0
M  V30 1689 N 152.244 -1.26651 -0.937939 0
M  V30 1690 C 153.492 -1.12165 -1.68118 0
M  V30 1691 C 153.813 0.334983 -1.92101 0
M  V30 1692 O 153.083 1.23583 -1.52 0
M  V30 1693 H 151.663 -0.412093 -0.623048 0
M  V30 1694 H 154.325 -1.59027 -1.12678 0
M  V30 1695 H 153.421 -1.64289 -2.6536 0
M  V30 1696 N 153.722 1.14298 -1.08507 0
M  V30 1697 C 154.971 1.84708 -0.810305 0
M  V30 1698 C 155.284 1.83903 0.666271 0
M  V30 1699 O 156.49 2.50112 1.05624 0
M  V30 1700 C 154.946 3.31572 -1.39957 0
M  V30 1701 C 154.554 3.40791 -2.90801 0
M  V30 1702 C 156.298 4.07087 -1.20334 0
M  V30 1703 C 154.205 4.81872 -3.4286 0
M  V30 1704 H 153.135 0.691985 -0.299454 0
M  V30 1705 H 155.786 1.28841 -1.30661 0
M  V30 1706 H 154.168 3.87183 -0.830976 0
M  V30 1707 H 155.342 2.95225 -3.53806 0
M  V30 1708 H 153.657 2.78732 -3.0935 0
M  V30 1709 H 156.254 5.11225 -1.56693 0
M  V30 1710 H 156.597 4.16054 -0.143237 0
M  V30 1711 H 157.13 3.57779 -1.73893 0
M  V30 1712 H 153.869 4.78094 -4.48449 0
M  V30 1713 H 153.389 5.27972 -2.84615 0
M  V30 1714 H 155.068 5.50765 -3.39509 0
M  V30 1715 N 155.201 0.870884 1.31352 0
M  V30 1716 C 156.429 0.49677 2.00848 0
M  V30 1717 C 156.844 -0.910998 1.65367 0
M  V30 1718 O 156.201 -1.59696 0.883374 0
M  V30 1719 C 156.252 0.645308 3.55694 0
M  V30 1720 O 155.973 1.99764 3.89905 0
M  V30 1721 C 157.474 0.272326 4.42463 0
M  V30 1722 H 154.694 0.193462 0.642506 0
M  V30 1723 H 157.238 1.1723 1.67563 0
M  V30 1724 H 155.393 0.0173176 3.87396 0
M  V30 1725 H 155.807 2.00607 4.84621 0
M  V30 1726 H 157.281 0.427208 5.50344 0
M  V30 1727 H 157.758 -0.788587 4.32062 0
M  V30 1728 H 158.364 0.876054 4.1618 0
M  V30 1729 N 156.679 -1.44442 0.630414 0
M  V30 1730 C 157.589 -2.34476 -0.0761693 0
M  V30 1731 C 158.605 -1.52576 -0.836449 0
M  V30 1732 O 159.781 -1.85307 -0.788874 0
M  V30 1733 C 156.846 -3.30545 -1.04599 0
M  V30 1734 C 155.907 -4.28352 -0.28516 0
M  V30 1735 C 155.14 -5.19831 -1.20878 0
M  V30 1736 O 155.363 -5.15223 -2.44747 0
M  V30 1737 O 154.297 -5.97892 -0.693491 0
M  V30 1738 H 158.123 -2.96345 0.664324 0
M  V30 1739 H 155.708 -1.44203 0.39061 0
M  V30 1740 H 157.59 -3.89681 -1.60396 0
M  V30 1741 H 156.265 -2.7121 -1.76711 0
M  V30 1742 H 155.172 -3.72764 0.315837 0
M  V30 1743 H 156.505 -4.90605 0.395924 0
M  V30 1744 N 158.157 -0.370918 -1.53173 0
M  V30 1745 C 159.12 0.460778 -2.24521 0
M  V30 1746 C 160.12 1.00536 -1.25496 0
M  V30 1747 O 161.31 0.890266 -1.49733 0
M  V30 1748 C 158.442 1.64457 -2.98608 0
M  V30 1749 H 159.635 -0.163613 -2.99453 0
M  V30 1750 H 157.188 -0.122699 -1.55818 0
M  V30 1751 H 157.923 2.30691 -2.2793 0
M  V30 1752 H 157.708 1.26099 -3.7127 0
M  V30 1753 H 159.198 2.23384 -3.5283 0
M  V30 1754 N 159.635 1.57281 -0.100228 0
M  V30 1755 C 160.881 1.94826 0.563101 0
M  V30 1756 C 161.214 0.982475 1.67514 0
M  V30 1757 O 160.489 0.0164069 1.94493 0
M  V30 1758 C 160.772 3.42453 1.11346 0
M  V30 1759 C 160.625 4.498 0.00612081 0
M  V30 1760 C 161.944 3.91506 2.01024 0
M  V30 1761 H 159.063 0.708428 0.203221 0
M  V30 1762 H 161.705 1.8922 -0.171979 0
M  V30 1763 H 159.855 3.47361 1.7399 0
M  V30 1764 H 161.527 4.57 -0.628357 0
M  V30 1765 H 159.77 4.28756 -0.659581 0
M  V30 1766 H 160.441 5.50306 0.432109 0
M  V30 1767 H 162.917 3.88784 1.48278 0
M  V30 1768 H 161.793 4.95358 2.36457 0
M  V30 1769 H 162.054 3.31099 2.92961 0
M  V30 1770 N 161.113 -0.173488 1.56642 0
M  V30 1771 C 162.338 -0.910149 1.86363 0
M  V30 1772 C 162.763 -1.75132 0.686318 0
M  V30 1773 O 162.121 -1.77595 -0.364643 0
M  V30 1774 C 162.169 -1.76447 3.14482 0
M  V30 1775 O 161.273 -2.86584 2.96553 0
M  V30 1776 H 160.614 -0.255086 0.613047 0
M  V30 1777 H 163.144 -0.172283 2.03873 0
M  V30 1778 H 163.154 -2.16483 3.45831 0
M  V30 1779 H 161.829 -1.14658 3.99783 0
M  V30 1780 H 160.406 -2.50146 2.76553 0
M  V30 1781 N 162.591 -1.51276 -0.441967 0
M  V30 1782 C 163.84 -1.6295 -1.18871 0
M  V30 1783 C 164.153 -0.349312 -1.92456 0
M  V30 1784 O 165.359 -0.345355 -2.69295 0
M  V30 1785 C 163.815 -2.87759 -2.16155 0
M  V30 1786 C 163.423 -4.22764 -1.48239 0
M  V30 1787 C 165.167 -3.08788 -2.91291 0
M  V30 1788 C 163.074 -5.38728 -2.4398 0
M  V30 1789 H 162.004 -0.606913 -0.447406 0
M  V30 1790 H 164.655 -1.77739 -0.456205 0
M  V30 1791 H 163.037 -2.66593 -2.92821 0
M  V30 1792 H 164.211 -4.54293 -0.771635 0
M  V30 1793 H 162.526 -4.07575 -0.852741 0
M  V30 1794 H 165.123 -3.92599 -3.63002 0
M  V30 1795 H 165.466 -2.21679 -3.5237 0
M  V30 1796 H 165.999 -3.30272 -2.21733 0
M  V30 1797 H 162.738 -6.28082 -1.87598 0
M  V30 1798 H 162.258 -5.1158 -3.13123 0
M  V30 1799 H 163.937 -5.70489 -3.05207 0
M  V30 1800 N 164.069 0.697108 -1.41344 0
M  V30 1801 C 165.315 1.4593 -1.40827 0
M  V30 1802 C 165.648 1.94193 -0.0167098 0
M  V30 1803 O 164.923 1.69425 0.955263 0
M  V30 1804 C 165.206 2.67229 -2.41373 0
M  V30 1805 C 165.059 2.24741 -3.8963 0
M  V30 1806 C 166.378 3.69423 -2.39196 0
M  V30 1807 H 163.497 0.529303 -0.512842 0
M  V30 1808 H 166.139 0.794112 -1.72609 0
M  V30 1809 H 164.289 3.23982 -2.14401 0
M  V30 1810 H 165.961 1.73327 -4.27499 0
M  V30 1811 H 164.204 1.56542 -4.0457 0
M  V30 1812 H 164.875 3.1177 -4.55525 0
M  V30 1813 H 167.351 3.2234 -2.63128 0
M  V30 1814 H 166.227 4.51907 -3.11563 0
M  V30 1815 H 166.488 4.19012 -1.41001 0
M  V30 1816 N 165.547 1.27147 0.931209 0
M  V30 1817 C 166.477 1.12081 2.04842 0
M  V30 1818 C 167.458 0.0232364 1.70084 0
M  V30 1819 O 168.643 0.197085 1.93197 0
M  V30 1820 C 165.773 0.76354 3.38803 0
M  V30 1821 C 164.727 1.81396 3.87659 0
M  V30 1822 C 164.053 1.31075 5.18385 0
M  V30 1823 C 165.353 3.21739 4.11438 0
M  V30 1824 H 167.047 2.05537 2.17703 0
M  V30 1825 H 164.593 0.989603 1.04608 0
M  V30 1826 H 166.546 0.644982 4.16435 0
M  V30 1827 H 165.27 -0.206727 3.25945 0
M  V30 1828 H 163.929 1.92136 3.12217 0
M  V30 1829 H 163.577 0.330037 5.01916 0
M  V30 1830 H 163.277 2.013 5.52044 0
M  V30 1831 H 164.801 1.20506 5.98591 0
M  V30 1832 H 166.215 3.14019 4.79651 0
M  V30 1833 H 164.612 3.89644 4.56397 0
M  V30 1834 H 165.682 3.67054 3.16859 0
M  V30 1835 N 167.025 -1.13721 1.09112 0
M  V30 1836 C 167.988 -2.17222 0.731241 0
M  V30 1837 C 168.988 -1.59035 -0.237566 0
M  V30 1838 O 170.178 -1.74192 -0.0161704 0
M  V30 1839 C 167.31 -3.40804 0.0808443 0
M  V30 1840 H 168.503 -2.50573 1.64783 0
M  V30 1841 H 166.056 -1.28493 0.889897 0
M  V30 1842 H 166.791 -3.1304 -0.847127 0
M  V30 1843 H 166.576 -3.84306 0.777896 0
M  V30 1844 H 168.066 -4.1731 -0.155657 0
M  V30 1845 N 168.503 -0.877838 -1.30888 0
M  V30 1846 C 169.914 -0.544193 -1.78593 0
M  V30 1847 C 170.265 0.939301 -1.72254 0
M  V30 1848 O 169.39 1.7337 -1.29505 0
M  V30 1849 C 169.985 -0.98105 -3.24285 0
M  V30 1850 C 168.544 -0.698935 -3.69854 0
M  V30 1851 C 167.691 -1.168 -2.51502 0
M  V30 1852 H 170.642 -1.06278 -1.17859 0
M  V30 1853 H 170.663 -0.307009 -3.79259 0
M  V30 1854 H 170.175 -2.06079 -3.28866 0
M  V30 1855 H 168.276 0.369112 -3.70767 0
M  V30 1856 H 168.389 -1.28148 -4.61644 0
M  V30 1857 H 166.753 -0.587535 -2.47831 0
M  V30 1858 H 167.536 -2.25533 -2.58824 0
M  V30 1859 N 169.982 1.44106 -0.638065 0
M  V30 1860 C 170.932 2.27843 0.0847285 0
M  V30 1861 C 171.916 1.39055 0.809471 0
M  V30 1862 O 173.108 1.62808 0.694435 0
M  V30 1863 C 170.237 3.26497 1.06089 0
M  V30 1864 C 169.323 4.22772 0.33541 0
M  V30 1865 N 169.714 5.01737 -0.639787 0
M  V30 1866 C 168.012 4.42227 0.578921 0
M  V30 1867 C 168.713 5.71792 -1.06904 0
M  V30 1868 N 167.689 5.42079 -0.406395 0
M  V30 1869 H 171.491 2.86305 -0.663814 0
M  V30 1870 H 169.005 1.55627 -0.464122 0
M  V30 1871 H 171.002 3.8525 1.59337 0
M  V30 1872 H 169.662 2.69595 1.80966 0
M  V30 1873 H 170.673 5.07799 -1.01789 0
M  V30 1874 H 167.35 3.96415 1.31003 0
M  V30 1875 H 168.74 6.45205 -1.8751 0
M  V30 1876 N 171.46 0.379036 1.52974 0
M  V30 1877 C 172.707 -0.206421 2.01445 0
M  V30 1878 C 173.035 -1.47668 1.26587 0
M  V30 1879 O 172.29 -1.92514 0.351675 0
M  V30 1880 C 172.589 -0.53096 3.53434 0
M  V30 1881 C 172.255 0.646546 4.46241 0
M  V30 1882 C 170.917 0.969604 4.7133 0
M  V30 1883 C 173.269 1.43479 5.01062 0
M  V30 1884 C 170.597 2.08263 5.48492 0
M  V30 1885 C 172.949 2.53834 5.7944 0
M  V30 1886 C 171.613 2.86659 6.02812 0
M  V30 1887 H 170.883 -0.0755349 0.73714 0
M  V30 1888 H 173.53 0.514271 1.84465 0
M  V30 1889 H 171.835 -1.33285 3.68432 0
M  V30 1890 H 173.532 -0.996417 3.88423 0
M  V30 1891 H 170.122 0.384734 4.2687 0
M  V30 1892 H 174.306 1.19844 4.81613 0
M  V30 1893 H 169.562 2.34078 5.64816 0
M  V30 1894 H 173.736 3.15319 6.20924 0
M  V30 1895 H 171.363 3.73026 6.62387 0
M  V30 1896 N 172.938 -1.57226 0.108567 0
M  V30 1897 C 174.163 -1.99604 -0.563303 0
M  V30 1898 C 174.588 -0.987563 -1.6009 0
M  V30 1899 O 173.946 0.0421687 -1.81251 0
M  V30 1900 C 173.994 -3.40902 -1.17552 0
M  V30 1901 O 173.098 -3.42896 -2.2912 0
M  V30 1902 H 172.439 -0.648704 -0.1417 0
M  V30 1903 H 174.969 -2.03679 0.193961 0
M  V30 1904 H 174.979 -3.78886 -1.51357 0
M  V30 1905 H 173.654 -4.1382 -0.415445 0
M  V30 1906 H 172.231 -3.1672 -1.96832 0
M  V30 1907 N 174.416 0.165178 -1.56732 0
M  V30 1908 C 175.644 0.896218 -1.86482 0
M  V30 1909 C 176.059 1.75555 -0.694675 0
M  V30 1910 O 175.416 1.79379 0.33607 0
M  V30 1911 C 175.467 1.76792 -3.1532 0
M  V30 1912 O 175.188 0.943239 -4.27825 0
M  V30 1913 C 176.689 2.6081 -3.58459 0
M  V30 1914 H 173.909 0.260064 -0.618553 0
M  V30 1915 H 176.453 0.163428 -2.03846 0
M  V30 1916 H 174.608 2.45398 -2.99764 0
M  V30 1917 H 175.022 1.53998 -5.01383 0
M  V30 1918 H 176.496 3.17579 -4.51495 0
M  V30 1919 H 176.973 3.35977 -2.82872 0
M  V30 1920 H 177.579 1.97526 -3.76648 0
M  V30 1921 N 175.894 1.51508 0.433938 0
M  V30 1922 C 177.141 1.64345 1.18309 0
M  V30 1923 C 177.469 0.361315 1.91115 0
M  V30 1924 O 176.724 -0.654753 1.84422 0
M  V30 1925 C 177.023 2.79928 2.22205 0
M  V30 1926 C 176.689 4.19078 1.66387 0
M  V30 1927 C 175.351 4.56932 1.50887 0
M  V30 1928 C 177.703 5.05894 1.25381 0
M  V30 1929 C 175.031 5.79305 0.928608 0
M  V30 1930 C 177.383 6.2885 0.687823 0
M  V30 1931 C 176.047 6.65473 0.519755 0
M  V30 1932 H 175.317 0.601381 0.432923 0
M  V30 1933 H 177.964 1.85549 0.473676 0
M  V30 1934 H 176.269 2.52959 2.99197 0
M  V30 1935 H 177.966 2.87059 2.79997 0
M  V30 1936 H 174.556 3.89234 1.79428 0
M  V30 1937 H 178.74 4.77253 1.36175 0
M  V30 1938 H 173.996 6.06324 0.786186 0
M  V30 1939 H 178.17 6.95461 0.361581 0
M  V30 1940 H 175.797 7.6017 0.0679979 0
M  V30 1941 N 177.372 -0.689602 1.41712 0
M  V30 1942 C 178.597 -1.48329 1.44959 0
M  V30 1943 C 179.022 -1.8801 0.0581283 0
M  V30 1944 O 178.38 -1.55026 -0.940035 0
M  V30 1945 C 178.428 -2.71835 2.36935 0
M  V30 1946 O 177.532 -3.69549 1.8305 0
M  V30 1947 H 176.873 -0.446199 0.491734 0
M  V30 1948 H 179.403 -0.847127 1.86239 0
M  V30 1949 H 179.413 -3.20076 2.53013 0
M  V30 1950 H 178.088 -2.42291 3.38035 0
M  V30 1951 H 176.665 -3.2851 1.76452 0
M  V30 1952 N 178.85 -1.27639 -0.924453 0
M  V30 1953 C 180.096 -1.14336 -1.67497 0
M  V30 1954 C 180.429 0.309465 -1.91718 0
M  V30 1955 O 179.704 1.22608 -1.50989 0
M  V30 1956 C 179.987 -1.93096 -3.0395 0
M  V30 1957 C 179.84 -3.46381 -2.8695 0
M  V30 1958 C 181.159 -1.73798 -4.0433 0
M  V30 1959 H 178.278 -0.416728 -0.607871 0
M  V30 1960 H 180.92 -1.56832 -1.07256 0
M  V30 1961 H 179.07 -1.56982 -3.55372 0
M  V30 1962 H 180.742 -3.92343 -2.42621 0
M  V30 1963 H 178.985 -3.72557 -2.22225 0
M  V30 1964 H 179.656 -3.96735 -3.83804 0
M  V30 1965 H 182.132 -2.05293 -3.61931 0
M  V30 1966 H 181.008 -2.31294 -4.97789 0
M  V30 1967 H 181.269 -0.686725 -4.36734 0
M  V30 1968 N 180.328 1.1314 -1.09713 0
M  V30 1969 C 181.26 2.18343 -0.697056 0
M  V30 1970 C 182.273 1.60669 0.262551 0
M  V30 1971 O 183.462 1.78435 0.0481527 0
M  V30 1972 C 180.562 3.38899 -0.00684728 0
M  V30 1973 C 179.735 4.26078 -0.988741 0
M  V30 1974 C 178.794 5.25155 -0.331394 0
M  V30 1975 O 177.82 5.60701 -0.979926 0
M  V30 1976 N 179.022 5.73271 0.913261 0
M  V30 1977 H 181.787 2.5328 -1.60216 0
M  V30 1978 H 179.348 1.28491 -0.984971 0
M  V30 1979 H 181.34 4.02255 0.444191 0
M  V30 1980 H 179.91 3.02175 0.800551 0
M  V30 1981 H 179.13 3.59453 -1.61826 0
M  V30 1982 H 180.418 4.81178 -1.65364 0
M  V30 1983 H 179.816 5.46544 1.45966 0
M  V30 1984 H 178.373 6.3855 1.30757 0
M  V30 1985 N 181.806 0.884767 1.30421 0
M  V30 1986 C 183.031 0.517288 2.00845 0
M  V30 1987 C 183.456 -0.886779 1.65885 0
M  V30 1988 O 182.814 -1.58768 0.875354 0
M  V30 1989 C 182.862 0.698994 3.5376 0
M  V30 1990 O 181.966 -0.255208 4.1161 0
M  V30 1991 H 181.307 0.203872 0.631927 0
M  V30 1992 H 183.837 1.19225 1.66272 0
M  V30 1993 H 183.847 0.597912 4.03595 0
M  V30 1994 H 182.522 1.72271 3.78544 0
M  V30 1995 H 181.099 -0.10784 3.72744 0
M  V30 1996 N 183.284 -1.43765 0.645699 0
M  V30 1997 C 184.514 -2.05953 0.163318 0
M  V30 1998 C 184.922 -1.48432 -1.17322 0
M  V30 1999 O 184.265 -0.607295 -1.73371 0
M  V30 2000 C 184.327 -3.59499 -0.0103065 0
M  V30 2001 C 183.991 -4.39563 1.25035 0
M  V30 2002 C 184.988 -4.72108 2.17739 0
M  V30 2003 C 182.673 -4.79697 1.48983 0
M  V30 2004 C 184.667 -5.43688 3.3269 0
M  V30 2005 C 182.354 -5.51023 2.64229 0
M  V30 2006 C 183.352 -5.8294 3.55908 0
M  V30 2007 O 183.04 -6.5281 4.69142 0
M  V30 2008 H 182.772 -0.670798 0.0836986 0
M  V30 2009 H 185.326 -1.85384 0.884407 0
M  V30 2010 H 183.556 -3.78613 -0.78669 0
M  V30 2011 H 185.245 -4.03408 -0.449087 0
M  V30 2012 H 186.011 -4.41627 2.00476 0
M  V30 2013 H 181.89 -4.54266 0.785078 0
M  V30 2014 H 185.434 -5.68517 4.04269 0
M  V30 2015 H 181.331 -5.8092 2.81429 0
M  V30 2016 H 182.099 -6.71288 4.6831 0
M  V30 2017 N 184.763 -0.387143 -1.52771 0
M  V30 2018 C 185.711 0.463953 -2.27926 0
M  V30 2019 C 186.705 1.06493 -1.31741 0
M  V30 2020 O 187.911 1.00565 -1.49287 0
M  V30 2021 H 184.286 0.16837 -0.732909 0
M  V30 2022 H 186.257 -0.19141 -2.97785 0
M  V30 2023 C 185.006 1.5803 -3.09713 0
M  V30 2024 H 184.329 1.12718 -3.83581 0
M  V30 2025 H 185.769 2.15008 -3.65442 0
M  V30 2026 C 184.228 2.53509 -2.2189 0
M  V30 2027 O 184.758 3.56863 -1.84422 0
M  V30 2028 N 182.964 2.23199 -1.86093 0
M  V30 2029 H 182.511 1.39185 -2.16761 0
M  V30 2030 H 182.469 2.87333 -1.27621 0
M  V30 2031 N 186.241 1.57166 -0.116904 0
M  V30 2032 C 187.188 2.15202 0.83408 0
M  V30 2033 C 188.158 1.07644 1.26499 0
M  V30 2034 O 189.343 1.35541 1.34288 0
M  V30 2035 C 186.483 2.75405 2.07957 0
M  V30 2036 C 185.596 3.97264 1.69721 0
M  V30 2037 C 184.731 4.45561 2.89221 0
M  V30 2038 C 183.77 5.59956 2.47215 0
M  V30 2039 N 182.907 6.03006 3.59622 0
M  V30 2040 H 187.747 2.96141 0.332335 0
M  V30 2041 H 185.284 1.46309 0.152349 0
M  V30 2042 H 187.242 3.08439 2.80929 0
M  V30 2043 H 185.872 1.97159 2.55594 0
M  V30 2044 H 184.924 3.70404 0.866316 0
M  V30 2045 H 186.236 4.80226 1.34849 0
M  V30 2046 H 185.39 4.80493 3.7042 0
M  V30 2047 H 184.129 3.61544 3.27318 0
M  V30 2048 H 183.134 5.2463 1.64448 0
M  V30 2049 H 184.359 6.45738 2.10238 0
M  V30 2050 H 182.305 5.21931 3.97396 0
M  V30 2051 H 182.222 6.80819 3.28667 0
M  V30 2052 H 183.49 6.42576 4.41267 0
M  V30 2053 N 187.719 -0.156864 1.56817 0
M  V30 2054 C 189.135 -0.50916 1.5126 0
M  V30 2055 C 189.335 -1.83897 0.823658 0
M  V30 2056 O 188.391 -2.49469 0.390055 0
M  V30 2057 C 189.704 -0.52857 2.96018 0
M  V30 2058 C 191.252 -0.614771 3.06903 0
M  V30 2059 C 191.727 -0.664938 4.53147 0
M  V30 2060 N 193.218 -0.727433 4.57452 0
M  V30 2061 C 193.953 -0.787067 5.67973 0
M  V30 2062 N 193.449 -0.806649 6.88088 0
M  V30 2063 N 195.242 -0.827195 5.5598 0
M  V30 2064 H 187.393 0.714935 2.00006 0
M  V30 2065 H 189.656 0.259526 0.911784 0
M  V30 2066 H 189.362 0.380154 3.49639 0
M  V30 2067 H 189.236 -1.36998 3.51442 0
M  V30 2068 H 191.623 -1.51392 2.53307 0
M  V30 2069 H 191.704 0.253597 2.5454 0
M  V30 2070 H 191.348 0.230011 5.07379 0
M  V30 2071 H 191.278 -1.54966 5.03282 0
M  V30 2072 H 193.769 -0.719998 3.70978 0
M  V30 2073 H 194.082 -0.853727 7.6807 0
M  V30 2074 H 192.427 -0.774687 6.90669 0
M  V30 2075 H 195.618 -0.808998 4.61056 0
M  V30 2076 H 195.791 -0.870206 6.4213 0
M  V30 2077 N 189.197 -1.51736 -0.425897 0
M  V30 2078 C 190.16 -1.73271 -1.50032 0
M  V30 2079 C 191.16 -0.602639 -1.4908 0
M  V30 2080 O 192.35 -0.87033 -1.509 0
M  V30 2081 C 189.482 -1.79969 -2.89523 0
M  V30 2082 H 190.675 -2.69172 -1.32237 0
M  V30 2083 H 188.228 -1.41899 -0.65532 0
M  V30 2084 H 188.963 -0.859241 -3.1271 0
M  V30 2085 H 188.748 -2.62109 -2.91619 0
M  V30 2086 H 190.238 -1.9843 -3.67444 0
M  V30 2087 N 190.675 0.682077 -1.42076 0
M  V30 2088 C 191.622 1.79578 -1.44984 0
M  V30 2089 C 192.592 1.6332 -0.302614 0
M  V30 2090 O 193.777 1.83978 -0.505633 0
M  V30 2091 C 190.917 3.1756 -1.35091 0
M  V30 2092 C 190.03 3.45156 -2.59791 0
M  V30 2093 C 189.165 4.72826 -2.42093 0
M  V30 2094 C 188.204 4.93433 -3.62202 0
M  V30 2095 N 187.341 6.12338 -3.43491 0
M  V30 2096 H 192.181 1.76427 -2.40161 0
M  V30 2097 H 189.718 0.861376 -1.19242 0
M  V30 2098 H 191.676 3.97287 -1.27354 0
M  V30 2099 H 190.306 3.19854 -0.435133 0
M  V30 2100 H 189.358 2.59736 -2.77923 0
M  V30 2101 H 190.67 3.5628 -3.49094 0
M  V30 2102 H 189.824 5.60631 -2.319 0
M  V30 2103 H 188.563 4.63973 -1.50268 0
M  V30 2104 H 187.568 4.04073 -3.72834 0
M  V30 2105 H 188.793 5.04136 -4.54998 0
M  V30 2106 H 186.739 6.04672 -2.54377 0
M  V30 2107 H 186.656 6.2429 -4.26377 0
M  V30 2108 H 187.924 7.02841 -3.37097 0
M  V30 2109 N 192.153 1.28127 0.917671 0
M  V30 2110 C 193.063 1.13556 2.05286 0
M  V30 2111 C 194.079 0.0630914 1.73886 0
M  V30 2112 O 195.255 0.271598 1.9956 0
M  V30 2113 C 192.32 0.794676 3.3747 0
M  V30 2114 C 191.381 1.94909 3.82504 0
M  V30 2115 C 190.614 1.62437 5.0838 0
M  V30 2116 O 190.837 0.536905 5.67867 0
M  V30 2117 O 189.771 2.46677 5.4903 0
M  V30 2118 H 193.597 2.08844 2.20495 0
M  V30 2119 H 191.182 1.07409 1.03845 0
M  V30 2120 H 193.064 0.618344 4.16839 0
M  V30 2121 H 191.739 -0.128581 3.23445 0
M  V30 2122 H 190.646 2.18055 3.03978 0
M  V30 2123 H 191.979 2.85291 4.01086 0
M  V30 2124 N 193.631 -1.12557 1.10312 0
M  V30 2125 C 194.541 -2.21841 0.763142 0
M  V30 2126 C 195.557 -1.72354 -0.238801 0
M  V30 2127 O 196.733 -2.01249 -0.0778746 0
M  V30 2128 C 193.798 -3.46131 0.198632 0
M  V30 2129 C 192.859 -4.10464 1.25769 0
M  V30 2130 C 192.092 -5.28821 0.72002 0
M  V30 2131 O 192.315 -5.6859 -0.453993 0
M  V30 2132 O 191.249 -5.83437 1.47935 0
M  V30 2133 H 195.075 -2.53312 1.67532 0
M  V30 2134 H 192.66 -1.20867 0.878157 0
M  V30 2135 H 194.542 -4.2125 -0.112401 0
M  V30 2136 H 193.217 -3.16338 -0.686419 0
M  V30 2137 H 192.124 -3.3713 1.62156 0
M  V30 2138 H 193.457 -4.44408 2.11571 0
M  V30 2139 N 195.109 -0.891671 -1.2995 0
M  V30 2140 C 196.072 -0.36828 -2.26222 0
M  V30 2141 C 197.072 0.493014 -1.53056 0
M  V30 2142 O 198.262 0.299213 -1.71611 0
M  V30 2143 C 195.394 0.47442 -3.37583 0
M  V30 2144 H 196.587 -1.21844 -2.74033 0
M  V30 2145 H 194.14 -0.669107 -1.41254 0
M  V30 2146 H 194.875 1.34489 -2.95099 0
M  V30 2147 H 194.66 -0.142615 -3.91841 0
M  V30 2148 H 196.15 0.83218 -4.09224 0
M  V30 2149 N 196.587 1.43421 -0.653314 0
M  V30 2150 C 197.497 2.34568 0.0388565 0
M  V30 2151 C 198.513 1.53888 0.81207 0
M  V30 2152 O 199.689 1.86539 0.759294 0
M  V30 2153 C 196.754 3.32167 0.993269 0
M  V30 2154 C 195.815 4.28751 0.216977 0
M  V30 2155 C 195.048 5.21688 1.12593 0
M  V30 2156 O 195.271 5.19052 2.36519 0
M  V30 2157 O 194.205 5.98919 0.598284 0
M  V30 2158 H 198.031 2.95251 -0.711386 0
M  V30 2159 H 195.616 1.43564 -0.413502 0
M  V30 2160 H 197.498 3.92183 1.54176 0
M  V30 2161 H 196.173 2.73987 1.72374 0
M  V30 2162 H 195.08 3.72215 -0.375101 0
M  V30 2163 H 196.413 4.89913 -0.473924 0
M  V30 2164 N 198.065 0.39524 1.52563 0
M  V30 2165 C 199.012 -0.437036 2.26624 0
M  V30 2166 C 199.982 -1.05281 1.28472 0
M  V30 2167 O 201.167 -1.07971 1.57311 0
M  V30 2168 C 198.307 -1.55524 3.08069 0
M  V30 2169 C 197.42 -0.961745 4.21158 0
M  V30 2170 C 196.555 -2.05149 4.89987 0
M  V30 2171 C 195.594 -1.4342 5.95061 0
M  V30 2172 N 194.731 -2.46351 6.57462 0
M  V30 2173 H 199.571 0.200976 2.97322 0
M  V30 2174 H 197.108 0.110944 1.46681 0
M  V30 2175 H 199.066 -2.21437 3.53584 0
M  V30 2176 H 197.696 -2.16348 2.3957 0
M  V30 2177 H 196.748 -0.192048 3.79915 0
M  V30 2178 H 198.06 -0.470701 4.96574 0
M  V30 2179 H 197.214 -2.78819 5.38837 0
M  V30 2180 H 195.953 -2.57615 4.14109 0
M  V30 2181 H 194.958 -0.682774 5.45544 0
M  V30 2182 H 196.183 -0.917416 6.72875 0
M  V30 2183 H 194.129 -2.97975 5.8442 0
M  V30 2184 H 194.046 -2.02019 7.28508 0
M  V30 2185 H 195.314 -3.19633 7.10954 0
M  V30 2186 N 199.544 -1.57102 0.125237 0
M  V30 2187 C 200.474 -2.18659 -0.819174 0
M  V30 2188 C 201.455 -1.12843 -1.27281 0
M  V30 2189 O 202.64 -1.41104 -1.33429 0
M  V30 2190 C 199.77 -2.79096 -2.06695 0
M  V30 2191 C 198.724 -3.90548 -1.75088 0
M  V30 2192 C 198.05 -4.37821 -3.06948 0
M  V30 2193 C 199.35 -5.12356 -1.01435 0
M  V30 2194 H 201.044 -2.9783 -0.306202 0
M  V30 2195 H 198.59 -1.4326 -0.145839 0
M  V30 2196 H 200.543 -3.2082 -2.73226 0
M  V30 2197 H 199.267 -1.97223 -2.60328 0
M  V30 2198 H 197.926 -3.49409 -1.10944 0
M  V30 2199 H 197.574 -3.52799 -3.58527 0
M  V30 2200 H 197.274 -5.12982 -2.86571 0
M  V30 2201 H 198.798 -4.822 -3.74587 0
M  V30 2202 H 200.212 -5.5106 -1.58132 0
M  V30 2203 H 198.609 -5.9314 -0.911319 0
M  V30 2204 H 199.679 -4.849 -0.00218681 0
M  V30 2205 N 201.022 0.148545 -1.56898 0
M  V30 2206 C 202.27 0.859717 -1.82902 0
M  V30 2207 C 202.591 1.81775 -0.70588 0
M  V30 2208 O 201.861 1.93994 0.272586 0
M  V30 2209 H 200.441 0.320469 -0.674766 0
M  V30 2210 H 203.103 0.142918 -1.94375 0
M  V30 2211 H 202.199 1.4229 -2.77777 0
M  V30 2212 N 202.5 1.5196 0.417844 0
M  V30 2213 C 203.748 1.65263 1.16329 0
M  V30 2214 C 204.069 0.380634 1.91249 0
M  V30 2215 O 203.339 -0.604214 1.86349 0
M  V30 2216 H 201.919 0.60912 0.432414 0
M  V30 2217 H 204.581 1.88969 0.477162 0
M  V30 2218 H 203.677 2.4896 1.88217 0
M  V30 2219 N 203.978 -0.674533 1.42435 0
M  V30 2220 C 204.908 -1.80009 1.48724 0
M  V30 2221 C 205.889 -1.6659 0.343793 0
M  V30 2222 O 207.074 -1.86007 0.558137 0
M  V30 2223 C 204.204 -3.18306 1.38919 0
M  V30 2224 C 203.158 -3.46461 2.51294 0
M  V30 2225 C 202.484 -4.84335 2.26547 0
M  V30 2226 C 203.784 -3.43328 3.93603 0
M  V30 2227 H 205.478 -1.75004 2.42928 0
M  V30 2228 H 203.024 -0.840533 1.16923 0
M  V30 2229 H 204.977 -3.9678 1.41927 0
M  V30 2230 H 203.701 -3.2399 0.412094 0
M  V30 2231 H 202.36 -2.70348 2.47604 0
M  V30 2232 H 202.008 -4.86669 1.2713 0
M  V30 2233 H 201.708 -5.04136 3.01861 0
M  V30 2234 H 203.232 -5.65094 2.31304 0
M  V30 2235 H 204.646 -4.11772 3.98894 0
M  V30 2236 H 203.043 -3.74664 4.68771 0
M  V30 2237 H 204.113 -2.41897 4.20255 0
M  V30 2238 N 205.456 -1.28612 -0.910864 0
M  V30 2239 C 206.684 -1.18792 -1.69399 0
M  V30 2240 C 207.099 0.253039 -1.87097 0
M  V30 2241 O 206.456 1.17071 -1.40003 0
M  V30 2242 C 206.507 -1.88511 -3.08457 0
M  V30 2243 O 206.228 -3.26979 -2.91576 0
M  V30 2244 C 207.729 -1.85029 -4.02839 0
M  V30 2245 H 204.949 -0.412233 -0.529438 0
M  V30 2246 H 207.493 -1.69788 -1.13984 0
M  V30 2247 H 205.648 -1.41379 -3.60681 0
M  V30 2248 H 206.062 -3.61936 -3.79608 0
M  V30 2249 H 207.536 -2.38395 -4.97867 0
M  V30 2250 H 208.013 -0.823303 -4.31414 0
M  V30 2251 H 208.619 -2.31853 -3.56545 0
M  V30 2252 N 206.934 1.1197 -1.10907 0
M  V30 2253 C 208.183 1.82947 -0.849302 0
M  V30 2254 C 208.496 1.85275 0.627112 0
M  V30 2255 O 209.702 2.52296 1.00295 0
M  V30 2256 C 208.158 3.28529 -1.46959 0
M  V30 2257 C 207.766 3.34546 -2.97965 0
M  V30 2258 C 209.51 4.04443 -1.28942 0
M  V30 2259 C 207.417 4.74491 -3.53004 0
M  V30 2260 H 206.347 0.685477 -0.314065 0
M  V30 2261 H 208.998 1.2604 -1.33365 0
M  V30 2262 H 207.38 3.85333 -0.912917 0
M  V30 2263 H 208.554 2.87654 -3.59989 0
M  V30 2264 H 206.869 2.72108 -3.15192 0
M  V30 2265 H 209.466 5.07787 -1.67502 0
M  V30 2266 H 209.809 4.15656 -0.231456 0
M  V30 2267 H 210.342 3.5401 -1.81443 0
M  V30 2268 H 207.081 4.68474 -4.58489 0
M  V30 2269 H 206.601 5.21816 -2.9575 0
M  V30 2270 H 208.28 5.4344 -3.51115 0
M  V30 2271 N 208.412 0.89855 1.29475 0
M  V30 2272 C 209.64 0.539261 1.99749 0
M  V30 2273 C 210.055 -0.875716 1.67262 0
M  V30 2274 O 209.412 -1.57786 0.917049 0
M  V30 2275 C 209.463 0.72061 3.54245 0
M  V30 2276 O 209.184 2.07989 3.8558 0
M  V30 2277 C 210.685 0.366118 4.41786 0
M  V30 2278 H 207.905 0.207047 0.638258 0
M  V30 2279 H 210.449 1.20758 1.65039 0
M  V30 2280 H 208.604 0.0994862 3.87272 0
M  V30 2281 H 209.018 2.10841 4.80257 0
M  V30 2282 H 210.492 0.543848 5.49314 0
M  V30 2283 H 210.969 -0.696763 4.33638 0
M  V30 2284 H 211.575 0.964135 4.14228 0
M  V30 2285 N 209.89 -1.43072 0.660911 0
M  V30 2286 C 211.115 -2.06584 0.183805 0
M  V30 2287 C 211.54 -1.49257 -1.14472 0
M  V30 2288 O 210.898 -0.605528 -1.70889 0
M  V30 2289 C 210.946 -3.60418 0.114434 0
M  V30 2290 O 210.05 -4.01981 -0.921137 0
M  V30 2291 H 209.391 -0.656669 0.0983994 0
M  V30 2292 H 211.921 -1.83447 0.906006 0
M  V30 2293 H 211.931 -4.07946 -0.0663394 0
M  V30 2294 H 210.606 -4.01519 1.08422 0
M  V30 2295 H 209.183 -3.66029 -0.71253 0
M  V30 2296 N 211.368 -0.403325 -1.52352 0
M  V30 2297 C 212.614 0.174605 -2.02047 0
M  V30 2298 C 212.947 1.45282 -1.28867 0
M  V30 2299 O 212.222 1.90483 -0.393257 0
M  V30 2300 C 212.505 0.428238 -3.57545 0
M  V30 2301 C 212.358 -0.866248 -4.4138 0
M  V30 2302 C 213.677 1.21287 -4.23057 0
M  V30 2303 H 210.796 0.0619851 -0.734389 0
M  V30 2304 H 213.438 -0.53565 -1.82293 0
M  V30 2305 H 211.588 1.03327 -3.74507 0
M  V30 2306 H 213.26 -1.50265 -4.3614 0
M  V30 2307 H 211.503 -1.47851 -4.07827 0
M  V30 2308 H 212.174 -0.643249 -5.48239 0
M  V30 2309 H 214.65 0.700703 -4.10158 0
M  V30 2310 H 213.526 1.35909 -5.31808 0
M  V30 2311 H 213.787 2.23193 -3.81625 0
M  V30 2312 N 212.846 1.57033 -0.133567 0
M  V30 2313 C 213.756 2.19632 0.824564 0
M  V30 2314 C 214.772 1.17666 1.28182 0
M  V30 2315 O 215.948 1.50193 1.3418 0
M  V30 2316 C 213.013 2.79499 2.05137 0
M  V30 2317 C 212.074 3.96548 1.64464 0
M  V30 2318 C 211.307 4.5355 2.81297 0
M  V30 2319 O 211.53 4.09438 3.97136 0
M  V30 2320 O 210.464 5.44018 2.57542 0
M  V30 2321 H 214.29 3.01991 0.321766 0
M  V30 2322 H 211.875 1.49112 0.0927889 0
M  V30 2323 H 213.757 3.17602 2.7696 0
M  V30 2324 H 212.432 2.00162 2.54395 0
M  V30 2325 H 211.339 3.63186 0.897048 0
M  V30 2326 H 212.672 4.77364 1.19934 0
M  V30 2327 N 214.325 -0.140222 1.56975 0
M  V30 2328 C 215.55 -0.870414 1.88251 0
M  V30 2329 C 215.975 -1.73637 0.723312 0
M  V30 2330 O 215.333 -1.78329 -0.32689 0
M  V30 2331 C 215.381 -1.69737 3.18154 0
M  V30 2332 O 214.485 -2.80229 3.02565 0
M  V30 2333 H 213.826 -0.242025 0.61832 0
M  V30 2334 H 216.356 -0.128999 2.04193 0
M  V30 2335 H 216.366 -2.09099 3.50345 0
M  V30 2336 H 215.041 -1.06152 4.02125 0
M  V30 2337 H 213.618 -2.44224 2.81796 0
M  V30 2338 N 215.803 -1.52179 -0.40978 0
M  V30 2339 C 217.049 -1.67408 -1.15525 0
M  V30 2340 C 217.404 -0.398746 -1.88223 0
M  V30 2341 O 216.697 0.60678 -1.81738 0
M  V30 2342 C 216.891 -2.83428 -2.17723 0
M  V30 2343 C 216.72 -4.22121 -1.55061 0
M  V30 2344 C 215.49 -4.87657 -1.3236 0
M  V30 2345 C 217.688 -5.04248 -1.01185 0
M  V30 2346 N 215.67 -6.10387 -0.655834 0
M  V30 2347 C 217.041 -6.18209 -0.470963 0
M  V30 2348 C 219.096 -4.89583 -0.906252 0
M  V30 2349 C 217.799 -7.1911 0.165172 0
M  V30 2350 C 219.825 -5.90718 -0.28397 0
M  V30 2351 C 219.187 -7.03969 0.246243 0
M  V30 2352 H 215.286 -0.666251 -0.409431 0
M  V30 2353 H 217.87 -1.89482 -0.447729 0
M  V30 2354 H 216.041 -2.6297 -2.85834 0
M  V30 2355 H 217.773 -2.87697 -2.84627 0
M  V30 2356 H 214.528 -4.46007 -1.59294 0
M  V30 2357 H 214.952 -6.76153 -0.338596 0
M  V30 2358 H 219.594 -4.02253 -1.302 0
M  V30 2359 H 217.312 -8.06066 0.572986 0
M  V30 2360 H 220.898 -5.81443 -0.203792 0
M  V30 2361 H 219.778 -7.80886 0.720173 0
M  V30 2362 N 217.281 0.66697 -1.42791 0
M  V30 2363 C 218.511 1.45294 -1.46878 0
M  V30 2364 C 218.919 1.89027 -0.0809861 0
M  V30 2365 O 218.262 1.59219 0.916246 0
M  V30 2366 C 218.324 2.72908 -2.34012 0
M  V30 2367 C 217.988 2.51203 -3.81767 0
M  V30 2368 C 218.985 2.15302 -4.73224 0
M  V30 2369 C 216.67 2.65954 -4.26115 0
M  V30 2370 C 218.664 1.94431 -6.07022 0
M  V30 2371 C 216.351 2.44699 -5.59969 0
M  V30 2372 C 217.349 2.08992 -6.5024 0
M  V30 2373 O 217.037 1.87948 -7.81621 0
M  V30 2374 H 216.769 0.453306 -0.501487 0
M  V30 2375 H 219.323 0.826232 -1.88049 0
M  V30 2376 H 217.553 3.38089 -1.87703 0
M  V30 2377 H 219.242 3.34816 -2.29462 0
M  V30 2378 H 220.008 2.03495 -4.40244 0
M  V30 2379 H 215.887 2.92724 -3.56137 0
M  V30 2380 H 219.431 1.66484 -6.77443 0
M  V30 2381 H 215.328 2.56105 -5.9252 0
M  V30 2382 H 216.096 2.02483 -7.93059 0
M  V30 2383 N 218.759 1.29093 0.90403 0
M  V30 2384 C 220.036 1.075 1.63411 0
M  V30 2385 C 220.416 -0.382346 2.07609 0
M  V30 2386 O 219.764 -1.37031 1.82851 0
M  V30 2387 C 219.974 2.05858 2.81822 0
M  V30 2388 C 221.322 2.36539 3.52611 0
M  V30 2389 O 222.346 2.04019 2.91984 0
M  V30 2390 O 221.205 2.92085 4.61897 0
M  V30 2391 H 218.299 0.411547 0.717327 0
M  V30 2392 H 220.845 1.40449 0.952479 0
M  V30 2393 H 219.617 3.04037 2.46327 0
M  V30 2394 H 219.24 1.73613 3.57693 0
M  V30 2395 N 220.237 -1.11381 1.11499 0
M  V30 2396 C 221.147 -2.21019 0.786628 0
M  V30 2397 C 222.163 -1.72597 -0.220507 0
M  V30 2398 O 223.339 -2.01321 -0.0565251 0
M  V30 2399 C 220.404 -3.459 0.235333 0
M  V30 2400 C 219.465 -4.09107 1.30115 0
M  V30 2401 C 218.698 -5.28027 0.776068 0
M  V30 2402 O 218.921 -5.6904 -0.393661 0
M  V30 2403 O 217.855 -5.81835 1.54114 0
M  V30 2404 H 221.681 -2.51521 1.70209 0
M  V30 2405 H 219.266 -1.19928 0.890928 0
M  V30 2406 H 221.148 -4.21346 -0.067715 0
M  V30 2407 H 219.823 -3.17049 -0.652828 0
M  V30 2408 H 218.73 -3.35391 1.65722 0
M  V30 2409 H 220.063 -4.42139 2.16273 0
M  V30 2410 N 221.715 -0.905404 -1.28997 0
M  V30 2411 C 223.126 -0.581953 -1.77398 0
M  V30 2412 C 223.477 0.902552 -1.74208 0
M  V30 2413 O 222.602 1.70584 -1.33154 0
M  V30 2414 C 223.197 -1.04961 -3.22131 0
M  V30 2415 C 221.756 -0.777229 -3.68288 0
M  V30 2416 C 220.903 -1.22109 -2.48967 0
M  V30 2417 H 223.854 -1.08754 -1.15578 0
M  V30 2418 H 223.875 -0.387387 -3.78523 0
M  V30 2419 H 223.387 -2.13008 -3.24421 0
M  V30 2420 H 221.488 0.290383 -3.71467 0
M  V30 2421 H 221.601 -1.37911 -4.58822 0
M  V30 2422 H 219.965 -0.639971 -2.46529 0
M  V30 2423 H 220.748 -2.30972 -2.53982 0
M  V30 2424 N 223.193 1.4272 -0.668489 0
M  V30 2425 C 224.14 2.30796 0.0137489 0
M  V30 2426 C 225.11 1.4561 0.799177 0
M  V30 2427 O 226.295 1.74453 0.772702 0
M  V30 2428 C 223.435 3.31377 0.963507 0
M  V30 2429 C 222.548 4.31655 0.172569 0
M  V30 2430 C 221.683 5.19312 1.1175 0
M  V30 2431 C 220.722 6.11274 0.317886 0
M  V30 2432 N 219.859 6.91504 1.2152 0
M  V30 2433 H 224.699 2.88585 -0.743161 0
M  V30 2434 H 222.236 1.42154 -0.378226 0
M  V30 2435 H 224.194 3.88214 1.52792 0
M  V30 2436 H 222.824 2.75202 1.68712 0
M  V30 2437 H 221.876 3.76988 -0.508374 0
M  V30 2438 H 223.188 4.96779 -0.448527 0
M  V30 2439 H 222.342 5.80851 1.75206 0
M  V30 2440 H 221.081 4.5435 1.77249 0
M  V30 2441 H 220.086 5.48809 -0.329918 0
M  V30 2442 H 221.311 6.78283 -0.332917 0
M  V30 2443 H 219.257 6.29176 1.85671 0
M  V30 2444 H 219.174 7.53209 0.649036 0
M  V30 2445 H 220.442 7.57535 1.83742 0
M  V30 2446 N 224.671 0.411399 1.52136 0
M  V30 2447 C 225.918 -0.163645 2.01838 0
M  V30 2448 C 226.246 -1.4495 1.29691 0
M  V30 2449 O 225.501 -1.91725 0.392431 0
M  V30 2450 C 225.8 -0.455872 3.54481 0
M  V30 2451 C 225.466 0.741055 4.44769 0
M  V30 2452 C 224.128 1.06936 4.69167 0
M  V30 2453 C 226.48 1.54075 4.97906 0
M  V30 2454 C 223.808 2.19851 5.43951 0
M  V30 2455 C 226.16 2.66067 5.73926 0
M  V30 2456 C 224.824 2.99381 5.96596 0
M  V30 2457 H 224.094 -0.0598821 0.738576 0
M  V30 2458 H 226.741 0.553283 1.83333 0
M  V30 2459 H 225.046 -1.2544 3.71177 0
M  V30 2460 H 226.743 -0.913802 3.90449 0
M  V30 2461 H 223.333 0.475192 4.25958 0
M  V30 2462 H 227.517 1.30033 4.78963 0
M  V30 2463 H 222.773 2.46006 5.59724 0
M  V30 2464 H 226.947 3.28419 6.14096 0
M  V30 2465 H 224.574 3.86992 6.54325 0
M  V30 2466 N 226.149 -1.5696 0.141893 0
M  V30 2467 C 227.395 -1.9625 -0.511248 0
M  V30 2468 C 227.728 -1.02654 -1.64851 0
M  V30 2469 O 227.003 -0.0679676 -1.94381 0
M  V30 2470 C 227.286 -3.45285 -1.02227 0
M  V30 2471 C 227.139 -4.49658 0.113138 0
M  V30 2472 C 228.458 -3.96698 -1.90574 0
M  V30 2473 H 225.577 -0.713567 -0.184367 0
M  V30 2474 H 228.219 -1.88698 0.222087 0
M  V30 2475 H 226.369 -3.51852 -1.64719 0
M  V30 2476 H 228.041 -4.55174 0.749302 0
M  V30 2477 H 226.284 -4.26857 0.773026 0
M  V30 2478 H 226.955 -5.51258 -0.286053 0
M  V30 2479 H 229.431 -3.92578 -1.37918 0
M  V30 2480 H 228.307 -5.01453 -2.2324 0
M  V30 2481 H 228.568 -3.3875 -2.84079 0
M  V30 2482 N 227.627 0.131896 -1.57047 0
M  V30 2483 C 228.855 0.856461 -1.88341 0
M  V30 2484 C 229.27 1.74042 -0.731757 0
M  V30 2485 O 228.627 1.80051 0.297945 0
M  V30 2486 C 228.678 1.70064 -3.18999 0
M  V30 2487 O 228.399 0.852278 -4.2973 0
M  V30 2488 C 229.9 2.53148 -3.63911 0
M  V30 2489 H 227.12 0.246885 -0.62393 0
M  V30 2490 H 229.664 0.120152 -2.04147 0
M  V30 2491 H 227.819 2.38984 -3.04902 0
M  V30 2492 H 228.233 1.43329 -5.04537 0
M  V30 2493 H 229.707 3.07931 -4.58129 0
M  V30 2494 H 230.184 3.29901 -2.89935 0
M  V30 2495 H 230.79 1.89492 -3.80753 0
M  V30 2496 N 229.106 1.52395 0.401703 0
M  V30 2497 C 230.336 1.70429 1.1678 0
M  V30 2498 C 230.744 0.416702 1.84554 0
M  V30 2499 O 230.087 -0.617697 1.73003 0
M  V30 2500 C 230.149 2.78919 2.26814 0
M  V30 2501 C 229.813 4.20437 1.79113 0
M  V30 2502 C 230.81 5.04028 1.27482 0
M  V30 2503 C 228.495 4.66704 1.85722 0
M  V30 2504 C 230.489 6.31961 0.830913 0
M  V30 2505 C 228.176 5.94625 1.40942 0
M  V30 2506 C 229.174 6.77082 0.897128 0
M  V30 2507 O 228.862 8.02607 0.455822 0
M  V30 2508 H 228.594 0.574272 0.356634 0
M  V30 2509 H 231.148 1.99767 0.477724 0
M  V30 2510 H 229.378 2.44973 2.99207 0
M  V30 2511 H 231.067 2.8548 2.88541 0
M  V30 2512 H 231.833 4.69471 1.21744 0
M  V30 2513 H 227.712 4.0262 2.24539 0
M  V30 2514 H 231.256 6.96271 0.430368 0
M  V30 2515 H 227.153 6.28688 1.46362 0
M  V30 2516 H 227.921 8.16453 0.578457 0
M  V30 2517 N 230.584 -0.659388 1.43143 0
M  V30 2518 C 231.83 -1.41984 1.45644 0
M  V30 2519 C 232.185 -1.92245 0.0771718 0
M  V30 2520 O 231.478 -1.68976 -0.903205 0
M  V30 2521 C 231.672 -2.62206 2.42864 0
M  V30 2522 C 231.501 -2.23711 3.90107 0
M  V30 2523 C 230.271 -2.12332 4.58523 0
M  V30 2524 C 232.469 -1.84384 4.80112 0
M  V30 2525 N 230.451 -1.67102 5.9072 0
M  V30 2526 C 231.822 -1.5019 6.01534 0
M  V30 2527 C 233.877 -1.71512 4.67427 0
M  V30 2528 C 232.58 -1.04414 7.11681 0
M  V30 2529 C 234.606 -1.27142 5.77572 0
M  V30 2530 C 233.968 -0.938808 6.98116 0
M  V30 2531 H 230.067 -0.515448 0.588079 0
M  V30 2532 H 232.651 -0.759409 1.79279 0
M  V30 2533 H 230.822 -3.25917 2.11265 0
M  V30 2534 H 232.554 -3.28877 2.35843 0
M  V30 2535 H 229.309 -2.31893 4.12944 0
M  V30 2536 H 229.733 -1.46866 6.60878 0
M  V30 2537 H 234.375 -1.95868 3.74694 0
M  V30 2538 H 232.093 -0.788061 8.04248 0
M  V30 2539 H 235.679 -1.17681 5.69774 0
M  V30 2540 H 234.559 -0.6007 7.81896 0
M  V30 2541 N 232.062 -1.29571 -0.897171 0
M  V30 2542 C 233.308 -1.17863 -1.65034 0
M  V30 2543 C 233.641 0.268729 -1.92332 0
M  V30 2544 O 232.916 1.19378 -1.53555 0
M  V30 2545 C 233.199 -1.995 -2.99786 0
M  V30 2546 C 233.052 -3.5239 -2.79538 0
M  V30 2547 C 234.371 -1.82335 -4.00552 0
M  V30 2548 H 231.49 -0.429528 -0.598895 0
M  V30 2549 H 234.132 -1.59072 -1.03905 0
M  V30 2550 H 232.282 -1.64485 -3.51962 0
M  V30 2551 H 233.954 -3.97401 -2.34244 0
M  V30 2552 H 232.197 -3.77187 -2.14273 0
M  V30 2553 H 232.868 -4.04787 -3.75302 0
M  V30 2554 H 235.344 -2.12924 -3.57495 0
M  V30 2555 H 234.22 -2.41801 -4.92771 0
M  V30 2556 H 234.481 -0.779209 -4.35179 0
M  V30 2557 N 233.54 1.10788 -1.12088 0
M  V30 2558 C 234.817 1.79136 -0.785476 0
M  V30 2559 C 235.197 1.98246 0.725377 0
M  V30 2560 O 234.545 1.57258 1.65778 0
M  V30 2561 C 234.755 3.12375 -1.55636 0
M  V30 2562 C 236.103 3.8731 -1.74001 0
M  V30 2563 O 237.127 3.22085 -1.52117 0
M  V30 2564 O 235.986 5.04369 -2.10415 0
M  V30 2565 H 233.08 0.776226 -0.285311 0
M  V30 2566 H 235.626 1.1747 -1.2247 0
M  V30 2567 H 234.398 2.93863 -2.5838 0
M  V30 2568 H 234.021 3.81758 -1.11114 0
M  V30 2569 N 235.018 0.912232 1.28515 0
M  V30 2570 C 236.434 0.610159 1.47476 0
M  V30 2571 C 236.634 -0.844955 1.82928 0
M  V30 2572 O 235.69 -1.62416 1.93332 0
M  V30 2573 C 237.003 1.54675 2.57868 0
M  V30 2574 C 238.551 1.55331 2.71738 0
M  V30 2575 C 239.026 2.47649 3.85272 0
M  V30 2576 N 240.517 2.45767 3.92623 0
M  V30 2577 C 241.252 3.13896 4.79851 0
M  V30 2578 N 240.748 3.9135 5.71679 0
M  V30 2579 N 242.541 3.02991 4.73448 0
M  V30 2580 H 234.692 1.85318 1.03783 0
M  V30 2581 H 236.955 0.794777 0.516753 0
M  V30 2582 H 236.661 2.5841 2.38574 0
M  V30 2583 H 236.535 1.27671 3.54937 0
M  V30 2584 H 238.922 0.52335 2.90422 0
M  V30 2585 H 239.003 1.86378 1.75205 0
M  V30 2586 H 238.647 3.50745 3.67342 0
M  V30 2587 H 238.577 2.13904 4.81199 0
M  V30 2588 H 241.068 1.89503 3.26951 0
M  V30 2589 H 241.381 4.40359 6.35062 0
M  V30 2590 H 239.726 3.95455 5.71524 0
M  V30 2591 H 242.917 2.41987 4.007 0
M  V30 2592 H 243.09 3.5636 5.41213 0
M  V30 2593 N 236.496 -1.42363 0.676048 0
M  V30 2594 C 237.742 -2.0182 0.199125 0
M  V30 2595 C 238.075 -1.53339 -1.19168 0
M  V30 2596 O 237.35 -0.736124 -1.80032 0
M  V30 2597 C 237.633 -3.59331 0.235144 0
M  V30 2598 C 237.486 -4.17989 1.66149 0
M  V30 2599 C 238.805 -4.3813 -0.41595 0
M  V30 2600 H 235.924 -0.733293 0.0738311 0
M  V30 2601 H 238.566 -1.69368 0.86107 0
M  V30 2602 H 236.716 -3.87109 -0.328487 0
M  V30 2603 H 238.388 -4.0116 2.27747 0
M  V30 2604 H 236.631 -3.7377 2.20178 0
M  V30 2605 H 237.302 -5.27126 1.63837 0
M  V30 2606 H 239.778 -4.16051 0.0638529 0
M  V30 2607 H 238.654 -5.47717 -0.360115 0
M  V30 2608 H 238.915 -4.16101 -1.49373 0
M  V30 2609 N 237.974 -0.419461 -1.51915 0
M  V30 2610 C 238.921 0.400927 -2.27291 0
M  V30 2611 C 239.891 1.03224 -1.30131 0
M  V30 2612 O 241.076 1.05455 -1.59009 0
M  V30 2613 C 238.216 1.50603 -3.10504 0
M  V30 2614 C 237.329 0.89462 -4.22635 0
M  V30 2615 C 236.464 1.97328 -4.93189 0
M  V30 2616 C 235.503 1.33935 -5.97267 0
M  V30 2617 N 234.64 2.3586 -6.61298 0
M  V30 2618 H 239.48 -0.248251 -2.96964 0
M  V30 2619 H 237.017 -0.134266 -1.46486 0
M  V30 2620 H 238.975 2.15783 -3.57062 0
M  V30 2621 H 237.605 2.12509 -2.42981 0
M  V30 2622 H 236.657 0.131583 -3.80172 0
M  V30 2623 H 237.969 0.391641 -4.9726 0
M  V30 2624 H 237.123 2.70211 -5.43204 0
M  V30 2625 H 235.862 2.50994 -4.18155 0
M  V30 2626 H 234.867 0.595896 -5.46561 0
M  V30 2627 H 236.092 0.810252 -6.74249 0
M  V30 2628 H 234.038 2.88639 -5.89087 0
M  V30 2629 H 233.955 1.90403 -7.3163 0
M  V30 2630 H 235.223 3.08282 -7.15949 0
M  V30 2631 N 239.452 1.56882 -0.150215 0
M  V30 2632 C 240.362 2.20494 0.801222 0
M  V30 2633 C 241.378 1.19019 1.26927 0
M  V30 2634 O 242.554 1.51607 1.32579 0
M  V30 2635 C 239.619 2.81659 2.02161 0
M  V30 2636 C 238.68 3.9827 1.60249 0
M  V30 2637 C 237.913 4.56508 2.7647 0
M  V30 2638 O 238.136 4.13627 3.92771 0
M  V30 2639 O 237.07 5.46719 2.51757 0
M  V30 2640 H 240.896 3.02315 0.289717 0
M  V30 2641 H 238.481 1.49202 0.0769684 0
M  V30 2642 H 240.363 3.20522 2.73576 0
M  V30 2643 H 239.038 2.02849 2.52258 0
M  V30 2644 H 237.945 3.64117 0.858477 0
M  V30 2645 H 239.278 4.78609 1.14864 0
M  V30 2646 N 240.93 -0.123565 1.57115 0
M  V30 2647 C 242.158 -0.846461 1.88793 0
M  V30 2648 C 242.573 -1.73652 0.740976 0
M  V30 2649 O 241.93 -1.80207 -0.288393 0
M  V30 2650 C 241.981 -1.6837 3.19897 0
M  V30 2651 O 241.702 -0.829477 4.30176 0
M  V30 2652 C 243.203 -2.51214 3.65248 0
M  V30 2653 H 240.423 -0.243573 0.625231 0
M  V30 2654 H 242.967 -0.109324 2.04208 0
M  V30 2655 H 241.122 -2.37364 3.06165 0
M  V30 2656 H 241.536 -1.40651 5.0529 0
M  V30 2657 H 243.01 -3.05497 4.59756 0
M  V30 2658 H 243.487 -3.28359 2.9168 0
M  V30 2659 H 244.093 -1.8747 3.81752 0
M  V30 2660 N 242.408 -1.52605 -0.393616 0
M  V30 2661 C 243.638 -1.71046 -1.15874 0
M  V30 2662 C 244.046 -0.426483 -1.84331 0
M  V30 2663 O 243.389 0.608513 -1.73329 0
M  V30 2664 C 243.451 -2.80118 -2.25332 0
M  V30 2665 C 243.115 -4.21381 -1.76881 0
M  V30 2666 C 244.112 -5.04697 -1.24808 0
M  V30 2667 C 241.797 -4.67683 -1.83244 0
M  V30 2668 C 243.791 -6.32393 -0.797387 0
M  V30 2669 C 241.478 -5.95364 -1.37787 0
M  V30 2670 C 242.476 -6.77549 -0.861208 0
M  V30 2671 O 242.164 -8.02837 -0.413252 0
M  V30 2672 H 241.896 -0.576155 -0.353583 0
M  V30 2673 H 244.45 -2.00018 -0.467123 0
M  V30 2674 H 242.68 -2.46557 -2.97904 0
M  V30 2675 H 244.369 -2.87006 -2.87023 0
M  V30 2676 H 245.135 -4.70111 -1.19252 0
M  V30 2677 H 241.014 -4.03805 -2.22401 0
M  V30 2678 H 244.558 -6.9649 -0.393437 0
M  V30 2679 H 240.455 -6.29455 -1.43026 0
M  V30 2680 H 241.223 -8.16749 -0.53515 0
M  V30 2681 N 243.887 0.651787 -1.4349 0
M  V30 2682 C 244.85 1.74647 -1.48429 0
M  V30 2683 C 245.85 1.56513 -0.368817 0
M  V30 2684 O 247.04 1.62385 -0.630623 0
M  V30 2685 C 244.172 3.13533 -1.33827 0
M  V30 2686 H 245.365 1.71649 -2.4592 0
M  V30 2687 H 242.918 0.863573 -1.30277 0
M  V30 2688 H 243.653 3.22142 -0.37349 0
M  V30 2689 H 243.438 3.28101 -2.14691 0
M  V30 2690 H 244.928 3.93356 -1.40218 0
M  V30 2691 N 245.365 1.30045 0.890287 0
M  V30 2692 C 246.59 1.21598 1.68014 0
M  V30 2693 C 247.015 -0.218678 1.86825 0
M  V30 2694 O 246.373 -1.15756 1.39536 0
M  V30 2695 C 246.421 1.94434 3.03691 0
M  V30 2696 O 245.525 1.2678 3.92429 0
M  V30 2697 H 244.866 0.420856 0.513592 0
M  V30 2698 H 247.396 1.71775 1.11151 0
M  V30 2699 H 247.406 2.03251 3.5377 0
M  V30 2700 H 246.081 2.98777 2.89318 0
M  V30 2701 H 244.658 1.26282 3.50866 0
M  V30 2702 N 246.843 -1.10192 1.12674 0
M  V30 2703 C 247.776 -2.15847 0.740625 0
M  V30 2704 C 248.754 -1.60352 -0.269421 0
M  V30 2705 O 249.938 -1.87796 -0.16278 0
M  V30 2706 C 247.065 -3.38562 0.096641 0
M  V30 2707 C 246.111 -4.12758 1.07391 0
M  V30 2708 S 246.944 -4.67997 2.60267 0
M  V30 2709 C 248.1 -5.94021 1.97206 0
M  V30 2710 H 248.333 -2.48266 1.63558 0
M  V30 2711 H 245.866 -1.22019 0.946087 0
M  V30 2712 H 247.824 -4.09621 -0.268535 0
M  V30 2713 H 246.485 -3.04377 -0.775462 0
M  V30 2714 H 245.678 -5.00755 0.570997 0
M  V30 2715 H 245.28 -3.47523 1.38216 0
M  V30 2716 H 247.572 -6.64589 1.31634 0
M  V30 2717 H 248.515 -6.48979 2.83253 0
M  V30 2718 H 248.923 -5.46169 1.42686 0
M  V30 2719 N 248.321 -0.919034 -1.28029 0
M  V30 2720 C 249.732 -0.600735 -1.76771 0
M  V30 2721 C 250.083 0.884024 -1.75156 0
M  V30 2722 O 249.208 1.69163 -1.34956 0
M  V30 2723 C 249.803 -1.08372 -3.21 0
M  V30 2724 C 248.362 -0.816248 -3.67443 0
M  V30 2725 C 247.509 -1.24742 -2.47658 0
M  V30 2726 H 250.46 -1.09974 -1.14418 0
M  V30 2727 H 250.481 -0.427512 -3.78091 0
M  V30 2728 H 249.993 -2.16437 -3.22144 0
M  V30 2729 H 248.094 0.250968 -3.71754 0
M  V30 2730 H 248.207 -1.4277 -4.57333 0
M  V30 2731 H 246.571 -0.666083 -2.45836 0
M  V30 2732 H 247.354 -2.33653 -2.51518 0
M  V30 2733 N 249.799 1.42003 -0.683588 0
M  V30 2734 C 250.709 2.34597 -0.0109075 0
M  V30 2735 C 251.725 1.55576 0.779245 0
M  V30 2736 O 252.901 1.88107 0.719555 0
M  V30 2737 C 249.966 3.34199 0.922588 0
M  V30 2738 C 249.027 4.29115 0.125984 0
M  V30 2739 C 248.26 5.23959 1.01502 0
M  V30 2740 O 248.483 5.23952 2.25456 0
M  V30 2741 O 247.417 6.00053 0.47111 0
M  V30 2742 H 251.243 2.93675 -0.773853 0
M  V30 2743 H 248.828 1.42654 -0.443861 0
M  V30 2744 H 250.71 3.95365 1.45823 0
M  V30 2745 H 249.385 2.77582 1.66523 0
M  V30 2746 H 248.292 3.71335 -0.453969 0
M  V30 2747 H 249.625 4.88798 -0.577736 0
M  V30 2748 N 251.277 0.427512 1.51691 0
M  V30 2749 C 252.554 -0.201684 1.94557 0
M  V30 2750 C 252.934 -1.60981 1.36559 0
M  V30 2751 O 252.282 -2.21814 0.548702 0
M  V30 2752 C 252.492 -0.189394 3.48486 0
M  V30 2753 C 253.84 -0.39978 4.22714 0
M  V30 2754 O 254.864 -0.267945 3.55191 0
M  V30 2755 O 253.723 -0.661249 5.42485 0
M  V30 2756 H 250.817 -0.135261 0.815864 0
M  V30 2757 H 253.363 0.484782 1.62628 0
M  V30 2758 H 252.135 0.795431 3.8313 0
M  V30 2759 H 251.758 -0.919187 3.86829 0
M  V30 2760 N 252.755 -1.56801 0.158532 0
M  V30 2761 C 253.665 -2.20916 -0.789518 0
M  V30 2762 C 254.681 -1.1969 -1.26294 0
M  V30 2763 O 255.857 -1.52308 -1.31773 0
M  V30 2764 C 252.922 -2.82727 -2.00665 0
M  V30 2765 C 251.983 -3.99114 -1.58134 0
M  V30 2766 C 251.216 -4.57968 -2.74045 0
M  V30 2767 O 251.439 -4.15704 -3.90572 0
M  V30 2768 O 250.373 -5.48047 -2.48855 0
M  V30 2769 H 254.199 -3.02464 -0.273681 0
M  V30 2770 H 251.784 -1.4924 -0.0690548 0
M  V30 2771 H 253.666 -3.21968 -2.71872 0
M  V30 2772 H 252.341 -2.04184 -2.51179 0
M  V30 2773 H 251.248 -3.64567 -0.839155 0
M  V30 2774 H 252.581 -4.79212 -1.12325 0
M  V30 2775 N 254.233 0.115231 -1.57178 0
M  V30 2776 C 255.649 0.468877 -1.52557 0
M  V30 2777 C 255.849 1.81649 -0.872125 0
M  V30 2778 O 254.905 2.48347 -0.45606 0
M  V30 2779 C 256.218 0.4499 -2.97315 0
M  V30 2780 C 257.766 0.533185 -3.08425 0
M  V30 2781 C 258.241 0.54456 -4.54751 0
M  V30 2782 N 259.732 0.605892 -4.5922 0
M  V30 2783 C 260.467 0.636203 -5.6986 0
M  V30 2784 N 259.963 0.623931 -6.89985 0
M  V30 2785 N 261.756 0.679496 -5.57978 0
M  V30 2786 H 253.907 -0.767712 -1.9804 0
M  V30 2787 H 256.17 -0.283609 -0.904583 0
M  V30 2788 H 255.876 -0.472721 -3.48509 0
M  V30 2789 H 255.75 1.27632 -3.5495 0
M  V30 2790 H 258.137 1.44623 -2.57232 0
M  V30 2791 H 258.218 -0.320995 -2.53778 0
M  V30 2792 H 257.862 -0.364452 -5.06591 0
M  V30 2793 H 257.792 1.41568 -5.07214 0
M  V30 2794 H 260.283 0.621386 -3.72756 0
M  V30 2795 H 260.596 0.649787 -7.70063 0
M  V30 2796 H 258.941 0.591296 -6.9248 0
M  V30 2797 H 262.132 0.686472 -4.63039 0
M  V30 2798 H 262.305 0.69965 -6.44212 0
M  V30 2799 N 255.711 1.52812 0.385517 0
M  V30 2800 C 256.621 1.80766 1.49535 0
M  V30 2801 C 257.637 0.694651 1.59532 0
M  V30 2802 O 258.813 0.982611 1.75803 0
M  V30 2803 C 255.878 1.97381 2.85029 0
M  V30 2804 C 254.939 3.21295 2.84724 0
M  V30 2805 C 254.172 3.37108 4.13756 0
M  V30 2806 O 254.395 2.5765 5.08893 0
M  V30 2807 O 253.329 4.30378 4.20783 0
M  V30 2808 H 257.155 2.75015 1.28842 0
M  V30 2809 H 254.74 1.37946 0.573697 0
M  V30 2810 H 256.622 2.09996 3.65349 0
M  V30 2811 H 255.297 1.06322 3.05741 0
M  V30 2812 H 254.204 3.1412 2.03174 0
M  V30 2813 H 255.537 4.12212 2.68965 0
M  V30 2814 N 257.189 -0.644168 1.43834 0
M  V30 2815 C 258.137 -1.77793 1.49974 0
M  V30 2816 C 259.131 -1.65253 0.372536 0
M  V30 2817 O 260.337 -1.7149 0.546924 0
M  V30 2818 H 256.712 -0.58675 0.47035 0
M  V30 2819 H 258.683 -1.69736 2.45423 0
M  V30 2820 C 257.432 -3.16087 1.4486 0
M  V30 2821 H 256.755 -3.26378 2.30905 0
M  V30 2822 H 258.195 -3.95349 1.53217 0
M  V30 2823 C 256.654 -3.36484 0.167463 0
M  V30 2824 O 257.184 -3.94298 -0.767609 0
M  V30 2825 N 255.39 -2.90504 0.0747556 0
M  V30 2826 H 254.937 -2.4364 0.836507 0
M  V30 2827 H 254.895 -3.04527 -0.781714 0
M  V30 2828 N 258.668 -1.30515 -0.883378 0
M  V30 2829 C 259.631 -1.1701 -1.97082 0
M  V30 2830 C 260.631 -0.10089 -1.60483 0
M  V30 2831 O 261.821 -0.349127 -1.70666 0
M  V30 2832 C 258.953 -0.793045 -3.31547 0
M  V30 2833 H 260.146 -2.13622 -2.10489 0
M  V30 2834 H 257.699 -1.13935 -1.06998 0
M  V30 2835 H 258.434 0.172499 -3.23841 0
M  V30 2836 H 258.219 -1.56576 -3.5948 0
M  V30 2837 H 259.709 -0.722073 -4.1131 0
M  V30 2838 N 260.146 1.09593 -1.13257 0
M  V30 2839 C 261.079 2.15451 -0.752061 0
M  V30 2840 C 262.057 1.60493 0.260913 0
M  V30 2841 O 263.241 1.8788 0.152819 0
M  V30 2842 C 260.368 3.38506 -0.114594 0
M  V30 2843 C 259.414 4.12183 -1.09579 0
M  V30 2844 S 260.247 4.6661 -2.62745 0
M  V30 2845 C 261.403 5.92966 -2.00354 0
M  V30 2846 H 261.636 2.47395 -1.64872 0
M  V30 2847 H 259.169 1.21515 -0.952545 0
M  V30 2848 H 261.127 4.09757 0.246808 0
M  V30 2849 H 259.788 3.04784 0.759309 0
M  V30 2850 H 258.981 5.00445 -0.597545 0
M  V30 2851 H 258.583 3.46785 -1.40057 0
M  V30 2852 H 260.875 6.63882 -1.35156 0
M  V30 2853 H 261.818 6.47467 -2.86691 0
M  V30 2854 H 262.226 5.45405 -1.4558 0
M  V30 2855 N 261.624 0.925811 1.2754 0
M  V30 2856 C 262.554 0.440748 2.29303 0
M  V30 2857 C 263.535 -0.497971 1.62648 0
M  V30 2858 O 264.72 -0.403126 1.8997 0
M  V30 2859 C 261.85 -0.309048 3.45922 0
M  V30 2860 C 260.804 0.54166 4.24559 0
M  V30 2861 C 260.13 -0.337191 5.33636 0
M  V30 2862 C 261.43 1.80516 4.90114 0
M  V30 2863 H 263.124 1.29121 2.70126 0
M  V30 2864 H 260.67 0.622323 1.29858 0
M  V30 2865 H 262.623 -0.659315 4.1621 0
M  V30 2866 H 261.347 -1.19352 3.04011 0
M  V30 2867 H 260.006 0.874609 3.56014 0
M  V30 2868 H 259.654 -1.22056 4.87966 0
M  V30 2869 H 259.354 0.228497 5.87156 0
M  V30 2870 H 260.878 -0.683072 6.06767 0
M  V30 2871 H 262.292 1.52307 5.52698 0
M  V30 2872 H 260.689 2.3142 5.53683 0
M  V30 2873 H 261.759 2.52581 4.13921 0
M  V30 2874 N 263.102 -1.41638 0.69111 0
M  V30 2875 C 264.351 -2.00526 0.217318 0
M  V30 2876 C 264.664 -1.55353 -1.18848 0
M  V30 2877 O 265.87 -2.06769 -1.75951 0
M  V30 2878 C 264.326 -3.58313 0.337639 0
M  V30 2879 C 263.934 -4.12469 1.74852 0
M  V30 2880 C 265.678 -4.24431 -0.0766066 0
M  V30 2881 C 263.585 -5.62675 1.82074 0
M  V30 2882 H 262.515 -0.750008 0.0774893 0
M  V30 2883 H 265.166 -1.6217 0.858661 0
M  V30 2884 H 263.548 -3.9425 -0.371879 0
M  V30 2885 H 264.722 -3.8796 2.48644 0
M  V30 2886 H 263.037 -3.58861 2.11205 0
M  V30 2887 H 265.634 -5.34683 -0.0430284 0
M  V30 2888 H 265.977 -4.01101 -1.1146 0
M  V30 2889 H 266.51 -3.93512 0.582476 0
M  V30 2890 H 263.249 -5.90826 2.83911 0
M  V30 2891 H 262.769 -5.89124 1.12661 0
M  V30 2892 H 264.448 -6.27371 1.58159 0
M  V30 2893 N 264.58 -0.43555 -1.51462 0
M  V30 2894 C 265.826 0.131709 -2.02372 0
M  V30 2895 C 266.159 1.42516 -1.3192 0
M  V30 2896 O 265.434 1.89606 -0.433573 0
M  V30 2897 C 265.717 0.352301 -3.58373 0
M  V30 2898 C 265.57 -0.959676 -4.39443 0
M  V30 2899 C 266.889 1.12286 -4.25535 0
M  V30 2900 H 264.008 0.0463936 -0.735538 0
M  V30 2901 H 266.65 -0.574197 -1.81116 0
M  V30 2902 H 264.8 0.9536 -3.76615 0
M  V30 2903 H 266.472 -1.59482 -4.32855 0
M  V30 2904 H 264.715 -1.56468 -4.04599 0
M  V30 2905 H 265.386 -0.759394 -5.46752 0
M  V30 2906 H 267.862 0.613545 -4.11552 0
M  V30 2907 H 266.738 1.24598 -5.34571 0
M  V30 2908 H 266.999 2.15048 -3.86273 0
M  V30 2909 N 266.058 1.56714 -0.166846 0
M  V30 2910 C 267.283 2.01557 0.488833 0
M  V30 2911 C 267.708 1.0463 1.56314 0
M  V30 2912 O 267.066 0.0251304 1.81283 0
M  V30 2913 C 267.114 3.4503 1.04818 0
M  V30 2914 O 266.218 3.51163 2.16236 0
M  V30 2915 H 265.559 0.653516 0.117526 0
M  V30 2916 H 268.089 2.02818 -0.269421 0
M  V30 2917 H 268.099 3.84243 1.37191 0
M  V30 2918 H 266.774 4.15077 0.261572 0
M  V30 2919 H 265.351 3.23807 1.84942 0
M  V30 2920 N 267.536 -0.106894 1.57237 0
M  V30 2921 C 268.499 -1.11466 2.0027 0
M  V30 2922 C 269.499 -1.33623 0.894519 0
M  V30 2923 O 270.689 -1.29935 1.16028 0
M  V30 2924 C 267.821 -2.46646 2.35327 0
M  V30 2925 H 269.014 -0.744516 2.90512 0
M  V30 2926 H 266.567 -0.351576 1.52295 0
M  V30 2927 H 267.302 -2.88558 1.48003 0
M  V30 2928 H 267.087 -2.31915 3.16161 0
M  V30 2929 H 268.577 -3.19151 2.69318 0
M  V30 2930 N 269.014 -1.53014 -0.377408 0
M  V30 2931 C 269.964 -1.74996 -1.46152 0
M  V30 2932 C 270.948 -0.604236 -1.49123 0
M  V30 2933 O 272.14 -0.862489 -1.54564 0
M  V30 2934 C 269.269 -1.93267 -2.8373 0
M  V30 2935 C 268.355 -3.13807 -2.85283 0
M  V30 2936 N 268.746 -4.35941 -2.56493 0
M  V30 2937 C 267.044 -3.14288 -3.16448 0
M  V30 2938 C 267.745 -5.17615 -2.65424 0
M  V30 2939 N 266.721 -4.53559 -2.99641 0
M  V30 2940 H 270.523 -2.67044 -1.22738 0
M  V30 2941 H 268.037 -1.51479 -0.585479 0
M  V30 2942 H 270.034 -2.0714 -3.61799 0
M  V30 2943 H 268.694 -1.0244 -3.08117 0
M  V30 2944 H 269.705 -4.63876 -2.30302 0
M  V30 2945 H 266.382 -2.33312 -3.46225 0
M  V30 2946 H 267.772 -6.25006 -2.46612 0
M  V30 2947 N 270.492 0.636531 -1.44174 0
M  V30 2948 C 271.717 1.42847 -1.50364 0
M  V30 2949 C 272.142 1.87665 -0.127867 0
M  V30 2950 O 271.5 1.58408 0.88185 0
M  V30 2951 C 271.548 2.62854 -2.4686 0
M  V30 2952 O 270.652 3.62501 -1.9664 0
M  V30 2953 H 269.993 0.427642 -0.507955 0
M  V30 2954 H 272.523 0.777422 -1.89255 0
M  V30 2955 H 272.533 3.10465 -2.64718 0
M  V30 2956 H 271.208 2.29578 -3.46795 0
M  V30 2957 H 269.785 3.21735 -1.88523 0
M  V30 2958 N 271.97 1.30982 0.876444 0
M  V30 2959 C 272.9 1.20668 1.99903 0
M  V30 2960 C 273.881 0.095354 1.69833 0
M  V30 2961 O 275.066 0.27885 1.92188 0
M  V30 2962 C 272.196 0.90655 3.3526 0
M  V30 2963 C 271.15 1.97675 3.79617 0
M  V30 2964 C 270.476 1.52943 5.1236 0
M  V30 2965 C 271.776 3.389 3.97422 0
M  V30 2966 H 273.47 2.14586 2.0879 0
M  V30 2967 H 271.016 1.03308 1.00317 0
M  V30 2968 H 272.969 0.821025 4.13324 0
M  V30 2969 H 271.693 -0.0682969 3.26529 0
M  V30 2970 H 270.352 2.05205 3.03787 0
M  V30 2971 H 270 0.54262 5.00065 0
M  V30 2972 H 269.7 2.24532 5.43009 0
M  V30 2973 H 271.224 1.45786 5.92941 0
M  V30 2974 H 272.638 3.34081 4.659 0
M  V30 2975 H 271.035 4.0865 4.3946 0
M  V30 2976 H 272.105 3.80163 3.01006 0
M  V30 2977 N 273.449 -1.08991 1.13837 0
M  V30 2978 C 274.86 -1.62746 0.914917 0
M  V30 2979 C 275.211 -1.88403 -0.547594 0
M  V30 2980 O 274.336 -1.63706 -1.41525 0
M  V30 2981 C 274.931 -2.95662 1.65437 0
M  V30 2982 C 273.49 -3.46225 1.47666 0
M  V30 2983 C 272.637 -2.20562 1.6807 0
M  V30 2984 H 275.588 -0.922946 1.29102 0
M  V30 2985 H 275.609 -3.63825 1.11407 0
M  V30 2986 H 275.121 -2.76956 2.71877 0
M  V30 2987 H 273.222 -3.70046 0.435478 0
M  V30 2988 H 273.335 -4.23368 2.24268 0
M  V30 2989 H 271.699 -2.29439 1.10589 0
M  V30 2990 H 272.482 -2.0437 2.7584 0
M  V30 2991 N 274.927 -0.932562 -1.27047 0
M  V30 2992 C 275.837 -0.441219 -2.30414 0
M  V30 2993 C 276.853 0.480525 -1.67233 0
M  V30 2994 O 278.029 0.362151 -1.98117 0
M  V30 2995 C 275.094 0.293651 -3.45454 0
M  V30 2996 C 274.155 -0.663601 -4.2414 0
M  V30 2997 C 273.388 0.0362932 -5.33688 0
M  V30 2998 O 273.611 1.2548 -5.56427 0
M  V30 2999 O 272.545 -0.638015 -5.98509 0
M  V30 3000 H 276.371 -1.29962 -2.74488 0
M  V30 3001 H 273.956 -0.6981 -1.32087 0
M  V30 3002 H 275.838 0.707951 -4.15411 0
M  V30 3003 H 274.513 1.12758 -3.03426 0
M  V30 3004 H 273.42 -1.12768 -3.56699 0
M  V30 3005 H 274.753 -1.46489 -4.69896 0
M  V30 3006 N 276.405 1.4127 -0.698611 0
M  V30 3007 C 277.352 2.30773 -0.0352094 0
M  V30 3008 C 278.322 1.47273 0.768111 0
M  V30 3009 O 279.507 1.76053 0.735524 0
M  V30 3010 C 276.647 3.33346 0.893 0
M  V30 3011 C 275.76 4.31924 0.0809695 0
M  V30 3012 C 274.895 5.21566 1.0071 0
M  V30 3013 C 273.934 6.11811 0.188155 0
M  V30 3014 N 273.071 6.93926 1.06825 0
M  V30 3015 H 277.911 2.86943 -0.804207 0
M  V30 3016 H 275.448 1.4132 -0.408294 0
M  V30 3017 H 277.406 3.91368 1.44523 0
M  V30 3018 H 276.036 2.78719 1.62836 0
M  V30 3019 H 275.088 3.75825 -0.588224 0
M  V30 3020 H 276.4 4.95716 -0.553801 0
M  V30 3021 H 275.554 5.84437 1.62845 0
M  V30 3022 H 274.293 4.58008 1.67572 0
M  V30 3023 H 273.298 5.47986 -0.446254 0
M  V30 3024 H 274.523 6.77425 -0.476716 0
M  V30 3025 H 272.469 6.32973 1.72283 0
M  V30 3026 H 272.386 7.54416 0.489123 0
M  V30 3027 H 273.654 7.61262 1.67632 0
M  V30 3028 N 277.883 0.443576 1.51229 0
M  V30 3029 C 279.132 -0.122332 2.01329 0
M  V30 3030 C 279.445 -1.43237 1.33201 0
M  V30 3031 O 280.651 -2.0816 1.74304 0
M  V30 3032 C 279.107 -0.268551 3.58897 0
M  V30 3033 C 278.715 1.03142 4.35965 0
M  V30 3034 C 280.459 -0.787894 4.17124 0
M  V30 3035 C 278.366 0.850504 5.85252 0
M  V30 3036 H 277.296 -0.0494929 0.752374 0
M  V30 3037 H 279.947 0.574289 1.74282 0
M  V30 3038 H 278.329 -1.02832 3.82415 0
M  V30 3039 H 279.503 1.80001 4.24189 0
M  V30 3040 H 277.818 1.47977 3.89219 0
M  V30 3041 H 280.415 -0.939841 5.26375 0
M  V30 3042 H 280.758 -1.77201 3.76703 0
M  V30 3043 H 281.291 -0.0862669 3.97706 0
M  V30 3044 H 278.03 1.80718 6.30096 0
M  V30 3045 H 277.55 0.121825 5.99676 0
M  V30 3046 H 279.229 0.506163 6.45017 0
M  V30 3047 N 279.361 -1.56624 0.175154 0
M  V30 3048 C 280.308 -2.18149 -0.753634 0
M  V30 3049 C 281.278 -1.12265 -1.22417 0
M  V30 3050 O 282.463 -1.40432 -1.29165 0
M  V30 3051 C 279.603 -2.82933 -1.97592 0
M  V30 3052 C 278.716 -4.03289 -1.5486 0
M  V30 3053 C 277.851 -4.55988 -2.72485 0
M  V30 3054 C 276.89 -5.68746 -2.26262 0
M  V30 3055 N 276.027 -6.15938 -3.36994 0
M  V30 3056 H 280.867 -2.9717 -0.222195 0
M  V30 3057 H 278.404 -1.46774 -0.0979422 0
M  V30 3058 H 280.362 -3.18653 -2.69288 0
M  V30 3059 H 278.992 -2.06509 -2.481 0
M  V30 3060 H 278.044 -3.73364 -0.728246 0
M  V30 3061 H 279.356 -4.849 -1.16933 0
M  V30 3062 H 278.51 -4.9391 -3.52332 0
M  V30 3063 H 277.249 -3.73443 -3.13674 0
M  V30 3064 H 276.254 -5.30372 -1.44863 0
M  V30 3065 H 277.479 -6.53095 -1.86127 0
M  V30 3066 H 275.425 -5.36321 -3.77751 0
M  V30 3067 H 275.342 -6.92548 -3.03172 0
M  V30 3068 H 276.61 -6.58511 -4.17114 0
M  V30 3069 N 280.839 0.0985539 -1.57292 0
M  V30 3070 C 281.749 1.13824 -2.05137 0
M  V30 3071 C 282.765 1.44076 -0.975604 0
M  V30 3072 O 283.941 1.54786 -1.28853 0
M  V30 3073 C 281.006 2.43969 -2.46333 0
M  V30 3074 C 280.067 2.2093 -3.68087 0
M  V30 3075 C 279.3 3.44869 -4.0731 0
M  V30 3076 O 279.523 4.52972 -3.46659 0
M  V30 3077 O 278.457 3.34661 -5.00285 0
M  V30 3078 H 282.283 0.761881 -2.93988 0
M  V30 3079 H 279.868 0.310818 -1.46131 0
M  V30 3080 H 281.75 3.20609 -2.73473 0
M  V30 3081 H 280.425 2.81038 -1.60621 0
M  V30 3082 H 279.332 1.42081 -3.46069 0
M  V30 3083 H 280.665 1.88755 -4.54568 0
M  V30 3084 N 282.317 1.53212 0.369288 0
M  V30 3085 C 283.564 1.69215 1.11232 0
M  V30 3086 C 283.892 0.442048 1.8941 0
M  V30 3087 O 283.147 -0.575944 1.87033 0
M  V30 3088 C 283.446 2.89101 2.10132 0
M  V30 3089 C 283.112 4.25758 1.48463 0
M  V30 3090 C 281.774 4.6292 1.31372 0
M  V30 3091 C 284.126 5.10757 1.03811 0
M  V30 3092 C 281.454 5.82722 0.68207 0
M  V30 3093 C 283.806 6.31201 0.420487 0
M  V30 3094 C 282.47 6.67079 0.237038 0
M  V30 3095 H 281.74 0.619201 0.407027 0
M  V30 3096 H 284.387 1.87391 0.394552 0
M  V30 3097 H 282.692 2.65421 2.88199 0
M  V30 3098 H 284.389 2.98676 2.6757 0
M  V30 3099 H 280.979 3.96494 1.62758 0
M  V30 3100 H 285.163 4.82599 1.1581 0
M  V30 3101 H 280.419 6.09113 0.528316 0
M  V30 3102 H 284.593 6.96368 0.0662874 0
M  V30 3103 H 282.22 7.59774 -0.254477 0
M  V30 3104 N 283.795 -0.628877 1.44509 0
M  V30 3105 C 285.043 -1.38565 1.4712 0
M  V30 3106 C 285.364 -1.94712 0.105899 0
M  V30 3107 O 284.634 -1.75912 -0.862079 0
M  V30 3108 H 283.214 -0.514333 0.541729 0
M  V30 3109 H 285.876 -0.740018 1.80305 0
M  V30 3110 H 284.972 -2.21583 2.19789 0
M  V30 3111 N 285.273 -1.31445 -0.869486 0
M  V30 3112 C 286.55 -1.11795 -1.60503 0
M  V30 3113 C 286.93 0.327168 -2.08549 0
M  V30 3114 O 286.278 1.32135 -1.8642 0
M  V30 3115 C 286.488 -2.13258 -2.76265 0
M  V30 3116 C 287.836 -2.45805 -3.46215 0
M  V30 3117 O 288.86 -2.11688 -2.86473 0
M  V30 3118 O 287.719 -3.04228 -4.5399 0
M  V30 3119 H 284.813 -0.430421 -0.706163 0
M  V30 3120 H 287.359 -1.42925 -0.914907 0
M  V30 3121 H 286.131 -3.10461 -2.3818 0
M  V30 3122 H 285.754 -1.83035 -3.52964 0
M  V30 3123 N 286.751 1.08385 -1.14413 0
M  V30 3124 C 288.162 1.62258 -0.923535 0
M  V30 3125 C 288.513 1.88691 0.537595 0
M  V30 3126 O 287.638 1.64454 1.40655 0
M  V30 3127 C 288.233 2.94781 -1.67002 0
M  V30 3128 C 286.792 3.45437 -1.495 0
M  V30 3129 C 285.939 2.19668 -1.69238 0
M  V30 3130 H 288.89 0.916086 -1.2959 0
M  V30 3131 H 288.911 3.63229 -1.13334 0
M  V30 3132 H 288.423 2.7551 -2.73342 0
M  V30 3133 H 286.524 3.6981 -0.455097 0
M  V30 3134 H 286.637 4.22173 -2.2651 0
M  V30 3135 H 285.001 2.28849 -1.11804 0
M  V30 3136 H 285.784 2.02905 -2.7692 0
M  V30 3137 N 288.23 0.939286 1.26551 0
M  V30 3138 C 289.46 0.601663 1.97645 0
M  V30 3139 C 289.868 -0.827206 1.70159 0
M  V30 3140 O 289.211 -1.56291 0.965338 0
M  V30 3141 C 289.273 0.761725 3.51337 0
M  V30 3142 C 288.937 2.16487 4.0247 0
M  V30 3143 C 289.934 3.14016 4.14355 0
M  V30 3144 C 287.619 2.48494 4.36527 0
M  V30 3145 C 289.613 4.41654 4.59587 0
M  V30 3146 C 287.3 3.76364 4.81449 0
M  V30 3147 C 288.298 4.72758 4.92939 0
M  V30 3148 O 287.986 5.98352 5.36871 0
M  V30 3149 H 287.718 0.225758 0.637189 0
M  V30 3150 H 290.272 1.26178 1.62075 0
M  V30 3151 H 288.502 0.0444808 3.86674 0
M  V30 3152 H 290.191 0.427442 4.03643 0
M  V30 3153 H 290.957 2.90613 3.8829 0
M  V30 3154 H 286.836 1.74202 4.26819 0
M  V30 3155 H 290.38 5.16896 4.68471 0
M  V30 3156 H 286.277 3.99582 5.06956 0
M  V30 3157 H 287.045 6.01507 5.55096 0
M  V30 3158 N 289.708 -1.40897 0.706093 0
M  V30 3159 C 291.119 -1.84023 0.315052 0
M  V30 3160 C 291.47 -1.5906 -1.14866 0
M  V30 3161 O 290.595 -1.06651 -1.88293 0
M  V30 3162 C 291.19 -3.34055 0.565038 0
M  V30 3163 C 289.749 -3.7571 0.227806 0
M  V30 3164 C 288.896 -2.64204 0.842122 0
M  V30 3165 H 291.847 -1.303 0.905963 0
M  V30 3166 H 291.868 -3.80107 -0.172843 0
M  V30 3167 H 291.38 -3.52192 1.63042 0
M  V30 3168 H 289.481 -3.63172 -0.832895 0
M  V30 3169 H 289.594 -4.74103 0.690174 0
M  V30 3170 H 287.958 -2.53255 0.270893 0
M  V30 3171 H 288.741 -2.85155 1.91158 0
M  V30 3172 N 291.186 -0.45159 -1.50991 0
M  V30 3173 C 292.463 0.170707 -1.94854 0
M  V30 3174 C 292.843 1.58788 -1.39103 0
M  V30 3175 O 292.191 2.20913 -0.583921 0
M  V30 3176 C 292.401 0.133929 -3.48743 0
M  V30 3177 C 293.749 0.33248 -4.23296 0
M  V30 3178 O 294.773 0.211403 -3.55572 0
M  V30 3179 O 293.632 0.57486 -5.43468 0
M  V30 3180 H 290.726 0.122264 -0.817912 0
M  V30 3181 H 293.272 -0.510594 -1.61836 0
M  V30 3182 H 292.044 -0.856283 -3.81816 0
M  V30 3183 H 291.667 0.857529 -3.88242 0
M  V30 3184 N 292.664 1.56529 -0.183458 0
M  V30 3185 C 293.596 2.15747 0.773697 0
M  V30 3186 C 294.609 1.1162 1.1851 0
M  V30 3187 O 295.798 1.3876 1.12285 0
M  V30 3188 C 292.898 2.6952 2.05456 0
M  V30 3189 C 292.071 3.98429 1.8048 0
M  V30 3190 C 291.13 4.37145 2.92901 0
M  V30 3191 O 290.156 5.04791 2.6301 0
M  V30 3192 N 291.358 3.99695 4.2098 0
M  V30 3193 H 294.123 2.98505 0.26736 0
M  V30 3194 H 291.684 1.619 -0.0010878 0
M  V30 3195 H 293.676 2.92412 2.79781 0
M  V30 3196 H 292.246 1.91282 2.47245 0
M  V30 3197 H 291.466 3.8379 0.899947 0
M  V30 3198 H 292.754 4.82597 1.61175 0
M  V30 3199 H 292.152 3.4526 4.48121 0
M  V30 3200 H 290.709 4.27562 4.9197 0
M  V30 3201 N 294.142 -0.090211 1.57342 0
M  V30 3202 C 295.072 -1.10976 2.05443 0
M  V30 3203 C 296.053 -1.41482 0.944284 0
M  V30 3204 O 297.238 -1.51428 1.21586 0
M  V30 3205 C 294.368 -2.42831 2.48295 0
M  V30 3206 C 293.322 -2.26721 3.63018 0
M  V30 3207 C 292.648 -3.63796 3.91863 0
M  V30 3208 C 293.948 -1.7037 4.93732 0
M  V30 3209 H 295.642 -0.709564 2.9087 0
M  V30 3210 H 293.188 -0.339874 1.39932 0
M  V30 3211 H 295.141 -3.14431 2.80555 0
M  V30 3212 H 293.865 -2.84795 1.59873 0
M  V30 3213 H 292.524 -1.57565 3.31012 0
M  V30 3214 H 292.172 -4.03297 3.00601 0
M  V30 3215 H 291.872 -3.53861 4.69101 0
M  V30 3216 H 293.396 -4.36855 4.26603 0
M  V30 3217 H 294.81 -2.31816 5.24342 0
M  V30 3218 H 293.207 -1.71181 5.75167 0
M  V30 3219 H 294.277 -0.663542 4.80339 0
M  V30 3220 N 295.62 -1.53406 -0.361157 0
M  V30 3221 C 296.57 -1.76536 -1.44287 0
M  V30 3222 C 297.554 -0.620019 -1.48474 0
M  V30 3223 O 298.746 -0.878834 -1.53641 0
M  V30 3224 C 295.875 -1.96266 -2.81664 0
M  V30 3225 C 294.961 -3.16815 -2.81938 0
M  V30 3226 N 295.352 -4.38637 -2.51855 0
M  V30 3227 C 293.65 -3.17627 -3.13096 0
M  V30 3228 C 294.351 -5.20401 -2.59919 0
M  V30 3229 N 293.327 -4.56712 -2.94814 0
M  V30 3230 H 297.129 -2.68331 -1.19899 0
M  V30 3231 H 294.643 -1.52091 -0.56938 0
M  V30 3232 H 296.64 -2.10966 -3.59582 0
M  V30 3233 H 295.3 -1.05702 -3.07013 0
M  V30 3234 H 296.311 -4.66293 -2.25369 0
M  V30 3235 H 292.988 -2.36971 -3.43731 0
M  V30 3236 H 294.378 -6.27586 -2.39969 0
M  V30 3237 N 297.098 0.621204 -1.44841 0
M  V30 3238 C 298.008 1.7612 -1.5498 0
M  V30 3239 C 299.024 1.68477 -0.434927 0
M  V30 3240 O 300.2 1.89076 -0.693693 0
M  V30 3241 C 297.265 3.1254 -1.50065 0
M  V30 3242 C 296.326 3.31741 -2.72482 0
M  V30 3243 C 295.559 4.61653 -2.67792 0
M  V30 3244 O 295.782 5.431 -1.74352 0
M  V30 3245 O 294.716 4.83271 -3.58794 0
M  V30 3246 H 298.542 1.70518 -2.51311 0
M  V30 3247 H 296.127 0.783643 -1.27198 0
M  V30 3248 H 298.009 3.93844 -1.49882 0
M  V30 3249 H 296.684 3.18663 -0.568806 0
M  V30 3250 H 295.591 2.50077 -2.7823 0
M  V30 3251 H 296.924 3.30486 -3.64746 0
M  V30 3252 N 298.576 1.31904 0.862503 0
M  V30 3253 C 299.801 1.25135 1.65397 0
M  V30 3254 C 300.226 -0.179 1.87246 0
M  V30 3255 O 299.584 -1.1277 1.4196 0
M  V30 3256 C 299.632 2.00832 2.99498 0
M  V30 3257 O 298.736 1.35075 3.89652 0
M  V30 3258 H 298.077 0.431655 0.504549 0
M  V30 3259 H 300.607 1.74094 1.07483 0
M  V30 3260 H 300.617 2.10709 3.49379 0
M  V30 3261 H 299.292 3.04847 2.82916 0
M  V30 3262 H 297.869 1.33696 3.48109 0
M  V30 3263 N 300.054 -1.07777 1.14986 0
M  V30 3264 C 301.017 -2.13041 0.845358 0
M  V30 3265 C 302.017 -1.60071 -0.152931 0
M  V30 3266 O 303.207 -1.74033 0.0761879 0
M  V30 3267 C 300.339 -3.39896 0.261383 0
M  V30 3268 H 301.532 -2.41485 1.77834 0
M  V30 3269 H 299.085 -1.23595 0.956757 0
M  V30 3270 H 299.82 -3.17091 -0.68 0
M  V30 3271 H 299.605 -3.79642 0.980514 0
M  V30 3272 H 301.095 -4.17548 0.0657687 0
M  V30 3273 N 301.532 -0.945985 -1.26051 0
M  V30 3274 C 302.479 -0.45809 -2.26208 0
M  V30 3275 C 303.449 0.484816 -1.58867 0
M  V30 3276 O 304.634 0.399969 -1.86561 0
M  V30 3277 C 301.774 0.266131 -3.44072 0
M  V30 3278 C 300.887 -0.713005 -4.26075 0
M  V30 3279 C 300.022 0.0329013 -5.3119 0
M  V30 3280 C 299.061 -0.93774 -6.04874 0
M  V30 3281 N 298.198 -0.223274 -7.01745 0
M  V30 3282 H 303.038 -1.3171 -2.67313 0
M  V30 3283 H 300.575 -0.66069 -1.31428 0
M  V30 3284 H 302.533 0.702514 -4.11243 0
M  V30 3285 H 301.163 1.08925 -3.03867 0
M  V30 3286 H 300.215 -1.26789 -3.58648 0
M  V30 3287 H 301.527 -1.45406 -4.77136 0
M  V30 3288 H 300.681 0.528335 -6.04395 0
M  V30 3289 H 299.42 0.806801 -4.8098 0
M  V30 3290 H 298.425 -1.44425 -5.30492 0
M  V30 3291 H 299.65 -1.71172 -6.57173 0
M  V30 3292 H 297.596 0.532046 -6.53839 0
M  V30 3293 H 297.513 -0.90357 -7.50581 0
M  V30 3294 H 298.781 0.250907 -7.79096 0
M  V30 3295 N 303.011 1.40521 -0.713556 0
M  V30 3296 C 303.941 2.33381 -0.0743864 0
M  V30 3297 C 304.922 1.52784 0.747735 0
M  V30 3298 O 306.107 1.81258 0.697071 0
M  V30 3299 C 303.237 3.36748 0.849598 0
M  V30 3300 C 302.191 4.27793 0.133247 0
M  V30 3301 C 301.517 5.21679 1.17281 0
M  V30 3302 C 302.817 5.12415 -1.01134 0
M  V30 3303 H 304.511 2.87081 -0.850007 0
M  V30 3304 H 302.057 1.38034 -0.410201 0
M  V30 3305 H 304.01 4.00648 1.30612 0
M  V30 3306 H 302.734 2.81439 1.65709 0
M  V30 3307 H 301.393 3.65342 -0.303426 0
M  V30 3308 H 301.041 4.62677 1.9733 0
M  V30 3309 H 300.741 5.83435 0.698397 0
M  V30 3310 H 302.265 5.88456 1.62947 0
M  V30 3311 H 303.679 5.69781 -0.634274 0
M  V30 3312 H 302.076 5.83203 -1.41399 0
M  V30 3313 H 303.146 4.48514 -1.84292 0
M  V30 3314 N 304.489 0.459591 1.5075 0
M  V30 3315 C 305.738 -0.100971 2.01447 0
M  V30 3316 C 306.051 -1.41816 1.34713 0
M  V30 3317 O 307.257 -2.06299 1.76502 0
M  V30 3318 C 305.713 -0.23047 3.59161 0
M  V30 3319 C 305.321 1.0776 4.34847 0
M  V30 3320 C 307.065 -0.743608 4.17936 0
M  V30 3321 C 304.972 0.91253 5.84317 0
M  V30 3322 H 303.902 -0.0415102 0.752856 0
M  V30 3323 H 306.553 0.592742 1.73663 0
M  V30 3324 H 304.935 -0.987703 3.83485 0
M  V30 3325 H 306.109 1.8449 4.22256 0
M  V30 3326 H 304.424 1.52097 3.87628 0
M  V30 3327 H 307.021 -0.883959 5.27343 0
M  V30 3328 H 307.364 -1.73196 3.78562 0
M  V30 3329 H 307.897 -0.04408 3.97776 0
M  V30 3330 H 304.636 1.87391 6.28144 0
M  V30 3331 H 304.156 0.185422 5.99513 0
M  V30 3332 H 305.835 0.574547 6.44444 0
M  V30 3333 N 305.967 -1.56429 0.191757 0
M  V30 3334 C 306.93 -2.17707 -0.716688 0
M  V30 3335 C 307.93 -1.13061 -1.14341 0
M  V30 3336 O 309.12 -1.38464 -1.05704 0
M  V30 3337 C 306.252 -2.77644 -1.97804 0
M  V30 3338 H 307.445 -2.99342 -0.1829 0
M  V30 3339 H 304.998 -1.56193 -0.0578566 0
M  V30 3340 H 305.733 -1.99799 -2.55443 0
M  V30 3341 H 305.518 -3.54246 -1.68083 0
M  V30 3342 H 307.008 -3.24708 -2.62592 0
M  V30 3343 N 307.445 0.0818655 -1.57387 0
M  V30 3344 C 308.355 1.11642 -2.06333 0
M  V30 3345 C 309.371 1.43033 -0.99083 0
M  V30 3346 O 310.547 1.53411 -1.30488 0
M  V30 3347 C 307.612 2.41342 -2.48907 0
M  V30 3348 C 306.673 2.17014 -3.7041 0
M  V30 3349 C 305.906 3.4053 -4.10944 0
M  V30 3350 O 306.129 4.4927 -3.51444 0
M  V30 3351 O 305.063 3.29336 -5.03807 0
M  V30 3352 H 308.889 0.730657 -2.9478 0
M  V30 3353 H 306.474 0.295301 -1.46452 0
M  V30 3354 H 308.356 3.17691 -2.76858 0
M  V30 3355 H 307.031 2.79319 -1.63593 0
M  V30 3356 H 305.938 1.38403 -3.47556 0
M  V30 3357 H 307.271 1.83923 -4.56545 0
M  V30 3358 N 308.923 1.53595 0.353017 0
M  V30 3359 C 310.171 1.70049 1.09215 0
M  V30 3360 C 310.492 0.461406 1.89463 0
M  V30 3361 O 309.762 -0.524633 1.88744 0
M  V30 3362 H 308.342 0.626912 0.40619 0
M  V30 3363 H 311.004 1.90822 0.396585 0
M  V30 3364 H 310.1 2.56718 1.77488 0
M  V30 3365 N 310.401 -0.613514 1.45168 0
M  V30 3366 C 311.364 -1.7065 1.53007 0
M  V30 3367 C 312.364 -1.5548 0.410184 0
M  V30 3368 O 313.554 -1.60656 0.673455 0
M  V30 3369 C 310.686 -3.09875 1.42093 0
M  V30 3370 H 311.879 -1.65068 2.50385 0
M  V30 3371 H 309.432 -0.828728 1.32521 0
M  V30 3372 H 310.167 -3.21039 0.458769 0
M  V30 3373 H 309.952 -3.22293 2.23315 0
M  V30 3374 H 311.442 -3.895 1.50598 0
M  V30 3375 N 311.879 -1.3236 -0.855495 0
M  V30 3376 C 313.127 -1.22629 -1.60644 0
M  V30 3377 C 313.448 0.212136 -1.93843 0
M  V30 3378 O 312.718 1.13666 -1.59552 0
M  V30 3379 H 311.298 -0.450882 -0.595579 0
M  V30 3380 H 313.96 -1.65871 -1.02337 0
M  V30 3381 H 313.056 -1.80832 -2.54374 0
M  V30 3382 N 313.357 1.07166 -1.15556 0
M  V30 3383 C 314.603 1.80065 -0.932984 0
M  V30 3384 C 314.936 1.86586 0.53845 0
M  V30 3385 O 314.211 1.35098 1.39924 0
M  V30 3386 C 314.494 3.25022 -1.55025 0
M  V30 3387 C 314.347 3.26634 -3.09242 0
M  V30 3388 C 315.666 4.22341 -1.2376 0
M  V30 3389 H 312.785 0.653697 -0.340366 0
M  V30 3390 H 315.427 1.25389 -1.4275 0
M  V30 3391 H 313.577 3.71712 -1.12972 0
M  V30 3392 H 315.249 2.88173 -3.60214 0
M  V30 3393 H 313.492 2.65539 -3.43033 0
M  V30 3394 H 314.163 4.28854 -3.47546 0
M  V30 3395 H 316.639 3.8405 -1.60139 0
M  V30 3396 H 315.515 5.22053 -1.69564 0
M  V30 3397 H 315.776 4.41828 -0.154938 0
M  V30 3398 N 314.835 0.952656 1.25548 0
M  V30 3399 C 316.06 0.623025 1.97821 0
M  V30 3400 C 316.485 -0.7976 1.70352 0
M  V30 3401 O 315.843 -1.53905 0.958283 0
M  V30 3402 C 315.891 0.885532 3.49558 0
M  V30 3403 O 314.995 -0.0366641 4.12384 0
M  V30 3404 H 314.336 0.237082 0.620232 0
M  V30 3405 H 316.866 1.27871 1.59719 0
M  V30 3406 H 316.876 0.811009 3.99858 0
M  V30 3407 H 315.551 1.92094 3.6888 0
M  V30 3408 H 314.128 0.0898954 3.72792 0
M  V30 3409 N 316.313 -1.40141 0.720998 0
M  V30 3410 C 317.223 -2.34486 0.0731031 0
M  V30 3411 C 318.239 -1.57587 -0.737723 0
M  V30 3412 O 319.415 -1.89949 -0.669429 0
M  V30 3413 C 316.48 -3.36528 -0.833656 0
M  V30 3414 C 315.541 -4.29298 -0.0121673 0
M  V30 3415 C 314.774 -5.26466 -0.875742 0
M  V30 3416 O 314.997 -5.29745 -2.11485 0
M  V30 3417 O 313.931 -6.01092 -0.31185 0
M  V30 3418 H 317.757 -2.9152 0.851444 0
M  V30 3419 H 315.342 -1.41427 0.481527 0
M  V30 3420 H 317.224 -3.99093 -1.35289 0
M  V30 3421 H 315.899 -2.81899 -1.59105 0
M  V30 3422 H 314.806 -3.70001 0.552262 0
M  V30 3423 H 316.139 -4.87094 0.707129 0
M  V30 3424 N 317.792 -0.46758 -1.50504 0
M  V30 3425 C 319.022 0.086288 -2.0642 0
M  V30 3426 C 319.43 1.34369 -1.33197 0
M  V30 3427 O 318.773 1.79431 -0.393747 0
M  V30 3428 C 318.835 0.443846 -3.5675 0
M  V30 3429 C 318.499 -0.711035 -4.51435 0
M  V30 3430 C 319.496 -1.59205 -4.94924 0
M  V30 3431 C 317.181 -0.900363 -4.94165 0
M  V30 3432 C 319.175 -2.64683 -5.79846 0
M  V30 3433 C 316.862 -1.95837 -5.7887 0
M  V30 3434 C 317.86 -2.82997 -6.21612 0
M  V30 3435 O 317.548 -3.86977 -7.0463 0
M  V30 3436 H 317.28 -0.00217814 -0.675996 0
M  V30 3437 H 319.834 -0.654346 -1.94698 0
M  V30 3438 H 318.064 1.23762 -3.6636 0
M  V30 3439 H 319.753 0.932386 -3.95046 0
M  V30 3440 H 320.519 -1.45745 -4.62583 0
M  V30 3441 H 316.398 -0.231427 -4.60419 0
M  V30 3442 H 319.942 -3.32745 -6.13128 0
M  V30 3443 H 315.839 -2.09305 -6.10624 0
M  V30 3444 H 316.607 -3.83923 -7.22873 0
M  V30 3445 N 319.27 1.56325 -0.20005 0
M  V30 3446 C 320.233 2.18084 0.705132 0
M  V30 3447 C 321.233 1.13666 1.1374 0
M  V30 3448 O 322.423 1.39023 1.04968 0
M  V30 3449 C 319.555 2.78689 1.96329 0
M  V30 3450 H 320.748 2.99435 0.167023 0
M  V30 3451 H 318.301 1.56221 0.0495725 0
M  V30 3452 H 319.036 2.0115 2.5438 0
M  V30 3453 H 318.821 3.55133 1.66202 0
M  V30 3454 H 320.311 3.26096 2.60866 0
M  V30 3455 N 320.748 -0.0735177 1.57428 0
M  V30 3456 C 321.994 -0.774145 1.87443 0
M  V30 3457 C 322.327 -1.77311 0.792103 0
M  V30 3458 O 321.602 -1.93492 -0.197793 0
M  V30 3459 C 321.885 -1.48367 3.28115 0
M  V30 3460 C 321.738 -0.501227 4.46999 0
M  V30 3461 C 323.057 -2.429 3.66998 0
M  V30 3462 H 320.176 -0.279971 0.681752 0
M  V30 3463 H 322.818 -0.0373616 1.89963 0
M  V30 3464 H 320.968 -2.11171 3.26097 0
M  V30 3465 H 322.64 0.121468 4.6114 0
M  V30 3466 H 320.883 0.183593 4.33411 0
M  V30 3467 H 321.554 -1.03526 5.42205 0
M  V30 3468 H 324.03 -1.90175 3.70098 0
M  V30 3469 H 322.906 -2.89549 4.66318 0
M  V30 3470 H 323.167 -3.27628 2.96837 0
M  V30 3471 N 322.226 -1.5378 -0.344866 0
M  V30 3472 C 323.474 -1.70625 -1.08311 0
M  V30 3473 C 323.795 -0.471447 -1.89215 0
M  V30 3474 O 323.065 0.514616 -1.8902 0
M  V30 3475 H 321.645 -0.629058 -0.402859 0
M  V30 3476 H 324.307 -1.9103 -0.386459 0
M  V30 3477 H 323.403 -2.57656 -1.76124 0
M  V30 3478 N 323.704 0.605807 -1.45491 0
M  V30 3479 C 324.95 1.36481 -1.50813 0
M  V30 3480 C 325.305 1.91826 -0.148469 0
M  V30 3481 O 324.598 1.72211 0.839869 0
M  V30 3482 C 324.792 2.53012 -2.52428 0
M  V30 3483 C 324.621 2.09078 -3.98141 0
M  V30 3484 C 323.391 1.95167 -4.66088 0
M  V30 3485 C 325.589 1.66438 -4.86624 0
M  V30 3486 N 323.571 1.45062 -5.96515 0
M  V30 3487 C 324.942 1.27761 -6.06694 0
M  V30 3488 C 326.997 1.54046 -4.7347 0
M  V30 3489 C 325.7 0.779286 -7.15066 0
M  V30 3490 C 327.726 1.05618 -5.81892 0
M  V30 3491 C 327.088 0.67906 -7.01119 0
M  V30 3492 H 323.187 0.493267 -0.606805 0
M  V30 3493 H 325.771 0.692347 -1.81974 0
M  V30 3494 H 323.942 3.17851 -2.23215 0
M  V30 3495 H 325.674 3.19897 -2.47887 0
M  V30 3496 H 322.429 2.16407 -4.21266 0
M  V30 3497 H 322.853 1.22237 -6.65873 0
M  V30 3498 H 327.495 1.81827 -3.81705 0
M  V30 3499 H 325.213 0.489026 -8.06619 0
M  V30 3500 H 328.799 0.964529 -5.73749 0
M  V30 3501 H 327.679 0.310091 -7.83587 0
M  V30 3502 N 325.182 1.32811 0.848464 0
M  V30 3503 C 326.114 1.18095 1.96433 0
M  V30 3504 C 327.127 0.114354 1.62398 0
M  V30 3505 O 328.316 0.363892 1.74751 0
M  V30 3506 C 325.416 0.786798 3.2964 0
M  V30 3507 C 324.589 1.943 3.91875 0
M  V30 3508 C 323.648 1.53138 5.03423 0
M  V30 3509 O 322.674 2.24432 5.23086 0
M  V30 3510 N 323.876 0.430915 5.78898 0
M  V30 3511 H 326.641 2.14218 2.09597 0
M  V30 3512 H 324.202 1.2543 1.02367 0
M  V30 3513 H 326.194 0.493715 4.01677 0
M  V30 3514 H 324.764 -0.0834541 3.12489 0
M  V30 3515 H 323.984 2.40224 3.12547 0
M  V30 3516 H 325.272 2.71689 4.30189 0
M  V30 3517 H 324.67 -0.162333 5.65467 0
M  V30 3518 H 323.227 0.197466 6.51501 0
M  V30 3519 N 326.66 -1.06551 1.16123 0
M  V30 3520 C 327.885 -1.83544 0.965735 0
M  V30 3521 C 328.31 -1.81843 -0.481102 0
M  V30 3522 O 327.668 -1.21732 -1.34354 0
M  V30 3523 C 327.716 -3.28169 1.49457 0
M  V30 3524 O 326.82 -4.0643 0.699157 0
M  V30 3525 H 326.161 -0.568026 0.343864 0
M  V30 3526 H 328.691 -1.34362 1.54299 0
M  V30 3527 H 328.701 -3.78992 1.51092 0
M  V30 3528 H 327.376 -3.28722 2.54784 0
M  V30 3529 H 325.953 -3.65216 0.7531 0
M  V30 3530 N 328.138 -0.959301 -1.25041 0
M  V30 3531 C 329.048 -0.489994 -2.29426 0
M  V30 3532 C 330.064 0.444944 -1.68215 0
M  V30 3533 O 331.24 0.320046 -1.98841 0
M  V30 3534 C 328.305 0.220309 -3.45999 0
M  V30 3535 C 327.366 -0.753418 -4.22637 0
M  V30 3536 C 326.599 -0.076918 -5.33645 0
M  V30 3537 O 326.822 1.13649 -5.58963 0
M  V30 3538 O 325.756 -0.764824 -5.97021 0
M  V30 3539 H 329.582 -1.35755 -2.71669 0
M  V30 3540 H 327.167 -0.725961 -1.30576 0
M  V30 3541 H 329.049 0.619677 -4.16819 0
M  V30 3542 H 327.724 1.06296 -3.0575 0
M  V30 3543 H 326.631 -1.20308 -3.54227 0
M  V30 3544 H 327.964 -1.56423 -4.66683 0
M  V30 3545 N 329.616 1.39756 -0.72842 0
M  V30 3546 C 330.864 2.00248 -0.272946 0
M  V30 3547 C 331.185 1.58077 1.14178 0
M  V30 3548 O 330.455 0.826014 1.77634 0
M  V30 3549 H 329.035 0.740554 -0.0979247 0
M  V30 3550 H 331.697 1.70903 -0.936912 0
M  V30 3551 H 330.793 3.10495 -0.316142 0
M  V30 3552 N 331.094 0.475555 1.50254 0
M  V30 3553 C 332.042 -0.330276 2.30243 0
M  V30 3554 C 333.036 -0.986306 1.37726 0
M  V30 3555 O 334.242 -0.9169 1.54897 0
M  V30 3556 H 330.617 -0.125353 0.741479 0
M  V30 3557 H 332.588 0.364702 2.96163 0
M  V30 3558 C 331.337 -1.39704 3.18399 0
M  V30 3559 H 330.66 -0.901621 3.89501 0
M  V30 3560 H 332.1 -1.93336 3.77355 0
M  V30 3561 C 330.559 -2.4014 2.36293 0
M  V30 3562 O 331.089 -3.45504 2.04914 0
M  V30 3563 N 329.295 -2.1197 1.98789 0
M  V30 3564 H 328.842 -1.2631 2.24507 0
M  V30 3565 H 328.8 -2.79403 1.44157 0
M  V30 3566 N 332.573 -1.56217 0.208337 0
M  V30 3567 C 333.801 -2.02337 -0.43215 0
M  V30 3568 C 334.216 -1.08834 -1.54275 0
M  V30 3569 O 333.573 -0.0955462 -1.8225 0
M  V30 3570 C 333.624 -3.48072 -0.976138 0
M  V30 3571 O 333.345 -4.38007 0.0901621 0
M  V30 3572 C 334.846 -4.09773 -1.69119 0
M  V30 3573 H 332.066 -0.662385 -0.10718 0
M  V30 3574 H 334.61 -2.01966 0.320923 0
M  V30 3575 H 332.765 -3.49099 -1.67954 0
M  V30 3576 H 333.179 -5.23543 -0.316701 0
M  V30 3577 H 334.653 -5.13556 -2.02397 0
M  V30 3578 H 335.13 -3.53999 -2.59964 0
M  V30 3579 H 335.736 -4.12556 -1.03332 0
M  V30 3580 N 334.051 0.0651679 -1.57465 0
M  V30 3581 C 335.462 0.616213 -1.76238 0
M  V30 3582 C 335.813 1.7756 -0.834689 0
M  V30 3583 O 334.938 2.1639 -0.0204156 0
M  V30 3584 C 335.533 1.12462 -3.1959 0
M  V30 3585 C 334.092 1.62147 -3.39684 0
M  V30 3586 C 333.239 0.543739 -2.71917 0
M  V30 3587 H 336.19 -0.161022 -1.57881 0
M  V30 3588 H 336.211 1.99324 -3.24114 0
M  V30 3589 H 335.723 0.280592 -3.87084 0
M  V30 3590 H 333.824 2.48854 -2.77313 0
M  V30 3591 H 333.937 1.69385 -4.48158 0
M  V30 3592 H 332.301 0.990352 -2.34657 0
M  V30 3593 H 333.084 -0.290216 -3.42071 0
M  V30 3594 N 335.529 1.53961 0.336706 0
M  V30 3595 C 336.806 1.62171 1.09361 0
M  V30 3596 C 337.186 0.447263 2.06307 0
M  V30 3597 O 336.534 -0.559802 2.21537 0
M  V30 3598 C 336.744 2.98565 1.80721 0
M  V30 3599 C 338.092 3.54157 2.34218 0
M  V30 3600 O 339.116 3.00784 1.90807 0
M  V30 3601 O 337.975 4.47528 3.13657 0
M  V30 3602 H 335.069 0.6562 0.503319 0
M  V30 3603 H 337.615 1.66307 0.33765 0
M  V30 3604 H 336.387 3.75482 1.10132 0
M  V30 3605 H 336.01 2.9805 2.63158 0
M  V30 3606 N 337.007 -0.598083 1.45811 0
M  V30 3607 C 338.418 -1.18011 1.44673 0
M  V30 3608 C 338.769 -1.95378 0.179364 0
M  V30 3609 O 337.894 -2.04124 -0.718509 0
M  V30 3610 C 338.489 -2.14677 2.62105 0
M  V30 3611 C 337.048 -2.68236 2.64057 0
M  V30 3612 C 336.195 -1.43816 2.37091 0
M  V30 3613 H 339.146 -0.38686 1.53913 0
M  V30 3614 H 339.167 -2.97878 2.36746 0
M  V30 3615 H 338.679 -1.5834 3.5433 0
M  V30 3616 H 336.78 -3.28486 1.75864 0
M  V30 3617 H 336.893 -3.12021 3.63566 0
M  V30 3618 H 335.257 -1.731 1.86838 0
M  V30 3619 H 336.04 -0.893333 3.31473 0
M  V30 3620 N 338.485 -1.33259 -0.841409 0
M  V30 3621 C 339.731 -1.25766 -1.59857 0
M  V30 3622 C 340.086 0.175602 -1.91597 0
M  V30 3623 O 339.379 1.117 -1.55672 0
M  V30 3624 C 339.573 -2.06381 -2.9179 0
M  V30 3625 C 339.402 -3.57401 -2.72937 0
M  V30 3626 C 338.172 -4.26718 -2.70628 0
M  V30 3627 C 340.37 -4.51786 -2.45753 0
M  V30 3628 N 338.352 -5.63705 -2.43125 0
M  V30 3629 C 339.723 -5.76643 -2.27777 0
M  V30 3630 C 341.778 -4.40898 -2.31329 0
M  V30 3631 C 340.481 -6.91842 -1.96841 0
M  V30 3632 C 342.507 -5.55911 -2.01786 0
M  V30 3633 C 341.869 -6.79776 -1.8462 0
M  V30 3634 H 337.968 -0.515406 -0.588117 0
M  V30 3635 H 340.552 -1.67772 -0.987955 0
M  V30 3636 H 338.723 -1.667 -3.50807 0
M  V30 3637 H 340.455 -1.90678 -3.56965 0
M  V30 3638 H 337.21 -3.78968 -2.84043 0
M  V30 3639 H 337.634 -6.35911 -2.32265 0
M  V30 3640 H 342.276 -3.45772 -2.43314 0
M  V30 3641 H 339.994 -7.86968 -1.83594 0
M  V30 3642 H 343.58 -5.49421 -1.91384 0
M  V30 3643 H 342.46 -7.67266 -1.62088 0
M  V30 3644 N 339.963 1.05934 -1.16686 0
M  V30 3645 C 340.893 2.1546 -0.899949 0
M  V30 3646 C 341.874 1.69391 0.155154 0
M  V30 3647 O 343.059 1.94199 0.00648693 0
M  V30 3648 C 340.189 3.44939 -0.404241 0
M  V30 3649 C 339.143 4.04536 -1.39767 0
M  V30 3650 C 338.469 5.29268 -0.760216 0
M  V30 3651 C 339.769 4.42893 -2.76845 0
M  V30 3652 H 341.463 2.38046 -1.81588 0
M  V30 3653 H 339.009 1.14404 -0.874514 0
M  V30 3654 H 340.962 4.20901 -0.204971 0
M  V30 3655 H 339.686 3.21983 0.547206 0
M  V30 3656 H 338.345 3.30635 -1.58355 0
M  V30 3657 H 337.993 5.02611 0.197831 0
M  V30 3658 H 337.693 5.70101 -1.42332 0
M  V30 3659 H 339.217 6.07924 -0.57105 0
M  V30 3660 H 340.631 5.09921 -2.62019 0
M  V30 3661 H 339.028 4.94721 -3.39663 0
M  V30 3662 H 340.098 3.53584 -3.31823 0
M  V30 3663 N 341.441 0.965919 1.2453 0
M  V30 3664 C 342.689 0.625593 1.92174 0
M  V30 3665 C 343.01 -0.841652 1.75901 0
M  V30 3666 O 342.28 -1.60061 1.12948 0
M  V30 3667 H 340.86 0.228388 0.71123 0
M  V30 3668 H 343.522 1.2266 1.51461 0
M  V30 3669 H 342.618 0.864653 2.99884 0
M  V30 3670 N 342.919 -1.39368 0.735821 0
M  V30 3671 C 344.33 -1.83313 0.354015 0
M  V30 3672 C 344.681 -1.61461 -1.11466 0
M  V30 3673 O 343.806 -1.10621 -1.85989 0
M  V30 3674 C 344.401 -3.32781 0.635769 0
M  V30 3675 C 342.96 -3.75142 0.307448 0
M  V30 3676 C 342.107 -2.62358 0.897974 0
M  V30 3677 H 345.058 -1.28349 0.933398 0
M  V30 3678 H 345.079 -3.80388 -0.0921773 0
M  V30 3679 H 344.591 -3.48654 1.70476 0
M  V30 3680 H 342.692 -3.64857 -0.755674 0
M  V30 3681 H 342.805 -4.72532 0.790583 0
M  V30 3682 H 341.169 -2.52624 0.324551 0
M  V30 3683 H 341.952 -2.81036 1.97164 0
M  V30 3684 N 344.397 -0.483516 -1.5 0
M  V30 3685 C 345.674 0.129337 -1.95172 0
M  V30 3686 C 346.054 1.55802 -1.4244 0
M  V30 3687 O 345.402 2.19625 -0.630649 0
M  V30 3688 C 345.612 0.0599251 -3.48949 0
M  V30 3689 C 346.96 0.242617 -4.23906 0
M  V30 3690 O 347.984 0.135933 -3.55941 0
M  V30 3691 O 346.843 0.459454 -5.44565 0
M  V30 3692 H 343.937 0.104887 -0.820322 0
M  V30 3693 H 346.483 -0.544807 -1.60717 0
M  V30 3694 H 345.255 -0.937079 -3.79914 0
M  V30 3695 H 344.878 0.774984 -3.89974 0
M  V30 3696 N 345.875 1.56104 -0.216619 0
M  V30 3697 C 347.121 1.98466 0.417033 0
M  V30 3698 C 347.454 1.10403 1.59765 0
M  V30 3699 O 346.729 0.160632 1.93836 0
M  V30 3700 C 347.012 3.49769 0.85637 0
M  V30 3701 C 346.865 4.48606 -0.327546 0
M  V30 3702 C 348.184 4.05339 1.7143 0
M  V30 3703 H 345.303 0.721551 0.150112 0
M  V30 3704 H 347.945 1.87423 -0.311864 0
M  V30 3705 H 346.095 3.5931 1.47745 0
M  V30 3706 H 347.767 4.5108 -0.965618 0
M  V30 3707 H 346.01 4.22682 -0.975805 0
M  V30 3708 H 346.681 5.51995 0.0227149 0
M  V30 3709 H 349.157 3.98712 1.19031 0
M  V30 3710 H 348.033 5.11533 1.99061 0
M  V30 3711 H 348.294 3.51918 2.67593 0
M  V30 3712 N 347.353 -0.0568162 1.57498 0
M  V30 3713 C 348.285 -1.09292 2.01464 0
M  V30 3714 C 349.298 -1.34112 0.922913 0
M  V30 3715 O 350.487 -1.32089 1.20062 0
M  V30 3716 C 347.587 -2.44068 2.35125 0
M  V30 3717 C 346.76 -2.38995 3.66333 0
M  V30 3718 C 345.819 -3.55997 3.87495 0
M  V30 3719 O 344.845 -3.36746 4.58901 0
M  V30 3720 N 346.047 -4.76888 3.30996 0
M  V30 3721 H 348.812 -0.718386 2.90963 0
M  V30 3722 H 346.373 -0.245235 1.60032 0
M  V30 3723 H 348.365 -3.21011 2.46443 0
M  V30 3724 H 346.935 -2.73468 1.5144 0
M  V30 3725 H 346.155 -1.47336 3.65631 0
M  V30 3726 H 347.443 -2.3272 4.52458 0
M  V30 3727 H 346.841 -4.95431 2.73065 0
M  V30 3728 H 345.398 -5.51291 3.47738 0
M  V30 3729 N 348.832 -1.54138 -0.328536 0
M  V30 3730 C 350.109 -1.62749 -1.08499 0
M  V30 3731 C 350.489 -0.458198 -2.06067 0
M  V30 3732 O 349.837 0.548046 -2.2183 0
M  V30 3733 C 350.047 -2.99519 -1.79135 0
M  V30 3734 C 351.395 -3.55394 -2.32337 0
M  V30 3735 O 352.419 -3.01792 -1.89209 0
M  V30 3736 O 351.278 -4.49186 -3.11279 0
M  V30 3737 H 348.372 -0.65886 -0.499832 0
M  V30 3738 H 350.918 -1.66484 -0.328826 0
M  V30 3739 H 349.69 -3.76061 -1.08139 0
M  V30 3740 H 349.313 -2.99441 -2.61574 0
M  V30 3741 N 350.31 0.590341 -1.46126 0
M  V30 3742 C 351.24 1.71032 -1.58966 0
M  V30 3743 C 352.221 1.64302 -0.440335 0
M  V30 3744 O 353.406 1.82436 -0.665634 0
M  V30 3745 C 350.536 3.09665 -1.57241 0
M  V30 3746 C 349.49 3.31221 -2.71066 0
M  V30 3747 C 348.816 4.70303 -2.54399 0
M  V30 3748 C 350.116 3.19796 -4.1295 0
M  V30 3749 H 351.81 1.60543 -2.52718 0
M  V30 3750 H 349.356 0.770933 -1.21625 0
M  V30 3751 H 351.309 3.87831 -1.64819 0
M  V30 3752 H 350.033 3.21036 -0.600289 0
M  V30 3753 H 348.692 2.55452 -2.62944 0
M  V30 3754 H 348.34 4.78429 -1.55288 0
M  V30 3755 H 348.04 4.85679 -3.30741 0
M  V30 3756 H 349.564 5.50647 -2.63857 0
M  V30 3757 H 350.978 3.87815 -4.22223 0
M  V30 3758 H 349.375 3.46696 -4.89818 0
M  V30 3759 H 350.445 2.16983 -4.33643 0
M  V30 3760 N 351.788 1.33704 0.83433 0
M  V30 3761 C 353.016 1.28467 1.62185 0
M  V30 3762 C 353.431 -0.143526 1.88254 0
M  V30 3763 O 352.788 -1.08709 1.4659 0
M  V30 3764 C 352.839 2.06174 2.96942 0
M  V30 3765 O 352.56 3.43422 2.72016 0
M  V30 3766 C 354.061 2.08201 3.91366 0
M  V30 3767 H 351.281 0.4424 0.504503 0
M  V30 3768 H 353.825 1.76145 1.03891 0
M  V30 3769 H 351.98 1.62167 3.51825 0
M  V30 3770 H 352.394 3.83453 3.57861 0
M  V30 3771 H 353.868 2.67017 4.83121 0
M  V30 3772 H 354.345 1.07343 4.2588 0
M  V30 3773 H 354.951 2.52246 3.42421 0
M  V30 3774 N 353.266 -1.05314 1.17247 0
M  V30 3775 C 354.682 -1.30452 0.919473 0
M  V30 3776 C 354.882 -1.9703 -0.42209 0
M  V30 3777 O 353.938 -2.24311 -1.15935 0
M  V30 3778 C 355.251 -2.17551 2.07586 0
M  V30 3779 C 356.799 -2.30937 2.11275 0
M  V30 3780 C 357.274 -3.21396 3.26296 0
M  V30 3781 N 358.765 -3.28981 3.26076 0
M  V30 3782 C 359.5 -3.99095 4.11716 0
M  V30 3783 N 358.996 -4.71648 5.07465 0
M  V30 3784 N 360.789 -3.95247 3.9967 0
M  V30 3785 H 352.94 -0.604988 2.03602 0
M  V30 3786 H 355.203 -0.329368 0.888944 0
M  V30 3787 H 354.909 -1.75921 3.0454 0
M  V30 3788 H 354.783 -3.18182 2.02584 0
M  V30 3789 H 357.17 -2.71809 1.14907 0
M  V30 3790 H 357.251 -1.2994 2.20339 0
M  V30 3791 H 356.895 -2.81238 4.22927 0
M  V30 3792 H 356.825 -4.22395 3.14467 0
M  V30 3793 H 359.316 -2.77286 2.5675 0
M  V30 3794 H 359.629 -5.22705 5.6921 0
M  V30 3795 H 357.974 -4.70594 5.11435 0
M  V30 3796 H 361.165 -3.37691 3.24164 0
M  V30 3797 H 361.338 -4.4962 4.66632 0
M  V30 3798 N 354.744 -0.972509 -1.24016 0
M  V30 3799 C 356.021 -0.553733 -1.87598 0
M  V30 3800 C 356.401 0.969158 -1.87538 0
M  V30 3801 O 355.749 1.84255 -1.35139 0
M  V30 3802 C 355.959 -1.15076 -3.29482 0
M  V30 3803 C 357.307 -1.23862 -4.06132 0
M  V30 3804 O 358.331 -1.10363 -3.38672 0
M  V30 3805 O 357.19 -1.45252 -5.26844 0
M  V30 3806 H 354.284 -0.185331 -0.805966 0
M  V30 3807 H 356.83 -1.06709 -1.31952 0
M  V30 3808 H 355.602 -2.19333 -3.2405 0
M  V30 3809 H 355.225 -0.621746 -3.92709 0
M  V30 3810 N 356.222 1.38976 -0.743202 0
M  V30 3811 C 357.152 2.33171 -0.123873 0
M  V30 3812 C 358.133 1.54336 0.71516 0
M  V30 3813 O 359.318 1.82696 0.658467 0
M  V30 3814 C 356.448 3.38474 0.777978 0
M  V30 3815 C 355.402 4.27979 0.0424758 0
M  V30 3816 C 354.728 5.2405 1.06189 0
M  V30 3817 C 356.028 5.10155 -1.1198 0
M  V30 3818 H 357.722 2.85213 -0.910709 0
M  V30 3819 H 355.268 1.37133 -0.439388 0
M  V30 3820 H 357.221 4.03328 1.22084 0
M  V30 3821 H 355.945 2.84891 1.59702 0
M  V30 3822 H 354.604 3.64616 -0.380853 0
M  V30 3823 H 354.252 4.66758 1.87472 0
M  V30 3824 H 353.952 5.84785 0.574485 0
M  V30 3825 H 355.476 5.9178 1.50428 0
M  V30 3826 H 356.89 5.68307 -0.75499 0
M  V30 3827 H 355.287 5.80073 -1.53738 0
M  V30 3828 H 356.357 4.44504 -1.93764 0
M  V30 3829 N 357.7 0.491464 1.49741 0
M  V30 3830 C 358.947 -0.0564256 2.02421 0
M  V30 3831 C 359.275 -1.37872 1.37192 0
M  V30 3832 O 358.53 -1.89375 0.493508 0
M  V30 3833 C 358.829 -0.267329 3.56399 0
M  V30 3834 C 358.495 0.975775 4.40215 0
M  V30 3835 C 357.157 1.31655 4.62839 0
M  V30 3836 C 359.509 1.80251 4.89039 0
M  V30 3837 C 356.837 2.48375 5.31532 0
M  V30 3838 C 359.189 2.96116 5.59015 0
M  V30 3839 C 357.853 3.30585 5.79888 0
M  V30 3840 H 357.123 -0.0206476 0.740712 0
M  V30 3841 H 359.77 0.649686 1.80143 0
M  V30 3842 H 358.075 -1.05588 3.77304 0
M  V30 3843 H 359.772 -0.705549 3.94744 0
M  V30 3844 H 356.362 0.700315 4.2284 0
M  V30 3845 H 360.546 1.55239 4.71396 0
M  V30 3846 H 355.802 2.7533 5.45897 0
M  V30 3847 H 359.976 3.60509 5.95824 0
M  V30 3848 H 357.603 4.21132 6.32892 0
M  V30 3849 N 359.178 -1.55987 0.224894 0
M  V30 3850 C 360.088 -2.24066 -0.69511 0
M  V30 3851 C 361.104 -1.24939 -1.21104 0
M  V30 3852 O 362.28 -1.5776 -1.25195 0
M  V30 3853 C 359.345 -2.90983 -1.88493 0
M  V30 3854 C 358.406 -4.05462 -1.41064 0
M  V30 3855 C 357.639 -4.69179 -2.54375 0
M  V30 3856 O 357.862 -4.31895 -3.72589 0
M  V30 3857 O 356.796 -5.58108 -2.25386 0
M  V30 3858 H 360.622 -3.03353 -0.145149 0
M  V30 3859 H 358.207 -1.49399 -0.00569476 0
M  V30 3860 H 360.089 -3.33209 -2.57972 0
M  V30 3861 H 358.764 -2.14653 -2.42293 0
M  V30 3862 H 357.671 -3.67798 -0.683774 0
M  V30 3863 H 359.004 -4.83545 -0.918985 0
M  V30 3864 N 360.656 0.0484629 -1.57525 0
M  V30 3865 C 361.588 1.08222 -2.02041 0
M  V30 3866 C 362.601 1.33621 -0.930012 0
M  V30 3867 O 363.79 1.3145 -1.20761 0
M  V30 3868 C 360.89 2.42818 -2.36416 0
M  V30 3869 C 360.063 2.37049 -3.67596 0
M  V30 3870 C 359.122 3.53937 -3.89378 0
M  V30 3871 O 358.148 3.34308 -4.60681 0
M  V30 3872 N 359.35 4.75126 -3.3352 0
M  V30 3873 H 362.115 0.702946 -2.9134 0
M  V30 3874 H 359.676 0.236745 -1.6016 0
M  V30 3875 H 361.668 3.197 -2.48141 0
M  V30 3876 H 360.238 2.72661 -1.52888 0
M  V30 3877 H 359.458 1.45395 -3.66407 0
M  V30 3878 H 360.746 2.30318 -4.53686 0
M  V30 3879 H 360.144 4.93976 -2.75688 0
M  V30 3880 H 358.701 5.49439 -3.50656 0
M  V30 3881 N 362.134 1.5431 0.320358 0
M  V30 3882 C 363.081 1.83918 1.39438 0
M  V30 3883 C 364.051 0.686525 1.51248 0
M  V30 3884 O 365.236 0.933269 1.66417 0
M  V30 3885 C 362.376 2.075 2.75749 0
M  V30 3886 C 361.489 3.35177 2.72544 0
M  V30 3887 C 360.624 3.48704 4.00723 0
M  V30 3888 C 359.663 4.70244 3.91838 0
M  V30 3889 N 358.8 4.80679 5.11754 0
M  V30 3890 H 363.64 2.75544 1.13489 0
M  V30 3891 H 361.177 1.36459 0.549309 0
M  V30 3892 H 363.135 2.19166 3.54996 0
M  V30 3893 H 361.765 1.19163 3 0
M  V30 3894 H 360.817 3.32233 1.85271 0
M  V30 3895 H 362.129 4.24534 2.61863 0
M  V30 3896 H 361.283 3.59928 4.88402 0
M  V30 3897 H 360.022 2.57445 4.14214 0
M  V30 3898 H 359.027 4.59072 3.02544 0
M  V30 3899 H 360.252 5.6289 3.7991 0
M  V30 3900 H 358.198 3.92337 5.25745 0
M  V30 3901 H 358.115 5.64007 5.0342 0
M  V30 3902 H 359.383 4.96239 6.01138 0
M  V30 3903 N 363.613 -0.582584 1.46437 0
M  V30 3904 C 364.861 -1.33814 1.51453 0
M  V30 3905 C 365.182 -1.94277 0.167792 0
M  V30 3906 O 364.452 -1.78566 -0.805677 0
M  V30 3907 H 363.032 -0.496838 0.557818 0
M  V30 3908 H 365.694 -0.682281 1.82568 0
M  V30 3909 H 364.79 -2.14479 2.26728 0
M  V30 3910 N 365.091 -1.34144 -0.827227 0
M  V30 3911 C 366.321 -1.29138 -1.61267 0
M  V30 3912 C 366.729 0.137597 -1.88699 0
M  V30 3913 O 366.072 1.09379 -1.47587 0
M  V30 3914 C 366.134 -2.0097 -2.9808 0
M  V30 3915 C 365.798 -3.50242 -2.93563 0
M  V30 3916 C 366.795 -4.4523 -2.68452 0
M  V30 3917 C 364.48 -3.92592 -3.13331 0
M  V30 3918 C 366.474 -5.80542 -2.63154 0
M  V30 3919 C 364.161 -5.28005 -3.07658 0
M  V30 3920 C 365.159 -6.21792 -2.82602 0
M  V30 3921 O 364.847 -7.54723 -2.76853 0
M  V30 3922 H 364.579 -0.445851 -0.508127 0
M  V30 3923 H 367.133 -1.77263 -1.03763 0
M  V30 3924 H 365.363 -1.47451 -3.57484 0
M  V30 3925 H 367.052 -1.89309 -3.5905 0
M  V30 3926 H 367.818 -4.13832 -2.52919 0
M  V30 3927 H 363.697 -3.19994 -3.31851 0
M  V30 3928 H 367.241 -6.53717 -2.43516 0
M  V30 3929 H 363.138 -5.59023 -3.22743 0
M  V30 3930 H 363.906 -7.64409 -2.92611 0
M  V30 3931 N 366.569 1.04691 -1.17803 0
M  V30 3932 C 367.501 2.12571 -0.857097 0
M  V30 3933 C 368.514 1.62174 0.142647 0
M  V30 3934 O 369.703 1.78301 -0.0843387 0
M  V30 3935 C 366.803 3.37915 -0.258216 0
M  V30 3936 C 365.976 4.1757 -1.30207 0
M  V30 3937 C 365.035 5.2125 -0.720029 0
M  V30 3938 O 364.061 5.51888 -1.39314 0
M  V30 3939 N 365.263 5.78466 0.485507 0
M  V30 3940 H 368.028 2.40698 -1.78562 0
M  V30 3941 H 365.589 1.20831 -1.07757 0
M  V30 3942 H 367.581 4.04442 0.144584 0
M  V30 3943 H 366.151 3.07281 0.574199 0
M  V30 3944 H 365.371 3.46458 -1.88043 0
M  V30 3945 H 366.659 4.67586 -2.00601 0
M  V30 3946 H 366.057 5.55866 1.05022 0
M  V30 3947 H 364.614 6.4649 0.830307 0
M  V30 3948 N 368.047 0.979072 1.23499 0
M  V30 3949 C 369.01 0.523244 2.23147 0
M  V30 3950 C 370.01 -0.386406 1.56088 0
M  V30 3951 O 371.2 -0.180283 1.73265 0
M  V30 3952 C 368.332 -0.240739 3.40049 0
M  V30 3953 H 369.525 1.40432 2.64989 0
M  V30 3954 H 367.078 0.764824 1.36309 0
M  V30 3955 H 367.813 -1.13841 3.03662 0
M  V30 3956 H 367.598 0.412207 3.89927 0
M  V30 3957 H 369.088 -0.548297 4.13985 0
M  V30 3958 N 369.525 -1.3858 0.750561 0
M  V30 3959 C 370.772 -2.00184 0.305373 0
M  V30 3960 C 371.1 -1.59575 -1.11203 0
M  V30 3961 O 370.355 -0.823236 -1.77542 0
M  V30 3962 C 370.654 -3.55455 0.372373 0
M  V30 3963 C 370.32 -4.15765 1.745 0
M  V30 3964 C 368.982 -4.31951 2.12065 0
M  V30 3965 C 371.334 -4.49067 2.64553 0
M  V30 3966 C 368.662 -4.78734 3.39162 0
M  V30 3967 C 371.014 -4.97265 3.91038 0
M  V30 3968 C 369.678 -5.11658 4.28676 0
M  V30 3969 H 368.948 -0.732526 0.111744 0
M  V30 3970 H 371.595 -1.65673 0.960451 0
M  V30 3971 H 369.9 -3.90084 -0.366272 0
M  V30 3972 H 371.597 -4.00999 0.00953918 0
M  V30 3973 H 368.187 -4.03579 1.44297 0
M  V30 3974 H 372.371 -4.36166 2.36796 0
M  V30 3975 H 367.627 -4.88062 3.68246 0
M  V30 3976 H 371.801 -5.22003 4.60962 0
M  V30 3977 H 369.428 -5.47668 5.27222 0
M  V30 3978 N 371.003 -0.499398 -1.49478 0
M  V30 3979 C 372.249 0.0457576 -2.02748 0
M  V30 3980 C 372.582 1.36793 -1.37846 0
M  V30 3981 O 371.857 1.87596 -0.513601 0
M  V30 3982 C 372.14 0.199986 -3.59544 0
M  V30 3983 C 371.993 -1.1452 -4.34977 0
M  V30 3984 C 373.312 0.94137 -4.29914 0
M  V30 3985 H 370.431 0.0151552 -0.736844 0
M  V30 3986 H 373.073 -0.650498 -1.78518 0
M  V30 3987 H 371.223 0.793007 -3.8032 0
M  V30 3988 H 372.895 -1.77697 -4.25701 0
M  V30 3989 H 371.138 -1.73488 -3.97598 0
M  V30 3990 H 371.809 -0.990607 -5.43039 0
M  V30 3991 H 374.285 0.43844 -4.13784 0
M  V30 3992 H 373.161 1.01812 -5.39375 0
M  V30 3993 H 373.422 1.98471 -3.95046 0
M  V30 3994 N 372.481 1.55866 -0.233164 0
M  V30 3995 C 373.711 2.02704 0.399325 0
M  V30 3996 C 374.119 1.11204 1.53069 0
M  V30 3997 O 373.462 0.116182 1.83332 0
M  V30 3998 C 373.524 3.45844 0.981429 0
M  V30 3999 C 373.188 4.56997 -0.0159561 0
M  V30 4000 C 374.185 5.13384 -0.820552 0
M  V30 4001 C 371.87 5.0211 -0.138072 0
M  V30 4002 C 373.864 6.13365 -1.73386 0
M  V30 4003 C 371.551 6.01926 -1.0549 0
M  V30 4004 C 372.549 6.57431 -1.85132 0
M  V30 4005 O 372.237 7.55302 -2.75272 0
M  V30 4006 H 371.969 0.668459 0.100692 0
M  V30 4007 H 374.523 2.02387 -0.35052 0
M  V30 4008 H 372.753 3.43267 1.78058 0
M  V30 4009 H 374.442 3.76262 1.52255 0
M  V30 4010 H 375.208 4.79372 -0.736721 0
M  V30 4011 H 371.087 4.5858 0.471737 0
M  V30 4012 H 374.631 6.56614 -2.35592 0
M  V30 4013 H 370.528 6.35359 -1.1397 0
M  V30 4014 H 371.296 7.72867 -2.69477 0
M  V30 4015 N 373.959 -0.0401083 1.57549 0
M  V30 4016 C 375.205 -0.734211 1.89043 0
M  V30 4017 C 375.538 -1.75591 0.829535 0
M  V30 4018 O 374.813 -1.93868 -0.156706 0
M  V30 4019 C 375.096 -1.41374 3.31188 0
M  V30 4020 C 374.949 -0.406299 4.47961 0
M  V30 4021 C 376.268 -2.35061 3.72068 0
M  V30 4022 H 373.387 -0.265447 0.687537 0
M  V30 4023 H 376.029 0.00294087 1.9 0
M  V30 4024 H 374.179 -2.04206 3.30503 0
M  V30 4025 H 375.851 0.219255 4.60779 0
M  V30 4026 H 374.094 0.275485 4.32924 0
M  V30 4027 H 374.765 -0.920022 5.44279 0
M  V30 4028 H 377.241 -1.82282 3.74049 0
M  V30 4029 H 376.117 -2.79593 4.72355 0
M  V30 4030 H 376.378 -3.21258 3.0372 0
M  V30 4031 N 375.437 -1.54477 -0.31217 0
M  V30 4032 C 376.848 -1.64344 -0.885891 0
M  V30 4033 C 377.199 -0.54485 -1.88483 0
M  V30 4034 O 376.324 0.320387 -2.14015 0
M  V30 4035 C 376.919 -2.97908 -1.61357 0
M  V30 4036 C 375.478 -3.09933 -2.13585 0
M  V30 4037 C 374.625 -2.59971 -0.964897 0
M  V30 4038 H 377.576 -1.58448 -0.0894528 0
M  V30 4039 H 377.597 -2.88706 -2.47848 0
M  V30 4040 H 377.109 -3.77845 -0.886277 0
M  V30 4041 H 375.21 -2.34694 -2.89395 0
M  V30 4042 H 375.323 -4.15916 -2.37804 0
M  V30 4043 H 373.687 -2.16147 -1.34731 0
M  V30 4044 H 374.47 -3.42376 -0.251742 0
M  V30 4045 N 376.915 0.57481 -1.46744 0
M  V30 4046 C 378.161 1.3347 -1.52688 0
M  V30 4047 C 378.494 1.93353 -0.181229 0
M  V30 4048 O 377.769 1.76912 0.808237 0
M  V30 4049 C 378.052 2.45811 -2.63152 0
M  V30 4050 C 377.905 1.90912 -4.07275 0
M  V30 4051 C 379.224 3.47822 -2.69644 0
M  V30 4052 H 376.343 0.483935 -0.555856 0
M  V30 4053 H 378.985 0.644968 -1.78718 0
M  V30 4054 H 377.135 3.04646 -2.41088 0
M  V30 4055 H 378.807 1.36473 -4.4065 0
M  V30 4056 H 377.05 1.21691 -4.16382 0
M  V30 4057 H 377.721 2.72042 -4.80309 0
M  V30 4058 H 380.197 2.9888 -2.895 0
M  V30 4059 H 379.073 4.23876 -3.48742 0
M  V30 4060 H 379.334 4.05555 -1.76005 0
M  V30 4061 N 378.394 1.34581 0.820102 0
M  V30 4062 C 379.642 1.26845 1.57336 0
M  V30 4063 C 379.963 -0.160667 1.94337 0
M  V30 4064 O 379.233 -1.09396 1.6251 0
M  V30 4065 H 377.813 0.466514 0.583415 0
M  V30 4066 H 380.475 1.68526 0.979027 0
M  V30 4067 H 379.571 1.87513 2.4949 0
M  V30 4068 N 379.872 -1.04064 1.18357 0
M  V30 4069 C 381.119 -1.77265 0.978947 0
M  V30 4070 C 381.447 -1.88189 -0.491428 0
M  V30 4071 O 380.702 -1.38653 -1.38108 0
M  V30 4072 C 381.001 -3.20634 1.57888 0
M  V30 4073 C 380.667 -3.29743 3.07539 0
M  V30 4074 C 379.329 -3.31937 3.48384 0
M  V30 4075 C 381.681 -3.29841 4.03552 0
M  V30 4076 C 379.009 -3.3187 4.83818 0
M  V30 4077 C 381.361 -3.31313 5.38901 0
M  V30 4078 C 380.025 -3.31799 5.79194 0
M  V30 4079 H 379.295 -0.648659 0.358222 0
M  V30 4080 H 381.942 -1.22225 1.47422 0
M  V30 4081 H 380.247 -3.78675 1.00561 0
M  V30 4082 H 381.944 -3.75917 1.39598 0
M  V30 4083 H 378.534 -3.28757 2.74986 0
M  V30 4084 H 382.718 -3.27337 3.73047 0
M  V30 4085 H 377.974 -3.30562 5.14333 0
M  V30 4086 H 382.148 -3.30338 6.13066 0
M  V30 4087 H 379.775 -3.315 6.84114 0
M  V30 4088 N 381.35 -0.985608 -1.22978 0
M  V30 4089 C 382.596 -0.65836 -1.91816 0
M  V30 4090 C 382.929 0.806692 -1.76653 0
M  V30 4091 O 382.204 1.58252 -1.13078 0
M  V30 4092 C 382.487 -1.056 -3.44268 0
M  V30 4093 C 382.34 -2.57906 -3.68516 0
M  V30 4094 C 383.659 -0.603781 -4.35939 0
M  V30 4095 H 380.778 -0.24065 -0.696604 0
M  V30 4096 H 383.42 -1.22783 -1.44998 0
M  V30 4097 H 381.57 -0.571445 -3.84274 0
M  V30 4098 H 383.242 -3.13976 -3.3796 0
M  V30 4099 H 381.485 -3.00305 -3.13048 0
M  V30 4100 H 382.156 -2.80779 -4.75255 0
M  V30 4101 H 384.632 -1.01987 -4.03408 0
M  V30 4102 H 383.508 -0.910383 -5.41298 0
M  V30 4103 H 383.769 0.495761 -4.39312 0
M  V30 4104 N 382.828 1.3818 -0.7579 0
M  V30 4105 C 383.791 2.28764 -0.141286 0
M  V30 4106 C 384.791 1.47388 0.642907 0
M  V30 4107 O 385.981 1.67781 0.468536 0
M  V30 4108 C 383.113 3.31184 0.808069 0
M  V30 4109 H 384.306 2.848 -0.939633 0
M  V30 4110 H 381.859 1.47212 -0.525191 0
M  V30 4111 H 382.594 2.80247 1.63193 0
M  V30 4112 H 382.379 3.91314 0.248104 0
M  V30 4113 H 383.869 3.98909 1.23536 0
M  V30 4114 N 384.306 0.507319 1.49211 0
M  V30 4115 C 385.583 -0.0982702 1.95353 0
M  V30 4116 C 385.963 -1.53516 1.449 0
M  V30 4117 O 385.311 -2.18594 0.66551 0
M  V30 4118 C 385.521 -0.00440283 3.49 0
M  V30 4119 C 386.869 -0.175147 4.24239 0
M  V30 4120 O 387.893 -0.0792891 3.56112 0
M  V30 4121 O 386.752 -0.37276 5.45227 0
M  V30 4122 H 383.846 -0.0918236 0.821887 0
M  V30 4123 H 386.392 0.570307 1.5983 0
M  V30 4124 H 385.164 0.997402 3.78375 0
M  V30 4125 H 384.787 -0.712845 3.91158 0
M  V30 4126 N 385.784 -1.5574 0.241426 0
M  V30 4127 C 386.734 -2.17803 -0.674233 0
M  V30 4128 C 387.718 -1.13225 -1.14319 0
M  V30 4129 O 388.91 -1.39153 -1.09387 0
M  V30 4130 C 386.039 -2.87682 -1.87333 0
M  V30 4131 C 385.125 -3.99509 -1.42313 0
M  V30 4132 N 385.516 -5.01115 -0.686798 0
M  V30 4133 C 383.814 -4.11964 -1.70885 0
M  V30 4134 C 384.515 -5.79922 -0.454456 0
M  V30 4135 N 383.491 -5.34001 -1.01705 0
M  V30 4136 H 387.293 -2.93718 -0.103447 0
M  V30 4137 H 384.807 -1.62342 0.0435095 0
M  V30 4138 H 386.804 -3.3057 -2.54026 0
M  V30 4139 H 385.464 -2.13269 -2.4484 0
M  V30 4140 H 386.475 -5.16799 -0.337459 0
M  V30 4141 H 383.152 -3.48718 -2.2957 0
M  V30 4142 H 384.542 -6.71768 0.132992 0
M  V30 4143 N 387.262 0.0317525 -1.57568 0
M  V30 4144 C 388.192 1.03274 -2.0942 0
M  V30 4145 C 389.173 1.3788 -0.996143 0
M  V30 4146 O 390.358 1.46811 -1.27122 0
M  V30 4147 C 387.488 2.33448 -2.57137 0
M  V30 4148 C 386.442 2.13091 -3.71182 0
M  V30 4149 C 385.768 3.49001 -4.05095 0
M  V30 4150 C 387.068 1.51928 -4.99715 0
M  V30 4151 H 388.762 0.60112 -2.93303 0
M  V30 4152 H 386.308 0.287705 -1.41097 0
M  V30 4153 H 388.261 3.03802 -2.92032 0
M  V30 4154 H 386.985 2.78665 -1.70333 0
M  V30 4155 H 385.644 1.45171 -3.36632 0
M  V30 4156 H 385.292 3.91862 -3.15362 0
M  V30 4157 H 384.992 3.36207 -4.81911 0
M  V30 4158 H 386.516 4.20721 -4.42522 0
M  V30 4159 H 387.93 2.12196 -5.32584 0
M  V30 4160 H 386.327 1.49716 -5.81124 0
M  V30 4161 H 387.397 0.484811 -4.8247 0
M  V30 4162 N 388.74 1.54641 0.303973 0
M  V30 4163 C 389.65 1.88439 1.39743 0
M  V30 4164 C 390.666 0.778239 1.55626 0
M  V30 4165 O 391.842 1.07442 1.70347 0
M  V30 4166 C 388.907 2.12212 2.74166 0
M  V30 4167 C 387.968 3.35936 2.67293 0
M  V30 4168 C 387.201 3.58566 3.95305 0
M  V30 4169 O 387.424 2.84263 4.9452 0
M  V30 4170 O 386.358 4.52078 3.97378 0
M  V30 4171 H 390.184 2.81458 1.14083 0
M  V30 4172 H 387.769 1.40793 0.499768 0
M  V30 4173 H 389.651 2.29067 3.53704 0
M  V30 4174 H 388.326 1.22379 2.99675 0
M  V30 4175 H 387.233 3.24448 1.86237 0
M  V30 4176 H 388.566 4.2589 2.46736 0
M  V30 4177 N 390.218 -0.567019 1.47046 0
M  V30 4178 C 391.464 -1.32658 1.53394 0
M  V30 4179 C 391.797 -1.93254 0.19148 0
M  V30 4180 O 391.072 -1.77338 -0.798844 0
M  V30 4181 C 391.355 -2.44412 2.64452 0
M  V30 4182 C 391.208 -1.88749 4.08282 0
M  V30 4183 C 392.527 -3.46387 2.71485 0
M  V30 4184 H 389.646 -0.48098 0.558415 0
M  V30 4185 H 392.288 -0.635481 1.79058 0
M  V30 4186 H 390.438 -3.03363 2.427 0
M  V30 4187 H 392.11 -1.34134 4.41368 0
M  V30 4188 H 390.353 -1.19481 4.17021 0
M  V30 4189 H 391.024 -2.69491 4.81745 0
M  V30 4190 H 393.5 -2.9734 2.91081 0
M  V30 4191 H 392.376 -4.2202 3.50985 0
M  V30 4192 H 392.637 -4.04616 1.78153 0
M  V30 4193 N 391.696 -1.35014 -0.812953 0
M  V30 4194 C 392.626 -1.30069 -1.93919 0
M  V30 4195 C 393.607 -0.176275 -1.69184 0
M  V30 4196 O 394.792 -0.370227 -1.90638 0
M  V30 4197 C 391.922 -1.06547 -3.30552 0
M  V30 4198 C 390.876 -2.15561 -3.69753 0
M  V30 4199 C 390.202 -1.77214 -5.04479 0
M  V30 4200 C 391.502 -3.57476 -3.808 0
M  V30 4201 H 393.196 -2.24303 -1.98314 0
M  V30 4202 H 390.742 -1.07977 -0.952736 0
M  V30 4203 H 392.695 -1.01729 -4.08937 0
M  V30 4204 H 391.419 -0.0875719 -3.26483 0
M  V30 4205 H 390.078 -2.19466 -2.9365 0
M  V30 4206 H 389.726 -0.780589 -4.96906 0
M  V30 4207 H 389.426 -2.50184 -5.31678 0
M  V30 4208 H 390.95 -1.7391 -5.8531 0
M  V30 4209 H 392.364 -3.55929 -4.4943 0
M  V30 4210 H 390.761 -4.29152 -4.19462 0
M  V30 4211 H 391.831 -3.94091 -2.82525 0
M  V30 4212 N 393.175 1.03435 -1.18907 0
M  V30 4213 C 394.405 1.8012 -1.01195 0
M  V30 4214 C 394.813 1.8395 0.442613 0
M  V30 4215 O 394.156 1.27836 1.31923 0
M  V30 4216 C 394.218 3.26792 -1.49823 0
M  V30 4217 C 393.882 3.46609 -2.97844 0
M  V30 4218 C 394.879 3.37278 -3.95651 0
M  V30 4219 C 392.564 3.73001 -3.36416 0
M  V30 4220 C 394.558 3.54054 -5.30023 0
M  V30 4221 C 392.245 3.89423 -4.70949 0
M  V30 4222 C 393.243 3.79951 -5.67562 0
M  V30 4223 O 392.931 3.95895 -6.99659 0
M  V30 4224 H 392.663 0.573865 -0.357289 0
M  V30 4225 H 395.217 1.31207 -1.58031 0
M  V30 4226 H 393.447 3.76703 -0.873578 0
M  V30 4227 H 395.136 3.85055 -1.28404 0
M  V30 4228 H 395.902 3.16846 -3.67197 0
M  V30 4229 H 391.781 3.79469 -2.61772 0
M  V30 4230 H 395.325 3.46577 -6.05417 0
M  V30 4231 H 391.222 4.09351 -4.99101 0
M  V30 4232 H 391.99 4.13019 -7.06653 0
M  V30 4233 N 394.653 0.992116 1.22453 0
M  V30 4234 C 395.93 0.583508 1.86694 0
M  V30 4235 C 396.31 -0.9392 1.89056 0
M  V30 4236 O 395.658 -1.82081 1.38053 0
M  V30 4237 C 395.868 1.20304 3.2761 0
M  V30 4238 C 397.216 1.30308 4.0411 0
M  V30 4239 O 398.24 1.15737 3.36873 0
M  V30 4240 O 397.099 1.53615 5.24466 0
M  V30 4241 H 394.193 0.198129 0.802916 0
M  V30 4242 H 396.739 1.08794 1.30238 0
M  V30 4243 H 395.511 2.24461 3.2052 0
M  V30 4244 H 395.134 0.684144 3.9167 0
M  V30 4245 N 396.131 -1.37776 0.765217 0
M  V30 4246 C 397.079 -2.32209 0.134798 0
M  V30 4247 C 398.073 -1.54607 -0.692315 0
M  V30 4248 O 399.279 -1.70052 -0.590109 0
M  V30 4249 H 395.654 -0.751591 0.0248005 0
M  V30 4250 H 397.625 -2.8297 0.947119 0
M  V30 4251 C 396.374 -3.39841 -0.735063 0
M  V30 4252 H 395.697 -3.99654 -0.107991 0
M  V30 4253 H 397.137 -4.08296 -1.14326 0
M  V30 4254 C 395.596 -2.79378 -1.88281 0
M  V30 4255 O 396.126 -2.69608 -2.97783 0
M  V30 4256 N 394.332 -2.37016 -1.68142 0
M  V30 4257 H 393.879 -2.45162 -0.790772 0
M  V30 4258 H 393.837 -1.96905 -2.45104 0
M  V30 4259 N 397.609 -0.515225 -1.4894 0
M  V30 4260 C 398.886 0.0879088 -1.95402 0
M  V30 4261 C 399.266 1.52745 -1.45712 0
M  V30 4262 O 398.614 2.18238 -0.677093 0
M  V30 4263 C 398.824 -0.0141055 -3.48997 0
M  V30 4264 C 400.172 0.152646 -4.24326 0
M  V30 4265 O 401.196 0.0604025 -3.56149 0
M  V30 4266 O 400.055 0.34384 -5.45417 0
M  V30 4267 H 397.149 0.0874636 -0.822362 0
M  V30 4268 H 399.695 -0.578775 -1.59525 0
M  V30 4269 H 398.467 -1.01745 -3.77841 0
M  V30 4270 H 398.09 0.692091 -3.9153 0
M  V30 4271 N 399.087 1.5561 -0.249682 0
M  V30 4272 C 400.317 2.03116 0.377803 0
M  V30 4273 C 400.725 1.12822 1.51881 0
M  V30 4274 O 400.068 0.13562 1.83199 0
M  V30 4275 C 400.13 3.46866 0.944693 0
M  V30 4276 C 399.794 4.56955 -0.0644259 0
M  V30 4277 C 400.791 5.12485 -0.874957 0
M  V30 4278 C 398.476 5.01936 -0.19132 0
M  V30 4279 C 400.47 6.11491 -1.79881 0
M  V30 4280 C 398.157 6.00773 -1.11868 0
M  V30 4281 C 399.155 6.5543 -1.92095 0
M  V30 4282 O 398.843 7.5234 -2.83267 0
M  V30 4283 H 398.575 0.669489 0.0935961 0
M  V30 4284 H 401.129 2.02004 -0.371966 0
M  V30 4285 H 399.359 3.45136 1.74407 0
M  V30 4286 H 401.048 3.77856 1.48255 0
M  V30 4287 H 401.814 4.78564 -0.787523 0
M  V30 4288 H 397.693 4.59055 0.423072 0
M  V30 4289 H 401.237 6.54078 -2.42543 0
M  V30 4290 H 397.134 6.34114 -1.20703 0
M  V30 4291 H 397.902 7.69966 -2.7766 0
M  V30 4292 N 400.565 -0.0233959 1.57583 0
M  V30 4293 C 401.475 -1.03907 2.10334 0
M  V30 4294 C 402.491 -1.39257 1.04323 0
M  V30 4295 O 403.667 -1.48462 1.36091 0
M  V30 4296 C 400.732 -2.31938 2.57693 0
M  V30 4297 C 399.793 -2.03117 3.78209 0
M  V30 4298 C 399.026 -3.25043 4.233 0
M  V30 4299 O 399.249 -4.35916 3.67876 0
M  V30 4300 O 398.183 -3.10411 5.15683 0
M  V30 4301 H 402.009 -0.620748 2.97288 0
M  V30 4302 H 399.594 -0.240743 1.47448 0
M  V30 4303 H 401.476 -3.07196 2.88458 0
M  V30 4304 H 400.151 -2.73055 1.73847 0
M  V30 4305 H 399.058 -1.25408 3.52454 0
M  V30 4306 H 400.391 -1.66852 4.63056 0
M  V30 4307 N 402.043 -1.548 -0.295768 0
M  V30 4308 C 403.283 -1.76069 -1.03823 0
M  V30 4309 C 403.647 -0.537992 -1.84309 0
M  V30 4310 O 404.848 -0.628514 -2.61349 0
M  V30 4311 C 403.119 -3.01705 -1.91596 0
M  V30 4312 S 404.678 -3.43998 -2.72416 0
M  V30 4313 H 401.496 -0.618852 -0.350062 0
M  V30 4314 H 404.098 -1.93009 -0.31106 0
M  V30 4315 H 402.802 -3.88812 -1.31351 0
M  V30 4316 H 402.333 -2.87366 -2.68671 0
M  V30 4317 H 404.348 -3.0148 -3.94112 0
M  V30 4318 N 403.521 0.559213 -1.47345 0
M  V30 4319 C 404.468 1.66645 -1.59682 0
M  V30 4320 C 405.438 1.60168 -0.43994 0
M  V30 4321 O 406.623 1.79031 -0.659736 0
M  V30 4322 C 403.763 3.04969 -1.61518 0
M  V30 4323 C 402.876 3.21897 -2.88108 0
M  V30 4324 C 402.011 4.50608 -2.81294 0
M  V30 4325 C 401.05 4.60961 -4.02717 0
M  V30 4326 N 400.187 5.81024 -3.94151 0
M  V30 4327 H 405.027 1.55439 -2.54249 0
M  V30 4328 H 402.564 0.757219 -1.26113 0
M  V30 4329 H 404.522 3.85064 -1.60566 0
M  V30 4330 H 403.152 3.15015 -0.704645 0
M  V30 4331 H 402.204 2.35248 -2.98936 0
M  V30 4332 H 403.516 3.25412 -3.78032 0
M  V30 4333 H 402.67 5.3896 -2.7858 0
M  V30 4334 H 401.409 4.49568 -1.89049 0
M  V30 4335 H 400.414 3.71021 -4.05738 0
M  V30 4336 H 401.639 4.63761 -4.96087 0
M  V30 4337 H 399.585 5.80938 -3.04708 0
M  V30 4338 H 399.502 5.85909 -4.77752 0
M  V30 4339 H 400.77 6.71744 -3.9545 0
M  V30 4340 N 404.999 1.35443 0.805782 0
M  V30 4341 C 406.245 1.28952 1.56522 0
M  V30 4342 C 406.578 -0.135597 1.93726 0
M  V30 4343 O 405.853 -1.08516 1.61414 0
M  V30 4344 C 406.136 2.19678 2.85331 0
M  V30 4345 C 405.989 3.7081 2.54598 0
M  V30 4346 C 407.308 2.09495 3.8704 0
M  V30 4347 H 404.427 0.469764 0.567883 0
M  V30 4348 H 407.069 1.65851 0.927001 0
M  V30 4349 H 405.219 1.8834 3.39795 0
M  V30 4350 H 406.891 4.12593 2.06312 0
M  V30 4351 H 405.134 3.91051 1.8778 0
M  V30 4352 H 405.805 4.29679 3.46525 0
M  V30 4353 H 408.281 2.37045 3.41978 0
M  V30 4354 H 407.157 2.75173 4.74943 0
M  V30 4355 H 407.418 1.07714 4.28777 0
M  V30 4356 N 406.477 -1.02803 1.19454 0
M  V30 4357 C 407.723 -1.76478 0.999171 0
M  V30 4358 C 408.056 -1.88456 -0.468828 0
M  V30 4359 O 407.331 -1.40198 -1.34814 0
M  V30 4360 C 407.614 -3.19044 1.66981 0
M  V30 4361 C 407.467 -3.14932 3.21151 0
M  V30 4362 C 408.786 -4.17456 1.39349 0
M  V30 4363 H 405.905 -0.640614 0.364393 0
M  V30 4364 H 408.547 -1.20005 1.47305 0
M  V30 4365 H 406.697 -3.67263 1.2669 0
M  V30 4366 H 408.369 -2.74605 3.70661 0
M  V30 4367 H 406.612 -2.52625 3.52652 0
M  V30 4368 H 407.283 -4.1566 3.63223 0
M  V30 4369 H 409.759 -3.77842 1.74283 0
M  V30 4370 H 408.635 -5.154 1.88823 0
M  V30 4371 H 408.896 -4.40949 0.318813 0
M  V30 4372 N 407.956 -0.998596 -1.21925 0
M  V30 4373 C 409.184 -0.696286 -1.94832 0
M  V30 4374 C 409.599 0.740032 -1.73692 0
M  V30 4375 O 408.956 1.5 -1.03953 0
M  V30 4376 C 409.007 -0.999833 -3.47398 0
M  V30 4377 O 408.728 -2.37972 -3.67833 0
M  V30 4378 C 410.229 -0.716025 -4.37479 0
M  V30 4379 H 407.449 -0.257111 -0.619786 0
M  V30 4380 H 409.993 -1.33491 -1.54921 0
M  V30 4381 H 408.148 -0.406918 -3.85257 0
M  V30 4382 H 408.562 -2.48338 -4.61983 0
M  V30 4383 H 410.036 -0.978642 -5.43256 0
M  V30 4384 H 410.513 0.349968 -4.37803 0
M  V30 4385 H 411.119 -1.29025 -4.05256 0
M  V30 4386 N 409.434 1.37368 -0.772513 0
M  V30 4387 C 410.711 1.93839 -0.26188 0
M  V30 4388 C 411.091 1.7061 1.24319 0
M  V30 4389 O 410.439 1.05534 2.02669 0
M  V30 4390 C 410.649 3.43154 -0.636102 0
M  V30 4391 C 411.997 4.20249 -0.606324 0
M  V30 4392 O 413.021 3.5152 -0.575538 0
M  V30 4393 O 411.88 5.42809 -0.634086 0
M  V30 4394 H 408.974 0.82478 -0.0605555 0
M  V30 4395 H 411.52 1.4665 -0.853917 0
M  V30 4396 H 410.292 3.53647 -1.6748 0
M  V30 4397 H 409.915 3.97596 -0.0170516 0
M  V30 4398 N 410.912 0.523116 1.48665 0
M  V30 4399 C 412.189 -0.0775449 1.95446 0
M  V30 4400 C 412.569 -1.5197 1.4652 0
M  V30 4401 O 411.917 -2.17876 0.688657 0
M  V30 4402 C 412.127 0.0326135 3.48985 0
M  V30 4403 C 413.475 -0.130141 4.24401 0
M  V30 4404 O 414.499 -0.0415142 3.56176 0
M  V30 4405 O 413.358 -0.31491 5.45592 0
M  V30 4406 H 410.452 -0.0831012 0.822814 0
M  V30 4407 H 412.998 0.587227 1.59216 0
M  V30 4408 H 411.77 1.03748 3.77296 0
M  V30 4409 H 411.393 -0.671317 3.91892 0
M  V30 4410 N 412.39 -1.55475 0.257931 0
M  V30 4411 C 413.639 -1.98383 -0.364275 0
M  V30 4412 C 413.952 -1.14952 -1.58258 0
M  V30 4413 O 415.158 -1.47924 -2.27664 0
M  V30 4414 C 413.614 -3.53037 -0.699479 0
M  V30 4415 C 413.222 -4.45223 0.498046 0
M  V30 4416 C 414.966 -4.04575 -1.28526 0
M  V30 4417 C 412.873 -5.91238 0.138383 0
M  V30 4418 H 411.803 -0.740911 -0.13988 0
M  V30 4419 H 414.454 -1.79936 0.359883 0
M  V30 4420 H 412.836 -3.6722 -1.48207 0
M  V30 4421 H 414.01 -4.42803 1.27522 0
M  V30 4422 H 412.325 -4.04226 0.999503 0
M  V30 4423 H 414.922 -5.11196 -1.56788 0
M  V30 4424 H 415.265 -3.5258 -2.21344 0
M  V30 4425 H 415.798 -3.93762 -0.565337 0
M  V30 4426 H 412.537 -6.47294 1.03398 0
M  V30 4427 H 412.057 -5.96768 -0.602374 0
M  V30 4428 H 413.736 -6.46413 -0.27553 0
M  V30 4429 N 413.868 0.0150385 -1.57593 0
M  V30 4430 C 415.116 0.701613 -1.8953 0
M  V30 4431 C 415.437 1.75139 -0.857396 0
M  V30 4432 O 414.707 1.95607 0.107194 0
M  V30 4433 H 413.287 0.26213 -0.699498 0
M  V30 4434 H 415.949 -0.0223304 -1.94887 0
M  V30 4435 H 415.045 1.18236 -2.88837 0
M  V30 4436 N 415.346 1.54954 0.287554 0
M  V30 4437 C 416.309 1.86076 1.33823 0
M  V30 4438 C 417.309 0.734414 1.43049 0
M  V30 4439 O 418.499 1.00266 1.42452 0
M  V30 4440 C 415.631 2.05305 2.72144 0
M  V30 4441 H 416.824 2.79984 1.07465 0
M  V30 4442 H 414.377 1.47223 0.524902 0
M  V30 4443 H 415.112 1.1373 3.03704 0
M  V30 4444 H 414.897 2.873 2.66836 0
M  V30 4445 H 416.387 2.30706 3.48087 0
M  V30 4446 N 416.824 -0.551391 1.4764 0
M  V30 4447 C 418.049 -1.33837 1.58437 0
M  V30 4448 C 418.474 -1.866 0.237063 0
M  V30 4449 O 417.832 -1.6328 -0.787994 0
M  V30 4450 C 417.88 -2.48014 2.61766 0
M  V30 4451 O 416.984 -3.50419 2.1744 0
M  V30 4452 H 416.325 -0.397299 0.532024 0
M  V30 4453 H 418.855 -0.665759 1.93465 0
M  V30 4454 H 418.865 -2.94503 2.82369 0
M  V30 4455 H 417.54 -2.08969 3.5959 0
M  V30 4456 H 416.117 -3.10196 2.06961 0
M  V30 4457 N 418.302 -1.35869 -0.798587 0
M  V30 4458 C 419.532 -1.32529 -1.58491 0
M  V30 4459 C 419.94 0.0975405 -1.88948 0
M  V30 4460 O 419.283 1.06224 -1.49874 0
M  V30 4461 C 419.345 -2.07247 -2.9375 0
M  V30 4462 C 419.009 -3.56391 -2.86068 0
M  V30 4463 C 420.006 -4.50824 -2.58947 0
M  V30 4464 C 417.691 -3.9915 -3.04933 0
M  V30 4465 C 419.685 -5.85993 -2.5078 0
M  V30 4466 C 417.372 -5.34413 -2.96389 0
M  V30 4467 C 418.37 -6.27646 -2.69349 0
M  V30 4468 O 418.058 -7.60426 -2.60782 0
M  V30 4469 H 417.79 -0.456529 -0.498556 0
M  V30 4470 H 420.344 -1.79425 -0.999799 0
M  V30 4471 H 418.574 -1.55001 -3.54276 0
M  V30 4472 H 420.263 -1.96883 -3.54954 0
M  V30 4473 H 421.029 -4.19104 -2.44084 0
M  V30 4474 H 416.908 -3.26961 -3.24989 0
M  V30 4475 H 420.452 -6.58735 -2.29595 0
M  V30 4476 H 416.349 -5.65743 -3.10813 0
M  V30 4477 H 417.117 -7.70444 -2.76331 0
M  V30 4478 N 419.78 1.02168 -1.19998 0
M  V30 4479 C 421.01 1.79036 -1.031 0
M  V30 4480 C 421.418 1.84409 0.423078 0
M  V30 4481 O 420.761 1.29228 1.30559 0
M  V30 4482 C 420.823 3.25185 -1.53281 0
M  V30 4483 C 420.487 3.43431 -3.01503 0
M  V30 4484 C 421.484 3.33063 -3.99206 0
M  V30 4485 C 419.169 3.69412 -3.40353 0
M  V30 4486 C 421.163 3.48413 -5.33748 0
M  V30 4487 C 418.85 3.84406 -4.75053 0
M  V30 4488 C 419.848 3.7391 -5.71559 0
M  V30 4489 O 419.536 3.88452 -7.03818 0
M  V30 4490 H 419.268 0.570043 -0.363355 0
M  V30 4491 H 421.822 1.29524 -1.59414 0
M  V30 4492 H 420.052 3.75756 -0.913483 0
M  V30 4493 H 421.741 3.83671 -1.32481 0
M  V30 4494 H 422.507 3.12934 -3.70537 0
M  V30 4495 H 418.386 3.76671 -2.65782 0
M  V30 4496 H 421.93 3.40137 -6.09059 0
M  V30 4497 H 417.827 4.04035 -5.03415 0
M  V30 4498 H 418.595 4.055 -7.10993 0
M  V30 4499 N 421.258 1.00505 1.21394 0
M  V30 4500 C 422.674 0.717873 1.42544 0
M  V30 4501 C 422.874 -0.706936 1.88692 0
M  V30 4502 O 421.93 -1.47627 2.04847 0
M  V30 4503 C 423.243 1.73377 2.45684 0
M  V30 4504 C 424.791 1.75059 2.59467 0
M  V30 4505 C 425.266 2.75545 3.6584 0
M  V30 4506 N 426.757 2.74213 3.73311 0
M  V30 4507 C 427.492 3.48626 4.55245 0
M  V30 4508 N 426.988 4.32678 5.41075 0
M  V30 4509 N 428.781 3.37276 4.49668 0
M  V30 4510 H 420.932 1.92506 0.897503 0
M  V30 4511 H 423.195 0.830919 0.456375 0
M  V30 4512 H 422.901 2.75395 2.18748 0
M  V30 4513 H 422.775 1.53647 3.44489 0
M  V30 4514 H 425.162 0.737337 2.8574 0
M  V30 4515 H 425.243 1.98861 1.60897 0
M  V30 4516 H 424.887 3.77028 3.40313 0
M  V30 4517 H 424.817 2.49009 4.64007 0
M  V30 4518 H 427.308 2.13234 3.11993 0
M  V30 4519 H 427.621 4.86253 6.00648 0
M  V30 4520 H 425.966 4.3676 5.40616 0
M  V30 4521 H 429.157 2.71043 3.81646 0
M  V30 4522 H 429.33 3.95524 5.13288 0
M  V30 4523 N 422.737 -1.36956 0.779787 0
M  V30 4524 C 424.148 -1.82094 0.412156 0
M  V30 4525 C 424.499 -1.64926 -1.06273 0
M  V30 4526 O 423.624 -1.16483 -1.82375 0
M  V30 4527 C 424.219 -3.3059 0.741319 0
M  V30 4528 C 422.778 -3.73974 0.426641 0
M  V30 4529 C 421.925 -2.59368 0.980987 0
M  V30 4530 H 424.876 -1.25314 0.973758 0
M  V30 4531 H 424.897 -3.80489 0.028887 0
M  V30 4532 H 424.409 -3.43054 1.81482 0
M  V30 4533 H 422.51 -3.67076 -0.639215 0
M  V30 4534 H 422.623 -4.69778 0.940515 0
M  V30 4535 H 420.987 -2.51463 0.404757 0
M  V30 4536 H 421.77 -2.74621 2.06005 0
M  V30 4537 N 424.215 -0.530993 -1.48385 0
M  V30 4538 C 425.125 0.23503 -2.3342 0
M  V30 4539 C 426.141 0.93801 -1.46552 0
M  V30 4540 O 427.317 0.912745 -1.7953 0
M  V30 4541 C 424.382 1.26778 -3.22689 0
M  V30 4542 C 423.443 0.575038 -4.25431 0
M  V30 4543 C 422.676 1.55858 -5.10435 0
M  V30 4544 O 422.899 2.79129 -4.97437 0
M  V30 4545 O 421.833 1.09742 -5.91811 0
M  V30 4546 H 425.659 -0.461794 -3.00169 0
M  V30 4547 H 423.244 -0.291903 -1.46521 0
M  V30 4548 H 425.126 1.86457 -3.77904 0
M  V30 4549 H 423.801 1.94699 -2.586 0
M  V30 4550 H 422.708 -0.0622782 -3.74048 0
M  V30 4551 H 424.041 -0.062253 -4.92161 0
M  V30 4552 N 425.693 1.55336 -0.266172 0
M  V30 4553 C 426.626 2.18256 0.666296 0
M  V30 4554 C 427.604 1.14064 1.1588 0
M  V30 4555 O 428.788 1.42546 1.23341 0
M  V30 4556 C 425.915 2.79867 1.90768 0
M  V30 4557 C 424.961 3.97283 1.55141 0
M  V30 4558 S 425.794 5.31694 0.637313 0
M  V30 4559 C 426.95 5.96769 1.88727 0
M  V30 4560 H 427.183 2.97008 0.131647 0
M  V30 4561 H 424.716 1.54317 -0.0504869 0
M  V30 4562 H 426.674 3.15996 2.62025 0
M  V30 4563 H 425.335 2.01025 2.41346 0
M  V30 4564 H 424.528 4.3905 2.4749 0
M  V30 4565 H 424.13 3.6253 0.919113 0
M  V30 4566 H 426.422 6.15458 2.83227 0
M  V30 4567 H 427.365 6.91752 1.51276 0
M  V30 4568 H 427.773 5.26034 2.04814 0
M  V30 4569 N 427.171 -0.0066808 1.57599 0
M  V30 4570 C 428.582 -0.550379 1.78403 0
M  V30 4571 C 428.933 -1.74339 0.900014 0
M  V30 4572 O 428.058 -2.16166 0.100713 0
M  V30 4573 C 428.653 -1.00523 3.23544 0
M  V30 4574 C 427.212 -1.49428 3.45468 0
M  V30 4575 C 426.359 -0.442444 2.73748 0
M  V30 4576 H 429.31 0.219508 1.57175 0
M  V30 4577 H 429.331 -1.87157 3.31289 0
M  V30 4578 H 428.843 -0.136735 3.87859 0
M  V30 4579 H 426.944 -2.3839 2.86358 0
M  V30 4580 H 427.057 -1.52635 4.54136 0
M  V30 4581 H 425.421 -0.902578 2.38171 0
M  V30 4582 H 426.204 0.416973 3.40758 0
M  V30 4583 N 428.649 -1.55105 -0.279332 0
M  V30 4584 C 429.597 -1.88333 -1.36505 0
M  V30 4585 C 430.591 -0.759043 -1.51443 0
M  V30 4586 O 431.797 -0.943312 -1.53302 0
M  V30 4587 H 428.172 -0.59766 -0.456406 0
M  V30 4588 H 430.143 -2.79041 -1.05728 0
M  V30 4589 C 428.892 -2.16628 -2.7197 0
M  V30 4590 H 428.215 -3.02624 -2.61264 0
M  V30 4591 H 429.655 -2.43803 -3.46895 0
M  V30 4592 C 428.114 -0.971807 -3.22579 0
M  V30 4593 O 428.644 -0.203228 -4.01186 0
M  V30 4594 N 426.85 -0.771238 -2.80179 0
M  V30 4595 H 426.397 -1.39792 -2.1637 0
M  V30 4596 H 426.355 0.0263667 -3.14389 0
M  V30 4597 N 430.127 0.543554 -1.4793 0
M  V30 4598 C 431.09 1.63156 -1.60975 0
M  V30 4599 C 432.09 1.53346 -0.483899 0
M  V30 4600 O 433.28 1.5726 -0.749339 0
M  V30 4601 C 430.412 3.02743 -1.56716 0
M  V30 4602 H 431.605 1.52934 -2.57975 0
M  V30 4603 H 429.158 0.764557 -1.36324 0
M  V30 4604 H 429.893 3.18484 -0.611418 0
M  V30 4605 H 429.678 3.11272 -2.38438 0
M  V30 4606 H 431.168 3.81871 -1.6901 0
M  V30 4607 N 431.605 1.3629 0.791371 0
M  V30 4608 C 432.552 1.30458 1.90393 0
M  V30 4609 C 433.522 0.173632 1.6519 0
M  V30 4610 O 434.707 0.35983 1.87376 0
M  V30 4611 C 431.847 1.09777 3.27174 0
M  V30 4612 C 430.96 2.31929 3.64462 0
M  V30 4613 C 430.095 2.04276 4.90352 0
M  V30 4614 C 429.134 3.224 5.20312 0
M  V30 4615 N 428.271 2.94424 6.37385 0
M  V30 4616 H 433.111 2.25589 1.94714 0
M  V30 4617 H 430.648 1.12122 0.952216 0
M  V30 4618 H 432.606 0.958133 4.06049 0
M  V30 4619 H 431.236 0.183014 3.22281 0
M  V30 4620 H 430.288 2.56703 2.80727 0
M  V30 4621 H 431.6 3.20085 3.82553 0
M  V30 4622 H 430.754 1.87231 5.77087 0
M  V30 4623 H 429.493 1.13428 4.74326 0
M  V30 4624 H 428.498 3.40005 4.32061 0
M  V30 4625 H 429.723 4.14071 5.38258 0
M  V30 4626 H 427.669 2.06185 6.22755 0
M  V30 4627 H 427.586 3.76118 6.55798 0
M  V30 4628 H 428.854 2.80953 7.27108 0
M  V30 4629 N 433.083 -1.0153 1.20538 0
M  V30 4630 C 434.494 -1.56598 1.01657 0
M  V30 4631 C 434.845 -1.91505 -0.426668 0
M  V30 4632 O 433.97 -1.72375 -1.30827 0
M  V30 4633 C 434.565 -2.84542 1.83905 0
M  V30 4634 C 433.124 -3.36133 1.69386 0
M  V30 4635 C 432.271 -2.09427 1.81757 0
M  V30 4636 H 435.222 -0.838974 1.34711 0
M  V30 4637 H 435.243 -3.56004 1.34319 0
M  V30 4638 H 434.755 -2.59105 2.8894 0
M  V30 4639 H 432.856 -3.66528 0.669933 0
M  V30 4640 H 432.969 -4.08248 2.50739 0
M  V30 4641 H 431.333 -2.21941 1.24957 0
M  V30 4642 H 432.116 -1.86414 2.88279 0
M  V30 4643 N 434.561 -1.01147 -1.20859 0
M  V30 4644 C 435.471 -0.58686 -2.27141 0
M  V30 4645 C 436.487 0.373198 -1.69951 0
M  V30 4646 O 437.663 0.235423 -2.00019 0
M  V30 4647 C 434.728 0.0733602 -3.46622 0
M  V30 4648 C 433.789 -0.931995 -4.19061 0
M  V30 4649 C 433.022 -0.303186 -5.32838 0
M  V30 4650 O 433.245 0.898395 -5.63281 0
M  V30 4651 O 432.179 -1.01735 -5.9324 0
M  V30 4652 H 436.005 -1.47155 -2.65667 0
M  V30 4653 H 433.59 -0.780689 -1.2738 0
M  V30 4654 H 435.472 0.442333 -4.19072 0
M  V30 4655 H 434.147 0.932329 -3.09983 0
M  V30 4656 H 433.054 -1.35224 -3.48805 0
M  V30 4657 H 434.387 -1.76076 -4.59628 0
M  V30 4658 N 436.039 1.36541 -0.78704 0
M  V30 4659 C 437.286 1.99304 -0.358341 0
M  V30 4660 C 437.614 1.62467 1.06933 0
M  V30 4661 O 436.869 0.870019 1.75297 0
M  V30 4662 C 437.168 3.54343 -0.466485 0
M  V30 4663 C 436.834 4.10993 -1.85461 0
M  V30 4664 C 435.496 4.26177 -2.23443 0
M  V30 4665 C 437.848 4.41895 -2.76366 0
M  V30 4666 C 435.176 4.69573 -3.51736 0
M  V30 4667 C 437.528 4.86722 -4.04084 0
M  V30 4668 C 436.192 5.00112 -4.42091 0
M  V30 4669 H 435.462 0.729306 -0.131126 0
M  V30 4670 H 438.109 1.63068 -1.00404 0
M  V30 4671 H 436.414 3.90918 0.262719 0
M  V30 4672 H 438.111 4.00833 -0.115854 0
M  V30 4673 H 434.701 3.99612 -1.54946 0
M  V30 4674 H 438.885 4.29735 -2.48277 0
M  V30 4675 H 434.141 4.78127 -3.81057 0
M  V30 4676 H 438.315 5.09598 -4.7464 0
M  V30 4677 H 435.942 5.33498 -5.41557 0
M  V30 4678 N 437.518 0.538854 1.48102 0
M  V30 4679 C 438.767 0.0059532 2.01699 0
M  V30 4680 C 439.08 -1.34476 1.42041 0
M  V30 4681 O 440.286 -1.96653 1.87189 0
M  V30 4682 C 438.742 -0.0397627 3.59878 0
M  V30 4683 C 438.35 1.30659 4.28523 0
M  V30 4684 C 440.094 -0.521024 4.2129 0
M  V30 4685 C 438.001 1.22098 5.78659 0
M  V30 4686 H 436.931 -0.00154456 0.753998 0
M  V30 4687 H 439.582 0.683963 1.70277 0
M  V30 4688 H 437.964 -0.783037 3.88181 0
M  V30 4689 H 439.138 2.06613 4.11883 0
M  V30 4690 H 437.453 1.7243 3.79021 0
M  V30 4691 H 440.05 -0.603184 5.31287 0
M  V30 4692 H 440.393 -1.52885 3.8721 0
M  V30 4693 H 440.926 0.166834 3.9745 0
M  V30 4694 H 437.665 2.20424 6.17328 0
M  V30 4695 H 437.185 0.50295 5.97688 0
M  V30 4696 H 438.864 0.915345 6.40492 0
M  V30 4697 N 438.996 -1.55193 0.274407 0
M  V30 4698 C 440.273 -1.91584 -0.394331 0
M  V30 4699 C 440.653 -1.19858 -1.73774 0
M  V30 4700 O 440.001 -0.3252 -2.26174 0
M  V30 4701 C 440.211 -3.4487 -0.535311 0
M  V30 4702 C 441.559 -4.16636 -0.818534 0
M  V30 4703 O 442.583 -3.5076 -0.620146 0
M  V30 4704 O 441.442 -5.33209 -1.19792 0
M  V30 4705 H 438.536 -0.798349 -0.215794 0
M  V30 4706 H 441.082 -1.66646 0.320507 0
M  V30 4707 H 439.854 -3.89145 0.410141 0
M  V30 4708 H 439.477 -3.75759 -1.29964 0
M  V30 4709 N 440.474 -0.00167713 -1.576 0
M  V30 4710 C 441.437 0.974046 -2.07473 0
M  V30 4711 C 442.437 1.27143 -0.984444 0
M  V30 4712 O 443.627 1.21633 -1.24703 0
M  V30 4713 C 440.759 2.29849 -2.51759 0
M  V30 4714 H 441.952 0.54262 -2.9495 0
M  V30 4715 H 439.505 0.245829 -1.54355 0
M  V30 4716 H 440.24 2.77677 -1.67529 0
M  V30 4717 H 440.025 2.09584 -3.31386 0
M  V30 4718 H 441.515 2.9984 -2.90664 0
M  V30 4719 N 441.952 1.55251 0.271103 0
M  V30 4720 C 442.882 1.9127 1.33933 0
M  V30 4721 C 443.863 0.77478 1.5143 0
M  V30 4722 O 445.048 1.03307 1.64442 0
M  V30 4723 C 442.178 2.18627 2.69851 0
M  V30 4724 C 441.132 3.34442 2.67081 0
M  V30 4725 C 440.458 3.47284 4.06569 0
M  V30 4726 C 441.758 4.70784 2.26185 0
M  V30 4727 H 443.452 2.80744 1.04035 0
M  V30 4728 H 440.998 1.35077 0.499017 0
M  V30 4729 H 442.951 2.42413 3.44694 0
M  V30 4730 H 441.675 1.25955 3.01335 0
M  V30 4731 H 440.334 3.10627 1.94695 0
M  V30 4732 H 439.982 2.52074 4.35279 0
M  V30 4733 H 439.682 4.25152 4.0561 0
M  V30 4734 H 441.206 3.73363 4.83148 0
M  V30 4735 H 442.62 4.94102 2.90751 0
M  V30 4736 H 441.017 5.51582 2.36384 0
M  V30 4737 H 442.087 4.69478 1.21319 0
M  V30 4738 N 443.43 -0.535701 1.48216 0
M  V30 4739 C 444.393 -1.623 1.61838 0
M  V30 4740 C 445.393 -1.53087 0.492024 0
M  V30 4741 O 446.583 -1.5686 0.757668 0
M  V30 4742 C 443.715 -3.01907 1.58319 0
M  V30 4743 H 444.908 -1.51564 2.58783 0
M  V30 4744 H 442.461 -0.757317 1.36727 0
M  V30 4745 H 443.196 -3.18155 0.628299 0
M  V30 4746 H 442.981 -3.10003 2.40085 0
M  V30 4747 H 444.471 -3.80969 1.71033 0
M  V30 4748 N 444.908 -1.36708 -0.784132 0
M  V30 4749 C 446.136 -1.34398 -1.57305 0
M  V30 4750 C 446.551 0.0735577 -1.88657 0
M  V30 4751 O 445.908 1.03193 -1.50524 0
M  V30 4752 C 445.959 -2.17053 -2.89085 0
M  V30 4753 O 445.68 -3.53281 -2.59083 0
M  V30 4754 C 447.181 -2.22583 -3.83369 0
M  V30 4755 H 444.401 -0.460819 -0.487736 0
M  V30 4756 H 446.945 -1.79879 -0.972819 0
M  V30 4757 H 445.1 -1.75113 -3.45564 0
M  V30 4758 H 445.514 -3.9647 -3.43383 0
M  V30 4759 H 446.988 -2.84763 -4.72878 0
M  V30 4760 H 447.465 -1.23075 -4.21603 0
M  V30 4761 H 448.071 -2.64781 -3.32823 0
M  V30 4762 N 446.386 1.0089 -1.21074 0
M  V30 4763 C 447.632 1.74866 -1.02712 0
M  V30 4764 C 447.965 1.89178 0.438787 0
M  V30 4765 O 447.24 1.42325 1.32567 0
M  V30 4766 C 447.523 3.16347 -1.72036 0
M  V30 4767 C 447.376 3.09782 -3.26121 0
M  V30 4768 C 448.695 4.15187 -1.45973 0
M  V30 4769 H 445.814 0.634736 -0.374539 0
M  V30 4770 H 448.456 1.17646 -1.49196 0
M  V30 4771 H 446.606 3.65201 -1.32517 0
M  V30 4772 H 448.278 2.68673 -3.74983 0
M  V30 4773 H 446.521 2.46982 -3.56626 0
M  V30 4774 H 447.192 4.09829 -3.6979 0
M  V30 4775 H 449.668 3.75022 -1.80272 0
M  V30 4776 H 448.544 5.12331 -1.96999 0
M  V30 4777 H 448.805 4.40386 -0.388924 0
M  V30 4778 N 447.864 1.01787 1.20321 0
M  V30 4779 C 449.11 0.708985 1.90003 0
M  V30 4780 C 449.443 -0.759572 1.78729 0
M  V30 4781 O 448.718 -1.55198 1.17234 0
M  V30 4782 C 449.001 1.1469 3.41348 0
M  V30 4783 C 448.854 2.67586 3.61549 0
M  V30 4784 C 450.173 0.71915 4.34185 0
M  V30 4785 H 447.292 0.259034 0.689978 0
M  V30 4786 H 449.934 1.26584 1.41692 0
M  V30 4787 H 448.084 0.673128 3.82624 0
M  V30 4788 H 449.756 3.22826 3.29517 0
M  V30 4789 H 447.999 3.085 3.04976 0
M  V30 4790 H 448.67 2.93281 4.67643 0
M  V30 4791 H 451.146 1.12647 4.00562 0
M  V30 4792 H 450.022 1.05358 5.38694 0
M  V30 4793 H 450.283 -0.379111 4.40472 0
M  V30 4794 N 449.342 -1.36122 0.79427 0
M  V30 4795 C 450.272 -2.32551 0.210328 0
M  V30 4796 C 451.253 -1.56884 -0.657386 0
M  V30 4797 O 452.438 -1.85014 -0.590207 0
M  V30 4798 C 449.568 -3.41128 -0.651819 0
M  V30 4799 C 448.522 -4.27842 0.116395 0
M  V30 4800 C 447.848 -5.2763 -0.86666 0
M  V30 4801 C 449.148 -5.05647 1.30837 0
M  V30 4802 H 450.842 -2.81636 1.01594 0
M  V30 4803 H 448.388 -1.35407 0.489981 0
M  V30 4804 H 450.341 -4.07581 -1.07031 0
M  V30 4805 H 449.065 -2.90622 -1.49019 0
M  V30 4806 H 447.724 -3.62952 0.515915 0
M  V30 4807 H 447.372 -4.73395 -1.70019 0
M  V30 4808 H 447.072 -5.86514 -0.35705 0
M  V30 4809 H 448.596 -5.96955 -1.28361 0
M  V30 4810 H 450.01 -5.65113 0.965393 0
M  V30 4811 H 448.407 -5.73967 1.75161 0
M  V30 4812 H 449.477 -4.37006 2.10128 0
M  V30 4813 N 450.82 -0.546701 -1.47814 0
M  V30 4814 C 451.767 0.206854 -2.29871 0
M  V30 4815 C 452.737 0.918235 -1.38411 0
M  V30 4816 O 453.922 0.915991 -1.67375 0
M  V30 4817 C 451.062 1.23746 -3.22151 0
M  V30 4818 C 450.175 0.533216 -4.28697 0
M  V30 4819 C 449.31 1.5482 -5.08138 0
M  V30 4820 C 448.349 0.828347 -6.06469 0
M  V30 4821 N 447.486 1.78966 -6.78908 0
M  V30 4822 H 452.326 -0.499037 -2.93792 0
M  V30 4823 H 449.863 -0.25793 -1.44821 0
M  V30 4824 H 451.821 1.84746 -3.74065 0
M  V30 4825 H 450.451 1.91151 -2.60117 0
M  V30 4826 H 449.503 -0.191089 -3.7992 0
M  V30 4827 H 450.815 -0.0311987 -4.9879 0
M  V30 4828 H 449.969 2.23202 -5.6415 0
M  V30 4829 H 448.708 2.14652 -4.37922 0
M  V30 4830 H 447.713 0.130539 -5.49645 0
M  V30 4831 H 448.938 0.235907 -6.7869 0
M  V30 4832 H 446.884 2.37675 -6.1143 0
M  V30 4833 H 446.801 1.27712 -7.45135 0
M  V30 4834 H 448.069 2.46496 -7.395 0
M  V30 4835 N 452.299 1.55045 -0.282633 0
M  V30 4836 C 453.246 2.22822 0.601566 0
M  V30 4837 C 454.216 1.20431 1.14392 0
M  V30 4838 O 455.401 1.48996 1.19184 0
M  V30 4839 C 452.541 2.95873 1.77632 0
M  V30 4840 C 451.654 4.12999 1.26711 0
M  V30 4841 C 450.789 4.73676 2.40426 0
M  V30 4842 C 449.828 5.82981 1.86545 0
M  V30 4843 N 448.965 6.3769 2.93762 0
M  V30 4844 H 453.805 2.97995 0.0169528 0
M  V30 4845 H 451.342 1.471 -0.00339964 0
M  V30 4846 H 453.3 3.36447 2.46697 0
M  V30 4847 H 451.93 2.2311 2.33285 0
M  V30 4848 H 450.982 3.77494 0.469314 0
M  V30 4849 H 452.294 4.91803 0.832518 0
M  V30 4850 H 451.448 5.17008 3.17471 0
M  V30 4851 H 450.187 3.94164 2.87203 0
M  V30 4852 H 449.192 5.39092 1.07983 0
M  V30 4853 H 450.417 6.64366 1.40694 0
M  V30 4854 H 448.363 5.61069 3.39908 0
M  V30 4855 H 448.28 7.11788 2.54744 0
M  V30 4856 H 449.548 6.8568 3.7076 0
M  V30 4857 N 453.777 0.010035 1.57597 0
M  V30 4858 C 454.707 -0.976857 2.12084 0
M  V30 4859 C 455.688 -1.35191 1.03235 0
M  V30 4860 O 456.873 -1.43389 1.3097 0
M  V30 4861 C 454.003 -2.26548 2.63236 0
M  V30 4862 C 452.957 -2.03175 3.76701 0
M  V30 4863 C 452.283 -3.38138 4.14206 0
M  V30 4864 C 453.583 -1.38625 5.03568 0
M  V30 4865 H 455.277 -0.523145 2.94794 0
M  V30 4866 H 452.823 -0.250195 1.4181 0
M  V30 4867 H 454.776 -2.95952 2.99984 0
M  V30 4868 H 453.5 -2.74051 1.77661 0
M  V30 4869 H 452.159 -1.36195 3.40362 0
M  V30 4870 H 451.807 -3.83363 3.25641 0
M  V30 4871 H 451.507 -3.23312 4.90656 0
M  V30 4872 H 453.031 -4.08841 4.53521 0
M  V30 4873 H 454.445 -1.98 5.38023 0
M  V30 4874 H 452.842 -1.34256 5.84889 0
M  V30 4875 H 453.912 -0.356722 4.83586 0
M  V30 4876 N 455.255 -1.55392 -0.262866 0
M  V30 4877 C 456.503 -1.76127 -0.991147 0
M  V30 4878 C 456.824 -0.571083 -1.8645 0
M  V30 4879 O 456.094 0.413698 -1.91482 0
M  V30 4880 H 454.674 -0.649528 -0.368948 0
M  V30 4881 H 457.336 -1.9281 -0.284655 0
M  V30 4882 H 456.432 -2.6663 -1.62219 0
M  V30 4883 N 456.733 0.527833 -1.48498 0
M  V30 4884 C 458.149 0.856571 -1.34666 0
M  V30 4885 C 458.349 1.98271 -0.35931 0
M  V30 4886 O 457.405 2.51551 0.218703 0
M  V30 4887 C 458.718 1.22207 -2.74747 0
M  V30 4888 C 460.266 1.33183 -2.83251 0
M  V30 4889 C 460.741 1.73075 -4.24039 0
M  V30 4890 N 462.232 1.80174 -4.26722 0
M  V30 4891 C 462.967 2.1243 -5.32598 0
M  V30 4892 N 462.463 2.43096 -6.4875 0
M  V30 4893 N 464.256 2.13454 -5.19994 0
M  V30 4894 H 456.407 -0.215174 -2.11307 0
M  V30 4895 H 458.67 -0.0336281 -0.947403 0
M  V30 4896 H 458.376 0.468195 -3.4857 0
M  V30 4897 H 458.25 2.17173 -3.08409 0
M  V30 4898 H 460.637 2.07647 -2.09683 0
M  V30 4899 H 460.718 0.363333 -2.53206 0
M  V30 4900 H 460.362 0.991712 -4.98124 0
M  V30 4901 H 460.292 2.70979 -4.51529 0
M  V30 4902 H 462.783 1.58744 -3.42942 0
M  V30 4903 H 463.096 2.6682 -7.25277 0
M  V30 4904 H 461.441 2.40611 -6.52021 0
M  V30 4905 H 464.632 1.88956 -4.28268 0
M  V30 4906 H 464.805 2.38261 -6.02608 0
M  V30 4907 O 458.25 1.46817 0.672841 0
M  V30 4908 H 458.941 1.41236 1.3256 0
M  V30 END ATOM
M  V30 BEGIN BOND
M  V30 END BOND
M  V30 END CTAB
M  END
$$$$
